# Generated by pormake.
# Topology wga, (5)-cn, num edge types: 1
# Building blocks:
#     Node 0, Type 0, BuildingBlock: BEQFEK_clean_sbu_0, # of connection points: 5
#     Node 1, Type 0, BuildingBlock: BEQFEK_clean_sbu_0, # of connection points: 5
#     Node 2, Type 0, BuildingBlock: BEQFEK_clean_sbu_0, # of connection points: 5
#     Node 3, Type 0, BuildingBlock: BEQFEK_clean_sbu_0, # of connection points: 5
#     Node 4, Type 0, BuildingBlock: BEQFEK_clean_sbu_0, # of connection points: 5
#     Node 5, Type 0, BuildingBlock: BEQFEK_clean_sbu_0, # of connection points: 5
#     Node 6, Type 0, BuildingBlock: BEQFEK_clean_sbu_0, # of connection points: 5
#     Node 7, Type 0, BuildingBlock: BEQFEK_clean_sbu_0, # of connection points: 5
#     Node 8, Type 0, BuildingBlock: BEQFEK_clean_sbu_0, # of connection points: 5
#     Node 9, Type 0, BuildingBlock: BEQFEK_clean_sbu_0, # of connection points: 5
#     Node 10, Type 0, BuildingBlock: BEQFEK_clean_sbu_0, # of connection points: 5
#     Node 11, Type 0, BuildingBlock: BEQFEK_clean_sbu_0, # of connection points: 5
#     Node 12, Type 0, BuildingBlock: BEQFEK_clean_sbu_0, # of connection points: 5
#     Node 13, Type 0, BuildingBlock: BEQFEK_clean_sbu_0, # of connection points: 5
#     Node 14, Type 0, BuildingBlock: BEQFEK_clean_sbu_0, # of connection points: 5
#     Node 15, Type 0, BuildingBlock: BEQFEK_clean_sbu_0, # of connection points: 5
#     Node 16, Type 0, BuildingBlock: BEQFEK_clean_sbu_0, # of connection points: 5
#     Node 17, Type 0, BuildingBlock: BEQFEK_clean_sbu_0, # of connection points: 5
#     Node 18, Type 0, BuildingBlock: BEQFEK_clean_sbu_0, # of connection points: 5
#     Node 19, Type 0, BuildingBlock: BEQFEK_clean_sbu_0, # of connection points: 5
#     Node 20, Type 0, BuildingBlock: BEQFEK_clean_sbu_0, # of connection points: 5
#     Node 21, Type 0, BuildingBlock: BEQFEK_clean_sbu_0, # of connection points: 5
#     Node 22, Type 0, BuildingBlock: BEQFEK_clean_sbu_0, # of connection points: 5
#     Node 23, Type 0, BuildingBlock: BEQFEK_clean_sbu_0, # of connection points: 5
#     Node 24, Type 0, BuildingBlock: BEQFEK_clean_sbu_0, # of connection points: 5
#     Node 25, Type 0, BuildingBlock: BEQFEK_clean_sbu_0, # of connection points: 5
#     Node 26, Type 0, BuildingBlock: BEQFEK_clean_sbu_0, # of connection points: 5
#     Node 27, Type 0, BuildingBlock: BEQFEK_clean_sbu_0, # of connection points: 5
#     Node 28, Type 0, BuildingBlock: BEQFEK_clean_sbu_0, # of connection points: 5
#     Node 29, Type 0, BuildingBlock: BEQFEK_clean_sbu_0, # of connection points: 5
#     Node 30, Type 0, BuildingBlock: BEQFEK_clean_sbu_0, # of connection points: 5
#     Node 31, Type 0, BuildingBlock: BEQFEK_clean_sbu_0, # of connection points: 5
#     Edge 32, Type (0, 0), None
#     Edge 33, Type (0, 0), None
#     Edge 34, Type (0, 0), None
#     Edge 35, Type (0, 0), None
#     Edge 36, Type (0, 0), None
#     Edge 37, Type (0, 0), None
#     Edge 38, Type (0, 0), None
#     Edge 39, Type (0, 0), None
#     Edge 40, Type (0, 0), None
#     Edge 41, Type (0, 0), None
#     Edge 42, Type (0, 0), None
#     Edge 43, Type (0, 0), None
#     Edge 44, Type (0, 0), None
#     Edge 45, Type (0, 0), None
#     Edge 46, Type (0, 0), None
#     Edge 47, Type (0, 0), None
#     Edge 48, Type (0, 0), None
#     Edge 49, Type (0, 0), None
#     Edge 50, Type (0, 0), None
#     Edge 51, Type (0, 0), None
#     Edge 52, Type (0, 0), None
#     Edge 53, Type (0, 0), None
#     Edge 54, Type (0, 0), None
#     Edge 55, Type (0, 0), None
#     Edge 56, Type (0, 0), None
#     Edge 57, Type (0, 0), None
#     Edge 58, Type (0, 0), None
#     Edge 59, Type (0, 0), None
#     Edge 60, Type (0, 0), None
#     Edge 61, Type (0, 0), None
#     Edge 62, Type (0, 0), None
#     Edge 63, Type (0, 0), None
#     Edge 64, Type (0, 0), None
#     Edge 65, Type (0, 0), None
#     Edge 66, Type (0, 0), None
#     Edge 67, Type (0, 0), None
#     Edge 68, Type (0, 0), None
#     Edge 69, Type (0, 0), None
#     Edge 70, Type (0, 0), None
#     Edge 71, Type (0, 0), None
#     Edge 72, Type (0, 0), None
#     Edge 73, Type (0, 0), None
#     Edge 74, Type (0, 0), None
#     Edge 75, Type (0, 0), None
#     Edge 76, Type (0, 0), None
#     Edge 77, Type (0, 0), None
#     Edge 78, Type (0, 0), None
#     Edge 79, Type (0, 0), None
#     Edge 80, Type (0, 0), None
#     Edge 81, Type (0, 0), None
#     Edge 82, Type (0, 0), None
#     Edge 83, Type (0, 0), None
#     Edge 84, Type (0, 0), None
#     Edge 85, Type (0, 0), None
#     Edge 86, Type (0, 0), None
#     Edge 87, Type (0, 0), None
#     Edge 88, Type (0, 0), None
#     Edge 89, Type (0, 0), None
#     Edge 90, Type (0, 0), None
#     Edge 91, Type (0, 0), None
#     Edge 92, Type (0, 0), None
#     Edge 93, Type (0, 0), None
#     Edge 94, Type (0, 0), None
#     Edge 95, Type (0, 0), None
#     Edge 96, Type (0, 0), None
#     Edge 97, Type (0, 0), None
#     Edge 98, Type (0, 0), None
#     Edge 99, Type (0, 0), None
#     Edge 100, Type (0, 0), None
#     Edge 101, Type (0, 0), None
#     Edge 102, Type (0, 0), None
#     Edge 103, Type (0, 0), None
#     Edge 104, Type (0, 0), None
#     Edge 105, Type (0, 0), None
#     Edge 106, Type (0, 0), None
#     Edge 107, Type (0, 0), None
#     Edge 108, Type (0, 0), None
#     Edge 109, Type (0, 0), None
#     Edge 110, Type (0, 0), None
#     Edge 111, Type (0, 0), None
# Relax obj value: 0.056
# Max RMSD: 0.139
# Mean RMSD: 0.139
data_MOF--net-wga--node1-BEQFEK_clean_sbu_0--edge1-none
_symmetry_space_group_name_H-M    P1
_symmetry_Int_Tables_number       1
_symmetry_cell_setting            triclinic
loop_
_symmetry_equiv_pos_as_xyz
'x, y, z'
_cell_length_a     51.044289
_cell_length_b     51.040254
_cell_length_c     11.291974
_cell_angle_alpha  89.998232
_cell_angle_beta   89.993372
_cell_angle_gamma 90.004538
loop_
_atom_site_label
_atom_site_type_symbol
_atom_site_fract_x
_atom_site_fract_y
_atom_site_fract_z
_atom_type_partial_charge
Co0 Co 0.06691 0.56301 0.90083 0.0
Co1 Co 0.06251 0.55338 0.17337 0.0
C2 C 0.0154 0.56975 0.03608 0.0
O3 O 0.02827 0.57135 0.93864 0.0
O4 O 0.02646 0.56286 0.13244 0.0
C5 C 0.05999 0.56103 0.65626 0.0
O6 O 0.03676 0.55287 0.68989 0.0
C7 C 0.05416 0.55826 0.43174 0.0
C8 C 0.09287 0.54654 0.50038 0.0
C9 C 0.0687 0.55615 0.53445 0.0
N10 N 0.06899 0.55059 0.33992 0.0
N11 N 0.09211 0.54343 0.38188 0.0
C12 C 0.02788 0.57047 0.42052 0.0
H13 H 0.02608 0.58108 0.33551 0.0
H14 H 0.02488 0.58444 0.49444 0.0
H15 H 0.01272 0.5549 0.42424 0.0
C16 C 0.11055 0.59773 0.99205 0.0
N17 N 0.09069 0.58059 0.00622 0.0
N18 N 0.08463 0.5798 0.11867 0.0
C19 C 0.0978 0.59846 0.17785 0.0
C20 C 0.11561 0.61017 0.10118 0.0
C21 C 0.1256 0.59978 0.87867 0.0
H22 H 0.127 0.58014 0.83685 0.0
H23 H 0.1149 0.61257 0.81571 0.0
H24 H 0.14563 0.60747 0.89415 0.0
O25 O 0.07082 0.525 0.90814 0.0
O26 O 0.06985 0.51809 0.10162 0.0
H27 H 0.09871 0.59745 0.36776 0.0
H28 H 0.09341 0.62972 0.30557 0.0
C29 C 0.089 0.60855 0.29587 0.0
H30 H 0.06756 0.60582 0.30526 0.0
H31 H 0.10769 0.53721 0.329 0.0
O32 O 0.0761 0.5693 0.73336 0.0
C33 C 0.07187 0.5096 -0.00433 0.0
Co34 Co 0.68458 0.81676 0.15114 0.0
Co35 Co 0.69423 0.8124 0.42368 0.0
C36 C 0.67798 0.76523 0.28641 0.0
O37 O 0.67634 0.7781 0.18897 0.0
O38 O 0.68485 0.77631 0.38276 0.0
C39 C 0.68655 0.80984 0.90652 0.0
O40 O 0.69473 0.78661 0.94008 0.0
C41 C 0.68932 0.80404 0.68199 0.0
C42 C 0.70104 0.84275 0.75075 0.0
C43 C 0.69142 0.81857 0.78474 0.0
N44 N 0.697 0.81889 0.59023 0.0
N45 N 0.70417 0.842 0.63225 0.0
C46 C 0.67713 0.77776 0.67065 0.0
H47 H 0.6665 0.77598 0.58565 0.0
H48 H 0.66316 0.77472 0.74457 0.0
H49 H 0.69271 0.76262 0.67422 0.0
C50 C 0.64983 0.86037 0.24236 0.0
N51 N 0.66696 0.84051 0.25654 0.0
N52 N 0.66776 0.83445 0.36899 0.0
C53 C 0.64911 0.84764 0.42819 0.0
C54 C 0.6374 0.86543 0.3515 0.0
C55 C 0.64778 0.87542 0.12899 0.0
H56 H 0.66742 0.87681 0.08714 0.0
H57 H 0.63499 0.86472 0.06604 0.0
H58 H 0.6401 0.89545 0.14447 0.0
O59 O 0.72257 0.82076 0.15842 0.0
O60 O 0.7295 0.81982 0.35189 0.0
H61 H 0.65015 0.84858 0.61809 0.0
H62 H 0.61787 0.84328 0.55605 0.0
C63 C 0.63903 0.83886 0.54628 0.0
H64 H 0.64176 0.81742 0.55572 0.0
H65 H 0.71039 0.85759 0.57942 0.0
O66 O 0.67828 0.82594 0.98368 0.0
C67 C 0.73797 0.82186 0.24591 0.0
Co68 Co 0.43084 0.43482 0.40085 0.0
Co69 Co 0.43523 0.44444 0.67338 0.0
C70 C 0.48234 0.42807 0.53608 0.0
O71 O 0.46948 0.42648 0.43864 0.0
O72 O 0.47128 0.43497 0.63243 0.0
C73 C 0.43776 0.43679 0.15626 0.0
O74 O 0.461 0.44495 0.18984 0.0
C75 C 0.44359 0.43955 0.93173 0.0
C76 C 0.40488 0.45129 0.00044 0.0
C77 C 0.42905 0.44167 0.03446 0.0
N78 N 0.42875 0.44723 0.83994 0.0
N79 N 0.40564 0.4544 0.88193 0.0
C80 C 0.46986 0.42734 0.92046 0.0
H81 H 0.47166 0.41672 0.83546 0.0
H82 H 0.47286 0.41337 -0.00562 0.0
H83 H 0.48502 0.44291 0.92415 0.0
C84 C 0.3872 0.4001 0.49207 0.0
N85 N 0.40706 0.41723 0.50624 0.0
N86 N 0.41311 0.41803 0.61869 0.0
C87 C 0.39993 0.39936 0.67787 0.0
C88 C 0.38213 0.38766 0.60119 0.0
C89 C 0.37215 0.39805 0.37869 0.0
H90 H 0.37075 0.41769 0.33688 0.0
H91 H 0.38286 0.38527 0.31572 0.0
H92 H 0.35212 0.39035 0.39416 0.0
O93 O 0.42694 0.47282 0.40816 0.0
O94 O 0.42789 0.47974 0.60164 0.0
H95 H 0.39901 0.40037 0.86778 0.0
H96 H 0.40432 0.36811 0.8056 0.0
C97 C 0.40873 0.38927 0.7959 0.0
H98 H 0.43017 0.392 0.80529 0.0
H99 H 0.39005 0.46062 0.82908 0.0
O100 O 0.42165 0.42853 0.23339 0.0
C101 C 0.42587 0.48822 0.49569 0.0
Co102 Co 0.81316 0.18106 0.65115 0.0
Co103 Co 0.80351 0.18542 0.92369 0.0
C104 C 0.81975 0.23259 0.78641 0.0
O105 O 0.8214 0.21972 0.68898 0.0
O106 O 0.81288 0.22151 0.88276 0.0
C107 C 0.81118 0.18798 0.40653 0.0
O108 O 0.803 0.21121 0.44011 0.0
C109 C 0.80841 0.19378 0.182 0.0
C110 C 0.79669 0.15507 0.25079 0.0
C111 C 0.80631 0.17925 0.28476 0.0
N112 N 0.80073 0.17893 0.09025 0.0
N113 N 0.79356 0.15582 0.13229 0.0
C114 C 0.82061 0.22006 0.17063 0.0
H115 H 0.83123 0.22184 0.08562 0.0
H116 H 0.83458 0.22309 0.24454 0.0
H117 H 0.80503 0.2352 0.17422 0.0
C118 C 0.84792 0.13746 0.74238 0.0
N119 N 0.83078 0.15731 0.75655 0.0
N120 N 0.82997 0.16337 0.869 0.0
C121 C 0.84863 0.15018 0.9282 0.0
C122 C 0.86034 0.13239 0.85152 0.0
C123 C 0.84997 0.12241 0.629 0.0
H124 H 0.83034 0.12101 0.58715 0.0
H125 H 0.86277 0.13311 0.56605 0.0
H126 H 0.85765 0.10237 0.64448 0.0
O127 O 0.77517 0.17706 0.65845 0.0
O128 O 0.76823 0.17799 0.85191 0.0
H129 H 0.84758 0.14924 0.1181 0.0
H130 H 0.87986 0.15454 0.05605 0.0
C131 C 0.8587 0.15896 0.04628 0.0
H132 H 0.85597 0.1804 0.05572 0.0
H133 H 0.78734 0.14023 0.07949 0.0
O134 O 0.81947 0.17189 0.48368 0.0
C135 C 0.75977 0.17596 0.74593 0.0
Co136 Co 0.06423 0.42922 0.07555 0.0
Co137 Co 0.05857 0.43633 0.80333 0.0
C138 C 0.01131 0.42594 0.94789 0.0
O139 O 0.02486 0.4241 0.04309 0.0
O140 O 0.02215 0.43004 0.84798 0.0
C141 C 0.05607 0.42503 0.32124 0.0
O142 O 0.03137 0.42703 0.2904 0.0
C143 C 0.05132 0.42548 0.54631 0.0
C144 C 0.08404 0.44856 0.4724 0.0
C145 C 0.0639 0.43178 0.44202 0.0
N146 N 0.06348 0.43796 0.63588 0.0
N147 N 0.08305 0.45168 0.59065 0.0
C148 C 0.03054 0.40513 0.55974 0.0
H149 H 0.02168 0.40557 0.64921 0.0
H150 H 0.03904 0.38552 0.54252 0.0
H151 H 0.01572 0.40775 0.48987 0.0
C152 C 0.10933 0.39646 0.98687 0.0
N153 N 0.08723 0.41055 0.97226 0.0
N154 N 0.0805 0.40957 0.86072 0.0
C155 C 0.09592 0.39239 0.80324 0.0
C156 C 0.11555 0.38396 0.87944 0.0
C157 C 0.12553 0.39823 0.09697 0.0
H158 H 0.12374 0.41816 0.13559 0.0
H159 H 0.11795 0.38425 0.16389 0.0
H160 H 0.14646 0.39416 0.07808 0.0
O161 O 0.07045 0.46635 0.06324 0.0
O162 O 0.06778 0.47231 0.86922 0.0
H163 H 0.09314 0.39194 0.61376 0.0
H164 H 0.09652 0.35978 0.68094 0.0
C165 C 0.08774 0.37952 0.69044 0.0
H166 H 0.06625 0.37699 0.69219 0.0
H167 H 0.09599 0.46293 0.64096 0.0
O168 O 0.07351 0.42308 0.24192 0.0
C169 C 0.07124 0.48122 0.97395 0.0
Co170 Co 0.81838 0.81438 0.32545 0.0
Co171 Co 0.81121 0.80872 0.0532 0.0
C172 C 0.82175 0.76147 0.19765 0.0
O173 O 0.82358 0.77502 0.29286 0.0
O174 O 0.81759 0.77231 0.09777 0.0
C175 C 0.82229 0.80624 0.57101 0.0
O176 O 0.81994 0.78157 0.53999 0.0
C177 C 0.82196 0.80151 0.79603 0.0
C178 C 0.79886 0.83425 0.7224 0.0
C179 C 0.81562 0.8141 0.69183 0.0
N180 N 0.80953 0.81367 0.88576 0.0
N181 N 0.79579 0.83325 0.84069 0.0
C182 C 0.84231 0.78073 0.80917 0.0
H183 H 0.84187 0.77181 0.89853 0.0
H184 H 0.86192 0.78924 0.79207 0.0
H185 H 0.83968 0.76595 0.73907 0.0
C186 C 0.85108 0.85952 0.2367 0.0
N187 N 0.83698 0.83742 0.22209 0.0
N188 N 0.83794 0.8307 0.11053 0.0
C189 C 0.85511 0.84613 0.053 0.0
C190 C 0.86357 0.86575 0.12923 0.0
C191 C 0.84935 0.8757 0.34689 0.0
H192 H 0.82943 0.87391 0.3856 0.0
H193 H 0.86334 0.8681 0.4137 0.0
H194 H 0.85343 0.89663 0.32807 0.0
O195 O 0.78124 0.82053 0.31332 0.0
O196 O 0.77524 0.81785 0.11932 0.0
H197 H 0.8555 0.84341 0.86351 0.0
H198 H 0.88769 0.84674 0.9305 0.0
C199 C 0.86794 0.83797 0.94007 0.0
H200 H 0.87044 0.81647 0.94167 0.0
H201 H 0.78457 0.84619 0.89113 0.0
O202 O 0.82454 0.82367 0.49182 0.0
C203 C 0.76634 0.82129 0.22409 0.0
Co204 Co 0.4335 0.5686 0.57556 0.0
Co205 Co 0.43918 0.56149 0.30334 0.0
C206 C 0.48643 0.57188 0.44788 0.0
O207 O 0.47288 0.57372 0.54308 0.0
O208 O 0.47559 0.56778 0.34798 0.0
C209 C 0.44166 0.5728 0.82124 0.0
O210 O 0.46636 0.57082 0.79038 0.0
C211 C 0.44643 0.57235 0.0463 0.0
C212 C 0.41369 0.54927 0.97245 0.0
C213 C 0.43384 0.56605 0.94203 0.0
N214 N 0.43427 0.55987 0.1359 0.0
N215 N 0.41469 0.54614 0.0907 0.0
C216 C 0.4672 0.5927 0.0597 0.0
H217 H 0.47606 0.59226 0.14917 0.0
H218 H 0.4587 0.6123 0.04246 0.0
H219 H 0.48203 0.59006 0.98983 0.0
C220 C 0.3884 0.60136 0.48688 0.0
N221 N 0.41051 0.58727 0.47228 0.0
N222 N 0.41724 0.58826 0.36074 0.0
C223 C 0.40183 0.60544 0.30325 0.0
C224 C 0.38219 0.61387 0.37945 0.0
C225 C 0.3722 0.59959 0.59699 0.0
H226 H 0.37399 0.57967 0.63561 0.0
H227 H 0.37977 0.61357 0.66391 0.0
H228 H 0.35127 0.60366 0.57809 0.0
O229 O 0.42728 0.53148 0.56325 0.0
O230 O 0.42997 0.52551 0.36924 0.0
H231 H 0.40461 0.60589 0.11378 0.0
H232 H 0.40123 0.63805 0.18096 0.0
C233 C 0.41001 0.61831 0.19045 0.0
H234 H 0.4315 0.62084 0.1922 0.0
H235 H 0.40175 0.5349 0.14104 0.0
O236 O 0.42422 0.57474 0.74194 0.0
C237 C 0.4265 0.5166 0.47397 0.0
Co238 Co 0.67936 0.18344 0.82546 0.0
Co239 Co 0.68654 0.1891 0.55321 0.0
C240 C 0.676 0.23635 0.69765 0.0
O241 O 0.67416 0.2228 0.79286 0.0
O242 O 0.68016 0.22551 0.59778 0.0
C243 C 0.67548 0.19158 0.07102 0.0
O244 O 0.67786 0.21624 0.03997 0.0
C245 C 0.6758 0.19631 0.29603 0.0
C246 C 0.69889 0.16356 0.2224 0.0
C247 C 0.68213 0.18371 0.19184 0.0
N248 N 0.68822 0.18415 0.38576 0.0
N249 N 0.70196 0.16457 0.34069 0.0
C250 C 0.65546 0.21709 0.30916 0.0
H251 H 0.6559 0.22602 0.39851 0.0
H252 H 0.63585 0.20859 0.29209 0.0
H253 H 0.6581 0.23187 0.23904 0.0
C254 C 0.64665 0.1383 0.73671 0.0
N255 N 0.66075 0.1604 0.7221 0.0
N256 N 0.65981 0.16712 0.61054 0.0
C257 C 0.64264 0.1517 0.55301 0.0
C258 C 0.63418 0.13207 0.62923 0.0
C259 C 0.64838 0.12212 0.84689 0.0
H260 H 0.66829 0.12391 0.88562 0.0
H261 H 0.63438 0.12972 0.9137 0.0
H262 H 0.64429 0.10119 0.82807 0.0
O263 O 0.7165 0.17729 0.81333 0.0
O264 O 0.72251 0.17997 0.61934 0.0
H265 H 0.64225 0.15442 0.36351 0.0
H266 H 0.61007 0.15109 0.43051 0.0
C267 C 0.62982 0.15986 0.44008 0.0
H268 H 0.62732 0.18135 0.44168 0.0
H269 H 0.71318 0.15162 0.39113 0.0
O270 O 0.67319 0.17415 0.99185 0.0
C271 C 0.7314 0.17653 0.72411 0.0
Co272 Co 0.93088 0.43485 0.08645 0.0
Co273 Co 0.93528 0.44448 0.81391 0.0
C274 C 0.98239 0.42811 0.95117 0.0
O275 O 0.96952 0.42651 0.04862 0.0
O276 O 0.97133 0.435 0.85482 0.0
C277 C 0.9378 0.43682 0.33103 0.0
O278 O 0.96104 0.44498 0.29742 0.0
C279 C 0.94363 0.43959 0.55555 0.0
C280 C 0.90492 0.45132 0.48689 0.0
C281 C 0.92909 0.4417 0.45284 0.0
N282 N 0.92879 0.44726 0.64736 0.0
N283 N 0.90568 0.45444 0.60539 0.0
C284 C 0.9699 0.42737 0.5668 0.0
H285 H 0.97169 0.41675 0.65181 0.0
H286 H 0.9729 0.4134 0.49288 0.0
H287 H 0.98506 0.44294 0.56309 0.0
C288 C 0.88724 0.40013 -0.00476 0.0
N289 N 0.9071 0.41726 0.98106 0.0
N290 N 0.91316 0.41806 0.86862 0.0
C291 C 0.89998 0.3994 0.80944 0.0
C292 C 0.88218 0.3877 0.88611 0.0
C293 C 0.87219 0.39808 0.10862 0.0
H294 H 0.87079 0.41772 0.15045 0.0
H295 H 0.88289 0.38529 0.17158 0.0
H296 H 0.85215 0.3904 0.09315 0.0
O297 O 0.92698 0.47286 0.07915 0.0
O298 O 0.92794 0.47977 0.88567 0.0
H299 H 0.89907 0.40041 0.61953 0.0
H300 H 0.90437 0.36814 0.68171 0.0
C301 C 0.90878 0.38931 0.69141 0.0
H302 H 0.93022 0.39203 0.68203 0.0
H303 H 0.8901 0.46066 0.65826 0.0
O304 O 0.92169 0.42856 0.25392 0.0
C305 C 0.92592 0.48825 0.99162 0.0
Co306 Co 0.31314 0.18101 0.83608 0.0
Co307 Co 0.30349 0.18537 0.56355 0.0
C308 C 0.31973 0.23254 0.70084 0.0
O309 O 0.32137 0.21967 0.79826 0.0
O310 O 0.31287 0.22146 0.60448 0.0
C311 C 0.31116 0.18793 0.08069 0.0
O312 O 0.30297 0.21115 0.04712 0.0
C313 C 0.30839 0.19373 0.30523 0.0
C314 C 0.29669 0.15501 0.23648 0.0
C315 C 0.30629 0.1792 0.20248 0.0
N316 N 0.30072 0.17888 0.397 0.0
N317 N 0.29356 0.15577 0.35499 0.0
C318 C 0.32057 0.22002 0.31654 0.0
H319 H 0.33119 0.22182 0.40155 0.0
H320 H 0.33454 0.22306 0.24262 0.0
H321 H 0.30498 0.23515 0.31293 0.0
C322 C 0.34792 0.13743 0.74485 0.0
N323 N 0.33077 0.15727 0.73068 0.0
N324 N 0.32996 0.16332 0.61823 0.0
C325 C 0.34863 0.15015 0.55903 0.0
C326 C 0.36035 0.13237 0.63571 0.0
C327 C 0.34998 0.12238 0.85823 0.0
H328 H 0.33035 0.12096 0.90008 0.0
H329 H 0.36276 0.13309 0.92117 0.0
H330 H 0.35768 0.10235 0.84275 0.0
O331 O 0.27515 0.17701 0.82881 0.0
O332 O 0.26822 0.17794 0.63534 0.0
H333 H 0.34759 0.14921 0.36913 0.0
H334 H 0.37986 0.15454 0.43117 0.0
C335 C 0.35869 0.15894 0.44094 0.0
H336 H 0.35595 0.18038 0.4315 0.0
H337 H 0.28735 0.14017 0.40782 0.0
O338 O 0.31945 0.17183 0.00355 0.0
C339 C 0.25975 0.17591 0.74132 0.0
Co340 Co 0.56685 0.56296 0.58643 0.0
Co341 Co 0.56247 0.55334 0.3139 0.0
C342 C 0.51535 0.56971 0.45117 0.0
O343 O 0.52821 0.57131 0.54862 0.0
O344 O 0.52641 0.56282 0.35482 0.0
C345 C 0.55993 0.561 0.83103 0.0
O346 O 0.53669 0.55285 0.79747 0.0
C347 C 0.55411 0.55824 0.05556 0.0
C348 C 0.59282 0.54649 0.98683 0.0
C349 C 0.56865 0.55612 0.95282 0.0
N350 N 0.56895 0.55056 0.14734 0.0
N351 N 0.59206 0.54338 0.10534 0.0
C352 C 0.52785 0.57046 0.06685 0.0
H353 H 0.52606 0.58108 0.15186 0.0
H354 H 0.52485 0.58444 0.99294 0.0
H355 H 0.51268 0.5549 0.06317 0.0
C356 C 0.6105 0.59768 0.49522 0.0
N357 N 0.59064 0.58055 0.48104 0.0
N358 N 0.58458 0.57976 0.36859 0.0
C359 C 0.59776 0.59842 0.30942 0.0
C360 C 0.61556 0.61012 0.3861 0.0
C361 C 0.62554 0.59973 0.6086 0.0
H362 H 0.62694 0.58009 0.65042 0.0
H363 H 0.61484 0.61252 0.67157 0.0
H364 H 0.64558 0.60742 0.59313 0.0
O365 O 0.57075 0.52496 0.57913 0.0
O366 O 0.5698 0.51805 0.38565 0.0
H367 H 0.59868 0.59741 0.11951 0.0
H368 H 0.59339 0.62968 0.18168 0.0
C369 C 0.58897 0.60851 0.19139 0.0
H370 H 0.56753 0.60579 0.182 0.0
H371 H 0.60764 0.53715 0.15817 0.0
O372 O 0.57604 0.56926 0.75389 0.0
C373 C 0.57182 0.50956 0.4916 0.0
Co374 Co 0.1846 0.81681 0.33608 0.0
Co375 Co 0.19426 0.81245 0.06353 0.0
C376 C 0.17801 0.76528 0.20083 0.0
O377 O 0.17637 0.77815 0.29826 0.0
O378 O 0.18489 0.77636 0.10448 0.0
C379 C 0.18659 0.80989 0.58068 0.0
O380 O 0.19479 0.78667 0.5471 0.0
C381 C 0.18936 0.80409 0.80522 0.0
C382 C 0.20106 0.84281 0.73644 0.0
C383 C 0.19146 0.81863 0.70246 0.0
N384 N 0.19704 0.81894 0.89697 0.0
N385 N 0.20419 0.84206 0.85494 0.0
C386 C 0.17718 0.7778 0.81656 0.0
H387 H 0.16657 0.77601 0.90158 0.0
H388 H 0.16321 0.77477 0.74266 0.0
H389 H 0.19277 0.76267 0.81293 0.0
C390 C 0.14982 0.86039 0.24484 0.0
N391 N 0.16697 0.84055 0.23067 0.0
N392 N 0.16779 0.8345 0.11822 0.0
C393 C 0.14912 0.84767 0.05902 0.0
C394 C 0.13739 0.86545 0.1357 0.0
C395 C 0.14775 0.87544 0.35822 0.0
H396 H 0.16738 0.87685 0.40008 0.0
H397 H 0.13496 0.86473 0.42116 0.0
H398 H 0.14005 0.89547 0.34274 0.0
O399 O 0.22259 0.82081 0.32878 0.0
O400 O 0.22953 0.81988 0.13532 0.0
H401 H 0.15017 0.84861 0.86912 0.0
H402 H 0.11789 0.84328 0.93117 0.0
C403 C 0.13906 0.83888 0.94093 0.0
H404 H 0.1418 0.81744 0.9315 0.0
H405 H 0.2104 0.85765 0.90776 0.0
O406 O 0.17829 0.82598 0.50355 0.0
C407 C 0.23799 0.82192 0.2413 0.0
Co408 Co 0.93357 0.56864 0.91169 0.0
Co409 Co 0.93923 0.56154 0.18391 0.0
C410 C 0.98648 0.57192 0.03935 0.0
O411 O 0.97294 0.57376 0.94414 0.0
O412 O 0.97564 0.56783 0.13926 0.0
C413 C 0.94172 0.5729 0.66597 0.0
O414 O 0.96644 0.571 0.69676 0.0
C415 C 0.94648 0.57242 0.44089 0.0
C416 C 0.91378 0.54932 0.51488 0.0
C417 C 0.93391 0.56613 0.54521 0.0
N418 N 0.93433 0.55992 0.35136 0.0
N419 N 0.91477 0.54618 0.39664 0.0
C420 C 0.96724 0.59279 0.42738 0.0
H421 H 0.97609 0.59235 0.33788 0.0
H422 H 0.95873 0.61239 0.44463 0.0
H423 H 0.98208 0.59018 0.49719 0.0
C424 C 0.88844 0.60137 0.00035 0.0
N425 N 0.91056 0.5873 0.01496 0.0
N426 N 0.91729 0.58829 0.1265 0.0
C427 C 0.90185 0.60546 0.18397 0.0
C428 C 0.88221 0.61387 0.10777 0.0
C429 C 0.87224 0.59957 0.89025 0.0
H430 H 0.87405 0.57965 0.85165 0.0
H431 H 0.8798 0.61356 0.82332 0.0
H432 H 0.85131 0.60362 0.90915 0.0
O433 O 0.92735 0.53151 0.92403 0.0
O434 O 0.93001 0.52555 0.11806 0.0
H435 H 0.90463 0.60592 0.37345 0.0
H436 H 0.90121 0.63807 0.30625 0.0
C437 C 0.91002 0.61834 0.29676 0.0
H438 H 0.9315 0.6209 0.29499 0.0
H439 H 0.90183 0.53492 0.34636 0.0
O440 O 0.92428 0.57477 0.74532 0.0
C441 C 0.92656 0.51663 0.01333 0.0
Co442 Co 0.17934 0.18338 0.66181 0.0
Co443 Co 0.18651 0.18904 0.93406 0.0
C444 C 0.17597 0.23629 0.78961 0.0
O445 O 0.17413 0.22274 0.6944 0.0
O446 O 0.18013 0.22545 0.88948 0.0
C447 C 0.17546 0.19152 0.41626 0.0
O448 O 0.17784 0.21618 0.4473 0.0
C449 C 0.17577 0.19625 0.19125 0.0
C450 C 0.19887 0.1635 0.26485 0.0
C451 C 0.18211 0.18365 0.29544 0.0
N452 N 0.1882 0.18409 0.1015 0.0
N453 N 0.20193 0.16451 0.14655 0.0
C454 C 0.15544 0.21703 0.17815 0.0
H455 H 0.15588 0.22596 0.0888 0.0
H456 H 0.13583 0.20853 0.19525 0.0
H457 H 0.15808 0.23181 0.24827 0.0
C458 C 0.14663 0.13825 0.75058 0.0
N459 N 0.16074 0.16034 0.76518 0.0
N460 N 0.15979 0.16706 0.87675 0.0
C461 C 0.14261 0.15164 0.93428 0.0
C462 C 0.13415 0.13202 0.85806 0.0
C463 C 0.14836 0.12207 0.64039 0.0
H464 H 0.16827 0.12385 0.60168 0.0
H465 H 0.13437 0.12967 0.57358 0.0
H466 H 0.14427 0.10113 0.65921 0.0
O467 O 0.21648 0.17723 0.67393 0.0
O468 O 0.22248 0.17991 0.86792 0.0
H469 H 0.14222 0.15436 0.12377 0.0
H470 H 0.11004 0.15104 0.05679 0.0
C471 C 0.12979 0.1598 0.04722 0.0
H472 H 0.1273 0.1813 0.04563 0.0
H473 H 0.21315 0.15156 0.09609 0.0
O474 O 0.17318 0.17409 0.49544 0.0
C475 C 0.23138 0.17648 0.76315 0.0
Co476 Co 0.56418 0.42918 0.41168 0.0
Co477 Co 0.55851 0.43628 0.6839 0.0
C478 C 0.51126 0.4259 0.53936 0.0
O479 O 0.52481 0.42406 0.44415 0.0
O480 O 0.5221 0.42999 0.63927 0.0
C481 C 0.55603 0.42491 0.16597 0.0
O482 O 0.53131 0.4268 0.19679 0.0
C483 C 0.55126 0.42539 0.9409 0.0
C484 C 0.58397 0.44849 0.01483 0.0
C485 C 0.56384 0.43169 0.04519 0.0
N486 N 0.56341 0.43789 0.85134 0.0
N487 N 0.58297 0.45163 0.89659 0.0
C488 C 0.5305 0.40503 0.92742 0.0
H489 H 0.52165 0.40546 0.83792 0.0
H490 H 0.53901 0.38543 0.94468 0.0
H491 H 0.51566 0.40764 -0.00276 0.0
C492 C 0.60931 0.39645 0.50033 0.0
N493 N 0.58719 0.41052 0.51494 0.0
N494 N 0.58045 0.40952 0.62648 0.0
C495 C 0.59589 0.39236 0.68396 0.0
C496 C 0.61554 0.38395 0.60776 0.0
C497 C 0.62551 0.39825 0.39024 0.0
H498 H 0.6237 0.41817 0.35163 0.0
H499 H 0.61796 0.38426 0.32331 0.0
H500 H 0.64645 0.3942 0.40914 0.0
O501 O 0.5704 0.46631 0.42401 0.0
O502 O 0.56772 0.47227 0.61804 0.0
H503 H 0.5931 0.39189 0.87344 0.0
H504 H 0.59653 0.35974 0.80623 0.0
C505 C 0.58772 0.37947 0.79675 0.0
H506 H 0.56623 0.37691 0.79498 0.0
H507 H 0.59591 0.4629 0.84629 0.0
O508 O 0.57347 0.42305 0.2453 0.0
C509 C 0.57118 0.48118 0.51331 0.0
Co510 Co 0.31841 0.81445 0.1618 0.0
Co511 Co 0.31122 0.80878 0.43405 0.0
C512 C 0.32177 0.76153 0.28961 0.0
O513 O 0.32361 0.77508 0.1944 0.0
O514 O 0.31761 0.77237 0.38948 0.0
C515 C 0.32225 0.8063 0.91626 0.0
O516 O 0.31984 0.78165 0.94733 0.0
C517 C 0.32195 0.80158 0.69125 0.0
C518 C 0.29886 0.83433 0.76484 0.0
C519 C 0.31561 0.81417 0.79543 0.0
N520 N 0.30953 0.81373 0.60151 0.0
N521 N 0.2958 0.83332 0.64655 0.0
C522 C 0.34228 0.78078 0.67815 0.0
H523 H 0.34184 0.77185 0.58882 0.0
H524 H 0.36189 0.78928 0.69523 0.0
H525 H 0.33963 0.76601 0.7483 0.0
C526 C 0.35112 0.85958 0.25057 0.0
N527 N 0.33701 0.83748 0.26517 0.0
N528 N 0.33795 0.83076 0.37674 0.0
C529 C 0.35512 0.84618 0.43427 0.0
C530 C 0.3636 0.8658 0.35806 0.0
C531 C 0.3494 0.87576 0.14039 0.0
H532 H 0.32949 0.87398 0.10166 0.0
H533 H 0.36339 0.86815 0.07358 0.0
H534 H 0.35349 0.89669 0.15921 0.0
O535 O 0.28126 0.82059 0.17392 0.0
O536 O 0.27525 0.81791 0.36791 0.0
H537 H 0.35551 0.84346 0.62377 0.0
H538 H 0.38769 0.84677 0.55678 0.0
C539 C 0.36794 0.83801 0.54721 0.0
H540 H 0.37043 0.81652 0.54562 0.0
H541 H 0.28458 0.84627 0.59609 0.0
O542 O 0.32457 0.82373 -0.00459 0.0
C543 C 0.26636 0.82135 0.26313 0.0
Co544 Co 0.56692 0.06304 0.40082 0.0
Co545 Co 0.56252 0.05343 0.67336 0.0
C546 C 0.51541 0.06976 0.53605 0.0
O547 O 0.52828 0.07135 0.43862 0.0
O548 O 0.52646 0.06288 0.63243 0.0
C549 C 0.56 0.06108 0.15623 0.0
O550 O 0.53676 0.05293 0.18983 0.0
C551 C 0.55417 0.05832 0.93171 0.0
C552 C 0.59289 0.0466 0.00037 0.0
C553 C 0.56871 0.05621 0.03442 0.0
N554 N 0.56901 0.05065 0.8399 0.0
N555 N 0.59212 0.04348 0.88187 0.0
C556 C 0.52789 0.07052 0.92047 0.0
H557 H 0.52609 0.08114 0.83546 0.0
H558 H 0.52488 0.0845 -0.00562 0.0
H559 H 0.51274 0.05495 0.92418 0.0
C560 C 0.61056 0.09777 0.49201 0.0
N561 N 0.59069 0.08064 0.5062 0.0
N562 N 0.58462 0.07985 0.61864 0.0
C563 C 0.5978 0.09852 0.6778 0.0
C564 C 0.6156 0.11022 0.60111 0.0
C565 C 0.62562 0.0998 0.37867 0.0
H566 H 0.627 0.08016 0.33685 0.0
H567 H 0.61494 0.1126 0.31567 0.0
H568 H 0.64566 0.10747 0.39418 0.0
O569 O 0.57084 0.02503 0.40817 0.0
O570 O 0.56986 0.01813 0.60166 0.0
H571 H 0.59869 0.09752 0.86771 0.0
H572 H 0.59342 0.12978 0.8055 0.0
C573 C 0.58899 0.10862 0.7958 0.0
H574 H 0.56755 0.1059 0.80516 0.0
H575 H 0.60771 0.03727 0.82899 0.0
O576 O 0.57611 0.06933 0.23336 0.0
C577 C 0.57189 0.00964 0.49571 0.0
Co578 Co 0.18463 0.31675 0.651 0.0
Co579 Co 0.19428 0.3124 0.92353 0.0
C580 C 0.17804 0.26522 0.78633 0.0
O581 O 0.1764 0.27808 0.68887 0.0
O582 O 0.18491 0.27631 0.88266 0.0
C583 C 0.18659 0.30983 0.40636 0.0
O584 O 0.19478 0.2866 0.43989 0.0
C585 C 0.18936 0.30405 0.18182 0.0
C586 C 0.20109 0.34275 0.25063 0.0
C587 C 0.19146 0.31857 0.28459 0.0
N588 N 0.19705 0.31889 0.09008 0.0
N589 N 0.20422 0.342 0.13213 0.0
C590 C 0.17716 0.27777 0.17043 0.0
H591 H 0.19274 0.26263 0.17394 0.0
H592 H 0.16653 0.276 0.08544 0.0
H593 H 0.16319 0.27473 0.24436 0.0
C594 C 0.14985 0.36034 0.74219 0.0
N595 N 0.167 0.3405 0.75638 0.0
N596 N 0.1678 0.33445 0.86884 0.0
C597 C 0.14914 0.34762 0.92802 0.0
C598 C 0.13741 0.3654 0.85132 0.0
C599 C 0.14779 0.37538 0.6288 0.0
H600 H 0.16742 0.37678 0.58692 0.0
H601 H 0.13499 0.36468 0.56588 0.0
H602 H 0.1401 0.39542 0.64427 0.0
O603 O 0.22262 0.32075 0.65825 0.0
O604 O 0.22955 0.31983 0.85171 0.0
H605 H 0.15019 0.34856 0.11792 0.0
H606 H 0.11791 0.34326 0.05592 0.0
C607 C 0.13907 0.33884 0.04613 0.0
H608 H 0.14179 0.3174 0.05556 0.0
H609 H 0.21045 0.3576 0.07932 0.0
O610 O 0.17832 0.32592 0.48353 0.0
C611 C 0.23802 0.32185 0.74573 0.0
Co612 Co 0.93083 0.93479 0.90084 0.0
Co613 Co 0.93522 0.94439 0.17337 0.0
C614 C 0.98234 0.92807 0.03604 0.0
O615 O 0.96947 0.92647 0.93861 0.0
O616 O 0.97128 0.93494 0.13242 0.0
C617 C 0.93775 0.93674 0.65623 0.0
O618 O 0.961 0.94488 0.68978 0.0
C619 C 0.94357 0.93949 0.4317 0.0
C620 C 0.90486 0.95123 0.50042 0.0
C621 C 0.92903 0.94161 0.53444 0.0
N622 N 0.92874 0.94717 0.33992 0.0
N623 N 0.90562 0.95434 0.38192 0.0
C624 C 0.96985 0.92729 0.42041 0.0
H625 H 0.97164 0.91667 0.3354 0.0
H626 H 0.97285 0.91331 0.49433 0.0
H627 H 0.985 0.94286 0.42409 0.0
C628 C 0.88719 0.90006 0.99203 0.0
N629 N 0.90705 0.91719 0.00621 0.0
N630 N 0.91312 0.91797 0.11865 0.0
C631 C 0.89994 0.8993 0.17782 0.0
C632 C 0.88214 0.8876 0.10112 0.0
C633 C 0.87213 0.89803 0.87868 0.0
H634 H 0.87075 0.91767 0.83688 0.0
H635 H 0.88281 0.88523 0.81568 0.0
H636 H 0.85209 0.89036 0.89419 0.0
O637 O 0.92692 0.97279 0.90819 0.0
O638 O 0.92788 0.97969 0.10167 0.0
H639 H 0.89903 0.90031 0.36773 0.0
H640 H 0.90431 0.86804 0.30552 0.0
C641 C 0.90873 0.88921 0.29583 0.0
H642 H 0.93017 0.89192 0.30518 0.0
H643 H 0.89004 0.96056 0.32907 0.0
O644 O 0.92164 0.9285 0.73339 0.0
C645 C 0.92586 0.98818 -0.00427 0.0
Co646 Co 0.31311 0.68108 0.15101 0.0
Co647 Co 0.30346 0.68542 0.42354 0.0
C648 C 0.31969 0.7326 0.28632 0.0
O649 O 0.32134 0.71974 0.18887 0.0
O650 O 0.31282 0.72151 0.38266 0.0
C651 C 0.31114 0.68799 0.90636 0.0
O652 O 0.30295 0.71122 0.93991 0.0
C653 C 0.30837 0.69377 0.68182 0.0
C654 C 0.29664 0.65507 0.75067 0.0
C655 C 0.30627 0.67924 0.7846 0.0
N656 N 0.30068 0.67892 0.5901 0.0
N657 N 0.29351 0.65581 0.63217 0.0
C658 C 0.32057 0.72004 0.67042 0.0
H659 H 0.30499 0.73519 0.67394 0.0
H660 H 0.3312 0.72182 0.58541 0.0
H661 H 0.33454 0.72309 0.74432 0.0
C662 C 0.3479 0.63748 0.2422 0.0
N663 N 0.33075 0.65732 0.25639 0.0
N664 N 0.32993 0.66337 0.36884 0.0
C665 C 0.3486 0.6502 0.42803 0.0
C666 C 0.36033 0.63243 0.35132 0.0
C667 C 0.34996 0.62244 0.12881 0.0
H668 H 0.33033 0.62104 0.08693 0.0
H669 H 0.36276 0.63315 0.06589 0.0
H670 H 0.35765 0.60241 0.14428 0.0
O671 O 0.27512 0.67707 0.15827 0.0
O672 O 0.26818 0.67799 0.35174 0.0
H673 H 0.34754 0.64926 0.61793 0.0
H674 H 0.37982 0.65457 0.55591 0.0
C675 C 0.35866 0.65898 0.54613 0.0
H676 H 0.35594 0.68042 0.55555 0.0
H677 H 0.28728 0.64022 0.57938 0.0
O678 O 0.31943 0.6719 0.98353 0.0
C679 C 0.25972 0.67596 0.24575 0.0
Co680 Co 0.56422 0.92926 0.57565 0.0
Co681 Co 0.55857 0.93637 0.30342 0.0
C682 C 0.51131 0.92596 0.44795 0.0
O683 O 0.52486 0.92412 0.54316 0.0
O684 O 0.52216 0.93007 0.34806 0.0
C685 C 0.55607 0.92511 0.82132 0.0
O686 O 0.53137 0.92715 0.79048 0.0
C687 C 0.55133 0.92553 0.04639 0.0
C688 C 0.58405 0.94862 0.97251 0.0
C689 C 0.56391 0.93184 0.94211 0.0
N690 N 0.56349 0.938 0.13598 0.0
N691 N 0.58306 0.95173 0.09077 0.0
C692 C 0.53056 0.90517 0.05978 0.0
H693 H 0.52168 0.90561 0.14924 0.0
H694 H 0.53906 0.88557 0.04258 0.0
H695 H 0.51574 0.9078 0.98988 0.0
C696 C 0.60932 0.8965 0.48702 0.0
N697 N 0.58722 0.91059 0.47238 0.0
N698 N 0.5805 0.90961 0.36084 0.0
C699 C 0.59591 0.89242 0.30338 0.0
C700 C 0.61554 0.88398 0.37961 0.0
C701 C 0.62551 0.89826 0.59714 0.0
H702 H 0.62373 0.91818 0.63576 0.0
H703 H 0.61793 0.88428 0.66405 0.0
H704 H 0.64645 0.89418 0.57827 0.0
O705 O 0.57045 0.96639 0.56333 0.0
O706 O 0.56779 0.97235 0.3693 0.0
H707 H 0.59314 0.89197 0.1139 0.0
H708 H 0.59652 0.85981 0.18108 0.0
C709 C 0.58774 0.87956 0.19057 0.0
H710 H 0.56624 0.87703 0.19232 0.0
H711 H 0.596 0.96298 0.1411 0.0
O712 O 0.57351 0.92312 0.74202 0.0
C713 C 0.57124 0.98126 0.47402 0.0
Co714 Co 0.31842 0.31438 0.82538 0.0
Co715 Co 0.31129 0.30872 0.55314 0.0
C716 C 0.32182 0.26147 0.69759 0.0
O717 O 0.32364 0.27502 0.79282 0.0
O718 O 0.31767 0.27231 0.59772 0.0
C719 C 0.32251 0.30623 0.07101 0.0
O720 O 0.32041 0.28154 0.04011 0.0
C721 C 0.32212 0.30149 0.29606 0.0
C722 C 0.29898 0.33419 0.22225 0.0
C723 C 0.31579 0.31407 0.1918 0.0
N724 N 0.30964 0.31364 0.38569 0.0
N725 N 0.29588 0.33319 0.34052 0.0
C726 C 0.3425 0.28075 0.30938 0.0
H727 H 0.34207 0.27186 0.3988 0.0
H728 H 0.36209 0.28928 0.29218 0.0
H729 H 0.33989 0.26594 0.23942 0.0
C730 C 0.35111 0.35953 0.73671 0.0
N731 N 0.33703 0.33742 0.72207 0.0
N732 N 0.33801 0.3307 0.61051 0.0
C733 C 0.35517 0.34614 0.55303 0.0
C734 C 0.3636 0.36578 0.62927 0.0
C735 C 0.34934 0.37571 0.84688 0.0
H736 H 0.32943 0.37391 0.88554 0.0
H737 H 0.36333 0.36813 0.91374 0.0
H738 H 0.35341 0.39665 0.82806 0.0
O739 O 0.28129 0.32052 0.81317 0.0
O740 O 0.2753 0.31785 0.61917 0.0
H741 H 0.35561 0.34339 0.36354 0.0
H742 H 0.38777 0.34679 0.43065 0.0
C743 C 0.36803 0.33799 0.44017 0.0
H744 H 0.37058 0.3165 0.44187 0.0
H745 H 0.28462 0.34612 0.39088 0.0
O746 O 0.32456 0.32367 0.99174 0.0
C747 C 0.2664 0.32128 0.72393 0.0
Co748 Co 0.93351 0.06856 0.07567 0.0
Co749 Co 0.93917 0.06146 0.80344 0.0
C750 C 0.98643 0.07186 0.94795 0.0
O751 O 0.97288 0.0737 0.04316 0.0
O752 O 0.97558 0.06776 0.84805 0.0
C753 C 0.94166 0.07273 0.32133 0.0
O754 O 0.96636 0.0707 0.29046 0.0
C755 C 0.94642 0.0723 0.54639 0.0
C756 C 0.91369 0.04921 0.47256 0.0
C757 C 0.93383 0.06599 0.44213 0.0
N758 N 0.93426 0.05983 0.636 0.0
N759 N 0.91469 0.0461 0.59082 0.0
C760 C 0.96719 0.09265 0.55975 0.0
H761 H 0.97606 0.09221 0.6492 0.0
H762 H 0.95869 0.11226 0.54252 0.0
H763 H 0.98201 0.09002 0.48984 0.0
C764 C 0.88842 0.10133 0.98704 0.0
N765 N 0.91051 0.08723 0.9724 0.0
N766 N 0.91724 0.08821 0.86086 0.0
C767 C 0.90183 0.1054 0.8034 0.0
C768 C 0.8822 0.11384 0.87962 0.0
C769 C 0.87222 0.09956 0.09716 0.0
H770 H 0.874 0.07964 0.13579 0.0
H771 H 0.8798 0.11355 0.16407 0.0
H772 H 0.85129 0.10364 0.07829 0.0
O773 O 0.92729 0.03143 0.06335 0.0
O774 O 0.92996 0.02548 0.86932 0.0
H775 H 0.90461 0.10586 0.61392 0.0
H776 H 0.90123 0.13802 0.6811 0.0
C777 C 0.91001 0.11827 0.69059 0.0
H778 H 0.93151 0.1208 0.69234 0.0
H779 H 0.90174 0.03485 0.64117 0.0
O780 O 0.92422 0.0747 0.24204 0.0
C781 C 0.9265 0.01656 0.97404 0.0
Co782 Co 0.17931 0.68344 0.32539 0.0
Co783 Co 0.18646 0.6891 0.05314 0.0
C784 C 0.17593 0.73635 0.19759 0.0
O785 O 0.1741 0.7228 0.29282 0.0
O786 O 0.18008 0.72551 0.09772 0.0
C787 C 0.17525 0.69159 0.57101 0.0
O788 O 0.17739 0.71628 0.54008 0.0
C789 C 0.17564 0.69633 0.79606 0.0
C790 C 0.19877 0.66362 0.72225 0.0
C791 C 0.18197 0.68375 0.6918 0.0
N792 N 0.18812 0.68418 0.88569 0.0
N793 N 0.20187 0.66463 0.84051 0.0
C794 C 0.15527 0.71708 0.80937 0.0
H795 H 0.1557 0.72597 0.89878 0.0
H796 H 0.13568 0.70855 0.7922 0.0
H797 H 0.15789 0.73189 0.73938 0.0
C798 C 0.14663 0.63829 0.23671 0.0
N799 N 0.16071 0.6604 0.22208 0.0
N800 N 0.15974 0.66712 0.11052 0.0
C801 C 0.14258 0.65168 0.05303 0.0
C802 C 0.13414 0.63204 0.12927 0.0
C803 C 0.14838 0.6221 0.34688 0.0
H804 H 0.1683 0.62391 0.38556 0.0
H805 H 0.13439 0.62969 0.41373 0.0
H806 H 0.14432 0.60117 0.32806 0.0
O807 O 0.21645 0.6773 0.31318 0.0
O808 O 0.22245 0.67997 0.11918 0.0
H809 H 0.14215 0.65443 0.86354 0.0
H810 H 0.10998 0.65104 0.93066 0.0
C811 C 0.12972 0.65984 0.94018 0.0
H812 H 0.12718 0.68133 0.94187 0.0
H813 H 0.21313 0.65169 0.89088 0.0
O814 O 0.17317 0.67415 0.49177 0.0
C815 C 0.23134 0.67654 0.22394 0.0
Co816 Co 0.43087 0.93482 0.58645 0.0
Co817 Co 0.43527 0.94442 0.31391 0.0
C818 C 0.48239 0.9281 0.4512 0.0
O819 O 0.46952 0.9265 0.54864 0.0
O820 O 0.47133 0.93497 0.35482 0.0
C821 C 0.4378 0.93677 0.83105 0.0
O822 O 0.46104 0.94491 0.79747 0.0
C823 C 0.44362 0.93952 0.05557 0.0
C824 C 0.40491 0.95126 0.98689 0.0
C825 C 0.42908 0.94164 0.95285 0.0
N826 N 0.42878 0.9472 0.14737 0.0
N827 N 0.40567 0.95438 0.10539 0.0
C828 C 0.46989 0.92731 0.06684 0.0
H829 H 0.47168 0.91669 0.15185 0.0
H830 H 0.4729 0.91333 0.99293 0.0
H831 H 0.48504 0.94288 0.06315 0.0
C832 C 0.38723 0.90009 0.49527 0.0
N833 N 0.4071 0.91722 0.48108 0.0
N834 N 0.41317 0.918 0.36864 0.0
C835 C 0.39998 0.89934 0.30948 0.0
C836 C 0.38218 0.88764 0.38617 0.0
C837 C 0.37216 0.89807 0.60862 0.0
H838 H 0.37079 0.91771 0.65043 0.0
H839 H 0.38284 0.88527 0.67161 0.0
H840 H 0.35212 0.89041 0.5931 0.0
O841 O 0.42696 0.97282 0.57911 0.0
O842 O 0.42793 0.97972 0.38562 0.0
H843 H 0.39909 0.90034 0.11957 0.0
H844 H 0.40435 0.86807 0.18178 0.0
C845 C 0.40878 0.88924 0.19148 0.0
H846 H 0.43023 0.89195 0.18212 0.0
H847 H 0.39009 0.9606 0.15826 0.0
O848 O 0.42168 0.92852 0.75391 0.0
C849 C 0.42591 0.98821 0.49156 0.0
Co850 Co 0.81308 0.68102 0.33623 0.0
Co851 Co 0.80343 0.68536 0.0637 0.0
C852 C 0.81967 0.73254 0.20092 0.0
O853 O 0.82131 0.71968 0.29837 0.0
O854 O 0.8128 0.72146 0.10458 0.0
C855 C 0.8111 0.68793 0.58085 0.0
O856 O 0.8029 0.71115 0.5473 0.0
C857 C 0.80833 0.69372 0.80539 0.0
C858 C 0.79662 0.655 0.73661 0.0
C859 C 0.80623 0.67919 0.70263 0.0
N860 N 0.80065 0.67887 0.89715 0.0
N861 N 0.7935 0.65575 0.85512 0.0
C862 C 0.82051 0.72 0.81674 0.0
H863 H 0.80492 0.73514 0.81318 0.0
H864 H 0.83114 0.72179 0.90173 0.0
H865 H 0.83448 0.72305 0.74282 0.0
C866 C 0.84789 0.63744 0.24502 0.0
N867 N 0.83072 0.65727 0.23084 0.0
N868 N 0.8299 0.66332 0.11838 0.0
C869 C 0.84858 0.65016 0.05919 0.0
C870 C 0.86033 0.6324 0.13589 0.0
C871 C 0.84996 0.6224 0.35842 0.0
H872 H 0.83034 0.62098 0.4003 0.0
H873 H 0.86275 0.63313 0.42133 0.0
H874 H 0.85767 0.60238 0.34295 0.0
O875 O 0.77509 0.67701 0.32898 0.0
O876 O 0.76815 0.67794 0.13552 0.0
H877 H 0.84754 0.64922 0.86929 0.0
H878 H 0.87981 0.65456 0.93129 0.0
C879 C 0.85864 0.65895 0.94109 0.0
H880 H 0.8559 0.68039 0.93165 0.0
H881 H 0.78728 0.64016 0.90794 0.0
O882 O 0.81939 0.67184 0.5037 0.0
C883 C 0.75969 0.67591 0.2415 0.0
Co884 Co 0.06686 0.063 0.08643 0.0
Co885 Co 0.06247 0.0534 0.8139 0.0
C886 C 0.01535 0.06972 0.9512 0.0
O887 O 0.02822 0.07132 0.04864 0.0
O888 O 0.02642 0.06285 0.85483 0.0
C889 C 0.05994 0.06105 0.33105 0.0
O890 O 0.03669 0.05292 0.29752 0.0
C891 C 0.05413 0.05831 0.55559 0.0
C892 C 0.09283 0.04655 0.48684 0.0
C893 C 0.06866 0.05618 0.45284 0.0
N894 N 0.06896 0.05062 0.64736 0.0
N895 N 0.09207 0.04344 0.60535 0.0
C896 C 0.02786 0.07052 0.56689 0.0
H897 H 0.02607 0.08115 0.6519 0.0
H898 H 0.02485 0.0845 0.49298 0.0
H899 H 0.0127 0.05496 0.56324 0.0
C900 C 0.11051 0.09772 -0.00474 0.0
N901 N 0.09064 0.0806 0.98107 0.0
N902 N 0.08458 0.07982 0.86862 0.0
C903 C 0.09776 0.09848 0.80947 0.0
C904 C 0.11557 0.11017 0.88616 0.0
C905 C 0.12557 0.09974 0.1086 0.0
H906 H 0.12694 0.0801 0.15041 0.0
H907 H 0.11489 0.11254 0.17161 0.0
H908 H 0.14561 0.1074 0.09309 0.0
O909 O 0.07077 0.025 0.07909 0.0
O910 O 0.06981 0.0181 0.8856 0.0
H911 H 0.09867 0.09747 0.61956 0.0
H912 H 0.0934 0.12974 0.68175 0.0
C913 C 0.08897 0.10858 0.69146 0.0
H914 H 0.06753 0.10587 0.6821 0.0
H915 H 0.10765 0.03721 0.65818 0.0
O916 O 0.07605 0.06929 0.25388 0.0
C917 C 0.07183 0.00961 0.99154 0.0
Co918 Co 0.68466 0.3168 0.83623 0.0
Co919 Co 0.69432 0.31246 0.56369 0.0
C920 C 0.67808 0.26528 0.70092 0.0
O921 O 0.67643 0.27814 0.79837 0.0
O922 O 0.68495 0.27637 0.60459 0.0
C923 C 0.68665 0.30989 0.08085 0.0
O924 O 0.69485 0.28667 0.04728 0.0
C925 C 0.68942 0.30411 0.30539 0.0
C926 C 0.70113 0.34282 0.23658 0.0
C927 C 0.69152 0.31864 0.20262 0.0
N928 N 0.6971 0.31895 0.39713 0.0
N929 N 0.70426 0.34207 0.35508 0.0
C930 C 0.67724 0.27782 0.31676 0.0
H931 H 0.69283 0.26269 0.31318 0.0
H932 H 0.66662 0.27603 0.40177 0.0
H933 H 0.66327 0.27478 0.24286 0.0
C934 C 0.64985 0.36037 0.74502 0.0
N935 N 0.66702 0.34055 0.73083 0.0
N936 N 0.66784 0.3345 0.61837 0.0
C937 C 0.64917 0.34766 0.55918 0.0
C938 C 0.63741 0.36542 0.63589 0.0
C939 C 0.64777 0.37541 0.85841 0.0
H940 H 0.66739 0.37683 0.9003 0.0
H941 H 0.63498 0.36469 0.92132 0.0
H942 H 0.64006 0.39544 0.84295 0.0
O943 O 0.72265 0.32081 0.82896 0.0
O944 O 0.72959 0.31988 0.6355 0.0
H945 H 0.65022 0.3486 0.36928 0.0
H946 H 0.61795 0.34326 0.4313 0.0
C947 C 0.63911 0.33887 0.44109 0.0
H948 H 0.64186 0.31743 0.43166 0.0
H949 H 0.71047 0.35766 0.40788 0.0
O950 O 0.67834 0.32598 0.0037 0.0
C951 C 0.73805 0.32191 0.74149 0.0
Co952 Co 0.43357 0.06859 0.41159 0.0
Co953 Co 0.43922 0.06149 0.68381 0.0
C954 C 0.48648 0.0719 0.53929 0.0
O955 O 0.47294 0.07373 0.44407 0.0
O956 O 0.47563 0.06779 0.63918 0.0
C957 C 0.44172 0.0728 0.16589 0.0
O958 O 0.46643 0.07083 0.1967 0.0
C959 C 0.44647 0.07236 0.94082 0.0
C960 C 0.41376 0.04925 0.01476 0.0
C961 C 0.4339 0.06605 0.04512 0.0
N962 N 0.43432 0.05987 0.85126 0.0
N963 N 0.41476 0.04613 0.89651 0.0
C964 C 0.46723 0.09272 0.92737 0.0
H965 H 0.47609 0.09229 0.83789 0.0
H966 H 0.45872 0.11232 0.94458 0.0
H967 H 0.48206 0.09011 -0.00277 0.0
C968 C 0.38846 0.10133 0.5002 0.0
N969 N 0.41057 0.08725 0.51484 0.0
N970 N 0.41729 0.08824 0.62638 0.0
C971 C 0.40186 0.10542 0.68384 0.0
C972 C 0.38223 0.11384 0.60761 0.0
C973 C 0.37227 0.09955 0.39008 0.0
H974 H 0.37407 0.07963 0.35147 0.0
H975 H 0.37984 0.11354 0.32316 0.0
H976 H 0.35133 0.10361 0.40896 0.0
O977 O 0.42735 0.03146 0.42393 0.0
O978 O 0.43001 0.0255 0.61796 0.0
H979 H 0.40464 0.10588 0.87331 0.0
H980 H 0.40123 0.13803 0.80612 0.0
C981 C 0.41003 0.1183 0.79663 0.0
H982 H 0.43152 0.12085 0.79487 0.0
H983 H 0.40182 0.03487 0.8462 0.0
O984 O 0.42429 0.07473 0.24522 0.0
C985 C 0.42656 0.01659 0.51324 0.0
Co986 Co 0.67928 0.68339 0.16188 0.0
Co987 Co 0.68642 0.68905 0.43412 0.0
C988 C 0.6759 0.7363 0.28966 0.0
O989 O 0.67407 0.72275 0.19444 0.0
O990 O 0.68004 0.72546 0.38954 0.0
C991 C 0.67521 0.69154 0.91626 0.0
O992 O 0.67733 0.71623 0.94717 0.0
C993 C 0.6756 0.69628 0.69121 0.0
C994 C 0.69873 0.66358 0.765 0.0
C995 C 0.68193 0.6837 0.79546 0.0
N996 N 0.68807 0.68413 0.60157 0.0
N997 N 0.70183 0.66458 0.64674 0.0
C998 C 0.65523 0.71703 0.67791 0.0
H999 H 0.65566 0.72591 0.58849 0.0
H1000 H 0.63563 0.7085 0.69511 0.0
H1001 H 0.65784 0.73184 0.74787 0.0
C1002 C 0.6466 0.63824 0.25057 0.0
N1003 N 0.66067 0.66035 0.2652 0.0
N1004 N 0.6597 0.66707 0.37676 0.0
C1005 C 0.64254 0.65163 0.43425 0.0
C1006 C 0.6341 0.632 0.35801 0.0
C1007 C 0.64836 0.62206 0.1404 0.0
H1008 H 0.66828 0.62386 0.10175 0.0
H1009 H 0.63437 0.62964 0.07354 0.0
H1010 H 0.64428 0.60112 0.15923 0.0
O1011 O 0.71642 0.67725 0.17408 0.0
O1012 O 0.72241 0.67992 0.36808 0.0
H1013 H 0.6421 0.65438 0.62374 0.0
H1014 H 0.60994 0.65099 0.55663 0.0
C1015 C 0.62968 0.65979 0.54711 0.0
H1016 H 0.62714 0.68128 0.54542 0.0
H1017 H 0.71309 0.65165 0.59637 0.0
O1018 O 0.67314 0.6741 -0.00448 0.0
C1019 C 0.73131 0.67649 0.26332 0.0
Co1020 Co 0.06418 0.92923 0.91157 0.0
Co1021 Co 0.05851 0.93632 0.1838 0.0
C1022 C 0.01126 0.92592 0.03929 0.0
O1023 O 0.02481 0.92409 0.94407 0.0
O1024 O 0.0221 0.93002 0.13919 0.0
C1025 C 0.05603 0.92501 0.66589 0.0
O1026 O 0.03132 0.92697 0.69673 0.0
C1027 C 0.05127 0.92546 0.44082 0.0
C1028 C 0.08398 0.94856 0.5147 0.0
C1029 C 0.06385 0.93176 0.5451 0.0
N1030 N 0.06342 0.93794 0.35124 0.0
N1031 N 0.08298 0.95169 0.39646 0.0
C1032 C 0.03051 0.90509 0.4274 0.0
H1033 H 0.02165 0.90553 0.33793 0.0
H1034 H 0.03902 0.88549 0.44464 0.0
H1035 H 0.01568 0.90771 0.49727 0.0
C1036 C 0.10929 0.89649 0.00018 0.0
N1037 N 0.08718 0.91056 0.01482 0.0
N1038 N 0.08045 0.90957 0.12636 0.0
C1039 C 0.09587 0.8924 0.18382 0.0
C1040 C 0.11551 0.88398 0.10759 0.0
C1041 C 0.12549 0.89827 0.89007 0.0
H1042 H 0.12368 0.91819 0.85145 0.0
H1043 H 0.11792 0.88428 0.82315 0.0
H1044 H 0.14642 0.89421 0.90894 0.0
O1045 O 0.0704 0.96636 0.92391 0.0
O1046 O 0.06773 0.97231 0.11794 0.0
H1047 H 0.09309 0.89193 0.3733 0.0
H1048 H 0.0965 0.85978 0.3061 0.0
C1049 C 0.0877 0.87951 0.29661 0.0
H1050 H 0.06622 0.87697 0.29486 0.0
H1051 H 0.09592 0.96295 0.34613 0.0
O1052 O 0.07347 0.92309 0.7452 0.0
C1053 C 0.07119 0.98123 0.01322 0.0
Co1054 Co 0.81846 0.31443 0.66187 0.0
Co1055 Co 0.81131 0.30877 0.93412 0.0
C1056 C 0.82184 0.26152 0.78967 0.0
O1057 O 0.82367 0.27507 0.69444 0.0
O1058 O 0.81769 0.27236 0.88954 0.0
C1059 C 0.82251 0.30629 0.41626 0.0
O1060 O 0.82035 0.2816 0.4472 0.0
C1061 C 0.82212 0.30155 0.19122 0.0
C1062 C 0.799 0.33425 0.26501 0.0
C1063 C 0.81579 0.31413 0.29546 0.0
N1064 N 0.80965 0.31369 0.10158 0.0
N1065 N 0.7959 0.33325 0.14674 0.0
C1066 C 0.84249 0.28079 0.17792 0.0
H1067 H 0.84206 0.2719 0.08851 0.0
H1068 H 0.86208 0.28931 0.19509 0.0
H1069 H 0.83987 0.26598 0.24791 0.0
C1070 C 0.85115 0.35958 0.75057 0.0
N1071 N 0.83707 0.33747 0.76519 0.0
N1072 N 0.83803 0.33075 0.87675 0.0
C1073 C 0.8552 0.34619 0.93425 0.0
C1074 C 0.86364 0.36582 0.85802 0.0
C1075 C 0.8494 0.37577 0.6404 0.0
H1076 H 0.82948 0.37397 0.60173 0.0
H1077 H 0.86339 0.36818 0.57355 0.0
H1078 H 0.85347 0.3967 0.65923 0.0
O1079 O 0.78133 0.32057 0.67407 0.0
O1080 O 0.77533 0.3179 0.86807 0.0
H1081 H 0.85562 0.34344 0.12374 0.0
H1082 H 0.88779 0.34682 0.05663 0.0
C1083 C 0.86805 0.33803 0.04711 0.0
H1084 H 0.87058 0.31653 0.04542 0.0
H1085 H 0.78465 0.34618 0.09637 0.0
O1086 O 0.82461 0.32373 0.4955 0.0
C1087 C 0.76643 0.32134 0.76331 0.0
loop_
_geom_bond_atom_site_label_1
_geom_bond_atom_site_label_2
_geom_bond_distance
_geom_bond_site_symmetry_2
_ccdc_geom_bond_type
Co0 O3 1.970 . S
Co0 N17 1.989 1_556 S
Co0 O25 1.967 . S
Co0 O32 1.920 . S
Co1 O4 1.966 . S
Co1 N10 2.022 . S
Co1 N18 1.993 . S
Co1 O26 1.941 . S
C2 O3 1.258 1_554 S
C2 O4 1.263 . S
O3 Co0 1.970 . S
O3 C2 1.258 1_556 S
O4 Co1 1.966 . S
O4 C2 1.263 . S
C5 O6 1.235 . S
C5 O32 1.289 . S
O6 C5 1.235 . S
C7 C9 1.400 . S
C7 N10 1.351 . S
C7 C12 1.501 . S
C8 C9 1.387 . S
C8 N11 1.341 . S
C9 C7 1.400 . S
C9 C8 1.387 . S
N10 Co1 2.022 . S
N10 C7 1.351 . S
N10 N11 1.365 . S
N11 C8 1.341 . S
N11 N10 1.365 . S
N11 H31 0.862 . S
C12 C7 1.501 . S
C12 H13 0.961 . S
C12 H14 0.961 . S
C12 H15 0.960 . S
H13 C12 0.961 . S
H14 C12 0.961 . S
H15 C12 0.960 . S
C16 N17 1.342 1_556 S
C16 C20 1.401 1_556 S
C16 C21 1.499 . S
N17 Co0 1.989 1_554 S
N17 C16 1.342 1_554 S
N17 N18 1.388 . S
N18 Co1 1.993 . S
N18 N17 1.388 . S
N18 C19 1.346 . S
C19 N18 1.346 . S
C19 C20 1.396 . S
C19 C29 1.510 . S
C20 C16 1.401 1_554 S
C20 C19 1.396 . S
C21 C16 1.499 . S
C21 H22 0.959 . S
C21 H23 0.960 . S
C21 H24 0.961 . S
H22 C21 0.959 . S
H23 C21 0.960 . S
H24 C21 0.961 . S
O25 Co0 1.967 . S
O25 C33 1.258 1_556 S
O26 Co1 1.941 . S
O26 C33 1.266 . S
H27 C29 0.959 . S
H28 C29 0.961 . S
C29 C19 1.510 . S
C29 H27 0.959 . S
C29 H28 0.961 . S
C29 H30 0.960 . S
H30 C29 0.960 . S
H31 N11 0.862 . S
O32 Co0 1.920 . S
O32 C5 1.289 . S
C33 O25 1.258 1_554 S
C33 O26 1.266 . S
Co34 O37 1.970 . S
Co34 N51 1.989 . S
Co34 O59 1.967 . S
Co34 O66 1.924 . S
Co35 O38 1.966 . S
Co35 N44 2.022 . S
Co35 N52 1.993 . S
Co35 O60 1.941 . S
C36 O37 1.258 . S
C36 O38 1.263 . S
O37 Co34 1.970 . S
O37 C36 1.258 . S
O38 Co35 1.966 . S
O38 C36 1.263 . S
C39 O40 1.235 . S
C39 O66 1.287 1_556 S
O40 C39 1.235 . S
C41 C43 1.400 . S
C41 N44 1.351 . S
C41 C46 1.501 . S
C42 C43 1.387 . S
C42 N45 1.341 . S
C43 C41 1.400 . S
C43 C42 1.387 . S
N44 Co35 2.022 . S
N44 C41 1.351 . S
N44 N45 1.365 . S
N45 C42 1.341 . S
N45 N44 1.365 . S
N45 H65 0.862 . S
C46 C41 1.501 . S
C46 H47 0.961 . S
C46 H48 0.961 . S
C46 H49 0.960 . S
H47 C46 0.961 . S
H48 C46 0.961 . S
H49 C46 0.960 . S
C50 N51 1.342 . S
C50 C54 1.401 . S
C50 C55 1.499 . S
N51 Co34 1.989 . S
N51 C50 1.342 . S
N51 N52 1.388 . S
N52 Co35 1.993 . S
N52 N51 1.388 . S
N52 C53 1.346 . S
C53 N52 1.346 . S
C53 C54 1.396 . S
C53 C63 1.510 . S
C54 C50 1.401 . S
C54 C53 1.396 . S
C55 C50 1.499 . S
C55 H56 0.959 . S
C55 H57 0.960 . S
C55 H58 0.961 . S
H56 C55 0.959 . S
H57 C55 0.960 . S
H58 C55 0.961 . S
O59 Co34 1.967 . S
O59 C67 1.258 . S
O60 Co35 1.941 . S
O60 C67 1.266 . S
H61 C63 0.959 . S
H62 C63 0.961 . S
C63 C53 1.510 . S
C63 H61 0.959 . S
C63 H62 0.961 . S
C63 H64 0.960 . S
H64 C63 0.960 . S
H65 N45 0.862 . S
O66 Co34 1.924 . S
O66 C39 1.287 1_554 S
C67 O59 1.258 . S
C67 O60 1.266 . S
Co68 O71 1.970 . S
Co68 N85 1.989 . S
Co68 O93 1.967 . S
Co68 O100 1.920 . S
Co69 O72 1.966 . S
Co69 N78 2.022 . S
Co69 N86 1.993 . S
Co69 O94 1.941 . S
C70 O71 1.258 . S
C70 O72 1.263 . S
O71 Co68 1.970 . S
O71 C70 1.258 . S
O72 Co69 1.966 . S
O72 C70 1.263 . S
C73 O74 1.235 . S
C73 O100 1.289 . S
O74 C73 1.235 . S
C75 C77 1.400 1_556 S
C75 N78 1.351 . S
C75 C80 1.501 . S
C76 C77 1.387 . S
C76 N79 1.341 1_554 S
C77 C75 1.400 1_554 S
C77 C76 1.387 . S
N78 Co69 2.022 . S
N78 C75 1.351 . S
N78 N79 1.365 . S
N79 C76 1.341 1_556 S
N79 N78 1.365 . S
N79 H99 0.862 . S
C80 C75 1.501 . S
C80 H81 0.961 . S
C80 H82 0.961 . S
C80 H83 0.960 . S
H81 C80 0.961 . S
H82 C80 0.961 . S
H83 C80 0.960 . S
C84 N85 1.342 . S
C84 C88 1.401 . S
C84 C89 1.499 . S
N85 Co68 1.989 . S
N85 C84 1.342 . S
N85 N86 1.388 . S
N86 Co69 1.993 . S
N86 N85 1.388 . S
N86 C87 1.346 . S
C87 N86 1.346 . S
C87 C88 1.396 . S
C87 C97 1.510 . S
C88 C84 1.401 . S
C88 C87 1.396 . S
C89 C84 1.499 . S
C89 H90 0.959 . S
C89 H91 0.960 . S
C89 H92 0.961 . S
H90 C89 0.959 . S
H91 C89 0.960 . S
H92 C89 0.961 . S
O93 Co68 1.967 . S
O93 C101 1.258 . S
O94 Co69 1.941 . S
O94 C101 1.266 . S
H95 C97 0.959 . S
H96 C97 0.961 . S
C97 C87 1.510 . S
C97 H95 0.959 . S
C97 H96 0.961 . S
C97 H98 0.960 . S
H98 C97 0.960 . S
H99 N79 0.862 . S
O100 Co68 1.920 . S
O100 C73 1.289 . S
C101 O93 1.258 . S
C101 O94 1.266 . S
Co102 O105 1.970 . S
Co102 N119 1.989 . S
Co102 O127 1.967 . S
Co102 O134 1.920 . S
Co103 O106 1.966 . S
Co103 N112 2.022 1_556 S
Co103 N120 1.993 . S
Co103 O128 1.941 . S
C104 O105 1.258 . S
C104 O106 1.263 . S
O105 Co102 1.970 . S
O105 C104 1.258 . S
O106 Co103 1.966 . S
O106 C104 1.263 . S
C107 O108 1.235 . S
C107 O134 1.289 . S
O108 C107 1.235 . S
C109 C111 1.400 . S
C109 N112 1.351 . S
C109 C114 1.501 . S
C110 C111 1.387 . S
C110 N113 1.341 . S
C111 C109 1.400 . S
C111 C110 1.387 . S
N112 Co103 2.022 1_554 S
N112 C109 1.351 . S
N112 N113 1.365 . S
N113 C110 1.341 . S
N113 N112 1.365 . S
N113 H133 0.862 . S
C114 C109 1.501 . S
C114 H115 0.961 . S
C114 H116 0.961 . S
C114 H117 0.960 . S
H115 C114 0.961 . S
H116 C114 0.961 . S
H117 C114 0.960 . S
C118 N119 1.342 . S
C118 C122 1.401 . S
C118 C123 1.499 . S
N119 Co102 1.989 . S
N119 C118 1.342 . S
N119 N120 1.388 . S
N120 Co103 1.993 . S
N120 N119 1.388 . S
N120 C121 1.346 . S
C121 N120 1.346 . S
C121 C122 1.396 . S
C121 C131 1.510 1_556 S
C122 C118 1.401 . S
C122 C121 1.396 . S
C123 C118 1.499 . S
C123 H124 0.959 . S
C123 H125 0.960 . S
C123 H126 0.961 . S
H124 C123 0.959 . S
H125 C123 0.960 . S
H126 C123 0.961 . S
O127 Co102 1.967 . S
O127 C135 1.258 . S
O128 Co103 1.941 . S
O128 C135 1.266 . S
H129 C131 0.959 . S
H130 C131 0.961 . S
C131 C121 1.510 1_554 S
C131 H129 0.959 . S
C131 H130 0.961 . S
C131 H132 0.960 . S
H132 C131 0.960 . S
H133 N113 0.862 . S
O134 Co102 1.920 . S
O134 C107 1.289 . S
C135 O127 1.258 . S
C135 O128 1.266 . S
Co136 O139 1.970 . S
Co136 N153 1.989 1_554 S
Co136 O161 1.967 . S
Co136 O168 1.920 . S
Co137 O140 1.966 . S
Co137 N146 2.022 . S
Co137 N154 1.993 . S
Co137 O162 1.941 . S
C138 O139 1.258 1_556 S
C138 O140 1.263 . S
O139 Co136 1.970 . S
O139 C138 1.258 1_554 S
O140 Co137 1.966 . S
O140 C138 1.263 . S
C141 O142 1.235 . S
C141 O168 1.289 . S
O142 C141 1.235 . S
C143 C145 1.400 . S
C143 N146 1.351 . S
C143 C148 1.501 . S
C144 C145 1.387 . S
C144 N147 1.341 . S
C145 C143 1.400 . S
C145 C144 1.387 . S
N146 Co137 2.022 . S
N146 C143 1.351 . S
N146 N147 1.365 . S
N147 C144 1.341 . S
N147 N146 1.365 . S
N147 H167 0.862 . S
C148 C143 1.501 . S
C148 H149 0.961 . S
C148 H150 0.961 . S
C148 H151 0.960 . S
H149 C148 0.961 . S
H150 C148 0.961 . S
H151 C148 0.960 . S
C152 N153 1.342 1_554 S
C152 C156 1.401 1_554 S
C152 C157 1.499 . S
N153 Co136 1.989 1_556 S
N153 C152 1.342 1_556 S
N153 N154 1.388 . S
N154 Co137 1.993 . S
N154 N153 1.388 . S
N154 C155 1.346 . S
C155 N154 1.346 . S
C155 C156 1.396 . S
C155 C165 1.510 . S
C156 C152 1.401 1_556 S
C156 C155 1.396 . S
C157 C152 1.499 . S
C157 H158 0.959 . S
C157 H159 0.960 . S
C157 H160 0.961 . S
H158 C157 0.959 . S
H159 C157 0.960 . S
H160 C157 0.961 . S
O161 Co136 1.967 . S
O161 C169 1.258 1_554 S
O162 Co137 1.941 . S
O162 C169 1.266 . S
H163 C165 0.959 . S
H164 C165 0.961 . S
C165 C155 1.510 . S
C165 H163 0.959 . S
C165 H164 0.961 . S
C165 H166 0.960 . S
H166 C165 0.960 . S
H167 N147 0.862 . S
O168 Co136 1.920 . S
O168 C141 1.289 . S
C169 O161 1.258 1_556 S
C169 O162 1.266 . S
Co170 O173 1.970 . S
Co170 N187 1.989 . S
Co170 O195 1.967 . S
Co170 O202 1.920 . S
Co171 O174 1.966 . S
Co171 N180 2.022 1_554 S
Co171 N188 1.993 . S
Co171 O196 1.941 . S
C172 O173 1.258 . S
C172 O174 1.263 . S
O173 Co170 1.970 . S
O173 C172 1.258 . S
O174 Co171 1.966 . S
O174 C172 1.263 . S
C175 O176 1.235 . S
C175 O202 1.289 . S
O176 C175 1.235 . S
C177 C179 1.400 . S
C177 N180 1.351 . S
C177 C182 1.501 . S
C178 C179 1.387 . S
C178 N181 1.341 . S
C179 C177 1.400 . S
C179 C178 1.387 . S
N180 Co171 2.022 1_556 S
N180 C177 1.351 . S
N180 N181 1.365 . S
N181 C178 1.341 . S
N181 N180 1.365 . S
N181 H201 0.862 . S
C182 C177 1.501 . S
C182 H183 0.961 . S
C182 H184 0.961 . S
C182 H185 0.960 . S
H183 C182 0.961 . S
H184 C182 0.961 . S
H185 C182 0.960 . S
C186 N187 1.342 . S
C186 C190 1.401 . S
C186 C191 1.499 . S
N187 Co170 1.989 . S
N187 C186 1.342 . S
N187 N188 1.388 . S
N188 Co171 1.993 . S
N188 N187 1.388 . S
N188 C189 1.346 . S
C189 N188 1.346 . S
C189 C190 1.396 . S
C189 C199 1.510 1_554 S
C190 C186 1.401 . S
C190 C189 1.396 . S
C191 C186 1.499 . S
C191 H192 0.959 . S
C191 H193 0.960 . S
C191 H194 0.961 . S
H192 C191 0.959 . S
H193 C191 0.960 . S
H194 C191 0.961 . S
O195 Co170 1.967 . S
O195 C203 1.258 . S
O196 Co171 1.941 . S
O196 C203 1.266 . S
H197 C199 0.959 . S
H198 C199 0.961 . S
C199 C189 1.510 1_556 S
C199 H197 0.959 . S
C199 H198 0.961 . S
C199 H200 0.960 . S
H200 C199 0.960 . S
H201 N181 0.862 . S
O202 Co170 1.920 . S
O202 C175 1.289 . S
C203 O195 1.258 . S
C203 O196 1.266 . S
Co204 O207 1.970 . S
Co204 N221 1.989 . S
Co204 O229 1.967 . S
Co204 O236 1.920 . S
Co205 O208 1.966 . S
Co205 N214 2.022 . S
Co205 N222 1.993 . S
Co205 O230 1.941 . S
C206 O207 1.258 . S
C206 O208 1.263 . S
O207 Co204 1.970 . S
O207 C206 1.258 . S
O208 Co205 1.966 . S
O208 C206 1.263 . S
C209 O210 1.235 . S
C209 O236 1.289 . S
O210 C209 1.235 . S
C211 C213 1.400 1_554 S
C211 N214 1.351 . S
C211 C216 1.501 . S
C212 C213 1.387 . S
C212 N215 1.341 1_556 S
C213 C211 1.400 1_556 S
C213 C212 1.387 . S
N214 Co205 2.022 . S
N214 C211 1.351 . S
N214 N215 1.365 . S
N215 C212 1.341 1_554 S
N215 N214 1.365 . S
N215 H235 0.862 . S
C216 C211 1.501 . S
C216 H217 0.961 . S
C216 H218 0.961 . S
C216 H219 0.960 . S
H217 C216 0.961 . S
H218 C216 0.961 . S
H219 C216 0.960 . S
C220 N221 1.342 . S
C220 C224 1.401 . S
C220 C225 1.499 . S
N221 Co204 1.989 . S
N221 C220 1.342 . S
N221 N222 1.388 . S
N222 Co205 1.993 . S
N222 N221 1.388 . S
N222 C223 1.346 . S
C223 N222 1.346 . S
C223 C224 1.396 . S
C223 C233 1.510 . S
C224 C220 1.401 . S
C224 C223 1.396 . S
C225 C220 1.499 . S
C225 H226 0.959 . S
C225 H227 0.960 . S
C225 H228 0.961 . S
H226 C225 0.959 . S
H227 C225 0.960 . S
H228 C225 0.961 . S
O229 Co204 1.967 . S
O229 C237 1.258 . S
O230 Co205 1.941 . S
O230 C237 1.266 . S
H231 C233 0.959 . S
H232 C233 0.961 . S
C233 C223 1.510 . S
C233 H231 0.959 . S
C233 H232 0.961 . S
C233 H234 0.960 . S
H234 C233 0.960 . S
H235 N215 0.862 . S
O236 Co204 1.920 . S
O236 C209 1.289 . S
C237 O229 1.258 . S
C237 O230 1.266 . S
Co238 O241 1.970 . S
Co238 N255 1.989 . S
Co238 O263 1.967 . S
Co238 O270 1.924 . S
Co239 O242 1.966 . S
Co239 N248 2.022 . S
Co239 N256 1.993 . S
Co239 O264 1.941 . S
C240 O241 1.258 . S
C240 O242 1.263 . S
O241 Co238 1.970 . S
O241 C240 1.258 . S
O242 Co239 1.966 . S
O242 C240 1.263 . S
C243 O244 1.235 . S
C243 O270 1.287 1_554 S
O244 C243 1.235 . S
C245 C247 1.400 . S
C245 N248 1.351 . S
C245 C250 1.501 . S
C246 C247 1.387 . S
C246 N249 1.341 . S
C247 C245 1.400 . S
C247 C246 1.387 . S
N248 Co239 2.022 . S
N248 C245 1.351 . S
N248 N249 1.365 . S
N249 C246 1.341 . S
N249 N248 1.365 . S
N249 H269 0.862 . S
C250 C245 1.501 . S
C250 H251 0.961 . S
C250 H252 0.961 . S
C250 H253 0.960 . S
H251 C250 0.961 . S
H252 C250 0.961 . S
H253 C250 0.960 . S
C254 N255 1.342 . S
C254 C258 1.401 . S
C254 C259 1.499 . S
N255 Co238 1.989 . S
N255 C254 1.342 . S
N255 N256 1.388 . S
N256 Co239 1.993 . S
N256 N255 1.388 . S
N256 C257 1.346 . S
C257 N256 1.346 . S
C257 C258 1.396 . S
C257 C267 1.510 . S
C258 C254 1.401 . S
C258 C257 1.396 . S
C259 C254 1.499 . S
C259 H260 0.959 . S
C259 H261 0.960 . S
C259 H262 0.961 . S
H260 C259 0.959 . S
H261 C259 0.960 . S
H262 C259 0.961 . S
O263 Co238 1.967 . S
O263 C271 1.258 . S
O264 Co239 1.941 . S
O264 C271 1.266 . S
H265 C267 0.959 . S
H266 C267 0.961 . S
C267 C257 1.510 . S
C267 H265 0.959 . S
C267 H266 0.961 . S
C267 H268 0.960 . S
H268 C267 0.960 . S
H269 N249 0.862 . S
O270 Co238 1.924 . S
O270 C243 1.287 1_556 S
C271 O263 1.258 . S
C271 O264 1.266 . S
Co272 O275 1.970 . S
Co272 N289 1.989 1_554 S
Co272 O297 1.967 . S
Co272 O304 1.920 . S
Co273 O276 1.966 . S
Co273 N282 2.022 . S
Co273 N290 1.993 . S
Co273 O298 1.941 . S
C274 O275 1.258 1_556 S
C274 O276 1.263 . S
O275 Co272 1.970 . S
O275 C274 1.258 1_554 S
O276 Co273 1.966 . S
O276 C274 1.263 . S
C277 O278 1.235 . S
C277 O304 1.289 . S
O278 C277 1.235 . S
C279 C281 1.400 . S
C279 N282 1.351 . S
C279 C284 1.501 . S
C280 C281 1.387 . S
C280 N283 1.341 . S
C281 C279 1.400 . S
C281 C280 1.387 . S
N282 Co273 2.022 . S
N282 C279 1.351 . S
N282 N283 1.365 . S
N283 C280 1.341 . S
N283 N282 1.365 . S
N283 H303 0.862 . S
C284 C279 1.501 . S
C284 H285 0.961 . S
C284 H286 0.961 . S
C284 H287 0.960 . S
H285 C284 0.961 . S
H286 C284 0.961 . S
H287 C284 0.960 . S
C288 N289 1.342 1_554 S
C288 C292 1.401 1_554 S
C288 C293 1.499 . S
N289 Co272 1.989 1_556 S
N289 C288 1.342 1_556 S
N289 N290 1.388 . S
N290 Co273 1.993 . S
N290 N289 1.388 . S
N290 C291 1.346 . S
C291 N290 1.346 . S
C291 C292 1.396 . S
C291 C301 1.510 . S
C292 C288 1.401 1_556 S
C292 C291 1.396 . S
C293 C288 1.499 . S
C293 H294 0.959 . S
C293 H295 0.960 . S
C293 H296 0.961 . S
H294 C293 0.959 . S
H295 C293 0.960 . S
H296 C293 0.961 . S
O297 Co272 1.967 . S
O297 C305 1.258 1_554 S
O298 Co273 1.941 . S
O298 C305 1.266 . S
H299 C301 0.959 . S
H300 C301 0.961 . S
C301 C291 1.510 . S
C301 H299 0.959 . S
C301 H300 0.961 . S
C301 H302 0.960 . S
H302 C301 0.960 . S
H303 N283 0.862 . S
O304 Co272 1.920 . S
O304 C277 1.289 . S
C305 O297 1.258 1_556 S
C305 O298 1.266 . S
Co306 O309 1.970 . S
Co306 N323 1.989 . S
Co306 O331 1.967 . S
Co306 O338 1.924 . S
Co307 O310 1.966 . S
Co307 N316 2.022 . S
Co307 N324 1.993 . S
Co307 O332 1.941 . S
C308 O309 1.258 . S
C308 O310 1.263 . S
O309 Co306 1.970 . S
O309 C308 1.258 . S
O310 Co307 1.966 . S
O310 C308 1.263 . S
C311 O312 1.235 . S
C311 O338 1.287 1_554 S
O312 C311 1.235 . S
C313 C315 1.400 . S
C313 N316 1.351 . S
C313 C318 1.501 . S
C314 C315 1.387 . S
C314 N317 1.341 . S
C315 C313 1.400 . S
C315 C314 1.387 . S
N316 Co307 2.022 . S
N316 C313 1.351 . S
N316 N317 1.365 . S
N317 C314 1.341 . S
N317 N316 1.365 . S
N317 H337 0.862 . S
C318 C313 1.501 . S
C318 H319 0.961 . S
C318 H320 0.961 . S
C318 H321 0.960 . S
H319 C318 0.961 . S
H320 C318 0.961 . S
H321 C318 0.960 . S
C322 N323 1.342 . S
C322 C326 1.401 . S
C322 C327 1.499 . S
N323 Co306 1.989 . S
N323 C322 1.342 . S
N323 N324 1.388 . S
N324 Co307 1.993 . S
N324 N323 1.388 . S
N324 C325 1.346 . S
C325 N324 1.346 . S
C325 C326 1.396 . S
C325 C335 1.510 . S
C326 C322 1.401 . S
C326 C325 1.396 . S
C327 C322 1.499 . S
C327 H328 0.959 . S
C327 H329 0.960 . S
C327 H330 0.961 . S
H328 C327 0.959 . S
H329 C327 0.960 . S
H330 C327 0.961 . S
O331 Co306 1.967 . S
O331 C339 1.258 . S
O332 Co307 1.941 . S
O332 C339 1.266 . S
H333 C335 0.959 . S
H334 C335 0.961 . S
C335 C325 1.510 . S
C335 H333 0.959 . S
C335 H334 0.961 . S
C335 H336 0.960 . S
H336 C335 0.960 . S
H337 N317 0.862 . S
O338 Co306 1.924 . S
O338 C311 1.287 1_556 S
C339 O331 1.258 . S
C339 O332 1.266 . S
Co340 O343 1.970 . S
Co340 N357 1.989 . S
Co340 O365 1.967 . S
Co340 O372 1.920 . S
Co341 O344 1.966 . S
Co341 N350 2.022 . S
Co341 N358 1.993 . S
Co341 O366 1.941 . S
C342 O343 1.258 . S
C342 O344 1.263 . S
O343 Co340 1.970 . S
O343 C342 1.258 . S
O344 Co341 1.966 . S
O344 C342 1.263 . S
C345 O346 1.235 . S
C345 O372 1.289 . S
O346 C345 1.235 . S
C347 C349 1.400 1_554 S
C347 N350 1.351 . S
C347 C352 1.501 . S
C348 C349 1.387 . S
C348 N351 1.341 1_556 S
C349 C347 1.400 1_556 S
C349 C348 1.387 . S
N350 Co341 2.022 . S
N350 C347 1.351 . S
N350 N351 1.365 . S
N351 C348 1.341 1_554 S
N351 N350 1.365 . S
N351 H371 0.862 . S
C352 C347 1.501 . S
C352 H353 0.961 . S
C352 H354 0.961 . S
C352 H355 0.960 . S
H353 C352 0.961 . S
H354 C352 0.961 . S
H355 C352 0.960 . S
C356 N357 1.342 . S
C356 C360 1.401 . S
C356 C361 1.499 . S
N357 Co340 1.989 . S
N357 C356 1.342 . S
N357 N358 1.388 . S
N358 Co341 1.993 . S
N358 N357 1.388 . S
N358 C359 1.346 . S
C359 N358 1.346 . S
C359 C360 1.396 . S
C359 C369 1.510 . S
C360 C356 1.401 . S
C360 C359 1.396 . S
C361 C356 1.499 . S
C361 H362 0.959 . S
C361 H363 0.960 . S
C361 H364 0.961 . S
H362 C361 0.959 . S
H363 C361 0.960 . S
H364 C361 0.961 . S
O365 Co340 1.967 . S
O365 C373 1.258 . S
O366 Co341 1.941 . S
O366 C373 1.266 . S
H367 C369 0.959 . S
H368 C369 0.961 . S
C369 C359 1.510 . S
C369 H367 0.959 . S
C369 H368 0.961 . S
C369 H370 0.960 . S
H370 C369 0.960 . S
H371 N351 0.862 . S
O372 Co340 1.920 . S
O372 C345 1.289 . S
C373 O365 1.258 . S
C373 O366 1.266 . S
Co374 O377 1.970 . S
Co374 N391 1.989 . S
Co374 O399 1.967 . S
Co374 O406 1.920 . S
Co375 O378 1.966 . S
Co375 N384 2.022 1_554 S
Co375 N392 1.993 . S
Co375 O400 1.941 . S
C376 O377 1.258 . S
C376 O378 1.263 . S
O377 Co374 1.970 . S
O377 C376 1.258 . S
O378 Co375 1.966 . S
O378 C376 1.263 . S
C379 O380 1.235 . S
C379 O406 1.289 . S
O380 C379 1.235 . S
C381 C383 1.400 . S
C381 N384 1.351 . S
C381 C386 1.501 . S
C382 C383 1.387 . S
C382 N385 1.341 . S
C383 C381 1.400 . S
C383 C382 1.387 . S
N384 Co375 2.022 1_556 S
N384 C381 1.351 . S
N384 N385 1.365 . S
N385 C382 1.341 . S
N385 N384 1.365 . S
N385 H405 0.862 . S
C386 C381 1.501 . S
C386 H387 0.961 . S
C386 H388 0.961 . S
C386 H389 0.960 . S
H387 C386 0.961 . S
H388 C386 0.961 . S
H389 C386 0.960 . S
C390 N391 1.342 . S
C390 C394 1.401 . S
C390 C395 1.499 . S
N391 Co374 1.989 . S
N391 C390 1.342 . S
N391 N392 1.388 . S
N392 Co375 1.993 . S
N392 N391 1.388 . S
N392 C393 1.346 . S
C393 N392 1.346 . S
C393 C394 1.396 . S
C393 C403 1.510 1_554 S
C394 C390 1.401 . S
C394 C393 1.396 . S
C395 C390 1.499 . S
C395 H396 0.959 . S
C395 H397 0.960 . S
C395 H398 0.961 . S
H396 C395 0.959 . S
H397 C395 0.960 . S
H398 C395 0.961 . S
O399 Co374 1.967 . S
O399 C407 1.258 . S
O400 Co375 1.941 . S
O400 C407 1.266 . S
H401 C403 0.959 . S
H402 C403 0.961 . S
C403 C393 1.510 1_556 S
C403 H401 0.959 . S
C403 H402 0.961 . S
C403 H404 0.960 . S
H404 C403 0.960 . S
H405 N385 0.862 . S
O406 Co374 1.920 . S
O406 C379 1.289 . S
C407 O399 1.258 . S
C407 O400 1.266 . S
Co408 O411 1.970 . S
Co408 N425 1.989 1_556 S
Co408 O433 1.967 . S
Co408 O440 1.920 . S
Co409 O412 1.966 . S
Co409 N418 2.022 . S
Co409 N426 1.993 . S
Co409 O434 1.941 . S
C410 O411 1.258 1_554 S
C410 O412 1.263 . S
O411 Co408 1.970 . S
O411 C410 1.258 1_556 S
O412 Co409 1.966 . S
O412 C410 1.263 . S
C413 O414 1.235 . S
C413 O440 1.289 . S
O414 C413 1.235 . S
C415 C417 1.400 . S
C415 N418 1.351 . S
C415 C420 1.501 . S
C416 C417 1.387 . S
C416 N419 1.341 . S
C417 C415 1.400 . S
C417 C416 1.387 . S
N418 Co409 2.022 . S
N418 C415 1.351 . S
N418 N419 1.365 . S
N419 C416 1.341 . S
N419 N418 1.365 . S
N419 H439 0.862 . S
C420 C415 1.501 . S
C420 H421 0.961 . S
C420 H422 0.961 . S
C420 H423 0.960 . S
H421 C420 0.961 . S
H422 C420 0.961 . S
H423 C420 0.960 . S
C424 N425 1.342 1_556 S
C424 C428 1.401 1_556 S
C424 C429 1.499 . S
N425 Co408 1.989 1_554 S
N425 C424 1.342 1_554 S
N425 N426 1.388 . S
N426 Co409 1.993 . S
N426 N425 1.388 . S
N426 C427 1.346 . S
C427 N426 1.346 . S
C427 C428 1.396 . S
C427 C437 1.510 . S
C428 C424 1.401 1_554 S
C428 C427 1.396 . S
C429 C424 1.499 . S
C429 H430 0.959 . S
C429 H431 0.960 . S
C429 H432 0.961 . S
H430 C429 0.959 . S
H431 C429 0.960 . S
H432 C429 0.961 . S
O433 Co408 1.967 . S
O433 C441 1.258 1_556 S
O434 Co409 1.941 . S
O434 C441 1.266 . S
H435 C437 0.959 . S
H436 C437 0.961 . S
C437 C427 1.510 . S
C437 H435 0.959 . S
C437 H436 0.961 . S
C437 H438 0.960 . S
H438 C437 0.960 . S
H439 N419 0.862 . S
O440 Co408 1.920 . S
O440 C413 1.289 . S
C441 O433 1.258 1_554 S
C441 O434 1.266 . S
Co442 O445 1.970 . S
Co442 N459 1.989 . S
Co442 O467 1.967 . S
Co442 O474 1.920 . S
Co443 O446 1.966 . S
Co443 N452 2.022 1_556 S
Co443 N460 1.993 . S
Co443 O468 1.941 . S
C444 O445 1.258 . S
C444 O446 1.263 . S
O445 Co442 1.970 . S
O445 C444 1.258 . S
O446 Co443 1.966 . S
O446 C444 1.263 . S
C447 O448 1.235 . S
C447 O474 1.289 . S
O448 C447 1.235 . S
C449 C451 1.400 . S
C449 N452 1.351 . S
C449 C454 1.501 . S
C450 C451 1.387 . S
C450 N453 1.341 . S
C451 C449 1.400 . S
C451 C450 1.387 . S
N452 Co443 2.022 1_554 S
N452 C449 1.351 . S
N452 N453 1.365 . S
N453 C450 1.341 . S
N453 N452 1.365 . S
N453 H473 0.862 . S
C454 C449 1.501 . S
C454 H455 0.961 . S
C454 H456 0.961 . S
C454 H457 0.960 . S
H455 C454 0.961 . S
H456 C454 0.961 . S
H457 C454 0.960 . S
C458 N459 1.342 . S
C458 C462 1.401 . S
C458 C463 1.499 . S
N459 Co442 1.989 . S
N459 C458 1.342 . S
N459 N460 1.388 . S
N460 Co443 1.993 . S
N460 N459 1.388 . S
N460 C461 1.346 . S
C461 N460 1.346 . S
C461 C462 1.396 . S
C461 C471 1.510 1_556 S
C462 C458 1.401 . S
C462 C461 1.396 . S
C463 C458 1.499 . S
C463 H464 0.959 . S
C463 H465 0.960 . S
C463 H466 0.961 . S
H464 C463 0.959 . S
H465 C463 0.960 . S
H466 C463 0.961 . S
O467 Co442 1.967 . S
O467 C475 1.258 . S
O468 Co443 1.941 . S
O468 C475 1.266 . S
H469 C471 0.959 . S
H470 C471 0.961 . S
C471 C461 1.510 1_554 S
C471 H469 0.959 . S
C471 H470 0.961 . S
C471 H472 0.960 . S
H472 C471 0.960 . S
H473 N453 0.862 . S
O474 Co442 1.920 . S
O474 C447 1.289 . S
C475 O467 1.258 . S
C475 O468 1.266 . S
Co476 O479 1.970 . S
Co476 N493 1.989 . S
Co476 O501 1.967 . S
Co476 O508 1.920 . S
Co477 O480 1.966 . S
Co477 N486 2.022 . S
Co477 N494 1.993 . S
Co477 O502 1.941 . S
C478 O479 1.258 . S
C478 O480 1.263 . S
O479 Co476 1.970 . S
O479 C478 1.258 . S
O480 Co477 1.966 . S
O480 C478 1.263 . S
C481 O482 1.235 . S
C481 O508 1.289 . S
O482 C481 1.235 . S
C483 C485 1.400 1_556 S
C483 N486 1.351 . S
C483 C488 1.501 . S
C484 C485 1.387 . S
C484 N487 1.341 1_554 S
C485 C483 1.400 1_554 S
C485 C484 1.387 . S
N486 Co477 2.022 . S
N486 C483 1.351 . S
N486 N487 1.365 . S
N487 C484 1.341 1_556 S
N487 N486 1.365 . S
N487 H507 0.862 . S
C488 C483 1.501 . S
C488 H489 0.961 . S
C488 H490 0.961 . S
C488 H491 0.960 . S
H489 C488 0.961 . S
H490 C488 0.961 . S
H491 C488 0.960 . S
C492 N493 1.342 . S
C492 C496 1.401 . S
C492 C497 1.499 . S
N493 Co476 1.989 . S
N493 C492 1.342 . S
N493 N494 1.388 . S
N494 Co477 1.993 . S
N494 N493 1.388 . S
N494 C495 1.346 . S
C495 N494 1.346 . S
C495 C496 1.396 . S
C495 C505 1.510 . S
C496 C492 1.401 . S
C496 C495 1.396 . S
C497 C492 1.499 . S
C497 H498 0.959 . S
C497 H499 0.960 . S
C497 H500 0.961 . S
H498 C497 0.959 . S
H499 C497 0.960 . S
H500 C497 0.961 . S
O501 Co476 1.967 . S
O501 C509 1.258 . S
O502 Co477 1.941 . S
O502 C509 1.266 . S
H503 C505 0.959 . S
H504 C505 0.961 . S
C505 C495 1.510 . S
C505 H503 0.959 . S
C505 H504 0.961 . S
C505 H506 0.960 . S
H506 C505 0.960 . S
H507 N487 0.862 . S
O508 Co476 1.920 . S
O508 C481 1.289 . S
C509 O501 1.258 . S
C509 O502 1.266 . S
Co510 O513 1.970 . S
Co510 N527 1.989 . S
Co510 O535 1.967 . S
Co510 O542 1.924 . S
Co511 O514 1.966 . S
Co511 N520 2.022 . S
Co511 N528 1.993 . S
Co511 O536 1.941 . S
C512 O513 1.258 . S
C512 O514 1.263 . S
O513 Co510 1.970 . S
O513 C512 1.258 . S
O514 Co511 1.966 . S
O514 C512 1.263 . S
C515 O516 1.235 . S
C515 O542 1.287 1_556 S
O516 C515 1.235 . S
C517 C519 1.400 . S
C517 N520 1.351 . S
C517 C522 1.501 . S
C518 C519 1.387 . S
C518 N521 1.341 . S
C519 C517 1.400 . S
C519 C518 1.387 . S
N520 Co511 2.022 . S
N520 C517 1.351 . S
N520 N521 1.365 . S
N521 C518 1.341 . S
N521 N520 1.365 . S
N521 H541 0.862 . S
C522 C517 1.501 . S
C522 H523 0.961 . S
C522 H524 0.961 . S
C522 H525 0.960 . S
H523 C522 0.961 . S
H524 C522 0.961 . S
H525 C522 0.960 . S
C526 N527 1.342 . S
C526 C530 1.401 . S
C526 C531 1.499 . S
N527 Co510 1.989 . S
N527 C526 1.342 . S
N527 N528 1.388 . S
N528 Co511 1.993 . S
N528 N527 1.388 . S
N528 C529 1.346 . S
C529 N528 1.346 . S
C529 C530 1.396 . S
C529 C539 1.510 . S
C530 C526 1.401 . S
C530 C529 1.396 . S
C531 C526 1.499 . S
C531 H532 0.959 . S
C531 H533 0.960 . S
C531 H534 0.961 . S
H532 C531 0.959 . S
H533 C531 0.960 . S
H534 C531 0.961 . S
O535 Co510 1.967 . S
O535 C543 1.258 . S
O536 Co511 1.941 . S
O536 C543 1.266 . S
H537 C539 0.959 . S
H538 C539 0.961 . S
C539 C529 1.510 . S
C539 H537 0.959 . S
C539 H538 0.961 . S
C539 H540 0.960 . S
H540 C539 0.960 . S
H541 N521 0.862 . S
O542 Co510 1.924 . S
O542 C515 1.287 1_554 S
C543 O535 1.258 . S
C543 O536 1.266 . S
Co544 O547 1.970 . S
Co544 N561 1.989 . S
Co544 O569 1.967 . S
Co544 O576 1.920 . S
Co545 O548 1.966 . S
Co545 N554 2.022 . S
Co545 N562 1.993 . S
Co545 O570 1.941 . S
C546 O547 1.258 . S
C546 O548 1.263 . S
O547 Co544 1.970 . S
O547 C546 1.258 . S
O548 Co545 1.966 . S
O548 C546 1.263 . S
C549 O550 1.235 . S
C549 O576 1.289 . S
O550 C549 1.235 . S
C551 C553 1.400 1_556 S
C551 N554 1.351 . S
C551 C556 1.501 . S
C552 C553 1.387 . S
C552 N555 1.341 1_554 S
C553 C551 1.400 1_554 S
C553 C552 1.387 . S
N554 Co545 2.022 . S
N554 C551 1.351 . S
N554 N555 1.365 . S
N555 C552 1.341 1_556 S
N555 N554 1.365 . S
N555 H575 0.862 . S
C556 C551 1.501 . S
C556 H557 0.961 . S
C556 H558 0.961 . S
C556 H559 0.960 . S
H557 C556 0.961 . S
H558 C556 0.961 . S
H559 C556 0.960 . S
C560 N561 1.342 . S
C560 C564 1.401 . S
C560 C565 1.499 . S
N561 Co544 1.989 . S
N561 C560 1.342 . S
N561 N562 1.388 . S
N562 Co545 1.993 . S
N562 N561 1.388 . S
N562 C563 1.346 . S
C563 N562 1.346 . S
C563 C564 1.396 . S
C563 C573 1.510 . S
C564 C560 1.401 . S
C564 C563 1.396 . S
C565 C560 1.499 . S
C565 H566 0.959 . S
C565 H567 0.960 . S
C565 H568 0.961 . S
H566 C565 0.959 . S
H567 C565 0.960 . S
H568 C565 0.961 . S
O569 Co544 1.967 . S
O569 C577 1.258 . S
O570 Co545 1.941 . S
O570 C577 1.266 . S
H571 C573 0.959 . S
H572 C573 0.961 . S
C573 C563 1.510 . S
C573 H571 0.959 . S
C573 H572 0.961 . S
C573 H574 0.960 . S
H574 C573 0.960 . S
H575 N555 0.862 . S
O576 Co544 1.920 . S
O576 C549 1.289 . S
C577 O569 1.258 . S
C577 O570 1.266 . S
Co578 O581 1.970 . S
Co578 N595 1.989 . S
Co578 O603 1.967 . S
Co578 O610 1.920 . S
Co579 O582 1.966 . S
Co579 N588 2.022 1_556 S
Co579 N596 1.993 . S
Co579 O604 1.941 . S
C580 O581 1.258 . S
C580 O582 1.263 . S
O581 Co578 1.970 . S
O581 C580 1.258 . S
O582 Co579 1.966 . S
O582 C580 1.263 . S
C583 O584 1.235 . S
C583 O610 1.289 . S
O584 C583 1.235 . S
C585 C587 1.400 . S
C585 N588 1.351 . S
C585 C590 1.501 . S
C586 C587 1.387 . S
C586 N589 1.341 . S
C587 C585 1.400 . S
C587 C586 1.387 . S
N588 Co579 2.022 1_554 S
N588 C585 1.351 . S
N588 N589 1.365 . S
N589 C586 1.341 . S
N589 N588 1.365 . S
N589 H609 0.862 . S
C590 C585 1.501 . S
C590 H591 0.961 . S
C590 H592 0.961 . S
C590 H593 0.960 . S
H591 C590 0.961 . S
H592 C590 0.961 . S
H593 C590 0.960 . S
C594 N595 1.342 . S
C594 C598 1.401 . S
C594 C599 1.499 . S
N595 Co578 1.989 . S
N595 C594 1.342 . S
N595 N596 1.388 . S
N596 Co579 1.993 . S
N596 N595 1.388 . S
N596 C597 1.346 . S
C597 N596 1.346 . S
C597 C598 1.396 . S
C597 C607 1.510 1_556 S
C598 C594 1.401 . S
C598 C597 1.396 . S
C599 C594 1.499 . S
C599 H600 0.959 . S
C599 H601 0.960 . S
C599 H602 0.961 . S
H600 C599 0.959 . S
H601 C599 0.960 . S
H602 C599 0.961 . S
O603 Co578 1.967 . S
O603 C611 1.258 . S
O604 Co579 1.941 . S
O604 C611 1.266 . S
H605 C607 0.959 . S
H606 C607 0.961 . S
C607 C597 1.510 1_554 S
C607 H605 0.959 . S
C607 H606 0.961 . S
C607 H608 0.960 . S
H608 C607 0.960 . S
H609 N589 0.862 . S
O610 Co578 1.920 . S
O610 C583 1.289 . S
C611 O603 1.258 . S
C611 O604 1.266 . S
Co612 O615 1.970 . S
Co612 N629 1.989 1_556 S
Co612 O637 1.967 . S
Co612 O644 1.920 . S
Co613 O616 1.966 . S
Co613 N622 2.022 . S
Co613 N630 1.993 . S
Co613 O638 1.941 . S
C614 O615 1.258 1_554 S
C614 O616 1.263 . S
O615 Co612 1.970 . S
O615 C614 1.258 1_556 S
O616 Co613 1.966 . S
O616 C614 1.263 . S
C617 O618 1.235 . S
C617 O644 1.289 . S
O618 C617 1.235 . S
C619 C621 1.400 . S
C619 N622 1.351 . S
C619 C624 1.501 . S
C620 C621 1.387 . S
C620 N623 1.341 . S
C621 C619 1.400 . S
C621 C620 1.387 . S
N622 Co613 2.022 . S
N622 C619 1.351 . S
N622 N623 1.365 . S
N623 C620 1.341 . S
N623 N622 1.365 . S
N623 H643 0.862 . S
C624 C619 1.501 . S
C624 H625 0.961 . S
C624 H626 0.961 . S
C624 H627 0.960 . S
H625 C624 0.961 . S
H626 C624 0.961 . S
H627 C624 0.960 . S
C628 N629 1.342 1_556 S
C628 C632 1.401 1_556 S
C628 C633 1.499 . S
N629 Co612 1.989 1_554 S
N629 C628 1.342 1_554 S
N629 N630 1.388 . S
N630 Co613 1.993 . S
N630 N629 1.388 . S
N630 C631 1.346 . S
C631 N630 1.346 . S
C631 C632 1.396 . S
C631 C641 1.510 . S
C632 C628 1.401 1_554 S
C632 C631 1.396 . S
C633 C628 1.499 . S
C633 H634 0.959 . S
C633 H635 0.960 . S
C633 H636 0.961 . S
H634 C633 0.959 . S
H635 C633 0.960 . S
H636 C633 0.961 . S
O637 Co612 1.967 . S
O637 C645 1.258 1_556 S
O638 Co613 1.941 . S
O638 C645 1.266 . S
H639 C641 0.959 . S
H640 C641 0.961 . S
C641 C631 1.510 . S
C641 H639 0.959 . S
C641 H640 0.961 . S
C641 H642 0.960 . S
H642 C641 0.960 . S
H643 N623 0.862 . S
O644 Co612 1.920 . S
O644 C617 1.289 . S
C645 O637 1.258 1_554 S
C645 O638 1.266 . S
Co646 O649 1.970 . S
Co646 N663 1.989 . S
Co646 O671 1.967 . S
Co646 O678 1.924 . S
Co647 O650 1.966 . S
Co647 N656 2.022 . S
Co647 N664 1.993 . S
Co647 O672 1.941 . S
C648 O649 1.258 . S
C648 O650 1.263 . S
O649 Co646 1.970 . S
O649 C648 1.258 . S
O650 Co647 1.966 . S
O650 C648 1.263 . S
C651 O652 1.235 . S
C651 O678 1.287 1_556 S
O652 C651 1.235 . S
C653 C655 1.400 . S
C653 N656 1.351 . S
C653 C658 1.501 . S
C654 C655 1.387 . S
C654 N657 1.341 . S
C655 C653 1.400 . S
C655 C654 1.387 . S
N656 Co647 2.022 . S
N656 C653 1.351 . S
N656 N657 1.365 . S
N657 C654 1.341 . S
N657 N656 1.365 . S
N657 H677 0.862 . S
C658 C653 1.501 . S
C658 H659 0.961 . S
C658 H660 0.961 . S
C658 H661 0.960 . S
H659 C658 0.961 . S
H660 C658 0.961 . S
H661 C658 0.960 . S
C662 N663 1.342 . S
C662 C666 1.401 . S
C662 C667 1.499 . S
N663 Co646 1.989 . S
N663 C662 1.342 . S
N663 N664 1.388 . S
N664 Co647 1.993 . S
N664 N663 1.388 . S
N664 C665 1.346 . S
C665 N664 1.346 . S
C665 C666 1.396 . S
C665 C675 1.510 . S
C666 C662 1.401 . S
C666 C665 1.396 . S
C667 C662 1.499 . S
C667 H668 0.959 . S
C667 H669 0.960 . S
C667 H670 0.961 . S
H668 C667 0.959 . S
H669 C667 0.960 . S
H670 C667 0.961 . S
O671 Co646 1.967 . S
O671 C679 1.258 . S
O672 Co647 1.941 . S
O672 C679 1.266 . S
H673 C675 0.959 . S
H674 C675 0.961 . S
C675 C665 1.510 . S
C675 H673 0.959 . S
C675 H674 0.961 . S
C675 H676 0.960 . S
H676 C675 0.960 . S
H677 N657 0.862 . S
O678 Co646 1.924 . S
O678 C651 1.287 1_554 S
C679 O671 1.258 . S
C679 O672 1.266 . S
Co680 O683 1.970 . S
Co680 N697 1.989 . S
Co680 O705 1.967 . S
Co680 O712 1.920 . S
Co681 O684 1.966 . S
Co681 N690 2.022 . S
Co681 N698 1.993 . S
Co681 O706 1.941 . S
C682 O683 1.258 . S
C682 O684 1.263 . S
O683 Co680 1.970 . S
O683 C682 1.258 . S
O684 Co681 1.966 . S
O684 C682 1.263 . S
C685 O686 1.235 . S
C685 O712 1.289 . S
O686 C685 1.235 . S
C687 C689 1.400 1_554 S
C687 N690 1.351 . S
C687 C692 1.501 . S
C688 C689 1.387 . S
C688 N691 1.341 1_556 S
C689 C687 1.400 1_556 S
C689 C688 1.387 . S
N690 Co681 2.022 . S
N690 C687 1.351 . S
N690 N691 1.365 . S
N691 C688 1.341 1_554 S
N691 N690 1.365 . S
N691 H711 0.862 . S
C692 C687 1.501 . S
C692 H693 0.961 . S
C692 H694 0.961 . S
C692 H695 0.960 . S
H693 C692 0.961 . S
H694 C692 0.961 . S
H695 C692 0.960 . S
C696 N697 1.342 . S
C696 C700 1.401 . S
C696 C701 1.499 . S
N697 Co680 1.989 . S
N697 C696 1.342 . S
N697 N698 1.388 . S
N698 Co681 1.993 . S
N698 N697 1.388 . S
N698 C699 1.346 . S
C699 N698 1.346 . S
C699 C700 1.396 . S
C699 C709 1.510 . S
C700 C696 1.401 . S
C700 C699 1.396 . S
C701 C696 1.499 . S
C701 H702 0.959 . S
C701 H703 0.960 . S
C701 H704 0.961 . S
H702 C701 0.959 . S
H703 C701 0.960 . S
H704 C701 0.961 . S
O705 Co680 1.967 . S
O705 C713 1.258 . S
O706 Co681 1.941 . S
O706 C713 1.266 . S
H707 C709 0.959 . S
H708 C709 0.961 . S
C709 C699 1.510 . S
C709 H707 0.959 . S
C709 H708 0.961 . S
C709 H710 0.960 . S
H710 C709 0.960 . S
H711 N691 0.862 . S
O712 Co680 1.920 . S
O712 C685 1.289 . S
C713 O705 1.258 . S
C713 O706 1.266 . S
Co714 O717 1.970 . S
Co714 N731 1.989 . S
Co714 O739 1.967 . S
Co714 O746 1.924 . S
Co715 O718 1.966 . S
Co715 N724 2.022 . S
Co715 N732 1.993 . S
Co715 O740 1.941 . S
C716 O717 1.258 . S
C716 O718 1.263 . S
O717 Co714 1.970 . S
O717 C716 1.258 . S
O718 Co715 1.966 . S
O718 C716 1.263 . S
C719 O720 1.235 . S
C719 O746 1.287 1_554 S
O720 C719 1.235 . S
C721 C723 1.400 . S
C721 N724 1.351 . S
C721 C726 1.501 . S
C722 C723 1.387 . S
C722 N725 1.341 . S
C723 C721 1.400 . S
C723 C722 1.387 . S
N724 Co715 2.022 . S
N724 C721 1.351 . S
N724 N725 1.365 . S
N725 C722 1.341 . S
N725 N724 1.365 . S
N725 H745 0.862 . S
C726 C721 1.501 . S
C726 H727 0.961 . S
C726 H728 0.961 . S
C726 H729 0.960 . S
H727 C726 0.961 . S
H728 C726 0.961 . S
H729 C726 0.960 . S
C730 N731 1.342 . S
C730 C734 1.401 . S
C730 C735 1.499 . S
N731 Co714 1.989 . S
N731 C730 1.342 . S
N731 N732 1.388 . S
N732 Co715 1.993 . S
N732 N731 1.388 . S
N732 C733 1.346 . S
C733 N732 1.346 . S
C733 C734 1.396 . S
C733 C743 1.510 . S
C734 C730 1.401 . S
C734 C733 1.396 . S
C735 C730 1.499 . S
C735 H736 0.959 . S
C735 H737 0.960 . S
C735 H738 0.961 . S
H736 C735 0.959 . S
H737 C735 0.960 . S
H738 C735 0.961 . S
O739 Co714 1.967 . S
O739 C747 1.258 . S
O740 Co715 1.941 . S
O740 C747 1.266 . S
H741 C743 0.959 . S
H742 C743 0.961 . S
C743 C733 1.510 . S
C743 H741 0.959 . S
C743 H742 0.961 . S
C743 H744 0.960 . S
H744 C743 0.960 . S
H745 N725 0.862 . S
O746 Co714 1.924 . S
O746 C719 1.287 1_556 S
C747 O739 1.258 . S
C747 O740 1.266 . S
Co748 O751 1.970 . S
Co748 N765 1.989 1_554 S
Co748 O773 1.967 . S
Co748 O780 1.920 . S
Co749 O752 1.966 . S
Co749 N758 2.022 . S
Co749 N766 1.993 . S
Co749 O774 1.941 . S
C750 O751 1.258 1_556 S
C750 O752 1.263 . S
O751 Co748 1.970 . S
O751 C750 1.258 1_554 S
O752 Co749 1.966 . S
O752 C750 1.263 . S
C753 O754 1.235 . S
C753 O780 1.289 . S
O754 C753 1.235 . S
C755 C757 1.400 . S
C755 N758 1.351 . S
C755 C760 1.501 . S
C756 C757 1.387 . S
C756 N759 1.341 . S
C757 C755 1.400 . S
C757 C756 1.387 . S
N758 Co749 2.022 . S
N758 C755 1.351 . S
N758 N759 1.365 . S
N759 C756 1.341 . S
N759 N758 1.365 . S
N759 H779 0.862 . S
C760 C755 1.501 . S
C760 H761 0.961 . S
C760 H762 0.961 . S
C760 H763 0.960 . S
H761 C760 0.961 . S
H762 C760 0.961 . S
H763 C760 0.960 . S
C764 N765 1.342 1_554 S
C764 C768 1.401 1_554 S
C764 C769 1.499 . S
N765 Co748 1.989 1_556 S
N765 C764 1.342 1_556 S
N765 N766 1.388 . S
N766 Co749 1.993 . S
N766 N765 1.388 . S
N766 C767 1.346 . S
C767 N766 1.346 . S
C767 C768 1.396 . S
C767 C777 1.510 . S
C768 C764 1.401 1_556 S
C768 C767 1.396 . S
C769 C764 1.499 . S
C769 H770 0.959 . S
C769 H771 0.960 . S
C769 H772 0.961 . S
H770 C769 0.959 . S
H771 C769 0.960 . S
H772 C769 0.961 . S
O773 Co748 1.967 . S
O773 C781 1.258 1_554 S
O774 Co749 1.941 . S
O774 C781 1.266 . S
H775 C777 0.959 . S
H776 C777 0.961 . S
C777 C767 1.510 . S
C777 H775 0.959 . S
C777 H776 0.961 . S
C777 H778 0.960 . S
H778 C777 0.960 . S
H779 N759 0.862 . S
O780 Co748 1.920 . S
O780 C753 1.289 . S
C781 O773 1.258 1_556 S
C781 O774 1.266 . S
Co782 O785 1.970 . S
Co782 N799 1.989 . S
Co782 O807 1.967 . S
Co782 O814 1.920 . S
Co783 O786 1.966 . S
Co783 N792 2.022 1_554 S
Co783 N800 1.993 . S
Co783 O808 1.941 . S
C784 O785 1.258 . S
C784 O786 1.263 . S
O785 Co782 1.970 . S
O785 C784 1.258 . S
O786 Co783 1.966 . S
O786 C784 1.263 . S
C787 O788 1.235 . S
C787 O814 1.289 . S
O788 C787 1.235 . S
C789 C791 1.400 . S
C789 N792 1.351 . S
C789 C794 1.501 . S
C790 C791 1.387 . S
C790 N793 1.341 . S
C791 C789 1.400 . S
C791 C790 1.387 . S
N792 Co783 2.022 1_556 S
N792 C789 1.351 . S
N792 N793 1.365 . S
N793 C790 1.341 . S
N793 N792 1.365 . S
N793 H813 0.862 . S
C794 C789 1.501 . S
C794 H795 0.961 . S
C794 H796 0.961 . S
C794 H797 0.960 . S
H795 C794 0.961 . S
H796 C794 0.961 . S
H797 C794 0.960 . S
C798 N799 1.342 . S
C798 C802 1.401 . S
C798 C803 1.499 . S
N799 Co782 1.989 . S
N799 C798 1.342 . S
N799 N800 1.388 . S
N800 Co783 1.993 . S
N800 N799 1.388 . S
N800 C801 1.346 . S
C801 N800 1.346 . S
C801 C802 1.396 . S
C801 C811 1.510 1_554 S
C802 C798 1.401 . S
C802 C801 1.396 . S
C803 C798 1.499 . S
C803 H804 0.959 . S
C803 H805 0.960 . S
C803 H806 0.961 . S
H804 C803 0.959 . S
H805 C803 0.960 . S
H806 C803 0.961 . S
O807 Co782 1.967 . S
O807 C815 1.258 . S
O808 Co783 1.941 . S
O808 C815 1.266 . S
H809 C811 0.959 . S
H810 C811 0.961 . S
C811 C801 1.510 1_556 S
C811 H809 0.959 . S
C811 H810 0.961 . S
C811 H812 0.960 . S
H812 C811 0.960 . S
H813 N793 0.862 . S
O814 Co782 1.920 . S
O814 C787 1.289 . S
C815 O807 1.258 . S
C815 O808 1.266 . S
Co816 O819 1.970 . S
Co816 N833 1.989 . S
Co816 O841 1.967 . S
Co816 O848 1.920 . S
Co817 O820 1.966 . S
Co817 N826 2.022 . S
Co817 N834 1.993 . S
Co817 O842 1.941 . S
C818 O819 1.258 . S
C818 O820 1.263 . S
O819 Co816 1.970 . S
O819 C818 1.258 . S
O820 Co817 1.966 . S
O820 C818 1.263 . S
C821 O822 1.235 . S
C821 O848 1.289 . S
O822 C821 1.235 . S
C823 C825 1.400 1_554 S
C823 N826 1.351 . S
C823 C828 1.501 . S
C824 C825 1.387 . S
C824 N827 1.341 1_556 S
C825 C823 1.400 1_556 S
C825 C824 1.387 . S
N826 Co817 2.022 . S
N826 C823 1.351 . S
N826 N827 1.365 . S
N827 C824 1.341 1_554 S
N827 N826 1.365 . S
N827 H847 0.862 . S
C828 C823 1.501 . S
C828 H829 0.961 . S
C828 H830 0.961 . S
C828 H831 0.960 . S
H829 C828 0.961 . S
H830 C828 0.961 . S
H831 C828 0.960 . S
C832 N833 1.342 . S
C832 C836 1.401 . S
C832 C837 1.499 . S
N833 Co816 1.989 . S
N833 C832 1.342 . S
N833 N834 1.388 . S
N834 Co817 1.993 . S
N834 N833 1.388 . S
N834 C835 1.346 . S
C835 N834 1.346 . S
C835 C836 1.396 . S
C835 C845 1.510 . S
C836 C832 1.401 . S
C836 C835 1.396 . S
C837 C832 1.499 . S
C837 H838 0.959 . S
C837 H839 0.960 . S
C837 H840 0.961 . S
H838 C837 0.959 . S
H839 C837 0.960 . S
H840 C837 0.961 . S
O841 Co816 1.967 . S
O841 C849 1.258 . S
O842 Co817 1.941 . S
O842 C849 1.266 . S
H843 C845 0.959 . S
H844 C845 0.961 . S
C845 C835 1.510 . S
C845 H843 0.959 . S
C845 H844 0.961 . S
C845 H846 0.960 . S
H846 C845 0.960 . S
H847 N827 0.862 . S
O848 Co816 1.920 . S
O848 C821 1.289 . S
C849 O841 1.258 . S
C849 O842 1.266 . S
Co850 O853 1.970 . S
Co850 N867 1.989 . S
Co850 O875 1.967 . S
Co850 O882 1.920 . S
Co851 O854 1.966 . S
Co851 N860 2.022 1_554 S
Co851 N868 1.993 . S
Co851 O876 1.941 . S
C852 O853 1.258 . S
C852 O854 1.263 . S
O853 Co850 1.970 . S
O853 C852 1.258 . S
O854 Co851 1.966 . S
O854 C852 1.263 . S
C855 O856 1.235 . S
C855 O882 1.289 . S
O856 C855 1.235 . S
C857 C859 1.400 . S
C857 N860 1.351 . S
C857 C862 1.501 . S
C858 C859 1.387 . S
C858 N861 1.341 . S
C859 C857 1.400 . S
C859 C858 1.387 . S
N860 Co851 2.022 1_556 S
N860 C857 1.351 . S
N860 N861 1.365 . S
N861 C858 1.341 . S
N861 N860 1.365 . S
N861 H881 0.862 . S
C862 C857 1.501 . S
C862 H863 0.961 . S
C862 H864 0.961 . S
C862 H865 0.960 . S
H863 C862 0.961 . S
H864 C862 0.961 . S
H865 C862 0.960 . S
C866 N867 1.342 . S
C866 C870 1.401 . S
C866 C871 1.499 . S
N867 Co850 1.989 . S
N867 C866 1.342 . S
N867 N868 1.388 . S
N868 Co851 1.993 . S
N868 N867 1.388 . S
N868 C869 1.346 . S
C869 N868 1.346 . S
C869 C870 1.396 . S
C869 C879 1.510 1_554 S
C870 C866 1.401 . S
C870 C869 1.396 . S
C871 C866 1.499 . S
C871 H872 0.959 . S
C871 H873 0.960 . S
C871 H874 0.961 . S
H872 C871 0.959 . S
H873 C871 0.960 . S
H874 C871 0.961 . S
O875 Co850 1.967 . S
O875 C883 1.258 . S
O876 Co851 1.941 . S
O876 C883 1.266 . S
H877 C879 0.959 . S
H878 C879 0.961 . S
C879 C869 1.510 1_556 S
C879 H877 0.959 . S
C879 H878 0.961 . S
C879 H880 0.960 . S
H880 C879 0.960 . S
H881 N861 0.862 . S
O882 Co850 1.920 . S
O882 C855 1.289 . S
C883 O875 1.258 . S
C883 O876 1.266 . S
Co884 O887 1.970 . S
Co884 N901 1.989 1_554 S
Co884 O909 1.967 . S
Co884 O916 1.920 . S
Co885 O888 1.966 . S
Co885 N894 2.022 . S
Co885 N902 1.993 . S
Co885 O910 1.941 . S
C886 O887 1.258 1_556 S
C886 O888 1.263 . S
O887 Co884 1.970 . S
O887 C886 1.258 1_554 S
O888 Co885 1.966 . S
O888 C886 1.263 . S
C889 O890 1.235 . S
C889 O916 1.289 . S
O890 C889 1.235 . S
C891 C893 1.400 . S
C891 N894 1.351 . S
C891 C896 1.501 . S
C892 C893 1.387 . S
C892 N895 1.341 . S
C893 C891 1.400 . S
C893 C892 1.387 . S
N894 Co885 2.022 . S
N894 C891 1.351 . S
N894 N895 1.365 . S
N895 C892 1.341 . S
N895 N894 1.365 . S
N895 H915 0.862 . S
C896 C891 1.501 . S
C896 H897 0.961 . S
C896 H898 0.961 . S
C896 H899 0.960 . S
H897 C896 0.961 . S
H898 C896 0.961 . S
H899 C896 0.960 . S
C900 N901 1.342 1_554 S
C900 C904 1.401 1_554 S
C900 C905 1.499 . S
N901 Co884 1.989 1_556 S
N901 C900 1.342 1_556 S
N901 N902 1.388 . S
N902 Co885 1.993 . S
N902 N901 1.388 . S
N902 C903 1.346 . S
C903 N902 1.346 . S
C903 C904 1.396 . S
C903 C913 1.510 . S
C904 C900 1.401 1_556 S
C904 C903 1.396 . S
C905 C900 1.499 . S
C905 H906 0.959 . S
C905 H907 0.960 . S
C905 H908 0.961 . S
H906 C905 0.959 . S
H907 C905 0.960 . S
H908 C905 0.961 . S
O909 Co884 1.967 . S
O909 C917 1.258 1_554 S
O910 Co885 1.941 . S
O910 C917 1.266 . S
H911 C913 0.959 . S
H912 C913 0.961 . S
C913 C903 1.510 . S
C913 H911 0.959 . S
C913 H912 0.961 . S
C913 H914 0.960 . S
H914 C913 0.960 . S
H915 N895 0.862 . S
O916 Co884 1.920 . S
O916 C889 1.289 . S
C917 O909 1.258 1_556 S
C917 O910 1.266 . S
Co918 O921 1.970 . S
Co918 N935 1.989 . S
Co918 O943 1.967 . S
Co918 O950 1.924 . S
Co919 O922 1.966 . S
Co919 N928 2.022 . S
Co919 N936 1.993 . S
Co919 O944 1.941 . S
C920 O921 1.258 . S
C920 O922 1.263 . S
O921 Co918 1.970 . S
O921 C920 1.258 . S
O922 Co919 1.966 . S
O922 C920 1.263 . S
C923 O924 1.235 . S
C923 O950 1.287 1_554 S
O924 C923 1.235 . S
C925 C927 1.400 . S
C925 N928 1.351 . S
C925 C930 1.501 . S
C926 C927 1.387 . S
C926 N929 1.341 . S
C927 C925 1.400 . S
C927 C926 1.387 . S
N928 Co919 2.022 . S
N928 C925 1.351 . S
N928 N929 1.365 . S
N929 C926 1.341 . S
N929 N928 1.365 . S
N929 H949 0.862 . S
C930 C925 1.501 . S
C930 H931 0.961 . S
C930 H932 0.961 . S
C930 H933 0.960 . S
H931 C930 0.961 . S
H932 C930 0.961 . S
H933 C930 0.960 . S
C934 N935 1.342 . S
C934 C938 1.401 . S
C934 C939 1.499 . S
N935 Co918 1.989 . S
N935 C934 1.342 . S
N935 N936 1.388 . S
N936 Co919 1.993 . S
N936 N935 1.388 . S
N936 C937 1.346 . S
C937 N936 1.346 . S
C937 C938 1.396 . S
C937 C947 1.510 . S
C938 C934 1.401 . S
C938 C937 1.396 . S
C939 C934 1.499 . S
C939 H940 0.959 . S
C939 H941 0.960 . S
C939 H942 0.961 . S
H940 C939 0.959 . S
H941 C939 0.960 . S
H942 C939 0.961 . S
O943 Co918 1.967 . S
O943 C951 1.258 . S
O944 Co919 1.941 . S
O944 C951 1.266 . S
H945 C947 0.959 . S
H946 C947 0.961 . S
C947 C937 1.510 . S
C947 H945 0.959 . S
C947 H946 0.961 . S
C947 H948 0.960 . S
H948 C947 0.960 . S
H949 N929 0.862 . S
O950 Co918 1.924 . S
O950 C923 1.287 1_556 S
C951 O943 1.258 . S
C951 O944 1.266 . S
Co952 O955 1.970 . S
Co952 N969 1.989 . S
Co952 O977 1.967 . S
Co952 O984 1.920 . S
Co953 O956 1.966 . S
Co953 N962 2.022 . S
Co953 N970 1.993 . S
Co953 O978 1.941 . S
C954 O955 1.258 . S
C954 O956 1.263 . S
O955 Co952 1.970 . S
O955 C954 1.258 . S
O956 Co953 1.966 . S
O956 C954 1.263 . S
C957 O958 1.235 . S
C957 O984 1.289 . S
O958 C957 1.235 . S
C959 C961 1.400 1_556 S
C959 N962 1.351 . S
C959 C964 1.501 . S
C960 C961 1.387 . S
C960 N963 1.341 1_554 S
C961 C959 1.400 1_554 S
C961 C960 1.387 . S
N962 Co953 2.022 . S
N962 C959 1.351 . S
N962 N963 1.365 . S
N963 C960 1.341 1_556 S
N963 N962 1.365 . S
N963 H983 0.862 . S
C964 C959 1.501 . S
C964 H965 0.961 . S
C964 H966 0.961 . S
C964 H967 0.960 . S
H965 C964 0.961 . S
H966 C964 0.961 . S
H967 C964 0.960 . S
C968 N969 1.342 . S
C968 C972 1.401 . S
C968 C973 1.499 . S
N969 Co952 1.989 . S
N969 C968 1.342 . S
N969 N970 1.388 . S
N970 Co953 1.993 . S
N970 N969 1.388 . S
N970 C971 1.346 . S
C971 N970 1.346 . S
C971 C972 1.396 . S
C971 C981 1.510 . S
C972 C968 1.401 . S
C972 C971 1.396 . S
C973 C968 1.499 . S
C973 H974 0.959 . S
C973 H975 0.960 . S
C973 H976 0.961 . S
H974 C973 0.959 . S
H975 C973 0.960 . S
H976 C973 0.961 . S
O977 Co952 1.967 . S
O977 C985 1.258 . S
O978 Co953 1.941 . S
O978 C985 1.266 . S
H979 C981 0.959 . S
H980 C981 0.961 . S
C981 C971 1.510 . S
C981 H979 0.959 . S
C981 H980 0.961 . S
C981 H982 0.960 . S
H982 C981 0.960 . S
H983 N963 0.862 . S
O984 Co952 1.920 . S
O984 C957 1.289 . S
C985 O977 1.258 . S
C985 O978 1.266 . S
Co986 O989 1.970 . S
Co986 N1003 1.989 . S
Co986 O1011 1.967 . S
Co986 O1018 1.924 . S
Co987 O990 1.966 . S
Co987 N996 2.022 . S
Co987 N1004 1.993 . S
Co987 O1012 1.941 . S
C988 O989 1.258 . S
C988 O990 1.263 . S
O989 Co986 1.970 . S
O989 C988 1.258 . S
O990 Co987 1.966 . S
O990 C988 1.263 . S
C991 O992 1.235 . S
C991 O1018 1.287 1_556 S
O992 C991 1.235 . S
C993 C995 1.400 . S
C993 N996 1.351 . S
C993 C998 1.501 . S
C994 C995 1.387 . S
C994 N997 1.341 . S
C995 C993 1.400 . S
C995 C994 1.387 . S
N996 Co987 2.022 . S
N996 C993 1.351 . S
N996 N997 1.365 . S
N997 C994 1.341 . S
N997 N996 1.365 . S
N997 H1017 0.862 . S
C998 C993 1.501 . S
C998 H999 0.961 . S
C998 H1000 0.961 . S
C998 H1001 0.960 . S
H999 C998 0.961 . S
H1000 C998 0.961 . S
H1001 C998 0.960 . S
C1002 N1003 1.342 . S
C1002 C1006 1.401 . S
C1002 C1007 1.499 . S
N1003 Co986 1.989 . S
N1003 C1002 1.342 . S
N1003 N1004 1.388 . S
N1004 Co987 1.993 . S
N1004 N1003 1.388 . S
N1004 C1005 1.346 . S
C1005 N1004 1.346 . S
C1005 C1006 1.396 . S
C1005 C1015 1.510 . S
C1006 C1002 1.401 . S
C1006 C1005 1.396 . S
C1007 C1002 1.499 . S
C1007 H1008 0.959 . S
C1007 H1009 0.960 . S
C1007 H1010 0.961 . S
H1008 C1007 0.959 . S
H1009 C1007 0.960 . S
H1010 C1007 0.961 . S
O1011 Co986 1.967 . S
O1011 C1019 1.258 . S
O1012 Co987 1.941 . S
O1012 C1019 1.266 . S
H1013 C1015 0.959 . S
H1014 C1015 0.961 . S
C1015 C1005 1.510 . S
C1015 H1013 0.959 . S
C1015 H1014 0.961 . S
C1015 H1016 0.960 . S
H1016 C1015 0.960 . S
H1017 N997 0.862 . S
O1018 Co986 1.924 . S
O1018 C991 1.287 1_554 S
C1019 O1011 1.258 . S
C1019 O1012 1.266 . S
Co1020 O1023 1.970 . S
Co1020 N1037 1.989 1_556 S
Co1020 O1045 1.967 . S
Co1020 O1052 1.920 . S
Co1021 O1024 1.966 . S
Co1021 N1030 2.022 . S
Co1021 N1038 1.993 . S
Co1021 O1046 1.941 . S
C1022 O1023 1.258 1_554 S
C1022 O1024 1.263 . S
O1023 Co1020 1.970 . S
O1023 C1022 1.258 1_556 S
O1024 Co1021 1.966 . S
O1024 C1022 1.263 . S
C1025 O1026 1.235 . S
C1025 O1052 1.289 . S
O1026 C1025 1.235 . S
C1027 C1029 1.400 . S
C1027 N1030 1.351 . S
C1027 C1032 1.501 . S
C1028 C1029 1.387 . S
C1028 N1031 1.341 . S
C1029 C1027 1.400 . S
C1029 C1028 1.387 . S
N1030 Co1021 2.022 . S
N1030 C1027 1.351 . S
N1030 N1031 1.365 . S
N1031 C1028 1.341 . S
N1031 N1030 1.365 . S
N1031 H1051 0.862 . S
C1032 C1027 1.501 . S
C1032 H1033 0.961 . S
C1032 H1034 0.961 . S
C1032 H1035 0.960 . S
H1033 C1032 0.961 . S
H1034 C1032 0.961 . S
H1035 C1032 0.960 . S
C1036 N1037 1.342 1_556 S
C1036 C1040 1.401 1_556 S
C1036 C1041 1.499 . S
N1037 Co1020 1.989 1_554 S
N1037 C1036 1.342 1_554 S
N1037 N1038 1.388 . S
N1038 Co1021 1.993 . S
N1038 N1037 1.388 . S
N1038 C1039 1.346 . S
C1039 N1038 1.346 . S
C1039 C1040 1.396 . S
C1039 C1049 1.510 . S
C1040 C1036 1.401 1_554 S
C1040 C1039 1.396 . S
C1041 C1036 1.499 . S
C1041 H1042 0.959 . S
C1041 H1043 0.960 . S
C1041 H1044 0.961 . S
H1042 C1041 0.959 . S
H1043 C1041 0.960 . S
H1044 C1041 0.961 . S
O1045 Co1020 1.967 . S
O1045 C1053 1.258 1_556 S
O1046 Co1021 1.941 . S
O1046 C1053 1.266 . S
H1047 C1049 0.959 . S
H1048 C1049 0.961 . S
C1049 C1039 1.510 . S
C1049 H1047 0.959 . S
C1049 H1048 0.961 . S
C1049 H1050 0.960 . S
H1050 C1049 0.960 . S
H1051 N1031 0.862 . S
O1052 Co1020 1.920 . S
O1052 C1025 1.289 . S
C1053 O1045 1.258 1_554 S
C1053 O1046 1.266 . S
Co1054 O1057 1.970 . S
Co1054 N1071 1.989 . S
Co1054 O1079 1.967 . S
Co1054 O1086 1.920 . S
Co1055 O1058 1.966 . S
Co1055 N1064 2.022 1_556 S
Co1055 N1072 1.993 . S
Co1055 O1080 1.941 . S
C1056 O1057 1.258 . S
C1056 O1058 1.263 . S
O1057 Co1054 1.970 . S
O1057 C1056 1.258 . S
O1058 Co1055 1.966 . S
O1058 C1056 1.263 . S
C1059 O1060 1.235 . S
C1059 O1086 1.289 . S
O1060 C1059 1.235 . S
C1061 C1063 1.400 . S
C1061 N1064 1.351 . S
C1061 C1066 1.501 . S
C1062 C1063 1.387 . S
C1062 N1065 1.341 . S
C1063 C1061 1.400 . S
C1063 C1062 1.387 . S
N1064 Co1055 2.022 1_554 S
N1064 C1061 1.351 . S
N1064 N1065 1.365 . S
N1065 C1062 1.341 . S
N1065 N1064 1.365 . S
N1065 H1085 0.862 . S
C1066 C1061 1.501 . S
C1066 H1067 0.961 . S
C1066 H1068 0.961 . S
C1066 H1069 0.960 . S
H1067 C1066 0.961 . S
H1068 C1066 0.961 . S
H1069 C1066 0.960 . S
C1070 N1071 1.342 . S
C1070 C1074 1.401 . S
C1070 C1075 1.499 . S
N1071 Co1054 1.989 . S
N1071 C1070 1.342 . S
N1071 N1072 1.388 . S
N1072 Co1055 1.993 . S
N1072 N1071 1.388 . S
N1072 C1073 1.346 . S
C1073 N1072 1.346 . S
C1073 C1074 1.396 . S
C1073 C1083 1.510 1_556 S
C1074 C1070 1.401 . S
C1074 C1073 1.396 . S
C1075 C1070 1.499 . S
C1075 H1076 0.959 . S
C1075 H1077 0.960 . S
C1075 H1078 0.961 . S
H1076 C1075 0.959 . S
H1077 C1075 0.960 . S
H1078 C1075 0.961 . S
O1079 Co1054 1.967 . S
O1079 C1087 1.258 . S
O1080 Co1055 1.941 . S
O1080 C1087 1.266 . S
H1081 C1083 0.959 . S
H1082 C1083 0.961 . S
C1083 C1073 1.510 1_554 S
C1083 H1081 0.959 . S
C1083 H1082 0.961 . S
C1083 H1084 0.960 . S
H1084 C1083 0.960 . S
H1085 N1065 0.862 . S
O1086 Co1054 1.920 . S
O1086 C1059 1.289 . S
C1087 O1079 1.258 . S
C1087 O1080 1.266 . S
C5 C9 1.688 . S
C43 C39 1.688 . S
C77 C73 1.688 . S
C111 C107 1.688 . S
C145 C141 1.688 . S
C179 C175 1.688 . S
C209 C213 1.688 . S
C243 C247 1.688 . S
C277 C281 1.688 . S
C311 C315 1.688 . S
C345 C349 1.688 . S
C383 C379 1.688 . S
C413 C417 1.688 . S
C447 C451 1.688 . S
C485 C481 1.688 . S
C515 C519 1.688 . S
C553 C549 1.688 . S
C587 C583 1.688 . S
C621 C617 1.688 . S
C655 C651 1.688 . S
C689 C685 1.688 . S
C723 C719 1.688 . S
C757 C753 1.688 . S
C787 C791 1.688 . S
C825 C821 1.688 . S
C859 C855 1.688 . S
C893 C889 1.688 . S
C923 C927 1.688 . S
C957 C961 1.688 . S
C991 C995 1.688 . S
C1029 C1025 1.688 . S
C1059 C1063 1.688 . S
C802 C20 1.656 . S
C700 C54 1.656 . S
C734 C88 1.656 . S
C768 C122 1.656 . S
C598 C156 1.656 . S
C632 C190 1.656 . S
C666 C224 1.656 . S
C564 C258 1.656 . S
C1074 C292 1.656 . S
C972 C326 1.656 . S
C360 C1006 1.656 . S
C394 C1040 1.656 . S
C428 C870 1.656 . S
C462 C904 1.656 . S
C496 C938 1.656 . S
C836 C530 1.656 . S
C169 C33 1.329 1_556 S
C67 C203 1.329 . S
C237 C101 1.329 . S
C135 C271 1.329 . S
C305 C441 1.329 1_556 S
C475 C339 1.329 . S
C509 C373 1.329 . S
C543 C407 1.329 . S
C713 C577 1.329 1_565 S
C611 C747 1.329 . S
C645 C781 1.329 1_564 S
C679 C815 1.329 . S
C985 C849 1.329 1_545 S
C1019 C883 1.329 . S
C1053 C917 1.329 1_564 S
C951 C1087 1.329 . S
C2 C410 1.733 1_455 S
C988 C36 1.733 . S
C70 C478 1.733 . S
C1056 C104 1.733 . S
C274 C138 1.733 1_655 S
C172 C852 1.733 . S
C206 C342 1.733 . S
C240 C920 1.733 . S
C716 C308 1.733 . S
C784 C376 1.733 . S
C580 C444 1.733 . S
C648 C512 1.733 . S
C546 C954 1.733 . S
C1022 C614 1.733 1_455 S
C682 C818 1.733 . S
C886 C750 1.733 1_455 S
