# Generated by pormake.
# Topology wjg, (4)-cn, num edge types: 1
# Building blocks:
#     Node 0, Type 0, BuildingBlock: CEKHIL_clean_sbu_0, # of connection points: 4
#     Node 1, Type 0, BuildingBlock: CEKHIL_clean_sbu_0, # of connection points: 4
#     Node 2, Type 0, BuildingBlock: CEKHIL_clean_sbu_0, # of connection points: 4
#     Node 3, Type 0, BuildingBlock: CEKHIL_clean_sbu_0, # of connection points: 4
#     Node 4, Type 0, BuildingBlock: CEKHIL_clean_sbu_0, # of connection points: 4
#     Node 5, Type 0, BuildingBlock: CEKHIL_clean_sbu_0, # of connection points: 4
#     Node 6, Type 0, BuildingBlock: CEKHIL_clean_sbu_0, # of connection points: 4
#     Node 7, Type 0, BuildingBlock: CEKHIL_clean_sbu_0, # of connection points: 4
#     Node 8, Type 0, BuildingBlock: CEKHIL_clean_sbu_0, # of connection points: 4
#     Node 9, Type 0, BuildingBlock: CEKHIL_clean_sbu_0, # of connection points: 4
#     Node 10, Type 0, BuildingBlock: CEKHIL_clean_sbu_0, # of connection points: 4
#     Node 11, Type 0, BuildingBlock: CEKHIL_clean_sbu_0, # of connection points: 4
#     Edge 12, Type (0, 0), BuildingBlock: CIFDUS_clean_linker_0, # of connection points: 2
#     Edge 13, Type (0, 0), BuildingBlock: CIFDUS_clean_linker_0, # of connection points: 2
#     Edge 14, Type (0, 0), BuildingBlock: CIFDUS_clean_linker_0, # of connection points: 2
#     Edge 15, Type (0, 0), BuildingBlock: CIFDUS_clean_linker_0, # of connection points: 2
#     Edge 16, Type (0, 0), BuildingBlock: CIFDUS_clean_linker_0, # of connection points: 2
#     Edge 17, Type (0, 0), BuildingBlock: CIFDUS_clean_linker_0, # of connection points: 2
#     Edge 18, Type (0, 0), BuildingBlock: CIFDUS_clean_linker_0, # of connection points: 2
#     Edge 19, Type (0, 0), BuildingBlock: CIFDUS_clean_linker_0, # of connection points: 2
#     Edge 20, Type (0, 0), BuildingBlock: CIFDUS_clean_linker_0, # of connection points: 2
#     Edge 21, Type (0, 0), BuildingBlock: CIFDUS_clean_linker_0, # of connection points: 2
#     Edge 22, Type (0, 0), BuildingBlock: CIFDUS_clean_linker_0, # of connection points: 2
#     Edge 23, Type (0, 0), BuildingBlock: CIFDUS_clean_linker_0, # of connection points: 2
#     Edge 24, Type (0, 0), BuildingBlock: CIFDUS_clean_linker_0, # of connection points: 2
#     Edge 25, Type (0, 0), BuildingBlock: CIFDUS_clean_linker_0, # of connection points: 2
#     Edge 26, Type (0, 0), BuildingBlock: CIFDUS_clean_linker_0, # of connection points: 2
#     Edge 27, Type (0, 0), BuildingBlock: CIFDUS_clean_linker_0, # of connection points: 2
#     Edge 28, Type (0, 0), BuildingBlock: CIFDUS_clean_linker_0, # of connection points: 2
#     Edge 29, Type (0, 0), BuildingBlock: CIFDUS_clean_linker_0, # of connection points: 2
#     Edge 30, Type (0, 0), BuildingBlock: CIFDUS_clean_linker_0, # of connection points: 2
#     Edge 31, Type (0, 0), BuildingBlock: CIFDUS_clean_linker_0, # of connection points: 2
#     Edge 32, Type (0, 0), BuildingBlock: CIFDUS_clean_linker_0, # of connection points: 2
#     Edge 33, Type (0, 0), BuildingBlock: CIFDUS_clean_linker_0, # of connection points: 2
#     Edge 34, Type (0, 0), BuildingBlock: CIFDUS_clean_linker_0, # of connection points: 2
#     Edge 35, Type (0, 0), BuildingBlock: CIFDUS_clean_linker_0, # of connection points: 2
# Relax obj value: 0.330
# Max RMSD: 0.122
# Mean RMSD: 0.112
data_MOF--net-wjg--node1-CEKHIL_clean_sbu_0--edge1-CIFDUS_clean_linker_0
_symmetry_space_group_name_H-M    P1
_symmetry_Int_Tables_number       1
_symmetry_cell_setting            triclinic
loop_
_symmetry_equiv_pos_as_xyz
'x, y, z'
_cell_length_a     27.014135
_cell_length_b     26.900228
_cell_length_c     35.456165
_cell_angle_alpha  90.060003
_cell_angle_beta   89.971739
_cell_angle_gamma 120.10343
loop_
_atom_site_label
_atom_site_type_symbol
_atom_site_fract_x
_atom_site_fract_y
_atom_site_fract_z
_atom_type_partial_charge
Co0 Co 0.15358 0.38669 0.30914 0.0
O1 O 0.13776 0.37913 0.25655 0.0
O2 O 0.07506 0.36902 0.30037 0.0
C3 C 0.23753 0.4686 0.30494 0.0
O4 O 0.16119 0.394 0.3669 0.0
Co5 Co 0.26175 0.37876 0.33066 0.0
O6 O 0.24664 0.40184 0.3806 0.0
C7 C 0.15318 0.27421 0.31285 0.0
C8 C 0.08735 0.37006 0.26462 0.0
C9 C 0.20113 0.40174 0.39053 0.0
O10 O 0.12681 0.3026 0.31372 0.0
O11 O 0.20781 0.29798 0.31357 0.0
O12 O 0.19006 0.46962 0.30509 0.0
O13 O 0.23197 0.41829 0.30199 0.0
Co14 Co 0.7641 0.1591 0.64194 0.0
O15 O 0.75186 0.14344 0.58954 0.0
O16 O 0.69955 0.08173 0.63409 0.0
C17 C 0.77118 0.24538 0.6394 0.0
O18 O 0.76842 0.16727 0.69969 0.0
Co19 Co 0.8848 0.2632 0.66072 0.0
O20 O 0.84982 0.25109 0.71158 0.0
C21 C 0.87216 0.15167 0.64035 0.0
C22 C 0.70899 0.09396 0.59821 0.0
C23 C 0.80339 0.20723 0.72254 0.0
O24 O 0.81781 0.12799 0.64378 0.0
O25 O 0.90566 0.20624 0.64057 0.0
O26 O 0.72137 0.19916 0.6403 0.0
O27 O 0.81394 0.23729 0.63445 0.0
Co28 Co 0.58322 0.73291 0.98246 0.0
O29 O 0.58235 0.71684 0.93032 0.0
O30 O 0.61953 0.68657 0.97389 0.0
C31 C 0.49217 0.71159 0.98537 0.0
O32 O 0.58803 0.74515 0.03987 0.0
Co33 Co 0.56494 0.83747 0.99618 0.0
O34 O 0.56474 0.81422 0.04934 0.0
C35 C 0.67741 0.85759 0.97328 0.0
C36 C 0.60836 0.6891 0.93828 0.0
C37 C 0.57824 0.77799 0.06175 0.0
O38 O 0.66004 0.80411 0.97768 0.0
O39 O 0.64393 0.87836 0.97399 0.0
O40 O 0.50421 0.67076 0.98806 0.0
O41 O 0.53397 0.76128 0.97607 0.0
Co42 Co 0.81849 0.60425 0.30743 0.0
O43 O 0.83626 0.61509 0.25515 0.0
O44 O 0.89697 0.6215 0.29935 0.0
C45 C 0.73436 0.52303 0.30083 0.0
O46 O 0.80891 0.59357 0.36489 0.0
Co47 Co 0.71037 0.61212 0.32906 0.0
O48 O 0.72445 0.5879 0.37886 0.0
C49 C 0.8201 0.71701 0.31435 0.0
C50 C 0.88614 0.623 0.26359 0.0
C51 C 0.7692 0.58636 0.38857 0.0
O52 O 0.84587 0.68804 0.31442 0.0
O53 O 0.76549 0.69372 0.3141 0.0
O54 O 0.78164 0.52168 0.30103 0.0
O55 O 0.74033 0.57366 0.29931 0.0
Co56 Co 0.259 0.85692 0.652 0.0
O57 O 0.27183 0.86712 0.59926 0.0
O58 O 0.31361 0.93765 0.64067 0.0
C59 C 0.26798 0.77868 0.6556 0.0
O60 O 0.25106 0.85435 0.70978 0.0
Co61 Co 0.14578 0.74182 0.66937 0.0
O62 O 0.174 0.76672 0.72159 0.0
C63 C 0.14072 0.84193 0.6429 0.0
C64 C 0.30673 0.92077 0.60549 0.0
C65 C 0.21553 0.81492 0.73271 0.0
O66 O 0.19456 0.87352 0.64848 0.0
O67 O 0.1148 0.78696 0.64361 0.0
O68 O 0.31327 0.82935 0.6561 0.0
O69 O 0.22097 0.77777 0.64791 0.0
Co70 Co 0.38352 0.22151 0.97037 0.0
O71 O 0.38125 0.23672 0.91827 0.0
O72 O 0.36136 0.27976 0.96421 0.0
C73 C 0.46791 0.22518 0.96885 0.0
O74 O 0.38414 0.21313 0.02793 0.0
Co75 Co 0.37989 0.10535 0.9859 0.0
O76 O 0.39075 0.1337 0.03875 0.0
C77 C 0.27712 0.1058 0.96238 0.0
C78 C 0.36717 0.27416 0.92812 0.0
C79 C 0.38854 0.17751 0.05043 0.0
O80 O 0.30107 0.15951 0.96985 0.0
O81 O 0.30562 0.07983 0.95869 0.0
O82 O 0.46607 0.27238 0.97109 0.0
O83 O 0.41967 0.17941 0.96221 0.0
Co84 Co 0.58082 0.85262 0.36589 0.0
O85 O 0.5787 0.86886 0.4177 0.0
O86 O 0.60527 0.9338 0.37236 0.0
C87 C 0.49516 0.77277 0.36447 0.0
O88 O 0.58533 0.84422 0.30858 0.0
Co89 Co 0.58354 0.73901 0.35357 0.0
O90 O 0.57588 0.75639 0.30016 0.0
C91 C 0.68747 0.84339 0.37679 0.0
C92 C 0.59658 0.92143 0.40827 0.0
C93 C 0.58094 0.80303 0.28717 0.0
O94 O 0.66267 0.87239 0.37027 0.0
O95 O 0.66071 0.78838 0.37732 0.0
O96 O 0.49892 0.82264 0.36164 0.0
O97 O 0.54195 0.77386 0.37344 0.0
Co98 Co 0.75031 0.59972 0.69659 0.0
O99 O 0.74694 0.60962 0.74942 0.0
O100 O 0.6953 0.62477 0.7076 0.0
C101 C 0.74382 0.51359 0.70065 0.0
O102 O 0.74668 0.59117 0.6388 0.0
Co103 Co 0.85925 0.59458 0.67224 0.0
O104 O 0.81843 0.57456 0.62322 0.0
C105 C 0.86749 0.70542 0.68949 0.0
C106 C 0.70836 0.62328 0.74292 0.0
C107 C 0.7754 0.57974 0.61434 0.0
O108 O 0.81293 0.68169 0.69062 0.0
O109 O 0.89399 0.67716 0.6877 0.0
O110 O 0.69795 0.51751 0.7017 0.0
O111 O 0.79129 0.56173 0.70233 0.0
Co112 Co 0.14029 0.73622 0.03487 0.0
O113 O 0.12046 0.70999 0.08531 0.0
O114 O 0.05731 0.69318 0.0402 0.0
C115 C 0.20669 0.71127 0.02798 0.0
O116 O 0.15104 0.75872 0.97889 0.0
Co117 Co 0.26493 0.83809 0.02566 0.0
O118 O 0.24489 0.82382 0.97123 0.0
C119 C 0.17723 0.85929 0.05695 0.0
C120 C 0.06754 0.6879 0.07556 0.0
C121 C 0.19471 0.79166 0.95792 0.0
O122 O 0.13917 0.80826 0.04745 0.0
O123 O 0.23095 0.87731 0.05546 0.0
O124 O 0.15332 0.67307 0.02267 0.0
O125 O 0.2168 0.75977 0.04186 0.0
Co126 Co 0.39199 0.13511 0.35859 0.0
O127 O 0.39352 0.12604 0.41157 0.0
O128 O 0.37065 0.05579 0.37068 0.0
C129 C 0.47659 0.21642 0.35535 0.0
O130 O 0.38865 0.13646 0.30059 0.0
Co131 Co 0.38667 0.24555 0.33827 0.0
O132 O 0.39804 0.22307 0.28704 0.0
C133 C 0.28388 0.14233 0.36459 0.0
C134 C 0.37861 0.0731 0.40578 0.0
C135 C 0.39385 0.17552 0.27681 0.0
O136 O 0.30927 0.1133 0.36058 0.0
O137 O 0.30996 0.19725 0.36272 0.0
O138 O 0.47453 0.16721 0.35588 0.0
O139 O 0.42878 0.21441 0.36214 0.0
Co140 Co 0.23674 0.39354 0.69752 0.0
O141 O 0.24769 0.38768 0.74989 0.0
O142 O 0.29819 0.37642 0.705 0.0
C143 C 0.23322 0.4747 0.70183 0.0
O144 O 0.23364 0.39894 0.63983 0.0
Co145 Co 0.11892 0.38258 0.6779 0.0
O146 O 0.15418 0.40387 0.627 0.0
C147 C 0.12561 0.28002 0.69723 0.0
C148 C 0.28814 0.37764 0.74094 0.0
C149 C 0.19986 0.40474 0.61653 0.0
O150 O 0.18016 0.30912 0.69448 0.0
O151 O 0.09403 0.30304 0.69689 0.0
O152 O 0.28221 0.47677 0.7005 0.0
O153 O 0.18923 0.42405 0.70548 0.0
Co154 Co 0.84579 0.25918 0.02901 0.0
O155 O 0.86179 0.2682 0.0815 0.0
O156 O 0.92718 0.31275 0.03727 0.0
C157 C 0.76795 0.26833 0.03219 0.0
O158 O 0.83809 0.25609 0.9713 0.0
Co159 Co 0.72907 0.14841 0.01055 0.0
O160 O 0.74962 0.18117 0.95894 0.0
C161 C 0.82908 0.13942 0.02968 0.0
C162 C 0.91443 0.30367 0.07311 0.0
C163 C 0.79739 0.22347 0.94814 0.0
O164 O 0.86139 0.19379 0.02589 0.0
O165 O 0.7746 0.11505 0.03236 0.0
O166 O 0.81831 0.31399 0.03133 0.0
O167 O 0.76762 0.22067 0.03636 0.0
H168 H 0.25442 0.57484 0.31395 0.0
H169 H 0.34236 0.47809 0.3159 0.0
H170 H 0.4307 0.56429 0.33556 0.0
H171 H 0.4816 0.66667 0.35352 0.0
H172 H 0.39152 0.76146 0.35119 0.0
H173 H 0.30462 0.67576 0.33074 0.0
C174 C 0.29295 0.57255 0.31849 0.0
C175 C 0.29209 0.52042 0.31365 0.0
C176 C 0.34282 0.62163 0.33006 0.0
C177 C 0.34224 0.51801 0.31947 0.0
C178 C 0.39254 0.5671 0.33085 0.0
C179 C 0.44284 0.66835 0.34868 0.0
C180 C 0.4427 0.72002 0.35391 0.0
C181 C 0.3931 0.61901 0.33658 0.0
C182 C 0.39249 0.722 0.34735 0.0
C183 C 0.34288 0.67316 0.33558 0.0
H184 H 0.68656 0.26509 0.65779 0.0
H185 H 0.86983 0.35002 0.64392 0.0
H186 H 0.87813 0.44137 0.66357 0.0
H187 H 0.83228 0.4962 0.68436 0.0
H188 H 0.64866 0.40867 0.69796 0.0
H189 H 0.64159 0.31831 0.67924 0.0
C190 C 0.72842 0.30356 0.65891 0.0
C191 C 0.77751 0.30117 0.6493 0.0
C192 C 0.73274 0.35505 0.67049 0.0
C193 C 0.83143 0.35117 0.65105 0.0
C194 C 0.83616 0.40316 0.6624 0.0
C195 C 0.79085 0.45725 0.68342 0.0
C196 C 0.74105 0.45892 0.69234 0.0
C197 C 0.787 0.40548 0.67224 0.0
C198 C 0.68757 0.40833 0.69109 0.0
C199 C 0.68344 0.35673 0.6803 0.0
H200 H 0.4078 0.70743 0.94331 0.0
H201 H 0.45714 0.69895 0.05756 0.0
H202 H 0.37112 0.69689 0.08148 0.0
H203 H 0.28487 0.70335 0.06952 0.0
H204 H 0.23042 0.70237 0.95526 0.0
H205 H 0.31515 0.70163 0.93116 0.0
C206 C 0.39899 0.70452 0.97334 0.0
C207 C 0.43821 0.70428 0.9989 0.0
C208 C 0.34888 0.70165 0.98664 0.0
C209 C 0.42713 0.69981 0.0377 0.0
C210 C 0.37817 0.69858 0.05129 0.0
C211 C 0.29154 0.70215 0.03942 0.0
C212 C 0.25272 0.70332 0.01397 0.0
C213 C 0.33926 0.70038 0.02602 0.0
C214 C 0.26051 0.70145 0.97504 0.0
C215 C 0.30878 0.70123 0.96137 0.0
H216 H 0.48947 0.32239 0.3453 0.0
H217 H 0.57983 0.22799 0.33966 0.0
H218 H 0.66645 0.31438 0.31984 0.0
H219 H 0.71684 0.41614 0.30571 0.0
H220 H 0.62925 0.51301 0.31201 0.0
H221 H 0.54043 0.4256 0.32946 0.0
C222 C 0.52819 0.3209 0.33975 0.0
C223 C 0.52854 0.26918 0.34408 0.0
C224 C 0.57793 0.37078 0.32831 0.0
C225 C 0.5787 0.26748 0.33665 0.0
C226 C 0.62817 0.31674 0.32524 0.0
C227 C 0.67828 0.41822 0.31069 0.0
C228 C 0.6794 0.47073 0.30781 0.0
C229 C 0.62823 0.36849 0.32115 0.0
C230 C 0.62918 0.47282 0.31411 0.0
C231 C 0.57861 0.42303 0.32423 0.0
H232 H 0.17848 0.67074 0.66503 0.0
H233 H 0.363 0.77129 0.66807 0.0
H234 H 0.36797 0.68585 0.68409 0.0
H235 H 0.32039 0.58305 0.69593 0.0
H236 H 0.13605 0.4813 0.69334 0.0
H237 H 0.13038 0.56723 0.67875 0.0
C238 C 0.21969 0.67382 0.6692 0.0
C239 C 0.27029 0.72693 0.66523 0.0
C240 C 0.22224 0.62462 0.67857 0.0
C241 C 0.32347 0.73068 0.67091 0.0
C242 C 0.32638 0.68196 0.68009 0.0
C243 C 0.27892 0.57965 0.69231 0.0
C244 C 0.22875 0.52616 0.69548 0.0
C245 C 0.27609 0.6288 0.68383 0.0
C246 C 0.17528 0.52225 0.69097 0.0
C247 C 0.17204 0.57123 0.68254 0.0
H248 H 0.66338 0.17779 0.01767 0.0
H249 H 0.75663 0.36291 0.02544 0.0
H250 H 0.67142 0.36577 0.00567 0.0
H251 H 0.57148 0.31561 0.98525 0.0
H252 H 0.47956 0.13067 0.97538 0.0
H253 H 0.56417 0.1278 0.99633 0.0
C254 C 0.66509 0.21876 0.01514 0.0
C255 C 0.716 0.27006 0.02291 0.0
C256 C 0.61661 0.22009 1.00303 0.0
C257 C 0.71769 0.32286 0.01956 0.0
C258 C 0.66918 0.32453 0.00816 0.0
C259 C 0.57006 0.2747 0.98754 0.0
C260 C 0.51959 0.22344 0.97891 0.0
C261 C 0.61863 0.27342 0.99955 0.0
C262 C 0.51813 0.1707 0.98188 0.0
C263 C 0.56631 0.16901 0.99397 0.0
H264 H 0.13684 0.1804 0.27316 0.0
H265 H 0.10325 0.23393 0.37979 0.0
H266 H 0.12814 0.17051 0.41299 0.0
H267 H 0.20041 0.13984 0.40908 0.0
H268 H 0.2302 0.0826 0.3026 0.0
H269 H 0.16321 0.10465 0.27176 0.0
C270 C 0.13052 0.17457 0.30342 0.0
C271 C 0.12205 0.21387 0.32436 0.0
C272 C 0.146 0.13865 0.32232 0.0
C273 C 0.11173 0.20504 0.3633 0.0
C274 C 0.12705 0.16949 0.38243 0.0
C275 C 0.1887 0.12797 0.37981 0.0
C276 C 0.2222 0.11319 0.3575 0.0
C277 C 0.15069 0.14171 0.36216 0.0
C278 C 0.20584 0.09589 0.31998 0.0
C279 C 0.16818 0.10946 0.30211 0.0
H280 H 0.95002 0.13814 0.59929 0.0
H281 H 0.85689 0.09111 0.70381 0.0
H282 H 0.94339 0.11369 0.73824 0.0
H283 H 0.04559 0.18941 0.73796 0.0
H284 H 0.13875 0.23431 0.63338 0.0
H285 H 0.05262 0.16753 0.59934 0.0
C286 C 0.94788 0.1284 0.62914 0.0
C287 C 0.89906 0.11754 0.64962 0.0
C288 C -0.00161 0.14306 0.64882 0.0
C289 C 0.89524 0.1021 0.6878 0.0
C290 C 0.9451 0.11612 0.70772 0.0
C291 C 0.04788 0.18106 0.70825 0.0
C292 C 0.09669 0.21884 0.6876 0.0
C293 C -0.00233 0.14338 0.68876 0.0
C294 C 0.10054 0.20671 0.64951 0.0
C295 C 0.05093 0.16916 0.62984 0.0
H296 H 0.8349 0.05351 0.06612 0.0
H297 H 0.86572 0.14051 0.95955 0.0
H298 H 0.82977 0.04996 0.92605 0.0
H299 H 0.75572 0.947 0.93076 0.0
H300 H 0.73126 0.8599 0.03688 0.0
H301 H 0.80052 0.94942 0.06696 0.0
C302 C 0.8378 0.05305 0.03561 0.0
C303 C 0.85004 0.10244 0.0152 0.0
C304 C 0.8165 0.00058 0.01653 0.0
C305 C 0.85515 0.10227 0.97575 0.0
C306 C 0.83349 0.05025 0.9565 0.0
C307 C 0.76857 0.9471 0.95976 0.0
C308 C 0.73743 0.89807 0.98203 0.0
C309 C 0.80869 -0.00118 0.97692 0.0
C310 C 0.75452 0.89781 0.01943 0.0
C311 C 0.79363 0.94916 0.03683 0.0
H312 H 0.76988 0.83932 0.41889 0.0
H313 H 0.74246 0.90825 0.31663 0.0
H314 H 0.81039 0.89012 0.28335 0.0
H315 H 0.83729 0.81488 0.27976 0.0
H316 H 0.86924 0.75034 0.38225 0.0
H317 H 0.84278 0.80922 0.41958 0.0
C318 C 0.78216 0.85437 0.39016 0.0
C319 C 0.74912 0.87154 0.36945 0.0
C320 C 0.82094 0.84316 0.37103 0.0
C321 C 0.76633 0.89301 0.33273 0.0
C322 C 0.80465 0.88184 0.31341 0.0
C323 C 0.84292 0.81736 0.31014 0.0
C324 C 0.85115 0.77604 0.32855 0.0
C325 C 0.82662 0.85075 0.33141 0.0
C326 C 0.86079 0.78073 0.36766 0.0
C327 C 0.84455 0.81364 0.38915 0.0
H328 H 0.05946 0.84097 0.59706 0.0
H329 H 0.13925 0.89611 0.70585 0.0
H330 H 0.04793 0.87192 0.73416 0.0
H331 H 0.9458 0.79711 0.73005 0.0
H332 H 0.86594 0.74601 0.62107 0.0
H333 H 0.9567 0.80913 0.59025 0.0
C334 C 0.05746 0.85174 0.62631 0.0
C335 C 0.10462 0.86724 0.64985 0.0
C336 C 0.00449 0.83697 0.64249 0.0
C337 C 0.10264 0.8827 0.68745 0.0
C338 C 0.05014 0.86794 0.70386 0.0
C339 C 0.94752 0.80334 0.69974 0.0
C340 C 0.90077 0.76538 0.6776 0.0
C341 C 0.00022 0.83916 0.68223 0.0
C342 C 0.90234 0.77427 0.63849 0.0
C343 C 0.95454 0.80963 0.62077 0.0
H344 H 0.24149 0.10202 0.03196 0.0
H345 H 0.18426 0.02493 0.92261 0.0
H346 H 0.1198 0.93243 0.95195 0.0
H347 H 0.11546 0.87124 1.00362 0.0
H348 H 0.20608 0.94775 0.10676 0.0
H349 H 0.22065 0.04116 0.08691 0.0
C350 C 0.21221 0.06549 0.01481 0.0
C351 C 0.21827 0.06928 0.97538 0.0
C352 C 0.18313 0.01117 0.03158 0.0
C353 C 0.18049 0.02249 0.95306 0.0
C354 C 0.14468 0.96937 0.96994 0.0
C355 C 0.13565 0.9079 0.02254 0.0
C356 C 0.16059 0.90342 0.0562 0.0
C357 C 0.15078 0.96231 0.0086 0.0
C358 C 0.18701 0.95072 0.0806 0.0
C359 C 0.19593 0.00416 0.06892 0.0
H360 H 0.89039 0.30433 0.14669 0.0
H361 H 0.03195 0.35968 0.06935 0.0
H362 H 0.09835 0.38897 0.12287 0.0
H363 H 0.1142 0.39056 0.19093 0.0
H364 H 0.97214 0.3322 0.26821 0.0
H365 H 0.90707 0.31211 0.21479 0.0
C366 C 0.93587 0.32319 0.14139 0.0
C367 C 0.95633 0.3292 0.10408 0.0
C368 C 0.9732 0.33873 0.17213 0.0
C369 C 0.01529 0.35454 0.09775 0.0
C370 C 0.05305 0.37091 0.12833 0.0
C371 C 0.06898 0.37359 0.19625 0.0
C372 C 0.04771 0.36198 0.2335 0.0
C373 C 0.03218 0.36182 0.16554 0.0
C374 C 0.98934 0.34107 0.23984 0.0
C375 C 0.95229 0.32956 0.20933 0.0
H376 H 0.71409 0.12165 0.52488 0.0
H377 H 0.62511 0.98016 0.6024 0.0
H378 H 0.57537 0.91587 0.54919 0.0
H379 H 0.56585 0.89885 0.48114 0.0
H380 H 0.66002 0.0392 0.40368 0.0
H381 H 0.69848 0.10612 0.457 0.0
C382 C 0.68359 0.07676 0.53032 0.0
C383 C 0.67396 0.05526 0.56751 0.0
C384 C 0.65625 0.04033 0.49975 0.0
C385 C 0.63354 -0.00257 0.57405 0.0
C386 C 0.60526 0.96085 0.54366 0.0
C387 C 0.59429 0.94424 0.47577 0.0
C388 C 0.61089 0.96413 0.43853 0.0
C389 C 0.61755 0.98166 0.50644 0.0
C390 C 0.64682 0.023 0.43204 0.0
C391 C 0.66909 0.06102 0.46252 0.0
H392 H 0.57787 0.68325 0.86547 0.0
H393 H 0.68071 0.64466 0.93986 0.0
H394 H 0.71911 0.61919 0.88507 0.0
H395 H 0.72752 0.61428 0.8166 0.0
H396 H 0.62692 0.65607 0.7423 0.0
H397 H 0.58356 0.67491 0.79725 0.0
C398 C 0.60848 0.66894 0.86992 0.0
C399 C 0.62684 0.66622 0.90676 0.0
C400 C 0.63105 0.65581 0.83846 0.0
C401 C 0.66594 0.64701 0.91188 0.0
C402 C 0.68808 0.63289 0.88056 0.0
C403 C 0.69607 0.62751 0.81223 0.0
C404 C 0.68077 0.63435 0.77531 0.0
C405 C 0.6717 0.63827 0.84379 0.0
C406 C 0.63963 0.65093 0.77034 0.0
C407 C 0.61485 0.66152 0.80172 0.0
H408 H 0.08348 0.67306 0.14882 0.0
H409 H 0.95291 0.65138 0.06936 0.0
H410 H 0.88471 0.62683 0.12136 0.0
H411 H 0.86524 0.61926 0.18903 0.0
H412 H -0.00309 0.64496 0.26876 0.0
H413 H 0.06265 0.66108 0.21638 0.0
C414 C 0.03992 0.66244 0.14267 0.0
C415 C 0.02326 0.6644 0.10523 0.0
C416 C 0.00179 0.65004 0.17265 0.0
C417 C 0.96666 0.65009 0.09786 0.0
C418 C 0.92792 0.6365 0.12759 0.0
C419 C 0.90832 0.62832 0.19514 0.0
C420 C 0.92651 0.63157 0.23282 0.0
C421 C 0.94554 0.63773 0.16507 0.0
C422 C 0.98215 0.64269 0.24007 0.0
C423 C 0.01955 0.65176 0.21016 0.0
H424 H 0.40394 0.10785 0.47802 0.0
H425 H 0.33376 0.95585 0.40813 0.0
H426 H 0.31106 0.89613 0.46488 0.0
H427 H 0.30407 0.88746 0.53353 0.0
H428 H 0.36921 0.0391 0.60343 0.0
H429 H 0.40201 0.09949 0.54673 0.0
C430 C 0.38393 0.06161 0.47499 0.0
C431 C 0.36983 0.0361 0.43882 0.0
C432 C 0.37016 0.02791 0.50757 0.0
C433 C 0.34474 0.97636 0.43555 0.0
C434 C 0.33168 0.94238 0.46798 0.0
C435 C 0.32579 0.93381 0.53658 0.0
C436 C 0.33365 0.95891 0.57271 0.0
C437 C 0.34309 0.96774 0.50403 0.0
C438 C 0.36255 0.01888 0.57603 0.0
C439 C 0.38098 0.05322 0.54363 0.0
H440 H 0.39559 0.28012 0.8548 0.0
H441 H 0.31736 0.34124 0.93463 0.0
H442 H 0.29202 0.38476 0.88289 0.0
H443 H 0.28403 0.39645 0.81514 0.0
H444 H 0.35828 0.33132 0.73515 0.0
H445 H 0.39438 0.29866 0.78737 0.0
C446 C 0.37328 0.30328 0.86104 0.0
C447 C 0.35745 0.30674 0.89845 0.0
C448 C 0.3582 0.32712 0.83125 0.0
C449 C 0.32961 0.33775 0.90609 0.0
C450 C 0.31504 0.36239 0.87652 0.0
C451 C 0.30855 0.37553 0.80901 0.0
C452 C 0.31782 0.36544 0.77131 0.0
C453 C 0.32786 0.35596 0.839 0.0
C454 C 0.35046 0.33928 0.76388 0.0
C455 C 0.37075 0.32041 0.79371 0.0
H456 H 0.27446 0.41239 0.44678 0.0
H457 H 0.11246 0.40402 0.42757 0.0
H458 H 0.09987 0.40726 0.49575 0.0
H459 H 0.13262 0.40784 0.5603 0.0
H460 H 0.29302 0.4127 0.57927 0.0
H461 H 0.30836 0.41556 0.51112 0.0
C462 C 0.23634 0.41159 0.45723 0.0
C463 C 0.19427 0.40776 0.43172 0.0
C464 C 0.22903 0.41259 0.49638 0.0
C465 C 0.14547 0.40688 0.44628 0.0
C466 C 0.13824 0.40861 0.48531 0.0
C467 C 0.17127 0.40988 0.54976 0.0
C468 C 0.21163 0.40989 0.57522 0.0
C469 C 0.17942 0.41076 0.51057 0.0
C470 C 0.26121 0.41251 0.5606 0.0
C471 C 0.26995 0.4141 0.52158 0.0
H472 H 0.72522 0.15517 0.8929 0.0
H473 H 0.88867 0.3095 0.90944 0.0
H474 H 0.90339 0.31832 0.84109 0.0
H475 H 0.8714 0.28068 0.77742 0.0
H476 H 0.70918 0.12484 0.76104 0.0
H477 H 0.69259 0.11833 0.82919 0.0
C478 C 0.76409 0.19116 0.8818 0.0
C479 C 0.80586 0.23177 0.90661 0.0
C480 C 0.77256 0.19548 0.8426 0.0
C481 C 0.85582 0.27769 0.89126 0.0
C482 C 0.86426 0.28265 0.85214 0.0
C483 C 0.83213 0.24518 0.7885 0.0
C484 C 0.79154 0.20313 0.76381 0.0
C485 C 0.82314 0.2415 0.82765 0.0
C486 C 0.74118 0.15771 0.77913 0.0
C487 C 0.7317 0.15401 0.81813 0.0
H488 H 0.58832 0.73189 0.23563 0.0
H489 H 0.57667 0.88599 0.24415 0.0
H490 H 0.57611 0.89173 0.17526 0.0
H491 H 0.57692 0.85215 0.11332 0.0
H492 H 0.58857 0.6981 0.10456 0.0
H493 H 0.59138 0.69348 0.1735 0.0
C494 C 0.58556 0.76688 0.22263 0.0
C495 C 0.58211 0.80836 0.24533 0.0
C496 C 0.58527 0.76986 0.1831 0.0
C497 C 0.57925 0.85349 0.22761 0.0
C498 C 0.57886 0.8567 0.18819 0.0
C499 C 0.57999 0.81729 0.12626 0.0
C500 C 0.5821 0.77514 0.10351 0.0
C501 C 0.5815 0.81494 0.16575 0.0
C502 C 0.5868 0.73099 0.12116 0.0
C503 C 0.58829 0.72833 0.16059 0.0
H504 H 0.70166 0.58568 0.44595 0.0
H505 H 0.8513 0.57115 0.42399 0.0
H506 H 0.8635 0.56427 0.4918 0.0
H507 H 0.83433 0.56654 0.55666 0.0
H508 H 0.68717 0.58521 0.57904 0.0
H509 H 0.67116 0.58581 0.51108 0.0
C510 C 0.73687 0.58058 0.45575 0.0
C511 C 0.77563 0.57896 0.42958 0.0
C512 C 0.74406 0.5775 0.49476 0.0
C513 C 0.82092 0.57262 0.44324 0.0
C514 C 0.82789 0.56871 0.48206 0.0
C515 C 0.79832 0.57036 0.54697 0.0
C516 C 0.76196 0.5759 0.5733 0.0
C517 C 0.79006 0.57171 0.508 0.0
C518 C 0.71582 0.58088 0.55969 0.0
C519 C 0.70677 0.58136 0.52079 0.0
H520 H 0.27515 0.86117 0.90642 0.0
H521 H 0.09937 0.72401 0.91523 0.0
H522 H 0.09042 0.72233 0.84665 0.0
H523 H 0.13308 0.75644 0.78469 0.0
H524 H 0.30895 0.89245 0.77471 0.0
H525 H 0.31693 0.89843 0.84377 0.0
C526 C 0.23468 0.83088 0.89349 0.0
C527 C 0.188 0.79233 0.91625 0.0
C528 C 0.22989 0.83 0.85395 0.0
C529 C 0.13599 0.75396 0.89869 0.0
C530 C 0.13088 0.75297 0.85941 0.0
C531 C 0.17342 0.78757 0.79741 0.0
C532 C 0.22072 0.82353 0.77433 0.0
C533 C 0.17771 0.79027 0.83684 0.0
C534 C 0.27199 0.86423 0.79163 0.0
C535 C 0.27655 0.8674 0.83111 0.0
H536 H 0.39894 0.24769 0.22141 0.0
H537 H 0.38756 0.08314 0.23809 0.0
H538 H 0.38512 0.06984 0.16952 0.0
H539 H 0.38547 0.10481 0.10533 0.0
H540 H 0.39568 0.26904 0.08964 0.0
H541 H 0.39908 0.28229 0.15797 0.0
C542 C 0.39607 0.20873 0.21038 0.0
C543 C 0.39357 0.16642 0.23527 0.0
C544 C 0.39433 0.20132 0.17114 0.0
C545 C 0.38967 0.11644 0.21987 0.0
C546 C 0.38821 0.10885 0.18063 0.0
C547 C 0.38862 0.14374 0.11668 0.0
C548 C 0.39051 0.18607 0.09205 0.0
C549 C 0.39042 0.151 0.15605 0.0
C550 C 0.39415 0.2358 0.10764 0.0
C551 C 0.39616 0.2434 0.14677 0.0
loop_
_geom_bond_atom_site_label_1
_geom_bond_atom_site_label_2
_geom_bond_distance
_geom_bond_site_symmetry_2
_ccdc_geom_bond_type
Co0 O1 2.216 . S
Co0 O2 2.091 . S
Co0 O4 2.004 . S
Co0 O10 2.021 . S
Co0 O12 2.137 . S
Co0 O13 2.244 . S
O1 Co0 2.216 . S
O1 C8 1.247 . S
O2 Co0 2.091 . S
O2 C8 1.261 . S
C3 O12 1.247 . S
C3 O13 1.272 . S
O4 Co0 2.004 . S
O4 C9 1.259 . S
Co5 O6 2.061 . S
Co5 O11 2.052 . S
Co5 O13 2.135 . S
O6 Co5 2.061 . S
O6 C9 1.235 . S
C7 O10 1.238 . S
C7 O11 1.241 . S
C8 O1 1.247 . S
C8 O2 1.261 . S
C9 O4 1.259 . S
C9 O6 1.235 . S
O10 Co0 2.021 . S
O10 C7 1.238 . S
O11 Co5 2.052 . S
O11 C7 1.241 . S
O12 Co0 2.137 . S
O12 C3 1.247 . S
O13 Co0 2.244 . S
O13 C3 1.272 . S
O13 Co5 2.135 . S
Co14 O15 2.216 . S
Co14 O16 2.091 . S
Co14 O18 2.004 . S
Co14 O24 2.021 . S
Co14 O26 2.137 . S
Co14 O27 2.244 . S
O15 Co14 2.216 . S
O15 C22 1.247 . S
O16 Co14 2.091 . S
O16 C22 1.261 . S
C17 O26 1.247 . S
C17 O27 1.272 . S
O18 Co14 2.004 . S
O18 C23 1.259 . S
Co19 O20 2.061 . S
Co19 O25 2.052 . S
Co19 O27 2.135 . S
O20 Co19 2.061 . S
O20 C23 1.235 . S
C21 O24 1.238 . S
C21 O25 1.241 . S
C22 O15 1.247 . S
C22 O16 1.261 . S
C23 O18 1.259 . S
C23 O20 1.235 . S
O24 Co14 2.021 . S
O24 C21 1.238 . S
O25 Co19 2.052 . S
O25 C21 1.241 . S
O26 Co14 2.137 . S
O26 C17 1.247 . S
O27 Co14 2.244 . S
O27 C17 1.272 . S
O27 Co19 2.135 . S
Co28 O29 2.216 . S
Co28 O30 2.091 . S
Co28 O32 2.004 1_556 S
Co28 O38 2.021 . S
Co28 O40 2.137 . S
Co28 O41 2.244 . S
O29 Co28 2.216 . S
O29 C36 1.247 . S
O30 Co28 2.091 . S
O30 C36 1.261 . S
C31 O40 1.247 . S
C31 O41 1.271 . S
O32 Co28 2.004 1_554 S
O32 C37 1.259 . S
Co33 O34 2.061 . S
Co33 O39 2.052 . S
Co33 O41 2.136 1_554 S
O34 Co33 2.061 . S
O34 C37 1.235 . S
C35 O38 1.238 . S
C35 O39 1.241 1_556 S
C36 O29 1.247 . S
C36 O30 1.261 . S
C37 O32 1.259 . S
C37 O34 1.235 . S
O38 Co28 2.021 . S
O38 C35 1.238 . S
O39 Co33 2.052 . S
O39 C35 1.241 1_554 S
O40 Co28 2.137 . S
O40 C31 1.247 . S
O41 Co28 2.244 . S
O41 C31 1.271 . S
O41 Co33 2.136 1_556 S
Co42 O43 2.216 . S
Co42 O44 2.091 . S
Co42 O46 2.004 . S
Co42 O52 2.021 . S
Co42 O54 2.137 . S
Co42 O55 2.244 . S
O43 Co42 2.216 . S
O43 C50 1.247 . S
O44 Co42 2.091 . S
O44 C50 1.261 . S
C45 O54 1.247 . S
C45 O55 1.272 . S
O46 Co42 2.004 . S
O46 C51 1.259 . S
Co47 O48 2.061 . S
Co47 O53 2.052 . S
Co47 O55 2.135 . S
O48 Co47 2.061 . S
O48 C51 1.235 . S
C49 O52 1.238 . S
C49 O53 1.241 . S
C50 O43 1.247 . S
C50 O44 1.261 . S
C51 O46 1.259 . S
C51 O48 1.235 . S
O52 Co42 2.021 . S
O52 C49 1.238 . S
O53 Co47 2.052 . S
O53 C49 1.241 . S
O54 Co42 2.137 . S
O54 C45 1.247 . S
O55 Co42 2.244 . S
O55 C45 1.272 . S
O55 Co47 2.135 . S
Co56 O57 2.216 . S
Co56 O58 2.091 . S
Co56 O60 2.004 . S
Co56 O66 2.021 . S
Co56 O68 2.137 . S
Co56 O69 2.244 . S
O57 Co56 2.216 . S
O57 C64 1.247 . S
O58 Co56 2.091 . S
O58 C64 1.261 . S
C59 O68 1.247 . S
C59 O69 1.272 . S
O60 Co56 2.004 . S
O60 C65 1.259 . S
Co61 O62 2.061 . S
Co61 O67 2.052 . S
Co61 O69 2.135 . S
O62 Co61 2.061 . S
O62 C65 1.235 . S
C63 O66 1.238 . S
C63 O67 1.241 . S
C64 O57 1.247 . S
C64 O58 1.261 . S
C65 O60 1.259 . S
C65 O62 1.235 . S
O66 Co56 2.021 . S
O66 C63 1.238 . S
O67 Co61 2.052 . S
O67 C63 1.241 . S
O68 Co56 2.137 . S
O68 C59 1.247 . S
O69 Co56 2.244 . S
O69 C59 1.272 . S
O69 Co61 2.135 . S
Co70 O71 2.216 . S
Co70 O72 2.091 . S
Co70 O74 2.004 1_556 S
Co70 O80 2.021 . S
Co70 O82 2.137 . S
Co70 O83 2.244 . S
O71 Co70 2.216 . S
O71 C78 1.247 . S
O72 Co70 2.091 . S
O72 C78 1.261 . S
C73 O82 1.247 . S
C73 O83 1.271 . S
O74 Co70 2.004 1_554 S
O74 C79 1.259 . S
Co75 O76 2.061 . S
Co75 O81 2.052 . S
Co75 O83 2.136 1_554 S
O76 Co75 2.061 . S
O76 C79 1.235 . S
C77 O80 1.238 . S
C77 O81 1.241 1_556 S
C78 O71 1.247 . S
C78 O72 1.261 . S
C79 O74 1.259 . S
C79 O76 1.235 . S
O80 Co70 2.021 . S
O80 C77 1.238 . S
O81 Co75 2.052 . S
O81 C77 1.241 1_554 S
O82 Co70 2.137 . S
O82 C73 1.247 . S
O83 Co70 2.244 . S
O83 C73 1.271 . S
O83 Co75 2.136 1_556 S
Co84 O85 2.216 . S
Co84 O86 2.091 . S
Co84 O88 2.004 . S
Co84 O94 2.021 . S
Co84 O96 2.137 . S
Co84 O97 2.244 . S
O85 Co84 2.216 . S
O85 C92 1.247 . S
O86 Co84 2.091 . S
O86 C92 1.261 . S
C87 O96 1.247 . S
C87 O97 1.272 . S
O88 Co84 2.004 . S
O88 C93 1.259 . S
Co89 O90 2.061 . S
Co89 O95 2.052 . S
Co89 O97 2.135 . S
O90 Co89 2.061 . S
O90 C93 1.235 . S
C91 O94 1.238 . S
C91 O95 1.241 . S
C92 O85 1.247 . S
C92 O86 1.261 . S
C93 O88 1.259 . S
C93 O90 1.235 . S
O94 Co84 2.021 . S
O94 C91 1.238 . S
O95 Co89 2.052 . S
O95 C91 1.241 . S
O96 Co84 2.137 . S
O96 C87 1.247 . S
O97 Co84 2.244 . S
O97 C87 1.272 . S
O97 Co89 2.135 . S
Co98 O99 2.216 . S
Co98 O100 2.091 . S
Co98 O102 2.004 . S
Co98 O108 2.021 . S
Co98 O110 2.137 . S
Co98 O111 2.244 . S
O99 Co98 2.216 . S
O99 C106 1.247 . S
O100 Co98 2.091 . S
O100 C106 1.261 . S
C101 O110 1.247 . S
C101 O111 1.272 . S
O102 Co98 2.004 . S
O102 C107 1.259 . S
Co103 O104 2.061 . S
Co103 O109 2.052 . S
Co103 O111 2.135 . S
O104 Co103 2.061 . S
O104 C107 1.235 . S
C105 O108 1.238 . S
C105 O109 1.241 . S
C106 O99 1.247 . S
C106 O100 1.261 . S
C107 O102 1.259 . S
C107 O104 1.235 . S
O108 Co98 2.021 . S
O108 C105 1.238 . S
O109 Co103 2.052 . S
O109 C105 1.241 . S
O110 Co98 2.137 . S
O110 C101 1.247 . S
O111 Co98 2.244 . S
O111 C101 1.272 . S
O111 Co103 2.135 . S
Co112 O113 2.216 . S
Co112 O114 2.091 . S
Co112 O116 2.004 1_554 S
Co112 O122 2.021 . S
Co112 O124 2.137 . S
Co112 O125 2.244 . S
O113 Co112 2.216 . S
O113 C120 1.247 . S
O114 Co112 2.091 . S
O114 C120 1.261 . S
C115 O124 1.247 . S
C115 O125 1.271 . S
O116 Co112 2.004 1_556 S
O116 C121 1.259 . S
Co117 O118 2.061 . S
Co117 O123 2.052 . S
Co117 O125 2.136 1_556 S
O118 Co117 2.061 . S
O118 C121 1.235 . S
C119 O122 1.238 . S
C119 O123 1.241 1_554 S
C120 O113 1.247 . S
C120 O114 1.261 . S
C121 O116 1.259 . S
C121 O118 1.235 . S
O122 Co112 2.021 . S
O122 C119 1.238 . S
O123 Co117 2.052 . S
O123 C119 1.241 1_556 S
O124 Co112 2.137 . S
O124 C115 1.247 . S
O125 Co112 2.244 . S
O125 C115 1.271 . S
O125 Co117 2.136 1_554 S
Co126 O127 2.216 . S
Co126 O128 2.091 . S
Co126 O130 2.004 . S
Co126 O136 2.021 . S
Co126 O138 2.137 . S
Co126 O139 2.244 . S
O127 Co126 2.216 . S
O127 C134 1.247 . S
O128 Co126 2.091 . S
O128 C134 1.261 . S
C129 O138 1.247 . S
C129 O139 1.272 . S
O130 Co126 2.004 . S
O130 C135 1.259 . S
Co131 O132 2.061 . S
Co131 O137 2.052 . S
Co131 O139 2.135 . S
O132 Co131 2.061 . S
O132 C135 1.235 . S
C133 O136 1.238 . S
C133 O137 1.241 . S
C134 O127 1.247 . S
C134 O128 1.261 . S
C135 O130 1.259 . S
C135 O132 1.235 . S
O136 Co126 2.021 . S
O136 C133 1.238 . S
O137 Co131 2.052 . S
O137 C133 1.241 . S
O138 Co126 2.137 . S
O138 C129 1.247 . S
O139 Co126 2.244 . S
O139 C129 1.272 . S
O139 Co131 2.135 . S
Co140 O141 2.216 . S
Co140 O142 2.091 . S
Co140 O144 2.004 . S
Co140 O150 2.021 . S
Co140 O152 2.137 . S
Co140 O153 2.244 . S
O141 Co140 2.216 . S
O141 C148 1.247 . S
O142 Co140 2.091 . S
O142 C148 1.261 . S
C143 O152 1.247 . S
C143 O153 1.272 . S
O144 Co140 2.004 . S
O144 C149 1.259 . S
Co145 O146 2.061 . S
Co145 O151 2.052 . S
Co145 O153 2.135 . S
O146 Co145 2.061 . S
O146 C149 1.235 . S
C147 O150 1.238 . S
C147 O151 1.241 . S
C148 O141 1.247 . S
C148 O142 1.261 . S
C149 O144 1.259 . S
C149 O146 1.235 . S
O150 Co140 2.021 . S
O150 C147 1.238 . S
O151 Co145 2.052 . S
O151 C147 1.241 . S
O152 Co140 2.137 . S
O152 C143 1.247 . S
O153 Co140 2.244 . S
O153 C143 1.272 . S
O153 Co145 2.135 . S
Co154 O155 2.216 . S
Co154 O156 2.091 . S
Co154 O158 2.004 1_554 S
Co154 O164 2.021 . S
Co154 O166 2.137 . S
Co154 O167 2.244 . S
O155 Co154 2.216 . S
O155 C162 1.247 . S
O156 Co154 2.091 . S
O156 C162 1.261 . S
C157 O166 1.247 . S
C157 O167 1.271 . S
O158 Co154 2.004 1_556 S
O158 C163 1.259 . S
Co159 O160 2.061 . S
Co159 O165 2.052 . S
Co159 O167 2.136 1_556 S
O160 Co159 2.061 . S
O160 C163 1.235 . S
C161 O164 1.238 . S
C161 O165 1.241 1_554 S
C162 O155 1.247 . S
C162 O156 1.261 . S
C163 O158 1.259 . S
C163 O160 1.235 . S
O164 Co154 2.021 . S
O164 C161 1.238 . S
O165 Co159 2.052 . S
O165 C161 1.241 1_556 S
O166 Co154 2.137 . S
O166 C157 1.247 . S
O167 Co154 2.244 . S
O167 C157 1.271 . S
O167 Co159 2.136 1_554 S
H168 C174 0.930 . S
H169 C177 0.930 . S
H170 C178 0.930 . S
H171 C179 0.930 . S
H172 C182 0.930 . S
H173 C183 0.930 . S
C174 H168 0.930 . S
C174 C175 1.355 . S
C174 C176 1.415 . S
C175 C174 1.355 . S
C175 C177 1.419 . S
C176 C174 1.415 . S
C176 C181 1.425 . S
C176 C183 1.409 . S
C177 H169 0.930 . S
C177 C175 1.419 . S
C177 C178 1.362 . S
C178 H170 0.930 . S
C178 C177 1.362 . S
C178 C181 1.409 . S
C179 H171 0.930 . S
C179 C180 1.355 . S
C179 C181 1.415 . S
C180 C179 1.355 . S
C180 C182 1.419 . S
C181 C176 1.425 . S
C181 C178 1.409 . S
C181 C179 1.415 . S
C182 H172 0.930 . S
C182 C180 1.419 . S
C182 C183 1.362 . S
C183 H173 0.930 . S
C183 C176 1.409 . S
C183 C182 1.362 . S
H184 C190 0.930 . S
H185 C193 0.930 . S
H186 C194 0.930 . S
H187 C195 0.930 . S
H188 C198 0.930 . S
H189 C199 0.930 . S
C190 H184 0.930 . S
C190 C191 1.355 . S
C190 C192 1.415 . S
C191 C190 1.355 . S
C191 C193 1.419 . S
C192 C190 1.415 . S
C192 C197 1.425 . S
C192 C199 1.409 . S
C193 H185 0.930 . S
C193 C191 1.419 . S
C193 C194 1.362 . S
C194 H186 0.930 . S
C194 C193 1.362 . S
C194 C197 1.409 . S
C195 H187 0.930 . S
C195 C196 1.355 . S
C195 C197 1.415 . S
C196 C195 1.355 . S
C196 C198 1.419 . S
C197 C192 1.425 . S
C197 C194 1.409 . S
C197 C195 1.415 . S
C198 H188 0.930 . S
C198 C196 1.419 . S
C198 C199 1.362 . S
C199 H189 0.930 . S
C199 C192 1.409 . S
C199 C198 1.362 . S
H200 C206 0.930 . S
H201 C209 0.930 . S
H202 C210 0.930 . S
H203 C211 0.930 . S
H204 C214 0.930 . S
H205 C215 0.930 . S
C206 H200 0.930 . S
C206 C207 1.355 . S
C206 C208 1.415 . S
C207 C206 1.355 . S
C207 C209 1.419 1_556 S
C208 C206 1.415 . S
C208 C213 1.425 1_556 S
C208 C215 1.409 . S
C209 H201 0.930 . S
C209 C207 1.419 1_554 S
C209 C210 1.362 . S
C210 H202 0.930 . S
C210 C209 1.362 . S
C210 C213 1.409 . S
C211 H203 0.930 . S
C211 C212 1.355 . S
C211 C213 1.415 . S
C212 C211 1.355 . S
C212 C214 1.419 1_554 S
C213 C208 1.425 1_554 S
C213 C210 1.409 . S
C213 C211 1.415 . S
C214 H204 0.930 . S
C214 C212 1.419 1_556 S
C214 C215 1.362 . S
C215 H205 0.930 . S
C215 C208 1.409 . S
C215 C214 1.362 . S
H216 C222 0.930 . S
H217 C225 0.930 . S
H218 C226 0.930 . S
H219 C227 0.930 . S
H220 C230 0.930 . S
H221 C231 0.930 . S
C222 H216 0.930 . S
C222 C223 1.355 . S
C222 C224 1.415 . S
C223 C222 1.355 . S
C223 C225 1.419 . S
C224 C222 1.415 . S
C224 C229 1.425 . S
C224 C231 1.409 . S
C225 H217 0.930 . S
C225 C223 1.419 . S
C225 C226 1.362 . S
C226 H218 0.930 . S
C226 C225 1.362 . S
C226 C229 1.409 . S
C227 H219 0.930 . S
C227 C228 1.355 . S
C227 C229 1.415 . S
C228 C227 1.355 . S
C228 C230 1.419 . S
C229 C224 1.425 . S
C229 C226 1.409 . S
C229 C227 1.415 . S
C230 H220 0.930 . S
C230 C228 1.419 . S
C230 C231 1.362 . S
C231 H221 0.930 . S
C231 C224 1.409 . S
C231 C230 1.362 . S
H232 C238 0.930 . S
H233 C241 0.930 . S
H234 C242 0.930 . S
H235 C243 0.930 . S
H236 C246 0.930 . S
H237 C247 0.930 . S
C238 H232 0.930 . S
C238 C239 1.355 . S
C238 C240 1.415 . S
C239 C238 1.355 . S
C239 C241 1.419 . S
C240 C238 1.415 . S
C240 C245 1.425 . S
C240 C247 1.409 . S
C241 H233 0.930 . S
C241 C239 1.419 . S
C241 C242 1.362 . S
C242 H234 0.930 . S
C242 C241 1.362 . S
C242 C245 1.409 . S
C243 H235 0.930 . S
C243 C244 1.355 . S
C243 C245 1.415 . S
C244 C243 1.355 . S
C244 C246 1.419 . S
C245 C240 1.425 . S
C245 C242 1.409 . S
C245 C243 1.415 . S
C246 H236 0.930 . S
C246 C244 1.419 . S
C246 C247 1.362 . S
C247 H237 0.930 . S
C247 C240 1.409 . S
C247 C246 1.362 . S
H248 C254 0.930 . S
H249 C257 0.930 . S
H250 C258 0.930 . S
H251 C259 0.930 . S
H252 C262 0.930 . S
H253 C263 0.930 . S
C254 H248 0.930 . S
C254 C255 1.355 1_556 S
C254 C256 1.415 . S
C255 C254 1.355 1_554 S
C255 C257 1.419 . S
C256 C254 1.415 . S
C256 C261 1.425 1_556 S
C256 C263 1.409 . S
C257 H249 0.930 . S
C257 C255 1.419 . S
C257 C258 1.362 . S
C258 H250 0.930 . S
C258 C257 1.362 . S
C258 C261 1.409 . S
C259 H251 0.930 . S
C259 C260 1.355 1_554 S
C259 C261 1.415 . S
C260 C259 1.355 1_556 S
C260 C262 1.419 . S
C261 C256 1.425 1_554 S
C261 C258 1.409 . S
C261 C259 1.415 . S
C262 H252 0.930 . S
C262 C260 1.419 . S
C262 C263 1.362 . S
C263 H253 0.930 . S
C263 C256 1.409 . S
C263 C262 1.362 . S
H264 C270 0.930 . S
H265 C273 0.930 . S
H266 C274 0.930 . S
H267 C275 0.930 . S
H268 C278 0.930 . S
H269 C279 0.930 . S
C270 H264 0.930 . S
C270 C271 1.355 . S
C270 C272 1.415 . S
C271 C270 1.355 . S
C271 C273 1.419 . S
C272 C270 1.415 . S
C272 C277 1.425 . S
C272 C279 1.409 . S
C273 H265 0.930 . S
C273 C271 1.419 . S
C273 C274 1.362 . S
C274 H266 0.930 . S
C274 C273 1.362 . S
C274 C277 1.409 . S
C275 H267 0.930 . S
C275 C276 1.355 . S
C275 C277 1.415 . S
C276 C275 1.355 . S
C276 C278 1.419 . S
C277 C272 1.425 . S
C277 C274 1.409 . S
C277 C275 1.415 . S
C278 H268 0.930 . S
C278 C276 1.419 . S
C278 C279 1.362 . S
C279 H269 0.930 . S
C279 C272 1.409 . S
C279 C278 1.362 . S
H280 C286 0.930 . S
H281 C289 0.930 . S
H282 C290 0.930 . S
H283 C291 0.930 . S
H284 C294 0.930 . S
H285 C295 0.930 . S
C286 H280 0.930 . S
C286 C287 1.355 . S
C286 C288 1.415 . S
C287 C286 1.355 . S
C287 C289 1.419 . S
C288 C286 1.415 . S
C288 C293 1.425 1_655 S
C288 C295 1.409 1_655 S
C289 H281 0.930 . S
C289 C287 1.419 . S
C289 C290 1.362 . S
C290 H282 0.930 . S
C290 C289 1.362 . S
C290 C293 1.409 1_655 S
C291 H283 0.930 . S
C291 C292 1.355 . S
C291 C293 1.415 . S
C292 C291 1.355 . S
C292 C294 1.419 . S
C293 C288 1.425 1_455 S
C293 C290 1.409 1_455 S
C293 C291 1.415 . S
C294 H284 0.930 . S
C294 C292 1.419 . S
C294 C295 1.362 . S
C295 H285 0.930 . S
C295 C288 1.409 1_455 S
C295 C294 1.362 . S
H296 C302 0.930 . S
H297 C305 0.930 . S
H298 C306 0.930 . S
H299 C307 0.930 . S
H300 C310 0.930 . S
H301 C311 0.930 . S
C302 H296 0.930 . S
C302 C303 1.355 . S
C302 C304 1.415 . S
C303 C302 1.355 . S
C303 C305 1.419 1_554 S
C304 C302 1.415 . S
C304 C309 1.425 1_544 S
C304 C311 1.409 1_545 S
C305 H297 0.930 . S
C305 C303 1.419 1_556 S
C305 C306 1.362 . S
C306 H298 0.930 . S
C306 C305 1.362 . S
C306 C309 1.409 1_545 S
C307 H299 0.930 . S
C307 C308 1.355 . S
C307 C309 1.415 . S
C308 C307 1.355 . S
C308 C310 1.419 1_556 S
C309 C304 1.425 1_566 S
C309 C306 1.409 1_565 S
C309 C307 1.415 . S
C310 H300 0.930 . S
C310 C308 1.419 1_554 S
C310 C311 1.362 . S
C311 H301 0.930 . S
C311 C304 1.409 1_565 S
C311 C310 1.362 . S
H312 C318 0.930 . S
H313 C321 0.930 . S
H314 C322 0.930 . S
H315 C323 0.930 . S
H316 C326 0.930 . S
H317 C327 0.930 . S
C318 H312 0.930 . S
C318 C319 1.355 . S
C318 C320 1.415 . S
C319 C318 1.355 . S
C319 C321 1.419 . S
C320 C318 1.415 . S
C320 C325 1.425 . S
C320 C327 1.409 . S
C321 H313 0.930 . S
C321 C319 1.419 . S
C321 C322 1.362 . S
C322 H314 0.930 . S
C322 C321 1.362 . S
C322 C325 1.409 . S
C323 H315 0.930 . S
C323 C324 1.355 . S
C323 C325 1.415 . S
C324 C323 1.355 . S
C324 C326 1.419 . S
C325 C320 1.425 . S
C325 C322 1.409 . S
C325 C323 1.415 . S
C326 H316 0.930 . S
C326 C324 1.419 . S
C326 C327 1.362 . S
C327 H317 0.930 . S
C327 C320 1.409 . S
C327 C326 1.362 . S
H328 C334 0.930 . S
H329 C337 0.930 . S
H330 C338 0.930 . S
H331 C339 0.930 . S
H332 C342 0.930 . S
H333 C343 0.930 . S
C334 H328 0.930 . S
C334 C335 1.355 . S
C334 C336 1.415 . S
C335 C334 1.355 . S
C335 C337 1.419 . S
C336 C334 1.415 . S
C336 C341 1.425 1_455 S
C336 C343 1.409 1_455 S
C337 H329 0.930 . S
C337 C335 1.419 . S
C337 C338 1.362 . S
C338 H330 0.930 . S
C338 C337 1.362 . S
C338 C341 1.409 1_455 S
C339 H331 0.930 . S
C339 C340 1.355 . S
C339 C341 1.415 . S
C340 C339 1.355 . S
C340 C342 1.419 . S
C341 C336 1.425 1_655 S
C341 C338 1.409 1_655 S
C341 C339 1.415 . S
C342 H332 0.930 . S
C342 C340 1.419 . S
C342 C343 1.362 . S
C343 H333 0.930 . S
C343 C336 1.409 1_655 S
C343 C342 1.362 . S
H344 C350 0.930 . S
H345 C353 0.930 . S
H346 C354 0.930 . S
H347 C355 0.930 . S
H348 C358 0.930 . S
H349 C359 0.930 . S
C350 H344 0.930 . S
C350 C351 1.355 1_554 S
C350 C352 1.415 . S
C351 C350 1.355 1_556 S
C351 C353 1.419 . S
C352 C350 1.415 . S
C352 C357 1.425 1_544 S
C352 C359 1.409 1_545 S
C353 H345 0.930 . S
C353 C351 1.419 . S
C353 C354 1.362 . S
C354 H346 0.930 . S
C354 C353 1.362 . S
C354 C357 1.409 1_545 S
C355 H347 0.930 . S
C355 C356 1.355 1_556 S
C355 C357 1.415 . S
C356 C355 1.355 1_554 S
C356 C358 1.419 . S
C357 C352 1.425 1_566 S
C357 C354 1.409 1_565 S
C357 C355 1.415 . S
C358 H348 0.930 . S
C358 C356 1.419 . S
C358 C359 1.362 . S
C359 H349 0.930 . S
C359 C352 1.409 1_565 S
C359 C358 1.362 . S
H360 C366 0.930 . S
H361 C369 0.930 . S
H362 C370 0.930 . S
H363 C371 0.930 . S
H364 C374 0.930 . S
H365 C375 0.930 . S
C366 H360 0.930 . S
C366 C367 1.355 1_455 S
C366 C368 1.415 . S
C367 C366 1.355 1_655 S
C367 C369 1.419 . S
C368 C366 1.415 . S
C368 C373 1.425 1_455 S
C368 C375 1.409 . S
C369 H361 0.930 . S
C369 C367 1.419 . S
C369 C370 1.362 . S
C370 H362 0.930 . S
C370 C369 1.362 . S
C370 C373 1.409 . S
C371 H363 0.930 . S
C371 C372 1.355 1_655 S
C371 C373 1.415 . S
C372 C371 1.355 1_455 S
C372 C374 1.419 . S
C373 C368 1.425 1_655 S
C373 C370 1.409 . S
C373 C371 1.415 . S
C374 H364 0.930 . S
C374 C372 1.419 . S
C374 C375 1.362 . S
C375 H365 0.930 . S
C375 C368 1.409 . S
C375 C374 1.362 . S
H376 C382 0.930 . S
H377 C385 0.930 . S
H378 C386 0.930 . S
H379 C387 0.930 . S
H380 C390 0.930 . S
H381 C391 0.930 . S
C382 H376 0.930 . S
C382 C383 1.355 . S
C382 C384 1.415 . S
C383 C382 1.355 . S
C383 C385 1.419 1_545 S
C384 C382 1.415 . S
C384 C389 1.425 1_545 S
C384 C391 1.409 . S
C385 H377 0.930 . S
C385 C383 1.419 1_565 S
C385 C386 1.362 . S
C386 H378 0.930 . S
C386 C385 1.362 . S
C386 C389 1.409 . S
C387 H379 0.930 . S
C387 C388 1.355 . S
C387 C389 1.415 . S
C388 C387 1.355 . S
C388 C390 1.419 1_565 S
C389 C384 1.425 1_565 S
C389 C386 1.409 . S
C389 C387 1.415 . S
C390 H380 0.930 . S
C390 C388 1.419 1_545 S
C390 C391 1.362 . S
C391 H381 0.930 . S
C391 C384 1.409 . S
C391 C390 1.362 . S
H392 C398 0.930 . S
H393 C401 0.930 . S
H394 C402 0.930 . S
H395 C403 0.930 . S
H396 C406 0.930 . S
H397 C407 0.930 . S
C398 H392 0.930 . S
C398 C399 1.355 . S
C398 C400 1.415 . S
C399 C398 1.355 . S
C399 C401 1.419 . S
C400 C398 1.415 . S
C400 C405 1.425 . S
C400 C407 1.409 . S
C401 H393 0.930 . S
C401 C399 1.419 . S
C401 C402 1.362 . S
C402 H394 0.930 . S
C402 C401 1.362 . S
C402 C405 1.409 . S
C403 H395 0.930 . S
C403 C404 1.355 . S
C403 C405 1.415 . S
C404 C403 1.355 . S
C404 C406 1.419 . S
C405 C400 1.425 . S
C405 C402 1.409 . S
C405 C403 1.415 . S
C406 H396 0.930 . S
C406 C404 1.419 . S
C406 C407 1.362 . S
C407 H397 0.930 . S
C407 C400 1.409 . S
C407 C406 1.362 . S
H408 C414 0.930 . S
H409 C417 0.930 . S
H410 C418 0.930 . S
H411 C419 0.930 . S
H412 C422 0.930 . S
H413 C423 0.930 . S
C414 H408 0.930 . S
C414 C415 1.355 . S
C414 C416 1.415 . S
C415 C414 1.355 . S
C415 C417 1.419 . S
C416 C414 1.415 . S
C416 C421 1.425 1_455 S
C416 C423 1.409 . S
C417 H409 0.930 . S
C417 C415 1.419 . S
C417 C418 1.362 1_455 S
C418 H410 0.930 . S
C418 C417 1.362 1_655 S
C418 C421 1.409 . S
C419 H411 0.930 . S
C419 C420 1.355 . S
C419 C421 1.415 . S
C420 C419 1.355 . S
C420 C422 1.419 . S
C421 C416 1.425 1_655 S
C421 C418 1.409 . S
C421 C419 1.415 . S
C422 H412 0.930 . S
C422 C420 1.419 . S
C422 C423 1.362 1_655 S
C423 H413 0.930 . S
C423 C416 1.409 . S
C423 C422 1.362 1_455 S
H424 C430 0.930 . S
H425 C433 0.930 . S
H426 C434 0.930 . S
H427 C435 0.930 . S
H428 C438 0.930 . S
H429 C439 0.930 . S
C430 H424 0.930 . S
C430 C431 1.355 1_565 S
C430 C432 1.415 . S
C431 C430 1.355 1_545 S
C431 C433 1.419 . S
C432 C430 1.415 . S
C432 C437 1.425 1_565 S
C432 C439 1.409 . S
C433 H425 0.930 . S
C433 C431 1.419 . S
C433 C434 1.362 . S
C434 H426 0.930 . S
C434 C433 1.362 . S
C434 C437 1.409 . S
C435 H427 0.930 . S
C435 C436 1.355 1_545 S
C435 C437 1.415 . S
C436 C435 1.355 1_565 S
C436 C438 1.419 . S
C437 C432 1.425 1_545 S
C437 C434 1.409 . S
C437 C435 1.415 . S
C438 H428 0.930 . S
C438 C436 1.419 . S
C438 C439 1.362 . S
C439 H429 0.930 . S
C439 C432 1.409 . S
C439 C438 1.362 . S
H440 C446 0.930 . S
H441 C449 0.930 . S
H442 C450 0.930 . S
H443 C451 0.930 . S
H444 C454 0.930 . S
H445 C455 0.930 . S
C446 H440 0.930 . S
C446 C447 1.355 . S
C446 C448 1.415 . S
C447 C446 1.355 . S
C447 C449 1.419 . S
C448 C446 1.415 . S
C448 C453 1.425 . S
C448 C455 1.409 . S
C449 H441 0.930 . S
C449 C447 1.419 . S
C449 C450 1.362 . S
C450 H442 0.930 . S
C450 C449 1.362 . S
C450 C453 1.409 . S
C451 H443 0.930 . S
C451 C452 1.355 . S
C451 C453 1.415 . S
C452 C451 1.355 . S
C452 C454 1.419 . S
C453 C448 1.425 . S
C453 C450 1.409 . S
C453 C451 1.415 . S
C454 H444 0.930 . S
C454 C452 1.419 . S
C454 C455 1.362 . S
C455 H445 0.930 . S
C455 C448 1.409 . S
C455 C454 1.362 . S
H456 C462 0.930 . S
H457 C465 0.930 . S
H458 C466 0.930 . S
H459 C467 0.930 . S
H460 C470 0.930 . S
H461 C471 0.930 . S
C462 H456 0.930 . S
C462 C463 1.355 . S
C462 C464 1.415 . S
C463 C462 1.355 . S
C463 C465 1.419 . S
C464 C462 1.415 . S
C464 C469 1.425 . S
C464 C471 1.409 . S
C465 H457 0.930 . S
C465 C463 1.419 . S
C465 C466 1.362 . S
C466 H458 0.930 . S
C466 C465 1.362 . S
C466 C469 1.409 . S
C467 H459 0.930 . S
C467 C468 1.355 . S
C467 C469 1.415 . S
C468 C467 1.355 . S
C468 C470 1.419 . S
C469 C464 1.425 . S
C469 C466 1.409 . S
C469 C467 1.415 . S
C470 H460 0.930 . S
C470 C468 1.419 . S
C470 C471 1.362 . S
C471 H461 0.930 . S
C471 C464 1.409 . S
C471 C470 1.362 . S
H472 C478 0.930 . S
H473 C481 0.930 . S
H474 C482 0.930 . S
H475 C483 0.930 . S
H476 C486 0.930 . S
H477 C487 0.930 . S
C478 H472 0.930 . S
C478 C479 1.355 . S
C478 C480 1.415 . S
C479 C478 1.355 . S
C479 C481 1.419 . S
C480 C478 1.415 . S
C480 C485 1.425 . S
C480 C487 1.409 . S
C481 H473 0.930 . S
C481 C479 1.419 . S
C481 C482 1.362 . S
C482 H474 0.930 . S
C482 C481 1.362 . S
C482 C485 1.409 . S
C483 H475 0.930 . S
C483 C484 1.355 . S
C483 C485 1.415 . S
C484 C483 1.355 . S
C484 C486 1.419 . S
C485 C480 1.425 . S
C485 C482 1.409 . S
C485 C483 1.415 . S
C486 H476 0.930 . S
C486 C484 1.419 . S
C486 C487 1.362 . S
C487 H477 0.930 . S
C487 C480 1.409 . S
C487 C486 1.362 . S
H488 C494 0.930 . S
H489 C497 0.930 . S
H490 C498 0.930 . S
H491 C499 0.930 . S
H492 C502 0.930 . S
H493 C503 0.930 . S
C494 H488 0.930 . S
C494 C495 1.355 . S
C494 C496 1.415 . S
C495 C494 1.355 . S
C495 C497 1.419 . S
C496 C494 1.415 . S
C496 C501 1.425 . S
C496 C503 1.409 . S
C497 H489 0.930 . S
C497 C495 1.419 . S
C497 C498 1.362 . S
C498 H490 0.930 . S
C498 C497 1.362 . S
C498 C501 1.409 . S
C499 H491 0.930 . S
C499 C500 1.355 . S
C499 C501 1.415 . S
C500 C499 1.355 . S
C500 C502 1.419 . S
C501 C496 1.425 . S
C501 C498 1.409 . S
C501 C499 1.415 . S
C502 H492 0.930 . S
C502 C500 1.419 . S
C502 C503 1.362 . S
C503 H493 0.930 . S
C503 C496 1.409 . S
C503 C502 1.362 . S
H504 C510 0.930 . S
H505 C513 0.930 . S
H506 C514 0.930 . S
H507 C515 0.930 . S
H508 C518 0.930 . S
H509 C519 0.930 . S
C510 H504 0.930 . S
C510 C511 1.355 . S
C510 C512 1.415 . S
C511 C510 1.355 . S
C511 C513 1.419 . S
C512 C510 1.415 . S
C512 C517 1.425 . S
C512 C519 1.409 . S
C513 H505 0.930 . S
C513 C511 1.419 . S
C513 C514 1.362 . S
C514 H506 0.930 . S
C514 C513 1.362 . S
C514 C517 1.409 . S
C515 H507 0.930 . S
C515 C516 1.355 . S
C515 C517 1.415 . S
C516 C515 1.355 . S
C516 C518 1.419 . S
C517 C512 1.425 . S
C517 C514 1.409 . S
C517 C515 1.415 . S
C518 H508 0.930 . S
C518 C516 1.419 . S
C518 C519 1.362 . S
C519 H509 0.930 . S
C519 C512 1.409 . S
C519 C518 1.362 . S
H520 C526 0.930 . S
H521 C529 0.930 . S
H522 C530 0.930 . S
H523 C531 0.930 . S
H524 C534 0.930 . S
H525 C535 0.930 . S
C526 H520 0.930 . S
C526 C527 1.355 . S
C526 C528 1.415 . S
C527 C526 1.355 . S
C527 C529 1.419 . S
C528 C526 1.415 . S
C528 C533 1.425 . S
C528 C535 1.409 . S
C529 H521 0.930 . S
C529 C527 1.419 . S
C529 C530 1.362 . S
C530 H522 0.930 . S
C530 C529 1.362 . S
C530 C533 1.409 . S
C531 H523 0.930 . S
C531 C532 1.355 . S
C531 C533 1.415 . S
C532 C531 1.355 . S
C532 C534 1.419 . S
C533 C528 1.425 . S
C533 C530 1.409 . S
C533 C531 1.415 . S
C534 H524 0.930 . S
C534 C532 1.419 . S
C534 C535 1.362 . S
C535 H525 0.930 . S
C535 C528 1.409 . S
C535 C534 1.362 . S
H536 C542 0.930 . S
H537 C545 0.930 . S
H538 C546 0.930 . S
H539 C547 0.930 . S
H540 C550 0.930 . S
H541 C551 0.930 . S
C542 H536 0.930 . S
C542 C543 1.355 . S
C542 C544 1.415 . S
C543 C542 1.355 . S
C543 C545 1.419 . S
C544 C542 1.415 . S
C544 C549 1.425 . S
C544 C551 1.409 . S
C545 H537 0.930 . S
C545 C543 1.419 . S
C545 C546 1.362 . S
C546 H538 0.930 . S
C546 C545 1.362 . S
C546 C549 1.409 . S
C547 H539 0.930 . S
C547 C548 1.355 . S
C547 C549 1.415 . S
C548 C547 1.355 . S
C548 C550 1.419 . S
C549 C544 1.425 . S
C549 C546 1.409 . S
C549 C547 1.415 . S
C550 H540 0.930 . S
C550 C548 1.419 . S
C550 C551 1.362 . S
C551 H541 0.930 . S
C551 C544 1.409 . S
C551 C550 1.362 . S
C175 C3 1.584 . S
C180 C87 1.607 . S
C191 C17 1.597 . S
C196 C101 1.598 . S
C207 C31 1.509 . S
C212 C115 1.514 . S
C223 C129 1.610 . S
C228 C45 1.573 . S
C239 C59 1.611 . S
C244 C143 1.574 . S
C255 C157 1.539 . S
C260 C73 1.504 . S
C271 C7 1.038 . S
C276 C133 1.137 . S
C287 C21 1.045 . S
C292 C147 1.118 . S
C303 C161 1.059 . S
C308 C35 0.993 . S
C319 C91 1.043 . S
C324 C49 1.128 . S
C335 C63 1.092 . S
C340 C105 1.054 . S
C351 C77 1.124 . S
C356 C119 1.044 . S
C367 C162 1.694 . S
C372 C8 1.682 . S
C383 C22 1.883 . S
C388 C92 1.880 . S
C399 C36 1.692 . S
C404 C106 1.683 . S
C415 C120 1.714 . S
C420 C50 1.699 . S
C431 C134 1.846 . S
C436 C64 1.844 . S
C447 C78 1.706 . S
C452 C148 1.704 . S
C463 C9 0.981 . S
C468 C149 0.998 . S
C479 C163 1.107 . S
C484 C23 1.135 . S
C495 C93 1.209 . S
C500 C37 1.230 . S
C511 C51 0.973 . S
C516 C107 0.972 . S
C527 C121 1.105 . S
C532 C65 1.099 . S
C543 C135 1.154 . S
C548 C79 1.181 . S
