# Generated by pormake.
# Topology dei, (4)-cn, num edge types: 1
# Building blocks:
#     Node 0, Type 0, BuildingBlock: AZAVOO_clean_sbu_0, # of connection points: 4
#     Node 1, Type 0, BuildingBlock: AZAVOO_clean_sbu_0, # of connection points: 4
#     Node 2, Type 0, BuildingBlock: AZAVOO_clean_sbu_0, # of connection points: 4
#     Node 3, Type 0, BuildingBlock: AZAVOO_clean_sbu_0, # of connection points: 4
#     Node 4, Type 0, BuildingBlock: AZAVOO_clean_sbu_0, # of connection points: 4
#     Node 5, Type 0, BuildingBlock: AZAVOO_clean_sbu_0, # of connection points: 4
#     Node 6, Type 0, BuildingBlock: AZAVOO_clean_sbu_0, # of connection points: 4
#     Node 7, Type 0, BuildingBlock: AZAVOO_clean_sbu_0, # of connection points: 4
#     Node 8, Type 0, BuildingBlock: AZAVOO_clean_sbu_0, # of connection points: 4
#     Node 9, Type 0, BuildingBlock: AZAVOO_clean_sbu_0, # of connection points: 4
#     Node 10, Type 0, BuildingBlock: AZAVOO_clean_sbu_0, # of connection points: 4
#     Node 11, Type 0, BuildingBlock: AZAVOO_clean_sbu_0, # of connection points: 4
#     Node 12, Type 0, BuildingBlock: AZAVOO_clean_sbu_0, # of connection points: 4
#     Node 13, Type 0, BuildingBlock: AZAVOO_clean_sbu_0, # of connection points: 4
#     Node 14, Type 0, BuildingBlock: AZAVOO_clean_sbu_0, # of connection points: 4
#     Node 15, Type 0, BuildingBlock: AZAVOO_clean_sbu_0, # of connection points: 4
#     Node 16, Type 0, BuildingBlock: AZAVOO_clean_sbu_0, # of connection points: 4
#     Node 17, Type 0, BuildingBlock: AZAVOO_clean_sbu_0, # of connection points: 4
#     Node 18, Type 0, BuildingBlock: AZAVOO_clean_sbu_0, # of connection points: 4
#     Node 19, Type 0, BuildingBlock: AZAVOO_clean_sbu_0, # of connection points: 4
#     Node 20, Type 0, BuildingBlock: AZAVOO_clean_sbu_0, # of connection points: 4
#     Node 21, Type 0, BuildingBlock: AZAVOO_clean_sbu_0, # of connection points: 4
#     Node 22, Type 0, BuildingBlock: AZAVOO_clean_sbu_0, # of connection points: 4
#     Node 23, Type 0, BuildingBlock: AZAVOO_clean_sbu_0, # of connection points: 4
#     Node 24, Type 0, BuildingBlock: AZAVOO_clean_sbu_0, # of connection points: 4
#     Node 25, Type 0, BuildingBlock: AZAVOO_clean_sbu_0, # of connection points: 4
#     Node 26, Type 0, BuildingBlock: AZAVOO_clean_sbu_0, # of connection points: 4
#     Node 27, Type 0, BuildingBlock: AZAVOO_clean_sbu_0, # of connection points: 4
#     Node 28, Type 0, BuildingBlock: AZAVOO_clean_sbu_0, # of connection points: 4
#     Node 29, Type 0, BuildingBlock: AZAVOO_clean_sbu_0, # of connection points: 4
#     Node 30, Type 0, BuildingBlock: AZAVOO_clean_sbu_0, # of connection points: 4
#     Node 31, Type 0, BuildingBlock: AZAVOO_clean_sbu_0, # of connection points: 4
#     Edge 32, Type (0, 0), BuildingBlock: CIFDUS_clean_linker_0, # of connection points: 2
#     Edge 33, Type (0, 0), BuildingBlock: CIFDUS_clean_linker_0, # of connection points: 2
#     Edge 34, Type (0, 0), BuildingBlock: CIFDUS_clean_linker_0, # of connection points: 2
#     Edge 35, Type (0, 0), BuildingBlock: CIFDUS_clean_linker_0, # of connection points: 2
#     Edge 36, Type (0, 0), BuildingBlock: CIFDUS_clean_linker_0, # of connection points: 2
#     Edge 37, Type (0, 0), BuildingBlock: CIFDUS_clean_linker_0, # of connection points: 2
#     Edge 38, Type (0, 0), BuildingBlock: CIFDUS_clean_linker_0, # of connection points: 2
#     Edge 39, Type (0, 0), BuildingBlock: CIFDUS_clean_linker_0, # of connection points: 2
#     Edge 40, Type (0, 0), BuildingBlock: CIFDUS_clean_linker_0, # of connection points: 2
#     Edge 41, Type (0, 0), BuildingBlock: CIFDUS_clean_linker_0, # of connection points: 2
#     Edge 42, Type (0, 0), BuildingBlock: CIFDUS_clean_linker_0, # of connection points: 2
#     Edge 43, Type (0, 0), BuildingBlock: CIFDUS_clean_linker_0, # of connection points: 2
#     Edge 44, Type (0, 0), BuildingBlock: CIFDUS_clean_linker_0, # of connection points: 2
#     Edge 45, Type (0, 0), BuildingBlock: CIFDUS_clean_linker_0, # of connection points: 2
#     Edge 46, Type (0, 0), BuildingBlock: CIFDUS_clean_linker_0, # of connection points: 2
#     Edge 47, Type (0, 0), BuildingBlock: CIFDUS_clean_linker_0, # of connection points: 2
#     Edge 48, Type (0, 0), BuildingBlock: CIFDUS_clean_linker_0, # of connection points: 2
#     Edge 49, Type (0, 0), BuildingBlock: CIFDUS_clean_linker_0, # of connection points: 2
#     Edge 50, Type (0, 0), BuildingBlock: CIFDUS_clean_linker_0, # of connection points: 2
#     Edge 51, Type (0, 0), BuildingBlock: CIFDUS_clean_linker_0, # of connection points: 2
#     Edge 52, Type (0, 0), BuildingBlock: CIFDUS_clean_linker_0, # of connection points: 2
#     Edge 53, Type (0, 0), BuildingBlock: CIFDUS_clean_linker_0, # of connection points: 2
#     Edge 54, Type (0, 0), BuildingBlock: CIFDUS_clean_linker_0, # of connection points: 2
#     Edge 55, Type (0, 0), BuildingBlock: CIFDUS_clean_linker_0, # of connection points: 2
#     Edge 56, Type (0, 0), BuildingBlock: CIFDUS_clean_linker_0, # of connection points: 2
#     Edge 57, Type (0, 0), BuildingBlock: CIFDUS_clean_linker_0, # of connection points: 2
#     Edge 58, Type (0, 0), BuildingBlock: CIFDUS_clean_linker_0, # of connection points: 2
#     Edge 59, Type (0, 0), BuildingBlock: CIFDUS_clean_linker_0, # of connection points: 2
#     Edge 60, Type (0, 0), BuildingBlock: CIFDUS_clean_linker_0, # of connection points: 2
#     Edge 61, Type (0, 0), BuildingBlock: CIFDUS_clean_linker_0, # of connection points: 2
#     Edge 62, Type (0, 0), BuildingBlock: CIFDUS_clean_linker_0, # of connection points: 2
#     Edge 63, Type (0, 0), BuildingBlock: CIFDUS_clean_linker_0, # of connection points: 2
#     Edge 64, Type (0, 0), BuildingBlock: CIFDUS_clean_linker_0, # of connection points: 2
#     Edge 65, Type (0, 0), BuildingBlock: CIFDUS_clean_linker_0, # of connection points: 2
#     Edge 66, Type (0, 0), BuildingBlock: CIFDUS_clean_linker_0, # of connection points: 2
#     Edge 67, Type (0, 0), BuildingBlock: CIFDUS_clean_linker_0, # of connection points: 2
#     Edge 68, Type (0, 0), BuildingBlock: CIFDUS_clean_linker_0, # of connection points: 2
#     Edge 69, Type (0, 0), BuildingBlock: CIFDUS_clean_linker_0, # of connection points: 2
#     Edge 70, Type (0, 0), BuildingBlock: CIFDUS_clean_linker_0, # of connection points: 2
#     Edge 71, Type (0, 0), BuildingBlock: CIFDUS_clean_linker_0, # of connection points: 2
#     Edge 72, Type (0, 0), BuildingBlock: CIFDUS_clean_linker_0, # of connection points: 2
#     Edge 73, Type (0, 0), BuildingBlock: CIFDUS_clean_linker_0, # of connection points: 2
#     Edge 74, Type (0, 0), BuildingBlock: CIFDUS_clean_linker_0, # of connection points: 2
#     Edge 75, Type (0, 0), BuildingBlock: CIFDUS_clean_linker_0, # of connection points: 2
#     Edge 76, Type (0, 0), BuildingBlock: CIFDUS_clean_linker_0, # of connection points: 2
#     Edge 77, Type (0, 0), BuildingBlock: CIFDUS_clean_linker_0, # of connection points: 2
#     Edge 78, Type (0, 0), BuildingBlock: CIFDUS_clean_linker_0, # of connection points: 2
#     Edge 79, Type (0, 0), BuildingBlock: CIFDUS_clean_linker_0, # of connection points: 2
#     Edge 80, Type (0, 0), BuildingBlock: CIFDUS_clean_linker_0, # of connection points: 2
#     Edge 81, Type (0, 0), BuildingBlock: CIFDUS_clean_linker_0, # of connection points: 2
#     Edge 82, Type (0, 0), BuildingBlock: CIFDUS_clean_linker_0, # of connection points: 2
#     Edge 83, Type (0, 0), BuildingBlock: CIFDUS_clean_linker_0, # of connection points: 2
#     Edge 84, Type (0, 0), BuildingBlock: CIFDUS_clean_linker_0, # of connection points: 2
#     Edge 85, Type (0, 0), BuildingBlock: CIFDUS_clean_linker_0, # of connection points: 2
#     Edge 86, Type (0, 0), BuildingBlock: CIFDUS_clean_linker_0, # of connection points: 2
#     Edge 87, Type (0, 0), BuildingBlock: CIFDUS_clean_linker_0, # of connection points: 2
#     Edge 88, Type (0, 0), BuildingBlock: CIFDUS_clean_linker_0, # of connection points: 2
#     Edge 89, Type (0, 0), BuildingBlock: CIFDUS_clean_linker_0, # of connection points: 2
#     Edge 90, Type (0, 0), BuildingBlock: CIFDUS_clean_linker_0, # of connection points: 2
#     Edge 91, Type (0, 0), BuildingBlock: CIFDUS_clean_linker_0, # of connection points: 2
#     Edge 92, Type (0, 0), BuildingBlock: CIFDUS_clean_linker_0, # of connection points: 2
#     Edge 93, Type (0, 0), BuildingBlock: CIFDUS_clean_linker_0, # of connection points: 2
#     Edge 94, Type (0, 0), BuildingBlock: CIFDUS_clean_linker_0, # of connection points: 2
#     Edge 95, Type (0, 0), BuildingBlock: CIFDUS_clean_linker_0, # of connection points: 2
# Relax obj value: 0.222
# Max RMSD: 0.110
# Mean RMSD: 0.110
data_MOF--net-dei--node1-AZAVOO_clean_sbu_0--edge1-CIFDUS_clean_linker_0
_symmetry_space_group_name_H-M    P1
_symmetry_Int_Tables_number       1
_symmetry_cell_setting            triclinic
loop_
_symmetry_equiv_pos_as_xyz
'x, y, z'
_cell_length_a     44.764185
_cell_length_b     44.939444
_cell_length_c     92.992146
_cell_angle_alpha  89.881119
_cell_angle_beta   89.989551
_cell_angle_gamma 90.057283
loop_
_atom_site_label
_atom_site_type_symbol
_atom_site_fract_x
_atom_site_fract_y
_atom_site_fract_z
_atom_type_partial_charge
Mg0 Mg 0.14762 0.60039 0.02491 0.0
O1 O 0.09682 0.60561 0.02785 0.0
O2 O 0.09025 0.64488 0.0422 0.0
Mg3 Mg 0.13583 0.66617 0.04724 0.0
C4 C 0.07981 0.62326 0.03483 0.0
C5 C 0.15808 0.55392 0.00332 0.0
O6 O 0.17665 0.57578 0.00047 0.0
O7 O 0.1527 0.58198 0.04813 0.0
O8 O 0.1496 0.62525 0.06006 0.0
O9 O 0.14619 0.63189 0.00588 0.0
O10 O 0.15478 0.64486 0.02838 0.0
C11 C 0.15454 0.5973 0.05972 0.0
C12 C 0.15152 0.65252 0.0152 0.0
O13 O 0.1412 0.55565 0.01427 0.0
Mg14 Mg 0.6302 0.9034 0.27708 0.0
O15 O 0.63233 0.8523 0.27846 0.0
O16 O 0.58917 0.83679 0.28805 0.0
Mg17 Mg 0.56015 0.87739 0.29341 0.0
C18 C 0.6149 0.83158 0.28269 0.0
C19 C 0.68188 0.92151 0.25904 0.0
O20 O 0.66039 0.9403 0.25591 0.0
O21 O 0.64005 0.90716 0.30155 0.0
O22 O 0.5944 0.89483 0.30953 0.0
O23 O 0.60602 0.90123 0.25576 0.0
O24 O 0.58393 0.90231 0.27698 0.0
C25 C 0.62093 0.90425 0.31174 0.0
C26 C 0.58179 0.90008 0.26327 0.0
O27 O 0.67817 0.90343 0.2694 0.0
Mg28 Mg 0.34206 0.37777 0.52595 0.0
O29 O 0.39221 0.36599 0.52857 0.0
O30 O 0.39222 0.32295 0.54072 0.0
Mg31 Mg 0.34451 0.30864 0.54656 0.0
C32 C 0.40605 0.34403 0.53429 0.0
C33 C 0.33647 0.42731 0.50577 0.0
O34 O 0.31876 0.40578 0.50146 0.0
O35 O 0.34041 0.39381 0.54935 0.0
O36 O 0.33879 0.34985 0.56076 0.0
O37 O 0.34043 0.34902 0.50607 0.0
O38 O 0.32951 0.334 0.52808 0.0
C39 C 0.33798 0.37827 0.56083 0.0
C40 C 0.33295 0.32776 0.51472 0.0
O41 O 0.35193 0.42361 0.5171 0.0
Mg42 Mg 0.85067 0.07629 0.77655 0.0
O43 O 0.85416 0.12787 0.7774 0.0
O44 O 0.89933 0.14025 0.78621 0.0
Mg45 Mg 0.92352 0.09838 0.79384 0.0
C46 C 0.87395 0.14717 0.78088 0.0
C47 C 0.80312 0.06606 0.7544 0.0
O48 O 0.8274 0.05318 0.74955 0.0
O49 O 0.83405 0.07387 0.80081 0.0
O50 O 0.88044 0.0864 0.80361 0.0
O51 O 0.87926 0.07802 0.75632 0.0
O52 O 0.89842 0.07308 0.77794 0.0
C53 C 0.85578 0.07955 0.80924 0.0
C54 C 0.90245 0.076 0.76443 0.0
O55 O 0.80364 0.0781 0.7668 0.0
Mg56 Mg 0.15204 0.37869 0.92491 0.0
O57 O 0.10065 0.37181 0.92386 0.0
O58 O 0.09434 0.33236 0.90951 0.0
Mg59 Mg 0.13907 0.3158 0.90062 0.0
C60 C 0.08388 0.35274 0.91763 0.0
C61 C 0.16754 0.42044 0.94768 0.0
O62 O 0.18673 0.39833 0.94773 0.0
O63 O 0.1528 0.40141 0.90252 0.0
O64 O 0.14866 0.35975 0.88939 0.0
O65 O 0.15594 0.34332 0.94236 0.0
O66 O 0.1605 0.33543 0.91911 0.0
C67 C 0.15294 0.38774 0.89043 0.0
C68 C 0.16071 0.32504 0.93191 0.0
O69 O 0.14757 0.42104 0.93794 0.0
Mg70 Mg 0.84681 0.89876 0.1758 0.0
O71 O 0.85024 0.84742 0.17438 0.0
O72 O 0.88923 0.83927 0.15984 0.0
Mg73 Mg 0.90955 0.88306 0.15172 0.0
C74 C 0.86801 0.82976 0.16784 0.0
C75 C 0.80634 0.91886 0.19792 0.0
O76 O 0.82917 0.93708 0.19661 0.0
O77 O 0.82462 0.90018 0.15324 0.0
O78 O 0.8662 0.89421 0.14005 0.0
O79 O 0.88158 0.90006 0.19354 0.0
O80 O 0.89106 0.90468 0.1704 0.0
C81 C 0.83826 0.89945 0.14111 0.0
C82 C 0.90077 0.9038 0.18333 0.0
O83 O 0.80407 0.89741 0.18904 0.0
Mg84 Mg 0.33435 0.60479 0.42545 0.0
O85 O 0.38459 0.61706 0.42455 0.0
O86 O 0.38695 0.65765 0.41064 0.0
Mg87 Mg 0.3404 0.67027 0.40224 0.0
C88 C 0.39949 0.63794 0.41852 0.0
C89 C 0.33319 0.55912 0.44903 0.0
O90 O 0.31887 0.58204 0.45438 0.0
O91 O 0.33738 0.58471 0.40283 0.0
O92 O 0.33729 0.62665 0.3897 0.0
O93 O 0.32768 0.63743 0.44368 0.0
O94 O 0.32131 0.64761 0.42067 0.0
C95 C 0.33672 0.59831 0.39073 0.0
C96 C 0.32118 0.65646 0.43375 0.0
O97 O 0.34407 0.56086 0.43644 0.0
Mg98 Mg 0.62924 0.08031 0.67337 0.0
O99 O 0.63102 0.13171 0.67114 0.0
O100 O 0.587 0.14412 0.66141 0.0
Mg101 Mg 0.55849 0.10327 0.65648 0.0
C102 C 0.61238 0.15121 0.66668 0.0
C103 C 0.67876 0.06528 0.69317 0.0
O104 O 0.65446 0.05225 0.69798 0.0
O105 O 0.63916 0.07416 0.64888 0.0
O106 O 0.59337 0.08569 0.64096 0.0
O107 O 0.60456 0.08581 0.69451 0.0
O108 O 0.58278 0.08094 0.67339 0.0
C109 C 0.61988 0.07638 0.63871 0.0
C110 C 0.58049 0.08566 0.68691 0.0
O111 O 0.67769 0.07885 0.68113 0.0
Mg112 Mg 0.83706 0.38515 0.92628 0.0
O113 O 0.88834 0.38075 0.92426 0.0
O114 O 0.89731 0.33775 0.91294 0.0
Mg115 Mg 0.85269 0.31541 0.90729 0.0
C116 C 0.90637 0.36153 0.91907 0.0
C117 C 0.82172 0.43902 0.9435 0.0
O118 O 0.79832 0.42144 0.94452 0.0
O119 O 0.83438 0.39886 0.90241 0.0
O120 O 0.84068 0.35402 0.89226 0.0
O121 O 0.83674 0.35829 0.9468 0.0
O122 O 0.83218 0.3395 0.92497 0.0
C123 C 0.83508 0.38182 0.8914 0.0
C124 C 0.83472 0.33525 0.93857 0.0
O125 O 0.84255 0.4319 0.93489 0.0
Mg126 Mg 0.35926 0.08609 0.6795 0.0
O127 O 0.36951 0.13672 0.67697 0.0
O128 O 0.41186 0.1378 0.66417 0.0
Mg129 Mg 0.42823 0.09095 0.65862 0.0
C130 C 0.39074 0.15109 0.67083 0.0
C131 C 0.30916 0.07894 0.69965 0.0
O132 O 0.33105 0.06202 0.70428 0.0
O133 O 0.34307 0.08438 0.65623 0.0
O134 O 0.3868 0.08338 0.64453 0.0
O135 O 0.38738 0.08426 0.69949 0.0
O136 O 0.40396 0.07594 0.67747 0.0
C137 C 0.35829 0.08199 0.64468 0.0
C138 C 0.40945 0.07894 0.69094 0.0
O139 O 0.31282 0.09409 0.68823 0.0
Mg140 Mg 0.64678 0.59964 0.42661 0.0
O141 O 0.59513 0.60551 0.42639 0.0
O142 O 0.58611 0.64342 0.41139 0.0
Mg143 Mg 0.62961 0.65948 0.40118 0.0
C144 C 0.57708 0.62346 0.42017 0.0
C145 C 0.66949 0.54748 0.44308 0.0
O146 O 0.69303 0.55919 0.43679 0.0
O147 O 0.6454 0.57475 0.40501 0.0
O148 O 0.63578 0.61397 0.39078 0.0
O149 O 0.65225 0.63614 0.44312 0.0
O150 O 0.65395 0.64244 0.4196 0.0
C151 C 0.64094 0.58628 0.39261 0.0
C152 C 0.65558 0.65373 0.43221 0.0
O153 O 0.64385 0.55804 0.4402 0.0
Mg154 Mg 0.12698 0.89256 0.17955 0.0
O155 O 0.12136 0.84287 0.17299 0.0
O156 O 0.08079 0.84297 0.15894 0.0
Mg157 Mg 0.05902 0.88915 0.15775 0.0
C158 C 0.10263 0.82934 0.16488 0.0
C159 C 0.18783 0.91016 0.18992 0.0
O160 O 0.17683 0.9343 0.18395 0.0
O161 O 0.14347 0.90475 0.15659 0.0
O162 O 0.09907 0.90673 0.14546 0.0
O163 O 0.09617 0.88614 0.19891 0.0
O164 O 0.0825 0.90036 0.17723 0.0
C165 C 0.12724 0.91102 0.14562 0.0
C166 C 0.07516 0.89404 0.19016 0.0
O167 O 0.17337 0.88591 0.18877 0.0
Mg168 Mg 0.8372 0.60317 0.02645 0.0
O169 O 0.88756 0.61197 0.03093 0.0
O170 O 0.887 0.64804 0.0475 0.0
Mg171 Mg 0.83951 0.6641 0.05242 0.0
C172 C 0.90114 0.62952 0.03959 0.0
C173 C 0.81907 0.55356 0.0088 0.0
O174 O 0.79557 0.56831 0.01336 0.0
O175 O 0.83357 0.57909 0.04839 0.0
O176 O 0.83049 0.61909 0.06271 0.0
O177 O 0.83598 0.63885 0.00917 0.0
O178 O 0.82594 0.6455 0.03213 0.0
C179 C 0.8294 0.59101 0.06074 0.0
C180 C 0.82855 0.65656 0.0195 0.0
O181 O 0.84468 0.56117 0.01348 0.0
Mg182 Mg 0.12706 0.08625 0.77735 0.0
O183 O 0.12176 0.13733 0.77912 0.0
O184 O 0.08242 0.1444 0.79351 0.0
Mg185 Mg 0.06056 0.09942 0.79912 0.0
C186 C 0.10409 0.15454 0.78599 0.0
C187 C 0.17534 0.07826 0.75555 0.0
O188 O 0.15182 0.06486 0.75015 0.0
O189 O 0.14454 0.08394 0.80053 0.0
O190 O 0.10133 0.08696 0.81265 0.0
O191 O 0.09667 0.08509 0.75803 0.0
O192 O 0.08206 0.07934 0.78055 0.0
C193 C 0.12953 0.08273 0.81223 0.0
C194 C 0.07537 0.08082 0.76717 0.0
O195 O 0.17335 0.09071 0.76777 0.0
Mg196 Mg 0.65302 0.38323 0.52707 0.0
O197 O 0.6018 0.37632 0.52832 0.0
O198 O 0.59478 0.33373 0.54034 0.0
Mg199 Mg 0.64011 0.31337 0.54638 0.0
C200 C 0.58457 0.3565 0.53371 0.0
C201 C 0.66796 0.43656 0.50993 0.0
O202 O 0.69093 0.41845 0.50907 0.0
O203 O 0.65379 0.39731 0.55079 0.0
O204 O 0.65026 0.35259 0.56138 0.0
O205 O 0.65573 0.35652 0.50668 0.0
O206 O 0.65991 0.338 0.52863 0.0
C207 C 0.65414 0.38074 0.56199 0.0
C208 C 0.6584 0.33363 0.51501 0.0
O209 O 0.64676 0.42983 0.51842 0.0
Mg210 Mg 0.35798 0.89206 0.27373 0.0
O211 O 0.3592 0.8409 0.27481 0.0
O212 O 0.39544 0.82854 0.29033 0.0
Mg213 Mg 0.42045 0.87096 0.29707 0.0
C214 C 0.37419 0.82155 0.28182 0.0
C215 C 0.30896 0.90866 0.25275 0.0
O216 O 0.32984 0.92865 0.25037 0.0
O217 O 0.33818 0.89459 0.29665 0.0
O218 O 0.37964 0.88654 0.30959 0.0
O219 O 0.38979 0.89058 0.255 0.0
O220 O 0.40328 0.89296 0.27784 0.0
C221 C 0.3521 0.89358 0.30866 0.0
C222 C 0.41066 0.88967 0.26459 0.0
O223 O 0.31264 0.89011 0.26292 0.0
Mg224 Mg 0.64701 0.10783 0.52401 0.0
O225 O 0.59579 0.11485 0.5278 0.0
O226 O 0.59471 0.15354 0.54297 0.0
Mg227 Mg 0.641 0.17135 0.54848 0.0
C228 C 0.5814 0.13392 0.53536 0.0
C229 C 0.66496 0.0604 0.50453 0.0
O230 O 0.68689 0.0796 0.50612 0.0
O231 O 0.65203 0.08631 0.54658 0.0
O232 O 0.65196 0.12779 0.55992 0.0
O233 O 0.64531 0.14048 0.5056 0.0
O234 O 0.65475 0.15249 0.52814 0.0
C235 C 0.65495 0.0997 0.55864 0.0
C236 C 0.64945 0.16083 0.51518 0.0
O237 O 0.64144 0.06394 0.51204 0.0
Mg238 Mg 0.12078 0.39712 0.77762 0.0
O239 O 0.1148 0.3469 0.78289 0.0
O240 O 0.07246 0.34475 0.79561 0.0
Mg241 Mg 0.04984 0.39056 0.79685 0.0
C242 C 0.09535 0.33221 0.79007 0.0
C243 C 0.17096 0.40395 0.75759 0.0
O244 O 0.14805 0.41893 0.75255 0.0
O245 O 0.13379 0.40758 0.80125 0.0
O246 O 0.08783 0.40761 0.81083 0.0
O247 O 0.09365 0.39194 0.75718 0.0
O248 O 0.07547 0.40482 0.77831 0.0
C249 C 0.11588 0.41244 0.81176 0.0
C250 C 0.071 0.39937 0.76498 0.0
O251 O 0.16837 0.39074 0.76965 0.0
Mg252 Mg 0.83961 0.88401 0.02454 0.0
O253 O 0.89092 0.88133 0.02813 0.0
O254 O 0.89746 0.84053 0.04162 0.0
Mg255 Mg 0.85258 0.81887 0.04745 0.0
C256 C 0.9079 0.86285 0.03469 0.0
C257 C 0.82785 0.92662 0.00131 0.0
O258 O 0.81358 0.90177 -0.00149 0.0
O259 O 0.8331 0.90288 0.04755 0.0
O260 O 0.83805 0.86016 0.05984 0.0
O261 O 0.84345 0.85169 0.00587 0.0
O262 O 0.83416 0.83913 0.02833 0.0
C263 C 0.83205 0.88792 0.05931 0.0
C264 C 0.83839 0.83116 0.01528 0.0
O265 O 0.84235 0.92882 0.01305 0.0
Mg266 Mg 0.35547 0.57665 0.27417 0.0
O267 O 0.35592 0.62788 0.27684 0.0
O268 O 0.39502 0.63769 0.29121 0.0
Mg269 Mg 0.42125 0.59499 0.29593 0.0
C270 C 0.37228 0.64601 0.28395 0.0
C271 C 0.30833 0.56565 0.25217 0.0
O272 O 0.33303 0.55435 0.24689 0.0
O273 O 0.33885 0.57237 0.29757 0.0
O274 O 0.38184 0.57942 0.30945 0.0
O275 O 0.38504 0.57999 0.25452 0.0
O276 O 0.40096 0.57574 0.2769 0.0
C277 C 0.35411 0.57285 0.30922 0.0
C278 C 0.40695 0.57958 0.26353 0.0
O279 O 0.30876 0.57715 0.26465 0.0
Mg280 Mg 0.64542 0.8797 0.42733 0.0
O281 O 0.59624 0.86612 0.42325 0.0
O282 O 0.59839 0.8244 0.41023 0.0
Mg283 Mg 0.64704 0.8118 0.40556 0.0
C284 C 0.58346 0.84452 0.41674 0.0
C285 C 0.65391 0.93634 0.44337 0.0
O286 O 0.68068 0.92527 0.44114 0.0
O287 O 0.64938 0.89787 0.40397 0.0
O288 O 0.65382 0.85419 0.39251 0.0
O289 O 0.64681 0.84879 0.44661 0.0
O290 O 0.65984 0.83654 0.42456 0.0
C291 C 0.65407 0.88258 0.39255 0.0
C292 C 0.65554 0.82864 0.43765 0.0
O293 O 0.63165 0.92359 0.43752 0.0
Mg294 Mg 0.35135 0.39778 0.6785 0.0
O295 O 0.35731 0.34633 0.67758 0.0
O296 O 0.39918 0.3391 0.66489 0.0
Mg297 Mg 0.42014 0.38356 0.65814 0.0
C298 C 0.37675 0.32903 0.6719 0.0
C299 C 0.30226 0.40574 0.70008 0.0
O300 O 0.32567 0.41917 0.70555 0.0
O301 O 0.3356 0.39751 0.65491 0.0
O302 O 0.37984 0.39309 0.64379 0.0
O303 O 0.3804 0.40072 0.69837 0.0
O304 O 0.39689 0.40373 0.67608 0.0
C305 C 0.35161 0.39706 0.6435 0.0
C306 C 0.40259 0.40279 0.68958 0.0
O307 O 0.30434 0.39372 0.68774 0.0
Mg308 Mg 0.83431 0.11096 0.9269 0.0
O309 O 0.88604 0.10916 0.92386 0.0
O310 O 0.89633 0.14654 0.90858 0.0
Mg311 Mg 0.85457 0.1731 0.90304 0.0
C312 C 0.90444 0.12436 0.91625 0.0
C313 C 0.81847 0.06878 0.95021 0.0
O314 O 0.80467 0.09395 0.95289 0.0
O315 O 0.82833 0.09089 0.90409 0.0
O316 O 0.83964 0.13156 0.89119 0.0
O317 O 0.83975 0.14283 0.94543 0.0
O318 O 0.83504 0.15609 0.92267 0.0
C319 C 0.83127 0.10447 0.89204 0.0
C320 C 0.84 0.16349 0.93577 0.0
O321 O 0.8333 0.0664 0.93858 0.0
Mg322 Mg 0.12953 0.58149 0.17443 0.0
O323 O 0.12812 0.63308 0.17224 0.0
O324 O 0.08574 0.64285 0.16038 0.0
Mg325 Mg 0.05882 0.60003 0.15675 0.0
C326 C 0.10996 0.65146 0.16636 0.0
C327 C 0.18014 0.56645 0.19315 0.0
O328 O 0.15666 0.5517 0.19776 0.0
O329 O 0.1404 0.57597 0.15022 0.0
O330 O 0.09431 0.58246 0.14134 0.0
O331 O 0.10474 0.58369 0.19559 0.0
O332 O 0.08358 0.57979 0.17424 0.0
C333 C 0.12171 0.57528 0.13979 0.0
C334 C 0.0808 0.58253 0.18789 0.0
O335 O 0.17788 0.58196 0.18175 0.0
Mg336 Mg 0.33676 0.88058 0.42546 0.0
O337 O 0.38769 0.87418 0.42329 0.0
O338 O 0.39399 0.83233 0.41069 0.0
Mg339 Mg 0.34818 0.81302 0.4045 0.0
C340 C 0.40461 0.85468 0.41749 0.0
C341 C 0.32757 0.92862 0.44641 0.0
O342 O 0.31204 0.90557 0.45085 0.0
O343 O 0.33471 0.89741 0.40216 0.0
O344 O 0.33849 0.85395 0.39051 0.0
O345 O 0.33696 0.85104 0.44512 0.0
O346 O 0.32895 0.83579 0.42288 0.0
C347 C 0.33454 0.8821 0.39059 0.0
C348 C 0.33196 0.8295 0.43626 0.0
O349 O 0.34228 0.92667 0.43476 0.0
Mg350 Mg 0.85729 0.58589 0.17602 0.0
O351 O 0.86222 0.63703 0.17225 0.0
O352 O 0.90258 0.64047 0.15809 0.0
Mg353 Mg 0.9231 0.59509 0.15319 0.0
C354 C 0.88138 0.6525 0.16523 0.0
C355 C 0.80878 0.57592 0.19725 0.0
O356 O 0.8321 0.56115 0.202 0.0
O357 O 0.83906 0.5795 0.15317 0.0
O358 O 0.88152 0.58149 0.14051 0.0
O359 O 0.88729 0.59004 0.19531 0.0
O360 O 0.90277 0.58053 0.17322 0.0
C361 C 0.85339 0.57711 0.14134 0.0
C362 C 0.90909 0.58682 0.18635 0.0
O363 O 0.811 0.59039 0.18553 0.0
Mg364 Mg 0.1501 0.09835 0.9289 0.0
O365 O 0.09892 0.10268 0.92854 0.0
O366 O 0.08903 0.14063 0.91364 0.0
Mg367 Mg 0.13289 0.16299 0.90656 0.0
C368 C 0.08052 0.11945 0.92188 0.0
C369 C 0.16049 0.05165 0.9511 0.0
O370 O 0.17459 0.07535 0.95579 0.0
O371 O 0.14979 0.07955 0.90586 0.0
O372 O 0.14411 0.12191 0.89335 0.0
O373 O 0.1519 0.13019 0.94773 0.0
O374 O 0.15538 0.14279 0.92484 0.0
C375 C 0.14896 0.09395 0.89398 0.0
C376 C 0.15451 0.15072 0.93806 0.0
O377 O 0.14689 0.05289 0.93913 0.0
Mg378 Mg 0.6302 0.39541 0.67874 0.0
O379 O 0.62496 0.34405 0.67663 0.0
O380 O 0.58723 0.33867 0.66097 0.0
Mg381 Mg 0.56769 0.38329 0.65394 0.0
C382 C 0.60722 0.32776 0.66924 0.0
C383 C 0.68538 0.41666 0.69415 0.0
O384 O 0.67356 0.44089 0.68865 0.0
O385 O 0.65247 0.39697 0.6563 0.0
O386 O 0.61143 0.39373 0.6426 0.0
O387 O 0.59659 0.39569 0.69683 0.0
O388 O 0.58539 0.40088 0.67385 0.0
C389 C 0.63949 0.39754 0.64403 0.0
C390 C 0.57652 0.39742 0.68688 0.0
O391 O 0.67396 0.3916 0.69098 0.0
Mg392 Mg 0.3334 0.10226 0.52806 0.0
O393 O 0.38465 0.10801 0.52849 0.0
O394 O 0.39339 0.14812 0.542 0.0
Mg395 Mg 0.34906 0.16774 0.55011 0.0
C396 C 0.40267 0.12645 0.53432 0.0
C397 C 0.32607 0.05663 0.50495 0.0
O398 O 0.31321 0.08068 0.49988 0.0
O399 O 0.33484 0.08304 0.55098 0.0
O400 O 0.34039 0.1257 0.56322 0.0
O401 O 0.32914 0.13505 0.5095 0.0
O402 O 0.32588 0.14642 0.53248 0.0
C403 C 0.33612 0.09761 0.56278 0.0
C404 C 0.32507 0.15485 0.51935 0.0
O405 O 0.33781 0.05727 0.51738 0.0
Mg406 Mg 0.63262 0.58432 0.27914 0.0
O407 O 0.63499 0.63708 0.27918 0.0
O408 O 0.59358 0.65316 0.29051 0.0
Mg409 Mg 0.57856 0.61467 0.30421 0.0
C410 C 0.61659 0.65779 0.28272 0.0
C411 C 0.67589 0.57557 0.25404 0.0
O412 O 0.64975 0.57224 0.24785 0.0
O413 O 0.65392 0.57547 0.30148 0.0
O414 O 0.62813 0.61382 0.30813 0.0
O415 O 0.59812 0.58841 0.26182 0.0
O416 O 0.58723 0.58688 0.28503 0.0
C417 C 0.64281 0.59088 0.31156 0.0
C418 C 0.5785 0.59053 0.27196 0.0
O419 O 0.67703 0.58109 0.26743 0.0
Mg420 Mg 0.15283 0.8772 0.0325 0.0
O421 O 0.10161 0.86922 0.03423 0.0
O422 O 0.09759 0.82748 0.04719 0.0
Mg423 Mg 0.14335 0.80993 0.05435 0.0
C424 C 0.0858 0.84876 0.04004 0.0
C425 C 0.15832 0.9235 0.00985 0.0
O426 O 0.17207 0.89984 0.00493 0.0
O427 O 0.1556 0.89549 0.05569 0.0
O428 O 0.1539 0.85163 0.0672 0.0
O429 O 0.15527 0.84515 0.01356 0.0
O430 O 0.16268 0.83312 0.03623 0.0
C431 C 0.15762 0.87979 0.06716 0.0
C432 C 0.16159 0.82515 0.02307 0.0
O433 O 0.14621 0.92248 0.02221 0.0
Mg434 Mg 0.85401 0.39165 0.77532 0.0
O435 O 0.85575 0.34082 0.77833 0.0
O436 O 0.90029 0.33051 0.78812 0.0
Mg437 Mg 0.92739 0.37353 0.79052 0.0
C438 C 0.87479 0.32245 0.78338 0.0
C439 C 0.80004 0.4099 0.75968 0.0
O440 O 0.82071 0.43028 0.75763 0.0
O441 O 0.84656 0.39805 0.79991 0.0
O442 O 0.8938 0.39017 0.80698 0.0
O443 O 0.87651 0.38752 0.75359 0.0
O444 O 0.89983 0.39445 0.77424 0.0
C445 C 0.86689 0.39775 0.80966 0.0
C446 C 0.9012 0.39045 0.76063 0.0
O447 O 0.80514 0.38942 0.76882 0.0
H448 H 0.17249 0.59088 0.12528 0.0
H449 H 0.09093 0.54049 0.12145 0.0
H450 H 0.09821 0.53603 0.09557 0.0
H451 H 0.12166 0.55594 0.0737 0.0
H452 H 0.20066 0.61004 0.07728 0.0
H453 H 0.20119 0.60295 0.10334 0.0
C454 C 0.15694 0.57811 0.11881 0.0
C455 C 0.13101 0.56645 0.12517 0.0
C456 C 0.16071 0.57655 0.10378 0.0
C457 C 0.11087 0.55004 0.1167 0.0
C458 C 0.11497 0.54752 0.10189 0.0
C459 C 0.13972 0.5649 0.08015 0.0
C460 C 0.16113 0.58331 0.07367 0.0
C461 C 0.13894 0.56202 0.09522 0.0
C462 C 0.18409 0.59554 0.08212 0.0
C463 C 0.18417 0.59181 0.09704 0.0
H464 H 0.61608 0.91903 0.37834 0.0
H465 H 0.70128 0.87535 0.37489 0.0
H466 H 0.70145 0.88306 0.34886 0.0
H467 H 0.67239 0.89296 0.32675 0.0
H468 H 0.58525 0.93294 0.33043 0.0
H469 H 0.59084 0.93641 0.35643 0.0
C470 C 0.63522 0.91246 0.37193 0.0
C471 C 0.65868 0.89686 0.37845 0.0
C472 C 0.63443 0.91565 0.35687 0.0
C473 C 0.68308 0.88768 0.37004 0.0
C474 C 0.68301 0.89176 0.35513 0.0
C475 C 0.65512 0.90324 0.33324 0.0
C476 C 0.62831 0.91227 0.32674 0.0
C477 C 0.65807 0.9043 0.34834 0.0
C478 C 0.60595 0.92542 0.33526 0.0
C479 C 0.60909 0.9274 0.35014 0.0
H480 H 0.37059 0.42945 0.62091 0.0
H481 H 0.30239 0.36731 0.63401 0.0
H482 H 0.28879 0.35906 0.60879 0.0
H483 H 0.30289 0.3629 0.58322 0.0
H484 H 0.37066 0.42556 0.57014 0.0
H485 H 0.37765 0.44078 0.5952 0.0
C486 C 0.35215 0.41479 0.61821 0.0
C487 C 0.33769 0.39869 0.62918 0.0
C488 C 0.34475 0.41004 0.60375 0.0
C489 C 0.31371 0.37994 0.6257 0.0
C490 C 0.30618 0.37503 0.61129 0.0
C491 C 0.3186 0.38046 0.58586 0.0
C492 C 0.33659 0.39285 0.57498 0.0
C493 C 0.32251 0.38893 0.60025 0.0
C494 C 0.35662 0.41578 0.57839 0.0
C495 C 0.36076 0.42428 0.59271 0.0
H496 H 0.87759 0.09626 0.8752 0.0
H497 H 0.78327 0.07911 0.87789 0.0
H498 H 0.78202 0.06713 0.852 0.0
H499 H 0.80754 0.06884 0.82782 0.0
H500 H 0.90212 0.08927 0.8269 0.0
H501 H 0.90319 0.09319 0.85256 0.0
C502 C 0.85691 0.08899 0.87018 0.0
C503 C 0.83067 0.08829 0.87832 0.0
C504 C 0.85624 0.08363 0.85541 0.0
C505 C 0.80387 0.07932 0.87178 0.0
C506 C 0.80313 0.07297 0.85696 0.0
C507 C 0.82832 0.07381 0.83329 0.0
C508 C 0.85451 0.07913 0.82522 0.0
C509 C 0.82906 0.07625 0.8485 0.0
C510 C 0.88136 0.08534 0.83259 0.0
C511 C 0.88222 0.08751 0.84741 0.0
H512 H 0.11998 0.43081 0.87754 0.0
H513 H 0.19871 0.37692 0.87256 0.0
H514 H 0.1982 0.38521 0.84662 0.0
H515 H 0.16799 0.39724 0.82522 0.0
H516 H 0.08769 0.44903 0.83033 0.0
H517 H 0.09648 0.45284 0.8561 0.0
C518 C 0.13781 0.42223 0.87082 0.0
C519 C 0.15923 0.40324 0.87683 0.0
C520 C 0.13662 0.42607 0.85581 0.0
C521 C 0.18202 0.39171 0.86806 0.0
C522 C 0.18153 0.39614 0.85321 0.0
C523 C 0.15311 0.41028 0.83192 0.0
C524 C 0.12688 0.42215 0.82599 0.0
C525 C 0.15782 0.41167 0.84688 0.0
C526 C 0.10775 0.4391 0.83476 0.0
C527 C 0.11269 0.44125 0.84952 0.0
H528 H 0.79614 0.86707 0.08024 0.0
H529 H 0.85457 0.94018 0.06967 0.0
H530 H 0.85623 0.95471 0.09506 0.0
H531 H 0.84994 0.93941 0.12038 0.0
H532 H 0.79277 0.86537 0.1309 0.0
H533 H 0.78098 0.85866 0.10538 0.0
C534 C 0.80841 0.88679 0.08347 0.0
C535 C 0.82557 0.90236 0.07321 0.0
C536 C 0.80965 0.89455 0.09807 0.0
C537 C 0.8412 0.92795 0.0774 0.0
C538 C 0.84236 0.93603 0.09193 0.0
C539 C 0.83386 0.92268 0.11708 0.0
C540 C 0.82219 0.90286 0.12741 0.0
C541 C 0.82794 0.91853 0.1024 0.0
C542 C 0.80165 0.88106 0.12313 0.0
C543 C 0.7953 0.87699 0.10853 0.0
H544 H 0.30012 0.60653 0.36819 0.0
H545 H 0.37431 0.55364 0.38294 0.0
H546 H 0.38307 0.53609 0.35835 0.0
H547 H 0.3752 0.54369 0.3324 0.0
H548 H 0.30113 0.59683 0.31767 0.0
H549 H 0.28598 0.6058 0.34259 0.0
C550 C 0.3176 0.59043 0.36603 0.0
C551 C 0.33679 0.58152 0.3772 0.0
C552 C 0.32253 0.58072 0.35192 0.0
C553 C 0.35927 0.56061 0.37445 0.0
C554 C 0.3644 0.55082 0.3604 0.0
C555 C 0.35514 0.55637 0.33468 0.0
C556 C 0.33942 0.56987 0.32331 0.0
C557 C 0.34699 0.56181 0.34899 0.0
C558 C 0.31342 0.58613 0.32628 0.0
C559 C 0.30501 0.59154 0.34052 0.0
H560 H 0.67286 0.08278 0.62389 0.0
H561 H 0.582 0.05198 0.6196 0.0
H562 H 0.58741 0.0495 0.59365 0.0
H563 H 0.61426 0.06566 0.57207 0.0
H564 H 0.70365 0.09988 0.57589 0.0
H565 H 0.70316 0.09032 0.60183 0.0
C566 C 0.65467 0.07463 0.61728 0.0
C567 C 0.62692 0.06817 0.62365 0.0
C568 C 0.65766 0.07391 0.60216 0.0
C569 C 0.60346 0.05765 0.61494 0.0
C570 C 0.60649 0.05618 0.60006 0.0
C571 C 0.63409 0.06963 0.57851 0.0
C572 C 0.65903 0.08312 0.57215 0.0
C573 C 0.63297 0.06559 0.5935 0.0
C574 C 0.68434 0.08908 0.58061 0.0
C575 C 0.68388 0.08403 0.59547 0.0
H576 H 0.81564 0.38792 0.82526 0.0
H577 H 0.9043 0.42518 0.82805 0.0
H578 H 0.89981 0.42913 0.85402 0.0
H579 H 0.87435 0.41422 0.87619 0.0
H580 H 0.78749 0.37352 0.87393 0.0
H581 H 0.78701 0.37949 0.84772 0.0
C582 C 0.83352 0.39769 0.83154 0.0
C583 C 0.86037 0.40585 0.82476 0.0
C584 C 0.83113 0.39921 0.84665 0.0
C585 C 0.88352 0.41833 0.83304 0.0
C586 C 0.88102 0.42062 0.84792 0.0
C587 C 0.85489 0.40782 0.86996 0.0
C588 C 0.83085 0.39389 0.87686 0.0
C589 C 0.85545 0.41005 0.8549 0.0
C590 C 0.80604 0.38473 0.86875 0.0
C591 C 0.80593 0.38784 0.85377 0.0
H592 H 0.3735 0.04761 0.62207 0.0
H593 H 0.30939 0.11302 0.63601 0.0
H594 H 0.29236 0.11961 0.6112 0.0
H595 H 0.30284 0.11362 0.58543 0.0
H596 H 0.36691 0.04838 0.57136 0.0
H597 H 0.3763 0.03399 0.59641 0.0
C598 C 0.35525 0.0627 0.61967 0.0
C599 C 0.343 0.08023 0.6307 0.0
C600 C 0.34576 0.06642 0.60541 0.0
C601 C 0.31912 0.09939 0.62763 0.0
C602 C 0.30955 0.10329 0.61345 0.0
C603 C 0.31811 0.09556 0.58788 0.0
C604 C 0.33453 0.08228 0.57672 0.0
C605 C 0.32371 0.08793 0.60223 0.0
C606 C 0.35407 0.05879 0.57985 0.0
C607 C 0.35966 0.05086 0.59415 0.0
H608 H 0.59816 0.57257 0.37378 0.0
H609 H 0.6925 0.56451 0.38156 0.0
H610 H 0.70176 0.55953 0.3557 0.0
H611 H 0.68364 0.57041 0.33097 0.0
H612 H 0.58911 0.58116 0.32391 0.0
H613 H 0.57912 0.57181 0.3492 0.0
C614 C 0.62052 0.56809 0.36982 0.0
C615 C 0.64459 0.56885 0.37942 0.0
C616 C 0.62568 0.56675 0.35498 0.0
C617 C 0.6736 0.56356 0.37429 0.0
C618 C 0.67893 0.56131 0.35948 0.0
C619 C 0.66087 0.56971 0.33496 0.0
C620 C 0.6372 0.57732 0.32575 0.0
C621 C 0.6553 0.56487 0.3497 0.0
C622 C 0.60774 0.57625 0.33092 0.0
C623 C 0.60197 0.57076 0.34538 0.0
H624 H 0.17642 0.88862 0.1325 0.0
H625 H 0.10629 0.95338 0.12761 0.0
H626 H 0.11439 0.95485 0.10168 0.0
H627 H 0.13226 0.9278 0.08026 0.0
H628 H 0.19998 0.86057 0.08535 0.0
H629 H 0.20259 0.87033 0.11108 0.0
C630 C 0.16395 0.90404 0.12581 0.0
C631 C 0.1405 0.92043 0.13184 0.0
C632 C 0.16782 0.90376 0.11081 0.0
C633 C 0.12429 0.94027 0.1231 0.0
C634 C 0.12871 0.94092 0.10825 0.0
C635 C 0.1484 0.91627 0.08695 0.0
C636 C 0.16549 0.8932 0.08107 0.0
C637 C 0.149 0.92125 0.10189 0.0
C638 C 0.1863 0.8782 0.08978 0.0
C639 C 0.18772 0.88365 0.10451 0.0
H640 H 0.79135 0.59847 0.08278 0.0
H641 H 0.8651 0.54467 0.06842 0.0
H642 H 0.87609 0.53064 0.09331 0.0
H643 H 0.87198 0.54394 0.11891 0.0
H644 H 0.79923 0.59924 0.13325 0.0
H645 H 0.78018 0.60222 0.10861 0.0
C646 C 0.809 0.58262 0.0851 0.0
C647 C 0.82768 0.57286 0.0739 0.0
C648 C 0.81577 0.57564 0.09943 0.0
C649 C 0.8504 0.55231 0.07689 0.0
C650 C 0.85696 0.54472 0.09114 0.0
C651 C 0.85145 0.5559 0.11667 0.0
C652 C 0.83731 0.57189 0.12774 0.0
C653 C 0.84097 0.55782 0.10249 0.0
C654 C 0.81052 0.58691 0.12485 0.0
C655 C 0.79977 0.58877 0.11076 0.0
H656 H 0.11136 0.04826 0.83426 0.0
H657 H 0.18112 0.1088 0.82129 0.0
H658 H 0.19778 0.11301 0.8463 0.0
H659 H 0.18534 0.10746 0.87197 0.0
H660 H 0.11534 0.04727 0.88493 0.0
H661 H 0.10622 0.03418 0.85975 0.0
C662 C 0.13077 0.06166 0.8369 0.0
C663 C 0.14475 0.07864 0.82611 0.0
C664 C 0.13992 0.06414 0.85126 0.0
C665 C 0.17007 0.09563 0.82949 0.0
C666 C 0.17939 0.09821 0.84378 0.0
C667 C 0.16892 0.0906 0.86926 0.0
C668 C 0.15085 0.07841 0.88014 0.0
C669 C 0.16351 0.08373 0.85479 0.0
C670 C 0.12959 0.05667 0.87667 0.0
C671 C 0.12416 0.04952 0.86228 0.0
H672 H 0.6838 0.35738 0.58462 0.0
H673 H 0.63201 0.43367 0.57161 0.0
H674 H 0.62843 0.44976 0.5967 0.0
H675 H 0.63182 0.43637 0.62237 0.0
H676 H 0.68331 0.36 0.63534 0.0
H677 H 0.69608 0.35 0.6102 0.0
C678 C 0.6723 0.37789 0.58728 0.0
C679 C 0.6576 0.39403 0.5764 0.0
C680 C 0.67032 0.38687 0.60169 0.0
C681 C 0.64328 0.42083 0.57985 0.0
C682 C 0.64114 0.42992 0.59419 0.0
C683 C 0.64693 0.41835 0.61969 0.0
C684 C 0.65667 0.3989 0.63058 0.0
C685 C 0.65345 0.41239 0.60522 0.0
C686 C 0.67596 0.37544 0.6271 0.0
C687 C 0.68282 0.36947 0.61272 0.0
H688 H 0.36939 0.92909 0.33033 0.0
H689 H 0.30069 0.86718 0.31778 0.0
H690 H 0.28507 0.86202 0.34293 0.0
H691 H 0.29855 0.86711 0.36855 0.0
H692 H 0.36728 0.92907 0.38104 0.0
H693 H 0.37513 0.94279 0.35581 0.0
C694 C 0.35029 0.91533 0.33309 0.0
C695 C 0.33634 0.89824 0.32236 0.0
C696 C 0.34187 0.91219 0.34754 0.0
C697 C 0.3116 0.88056 0.32592 0.0
C698 C 0.30294 0.87738 0.3403 0.0
C699 C 0.31449 0.88437 0.36573 0.0
C700 C 0.33259 0.89688 0.37649 0.0
C701 C 0.319 0.89186 0.35123 0.0
C702 C 0.35309 0.91929 0.37287 0.0
C703 C 0.35775 0.92689 0.35845 0.0
H704 H 0.03838 0.64402 0.05353 0.0
H705 H 0.04716 0.59328 0.01445 0.0
H706 H 0.99269 0.58966 0.01256 0.0
H707 H 0.94219 0.60298 0.02158 0.0
H708 H 0.93488 0.65362 0.06087 0.0
H709 H 0.98888 0.65489 0.0631 0.0
C710 C 0.02843 0.63211 0.0446 0.0
C711 C 0.04688 0.6192 0.03409 0.0
C712 C -0.00281 0.6301 0.04358 0.0
C713 C 0.03352 0.60345 0.02271 0.0
C714 C 0.00233 0.60145 0.02159 0.0
C715 C 0.95242 0.61417 0.03065 0.0
C716 C 0.93428 0.62855 0.04091 0.0
C717 C 0.98387 0.61499 0.0319 0.0
C718 C 0.94808 0.64277 0.05265 0.0
C719 C 0.97908 0.64348 0.05398 0.0
H720 H 0.65856 0.69934 0.2898 0.0
H721 H 0.58012 0.68446 0.26396 0.0
H722 H 0.57407 0.73796 0.26048 0.0
H723 H 0.58613 0.78873 0.26815 0.0
H724 H 0.66461 0.80486 0.29372 0.0
H725 H 0.67579 0.75132 0.29401 0.0
C726 C 0.64094 0.70791 0.28295 0.0
C727 C 0.61988 0.68819 0.27706 0.0
C728 C 0.63715 0.7389 0.28131 0.0
C729 C 0.5967 0.69938 0.26845 0.0
C730 C 0.59303 0.72994 0.26661 0.0
C731 C 0.60593 0.78046 0.27357 0.0
C732 C 0.62427 0.80034 0.28111 0.0
C733 C 0.61227 0.74988 0.27354 0.0
C734 C 0.65013 0.78971 0.28793 0.0
C735 C 0.65646 0.75916 0.28811 0.0
H736 H 0.44677 0.38919 0.52997 0.0
H737 H 0.43982 0.29414 0.53608 0.0
H738 H 0.49393 0.28971 0.53577 0.0
H739 H 0.54329 0.31258 0.53504 0.0
H740 H 0.55179 0.40739 0.52903 0.0
H741 H 0.49724 0.41213 0.52805 0.0
C742 C 0.45714 0.36753 0.53115 0.0
C743 C 0.43914 0.3421 0.53326 0.0
C744 C 0.48861 0.36508 0.53111 0.0
C745 C 0.45301 0.31418 0.53472 0.0
C746 C 0.48403 0.31156 0.5345 0.0
C747 C 0.53327 0.33433 0.53352 0.0
C748 C 0.55164 0.35961 0.53228 0.0
C749 C 0.50203 0.33686 0.53296 0.0
C750 C 0.5382 0.38753 0.53004 0.0
C751 C 0.50698 0.39026 0.52951 0.0
H752 H 0.87925 0.28135 0.76231 0.0
H753 H 0.85386 0.29297 0.8066 0.0
H754 H 0.8476 0.23906 0.80939 0.0
H755 H 0.85518 0.18833 0.79991 0.0
H756 H 0.8819 0.17654 0.75582 0.0
H757 H 0.88178 0.2306 0.75212 0.0
C758 C 0.87181 0.27194 0.77245 0.0
C759 C 0.86701 0.29074 0.78426 0.0
C760 C 0.86881 0.24093 0.774 0.0
C761 C 0.85764 0.27865 0.79742 0.0
C762 C 0.85417 0.24791 0.79901 0.0
C763 C 0.86024 0.19774 0.78944 0.0
C764 C 0.8683 0.17884 0.7781 0.0
C765 C 0.86051 0.22878 0.78749 0.0
C766 C 0.87527 0.19093 0.7646 0.0
C767 C 0.8754 0.22176 0.76253 0.0
H768 H 0.94826 0.32124 0.92623 0.0
H769 H 0.93725 0.41318 0.91425 0.0
H770 H 0.99174 0.41979 0.91373 0.0
H771 H 0.04289 0.39791 0.91513 0.0
H772 H 0.05248 0.30562 0.92698 0.0
H773 H -0.00157 0.30083 0.9296 0.0
C774 C 0.95786 0.34277 0.92362 0.0
C775 C 0.93894 0.3666 0.92015 0.0
C776 C 0.98902 0.34635 0.92343 0.0
C777 C 0.95149 0.39453 0.91699 0.0
C778 C 0.98262 0.39826 0.91665 0.0
C779 C 0.03303 0.37695 0.91846 0.0
C780 C 0.05149 0.35202 0.92072 0.0
C781 C 0.00168 0.37417 0.91964 0.0
C782 C 0.03858 0.32494 0.925 0.0
C783 C 0.00772 0.32218 0.92649 0.0
H784 H 0.91184 0.78907 0.16752 0.0
H785 H 0.81637 0.79718 0.17174 0.0
H786 H 0.81145 0.74266 0.17193 0.0
H787 H 0.83482 0.69225 0.16947 0.0
H788 H 0.93072 0.68668 0.165 0.0
H789 H 0.93487 0.74031 0.16658 0.0
C790 C 0.88992 0.77893 0.16853 0.0
C791 C 0.86452 0.79709 0.16944 0.0
C792 C 0.88734 0.74786 0.16857 0.0
C793 C 0.83632 0.78364 0.17103 0.0
C794 C 0.83351 0.75246 0.17107 0.0
C795 C 0.85654 0.70288 0.16887 0.0
C796 C 0.88234 0.68538 0.16679 0.0
C797 C 0.8589 0.73426 0.16961 0.0
C798 C 0.91039 0.6995 0.16621 0.0
C799 C 0.91288 0.73026 0.16719 0.0
H800 H 0.43915 0.59297 0.42486 0.0
H801 H 0.43374 0.68754 0.41699 0.0
H802 H 0.48789 0.69152 0.41811 0.0
H803 H 0.53686 0.668 0.41921 0.0
H804 H 0.54395 0.57362 0.42677 0.0
H805 H 0.48927 0.56969 0.42794 0.0
C806 C 0.44987 0.61445 0.42354 0.0
C807 C 0.43235 0.63986 0.42061 0.0
C808 C 0.48135 0.6166 0.424 0.0
C809 C 0.44661 0.66755 0.41898 0.0
C810 C 0.47763 0.66989 0.41965 0.0
C811 C 0.52647 0.64657 0.42122 0.0
C812 C 0.54442 0.62111 0.42274 0.0
C813 C 0.49522 0.64451 0.42179 0.0
C814 C 0.53063 0.59359 0.42558 0.0
C815 C 0.49935 0.59133 0.42617 0.0
H816 H 0.57233 0.19331 0.67288 0.0
H817 H 0.66644 0.18093 0.66532 0.0
H818 H 0.67436 0.23508 0.66681 0.0
H819 H 0.65296 0.2866 0.66828 0.0
H820 H 0.55826 0.29639 0.67551 0.0
H821 H 0.5522 0.2427 0.67642 0.0
C822 C 0.59463 0.20242 0.67156 0.0
C823 C 0.61864 0.1833 0.66867 0.0
C824 C 0.59887 0.23319 0.67243 0.0
C825 C 0.64754 0.19531 0.66741 0.0
C826 C 0.65202 0.22624 0.66825 0.0
C827 C 0.6312 0.2768 0.67027 0.0
C828 C 0.60599 0.29533 0.67165 0.0
C829 C 0.62769 0.24552 0.67047 0.0
C830 C 0.57787 0.28253 0.67422 0.0
C831 C 0.57436 0.25183 0.67472 0.0
H832 H 0.42048 0.28815 0.66891 0.0
H833 H 0.32651 0.29585 0.67838 0.0
H834 H 0.32226 0.24139 0.67941 0.0
H835 H 0.34541 0.19116 0.67665 0.0
H836 H 0.43971 0.18561 0.6671 0.0
H837 H 0.44353 0.23944 0.66717 0.0
C838 C 0.39898 0.27803 0.6712 0.0
C839 C 0.37382 0.29616 0.67342 0.0
C840 C 0.39674 0.2469 0.67176 0.0
C841 C 0.34629 0.28249 0.67662 0.0
C842 C 0.34384 0.25131 0.67717 0.0
C843 C 0.36677 0.20178 0.67466 0.0
C844 C 0.39214 0.18416 0.67168 0.0
C845 C 0.36892 0.2332 0.67462 0.0
C846 C 0.41967 0.1984 0.66917 0.0
C847 C 0.42197 0.2293 0.66926 0.0
H848 H 0.08797 0.69398 0.14866 0.0
H849 H 0.14522 0.68232 0.18552 0.0
H850 H 0.14989 0.7365 0.18791 0.0
H851 H 0.13432 0.7875 0.18048 0.0
H852 H 0.07677 0.79744 0.14349 0.0
H853 H 0.07591 0.74386 0.1402 0.0
C854 C 0.10166 0.70322 0.15718 0.0
C855 C 0.11594 0.68404 0.16698 0.0
C856 C 0.1041 0.73425 0.15852 0.0
C857 C 0.13396 0.69651 0.17781 0.0
C858 C 0.13652 0.72754 0.17922 0.0
C859 C 0.12187 0.77795 0.17161 0.0
C860 C 0.10526 0.79667 0.16239 0.0
C861 C 0.1212 0.7467 0.16979 0.0
C862 C 0.08937 0.78375 0.15093 0.0
C863 C 0.08887 0.753 0.14899 0.0
H864 H 0.08481 0.19577 0.80506 0.0
H865 H 0.1333 0.18719 0.76522 0.0
H866 H 0.13701 0.24151 0.76335 0.0
H867 H 0.12347 0.29184 0.77241 0.0
H868 H 0.07442 0.29897 0.81222 0.0
H869 H 0.07444 0.24505 0.81481 0.0
C870 C 0.09626 0.20572 0.79596 0.0
C871 C 0.1084 0.18737 0.78522 0.0
C872 C 0.09828 0.23687 0.79496 0.0
C873 C 0.12366 0.20074 0.77364 0.0
C874 C 0.12573 0.23185 0.77255 0.0
C875 C 0.1131 0.28156 0.78172 0.0
C876 C 0.09861 0.2995 0.79202 0.0
C877 C 0.11273 0.25021 0.78306 0.0
C878 C 0.0853 0.28576 0.80402 0.0
C879 C 0.0853 0.25488 0.80552 0.0
H880 H 0.37949 0.68739 0.26295 0.0
H881 H 0.34849 0.67532 0.30641 0.0
H882 H 0.34325 0.72923 0.30926 0.0
H883 H 0.35351 0.77994 0.30035 0.0
H884 H 0.38486 0.7924 0.25698 0.0
H885 H 0.38432 0.73844 0.25308 0.0
C886 C 0.37097 0.6967 0.27289 0.0
C887 C 0.36432 0.67772 0.28447 0.0
C888 C 0.36864 0.72776 0.27453 0.0
C889 C 0.35368 0.68975 0.2974 0.0
C890 C 0.35084 0.7205 0.29904 0.0
C891 C 0.35961 0.77071 0.28998 0.0
C892 C 0.36914 0.78978 0.27894 0.0
C893 C 0.35917 0.73975 0.28785 0.0
C894 C 0.37715 0.7779 0.26555 0.0
C895 C 0.37699 0.74711 0.26335 0.0
H896 H 0.44526 0.16862 0.537 0.0
H897 H 0.43376 0.07549 0.52746 0.0
H898 H 0.48817 0.06915 0.52629 0.0
H899 H 0.53959 0.09016 0.52922 0.0
H900 H 0.5488 0.18372 0.53888 0.0
H901 H 0.49505 0.18969 0.5386 0.0
C902 C 0.45458 0.1469 0.53464 0.0
C903 C 0.43543 0.12257 0.53247 0.0
C904 C 0.48569 0.14344 0.53402 0.0
C905 C 0.44798 0.09467 0.52917 0.0
C906 C 0.47913 0.09101 0.52856 0.0
C907 C 0.52975 0.1118 0.5312 0.0
C908 C 0.54835 0.13628 0.53436 0.0
C909 C 0.49831 0.11521 0.53115 0.0
C910 C 0.53518 0.16427 0.53678 0.0
C911 C 0.50433 0.16783 0.53655 0.0
H912 H 0.94874 0.81902 0.03469 0.0
H913 H 0.94109 0.91452 0.03313 0.0
H914 H -0.00418 0.91917 0.03395 0.0
H915 H 0.04615 0.89544 0.03643 0.0
H916 H 0.05162 0.79957 0.03804 0.0
H917 H -0.00229 0.79576 0.03561 0.0
C918 C 0.95902 0.8409 0.03451 0.0
C919 C 0.94088 0.86637 0.03404 0.0
C920 C 0.99025 0.84331 0.03497 0.0
C921 C 0.95458 0.89454 0.03351 0.0
C922 C 0.98587 0.89718 0.03403 0.0
C923 C 0.03547 0.87378 0.03618 0.0
C924 C 0.05294 0.84781 0.0377 0.0
C925 C 0.00401 0.87166 0.03496 0.0
C926 C 0.03875 0.81991 0.03724 0.0
C927 C 0.00787 0.81767 0.0358 0.0
H928 H 0.44647 0.81232 0.41245 0.0
H929 H 0.43708 0.90405 0.42529 0.0
H930 H 0.49149 0.90907 0.42655 0.0
H931 H 0.54203 0.88747 0.42343 0.0
H932 H 0.55019 0.79557 0.41051 0.0
H933 H 0.49611 0.79064 0.40998 0.0
C934 C 0.45624 0.83348 0.4155 0.0
C935 C 0.4376 0.8578 0.41866 0.0
C936 C 0.48746 0.8362 0.41622 0.0
C937 C 0.45081 0.88491 0.42279 0.0
C938 C 0.48197 0.88782 0.42349 0.0
C939 C 0.53197 0.86636 0.42054 0.0
C940 C 0.55032 0.84203 0.41688 0.0
C941 C 0.50057 0.86363 0.42016 0.0
C942 C 0.53678 0.81482 0.41319 0.0
C943 C 0.50577 0.81191 0.41291 0.0
H944 H 0.03995 0.11485 0.90076 0.0
H945 H 0.04893 0.1127 0.94684 0.0
H946 H -0.00567 0.11046 0.94947 0.0
H947 H 0.94372 0.11434 0.93838 0.0
H948 H 0.93629 0.11637 0.89216 0.0
H949 H 0.99038 0.11237 0.88981 0.0
C950 C 0.02987 0.11354 0.91136 0.0
C951 C 0.04816 0.11433 0.92358 0.0
C952 C -0.00129 0.11204 0.91273 0.0
C953 C 0.0351 0.11216 0.93728 0.0
C954 C 0.00393 0.11096 0.93877 0.0
C955 C 0.95404 0.11319 0.92784 0.0
C956 C 0.93622 0.11591 0.91544 0.0
C957 C 0.98543 0.11156 0.92656 0.0
C958 C 0.94971 0.1146 0.90182 0.0
C959 C 0.9806 0.11244 0.90047 0.0
H960 H 0.13569 0.47196 0.94982 0.0
H961 H 0.20163 0.41861 0.97184 0.0
H962 H 0.20319 0.45427 -0.00852 0.0
H963 H 0.18667 0.50138 0.0023 0.0
H964 H 0.12194 0.55547 -0.01978 0.0
H965 H 0.11892 0.51891 0.96073 0.0
C966 C 0.15035 0.46816 0.95892 0.0
C967 C 0.16851 0.44271 0.95933 0.0
C968 C 0.15125 0.48884 0.97021 0.0
C969 C 0.1875 0.43812 0.97119 0.0
C970 C 0.18837 0.45844 -0.01752 0.0
C971 C 0.17161 0.50472 -0.0067 0.0
C972 C 0.15407 0.53043 -0.00733 0.0
C973 C 0.17039 0.48389 -0.01789 0.0
C974 C 0.13511 0.5353 -0.01909 0.0
C975 C 0.13356 0.51457 0.96977 0.0
H976 H 0.75635 0.8863 0.20436 0.0
H977 H 0.81048 0.95947 0.21942 0.0
H978 H 0.77797 0.96568 0.24013 0.0
H979 H 0.73302 0.95153 0.25377 0.0
H980 H 0.679 0.87837 0.2391 0.0
H981 H 0.71229 0.87101 0.21848 0.0
C982 C 0.76096 0.90361 0.21216 0.0
C983 C 0.78567 0.9225 0.21023 0.0
C984 C 0.74219 0.90705 0.22418 0.0
C985 C 0.79145 0.94474 0.22051 0.0
C986 C 0.77292 0.94831 0.23243 0.0
C987 C 0.72901 0.93371 0.24615 0.0
C988 C 0.70419 0.91514 0.24795 0.0
C989 C 0.74817 0.92971 0.23435 0.0
C990 C 0.69855 0.89243 0.23798 0.0
C991 C 0.71739 0.8884 0.22616 0.0
H992 H 0.33353 0.43178 0.47705 0.0
H993 H 0.34278 0.48404 0.51563 0.0
H994 H 0.34202 0.52991 0.50129 0.0
H995 H 0.33796 0.55478 0.47779 0.0
H996 H 0.33271 0.5022 0.43913 0.0
H997 H 0.33275 0.45646 0.4535 0.0
C998 C 0.33554 0.45326 0.48228 0.0
C999 C 0.33817 0.4548 0.4973 0.0
C1000 C 0.33583 0.47925 0.47397 0.0
C1001 C 0.341 0.48254 0.50403 0.0
C1002 C 0.34042 0.50865 0.49586 0.0
C1003 C 0.33701 0.53325 0.47255 0.0
C1004 C 0.33534 0.53163 0.4575 0.0
C1005 C 0.33778 0.50722 0.48084 0.0
C1006 C 0.33429 0.50379 0.45073 0.0
C1007 C 0.33417 0.47774 0.45892 0.0
H1008 H 0.80261 0.06935 0.72548 0.0
H1009 H 0.74433 0.06533 0.76237 0.0
H1010 H 0.70067 0.06392 0.74645 0.0
H1011 H 0.67948 0.06306 0.72211 0.0
H1012 H 0.73747 0.07079 0.68523 0.0
H1013 H 0.78119 0.07159 0.70113 0.0
C1014 C 0.78031 0.06823 0.73002 0.0
C1015 C 0.77655 0.06723 0.74505 0.0
C1016 C 0.75548 0.06805 0.72083 0.0
C1017 C 0.74765 0.06623 0.75084 0.0
C1018 C 0.72278 0.0653 0.74175 0.0
C1019 C 0.70171 0.06484 0.71754 0.0
C1020 C 0.70538 0.06649 0.70252 0.0
C1021 C 0.72649 0.06603 0.72674 0.0
C1022 C 0.73419 0.0694 0.69675 0.0
C1023 C 0.7591 0.06982 0.70584 0.0
H1024 H 0.86196 0.53023 -0.00876 0.0
H1025 H 0.76738 0.5275 0.00027 0.0
H1026 H 0.75962 0.49348 -0.01973 0.0
H1027 H 0.77953 0.46401 0.9604 0.0
H1028 H 0.8738 0.46705 0.95083 0.0
H1029 H 0.88174 0.50171 0.9707 0.0
C1030 C 0.83973 0.52194 -0.0111 0.0
C1031 C 0.81537 0.53116 -0.00268 0.0
C1032 C 0.83527 0.5027 -0.02281 0.0
C1033 C 0.78659 0.52061 -0.00598 0.0
C1034 C 0.78206 0.50124 -0.01746 0.0
C1035 C 0.80178 0.47247 0.96257 0.0
C1036 C 0.82601 0.46299 0.95415 0.0
C1037 C 0.80621 0.49218 0.97404 0.0
C1038 C 0.8547 0.47423 0.95707 0.0
C1039 C 0.85931 0.49384 0.96851 0.0
H1040 H 0.18052 0.08093 0.72678 0.0
H1041 H 0.23228 0.0772 0.76585 0.0
H1042 H 0.27857 0.07634 0.75177 0.0
H1043 H 0.30394 0.07642 0.72837 0.0
H1044 H 0.25242 0.08445 0.68939 0.0
H1045 H 0.20603 0.08395 0.70342 0.0
C1046 C 0.20198 0.07999 0.73218 0.0
C1047 C 0.20322 0.07903 0.74726 0.0
C1048 C 0.22831 0.08034 0.72405 0.0
C1049 C 0.23099 0.07813 0.75422 0.0
C1050 C 0.25734 0.07754 0.74619 0.0
C1051 C 0.28251 0.07816 0.72299 0.0
C1052 C 0.28133 0.0804 0.70794 0.0
C1053 C 0.25622 0.07863 0.73112 0.0
C1054 C 0.25365 0.08293 0.701 0.0
C1055 C 0.22724 0.08251 0.709 0.0
H1056 H 0.70838 0.4541 0.48997 0.0
H1057 H 0.61974 0.47304 0.5058 0.0
H1058 H 0.61202 0.50838 0.48614 0.0
H1059 H 0.62977 0.53241 0.46396 0.0
H1060 H 0.71862 0.51363 0.4484 0.0
H1061 H 0.72673 0.47927 0.46838 0.0
C1062 C 0.68744 0.46613 0.48922 0.0
C1063 C 0.66462 0.46082 0.4993 0.0
C1064 C 0.68301 0.48606 0.47782 0.0
C1065 C 0.6377 0.47673 0.49819 0.0
C1066 C 0.63318 0.49678 0.4869 0.0
C1067 C 0.6508 0.52058 0.46487 0.0
C1068 C 0.67343 0.52528 0.45463 0.0
C1069 C 0.6555 0.50124 0.47652 0.0
C1070 C 0.70077 0.51023 0.4561 0.0
C1071 C 0.70548 0.49069 0.46755 0.0
H1072 H 0.20215 0.87307 0.21197 0.0
H1073 H 0.22993 0.95382 0.1906 0.0
H1074 H 0.26914 0.96112 0.20852 0.0
H1075 H 0.29512 0.94488 0.23034 0.0
H1076 H 0.2664 0.86496 0.2522 0.0
H1077 H 0.2276 0.85732 0.23412 0.0
C1078 C 0.21707 0.89202 0.21112 0.0
C1079 C 0.2134 0.91267 0.19988 0.0
C1080 C 0.23908 0.89648 0.22166 0.0
C1081 C 0.23247 0.93748 0.1991 0.0
C1082 C 0.25478 0.94176 0.20938 0.0
C1083 C 0.28031 0.92584 0.23121 0.0
C1084 C 0.28375 0.90547 0.24259 0.0
C1085 C 0.25815 0.92151 0.22075 0.0
C1086 C 0.26423 0.88102 0.24357 0.0
C1087 C 0.24214 0.87653 0.23318 0.0
H1088 H 0.62075 0.02431 0.49392 0.0
H1089 H 0.71447 0.04528 0.4894 0.0
H1090 H 0.71876 0.01015 0.46966 0.0
H1091 H 0.69635 0.97328 0.45373 0.0
H1092 H 0.6027 0.95209 0.45763 0.0
H1093 H 0.59791 0.98761 0.47743 0.0
C1094 C 0.64213 0.02098 0.48869 0.0
C1095 C 0.66725 0.03732 0.49323 0.0
C1096 C 0.64445 0.00089 0.47713 0.0
C1097 C 0.69475 0.03297 0.4862 0.0
C1098 C 0.69726 0.01293 0.47485 0.0
C1099 C 0.67481 0.97657 0.45883 0.0
C1100 C 0.64992 0.96013 0.45418 0.0
C1101 C 0.67228 -0.00315 0.47021 0.0
C1102 C 0.62216 0.96472 0.4609 0.0
C1103 C 0.61946 0.98485 0.4723 0.0
H1104 H 0.17502 0.40809 0.72876 0.0
H1105 H 0.22823 0.39562 0.76698 0.0
H1106 H 0.27378 0.39527 0.75234 0.0
H1107 H 0.29823 0.3996 0.72875 0.0
H1108 H 0.24477 0.40848 0.69042 0.0
H1109 H 0.19919 0.40917 0.70506 0.0
C1110 C 0.19661 0.40525 0.73388 0.0
C1111 C 0.19843 0.4021 0.74891 0.0
C1112 C 0.22245 0.40445 0.7254 0.0
C1113 C 0.22639 0.39802 0.75542 0.0
C1114 C 0.25236 0.39791 0.74707 0.0
C1115 C 0.27654 0.40156 0.72363 0.0
C1116 C 0.27464 0.40411 0.70859 0.0
C1117 C 0.25061 0.40126 0.73207 0.0
C1118 C 0.24658 0.40631 0.70199 0.0
C1119 C 0.22064 0.40683 0.71035 0.0
H1120 H 0.82146 0.98619 0.0052 0.0
H1121 H 0.83405 0.91908 0.97274 0.0
H1122 H 0.8328 0.957 0.95388 0.0
H1123 H 0.82781 0.00942 0.94658 0.0
H1124 H 0.81048 0.07593 -0.02111 0.0
H1125 H 0.81357 0.0383 -0.00224 0.0
C1126 C 0.82421 0.98008 -0.006 0.0
C1127 C 0.82832 0.95015 -0.00969 0.0
C1128 C 0.82237 0.00187 -0.01683 0.0
C1129 C 0.83108 0.94216 0.97577 0.0
C1130 C 0.83031 0.96377 0.96499 0.0
C1131 C 0.82475 0.01559 0.95775 0.0
C1132 C 0.81917 0.04536 0.96135 0.0
C1133 C 0.82591 -0.00629 0.96855 0.0
C1134 C 0.81477 0.05308 0.97584 0.0
C1135 C 0.81666 0.03161 -0.01333 0.0
H1136 H 0.30592 0.56999 0.22336 0.0
H1137 H 0.25035 0.56229 0.26108 0.0
H1138 H 0.20564 0.56085 0.24588 0.0
H1139 H 0.18277 0.56156 0.22192 0.0
H1140 H 0.23796 0.57335 0.18431 0.0
H1141 H 0.28281 0.57348 0.19946 0.0
C1142 C 0.28398 0.56798 0.22823 0.0
C1143 C 0.28124 0.566 0.24325 0.0
C1144 C 0.25855 0.56791 0.21947 0.0
C1145 C 0.25283 0.5639 0.24951 0.0
C1146 C 0.22737 0.56299 0.24084 0.0
C1147 C 0.20465 0.56405 0.21704 0.0
C1148 C 0.20727 0.56711 0.20205 0.0
C1149 C 0.23003 0.5649 0.22582 0.0
C1150 C 0.23557 0.57092 0.19584 0.0
C1151 C 0.2611 0.57095 0.20448 0.0
H1152 H 0.32848 0.05416 0.4761 0.0
H1153 H 0.32557 -0.001 0.51409 0.0
H1154 H 0.32493 0.95425 0.49909 0.0
H1155 H 0.32503 0.93118 0.47521 0.0
H1156 H 0.33202 0.98614 0.43728 0.0
H1157 H 0.33128 0.03098 0.45225 0.0
C1158 C 0.32774 0.0323 0.48106 0.0
C1159 C 0.32696 0.02966 0.4961 0.0
C1160 C 0.32815 0.00686 0.47241 0.0
C1161 C 0.32635 0.00138 0.5025 0.0
C1162 C 0.32588 0.9759 0.49395 0.0
C1163 C 0.32642 0.95302 0.47025 0.0
C1164 C 0.32845 0.9556 0.45524 0.0
C1165 C 0.32676 0.97843 0.47891 0.0
C1166 C 0.33061 0.98382 0.44886 0.0
C1167 C 0.33008 0.00935 0.45739 0.0
H1168 H 0.68085 0.58225 0.22525 0.0
H1169 H 0.73252 0.56452 0.26349 0.0
H1170 H 0.77811 0.56174 0.24907 0.0
H1171 H 0.80326 0.56563 0.22572 0.0
H1172 H 0.75213 0.58658 0.1877 0.0
H1173 H 0.70612 0.58677 0.20193 0.0
C1174 C 0.70209 0.57767 0.23042 0.0
C1175 C 0.7034 0.5736 0.24539 0.0
C1176 C 0.7282 0.57678 0.22212 0.0
C1177 C 0.73104 0.56791 0.25198 0.0
C1178 C 0.75706 0.56626 0.24374 0.0
C1179 C 0.78202 0.57015 0.22054 0.0
C1180 C 0.78098 0.5761 0.20571 0.0
C1181 C 0.7559 0.57088 0.22883 0.0
C1182 C 0.75342 0.58216 0.19914 0.0
C1183 C 0.72716 0.58219 0.20726 0.0
H1184 H 0.15592 0.92614 -0.01897 0.0
H1185 H 0.15942 0.9811 0.01895 0.0
H1186 H 0.16168 0.02587 0.00389 0.0
H1187 H 0.16293 0.04899 -0.02003 0.0
H1188 H 0.15551 -0.0058 0.9421 0.0
H1189 H 0.15453 0.9494 0.95714 0.0
C1190 C 0.15706 0.94798 -0.01404 0.0
C1191 C 0.15756 0.95055 0.00101 0.0
C1192 C 0.1577 0.97342 -0.02272 0.0
C1193 C 0.15876 0.97879 0.00736 0.0
C1194 C 0.16021 0.00427 -0.00123 0.0
C1195 C 0.16115 0.0272 0.97503 0.0
C1196 C 0.15947 0.02469 0.96001 0.0
C1197 C 0.15977 0.0018 -0.01627 0.0
C1198 C 0.15676 -0.00349 0.95368 0.0
C1199 C 0.15624 0.97099 0.96225 0.0
H1200 H 0.78449 0.45019 0.73935 0.0
H1201 H 0.75921 0.3647 0.75679 0.0
H1202 H 0.72227 0.35865 0.73763 0.0
H1203 H 0.69852 0.37691 0.71536 0.0
H1204 H 0.72359 0.46282 0.69837 0.0
H1205 H 0.7597 0.46917 0.7178 0.0
C1206 C 0.77074 0.43031 0.73907 0.0
C1207 C 0.77472 0.40788 0.74947 0.0
C1208 C 0.74988 0.42683 0.72795 0.0
C1209 C 0.75656 0.38237 0.74895 0.0
C1210 C 0.7356 0.37878 0.73792 0.0
C1211 C 0.71213 0.39686 0.71584 0.0
C1212 C 0.70869 0.41919 0.70534 0.0
C1213 C 0.73243 0.40065 0.72723 0.0
C1214 C 0.72599 0.44521 0.70627 0.0
C1215 C 0.74653 0.44893 0.71741 0.0
H1216 H 0.13287 0.78902 0.00366 0.0
H1217 H 0.20377 0.79172 0.03508 0.0
H1218 H 0.20953 0.73811 0.03368 0.0
H1219 H 0.19009 0.69047 0.02633 0.0
H1220 H 0.11797 0.68494 -0.00418 0.0
H1221 H 0.11719 0.73964 -0.00622 0.0
C1222 C 0.14998 0.77776 0.00987 0.0
C1223 C 0.16768 0.79399 0.01957 0.0
C1224 C 0.15268 0.74654 0.0093 0.0
C1225 C 0.18973 0.77944 0.02767 0.0
C1226 C 0.19303 0.74884 0.0269 0.0
C1227 C 0.17449 0.70126 0.01905 0.0
C1228 C 0.15382 0.68412 0.01142 0.0
C1229 C 0.17391 0.73218 0.0182 0.0
C1230 C 0.13403 0.698 0.00183 0.0
C1231 C 0.13348 0.72916 0.00075 0.0
H1232 H 0.54418 0.85558 0.26918 0.0
H1233 H 0.55363 0.93481 0.24352 0.0
H1234 H 0.49951 0.93569 0.23922 0.0
H1235 H 0.44908 0.91945 0.24716 0.0
H1236 H 0.44091 0.84205 0.27429 0.0
H1237 H 0.49478 0.83456 0.27361 0.0
C1238 C 0.53436 0.87252 0.26233 0.0
C1239 C 0.55238 0.89529 0.25681 0.0
C1240 C 0.50341 0.87341 0.26042 0.0
C1241 C 0.53989 0.91701 0.2478 0.0
C1242 C 0.50898 0.91769 0.24551 0.0
C1243 C 0.45918 0.90049 0.25251 0.0
C1244 C 0.44143 0.88157 0.26097 0.0
C1245 C 0.49039 0.89687 0.2524 0.0
C1246 C 0.45442 0.85712 0.26795 0.0
C1247 C 0.48517 0.85283 0.26755 0.0
H1248 H 0.35378 0.19293 0.50082 0.0
H1249 H 0.2814 0.18629 0.53129 0.0
H1250 H 0.27437 0.2399 0.5306 0.0
H1251 H 0.29353 0.28858 0.52441 0.0
H1252 H 0.36739 0.29764 0.49506 0.0
H1253 H 0.36899 0.24328 0.49196 0.0
C1254 C 0.33607 0.20335 0.50696 0.0
C1255 C 0.31826 0.18604 0.5162 0.0
C1256 C 0.33271 0.23452 0.50685 0.0
C1257 C 0.29547 0.19946 0.52423 0.0
C1258 C 0.29146 0.23004 0.52387 0.0
C1259 C 0.3096 0.27863 0.51712 0.0
C1260 C 0.33054 0.29666 0.51013 0.0
C1261 C 0.31071 0.24778 0.5157 0.0
C1262 C 0.35105 0.28389 0.50054 0.0
C1263 C 0.3521 0.25289 0.49888 0.0
H1264 H 0.94482 0.03487 0.76406 0.0
H1265 H 0.9278 0.12697 0.75442 0.0
H1266 H 0.98172 0.13646 0.75241 0.0
H1267 H 0.03364 0.11947 0.7571 0.0
H1268 H 0.0492 0.02759 0.76804 0.0
H1269 H -0.00398 0.01665 0.76557 0.0
C1270 C 0.95304 0.05671 0.76097 0.0
C1271 C 0.93283 0.08009 0.75909 0.0
C1272 C 0.98377 0.06197 0.76024 0.0
C1273 C 0.94328 0.10857 0.75551 0.0
C1274 C 0.97401 0.11402 0.75456 0.0
C1275 C 0.02527 0.09699 0.75849 0.0
C1276 C 0.04486 0.07424 0.76266 0.0
C1277 C -0.0055 0.09107 0.7574 0.0
C1278 C 0.03418 0.04524 0.76475 0.0
C1279 C 0.00387 0.03904 0.7634 0.0
H1280 H 0.18714 0.19034 0.92413 0.0
H1281 H 0.12591 0.18186 0.95962 0.0
H1282 H 0.12453 0.23644 0.96215 0.0
H1283 H 0.13701 0.28675 0.9521 0.0
H1284 H 0.19742 0.29224 0.91598 0.0
H1285 H 0.20313 0.23862 0.91592 0.0
C1286 C 0.17371 0.20045 0.93252 0.0
C1287 C 0.15632 0.18249 0.94152 0.0
C1288 C 0.17284 0.23129 0.93372 0.0
C1289 C 0.13943 0.19554 0.95255 0.0
C1290 C 0.13854 0.22664 0.95392 0.0
C1291 C 0.15179 0.27606 0.94446 0.0
C1292 C 0.16649 0.2932 0.93394 0.0
C1293 C 0.15458 0.24482 0.94428 0.0
C1294 C 0.18556 0.27934 0.92403 0.0
C1295 C 0.18889 0.24872 0.92397 0.0
H1296 H 0.938 0.87416 0.20205 0.0
H1297 H 0.93472 0.94411 0.1702 0.0
H1298 H 0.98857 0.95007 0.17147 0.0
H1299 H 0.03639 0.93214 0.17933 0.0
H1300 H 0.0429 0.85955 0.20948 0.0
H1301 H 0.98797 0.85822 0.21155 0.0
C1302 C 0.94923 0.89096 0.19563 0.0
C1303 C 0.9327 0.90858 0.18597 0.0
C1304 C 0.98061 0.89365 0.19607 0.0
C1305 C 0.9472 0.93017 0.17759 0.0
C1306 C 0.97792 0.93363 0.17832 0.0
C1307 C 0.02582 0.91616 0.18649 0.0
C1308 C 0.04337 0.89566 0.19406 0.0
C1309 C -0.00519 0.91495 0.18717 0.0
C1310 C 0.02964 0.87551 0.20353 0.0
C1311 C -0.00169 0.87462 0.2046 0.0
H1312 H 0.35247 0.69473 0.45087 0.0
H1313 H 0.27626 0.68797 0.42269 0.0
H1314 H 0.27046 0.74182 0.42276 0.0
H1315 H 0.29147 0.79047 0.42767 0.0
H1316 H 0.36871 0.79932 0.4549 0.0
H1317 H 0.36985 0.74504 0.45852 0.0
C1318 C 0.33418 0.70519 0.44512 0.0
C1319 C 0.31486 0.68777 0.43672 0.0
C1320 C 0.33157 0.7364 0.44484 0.0
C1321 C 0.2914 0.70123 0.42914 0.0
C1322 C 0.28815 0.73193 0.42913 0.0
C1323 C 0.30821 0.78048 0.43461 0.0
C1324 C 0.33015 0.79839 0.44088 0.0
C1325 C 0.30881 0.74968 0.43643 0.0
C1326 C 0.35159 0.78563 0.45 0.0
C1327 C 0.35232 0.75469 0.45197 0.0
H1328 H 0.44851 0.12364 0.68819 0.0
H1329 H 0.43889 0.03428 0.70429 0.0
H1330 H 0.49314 0.03051 0.70752 0.0
H1331 H 0.54322 0.04968 0.7014 0.0
H1332 H 0.55239 0.1384 0.68442 0.0
H1333 H 0.49845 0.14597 0.68616 0.0
C1334 C 0.4584 0.10376 0.69279 0.0
C1335 C 0.44028 0.07923 0.69599 0.0
C1336 C 0.48943 0.1017 0.69437 0.0
C1337 C 0.45281 0.05339 0.70186 0.0
C1338 C 0.48372 0.05121 0.70362 0.0
C1339 C 0.53338 0.07104 0.69871 0.0
C1340 C 0.55134 0.09351 0.69282 0.0
C1341 C 0.50231 0.0748 0.69935 0.0
C1342 C 0.5387 0.12094 0.68902 0.0
C1343 C 0.50791 0.12515 0.6899 0.0
H1344 H 0.87668 0.29611 0.93116 0.0
H1345 H 0.79883 0.3066 0.95781 0.0
H1346 H 0.79641 0.25249 0.96153 0.0
H1347 H 0.81149 0.2021 0.95337 0.0
H1348 H 0.88751 0.19304 0.92531 0.0
H1349 H 0.89608 0.24661 0.92603 0.0
C1350 C 0.85963 0.28651 0.93804 0.0
C1351 C 0.83778 0.30486 0.94408 0.0
C1352 C 0.85797 0.25565 0.9397 0.0
C1353 C 0.81592 0.29259 0.95313 0.0
C1354 C 0.8144 0.26172 0.95512 0.0
C1355 C 0.83037 0.21195 0.9478 0.0
C1356 C 0.84869 0.19407 0.93915 0.0
C1357 C 0.83454 0.24296 0.94792 0.0
C1358 C 0.87299 0.20669 0.93184 0.0
C1359 C 0.87786 0.23725 0.93226 0.0
H1360 H 0.68705 0.78771 0.42364 0.0
H1361 H 0.62779 0.7982 0.4598 0.0
H1362 H 0.62486 0.74379 0.46252 0.0
H1363 H 0.63484 0.69315 0.45248 0.0
H1364 H 0.69093 0.68552 0.4149 0.0
H1365 H 0.69926 0.73889 0.41478 0.0
C1366 C 0.6736 0.77815 0.4322 0.0
C1367 C 0.65726 0.79678 0.44135 0.0
C1368 C 0.67122 0.74731 0.43331 0.0
C1369 C 0.64052 0.78418 0.4526 0.0
C1370 C 0.63867 0.75312 0.45406 0.0
C1371 C 0.64916 0.70331 0.44445 0.0
C1372 C 0.66203 0.68563 0.43363 0.0
C1373 C 0.65323 0.73442 0.44417 0.0
C1374 C 0.68049 0.69883 0.42321 0.0
C1375 C 0.68534 0.72931 0.42314 0.0
H1376 H 0.85688 0.69527 0.00102 0.0
H1377 H 0.78888 0.68931 0.03384 0.0
H1378 H 0.78411 0.74307 0.03421 0.0
H1379 H 0.80272 0.79143 0.02739 0.0
H1380 H 0.87124 0.80015 -0.00486 0.0
H1381 H 0.8723 0.74567 -0.00781 0.0
C1382 C 0.8407 0.70589 0.008 0.0
C1383 C 0.82352 0.68856 0.01753 0.0
C1384 C 0.83845 0.73716 0.00839 0.0
C1385 C 0.80262 0.70234 0.02658 0.0
C1386 C 0.79986 0.73304 0.02681 0.0
C1387 C 0.81774 0.78141 0.01962 0.0
C1388 C 0.83722 0.7994 0.01168 0.0
C1389 C 0.81829 0.75059 0.01813 0.0
C1390 C 0.85614 0.78646 0.00141 0.0
C1391 C 0.8568 0.7554 -0.00021 0.0
H1392 H 0.61523 0.29427 0.5204 0.0
H1393 H 0.69856 0.30525 0.49793 0.0
H1394 H 0.70157 0.25125 0.49405 0.0
H1395 H 0.68394 0.20054 0.50068 0.0
H1396 H 0.60037 0.19094 0.52315 0.0
H1397 H 0.59368 0.24469 0.52343 0.0
C1398 C 0.63362 0.28478 0.51436 0.0
C1399 C 0.65674 0.30321 0.50953 0.0
C1400 C 0.63529 0.254 0.5124 0.0
C1401 C 0.6805 0.29114 0.50165 0.0
C1402 C 0.68231 0.26034 0.49956 0.0
C1403 C 0.66398 0.21036 0.50527 0.0
C1404 C 0.64293 0.19215 0.51219 0.0
C1405 C 0.66039 0.24145 0.5054 0.0
C1406 C 0.61712 0.20476 0.51812 0.0
C1407 C 0.61324 0.23545 0.51822 0.0
H1408 H 0.93879 0.43552 0.75883 0.0
H1409 H 0.92955 0.34259 0.74881 0.0
H1410 H 0.98404 0.338 0.7464 0.0
H1411 H 0.03411 0.3586 0.75249 0.0
H1412 H 0.0413 0.45061 0.765 0.0
H1413 H 0.98801 0.45778 0.76096 0.0
C1414 C 0.94877 0.41461 0.7555 0.0
C1415 C 0.93063 0.38949 0.75387 0.0
C1416 C 0.97981 0.41198 0.75491 0.0
C1417 C 0.94337 0.36227 0.74985 0.0
C1418 C 0.97448 0.35961 0.74871 0.0
C1419 C 0.02398 0.38034 0.7538 0.0
C1420 C 0.04119 0.40411 0.75901 0.0
C1421 C -0.00703 0.38398 0.75199 0.0
C1422 C 0.02816 0.43214 0.76097 0.0
C1423 C -0.00224 0.43621 0.75872 0.0
H1424 H 0.44306 0.62044 0.27468 0.0
H1425 H 0.43944 0.55129 0.24281 0.0
H1426 H 0.4942 0.55216 0.24072 0.0
H1427 H 0.54292 0.56649 0.25149 0.0
H1428 H 0.54413 0.63117 0.28565 0.0
H1429 H 0.49077 0.63843 0.28338 0.0
C1430 C 0.45433 0.60589 0.26715 0.0
C1431 C 0.43775 0.58544 0.25914 0.0
C1432 C 0.48543 0.60555 0.2666 0.0
C1433 C 0.45211 0.5672 0.24907 0.0
C1434 C 0.48333 0.56749 0.24802 0.0
C1435 C 0.53144 0.58258 0.25818 0.0
C1436 C 0.54731 0.59807 0.26883 0.0
C1437 C 0.50026 0.58561 0.25726 0.0
C1438 C 0.53242 0.61875 0.27752 0.0
C1439 C 0.50182 0.62295 0.27622 0.0
H1440 H 0.44263 0.36205 0.68196 0.0
H1441 H 0.43153 0.44063 0.70775 0.0
H1442 H 0.48595 0.44412 0.71103 0.0
H1443 H 0.53687 0.42856 0.70323 0.0
H1444 H 0.54592 0.35052 0.67684 0.0
H1445 H 0.49231 0.34274 0.67711 0.0
C1446 C 0.45219 0.37958 0.68851 0.0
C1447 C 0.43359 0.40124 0.69446 0.0
C1448 C 0.48313 0.38165 0.69006 0.0
C1449 C 0.44579 0.4237 0.70311 0.0
C1450 C 0.47681 0.42581 0.70487 0.0
C1451 C 0.52698 0.40956 0.69785 0.0
C1452 C 0.54508 0.39039 0.68975 0.0
C1453 C 0.49578 0.40551 0.69792 0.0
C1454 C 0.5323 0.36584 0.68282 0.0
C1455 C 0.50163 0.36133 0.68303 0.0
H1456 H 0.94863 0.55512 0.20222 0.0
H1457 H 0.93763 0.63715 0.17886 0.0
H1458 H 0.99128 0.64598 0.1794 0.0
H1459 H 0.04146 0.62572 0.18276 0.0
H1460 H 0.05364 0.54385 0.2061 0.0
H1461 H -0.0005 0.53984 0.20987 0.0
C1462 C 0.95808 0.57529 0.19767 0.0
C1463 C 0.93965 0.59515 0.19016 0.0
C1464 C 0.98909 0.58011 0.19802 0.0
C1465 C 0.95172 0.62125 0.1843 0.0
C1466 C 0.98234 0.62636 0.18468 0.0
C1467 C 0.03219 0.60761 0.1891 0.0
C1468 C 0.05099 0.58505 0.19411 0.0
C1469 C 0.0013 0.60526 0.19092 0.0
C1470 C 0.03923 0.56154 0.20228 0.0
C1471 C 0.00835 0.5591 0.20427 0.0
loop_
_geom_bond_atom_site_label_1
_geom_bond_atom_site_label_2
_geom_bond_distance
_geom_bond_site_symmetry_2
_ccdc_geom_bond_type
Mg0 O1 2.028 . S
Mg0 O7 1.986 . S
Mg0 O9 2.114 . S
Mg0 O10 2.251 . S
Mg0 O13 2.010 . S
O1 Mg0 2.028 . S
O1 C4 1.250 . S
O2 Mg3 2.028 . S
O2 C4 1.248 . S
Mg3 O2 2.028 . S
Mg3 O8 2.032 . S
Mg3 O10 2.079 . S
C4 O1 1.250 . S
C4 O2 1.248 . S
C5 O6 1.264 . S
C5 O13 1.249 . S
O6 C5 1.264 . S
O7 Mg0 1.986 . S
O7 C11 1.246 . S
O8 Mg3 2.032 . S
O8 C11 1.259 . S
O9 Mg0 2.114 . S
O9 C12 1.252 . S
O10 Mg0 2.251 . S
O10 Mg3 2.079 . S
O10 C12 1.273 . S
C11 O7 1.246 . S
C11 O8 1.259 . S
C12 O9 1.252 . S
C12 O10 1.273 . S
O13 Mg0 2.010 . S
O13 C5 1.249 . S
Mg14 O15 2.028 . S
Mg14 O21 1.986 . S
Mg14 O23 2.114 . S
Mg14 O24 2.251 . S
Mg14 O27 2.010 . S
O15 Mg14 2.028 . S
O15 C18 1.250 . S
O16 Mg17 2.028 . S
O16 C18 1.248 . S
Mg17 O16 2.028 . S
Mg17 O22 2.032 . S
Mg17 O24 2.079 . S
C18 O15 1.250 . S
C18 O16 1.248 . S
C19 O20 1.264 . S
C19 O27 1.249 . S
O20 C19 1.264 . S
O21 Mg14 1.986 . S
O21 C25 1.246 . S
O22 Mg17 2.032 . S
O22 C25 1.259 . S
O23 Mg14 2.114 . S
O23 C26 1.252 . S
O24 Mg14 2.251 . S
O24 Mg17 2.079 . S
O24 C26 1.273 . S
C25 O21 1.246 . S
C25 O22 1.259 . S
C26 O23 1.252 . S
C26 O24 1.273 . S
O27 Mg14 2.010 . S
O27 C19 1.249 . S
Mg28 O29 2.028 . S
Mg28 O35 1.986 . S
Mg28 O37 2.114 . S
Mg28 O38 2.251 . S
Mg28 O41 2.010 . S
O29 Mg28 2.028 . S
O29 C32 1.250 . S
O30 Mg31 2.028 . S
O30 C32 1.248 . S
Mg31 O30 2.028 . S
Mg31 O36 2.032 . S
Mg31 O38 2.079 . S
C32 O29 1.250 . S
C32 O30 1.248 . S
C33 O34 1.264 . S
C33 O41 1.249 . S
O34 C33 1.264 . S
O35 Mg28 1.986 . S
O35 C39 1.246 . S
O36 Mg31 2.032 . S
O36 C39 1.259 . S
O37 Mg28 2.114 . S
O37 C40 1.252 . S
O38 Mg28 2.251 . S
O38 Mg31 2.079 . S
O38 C40 1.273 . S
C39 O35 1.246 . S
C39 O36 1.259 . S
C40 O37 1.252 . S
C40 O38 1.273 . S
O41 Mg28 2.010 . S
O41 C33 1.249 . S
Mg42 O43 2.028 . S
Mg42 O49 1.986 . S
Mg42 O51 2.114 . S
Mg42 O52 2.251 . S
Mg42 O55 2.010 . S
O43 Mg42 2.028 . S
O43 C46 1.250 . S
O44 Mg45 2.028 . S
O44 C46 1.248 . S
Mg45 O44 2.028 . S
Mg45 O50 2.032 . S
Mg45 O52 2.079 . S
C46 O43 1.250 . S
C46 O44 1.248 . S
C47 O48 1.264 . S
C47 O55 1.249 . S
O48 C47 1.264 . S
O49 Mg42 1.986 . S
O49 C53 1.246 . S
O50 Mg45 2.032 . S
O50 C53 1.259 . S
O51 Mg42 2.114 . S
O51 C54 1.252 . S
O52 Mg42 2.251 . S
O52 Mg45 2.079 . S
O52 C54 1.273 . S
C53 O49 1.246 . S
C53 O50 1.259 . S
C54 O51 1.252 . S
C54 O52 1.273 . S
O55 Mg42 2.010 . S
O55 C47 1.249 . S
Mg56 O57 2.028 . S
Mg56 O63 1.986 . S
Mg56 O65 2.114 . S
Mg56 O66 2.251 . S
Mg56 O69 2.010 . S
O57 Mg56 2.028 . S
O57 C60 1.250 . S
O58 Mg59 2.028 . S
O58 C60 1.248 . S
Mg59 O58 2.028 . S
Mg59 O64 2.032 . S
Mg59 O66 2.079 . S
C60 O57 1.250 . S
C60 O58 1.248 . S
C61 O62 1.264 . S
C61 O69 1.249 . S
O62 C61 1.264 . S
O63 Mg56 1.986 . S
O63 C67 1.246 . S
O64 Mg59 2.032 . S
O64 C67 1.259 . S
O65 Mg56 2.114 . S
O65 C68 1.252 . S
O66 Mg56 2.251 . S
O66 Mg59 2.079 . S
O66 C68 1.273 . S
C67 O63 1.246 . S
C67 O64 1.259 . S
C68 O65 1.252 . S
C68 O66 1.273 . S
O69 Mg56 2.010 . S
O69 C61 1.249 . S
Mg70 O71 2.028 . S
Mg70 O77 1.986 . S
Mg70 O79 2.114 . S
Mg70 O80 2.251 . S
Mg70 O83 2.010 . S
O71 Mg70 2.028 . S
O71 C74 1.250 . S
O72 Mg73 2.028 . S
O72 C74 1.248 . S
Mg73 O72 2.028 . S
Mg73 O78 2.032 . S
Mg73 O80 2.079 . S
C74 O71 1.250 . S
C74 O72 1.248 . S
C75 O76 1.264 . S
C75 O83 1.249 . S
O76 C75 1.264 . S
O77 Mg70 1.986 . S
O77 C81 1.246 . S
O78 Mg73 2.032 . S
O78 C81 1.259 . S
O79 Mg70 2.114 . S
O79 C82 1.252 . S
O80 Mg70 2.251 . S
O80 Mg73 2.079 . S
O80 C82 1.273 . S
C81 O77 1.246 . S
C81 O78 1.259 . S
C82 O79 1.252 . S
C82 O80 1.273 . S
O83 Mg70 2.010 . S
O83 C75 1.249 . S
Mg84 O85 2.028 . S
Mg84 O91 1.986 . S
Mg84 O93 2.114 . S
Mg84 O94 2.251 . S
Mg84 O97 2.010 . S
O85 Mg84 2.028 . S
O85 C88 1.250 . S
O86 Mg87 2.028 . S
O86 C88 1.248 . S
Mg87 O86 2.028 . S
Mg87 O92 2.032 . S
Mg87 O94 2.079 . S
C88 O85 1.250 . S
C88 O86 1.248 . S
C89 O90 1.264 . S
C89 O97 1.249 . S
O90 C89 1.264 . S
O91 Mg84 1.986 . S
O91 C95 1.246 . S
O92 Mg87 2.032 . S
O92 C95 1.259 . S
O93 Mg84 2.114 . S
O93 C96 1.252 . S
O94 Mg84 2.251 . S
O94 Mg87 2.079 . S
O94 C96 1.273 . S
C95 O91 1.246 . S
C95 O92 1.259 . S
C96 O93 1.252 . S
C96 O94 1.273 . S
O97 Mg84 2.010 . S
O97 C89 1.249 . S
Mg98 O99 2.028 . S
Mg98 O105 1.986 . S
Mg98 O107 2.114 . S
Mg98 O108 2.251 . S
Mg98 O111 2.010 . S
O99 Mg98 2.028 . S
O99 C102 1.250 . S
O100 Mg101 2.028 . S
O100 C102 1.248 . S
Mg101 O100 2.028 . S
Mg101 O106 2.032 . S
Mg101 O108 2.079 . S
C102 O99 1.250 . S
C102 O100 1.248 . S
C103 O104 1.264 . S
C103 O111 1.249 . S
O104 C103 1.264 . S
O105 Mg98 1.986 . S
O105 C109 1.246 . S
O106 Mg101 2.032 . S
O106 C109 1.259 . S
O107 Mg98 2.114 . S
O107 C110 1.252 . S
O108 Mg98 2.251 . S
O108 Mg101 2.079 . S
O108 C110 1.273 . S
C109 O105 1.246 . S
C109 O106 1.259 . S
C110 O107 1.252 . S
C110 O108 1.273 . S
O111 Mg98 2.010 . S
O111 C103 1.249 . S
Mg112 O113 2.028 . S
Mg112 O119 1.986 . S
Mg112 O121 2.114 . S
Mg112 O122 2.251 . S
Mg112 O125 2.010 . S
O113 Mg112 2.028 . S
O113 C116 1.250 . S
O114 Mg115 2.028 . S
O114 C116 1.248 . S
Mg115 O114 2.028 . S
Mg115 O120 2.032 . S
Mg115 O122 2.079 . S
C116 O113 1.250 . S
C116 O114 1.248 . S
C117 O118 1.264 . S
C117 O125 1.249 . S
O118 C117 1.264 . S
O119 Mg112 1.986 . S
O119 C123 1.246 . S
O120 Mg115 2.032 . S
O120 C123 1.259 . S
O121 Mg112 2.114 . S
O121 C124 1.252 . S
O122 Mg112 2.251 . S
O122 Mg115 2.079 . S
O122 C124 1.273 . S
C123 O119 1.246 . S
C123 O120 1.259 . S
C124 O121 1.252 . S
C124 O122 1.273 . S
O125 Mg112 2.010 . S
O125 C117 1.249 . S
Mg126 O127 2.028 . S
Mg126 O133 1.986 . S
Mg126 O135 2.114 . S
Mg126 O136 2.251 . S
Mg126 O139 2.010 . S
O127 Mg126 2.028 . S
O127 C130 1.250 . S
O128 Mg129 2.028 . S
O128 C130 1.248 . S
Mg129 O128 2.028 . S
Mg129 O134 2.032 . S
Mg129 O136 2.079 . S
C130 O127 1.250 . S
C130 O128 1.248 . S
C131 O132 1.264 . S
C131 O139 1.249 . S
O132 C131 1.264 . S
O133 Mg126 1.986 . S
O133 C137 1.246 . S
O134 Mg129 2.032 . S
O134 C137 1.259 . S
O135 Mg126 2.114 . S
O135 C138 1.252 . S
O136 Mg126 2.251 . S
O136 Mg129 2.079 . S
O136 C138 1.273 . S
C137 O133 1.246 . S
C137 O134 1.259 . S
C138 O135 1.252 . S
C138 O136 1.273 . S
O139 Mg126 2.010 . S
O139 C131 1.249 . S
Mg140 O141 2.028 . S
Mg140 O147 1.986 . S
Mg140 O149 2.114 . S
Mg140 O150 2.251 . S
Mg140 O153 2.010 . S
O141 Mg140 2.028 . S
O141 C144 1.250 . S
O142 Mg143 2.028 . S
O142 C144 1.248 . S
Mg143 O142 2.028 . S
Mg143 O148 2.032 . S
Mg143 O150 2.079 . S
C144 O141 1.250 . S
C144 O142 1.248 . S
C145 O146 1.264 . S
C145 O153 1.249 . S
O146 C145 1.264 . S
O147 Mg140 1.986 . S
O147 C151 1.246 . S
O148 Mg143 2.032 . S
O148 C151 1.259 . S
O149 Mg140 2.114 . S
O149 C152 1.252 . S
O150 Mg140 2.251 . S
O150 Mg143 2.079 . S
O150 C152 1.273 . S
C151 O147 1.246 . S
C151 O148 1.259 . S
C152 O149 1.252 . S
C152 O150 1.273 . S
O153 Mg140 2.010 . S
O153 C145 1.249 . S
Mg154 O155 2.028 . S
Mg154 O161 1.986 . S
Mg154 O163 2.114 . S
Mg154 O164 2.251 . S
Mg154 O167 2.010 . S
O155 Mg154 2.028 . S
O155 C158 1.250 . S
O156 Mg157 2.028 . S
O156 C158 1.248 . S
Mg157 O156 2.028 . S
Mg157 O162 2.032 . S
Mg157 O164 2.079 . S
C158 O155 1.250 . S
C158 O156 1.248 . S
C159 O160 1.264 . S
C159 O167 1.249 . S
O160 C159 1.264 . S
O161 Mg154 1.986 . S
O161 C165 1.246 . S
O162 Mg157 2.032 . S
O162 C165 1.259 . S
O163 Mg154 2.114 . S
O163 C166 1.252 . S
O164 Mg154 2.251 . S
O164 Mg157 2.079 . S
O164 C166 1.273 . S
C165 O161 1.246 . S
C165 O162 1.259 . S
C166 O163 1.252 . S
C166 O164 1.273 . S
O167 Mg154 2.010 . S
O167 C159 1.249 . S
Mg168 O169 2.028 . S
Mg168 O175 1.986 . S
Mg168 O177 2.114 . S
Mg168 O178 2.251 . S
Mg168 O181 2.010 . S
O169 Mg168 2.028 . S
O169 C172 1.250 . S
O170 Mg171 2.028 . S
O170 C172 1.248 . S
Mg171 O170 2.028 . S
Mg171 O176 2.032 . S
Mg171 O178 2.079 . S
C172 O169 1.250 . S
C172 O170 1.248 . S
C173 O174 1.264 . S
C173 O181 1.249 . S
O174 C173 1.264 . S
O175 Mg168 1.986 . S
O175 C179 1.246 . S
O176 Mg171 2.032 . S
O176 C179 1.259 . S
O177 Mg168 2.114 . S
O177 C180 1.252 . S
O178 Mg168 2.251 . S
O178 Mg171 2.079 . S
O178 C180 1.273 . S
C179 O175 1.246 . S
C179 O176 1.259 . S
C180 O177 1.252 . S
C180 O178 1.273 . S
O181 Mg168 2.010 . S
O181 C173 1.249 . S
Mg182 O183 2.028 . S
Mg182 O189 1.986 . S
Mg182 O191 2.114 . S
Mg182 O192 2.251 . S
Mg182 O195 2.010 . S
O183 Mg182 2.028 . S
O183 C186 1.250 . S
O184 Mg185 2.028 . S
O184 C186 1.248 . S
Mg185 O184 2.028 . S
Mg185 O190 2.032 . S
Mg185 O192 2.079 . S
C186 O183 1.250 . S
C186 O184 1.248 . S
C187 O188 1.264 . S
C187 O195 1.249 . S
O188 C187 1.264 . S
O189 Mg182 1.986 . S
O189 C193 1.246 . S
O190 Mg185 2.032 . S
O190 C193 1.259 . S
O191 Mg182 2.114 . S
O191 C194 1.252 . S
O192 Mg182 2.251 . S
O192 Mg185 2.079 . S
O192 C194 1.273 . S
C193 O189 1.246 . S
C193 O190 1.259 . S
C194 O191 1.252 . S
C194 O192 1.273 . S
O195 Mg182 2.010 . S
O195 C187 1.249 . S
Mg196 O197 2.028 . S
Mg196 O203 1.986 . S
Mg196 O205 2.114 . S
Mg196 O206 2.251 . S
Mg196 O209 2.010 . S
O197 Mg196 2.028 . S
O197 C200 1.250 . S
O198 Mg199 2.028 . S
O198 C200 1.248 . S
Mg199 O198 2.028 . S
Mg199 O204 2.032 . S
Mg199 O206 2.079 . S
C200 O197 1.250 . S
C200 O198 1.248 . S
C201 O202 1.264 . S
C201 O209 1.249 . S
O202 C201 1.264 . S
O203 Mg196 1.986 . S
O203 C207 1.246 . S
O204 Mg199 2.032 . S
O204 C207 1.259 . S
O205 Mg196 2.114 . S
O205 C208 1.252 . S
O206 Mg196 2.251 . S
O206 Mg199 2.079 . S
O206 C208 1.273 . S
C207 O203 1.246 . S
C207 O204 1.259 . S
C208 O205 1.252 . S
C208 O206 1.273 . S
O209 Mg196 2.010 . S
O209 C201 1.249 . S
Mg210 O211 2.028 . S
Mg210 O217 1.986 . S
Mg210 O219 2.114 . S
Mg210 O220 2.251 . S
Mg210 O223 2.010 . S
O211 Mg210 2.028 . S
O211 C214 1.250 . S
O212 Mg213 2.028 . S
O212 C214 1.248 . S
Mg213 O212 2.028 . S
Mg213 O218 2.032 . S
Mg213 O220 2.079 . S
C214 O211 1.250 . S
C214 O212 1.248 . S
C215 O216 1.264 . S
C215 O223 1.249 . S
O216 C215 1.264 . S
O217 Mg210 1.986 . S
O217 C221 1.246 . S
O218 Mg213 2.032 . S
O218 C221 1.259 . S
O219 Mg210 2.114 . S
O219 C222 1.252 . S
O220 Mg210 2.251 . S
O220 Mg213 2.079 . S
O220 C222 1.273 . S
C221 O217 1.246 . S
C221 O218 1.259 . S
C222 O219 1.252 . S
C222 O220 1.273 . S
O223 Mg210 2.010 . S
O223 C215 1.249 . S
Mg224 O225 2.028 . S
Mg224 O231 1.986 . S
Mg224 O233 2.114 . S
Mg224 O234 2.251 . S
Mg224 O237 2.010 . S
O225 Mg224 2.028 . S
O225 C228 1.250 . S
O226 Mg227 2.028 . S
O226 C228 1.248 . S
Mg227 O226 2.028 . S
Mg227 O232 2.032 . S
Mg227 O234 2.079 . S
C228 O225 1.250 . S
C228 O226 1.248 . S
C229 O230 1.264 . S
C229 O237 1.249 . S
O230 C229 1.264 . S
O231 Mg224 1.986 . S
O231 C235 1.246 . S
O232 Mg227 2.032 . S
O232 C235 1.259 . S
O233 Mg224 2.114 . S
O233 C236 1.252 . S
O234 Mg224 2.251 . S
O234 Mg227 2.079 . S
O234 C236 1.273 . S
C235 O231 1.246 . S
C235 O232 1.259 . S
C236 O233 1.252 . S
C236 O234 1.273 . S
O237 Mg224 2.010 . S
O237 C229 1.249 . S
Mg238 O239 2.028 . S
Mg238 O245 1.986 . S
Mg238 O247 2.114 . S
Mg238 O248 2.251 . S
Mg238 O251 2.010 . S
O239 Mg238 2.028 . S
O239 C242 1.250 . S
O240 Mg241 2.028 . S
O240 C242 1.248 . S
Mg241 O240 2.028 . S
Mg241 O246 2.032 . S
Mg241 O248 2.079 . S
C242 O239 1.250 . S
C242 O240 1.248 . S
C243 O244 1.264 . S
C243 O251 1.249 . S
O244 C243 1.264 . S
O245 Mg238 1.986 . S
O245 C249 1.246 . S
O246 Mg241 2.032 . S
O246 C249 1.259 . S
O247 Mg238 2.114 . S
O247 C250 1.252 . S
O248 Mg238 2.251 . S
O248 Mg241 2.079 . S
O248 C250 1.273 . S
C249 O245 1.246 . S
C249 O246 1.259 . S
C250 O247 1.252 . S
C250 O248 1.273 . S
O251 Mg238 2.010 . S
O251 C243 1.249 . S
Mg252 O253 2.028 . S
Mg252 O259 1.986 . S
Mg252 O261 2.114 . S
Mg252 O262 2.251 . S
Mg252 O265 2.010 . S
O253 Mg252 2.028 . S
O253 C256 1.250 . S
O254 Mg255 2.028 . S
O254 C256 1.248 . S
Mg255 O254 2.028 . S
Mg255 O260 2.032 . S
Mg255 O262 2.079 . S
C256 O253 1.250 . S
C256 O254 1.248 . S
C257 O258 1.264 . S
C257 O265 1.249 . S
O258 C257 1.264 . S
O259 Mg252 1.986 . S
O259 C263 1.246 . S
O260 Mg255 2.032 . S
O260 C263 1.259 . S
O261 Mg252 2.114 . S
O261 C264 1.252 . S
O262 Mg252 2.251 . S
O262 Mg255 2.079 . S
O262 C264 1.273 . S
C263 O259 1.246 . S
C263 O260 1.259 . S
C264 O261 1.252 . S
C264 O262 1.273 . S
O265 Mg252 2.010 . S
O265 C257 1.249 . S
Mg266 O267 2.028 . S
Mg266 O273 1.986 . S
Mg266 O275 2.114 . S
Mg266 O276 2.251 . S
Mg266 O279 2.010 . S
O267 Mg266 2.028 . S
O267 C270 1.250 . S
O268 Mg269 2.028 . S
O268 C270 1.248 . S
Mg269 O268 2.028 . S
Mg269 O274 2.032 . S
Mg269 O276 2.079 . S
C270 O267 1.250 . S
C270 O268 1.248 . S
C271 O272 1.264 . S
C271 O279 1.249 . S
O272 C271 1.264 . S
O273 Mg266 1.986 . S
O273 C277 1.246 . S
O274 Mg269 2.032 . S
O274 C277 1.259 . S
O275 Mg266 2.114 . S
O275 C278 1.252 . S
O276 Mg266 2.251 . S
O276 Mg269 2.079 . S
O276 C278 1.273 . S
C277 O273 1.246 . S
C277 O274 1.259 . S
C278 O275 1.252 . S
C278 O276 1.273 . S
O279 Mg266 2.010 . S
O279 C271 1.249 . S
Mg280 O281 2.028 . S
Mg280 O287 1.986 . S
Mg280 O289 2.114 . S
Mg280 O290 2.251 . S
Mg280 O293 2.010 . S
O281 Mg280 2.028 . S
O281 C284 1.250 . S
O282 Mg283 2.028 . S
O282 C284 1.248 . S
Mg283 O282 2.028 . S
Mg283 O288 2.032 . S
Mg283 O290 2.079 . S
C284 O281 1.250 . S
C284 O282 1.248 . S
C285 O286 1.264 . S
C285 O293 1.249 . S
O286 C285 1.264 . S
O287 Mg280 1.986 . S
O287 C291 1.246 . S
O288 Mg283 2.032 . S
O288 C291 1.259 . S
O289 Mg280 2.114 . S
O289 C292 1.252 . S
O290 Mg280 2.251 . S
O290 Mg283 2.079 . S
O290 C292 1.273 . S
C291 O287 1.246 . S
C291 O288 1.259 . S
C292 O289 1.252 . S
C292 O290 1.273 . S
O293 Mg280 2.010 . S
O293 C285 1.249 . S
Mg294 O295 2.028 . S
Mg294 O301 1.986 . S
Mg294 O303 2.114 . S
Mg294 O304 2.251 . S
Mg294 O307 2.010 . S
O295 Mg294 2.028 . S
O295 C298 1.250 . S
O296 Mg297 2.028 . S
O296 C298 1.248 . S
Mg297 O296 2.028 . S
Mg297 O302 2.032 . S
Mg297 O304 2.079 . S
C298 O295 1.250 . S
C298 O296 1.248 . S
C299 O300 1.264 . S
C299 O307 1.249 . S
O300 C299 1.264 . S
O301 Mg294 1.986 . S
O301 C305 1.246 . S
O302 Mg297 2.032 . S
O302 C305 1.259 . S
O303 Mg294 2.114 . S
O303 C306 1.252 . S
O304 Mg294 2.251 . S
O304 Mg297 2.079 . S
O304 C306 1.273 . S
C305 O301 1.246 . S
C305 O302 1.259 . S
C306 O303 1.252 . S
C306 O304 1.273 . S
O307 Mg294 2.010 . S
O307 C299 1.249 . S
Mg308 O309 2.028 . S
Mg308 O315 1.986 . S
Mg308 O317 2.114 . S
Mg308 O318 2.251 . S
Mg308 O321 2.010 . S
O309 Mg308 2.028 . S
O309 C312 1.250 . S
O310 Mg311 2.028 . S
O310 C312 1.248 . S
Mg311 O310 2.028 . S
Mg311 O316 2.032 . S
Mg311 O318 2.079 . S
C312 O309 1.250 . S
C312 O310 1.248 . S
C313 O314 1.264 . S
C313 O321 1.249 . S
O314 C313 1.264 . S
O315 Mg308 1.986 . S
O315 C319 1.246 . S
O316 Mg311 2.032 . S
O316 C319 1.259 . S
O317 Mg308 2.114 . S
O317 C320 1.252 . S
O318 Mg308 2.251 . S
O318 Mg311 2.079 . S
O318 C320 1.273 . S
C319 O315 1.246 . S
C319 O316 1.259 . S
C320 O317 1.252 . S
C320 O318 1.273 . S
O321 Mg308 2.010 . S
O321 C313 1.249 . S
Mg322 O323 2.028 . S
Mg322 O329 1.986 . S
Mg322 O331 2.114 . S
Mg322 O332 2.251 . S
Mg322 O335 2.010 . S
O323 Mg322 2.028 . S
O323 C326 1.250 . S
O324 Mg325 2.028 . S
O324 C326 1.248 . S
Mg325 O324 2.028 . S
Mg325 O330 2.032 . S
Mg325 O332 2.079 . S
C326 O323 1.250 . S
C326 O324 1.248 . S
C327 O328 1.264 . S
C327 O335 1.249 . S
O328 C327 1.264 . S
O329 Mg322 1.986 . S
O329 C333 1.246 . S
O330 Mg325 2.032 . S
O330 C333 1.259 . S
O331 Mg322 2.114 . S
O331 C334 1.252 . S
O332 Mg322 2.251 . S
O332 Mg325 2.079 . S
O332 C334 1.273 . S
C333 O329 1.246 . S
C333 O330 1.259 . S
C334 O331 1.252 . S
C334 O332 1.273 . S
O335 Mg322 2.010 . S
O335 C327 1.249 . S
Mg336 O337 2.028 . S
Mg336 O343 1.986 . S
Mg336 O345 2.114 . S
Mg336 O346 2.251 . S
Mg336 O349 2.010 . S
O337 Mg336 2.028 . S
O337 C340 1.250 . S
O338 Mg339 2.028 . S
O338 C340 1.248 . S
Mg339 O338 2.028 . S
Mg339 O344 2.032 . S
Mg339 O346 2.079 . S
C340 O337 1.250 . S
C340 O338 1.248 . S
C341 O342 1.264 . S
C341 O349 1.249 . S
O342 C341 1.264 . S
O343 Mg336 1.986 . S
O343 C347 1.246 . S
O344 Mg339 2.032 . S
O344 C347 1.259 . S
O345 Mg336 2.114 . S
O345 C348 1.252 . S
O346 Mg336 2.251 . S
O346 Mg339 2.079 . S
O346 C348 1.273 . S
C347 O343 1.246 . S
C347 O344 1.259 . S
C348 O345 1.252 . S
C348 O346 1.273 . S
O349 Mg336 2.010 . S
O349 C341 1.249 . S
Mg350 O351 2.028 . S
Mg350 O357 1.986 . S
Mg350 O359 2.114 . S
Mg350 O360 2.251 . S
Mg350 O363 2.010 . S
O351 Mg350 2.028 . S
O351 C354 1.250 . S
O352 Mg353 2.028 . S
O352 C354 1.248 . S
Mg353 O352 2.028 . S
Mg353 O358 2.032 . S
Mg353 O360 2.079 . S
C354 O351 1.250 . S
C354 O352 1.248 . S
C355 O356 1.264 . S
C355 O363 1.249 . S
O356 C355 1.264 . S
O357 Mg350 1.986 . S
O357 C361 1.246 . S
O358 Mg353 2.032 . S
O358 C361 1.259 . S
O359 Mg350 2.114 . S
O359 C362 1.252 . S
O360 Mg350 2.251 . S
O360 Mg353 2.079 . S
O360 C362 1.273 . S
C361 O357 1.246 . S
C361 O358 1.259 . S
C362 O359 1.252 . S
C362 O360 1.273 . S
O363 Mg350 2.010 . S
O363 C355 1.249 . S
Mg364 O365 2.028 . S
Mg364 O371 1.986 . S
Mg364 O373 2.114 . S
Mg364 O374 2.251 . S
Mg364 O377 2.010 . S
O365 Mg364 2.028 . S
O365 C368 1.250 . S
O366 Mg367 2.028 . S
O366 C368 1.248 . S
Mg367 O366 2.028 . S
Mg367 O372 2.032 . S
Mg367 O374 2.079 . S
C368 O365 1.250 . S
C368 O366 1.248 . S
C369 O370 1.264 . S
C369 O377 1.249 . S
O370 C369 1.264 . S
O371 Mg364 1.986 . S
O371 C375 1.246 . S
O372 Mg367 2.032 . S
O372 C375 1.259 . S
O373 Mg364 2.114 . S
O373 C376 1.252 . S
O374 Mg364 2.251 . S
O374 Mg367 2.079 . S
O374 C376 1.273 . S
C375 O371 1.246 . S
C375 O372 1.259 . S
C376 O373 1.252 . S
C376 O374 1.273 . S
O377 Mg364 2.010 . S
O377 C369 1.249 . S
Mg378 O379 2.028 . S
Mg378 O385 1.986 . S
Mg378 O387 2.114 . S
Mg378 O388 2.251 . S
Mg378 O391 2.010 . S
O379 Mg378 2.028 . S
O379 C382 1.250 . S
O380 Mg381 2.028 . S
O380 C382 1.248 . S
Mg381 O380 2.028 . S
Mg381 O386 2.032 . S
Mg381 O388 2.079 . S
C382 O379 1.250 . S
C382 O380 1.248 . S
C383 O384 1.264 . S
C383 O391 1.249 . S
O384 C383 1.264 . S
O385 Mg378 1.986 . S
O385 C389 1.246 . S
O386 Mg381 2.032 . S
O386 C389 1.259 . S
O387 Mg378 2.114 . S
O387 C390 1.252 . S
O388 Mg378 2.251 . S
O388 Mg381 2.079 . S
O388 C390 1.273 . S
C389 O385 1.246 . S
C389 O386 1.259 . S
C390 O387 1.252 . S
C390 O388 1.273 . S
O391 Mg378 2.010 . S
O391 C383 1.249 . S
Mg392 O393 2.028 . S
Mg392 O399 1.986 . S
Mg392 O401 2.114 . S
Mg392 O402 2.251 . S
Mg392 O405 2.010 . S
O393 Mg392 2.028 . S
O393 C396 1.250 . S
O394 Mg395 2.028 . S
O394 C396 1.248 . S
Mg395 O394 2.028 . S
Mg395 O400 2.032 . S
Mg395 O402 2.079 . S
C396 O393 1.250 . S
C396 O394 1.248 . S
C397 O398 1.264 . S
C397 O405 1.249 . S
O398 C397 1.264 . S
O399 Mg392 1.986 . S
O399 C403 1.246 . S
O400 Mg395 2.032 . S
O400 C403 1.259 . S
O401 Mg392 2.114 . S
O401 C404 1.252 . S
O402 Mg392 2.251 . S
O402 Mg395 2.079 . S
O402 C404 1.273 . S
C403 O399 1.246 . S
C403 O400 1.259 . S
C404 O401 1.252 . S
C404 O402 1.273 . S
O405 Mg392 2.010 . S
O405 C397 1.249 . S
Mg406 O407 2.028 . S
Mg406 O413 1.986 . S
Mg406 O415 2.114 . S
Mg406 O416 2.251 . S
Mg406 O419 2.010 . S
O407 Mg406 2.028 . S
O407 C410 1.250 . S
O408 Mg409 2.028 . S
O408 C410 1.248 . S
Mg409 O408 2.028 . S
Mg409 O414 2.032 . S
Mg409 O416 2.079 . S
C410 O407 1.250 . S
C410 O408 1.248 . S
C411 O412 1.264 . S
C411 O419 1.249 . S
O412 C411 1.264 . S
O413 Mg406 1.986 . S
O413 C417 1.246 . S
O414 Mg409 2.032 . S
O414 C417 1.259 . S
O415 Mg406 2.114 . S
O415 C418 1.252 . S
O416 Mg406 2.251 . S
O416 Mg409 2.079 . S
O416 C418 1.273 . S
C417 O413 1.246 . S
C417 O414 1.259 . S
C418 O415 1.252 . S
C418 O416 1.273 . S
O419 Mg406 2.010 . S
O419 C411 1.249 . S
Mg420 O421 2.028 . S
Mg420 O427 1.986 . S
Mg420 O429 2.114 . S
Mg420 O430 2.251 . S
Mg420 O433 2.010 . S
O421 Mg420 2.028 . S
O421 C424 1.250 . S
O422 Mg423 2.028 . S
O422 C424 1.248 . S
Mg423 O422 2.028 . S
Mg423 O428 2.032 . S
Mg423 O430 2.079 . S
C424 O421 1.250 . S
C424 O422 1.248 . S
C425 O426 1.264 . S
C425 O433 1.249 . S
O426 C425 1.264 . S
O427 Mg420 1.986 . S
O427 C431 1.246 . S
O428 Mg423 2.032 . S
O428 C431 1.259 . S
O429 Mg420 2.114 . S
O429 C432 1.252 . S
O430 Mg420 2.251 . S
O430 Mg423 2.079 . S
O430 C432 1.273 . S
C431 O427 1.246 . S
C431 O428 1.259 . S
C432 O429 1.252 . S
C432 O430 1.273 . S
O433 Mg420 2.010 . S
O433 C425 1.249 . S
Mg434 O435 2.028 . S
Mg434 O441 1.986 . S
Mg434 O443 2.114 . S
Mg434 O444 2.251 . S
Mg434 O447 2.010 . S
O435 Mg434 2.028 . S
O435 C438 1.250 . S
O436 Mg437 2.028 . S
O436 C438 1.248 . S
Mg437 O436 2.028 . S
Mg437 O442 2.032 . S
Mg437 O444 2.079 . S
C438 O435 1.250 . S
C438 O436 1.248 . S
C439 O440 1.264 . S
C439 O447 1.249 . S
O440 C439 1.264 . S
O441 Mg434 1.986 . S
O441 C445 1.246 . S
O442 Mg437 2.032 . S
O442 C445 1.259 . S
O443 Mg434 2.114 . S
O443 C446 1.252 . S
O444 Mg434 2.251 . S
O444 Mg437 2.079 . S
O444 C446 1.273 . S
C445 O441 1.246 . S
C445 O442 1.259 . S
C446 O443 1.252 . S
C446 O444 1.273 . S
O447 Mg434 2.010 . S
O447 C439 1.249 . S
H448 C454 0.930 . S
H449 C457 0.930 . S
H450 C458 0.930 . S
H451 C459 0.930 . S
H452 C462 0.930 . S
H453 C463 0.930 . S
C454 H448 0.930 . S
C454 C455 1.355 . S
C454 C456 1.415 . S
C455 C454 1.355 . S
C455 C457 1.419 . S
C456 C454 1.415 . S
C456 C461 1.425 . S
C456 C463 1.409 . S
C457 H449 0.930 . S
C457 C455 1.419 . S
C457 C458 1.362 . S
C458 H450 0.930 . S
C458 C457 1.362 . S
C458 C461 1.409 . S
C459 H451 0.930 . S
C459 C460 1.355 . S
C459 C461 1.415 . S
C460 C459 1.355 . S
C460 C462 1.419 . S
C461 C456 1.425 . S
C461 C458 1.409 . S
C461 C459 1.415 . S
C462 H452 0.930 . S
C462 C460 1.419 . S
C462 C463 1.362 . S
C463 H453 0.930 . S
C463 C456 1.409 . S
C463 C462 1.362 . S
H464 C470 0.930 . S
H465 C473 0.930 . S
H466 C474 0.930 . S
H467 C475 0.930 . S
H468 C478 0.930 . S
H469 C479 0.930 . S
C470 H464 0.930 . S
C470 C471 1.355 . S
C470 C472 1.415 . S
C471 C470 1.355 . S
C471 C473 1.419 . S
C472 C470 1.415 . S
C472 C477 1.425 . S
C472 C479 1.409 . S
C473 H465 0.930 . S
C473 C471 1.419 . S
C473 C474 1.362 . S
C474 H466 0.930 . S
C474 C473 1.362 . S
C474 C477 1.409 . S
C475 H467 0.930 . S
C475 C476 1.355 . S
C475 C477 1.415 . S
C476 C475 1.355 . S
C476 C478 1.419 . S
C477 C472 1.425 . S
C477 C474 1.409 . S
C477 C475 1.415 . S
C478 H468 0.930 . S
C478 C476 1.419 . S
C478 C479 1.362 . S
C479 H469 0.930 . S
C479 C472 1.409 . S
C479 C478 1.362 . S
H480 C486 0.930 . S
H481 C489 0.930 . S
H482 C490 0.930 . S
H483 C491 0.930 . S
H484 C494 0.930 . S
H485 C495 0.930 . S
C486 H480 0.930 . S
C486 C487 1.355 . S
C486 C488 1.415 . S
C487 C486 1.355 . S
C487 C489 1.419 . S
C488 C486 1.415 . S
C488 C493 1.425 . S
C488 C495 1.409 . S
C489 H481 0.930 . S
C489 C487 1.419 . S
C489 C490 1.362 . S
C490 H482 0.930 . S
C490 C489 1.362 . S
C490 C493 1.409 . S
C491 H483 0.930 . S
C491 C492 1.355 . S
C491 C493 1.415 . S
C492 C491 1.355 . S
C492 C494 1.419 . S
C493 C488 1.425 . S
C493 C490 1.409 . S
C493 C491 1.415 . S
C494 H484 0.930 . S
C494 C492 1.419 . S
C494 C495 1.362 . S
C495 H485 0.930 . S
C495 C488 1.409 . S
C495 C494 1.362 . S
H496 C502 0.930 . S
H497 C505 0.930 . S
H498 C506 0.930 . S
H499 C507 0.930 . S
H500 C510 0.930 . S
H501 C511 0.930 . S
C502 H496 0.930 . S
C502 C503 1.355 . S
C502 C504 1.415 . S
C503 C502 1.355 . S
C503 C505 1.419 . S
C504 C502 1.415 . S
C504 C509 1.425 . S
C504 C511 1.409 . S
C505 H497 0.930 . S
C505 C503 1.419 . S
C505 C506 1.362 . S
C506 H498 0.930 . S
C506 C505 1.362 . S
C506 C509 1.409 . S
C507 H499 0.930 . S
C507 C508 1.355 . S
C507 C509 1.415 . S
C508 C507 1.355 . S
C508 C510 1.419 . S
C509 C504 1.425 . S
C509 C506 1.409 . S
C509 C507 1.415 . S
C510 H500 0.930 . S
C510 C508 1.419 . S
C510 C511 1.362 . S
C511 H501 0.930 . S
C511 C504 1.409 . S
C511 C510 1.362 . S
H512 C518 0.930 . S
H513 C521 0.930 . S
H514 C522 0.930 . S
H515 C523 0.930 . S
H516 C526 0.930 . S
H517 C527 0.930 . S
C518 H512 0.930 . S
C518 C519 1.355 . S
C518 C520 1.415 . S
C519 C518 1.355 . S
C519 C521 1.419 . S
C520 C518 1.415 . S
C520 C525 1.425 . S
C520 C527 1.409 . S
C521 H513 0.930 . S
C521 C519 1.419 . S
C521 C522 1.362 . S
C522 H514 0.930 . S
C522 C521 1.362 . S
C522 C525 1.409 . S
C523 H515 0.930 . S
C523 C524 1.355 . S
C523 C525 1.415 . S
C524 C523 1.355 . S
C524 C526 1.419 . S
C525 C520 1.425 . S
C525 C522 1.409 . S
C525 C523 1.415 . S
C526 H516 0.930 . S
C526 C524 1.419 . S
C526 C527 1.362 . S
C527 H517 0.930 . S
C527 C520 1.409 . S
C527 C526 1.362 . S
H528 C534 0.930 . S
H529 C537 0.930 . S
H530 C538 0.930 . S
H531 C539 0.930 . S
H532 C542 0.930 . S
H533 C543 0.930 . S
C534 H528 0.930 . S
C534 C535 1.355 . S
C534 C536 1.415 . S
C535 C534 1.355 . S
C535 C537 1.419 . S
C536 C534 1.415 . S
C536 C541 1.425 . S
C536 C543 1.409 . S
C537 H529 0.930 . S
C537 C535 1.419 . S
C537 C538 1.362 . S
C538 H530 0.930 . S
C538 C537 1.362 . S
C538 C541 1.409 . S
C539 H531 0.930 . S
C539 C540 1.355 . S
C539 C541 1.415 . S
C540 C539 1.355 . S
C540 C542 1.419 . S
C541 C536 1.425 . S
C541 C538 1.409 . S
C541 C539 1.415 . S
C542 H532 0.930 . S
C542 C540 1.419 . S
C542 C543 1.362 . S
C543 H533 0.930 . S
C543 C536 1.409 . S
C543 C542 1.362 . S
H544 C550 0.930 . S
H545 C553 0.930 . S
H546 C554 0.930 . S
H547 C555 0.930 . S
H548 C558 0.930 . S
H549 C559 0.930 . S
C550 H544 0.930 . S
C550 C551 1.355 . S
C550 C552 1.415 . S
C551 C550 1.355 . S
C551 C553 1.419 . S
C552 C550 1.415 . S
C552 C557 1.425 . S
C552 C559 1.409 . S
C553 H545 0.930 . S
C553 C551 1.419 . S
C553 C554 1.362 . S
C554 H546 0.930 . S
C554 C553 1.362 . S
C554 C557 1.409 . S
C555 H547 0.930 . S
C555 C556 1.355 . S
C555 C557 1.415 . S
C556 C555 1.355 . S
C556 C558 1.419 . S
C557 C552 1.425 . S
C557 C554 1.409 . S
C557 C555 1.415 . S
C558 H548 0.930 . S
C558 C556 1.419 . S
C558 C559 1.362 . S
C559 H549 0.930 . S
C559 C552 1.409 . S
C559 C558 1.362 . S
H560 C566 0.930 . S
H561 C569 0.930 . S
H562 C570 0.930 . S
H563 C571 0.930 . S
H564 C574 0.930 . S
H565 C575 0.930 . S
C566 H560 0.930 . S
C566 C567 1.355 . S
C566 C568 1.415 . S
C567 C566 1.355 . S
C567 C569 1.419 . S
C568 C566 1.415 . S
C568 C573 1.425 . S
C568 C575 1.409 . S
C569 H561 0.930 . S
C569 C567 1.419 . S
C569 C570 1.362 . S
C570 H562 0.930 . S
C570 C569 1.362 . S
C570 C573 1.409 . S
C571 H563 0.930 . S
C571 C572 1.355 . S
C571 C573 1.415 . S
C572 C571 1.355 . S
C572 C574 1.419 . S
C573 C568 1.425 . S
C573 C570 1.409 . S
C573 C571 1.415 . S
C574 H564 0.930 . S
C574 C572 1.419 . S
C574 C575 1.362 . S
C575 H565 0.930 . S
C575 C568 1.409 . S
C575 C574 1.362 . S
H576 C582 0.930 . S
H577 C585 0.930 . S
H578 C586 0.930 . S
H579 C587 0.930 . S
H580 C590 0.930 . S
H581 C591 0.930 . S
C582 H576 0.930 . S
C582 C583 1.355 . S
C582 C584 1.415 . S
C583 C582 1.355 . S
C583 C585 1.419 . S
C584 C582 1.415 . S
C584 C589 1.425 . S
C584 C591 1.409 . S
C585 H577 0.930 . S
C585 C583 1.419 . S
C585 C586 1.362 . S
C586 H578 0.930 . S
C586 C585 1.362 . S
C586 C589 1.409 . S
C587 H579 0.930 . S
C587 C588 1.355 . S
C587 C589 1.415 . S
C588 C587 1.355 . S
C588 C590 1.419 . S
C589 C584 1.425 . S
C589 C586 1.409 . S
C589 C587 1.415 . S
C590 H580 0.930 . S
C590 C588 1.419 . S
C590 C591 1.362 . S
C591 H581 0.930 . S
C591 C584 1.409 . S
C591 C590 1.362 . S
H592 C598 0.930 . S
H593 C601 0.930 . S
H594 C602 0.930 . S
H595 C603 0.930 . S
H596 C606 0.930 . S
H597 C607 0.930 . S
C598 H592 0.930 . S
C598 C599 1.355 . S
C598 C600 1.415 . S
C599 C598 1.355 . S
C599 C601 1.419 . S
C600 C598 1.415 . S
C600 C605 1.425 . S
C600 C607 1.409 . S
C601 H593 0.930 . S
C601 C599 1.419 . S
C601 C602 1.362 . S
C602 H594 0.930 . S
C602 C601 1.362 . S
C602 C605 1.409 . S
C603 H595 0.930 . S
C603 C604 1.355 . S
C603 C605 1.415 . S
C604 C603 1.355 . S
C604 C606 1.419 . S
C605 C600 1.425 . S
C605 C602 1.409 . S
C605 C603 1.415 . S
C606 H596 0.930 . S
C606 C604 1.419 . S
C606 C607 1.362 . S
C607 H597 0.930 . S
C607 C600 1.409 . S
C607 C606 1.362 . S
H608 C614 0.930 . S
H609 C617 0.930 . S
H610 C618 0.930 . S
H611 C619 0.930 . S
H612 C622 0.930 . S
H613 C623 0.930 . S
C614 H608 0.930 . S
C614 C615 1.355 . S
C614 C616 1.415 . S
C615 C614 1.355 . S
C615 C617 1.419 . S
C616 C614 1.415 . S
C616 C621 1.425 . S
C616 C623 1.409 . S
C617 H609 0.930 . S
C617 C615 1.419 . S
C617 C618 1.362 . S
C618 H610 0.930 . S
C618 C617 1.362 . S
C618 C621 1.409 . S
C619 H611 0.930 . S
C619 C620 1.355 . S
C619 C621 1.415 . S
C620 C619 1.355 . S
C620 C622 1.419 . S
C621 C616 1.425 . S
C621 C618 1.409 . S
C621 C619 1.415 . S
C622 H612 0.930 . S
C622 C620 1.419 . S
C622 C623 1.362 . S
C623 H613 0.930 . S
C623 C616 1.409 . S
C623 C622 1.362 . S
H624 C630 0.930 . S
H625 C633 0.930 . S
H626 C634 0.930 . S
H627 C635 0.930 . S
H628 C638 0.930 . S
H629 C639 0.930 . S
C630 H624 0.930 . S
C630 C631 1.355 . S
C630 C632 1.415 . S
C631 C630 1.355 . S
C631 C633 1.419 . S
C632 C630 1.415 . S
C632 C637 1.425 . S
C632 C639 1.409 . S
C633 H625 0.930 . S
C633 C631 1.419 . S
C633 C634 1.362 . S
C634 H626 0.930 . S
C634 C633 1.362 . S
C634 C637 1.409 . S
C635 H627 0.930 . S
C635 C636 1.355 . S
C635 C637 1.415 . S
C636 C635 1.355 . S
C636 C638 1.419 . S
C637 C632 1.425 . S
C637 C634 1.409 . S
C637 C635 1.415 . S
C638 H628 0.930 . S
C638 C636 1.419 . S
C638 C639 1.362 . S
C639 H629 0.930 . S
C639 C632 1.409 . S
C639 C638 1.362 . S
H640 C646 0.930 . S
H641 C649 0.930 . S
H642 C650 0.930 . S
H643 C651 0.930 . S
H644 C654 0.930 . S
H645 C655 0.930 . S
C646 H640 0.930 . S
C646 C647 1.355 . S
C646 C648 1.415 . S
C647 C646 1.355 . S
C647 C649 1.419 . S
C648 C646 1.415 . S
C648 C653 1.425 . S
C648 C655 1.409 . S
C649 H641 0.930 . S
C649 C647 1.419 . S
C649 C650 1.362 . S
C650 H642 0.930 . S
C650 C649 1.362 . S
C650 C653 1.409 . S
C651 H643 0.930 . S
C651 C652 1.355 . S
C651 C653 1.415 . S
C652 C651 1.355 . S
C652 C654 1.419 . S
C653 C648 1.425 . S
C653 C650 1.409 . S
C653 C651 1.415 . S
C654 H644 0.930 . S
C654 C652 1.419 . S
C654 C655 1.362 . S
C655 H645 0.930 . S
C655 C648 1.409 . S
C655 C654 1.362 . S
H656 C662 0.930 . S
H657 C665 0.930 . S
H658 C666 0.930 . S
H659 C667 0.930 . S
H660 C670 0.930 . S
H661 C671 0.930 . S
C662 H656 0.930 . S
C662 C663 1.355 . S
C662 C664 1.415 . S
C663 C662 1.355 . S
C663 C665 1.419 . S
C664 C662 1.415 . S
C664 C669 1.425 . S
C664 C671 1.409 . S
C665 H657 0.930 . S
C665 C663 1.419 . S
C665 C666 1.362 . S
C666 H658 0.930 . S
C666 C665 1.362 . S
C666 C669 1.409 . S
C667 H659 0.930 . S
C667 C668 1.355 . S
C667 C669 1.415 . S
C668 C667 1.355 . S
C668 C670 1.419 . S
C669 C664 1.425 . S
C669 C666 1.409 . S
C669 C667 1.415 . S
C670 H660 0.930 . S
C670 C668 1.419 . S
C670 C671 1.362 . S
C671 H661 0.930 . S
C671 C664 1.409 . S
C671 C670 1.362 . S
H672 C678 0.930 . S
H673 C681 0.930 . S
H674 C682 0.930 . S
H675 C683 0.930 . S
H676 C686 0.930 . S
H677 C687 0.930 . S
C678 H672 0.930 . S
C678 C679 1.355 . S
C678 C680 1.415 . S
C679 C678 1.355 . S
C679 C681 1.419 . S
C680 C678 1.415 . S
C680 C685 1.425 . S
C680 C687 1.409 . S
C681 H673 0.930 . S
C681 C679 1.419 . S
C681 C682 1.362 . S
C682 H674 0.930 . S
C682 C681 1.362 . S
C682 C685 1.409 . S
C683 H675 0.930 . S
C683 C684 1.355 . S
C683 C685 1.415 . S
C684 C683 1.355 . S
C684 C686 1.419 . S
C685 C680 1.425 . S
C685 C682 1.409 . S
C685 C683 1.415 . S
C686 H676 0.930 . S
C686 C684 1.419 . S
C686 C687 1.362 . S
C687 H677 0.930 . S
C687 C680 1.409 . S
C687 C686 1.362 . S
H688 C694 0.930 . S
H689 C697 0.930 . S
H690 C698 0.930 . S
H691 C699 0.930 . S
H692 C702 0.930 . S
H693 C703 0.930 . S
C694 H688 0.930 . S
C694 C695 1.355 . S
C694 C696 1.415 . S
C695 C694 1.355 . S
C695 C697 1.419 . S
C696 C694 1.415 . S
C696 C701 1.425 . S
C696 C703 1.409 . S
C697 H689 0.930 . S
C697 C695 1.419 . S
C697 C698 1.362 . S
C698 H690 0.930 . S
C698 C697 1.362 . S
C698 C701 1.409 . S
C699 H691 0.930 . S
C699 C700 1.355 . S
C699 C701 1.415 . S
C700 C699 1.355 . S
C700 C702 1.419 . S
C701 C696 1.425 . S
C701 C698 1.409 . S
C701 C699 1.415 . S
C702 H692 0.930 . S
C702 C700 1.419 . S
C702 C703 1.362 . S
C703 H693 0.930 . S
C703 C696 1.409 . S
C703 C702 1.362 . S
H704 C710 0.930 . S
H705 C713 0.930 . S
H706 C714 0.930 . S
H707 C715 0.930 . S
H708 C718 0.930 . S
H709 C719 0.930 . S
C710 H704 0.930 . S
C710 C711 1.355 . S
C710 C712 1.415 . S
C711 C710 1.355 . S
C711 C713 1.419 . S
C712 C710 1.415 . S
C712 C717 1.425 1_455 S
C712 C719 1.409 1_455 S
C713 H705 0.930 . S
C713 C711 1.419 . S
C713 C714 1.362 . S
C714 H706 0.930 . S
C714 C713 1.362 . S
C714 C717 1.409 1_455 S
C715 H707 0.930 . S
C715 C716 1.355 . S
C715 C717 1.415 . S
C716 C715 1.355 . S
C716 C718 1.419 . S
C717 C712 1.425 1_655 S
C717 C714 1.409 1_655 S
C717 C715 1.415 . S
C718 H708 0.930 . S
C718 C716 1.419 . S
C718 C719 1.362 . S
C719 H709 0.930 . S
C719 C712 1.409 1_655 S
C719 C718 1.362 . S
H720 C726 0.930 . S
H721 C729 0.930 . S
H722 C730 0.930 . S
H723 C731 0.930 . S
H724 C734 0.930 . S
H725 C735 0.930 . S
C726 H720 0.930 . S
C726 C727 1.355 . S
C726 C728 1.415 . S
C727 C726 1.355 . S
C727 C729 1.419 . S
C728 C726 1.415 . S
C728 C733 1.425 . S
C728 C735 1.409 . S
C729 H721 0.930 . S
C729 C727 1.419 . S
C729 C730 1.362 . S
C730 H722 0.930 . S
C730 C729 1.362 . S
C730 C733 1.409 . S
C731 H723 0.930 . S
C731 C732 1.355 . S
C731 C733 1.415 . S
C732 C731 1.355 . S
C732 C734 1.419 . S
C733 C728 1.425 . S
C733 C730 1.409 . S
C733 C731 1.415 . S
C734 H724 0.930 . S
C734 C732 1.419 . S
C734 C735 1.362 . S
C735 H725 0.930 . S
C735 C728 1.409 . S
C735 C734 1.362 . S
H736 C742 0.930 . S
H737 C745 0.930 . S
H738 C746 0.930 . S
H739 C747 0.930 . S
H740 C750 0.930 . S
H741 C751 0.930 . S
C742 H736 0.930 . S
C742 C743 1.355 . S
C742 C744 1.415 . S
C743 C742 1.355 . S
C743 C745 1.419 . S
C744 C742 1.415 . S
C744 C749 1.425 . S
C744 C751 1.409 . S
C745 H737 0.930 . S
C745 C743 1.419 . S
C745 C746 1.362 . S
C746 H738 0.930 . S
C746 C745 1.362 . S
C746 C749 1.409 . S
C747 H739 0.930 . S
C747 C748 1.355 . S
C747 C749 1.415 . S
C748 C747 1.355 . S
C748 C750 1.419 . S
C749 C744 1.425 . S
C749 C746 1.409 . S
C749 C747 1.415 . S
C750 H740 0.930 . S
C750 C748 1.419 . S
C750 C751 1.362 . S
C751 H741 0.930 . S
C751 C744 1.409 . S
C751 C750 1.362 . S
H752 C758 0.930 . S
H753 C761 0.930 . S
H754 C762 0.930 . S
H755 C763 0.930 . S
H756 C766 0.930 . S
H757 C767 0.930 . S
C758 H752 0.930 . S
C758 C759 1.355 . S
C758 C760 1.415 . S
C759 C758 1.355 . S
C759 C761 1.419 . S
C760 C758 1.415 . S
C760 C765 1.425 . S
C760 C767 1.409 . S
C761 H753 0.930 . S
C761 C759 1.419 . S
C761 C762 1.362 . S
C762 H754 0.930 . S
C762 C761 1.362 . S
C762 C765 1.409 . S
C763 H755 0.930 . S
C763 C764 1.355 . S
C763 C765 1.415 . S
C764 C763 1.355 . S
C764 C766 1.419 . S
C765 C760 1.425 . S
C765 C762 1.409 . S
C765 C763 1.415 . S
C766 H756 0.930 . S
C766 C764 1.419 . S
C766 C767 1.362 . S
C767 H757 0.930 . S
C767 C760 1.409 . S
C767 C766 1.362 . S
H768 C774 0.930 . S
H769 C777 0.930 . S
H770 C778 0.930 . S
H771 C779 0.930 . S
H772 C782 0.930 . S
H773 C783 0.930 . S
C774 H768 0.930 . S
C774 C775 1.355 . S
C774 C776 1.415 . S
C775 C774 1.355 . S
C775 C777 1.419 . S
C776 C774 1.415 . S
C776 C781 1.425 1_655 S
C776 C783 1.409 1_655 S
C777 H769 0.930 . S
C777 C775 1.419 . S
C777 C778 1.362 . S
C778 H770 0.930 . S
C778 C777 1.362 . S
C778 C781 1.409 1_655 S
C779 H771 0.930 . S
C779 C780 1.355 . S
C779 C781 1.415 . S
C780 C779 1.355 . S
C780 C782 1.419 . S
C781 C776 1.425 1_455 S
C781 C778 1.409 1_455 S
C781 C779 1.415 . S
C782 H772 0.930 . S
C782 C780 1.419 . S
C782 C783 1.362 . S
C783 H773 0.930 . S
C783 C776 1.409 1_455 S
C783 C782 1.362 . S
H784 C790 0.930 . S
H785 C793 0.930 . S
H786 C794 0.930 . S
H787 C795 0.930 . S
H788 C798 0.930 . S
H789 C799 0.930 . S
C790 H784 0.930 . S
C790 C791 1.355 . S
C790 C792 1.415 . S
C791 C790 1.355 . S
C791 C793 1.419 . S
C792 C790 1.415 . S
C792 C797 1.425 . S
C792 C799 1.409 . S
C793 H785 0.930 . S
C793 C791 1.419 . S
C793 C794 1.362 . S
C794 H786 0.930 . S
C794 C793 1.362 . S
C794 C797 1.409 . S
C795 H787 0.930 . S
C795 C796 1.355 . S
C795 C797 1.415 . S
C796 C795 1.355 . S
C796 C798 1.419 . S
C797 C792 1.425 . S
C797 C794 1.409 . S
C797 C795 1.415 . S
C798 H788 0.930 . S
C798 C796 1.419 . S
C798 C799 1.362 . S
C799 H789 0.930 . S
C799 C792 1.409 . S
C799 C798 1.362 . S
H800 C806 0.930 . S
H801 C809 0.930 . S
H802 C810 0.930 . S
H803 C811 0.930 . S
H804 C814 0.930 . S
H805 C815 0.930 . S
C806 H800 0.930 . S
C806 C807 1.355 . S
C806 C808 1.415 . S
C807 C806 1.355 . S
C807 C809 1.419 . S
C808 C806 1.415 . S
C808 C813 1.425 . S
C808 C815 1.409 . S
C809 H801 0.930 . S
C809 C807 1.419 . S
C809 C810 1.362 . S
C810 H802 0.930 . S
C810 C809 1.362 . S
C810 C813 1.409 . S
C811 H803 0.930 . S
C811 C812 1.355 . S
C811 C813 1.415 . S
C812 C811 1.355 . S
C812 C814 1.419 . S
C813 C808 1.425 . S
C813 C810 1.409 . S
C813 C811 1.415 . S
C814 H804 0.930 . S
C814 C812 1.419 . S
C814 C815 1.362 . S
C815 H805 0.930 . S
C815 C808 1.409 . S
C815 C814 1.362 . S
H816 C822 0.930 . S
H817 C825 0.930 . S
H818 C826 0.930 . S
H819 C827 0.930 . S
H820 C830 0.930 . S
H821 C831 0.930 . S
C822 H816 0.930 . S
C822 C823 1.355 . S
C822 C824 1.415 . S
C823 C822 1.355 . S
C823 C825 1.419 . S
C824 C822 1.415 . S
C824 C829 1.425 . S
C824 C831 1.409 . S
C825 H817 0.930 . S
C825 C823 1.419 . S
C825 C826 1.362 . S
C826 H818 0.930 . S
C826 C825 1.362 . S
C826 C829 1.409 . S
C827 H819 0.930 . S
C827 C828 1.355 . S
C827 C829 1.415 . S
C828 C827 1.355 . S
C828 C830 1.419 . S
C829 C824 1.425 . S
C829 C826 1.409 . S
C829 C827 1.415 . S
C830 H820 0.930 . S
C830 C828 1.419 . S
C830 C831 1.362 . S
C831 H821 0.930 . S
C831 C824 1.409 . S
C831 C830 1.362 . S
H832 C838 0.930 . S
H833 C841 0.930 . S
H834 C842 0.930 . S
H835 C843 0.930 . S
H836 C846 0.930 . S
H837 C847 0.930 . S
C838 H832 0.930 . S
C838 C839 1.355 . S
C838 C840 1.415 . S
C839 C838 1.355 . S
C839 C841 1.419 . S
C840 C838 1.415 . S
C840 C845 1.425 . S
C840 C847 1.409 . S
C841 H833 0.930 . S
C841 C839 1.419 . S
C841 C842 1.362 . S
C842 H834 0.930 . S
C842 C841 1.362 . S
C842 C845 1.409 . S
C843 H835 0.930 . S
C843 C844 1.355 . S
C843 C845 1.415 . S
C844 C843 1.355 . S
C844 C846 1.419 . S
C845 C840 1.425 . S
C845 C842 1.409 . S
C845 C843 1.415 . S
C846 H836 0.930 . S
C846 C844 1.419 . S
C846 C847 1.362 . S
C847 H837 0.930 . S
C847 C840 1.409 . S
C847 C846 1.362 . S
H848 C854 0.930 . S
H849 C857 0.930 . S
H850 C858 0.930 . S
H851 C859 0.930 . S
H852 C862 0.930 . S
H853 C863 0.930 . S
C854 H848 0.930 . S
C854 C855 1.355 . S
C854 C856 1.415 . S
C855 C854 1.355 . S
C855 C857 1.419 . S
C856 C854 1.415 . S
C856 C861 1.425 . S
C856 C863 1.409 . S
C857 H849 0.930 . S
C857 C855 1.419 . S
C857 C858 1.362 . S
C858 H850 0.930 . S
C858 C857 1.362 . S
C858 C861 1.409 . S
C859 H851 0.930 . S
C859 C860 1.355 . S
C859 C861 1.415 . S
C860 C859 1.355 . S
C860 C862 1.419 . S
C861 C856 1.425 . S
C861 C858 1.409 . S
C861 C859 1.415 . S
C862 H852 0.930 . S
C862 C860 1.419 . S
C862 C863 1.362 . S
C863 H853 0.930 . S
C863 C856 1.409 . S
C863 C862 1.362 . S
H864 C870 0.930 . S
H865 C873 0.930 . S
H866 C874 0.930 . S
H867 C875 0.930 . S
H868 C878 0.930 . S
H869 C879 0.930 . S
C870 H864 0.930 . S
C870 C871 1.355 . S
C870 C872 1.415 . S
C871 C870 1.355 . S
C871 C873 1.419 . S
C872 C870 1.415 . S
C872 C877 1.425 . S
C872 C879 1.409 . S
C873 H865 0.930 . S
C873 C871 1.419 . S
C873 C874 1.362 . S
C874 H866 0.930 . S
C874 C873 1.362 . S
C874 C877 1.409 . S
C875 H867 0.930 . S
C875 C876 1.355 . S
C875 C877 1.415 . S
C876 C875 1.355 . S
C876 C878 1.419 . S
C877 C872 1.425 . S
C877 C874 1.409 . S
C877 C875 1.415 . S
C878 H868 0.930 . S
C878 C876 1.419 . S
C878 C879 1.362 . S
C879 H869 0.930 . S
C879 C872 1.409 . S
C879 C878 1.362 . S
H880 C886 0.930 . S
H881 C889 0.930 . S
H882 C890 0.930 . S
H883 C891 0.930 . S
H884 C894 0.930 . S
H885 C895 0.930 . S
C886 H880 0.930 . S
C886 C887 1.355 . S
C886 C888 1.415 . S
C887 C886 1.355 . S
C887 C889 1.419 . S
C888 C886 1.415 . S
C888 C893 1.425 . S
C888 C895 1.409 . S
C889 H881 0.930 . S
C889 C887 1.419 . S
C889 C890 1.362 . S
C890 H882 0.930 . S
C890 C889 1.362 . S
C890 C893 1.409 . S
C891 H883 0.930 . S
C891 C892 1.355 . S
C891 C893 1.415 . S
C892 C891 1.355 . S
C892 C894 1.419 . S
C893 C888 1.425 . S
C893 C890 1.409 . S
C893 C891 1.415 . S
C894 H884 0.930 . S
C894 C892 1.419 . S
C894 C895 1.362 . S
C895 H885 0.930 . S
C895 C888 1.409 . S
C895 C894 1.362 . S
H896 C902 0.930 . S
H897 C905 0.930 . S
H898 C906 0.930 . S
H899 C907 0.930 . S
H900 C910 0.930 . S
H901 C911 0.930 . S
C902 H896 0.930 . S
C902 C903 1.355 . S
C902 C904 1.415 . S
C903 C902 1.355 . S
C903 C905 1.419 . S
C904 C902 1.415 . S
C904 C909 1.425 . S
C904 C911 1.409 . S
C905 H897 0.930 . S
C905 C903 1.419 . S
C905 C906 1.362 . S
C906 H898 0.930 . S
C906 C905 1.362 . S
C906 C909 1.409 . S
C907 H899 0.930 . S
C907 C908 1.355 . S
C907 C909 1.415 . S
C908 C907 1.355 . S
C908 C910 1.419 . S
C909 C904 1.425 . S
C909 C906 1.409 . S
C909 C907 1.415 . S
C910 H900 0.930 . S
C910 C908 1.419 . S
C910 C911 1.362 . S
C911 H901 0.930 . S
C911 C904 1.409 . S
C911 C910 1.362 . S
H912 C918 0.930 . S
H913 C921 0.930 . S
H914 C922 0.930 . S
H915 C923 0.930 . S
H916 C926 0.930 . S
H917 C927 0.930 . S
C918 H912 0.930 . S
C918 C919 1.355 . S
C918 C920 1.415 . S
C919 C918 1.355 . S
C919 C921 1.419 . S
C920 C918 1.415 . S
C920 C925 1.425 1_655 S
C920 C927 1.409 1_655 S
C921 H913 0.930 . S
C921 C919 1.419 . S
C921 C922 1.362 . S
C922 H914 0.930 . S
C922 C921 1.362 . S
C922 C925 1.409 1_655 S
C923 H915 0.930 . S
C923 C924 1.355 . S
C923 C925 1.415 . S
C924 C923 1.355 . S
C924 C926 1.419 . S
C925 C920 1.425 1_455 S
C925 C922 1.409 1_455 S
C925 C923 1.415 . S
C926 H916 0.930 . S
C926 C924 1.419 . S
C926 C927 1.362 . S
C927 H917 0.930 . S
C927 C920 1.409 1_455 S
C927 C926 1.362 . S
H928 C934 0.930 . S
H929 C937 0.930 . S
H930 C938 0.930 . S
H931 C939 0.930 . S
H932 C942 0.930 . S
H933 C943 0.930 . S
C934 H928 0.930 . S
C934 C935 1.355 . S
C934 C936 1.415 . S
C935 C934 1.355 . S
C935 C937 1.419 . S
C936 C934 1.415 . S
C936 C941 1.425 . S
C936 C943 1.409 . S
C937 H929 0.930 . S
C937 C935 1.419 . S
C937 C938 1.362 . S
C938 H930 0.930 . S
C938 C937 1.362 . S
C938 C941 1.409 . S
C939 H931 0.930 . S
C939 C940 1.355 . S
C939 C941 1.415 . S
C940 C939 1.355 . S
C940 C942 1.419 . S
C941 C936 1.425 . S
C941 C938 1.409 . S
C941 C939 1.415 . S
C942 H932 0.930 . S
C942 C940 1.419 . S
C942 C943 1.362 . S
C943 H933 0.930 . S
C943 C936 1.409 . S
C943 C942 1.362 . S
H944 C950 0.930 . S
H945 C953 0.930 . S
H946 C954 0.930 . S
H947 C955 0.930 . S
H948 C958 0.930 . S
H949 C959 0.930 . S
C950 H944 0.930 . S
C950 C951 1.355 . S
C950 C952 1.415 . S
C951 C950 1.355 . S
C951 C953 1.419 . S
C952 C950 1.415 . S
C952 C957 1.425 1_455 S
C952 C959 1.409 1_455 S
C953 H945 0.930 . S
C953 C951 1.419 . S
C953 C954 1.362 . S
C954 H946 0.930 . S
C954 C953 1.362 . S
C954 C957 1.409 1_455 S
C955 H947 0.930 . S
C955 C956 1.355 . S
C955 C957 1.415 . S
C956 C955 1.355 . S
C956 C958 1.419 . S
C957 C952 1.425 1_655 S
C957 C954 1.409 1_655 S
C957 C955 1.415 . S
C958 H948 0.930 . S
C958 C956 1.419 . S
C958 C959 1.362 . S
C959 H949 0.930 . S
C959 C952 1.409 1_655 S
C959 C958 1.362 . S
H960 C966 0.930 . S
H961 C969 0.930 . S
H962 C970 0.930 . S
H963 C971 0.930 . S
H964 C974 0.930 . S
H965 C975 0.930 . S
C966 H960 0.930 . S
C966 C967 1.355 . S
C966 C968 1.415 . S
C967 C966 1.355 . S
C967 C969 1.419 . S
C968 C966 1.415 . S
C968 C973 1.425 1_556 S
C968 C975 1.409 . S
C969 H961 0.930 . S
C969 C967 1.419 . S
C969 C970 1.362 1_556 S
C970 H962 0.930 . S
C970 C969 1.362 1_554 S
C970 C973 1.409 . S
C971 H963 0.930 . S
C971 C972 1.355 . S
C971 C973 1.415 . S
C972 C971 1.355 . S
C972 C974 1.419 . S
C973 C968 1.425 1_554 S
C973 C970 1.409 . S
C973 C971 1.415 . S
C974 H964 0.930 . S
C974 C972 1.419 . S
C974 C975 1.362 1_554 S
C975 H965 0.930 . S
C975 C968 1.409 . S
C975 C974 1.362 1_556 S
H976 C982 0.930 . S
H977 C985 0.930 . S
H978 C986 0.930 . S
H979 C987 0.930 . S
H980 C990 0.930 . S
H981 C991 0.930 . S
C982 H976 0.930 . S
C982 C983 1.355 . S
C982 C984 1.415 . S
C983 C982 1.355 . S
C983 C985 1.419 . S
C984 C982 1.415 . S
C984 C989 1.425 . S
C984 C991 1.409 . S
C985 H977 0.930 . S
C985 C983 1.419 . S
C985 C986 1.362 . S
C986 H978 0.930 . S
C986 C985 1.362 . S
C986 C989 1.409 . S
C987 H979 0.930 . S
C987 C988 1.355 . S
C987 C989 1.415 . S
C988 C987 1.355 . S
C988 C990 1.419 . S
C989 C984 1.425 . S
C989 C986 1.409 . S
C989 C987 1.415 . S
C990 H980 0.930 . S
C990 C988 1.419 . S
C990 C991 1.362 . S
C991 H981 0.930 . S
C991 C984 1.409 . S
C991 C990 1.362 . S
H992 C998 0.930 . S
H993 C1001 0.930 . S
H994 C1002 0.930 . S
H995 C1003 0.930 . S
H996 C1006 0.930 . S
H997 C1007 0.930 . S
C998 H992 0.930 . S
C998 C999 1.355 . S
C998 C1000 1.415 . S
C999 C998 1.355 . S
C999 C1001 1.419 . S
C1000 C998 1.415 . S
C1000 C1005 1.425 . S
C1000 C1007 1.409 . S
C1001 H993 0.930 . S
C1001 C999 1.419 . S
C1001 C1002 1.362 . S
C1002 H994 0.930 . S
C1002 C1001 1.362 . S
C1002 C1005 1.409 . S
C1003 H995 0.930 . S
C1003 C1004 1.355 . S
C1003 C1005 1.415 . S
C1004 C1003 1.355 . S
C1004 C1006 1.419 . S
C1005 C1000 1.425 . S
C1005 C1002 1.409 . S
C1005 C1003 1.415 . S
C1006 H996 0.930 . S
C1006 C1004 1.419 . S
C1006 C1007 1.362 . S
C1007 H997 0.930 . S
C1007 C1000 1.409 . S
C1007 C1006 1.362 . S
H1008 C1014 0.930 . S
H1009 C1017 0.930 . S
H1010 C1018 0.930 . S
H1011 C1019 0.930 . S
H1012 C1022 0.930 . S
H1013 C1023 0.930 . S
C1014 H1008 0.930 . S
C1014 C1015 1.355 . S
C1014 C1016 1.415 . S
C1015 C1014 1.355 . S
C1015 C1017 1.419 . S
C1016 C1014 1.415 . S
C1016 C1021 1.425 . S
C1016 C1023 1.409 . S
C1017 H1009 0.930 . S
C1017 C1015 1.419 . S
C1017 C1018 1.362 . S
C1018 H1010 0.930 . S
C1018 C1017 1.362 . S
C1018 C1021 1.409 . S
C1019 H1011 0.930 . S
C1019 C1020 1.355 . S
C1019 C1021 1.415 . S
C1020 C1019 1.355 . S
C1020 C1022 1.419 . S
C1021 C1016 1.425 . S
C1021 C1018 1.409 . S
C1021 C1019 1.415 . S
C1022 H1012 0.930 . S
C1022 C1020 1.419 . S
C1022 C1023 1.362 . S
C1023 H1013 0.930 . S
C1023 C1016 1.409 . S
C1023 C1022 1.362 . S
H1024 C1030 0.930 . S
H1025 C1033 0.930 . S
H1026 C1034 0.930 . S
H1027 C1035 0.930 . S
H1028 C1038 0.930 . S
H1029 C1039 0.930 . S
C1030 H1024 0.930 . S
C1030 C1031 1.355 . S
C1030 C1032 1.415 . S
C1031 C1030 1.355 . S
C1031 C1033 1.419 . S
C1032 C1030 1.415 . S
C1032 C1037 1.425 1_554 S
C1032 C1039 1.409 . S
C1033 H1025 0.930 . S
C1033 C1031 1.419 . S
C1033 C1034 1.362 1_554 S
C1034 H1026 0.930 . S
C1034 C1033 1.362 1_556 S
C1034 C1037 1.409 . S
C1035 H1027 0.930 . S
C1035 C1036 1.355 . S
C1035 C1037 1.415 . S
C1036 C1035 1.355 . S
C1036 C1038 1.419 . S
C1037 C1032 1.425 1_556 S
C1037 C1034 1.409 . S
C1037 C1035 1.415 . S
C1038 H1028 0.930 . S
C1038 C1036 1.419 . S
C1038 C1039 1.362 1_556 S
C1039 H1029 0.930 . S
C1039 C1032 1.409 . S
C1039 C1038 1.362 1_554 S
H1040 C1046 0.930 . S
H1041 C1049 0.930 . S
H1042 C1050 0.930 . S
H1043 C1051 0.930 . S
H1044 C1054 0.930 . S
H1045 C1055 0.930 . S
C1046 H1040 0.930 . S
C1046 C1047 1.355 . S
C1046 C1048 1.415 . S
C1047 C1046 1.355 . S
C1047 C1049 1.419 . S
C1048 C1046 1.415 . S
C1048 C1053 1.425 . S
C1048 C1055 1.409 . S
C1049 H1041 0.930 . S
C1049 C1047 1.419 . S
C1049 C1050 1.362 . S
C1050 H1042 0.930 . S
C1050 C1049 1.362 . S
C1050 C1053 1.409 . S
C1051 H1043 0.930 . S
C1051 C1052 1.355 . S
C1051 C1053 1.415 . S
C1052 C1051 1.355 . S
C1052 C1054 1.419 . S
C1053 C1048 1.425 . S
C1053 C1050 1.409 . S
C1053 C1051 1.415 . S
C1054 H1044 0.930 . S
C1054 C1052 1.419 . S
C1054 C1055 1.362 . S
C1055 H1045 0.930 . S
C1055 C1048 1.409 . S
C1055 C1054 1.362 . S
H1056 C1062 0.930 . S
H1057 C1065 0.930 . S
H1058 C1066 0.930 . S
H1059 C1067 0.930 . S
H1060 C1070 0.930 . S
H1061 C1071 0.930 . S
C1062 H1056 0.930 . S
C1062 C1063 1.355 . S
C1062 C1064 1.415 . S
C1063 C1062 1.355 . S
C1063 C1065 1.419 . S
C1064 C1062 1.415 . S
C1064 C1069 1.425 . S
C1064 C1071 1.409 . S
C1065 H1057 0.930 . S
C1065 C1063 1.419 . S
C1065 C1066 1.362 . S
C1066 H1058 0.930 . S
C1066 C1065 1.362 . S
C1066 C1069 1.409 . S
C1067 H1059 0.930 . S
C1067 C1068 1.355 . S
C1067 C1069 1.415 . S
C1068 C1067 1.355 . S
C1068 C1070 1.419 . S
C1069 C1064 1.425 . S
C1069 C1066 1.409 . S
C1069 C1067 1.415 . S
C1070 H1060 0.930 . S
C1070 C1068 1.419 . S
C1070 C1071 1.362 . S
C1071 H1061 0.930 . S
C1071 C1064 1.409 . S
C1071 C1070 1.362 . S
H1072 C1078 0.930 . S
H1073 C1081 0.930 . S
H1074 C1082 0.930 . S
H1075 C1083 0.930 . S
H1076 C1086 0.930 . S
H1077 C1087 0.930 . S
C1078 H1072 0.930 . S
C1078 C1079 1.355 . S
C1078 C1080 1.415 . S
C1079 C1078 1.355 . S
C1079 C1081 1.419 . S
C1080 C1078 1.415 . S
C1080 C1085 1.425 . S
C1080 C1087 1.409 . S
C1081 H1073 0.930 . S
C1081 C1079 1.419 . S
C1081 C1082 1.362 . S
C1082 H1074 0.930 . S
C1082 C1081 1.362 . S
C1082 C1085 1.409 . S
C1083 H1075 0.930 . S
C1083 C1084 1.355 . S
C1083 C1085 1.415 . S
C1084 C1083 1.355 . S
C1084 C1086 1.419 . S
C1085 C1080 1.425 . S
C1085 C1082 1.409 . S
C1085 C1083 1.415 . S
C1086 H1076 0.930 . S
C1086 C1084 1.419 . S
C1086 C1087 1.362 . S
C1087 H1077 0.930 . S
C1087 C1080 1.409 . S
C1087 C1086 1.362 . S
H1088 C1094 0.930 . S
H1089 C1097 0.930 . S
H1090 C1098 0.930 . S
H1091 C1099 0.930 . S
H1092 C1102 0.930 . S
H1093 C1103 0.930 . S
C1094 H1088 0.930 . S
C1094 C1095 1.355 . S
C1094 C1096 1.415 1_545 S
C1095 C1094 1.355 . S
C1095 C1097 1.419 . S
C1096 C1094 1.415 1_565 S
C1096 C1101 1.425 1_565 S
C1096 C1103 1.409 . S
C1097 H1089 0.930 . S
C1097 C1095 1.419 . S
C1097 C1098 1.362 . S
C1098 H1090 0.930 . S
C1098 C1097 1.362 . S
C1098 C1101 1.409 . S
C1099 H1091 0.930 . S
C1099 C1100 1.355 . S
C1099 C1101 1.415 1_565 S
C1100 C1099 1.355 . S
C1100 C1102 1.419 . S
C1101 C1096 1.425 1_545 S
C1101 C1098 1.409 . S
C1101 C1099 1.415 1_545 S
C1102 H1092 0.930 . S
C1102 C1100 1.419 . S
C1102 C1103 1.362 . S
C1103 H1093 0.930 . S
C1103 C1096 1.409 . S
C1103 C1102 1.362 . S
H1104 C1110 0.930 . S
H1105 C1113 0.930 . S
H1106 C1114 0.930 . S
H1107 C1115 0.930 . S
H1108 C1118 0.930 . S
H1109 C1119 0.930 . S
C1110 H1104 0.930 . S
C1110 C1111 1.355 . S
C1110 C1112 1.415 . S
C1111 C1110 1.355 . S
C1111 C1113 1.419 . S
C1112 C1110 1.415 . S
C1112 C1117 1.425 . S
C1112 C1119 1.409 . S
C1113 H1105 0.930 . S
C1113 C1111 1.419 . S
C1113 C1114 1.362 . S
C1114 H1106 0.930 . S
C1114 C1113 1.362 . S
C1114 C1117 1.409 . S
C1115 H1107 0.930 . S
C1115 C1116 1.355 . S
C1115 C1117 1.415 . S
C1116 C1115 1.355 . S
C1116 C1118 1.419 . S
C1117 C1112 1.425 . S
C1117 C1114 1.409 . S
C1117 C1115 1.415 . S
C1118 H1108 0.930 . S
C1118 C1116 1.419 . S
C1118 C1119 1.362 . S
C1119 H1109 0.930 . S
C1119 C1112 1.409 . S
C1119 C1118 1.362 . S
H1120 C1126 0.930 . S
H1121 C1129 0.930 . S
H1122 C1130 0.930 . S
H1123 C1131 0.930 . S
H1124 C1134 0.930 . S
H1125 C1135 0.930 . S
C1126 H1120 0.930 . S
C1126 C1127 1.355 . S
C1126 C1128 1.415 1_565 S
C1127 C1126 1.355 . S
C1127 C1129 1.419 . S
C1128 C1126 1.415 1_545 S
C1128 C1133 1.425 1_544 S
C1128 C1135 1.409 . S
C1129 H1121 0.930 . S
C1129 C1127 1.419 . S
C1129 C1130 1.362 1_554 S
C1130 H1122 0.930 . S
C1130 C1129 1.362 1_556 S
C1130 C1133 1.409 . S
C1131 H1123 0.930 . S
C1131 C1132 1.355 . S
C1131 C1133 1.415 1_545 S
C1132 C1131 1.355 . S
C1132 C1134 1.419 . S
C1133 C1128 1.425 1_566 S
C1133 C1130 1.409 . S
C1133 C1131 1.415 1_565 S
C1134 H1124 0.930 . S
C1134 C1132 1.419 . S
C1134 C1135 1.362 1_556 S
C1135 H1125 0.930 . S
C1135 C1128 1.409 . S
C1135 C1134 1.362 1_554 S
H1136 C1142 0.930 . S
H1137 C1145 0.930 . S
H1138 C1146 0.930 . S
H1139 C1147 0.930 . S
H1140 C1150 0.930 . S
H1141 C1151 0.930 . S
C1142 H1136 0.930 . S
C1142 C1143 1.355 . S
C1142 C1144 1.415 . S
C1143 C1142 1.355 . S
C1143 C1145 1.419 . S
C1144 C1142 1.415 . S
C1144 C1149 1.425 . S
C1144 C1151 1.409 . S
C1145 H1137 0.930 . S
C1145 C1143 1.419 . S
C1145 C1146 1.362 . S
C1146 H1138 0.930 . S
C1146 C1145 1.362 . S
C1146 C1149 1.409 . S
C1147 H1139 0.930 . S
C1147 C1148 1.355 . S
C1147 C1149 1.415 . S
C1148 C1147 1.355 . S
C1148 C1150 1.419 . S
C1149 C1144 1.425 . S
C1149 C1146 1.409 . S
C1149 C1147 1.415 . S
C1150 H1140 0.930 . S
C1150 C1148 1.419 . S
C1150 C1151 1.362 . S
C1151 H1141 0.930 . S
C1151 C1144 1.409 . S
C1151 C1150 1.362 . S
H1152 C1158 0.930 . S
H1153 C1161 0.930 . S
H1154 C1162 0.930 . S
H1155 C1163 0.930 . S
H1156 C1166 0.930 . S
H1157 C1167 0.930 . S
C1158 H1152 0.930 . S
C1158 C1159 1.355 . S
C1158 C1160 1.415 . S
C1159 C1158 1.355 . S
C1159 C1161 1.419 . S
C1160 C1158 1.415 . S
C1160 C1165 1.425 1_545 S
C1160 C1167 1.409 . S
C1161 H1153 0.930 . S
C1161 C1159 1.419 . S
C1161 C1162 1.362 1_545 S
C1162 H1154 0.930 . S
C1162 C1161 1.362 1_565 S
C1162 C1165 1.409 . S
C1163 H1155 0.930 . S
C1163 C1164 1.355 . S
C1163 C1165 1.415 . S
C1164 C1163 1.355 . S
C1164 C1166 1.419 . S
C1165 C1160 1.425 1_565 S
C1165 C1162 1.409 . S
C1165 C1163 1.415 . S
C1166 H1156 0.930 . S
C1166 C1164 1.419 . S
C1166 C1167 1.362 1_565 S
C1167 H1157 0.930 . S
C1167 C1160 1.409 . S
C1167 C1166 1.362 1_545 S
H1168 C1174 0.930 . S
H1169 C1177 0.930 . S
H1170 C1178 0.930 . S
H1171 C1179 0.930 . S
H1172 C1182 0.930 . S
H1173 C1183 0.930 . S
C1174 H1168 0.930 . S
C1174 C1175 1.355 . S
C1174 C1176 1.415 . S
C1175 C1174 1.355 . S
C1175 C1177 1.419 . S
C1176 C1174 1.415 . S
C1176 C1181 1.425 . S
C1176 C1183 1.409 . S
C1177 H1169 0.930 . S
C1177 C1175 1.419 . S
C1177 C1178 1.362 . S
C1178 H1170 0.930 . S
C1178 C1177 1.362 . S
C1178 C1181 1.409 . S
C1179 H1171 0.930 . S
C1179 C1180 1.355 . S
C1179 C1181 1.415 . S
C1180 C1179 1.355 . S
C1180 C1182 1.419 . S
C1181 C1176 1.425 . S
C1181 C1178 1.409 . S
C1181 C1179 1.415 . S
C1182 H1172 0.930 . S
C1182 C1180 1.419 . S
C1182 C1183 1.362 . S
C1183 H1173 0.930 . S
C1183 C1176 1.409 . S
C1183 C1182 1.362 . S
H1184 C1190 0.928 1_556 S
H1185 C1193 0.930 . S
H1186 C1194 0.930 . S
H1187 C1195 0.929 1_554 S
H1188 C1198 0.930 . S
H1189 C1199 0.930 . S
C1190 H1184 0.928 1_554 S
C1190 C1191 1.355 . S
C1190 C1192 1.415 1_554 S
C1191 C1190 1.355 . S
C1191 C1193 1.419 . S
C1192 C1190 1.415 1_556 S
C1192 C1197 1.425 1_566 S
C1192 C1199 1.409 . S
C1193 H1185 0.930 . S
C1193 C1191 1.419 . S
C1193 C1194 1.362 1_565 S
C1194 H1186 0.930 . S
C1194 C1193 1.362 1_545 S
C1194 C1197 1.409 . S
C1195 H1187 0.929 1_556 S
C1195 C1196 1.355 . S
C1195 C1197 1.415 1_556 S
C1196 C1195 1.355 . S
C1196 C1198 1.419 . S
C1197 C1192 1.425 1_544 S
C1197 C1194 1.409 . S
C1197 C1195 1.415 1_554 S
C1198 H1188 0.930 . S
C1198 C1196 1.419 . S
C1198 C1199 1.362 1_545 S
C1199 H1189 0.930 . S
C1199 C1192 1.409 . S
C1199 C1198 1.362 1_565 S
H1200 C1206 0.930 . S
H1201 C1209 0.930 . S
H1202 C1210 0.930 . S
H1203 C1211 0.930 . S
H1204 C1214 0.930 . S
H1205 C1215 0.930 . S
C1206 H1200 0.930 . S
C1206 C1207 1.355 . S
C1206 C1208 1.415 . S
C1207 C1206 1.355 . S
C1207 C1209 1.419 . S
C1208 C1206 1.415 . S
C1208 C1213 1.425 . S
C1208 C1215 1.409 . S
C1209 H1201 0.930 . S
C1209 C1207 1.419 . S
C1209 C1210 1.362 . S
C1210 H1202 0.930 . S
C1210 C1209 1.362 . S
C1210 C1213 1.409 . S
C1211 H1203 0.930 . S
C1211 C1212 1.355 . S
C1211 C1213 1.415 . S
C1212 C1211 1.355 . S
C1212 C1214 1.419 . S
C1213 C1208 1.425 . S
C1213 C1210 1.409 . S
C1213 C1211 1.415 . S
C1214 H1204 0.930 . S
C1214 C1212 1.419 . S
C1214 C1215 1.362 . S
C1215 H1205 0.930 . S
C1215 C1208 1.409 . S
C1215 C1214 1.362 . S
H1216 C1222 0.930 . S
H1217 C1225 0.930 . S
H1218 C1226 0.930 . S
H1219 C1227 0.930 . S
H1220 C1230 0.930 . S
H1221 C1231 0.930 . S
C1222 H1216 0.930 . S
C1222 C1223 1.355 . S
C1222 C1224 1.415 . S
C1223 C1222 1.355 . S
C1223 C1225 1.419 . S
C1224 C1222 1.415 . S
C1224 C1229 1.425 . S
C1224 C1231 1.409 . S
C1225 H1217 0.930 . S
C1225 C1223 1.419 . S
C1225 C1226 1.362 . S
C1226 H1218 0.930 . S
C1226 C1225 1.362 . S
C1226 C1229 1.409 . S
C1227 H1219 0.930 . S
C1227 C1228 1.355 . S
C1227 C1229 1.415 . S
C1228 C1227 1.355 . S
C1228 C1230 1.419 . S
C1229 C1224 1.425 . S
C1229 C1226 1.409 . S
C1229 C1227 1.415 . S
C1230 H1220 0.930 . S
C1230 C1228 1.419 . S
C1230 C1231 1.362 . S
C1231 H1221 0.930 . S
C1231 C1224 1.409 . S
C1231 C1230 1.362 . S
H1232 C1238 0.930 . S
H1233 C1241 0.930 . S
H1234 C1242 0.930 . S
H1235 C1243 0.930 . S
H1236 C1246 0.930 . S
H1237 C1247 0.930 . S
C1238 H1232 0.930 . S
C1238 C1239 1.355 . S
C1238 C1240 1.415 . S
C1239 C1238 1.355 . S
C1239 C1241 1.419 . S
C1240 C1238 1.415 . S
C1240 C1245 1.425 . S
C1240 C1247 1.409 . S
C1241 H1233 0.930 . S
C1241 C1239 1.419 . S
C1241 C1242 1.362 . S
C1242 H1234 0.930 . S
C1242 C1241 1.362 . S
C1242 C1245 1.409 . S
C1243 H1235 0.930 . S
C1243 C1244 1.355 . S
C1243 C1245 1.415 . S
C1244 C1243 1.355 . S
C1244 C1246 1.419 . S
C1245 C1240 1.425 . S
C1245 C1242 1.409 . S
C1245 C1243 1.415 . S
C1246 H1236 0.930 . S
C1246 C1244 1.419 . S
C1246 C1247 1.362 . S
C1247 H1237 0.930 . S
C1247 C1240 1.409 . S
C1247 C1246 1.362 . S
H1248 C1254 0.930 . S
H1249 C1257 0.930 . S
H1250 C1258 0.930 . S
H1251 C1259 0.930 . S
H1252 C1262 0.930 . S
H1253 C1263 0.930 . S
C1254 H1248 0.930 . S
C1254 C1255 1.355 . S
C1254 C1256 1.415 . S
C1255 C1254 1.355 . S
C1255 C1257 1.419 . S
C1256 C1254 1.415 . S
C1256 C1261 1.425 . S
C1256 C1263 1.409 . S
C1257 H1249 0.930 . S
C1257 C1255 1.419 . S
C1257 C1258 1.362 . S
C1258 H1250 0.930 . S
C1258 C1257 1.362 . S
C1258 C1261 1.409 . S
C1259 H1251 0.930 . S
C1259 C1260 1.355 . S
C1259 C1261 1.415 . S
C1260 C1259 1.355 . S
C1260 C1262 1.419 . S
C1261 C1256 1.425 . S
C1261 C1258 1.409 . S
C1261 C1259 1.415 . S
C1262 H1252 0.930 . S
C1262 C1260 1.419 . S
C1262 C1263 1.362 . S
C1263 H1253 0.930 . S
C1263 C1256 1.409 . S
C1263 C1262 1.362 . S
H1264 C1270 0.930 . S
H1265 C1273 0.930 . S
H1266 C1274 0.930 . S
H1267 C1275 0.930 . S
H1268 C1278 0.930 . S
H1269 C1279 0.930 . S
C1270 H1264 0.930 . S
C1270 C1271 1.355 . S
C1270 C1272 1.415 . S
C1271 C1270 1.355 . S
C1271 C1273 1.419 . S
C1272 C1270 1.415 . S
C1272 C1277 1.425 1_655 S
C1272 C1279 1.409 1_655 S
C1273 H1265 0.930 . S
C1273 C1271 1.419 . S
C1273 C1274 1.362 . S
C1274 H1266 0.930 . S
C1274 C1273 1.362 . S
C1274 C1277 1.409 1_655 S
C1275 H1267 0.930 . S
C1275 C1276 1.355 . S
C1275 C1277 1.415 . S
C1276 C1275 1.355 . S
C1276 C1278 1.419 . S
C1277 C1272 1.425 1_455 S
C1277 C1274 1.409 1_455 S
C1277 C1275 1.415 . S
C1278 H1268 0.930 . S
C1278 C1276 1.419 . S
C1278 C1279 1.362 . S
C1279 H1269 0.930 . S
C1279 C1272 1.409 1_455 S
C1279 C1278 1.362 . S
H1280 C1286 0.930 . S
H1281 C1289 0.930 . S
H1282 C1290 0.930 . S
H1283 C1291 0.930 . S
H1284 C1294 0.930 . S
H1285 C1295 0.930 . S
C1286 H1280 0.930 . S
C1286 C1287 1.355 . S
C1286 C1288 1.415 . S
C1287 C1286 1.355 . S
C1287 C1289 1.419 . S
C1288 C1286 1.415 . S
C1288 C1293 1.425 . S
C1288 C1295 1.409 . S
C1289 H1281 0.930 . S
C1289 C1287 1.419 . S
C1289 C1290 1.362 . S
C1290 H1282 0.930 . S
C1290 C1289 1.362 . S
C1290 C1293 1.409 . S
C1291 H1283 0.930 . S
C1291 C1292 1.355 . S
C1291 C1293 1.415 . S
C1292 C1291 1.355 . S
C1292 C1294 1.419 . S
C1293 C1288 1.425 . S
C1293 C1290 1.409 . S
C1293 C1291 1.415 . S
C1294 H1284 0.930 . S
C1294 C1292 1.419 . S
C1294 C1295 1.362 . S
C1295 H1285 0.930 . S
C1295 C1288 1.409 . S
C1295 C1294 1.362 . S
H1296 C1302 0.930 . S
H1297 C1305 0.930 . S
H1298 C1306 0.930 . S
H1299 C1307 0.930 . S
H1300 C1310 0.930 . S
H1301 C1311 0.930 . S
C1302 H1296 0.930 . S
C1302 C1303 1.355 . S
C1302 C1304 1.415 . S
C1303 C1302 1.355 . S
C1303 C1305 1.419 . S
C1304 C1302 1.415 . S
C1304 C1309 1.425 1_655 S
C1304 C1311 1.409 1_655 S
C1305 H1297 0.930 . S
C1305 C1303 1.419 . S
C1305 C1306 1.362 . S
C1306 H1298 0.930 . S
C1306 C1305 1.362 . S
C1306 C1309 1.409 1_655 S
C1307 H1299 0.930 . S
C1307 C1308 1.355 . S
C1307 C1309 1.415 . S
C1308 C1307 1.355 . S
C1308 C1310 1.419 . S
C1309 C1304 1.425 1_455 S
C1309 C1306 1.409 1_455 S
C1309 C1307 1.415 . S
C1310 H1300 0.930 . S
C1310 C1308 1.419 . S
C1310 C1311 1.362 . S
C1311 H1301 0.930 . S
C1311 C1304 1.409 1_455 S
C1311 C1310 1.362 . S
H1312 C1318 0.930 . S
H1313 C1321 0.930 . S
H1314 C1322 0.930 . S
H1315 C1323 0.930 . S
H1316 C1326 0.930 . S
H1317 C1327 0.930 . S
C1318 H1312 0.930 . S
C1318 C1319 1.355 . S
C1318 C1320 1.415 . S
C1319 C1318 1.355 . S
C1319 C1321 1.419 . S
C1320 C1318 1.415 . S
C1320 C1325 1.425 . S
C1320 C1327 1.409 . S
C1321 H1313 0.930 . S
C1321 C1319 1.419 . S
C1321 C1322 1.362 . S
C1322 H1314 0.930 . S
C1322 C1321 1.362 . S
C1322 C1325 1.409 . S
C1323 H1315 0.930 . S
C1323 C1324 1.355 . S
C1323 C1325 1.415 . S
C1324 C1323 1.355 . S
C1324 C1326 1.419 . S
C1325 C1320 1.425 . S
C1325 C1322 1.409 . S
C1325 C1323 1.415 . S
C1326 H1316 0.930 . S
C1326 C1324 1.419 . S
C1326 C1327 1.362 . S
C1327 H1317 0.930 . S
C1327 C1320 1.409 . S
C1327 C1326 1.362 . S
H1328 C1334 0.930 . S
H1329 C1337 0.930 . S
H1330 C1338 0.930 . S
H1331 C1339 0.930 . S
H1332 C1342 0.930 . S
H1333 C1343 0.930 . S
C1334 H1328 0.930 . S
C1334 C1335 1.355 . S
C1334 C1336 1.415 . S
C1335 C1334 1.355 . S
C1335 C1337 1.419 . S
C1336 C1334 1.415 . S
C1336 C1341 1.425 . S
C1336 C1343 1.409 . S
C1337 H1329 0.930 . S
C1337 C1335 1.419 . S
C1337 C1338 1.362 . S
C1338 H1330 0.930 . S
C1338 C1337 1.362 . S
C1338 C1341 1.409 . S
C1339 H1331 0.930 . S
C1339 C1340 1.355 . S
C1339 C1341 1.415 . S
C1340 C1339 1.355 . S
C1340 C1342 1.419 . S
C1341 C1336 1.425 . S
C1341 C1338 1.409 . S
C1341 C1339 1.415 . S
C1342 H1332 0.930 . S
C1342 C1340 1.419 . S
C1342 C1343 1.362 . S
C1343 H1333 0.930 . S
C1343 C1336 1.409 . S
C1343 C1342 1.362 . S
H1344 C1350 0.930 . S
H1345 C1353 0.930 . S
H1346 C1354 0.930 . S
H1347 C1355 0.930 . S
H1348 C1358 0.930 . S
H1349 C1359 0.930 . S
C1350 H1344 0.930 . S
C1350 C1351 1.355 . S
C1350 C1352 1.415 . S
C1351 C1350 1.355 . S
C1351 C1353 1.419 . S
C1352 C1350 1.415 . S
C1352 C1357 1.425 . S
C1352 C1359 1.409 . S
C1353 H1345 0.930 . S
C1353 C1351 1.419 . S
C1353 C1354 1.362 . S
C1354 H1346 0.930 . S
C1354 C1353 1.362 . S
C1354 C1357 1.409 . S
C1355 H1347 0.930 . S
C1355 C1356 1.355 . S
C1355 C1357 1.415 . S
C1356 C1355 1.355 . S
C1356 C1358 1.419 . S
C1357 C1352 1.425 . S
C1357 C1354 1.409 . S
C1357 C1355 1.415 . S
C1358 H1348 0.930 . S
C1358 C1356 1.419 . S
C1358 C1359 1.362 . S
C1359 H1349 0.930 . S
C1359 C1352 1.409 . S
C1359 C1358 1.362 . S
H1360 C1366 0.930 . S
H1361 C1369 0.930 . S
H1362 C1370 0.930 . S
H1363 C1371 0.930 . S
H1364 C1374 0.930 . S
H1365 C1375 0.930 . S
C1366 H1360 0.930 . S
C1366 C1367 1.355 . S
C1366 C1368 1.415 . S
C1367 C1366 1.355 . S
C1367 C1369 1.419 . S
C1368 C1366 1.415 . S
C1368 C1373 1.425 . S
C1368 C1375 1.409 . S
C1369 H1361 0.930 . S
C1369 C1367 1.419 . S
C1369 C1370 1.362 . S
C1370 H1362 0.930 . S
C1370 C1369 1.362 . S
C1370 C1373 1.409 . S
C1371 H1363 0.930 . S
C1371 C1372 1.355 . S
C1371 C1373 1.415 . S
C1372 C1371 1.355 . S
C1372 C1374 1.419 . S
C1373 C1368 1.425 . S
C1373 C1370 1.409 . S
C1373 C1371 1.415 . S
C1374 H1364 0.930 . S
C1374 C1372 1.419 . S
C1374 C1375 1.362 . S
C1375 H1365 0.930 . S
C1375 C1368 1.409 . S
C1375 C1374 1.362 . S
H1376 C1382 0.930 . S
H1377 C1385 0.930 . S
H1378 C1386 0.930 . S
H1379 C1387 0.930 . S
H1380 C1390 0.930 . S
H1381 C1391 0.930 . S
C1382 H1376 0.930 . S
C1382 C1383 1.355 . S
C1382 C1384 1.415 . S
C1383 C1382 1.355 . S
C1383 C1385 1.419 . S
C1384 C1382 1.415 . S
C1384 C1389 1.425 . S
C1384 C1391 1.409 . S
C1385 H1377 0.930 . S
C1385 C1383 1.419 . S
C1385 C1386 1.362 . S
C1386 H1378 0.930 . S
C1386 C1385 1.362 . S
C1386 C1389 1.409 . S
C1387 H1379 0.930 . S
C1387 C1388 1.355 . S
C1387 C1389 1.415 . S
C1388 C1387 1.355 . S
C1388 C1390 1.419 . S
C1389 C1384 1.425 . S
C1389 C1386 1.409 . S
C1389 C1387 1.415 . S
C1390 H1380 0.930 . S
C1390 C1388 1.419 . S
C1390 C1391 1.362 . S
C1391 H1381 0.930 . S
C1391 C1384 1.409 . S
C1391 C1390 1.362 . S
H1392 C1398 0.930 . S
H1393 C1401 0.930 . S
H1394 C1402 0.930 . S
H1395 C1403 0.930 . S
H1396 C1406 0.930 . S
H1397 C1407 0.930 . S
C1398 H1392 0.930 . S
C1398 C1399 1.355 . S
C1398 C1400 1.415 . S
C1399 C1398 1.355 . S
C1399 C1401 1.419 . S
C1400 C1398 1.415 . S
C1400 C1405 1.425 . S
C1400 C1407 1.409 . S
C1401 H1393 0.930 . S
C1401 C1399 1.419 . S
C1401 C1402 1.362 . S
C1402 H1394 0.930 . S
C1402 C1401 1.362 . S
C1402 C1405 1.409 . S
C1403 H1395 0.930 . S
C1403 C1404 1.355 . S
C1403 C1405 1.415 . S
C1404 C1403 1.355 . S
C1404 C1406 1.419 . S
C1405 C1400 1.425 . S
C1405 C1402 1.409 . S
C1405 C1403 1.415 . S
C1406 H1396 0.930 . S
C1406 C1404 1.419 . S
C1406 C1407 1.362 . S
C1407 H1397 0.930 . S
C1407 C1400 1.409 . S
C1407 C1406 1.362 . S
H1408 C1414 0.930 . S
H1409 C1417 0.930 . S
H1410 C1418 0.930 . S
H1411 C1419 0.930 . S
H1412 C1422 0.930 . S
H1413 C1423 0.930 . S
C1414 H1408 0.930 . S
C1414 C1415 1.355 . S
C1414 C1416 1.415 . S
C1415 C1414 1.355 . S
C1415 C1417 1.419 . S
C1416 C1414 1.415 . S
C1416 C1421 1.425 1_655 S
C1416 C1423 1.409 1_655 S
C1417 H1409 0.930 . S
C1417 C1415 1.419 . S
C1417 C1418 1.362 . S
C1418 H1410 0.930 . S
C1418 C1417 1.362 . S
C1418 C1421 1.409 1_655 S
C1419 H1411 0.930 . S
C1419 C1420 1.355 . S
C1419 C1421 1.415 . S
C1420 C1419 1.355 . S
C1420 C1422 1.419 . S
C1421 C1416 1.425 1_455 S
C1421 C1418 1.409 1_455 S
C1421 C1419 1.415 . S
C1422 H1412 0.930 . S
C1422 C1420 1.419 . S
C1422 C1423 1.362 . S
C1423 H1413 0.930 . S
C1423 C1416 1.409 1_455 S
C1423 C1422 1.362 . S
H1424 C1430 0.930 . S
H1425 C1433 0.930 . S
H1426 C1434 0.930 . S
H1427 C1435 0.930 . S
H1428 C1438 0.930 . S
H1429 C1439 0.930 . S
C1430 H1424 0.930 . S
C1430 C1431 1.355 . S
C1430 C1432 1.415 . S
C1431 C1430 1.355 . S
C1431 C1433 1.419 . S
C1432 C1430 1.415 . S
C1432 C1437 1.425 . S
C1432 C1439 1.409 . S
C1433 H1425 0.930 . S
C1433 C1431 1.419 . S
C1433 C1434 1.362 . S
C1434 H1426 0.930 . S
C1434 C1433 1.362 . S
C1434 C1437 1.409 . S
C1435 H1427 0.930 . S
C1435 C1436 1.355 . S
C1435 C1437 1.415 . S
C1436 C1435 1.355 . S
C1436 C1438 1.419 . S
C1437 C1432 1.425 . S
C1437 C1434 1.409 . S
C1437 C1435 1.415 . S
C1438 H1428 0.930 . S
C1438 C1436 1.419 . S
C1438 C1439 1.362 . S
C1439 H1429 0.930 . S
C1439 C1432 1.409 . S
C1439 C1438 1.362 . S
H1440 C1446 0.930 . S
H1441 C1449 0.930 . S
H1442 C1450 0.930 . S
H1443 C1451 0.930 . S
H1444 C1454 0.930 . S
H1445 C1455 0.930 . S
C1446 H1440 0.930 . S
C1446 C1447 1.355 . S
C1446 C1448 1.415 . S
C1447 C1446 1.355 . S
C1447 C1449 1.419 . S
C1448 C1446 1.415 . S
C1448 C1453 1.425 . S
C1448 C1455 1.409 . S
C1449 H1441 0.930 . S
C1449 C1447 1.419 . S
C1449 C1450 1.362 . S
C1450 H1442 0.930 . S
C1450 C1449 1.362 . S
C1450 C1453 1.409 . S
C1451 H1443 0.930 . S
C1451 C1452 1.355 . S
C1451 C1453 1.415 . S
C1452 C1451 1.355 . S
C1452 C1454 1.419 . S
C1453 C1448 1.425 . S
C1453 C1450 1.409 . S
C1453 C1451 1.415 . S
C1454 H1444 0.930 . S
C1454 C1452 1.419 . S
C1454 C1455 1.362 . S
C1455 H1445 0.930 . S
C1455 C1448 1.409 . S
C1455 C1454 1.362 . S
H1456 C1462 0.930 . S
H1457 C1465 0.930 . S
H1458 C1466 0.930 . S
H1459 C1467 0.930 . S
H1460 C1470 0.930 . S
H1461 C1471 0.930 . S
C1462 H1456 0.930 . S
C1462 C1463 1.355 . S
C1462 C1464 1.415 . S
C1463 C1462 1.355 . S
C1463 C1465 1.419 . S
C1464 C1462 1.415 . S
C1464 C1469 1.425 1_655 S
C1464 C1471 1.409 1_655 S
C1465 H1457 0.930 . S
C1465 C1463 1.419 . S
C1465 C1466 1.362 . S
C1466 H1458 0.930 . S
C1466 C1465 1.362 . S
C1466 C1469 1.409 1_655 S
C1467 H1459 0.930 . S
C1467 C1468 1.355 . S
C1467 C1469 1.415 . S
C1468 C1467 1.355 . S
C1468 C1470 1.419 . S
C1469 C1464 1.425 1_455 S
C1469 C1466 1.409 1_455 S
C1469 C1467 1.415 . S
C1470 H1460 0.930 . S
C1470 C1468 1.419 . S
C1470 C1471 1.362 . S
C1471 H1461 0.930 . S
C1471 C1464 1.409 1_455 S
C1471 C1470 1.362 . S
C455 C333 1.347 . S
C460 C11 1.398 . S
C471 C291 1.388 . S
C476 C25 1.358 . S
C487 C305 1.395 . S
C492 C39 1.344 . S
C503 C319 1.414 . S
C508 C53 1.329 . S
C519 C67 1.383 . S
C524 C249 1.363 . S
C535 C263 1.402 . S
C540 C81 1.337 . S
C551 C95 1.354 . S
C556 C277 1.385 . S
C567 C109 1.324 . S
C572 C235 1.417 . S
C583 C445 1.335 . S
C588 C123 1.409 . S
C599 C137 1.325 . S
C604 C403 1.416 . S
C615 C151 1.416 . S
C620 C417 1.325 . S
C631 C165 1.393 . S
C636 C431 1.353 . S
C647 C179 1.335 . S
C652 C361 1.405 . S
C663 C193 1.386 . S
C668 C375 1.353 . S
C679 C207 1.405 . S
C684 C389 1.335 . S
C695 C221 1.405 . S
C700 C347 1.335 . S
C711 C4 1.626 . S
C716 C172 1.563 . S
C727 C410 1.581 . S
C732 C18 1.608 . S
C743 C32 1.592 . S
C748 C200 1.598 . S
C759 C438 1.584 . S
C764 C46 1.606 . S
C775 C116 1.605 . S
C780 C60 1.585 . S
C791 C74 1.600 . S
C796 C354 1.590 . S
C807 C88 1.591 . S
C812 C144 1.599 . S
C823 C102 1.610 . S
C828 C382 1.580 . S
C839 C298 1.614 . S
C844 C130 1.575 . S
C855 C326 1.624 . S
C860 C158 1.564 . S
C871 C186 1.623 . S
C876 C242 1.566 . S
C887 C270 1.580 . S
C892 C214 1.610 . S
C903 C396 1.626 . S
C908 C228 1.563 . S
C919 C256 1.600 . S
C924 C424 1.590 . S
C935 C340 1.624 . S
C940 C284 1.565 . S
C951 C368 1.601 . S
C956 C312 1.589 . S
C967 C61 1.065 . S
C972 C5 1.176 . S
C983 C75 1.066 . S
C988 C19 1.176 . S
C999 C33 1.152 . S
C1004 C89 1.088 . S
C1015 C47 1.109 . S
C1020 C103 1.132 . S
C1031 C173 1.078 . S
C1036 C117 1.165 . S
C1047 C187 1.104 . S
C1052 C131 1.137 . S
C1063 C201 1.177 . S
C1068 C145 1.062 . S
C1079 C159 1.054 . S
C1084 C215 1.185 . S
C1095 C229 1.065 . S
C1100 C285 1.176 . S
C1111 C243 1.169 . S
C1116 C299 1.070 . S
C1127 C257 1.118 . S
C1132 C313 1.127 . S
C1143 C271 1.118 . S
C1148 C327 1.122 . S
C1159 C397 1.094 . S
C1164 C341 1.146 . S
C1175 C411 1.074 . S
C1180 C355 1.165 . S
C1191 C425 1.084 . S
C1196 C369 1.156 . S
C1207 C439 1.172 . S
C1212 C383 1.067 . S
C1223 C432 1.208 . S
C1228 C12 1.243 . S
C1239 C26 1.248 . S
C1244 C222 1.203 . S
C1255 C404 1.215 . S
C1260 C40 1.237 . S
C1271 C54 1.207 . S
C1276 C194 1.244 . S
C1287 C376 1.235 . S
C1292 C68 1.217 . S
C1303 C82 1.233 . S
C1308 C166 1.219 . S
C1319 C96 1.244 . S
C1324 C348 1.208 . S
C1335 C138 1.244 . S
C1340 C110 1.207 . S
C1351 C124 1.247 . S
C1356 C320 1.204 . S
C1367 C292 1.224 . S
C1372 C152 1.228 . S
C1383 C180 1.221 . S
C1388 C264 1.230 . S
C1399 C208 1.247 . S
C1404 C236 1.205 . S
C1415 C446 1.229 . S
C1420 C250 1.223 . S
C1431 C278 1.250 . S
C1436 C418 1.201 . S
C1447 C306 1.251 . S
C1452 C390 1.200 . S
C1463 C362 1.204 . S
C1468 C334 1.247 . S
