# Generated by pormake.
# Topology wjm, (5)-cn, num edge types: 1
# Building blocks:
#     Node 0, Type 0, BuildingBlock: BEQFEK_clean_sbu_0, # of connection points: 5
#     Node 1, Type 0, BuildingBlock: BEQFEK_clean_sbu_0, # of connection points: 5
#     Node 2, Type 0, BuildingBlock: BEQFEK_clean_sbu_0, # of connection points: 5
#     Node 3, Type 0, BuildingBlock: BEQFEK_clean_sbu_0, # of connection points: 5
#     Node 4, Type 0, BuildingBlock: BEQFEK_clean_sbu_0, # of connection points: 5
#     Node 5, Type 0, BuildingBlock: BEQFEK_clean_sbu_0, # of connection points: 5
#     Node 6, Type 0, BuildingBlock: BEQFEK_clean_sbu_0, # of connection points: 5
#     Node 7, Type 0, BuildingBlock: BEQFEK_clean_sbu_0, # of connection points: 5
#     Node 8, Type 0, BuildingBlock: BEQFEK_clean_sbu_0, # of connection points: 5
#     Node 9, Type 0, BuildingBlock: BEQFEK_clean_sbu_0, # of connection points: 5
#     Node 10, Type 0, BuildingBlock: BEQFEK_clean_sbu_0, # of connection points: 5
#     Node 11, Type 0, BuildingBlock: BEQFEK_clean_sbu_0, # of connection points: 5
#     Edge 12, Type (0, 0), BuildingBlock: EYOCIG_clean_linker_4, # of connection points: 2
#     Edge 13, Type (0, 0), BuildingBlock: EYOCIG_clean_linker_4, # of connection points: 2
#     Edge 14, Type (0, 0), BuildingBlock: EYOCIG_clean_linker_4, # of connection points: 2
#     Edge 15, Type (0, 0), BuildingBlock: EYOCIG_clean_linker_4, # of connection points: 2
#     Edge 16, Type (0, 0), BuildingBlock: EYOCIG_clean_linker_4, # of connection points: 2
#     Edge 17, Type (0, 0), BuildingBlock: EYOCIG_clean_linker_4, # of connection points: 2
#     Edge 18, Type (0, 0), BuildingBlock: EYOCIG_clean_linker_4, # of connection points: 2
#     Edge 19, Type (0, 0), BuildingBlock: EYOCIG_clean_linker_4, # of connection points: 2
#     Edge 20, Type (0, 0), BuildingBlock: EYOCIG_clean_linker_4, # of connection points: 2
#     Edge 21, Type (0, 0), BuildingBlock: EYOCIG_clean_linker_4, # of connection points: 2
#     Edge 22, Type (0, 0), BuildingBlock: EYOCIG_clean_linker_4, # of connection points: 2
#     Edge 23, Type (0, 0), BuildingBlock: EYOCIG_clean_linker_4, # of connection points: 2
#     Edge 24, Type (0, 0), BuildingBlock: EYOCIG_clean_linker_4, # of connection points: 2
#     Edge 25, Type (0, 0), BuildingBlock: EYOCIG_clean_linker_4, # of connection points: 2
#     Edge 26, Type (0, 0), BuildingBlock: EYOCIG_clean_linker_4, # of connection points: 2
#     Edge 27, Type (0, 0), BuildingBlock: EYOCIG_clean_linker_4, # of connection points: 2
#     Edge 28, Type (0, 0), BuildingBlock: EYOCIG_clean_linker_4, # of connection points: 2
#     Edge 29, Type (0, 0), BuildingBlock: EYOCIG_clean_linker_4, # of connection points: 2
#     Edge 30, Type (0, 0), BuildingBlock: EYOCIG_clean_linker_4, # of connection points: 2
#     Edge 31, Type (0, 0), BuildingBlock: EYOCIG_clean_linker_4, # of connection points: 2
#     Edge 32, Type (0, 0), BuildingBlock: EYOCIG_clean_linker_4, # of connection points: 2
#     Edge 33, Type (0, 0), BuildingBlock: EYOCIG_clean_linker_4, # of connection points: 2
#     Edge 34, Type (0, 0), BuildingBlock: EYOCIG_clean_linker_4, # of connection points: 2
#     Edge 35, Type (0, 0), BuildingBlock: EYOCIG_clean_linker_4, # of connection points: 2
#     Edge 36, Type (0, 0), BuildingBlock: EYOCIG_clean_linker_4, # of connection points: 2
#     Edge 37, Type (0, 0), BuildingBlock: EYOCIG_clean_linker_4, # of connection points: 2
#     Edge 38, Type (0, 0), BuildingBlock: EYOCIG_clean_linker_4, # of connection points: 2
#     Edge 39, Type (0, 0), BuildingBlock: EYOCIG_clean_linker_4, # of connection points: 2
#     Edge 40, Type (0, 0), BuildingBlock: EYOCIG_clean_linker_4, # of connection points: 2
#     Edge 41, Type (0, 0), BuildingBlock: EYOCIG_clean_linker_4, # of connection points: 2
# Relax obj value: 0.708
# Max RMSD: 0.246
# Mean RMSD: 0.246
data_MOF--net-wjm--node1-BEQFEK_clean_sbu_0--edge1-EYOCIG_clean_linker_4
_symmetry_space_group_name_H-M    P1
_symmetry_Int_Tables_number       1
_symmetry_cell_setting            triclinic
loop_
_symmetry_equiv_pos_as_xyz
'x, y, z'
_cell_length_a     28.057521
_cell_length_b     28.063191
_cell_length_c     36.321793
_cell_angle_alpha  89.998997
_cell_angle_beta   90.005326
_cell_angle_gamma 119.99808
loop_
_atom_site_label
_atom_site_type_symbol
_atom_site_fract_x
_atom_site_fract_y
_atom_site_fract_z
_atom_type_partial_charge
Co0 Co 0.28062 0.44004 0.27404 0.0
Co1 Co 0.25314 0.36866 0.20255 0.0
C2 C 0.23842 0.32201 0.28227 0.0
O3 O 0.25378 0.3685 0.297 0.0
O4 O 0.23477 0.31558 0.24712 0.0
C5 C 0.28457 0.50839 0.33951 0.0
O6 O 0.23987 0.47011 0.35561 0.0
C7 C 0.18823 0.31199 0.13369 0.0
C8 C 0.25343 0.30717 0.10272 0.0
C9 C 0.20079 0.29867 0.09953 0.0
N10 N 0.23252 0.32929 0.15591 0.0
N11 N 0.27054 0.32466 0.13727 0.0
C12 C 0.13583 0.31012 0.14423 0.0
H13 H 0.13972 0.32964 0.17146 0.0
H14 H 0.12392 0.33033 0.12276 0.0
H15 H 0.10248 0.2665 0.14566 0.0
C16 C 0.21431 0.47999 0.23812 0.0
N17 N 0.23128 0.44278 0.23967 0.0
N18 N 0.22744 0.42141 0.20677 0.0
C19 C 0.21245 0.44868 0.18268 0.0
C20 C 0.20303 0.48601 0.20212 0.0
C21 C 0.21517 0.51459 0.26969 0.0
H22 H 0.25786 0.54864 0.27416 0.0
H23 H 0.19973 0.48886 0.29474 0.0
H24 H 0.1888 0.53289 0.26409 0.0
O25 O 0.35272 0.46104 0.25096 0.0
O26 O 0.3344 0.41119 0.20012 0.0
H27 H 0.24012 0.42599 0.13379 0.0
H28 H 0.2416 0.49098 0.13123 0.0
C29 C 0.21832 0.44816 0.14178 0.0
H30 H 0.17698 0.4286 0.1289 0.0
H31 H 0.30963 0.33635 0.14748 0.0
O32 O 0.30195 0.49928 0.3097 0.0
C33 C 0.36843 0.44689 0.2223 0.0
Co34 Co 0.84382 0.27917 0.60735 0.0
Co35 Co 0.88772 0.2517 0.53585 0.0
C36 C 0.91968 0.23698 0.61557 0.0
O37 O 0.88854 0.25234 0.6303 0.0
O38 O 0.92246 0.23334 0.58042 0.0
C39 C 0.77942 0.2831 0.67282 0.0
O40 O 0.77303 0.23841 0.68891 0.0
C41 C 0.87948 0.1868 0.467 0.0
C42 C 0.94948 0.25198 0.43602 0.0
C43 C 0.90534 0.19935 0.43283 0.0
N44 N 0.90646 0.23108 0.48921 0.0
N45 N 0.94911 0.26909 0.47057 0.0
C46 C 0.82895 0.13441 0.47754 0.0
H47 H 0.81333 0.1383 0.50477 0.0
H48 H 0.79681 0.12249 0.45608 0.0
H49 H 0.83924 0.10107 0.47897 0.0
C50 C 0.73755 0.21287 0.57143 0.0
N51 N 0.79173 0.22984 0.57297 0.0
N52 N 0.80927 0.226 0.54008 0.0
C53 C 0.767 0.21102 0.51599 0.0
C54 C 0.72025 0.2016 0.53543 0.0
C55 C 0.70381 0.21372 0.603 0.0
H56 H 0.71243 0.2564 0.60747 0.0
H57 H 0.71412 0.19829 0.62806 0.0
H58 H 0.65914 0.18735 0.59741 0.0
O59 O 0.89489 0.35125 0.58426 0.0
O60 O 0.92643 0.33294 0.53341 0.0
H61 H 0.81735 0.23869 0.4671 0.0
H62 H 0.75382 0.24016 0.46454 0.0
C63 C 0.77338 0.21689 0.47509 0.0
H64 H 0.7516 0.17555 0.46221 0.0
H65 H 0.97651 0.30818 0.48077 0.0
O66 O 0.80589 0.30049 0.643 0.0
C67 C 0.92476 0.36697 0.55559 0.0
Co68 Co 0.56775 0.84239 0.94068 0.0
Co69 Co 0.63912 0.88626 0.86918 0.0
C70 C 0.68581 0.91822 0.9489 0.0
O71 O 0.63931 0.88709 0.96363 0.0
O72 O 0.69223 0.921 0.91375 0.0
C73 C 0.49943 0.77801 1.00616 0.0
O74 O 0.53773 0.77161 0.02225 0.0
C75 C 0.69581 0.87802 0.80034 0.0
C76 C 0.70057 0.94797 0.76933 0.0
C77 C 0.7091 0.90386 0.76617 0.0
N78 N 0.67848 0.90499 0.82254 0.0
N79 N 0.68308 0.94761 0.80388 0.0
C80 C 0.69771 0.82752 0.81091 0.0
H81 H 0.67819 0.8119 0.83813 0.0
H82 H 0.67752 0.79538 0.78945 0.0
H83 H 0.74136 0.83784 0.81235 0.0
C84 C 0.5278 0.73613 0.90477 0.0
N85 N 0.565 0.7903 0.90631 0.0
N86 N 0.58638 0.80783 0.87342 0.0
C87 C 0.55911 0.76556 0.84933 0.0
C88 C 0.52179 0.71882 0.86878 0.0
C89 C 0.4932 0.7024 0.93634 0.0
H90 H 0.45914 0.71104 0.94081 0.0
H91 H 0.51894 0.7127 0.9614 0.0
H92 H 0.47489 0.65773 0.93076 0.0
O93 O 0.54673 0.89345 0.91759 0.0
O94 O 0.59658 0.92498 0.86674 0.0
H95 H 0.58178 0.81588 0.80043 0.0
H96 H 0.5168 0.75233 0.79787 0.0
C97 C 0.55964 0.77192 0.80843 0.0
H98 H 0.57923 0.75017 0.79557 0.0
H99 H 0.67137 0.975 0.81407 0.0
O100 O 0.50851 0.80447 0.97634 0.0
C101 C 0.56088 0.92331 0.88892 0.0
Co102 Co 0.72858 0.56628 0.27403 0.0
Co103 Co 0.75605 0.63764 0.20253 0.0
C104 C 0.77079 0.68431 0.28225 0.0
O105 O 0.75543 0.63782 0.29698 0.0
O106 O 0.77443 0.69074 0.2471 0.0
C107 C 0.72464 0.49794 0.3395 0.0
O108 O 0.76934 0.53622 0.3556 0.0
C109 C 0.82095 0.69429 0.13368 0.0
C110 C 0.75575 0.6991 0.10269 0.0
C111 C 0.80839 0.70759 0.09951 0.0
N112 N 0.77667 0.677 0.15589 0.0
N113 N 0.73865 0.68162 0.13724 0.0
C114 C 0.87335 0.69616 0.14423 0.0
H115 H 0.86947 0.67665 0.17145 0.0
H116 H 0.88527 0.67594 0.12277 0.0
H117 H 0.9067 0.73979 0.14566 0.0
C118 C 0.79487 0.52631 0.23811 0.0
N119 N 0.77791 0.56352 0.23965 0.0
N120 N 0.78174 0.58489 0.20676 0.0
C121 C 0.79672 0.55761 0.18267 0.0
C122 C 0.80614 0.52029 0.20211 0.0
C123 C 0.79402 0.49172 0.26968 0.0
H124 H 0.75133 0.45767 0.27415 0.0
H125 H 0.80947 0.51746 0.29474 0.0
H126 H 0.82039 0.47342 0.26409 0.0
O127 O 0.65648 0.54528 0.25094 0.0
O128 O 0.67479 0.59512 0.2001 0.0
H129 H 0.76903 0.58029 0.13378 0.0
H130 H 0.76756 0.51529 0.13122 0.0
C131 C 0.79084 0.55812 0.14177 0.0
H132 H 0.83218 0.57768 0.12889 0.0
H133 H 0.69955 0.66994 0.14744 0.0
O134 O 0.70725 0.50704 0.30968 0.0
C135 C 0.64076 0.55943 0.22228 0.0
Co136 Co 0.1654 0.72703 0.60736 0.0
Co137 Co 0.12149 0.75451 0.53586 0.0
C138 C 0.08954 0.76921 0.61558 0.0
O139 O 0.12068 0.75386 0.63031 0.0
O140 O 0.08675 0.77286 0.58043 0.0
C141 C 0.22982 0.72309 0.67283 0.0
O142 O 0.23622 0.76778 0.68892 0.0
C143 C 0.12972 0.81942 0.46701 0.0
C144 C 0.05973 0.75424 0.43602 0.0
C145 C 0.10386 0.80687 0.43284 0.0
N146 N 0.10274 0.77514 0.48922 0.0
N147 N 0.0601 0.73712 0.47056 0.0
C148 C 0.18024 0.87181 0.47757 0.0
H149 H 0.19586 0.86792 0.5048 0.0
H150 H 0.21238 0.88374 0.45611 0.0
H151 H 0.16993 0.90514 0.47901 0.0
C152 C 0.27167 0.79335 0.57144 0.0
N153 N 0.21748 0.77637 0.57298 0.0
N154 N 0.19994 0.78021 0.54009 0.0
C155 C 0.2422 0.7952 0.516 0.0
C156 C 0.28896 0.80463 0.53545 0.0
C157 C 0.30541 0.79249 0.60301 0.0
H158 H 0.29679 0.74981 0.60748 0.0
H159 H 0.29511 0.80792 0.62807 0.0
H160 H 0.35008 0.81886 0.59742 0.0
O161 O 0.11433 0.65496 0.58426 0.0
O162 O 0.08277 0.67327 0.53341 0.0
H163 H 0.19184 0.76753 0.46711 0.0
H164 H 0.25539 0.76608 0.46455 0.0
C165 C 0.23582 0.78934 0.4751 0.0
H166 H 0.25759 0.83068 0.46223 0.0
H167 H 0.0327 0.69803 0.48076 0.0
O168 O 0.20334 0.70571 0.64301 0.0
C169 C 0.08446 0.63924 0.55559 0.0
Co170 Co 0.4414 0.16393 0.9407 0.0
Co171 Co 0.37001 0.12004 0.8692 0.0
C172 C 0.32335 0.08809 0.94892 0.0
O173 O 0.36986 0.11923 0.96366 0.0
O174 O 0.31692 0.0853 0.91377 0.0
C175 C 0.50976 0.22834 1.00617 0.0
O176 O 0.47147 0.23474 0.02226 0.0
C177 C 0.31333 0.12828 0.80035 0.0
C178 C 0.30852 0.05829 0.76936 0.0
C179 C 0.30003 0.10243 0.76618 0.0
N180 N 0.33063 0.1013 0.82257 0.0
N181 N 0.326 0.05866 0.80391 0.0
C182 C 0.31147 0.1788 0.8109 0.0
H183 H 0.33098 0.19442 0.83813 0.0
H184 H 0.33169 0.21094 0.78944 0.0
H185 H 0.26783 0.16852 0.81233 0.0
C186 C 0.48135 0.27018 0.90478 0.0
N187 N 0.44414 0.21601 0.90633 0.0
N188 N 0.42276 0.19847 0.87343 0.0
C189 C 0.45004 0.24072 0.84934 0.0
C190 C 0.48737 0.28747 0.86878 0.0
C191 C 0.51595 0.30392 0.93635 0.0
H192 H 0.55001 0.2953 0.94083 0.0
H193 H 0.49021 0.29362 0.96141 0.0
H194 H 0.53424 0.34858 0.93076 0.0
O195 O 0.46242 0.11287 0.91761 0.0
O196 O 0.41255 0.08132 0.86676 0.0
H197 H 0.42736 0.19036 0.80045 0.0
H198 H 0.49237 0.25388 0.7979 0.0
C199 C 0.44953 0.23433 0.80844 0.0
H200 H 0.42997 0.25611 0.79556 0.0
H201 H 0.33769 0.03126 0.81412 0.0
O202 O 0.50066 0.20186 0.97635 0.0
C203 C 0.44827 0.083 0.88894 0.0
Co204 Co 0.56778 0.72709 0.42387 0.0
Co205 Co 0.63917 0.75458 0.49536 0.0
C206 C 0.68583 0.76928 0.41564 0.0
O207 O 0.63932 0.75392 0.40091 0.0
O208 O 0.69227 0.77293 0.45079 0.0
C209 C 0.49942 0.72314 0.35839 0.0
O210 O 0.53771 0.76783 0.3423 0.0
C211 C 0.69585 0.81949 0.56421 0.0
C212 C 0.70066 0.75432 0.59521 0.0
C213 C 0.70916 0.80695 0.59838 0.0
N214 N 0.67855 0.77521 0.542 0.0
N215 N 0.68318 0.7372 0.56066 0.0
C216 C 0.69771 0.87188 0.55365 0.0
H217 H 0.6782 0.86798 0.52643 0.0
H218 H 0.67749 0.8838 0.57511 0.0
H219 H 0.74135 0.90522 0.55222 0.0
C220 C 0.52782 0.79339 0.45978 0.0
N221 N 0.56504 0.77642 0.45824 0.0
N222 N 0.58641 0.78026 0.49113 0.0
C223 C 0.55914 0.79524 0.51522 0.0
C224 C 0.5218 0.80466 0.49578 0.0
C225 C 0.49322 0.79253 0.42821 0.0
H226 H 0.45916 0.74985 0.42374 0.0
H227 H 0.51895 0.80797 0.40315 0.0
H228 H 0.47492 0.8189 0.4338 0.0
O229 O 0.54677 0.65501 0.44696 0.0
O230 O 0.59664 0.67333 0.49781 0.0
H231 H 0.58182 0.76757 0.56411 0.0
H232 H 0.51681 0.7661 0.56666 0.0
C233 C 0.55965 0.78937 0.55612 0.0
H234 H 0.57921 0.8307 0.569 0.0
H235 H 0.67149 0.69812 0.55046 0.0
O236 O 0.50852 0.70576 0.38821 0.0
C237 C 0.56093 0.6393 0.47563 0.0
Co238 Co 0.84375 0.56621 0.75719 0.0
Co239 Co 0.88765 0.63758 0.82869 0.0
C240 C 0.91959 0.68424 0.74897 0.0
O241 O 0.88845 0.63774 0.73424 0.0
O242 O 0.92238 0.69067 0.78412 0.0
C243 C 0.77934 0.49785 0.69172 0.0
O244 O 0.77292 0.53613 0.67562 0.0
C245 C 0.87941 0.69425 0.89754 0.0
C246 C 0.94941 0.69906 0.92853 0.0
C247 C 0.90528 0.70756 0.93171 0.0
N248 N 0.9064 0.67695 0.87533 0.0
N249 N 0.94904 0.68157 0.89398 0.0
C250 C 0.82888 0.69612 0.88698 0.0
H251 H 0.81325 0.67661 0.85976 0.0
H252 H 0.79675 0.67592 0.90845 0.0
H253 H 0.83918 0.73975 0.88555 0.0
C254 C 0.73748 0.52625 0.79311 0.0
N255 N 0.79166 0.56345 0.79156 0.0
N256 N 0.8092 0.58483 0.82446 0.0
C257 C 0.76694 0.55756 0.84855 0.0
C258 C 0.72019 0.52023 0.8291 0.0
C259 C 0.70374 0.49165 0.76154 0.0
H260 H 0.71238 0.4576 0.75707 0.0
H261 H 0.71403 0.51738 0.73648 0.0
H262 H 0.65907 0.47334 0.76713 0.0
O263 O 0.89484 0.54521 0.78028 0.0
O264 O 0.92639 0.59507 0.83113 0.0
H265 H 0.8173 0.58025 0.89744 0.0
H266 H 0.75376 0.51526 0.9 0.0
C267 C 0.77332 0.55809 0.88945 0.0
H268 H 0.75155 0.57765 0.90232 0.0
H269 H 0.97644 0.66988 0.88378 0.0
O270 O 0.80583 0.50696 0.72154 0.0
C271 C 0.92472 0.55937 0.80895 0.0
Co272 Co 0.28061 0.84233 0.09053 0.0
Co273 Co 0.25312 0.88622 0.16203 0.0
C274 C 0.23839 0.91816 0.08231 0.0
O275 O 0.25376 0.88703 0.06758 0.0
O276 O 0.23475 0.92095 0.11746 0.0
C277 C 0.28457 0.77795 0.02506 0.0
O278 O 0.23986 0.77153 1.00896 0.0
C279 C 0.18821 0.87796 0.23088 0.0
C280 C 0.2534 0.94794 0.26188 0.0
C281 C 0.20076 0.90381 0.26505 0.0
N282 N 0.23249 0.90495 0.20867 0.0
N283 N 0.27051 0.94758 0.22733 0.0
C284 C 0.13581 0.82745 0.22032 0.0
H285 H 0.1397 0.81183 0.19309 0.0
H286 H 0.12389 0.79531 0.24178 0.0
H287 H 0.10246 0.83774 0.21889 0.0
C288 C 0.21431 0.73608 0.12644 0.0
N289 N 0.23128 0.79025 0.1249 0.0
N290 N 0.22744 0.80779 0.1578 0.0
C291 C 0.21246 0.76553 0.18189 0.0
C292 C 0.20304 0.71879 0.16244 0.0
C293 C 0.21517 0.70235 0.09487 0.0
H294 H 0.25786 0.71098 0.0904 0.0
H295 H 0.19973 0.71265 0.06982 0.0
H296 H 0.1888 0.65769 0.10046 0.0
O297 O 0.3527 0.89341 0.11363 0.0
O298 O 0.33438 0.92494 0.16447 0.0
H299 H 0.24013 0.81587 0.23078 0.0
H300 H 0.2416 0.75235 0.23333 0.0
C301 C 0.21832 0.7719 0.22279 0.0
H302 H 0.17698 0.75013 0.23566 0.0
H303 H 0.30961 0.97498 0.21713 0.0
O304 O 0.30195 0.80442 0.05488 0.0
C305 C 0.36842 0.92328 0.14229 0.0
Co306 Co 0.44146 0.27924 0.42388 0.0
Co307 Co 0.37009 0.25176 0.49538 0.0
C308 C 0.3234 0.23704 0.41566 0.0
O309 O 0.3699 0.25241 0.40093 0.0
O310 O 0.31698 0.2334 0.45081 0.0
C311 C 0.50979 0.28318 0.3584 0.0
O312 O 0.47149 0.23849 0.34231 0.0
C313 C 0.3134 0.18684 0.56422 0.0
C314 C 0.30862 0.25203 0.59522 0.0
C315 C 0.3001 0.19939 0.59839 0.0
N316 N 0.33072 0.23113 0.54202 0.0
N317 N 0.32611 0.26915 0.56067 0.0
C318 C 0.31151 0.13445 0.55366 0.0
H319 H 0.33103 0.13834 0.52643 0.0
H320 H 0.33172 0.12251 0.57512 0.0
H321 H 0.26787 0.10112 0.55222 0.0
C322 C 0.48142 0.21293 0.45979 0.0
N323 N 0.44421 0.22991 0.45825 0.0
N324 N 0.42284 0.22606 0.49114 0.0
C325 C 0.45011 0.21106 0.51523 0.0
C326 C 0.48744 0.20164 0.49578 0.0
C327 C 0.51602 0.21379 0.42822 0.0
H328 H 0.55007 0.25648 0.42375 0.0
H329 H 0.49028 0.19836 0.40316 0.0
H330 H 0.53432 0.18743 0.4338 0.0
O331 O 0.46248 0.35132 0.44697 0.0
O332 O 0.41263 0.333 0.49782 0.0
H333 H 0.42743 0.23872 0.56413 0.0
H334 H 0.49242 0.24015 0.56668 0.0
C335 C 0.44959 0.2169 0.55613 0.0
H336 H 0.43001 0.17556 0.56899 0.0
H337 H 0.33782 0.30824 0.55048 0.0
O338 O 0.50071 0.30056 0.38822 0.0
C339 C 0.44833 0.36703 0.47564 0.0
Co340 Co 0.16545 0.43999 0.75719 0.0
Co341 Co 0.12156 0.36862 0.82868 0.0
C342 C 0.08962 0.32195 0.74897 0.0
O343 O 0.12075 0.36845 0.73423 0.0
O344 O 0.08684 0.31553 0.78411 0.0
C345 C 0.22986 0.50832 0.69172 0.0
O346 O 0.23627 0.47004 0.67563 0.0
C347 C 0.1298 0.31197 0.89755 0.0
C348 C 0.05977 0.30713 0.92851 0.0
C349 C 0.10392 0.29865 0.93171 0.0
N350 N 0.10281 0.32926 0.87532 0.0
N351 N 0.06015 0.32461 0.89396 0.0
C352 C 0.18035 0.31011 0.88701 0.0
H353 H 0.19597 0.32962 0.85978 0.0
H354 H 0.21247 0.33034 0.90848 0.0
H355 H 0.17007 0.26649 0.88559 0.0
C356 C 0.27173 0.47995 0.79311 0.0
N357 N 0.21755 0.44274 0.79157 0.0
N358 N 0.20001 0.42137 0.82446 0.0
C359 C 0.24227 0.44866 0.84856 0.0
C360 C 0.28902 0.48598 0.82912 0.0
C361 C 0.30547 0.51455 0.76155 0.0
H362 H 0.29683 0.54859 0.75707 0.0
H363 H 0.29517 0.48881 0.73649 0.0
H364 H 0.35014 0.53285 0.76714 0.0
O365 O 0.11437 0.46099 0.78027 0.0
O366 O 0.08283 0.41114 0.83112 0.0
H367 H 0.19191 0.42597 0.89744 0.0
H368 H 0.25543 0.49098 0.9 0.0
C369 C 0.23588 0.44815 0.88945 0.0
H370 H 0.25768 0.42861 0.90234 0.0
H371 H 0.03274 0.33629 0.88375 0.0
O372 O 0.20337 0.49923 0.72154 0.0
C373 C 0.08449 0.44684 0.80894 0.0
Co374 Co 0.72854 0.16396 0.09052 0.0
Co375 Co 0.75605 0.12008 0.16201 0.0
C376 C 0.77077 0.08814 0.08229 0.0
O377 O 0.75539 0.11926 0.06756 0.0
O378 O 0.77442 0.08535 0.11744 0.0
C379 C 0.72459 0.22835 0.02504 0.0
O380 O 0.76929 0.23476 1.00896 0.0
C381 C 0.82097 0.12831 0.23086 0.0
C382 C 0.75578 0.05833 0.26185 0.0
C383 C 0.80843 0.10246 0.26503 0.0
N384 N 0.77668 0.10134 0.20865 0.0
N385 N 0.73866 0.0587 0.2273 0.0
C386 C 0.87337 0.17883 0.22031 0.0
H387 H 0.86947 0.19445 0.19308 0.0
H388 H 0.8853 0.21096 0.24177 0.0
H389 H 0.90671 0.16854 0.21887 0.0
C390 C 0.79484 0.27021 0.12644 0.0
N391 N 0.77788 0.21604 0.12489 0.0
N392 N 0.78173 0.1985 0.15778 0.0
C393 C 0.79672 0.24076 0.18188 0.0
C394 C 0.80613 0.2875 0.16243 0.0
C395 C 0.79397 0.30394 0.09487 0.0
H396 H 0.75127 0.2953 0.0904 0.0
H397 H 0.80941 0.29365 0.06981 0.0
H398 H 0.82033 0.34861 0.10046 0.0
O399 O 0.65645 0.11288 0.11361 0.0
O400 O 0.67479 0.08135 0.16445 0.0
H401 H 0.76906 0.19042 0.23077 0.0
H402 H 0.7676 0.25394 0.23333 0.0
C403 C 0.79087 0.23438 0.22277 0.0
H404 H 0.83221 0.25615 0.23565 0.0
H405 H 0.69957 0.0313 0.2171 0.0
O406 O 0.7072 0.20187 0.05486 0.0
C407 C 0.64074 0.08302 0.14227 0.0
C408 C 0.53355 0.51538 0.21304 0.0
C409 C 0.5828 0.5365 0.21616 0.0
C410 C 0.47564 0.49094 0.21305 0.0
C411 C 0.42639 0.46983 0.21617 0.0
C412 C 0.98789 0.47416 0.54635 0.0
C413 C 0.95977 0.42492 0.54947 0.0
C414 C 0.02133 0.53205 0.54635 0.0
C415 C 0.04945 0.58129 0.54946 0.0
C416 C 0.49235 0.01988 0.87969 0.0
C417 C 0.47122 0.048 0.88281 0.0
C418 C 0.51681 0.98644 0.87968 0.0
C419 C 0.53793 0.95832 0.8828 0.0
C420 C 0.51686 0.53211 0.48488 0.0
C421 C 0.53798 0.58135 0.48176 0.0
C422 C 0.4924 0.47422 0.48488 0.0
C423 C 0.47128 0.42498 0.48177 0.0
C424 C 0.02134 0.49088 0.81818 0.0
C425 C 0.04947 0.46977 0.81506 0.0
C426 C 0.98788 0.51532 0.81819 0.0
C427 C 0.95974 0.53644 0.81507 0.0
C428 C 0.47563 0.98642 0.15153 0.0
C429 C 0.42638 0.95829 0.14841 0.0
C430 C 0.53353 0.01987 0.15152 0.0
C431 C 0.58278 0.048 0.1484 0.0
C432 C 0.15341 0.284 0.03408 0.0
C433 C 0.17249 0.29063 0.06481 0.0
C434 C 0.13663 0.284 0.99716 0.0
C435 C 0.12418 0.29062 0.96643 0.0
C436 C 0.85583 0.13518 0.33047 0.0
C437 C 0.83674 0.12272 0.29974 0.0
C438 C 0.87262 0.15197 0.36739 0.0
C439 C 0.88508 0.17105 0.39811 0.0
C440 C 0.72379 0.87113 0.70074 0.0
C441 C 0.71716 0.8836 0.73146 0.0
C442 C 0.7238 0.85434 0.66382 0.0
C443 C 0.71719 0.83525 0.6331 0.0
C444 C 0.85577 0.72224 0.03407 0.0
C445 C 0.83669 0.71562 0.06479 0.0
C446 C 0.87255 0.72223 0.99714 0.0
C447 C 0.88502 0.7156 0.96642 0.0
C448 C 0.13658 0.85427 0.36741 0.0
C449 C 0.12412 0.83518 0.39813 0.0
C450 C 0.15337 0.87107 0.33049 0.0
C451 C 0.17246 0.88354 0.29977 0.0
C452 C 0.28539 0.13517 0.70074 0.0
C453 C 0.292 0.1227 0.73146 0.0
C454 C 0.2854 0.15197 0.66382 0.0
C455 C 0.29204 0.17107 0.6331 0.0
C456 C 0.25587 0.23764 0.36511 0.0
C457 C 0.28103 0.23449 0.39141 0.0
C458 C 0.23901 0.25449 0.33282 0.0
C459 C 0.23586 0.27965 0.30652 0.0
C460 C 0.98781 0.23758 0.66612 0.0
C461 C 0.95949 0.23443 0.63982 0.0
C462 C 0.02151 0.25443 0.69841 0.0
C463 C 0.04982 0.27959 0.72471 0.0
C464 C 0.75333 0.98634 0.99945 0.0
C465 C 0.72817 0.95803 0.97315 0.0
C466 C 0.77018 0.02004 0.03174 0.0
C467 C 0.77333 0.04834 0.05804 0.0
C468 C 0.75335 0.76868 0.36509 0.0
C469 C 0.72819 0.77183 0.39139 0.0
C470 C 0.7702 0.75183 0.3328 0.0
C471 C 0.77335 0.72667 0.3065 0.0
C472 C 0.9877 0.75175 0.69842 0.0
C473 C 0.95939 0.72659 0.72471 0.0
C474 C 0.02141 0.7686 0.66613 0.0
C475 C 0.04972 0.77176 0.63983 0.0
C476 C 0.23899 0.98627 0.03176 0.0
C477 C 0.23584 0.95797 0.05806 0.0
C478 C 0.25584 0.01998 0.99947 0.0
C479 C 0.281 0.04828 0.97318 0.0
C480 C 0.34572 0.61234 0.35132 0.0
C481 C 0.31187 0.56423 0.35149 0.0
C482 C 0.39543 0.66203 0.34659 0.0
C483 C 0.44356 0.69586 0.34642 0.0
C484 C 0.73655 0.34421 0.68463 0.0
C485 C 0.75085 0.31038 0.6848 0.0
C486 C 0.73653 0.3939 0.67991 0.0
C487 C 0.75079 0.44201 0.67974 0.0
C488 C 0.34573 0.73514 1.01325 0.0
C489 C 0.31187 0.7494 1.01308 0.0
C490 C 0.39545 0.73516 0.01798 0.0
C491 C 0.44357 0.74944 0.01814 0.0
C492 C 0.66348 0.39398 0.35131 0.0
C493 C 0.69734 0.4421 0.35148 0.0
C494 C 0.61377 0.34429 0.34659 0.0
C495 C 0.56565 0.31046 0.34642 0.0
C496 C 0.27268 0.61228 0.67991 0.0
C497 C 0.25841 0.56417 0.67974 0.0
C498 C 0.27267 0.66197 0.68463 0.0
C499 C 0.25839 0.69581 0.68481 0.0
C500 C 0.61375 0.27119 0.01797 0.0
C501 C 0.56562 0.25691 0.01815 0.0
C502 C 0.66345 0.27119 1.01324 0.0
C503 C 0.6973 0.25691 1.01306 0.0
C504 C 0.19269 0.62251 0.18068 0.0
C505 C 0.19694 0.66723 0.17578 0.0
C506 C 0.19269 0.57194 0.18388 0.0
C507 C 0.19693 0.53146 0.18878 0.0
C508 C 0.57338 0.19127 0.51401 0.0
C509 C 0.5329 0.19552 0.50912 0.0
C510 C 0.62395 0.19126 0.5172 0.0
C511 C 0.66868 0.1955 0.52209 0.0
C512 C 0.38529 0.57194 0.84735 0.0
C513 C 0.34058 0.53145 0.84246 0.0
C514 C 0.43586 0.62252 0.85055 0.0
C515 C 0.47634 0.66725 0.85544 0.0
C516 C 0.81648 0.43435 0.18388 0.0
C517 C 0.81224 0.47483 0.18877 0.0
C518 C 0.81647 0.38378 0.18068 0.0
C519 C 0.81223 0.33906 0.17578 0.0
C520 C 0.43584 0.81499 0.51401 0.0
C521 C 0.47633 0.81076 0.50912 0.0
C522 C 0.38526 0.81498 0.51721 0.0
C523 C 0.34053 0.81074 0.52211 0.0
C524 C 0.6239 0.4343 0.84734 0.0
C525 C 0.66862 0.47478 0.84245 0.0
C526 C 0.57332 0.38373 0.85054 0.0
C527 C 0.53283 0.33902 0.85544 0.0
loop_
_geom_bond_atom_site_label_1
_geom_bond_atom_site_label_2
_geom_bond_distance
_geom_bond_site_symmetry_2
_ccdc_geom_bond_type
Co0 O3 1.970 . S
Co0 N17 1.989 . S
Co0 O25 1.967 . S
Co0 O32 1.920 . S
Co1 O4 1.966 . S
Co1 N10 2.022 . S
Co1 N18 1.993 . S
Co1 O26 1.941 . S
C2 O3 1.258 . S
C2 O4 1.263 . S
O3 Co0 1.970 . S
O3 C2 1.258 . S
O4 Co1 1.966 . S
O4 C2 1.263 . S
C5 O6 1.235 . S
C5 O32 1.289 . S
O6 C5 1.235 . S
C7 C9 1.400 . S
C7 N10 1.351 . S
C7 C12 1.501 . S
C8 C9 1.387 . S
C8 N11 1.341 . S
C9 C7 1.400 . S
C9 C8 1.387 . S
N10 Co1 2.022 . S
N10 C7 1.351 . S
N10 N11 1.365 . S
N11 C8 1.341 . S
N11 N10 1.365 . S
N11 H31 0.862 . S
C12 C7 1.501 . S
C12 H13 0.961 . S
C12 H14 0.961 . S
C12 H15 0.960 . S
H13 C12 0.961 . S
H14 C12 0.961 . S
H15 C12 0.960 . S
C16 N17 1.342 . S
C16 C20 1.401 . S
C16 C21 1.499 . S
N17 Co0 1.989 . S
N17 C16 1.342 . S
N17 N18 1.388 . S
N18 Co1 1.993 . S
N18 N17 1.388 . S
N18 C19 1.346 . S
C19 N18 1.346 . S
C19 C20 1.396 . S
C19 C29 1.510 . S
C20 C16 1.401 . S
C20 C19 1.396 . S
C21 C16 1.499 . S
C21 H22 0.959 . S
C21 H23 0.960 . S
C21 H24 0.961 . S
H22 C21 0.959 . S
H23 C21 0.960 . S
H24 C21 0.961 . S
O25 Co0 1.967 . S
O25 C33 1.258 . S
O26 Co1 1.941 . S
O26 C33 1.266 . S
H27 C29 0.959 . S
H28 C29 0.961 . S
C29 C19 1.510 . S
C29 H27 0.959 . S
C29 H28 0.961 . S
C29 H30 0.960 . S
H30 C29 0.960 . S
H31 N11 0.862 . S
O32 Co0 1.920 . S
O32 C5 1.289 . S
C33 O25 1.258 . S
C33 O26 1.266 . S
Co34 O37 1.970 . S
Co34 N51 1.989 . S
Co34 O59 1.967 . S
Co34 O66 1.920 . S
Co35 O38 1.966 . S
Co35 N44 2.022 . S
Co35 N52 1.993 . S
Co35 O60 1.941 . S
C36 O37 1.258 . S
C36 O38 1.263 . S
O37 Co34 1.970 . S
O37 C36 1.258 . S
O38 Co35 1.966 . S
O38 C36 1.263 . S
C39 O40 1.235 . S
C39 O66 1.289 . S
O40 C39 1.235 . S
C41 C43 1.400 . S
C41 N44 1.351 . S
C41 C46 1.501 . S
C42 C43 1.387 . S
C42 N45 1.341 . S
C43 C41 1.400 . S
C43 C42 1.387 . S
N44 Co35 2.022 . S
N44 C41 1.351 . S
N44 N45 1.365 . S
N45 C42 1.341 . S
N45 N44 1.365 . S
N45 H65 0.862 . S
C46 C41 1.501 . S
C46 H47 0.961 . S
C46 H48 0.961 . S
C46 H49 0.960 . S
H47 C46 0.961 . S
H48 C46 0.961 . S
H49 C46 0.960 . S
C50 N51 1.342 . S
C50 C54 1.401 . S
C50 C55 1.499 . S
N51 Co34 1.989 . S
N51 C50 1.342 . S
N51 N52 1.388 . S
N52 Co35 1.993 . S
N52 N51 1.388 . S
N52 C53 1.346 . S
C53 N52 1.346 . S
C53 C54 1.396 . S
C53 C63 1.510 . S
C54 C50 1.401 . S
C54 C53 1.396 . S
C55 C50 1.499 . S
C55 H56 0.959 . S
C55 H57 0.960 . S
C55 H58 0.961 . S
H56 C55 0.959 . S
H57 C55 0.960 . S
H58 C55 0.961 . S
O59 Co34 1.967 . S
O59 C67 1.258 . S
O60 Co35 1.941 . S
O60 C67 1.266 . S
H61 C63 0.959 . S
H62 C63 0.961 . S
C63 C53 1.510 . S
C63 H61 0.959 . S
C63 H62 0.961 . S
C63 H64 0.960 . S
H64 C63 0.960 . S
H65 N45 0.862 . S
O66 Co34 1.920 . S
O66 C39 1.289 . S
C67 O59 1.258 . S
C67 O60 1.266 . S
Co68 O71 1.970 . S
Co68 N85 1.989 . S
Co68 O93 1.967 . S
Co68 O100 1.920 . S
Co69 O72 1.966 . S
Co69 N78 2.022 . S
Co69 N86 1.993 . S
Co69 O94 1.941 . S
C70 O71 1.258 . S
C70 O72 1.263 . S
O71 Co68 1.970 . S
O71 C70 1.258 . S
O72 Co69 1.966 . S
O72 C70 1.263 . S
C73 O74 1.235 . S
C73 O100 1.289 . S
O74 C73 1.235 . S
C75 C77 1.400 . S
C75 N78 1.351 . S
C75 C80 1.501 . S
C76 C77 1.387 . S
C76 N79 1.341 . S
C77 C75 1.400 . S
C77 C76 1.387 . S
N78 Co69 2.022 . S
N78 C75 1.351 . S
N78 N79 1.365 . S
N79 C76 1.341 . S
N79 N78 1.365 . S
N79 H99 0.862 . S
C80 C75 1.501 . S
C80 H81 0.961 . S
C80 H82 0.961 . S
C80 H83 0.960 . S
H81 C80 0.961 . S
H82 C80 0.961 . S
H83 C80 0.960 . S
C84 N85 1.342 . S
C84 C88 1.401 . S
C84 C89 1.499 . S
N85 Co68 1.989 . S
N85 C84 1.342 . S
N85 N86 1.388 . S
N86 Co69 1.993 . S
N86 N85 1.388 . S
N86 C87 1.346 . S
C87 N86 1.346 . S
C87 C88 1.396 . S
C87 C97 1.510 . S
C88 C84 1.401 . S
C88 C87 1.396 . S
C89 C84 1.499 . S
C89 H90 0.959 . S
C89 H91 0.960 . S
C89 H92 0.961 . S
H90 C89 0.959 . S
H91 C89 0.960 . S
H92 C89 0.961 . S
O93 Co68 1.967 . S
O93 C101 1.258 . S
O94 Co69 1.941 . S
O94 C101 1.266 . S
H95 C97 0.959 . S
H96 C97 0.961 . S
C97 C87 1.510 . S
C97 H95 0.959 . S
C97 H96 0.961 . S
C97 H98 0.960 . S
H98 C97 0.960 . S
H99 N79 0.862 . S
O100 Co68 1.920 . S
O100 C73 1.289 . S
C101 O93 1.258 . S
C101 O94 1.266 . S
Co102 O105 1.970 . S
Co102 N119 1.989 . S
Co102 O127 1.967 . S
Co102 O134 1.920 . S
Co103 O106 1.966 . S
Co103 N112 2.022 . S
Co103 N120 1.993 . S
Co103 O128 1.941 . S
C104 O105 1.258 . S
C104 O106 1.263 . S
O105 Co102 1.970 . S
O105 C104 1.258 . S
O106 Co103 1.966 . S
O106 C104 1.263 . S
C107 O108 1.235 . S
C107 O134 1.289 . S
O108 C107 1.235 . S
C109 C111 1.400 . S
C109 N112 1.351 . S
C109 C114 1.501 . S
C110 C111 1.387 . S
C110 N113 1.341 . S
C111 C109 1.400 . S
C111 C110 1.387 . S
N112 Co103 2.022 . S
N112 C109 1.351 . S
N112 N113 1.365 . S
N113 C110 1.341 . S
N113 N112 1.365 . S
N113 H133 0.862 . S
C114 C109 1.501 . S
C114 H115 0.961 . S
C114 H116 0.961 . S
C114 H117 0.960 . S
H115 C114 0.961 . S
H116 C114 0.961 . S
H117 C114 0.960 . S
C118 N119 1.342 . S
C118 C122 1.401 . S
C118 C123 1.499 . S
N119 Co102 1.989 . S
N119 C118 1.342 . S
N119 N120 1.388 . S
N120 Co103 1.993 . S
N120 N119 1.388 . S
N120 C121 1.346 . S
C121 N120 1.346 . S
C121 C122 1.396 . S
C121 C131 1.510 . S
C122 C118 1.401 . S
C122 C121 1.396 . S
C123 C118 1.499 . S
C123 H124 0.959 . S
C123 H125 0.960 . S
C123 H126 0.961 . S
H124 C123 0.959 . S
H125 C123 0.960 . S
H126 C123 0.961 . S
O127 Co102 1.967 . S
O127 C135 1.258 . S
O128 Co103 1.941 . S
O128 C135 1.266 . S
H129 C131 0.959 . S
H130 C131 0.961 . S
C131 C121 1.510 . S
C131 H129 0.959 . S
C131 H130 0.961 . S
C131 H132 0.960 . S
H132 C131 0.960 . S
H133 N113 0.862 . S
O134 Co102 1.920 . S
O134 C107 1.289 . S
C135 O127 1.258 . S
C135 O128 1.266 . S
Co136 O139 1.970 . S
Co136 N153 1.989 . S
Co136 O161 1.967 . S
Co136 O168 1.920 . S
Co137 O140 1.966 . S
Co137 N146 2.022 . S
Co137 N154 1.993 . S
Co137 O162 1.941 . S
C138 O139 1.258 . S
C138 O140 1.263 . S
O139 Co136 1.970 . S
O139 C138 1.258 . S
O140 Co137 1.966 . S
O140 C138 1.263 . S
C141 O142 1.235 . S
C141 O168 1.289 . S
O142 C141 1.235 . S
C143 C145 1.400 . S
C143 N146 1.351 . S
C143 C148 1.501 . S
C144 C145 1.387 . S
C144 N147 1.341 . S
C145 C143 1.400 . S
C145 C144 1.387 . S
N146 Co137 2.022 . S
N146 C143 1.351 . S
N146 N147 1.365 . S
N147 C144 1.341 . S
N147 N146 1.365 . S
N147 H167 0.862 . S
C148 C143 1.501 . S
C148 H149 0.961 . S
C148 H150 0.961 . S
C148 H151 0.960 . S
H149 C148 0.961 . S
H150 C148 0.961 . S
H151 C148 0.960 . S
C152 N153 1.342 . S
C152 C156 1.401 . S
C152 C157 1.499 . S
N153 Co136 1.989 . S
N153 C152 1.342 . S
N153 N154 1.388 . S
N154 Co137 1.993 . S
N154 N153 1.388 . S
N154 C155 1.346 . S
C155 N154 1.346 . S
C155 C156 1.396 . S
C155 C165 1.510 . S
C156 C152 1.401 . S
C156 C155 1.396 . S
C157 C152 1.499 . S
C157 H158 0.959 . S
C157 H159 0.960 . S
C157 H160 0.961 . S
H158 C157 0.959 . S
H159 C157 0.960 . S
H160 C157 0.961 . S
O161 Co136 1.967 . S
O161 C169 1.258 . S
O162 Co137 1.941 . S
O162 C169 1.266 . S
H163 C165 0.959 . S
H164 C165 0.961 . S
C165 C155 1.510 . S
C165 H163 0.959 . S
C165 H164 0.961 . S
C165 H166 0.960 . S
H166 C165 0.960 . S
H167 N147 0.862 . S
O168 Co136 1.920 . S
O168 C141 1.289 . S
C169 O161 1.258 . S
C169 O162 1.266 . S
Co170 O173 1.970 . S
Co170 N187 1.989 . S
Co170 O195 1.967 . S
Co170 O202 1.920 . S
Co171 O174 1.966 . S
Co171 N180 2.022 . S
Co171 N188 1.993 . S
Co171 O196 1.941 . S
C172 O173 1.258 . S
C172 O174 1.263 . S
O173 Co170 1.970 . S
O173 C172 1.258 . S
O174 Co171 1.966 . S
O174 C172 1.263 . S
C175 O176 1.235 . S
C175 O202 1.289 . S
O176 C175 1.235 . S
C177 C179 1.400 . S
C177 N180 1.351 . S
C177 C182 1.501 . S
C178 C179 1.387 . S
C178 N181 1.341 . S
C179 C177 1.400 . S
C179 C178 1.387 . S
N180 Co171 2.022 . S
N180 C177 1.351 . S
N180 N181 1.365 . S
N181 C178 1.341 . S
N181 N180 1.365 . S
N181 H201 0.862 . S
C182 C177 1.501 . S
C182 H183 0.961 . S
C182 H184 0.961 . S
C182 H185 0.960 . S
H183 C182 0.961 . S
H184 C182 0.961 . S
H185 C182 0.960 . S
C186 N187 1.342 . S
C186 C190 1.401 . S
C186 C191 1.499 . S
N187 Co170 1.989 . S
N187 C186 1.342 . S
N187 N188 1.388 . S
N188 Co171 1.993 . S
N188 N187 1.388 . S
N188 C189 1.346 . S
C189 N188 1.346 . S
C189 C190 1.396 . S
C189 C199 1.510 . S
C190 C186 1.401 . S
C190 C189 1.396 . S
C191 C186 1.499 . S
C191 H192 0.959 . S
C191 H193 0.960 . S
C191 H194 0.961 . S
H192 C191 0.959 . S
H193 C191 0.960 . S
H194 C191 0.961 . S
O195 Co170 1.967 . S
O195 C203 1.258 . S
O196 Co171 1.941 . S
O196 C203 1.266 . S
H197 C199 0.959 . S
H198 C199 0.961 . S
C199 C189 1.510 . S
C199 H197 0.959 . S
C199 H198 0.961 . S
C199 H200 0.960 . S
H200 C199 0.960 . S
H201 N181 0.862 . S
O202 Co170 1.920 . S
O202 C175 1.289 . S
C203 O195 1.258 . S
C203 O196 1.266 . S
Co204 O207 1.970 . S
Co204 N221 1.989 . S
Co204 O229 1.967 . S
Co204 O236 1.920 . S
Co205 O208 1.966 . S
Co205 N214 2.022 . S
Co205 N222 1.993 . S
Co205 O230 1.941 . S
C206 O207 1.258 . S
C206 O208 1.263 . S
O207 Co204 1.970 . S
O207 C206 1.258 . S
O208 Co205 1.966 . S
O208 C206 1.263 . S
C209 O210 1.235 . S
C209 O236 1.289 . S
O210 C209 1.235 . S
C211 C213 1.400 . S
C211 N214 1.351 . S
C211 C216 1.501 . S
C212 C213 1.387 . S
C212 N215 1.341 . S
C213 C211 1.400 . S
C213 C212 1.387 . S
N214 Co205 2.022 . S
N214 C211 1.351 . S
N214 N215 1.365 . S
N215 C212 1.341 . S
N215 N214 1.365 . S
N215 H235 0.862 . S
C216 C211 1.501 . S
C216 H217 0.961 . S
C216 H218 0.961 . S
C216 H219 0.960 . S
H217 C216 0.961 . S
H218 C216 0.961 . S
H219 C216 0.960 . S
C220 N221 1.342 . S
C220 C224 1.401 . S
C220 C225 1.499 . S
N221 Co204 1.989 . S
N221 C220 1.342 . S
N221 N222 1.388 . S
N222 Co205 1.993 . S
N222 N221 1.388 . S
N222 C223 1.346 . S
C223 N222 1.346 . S
C223 C224 1.396 . S
C223 C233 1.510 . S
C224 C220 1.401 . S
C224 C223 1.396 . S
C225 C220 1.499 . S
C225 H226 0.959 . S
C225 H227 0.960 . S
C225 H228 0.961 . S
H226 C225 0.959 . S
H227 C225 0.960 . S
H228 C225 0.961 . S
O229 Co204 1.967 . S
O229 C237 1.258 . S
O230 Co205 1.941 . S
O230 C237 1.266 . S
H231 C233 0.959 . S
H232 C233 0.961 . S
C233 C223 1.510 . S
C233 H231 0.959 . S
C233 H232 0.961 . S
C233 H234 0.960 . S
H234 C233 0.960 . S
H235 N215 0.862 . S
O236 Co204 1.920 . S
O236 C209 1.289 . S
C237 O229 1.258 . S
C237 O230 1.266 . S
Co238 O241 1.970 . S
Co238 N255 1.989 . S
Co238 O263 1.967 . S
Co238 O270 1.920 . S
Co239 O242 1.966 . S
Co239 N248 2.022 . S
Co239 N256 1.993 . S
Co239 O264 1.941 . S
C240 O241 1.258 . S
C240 O242 1.263 . S
O241 Co238 1.970 . S
O241 C240 1.258 . S
O242 Co239 1.966 . S
O242 C240 1.263 . S
C243 O244 1.235 . S
C243 O270 1.289 . S
O244 C243 1.235 . S
C245 C247 1.400 . S
C245 N248 1.351 . S
C245 C250 1.501 . S
C246 C247 1.387 . S
C246 N249 1.341 . S
C247 C245 1.400 . S
C247 C246 1.387 . S
N248 Co239 2.022 . S
N248 C245 1.351 . S
N248 N249 1.365 . S
N249 C246 1.341 . S
N249 N248 1.365 . S
N249 H269 0.862 . S
C250 C245 1.501 . S
C250 H251 0.961 . S
C250 H252 0.961 . S
C250 H253 0.960 . S
H251 C250 0.961 . S
H252 C250 0.961 . S
H253 C250 0.960 . S
C254 N255 1.342 . S
C254 C258 1.401 . S
C254 C259 1.499 . S
N255 Co238 1.989 . S
N255 C254 1.342 . S
N255 N256 1.388 . S
N256 Co239 1.993 . S
N256 N255 1.388 . S
N256 C257 1.346 . S
C257 N256 1.346 . S
C257 C258 1.396 . S
C257 C267 1.510 . S
C258 C254 1.401 . S
C258 C257 1.396 . S
C259 C254 1.499 . S
C259 H260 0.959 . S
C259 H261 0.960 . S
C259 H262 0.961 . S
H260 C259 0.959 . S
H261 C259 0.960 . S
H262 C259 0.961 . S
O263 Co238 1.967 . S
O263 C271 1.258 . S
O264 Co239 1.941 . S
O264 C271 1.266 . S
H265 C267 0.959 . S
H266 C267 0.961 . S
C267 C257 1.510 . S
C267 H265 0.959 . S
C267 H266 0.961 . S
C267 H268 0.960 . S
H268 C267 0.960 . S
H269 N249 0.862 . S
O270 Co238 1.920 . S
O270 C243 1.289 . S
C271 O263 1.258 . S
C271 O264 1.266 . S
Co272 O275 1.970 . S
Co272 N289 1.989 . S
Co272 O297 1.967 . S
Co272 O304 1.920 . S
Co273 O276 1.966 . S
Co273 N282 2.022 . S
Co273 N290 1.993 . S
Co273 O298 1.941 . S
C274 O275 1.258 . S
C274 O276 1.263 . S
O275 Co272 1.970 . S
O275 C274 1.258 . S
O276 Co273 1.966 . S
O276 C274 1.263 . S
C277 O278 1.235 . S
C277 O304 1.289 . S
O278 C277 1.235 . S
C279 C281 1.400 . S
C279 N282 1.351 . S
C279 C284 1.501 . S
C280 C281 1.387 . S
C280 N283 1.341 . S
C281 C279 1.400 . S
C281 C280 1.387 . S
N282 Co273 2.022 . S
N282 C279 1.351 . S
N282 N283 1.365 . S
N283 C280 1.341 . S
N283 N282 1.365 . S
N283 H303 0.862 . S
C284 C279 1.501 . S
C284 H285 0.961 . S
C284 H286 0.961 . S
C284 H287 0.960 . S
H285 C284 0.961 . S
H286 C284 0.961 . S
H287 C284 0.960 . S
C288 N289 1.342 . S
C288 C292 1.401 . S
C288 C293 1.499 . S
N289 Co272 1.989 . S
N289 C288 1.342 . S
N289 N290 1.388 . S
N290 Co273 1.993 . S
N290 N289 1.388 . S
N290 C291 1.346 . S
C291 N290 1.346 . S
C291 C292 1.396 . S
C291 C301 1.510 . S
C292 C288 1.401 . S
C292 C291 1.396 . S
C293 C288 1.499 . S
C293 H294 0.959 . S
C293 H295 0.960 . S
C293 H296 0.961 . S
H294 C293 0.959 . S
H295 C293 0.960 . S
H296 C293 0.961 . S
O297 Co272 1.967 . S
O297 C305 1.258 . S
O298 Co273 1.941 . S
O298 C305 1.266 . S
H299 C301 0.959 . S
H300 C301 0.961 . S
C301 C291 1.510 . S
C301 H299 0.959 . S
C301 H300 0.961 . S
C301 H302 0.960 . S
H302 C301 0.960 . S
H303 N283 0.862 . S
O304 Co272 1.920 . S
O304 C277 1.289 . S
C305 O297 1.258 . S
C305 O298 1.266 . S
Co306 O309 1.970 . S
Co306 N323 1.989 . S
Co306 O331 1.967 . S
Co306 O338 1.920 . S
Co307 O310 1.966 . S
Co307 N316 2.022 . S
Co307 N324 1.993 . S
Co307 O332 1.941 . S
C308 O309 1.258 . S
C308 O310 1.263 . S
O309 Co306 1.970 . S
O309 C308 1.258 . S
O310 Co307 1.966 . S
O310 C308 1.263 . S
C311 O312 1.235 . S
C311 O338 1.289 . S
O312 C311 1.235 . S
C313 C315 1.400 . S
C313 N316 1.351 . S
C313 C318 1.501 . S
C314 C315 1.387 . S
C314 N317 1.341 . S
C315 C313 1.400 . S
C315 C314 1.387 . S
N316 Co307 2.022 . S
N316 C313 1.351 . S
N316 N317 1.365 . S
N317 C314 1.341 . S
N317 N316 1.365 . S
N317 H337 0.862 . S
C318 C313 1.501 . S
C318 H319 0.961 . S
C318 H320 0.961 . S
C318 H321 0.960 . S
H319 C318 0.961 . S
H320 C318 0.961 . S
H321 C318 0.960 . S
C322 N323 1.342 . S
C322 C326 1.401 . S
C322 C327 1.499 . S
N323 Co306 1.989 . S
N323 C322 1.342 . S
N323 N324 1.388 . S
N324 Co307 1.993 . S
N324 N323 1.388 . S
N324 C325 1.346 . S
C325 N324 1.346 . S
C325 C326 1.396 . S
C325 C335 1.510 . S
C326 C322 1.401 . S
C326 C325 1.396 . S
C327 C322 1.499 . S
C327 H328 0.959 . S
C327 H329 0.960 . S
C327 H330 0.961 . S
H328 C327 0.959 . S
H329 C327 0.960 . S
H330 C327 0.961 . S
O331 Co306 1.967 . S
O331 C339 1.258 . S
O332 Co307 1.941 . S
O332 C339 1.266 . S
H333 C335 0.959 . S
H334 C335 0.961 . S
C335 C325 1.510 . S
C335 H333 0.959 . S
C335 H334 0.961 . S
C335 H336 0.960 . S
H336 C335 0.960 . S
H337 N317 0.862 . S
O338 Co306 1.920 . S
O338 C311 1.289 . S
C339 O331 1.258 . S
C339 O332 1.266 . S
Co340 O343 1.970 . S
Co340 N357 1.989 . S
Co340 O365 1.967 . S
Co340 O372 1.920 . S
Co341 O344 1.966 . S
Co341 N350 2.022 . S
Co341 N358 1.993 . S
Co341 O366 1.941 . S
C342 O343 1.258 . S
C342 O344 1.263 . S
O343 Co340 1.970 . S
O343 C342 1.258 . S
O344 Co341 1.966 . S
O344 C342 1.263 . S
C345 O346 1.235 . S
C345 O372 1.289 . S
O346 C345 1.235 . S
C347 C349 1.400 . S
C347 N350 1.351 . S
C347 C352 1.501 . S
C348 C349 1.387 . S
C348 N351 1.341 . S
C349 C347 1.400 . S
C349 C348 1.387 . S
N350 Co341 2.022 . S
N350 C347 1.351 . S
N350 N351 1.365 . S
N351 C348 1.341 . S
N351 N350 1.365 . S
N351 H371 0.862 . S
C352 C347 1.501 . S
C352 H353 0.961 . S
C352 H354 0.961 . S
C352 H355 0.960 . S
H353 C352 0.961 . S
H354 C352 0.961 . S
H355 C352 0.960 . S
C356 N357 1.342 . S
C356 C360 1.401 . S
C356 C361 1.499 . S
N357 Co340 1.989 . S
N357 C356 1.342 . S
N357 N358 1.388 . S
N358 Co341 1.993 . S
N358 N357 1.388 . S
N358 C359 1.346 . S
C359 N358 1.346 . S
C359 C360 1.396 . S
C359 C369 1.510 . S
C360 C356 1.401 . S
C360 C359 1.396 . S
C361 C356 1.499 . S
C361 H362 0.959 . S
C361 H363 0.960 . S
C361 H364 0.961 . S
H362 C361 0.959 . S
H363 C361 0.960 . S
H364 C361 0.961 . S
O365 Co340 1.967 . S
O365 C373 1.258 . S
O366 Co341 1.941 . S
O366 C373 1.266 . S
H367 C369 0.959 . S
H368 C369 0.961 . S
C369 C359 1.510 . S
C369 H367 0.959 . S
C369 H368 0.961 . S
C369 H370 0.960 . S
H370 C369 0.960 . S
H371 N351 0.862 . S
O372 Co340 1.920 . S
O372 C345 1.289 . S
C373 O365 1.258 . S
C373 O366 1.266 . S
Co374 O377 1.970 . S
Co374 N391 1.989 . S
Co374 O399 1.967 . S
Co374 O406 1.920 . S
Co375 O378 1.966 . S
Co375 N384 2.022 . S
Co375 N392 1.993 . S
Co375 O400 1.941 . S
C376 O377 1.258 . S
C376 O378 1.263 . S
O377 Co374 1.970 . S
O377 C376 1.258 . S
O378 Co375 1.966 . S
O378 C376 1.263 . S
C379 O380 1.235 . S
C379 O406 1.289 . S
O380 C379 1.235 . S
C381 C383 1.400 . S
C381 N384 1.351 . S
C381 C386 1.501 . S
C382 C383 1.387 . S
C382 N385 1.341 . S
C383 C381 1.400 . S
C383 C382 1.387 . S
N384 Co375 2.022 . S
N384 C381 1.351 . S
N384 N385 1.365 . S
N385 C382 1.341 . S
N385 N384 1.365 . S
N385 H405 0.862 . S
C386 C381 1.501 . S
C386 H387 0.961 . S
C386 H388 0.961 . S
C386 H389 0.960 . S
H387 C386 0.961 . S
H388 C386 0.961 . S
H389 C386 0.960 . S
C390 N391 1.342 . S
C390 C394 1.401 . S
C390 C395 1.499 . S
N391 Co374 1.989 . S
N391 C390 1.342 . S
N391 N392 1.388 . S
N392 Co375 1.993 . S
N392 N391 1.388 . S
N392 C393 1.346 . S
C393 N392 1.346 . S
C393 C394 1.396 . S
C393 C403 1.510 . S
C394 C390 1.401 . S
C394 C393 1.396 . S
C395 C390 1.499 . S
C395 H396 0.959 . S
C395 H397 0.960 . S
C395 H398 0.961 . S
H396 C395 0.959 . S
H397 C395 0.960 . S
H398 C395 0.961 . S
O399 Co374 1.967 . S
O399 C407 1.258 . S
O400 Co375 1.941 . S
O400 C407 1.266 . S
H401 C403 0.959 . S
H402 C403 0.961 . S
C403 C393 1.510 . S
C403 H401 0.959 . S
C403 H402 0.961 . S
C403 H404 0.960 . S
H404 C403 0.960 . S
H405 N385 0.862 . S
O406 Co374 1.920 . S
O406 C379 1.289 . S
C407 O399 1.258 . S
C407 O400 1.266 . S
C408 C409 1.170 . S
C408 C410 1.380 . S
C409 C408 1.170 . S
C410 C408 1.380 . S
C410 C411 1.170 . S
C411 C410 1.170 . S
C412 C413 1.170 . S
C412 C414 1.380 1_655 S
C413 C412 1.170 . S
C414 C412 1.380 1_455 S
C414 C415 1.170 . S
C415 C414 1.170 . S
C416 C417 1.170 . S
C416 C418 1.380 1_545 S
C417 C416 1.170 . S
C418 C416 1.380 1_565 S
C418 C419 1.170 . S
C419 C418 1.170 . S
C420 C421 1.170 . S
C420 C422 1.380 . S
C421 C420 1.170 . S
C422 C420 1.380 . S
C422 C423 1.170 . S
C423 C422 1.170 . S
C424 C425 1.170 . S
C424 C426 1.380 1_455 S
C425 C424 1.170 . S
C426 C424 1.380 1_655 S
C426 C427 1.170 . S
C427 C426 1.170 . S
C428 C429 1.170 . S
C428 C430 1.380 1_565 S
C429 C428 1.170 . S
C430 C428 1.380 1_545 S
C430 C431 1.170 . S
C431 C430 1.170 . S
C432 C433 1.170 . S
C432 C434 1.380 1_554 S
C433 C432 1.170 . S
C434 C432 1.380 1_556 S
C434 C435 1.170 . S
C435 C434 1.170 . S
C436 C437 1.170 . S
C436 C438 1.380 . S
C437 C436 1.170 . S
C438 C436 1.380 . S
C438 C439 1.170 . S
C439 C438 1.170 . S
C440 C441 1.170 . S
C440 C442 1.380 . S
C441 C440 1.170 . S
C442 C440 1.380 . S
C442 C443 1.170 . S
C443 C442 1.170 . S
C444 C445 1.170 . S
C444 C446 1.380 1_554 S
C445 C444 1.170 . S
C446 C444 1.380 1_556 S
C446 C447 1.170 . S
C447 C446 1.170 . S
C448 C449 1.170 . S
C448 C450 1.380 . S
C449 C448 1.170 . S
C450 C448 1.380 . S
C450 C451 1.170 . S
C451 C450 1.170 . S
C452 C453 1.170 . S
C452 C454 1.380 . S
C453 C452 1.170 . S
C454 C452 1.380 . S
C454 C455 1.170 . S
C455 C454 1.170 . S
C456 C457 1.170 . S
C456 C458 1.380 . S
C457 C456 1.170 . S
C458 C456 1.380 . S
C458 C459 1.170 . S
C459 C458 1.170 . S
C460 C461 1.170 . S
C460 C462 1.380 1_655 S
C461 C460 1.170 . S
C462 C460 1.380 1_455 S
C462 C463 1.170 . S
C463 C462 1.170 . S
C464 C465 1.170 . S
C464 C466 1.380 1_566 S
C465 C464 1.170 . S
C466 C464 1.380 1_544 S
C466 C467 1.170 . S
C467 C466 1.170 . S
C468 C469 1.170 . S
C468 C470 1.380 . S
C469 C468 1.170 . S
C470 C468 1.380 . S
C470 C471 1.170 . S
C471 C470 1.170 . S
C472 C473 1.170 . S
C472 C474 1.380 1_655 S
C473 C472 1.170 . S
C474 C472 1.380 1_455 S
C474 C475 1.170 . S
C475 C474 1.170 . S
C476 C477 1.170 . S
C476 C478 1.380 1_564 S
C477 C476 1.170 . S
C478 C476 1.380 1_546 S
C478 C479 1.170 . S
C479 C478 1.170 . S
C480 C481 1.170 . S
C480 C482 1.380 . S
C481 C480 1.170 . S
C482 C480 1.380 . S
C482 C483 1.170 . S
C483 C482 1.170 . S
C484 C485 1.170 . S
C484 C486 1.380 . S
C485 C484 1.170 . S
C486 C484 1.380 . S
C486 C487 1.170 . S
C487 C486 1.170 . S
C488 C489 1.170 . S
C488 C490 1.380 1_556 S
C489 C488 1.170 . S
C490 C488 1.380 1_554 S
C490 C491 1.170 . S
C491 C490 1.170 . S
C492 C493 1.170 . S
C492 C494 1.380 . S
C493 C492 1.170 . S
C494 C492 1.380 . S
C494 C495 1.170 . S
C495 C494 1.170 . S
C496 C497 1.170 . S
C496 C498 1.380 . S
C497 C496 1.170 . S
C498 C496 1.380 . S
C498 C499 1.170 . S
C499 C498 1.170 . S
C500 C501 1.170 . S
C500 C502 1.383 . S
C501 C500 1.170 . S
C502 C500 1.383 . S
C502 C503 1.167 1_554 S
C503 C502 1.167 1_556 S
C504 C505 1.170 . S
C504 C506 1.380 . S
C505 C504 1.170 . S
C506 C504 1.380 . S
C506 C507 1.170 . S
C507 C506 1.170 . S
C508 C509 1.170 . S
C508 C510 1.380 . S
C509 C508 1.170 . S
C510 C508 1.380 . S
C510 C511 1.170 . S
C511 C510 1.170 . S
C512 C513 1.170 . S
C512 C514 1.380 . S
C513 C512 1.170 . S
C514 C512 1.380 . S
C514 C515 1.170 . S
C515 C514 1.170 . S
C516 C517 1.170 . S
C516 C518 1.380 . S
C517 C516 1.170 . S
C518 C516 1.380 . S
C518 C519 1.170 . S
C519 C518 1.170 . S
C520 C521 1.170 . S
C520 C522 1.380 . S
C521 C520 1.170 . S
C522 C520 1.380 . S
C522 C523 1.170 . S
C523 C522 1.170 . S
C524 C525 1.170 . S
C524 C526 1.380 . S
C525 C524 1.170 . S
C526 C524 1.380 . S
C526 C527 1.170 . S
C527 C526 1.170 . S
C409 C135 1.489 . S
C411 C33 1.486 . S
C413 C67 1.499 . S
C415 C169 1.477 . S
C417 C203 1.486 . S
C419 C101 1.490 . S
C421 C237 1.499 . S
C423 C339 1.476 . S
C425 C373 1.488 . S
C427 C271 1.487 . S
C429 C305 1.473 . S
C431 C407 1.502 . S
C433 C9 1.751 . S
C435 C349 1.739 . S
C437 C383 1.742 . S
C439 C43 1.760 . S
C441 C77 1.755 . S
C443 C213 1.780 . S
C445 C111 1.749 . S
C447 C247 1.739 . S
C449 C145 1.786 . S
C451 C281 1.761 . S
C453 C179 1.791 . S
C455 C315 1.768 . S
C457 C308 1.977 . S
C459 C2 1.976 . S
C461 C36 1.961 . S
C463 C342 1.960 . S
C465 C70 1.948 . S
C467 C376 1.948 . S
C469 C206 1.968 . S
C471 C104 1.968 . S
C473 C240 1.990 . S
C475 C138 1.990 . S
C477 C274 1.990 . S
C479 C172 1.990 . S
C481 C5 1.424 . S
C483 C209 1.362 . S
C485 C39 1.382 . S
C487 C243 1.376 . S
C489 C277 1.396 1_556 S
C491 C73 1.365 1_554 S
C493 C107 1.362 . S
C495 C311 1.400 . S
C497 C345 1.367 . S
C499 C141 1.392 . S
C501 C175 1.423 1_554 S
C503 C379 1.374 1_556 S
C505 C292 1.300 . S
C507 C20 1.305 . S
C509 C326 1.287 . S
C511 C54 1.296 . S
C513 C360 1.303 . S
C515 C88 1.303 . S
C517 C122 1.299 . S
C519 C394 1.305 . S
C521 C224 1.289 . S
C523 C156 1.287 . S
C525 C258 1.287 . S
C527 C190 1.297 . S
