# Generated by pormake.
# Topology mok, (4)-cn, num edge types: 1
# Building blocks:
#     Node 0, Type 0, BuildingBlock: CEKHIL_clean_sbu_0, # of connection points: 4
#     Node 1, Type 0, BuildingBlock: CEKHIL_clean_sbu_0, # of connection points: 4
#     Node 2, Type 0, BuildingBlock: CEKHIL_clean_sbu_0, # of connection points: 4
#     Node 3, Type 0, BuildingBlock: CEKHIL_clean_sbu_0, # of connection points: 4
#     Node 4, Type 0, BuildingBlock: CEKHIL_clean_sbu_0, # of connection points: 4
#     Node 5, Type 0, BuildingBlock: CEKHIL_clean_sbu_0, # of connection points: 4
#     Node 6, Type 0, BuildingBlock: CEKHIL_clean_sbu_0, # of connection points: 4
#     Node 7, Type 0, BuildingBlock: CEKHIL_clean_sbu_0, # of connection points: 4
#     Edge 8, Type (0, 0), BuildingBlock: FUNLAD_clean_linker_0, # of connection points: 2
#     Edge 9, Type (0, 0), BuildingBlock: FUNLAD_clean_linker_0, # of connection points: 2
#     Edge 10, Type (0, 0), BuildingBlock: FUNLAD_clean_linker_0, # of connection points: 2
#     Edge 11, Type (0, 0), BuildingBlock: FUNLAD_clean_linker_0, # of connection points: 2
#     Edge 12, Type (0, 0), BuildingBlock: FUNLAD_clean_linker_0, # of connection points: 2
#     Edge 13, Type (0, 0), BuildingBlock: FUNLAD_clean_linker_0, # of connection points: 2
#     Edge 14, Type (0, 0), BuildingBlock: FUNLAD_clean_linker_0, # of connection points: 2
#     Edge 15, Type (0, 0), BuildingBlock: FUNLAD_clean_linker_0, # of connection points: 2
#     Edge 16, Type (0, 0), BuildingBlock: FUNLAD_clean_linker_0, # of connection points: 2
#     Edge 17, Type (0, 0), BuildingBlock: FUNLAD_clean_linker_0, # of connection points: 2
#     Edge 18, Type (0, 0), BuildingBlock: FUNLAD_clean_linker_0, # of connection points: 2
#     Edge 19, Type (0, 0), BuildingBlock: FUNLAD_clean_linker_0, # of connection points: 2
#     Edge 20, Type (0, 0), BuildingBlock: FUNLAD_clean_linker_0, # of connection points: 2
#     Edge 21, Type (0, 0), BuildingBlock: FUNLAD_clean_linker_0, # of connection points: 2
#     Edge 22, Type (0, 0), BuildingBlock: FUNLAD_clean_linker_0, # of connection points: 2
#     Edge 23, Type (0, 0), BuildingBlock: FUNLAD_clean_linker_0, # of connection points: 2
# Relax obj value: 0.017
# Max RMSD: 0.041
# Mean RMSD: 0.041
data_MOF--net-mok--node1-CEKHIL_clean_sbu_0--edge1-FUNLAD_clean_linker_0
_symmetry_space_group_name_H-M    P1
_symmetry_Int_Tables_number       1
_symmetry_cell_setting            triclinic
loop_
_symmetry_equiv_pos_as_xyz
'x, y, z'
_cell_length_a     61.986461
_cell_length_b     17.829002
_cell_length_c     31.59955
_cell_angle_alpha  89.993116
_cell_angle_beta   89.960394
_cell_angle_gamma 90.189556
loop_
_atom_site_label
_atom_site_type_symbol
_atom_site_fract_x
_atom_site_fract_y
_atom_site_fract_z
_atom_type_partial_charge
Co0 Co 0.61431 0.32926 0.02635 0.0
O1 O 0.58376 0.31251 0.03234 0.0
O2 O 0.60627 0.22961 0.00552 0.0
C3 C 0.61922 0.37746 0.09161 0.0
O4 O 0.64731 0.32802 0.01725 0.0
Co5 Co 0.63166 0.49408 0.03203 0.0
O6 O 0.66014 0.44434 0.03059 0.0
C7 C 0.60717 0.44439 0.95738 0.0
C8 C 0.58654 0.24662 0.01606 0.0
C9 C 0.66307 0.37535 0.02163 0.0
O10 O 0.60926 0.37531 0.96873 0.0
O11 O 0.61289 0.49964 0.9807 0.0
O12 O 0.6188 0.3051 0.08641 0.0
O13 O 0.6148 0.41636 0.05852 0.0
Co14 Co 0.40761 0.70186 0.03031 0.0
O15 O 0.43849 0.71436 0.03217 0.0
O16 O 0.41604 0.80024 0.00836 0.0
C17 C 0.40424 0.65573 0.09669 0.0
O18 O 0.37449 0.7083 0.02552 0.0
Co19 Co 0.38825 0.54116 0.03816 0.0
O20 O 0.36063 0.59589 0.04383 0.0
C21 C 0.40883 0.58782 0.95828 0.0
C22 C 0.43587 0.78081 0.0165 0.0
C23 C 0.35829 0.66479 0.03404 0.0
O24 O 0.40989 0.6559 0.97189 0.0
O25 O 0.40252 0.53292 0.98136 0.0
O26 O 0.40546 0.72763 0.0904 0.0
O27 O 0.40713 0.6148 0.06351 0.0
Co28 Co 0.61405 0.68568 0.51454 0.0
O29 O 0.58363 0.70651 0.50984 0.0
O30 O 0.6076 0.78409 0.53767 0.0
C31 C 0.61835 0.64152 0.44837 0.0
O32 O 0.64694 0.68476 0.52271 0.0
Co33 Co 0.6313 0.5223 0.50503 0.0
O34 O 0.65944 0.57427 0.49858 0.0
C35 C 0.60782 0.56686 0.58223 0.0
C36 C 0.58761 0.77093 0.52728 0.0
C37 C 0.66255 0.64126 0.51137 0.0
O38 O 0.60895 0.63643 0.57125 0.0
O39 O 0.61415 0.51308 0.55848 0.0
O40 O 0.61842 0.7135 0.45511 0.0
O41 O 0.61378 0.60038 0.48065 0.0
Co42 Co 0.40401 0.28684 0.51039 0.0
O43 O 0.43474 0.26962 0.51025 0.0
O44 O 0.41045 0.18817 0.53311 0.0
C45 C 0.40221 0.33253 0.44377 0.0
O46 O 0.37096 0.28312 0.51363 0.0
Co47 Co 0.38553 0.44731 0.50096 0.0
O48 O 0.35753 0.39472 0.49384 0.0
C49 C 0.40458 0.40101 0.58235 0.0
C50 C 0.43065 0.20382 0.5259 0.0
C51 C 0.35496 0.32611 0.50409 0.0
O52 O 0.40597 0.33308 0.5687 0.0
O53 O 0.39849 0.4557 0.559 0.0
O54 O 0.40244 0.26062 0.45044 0.0
O55 O 0.40492 0.37387 0.47692 0.0
Co56 Co 0.11403 0.81363 0.0261 0.0
O57 O 0.08309 0.80358 0.02818 0.0
O58 O 0.10492 0.71602 0.00407 0.0
C59 C 0.11742 0.86054 0.092 0.0
O60 O 0.14717 0.80453 0.02122 0.0
Co61 Co 0.13497 0.97276 0.03554 0.0
O62 O 0.16185 0.91439 0.04196 0.0
C63 C 0.11183 0.93126 0.95736 0.0
C64 C 0.08525 0.73703 0.01236 0.0
C65 C 0.16366 0.84575 0.03122 0.0
O66 O 0.11172 0.8615 0.96825 0.0
O67 O 0.11842 0.98392 0.98171 0.0
O68 O 0.11597 0.78837 0.08658 0.0
O69 O 0.11508 0.90035 0.05844 0.0
Co70 Co 0.90372 0.20457 0.02747 0.0
O71 O 0.93456 0.21728 0.02675 0.0
O72 O 0.91165 0.30338 0.00504 0.0
C73 C 0.90209 0.15843 0.09406 0.0
O74 O 0.87045 0.20976 0.02561 0.0
Co75 Co 0.8853 0.04278 0.03699 0.0
O76 O 0.85804 0.0973 0.04758 0.0
C77 C 0.90331 0.09104 0.95502 0.0
C78 C 0.93164 0.28384 0.01154 0.0
C79 C 0.85491 0.16559 0.0373 0.0
O80 O 0.90481 0.15885 0.9689 0.0
O81 O 0.89758 0.03576 0.97839 0.0
O82 O 0.90288 0.23035 0.08765 0.0
O83 O 0.90432 0.11758 0.06066 0.0
Co84 Co 0.1119 0.18121 0.5133 0.0
O85 O 0.08135 0.20088 0.50953 0.0
O86 O 0.10546 0.28059 0.53492 0.0
C87 C 0.11562 0.13325 0.4479 0.0
O88 O 0.14486 0.18235 0.52008 0.0
Co89 Co 0.12979 0.01833 0.50607 0.0
O90 O 0.15804 0.06995 0.50076 0.0
C91 C 0.10628 0.06569 0.58261 0.0
C92 C 0.0854 0.26637 0.52565 0.0
C93 C 0.16077 0.13843 0.51116 0.0
O94 O 0.10757 0.1349 0.57102 0.0
O95 O 0.11234 0.01106 0.55922 0.0
O96 O 0.11554 0.20561 0.45322 0.0
O97 O 0.11157 0.09391 0.48112 0.0
Co98 Co 0.90337 0.7888 0.50742 0.0
O99 O 0.93399 0.76974 0.50784 0.0
O100 O 0.90923 0.68995 0.53062 0.0
C101 C 0.90205 0.83382 0.44067 0.0
O102 O 0.87028 0.78772 0.50998 0.0
Co103 Co 0.88589 0.95091 0.49651 0.0
O104 O 0.8585 0.8976 0.48368 0.0
C105 C 0.90437 0.90437 0.57852 0.0
C106 C 0.92953 0.70431 0.52358 0.0
C107 C 0.85512 0.83048 0.49594 0.0
O108 O 0.90534 0.83595 0.56549 0.0
O109 O 0.89866 0.95898 0.55472 0.0
O110 O 0.90195 0.76194 0.44745 0.0
O111 O 0.90486 0.87514 0.47376 0.0
C112 C 0.82526 0.25584 0.01552 0.0
C113 C 0.83205 0.19178 0.03775 0.0
C114 C 0.80323 0.27484 0.01371 0.0
C115 C 0.78751 0.23013 0.03431 0.0
C116 C 0.79455 0.16765 0.0574 0.0
C117 C 0.81636 0.1487 0.05905 0.0
C118 C 0.76373 0.24555 0.03349 0.0
C119 C 0.75401 0.2979 0.00934 0.0
C120 C 0.73034 0.31367 0.01106 0.0
C121 C 0.72335 0.38654 0.00188 0.0
C122 C 0.70154 0.4053 0.00455 0.0
C123 C 0.68589 0.35136 0.01574 0.0
H124 H 0.71936 0.20127 0.02721 0.0
C125 C 0.69265 0.27733 0.02322 0.0
C126 C 0.71469 0.25869 0.02113 0.0
H127 H 0.68103 0.23443 0.03175 0.0
H128 H 0.83687 0.29032 -0.00124 0.0
H129 H 0.79879 0.32435 0.9961 0.0
H130 H 0.78306 0.13236 0.07399 0.0
H131 H 0.82086 0.0993 0.07691 0.0
H132 H 0.75372 0.21195 0.05447 0.0
H133 H 0.76366 0.33378 0.98907 0.0
H134 H 0.7349 0.42988 0.99355 0.0
H135 H 0.69696 0.46275 -0.00193 0.0
C136 C 0.20344 0.85869 0.04436 0.0
C137 C 0.18602 0.81475 0.02968 0.0
C138 C 0.22463 0.83248 0.04247 0.0
C139 C 0.22922 0.76144 0.02547 0.0
C140 C 0.21184 0.71674 0.01146 0.0
C141 C 0.19049 0.74307 0.0134 0.0
C142 C 0.25172 0.73108 0.02397 0.0
C143 C 0.26974 0.77441 0.02533 0.0
C144 C 0.2923 0.7446 0.02663 0.0
C145 C 0.3097 0.79277 0.01701 0.0
C146 C 0.33113 0.76764 0.01936 0.0
C147 C 0.33571 0.69363 0.03169 0.0
H148 H 0.28426 0.63223 0.0484 0.0
C149 C 0.31826 0.64578 0.04166 0.0
C150 C 0.29694 0.6708 0.03932 0.0
H151 H 0.321 0.58849 0.05165 0.0
H152 H 0.20077 0.91383 0.05771 0.0
H153 H 0.23725 0.86789 0.0552 0.0
H154 H 0.21479 0.66129 -0.00127 0.0
H155 H 0.17756 0.7075 0.00193 0.0
H156 H 0.2533 0.67078 0.02074 0.0
H157 H 0.2681 0.83496 0.02471 0.0
H158 H 0.30671 0.85024 0.0076 0.0
H159 H 0.34406 0.8062 0.01151 0.0
C160 C 0.82384 0.75913 0.52725 0.0
C161 C 0.83263 0.80245 0.49428 0.0
C162 C 0.80196 0.7384 0.52658 0.0
C163 C 0.78872 0.75912 0.49235 0.0
C164 C 0.79776 0.80028 0.45889 0.0
C165 C 0.81936 0.82281 0.46016 0.0
C166 C 0.76574 0.73575 0.4895 0.0
C167 C 0.75214 0.73567 0.52282 0.0
C168 C 0.72906 0.71312 0.51882 0.0
C169 C 0.71327 0.74782 0.54402 0.0
C170 C 0.6915 0.72633 0.54099 0.0
C171 C 0.68523 0.66826 0.51348 0.0
H172 H 0.73447 0.62643 0.47184 0.0
C173 C 0.70112 0.63337 0.48853 0.0
C174 C 0.72271 0.65563 0.49103 0.0
H175 H 0.69689 0.58843 0.46697 0.0
H176 H 0.83371 0.74301 0.55399 0.0
H177 H 0.7955 0.70532 0.55242 0.0
H178 H 0.78797 0.8162 0.43197 0.0
H179 H 0.82574 0.85595 0.43424 0.0
H180 H 0.7595 0.72302 0.45817 0.0
H181 H 0.75778 0.756 0.55331 0.0
H182 H 0.71776 0.79194 0.5659 0.0
H183 H 0.6797 0.75394 0.56085 0.0
C184 C 0.20064 0.12108 0.50089 0.0
C185 C 0.18333 0.16752 0.51283 0.0
C186 C 0.22189 0.14764 0.50147 0.0
C187 C 0.22653 0.22148 0.51442 0.0
C188 C 0.20924 0.26803 0.5262 0.0
C189 C 0.18791 0.24145 0.52553 0.0
C190 C 0.24892 0.25298 0.51406 0.0
C191 C 0.26703 0.21074 0.51352 0.0
C192 C 0.2894 0.24214 0.51134 0.0
C193 C 0.30689 0.19637 0.52284 0.0
C194 C 0.32817 0.22303 0.52037 0.0
C195 C 0.3325 0.29624 0.50608 0.0
H196 H 0.28099 0.35155 0.48582 0.0
C197 C 0.31499 0.34168 0.49404 0.0
C198 C 0.29377 0.31502 0.49645 0.0
H199 H 0.31762 0.39815 0.48245 0.0
H200 H 0.19783 0.06401 0.49048 0.0
H201 H 0.23446 0.11029 0.49076 0.0
H202 H 0.21222 0.32541 0.53592 0.0
H203 H 0.17504 0.27898 0.53479 0.0
H204 H 0.25036 0.31359 0.51534 0.0
H205 H 0.26565 0.15024 0.51598 0.0
H206 H 0.3041 0.13968 0.53397 0.0
H207 H 0.34118 0.1863 0.52983 0.0
C208 C 0.62654 0.37238 0.16959 0.0
C209 C 0.62398 0.41421 0.13235 0.0
C210 C 0.62919 0.40881 0.20848 0.0
C211 C 0.62948 0.48787 0.21062 0.0
C212 C 0.62749 0.52916 0.1731 0.0
C213 C 0.62484 0.49287 0.13442 0.0
C214 C 0.62982 0.52966 0.25124 0.0
C215 C 0.63661 0.50044 0.28811 0.0
C216 C 0.63362 0.53934 0.32916 0.0
C217 C 0.63062 0.49551 0.36549 0.0
C218 C 0.62589 0.52909 0.40418 0.0
C219 C 0.62436 0.60749 0.40754 0.0
H220 H 0.63588 0.65387 0.30568 0.0
C221 C 0.6283 0.65186 0.37167 0.0
C222 C 0.63292 0.61811 0.33274 0.0
H223 H 0.6275 0.71245 0.37352 0.0
H224 H 0.62583 0.31169 0.16888 0.0
H225 H 0.63008 0.37465 0.23669 0.0
H226 H 0.62754 0.58994 0.17378 0.0
H227 H 0.62294 0.5268 0.10625 0.0
H228 H 0.62331 0.58611 0.2507 0.0
H229 H 0.64302 0.44391 0.28904 0.0
H230 H 0.63125 0.43485 0.36369 0.0
H231 H 0.62312 0.49328 0.43134 0.0
C232 C 0.39845 0.54468 0.14385 0.0
C233 C 0.40024 0.62276 0.13894 0.0
C234 C 0.39569 0.513 0.18399 0.0
C235 C 0.39487 0.55884 0.22028 0.0
C236 C 0.396 0.63705 0.21506 0.0
C237 C 0.39871 0.6687 0.17489 0.0
C238 C 0.3929 0.52788 0.26398 0.0
C239 C 0.39822 0.45694 0.27457 0.0
C240 C 0.39775 0.42717 0.31864 0.0
C241 C 0.39735 0.34908 0.32465 0.0
C242 C 0.39828 0.3183 0.36531 0.0
C243 C 0.39983 0.36502 0.40095 0.0
H244 H 0.39999 0.5343 0.35149 0.0
C245 C 0.39998 0.44315 0.39515 0.0
C246 C 0.39901 0.47399 0.35448 0.0
H247 H 0.40129 0.48063 0.42201 0.0
H248 H 0.3993 0.50781 0.11666 0.0
H249 H 0.3941 0.45273 0.18611 0.0
H250 H 0.3952 0.67389 0.24229 0.0
H251 H 0.39993 0.72913 0.17211 0.0
H252 H 0.38754 0.56632 0.28839 0.0
H253 H 0.40354 0.41833 0.25022 0.0
H254 H 0.39653 0.31158 0.29771 0.0
H255 H 0.39818 0.25785 0.36873 0.0
C256 C 0.41616 0.49747 0.89925 0.0
C257 C 0.41398 0.57195 0.91327 0.0
C258 C 0.41915 0.4814 0.85638 0.0
C259 C 0.41976 0.53952 0.82622 0.0
C260 C 0.41857 0.61409 0.8405 0.0
C261 C 0.41571 0.63022 0.8835 0.0
C262 C 0.42109 0.52514 0.77977 0.0
C263 C 0.41608 0.45878 0.76155 0.0
C264 C 0.41506 0.4465 0.71496 0.0
C265 C 0.41615 0.37281 0.69934 0.0
C266 C 0.4134 0.35803 0.65618 0.0
C267 C 0.40925 0.4167 0.62762 0.0
H268 H 0.40976 0.56276 0.69688 0.0
C269 C 0.40855 0.49064 0.64317 0.0
C270 C 0.41135 0.5054 0.68625 0.0
H271 H 0.40532 0.53734 0.62221 0.0
H272 H 0.41533 0.45115 0.92138 0.0
H273 H 0.4209 0.42327 0.84738 0.0
H274 H 0.41925 0.66016 0.81816 0.0
H275 H 0.41422 0.68826 0.89316 0.0
H276 H 0.42545 0.57244 0.75987 0.0
H277 H 0.41191 0.411 0.78115 0.0
H278 H 0.41883 0.32624 0.72072 0.0
H279 H 0.41403 0.30038 0.64545 0.0
C280 C 0.59833 0.40727 0.88265 0.0
C281 C 0.59922 0.46229 0.91441 0.0
C282 C 0.59374 0.42731 0.84081 0.0
C283 C 0.58974 0.50279 0.83011 0.0
C284 C 0.5895 0.55675 0.86233 0.0
C285 C 0.59411 0.53683 0.90396 0.0
C286 C 0.58846 0.52922 0.78565 0.0
C287 C 0.58377 0.48454 0.75261 0.0
C288 C 0.58735 0.50788 0.70804 0.0
C289 C 0.59197 0.45215 0.67817 0.0
C290 C 0.59809 0.47141 0.63713 0.0
C291 C 0.59958 0.54714 0.62483 0.0
H292 H 0.58327 0.62817 0.71675 0.0
C293 C 0.59372 0.60296 0.65399 0.0
C294 C 0.58757 0.58358 0.69517 0.0
H295 H 0.59427 0.66173 0.64534 0.0
H296 H 0.60223 0.34941 0.88965 0.0
H297 H 0.59457 0.38406 0.81689 0.0
H298 H 0.58649 0.6152 0.85504 0.0
H299 H 0.59437 0.58064 0.92771 0.0
H300 H 0.59306 0.58718 0.78011 0.0
H301 H 0.57916 0.42658 0.75814 0.0
H302 H 0.5917 0.39342 0.68703 0.0
H303 H 0.60216 0.42667 0.61539 0.0
C304 C 0.12225 0.85478 0.1708 0.0
C305 C 0.1214 0.89657 0.13323 0.0
C306 C 0.12436 0.89126 0.20984 0.0
C307 C 0.12577 0.97019 0.21172 0.0
C308 C 0.1254 0.01131 0.17398 0.0
C309 C 0.12332 0.97504 0.13521 0.0
C310 C 0.12582 0.01251 0.2521 0.0
C311 C 0.13199 0.98344 0.28939 0.0
C312 C 0.12939 0.02432 0.32993 0.0
C313 C 0.12611 0.9824 0.36687 0.0
C314 C 0.12188 0.01816 0.40516 0.0
C315 C 0.12108 0.09684 0.40745 0.0
H316 H 0.13268 0.13762 0.30494 0.0
C317 C 0.12524 0.1392 0.37093 0.0
C318 C 0.12943 0.10329 0.33246 0.0
H319 H 0.12503 0.19992 0.37196 0.0
H320 H 0.12067 0.79427 0.17015 0.0
H321 H 0.124 0.85753 0.23827 0.0
H322 H 0.12635 0.07202 0.17448 0.0
H323 H 0.12274 0.00899 0.10682 0.0
H324 H 0.11989 0.0697 0.25083 0.0
H325 H 0.13778 0.92612 0.29095 0.0
H326 H 0.12619 0.92163 0.3659 0.0
H327 H 0.11892 0.98386 0.43287 0.0
C328 C 0.89733 0.94472 0.39321 0.0
C329 C 0.89867 0.86661 0.39823 0.0
C330 C 0.89484 0.97634 0.35305 0.0
C331 C 0.89388 0.93041 0.31681 0.0
C332 C 0.89462 0.85217 0.3221 0.0
C333 C 0.89703 0.82056 0.36234 0.0
C334 C 0.8921 0.96146 0.27315 0.0
C335 C 0.89783 0.03218 0.26268 0.0
C336 C 0.89739 0.06245 0.21875 0.0
C337 C 0.8975 0.14062 0.21309 0.0
C338 C 0.8985 0.17186 0.17256 0.0
C339 C 0.8996 0.12551 0.13672 0.0
H340 H 0.89877 0.95562 0.18546 0.0
C341 C 0.89923 0.04732 0.14217 0.0
C342 C 0.8982 0.01601 0.18272 0.0
H343 H 0.90019 0.01014 0.11514 0.0
H344 H 0.89825 0.98169 0.42035 0.0
H345 H 0.89351 0.03664 0.35089 0.0
H346 H 0.8937 0.8153 0.2949 0.0
H347 H 0.89788 0.7601 0.36523 0.0
H348 H 0.88649 0.92337 0.24872 0.0
H349 H 0.90345 0.07031 0.28705 0.0
H350 H 0.89702 0.17781 0.24019 0.0
H351 H 0.89879 0.23235 0.16939 0.0
C352 C 0.91105 0.99587 0.63739 0.0
C353 C 0.90926 0.92112 0.62354 0.0
C354 C 0.91426 0.01246 0.68013 0.0
C355 C 0.91552 0.95455 0.71033 0.0
C356 C 0.91458 0.87982 0.69623 0.0
C357 C 0.91147 0.8632 0.65338 0.0
C358 C 0.91739 0.96919 0.75667 0.0
C359 C 0.91243 0.03525 0.77513 0.0
C360 C 0.91199 0.04727 0.82176 0.0
C361 C 0.91318 0.12088 0.83751 0.0
C362 C 0.91102 0.13519 0.88085 0.0
C363 C 0.90737 0.07609 0.90946 0.0
H364 H 0.9071 0.93065 0.83983 0.0
C365 C 0.90656 0.00226 0.89375 0.0
C366 C 0.90877 0.98798 0.8505 0.0
H367 H 0.90371 0.95523 0.91474 0.0
H368 H 0.90982 0.042 0.61522 0.0
H369 H 0.91574 0.07077 0.68899 0.0
H370 H 0.91572 0.83394 0.71861 0.0
H371 H 0.91031 0.80496 0.64386 0.0
H372 H 0.92218 0.92221 0.77633 0.0
H373 H 0.90786 0.08283 0.7558 0.0
H374 H 0.91549 0.16772 0.8161 0.0
H375 H 0.91171 0.19276 0.89172 0.0
C376 C 0.10113 0.89939 0.88263 0.0
C377 C 0.10489 0.95316 0.91429 0.0
C378 C 0.09653 0.92191 0.84117 0.0
C379 C 0.09545 0.99875 0.83081 0.0
C380 C 0.09843 0.05202 0.86283 0.0
C381 C 0.103 0.02967 0.90403 0.0
C382 C 0.09364 0.02615 0.78666 0.0
C383 C 0.08558 0.98534 0.75455 0.0
C384 C 0.08796 0.00885 0.70976 0.0
C385 C 0.08996 0.953 0.67888 0.0
C386 C 0.09522 0.97183 0.63733 0.0
C387 C 0.09841 0.04724 0.62561 0.0
H388 H 0.08737 0.12951 0.72016 0.0
C389 C 0.09492 0.10364 0.65586 0.0
C390 C 0.08969 0.08467 0.69756 0.0
H391 H 0.09684 0.16229 0.64771 0.0
H392 H 0.1025 0.84006 0.88948 0.0
H393 H 0.09486 0.87898 0.81722 0.0
H394 H 0.09776 0.11146 0.85575 0.0
H395 H 0.10556 0.07286 0.92762 0.0
H396 H 0.10039 0.0813 0.78034 0.0
H397 H 0.07896 0.92995 0.76062 0.0
H398 H 0.08843 0.89428 0.68729 0.0
H399 H 0.09736 0.92685 0.6147 0.0
C400 C 0.4524 0.9064 0.99714 0.0
C401 C 0.45479 0.83125 0.00975 0.0
C402 C 0.47052 0.95365 0.99312 0.0
C403 C 0.49148 0.92669 0.00177 0.0
C404 C 0.49374 0.85101 0.01319 0.0
C405 C 0.47573 0.80415 0.0173 0.0
C406 C 0.51143 0.97446 -0.00048 0.0
C407 C 0.51144 0.05018 0.00122 0.0
C408 C 0.53135 0.09818 0.00337 0.0
C409 C 0.52906 0.17276 0.01685 0.0
C410 C 0.54695 0.22019 0.02054 0.0
C411 C 0.56781 0.19487 0.01056 0.0
H412 H 0.5548 0.01647 0.98105 0.0
C413 C 0.57024 0.12071 0.99619 0.0
C414 C 0.55222 0.07281 0.99258 0.0
H415 H 0.58606 0.09956 0.98796 0.0
H416 H 0.43652 0.92894 0.99079 0.0
H417 H 0.46795 0.01087 0.98304 0.0
H418 H 0.50956 0.82808 0.01974 0.0
H419 H 0.47827 0.7465 0.02684 0.0
H420 H 0.52674 0.94519 -0.0005 0.0
H421 H 0.49613 0.07904 0.0041 0.0
H422 H 0.51331 0.1945 0.02514 0.0
H423 H 0.54435 0.27701 0.0315 0.0
C424 C 0.54887 0.80953 0.52158 0.0
C425 C 0.57016 0.82678 0.53362 0.0
C426 C 0.53243 0.8627 0.52541 0.0
C427 C 0.5368 0.93469 0.54171 0.0
C428 C 0.55808 0.95164 0.55404 0.0
C429 C 0.57456 0.89831 0.55022 0.0
C430 C 0.52004 0.99479 0.54368 0.0
C431 C 0.49854 0.98155 0.54309 0.0
C432 C 0.48172 0.04149 0.54148 0.0
C433 C 0.46023 0.02283 0.55144 0.0
C434 C 0.44368 0.07578 0.54746 0.0
C435 C 0.44821 0.14873 0.53311 0.0
H436 H 0.50237 0.13173 0.51849 0.0
C437 C 0.46972 0.16786 0.52369 0.0
C438 C 0.48625 0.11501 0.52766 0.0
H439 H 0.47378 0.22344 0.5123 0.0
H440 H 0.54492 0.75512 0.5084 0.0
H441 H 0.51651 0.84751 0.5143 0.0
H442 H 0.56205 0.0067 0.56636 0.0
H443 H 0.59078 0.91355 0.55967 0.0
H444 H 0.52586 0.05207 0.54626 0.0
H445 H 0.49275 0.92409 0.54426 0.0
H446 H 0.45615 0.96664 0.56186 0.0
H447 H 0.42729 0.05908 0.55486 0.0
C448 C 0.06774 0.61386 0.99135 0.0
C449 C 0.06596 0.68832 0.00556 0.0
C450 C 0.04928 0.56829 0.98707 0.0
C451 C 0.02858 0.59624 0.99712 0.0
C452 C 0.02694 0.67126 0.01026 0.0
C453 C 0.04528 0.71646 0.01452 0.0
C454 C 1.00825 0.5503 0.99493 0.0
C455 C 1.00764 0.47464 0.99257 0.0
C456 C 0.98745 0.4281 0.995 0.0
C457 C 0.98959 0.35135 0.00391 0.0
C458 C 0.97148 0.30517 0.00837 0.0
C459 C 0.95051 0.33399 0.00375 0.0
H460 H 0.9639 0.51521 0.98118 0.0
C461 C 0.94818 0.4103 0.99353 0.0
C462 C 0.96644 0.45696 0.98916 0.0
H463 H 0.93227 0.4342 0.98953 0.0
H464 H 0.0834 0.59056 0.98389 0.0
H465 H 0.05144 0.51162 0.97577 0.0
H466 H 0.01135 0.695 0.01796 0.0
H467 H 0.04319 0.77363 0.02533 0.0
H468 H 0.9932 0.58057 -0.00175 0.0
H469 H 0.02273 0.44409 0.99174 0.0
H470 H 1.00542 0.32692 0.00826 0.0
H471 H 0.974 0.24661 0.01597 0.0
C472 C 0.04659 0.30476 0.52042 0.0
C473 C 0.06795 0.32231 0.53179 0.0
C474 C 0.03017 0.35814 0.52414 0.0
C475 C 0.03468 0.43059 0.53966 0.0
C476 C 0.05603 0.44777 0.55135 0.0
C477 C 0.07246 0.39429 0.54762 0.0
C478 C 0.01801 0.49103 0.54151 0.0
C479 C 0.99647 0.47851 0.54072 0.0
C480 C 0.97987 0.5392 0.5391 0.0
C481 C 0.95829 0.5216 0.54904 0.0
C482 C 0.94197 0.57545 0.54512 0.0
C483 C 0.94681 0.64822 0.53087 0.0
H484 H 1.00087 0.62848 0.51615 0.0
C485 C 0.9684 0.66623 0.52147 0.0
C486 C 0.9847 0.61252 0.52535 0.0
H487 H 0.97271 0.72162 0.51012 0.0
H488 H 0.04255 0.24997 0.50785 0.0
H489 H 0.01418 0.34267 0.51358 0.0
H490 H 0.0601 0.50314 0.56308 0.0
H491 H 0.08874 0.40977 0.55657 0.0
H492 H 0.02395 0.54813 0.54417 0.0
H493 H 0.99049 0.42128 0.54175 0.0
H494 H 0.95398 0.46559 0.5594 0.0
H495 H 0.9255 0.55959 0.55248 0.0
loop_
_geom_bond_atom_site_label_1
_geom_bond_atom_site_label_2
_geom_bond_distance
_geom_bond_site_symmetry_2
_ccdc_geom_bond_type
Co0 O1 2.216 . S
Co0 O2 2.091 . S
Co0 O4 2.004 . S
Co0 O10 2.021 1_554 S
Co0 O12 2.137 . S
Co0 O13 2.244 . S
O1 Co0 2.216 . S
O1 C8 1.247 . S
O2 Co0 2.091 . S
O2 C8 1.261 . S
C3 O12 1.247 . S
C3 O13 1.272 . S
O4 Co0 2.004 . S
O4 C9 1.259 . S
Co5 O6 2.061 . S
Co5 O11 2.052 1_554 S
Co5 O13 2.135 . S
O6 Co5 2.061 . S
O6 C9 1.235 . S
C7 O10 1.238 . S
C7 O11 1.241 . S
C8 O1 1.247 . S
C8 O2 1.261 . S
C9 O4 1.259 . S
C9 O6 1.235 . S
O10 Co0 2.021 1_556 S
O10 C7 1.238 . S
O11 Co5 2.052 1_556 S
O11 C7 1.241 . S
O12 Co0 2.137 . S
O12 C3 1.247 . S
O13 Co0 2.244 . S
O13 C3 1.272 . S
O13 Co5 2.135 . S
Co14 O15 2.216 . S
Co14 O16 2.091 . S
Co14 O18 2.004 . S
Co14 O24 2.021 1_554 S
Co14 O26 2.137 . S
Co14 O27 2.244 . S
O15 Co14 2.216 . S
O15 C22 1.247 . S
O16 Co14 2.091 . S
O16 C22 1.261 . S
C17 O26 1.247 . S
C17 O27 1.272 . S
O18 Co14 2.004 . S
O18 C23 1.259 . S
Co19 O20 2.061 . S
Co19 O25 2.052 1_554 S
Co19 O27 2.135 . S
O20 Co19 2.061 . S
O20 C23 1.235 . S
C21 O24 1.238 . S
C21 O25 1.241 . S
C22 O15 1.247 . S
C22 O16 1.261 . S
C23 O18 1.259 . S
C23 O20 1.235 . S
O24 Co14 2.021 1_556 S
O24 C21 1.238 . S
O25 Co19 2.052 1_556 S
O25 C21 1.241 . S
O26 Co14 2.137 . S
O26 C17 1.247 . S
O27 Co14 2.244 . S
O27 C17 1.272 . S
O27 Co19 2.135 . S
Co28 O29 2.216 . S
Co28 O30 2.091 . S
Co28 O32 2.004 . S
Co28 O38 2.021 . S
Co28 O40 2.137 . S
Co28 O41 2.244 . S
O29 Co28 2.216 . S
O29 C36 1.247 . S
O30 Co28 2.091 . S
O30 C36 1.261 . S
C31 O40 1.247 . S
C31 O41 1.272 . S
O32 Co28 2.004 . S
O32 C37 1.259 . S
Co33 O34 2.061 . S
Co33 O39 2.052 . S
Co33 O41 2.135 . S
O34 Co33 2.061 . S
O34 C37 1.235 . S
C35 O38 1.238 . S
C35 O39 1.241 . S
C36 O29 1.247 . S
C36 O30 1.261 . S
C37 O32 1.259 . S
C37 O34 1.235 . S
O38 Co28 2.021 . S
O38 C35 1.238 . S
O39 Co33 2.052 . S
O39 C35 1.241 . S
O40 Co28 2.137 . S
O40 C31 1.247 . S
O41 Co28 2.244 . S
O41 C31 1.272 . S
O41 Co33 2.135 . S
Co42 O43 2.216 . S
Co42 O44 2.091 . S
Co42 O46 2.004 . S
Co42 O52 2.021 . S
Co42 O54 2.137 . S
Co42 O55 2.244 . S
O43 Co42 2.216 . S
O43 C50 1.247 . S
O44 Co42 2.091 . S
O44 C50 1.261 . S
C45 O54 1.247 . S
C45 O55 1.272 . S
O46 Co42 2.004 . S
O46 C51 1.259 . S
Co47 O48 2.061 . S
Co47 O53 2.052 . S
Co47 O55 2.135 . S
O48 Co47 2.061 . S
O48 C51 1.235 . S
C49 O52 1.238 . S
C49 O53 1.241 . S
C50 O43 1.247 . S
C50 O44 1.261 . S
C51 O46 1.259 . S
C51 O48 1.235 . S
O52 Co42 2.021 . S
O52 C49 1.238 . S
O53 Co47 2.052 . S
O53 C49 1.241 . S
O54 Co42 2.137 . S
O54 C45 1.247 . S
O55 Co42 2.244 . S
O55 C45 1.272 . S
O55 Co47 2.135 . S
Co56 O57 2.216 . S
Co56 O58 2.091 . S
Co56 O60 2.004 . S
Co56 O66 2.021 1_554 S
Co56 O68 2.137 . S
Co56 O69 2.244 . S
O57 Co56 2.216 . S
O57 C64 1.247 . S
O58 Co56 2.091 . S
O58 C64 1.261 . S
C59 O68 1.247 . S
C59 O69 1.272 . S
O60 Co56 2.004 . S
O60 C65 1.259 . S
Co61 O62 2.061 . S
Co61 O67 2.052 1_554 S
Co61 O69 2.135 . S
O62 Co61 2.061 . S
O62 C65 1.235 . S
C63 O66 1.238 . S
C63 O67 1.241 . S
C64 O57 1.247 . S
C64 O58 1.261 . S
C65 O60 1.259 . S
C65 O62 1.235 . S
O66 Co56 2.021 1_556 S
O66 C63 1.238 . S
O67 Co61 2.052 1_556 S
O67 C63 1.241 . S
O68 Co56 2.137 . S
O68 C59 1.247 . S
O69 Co56 2.244 . S
O69 C59 1.272 . S
O69 Co61 2.135 . S
Co70 O71 2.216 . S
Co70 O72 2.091 . S
Co70 O74 2.004 . S
Co70 O80 2.021 1_554 S
Co70 O82 2.137 . S
Co70 O83 2.244 . S
O71 Co70 2.216 . S
O71 C78 1.247 . S
O72 Co70 2.091 . S
O72 C78 1.261 . S
C73 O82 1.247 . S
C73 O83 1.272 . S
O74 Co70 2.004 . S
O74 C79 1.259 . S
Co75 O76 2.061 . S
Co75 O81 2.052 1_554 S
Co75 O83 2.135 . S
O76 Co75 2.061 . S
O76 C79 1.235 . S
C77 O80 1.238 . S
C77 O81 1.241 . S
C78 O71 1.247 . S
C78 O72 1.261 . S
C79 O74 1.259 . S
C79 O76 1.235 . S
O80 Co70 2.021 1_556 S
O80 C77 1.238 . S
O81 Co75 2.052 1_556 S
O81 C77 1.241 . S
O82 Co70 2.137 . S
O82 C73 1.247 . S
O83 Co70 2.244 . S
O83 C73 1.272 . S
O83 Co75 2.135 . S
Co84 O85 2.216 . S
Co84 O86 2.091 . S
Co84 O88 2.004 . S
Co84 O94 2.021 . S
Co84 O96 2.137 . S
Co84 O97 2.244 . S
O85 Co84 2.216 . S
O85 C92 1.247 . S
O86 Co84 2.091 . S
O86 C92 1.261 . S
C87 O96 1.247 . S
C87 O97 1.272 . S
O88 Co84 2.004 . S
O88 C93 1.259 . S
Co89 O90 2.061 . S
Co89 O95 2.052 . S
Co89 O97 2.135 . S
O90 Co89 2.061 . S
O90 C93 1.235 . S
C91 O94 1.238 . S
C91 O95 1.241 . S
C92 O85 1.247 . S
C92 O86 1.261 . S
C93 O88 1.259 . S
C93 O90 1.235 . S
O94 Co84 2.021 . S
O94 C91 1.238 . S
O95 Co89 2.052 . S
O95 C91 1.241 . S
O96 Co84 2.137 . S
O96 C87 1.247 . S
O97 Co84 2.244 . S
O97 C87 1.272 . S
O97 Co89 2.135 . S
Co98 O99 2.216 . S
Co98 O100 2.091 . S
Co98 O102 2.004 . S
Co98 O108 2.021 . S
Co98 O110 2.137 . S
Co98 O111 2.244 . S
O99 Co98 2.216 . S
O99 C106 1.247 . S
O100 Co98 2.091 . S
O100 C106 1.261 . S
C101 O110 1.247 . S
C101 O111 1.272 . S
O102 Co98 2.004 . S
O102 C107 1.259 . S
Co103 O104 2.061 . S
Co103 O109 2.052 . S
Co103 O111 2.135 . S
O104 Co103 2.061 . S
O104 C107 1.235 . S
C105 O108 1.238 . S
C105 O109 1.241 . S
C106 O99 1.247 . S
C106 O100 1.261 . S
C107 O102 1.259 . S
C107 O104 1.235 . S
O108 Co98 2.021 . S
O108 C105 1.238 . S
O109 Co103 2.052 . S
O109 C105 1.241 . S
O110 Co98 2.137 . S
O110 C101 1.247 . S
O111 Co98 2.244 . S
O111 C101 1.272 . S
O111 Co103 2.135 . S
C112 C113 1.386 . S
C112 C114 1.383 . S
C112 H128 0.951 . S
C113 C112 1.386 . S
C113 C117 1.383 . S
C114 C112 1.383 . S
C114 C115 1.402 . S
C114 H129 0.951 . S
C115 C114 1.402 . S
C115 C116 1.375 . S
C115 C118 1.481 . S
C116 C115 1.375 . S
C116 C117 1.367 . S
C116 H130 0.947 1_554 S
C117 C113 1.383 . S
C117 C116 1.367 . S
C117 H131 0.950 . S
C118 C115 1.481 . S
C118 C119 1.297 . S
C118 H132 0.950 . S
C119 C118 1.297 . S
C119 C120 1.479 . S
C119 H133 0.950 . S
C120 C119 1.479 . S
C120 C121 1.375 . S
C120 C126 1.404 1_554 S
C121 C120 1.375 . S
C121 C122 1.369 . S
C121 H134 0.950 . S
C122 C121 1.369 . S
C122 C123 1.392 . S
C122 H135 0.951 . S
C123 C122 1.392 . S
C123 C125 1.384 . S
H124 C126 0.949 . S
C125 C123 1.384 . S
C125 C126 1.385 1_554 S
C125 H127 0.950 1_554 S
C126 C120 1.404 1_556 S
C126 H124 0.949 . S
C126 C125 1.385 1_556 S
H127 C125 0.950 1_556 S
H128 C112 0.951 . S
H129 C114 0.951 . S
H130 C116 0.947 1_556 S
H131 C117 0.950 . S
H132 C118 0.950 . S
H133 C119 0.950 . S
H134 C121 0.950 . S
H135 C122 0.951 . S
C136 C137 1.386 . S
C136 C138 1.383 . S
C136 H152 0.951 . S
C137 C136 1.386 . S
C137 C141 1.383 1_554 S
C138 C136 1.383 . S
C138 C139 1.402 . S
C138 H153 0.951 . S
C139 C138 1.402 . S
C139 C140 1.375 1_554 S
C139 C142 1.481 . S
C140 C139 1.375 1_556 S
C140 C141 1.367 . S
C140 H154 0.951 . S
C141 C137 1.383 1_556 S
C141 C140 1.367 . S
C141 H155 0.950 . S
C142 C139 1.481 . S
C142 C143 1.297 . S
C142 H156 0.950 1_554 S
C143 C142 1.297 . S
C143 C144 1.479 . S
C143 H157 0.950 . S
C144 C143 1.479 . S
C144 C145 1.375 . S
C144 C150 1.404 . S
C145 C144 1.375 . S
C145 C146 1.369 . S
C145 H158 0.950 . S
C146 C145 1.369 . S
C146 C147 1.392 . S
C146 H159 0.951 . S
C147 C146 1.392 . S
C147 C149 1.384 . S
H148 C150 0.949 1_556 S
C149 C147 1.384 . S
C149 C150 1.385 . S
C149 H151 0.950 1_554 S
C150 C144 1.404 . S
C150 H148 0.949 1_554 S
C150 C149 1.385 . S
H151 C149 0.950 1_556 S
H152 C136 0.951 . S
H153 C138 0.951 . S
H154 C140 0.951 . S
H155 C141 0.950 . S
H156 C142 0.950 1_556 S
H157 C143 0.950 . S
H158 C145 0.950 . S
H159 C146 0.951 . S
C160 C161 1.386 . S
C160 C162 1.383 . S
C160 H176 0.951 . S
C161 C160 1.386 . S
C161 C165 1.383 . S
C162 C160 1.383 . S
C162 C163 1.402 . S
C162 H177 0.951 . S
C163 C162 1.402 . S
C163 C164 1.375 . S
C163 C166 1.481 . S
C164 C163 1.375 . S
C164 C165 1.367 . S
C164 H178 0.951 . S
C165 C161 1.383 . S
C165 C164 1.367 . S
C165 H179 0.950 . S
C166 C163 1.481 . S
C166 C167 1.297 . S
C166 H180 0.950 . S
C167 C166 1.297 . S
C167 C168 1.479 . S
C167 H181 0.950 . S
C168 C167 1.479 . S
C168 C169 1.375 . S
C168 C174 1.404 . S
C169 C168 1.375 . S
C169 C170 1.369 . S
C169 H182 0.950 . S
C170 C169 1.369 . S
C170 C171 1.392 . S
C170 H183 0.951 . S
C171 C170 1.392 . S
C171 C173 1.384 . S
H172 C174 0.949 . S
C173 C171 1.384 . S
C173 C174 1.385 . S
C173 H175 0.950 . S
C174 C168 1.404 . S
C174 H172 0.949 . S
C174 C173 1.385 . S
H175 C173 0.950 . S
H176 C160 0.951 . S
H177 C162 0.951 . S
H178 C164 0.951 . S
H179 C165 0.950 . S
H180 C166 0.950 . S
H181 C167 0.950 . S
H182 C169 0.950 . S
H183 C170 0.951 . S
C184 C185 1.386 . S
C184 C186 1.383 . S
C184 H200 0.951 . S
C185 C184 1.386 . S
C185 C189 1.383 . S
C186 C184 1.383 . S
C186 C187 1.402 . S
C186 H201 0.951 . S
C187 C186 1.402 . S
C187 C188 1.375 . S
C187 C190 1.481 . S
C188 C187 1.375 . S
C188 C189 1.367 . S
C188 H202 0.951 . S
C189 C185 1.383 . S
C189 C188 1.367 . S
C189 H203 0.950 . S
C190 C187 1.481 . S
C190 C191 1.297 . S
C190 H204 0.950 . S
C191 C190 1.297 . S
C191 C192 1.479 . S
C191 H205 0.950 . S
C192 C191 1.479 . S
C192 C193 1.375 . S
C192 C198 1.404 . S
C193 C192 1.375 . S
C193 C194 1.369 . S
C193 H206 0.950 . S
C194 C193 1.369 . S
C194 C195 1.392 . S
C194 H207 0.951 . S
C195 C194 1.392 . S
C195 C197 1.384 . S
H196 C198 0.949 . S
C197 C195 1.384 . S
C197 C198 1.385 . S
C197 H199 0.950 . S
C198 C192 1.404 . S
C198 H196 0.949 . S
C198 C197 1.385 . S
H199 C197 0.950 . S
H200 C184 0.951 . S
H201 C186 0.951 . S
H202 C188 0.951 . S
H203 C189 0.950 . S
H204 C190 0.950 . S
H205 C191 0.950 . S
H206 C193 0.950 . S
H207 C194 0.951 . S
C208 C209 1.386 . S
C208 C210 1.383 . S
C208 H224 0.951 . S
C209 C208 1.386 . S
C209 C213 1.383 . S
C210 C208 1.383 . S
C210 C211 1.402 . S
C210 H225 0.951 . S
C211 C210 1.402 . S
C211 C212 1.375 . S
C211 C214 1.481 . S
C212 C211 1.375 . S
C212 C213 1.367 . S
C212 H226 0.951 . S
C213 C209 1.383 . S
C213 C212 1.367 . S
C213 H227 0.950 . S
C214 C211 1.481 . S
C214 C215 1.297 . S
C214 H228 0.950 . S
C215 C214 1.297 . S
C215 C216 1.479 . S
C215 H229 0.950 . S
C216 C215 1.479 . S
C216 C217 1.375 . S
C216 C222 1.404 . S
C217 C216 1.375 . S
C217 C218 1.369 . S
C217 H230 0.950 . S
C218 C217 1.369 . S
C218 C219 1.392 . S
C218 H231 0.951 . S
C219 C218 1.392 . S
C219 C221 1.384 . S
H220 C222 0.949 . S
C221 C219 1.384 . S
C221 C222 1.385 . S
C221 H223 0.950 . S
C222 C216 1.404 . S
C222 H220 0.949 . S
C222 C221 1.385 . S
H223 C221 0.950 . S
H224 C208 0.951 . S
H225 C210 0.951 . S
H226 C212 0.951 . S
H227 C213 0.950 . S
H228 C214 0.950 . S
H229 C215 0.950 . S
H230 C217 0.950 . S
H231 C218 0.951 . S
C232 C233 1.386 . S
C232 C234 1.383 . S
C232 H248 0.951 . S
C233 C232 1.386 . S
C233 C237 1.383 . S
C234 C232 1.383 . S
C234 C235 1.402 . S
C234 H249 0.951 . S
C235 C234 1.402 . S
C235 C236 1.375 . S
C235 C238 1.481 . S
C236 C235 1.375 . S
C236 C237 1.367 . S
C236 H250 0.951 . S
C237 C233 1.383 . S
C237 C236 1.367 . S
C237 H251 0.950 . S
C238 C235 1.481 . S
C238 C239 1.297 . S
C238 H252 0.950 . S
C239 C238 1.297 . S
C239 C240 1.479 . S
C239 H253 0.950 . S
C240 C239 1.479 . S
C240 C241 1.375 . S
C240 C246 1.404 . S
C241 C240 1.375 . S
C241 C242 1.369 . S
C241 H254 0.950 . S
C242 C241 1.369 . S
C242 C243 1.392 . S
C242 H255 0.951 . S
C243 C242 1.392 . S
C243 C245 1.384 . S
H244 C246 0.949 . S
C245 C243 1.384 . S
C245 C246 1.385 . S
C245 H247 0.950 . S
C246 C240 1.404 . S
C246 H244 0.949 . S
C246 C245 1.385 . S
H247 C245 0.950 . S
H248 C232 0.951 . S
H249 C234 0.951 . S
H250 C236 0.951 . S
H251 C237 0.950 . S
H252 C238 0.950 . S
H253 C239 0.950 . S
H254 C241 0.950 . S
H255 C242 0.951 . S
C256 C257 1.386 . S
C256 C258 1.383 . S
C256 H272 0.951 . S
C257 C256 1.386 . S
C257 C261 1.383 . S
C258 C256 1.383 . S
C258 C259 1.402 . S
C258 H273 0.951 . S
C259 C258 1.402 . S
C259 C260 1.375 . S
C259 C262 1.481 . S
C260 C259 1.375 . S
C260 C261 1.367 . S
C260 H274 0.951 . S
C261 C257 1.383 . S
C261 C260 1.367 . S
C261 H275 0.950 . S
C262 C259 1.481 . S
C262 C263 1.297 . S
C262 H276 0.950 . S
C263 C262 1.297 . S
C263 C264 1.479 . S
C263 H277 0.950 . S
C264 C263 1.479 . S
C264 C265 1.375 . S
C264 C270 1.404 . S
C265 C264 1.375 . S
C265 C266 1.369 . S
C265 H278 0.950 . S
C266 C265 1.369 . S
C266 C267 1.392 . S
C266 H279 0.951 . S
C267 C266 1.392 . S
C267 C269 1.384 . S
H268 C270 0.949 . S
C269 C267 1.384 . S
C269 C270 1.385 . S
C269 H271 0.950 . S
C270 C264 1.404 . S
C270 H268 0.949 . S
C270 C269 1.385 . S
H271 C269 0.950 . S
H272 C256 0.951 . S
H273 C258 0.951 . S
H274 C260 0.951 . S
H275 C261 0.950 . S
H276 C262 0.950 . S
H277 C263 0.950 . S
H278 C265 0.950 . S
H279 C266 0.951 . S
C280 C281 1.386 . S
C280 C282 1.383 . S
C280 H296 0.951 . S
C281 C280 1.386 . S
C281 C285 1.383 . S
C282 C280 1.383 . S
C282 C283 1.402 . S
C282 H297 0.951 . S
C283 C282 1.402 . S
C283 C284 1.375 . S
C283 C286 1.481 . S
C284 C283 1.375 . S
C284 C285 1.367 . S
C284 H298 0.951 . S
C285 C281 1.383 . S
C285 C284 1.367 . S
C285 H299 0.950 . S
C286 C283 1.481 . S
C286 C287 1.297 . S
C286 H300 0.950 . S
C287 C286 1.297 . S
C287 C288 1.479 . S
C287 H301 0.950 . S
C288 C287 1.479 . S
C288 C289 1.375 . S
C288 C294 1.404 . S
C289 C288 1.375 . S
C289 C290 1.369 . S
C289 H302 0.950 . S
C290 C289 1.369 . S
C290 C291 1.392 . S
C290 H303 0.951 . S
C291 C290 1.392 . S
C291 C293 1.384 . S
H292 C294 0.949 . S
C293 C291 1.384 . S
C293 C294 1.385 . S
C293 H295 0.950 . S
C294 C288 1.404 . S
C294 H292 0.949 . S
C294 C293 1.385 . S
H295 C293 0.950 . S
H296 C280 0.951 . S
H297 C282 0.951 . S
H298 C284 0.951 . S
H299 C285 0.950 . S
H300 C286 0.950 . S
H301 C287 0.950 . S
H302 C289 0.950 . S
H303 C290 0.951 . S
C304 C305 1.386 . S
C304 C306 1.383 . S
C304 H320 0.951 . S
C305 C304 1.386 . S
C305 C309 1.383 . S
C306 C304 1.383 . S
C306 C307 1.402 . S
C306 H321 0.951 . S
C307 C306 1.402 . S
C307 C308 1.375 1_565 S
C307 C310 1.481 1_565 S
C308 C307 1.375 1_545 S
C308 C309 1.367 1_545 S
C308 H322 0.951 . S
C309 C305 1.383 . S
C309 C308 1.367 1_565 S
C309 H323 0.949 1_565 S
C310 C307 1.481 1_545 S
C310 C311 1.297 . S
C310 H324 0.950 . S
C311 C310 1.297 . S
C311 C312 1.479 . S
C311 H325 0.950 1_545 S
C312 C311 1.479 . S
C312 C313 1.375 . S
C312 C318 1.404 . S
C313 C312 1.375 . S
C313 C314 1.369 . S
C313 H326 0.950 1_545 S
C314 C313 1.369 . S
C314 C315 1.392 . S
C314 H327 0.951 . S
C315 C314 1.392 . S
C315 C317 1.384 . S
H316 C318 0.949 . S
C317 C315 1.384 . S
C317 C318 1.385 . S
C317 H319 0.950 . S
C318 C312 1.404 . S
C318 H316 0.949 . S
C318 C317 1.385 . S
H319 C317 0.950 . S
H320 C304 0.951 . S
H321 C306 0.951 . S
H322 C308 0.951 . S
H323 C309 0.949 1_545 S
H324 C310 0.950 . S
H325 C311 0.950 1_565 S
H326 C313 0.950 1_565 S
H327 C314 0.951 . S
C328 C329 1.386 . S
C328 C330 1.383 . S
C328 H344 0.951 . S
C329 C328 1.386 . S
C329 C333 1.383 . S
C330 C328 1.383 . S
C330 C331 1.402 . S
C330 H345 0.951 1_565 S
C331 C330 1.402 . S
C331 C332 1.375 . S
C331 C334 1.481 . S
C332 C331 1.375 . S
C332 C333 1.367 . S
C332 H346 0.951 . S
C333 C329 1.383 . S
C333 C332 1.367 . S
C333 H347 0.950 . S
C334 C331 1.481 . S
C334 C335 1.297 . S
C334 H348 0.950 . S
C335 C334 1.297 . S
C335 C336 1.479 1_565 S
C335 H349 0.950 1_565 S
C336 C335 1.479 1_545 S
C336 C337 1.375 . S
C336 C342 1.404 1_545 S
C337 C336 1.375 . S
C337 C338 1.369 . S
C337 H350 0.950 . S
C338 C337 1.369 . S
C338 C339 1.392 . S
C338 H351 0.951 . S
C339 C338 1.392 . S
C339 C341 1.384 . S
H340 C342 0.949 . S
C341 C339 1.384 . S
C341 C342 1.385 1_545 S
C341 H343 0.950 . S
C342 C336 1.404 1_565 S
C342 H340 0.949 . S
C342 C341 1.385 1_565 S
H343 C341 0.950 . S
H344 C328 0.951 . S
H345 C330 0.951 1_545 S
H346 C332 0.951 . S
H347 C333 0.950 . S
H348 C334 0.950 . S
H349 C335 0.950 1_545 S
H350 C337 0.950 . S
H351 C338 0.951 . S
C352 C353 1.386 . S
C352 C354 1.383 . S
C352 H368 0.951 . S
C353 C352 1.386 . S
C353 C357 1.383 . S
C354 C352 1.383 . S
C354 C355 1.402 . S
C354 H369 0.951 1_565 S
C355 C354 1.402 . S
C355 C356 1.375 . S
C355 C358 1.481 . S
C356 C355 1.375 . S
C356 C357 1.367 . S
C356 H370 0.951 . S
C357 C353 1.383 . S
C357 C356 1.367 . S
C357 H371 0.950 . S
C358 C355 1.481 . S
C358 C359 1.297 . S
C358 H372 0.950 . S
C359 C358 1.297 . S
C359 C360 1.479 1_565 S
C359 H373 0.950 1_565 S
C360 C359 1.479 1_545 S
C360 C361 1.375 . S
C360 C366 1.404 1_545 S
C361 C360 1.375 . S
C361 C362 1.369 . S
C361 H374 0.950 . S
C362 C361 1.369 . S
C362 C363 1.392 . S
C362 H375 0.951 . S
C363 C362 1.392 . S
C363 C365 1.384 . S
H364 C366 0.949 . S
C365 C363 1.384 . S
C365 C366 1.385 1_545 S
C365 H367 0.950 . S
C366 C360 1.404 1_565 S
C366 H364 0.949 . S
C366 C365 1.385 1_565 S
H367 C365 0.950 . S
H368 C352 0.951 . S
H369 C354 0.951 1_545 S
H370 C356 0.951 . S
H371 C357 0.950 . S
H372 C358 0.950 . S
H373 C359 0.950 1_545 S
H374 C361 0.950 . S
H375 C362 0.951 . S
C376 C377 1.386 . S
C376 C378 1.383 . S
C376 H392 0.951 . S
C377 C376 1.386 . S
C377 C381 1.383 . S
C378 C376 1.383 . S
C378 C379 1.402 . S
C378 H393 0.951 . S
C379 C378 1.402 . S
C379 C380 1.375 . S
C379 C382 1.481 1_565 S
C380 C379 1.375 . S
C380 C381 1.367 . S
C380 H394 0.951 1_565 S
C381 C377 1.383 . S
C381 C380 1.367 . S
C381 H395 0.950 . S
C382 C379 1.481 1_545 S
C382 C383 1.297 . S
C382 H396 0.950 . S
C383 C382 1.297 . S
C383 C384 1.479 . S
C383 H397 0.950 . S
C384 C383 1.479 . S
C384 C385 1.375 . S
C384 C390 1.404 . S
C385 C384 1.375 . S
C385 C386 1.369 . S
C385 H398 0.950 . S
C386 C385 1.369 . S
C386 C387 1.392 . S
C386 H399 0.951 . S
C387 C386 1.392 . S
C387 C389 1.384 . S
H388 C390 0.949 . S
C389 C387 1.384 . S
C389 C390 1.385 . S
C389 H391 0.950 . S
C390 C384 1.404 . S
C390 H388 0.949 . S
C390 C389 1.385 . S
H391 C389 0.950 . S
H392 C376 0.951 . S
H393 C378 0.951 . S
H394 C380 0.951 1_545 S
H395 C381 0.950 . S
H396 C382 0.950 . S
H397 C383 0.950 . S
H398 C385 0.950 . S
H399 C386 0.951 . S
C400 C401 1.386 . S
C400 C402 1.383 . S
C400 H416 0.951 . S
C401 C400 1.386 . S
C401 C405 1.383 1_554 S
C402 C400 1.383 . S
C402 C403 1.402 . S
C402 H417 0.951 . S
C403 C402 1.402 . S
C403 C404 1.375 1_554 S
C403 C406 1.481 . S
C404 C403 1.375 1_556 S
C404 C405 1.367 . S
C404 H418 0.951 . S
C405 C401 1.383 1_556 S
C405 C404 1.367 . S
C405 H419 0.950 . S
C406 C403 1.481 . S
C406 C407 1.297 1_565 S
C406 H420 0.950 1_554 S
C407 C406 1.297 1_545 S
C407 C408 1.479 . S
C407 H421 0.950 . S
C408 C407 1.479 . S
C408 C409 1.375 . S
C408 C414 1.404 . S
C409 C408 1.375 . S
C409 C410 1.369 . S
C409 H422 0.950 . S
C410 C409 1.369 . S
C410 C411 1.392 . S
C410 H423 0.951 . S
C411 C410 1.392 . S
C411 C413 1.384 . S
H412 C414 0.949 1_566 S
C413 C411 1.384 . S
C413 C414 1.385 . S
C413 H415 0.950 1_554 S
C414 C408 1.404 . S
C414 H412 0.949 1_544 S
C414 C413 1.385 . S
H415 C413 0.950 1_556 S
H416 C400 0.951 . S
H417 C402 0.951 . S
H418 C404 0.951 . S
H419 C405 0.950 . S
H420 C406 0.950 1_556 S
H421 C407 0.950 . S
H422 C409 0.950 . S
H423 C410 0.951 . S
C424 C425 1.386 . S
C424 C426 1.383 . S
C424 H440 0.951 . S
C425 C424 1.386 . S
C425 C429 1.383 . S
C426 C424 1.383 . S
C426 C427 1.402 . S
C426 H441 0.951 . S
C427 C426 1.402 . S
C427 C428 1.375 . S
C427 C430 1.481 1_565 S
C428 C427 1.375 . S
C428 C429 1.367 . S
C428 H442 0.951 . S
C429 C425 1.383 . S
C429 C428 1.367 . S
C429 H443 0.950 . S
C430 C427 1.481 1_545 S
C430 C431 1.297 . S
C430 H444 0.950 . S
C431 C430 1.297 . S
C431 C432 1.479 . S
C431 H445 0.950 . S
C432 C431 1.479 . S
C432 C433 1.375 . S
C432 C438 1.404 . S
C433 C432 1.375 . S
C433 C434 1.369 . S
C433 H446 0.950 . S
C434 C433 1.369 . S
C434 C435 1.392 . S
C434 H447 0.951 . S
C435 C434 1.392 . S
C435 C437 1.384 . S
H436 C438 0.949 . S
C437 C435 1.384 . S
C437 C438 1.385 . S
C437 H439 0.950 . S
C438 C432 1.404 . S
C438 H436 0.949 . S
C438 C437 1.385 . S
H439 C437 0.950 . S
H440 C424 0.951 . S
H441 C426 0.951 . S
H442 C428 0.951 . S
H443 C429 0.950 . S
H444 C430 0.950 . S
H445 C431 0.950 . S
H446 C433 0.950 . S
H447 C434 0.951 . S
C448 C449 1.386 . S
C448 C450 1.383 . S
C448 H464 0.951 1_554 S
C449 C448 1.386 . S
C449 C453 1.383 . S
C450 C448 1.383 . S
C450 C451 1.402 . S
C450 H465 0.951 1_554 S
C451 C450 1.402 . S
C451 C452 1.375 . S
C451 C454 1.481 . S
C452 C451 1.375 . S
C452 C453 1.367 . S
C452 H466 0.951 . S
C453 C449 1.383 . S
C453 C452 1.367 . S
C453 H467 0.950 . S
C454 C451 1.481 . S
C454 C455 1.302 . S
C454 H468 0.950 1_455 S
C455 C454 1.302 . S
C455 C456 1.445 1_455 S
C455 H469 0.985 . S
C456 C455 1.445 1_655 S
C456 C457 1.375 . S
C456 C462 1.404 . S
C457 C456 1.375 . S
C457 C458 1.369 . S
C457 H470 0.950 1_554 S
C458 C457 1.369 . S
C458 C459 1.392 . S
C458 H471 0.951 1_554 S
C459 C458 1.392 . S
C459 C461 1.384 . S
H460 C462 0.949 . S
C461 C459 1.384 . S
C461 C462 1.385 . S
C461 H463 0.950 . S
C462 C456 1.404 . S
C462 H460 0.949 . S
C462 C461 1.385 . S
H463 C461 0.950 . S
H464 C448 0.951 1_556 S
H465 C450 0.951 1_556 S
H466 C452 0.951 . S
H467 C453 0.950 . S
H468 C454 0.950 1_655 S
H469 C455 0.985 . S
H470 C457 0.950 1_556 S
H471 C458 0.951 1_556 S
C472 C473 1.386 . S
C472 C474 1.383 . S
C472 H488 0.951 . S
C473 C472 1.386 . S
C473 C477 1.383 . S
C474 C472 1.383 . S
C474 C475 1.402 . S
C474 H489 0.951 . S
C475 C474 1.402 . S
C475 C476 1.375 . S
C475 C478 1.481 . S
C476 C475 1.375 . S
C476 C477 1.367 . S
C476 H490 0.951 . S
C477 C473 1.383 . S
C477 C476 1.367 . S
C477 H491 0.950 . S
C478 C475 1.481 . S
C478 C479 1.297 1_455 S
C478 H492 0.950 . S
C479 C478 1.297 1_655 S
C479 C480 1.479 . S
C479 H493 0.950 . S
C480 C479 1.479 . S
C480 C481 1.375 . S
C480 C486 1.404 . S
C481 C480 1.375 . S
C481 C482 1.369 . S
C481 H494 0.950 . S
C482 C481 1.369 . S
C482 C483 1.392 . S
C482 H495 0.951 . S
C483 C482 1.392 . S
C483 C485 1.384 . S
H484 C486 0.949 . S
C485 C483 1.384 . S
C485 C486 1.385 . S
C485 H487 0.950 . S
C486 C480 1.404 . S
C486 H484 0.949 . S
C486 C485 1.385 . S
H487 C485 0.950 . S
H488 C472 0.951 . S
H489 C474 0.951 . S
H490 C476 0.951 . S
H491 C477 0.950 . S
H492 C478 0.950 . S
H493 C479 0.950 . S
H494 C481 0.950 . S
H495 C482 0.951 . S
C113 C79 1.467 . S
C123 C9 1.464 . S
C137 C65 1.495 . S
C147 C23 1.446 . S
C161 C107 1.462 . S
C171 C37 1.500 . S
C185 C93 1.467 . S
C195 C51 1.499 . S
C209 C3 1.395 . S
C219 C31 1.357 . S
C233 C17 1.388 . S
C243 C45 1.363 . S
C257 C21 1.342 . S
C267 C49 1.367 . S
C281 C7 1.361 . S
C291 C35 1.395 . S
C305 C59 1.394 . S
C315 C87 1.361 . S
C329 C101 1.371 . S
C339 C73 1.394 . S
C353 C105 1.382 . S
C363 C77 1.317 . S
C377 C63 1.345 . S
C387 C91 1.397 . S
C401 C22 1.500 . S
C411 C8 1.475 . S
C425 C36 1.487 . S
C435 C50 1.498 . S
C449 C64 1.491 . S
C459 C78 1.487 . S
C473 C92 1.500 . S
C483 C106 1.479 . S
