# Generated by pormake.
# Topology whh, (6)-cn, num edge types: 1
# Building blocks:
#     Node 0, Type 0, BuildingBlock: CUKXOW_clean_sbu_0, # of connection points: 6
#     Node 1, Type 0, BuildingBlock: CUKXOW_clean_sbu_0, # of connection points: 6
#     Node 2, Type 0, BuildingBlock: CUKXOW_clean_sbu_0, # of connection points: 6
#     Node 3, Type 0, BuildingBlock: CUKXOW_clean_sbu_0, # of connection points: 6
#     Node 4, Type 0, BuildingBlock: CUKXOW_clean_sbu_0, # of connection points: 6
#     Node 5, Type 0, BuildingBlock: CUKXOW_clean_sbu_0, # of connection points: 6
#     Node 6, Type 0, BuildingBlock: CUKXOW_clean_sbu_0, # of connection points: 6
#     Node 7, Type 0, BuildingBlock: CUKXOW_clean_sbu_0, # of connection points: 6
#     Node 8, Type 0, BuildingBlock: CUKXOW_clean_sbu_0, # of connection points: 6
#     Node 9, Type 0, BuildingBlock: CUKXOW_clean_sbu_0, # of connection points: 6
#     Node 10, Type 0, BuildingBlock: CUKXOW_clean_sbu_0, # of connection points: 6
#     Node 11, Type 0, BuildingBlock: CUKXOW_clean_sbu_0, # of connection points: 6
#     Node 12, Type 0, BuildingBlock: CUKXOW_clean_sbu_0, # of connection points: 6
#     Node 13, Type 0, BuildingBlock: CUKXOW_clean_sbu_0, # of connection points: 6
#     Node 14, Type 0, BuildingBlock: CUKXOW_clean_sbu_0, # of connection points: 6
#     Node 15, Type 0, BuildingBlock: CUKXOW_clean_sbu_0, # of connection points: 6
#     Edge 16, Type (0, 0), BuildingBlock: KIFKEQ_clean_linker_1, # of connection points: 2
#     Edge 17, Type (0, 0), BuildingBlock: KIFKEQ_clean_linker_1, # of connection points: 2
#     Edge 18, Type (0, 0), BuildingBlock: KIFKEQ_clean_linker_1, # of connection points: 2
#     Edge 19, Type (0, 0), BuildingBlock: KIFKEQ_clean_linker_1, # of connection points: 2
#     Edge 20, Type (0, 0), BuildingBlock: KIFKEQ_clean_linker_1, # of connection points: 2
#     Edge 21, Type (0, 0), BuildingBlock: KIFKEQ_clean_linker_1, # of connection points: 2
#     Edge 22, Type (0, 0), BuildingBlock: KIFKEQ_clean_linker_1, # of connection points: 2
#     Edge 23, Type (0, 0), BuildingBlock: KIFKEQ_clean_linker_1, # of connection points: 2
#     Edge 24, Type (0, 0), BuildingBlock: KIFKEQ_clean_linker_1, # of connection points: 2
#     Edge 25, Type (0, 0), BuildingBlock: KIFKEQ_clean_linker_1, # of connection points: 2
#     Edge 26, Type (0, 0), BuildingBlock: KIFKEQ_clean_linker_1, # of connection points: 2
#     Edge 27, Type (0, 0), BuildingBlock: KIFKEQ_clean_linker_1, # of connection points: 2
#     Edge 28, Type (0, 0), BuildingBlock: KIFKEQ_clean_linker_1, # of connection points: 2
#     Edge 29, Type (0, 0), BuildingBlock: KIFKEQ_clean_linker_1, # of connection points: 2
#     Edge 30, Type (0, 0), BuildingBlock: KIFKEQ_clean_linker_1, # of connection points: 2
#     Edge 31, Type (0, 0), BuildingBlock: KIFKEQ_clean_linker_1, # of connection points: 2
#     Edge 32, Type (0, 0), BuildingBlock: KIFKEQ_clean_linker_1, # of connection points: 2
#     Edge 33, Type (0, 0), BuildingBlock: KIFKEQ_clean_linker_1, # of connection points: 2
#     Edge 34, Type (0, 0), BuildingBlock: KIFKEQ_clean_linker_1, # of connection points: 2
#     Edge 35, Type (0, 0), BuildingBlock: KIFKEQ_clean_linker_1, # of connection points: 2
#     Edge 36, Type (0, 0), BuildingBlock: KIFKEQ_clean_linker_1, # of connection points: 2
#     Edge 37, Type (0, 0), BuildingBlock: KIFKEQ_clean_linker_1, # of connection points: 2
#     Edge 38, Type (0, 0), BuildingBlock: KIFKEQ_clean_linker_1, # of connection points: 2
#     Edge 39, Type (0, 0), BuildingBlock: KIFKEQ_clean_linker_1, # of connection points: 2
#     Edge 40, Type (0, 0), BuildingBlock: KIFKEQ_clean_linker_1, # of connection points: 2
#     Edge 41, Type (0, 0), BuildingBlock: KIFKEQ_clean_linker_1, # of connection points: 2
#     Edge 42, Type (0, 0), BuildingBlock: KIFKEQ_clean_linker_1, # of connection points: 2
#     Edge 43, Type (0, 0), BuildingBlock: KIFKEQ_clean_linker_1, # of connection points: 2
#     Edge 44, Type (0, 0), BuildingBlock: KIFKEQ_clean_linker_1, # of connection points: 2
#     Edge 45, Type (0, 0), BuildingBlock: KIFKEQ_clean_linker_1, # of connection points: 2
#     Edge 46, Type (0, 0), BuildingBlock: KIFKEQ_clean_linker_1, # of connection points: 2
#     Edge 47, Type (0, 0), BuildingBlock: KIFKEQ_clean_linker_1, # of connection points: 2
#     Edge 48, Type (0, 0), BuildingBlock: KIFKEQ_clean_linker_1, # of connection points: 2
#     Edge 49, Type (0, 0), BuildingBlock: KIFKEQ_clean_linker_1, # of connection points: 2
#     Edge 50, Type (0, 0), BuildingBlock: KIFKEQ_clean_linker_1, # of connection points: 2
#     Edge 51, Type (0, 0), BuildingBlock: KIFKEQ_clean_linker_1, # of connection points: 2
#     Edge 52, Type (0, 0), BuildingBlock: KIFKEQ_clean_linker_1, # of connection points: 2
#     Edge 53, Type (0, 0), BuildingBlock: KIFKEQ_clean_linker_1, # of connection points: 2
#     Edge 54, Type (0, 0), BuildingBlock: KIFKEQ_clean_linker_1, # of connection points: 2
#     Edge 55, Type (0, 0), BuildingBlock: KIFKEQ_clean_linker_1, # of connection points: 2
#     Edge 56, Type (0, 0), BuildingBlock: KIFKEQ_clean_linker_1, # of connection points: 2
#     Edge 57, Type (0, 0), BuildingBlock: KIFKEQ_clean_linker_1, # of connection points: 2
#     Edge 58, Type (0, 0), BuildingBlock: KIFKEQ_clean_linker_1, # of connection points: 2
#     Edge 59, Type (0, 0), BuildingBlock: KIFKEQ_clean_linker_1, # of connection points: 2
#     Edge 60, Type (0, 0), BuildingBlock: KIFKEQ_clean_linker_1, # of connection points: 2
#     Edge 61, Type (0, 0), BuildingBlock: KIFKEQ_clean_linker_1, # of connection points: 2
#     Edge 62, Type (0, 0), BuildingBlock: KIFKEQ_clean_linker_1, # of connection points: 2
#     Edge 63, Type (0, 0), BuildingBlock: KIFKEQ_clean_linker_1, # of connection points: 2
# Relax obj value: 0.345
# Max RMSD: 0.308
# Mean RMSD: 0.274
data_MOF--net-whh--node1-CUKXOW_clean_sbu_0--edge1-KIFKEQ_clean_linker_1
_symmetry_space_group_name_H-M    P1
_symmetry_Int_Tables_number       1
_symmetry_cell_setting            triclinic
loop_
_symmetry_equiv_pos_as_xyz
'x, y, z'
_cell_length_a     32.474919
_cell_length_b     32.281537
_cell_length_c     51.625204
_cell_angle_alpha  93.034532
_cell_angle_beta   99.297501
_cell_angle_gamma 90.260702
loop_
_atom_site_label
_atom_site_type_symbol
_atom_site_fract_x
_atom_site_fract_y
_atom_site_fract_z
_atom_type_partial_charge
Tb0 Tb 0.11629 0.59211 0.13964 0.0
C1 C 0.14352 0.67898 0.16461 0.0
Tb2 Tb 0.08194 0.67288 0.11119 0.0
O3 O 0.18225 0.59936 0.13335 0.0
O4 O 0.13542 0.63569 0.11552 0.0
O5 O 0.13099 0.64171 0.16988 0.0
C6 C 0.05232 0.74945 0.11371 0.0
O7 O 0.1317 0.6952 0.14167 0.0
C8 C 0.02714 0.62151 0.12415 0.0
C9 C 0.08266 0.58919 0.07718 0.0
O10 O 0.05528 0.72297 0.1319 0.0
O11 O 0.0667 0.73293 0.09313 0.0
O12 O 0.02036 0.64445 0.10417 0.0
O13 O 0.06305 0.63013 0.13707 0.0
O14 O 0.08197 0.63082 0.07653 0.0
O15 O 0.09275 0.56868 0.09924 0.0
C16 C 0.10207 0.53214 0.17195 0.0
O17 O 0.07963 0.53933 0.14947 0.0
O18 O 0.13478 0.55647 0.175 0.0
C19 C 0.17472 0.63204 0.11921 0.0
Tb20 Tb 0.87165 0.08529 0.16609 0.0
C21 C 0.95832 0.10888 0.16107 0.0
Tb22 Tb 0.89259 0.07849 0.11157 0.0
O23 O 0.87567 0.01727 0.16957 0.0
O24 O 0.91074 0.04756 0.14598 0.0
O25 O 0.92422 0.12679 0.16582 0.0
C26 C 0.92121 0.05902 0.06647 0.0
O27 O 0.95338 0.08372 0.13943 0.0
C28 C 0.8562 0.14948 0.12395 0.0
C29 C 0.80354 0.0439 0.12427 0.0
O30 O 0.92614 0.09433 0.07981 0.0
O31 O 0.89869 0.03471 0.07808 0.0
O32 O 0.88306 0.14623 0.10792 0.0
O33 O 0.84954 0.11346 0.1304 0.0
O34 O 0.83142 0.04297 0.10742 0.0
O35 O 0.81113 0.06339 0.14784 0.0
C36 C 0.87085 0.12212 0.21269 0.0
O37 O 0.84519 0.12988 0.19158 0.0
O38 O 0.89391 0.09076 0.20818 0.0
C39 C 0.89998 1.01243 0.15188 0.0
Tb40 Tb 0.47666 0.85517 0.16166 0.0
C41 C 0.45096 0.94278 0.15457 0.0
Tb42 Tb 0.47038 0.88775 0.10616 0.0
O43 O 0.53479 0.89174 0.1762 0.0
O44 O 0.51829 0.87368 0.13693 0.0
O45 O 0.43594 0.90751 0.16031 0.0
C46 C 0.48941 0.92539 0.06443 0.0
O47 O 0.47046 0.94304 0.13391 0.0
C48 C 0.39876 0.85728 0.11775 0.0
C49 C 0.49649 0.79301 0.11693 0.0
O50 O 0.50518 0.93411 0.0888 0.0
O51 O 0.46307 0.89453 0.06331 0.0
O52 O 0.40059 0.88513 0.10054 0.0
O53 O 0.43585 0.84748 0.1255 0.0
O54 O 0.49647 0.82436 0.10065 0.0
O55 O 0.48676 0.79775 0.14091 0.0
C56 C 0.44438 0.82645 0.20109 0.0
O57 O 0.46811 0.80535 0.18725 0.0
O58 O 0.44431 0.86465 0.19474 0.0
C59 C 0.54352 0.89596 0.15269 0.0
Tb60 Tb 0.60328 0.44768 0.14024 0.0
C61 C 0.68666 0.42749 0.17305 0.0
Tb62 Tb 0.6861 0.45922 0.11729 0.0
O63 O 0.61131 0.37961 0.1411 0.0
O64 O 0.63946 0.41294 0.11582 0.0
O65 O 0.65203 0.44824 0.17396 0.0
C66 C 0.76725 0.46184 0.1144 0.0
O67 O 0.70388 0.42412 0.15168 0.0
C68 C 0.64922 0.52806 0.12833 0.0
C69 C 0.59866 0.46363 0.07952 0.0
O70 O 0.75051 0.47061 0.13508 0.0
O71 O 0.73795 0.45133 0.09455 0.0
O72 O 0.67622 0.52453 0.11251 0.0
O73 O 0.64933 0.49491 0.14058 0.0
O74 O 0.63994 0.45789 0.081 0.0
O75 O 0.57833 0.46218 0.10002 0.0
C76 C 0.54262 0.46363 0.16971 0.0
O77 O 0.56052 0.42824 0.1666 0.0
O78 O 0.55685 0.48934 0.15459 0.0
C79 C 0.63813 0.3775 0.12487 0.0
Tb80 Tb 0.02566 0.85714 0.3147 0.0
C81 C 0.04349 0.95292 0.31925 0.0
Tb82 Tb 0.03882 0.8963 0.36927 0.0
O83 O 0.95652 0.85879 0.3112 0.0
O84 O 0.99506 0.90138 0.33573 0.0
O85 O 0.03961 0.91865 0.30413 0.0
C86 C 0.03358 0.93036 0.4169 0.0
O87 O 0.03929 0.95254 0.34475 0.0
C88 C 0.10562 0.85855 0.35645 0.0
C89 C 1.00592 0.79983 0.35666 0.0
O90 O 0.06239 0.93801 0.40313 0.0
O91 O 1.00748 0.90314 0.40395 0.0
O92 O 0.10718 0.89085 0.37256 0.0
O93 O 0.0678 0.84816 0.35011 0.0
O94 O 1.00904 0.83374 0.3734 0.0
O95 O 0.01602 0.80095 0.3329 0.0
C96 C 0.07324 0.84137 0.27932 0.0
O97 O 0.03391 0.82928 0.27624 0.0
O98 O 0.08426 0.86176 0.30153 0.0
C99 C 0.95817 0.88796 0.33005 0.0
Tb100 Tb 0.67248 0.06034 0.34372 0.0
C101 C 0.57895 0.06676 0.32875 0.0
Tb102 Tb 0.62604 0.05773 0.38854 0.0
O103 O 0.64347 1.00097 0.32523 0.0
O104 O 0.65181 1.01239 0.36552 0.0
O105 O 0.61444 0.08063 0.32315 0.0
C106 C 0.57549 0.04443 0.42398 0.0
O107 O 0.57674 0.05216 0.35236 0.0
C108 C 0.66584 0.12991 0.38604 0.0
C109 C 0.72063 0.03496 0.39526 0.0
O110 O 0.56388 0.05754 0.40064 0.0
O111 O 0.61541 0.03857 0.42721 0.0
O112 O 0.65861 0.11464 0.40757 0.0
O113 O 0.64722 0.10661 0.36731 0.0
O114 O 0.68396 0.02156 0.40031 0.0
O115 O 0.72006 0.0639 0.37838 0.0
C116 C 0.72978 0.08711 0.3176 0.0
O117 O 0.73194 0.05278 0.32971 0.0
O118 O 0.69376 0.10371 0.31807 0.0
C119 C 0.63514 0.98769 0.34726 0.0
Tb120 Tb 0.40929 0.67708 0.32146 0.0
C121 C 0.41511 0.582 0.32336 0.0
Tb122 Tb 0.43446 0.63914 0.37739 0.0
O123 O 0.46954 0.66075 0.30695 0.0
O124 O 0.45829 0.65019 0.34386 0.0
O125 O 0.39117 0.61234 0.31383 0.0
C126 C 0.4649 0.60009 0.42088 0.0
O127 O 0.43705 0.58619 0.3477 0.0
C128 C 0.35687 0.66862 0.36488 0.0
C129 C 0.46225 0.73263 0.36642 0.0
O130 O 0.44638 0.58273 0.39882 0.0
O131 O 0.46696 0.64009 0.4185 0.0
O132 O 0.36664 0.63983 0.38132 0.0
O133 O 0.39038 0.68029 0.35868 0.0
O134 O 0.47077 0.69938 0.38123 0.0
O135 O 0.43337 0.73185 0.3449 0.0
C136 C 0.34572 0.70104 0.28788 0.0
O137 O 0.38316 0.7177 0.29104 0.0
O138 O 0.34458 0.67001 0.30263 0.0
C139 C 0.48576 0.64629 0.32966 0.0
Tb140 Tb 0.90305 0.43722 0.35614 0.0
C141 C 0.81527 0.40462 0.32901 0.0
Tb142 Tb 0.82571 0.45894 0.38177 0.0
O143 O 0.89431 0.36927 0.35673 0.0
O144 O 0.86808 0.40881 0.38221 0.0
O145 O 0.85264 0.4168 0.32517 0.0
C146 C 0.74624 0.48021 0.37862 0.0
O147 O 0.8004 0.41372 0.35087 0.0
C148 C 0.86878 0.52286 0.37157 0.0
C149 C 0.91328 0.46627 0.4171 0.0
O150 O 0.76923 0.46825 0.40025 0.0
O151 O 0.76808 0.47952 0.35973 0.0
O152 O 0.84639 0.52243 0.39004 0.0
O153 O 0.86281 0.48899 0.35752 0.0
O154 O 0.87256 0.45925 0.41742 0.0
O155 O 0.93051 0.46277 0.39522 0.0
C156 C 0.95589 0.45422 0.32257 0.0
O157 O 0.96445 0.43019 0.34238 0.0
O158 O 0.91868 0.46855 0.32252 0.0
C159 C 0.86858 0.37108 0.37381 0.0
Tb160 Tb 0.93677 0.34974 0.87163 0.0
C161 C 0.94651 0.42609 0.91338 0.0
Tb162 Tb 0.90813 0.43814 0.85307 0.0
O163 O 1.00121 0.3711 0.87664 0.0
O164 O 0.95687 0.39646 0.84871 0.0
O165 O 0.94503 0.38448 0.90996 0.0
C166 C 0.92237 0.50578 0.82708 0.0
O167 O 0.93563 0.45197 0.89408 0.0
C168 C 0.8483 0.39606 0.87047 0.0
C169 C 0.87296 0.36019 0.82024 0.0
O170 O 0.88776 0.48427 0.82377 0.0
O171 O 0.9472 0.49119 0.8467 0.0
O172 O 0.84211 0.43085 0.85845 0.0
O173 O 0.88753 0.39145 0.87501 0.0
O174 O 0.88978 0.39711 0.81868 0.0
O175 O 0.88423 0.33704 0.84049 0.0
C176 C 0.95781 0.27011 0.86689 0.0
O177 O 0.94975 0.28871 0.88871 0.0
O178 O 0.95289 0.29611 0.8484 0.0
C179 C 0.99459 0.39939 0.85976 0.0
Tb180 Tb 0.12573 0.95528 0.88077 0.0
C181 C 0.21584 0.99036 0.87149 0.0
Tb182 Tb 0.15819 0.93914 0.82626 0.0
O183 O 0.13639 0.88841 0.88851 0.0
O184 O 0.17017 0.91807 0.86497 0.0
O185 O 0.18465 0.99369 0.88597 0.0
C186 C 0.18234 0.88366 0.79261 0.0
O187 O 0.21383 0.96637 0.84949 0.0
C188 C 0.1204 1.01178 0.83089 0.0
C189 C 0.06469 0.93227 0.82627 0.0
O190 O 0.185 0.92383 0.79085 0.0
O191 O 0.16714 0.87527 0.81342 0.0
O192 O 0.13533 0.99974 0.80963 0.0
O193 O 0.12656 0.98237 0.84571 0.0
O194 O 0.09648 0.91103 0.82009 0.0
O195 O 0.06935 0.95432 0.84928 0.0
C196 C 0.08721 0.97765 0.92147 0.0
O197 O 0.07436 0.94972 0.90292 0.0
O198 O 0.12263 0.99325 0.91736 0.0
C199 C 0.16394 0.88314 0.87307 0.0
Tb200 Tb 0.5492 0.13823 0.87245 0.0
C201 C 0.51342 0.22861 0.85711 0.0
Tb202 Tb 0.53787 0.16254 0.81722 0.0
O203 O 0.61714 0.14854 0.87863 0.0
O204 O 0.57919 0.18322 0.8523 0.0
O205 O 0.51643 0.19902 0.87465 0.0
C206 C 0.55321 0.16613 0.76781 0.0
O207 O 0.52529 0.22258 0.83384 0.0
C208 C 0.47067 0.13036 0.83186 0.0
C209 C 0.57672 0.08045 0.82842 0.0
O210 O 0.55203 0.19743 0.7846 0.0
O211 O 0.54247 0.13347 0.77868 0.0
O212 O 0.46924 0.1573 0.81394 0.0
O213 O 0.50794 0.11973 0.83816 0.0
O214 O 0.58646 0.11666 0.82085 0.0
O215 O 0.55446 0.08041 0.84784 0.0
C216 C 0.53876 0.10673 0.91814 0.0
O217 O 0.57276 0.10574 0.90799 0.0
O218 O 0.51088 0.12696 0.903 0.0
C219 C 0.61695 0.1759 0.86107 0.0
Tb220 Tb 0.33743 0.57101 0.87729 0.0
C221 C 0.42395 0.5641 0.915 0.0
Tb222 Tb 0.41924 0.58946 0.85584 0.0
O223 O 0.34967 0.50525 0.87842 0.0
O224 O 0.37413 0.54028 0.85134 0.0
O225 O 0.38276 0.56949 0.91383 0.0
C226 C 0.48293 0.58034 0.82813 0.0
O227 O 0.44398 0.56901 0.89471 0.0
C228 C 0.38361 0.6564 0.87485 0.0
C229 C 0.33606 0.61248 0.82411 0.0
O230 O 0.46187 0.61387 0.83091 0.0
O231 O 0.46956 0.55261 0.84221 0.0
O232 O 0.41126 0.6573 0.85924 0.0
O233 O 0.38246 0.6195 0.88185 0.0
O234 O 0.37122 0.5933 0.82203 0.0
O235 O 0.31863 0.6113 0.8454 0.0
C236 C 0.25627 0.5641 0.88014 0.0
O237 O 0.27289 0.56064 0.85902 0.0
O238 O 0.28563 0.57176 0.90038 0.0
C239 C 0.37524 0.5054 0.86172 0.0
Tb240 Tb 0.98088 0.14754 0.62132 0.0
C241 C 0.99646 0.24511 0.63065 0.0
Tb242 Tb 0.96849 0.18853 0.67345 0.0
O243 O 0.92584 0.17946 0.60219 0.0
O244 O 0.92898 0.16098 0.64049 0.0
O245 O 1.00373 0.2111 0.61607 0.0
C246 C 0.92378 0.23226 0.70292 0.0
O247 O 0.98063 0.24295 0.65268 0.0
C248 C 0.04473 0.16206 0.67139 0.0
C249 C 0.9649 0.09481 0.66972 0.0
O250 O 0.92627 0.23852 0.67872 0.0
O251 O 0.94948 0.2033 0.71147 0.0
O252 O 0.03002 0.16683 0.69344 0.0
O253 O 0.01896 0.17656 0.65366 0.0
O254 O 0.94473 0.12739 0.67718 0.0
O255 O 0.98584 0.09671 0.64956 0.0
C256 C 0.99617 0.09816 0.58101 0.0
O257 O 0.96055 0.10197 0.58905 0.0
O258 O 0.0236 0.12235 0.59566 0.0
C259 C 0.90726 0.18042 0.62262 0.0
Tb260 Tb 0.38894 0.98493 0.61574 0.0
C261 C 0.30418 1.01104 0.63759 0.0
Tb262 Tb 0.37814 0.96831 0.67241 0.0
O263 O 0.38418 0.91668 0.60573 0.0
O264 O 0.35433 0.9429 0.63439 0.0
O265 O 0.329 0.01717 0.61945 0.0
C266 C 0.37043 0.91738 0.70975 0.0
O267 O 0.3156 0.98874 0.65852 0.0
C268 C 0.41712 0.03941 0.66667 0.0
C269 C 0.46162 0.95308 0.65716 0.0
O270 O 0.35879 0.95619 0.71011 0.0
O271 O 0.3856 0.90809 0.6886 0.0
O272 O 0.42237 0.02012 0.68854 0.0
O273 O 0.38895 0.02027 0.6511 0.0
O274 O 0.43031 0.93279 0.66343 0.0
O275 O 0.45318 0.97899 0.63803 0.0
C276 C 0.411 1.01508 0.57235 0.0
O277 O 0.43063 0.02104 0.59617 0.0
O278 O 0.37745 0.99301 0.57288 0.0
C279 C 0.36143 0.90865 0.62346 0.0
Tb280 Tb 0.58685 0.40343 0.62866 0.0
C281 C 0.56048 0.31056 0.64164 0.0
Tb282 Tb 0.61151 0.37123 0.68407 0.0
O283 O 0.65279 0.39909 0.62296 0.0
O284 O 0.62909 0.35938 0.64656 0.0
O285 O 0.55194 0.34223 0.6256 0.0
C286 C 0.66851 0.34368 0.72205 0.0
O287 O 0.58827 0.31404 0.66351 0.0
C288 C 0.53447 0.39857 0.6726 0.0
C289 C 0.61714 0.46636 0.67988 0.0
O290 O 0.62846 0.34556 0.72257 0.0
O291 O 0.6758 0.35842 0.70036 0.0
O292 O 0.54574 0.37452 0.69207 0.0
O293 O 0.56681 0.40948 0.66457 0.0
O294 O 0.63672 0.43431 0.69079 0.0
O295 O 0.59231 0.46031 0.65644 0.0
C296 C 0.55888 0.43981 0.58359 0.0
O297 O 0.59272 0.44929 0.59982 0.0
O298 O 0.54034 0.40892 0.59253 0.0
C299 C 0.66217 0.36984 0.63897 0.0
Tb300 Tb 0.18849 0.58021 0.61794 0.0
C301 C 0.10185 0.57961 0.58087 0.0
Tb302 Tb 0.11025 0.60858 0.64184 0.0
O303 O 0.16092 0.51913 0.609 0.0
O304 O 0.14776 0.55488 0.64168 0.0
O305 O 0.14338 0.58191 0.58167 0.0
C306 C 0.05761 0.59173 0.67524 0.0
O307 O 0.08305 0.58556 0.60203 0.0
C308 C 0.15048 0.67134 0.62491 0.0
C309 C 0.19904 0.63567 0.67101 0.0
O310 O 0.05025 0.61848 0.65682 0.0
O311 O 0.09332 0.57477 0.67391 0.0
O312 O 0.12195 0.67587 0.6401 0.0
O313 O 0.15021 0.63301 0.61779 0.0
O314 O 0.15981 0.62824 0.6735 0.0
O315 O 0.21559 0.62253 0.65033 0.0
C316 C 0.26305 0.54633 0.62015 0.0
O317 O 0.24742 0.57159 0.60199 0.0
O318 O 0.23726 0.54173 0.63648 0.0
C319 C 0.13891 0.52139 0.62771 0.0
H320 H 0.80367 0.48847 0.07396 0.0
H321 H 0.83081 0.4549 0.15458 0.0
H322 H 0.87362 0.51808 0.07761 0.0
H323 H 0.90171 0.48209 0.15808 0.0
H324 H 0.9932 0.59537 0.16584 0.0
H325 H 0.93476 0.54642 0.16299 0.0
H326 H 0.94487 0.51463 0.08177 0.0
H327 H 1.00033 0.56581 0.08435 0.0
C328 C 0.82528 0.48594 0.09212 0.0
C329 C 0.81191 0.46961 0.11397 0.0
C330 C 0.86559 0.5029 0.09434 0.0
C331 C 0.89365 0.50315 0.11836 0.0
C332 C 0.88093 0.48365 0.13953 0.0
C333 C 0.84043 0.46753 0.13742 0.0
C334 C 0.98347 0.57699 0.14769 0.0
C335 C 1.00127 0.58423 0.12536 0.0
C336 C 0.94991 0.54881 0.14593 0.0
C337 C 0.93408 0.52695 0.12187 0.0
C338 C 0.95494 0.53167 0.10036 0.0
C339 C 0.98747 0.56051 0.10197 0.0
H340 H 0.037 0.78549 0.1592 0.0
H341 H 0.02296 0.80574 0.07625 0.0
H342 H 0.99853 0.84794 0.16642 0.0
H343 H 0.98357 0.86931 0.08356 0.0
H344 H 0.95483 1.00282 0.1174 0.0
H345 H 0.9912 0.94023 0.10594 0.0
H346 H 0.92642 0.8712 0.15683 0.0
H347 H 0.89005 0.93414 0.16835 0.0
C348 C 0.02571 0.80344 0.14241 0.0
C349 C 0.0328 0.79045 0.11707 0.0
C350 C 1.00325 0.83918 0.14658 0.0
C351 C 0.9871 0.86326 0.12554 0.0
C352 C 0.99549 0.85131 0.10021 0.0
C353 C 0.01811 0.81508 0.09598 0.0
C354 C 0.94799 0.97418 0.12595 0.0
C355 C 0.91968 0.97344 0.14392 0.0
C356 C 0.96876 0.93823 0.11925 0.0
C357 C 0.96204 0.90069 0.13056 0.0
C358 C 0.93282 0.89976 0.14802 0.0
C359 C 0.91182 0.93572 0.15458 0.0
H360 H 0.57719 0.88446 0.10769 0.0
H361 H 0.59353 0.95588 0.18172 0.0
H362 H 0.63778 0.91985 0.09566 0.0
H363 H 0.65387 0.9916 0.16961 0.0
H364 H 0.73033 0.07817 0.13069 0.0
H365 H 0.6663 0.04195 0.13555 0.0
H366 H 0.71813 0.92628 0.1111 0.0
H367 H 0.78308 0.96296 0.10649 0.0
C368 C 0.59372 0.90781 0.12139 0.0
C369 C 0.58054 0.91745 0.14568 0.0
C370 C 0.62856 0.9279 0.11451 0.0
C371 C 0.65066 0.95869 0.13157 0.0
C372 C 0.63733 0.96833 0.15586 0.0
C373 C 0.60291 0.94775 0.16291 0.0
C374 C 0.72763 0.04517 0.1255 0.0
C375 C 0.76173 0.0235 0.118 0.0
C376 C 0.6911 0.02433 0.12866 0.0
C377 C 0.68735 0.98108 0.12431 0.0
C378 C 0.72005 0.95965 0.11467 0.0
C379 C 0.75708 0.98066 0.11169 0.0
H380 H 0.46186 0.72219 0.1291 0.0
H381 H 0.56025 0.76788 0.09069 0.0
H382 H 0.49292 0.65366 0.13027 0.0
H383 H 0.59127 0.69861 0.09151 0.0
H384 H 0.62187 0.56288 0.08278 0.0
H385 H 0.5791 0.62387 0.07552 0.0
H386 H 0.55974 0.62716 0.15641 0.0
H387 H 0.6035 0.56543 0.16385 0.0
C388 C 0.48962 0.71721 0.12023 0.0
C389 C 0.50882 0.75042 0.10987 0.0
C390 C 0.50757 0.67805 0.12119 0.0
C391 C 0.54491 0.67094 0.1115 0.0
C392 C 0.56239 0.70323 0.09917 0.0
C393 C 0.54451 0.74277 0.09841 0.0
C394 C 0.60811 0.57621 0.09905 0.0
C395 C 0.6163 0.55958 0.12402 0.0
C396 C 0.58375 0.61133 0.09482 0.0
C397 C 0.56668 0.63077 0.11543 0.0
C398 C 0.57256 0.61273 0.1401 0.0
C399 C 0.59735 0.57735 0.1444 0.0
H400 H 0.96383 0.94783 0.36915 0.0
H401 H 0.8737 0.86747 0.31996 0.0
H402 H 0.90994 0.97614 0.39177 0.0
H403 H 0.81796 0.89882 0.34114 0.0
H404 H 0.72419 0.94963 0.39045 0.0
H405 H 0.78232 0.9099 0.3773 0.0
H406 H 0.8575 0.02224 0.3863 0.0
H407 H 0.80075 0.06049 0.40056 0.0
C408 C 0.93228 0.93611 0.36312 0.0
C409 C 0.92331 0.90503 0.34284 0.0
C410 C 0.90093 0.95296 0.37592 0.0
C411 C 0.8589 0.94054 0.36829 0.0
C412 C 0.84982 0.90906 0.34798 0.0
C413 C 0.8817 0.89132 0.33554 0.0
C414 C 0.75395 0.96518 0.39094 0.0
C415 C 0.75803 1.00817 0.39706 0.0
C416 C 0.78707 0.94263 0.38269 0.0
C417 C 0.82499 0.96257 0.38027 0.0
C418 C 0.82956 1.00506 0.38818 0.0
C419 C 0.79683 0.02728 0.39658 0.0
H420 H 0.63799 0.94772 0.39277 0.0
H421 H 0.58059 0.9401 0.31124 0.0
H422 H 0.59838 0.88621 0.40072 0.0
H423 H 0.54005 0.87903 0.31936 0.0
H424 H 0.43794 0.80951 0.35201 0.0
H425 H 0.48175 0.86914 0.34779 0.0
H426 H 0.58947 0.80561 0.38591 0.0
H427 H 0.54534 0.74441 0.38947 0.0
C428 C 0.61704 0.93276 0.37648 0.0
C429 C 0.6125 0.94883 0.35132 0.0
C430 C 0.59447 0.89738 0.38106 0.0
C431 C 0.56595 0.87767 0.36075 0.0
C432 C 0.56164 0.89357 0.3355 0.0
C433 C 0.58496 0.92844 0.33078 0.0
C434 C 0.47088 0.80815 0.35992 0.0
C435 C 0.488 0.77174 0.371 0.0
C436 C 0.49607 0.84241 0.35724 0.0
C437 C 0.53927 0.84192 0.36593 0.0
C438 C 0.55626 0.80686 0.37883 0.0
C439 C 0.53092 0.77195 0.38118 0.0
H440 H 0.516 0.62074 0.37777 0.0
H441 H 0.54325 0.61898 0.2987 0.0
H442 H 0.57527 0.57706 0.39094 0.0
H443 H 0.60469 0.57653 0.31215 0.0
H444 H 0.68804 0.46959 0.33546 0.0
H445 H 0.62497 0.50942 0.32384 0.0
H446 H 0.64784 0.57336 0.40066 0.0
H447 H 0.71023 0.53168 0.4125 0.0
C448 C 0.53513 0.61137 0.36321 0.0
C449 C 0.52486 0.6232 0.33714 0.0
C450 C 0.56948 0.58645 0.37087 0.0
C451 C 0.59509 0.5729 0.35273 0.0
C452 C 0.58535 0.58563 0.32665 0.0
C453 C 0.5505 0.61044 0.31892 0.0
C454 C 0.67883 0.49138 0.35011 0.0
C455 C 0.70369 0.49726 0.37499 0.0
C456 C 0.64305 0.51483 0.34328 0.0
C457 C 0.63148 0.54548 0.361 0.0
C458 C 0.65541 0.54993 0.38646 0.0
C459 C 0.69107 0.52587 0.39343 0.0
H460 H 0.03039 0.72551 0.33828 0.0
H461 H 0.95025 0.77942 0.38972 0.0
H462 H 1.001 0.65724 0.34185 0.0
H463 H 0.92059 0.71014 0.39346 0.0
H464 H 0.90149 0.57552 0.41148 0.0
H465 H 0.93719 0.64134 0.41011 0.0
H466 H 0.93496 0.61901 0.32668 0.0
H467 H 0.89855 0.55228 0.32811 0.0
C468 C 1.00662 0.72276 0.35062 0.0
C469 C 0.99248 0.7582 0.36361 0.0
C470 C 0.98954 0.68344 0.35245 0.0
C471 C 0.95789 0.67804 0.36752 0.0
C472 C 0.94503 0.71311 0.38166 0.0
C473 C 0.96214 0.75284 0.37971 0.0
C474 C 0.90889 0.58435 0.39278 0.0
C475 C 0.89697 0.55865 0.36983 0.0
C476 C 0.92911 0.6224 0.39203 0.0
C477 C 0.93835 0.63606 0.36827 0.0
C478 C 0.92833 0.60945 0.34539 0.0
C479 C 0.90774 0.57106 0.34614 0.0
H480 H 0.02711 0.44324 0.90426 0.0
H481 H 0.02702 0.4363 0.82071 0.0
H482 H 0.08314 0.49418 0.91054 0.0
H483 H 0.08636 0.48468 0.82693 0.0
H484 H 0.19111 0.57644 0.84171 0.0
H485 H 0.1209 0.54703 0.83695 0.0
H486 H 0.15337 0.49395 0.91274 0.0
H487 H 0.22233 0.52605 0.91794 0.0
C488 C 0.03865 0.45336 0.8871 0.0
C489 C 0.02237 0.43619 0.86196 0.0
C490 C 0.0716 0.48205 0.89075 0.0
C491 C 0.09065 0.49307 0.86945 0.0
C492 C 0.07272 0.47745 0.84395 0.0
C493 C 0.03863 0.44957 0.84025 0.0
C494 C 0.18257 0.55947 0.85765 0.0
C495 C 0.21199 0.55359 0.88025 0.0
C496 C 0.14245 0.54203 0.85478 0.0
C497 C 0.13104 0.51725 0.87417 0.0
C498 C 0.16018 0.51324 0.89742 0.0
C499 C 0.20001 0.53161 0.90052 0.0
H500 H 1.00432 0.22334 0.90382 0.0
H501 H 0.95409 0.22421 0.82129 0.0
H502 H 0.04447 0.16153 0.89524 0.0
H503 H 0.99227 0.16171 0.81269 0.0
H504 H 0.0997 0.07735 0.7994 0.0
H505 H 0.05902 0.13836 0.80897 0.0
H506 H 0.0452 0.09082 0.88391 0.0
H507 H 0.08723 0.03163 0.87471 0.0
C508 C 1.00098 0.2096 0.88398 0.0
C509 C 0.97604 0.22855 0.86327 0.0
C510 C 0.02407 0.17414 0.87894 0.0
C511 C 0.02233 0.15655 0.85309 0.0
C512 C 0.99564 0.17471 0.83269 0.0
C513 C 0.97315 0.21031 0.83769 0.0
C514 C 0.08823 0.08034 0.81797 0.0
C515 C 0.09685 0.04976 0.83632 0.0
C516 C 0.06445 0.11508 0.82343 0.0
C517 C 0.04838 0.11986 0.8473 0.0
C518 C 0.05736 0.08903 0.86556 0.0
C519 C 0.08137 0.05473 0.86019 0.0
H520 H 0.22637 0.07494 0.87674 0.0
H521 H 0.29373 0.96029 0.8781 0.0
H522 H 0.28995 0.11278 0.87141 0.0
H523 H 0.35646 0.99706 0.87205 0.0
H524 H 0.47125 0.07063 0.86747 0.0
H525 H 0.41258 0.04242 0.88518 0.0
H526 H 0.32877 0.1213 0.83672 0.0
H527 H 0.38821 0.15117 0.82025 0.0
C528 C 0.25522 0.05811 0.87709 0.0
C529 C 0.25525 1.01475 0.87836 0.0
C530 C 0.29153 0.07959 0.87339 0.0
C531 C 0.32862 0.05813 0.87082 0.0
C532 C 0.32908 1.0151 0.87417 0.0
C533 C 0.29299 0.99383 0.87782 0.0
C534 C 0.44036 0.08241 0.8609 0.0
C535 C 0.43448 0.11325 0.84247 0.0
C536 C 0.40648 0.06593 0.8709 0.0
C537 C 0.36542 0.07921 0.86242 0.0
C538 C 0.35974 0.11057 0.84418 0.0
C539 C 0.39381 0.12743 0.83442 0.0
H540 H 0.44537 0.25109 0.88 0.0
H541 H 0.54652 0.30092 0.84587 0.0
H542 H 0.41353 0.32008 0.88015 0.0
H543 H 0.51504 0.36923 0.84586 0.0
H544 H 0.45963 0.49463 0.87182 0.0
H545 H 0.49583 0.42838 0.87364 0.0
H546 H 0.37893 0.36434 0.84521 0.0
H547 H 0.34318 0.43083 0.84305 0.0
C548 C 0.4613 0.27698 0.87323 0.0
C549 C 0.49837 0.27073 0.86299 0.0
C550 C 0.44285 0.31631 0.87291 0.0
C551 C 0.46147 0.3501 0.86265 0.0
C552 C 0.49987 0.3441 0.85394 0.0
C553 C 0.51791 0.3049 0.85396 0.0
C554 C 0.44216 0.46669 0.86455 0.0
C555 C 0.39895 0.4681 0.85597 0.0
C556 C 0.46269 0.42852 0.86618 0.0
C557 C 0.44021 0.39092 0.85984 0.0
C558 C 0.39712 0.39258 0.85063 0.0
C559 C 0.37677 0.43069 0.84885 0.0
H560 H 0.08278 0.16905 0.62885 0.0
H561 H 0.09543 0.11033 0.70279 0.0
H562 H 0.1435 0.13228 0.61787 0.0
H563 H 0.15739 0.07416 0.69224 0.0
H564 H 0.23585 0.98123 0.65453 0.0
H565 H 0.17414 0.01888 0.66255 0.0
H566 H 0.21862 0.12644 0.62846 0.0
H567 H 0.28067 0.08806 0.62007 0.0
C568 C 0.09881 0.14839 0.64287 0.0
C569 C 0.08415 0.14228 0.66661 0.0
C570 C 0.1339 0.12755 0.63664 0.0
C571 C 0.15537 0.09994 0.65401 0.0
C572 C 0.14126 0.09466 0.67814 0.0
C573 C 0.10605 0.11567 0.68439 0.0
C574 C 0.23219 1.01273 0.64831 0.0
C575 C 0.26324 0.03168 0.63667 0.0
C576 C 0.19697 0.03453 0.65325 0.0
C577 C 0.1917 0.07609 0.64679 0.0
C578 C 0.22161 0.09445 0.63375 0.0
C579 C 0.25705 0.07242 0.62871 0.0
H580 H 0.47702 0.29145 0.62287 0.0
H581 H 0.59483 0.23604 0.65216 0.0
H582 H 0.44112 0.22553 0.62773 0.0
H583 H 0.5595 0.17125 0.65726 0.0
H584 H 0.48115 0.08379 0.69754 0.0
H585 H 0.51462 0.14789 0.68766 0.0
H586 H 0.43096 0.14993 0.61373 0.0
H587 H 0.39771 0.08574 0.62364 0.0
C588 C 0.49538 0.26494 0.62946 0.0
C589 C 0.53886 0.26917 0.63698 0.0
C590 C 0.47482 0.22722 0.63256 0.0
C591 C 0.49727 0.19312 0.6435 0.0
C592 C 0.54093 0.19688 0.64942 0.0
C593 C 0.56129 0.23408 0.64613 0.0
C594 C 0.47006 0.09779 0.67914 0.0
C595 C 0.4372 0.07914 0.66124 0.0
C596 C 0.48929 0.13459 0.67338 0.0
C597 C 0.4758 0.15424 0.64972 0.0
C598 C 0.44219 0.136 0.63213 0.0
C599 C 0.42332 0.09894 0.63776 0.0
H600 H 0.34114 0.57166 0.61214 0.0
H601 H 0.27295 0.46825 0.63473 0.0
H602 H 0.4067 0.53506 0.62496 0.0
H603 H 0.3374 0.43086 0.64629 0.0
H604 H 0.46158 0.39364 0.69364 0.0
H605 H 0.39606 0.42933 0.67911 0.0
H606 H 0.44989 0.48042 0.61617 0.0
H607 H 0.51498 0.44719 0.63166 0.0
C608 C 0.34017 0.54064 0.61907 0.0
C609 C 0.30215 0.52272 0.62239 0.0
C610 C 0.37766 0.51956 0.62655 0.0
C611 C 0.37763 0.47998 0.63712 0.0
C612 C 0.33907 0.46159 0.63905 0.0
C613 C 0.30199 0.48282 0.63203 0.0
C614 C 0.45911 0.41241 0.67669 0.0
C615 C 0.49336 0.41726 0.66369 0.0
C616 C 0.42155 0.43279 0.66819 0.0
C617 C 0.4174 0.45801 0.64633 0.0
C618 C 0.45176 0.4621 0.63329 0.0
C619 C 0.48913 0.44236 0.64198 0.0
H620 H 0.05536 0.51217 0.62884 0.0
H621 H 0.17164 0.44669 0.63778 0.0
H622 H 0.01717 0.44591 0.62601 0.0
H623 H 0.13423 0.38077 0.63587 0.0
H624 H 0.06035 0.26613 0.6042 0.0
H625 H 0.09277 0.33489 0.60455 0.0
H626 H 1.00021 0.38702 0.64783 0.0
H627 H 0.96723 0.31922 0.64649 0.0
C628 C 0.07273 0.48368 0.63131 0.0
C629 C 0.11641 0.48451 0.63415 0.0
C630 C 0.05094 0.44559 0.62937 0.0
C631 C 0.07249 0.40761 0.63017 0.0
C632 C 0.11637 0.40903 0.6344 0.0
C633 C 0.13793 0.4469 0.63612 0.0
C634 C 0.04633 0.29252 0.61309 0.0
C635 C 0.01139 0.28703 0.62544 0.0
C636 C 0.06528 0.33191 0.61374 0.0
C637 C 0.04974 0.36664 0.62678 0.0
C638 C 0.01321 0.36135 0.6376 0.0
C639 C 0.99433 0.32222 0.63689 0.0
H640 H 0.16544 0.66559 0.21694 0.0
H641 H 0.18539 0.74964 0.15747 0.0
H642 H 0.18223 0.72156 0.25038 0.0
H643 H 0.19987 0.80568 0.19091 0.0
H644 H 0.06033 0.81986 0.22688 0.0
H645 H 0.11275 0.792 0.20191 0.0
H646 H 0.20753 0.80709 0.27095 0.0
H647 H 0.15574 0.83685 0.29556 0.0
C648 C 0.17519 0.69539 0.21114 0.0
C649 C 0.17061 0.70458 0.18465 0.0
C650 C 0.18564 0.72726 0.23032 0.0
C651 C 0.18915 0.768 0.22255 0.0
C652 C 0.19559 0.77453 0.19696 0.0
C653 C 0.18611 0.7426 0.17782 0.0
C654 C 0.09256 0.8184 0.23634 0.0
C655 C 0.10409 0.82957 0.26296 0.0
C656 C 0.12266 0.80336 0.22212 0.0
C657 C 0.1641 0.79825 0.23469 0.0
C658 C 0.17607 0.81181 0.26091 0.0
C659 C 0.14624 0.82809 0.2749 0.0
H660 H 0.80918 0.0603 0.32005 0.0
H661 H 0.7328 0.16887 0.30925 0.0
H662 H 0.86846 0.09911 0.31146 0.0
H663 H 0.79267 0.20951 0.30287 0.0
H664 H 0.82742 0.19081 0.22333 0.0
H665 H 0.81849 0.21682 0.2666 0.0
H666 H 0.91902 0.14016 0.30104 0.0
H667 H 0.92691 0.11271 0.25726 0.0
C668 C 0.80536 0.09277 0.31595 0.0
C669 C 0.76615 0.111 0.31349 0.0
C670 C 0.83971 0.11577 0.31168 0.0
C671 C 0.83527 0.15753 0.30461 0.0
C672 C 0.79713 0.17703 0.30655 0.0
C673 C 0.76257 0.15366 0.30999 0.0
C674 C 0.84781 0.17969 0.2402 0.0
C675 C 0.87471 0.14662 0.23749 0.0
C676 C 0.84335 0.19506 0.26524 0.0
C677 C 0.8631 0.17439 0.28723 0.0
C678 C 0.89943 0.15228 0.2842 0.0
C679 C 0.90371 0.13609 0.25922 0.0
H680 H 0.42924 0.74548 0.20804 0.0
H681 H 0.37242 0.86622 0.20586 0.0
H682 H 0.36358 0.71444 0.21351 0.0
H683 H 0.30571 0.83514 0.2101 0.0
H684 H 0.30717 0.77485 0.28962 0.0
H685 H 0.28803 0.81073 0.24966 0.0
H686 H 0.28694 0.69542 0.20393 0.0
H687 H 0.30494 0.65867 0.24418 0.0
C688 C 0.40262 0.76532 0.20892 0.0
C689 C 0.40641 0.80826 0.20787 0.0
C690 C 0.36434 0.74753 0.21113 0.0
C691 C 0.32882 0.77239 0.21226 0.0
C692 C 0.33228 0.81517 0.20942 0.0
C693 C 0.3708 0.833 0.20773 0.0
C694 C 0.30021 0.75678 0.27111 0.0
C695 C 0.31059 0.71486 0.26941 0.0
C696 C 0.28896 0.77718 0.24801 0.0
C697 C 0.29388 0.756 0.22419 0.0
C698 C 0.28794 0.71268 0.22261 0.0
C699 C 0.29873 0.69159 0.24565 0.0
H700 H 0.76545 0.40206 0.18823 0.0
H701 H 0.63886 0.38613 0.20184 0.0
H702 H 0.79023 0.36051 0.22483 0.0
H703 H 0.66297 0.34167 0.23774 0.0
H704 H 0.73123 0.39866 0.31834 0.0
H705 H 0.69124 0.36925 0.27828 0.0
H706 H 0.80279 0.31318 0.25691 0.0
H707 H 0.84341 0.34559 0.29676 0.0
C708 C 0.74295 0.38901 0.19902 0.0
C709 C 0.70091 0.3996 0.19379 0.0
C710 C 0.75685 0.36407 0.21966 0.0
C711 C 0.72869 0.34913 0.23527 0.0
C712 C 0.6857 0.35437 0.22702 0.0
C713 C 0.67197 0.38041 0.20685 0.0
C714 C 0.747 0.37937 0.30528 0.0
C715 C 0.7905 0.37707 0.30916 0.0
C716 C 0.72396 0.36158 0.28238 0.0
C717 C 0.74462 0.34187 0.26318 0.0
C718 C 0.78661 0.33092 0.27047 0.0
C719 C 0.80995 0.34988 0.293 0.0
H720 H 0.9017 0.20691 0.74796 0.0
H721 H 0.86371 0.28512 0.68334 0.0
H722 H 0.84399 0.23085 0.76839 0.0
H723 H 0.80342 0.30726 0.7026 0.0
H724 H 0.84418 0.3953 0.77382 0.0
H725 H 0.80737 0.3581 0.73524 0.0
H726 H 0.78275 0.25689 0.78181 0.0
H727 H 0.82002 0.29393 0.82091 0.0
C728 C 0.8806 0.22914 0.73809 0.0
C729 C 0.88827 0.24605 0.715 0.0
C730 C 0.84646 0.24218 0.74934 0.0
C731 C 0.8197 0.27303 0.73783 0.0
C732 C 0.82431 0.28509 0.71268 0.0
C733 C 0.85916 0.27287 0.70183 0.0
C734 C 0.8304 0.36532 0.77599 0.0
C735 C 0.8392 0.34507 0.79955 0.0
C736 C 0.80832 0.34408 0.7539 0.0
C737 C 0.7993 0.30159 0.75528 0.0
C738 C 0.7945 0.2879 0.78002 0.0
C739 C 0.81687 0.30858 0.80231 0.0
H740 H 0.35909 0.92652 0.7608 0.0
H741 H 0.35374 0.8367 0.69529 0.0
H742 H 0.31849 0.87945 0.78243 0.0
H743 H 0.30999 0.79116 0.71594 0.0
H744 H 0.18271 0.87791 0.7401 0.0
H745 H 0.23883 0.84732 0.71985 0.0
H746 H 0.28968 0.79453 0.79309 0.0
H747 H 0.23078 0.82149 0.81252 0.0
C748 C 0.35056 0.89609 0.75157 0.0
C749 C 0.35807 0.88562 0.72621 0.0
C750 C 0.32801 0.86875 0.76406 0.0
C751 C 0.31077 0.83203 0.75053 0.0
C752 C 0.32326 0.81909 0.72674 0.0
C753 C 0.34756 0.84561 0.7148 0.0
C754 C 0.2043 0.85742 0.75124 0.0
C755 C 0.20398 0.85332 0.77798 0.0
C756 C 0.23605 0.83926 0.73962 0.0
C757 C 0.26925 0.82022 0.75541 0.0
C758 C 0.26459 0.80954 0.78073 0.0
C759 C 0.23139 0.82573 0.79194 0.0
H760 H 0.62715 0.13152 0.78195 0.0
H761 H 0.55668 0.20055 0.72103 0.0
H762 H 0.69185 0.15744 0.77087 0.0
H763 H 0.62169 0.22453 0.70869 0.0
H764 H 0.67431 0.32018 0.77244 0.0
H765 H 0.6754 0.24703 0.78107 0.0
H766 H 0.71458 0.2179 0.70636 0.0
H767 H 0.71862 0.2915 0.6993 0.0
C768 C 0.62552 0.1492 0.76466 0.0
C769 C 0.58711 0.16426 0.75236 0.0
C770 C 0.66279 0.1639 0.75829 0.0
C771 C 0.66165 0.19322 0.73925 0.0
C772 C 0.62326 0.20168 0.72346 0.0
C773 C 0.58592 0.18827 0.73055 0.0
C774 C 0.68676 0.29852 0.75902 0.0
C775 C 0.69395 0.31077 0.73455 0.0
C776 C 0.6876 0.25649 0.76392 0.0
C777 C 0.69264 0.22713 0.74354 0.0
C778 C 0.7096 0.24005 0.72202 0.0
C779 C 0.71117 0.28229 0.71785 0.0
H780 H 0.28347 0.64105 0.68134 0.0
H781 H 0.17223 0.69477 0.70402 0.0
H782 H 0.32451 0.67139 0.72072 0.0
H783 H 0.21391 0.72749 0.74337 0.0
H784 H 0.25666 0.63877 0.81192 0.0
H785 H 0.22917 0.68122 0.77626 0.0
H786 H 0.3543 0.70256 0.76038 0.0
H787 H 0.38129 0.65746 0.79543 0.0
C788 C 0.26801 0.66044 0.69451 0.0
C789 C 0.22449 0.66279 0.69102 0.0
C790 C 0.2917 0.67882 0.71702 0.0
C791 C 0.27184 0.69916 0.73638 0.0
C792 C 0.2296 0.70953 0.72965 0.0
C793 C 0.20567 0.69029 0.7074 0.0
C794 C 0.27819 0.65268 0.80079 0.0
C795 C 0.3204 0.64239 0.80478 0.0
C796 C 0.26269 0.67811 0.78068 0.0
C797 C 0.28938 0.69352 0.76429 0.0
C798 C 0.33268 0.68929 0.77168 0.0
C799 C 0.34803 0.66287 0.79134 0.0
H800 H 0.16272 0.70842 0.09724 0.0
H801 H 0.25905 0.63085 0.13544 0.0
H802 H 0.21368 0.76455 0.09796 0.0
H803 H 0.31059 0.68526 0.13465 0.0
H804 H 0.39437 0.79681 0.15183 0.0
H805 H 0.33998 0.74535 0.15232 0.0
H806 H 0.2683 0.79661 0.08369 0.0
H807 H 0.32211 0.85034 0.08485 0.0
C808 C 0.19497 0.7031 0.10549 0.0
C809 C 0.20649 0.66503 0.11654 0.0
C810 C 0.22456 0.73541 0.10578 0.0
C811 C 0.26701 0.73056 0.1167 0.0
C812 C 0.27846 0.69161 0.12679 0.0
C813 C 0.24879 0.65972 0.12689 0.0
C814 C 0.36652 0.7978 0.13728 0.0
C815 C 0.36265 0.82832 0.11863 0.0
C816 C 0.33529 0.76745 0.13713 0.0
C817 C 0.29917 0.76543 0.11773 0.0
C818 C 0.29498 0.79667 0.09923 0.0
C819 C 0.32606 0.82773 0.09979 0.0
H820 H 0.86196 0.22943 0.10834 0.0
H821 H 0.78174 0.14822 0.14203 0.0
H822 H 0.81101 0.28497 0.10907 0.0
H823 H 0.72993 0.20222 0.14149 0.0
H824 H 0.65481 0.31471 0.15821 0.0
H825 H 0.70888 0.26276 0.15945 0.0
H826 H 0.74782 0.3123 0.09091 0.0
H827 H 0.6949 0.36603 0.09092 0.0
C828 C 0.83338 0.22341 0.11586 0.0
C829 C 0.82616 0.18433 0.12522 0.0
C830 C 0.80375 0.25521 0.11606 0.0
C831 C 0.76567 0.24875 0.12531 0.0
C832 C 0.75884 0.2094 0.1347 0.0
C833 C 0.78864 0.17799 0.13486 0.0
C834 C 0.67478 0.31439 0.14331 0.0
C835 C 0.67011 0.34433 0.12428 0.0
C836 C 0.70593 0.28424 0.14389 0.0
C837 C 0.73311 0.28233 0.12509 0.0
C838 C 0.72826 0.31255 0.106 0.0
C839 C 0.69747 0.34325 0.10575 0.0
H840 H 0.34552 0.74324 0.34273 0.0
H841 H 0.28006 0.65161 0.37906 0.0
H842 H 0.28458 0.78757 0.33886 0.0
H843 H 0.21835 0.69632 0.37503 0.0
H844 H 0.10358 0.77578 0.34033 0.0
H845 H 0.16251 0.72825 0.34111 0.0
H846 H 0.24776 0.82934 0.3701 0.0
H847 H 0.18893 0.87653 0.36966 0.0
C848 C 0.31794 0.73231 0.34974 0.0
C849 C 0.31787 0.69371 0.36127 0.0
C850 C 0.28296 0.75798 0.34764 0.0
C851 C 0.24645 0.74585 0.35678 0.0
C852 C 0.24582 0.70666 0.36766 0.0
C853 C 0.28122 0.68105 0.37006 0.0
C854 C 0.13493 0.78788 0.34676 0.0
C855 C 0.14148 0.83005 0.35501 0.0
C856 C 0.16873 0.76054 0.34736 0.0
C857 C 0.21006 0.77477 0.35576 0.0
C858 C 0.2165 0.8172 0.36336 0.0
C859 C 0.18273 0.84432 0.36317 0.0
H860 H 0.85391 0.29832 0.3442 0.0
H861 H 0.81349 0.36605 0.40958 0.0
H862 H 0.80405 0.24272 0.3473 0.0
H863 H 0.76353 0.30959 0.41292 0.0
H864 H 0.67817 0.17153 0.3423 0.0
H865 H 0.7259 0.22995 0.33999 0.0
H866 H 0.76236 0.23311 0.42412 0.0
H867 H 0.71543 0.17411 0.42631 0.0
C868 C 0.83448 0.30135 0.35937 0.0
C869 C 0.83811 0.33686 0.37673 0.0
C870 C 0.80546 0.26942 0.36096 0.0
C871 C 0.77927 0.27133 0.38023 0.0
C872 C 0.78317 0.3067 0.39786 0.0
C873 C 0.81183 0.33917 0.39596 0.0
C874 C 0.69684 0.18414 0.36025 0.0
C875 C 0.69344 0.16713 0.38439 0.0
C876 C 0.72418 0.2179 0.35897 0.0
C877 C 0.74862 0.23631 0.38183 0.0
C878 C 0.74416 0.2201 0.40607 0.0
C879 C 0.71723 0.18602 0.4073 0.0
H880 H 0.69092 0.18229 0.89515 0.0
H881 H 0.62318 0.23807 0.82729 0.0
H882 H 0.74603 0.23441 0.898 0.0
H883 H 0.67943 0.28927 0.82906 0.0
H884 H 0.76472 0.40178 0.85301 0.0
H885 H 0.71054 0.34868 0.85011 0.0
H886 H 0.80283 0.2619 0.88329 0.0
H887 H 0.85656 0.31617 0.88734 0.0
C888 C 0.68808 0.20539 0.88052 0.0
C889 C 0.65232 0.20598 0.86108 0.0
C890 C 0.72006 0.23542 0.88204 0.0
C891 C 0.71782 0.26689 0.86391 0.0
C892 C 0.68239 0.26655 0.84391 0.0
C893 C 0.65007 0.23681 0.84265 0.0
C894 C 0.77339 0.37147 0.85998 0.0
C895 C 0.81514 0.36347 0.8705 0.0
C896 C 0.74221 0.34055 0.85797 0.0
C897 C 0.75162 0.30018 0.86621 0.0
C898 C 0.79359 0.2924 0.87701 0.0
C899 C 0.82473 0.3236 0.87928 0.0
H900 H 0.36933 0.72224 0.84417 0.0
H901 H 0.32239 0.66288 0.90653 0.0
H902 H 0.31502 0.77357 0.84296 0.0
H903 H 0.2688 0.7163 0.90665 0.0
H904 H 0.15523 0.80196 0.88635 0.0
H905 H 0.20657 0.74626 0.8869 0.0
H906 H 0.29435 0.83217 0.86338 0.0
H907 H 0.24257 0.88611 0.86137 0.0
C908 C 0.34777 0.72063 0.85807 0.0
C909 C 0.35075 0.68866 0.87572 0.0
C910 C 0.31647 0.75047 0.85751 0.0
C911 C 0.28736 0.75022 0.87504 0.0
C912 C 0.29016 0.71784 0.89266 0.0
C913 C 0.32125 0.68732 0.89285 0.0
C914 C 0.18545 0.80861 0.88109 0.0
C915 C 0.19448 0.84845 0.87352 0.0
C916 C 0.21519 0.77673 0.88161 0.0
C917 C 0.25508 0.784 0.87496 0.0
C918 C 0.264 0.82435 0.86795 0.0
C919 C 0.23416 0.85573 0.86697 0.0
H920 H 0.85452 0.17653 0.65922 0.0
H921 H 0.87623 0.24274 0.59222 0.0
H922 H 0.79535 0.22141 0.66417 0.0
H923 H 0.81747 0.28736 0.59689 0.0
H924 H 0.73766 0.38856 0.6253 0.0
H925 H 0.79635 0.34246 0.62252 0.0
H926 H 0.72705 0.2419 0.64808 0.0
H927 H 0.66926 0.28868 0.65179 0.0
C928 C 0.84652 0.2006 0.6455 0.0
C929 C 0.87029 0.20631 0.62548 0.0
C930 C 0.8124 0.22628 0.6482 0.0
C931 C 0.80174 0.25889 0.63127 0.0
C932 C 0.82518 0.26366 0.61089 0.0
C933 C 0.85878 0.23771 0.608 0.0
C934 C 0.7352 0.35668 0.63051 0.0
C935 C 0.69884 0.34237 0.63878 0.0
C936 C 0.76873 0.32997 0.62868 0.0
C937 C 0.76663 0.28793 0.63469 0.0
C938 C 0.73032 0.27394 0.64344 0.0
C939 C 0.69696 0.3008 0.64548 0.0
H940 H 0.35114 0.83856 0.58929 0.0
H941 H 0.31026 0.89255 0.65876 0.0
H942 H 0.30173 0.78057 0.58858 0.0
H943 H 0.26343 0.83406 0.6593 0.0
H944 H 0.14908 0.75264 0.64068 0.0
H945 H 0.20053 0.8069 0.63989 0.0
H946 H 0.27832 0.71923 0.60479 0.0
H947 H 0.2249 0.66493 0.60449 0.0
C948 C 0.33224 0.8377 0.60472 0.0
C949 C 0.33495 0.87045 0.6241 0.0
C950 C 0.30382 0.80421 0.60441 0.0
C951 C 0.27743 0.80223 0.62362 0.0
C952 C 0.2817 0.83442 0.64354 0.0
C953 C 0.30938 0.868 0.64355 0.0
C954 C 0.17701 0.74483 0.6326 0.0
C955 C 0.18259 0.70418 0.62269 0.0
C956 C 0.20714 0.77611 0.63245 0.0
C957 C 0.24469 0.76805 0.62272 0.0
C958 C 0.25004 0.72728 0.61235 0.0
C959 C 0.21938 0.69588 0.61224 0.0
H960 H 1.00473 0.39579 0.95206 0.0
H961 H 0.92783 0.50212 0.93294 0.0
H962 H 0.04124 0.43444 0.99117 0.0
H963 H 0.96305 0.54018 0.97217 0.0
H964 H 0.06063 0.61495 0.0269 0.0
H965 H 0.0283 0.57339 0.98807 0.0
H966 H 0.0358 0.46434 0.03359 0.0
H967 H 0.06938 0.50526 0.07195 0.0
C968 C 0.99491 0.42699 0.95659 0.0
C969 C 0.96348 0.44591 0.93944 0.0
C970 C 0.01595 0.44929 0.97893 0.0
C971 C 1.00565 0.49081 0.98464 0.0
C972 C 0.97277 0.5088 0.96804 0.0
C973 C 0.95215 0.48675 0.94569 0.0
C974 C 0.05597 0.58201 0.02853 0.0
C975 C 0.06764 0.56365 0.05264 0.0
C976 C 0.03699 0.55818 0.00631 0.0
C977 C 0.02883 0.51549 0.00772 0.0
C978 C 0.04184 0.49694 0.03162 0.0
C979 C 0.06111 0.52063 0.05372 0.0
H980 H 0.01174 0.9479 0.92832 0.0
H981 H 0.10882 0.03499 0.96297 0.0
H982 H 0.9709 0.9677 0.96243 0.0
H983 H 0.06836 0.05426 -0.00214 0.0
H984 H 0.9669 0.10925 0.04095 0.0
H985 H 1.0071 0.08999 0.00623 0.0
H986 H 0.96712 0.96237 0.00769 0.0
H987 H 0.92599 0.98214 0.042 0.0
C988 C 0.02454 0.97115 0.94341 0.0
C989 C 0.06357 0.98986 0.94296 0.0
C990 C 1.00115 0.98234 0.96314 0.0
C991 C 0.01616 1.01255 0.98312 0.0
C992 C 0.05542 0.03126 0.98267 0.0
C993 C 0.07883 0.02007 0.96279 0.0
C994 C 0.9664 0.07713 0.03365 0.0
C995 C 0.94303 0.04725 0.04407 0.0
C996 C 0.98986 0.06597 0.01391 0.0
C997 C 0.99075 0.02452 0.0041 0.0
C998 C 0.96689 0.99469 0.01442 0.0
C999 C 0.94328 1.00594 0.03413 0.0
H1000 H 0.59674 0.06901 0.95276 0.0
H1001 H 0.46423 0.08879 0.93364 0.0
H1002 H 0.58494 0.02405 0.98749 0.0
H1003 H 0.45226 0.04369 0.96856 0.0
H1004 H 0.44678 0.92345 0.01388 0.0
H1005 H 0.4582 0.96847 0.97875 0.0
H1006 H 0.56146 0.02847 0.03059 0.0
H1007 H 0.55009 0.98365 0.06542 0.0
C1008 C 0.56509 0.06409 0.95621 0.0
C1009 C 0.53145 0.08268 0.94066 0.0
C1010 C 0.55831 0.03833 0.97612 0.0
C1011 C 0.51763 0.03013 0.98079 0.0
C1012 C 0.48393 0.04901 0.9653 0.0
C1013 C 0.4908 0.07519 0.94552 0.0
C1014 C 0.47209 0.94604 0.0176 0.0
C1015 C 0.49761 0.94998 0.04233 0.0
C1016 C 0.47841 0.97208 -0.00239 0.0
C1017 C 0.51068 1.0022 0.00187 0.0
C1018 C 0.53656 1.00544 0.02653 0.0
C1019 C 0.52999 0.9798 0.04652 0.0
H1020 H 0.5145 0.45499 0.06418 0.0
H1021 H 0.62616 0.4984 0.03815 0.0
H1022 H 0.4723 0.47936 0.02477 0.0
H1023 H 0.58389 0.52428 -0.00088 0.0
H1024 H 0.50108 0.53017 0.92005 0.0
H1025 H 0.54257 0.50415 0.95881 0.0
H1026 H 0.44702 0.54055 0.00454 0.0
H1027 H 0.40433 0.56536 0.96507 0.0
C1028 C 0.53008 0.46964 0.04996 0.0
C1029 C 0.57376 0.47448 0.05421 0.0
C1030 C 0.50578 0.48408 0.02747 0.0
C1031 C 0.52447 0.50417 0.00874 0.0
C1032 C 0.56831 0.50844 0.01285 0.0
C1033 C 0.59267 0.49353 0.03524 0.0
C1034 C 0.48885 0.53303 0.93837 0.0
C1035 C 0.44937 0.55023 0.93944 0.0
C1036 C 0.5129 0.51814 0.96073 0.0
C1037 C 0.49846 0.52034 0.98497 0.0
C1038 C 0.45899 0.53778 0.98614 0.0
C1039 C 0.43458 0.55232 0.96357 0.0
H1040 H 0.07061 0.07801 0.56577 0.0
H1041 H 0.93764 0.05757 0.5453 0.0
H1042 H 0.08152 0.0335 0.52771 0.0
H1043 H 0.94802 1.01487 0.50674 0.0
H1044 H 0.97881 0.91354 0.45 0.0
H1045 H 0.97202 0.95088 0.4915 0.0
H1046 H 0.07258 0.03388 0.48152 0.0
H1047 H 0.0804 0.9953 0.4409 0.0
C1048 C 0.04377 0.06411 0.55302 0.0
C1049 C 1.00334 0.07119 0.55834 0.0
C1050 C 0.0499 0.0388 0.53116 0.0
C1051 C 0.01563 0.02055 0.51405 0.0
C1052 C 0.97522 0.02763 0.51967 0.0
C1053 C 0.9692 0.05245 0.54165 0.0
C1054 C 0.99962 0.93953 0.45692 0.0
C1055 C 0.03007 0.95161 0.44235 0.0
C1056 C 0.99562 0.96115 0.48057 0.0
C1057 C 0.02166 0.9956 0.48989 0.0
C1058 C 0.05246 1.00715 0.47529 0.0
C1059 C 0.05675 0.98525 0.45187 0.0
H1060 H 0.38309 0.99128 0.52036 0.0
H1061 H 0.48145 0.05967 0.5714 0.0
H1062 H 0.42076 0.99884 0.48318 0.0
H1063 H 0.51873 0.06731 0.53461 0.0
H1064 H 0.59946 0.02352 0.47445 0.0
H1065 H 0.55654 0.01869 0.50885 0.0
H1066 H 0.44752 0.04999 0.4541 0.0
H1067 H 0.49082 0.0547 0.41948 0.0
C1068 C 0.4123 1.00856 0.52351 0.0
C1069 C 0.42941 0.02469 0.54881 0.0
C1070 C 0.43391 1.01286 0.50226 0.0
C1071 C 0.47315 0.03308 0.506 0.0
C1072 C 0.48908 0.05078 0.53111 0.0
C1073 C 0.4675 0.04669 0.55218 0.0
C1074 C 0.56632 0.02924 0.46971 0.0
C1075 C 0.54856 0.03965 0.4443 0.0
C1076 C 0.54171 0.02675 0.48947 0.0
C1077 C 0.49859 0.0344 0.48435 0.0
C1078 C 0.48057 0.04381 0.4587 0.0
C1079 C 0.50537 0.04663 0.43891 0.0
H1080 H 0.4873 0.42659 0.54728 0.0
H1081 H 0.59728 0.50484 0.56588 0.0
H1082 H 0.46383 0.46605 0.50836 0.0
H1083 H 0.57447 0.54367 0.5271 0.0
H1084 H 0.50192 0.63123 0.46975 0.0
H1085 H 0.52299 0.59262 0.50925 0.0
H1086 H 0.48086 0.47843 0.46535 0.0
H1087 H 0.45934 0.51709 0.42624 0.0
C1088 C 0.5065 0.45206 0.54298 0.0
C1089 C 0.54413 0.46253 0.55961 0.0
C1090 C 0.4932 0.47464 0.52065 0.0
C1091 C 0.51718 0.50828 0.51453 0.0
C1092 C 0.5548 0.51853 0.53131 0.0
C1093 C 0.56806 0.49597 0.55348 0.0
C1094 C 0.49728 0.5979 0.46861 0.0
C1095 C 0.47904 0.57724 0.44489 0.0
C1096 C 0.50945 0.57566 0.4912 0.0
C1097 C 0.50358 0.53225 0.49061 0.0
C1098 C 0.48531 0.51179 0.46677 0.0
C1099 C 0.47328 0.53397 0.44424 0.0
H1100 H 0.01744 0.58755 0.56826 0.0
H1101 H 0.12495 0.54045 0.5372 0.0
H1102 H 0.97194 0.55978 0.52904 0.0
H1103 H 0.07932 0.51145 0.4983 0.0
H1104 H 0.99062 0.50096 0.42091 0.0
H1105 H 0.03544 0.52981 0.45967 0.0
H1106 H 0.94445 0.49574 0.5076 0.0
H1107 H 0.89842 0.46783 0.46824 0.0
C1108 C 0.03142 0.57134 0.55301 0.0
C1109 C 0.0749 0.56638 0.55582 0.0
C1110 C 1.00522 0.55502 0.53062 0.0
C1111 C 0.0218 0.53301 0.51055 0.0
C1112 C 0.06541 0.52866 0.51319 0.0
C1113 C 0.09167 0.54534 0.5355 0.0
C1114 C 0.98008 0.49917 0.43969 0.0
C1115 C 0.94089 0.48171 0.44144 0.0
C1116 C 1.00604 0.51571 0.46202 0.0
C1117 C 0.99381 0.515 0.48686 0.0
C1118 C 0.95468 0.49731 0.48872 0.0
C1119 C 0.92839 0.48101 0.46622 0.0
H1120 H 0.03696 0.43026 0.31793 0.0
H1121 H 0.93193 0.49704 0.27916 0.0
H1122 H 0.07536 0.4438 0.28162 0.0
H1123 H 0.96952 0.51013 0.24336 0.0
H1124 H 0.02629 0.49407 0.1699 0.0
H1125 H 0.99389 0.47202 0.20646 0.0
H1126 H 0.10729 0.50288 0.26019 0.0
H1127 H 0.13979 0.52519 0.22336 0.0
C1128 C 0.0221 0.4478 0.30177 0.0
C1129 C 0.98126 0.46243 0.30153 0.0
C1130 C 0.04408 0.45564 0.28095 0.0
C1131 C 0.02545 0.47768 0.25923 0.0
C1132 C 0.98476 0.49238 0.25933 0.0
C1133 C 0.96322 0.48507 0.28009 0.0
C1134 C 0.0447 0.49542 0.18941 0.0
C1135 C 0.08573 0.51144 0.19359 0.0
C1136 C 0.02595 0.48308 0.2105 0.0
C1137 C 0.04767 0.48607 0.23651 0.0
C1138 C 0.08957 0.49992 0.24052 0.0
C1139 C 0.10826 0.51269 0.21935 0.0
H1140 H 0.98912 0.01862 0.31461 0.0
H1141 H 0.0987 0.96977 0.28746 0.0
H1142 H 0.97747 0.06325 0.27711 0.0
H1143 H 0.08715 1.01378 0.25007 0.0
H1144 H 0.97357 0.14982 0.20955 0.0
H1145 H 1.00183 0.12084 0.25146 0.0
H1146 H 0.03355 1.00904 0.21 0.0
H1147 H 1.0055 0.03794 0.16813 0.0
C1148 C 0.01196 0.01901 0.30148 0.0
C1149 C 0.04535 0.99115 0.30444 0.0
C1150 C 1.005 0.0442 0.27965 0.0
C1151 C 0.03095 0.04173 0.2601 0.0
C1152 C 0.06609 1.0162 0.26433 0.0
C1153 C 0.07317 0.99147 0.28612 0.0
C1154 C 0.98778 0.11953 0.20926 0.0
C1155 C 0.98709 0.09641 0.18517 0.0
C1156 C 1.00341 0.10265 0.23342 0.0
C1157 C 0.01934 0.06223 0.23436 0.0
C1158 C 0.02168 0.04033 0.21022 0.0
C1159 C 1.00578 0.0571 0.18603 0.0
H1160 H 0.52186 1.00207 0.31786 0.0
H1161 H 0.56296 0.11283 0.28582 0.0
H1162 H 0.48447 0.97951 0.27423 0.0
H1163 H 0.5259 0.09046 0.24244 0.0
H1164 H 0.51598 0.99961 0.16681 0.0
H1165 H 0.53876 0.03566 0.20972 0.0
H1166 H 0.42849 0.99141 0.23692 0.0
H1167 H 0.40573 0.95576 0.19416 0.0
C1168 C 0.52152 0.02243 0.30181 0.0
C1169 C 0.54539 0.05934 0.30548 0.0
C1170 C 0.50039 1.00934 0.27664 0.0
C1171 C 0.50273 0.03279 0.25453 0.0
C1172 C 0.52402 0.07114 0.25874 0.0
C1173 C 0.54485 0.08423 0.28379 0.0
C1174 C 0.49578 0.99896 0.18156 0.0
C1175 C 0.45889 0.97486 0.17684 0.0
C1176 C 0.509 0.01935 0.20635 0.0
C1177 C 0.48579 1.01601 0.2271 0.0
C1178 C 0.44759 0.99416 0.22172 0.0
C1179 C 0.43428 0.97413 0.19698 0.0
H1180 H 0.48639 0.53409 0.32608 0.0
H1181 H 0.3743 0.56366 0.2735 0.0
H1182 H 0.51492 0.50178 0.28874 0.0
H1183 H 0.40307 0.53234 0.23652 0.0
H1184 H 0.49735 0.53396 0.17641 0.0
H1185 H 0.46395 0.55556 0.21421 0.0
H1186 H 0.50337 0.44255 0.25128 0.0
H1187 H 0.53579 0.42046 0.21313 0.0
C1188 C 0.46721 0.53261 0.30683 0.0
C1189 C 0.42791 0.55176 0.30305 0.0
C1190 C 0.48377 0.51437 0.28531 0.0
C1191 C 0.46163 0.51512 0.25944 0.0
C1192 C 0.42137 0.53183 0.256 0.0
C1193 C 0.40468 0.54946 0.27741 0.0
C1194 C 0.49826 0.51339 0.1924 0.0
C1195 C 0.51882 0.47524 0.1915 0.0
C1196 C 0.47918 0.52578 0.21414 0.0
C1197 C 0.48092 0.50083 0.23592 0.0
C1198 C 0.50151 0.46263 0.23499 0.0
C1199 C 0.51977 0.44983 0.21297 0.0
H1200 H 0.07941 0.54108 0.71489 0.0
H1201 H 0.98093 0.62316 0.68435 0.0
H1202 H 0.04432 0.52786 0.75165 0.0
H1203 H 0.94494 0.6094 0.72177 0.0
H1204 H 0.87964 0.52393 0.77857 0.0
H1205 H 0.90935 0.54956 0.74153 0.0
H1206 H 0.02887 0.56607 0.7916 0.0
H1207 H 0.99932 0.54058 0.82836 0.0
C1208 C 0.05007 0.55638 0.71597 0.0
C1209 C 0.03314 0.58337 0.69659 0.0
C1210 C 0.03004 0.54898 0.7373 0.0
C1211 C 0.99205 0.568 0.74005 0.0
C1212 C 0.97426 0.59431 0.72033 0.0
C1213 C 0.99481 0.60221 0.69891 0.0
C1214 C 0.91195 0.53418 0.78183 0.0
C1215 C 0.9371 0.53009 0.80647 0.0
C1216 C 0.92901 0.54882 0.76055 0.0
C1217 C 0.97171 0.55932 0.76338 0.0
C1218 C 0.99605 0.55764 0.78851 0.0
C1219 C 0.979 0.54333 0.80972 0.0
H1220 H 0.02712 0.03623 0.67675 0.0
H1221 H 0.9159 0.07696 0.70591 0.0
H1222 H 0.04314 0.9915 0.71394 0.0
H1223 H 0.93204 0.03289 0.74293 0.0
H1224 H 0.01444 1.00143 0.82319 0.0
H1225 H 0.98547 0.03501 0.78307 0.0
H1226 H 0.02089 0.93045 0.7363 0.0
H1227 H 0.04977 0.89687 0.77627 0.0
C1228 C 1.00542 0.03474 0.69056 0.0
C1229 C 0.97019 0.06029 0.68817 0.0
C1230 C 0.0147 1.00927 0.71205 0.0
C1231 C 0.98915 1.00893 0.73175 0.0
C1232 C 0.95283 0.03281 0.7285 0.0
C1233 C 0.94342 0.05787 0.70703 0.0
C1234 C 0.01483 0.98488 0.80444 0.0
C1235 C 0.03496 0.94646 0.80321 0.0
C1236 C 0.99841 1.00432 0.7813 0.0
C1237 C 1.00155 0.98585 0.75629 0.0
C1238 C 0.0187 0.94606 0.75512 0.0
C1239 C 0.0348 0.92655 0.77817 0.0
H1240 H 0.48623 0.90346 0.69757 0.0
H1241 H 0.51617 0.02052 0.66788 0.0
H1242 H 0.5224 0.92587 0.7411 0.0
H1243 H 0.55349 0.04259 0.71167 0.0
H1244 H 0.63063 0.06353 0.7941 0.0
H1245 H 0.61311 0.02742 0.75078 0.0
H1246 H 0.49806 0.98349 0.77195 0.0
H1247 H 0.5145 0.02159 0.81469 0.0
C1248 C 0.50187 0.93347 0.70002 0.0
C1249 C 0.49736 0.96053 0.67917 0.0
C1250 C 0.52228 0.94641 0.72516 0.0
C1251 C 0.53991 0.98636 0.73006 0.0
C1252 C 0.53996 1.01163 0.70857 0.0
C1253 C 0.51883 0.99887 0.68336 0.0
C1254 C 0.60193 0.04553 0.78968 0.0
C1255 C 0.57374 0.04601 0.80778 0.0
C1256 C 0.59187 0.02498 0.7648 0.0
C1257 C 0.55392 1.0031 0.75771 0.0
C1258 C 0.52762 1.00004 0.77679 0.0
C1259 C 0.53727 0.02146 0.80149 0.0
H1260 H 0.53408 0.51433 0.82299 0.0
H1261 H 0.49131 0.62676 0.78638 0.0
H1262 H 0.57196 0.49669 0.78665 0.0
H1263 H 0.52851 0.60869 0.74967 0.0
H1264 H 0.54829 0.51681 0.67581 0.0
H1265 H 0.52028 0.55081 0.71258 0.0
H1266 H 0.63237 0.52192 0.76516 0.0
H1267 H 0.66077 0.48865 0.72849 0.0
C1268 C 0.53331 0.5356 0.80738 0.0
C1269 C 0.50995 0.57209 0.80772 0.0
C1270 C 0.55506 0.52554 0.78653 0.0
C1271 C 0.55337 0.5513 0.76517 0.0
C1272 C 0.53043 0.58813 0.76572 0.0
C1273 C 0.50936 0.5986 0.78686 0.0
C1274 C 0.56785 0.51929 0.69494 0.0
C1275 C 0.60687 0.49964 0.69903 0.0
C1276 C 0.55154 0.5385 0.71614 0.0
C1277 C 0.57368 0.53828 0.74197 0.0
C1278 C 0.61413 0.52195 0.74564 0.0
C1279 C 0.63062 0.50328 0.72447 0.0
loop_
_geom_bond_atom_site_label_1
_geom_bond_atom_site_label_2
_geom_bond_distance
_geom_bond_site_symmetry_2
_ccdc_geom_bond_type
Tb0 O3 2.453 . S
Tb0 O4 2.596 . S
Tb0 O5 2.374 . S
Tb0 O13 2.343 . S
Tb0 O15 2.353 . S
Tb0 O17 2.427 . S
Tb0 O18 2.513 . S
C1 O5 1.251 . S
C1 O7 1.263 . S
Tb2 O4 2.343 . S
Tb2 O7 2.353 . S
Tb2 O10 2.427 . S
Tb2 O11 2.513 . S
Tb2 O12 2.453 1_455 S
Tb2 O13 2.596 . S
Tb2 O14 2.374 . S
O3 Tb0 2.453 . S
O3 C19 1.245 . S
O4 Tb0 2.596 . S
O4 Tb2 2.343 . S
O4 C19 1.259 . S
O5 Tb0 2.374 . S
O5 C1 1.251 . S
C6 O10 1.275 . S
C6 O11 1.246 . S
O7 C1 1.263 . S
O7 Tb2 2.353 . S
C8 O12 1.245 1_455 S
C8 O13 1.259 . S
C9 O14 1.250 . S
C9 O15 1.263 . S
O10 Tb2 2.427 . S
O10 C6 1.275 . S
O11 Tb2 2.513 . S
O11 C6 1.246 . S
O12 Tb2 2.453 1_655 S
O12 C8 1.245 1_655 S
O13 Tb0 2.343 . S
O13 Tb2 2.596 . S
O13 C8 1.259 . S
O14 Tb2 2.374 . S
O14 C9 1.250 . S
O15 Tb0 2.353 . S
O15 C9 1.263 . S
C16 O17 1.275 . S
C16 O18 1.246 . S
O17 Tb0 2.427 . S
O17 C16 1.275 . S
O18 Tb0 2.513 . S
O18 C16 1.246 . S
C19 O3 1.245 . S
C19 O4 1.259 . S
Tb20 O23 2.453 . S
Tb20 O24 2.596 . S
Tb20 O25 2.374 . S
Tb20 O33 2.343 . S
Tb20 O35 2.353 . S
Tb20 O37 2.427 . S
Tb20 O38 2.513 . S
C21 O25 1.251 . S
C21 O27 1.263 . S
Tb22 O24 2.343 . S
Tb22 O27 2.353 . S
Tb22 O30 2.427 . S
Tb22 O31 2.513 . S
Tb22 O32 2.453 . S
Tb22 O33 2.596 . S
Tb22 O34 2.374 . S
O23 Tb20 2.453 . S
O23 C39 1.245 . S
O24 Tb20 2.596 . S
O24 Tb22 2.343 . S
O24 C39 1.259 . S
O25 Tb20 2.374 . S
O25 C21 1.251 . S
C26 O30 1.275 . S
C26 O31 1.246 . S
O27 C21 1.263 . S
O27 Tb22 2.353 . S
C28 O32 1.245 . S
C28 O33 1.259 . S
C29 O34 1.250 . S
C29 O35 1.263 . S
O30 Tb22 2.427 . S
O30 C26 1.275 . S
O31 Tb22 2.513 . S
O31 C26 1.246 . S
O32 Tb22 2.453 . S
O32 C28 1.245 . S
O33 Tb20 2.343 . S
O33 Tb22 2.596 . S
O33 C28 1.259 . S
O34 Tb22 2.374 . S
O34 C29 1.250 . S
O35 Tb20 2.353 . S
O35 C29 1.263 . S
C36 O37 1.275 . S
C36 O38 1.246 . S
O37 Tb20 2.427 . S
O37 C36 1.275 . S
O38 Tb20 2.513 . S
O38 C36 1.246 . S
C39 O23 1.245 . S
C39 O24 1.259 . S
Tb40 O43 2.453 . S
Tb40 O44 2.596 . S
Tb40 O45 2.374 . S
Tb40 O53 2.343 . S
Tb40 O55 2.353 . S
Tb40 O57 2.427 . S
Tb40 O58 2.513 . S
C41 O45 1.251 . S
C41 O47 1.263 . S
Tb42 O44 2.343 . S
Tb42 O47 2.353 . S
Tb42 O50 2.427 . S
Tb42 O51 2.513 . S
Tb42 O52 2.453 . S
Tb42 O53 2.596 . S
Tb42 O54 2.374 . S
O43 Tb40 2.453 . S
O43 C59 1.245 . S
O44 Tb40 2.596 . S
O44 Tb42 2.343 . S
O44 C59 1.259 . S
O45 Tb40 2.374 . S
O45 C41 1.251 . S
C46 O50 1.275 . S
C46 O51 1.246 . S
O47 C41 1.263 . S
O47 Tb42 2.353 . S
C48 O52 1.245 . S
C48 O53 1.259 . S
C49 O54 1.250 . S
C49 O55 1.263 . S
O50 Tb42 2.427 . S
O50 C46 1.275 . S
O51 Tb42 2.513 . S
O51 C46 1.246 . S
O52 Tb42 2.453 . S
O52 C48 1.245 . S
O53 Tb40 2.343 . S
O53 Tb42 2.596 . S
O53 C48 1.259 . S
O54 Tb42 2.374 . S
O54 C49 1.250 . S
O55 Tb40 2.353 . S
O55 C49 1.263 . S
C56 O57 1.275 . S
C56 O58 1.246 . S
O57 Tb40 2.427 . S
O57 C56 1.275 . S
O58 Tb40 2.513 . S
O58 C56 1.246 . S
C59 O43 1.245 . S
C59 O44 1.259 . S
Tb60 O63 2.453 . S
Tb60 O64 2.596 . S
Tb60 O65 2.374 . S
Tb60 O73 2.343 . S
Tb60 O75 2.353 . S
Tb60 O77 2.427 . S
Tb60 O78 2.513 . S
C61 O65 1.251 . S
C61 O67 1.263 . S
Tb62 O64 2.343 . S
Tb62 O67 2.353 . S
Tb62 O70 2.427 . S
Tb62 O71 2.513 . S
Tb62 O72 2.453 . S
Tb62 O73 2.596 . S
Tb62 O74 2.374 . S
O63 Tb60 2.453 . S
O63 C79 1.245 . S
O64 Tb60 2.596 . S
O64 Tb62 2.343 . S
O64 C79 1.259 . S
O65 Tb60 2.374 . S
O65 C61 1.251 . S
C66 O70 1.275 . S
C66 O71 1.246 . S
O67 C61 1.263 . S
O67 Tb62 2.353 . S
C68 O72 1.245 . S
C68 O73 1.259 . S
C69 O74 1.250 . S
C69 O75 1.263 . S
O70 Tb62 2.427 . S
O70 C66 1.275 . S
O71 Tb62 2.513 . S
O71 C66 1.246 . S
O72 Tb62 2.453 . S
O72 C68 1.245 . S
O73 Tb60 2.343 . S
O73 Tb62 2.596 . S
O73 C68 1.259 . S
O74 Tb62 2.374 . S
O74 C69 1.250 . S
O75 Tb60 2.353 . S
O75 C69 1.263 . S
C76 O77 1.275 . S
C76 O78 1.246 . S
O77 Tb60 2.427 . S
O77 C76 1.275 . S
O78 Tb60 2.513 . S
O78 C76 1.246 . S
C79 O63 1.245 . S
C79 O64 1.259 . S
Tb80 O83 2.453 1_455 S
Tb80 O84 2.596 . S
Tb80 O85 2.374 . S
Tb80 O93 2.343 . S
Tb80 O95 2.353 . S
Tb80 O97 2.427 . S
Tb80 O98 2.513 . S
C81 O85 1.251 . S
C81 O87 1.263 . S
Tb82 O84 2.343 . S
Tb82 O87 2.353 . S
Tb82 O90 2.427 . S
Tb82 O91 2.513 . S
Tb82 O92 2.453 . S
Tb82 O93 2.596 . S
Tb82 O94 2.374 . S
O83 Tb80 2.453 1_655 S
O83 C99 1.245 . S
O84 Tb80 2.596 . S
O84 Tb82 2.343 . S
O84 C99 1.259 1_455 S
O85 Tb80 2.374 . S
O85 C81 1.251 . S
C86 O90 1.275 . S
C86 O91 1.246 . S
O87 C81 1.263 . S
O87 Tb82 2.353 . S
C88 O92 1.245 . S
C88 O93 1.259 . S
C89 O94 1.250 . S
C89 O95 1.263 . S
O90 Tb82 2.427 . S
O90 C86 1.275 . S
O91 Tb82 2.513 . S
O91 C86 1.246 . S
O92 Tb82 2.453 . S
O92 C88 1.245 . S
O93 Tb80 2.343 . S
O93 Tb82 2.596 . S
O93 C88 1.259 . S
O94 Tb82 2.374 . S
O94 C89 1.250 . S
O95 Tb80 2.353 . S
O95 C89 1.263 . S
C96 O97 1.275 . S
C96 O98 1.246 . S
O97 Tb80 2.427 . S
O97 C96 1.275 . S
O98 Tb80 2.513 . S
O98 C96 1.246 . S
C99 O83 1.245 . S
C99 O84 1.259 1_655 S
Tb100 O103 2.453 . S
Tb100 O104 2.596 . S
Tb100 O105 2.374 . S
Tb100 O113 2.343 . S
Tb100 O115 2.353 . S
Tb100 O117 2.427 . S
Tb100 O118 2.513 . S
C101 O105 1.251 . S
C101 O107 1.263 . S
Tb102 O104 2.343 . S
Tb102 O107 2.353 . S
Tb102 O110 2.427 . S
Tb102 O111 2.513 . S
Tb102 O112 2.453 . S
Tb102 O113 2.596 . S
Tb102 O114 2.374 . S
O103 Tb100 2.453 . S
O103 C119 1.245 . S
O104 Tb100 2.596 . S
O104 Tb102 2.343 . S
O104 C119 1.259 . S
O105 Tb100 2.374 . S
O105 C101 1.251 . S
C106 O110 1.275 . S
C106 O111 1.246 . S
O107 C101 1.263 . S
O107 Tb102 2.353 . S
C108 O112 1.245 . S
C108 O113 1.259 . S
C109 O114 1.250 . S
C109 O115 1.263 . S
O110 Tb102 2.427 . S
O110 C106 1.275 . S
O111 Tb102 2.513 . S
O111 C106 1.246 . S
O112 Tb102 2.453 . S
O112 C108 1.245 . S
O113 Tb100 2.343 . S
O113 Tb102 2.596 . S
O113 C108 1.259 . S
O114 Tb102 2.374 . S
O114 C109 1.250 . S
O115 Tb100 2.353 . S
O115 C109 1.263 . S
C116 O117 1.275 . S
C116 O118 1.246 . S
O117 Tb100 2.427 . S
O117 C116 1.275 . S
O118 Tb100 2.513 . S
O118 C116 1.246 . S
C119 O103 1.245 . S
C119 O104 1.259 . S
Tb120 O123 2.453 . S
Tb120 O124 2.596 . S
Tb120 O125 2.374 . S
Tb120 O133 2.343 . S
Tb120 O135 2.353 . S
Tb120 O137 2.427 . S
Tb120 O138 2.513 . S
C121 O125 1.251 . S
C121 O127 1.263 . S
Tb122 O124 2.343 . S
Tb122 O127 2.353 . S
Tb122 O130 2.427 . S
Tb122 O131 2.513 . S
Tb122 O132 2.453 . S
Tb122 O133 2.596 . S
Tb122 O134 2.374 . S
O123 Tb120 2.453 . S
O123 C139 1.245 . S
O124 Tb120 2.596 . S
O124 Tb122 2.343 . S
O124 C139 1.259 . S
O125 Tb120 2.374 . S
O125 C121 1.251 . S
C126 O130 1.275 . S
C126 O131 1.246 . S
O127 C121 1.263 . S
O127 Tb122 2.353 . S
C128 O132 1.245 . S
C128 O133 1.259 . S
C129 O134 1.250 . S
C129 O135 1.263 . S
O130 Tb122 2.427 . S
O130 C126 1.275 . S
O131 Tb122 2.513 . S
O131 C126 1.246 . S
O132 Tb122 2.453 . S
O132 C128 1.245 . S
O133 Tb120 2.343 . S
O133 Tb122 2.596 . S
O133 C128 1.259 . S
O134 Tb122 2.374 . S
O134 C129 1.250 . S
O135 Tb120 2.353 . S
O135 C129 1.263 . S
C136 O137 1.275 . S
C136 O138 1.246 . S
O137 Tb120 2.427 . S
O137 C136 1.275 . S
O138 Tb120 2.513 . S
O138 C136 1.246 . S
C139 O123 1.245 . S
C139 O124 1.259 . S
Tb140 O143 2.453 . S
Tb140 O144 2.596 . S
Tb140 O145 2.374 . S
Tb140 O153 2.343 . S
Tb140 O155 2.353 . S
Tb140 O157 2.427 . S
Tb140 O158 2.513 . S
C141 O145 1.251 . S
C141 O147 1.263 . S
Tb142 O144 2.343 . S
Tb142 O147 2.353 . S
Tb142 O150 2.427 . S
Tb142 O151 2.513 . S
Tb142 O152 2.453 . S
Tb142 O153 2.596 . S
Tb142 O154 2.374 . S
O143 Tb140 2.453 . S
O143 C159 1.245 . S
O144 Tb140 2.596 . S
O144 Tb142 2.343 . S
O144 C159 1.259 . S
O145 Tb140 2.374 . S
O145 C141 1.251 . S
C146 O150 1.275 . S
C146 O151 1.246 . S
O147 C141 1.263 . S
O147 Tb142 2.353 . S
C148 O152 1.245 . S
C148 O153 1.259 . S
C149 O154 1.250 . S
C149 O155 1.263 . S
O150 Tb142 2.427 . S
O150 C146 1.275 . S
O151 Tb142 2.513 . S
O151 C146 1.246 . S
O152 Tb142 2.453 . S
O152 C148 1.245 . S
O153 Tb140 2.343 . S
O153 Tb142 2.596 . S
O153 C148 1.259 . S
O154 Tb142 2.374 . S
O154 C149 1.250 . S
O155 Tb140 2.353 . S
O155 C149 1.263 . S
C156 O157 1.275 . S
C156 O158 1.246 . S
O157 Tb140 2.427 . S
O157 C156 1.275 . S
O158 Tb140 2.513 . S
O158 C156 1.246 . S
C159 O143 1.245 . S
C159 O144 1.259 . S
Tb160 O163 2.453 1_655 S
Tb160 O164 2.596 . S
Tb160 O165 2.374 . S
Tb160 O173 2.343 . S
Tb160 O175 2.353 . S
Tb160 O177 2.427 . S
Tb160 O178 2.513 . S
C161 O165 1.251 . S
C161 O167 1.263 . S
Tb162 O164 2.343 . S
Tb162 O167 2.353 . S
Tb162 O170 2.427 . S
Tb162 O171 2.513 . S
Tb162 O172 2.453 . S
Tb162 O173 2.596 . S
Tb162 O174 2.374 . S
O163 Tb160 2.453 1_455 S
O163 C179 1.245 1_455 S
O164 Tb160 2.596 . S
O164 Tb162 2.343 . S
O164 C179 1.259 . S
O165 Tb160 2.374 . S
O165 C161 1.251 . S
C166 O170 1.275 . S
C166 O171 1.246 . S
O167 C161 1.263 . S
O167 Tb162 2.353 . S
C168 O172 1.245 . S
C168 O173 1.259 . S
C169 O174 1.250 . S
C169 O175 1.263 . S
O170 Tb162 2.427 . S
O170 C166 1.275 . S
O171 Tb162 2.513 . S
O171 C166 1.246 . S
O172 Tb162 2.453 . S
O172 C168 1.245 . S
O173 Tb160 2.343 . S
O173 Tb162 2.596 . S
O173 C168 1.259 . S
O174 Tb162 2.374 . S
O174 C169 1.250 . S
O175 Tb160 2.353 . S
O175 C169 1.263 . S
C176 O177 1.275 . S
C176 O178 1.246 . S
O177 Tb160 2.427 . S
O177 C176 1.275 . S
O178 Tb160 2.513 . S
O178 C176 1.246 . S
C179 O163 1.245 1_655 S
C179 O164 1.259 . S
Tb180 O183 2.453 . S
Tb180 O184 2.596 . S
Tb180 O185 2.374 . S
Tb180 O193 2.343 . S
Tb180 O195 2.353 . S
Tb180 O197 2.427 . S
Tb180 O198 2.513 . S
C181 O185 1.251 . S
C181 O187 1.263 . S
Tb182 O184 2.343 . S
Tb182 O187 2.353 . S
Tb182 O190 2.427 . S
Tb182 O191 2.513 . S
Tb182 O192 2.453 . S
Tb182 O193 2.596 . S
Tb182 O194 2.374 . S
O183 Tb180 2.453 . S
O183 C199 1.245 . S
O184 Tb180 2.596 . S
O184 Tb182 2.343 . S
O184 C199 1.259 . S
O185 Tb180 2.374 . S
O185 C181 1.251 . S
C186 O190 1.275 . S
C186 O191 1.246 . S
O187 C181 1.263 . S
O187 Tb182 2.353 . S
C188 O192 1.245 . S
C188 O193 1.259 . S
C189 O194 1.250 . S
C189 O195 1.263 . S
O190 Tb182 2.427 . S
O190 C186 1.275 . S
O191 Tb182 2.513 . S
O191 C186 1.246 . S
O192 Tb182 2.453 . S
O192 C188 1.245 . S
O193 Tb180 2.343 . S
O193 Tb182 2.596 . S
O193 C188 1.259 . S
O194 Tb182 2.374 . S
O194 C189 1.250 . S
O195 Tb180 2.353 . S
O195 C189 1.263 . S
C196 O197 1.275 . S
C196 O198 1.246 . S
O197 Tb180 2.427 . S
O197 C196 1.275 . S
O198 Tb180 2.513 . S
O198 C196 1.246 . S
C199 O183 1.245 . S
C199 O184 1.259 . S
Tb200 O203 2.453 . S
Tb200 O204 2.596 . S
Tb200 O205 2.374 . S
Tb200 O213 2.343 . S
Tb200 O215 2.353 . S
Tb200 O217 2.427 . S
Tb200 O218 2.513 . S
C201 O205 1.251 . S
C201 O207 1.263 . S
Tb202 O204 2.343 . S
Tb202 O207 2.353 . S
Tb202 O210 2.427 . S
Tb202 O211 2.513 . S
Tb202 O212 2.453 . S
Tb202 O213 2.596 . S
Tb202 O214 2.374 . S
O203 Tb200 2.453 . S
O203 C219 1.245 . S
O204 Tb200 2.596 . S
O204 Tb202 2.343 . S
O204 C219 1.259 . S
O205 Tb200 2.374 . S
O205 C201 1.251 . S
C206 O210 1.275 . S
C206 O211 1.246 . S
O207 C201 1.263 . S
O207 Tb202 2.353 . S
C208 O212 1.245 . S
C208 O213 1.259 . S
C209 O214 1.250 . S
C209 O215 1.263 . S
O210 Tb202 2.427 . S
O210 C206 1.275 . S
O211 Tb202 2.513 . S
O211 C206 1.246 . S
O212 Tb202 2.453 . S
O212 C208 1.245 . S
O213 Tb200 2.343 . S
O213 Tb202 2.596 . S
O213 C208 1.259 . S
O214 Tb202 2.374 . S
O214 C209 1.250 . S
O215 Tb200 2.353 . S
O215 C209 1.263 . S
C216 O217 1.275 . S
C216 O218 1.246 . S
O217 Tb200 2.427 . S
O217 C216 1.275 . S
O218 Tb200 2.513 . S
O218 C216 1.246 . S
C219 O203 1.245 . S
C219 O204 1.259 . S
Tb220 O223 2.453 . S
Tb220 O224 2.596 . S
Tb220 O225 2.374 . S
Tb220 O233 2.343 . S
Tb220 O235 2.353 . S
Tb220 O237 2.427 . S
Tb220 O238 2.513 . S
C221 O225 1.251 . S
C221 O227 1.263 . S
Tb222 O224 2.343 . S
Tb222 O227 2.353 . S
Tb222 O230 2.427 . S
Tb222 O231 2.513 . S
Tb222 O232 2.453 . S
Tb222 O233 2.596 . S
Tb222 O234 2.374 . S
O223 Tb220 2.453 . S
O223 C239 1.245 . S
O224 Tb220 2.596 . S
O224 Tb222 2.343 . S
O224 C239 1.259 . S
O225 Tb220 2.374 . S
O225 C221 1.251 . S
C226 O230 1.275 . S
C226 O231 1.246 . S
O227 C221 1.263 . S
O227 Tb222 2.353 . S
C228 O232 1.245 . S
C228 O233 1.259 . S
C229 O234 1.250 . S
C229 O235 1.263 . S
O230 Tb222 2.427 . S
O230 C226 1.275 . S
O231 Tb222 2.513 . S
O231 C226 1.246 . S
O232 Tb222 2.453 . S
O232 C228 1.245 . S
O233 Tb220 2.343 . S
O233 Tb222 2.596 . S
O233 C228 1.259 . S
O234 Tb222 2.374 . S
O234 C229 1.250 . S
O235 Tb220 2.353 . S
O235 C229 1.263 . S
C236 O237 1.275 . S
C236 O238 1.246 . S
O237 Tb220 2.427 . S
O237 C236 1.275 . S
O238 Tb220 2.513 . S
O238 C236 1.246 . S
C239 O223 1.245 . S
C239 O224 1.259 . S
Tb240 O243 2.453 . S
Tb240 O244 2.596 . S
Tb240 O245 2.374 . S
Tb240 O253 2.343 . S
Tb240 O255 2.353 . S
Tb240 O257 2.427 . S
Tb240 O258 2.513 . S
C241 O245 1.251 . S
C241 O247 1.263 . S
Tb242 O244 2.343 . S
Tb242 O247 2.353 . S
Tb242 O250 2.427 . S
Tb242 O251 2.513 . S
Tb242 O252 2.453 1_655 S
Tb242 O253 2.596 . S
Tb242 O254 2.374 . S
O243 Tb240 2.453 . S
O243 C259 1.245 . S
O244 Tb240 2.596 . S
O244 Tb242 2.343 . S
O244 C259 1.259 . S
O245 Tb240 2.374 . S
O245 C241 1.251 . S
C246 O250 1.275 . S
C246 O251 1.246 . S
O247 C241 1.263 . S
O247 Tb242 2.353 . S
C248 O252 1.245 . S
C248 O253 1.259 1_455 S
C249 O254 1.250 . S
C249 O255 1.263 . S
O250 Tb242 2.427 . S
O250 C246 1.275 . S
O251 Tb242 2.513 . S
O251 C246 1.246 . S
O252 Tb242 2.453 1_455 S
O252 C248 1.245 . S
O253 Tb240 2.343 . S
O253 Tb242 2.596 . S
O253 C248 1.259 1_655 S
O254 Tb242 2.374 . S
O254 C249 1.250 . S
O255 Tb240 2.353 . S
O255 C249 1.263 . S
C256 O257 1.275 . S
C256 O258 1.246 . S
O257 Tb240 2.427 . S
O257 C256 1.275 . S
O258 Tb240 2.513 . S
O258 C256 1.246 . S
C259 O243 1.245 . S
C259 O244 1.259 . S
Tb260 O263 2.453 . S
Tb260 O264 2.596 . S
Tb260 O265 2.374 . S
Tb260 O273 2.343 . S
Tb260 O275 2.353 . S
Tb260 O277 2.427 . S
Tb260 O278 2.513 . S
C261 O265 1.251 . S
C261 O267 1.263 . S
Tb262 O264 2.343 . S
Tb262 O267 2.353 . S
Tb262 O270 2.427 . S
Tb262 O271 2.513 . S
Tb262 O272 2.453 . S
Tb262 O273 2.596 . S
Tb262 O274 2.374 . S
O263 Tb260 2.453 . S
O263 C279 1.245 . S
O264 Tb260 2.596 . S
O264 Tb262 2.343 . S
O264 C279 1.259 . S
O265 Tb260 2.374 . S
O265 C261 1.251 . S
C266 O270 1.275 . S
C266 O271 1.246 . S
O267 C261 1.263 . S
O267 Tb262 2.353 . S
C268 O272 1.245 . S
C268 O273 1.259 . S
C269 O274 1.250 . S
C269 O275 1.263 . S
O270 Tb262 2.427 . S
O270 C266 1.275 . S
O271 Tb262 2.513 . S
O271 C266 1.246 . S
O272 Tb262 2.453 . S
O272 C268 1.245 . S
O273 Tb260 2.343 . S
O273 Tb262 2.596 . S
O273 C268 1.259 . S
O274 Tb262 2.374 . S
O274 C269 1.250 . S
O275 Tb260 2.353 . S
O275 C269 1.263 . S
C276 O277 1.275 . S
C276 O278 1.246 . S
O277 Tb260 2.427 . S
O277 C276 1.275 . S
O278 Tb260 2.513 . S
O278 C276 1.246 . S
C279 O263 1.245 . S
C279 O264 1.259 . S
Tb280 O283 2.453 . S
Tb280 O284 2.596 . S
Tb280 O285 2.374 . S
Tb280 O293 2.343 . S
Tb280 O295 2.353 . S
Tb280 O297 2.427 . S
Tb280 O298 2.513 . S
C281 O285 1.251 . S
C281 O287 1.263 . S
Tb282 O284 2.343 . S
Tb282 O287 2.353 . S
Tb282 O290 2.427 . S
Tb282 O291 2.513 . S
Tb282 O292 2.453 . S
Tb282 O293 2.596 . S
Tb282 O294 2.374 . S
O283 Tb280 2.453 . S
O283 C299 1.245 . S
O284 Tb280 2.596 . S
O284 Tb282 2.343 . S
O284 C299 1.259 . S
O285 Tb280 2.374 . S
O285 C281 1.251 . S
C286 O290 1.275 . S
C286 O291 1.246 . S
O287 C281 1.263 . S
O287 Tb282 2.353 . S
C288 O292 1.245 . S
C288 O293 1.259 . S
C289 O294 1.250 . S
C289 O295 1.263 . S
O290 Tb282 2.427 . S
O290 C286 1.275 . S
O291 Tb282 2.513 . S
O291 C286 1.246 . S
O292 Tb282 2.453 . S
O292 C288 1.245 . S
O293 Tb280 2.343 . S
O293 Tb282 2.596 . S
O293 C288 1.259 . S
O294 Tb282 2.374 . S
O294 C289 1.250 . S
O295 Tb280 2.353 . S
O295 C289 1.263 . S
C296 O297 1.275 . S
C296 O298 1.246 . S
O297 Tb280 2.427 . S
O297 C296 1.275 . S
O298 Tb280 2.513 . S
O298 C296 1.246 . S
C299 O283 1.245 . S
C299 O284 1.259 . S
Tb300 O303 2.453 . S
Tb300 O304 2.596 . S
Tb300 O305 2.374 . S
Tb300 O313 2.343 . S
Tb300 O315 2.353 . S
Tb300 O317 2.427 . S
Tb300 O318 2.513 . S
C301 O305 1.251 . S
C301 O307 1.263 . S
Tb302 O304 2.343 . S
Tb302 O307 2.353 . S
Tb302 O310 2.427 . S
Tb302 O311 2.513 . S
Tb302 O312 2.453 . S
Tb302 O313 2.596 . S
Tb302 O314 2.374 . S
O303 Tb300 2.453 . S
O303 C319 1.245 . S
O304 Tb300 2.596 . S
O304 Tb302 2.343 . S
O304 C319 1.259 . S
O305 Tb300 2.374 . S
O305 C301 1.251 . S
C306 O310 1.275 . S
C306 O311 1.246 . S
O307 C301 1.263 . S
O307 Tb302 2.353 . S
C308 O312 1.245 . S
C308 O313 1.259 . S
C309 O314 1.250 . S
C309 O315 1.263 . S
O310 Tb302 2.427 . S
O310 C306 1.275 . S
O311 Tb302 2.513 . S
O311 C306 1.246 . S
O312 Tb302 2.453 . S
O312 C308 1.245 . S
O313 Tb300 2.343 . S
O313 Tb302 2.596 . S
O313 C308 1.259 . S
O314 Tb302 2.374 . S
O314 C309 1.250 . S
O315 Tb300 2.353 . S
O315 C309 1.263 . S
C316 O317 1.275 . S
C316 O318 1.246 . S
O317 Tb300 2.427 . S
O317 C316 1.275 . S
O318 Tb300 2.513 . S
O318 C316 1.246 . S
C319 O303 1.245 . S
C319 O304 1.259 . S
H320 C328 0.950 . S
H321 C333 0.950 . S
H322 C330 0.950 . S
H323 C332 0.950 . S
H324 C334 0.950 . S
H325 C336 0.950 . S
H326 C338 0.950 . S
H327 C339 0.950 . S
C328 H320 0.950 . S
C328 C329 1.386 . S
C328 C330 1.391 . S
C329 C328 1.386 . S
C329 C333 1.393 . S
C330 H322 0.950 . S
C330 C328 1.391 . S
C330 C331 1.400 . S
C331 C330 1.400 . S
C331 C332 1.398 . S
C331 C337 1.491 . S
C332 H323 0.950 . S
C332 C331 1.398 . S
C332 C333 1.391 . S
C333 H321 0.950 . S
C333 C329 1.393 . S
C333 C332 1.391 . S
C334 H324 0.950 . S
C334 C335 1.386 . S
C334 C336 1.391 . S
C335 C334 1.386 . S
C335 C339 1.393 . S
C336 H325 0.950 . S
C336 C334 1.391 . S
C336 C337 1.400 . S
C337 C331 1.491 . S
C337 C336 1.400 . S
C337 C338 1.398 . S
C338 H326 0.950 . S
C338 C337 1.398 . S
C338 C339 1.391 . S
C339 H327 0.950 . S
C339 C335 1.393 . S
C339 C338 1.391 . S
H340 C348 0.950 . S
H341 C353 0.950 . S
H342 C350 0.950 . S
H343 C352 0.950 1_655 S
H344 C354 0.950 . S
H345 C356 0.950 . S
H346 C358 0.950 1_455 S
H347 C359 0.950 . S
C348 H340 0.950 . S
C348 C349 1.386 . S
C348 C350 1.391 . S
C349 C348 1.386 . S
C349 C353 1.393 . S
C350 H342 0.950 . S
C350 C348 1.391 . S
C350 C351 1.400 . S
C351 C350 1.400 . S
C351 C352 1.398 . S
C351 C357 1.491 1_455 S
C352 H343 0.950 1_455 S
C352 C351 1.398 . S
C352 C353 1.391 . S
C353 H341 0.950 . S
C353 C349 1.393 . S
C353 C352 1.391 . S
C354 H344 0.950 . S
C354 C355 1.386 . S
C354 C356 1.391 . S
C355 C354 1.386 . S
C355 C359 1.393 . S
C356 H345 0.950 . S
C356 C354 1.391 . S
C356 C357 1.400 . S
C357 C351 1.491 1_655 S
C357 C356 1.400 . S
C357 C358 1.398 . S
C358 H346 0.950 1_655 S
C358 C357 1.398 . S
C358 C359 1.391 . S
C359 H347 0.950 . S
C359 C355 1.393 . S
C359 C358 1.391 . S
H360 C368 0.950 . S
H361 C373 0.950 . S
H362 C370 0.950 . S
H363 C372 0.950 . S
H364 C374 0.950 . S
H365 C376 0.950 . S
H366 C378 0.950 1_565 S
H367 C379 0.950 . S
C368 H360 0.950 . S
C368 C369 1.386 . S
C368 C370 1.391 . S
C369 C368 1.386 . S
C369 C373 1.393 1_565 S
C370 H362 0.950 . S
C370 C368 1.391 . S
C370 C371 1.400 1_565 S
C371 C370 1.400 1_545 S
C371 C372 1.398 . S
C371 C377 1.491 . S
C372 H363 0.950 . S
C372 C371 1.398 . S
C372 C373 1.391 . S
C373 H361 0.950 . S
C373 C369 1.393 1_545 S
C373 C372 1.391 . S
C374 H364 0.950 . S
C374 C375 1.386 . S
C374 C376 1.391 . S
C375 C374 1.386 . S
C375 C379 1.393 . S
C376 H365 0.950 . S
C376 C374 1.391 . S
C376 C377 1.400 . S
C377 C371 1.491 . S
C377 C376 1.400 . S
C377 C378 1.398 . S
C378 H366 0.950 1_545 S
C378 C377 1.398 . S
C378 C379 1.391 . S
C379 H367 0.950 . S
C379 C375 1.393 . S
C379 C378 1.391 . S
H380 C388 0.950 . S
H381 C393 0.950 . S
H382 C390 0.950 . S
H383 C392 0.950 . S
H384 C394 0.950 . S
H385 C396 0.950 . S
H386 C398 0.950 . S
H387 C399 0.950 . S
C388 H380 0.950 . S
C388 C389 1.386 . S
C388 C390 1.391 . S
C389 C388 1.386 . S
C389 C393 1.393 . S
C390 H382 0.950 . S
C390 C388 1.391 . S
C390 C391 1.400 . S
C391 C390 1.400 . S
C391 C392 1.398 . S
C391 C397 1.491 . S
C392 H383 0.950 . S
C392 C391 1.398 . S
C392 C393 1.391 . S
C393 H381 0.950 . S
C393 C389 1.393 . S
C393 C392 1.391 . S
C394 H384 0.950 . S
C394 C395 1.386 . S
C394 C396 1.391 . S
C395 C394 1.386 . S
C395 C399 1.393 . S
C396 H385 0.950 . S
C396 C394 1.391 . S
C396 C397 1.400 . S
C397 C391 1.491 . S
C397 C396 1.400 . S
C397 C398 1.398 . S
C398 H386 0.950 . S
C398 C397 1.398 . S
C398 C399 1.391 . S
C399 H387 0.950 . S
C399 C395 1.393 . S
C399 C398 1.391 . S
H400 C408 0.950 . S
H401 C413 0.950 . S
H402 C410 0.950 . S
H403 C412 0.950 . S
H404 C414 0.950 . S
H405 C416 0.950 . S
H406 C418 0.950 . S
H407 C419 0.950 . S
C408 H400 0.950 . S
C408 C409 1.386 1_545 S
C408 C410 1.391 . S
C409 C408 1.386 1_565 S
C409 C413 1.393 . S
C410 H402 0.950 . S
C410 C408 1.391 . S
C410 C411 1.400 1_545 S
C411 C410 1.400 1_565 S
C411 C412 1.398 . S
C411 C417 1.491 1_565 S
C412 H403 0.950 . S
C412 C411 1.398 . S
C412 C413 1.391 . S
C413 H401 0.950 . S
C413 C409 1.393 . S
C413 C412 1.391 . S
C414 H404 0.950 . S
C414 C415 1.386 . S
C414 C416 1.391 1_545 S
C415 C414 1.386 . S
C415 C419 1.393 . S
C416 H405 0.950 . S
C416 C414 1.391 1_565 S
C416 C417 1.400 1_565 S
C417 C411 1.491 1_545 S
C417 C416 1.400 1_545 S
C417 C418 1.398 . S
C418 H406 0.950 . S
C418 C417 1.398 . S
C418 C419 1.391 . S
C419 H407 0.950 . S
C419 C415 1.393 . S
C419 C418 1.391 . S
H420 C428 0.950 . S
H421 C433 0.950 . S
H422 C430 0.950 . S
H423 C432 0.950 . S
H424 C434 0.950 . S
H425 C436 0.950 . S
H426 C438 0.950 . S
H427 C439 0.950 . S
C428 H420 0.950 . S
C428 C429 1.386 . S
C428 C430 1.391 . S
C429 C428 1.386 . S
C429 C433 1.393 . S
C430 H422 0.950 . S
C430 C428 1.391 . S
C430 C431 1.400 . S
C431 C430 1.400 . S
C431 C432 1.398 . S
C431 C437 1.491 . S
C432 H423 0.950 . S
C432 C431 1.398 . S
C432 C433 1.391 . S
C433 H421 0.950 . S
C433 C429 1.393 . S
C433 C432 1.391 . S
C434 H424 0.950 . S
C434 C435 1.386 . S
C434 C436 1.391 . S
C435 C434 1.386 . S
C435 C439 1.393 . S
C436 H425 0.950 . S
C436 C434 1.391 . S
C436 C437 1.400 . S
C437 C431 1.491 . S
C437 C436 1.400 . S
C437 C438 1.398 . S
C438 H426 0.950 . S
C438 C437 1.398 . S
C438 C439 1.391 . S
C439 H427 0.950 . S
C439 C435 1.393 . S
C439 C438 1.391 . S
H440 C448 0.950 . S
H441 C453 0.950 . S
H442 C450 0.950 . S
H443 C452 0.950 . S
H444 C454 0.950 . S
H445 C456 0.950 . S
H446 C458 0.950 . S
H447 C459 0.950 . S
C448 H440 0.950 . S
C448 C449 1.386 . S
C448 C450 1.391 . S
C449 C448 1.386 . S
C449 C453 1.393 . S
C450 H442 0.950 . S
C450 C448 1.391 . S
C450 C451 1.400 . S
C451 C450 1.400 . S
C451 C452 1.398 . S
C451 C457 1.491 . S
C452 H443 0.950 . S
C452 C451 1.398 . S
C452 C453 1.391 . S
C453 H441 0.950 . S
C453 C449 1.393 . S
C453 C452 1.391 . S
C454 H444 0.950 . S
C454 C455 1.386 . S
C454 C456 1.391 . S
C455 C454 1.386 . S
C455 C459 1.393 . S
C456 H445 0.950 . S
C456 C454 1.391 . S
C456 C457 1.400 . S
C457 C451 1.491 . S
C457 C456 1.400 . S
C457 C458 1.398 . S
C458 H446 0.950 . S
C458 C457 1.398 . S
C458 C459 1.391 . S
C459 H447 0.950 . S
C459 C455 1.393 . S
C459 C458 1.391 . S
H460 C468 0.950 . S
H461 C473 0.950 . S
H462 C470 0.950 1_655 S
H463 C472 0.950 . S
H464 C474 0.950 . S
H465 C476 0.950 . S
H466 C478 0.950 . S
H467 C479 0.950 . S
C468 H460 0.950 . S
C468 C469 1.386 . S
C468 C470 1.391 . S
C469 C468 1.386 . S
C469 C473 1.393 . S
C470 H462 0.950 1_455 S
C470 C468 1.391 . S
C470 C471 1.400 . S
C471 C470 1.400 . S
C471 C472 1.398 . S
C471 C477 1.491 1_455 S
C472 H463 0.950 . S
C472 C471 1.398 . S
C472 C473 1.391 . S
C473 H461 0.950 . S
C473 C469 1.393 . S
C473 C472 1.391 . S
C474 H464 0.950 . S
C474 C475 1.386 . S
C474 C476 1.391 . S
C475 C474 1.386 . S
C475 C479 1.393 . S
C476 H465 0.950 . S
C476 C474 1.391 . S
C476 C477 1.400 . S
C477 C471 1.491 1_655 S
C477 C476 1.400 . S
C477 C478 1.398 . S
C478 H466 0.950 . S
C478 C477 1.398 . S
C478 C479 1.391 . S
C479 H467 0.950 . S
C479 C475 1.393 . S
C479 C478 1.391 . S
H480 C488 0.950 . S
H481 C493 0.950 . S
H482 C490 0.950 . S
H483 C492 0.950 . S
H484 C494 0.950 . S
H485 C496 0.950 . S
H486 C498 0.950 . S
H487 C499 0.950 . S
C488 H480 0.950 . S
C488 C489 1.386 . S
C488 C490 1.391 . S
C489 C488 1.386 . S
C489 C493 1.393 . S
C490 H482 0.950 . S
C490 C488 1.391 . S
C490 C491 1.400 . S
C491 C490 1.400 . S
C491 C492 1.398 . S
C491 C497 1.491 . S
C492 H483 0.950 . S
C492 C491 1.398 . S
C492 C493 1.391 . S
C493 H481 0.950 . S
C493 C489 1.393 . S
C493 C492 1.391 . S
C494 H484 0.950 . S
C494 C495 1.386 . S
C494 C496 1.391 . S
C495 C494 1.386 . S
C495 C499 1.393 . S
C496 H485 0.950 . S
C496 C494 1.391 . S
C496 C497 1.400 . S
C497 C491 1.491 . S
C497 C496 1.400 . S
C497 C498 1.398 . S
C498 H486 0.950 . S
C498 C497 1.398 . S
C498 C499 1.391 . S
C499 H487 0.950 . S
C499 C495 1.393 . S
C499 C498 1.391 . S
H500 C508 0.950 . S
H501 C513 0.950 . S
H502 C510 0.962 . S
H503 C512 0.950 . S
H504 C514 0.950 1_655 S
H505 C516 0.950 . S
H506 C518 0.950 . S
H507 C519 0.950 . S
C508 H500 0.950 . S
C508 C509 1.386 . S
C508 C510 1.384 1_655 S
C509 C508 1.386 . S
C509 C513 1.393 . S
C510 H502 0.962 . S
C510 C508 1.384 1_455 S
C510 C511 1.396 1_455 S
C511 C510 1.396 1_655 S
C511 C512 1.398 . S
C511 C517 1.491 1_655 S
C512 H503 0.950 . S
C512 C511 1.398 . S
C512 C513 1.391 . S
C513 H501 0.950 . S
C513 C509 1.393 . S
C513 C512 1.391 . S
C514 H504 0.950 1_455 S
C514 C515 1.386 . S
C514 C516 1.391 1_455 S
C515 C514 1.386 . S
C515 C519 1.393 . S
C516 H505 0.950 . S
C516 C514 1.391 1_655 S
C516 C517 1.400 1_655 S
C517 C511 1.491 1_455 S
C517 C516 1.400 1_455 S
C517 C518 1.398 . S
C518 H506 0.950 . S
C518 C517 1.398 . S
C518 C519 1.391 . S
C519 H507 0.950 . S
C519 C515 1.393 . S
C519 C518 1.391 . S
H520 C528 0.950 . S
H521 C533 0.950 . S
H522 C530 0.950 1_545 S
H523 C532 0.950 . S
H524 C534 0.950 . S
H525 C536 0.950 . S
H526 C538 0.950 . S
H527 C539 0.950 . S
C528 H520 0.950 . S
C528 C529 1.386 . S
C528 C530 1.391 . S
C529 C528 1.386 . S
C529 C533 1.393 . S
C530 H522 0.950 1_565 S
C530 C528 1.391 . S
C530 C531 1.400 . S
C531 C530 1.400 . S
C531 C532 1.398 . S
C531 C537 1.491 . S
C532 H523 0.950 . S
C532 C531 1.398 . S
C532 C533 1.391 . S
C533 H521 0.950 . S
C533 C529 1.393 . S
C533 C532 1.391 . S
C534 H524 0.950 . S
C534 C535 1.386 1_565 S
C534 C536 1.391 . S
C535 C534 1.386 1_545 S
C535 C539 1.393 . S
C536 H525 0.950 . S
C536 C534 1.391 . S
C536 C537 1.400 . S
C537 C531 1.491 . S
C537 C536 1.400 . S
C537 C538 1.398 1_565 S
C538 H526 0.950 . S
C538 C537 1.398 1_545 S
C538 C539 1.391 . S
C539 H527 0.950 . S
C539 C535 1.393 . S
C539 C538 1.391 . S
H540 C548 0.950 . S
H541 C553 0.950 . S
H542 C550 0.950 . S
H543 C552 0.950 . S
H544 C554 0.950 . S
H545 C556 0.950 . S
H546 C558 0.950 . S
H547 C559 0.950 . S
C548 H540 0.950 . S
C548 C549 1.386 . S
C548 C550 1.391 . S
C549 C548 1.386 . S
C549 C553 1.393 . S
C550 H542 0.950 . S
C550 C548 1.391 . S
C550 C551 1.400 . S
C551 C550 1.400 . S
C551 C552 1.398 . S
C551 C557 1.491 . S
C552 H543 0.950 . S
C552 C551 1.398 . S
C552 C553 1.391 . S
C553 H541 0.950 . S
C553 C549 1.393 . S
C553 C552 1.391 . S
C554 H544 0.950 . S
C554 C555 1.386 . S
C554 C556 1.391 . S
C555 C554 1.386 . S
C555 C559 1.393 . S
C556 H545 0.950 . S
C556 C554 1.391 . S
C556 C557 1.400 . S
C557 C551 1.491 . S
C557 C556 1.400 . S
C557 C558 1.398 . S
C558 H546 0.950 . S
C558 C557 1.398 . S
C558 C559 1.391 . S
C559 H547 0.950 . S
C559 C555 1.393 . S
C559 C558 1.391 . S
H560 C568 0.950 . S
H561 C573 0.960 . S
H562 C570 0.950 . S
H563 C572 0.950 . S
H564 C574 0.950 . S
H565 C576 0.950 . S
H566 C578 0.950 1_545 S
H567 C579 0.950 . S
C568 H560 0.950 . S
C568 C569 1.386 . S
C568 C570 1.391 . S
C569 C568 1.386 . S
C569 C573 1.393 . S
C570 H562 0.950 . S
C570 C568 1.391 . S
C570 C571 1.400 . S
C571 C570 1.400 . S
C571 C572 1.398 1_545 S
C571 C577 1.491 1_545 S
C572 H563 0.950 . S
C572 C571 1.398 1_565 S
C572 C573 1.391 1_565 S
C573 H561 0.960 . S
C573 C569 1.393 . S
C573 C572 1.391 1_545 S
C574 H564 0.950 . S
C574 C575 1.386 . S
C574 C576 1.391 . S
C575 C574 1.386 . S
C575 C579 1.393 . S
C576 H565 0.950 . S
C576 C574 1.391 . S
C576 C577 1.400 . S
C577 C571 1.491 1_565 S
C577 C576 1.400 . S
C577 C578 1.398 . S
C578 H566 0.950 1_565 S
C578 C577 1.398 . S
C578 C579 1.391 . S
C579 H567 0.950 . S
C579 C575 1.393 . S
C579 C578 1.391 . S
H580 C588 0.950 . S
H581 C593 0.950 . S
H582 C590 0.950 . S
H583 C592 0.950 . S
H584 C594 0.950 . S
H585 C596 0.950 . S
H586 C598 0.950 . S
H587 C599 0.950 . S
C588 H580 0.950 . S
C588 C589 1.386 . S
C588 C590 1.391 . S
C589 C588 1.386 . S
C589 C593 1.393 . S
C590 H582 0.950 . S
C590 C588 1.391 . S
C590 C591 1.400 . S
C591 C590 1.400 . S
C591 C592 1.398 . S
C591 C597 1.491 . S
C592 H583 0.950 . S
C592 C591 1.398 . S
C592 C593 1.391 . S
C593 H581 0.950 . S
C593 C589 1.393 . S
C593 C592 1.391 . S
C594 H584 0.950 . S
C594 C595 1.386 . S
C594 C596 1.391 . S
C595 C594 1.386 . S
C595 C599 1.393 . S
C596 H585 0.950 . S
C596 C594 1.391 . S
C596 C597 1.400 . S
C597 C591 1.491 . S
C597 C596 1.400 . S
C597 C598 1.398 . S
C598 H586 0.950 . S
C598 C597 1.398 . S
C598 C599 1.391 . S
C599 H587 0.950 . S
C599 C595 1.393 . S
C599 C598 1.391 . S
H600 C608 0.950 . S
H601 C613 0.950 . S
H602 C610 0.950 . S
H603 C612 0.950 . S
H604 C614 0.950 . S
H605 C616 0.950 . S
H606 C618 0.950 . S
H607 C619 0.950 . S
C608 H600 0.950 . S
C608 C609 1.386 . S
C608 C610 1.391 . S
C609 C608 1.386 . S
C609 C613 1.393 . S
C610 H602 0.950 . S
C610 C608 1.391 . S
C610 C611 1.400 . S
C611 C610 1.400 . S
C611 C612 1.398 . S
C611 C617 1.491 . S
C612 H603 0.950 . S
C612 C611 1.398 . S
C612 C613 1.391 . S
C613 H601 0.950 . S
C613 C609 1.393 . S
C613 C612 1.391 . S
C614 H604 0.950 . S
C614 C615 1.386 . S
C614 C616 1.391 . S
C615 C614 1.386 . S
C615 C619 1.393 . S
C616 H605 0.950 . S
C616 C614 1.391 . S
C616 C617 1.400 . S
C617 C611 1.491 . S
C617 C616 1.400 . S
C617 C618 1.398 . S
C618 H606 0.950 . S
C618 C617 1.398 . S
C618 C619 1.391 . S
C619 H607 0.950 . S
C619 C615 1.393 . S
C619 C618 1.391 . S
H620 C628 0.950 . S
H621 C633 0.950 . S
H622 C630 0.950 1_655 S
H623 C632 0.950 . S
H624 C634 0.948 . S
H625 C636 0.950 . S
H626 C638 0.950 . S
H627 C639 0.950 . S
C628 H620 0.950 . S
C628 C629 1.386 . S
C628 C630 1.391 . S
C629 C628 1.386 . S
C629 C633 1.393 . S
C630 H622 0.950 1_455 S
C630 C628 1.391 . S
C630 C631 1.400 . S
C631 C630 1.400 . S
C631 C632 1.398 . S
C631 C637 1.485 1_455 S
C632 H623 0.950 . S
C632 C631 1.398 . S
C632 C633 1.391 . S
C633 H621 0.950 . S
C633 C629 1.393 . S
C633 C632 1.391 . S
C634 H624 0.948 . S
C634 C635 1.386 . S
C634 C636 1.391 1_655 S
C635 C634 1.386 . S
C635 C639 1.393 . S
C636 H625 0.950 . S
C636 C634 1.391 1_455 S
C636 C637 1.395 1_455 S
C637 C631 1.485 1_655 S
C637 C636 1.395 1_655 S
C637 C638 1.409 . S
C638 H626 0.950 . S
C638 C637 1.409 . S
C638 C639 1.391 . S
C639 H627 0.950 . S
C639 C635 1.393 . S
C639 C638 1.391 . S
H640 C648 0.950 . S
H641 C653 0.950 . S
H642 C650 0.950 . S
H643 C652 0.950 . S
H644 C654 0.950 . S
H645 C656 0.950 . S
H646 C658 0.950 . S
H647 C659 0.950 . S
C648 H640 0.950 . S
C648 C649 1.386 . S
C648 C650 1.391 . S
C649 C648 1.386 . S
C649 C653 1.393 . S
C650 H642 0.950 . S
C650 C648 1.391 . S
C650 C651 1.400 . S
C651 C650 1.400 . S
C651 C652 1.398 . S
C651 C657 1.491 . S
C652 H643 0.950 . S
C652 C651 1.398 . S
C652 C653 1.391 . S
C653 H641 0.950 . S
C653 C649 1.393 . S
C653 C652 1.391 . S
C654 H644 0.950 . S
C654 C655 1.386 . S
C654 C656 1.391 . S
C655 C654 1.386 . S
C655 C659 1.393 . S
C656 H645 0.950 . S
C656 C654 1.391 . S
C656 C657 1.400 . S
C657 C651 1.491 . S
C657 C656 1.400 . S
C657 C658 1.398 . S
C658 H646 0.950 . S
C658 C657 1.398 . S
C658 C659 1.391 . S
C659 H647 0.950 . S
C659 C655 1.393 . S
C659 C658 1.391 . S
H660 C668 0.950 . S
H661 C673 0.950 . S
H662 C670 0.950 . S
H663 C672 0.950 . S
H664 C674 0.950 . S
H665 C676 0.950 . S
H666 C678 0.950 . S
H667 C679 0.950 . S
C668 H660 0.950 . S
C668 C669 1.386 . S
C668 C670 1.391 . S
C669 C668 1.386 . S
C669 C673 1.393 . S
C670 H662 0.950 . S
C670 C668 1.391 . S
C670 C671 1.400 . S
C671 C670 1.400 . S
C671 C672 1.398 . S
C671 C677 1.491 . S
C672 H663 0.950 . S
C672 C671 1.398 . S
C672 C673 1.391 . S
C673 H661 0.950 . S
C673 C669 1.393 . S
C673 C672 1.391 . S
C674 H664 0.950 . S
C674 C675 1.386 . S
C674 C676 1.391 . S
C675 C674 1.386 . S
C675 C679 1.393 . S
C676 H665 0.950 . S
C676 C674 1.391 . S
C676 C677 1.400 . S
C677 C671 1.491 . S
C677 C676 1.400 . S
C677 C678 1.398 . S
C678 H666 0.950 . S
C678 C677 1.398 . S
C678 C679 1.391 . S
C679 H667 0.950 . S
C679 C675 1.393 . S
C679 C678 1.391 . S
H680 C688 0.950 . S
H681 C693 0.950 . S
H682 C690 0.950 . S
H683 C692 0.950 . S
H684 C694 0.950 . S
H685 C696 0.950 . S
H686 C698 0.950 . S
H687 C699 0.950 . S
C688 H680 0.950 . S
C688 C689 1.386 . S
C688 C690 1.391 . S
C689 C688 1.386 . S
C689 C693 1.393 . S
C690 H682 0.950 . S
C690 C688 1.391 . S
C690 C691 1.400 . S
C691 C690 1.400 . S
C691 C692 1.398 . S
C691 C697 1.491 . S
C692 H683 0.950 . S
C692 C691 1.398 . S
C692 C693 1.391 . S
C693 H681 0.950 . S
C693 C689 1.393 . S
C693 C692 1.391 . S
C694 H684 0.950 . S
C694 C695 1.386 . S
C694 C696 1.391 . S
C695 C694 1.386 . S
C695 C699 1.393 . S
C696 H685 0.950 . S
C696 C694 1.391 . S
C696 C697 1.400 . S
C697 C691 1.491 . S
C697 C696 1.400 . S
C697 C698 1.398 . S
C698 H686 0.950 . S
C698 C697 1.398 . S
C698 C699 1.391 . S
C699 H687 0.950 . S
C699 C695 1.393 . S
C699 C698 1.391 . S
H700 C708 0.950 . S
H701 C713 0.950 . S
H702 C710 0.950 . S
H703 C712 0.950 . S
H704 C714 0.950 . S
H705 C716 0.950 . S
H706 C718 0.950 . S
H707 C719 0.950 . S
C708 H700 0.950 . S
C708 C709 1.386 . S
C708 C710 1.391 . S
C709 C708 1.386 . S
C709 C713 1.393 . S
C710 H702 0.950 . S
C710 C708 1.391 . S
C710 C711 1.400 . S
C711 C710 1.400 . S
C711 C712 1.398 . S
C711 C717 1.491 . S
C712 H703 0.950 . S
C712 C711 1.398 . S
C712 C713 1.391 . S
C713 H701 0.950 . S
C713 C709 1.393 . S
C713 C712 1.391 . S
C714 H704 0.950 . S
C714 C715 1.386 . S
C714 C716 1.391 . S
C715 C714 1.386 . S
C715 C719 1.393 . S
C716 H705 0.950 . S
C716 C714 1.391 . S
C716 C717 1.400 . S
C717 C711 1.491 . S
C717 C716 1.400 . S
C717 C718 1.398 . S
C718 H706 0.950 . S
C718 C717 1.398 . S
C718 C719 1.391 . S
C719 H707 0.950 . S
C719 C715 1.393 . S
C719 C718 1.391 . S
H720 C728 0.950 . S
H721 C733 0.950 . S
H722 C730 0.950 . S
H723 C732 0.950 . S
H724 C734 0.950 . S
H725 C736 0.950 . S
H726 C738 0.950 . S
H727 C739 0.950 . S
C728 H720 0.950 . S
C728 C729 1.386 . S
C728 C730 1.391 . S
C729 C728 1.386 . S
C729 C733 1.393 . S
C730 H722 0.950 . S
C730 C728 1.391 . S
C730 C731 1.400 . S
C731 C730 1.400 . S
C731 C732 1.398 . S
C731 C737 1.491 . S
C732 H723 0.950 . S
C732 C731 1.398 . S
C732 C733 1.391 . S
C733 H721 0.950 . S
C733 C729 1.393 . S
C733 C732 1.391 . S
C734 H724 0.950 . S
C734 C735 1.386 . S
C734 C736 1.391 . S
C735 C734 1.386 . S
C735 C739 1.393 . S
C736 H725 0.950 . S
C736 C734 1.391 . S
C736 C737 1.400 . S
C737 C731 1.491 . S
C737 C736 1.400 . S
C737 C738 1.398 . S
C738 H726 0.950 . S
C738 C737 1.398 . S
C738 C739 1.391 . S
C739 H727 0.950 . S
C739 C735 1.393 . S
C739 C738 1.391 . S
H740 C748 0.950 . S
H741 C753 0.950 . S
H742 C750 0.950 . S
H743 C752 0.950 . S
H744 C754 0.950 . S
H745 C756 0.950 . S
H746 C758 0.950 . S
H747 C759 0.950 . S
C748 H740 0.950 . S
C748 C749 1.386 . S
C748 C750 1.391 . S
C749 C748 1.386 . S
C749 C753 1.393 . S
C750 H742 0.950 . S
C750 C748 1.391 . S
C750 C751 1.400 . S
C751 C750 1.400 . S
C751 C752 1.398 . S
C751 C757 1.491 . S
C752 H743 0.950 . S
C752 C751 1.398 . S
C752 C753 1.391 . S
C753 H741 0.950 . S
C753 C749 1.393 . S
C753 C752 1.391 . S
C754 H744 0.950 . S
C754 C755 1.386 . S
C754 C756 1.391 . S
C755 C754 1.386 . S
C755 C759 1.393 . S
C756 H745 0.950 . S
C756 C754 1.391 . S
C756 C757 1.400 . S
C757 C751 1.491 . S
C757 C756 1.400 . S
C757 C758 1.398 . S
C758 H746 0.950 . S
C758 C757 1.398 . S
C758 C759 1.391 . S
C759 H747 0.950 . S
C759 C755 1.393 . S
C759 C758 1.391 . S
H760 C768 0.950 . S
H761 C773 0.950 . S
H762 C770 0.950 . S
H763 C772 0.950 . S
H764 C774 0.950 . S
H765 C776 0.950 . S
H766 C778 0.950 . S
H767 C779 0.950 . S
C768 H760 0.950 . S
C768 C769 1.386 . S
C768 C770 1.391 . S
C769 C768 1.386 . S
C769 C773 1.393 . S
C770 H762 0.950 . S
C770 C768 1.391 . S
C770 C771 1.400 . S
C771 C770 1.400 . S
C771 C772 1.398 . S
C771 C777 1.491 . S
C772 H763 0.950 . S
C772 C771 1.398 . S
C772 C773 1.391 . S
C773 H761 0.950 . S
C773 C769 1.393 . S
C773 C772 1.391 . S
C774 H764 0.950 . S
C774 C775 1.386 . S
C774 C776 1.391 . S
C775 C774 1.386 . S
C775 C779 1.393 . S
C776 H765 0.950 . S
C776 C774 1.391 . S
C776 C777 1.400 . S
C777 C771 1.491 . S
C777 C776 1.400 . S
C777 C778 1.398 . S
C778 H766 0.950 . S
C778 C777 1.398 . S
C778 C779 1.391 . S
C779 H767 0.950 . S
C779 C775 1.393 . S
C779 C778 1.391 . S
H780 C788 0.950 . S
H781 C793 0.950 . S
H782 C790 0.950 . S
H783 C792 0.950 . S
H784 C794 0.950 . S
H785 C796 0.950 . S
H786 C798 0.950 . S
H787 C799 0.950 . S
C788 H780 0.950 . S
C788 C789 1.386 . S
C788 C790 1.391 . S
C789 C788 1.386 . S
C789 C793 1.393 . S
C790 H782 0.950 . S
C790 C788 1.391 . S
C790 C791 1.400 . S
C791 C790 1.400 . S
C791 C792 1.398 . S
C791 C797 1.491 . S
C792 H783 0.950 . S
C792 C791 1.398 . S
C792 C793 1.391 . S
C793 H781 0.950 . S
C793 C789 1.393 . S
C793 C792 1.391 . S
C794 H784 0.950 . S
C794 C795 1.386 . S
C794 C796 1.391 . S
C795 C794 1.386 . S
C795 C799 1.393 . S
C796 H785 0.950 . S
C796 C794 1.391 . S
C796 C797 1.400 . S
C797 C791 1.491 . S
C797 C796 1.400 . S
C797 C798 1.398 . S
C798 H786 0.950 . S
C798 C797 1.398 . S
C798 C799 1.391 . S
C799 H787 0.950 . S
C799 C795 1.393 . S
C799 C798 1.391 . S
H800 C808 0.950 . S
H801 C813 0.950 . S
H802 C810 0.950 . S
H803 C812 0.950 . S
H804 C814 0.950 . S
H805 C816 0.950 . S
H806 C818 0.950 . S
H807 C819 0.950 . S
C808 H800 0.950 . S
C808 C809 1.386 . S
C808 C810 1.391 . S
C809 C808 1.386 . S
C809 C813 1.393 . S
C810 H802 0.950 . S
C810 C808 1.391 . S
C810 C811 1.400 . S
C811 C810 1.400 . S
C811 C812 1.398 . S
C811 C817 1.491 . S
C812 H803 0.950 . S
C812 C811 1.398 . S
C812 C813 1.391 . S
C813 H801 0.950 . S
C813 C809 1.393 . S
C813 C812 1.391 . S
C814 H804 0.950 . S
C814 C815 1.386 . S
C814 C816 1.391 . S
C815 C814 1.386 . S
C815 C819 1.393 . S
C816 H805 0.950 . S
C816 C814 1.391 . S
C816 C817 1.400 . S
C817 C811 1.491 . S
C817 C816 1.400 . S
C817 C818 1.398 . S
C818 H806 0.950 . S
C818 C817 1.398 . S
C818 C819 1.391 . S
C819 H807 0.950 . S
C819 C815 1.393 . S
C819 C818 1.391 . S
H820 C828 0.950 . S
H821 C833 0.950 . S
H822 C830 0.950 . S
H823 C832 0.950 . S
H824 C834 0.950 . S
H825 C836 0.950 . S
H826 C838 0.950 . S
H827 C839 0.950 . S
C828 H820 0.950 . S
C828 C829 1.386 . S
C828 C830 1.391 . S
C829 C828 1.386 . S
C829 C833 1.393 . S
C830 H822 0.950 . S
C830 C828 1.391 . S
C830 C831 1.400 . S
C831 C830 1.400 . S
C831 C832 1.398 . S
C831 C837 1.491 . S
C832 H823 0.950 . S
C832 C831 1.398 . S
C832 C833 1.391 . S
C833 H821 0.950 . S
C833 C829 1.393 . S
C833 C832 1.391 . S
C834 H824 0.950 . S
C834 C835 1.386 . S
C834 C836 1.391 . S
C835 C834 1.386 . S
C835 C839 1.393 . S
C836 H825 0.950 . S
C836 C834 1.391 . S
C836 C837 1.400 . S
C837 C831 1.491 . S
C837 C836 1.400 . S
C837 C838 1.398 . S
C838 H826 0.950 . S
C838 C837 1.398 . S
C838 C839 1.391 . S
C839 H827 0.950 . S
C839 C835 1.393 . S
C839 C838 1.391 . S
H840 C848 0.950 . S
H841 C853 0.950 . S
H842 C850 0.950 . S
H843 C852 0.950 . S
H844 C854 0.950 . S
H845 C856 0.950 . S
H846 C858 0.950 . S
H847 C859 0.950 . S
C848 H840 0.950 . S
C848 C849 1.386 . S
C848 C850 1.391 . S
C849 C848 1.386 . S
C849 C853 1.393 . S
C850 H842 0.950 . S
C850 C848 1.391 . S
C850 C851 1.400 . S
C851 C850 1.400 . S
C851 C852 1.398 . S
C851 C857 1.491 . S
C852 H843 0.950 . S
C852 C851 1.398 . S
C852 C853 1.391 . S
C853 H841 0.950 . S
C853 C849 1.393 . S
C853 C852 1.391 . S
C854 H844 0.950 . S
C854 C855 1.386 . S
C854 C856 1.391 . S
C855 C854 1.386 . S
C855 C859 1.393 . S
C856 H845 0.950 . S
C856 C854 1.391 . S
C856 C857 1.400 . S
C857 C851 1.491 . S
C857 C856 1.400 . S
C857 C858 1.398 . S
C858 H846 0.950 . S
C858 C857 1.398 . S
C858 C859 1.391 . S
C859 H847 0.950 . S
C859 C855 1.393 . S
C859 C858 1.391 . S
H860 C868 0.950 . S
H861 C873 0.950 . S
H862 C870 0.950 . S
H863 C872 0.950 . S
H864 C874 0.950 . S
H865 C876 0.950 . S
H866 C878 0.950 . S
H867 C879 0.950 . S
C868 H860 0.950 . S
C868 C869 1.386 . S
C868 C870 1.391 . S
C869 C868 1.386 . S
C869 C873 1.393 . S
C870 H862 0.950 . S
C870 C868 1.391 . S
C870 C871 1.400 . S
C871 C870 1.400 . S
C871 C872 1.398 . S
C871 C877 1.491 . S
C872 H863 0.950 . S
C872 C871 1.398 . S
C872 C873 1.391 . S
C873 H861 0.950 . S
C873 C869 1.393 . S
C873 C872 1.391 . S
C874 H864 0.950 . S
C874 C875 1.386 . S
C874 C876 1.391 . S
C875 C874 1.386 . S
C875 C879 1.393 . S
C876 H865 0.950 . S
C876 C874 1.391 . S
C876 C877 1.400 . S
C877 C871 1.491 . S
C877 C876 1.400 . S
C877 C878 1.398 . S
C878 H866 0.950 . S
C878 C877 1.398 . S
C878 C879 1.391 . S
C879 H867 0.950 . S
C879 C875 1.393 . S
C879 C878 1.391 . S
H880 C888 0.950 . S
H881 C893 0.950 . S
H882 C890 0.950 . S
H883 C892 0.950 . S
H884 C894 0.950 . S
H885 C896 0.950 . S
H886 C898 0.950 . S
H887 C899 0.950 . S
C888 H880 0.950 . S
C888 C889 1.386 . S
C888 C890 1.391 . S
C889 C888 1.386 . S
C889 C893 1.393 . S
C890 H882 0.950 . S
C890 C888 1.391 . S
C890 C891 1.400 . S
C891 C890 1.400 . S
C891 C892 1.398 . S
C891 C897 1.491 . S
C892 H883 0.950 . S
C892 C891 1.398 . S
C892 C893 1.391 . S
C893 H881 0.950 . S
C893 C889 1.393 . S
C893 C892 1.391 . S
C894 H884 0.950 . S
C894 C895 1.386 . S
C894 C896 1.391 . S
C895 C894 1.386 . S
C895 C899 1.393 . S
C896 H885 0.950 . S
C896 C894 1.391 . S
C896 C897 1.400 . S
C897 C891 1.491 . S
C897 C896 1.400 . S
C897 C898 1.398 . S
C898 H886 0.950 . S
C898 C897 1.398 . S
C898 C899 1.391 . S
C899 H887 0.950 . S
C899 C895 1.393 . S
C899 C898 1.391 . S
H900 C908 0.950 . S
H901 C913 0.950 . S
H902 C910 0.950 . S
H903 C912 0.950 . S
H904 C914 0.950 . S
H905 C916 0.950 . S
H906 C918 0.950 . S
H907 C919 0.950 . S
C908 H900 0.950 . S
C908 C909 1.386 . S
C908 C910 1.391 . S
C909 C908 1.386 . S
C909 C913 1.393 . S
C910 H902 0.950 . S
C910 C908 1.391 . S
C910 C911 1.400 . S
C911 C910 1.400 . S
C911 C912 1.398 . S
C911 C917 1.491 . S
C912 H903 0.950 . S
C912 C911 1.398 . S
C912 C913 1.391 . S
C913 H901 0.950 . S
C913 C909 1.393 . S
C913 C912 1.391 . S
C914 H904 0.950 . S
C914 C915 1.386 . S
C914 C916 1.391 . S
C915 C914 1.386 . S
C915 C919 1.393 . S
C916 H905 0.950 . S
C916 C914 1.391 . S
C916 C917 1.400 . S
C917 C911 1.491 . S
C917 C916 1.400 . S
C917 C918 1.398 . S
C918 H906 0.950 . S
C918 C917 1.398 . S
C918 C919 1.391 . S
C919 H907 0.950 . S
C919 C915 1.393 . S
C919 C918 1.391 . S
H920 C928 0.950 . S
H921 C933 0.950 . S
H922 C930 0.950 . S
H923 C932 0.950 . S
H924 C934 0.950 . S
H925 C936 0.950 . S
H926 C938 0.950 . S
H927 C939 0.950 . S
C928 H920 0.950 . S
C928 C929 1.386 . S
C928 C930 1.391 . S
C929 C928 1.386 . S
C929 C933 1.393 . S
C930 H922 0.950 . S
C930 C928 1.391 . S
C930 C931 1.400 . S
C931 C930 1.400 . S
C931 C932 1.398 . S
C931 C937 1.491 . S
C932 H923 0.950 . S
C932 C931 1.398 . S
C932 C933 1.391 . S
C933 H921 0.950 . S
C933 C929 1.393 . S
C933 C932 1.391 . S
C934 H924 0.950 . S
C934 C935 1.386 . S
C934 C936 1.391 . S
C935 C934 1.386 . S
C935 C939 1.393 . S
C936 H925 0.950 . S
C936 C934 1.391 . S
C936 C937 1.400 . S
C937 C931 1.491 . S
C937 C936 1.400 . S
C937 C938 1.398 . S
C938 H926 0.950 . S
C938 C937 1.398 . S
C938 C939 1.391 . S
C939 H927 0.950 . S
C939 C935 1.393 . S
C939 C938 1.391 . S
H940 C948 0.950 . S
H941 C953 0.950 . S
H942 C950 0.950 . S
H943 C952 0.950 . S
H944 C954 0.950 . S
H945 C956 0.950 . S
H946 C958 0.950 . S
H947 C959 0.950 . S
C948 H940 0.950 . S
C948 C949 1.386 . S
C948 C950 1.391 . S
C949 C948 1.386 . S
C949 C953 1.393 . S
C950 H942 0.950 . S
C950 C948 1.391 . S
C950 C951 1.400 . S
C951 C950 1.400 . S
C951 C952 1.398 . S
C951 C957 1.491 . S
C952 H943 0.950 . S
C952 C951 1.398 . S
C952 C953 1.391 . S
C953 H941 0.950 . S
C953 C949 1.393 . S
C953 C952 1.391 . S
C954 H944 0.950 . S
C954 C955 1.386 . S
C954 C956 1.391 . S
C955 C954 1.386 . S
C955 C959 1.393 . S
C956 H945 0.950 . S
C956 C954 1.391 . S
C956 C957 1.400 . S
C957 C951 1.491 . S
C957 C956 1.400 . S
C957 C958 1.398 . S
C958 H946 0.950 . S
C958 C957 1.398 . S
C958 C959 1.391 . S
C959 H947 0.950 . S
C959 C955 1.393 . S
C959 C958 1.391 . S
H960 C968 0.950 . S
H961 C973 0.950 . S
H962 C970 0.950 1_554 S
H963 C972 0.950 1_455 S
H964 C974 0.950 . S
H965 C976 0.950 1_556 S
H966 C978 0.950 1_655 S
H967 C979 0.950 . S
C968 H960 0.950 . S
C968 C969 1.386 . S
C968 C970 1.391 . S
C969 C968 1.386 . S
C969 C973 1.393 . S
C970 H962 0.950 1_556 S
C970 C968 1.391 . S
C970 C971 1.400 . S
C971 C970 1.400 . S
C971 C972 1.398 . S
C971 C977 1.491 1_656 S
C972 H963 0.950 1_655 S
C972 C971 1.398 . S
C972 C973 1.391 . S
C973 H961 0.950 . S
C973 C969 1.393 . S
C973 C972 1.391 . S
C974 H964 0.950 . S
C974 C975 1.386 . S
C974 C976 1.391 . S
C975 C974 1.386 . S
C975 C979 1.393 . S
C976 H965 0.950 1_554 S
C976 C974 1.391 . S
C976 C977 1.400 . S
C977 C971 1.491 1_454 S
C977 C976 1.400 . S
C977 C978 1.398 . S
C978 H966 0.950 1_455 S
C978 C977 1.398 . S
C978 C979 1.391 . S
C979 H967 0.950 . S
C979 C975 1.393 . S
C979 C978 1.391 . S
H980 C988 0.942 1_655 S
H981 C993 0.950 . S
H982 C990 0.950 . S
H983 C992 0.950 1_545 S
H984 C994 0.942 1_455 S
H985 C996 0.950 . S
H986 C998 0.950 1_565 S
H987 C999 0.950 . S
C988 H980 0.942 1_455 S
C988 C989 1.401 . S
C988 C990 1.384 1_455 S
C989 C988 1.401 . S
C989 C993 1.393 . S
C990 H982 0.950 . S
C990 C988 1.384 1_655 S
C990 C991 1.400 1_655 S
C991 C990 1.400 1_455 S
C991 C992 1.398 . S
C991 C997 1.491 1_466 S
C992 H983 0.950 1_565 S
C992 C991 1.398 . S
C992 C993 1.391 . S
C993 H981 0.950 . S
C993 C989 1.393 . S
C993 C992 1.391 . S
C994 H984 0.942 1_655 S
C994 C995 1.401 . S
C994 C996 1.384 1_655 S
C995 C994 1.401 . S
C995 C999 1.393 . S
C996 H985 0.950 . S
C996 C994 1.384 1_455 S
C996 C997 1.400 1_455 S
C997 C991 1.491 1_644 S
C997 C996 1.400 1_655 S
C997 C998 1.398 . S
C998 H986 0.950 1_545 S
C998 C997 1.398 . S
C998 C999 1.391 . S
C999 H987 0.950 . S
C999 C995 1.393 . S
C999 C998 1.391 . S
H1000 C1008 0.950 . S
H1001 C1013 0.950 1_565 S
H1002 C1010 0.950 1_554 S
H1003 C1012 0.950 . S
H1004 C1014 0.950 . S
H1005 C1016 0.950 1_556 S
H1006 C1018 0.950 . S
H1007 C1019 0.950 1_545 S
C1008 H1000 0.950 . S
C1008 C1009 1.386 . S
C1008 C1010 1.391 . S
C1009 C1008 1.386 . S
C1009 C1013 1.393 . S
C1010 H1002 0.950 1_556 S
C1010 C1008 1.391 . S
C1010 C1011 1.400 . S
C1011 C1010 1.400 . S
C1011 C1012 1.398 1_545 S
C1011 C1017 1.491 1_546 S
C1012 H1003 0.950 . S
C1012 C1011 1.398 1_565 S
C1012 C1013 1.391 1_565 S
C1013 H1001 0.950 1_545 S
C1013 C1009 1.393 . S
C1013 C1012 1.391 1_545 S
C1014 H1004 0.950 . S
C1014 C1015 1.386 . S
C1014 C1016 1.391 . S
C1015 C1014 1.386 . S
C1015 C1019 1.393 . S
C1016 H1005 0.950 1_554 S
C1016 C1014 1.391 . S
C1016 C1017 1.400 . S
C1017 C1011 1.491 1_564 S
C1017 C1016 1.400 . S
C1017 C1018 1.398 1_565 S
C1018 H1006 0.950 . S
C1018 C1017 1.398 1_545 S
C1018 C1019 1.391 1_545 S
C1019 H1007 0.950 1_565 S
C1019 C1015 1.393 . S
C1019 C1018 1.391 1_565 S
H1020 C1028 0.950 . S
H1021 C1033 0.950 . S
H1022 C1030 0.950 . S
H1023 C1032 0.950 . S
H1024 C1034 0.950 . S
H1025 C1036 0.950 . S
H1026 C1038 0.950 . S
H1027 C1039 0.950 . S
C1028 H1020 0.950 . S
C1028 C1029 1.386 . S
C1028 C1030 1.391 . S
C1029 C1028 1.386 . S
C1029 C1033 1.393 . S
C1030 H1022 0.950 . S
C1030 C1028 1.391 . S
C1030 C1031 1.400 . S
C1031 C1030 1.400 . S
C1031 C1032 1.398 . S
C1031 C1037 1.491 1_554 S
C1032 H1023 0.950 . S
C1032 C1031 1.398 . S
C1032 C1033 1.391 . S
C1033 H1021 0.950 . S
C1033 C1029 1.393 . S
C1033 C1032 1.391 . S
C1034 H1024 0.950 . S
C1034 C1035 1.386 . S
C1034 C1036 1.391 . S
C1035 C1034 1.386 . S
C1035 C1039 1.393 . S
C1036 H1025 0.950 . S
C1036 C1034 1.391 . S
C1036 C1037 1.400 . S
C1037 C1031 1.491 1_556 S
C1037 C1036 1.400 . S
C1037 C1038 1.398 . S
C1038 H1026 0.950 . S
C1038 C1037 1.398 . S
C1038 C1039 1.391 . S
C1039 H1027 0.950 . S
C1039 C1035 1.393 . S
C1039 C1038 1.391 . S
H1040 C1048 0.950 . S
H1041 C1053 0.950 . S
H1042 C1050 0.950 . S
H1043 C1052 0.950 . S
H1044 C1054 0.950 . S
H1045 C1056 0.950 . S
H1046 C1058 0.950 . S
H1047 C1059 0.950 . S
C1048 H1040 0.950 . S
C1048 C1049 1.386 1_455 S
C1048 C1050 1.391 . S
C1049 C1048 1.386 1_655 S
C1049 C1053 1.393 . S
C1050 H1042 0.950 . S
C1050 C1048 1.391 . S
C1050 C1051 1.400 1_455 S
C1051 C1050 1.400 1_655 S
C1051 C1052 1.398 . S
C1051 C1057 1.491 1_645 S
C1052 H1043 0.950 . S
C1052 C1051 1.398 . S
C1052 C1053 1.391 . S
C1053 H1041 0.950 . S
C1053 C1049 1.393 . S
C1053 C1052 1.391 . S
C1054 H1044 0.950 . S
C1054 C1055 1.386 1_655 S
C1054 C1056 1.391 . S
C1055 C1054 1.386 1_455 S
C1055 C1059 1.393 . S
C1056 H1045 0.950 . S
C1056 C1054 1.391 . S
C1056 C1057 1.400 1_655 S
C1057 C1051 1.491 1_465 S
C1057 C1056 1.400 1_455 S
C1057 C1058 1.398 . S
C1058 H1046 0.950 . S
C1058 C1057 1.398 . S
C1058 C1059 1.391 . S
C1059 H1047 0.950 . S
C1059 C1055 1.393 . S
C1059 C1058 1.391 . S
H1060 C1068 0.950 . S
H1061 C1073 0.950 . S
H1062 C1070 0.950 . S
H1063 C1072 0.950 . S
H1064 C1074 0.950 . S
H1065 C1076 0.950 . S
H1066 C1078 0.950 . S
H1067 C1079 0.950 . S
C1068 H1060 0.950 . S
C1068 C1069 1.386 . S
C1068 C1070 1.391 1_565 S
C1069 C1068 1.386 . S
C1069 C1073 1.393 . S
C1070 H1062 0.950 . S
C1070 C1068 1.391 1_545 S
C1070 C1071 1.400 1_545 S
C1071 C1070 1.400 1_565 S
C1071 C1072 1.398 . S
C1071 C1077 1.491 1_565 S
C1072 H1063 0.950 . S
C1072 C1071 1.398 . S
C1072 C1073 1.391 . S
C1073 H1061 0.950 . S
C1073 C1069 1.393 . S
C1073 C1072 1.391 . S
C1074 H1064 0.950 . S
C1074 C1075 1.386 . S
C1074 C1076 1.391 1_545 S
C1075 C1074 1.386 . S
C1075 C1079 1.393 . S
C1076 H1065 0.950 . S
C1076 C1074 1.391 1_565 S
C1076 C1077 1.400 1_565 S
C1077 C1071 1.491 1_545 S
C1077 C1076 1.400 1_545 S
C1077 C1078 1.398 . S
C1078 H1066 0.950 . S
C1078 C1077 1.398 . S
C1078 C1079 1.391 . S
C1079 H1067 0.950 . S
C1079 C1075 1.393 . S
C1079 C1078 1.391 . S
H1080 C1088 0.950 . S
H1081 C1093 0.950 . S
H1082 C1090 0.950 . S
H1083 C1092 0.950 . S
H1084 C1094 0.950 . S
H1085 C1096 0.950 . S
H1086 C1098 0.950 . S
H1087 C1099 0.950 . S
C1088 H1080 0.950 . S
C1088 C1089 1.386 . S
C1088 C1090 1.391 . S
C1089 C1088 1.386 . S
C1089 C1093 1.393 . S
C1090 H1082 0.950 . S
C1090 C1088 1.391 . S
C1090 C1091 1.400 . S
C1091 C1090 1.400 . S
C1091 C1092 1.398 . S
C1091 C1097 1.491 . S
C1092 H1083 0.950 . S
C1092 C1091 1.398 . S
C1092 C1093 1.391 . S
C1093 H1081 0.950 . S
C1093 C1089 1.393 . S
C1093 C1092 1.391 . S
C1094 H1084 0.950 . S
C1094 C1095 1.386 . S
C1094 C1096 1.391 . S
C1095 C1094 1.386 . S
C1095 C1099 1.393 . S
C1096 H1085 0.950 . S
C1096 C1094 1.391 . S
C1096 C1097 1.400 . S
C1097 C1091 1.491 . S
C1097 C1096 1.400 . S
C1097 C1098 1.398 . S
C1098 H1086 0.950 . S
C1098 C1097 1.398 . S
C1098 C1099 1.391 . S
C1099 H1087 0.950 . S
C1099 C1095 1.393 . S
C1099 C1098 1.391 . S
H1100 C1108 0.964 . S
H1101 C1113 0.950 . S
H1102 C1110 0.950 . S
H1103 C1112 0.950 . S
H1104 C1114 0.964 . S
H1105 C1116 0.950 . S
H1106 C1118 0.950 . S
H1107 C1119 0.950 . S
C1108 H1100 0.964 . S
C1108 C1109 1.386 . S
C1108 C1110 1.391 1_455 S
C1109 C1108 1.386 . S
C1109 C1113 1.393 . S
C1110 H1102 0.950 . S
C1110 C1108 1.391 1_655 S
C1110 C1111 1.400 1_655 S
C1111 C1110 1.400 1_455 S
C1111 C1112 1.398 . S
C1111 C1117 1.491 1_455 S
C1112 H1103 0.950 . S
C1112 C1111 1.398 . S
C1112 C1113 1.391 . S
C1113 H1101 0.950 . S
C1113 C1109 1.393 . S
C1113 C1112 1.391 . S
C1114 H1104 0.964 . S
C1114 C1115 1.386 . S
C1114 C1116 1.391 1_655 S
C1115 C1114 1.386 . S
C1115 C1119 1.393 . S
C1116 H1105 0.950 . S
C1116 C1114 1.391 1_455 S
C1116 C1117 1.400 1_455 S
C1117 C1111 1.491 1_655 S
C1117 C1116 1.400 1_655 S
C1117 C1118 1.398 . S
C1118 H1106 0.950 . S
C1118 C1117 1.398 . S
C1118 C1119 1.391 . S
C1119 H1107 0.950 . S
C1119 C1115 1.393 . S
C1119 C1118 1.391 . S
H1120 C1128 0.950 . S
H1121 C1133 0.950 . S
H1122 C1130 0.950 . S
H1123 C1132 0.946 1_655 S
H1124 C1134 0.950 . S
H1125 C1136 0.950 . S
H1126 C1138 0.950 . S
H1127 C1139 0.950 . S
C1128 H1120 0.950 . S
C1128 C1129 1.386 . S
C1128 C1130 1.391 . S
C1129 C1128 1.386 . S
C1129 C1133 1.393 1_455 S
C1130 H1122 0.950 . S
C1130 C1128 1.391 . S
C1130 C1131 1.400 . S
C1131 C1130 1.400 . S
C1131 C1132 1.410 . S
C1131 C1137 1.491 . S
C1132 H1123 0.946 1_455 S
C1132 C1131 1.410 . S
C1132 C1133 1.384 1_455 S
C1133 H1121 0.950 . S
C1133 C1129 1.393 1_655 S
C1133 C1132 1.384 1_655 S
C1134 H1124 0.950 . S
C1134 C1135 1.386 . S
C1134 C1136 1.391 . S
C1135 C1134 1.386 . S
C1135 C1139 1.393 . S
C1136 H1125 0.950 . S
C1136 C1134 1.391 . S
C1136 C1137 1.400 . S
C1137 C1131 1.491 . S
C1137 C1136 1.400 . S
C1137 C1138 1.398 . S
C1138 H1126 0.950 . S
C1138 C1137 1.398 . S
C1138 C1139 1.391 . S
C1139 H1127 0.950 . S
C1139 C1135 1.393 . S
C1139 C1138 1.391 . S
H1140 C1148 0.950 . S
H1141 C1153 0.950 . S
H1142 C1150 0.950 1_655 S
H1143 C1152 0.950 . S
H1144 C1154 0.950 . S
H1145 C1156 0.950 . S
H1146 C1158 0.950 . S
H1147 C1159 0.950 . S
C1148 H1140 0.950 . S
C1148 C1149 1.386 . S
C1148 C1150 1.391 . S
C1149 C1148 1.386 . S
C1149 C1153 1.393 1_565 S
C1150 H1142 0.950 1_455 S
C1150 C1148 1.391 . S
C1150 C1151 1.400 1_565 S
C1151 C1150 1.400 1_545 S
C1151 C1152 1.398 . S
C1151 C1157 1.491 . S
C1152 H1143 0.950 . S
C1152 C1151 1.398 . S
C1152 C1153 1.391 . S
C1153 H1141 0.950 . S
C1153 C1149 1.393 1_545 S
C1153 C1152 1.391 . S
C1154 H1144 0.950 . S
C1154 C1155 1.386 1_455 S
C1154 C1156 1.391 . S
C1155 C1154 1.386 1_655 S
C1155 C1159 1.393 . S
C1156 H1145 0.950 . S
C1156 C1154 1.391 . S
C1156 C1157 1.400 . S
C1157 C1151 1.491 . S
C1157 C1156 1.400 . S
C1157 C1158 1.398 1_455 S
C1158 H1146 0.950 . S
C1158 C1157 1.398 1_655 S
C1158 C1159 1.391 . S
C1159 H1147 0.950 . S
C1159 C1155 1.393 . S
C1159 C1158 1.391 . S
H1160 C1168 0.950 . S
H1161 C1173 0.950 . S
H1162 C1170 0.950 . S
H1163 C1172 0.950 . S
H1164 C1174 0.950 . S
H1165 C1176 0.950 . S
H1166 C1178 0.945 1_565 S
H1167 C1179 0.950 . S
C1168 H1160 0.950 . S
C1168 C1169 1.386 . S
C1168 C1170 1.391 . S
C1169 C1168 1.386 . S
C1169 C1173 1.393 . S
C1170 H1162 0.950 . S
C1170 C1168 1.391 . S
C1170 C1171 1.400 . S
C1171 C1170 1.400 . S
C1171 C1172 1.398 . S
C1171 C1177 1.491 . S
C1172 H1163 0.950 . S
C1172 C1171 1.398 . S
C1172 C1173 1.391 . S
C1173 H1161 0.950 . S
C1173 C1169 1.393 . S
C1173 C1172 1.391 . S
C1174 H1164 0.950 . S
C1174 C1175 1.386 . S
C1174 C1176 1.391 . S
C1175 C1174 1.386 . S
C1175 C1179 1.393 1_545 S
C1176 H1165 0.950 . S
C1176 C1174 1.391 . S
C1176 C1177 1.400 . S
C1177 C1171 1.491 . S
C1177 C1176 1.400 . S
C1177 C1178 1.406 . S
C1178 H1166 0.945 1_545 S
C1178 C1177 1.406 . S
C1178 C1179 1.388 1_545 S
C1179 H1167 0.950 . S
C1179 C1175 1.393 1_565 S
C1179 C1178 1.388 1_565 S
H1180 C1188 0.950 . S
H1181 C1193 0.950 . S
H1182 C1190 0.950 . S
H1183 C1192 0.950 . S
H1184 C1194 0.950 . S
H1185 C1196 0.950 . S
H1186 C1198 0.950 . S
H1187 C1199 0.950 . S
C1188 H1180 0.950 . S
C1188 C1189 1.386 . S
C1188 C1190 1.391 . S
C1189 C1188 1.386 . S
C1189 C1193 1.393 . S
C1190 H1182 0.950 . S
C1190 C1188 1.391 . S
C1190 C1191 1.400 . S
C1191 C1190 1.400 . S
C1191 C1192 1.398 . S
C1191 C1197 1.491 . S
C1192 H1183 0.950 . S
C1192 C1191 1.398 . S
C1192 C1193 1.391 . S
C1193 H1181 0.950 . S
C1193 C1189 1.393 . S
C1193 C1192 1.391 . S
C1194 H1184 0.950 . S
C1194 C1195 1.386 . S
C1194 C1196 1.391 . S
C1195 C1194 1.386 . S
C1195 C1199 1.393 . S
C1196 H1185 0.950 . S
C1196 C1194 1.391 . S
C1196 C1197 1.400 . S
C1197 C1191 1.491 . S
C1197 C1196 1.400 . S
C1197 C1198 1.398 . S
C1198 H1186 0.950 . S
C1198 C1197 1.398 . S
C1198 C1199 1.391 . S
C1199 H1187 0.950 . S
C1199 C1195 1.393 . S
C1199 C1198 1.391 . S
H1200 C1208 0.950 . S
H1201 C1213 0.950 . S
H1202 C1210 0.950 . S
H1203 C1212 0.950 . S
H1204 C1214 0.950 . S
H1205 C1216 0.950 . S
H1206 C1218 0.950 1_455 S
H1207 C1219 0.950 . S
C1208 H1200 0.950 . S
C1208 C1209 1.386 1_455 S
C1208 C1210 1.391 . S
C1209 C1208 1.386 1_655 S
C1209 C1213 1.393 . S
C1210 H1202 0.950 . S
C1210 C1208 1.391 . S
C1210 C1211 1.400 1_455 S
C1211 C1210 1.400 1_655 S
C1211 C1212 1.398 . S
C1211 C1217 1.491 . S
C1212 H1203 0.950 . S
C1212 C1211 1.398 . S
C1212 C1213 1.391 . S
C1213 H1201 0.950 . S
C1213 C1209 1.393 . S
C1213 C1212 1.391 . S
C1214 H1204 0.950 . S
C1214 C1215 1.386 . S
C1214 C1216 1.391 . S
C1215 C1214 1.386 . S
C1215 C1219 1.393 . S
C1216 H1205 0.950 . S
C1216 C1214 1.391 . S
C1216 C1217 1.400 . S
C1217 C1211 1.491 . S
C1217 C1216 1.400 . S
C1217 C1218 1.398 . S
C1218 H1206 0.950 1_655 S
C1218 C1217 1.398 . S
C1218 C1219 1.391 . S
C1219 H1207 0.950 . S
C1219 C1215 1.393 . S
C1219 C1218 1.391 . S
H1220 C1228 0.950 . S
H1221 C1233 0.950 . S
H1222 C1230 0.950 . S
H1223 C1232 0.950 . S
H1224 C1234 0.950 . S
H1225 C1236 0.950 . S
H1226 C1238 0.952 . S
H1227 C1239 0.950 . S
C1228 H1220 0.950 . S
C1228 C1229 1.386 1_565 S
C1228 C1230 1.391 . S
C1229 C1228 1.386 1_545 S
C1229 C1233 1.393 . S
C1230 H1222 0.950 . S
C1230 C1228 1.391 . S
C1230 C1231 1.400 . S
C1231 C1230 1.400 . S
C1231 C1232 1.398 1_565 S
C1231 C1237 1.491 . S
C1232 H1223 0.950 . S
C1232 C1231 1.398 1_545 S
C1232 C1233 1.391 . S
C1233 H1221 0.950 . S
C1233 C1229 1.393 . S
C1233 C1232 1.391 . S
C1234 H1224 0.950 . S
C1234 C1235 1.386 1_655 S
C1234 C1236 1.391 . S
C1235 C1234 1.386 1_455 S
C1235 C1239 1.393 . S
C1236 H1225 0.950 . S
C1236 C1234 1.391 . S
C1236 C1237 1.400 . S
C1237 C1231 1.491 . S
C1237 C1236 1.400 . S
C1237 C1238 1.395 1_655 S
C1238 H1226 0.952 . S
C1238 C1237 1.395 1_455 S
C1238 C1239 1.392 . S
C1239 H1227 0.950 . S
C1239 C1235 1.393 . S
C1239 C1238 1.392 . S
H1240 C1248 0.950 . S
H1241 C1253 0.950 . S
H1242 C1250 0.950 . S
H1243 C1252 0.950 . S
H1244 C1254 0.950 . S
H1245 C1256 0.950 . S
H1246 C1258 0.950 . S
H1247 C1259 0.950 . S
C1248 H1240 0.950 . S
C1248 C1249 1.386 . S
C1248 C1250 1.391 . S
C1249 C1248 1.386 . S
C1249 C1253 1.393 . S
C1250 H1242 0.950 . S
C1250 C1248 1.391 . S
C1250 C1251 1.400 . S
C1251 C1250 1.400 . S
C1251 C1252 1.398 . S
C1251 C1257 1.491 . S
C1252 H1243 0.950 . S
C1252 C1251 1.398 . S
C1252 C1253 1.391 . S
C1253 H1241 0.950 . S
C1253 C1249 1.393 . S
C1253 C1252 1.391 . S
C1254 H1244 0.950 . S
C1254 C1255 1.386 . S
C1254 C1256 1.391 . S
C1255 C1254 1.386 . S
C1255 C1259 1.393 . S
C1256 H1245 0.950 . S
C1256 C1254 1.391 . S
C1256 C1257 1.400 . S
C1257 C1251 1.491 . S
C1257 C1256 1.400 . S
C1257 C1258 1.398 . S
C1258 H1246 0.950 . S
C1258 C1257 1.398 . S
C1258 C1259 1.391 . S
C1259 H1247 0.950 . S
C1259 C1255 1.393 . S
C1259 C1258 1.391 . S
H1260 C1268 0.950 . S
H1261 C1273 0.950 . S
H1262 C1270 0.950 . S
H1263 C1272 0.950 . S
H1264 C1274 0.950 . S
H1265 C1276 0.950 . S
H1266 C1278 0.950 . S
H1267 C1279 0.950 . S
C1268 H1260 0.950 . S
C1268 C1269 1.386 . S
C1268 C1270 1.391 . S
C1269 C1268 1.386 . S
C1269 C1273 1.393 . S
C1270 H1262 0.950 . S
C1270 C1268 1.391 . S
C1270 C1271 1.400 . S
C1271 C1270 1.400 . S
C1271 C1272 1.398 . S
C1271 C1277 1.491 . S
C1272 H1263 0.950 . S
C1272 C1271 1.398 . S
C1272 C1273 1.391 . S
C1273 H1261 0.950 . S
C1273 C1269 1.393 . S
C1273 C1272 1.391 . S
C1274 H1264 0.950 . S
C1274 C1275 1.386 . S
C1274 C1276 1.391 . S
C1275 C1274 1.386 . S
C1275 C1279 1.393 . S
C1276 H1265 0.950 . S
C1276 C1274 1.391 . S
C1276 C1277 1.400 . S
C1277 C1271 1.491 . S
C1277 C1276 1.400 . S
C1277 C1278 1.398 . S
C1278 H1266 0.950 . S
C1278 C1277 1.398 . S
C1278 C1279 1.391 . S
C1279 H1267 0.950 . S
C1279 C1275 1.393 . S
C1279 C1278 1.391 . S
C329 C66 2.041 . S
C335 C8 2.204 1_655 S
C349 C6 2.284 . S
C355 C39 2.557 1_565 S
C369 C59 2.846 . S
C375 C29 2.703 . S
C389 C49 2.578 . S
C395 C68 2.587 . S
C409 C99 2.693 . S
C415 C109 2.574 . S
C429 C119 2.702 1_565 S
C435 C129 2.556 . S
C449 C139 2.294 . S
C455 C146 2.032 . S
C469 C89 2.396 . S
C475 C148 2.387 . S
C489 C179 2.184 1_455 S
C495 C236 2.058 . S
C509 C176 2.283 . S
C515 C188 2.558 1_545 S
C529 C181 2.720 . S
C535 C208 2.838 . S
C549 C201 2.576 . S
C555 C239 2.599 . S
C569 C248 2.692 . S
C575 C261 2.575 . S
C589 C281 2.576 . S
C595 C268 2.690 1_545 S
C609 C316 2.033 . S
C615 C288 2.293 . S
C629 C319 2.400 . S
C635 C241 2.378 . S
C649 C1 0.377 . S
C655 C96 0.355 . S
C669 C116 0.581 . S
C675 C36 0.606 . S
C689 C56 0.284 . S
C695 C136 0.550 . S
C709 C61 0.568 . S
C715 C141 0.612 . S
C729 C246 0.342 . S
C735 C169 0.382 . S
C749 C266 0.565 . S
C755 C186 0.629 . S
C769 C206 0.270 . S
C775 C286 0.566 . S
C789 C309 0.603 . S
C795 C229 0.573 . S
C809 C19 1.211 . S
C815 C48 1.191 . S
C829 C28 1.327 . S
C835 C79 1.356 . S
C849 C128 0.931 . S
C855 C88 0.907 . S
C869 C159 1.161 . S
C875 C108 1.156 . S
C889 C219 1.195 . S
C895 C168 1.203 . S
C909 C228 1.353 . S
C915 C199 1.322 . S
C929 C259 0.933 . S
C935 C299 0.906 . S
C949 C279 1.133 . S
C955 C308 1.139 . S
C969 C161 1.610 . S
C975 C9 1.610 . S
C989 C196 1.423 . S
C995 C26 1.423 . S
C1009 C216 1.207 . S
C1015 C46 1.207 . S
C1029 C69 1.475 . S
C1035 C221 1.475 . S
C1049 C256 1.212 . S
C1055 C86 1.212 . S
C1069 C276 1.388 . S
C1075 C106 1.388 . S
C1089 C296 1.431 . S
C1095 C126 1.431 . S
C1109 C301 1.564 . S
C1115 C149 1.564 . S
C1129 C156 1.661 1_455 S
C1135 C16 1.633 . S
C1149 C81 1.802 . S
C1155 C21 1.741 . S
C1169 C101 1.777 . S
C1175 C41 1.763 1_545 S
C1189 C121 1.694 . S
C1195 C76 1.713 . S
C1209 C306 1.664 1_655 S
C1215 C166 1.628 . S
C1229 C249 1.785 . S
C1235 C189 1.746 . S
C1249 C269 1.766 . S
C1255 C209 1.751 1_565 S
C1269 C226 1.708 . S
C1275 C289 1.689 . S
