# Generated by pormake.
# Topology lcy-a-x, (5)-cn, num edge types: 1
# Building blocks:
#     Node 0, Type 0, BuildingBlock: XOMCOT_clean_sbu_1, # of connection points: 5
#     Node 1, Type 0, BuildingBlock: XOMCOT_clean_sbu_1, # of connection points: 5
#     Node 2, Type 0, BuildingBlock: XOMCOT_clean_sbu_1, # of connection points: 5
#     Node 3, Type 0, BuildingBlock: XOMCOT_clean_sbu_1, # of connection points: 5
#     Node 4, Type 0, BuildingBlock: XOMCOT_clean_sbu_1, # of connection points: 5
#     Node 5, Type 0, BuildingBlock: XOMCOT_clean_sbu_1, # of connection points: 5
#     Node 6, Type 0, BuildingBlock: XOMCOT_clean_sbu_1, # of connection points: 5
#     Node 7, Type 0, BuildingBlock: XOMCOT_clean_sbu_1, # of connection points: 5
#     Node 8, Type 0, BuildingBlock: XOMCOT_clean_sbu_1, # of connection points: 5
#     Node 9, Type 0, BuildingBlock: XOMCOT_clean_sbu_1, # of connection points: 5
#     Node 10, Type 0, BuildingBlock: XOMCOT_clean_sbu_1, # of connection points: 5
#     Node 11, Type 0, BuildingBlock: XOMCOT_clean_sbu_1, # of connection points: 5
#     Node 12, Type 0, BuildingBlock: XOMCOT_clean_sbu_1, # of connection points: 5
#     Node 13, Type 0, BuildingBlock: XOMCOT_clean_sbu_1, # of connection points: 5
#     Node 14, Type 0, BuildingBlock: XOMCOT_clean_sbu_1, # of connection points: 5
#     Node 15, Type 0, BuildingBlock: XOMCOT_clean_sbu_1, # of connection points: 5
#     Node 16, Type 0, BuildingBlock: XOMCOT_clean_sbu_1, # of connection points: 5
#     Node 17, Type 0, BuildingBlock: XOMCOT_clean_sbu_1, # of connection points: 5
#     Node 18, Type 0, BuildingBlock: XOMCOT_clean_sbu_1, # of connection points: 5
#     Node 19, Type 0, BuildingBlock: XOMCOT_clean_sbu_1, # of connection points: 5
#     Node 20, Type 0, BuildingBlock: XOMCOT_clean_sbu_1, # of connection points: 5
#     Node 21, Type 0, BuildingBlock: XOMCOT_clean_sbu_1, # of connection points: 5
#     Node 22, Type 0, BuildingBlock: XOMCOT_clean_sbu_1, # of connection points: 5
#     Node 23, Type 0, BuildingBlock: XOMCOT_clean_sbu_1, # of connection points: 5
#     Edge 24, Type (0, 0), BuildingBlock: XIVTED_clean_linker_0, # of connection points: 2
#     Edge 25, Type (0, 0), BuildingBlock: XIVTED_clean_linker_0, # of connection points: 2
#     Edge 26, Type (0, 0), BuildingBlock: XIVTED_clean_linker_0, # of connection points: 2
#     Edge 27, Type (0, 0), BuildingBlock: XIVTED_clean_linker_0, # of connection points: 2
#     Edge 28, Type (0, 0), BuildingBlock: XIVTED_clean_linker_0, # of connection points: 2
#     Edge 29, Type (0, 0), BuildingBlock: XIVTED_clean_linker_0, # of connection points: 2
#     Edge 30, Type (0, 0), BuildingBlock: XIVTED_clean_linker_0, # of connection points: 2
#     Edge 31, Type (0, 0), BuildingBlock: XIVTED_clean_linker_0, # of connection points: 2
#     Edge 32, Type (0, 0), BuildingBlock: XIVTED_clean_linker_0, # of connection points: 2
#     Edge 33, Type (0, 0), BuildingBlock: XIVTED_clean_linker_0, # of connection points: 2
#     Edge 34, Type (0, 0), BuildingBlock: XIVTED_clean_linker_0, # of connection points: 2
#     Edge 35, Type (0, 0), BuildingBlock: XIVTED_clean_linker_0, # of connection points: 2
#     Edge 36, Type (0, 0), BuildingBlock: XIVTED_clean_linker_0, # of connection points: 2
#     Edge 37, Type (0, 0), BuildingBlock: XIVTED_clean_linker_0, # of connection points: 2
#     Edge 38, Type (0, 0), BuildingBlock: XIVTED_clean_linker_0, # of connection points: 2
#     Edge 39, Type (0, 0), BuildingBlock: XIVTED_clean_linker_0, # of connection points: 2
#     Edge 40, Type (0, 0), BuildingBlock: XIVTED_clean_linker_0, # of connection points: 2
#     Edge 41, Type (0, 0), BuildingBlock: XIVTED_clean_linker_0, # of connection points: 2
#     Edge 42, Type (0, 0), BuildingBlock: XIVTED_clean_linker_0, # of connection points: 2
#     Edge 43, Type (0, 0), BuildingBlock: XIVTED_clean_linker_0, # of connection points: 2
#     Edge 44, Type (0, 0), BuildingBlock: XIVTED_clean_linker_0, # of connection points: 2
#     Edge 45, Type (0, 0), BuildingBlock: XIVTED_clean_linker_0, # of connection points: 2
#     Edge 46, Type (0, 0), BuildingBlock: XIVTED_clean_linker_0, # of connection points: 2
#     Edge 47, Type (0, 0), BuildingBlock: XIVTED_clean_linker_0, # of connection points: 2
#     Edge 48, Type (0, 0), BuildingBlock: XIVTED_clean_linker_0, # of connection points: 2
#     Edge 49, Type (0, 0), BuildingBlock: XIVTED_clean_linker_0, # of connection points: 2
#     Edge 50, Type (0, 0), BuildingBlock: XIVTED_clean_linker_0, # of connection points: 2
#     Edge 51, Type (0, 0), BuildingBlock: XIVTED_clean_linker_0, # of connection points: 2
#     Edge 52, Type (0, 0), BuildingBlock: XIVTED_clean_linker_0, # of connection points: 2
#     Edge 53, Type (0, 0), BuildingBlock: XIVTED_clean_linker_0, # of connection points: 2
#     Edge 54, Type (0, 0), BuildingBlock: XIVTED_clean_linker_0, # of connection points: 2
#     Edge 55, Type (0, 0), BuildingBlock: XIVTED_clean_linker_0, # of connection points: 2
#     Edge 56, Type (0, 0), BuildingBlock: XIVTED_clean_linker_0, # of connection points: 2
#     Edge 57, Type (0, 0), BuildingBlock: XIVTED_clean_linker_0, # of connection points: 2
#     Edge 58, Type (0, 0), BuildingBlock: XIVTED_clean_linker_0, # of connection points: 2
#     Edge 59, Type (0, 0), BuildingBlock: XIVTED_clean_linker_0, # of connection points: 2
#     Edge 60, Type (0, 0), BuildingBlock: XIVTED_clean_linker_0, # of connection points: 2
#     Edge 61, Type (0, 0), BuildingBlock: XIVTED_clean_linker_0, # of connection points: 2
#     Edge 62, Type (0, 0), BuildingBlock: XIVTED_clean_linker_0, # of connection points: 2
#     Edge 63, Type (0, 0), BuildingBlock: XIVTED_clean_linker_0, # of connection points: 2
#     Edge 64, Type (0, 0), BuildingBlock: XIVTED_clean_linker_0, # of connection points: 2
#     Edge 65, Type (0, 0), BuildingBlock: XIVTED_clean_linker_0, # of connection points: 2
#     Edge 66, Type (0, 0), BuildingBlock: XIVTED_clean_linker_0, # of connection points: 2
#     Edge 67, Type (0, 0), BuildingBlock: XIVTED_clean_linker_0, # of connection points: 2
#     Edge 68, Type (0, 0), BuildingBlock: XIVTED_clean_linker_0, # of connection points: 2
#     Edge 69, Type (0, 0), BuildingBlock: XIVTED_clean_linker_0, # of connection points: 2
#     Edge 70, Type (0, 0), BuildingBlock: XIVTED_clean_linker_0, # of connection points: 2
#     Edge 71, Type (0, 0), BuildingBlock: XIVTED_clean_linker_0, # of connection points: 2
#     Edge 72, Type (0, 0), BuildingBlock: XIVTED_clean_linker_0, # of connection points: 2
#     Edge 73, Type (0, 0), BuildingBlock: XIVTED_clean_linker_0, # of connection points: 2
#     Edge 74, Type (0, 0), BuildingBlock: XIVTED_clean_linker_0, # of connection points: 2
#     Edge 75, Type (0, 0), BuildingBlock: XIVTED_clean_linker_0, # of connection points: 2
#     Edge 76, Type (0, 0), BuildingBlock: XIVTED_clean_linker_0, # of connection points: 2
#     Edge 77, Type (0, 0), BuildingBlock: XIVTED_clean_linker_0, # of connection points: 2
#     Edge 78, Type (0, 0), BuildingBlock: XIVTED_clean_linker_0, # of connection points: 2
#     Edge 79, Type (0, 0), BuildingBlock: XIVTED_clean_linker_0, # of connection points: 2
#     Edge 80, Type (0, 0), BuildingBlock: XIVTED_clean_linker_0, # of connection points: 2
#     Edge 81, Type (0, 0), BuildingBlock: XIVTED_clean_linker_0, # of connection points: 2
#     Edge 82, Type (0, 0), BuildingBlock: XIVTED_clean_linker_0, # of connection points: 2
#     Edge 83, Type (0, 0), BuildingBlock: XIVTED_clean_linker_0, # of connection points: 2
# Relax obj value: 0.879
# Max RMSD: 0.223
# Mean RMSD: 0.223
data_MOF--net-lcy-a-x--node1-XOMCOT_clean_sbu_1--edge1-XIVTED_clean_linker_0
_symmetry_space_group_name_H-M    P1
_symmetry_Int_Tables_number       1
_symmetry_cell_setting            triclinic
loop_
_symmetry_equiv_pos_as_xyz
'x, y, z'
_cell_length_a     58.284199
_cell_length_b     58.211664
_cell_length_c     58.21875
_cell_angle_alpha  90.058586
_cell_angle_beta   90.004131
_cell_angle_gamma 90.051797
loop_
_atom_site_label
_atom_site_type_symbol
_atom_site_fract_x
_atom_site_fract_y
_atom_site_fract_z
_atom_type_partial_charge
C0 C 0.03582 0.05934 0.81843 0.0
C1 C 0.0154 0.05075 0.82667 0.0
N2 N 0.00093 0.04835 0.80881 0.0
N3 N 0.03404 0.06254 0.79557 0.0
C4 C 0.01258 0.05565 0.79019 0.0
H5 H 0.05091 0.06339 0.82847 0.0
Co6 Co 0.05659 0.07552 0.77727 0.0
C7 C 0.0366 0.07617 0.73043 0.0
O8 O 0.04332 0.09742 0.72688 0.0
N9 N 0.07973 0.08887 0.75895 0.0
C10 C 0.10566 0.09428 0.73142 0.0
C11 C 0.09319 0.0782 0.74335 0.0
C12 C 0.08461 0.11143 0.75626 0.0
N13 N 0.10004 0.11529 0.73936 0.0
O14 O 0.03998 0.10374 0.77822 0.0
H15 H 0.09303 0.05996 0.73982 0.0
H16 H 0.07567 0.12499 0.76518 0.0
O17 O 0.04035 0.06655 0.7497 0.0
C18 C 0.04278 0.11574 0.79629 0.0
O19 O 0.05827 0.1092 0.81133 0.0
N20 N 0.07233 0.04752 0.77763 0.0
C21 C 0.09574 0.00598 0.77982 0.0
C22 C 0.07439 0.00741 0.76894 0.0
C23 C 0.06281 0.02819 0.76833 0.0
C24 C 0.09284 0.04644 0.78888 0.0
C25 C 0.10492 0.02568 0.79022 0.0
H26 H 0.04591 0.02841 0.76081 0.0
H27 H 0.0998 0.06174 0.79683 0.0
H28 H 0.00528 0.05666 0.77314 0.0
H29 H 0.01144 0.04664 0.84437 0.0
H30 H 0.11705 0.09075 0.71718 0.0
H31 H 0.06632 0.99235 0.76153 0.0
H32 H 0.1212 0.02504 0.79916 0.0
C33 C 0.27601 0.69207 0.08284 0.0
C34 C 0.27842 0.6694 0.08929 0.0
N35 N 0.27713 0.65634 0.07024 0.0
N36 N 0.27293 0.69305 0.05991 0.0
C37 C 0.27383 0.67104 0.05273 0.0
H38 H 0.27464 0.70667 0.09427 0.0
Co39 Co 0.26154 0.71772 0.04358 0.0
C40 C 0.28124 0.71298 0.99677 0.0
O41 O 0.28455 0.73531 0.9959 0.0
N42 N 0.24875 0.74255 0.02701 0.0
C43 C 0.23572 0.77587 0.01335 0.0
C44 C 0.24838 0.76556 0.03042 0.0
C45 C 0.23547 0.73944 0.00819 0.0
N46 N 0.2276 0.75933 -0.00056 0.0
O47 O 0.23331 0.70201 0.04053 0.0
H48 H 0.25623 0.7747 0.04444 0.0
H49 H 0.23205 0.72276 0.00069 0.0
O50 O 0.27235 0.70393 0.01472 0.0
C51 C 0.21976 0.70517 0.0573 0.0
O52 O 0.22652 0.71822 0.07446 0.0
N53 N 0.28926 0.73332 0.04825 0.0
C54 C 0.32658 0.76255 0.05268 0.0
C55 C 0.32868 0.74177 0.04061 0.0
C56 C 0.30987 0.72705 0.03906 0.0
C57 C 0.28825 0.7511 0.0634 0.0
C58 C 0.3065 0.76648 0.06536 0.0
H59 H 0.31176 0.71103 0.02991 0.0
H60 H 0.27262 0.75416 0.07295 0.0
H61 H 0.26971 0.66563 0.03543 0.0
H62 H 0.27958 0.66292 0.10667 0.0
H63 H 0.23245 0.79408 0.01154 0.0
H64 H 0.34446 0.73725 0.03189 0.0
H65 H 0.30432 0.78182 0.07564 0.0
C66 C 0.59236 0.1016 0.30618 0.0
C67 C 0.61463 0.10563 0.31321 0.0
N68 N 0.62881 0.09914 0.29614 0.0
N69 N 0.5927 0.0924 0.28493 0.0
C70 C 0.61512 0.09121 0.27927 0.0
H71 H 0.57708 0.10348 0.31656 0.0
Co72 Co 0.56887 0.077 0.27051 0.0
C73 C 0.57679 0.08773 0.22147 0.0
O74 O 0.55468 0.09149 0.21893 0.0
N75 N 0.54516 0.05972 0.25677 0.0
C76 C 0.51454 0.03697 0.25287 0.0
C77 C 0.52532 0.05285 0.26668 0.0
C78 C 0.54681 0.04626 0.23786 0.0
N79 N 0.52823 0.03284 0.23479 0.0
O80 O 0.58434 0.04887 0.27557 0.0
H81 H 0.5198 0.0575 0.28378 0.0
H82 H 0.56185 0.04537 0.22705 0.0
O83 O 0.58454 0.08078 0.24084 0.0
C84 C 0.58015 0.03893 0.29452 0.0
O85 O 0.56701 0.04937 0.30961 0.0
N86 N 0.55313 0.10534 0.26598 0.0
C87 C 0.52715 0.14127 0.24807 0.0
C88 C 0.5512 0.14162 0.24651 0.0
C89 C 0.56393 0.12364 0.25595 0.0
C90 C 0.5305 0.10713 0.27152 0.0
C91 C 0.517 0.12451 0.26212 0.0
H92 H 0.58229 0.12343 0.2533 0.0
H93 H 0.52244 0.0946 0.28236 0.0
H94 H 0.62146 0.08252 0.26411 0.0
H95 H 0.62004 0.11155 0.32999 0.0
H96 H 0.49865 0.02806 0.25655 0.0
H97 H 0.56007 0.15499 0.23712 0.0
H98 H 0.49865 0.12384 0.26484 0.0
C99 C 0.24055 0.32697 0.46594 0.0
C100 C 0.24373 0.34355 0.48263 0.0
N101 N 0.24899 0.36342 0.47206 0.0
N102 N 0.244 0.33645 0.4451 0.0
C103 C 0.24921 0.35863 0.44944 0.0
H104 H 0.23683 0.30899 0.46881 0.0
Co105 Co 0.24584 0.32118 0.41702 0.0
C106 C 0.22953 0.35589 0.38449 0.0
O107 O 0.21578 0.34045 0.37539 0.0
N108 N 0.24968 0.30542 0.38903 0.0
C109 C 0.26147 0.27757 0.36544 0.0
C110 C 0.25104 0.2824 0.38609 0.0
C111 C 0.26065 0.31403 0.37043 0.0
N112 N 0.26773 0.29756 0.3558 0.0
O113 O 0.27794 0.32443 0.41826 0.0
H114 H 0.24757 0.2698 0.39925 0.0
H115 H 0.26557 0.33185 0.3687 0.0
O116 O 0.24306 0.35029 0.40082 0.0
C117 C 0.28753 0.30801 0.42889 0.0
O118 O 0.27468 0.2913 0.43697 0.0
N119 N 0.2134 0.31745 0.41699 0.0
C120 C 0.16713 0.31028 0.42783 0.0
C121 C 0.177 0.33222 0.42959 0.0
C122 C 0.19995 0.33546 0.42385 0.0
C123 C 0.20371 0.29635 0.41389 0.0
C124 C 0.18051 0.29264 0.41829 0.0
H125 H 0.20727 0.35229 0.42657 0.0
H126 H 0.21388 0.28173 0.40947 0.0
H127 H 0.25427 0.37086 0.43641 0.0
H128 H 0.24271 0.34113 0.50104 0.0
H129 H 0.26638 0.26072 0.3593 0.0
H130 H 0.16787 0.34657 0.437 0.0
H131 H 0.17371 0.27555 0.41566 0.0
C132 C 0.53609 0.56129 0.26369 0.0
C133 C 0.51669 0.57207 0.25542 0.0
N134 N 0.49862 0.56508 0.26806 0.0
N135 N 0.53013 0.54764 0.28141 0.0
C136 C 0.50728 0.55025 0.28358 0.0
H137 H 0.55329 0.56281 0.25689 0.0
Co138 Co 0.54822 0.52705 0.29745 0.0
C139 C 0.53417 0.53202 0.34594 0.0
O140 O 0.55585 0.53065 0.35198 0.0
N141 N 0.56611 0.50516 0.31336 0.0
C142 C 0.59232 0.48272 0.32993 0.0
C143 C 0.58889 0.50188 0.31647 0.0
C144 C 0.55629 0.48735 0.32458 0.0
N145 N 0.57171 0.47363 0.33492 0.0
O146 O 0.52908 0.50283 0.28695 0.0
H147 H 0.60246 0.51242 0.30968 0.0
H148 H 0.53791 0.485 0.32592 0.0
O149 O 0.52865 0.5307 0.32469 0.0
C150 C 0.53375 0.49415 0.26749 0.0
O151 O 0.55123 0.50235 0.25583 0.0
N152 N 0.56724 0.55163 0.30646 0.0
C153 C 0.59554 0.58927 0.31559 0.0
C154 C 0.57301 0.5885 0.32396 0.0
C155 C 0.55902 0.56985 0.31876 0.0
C156 C 0.58841 0.55293 0.29661 0.0
C157 C 0.60314 0.57127 0.30146 0.0
H158 H 0.54125 0.57067 0.32388 0.0
H159 H 0.59373 0.53991 0.28448 0.0
H160 H 0.49699 0.54051 0.29559 0.0
H161 H 0.51592 0.58382 0.24105 0.0
H162 H 0.60869 0.47602 0.33558 0.0
H163 H 0.5658 0.6027 0.33358 0.0
H164 H 0.62009 0.5715 0.29388 0.0
C165 C 0.8027 0.22858 0.54896 0.0
C166 C 0.80926 0.20955 0.53641 0.0
N167 N 0.81274 0.19203 0.55114 0.0
N168 N 0.80202 0.22294 0.5714 0.0
C169 C 0.80861 0.2008 0.57217 0.0
H170 H 0.79808 0.24522 0.54214 0.0
Co171 Co 0.79253 0.24023 0.59635 0.0
C172 C 0.76262 0.20876 0.62286 0.0
O173 O 0.74748 0.22519 0.626 0.0
N174 N 0.78351 0.25765 0.62236 0.0
C175 C 0.77686 0.28523 0.64818 0.0
C176 C 0.77523 0.27918 0.6253 0.0
C177 C 0.78969 0.2511 0.64375 0.0
N178 N 0.78635 0.26758 0.65957 0.0
O179 O 0.82141 0.23483 0.61057 0.0
H180 H 0.77005 0.29073 0.61184 0.0
H181 H 0.79811 0.23495 0.64744 0.0
O182 O 0.78081 0.21266 0.61125 0.0
C183 C 0.83507 0.25116 0.61535 0.0
O184 O 0.82967 0.27226 0.60944 0.0
N185 N 0.76475 0.24559 0.58131 0.0
C186 C 0.72512 0.2554 0.55667 0.0
C187 C 0.73034 0.23276 0.56285 0.0
C188 C 0.75045 0.22816 0.57479 0.0
C189 C 0.76122 0.26725 0.57328 0.0
C190 C 0.74115 0.27274 0.56147 0.0
H191 H 0.75473 0.21046 0.57822 0.0
H192 H 0.77421 0.28027 0.57572 0.0
H193 H 0.81033 0.19127 0.588 0.0
H194 H 0.81065 0.20853 0.5179 0.0
H195 H 0.77327 0.30198 0.65544 0.0
H196 H 0.71916 0.21862 0.55821 0.0
H197 H 0.73822 0.29037 0.55637 0.0
C198 C 0.07077 0.48904 0.76266 0.0
C199 C 0.09315 0.48519 0.75572 0.0
N200 N 0.10725 0.4915 0.77298 0.0
N201 N 0.07098 0.49778 0.78411 0.0
C202 C 0.09334 0.49905 0.78982 0.0
H203 H 0.05548 0.48665 0.7524 0.0
Co204 Co 0.04767 0.51057 0.80156 0.0
C205 C 0.05615 0.4906 0.84794 0.0
O206 O 0.03399 0.48793 0.85126 0.0
N207 N 0.02462 0.52494 0.81936 0.0
C208 C 0.99352 0.54311 0.83243 0.0
C209 C 0.00254 0.53042 0.81464 0.0
C210 C 0.02887 0.53595 0.83941 0.0
N211 N 0.01022 0.54658 0.84794 0.0
O212 O 0.0641 0.53864 0.80269 0.0
H213 H 0.99358 0.52681 0.79888 0.0
H214 H 0.04552 0.53635 0.84761 0.0
O215 O 0.0634 0.49998 0.82944 0.0
C216 C 0.06058 0.55243 0.78619 0.0
O217 O 0.04744 0.54575 0.76908 0.0
N218 N 0.03094 0.48275 0.79967 0.0
C219 C 0.00016 0.44771 0.80913 0.0
C220 C 0.02369 0.44478 0.81356 0.0
C221 C 0.03897 0.46246 0.80822 0.0
C222 C 0.00965 0.48338 0.79013 0.0
C223 C 0.99354 0.46646 0.79547 0.0
H224 H 0.05684 0.46056 0.81277 0.0
H225 H 0.0047 0.49773 0.77958 0.0
H226 H 0.09939 0.50703 0.80549 0.0
H227 H 0.09861 0.47894 0.73908 0.0
H228 H 0.9763 0.54998 0.83347 0.0
H229 H 0.03008 0.42967 0.8223 0.0
H230 H 0.97592 0.46906 0.79026 0.0
C231 C 0.78848 0.84039 0.02161 0.0
C232 C 0.79434 0.86126 0.01192 0.0
N233 N 0.79036 0.87788 0.02757 0.0
N234 N 0.7808 0.84404 0.04314 0.0
C235 C 0.78228 0.86691 0.04624 0.0
H236 H 0.78853 0.82388 0.01306 0.0
Co237 Co 0.76587 0.82441 0.0632 0.0
C238 C 0.78685 0.83561 0.10877 0.0
O239 O 0.78734 0.81387 0.11485 0.0
N240 N 0.74991 0.80508 0.08374 0.0
C241 C 0.73367 0.77677 0.10376 0.0
C242 C 0.74655 0.78208 0.08468 0.0
C243 C 0.73804 0.81326 0.10195 0.0
N244 N 0.72837 0.79648 0.11455 0.0
O245 O 0.74036 0.84446 0.06347 0.0
H246 H 0.75284 0.7696 0.07256 0.0
H247 H 0.73732 0.83129 0.10648 0.0
O248 O 0.77913 0.84131 0.08904 0.0
C249 C 0.72728 0.84297 0.0461 0.0
O250 O 0.73282 0.82877 0.02943 0.0
N251 N 0.79051 0.80407 0.06141 0.0
C252 C 0.82166 0.76808 0.05998 0.0
C253 C 0.82763 0.78907 0.07032 0.0
C254 C 0.81191 0.80712 0.07042 0.0
C255 C 0.78589 0.78528 0.0483 0.0
C256 C 0.80091 0.76672 0.04788 0.0
H257 H 0.81688 0.82328 0.07802 0.0
H258 H 0.76968 0.78414 0.0393 0.0
H259 H 0.77558 0.87556 0.06127 0.0
H260 H 0.80005 0.86404 0.99446 0.0
H261 H 0.72867 0.75974 0.10932 0.0
H262 H 0.84414 0.79143 0.07853 0.0
H263 H 0.79573 0.75116 0.03908 0.0
C264 C 0.74639 0.07909 0.00926 0.0
C265 C 0.75662 0.05878 0.0028 0.0
N266 N 0.74981 0.0423 0.0175 0.0
N267 N 0.7329 0.07526 0.0277 0.0
C268 C 0.73539 0.05272 0.03236 0.0
H269 H 0.74917 0.09571 0.00146 0.0
Co270 Co 0.71728 0.09704 0.04494 0.0
C271 C 0.66965 0.08112 0.04866 0.0
O272 O 0.66348 0.10254 0.04519 0.0
N273 N 0.70224 0.11908 0.06339 0.0
C274 C 0.68328 0.14813 0.07969 0.0
C275 C 0.69562 0.14121 0.06066 0.0
C276 C 0.69433 0.11342 0.08446 0.0
N277 N 0.68266 0.13053 0.09461 0.0
O278 O 0.73124 0.08483 0.07198 0.0
H279 H 0.69857 0.15163 0.04567 0.0
H280 H 0.69559 0.09631 0.09162 0.0
O281 O 0.69104 0.07591 0.04914 0.0
C282 C 0.75127 0.09099 0.078 0.0
O283 O 0.76237 0.10604 0.06538 0.0
N284 N 0.70456 0.10867 0.01731 0.0
C285 C 0.69473 0.12127 0.97194 0.0
C286 C 0.68675 0.10049 0.98102 0.0
C287 C 0.69231 0.0943 0.00332 0.0
C288 C 0.71251 0.12905 0.00889 0.0
C289 C 0.70743 0.13591 0.98638 0.0
H290 H 0.68849 0.0769 0.00833 0.0
H291 H 0.7242 0.1393 0.01906 0.0
H292 H 0.72725 0.04427 0.04677 0.0
H293 H 0.76895 0.05655 0.98907 0.0
H294 H 0.67491 0.16455 0.0821 0.0
H295 H 0.67815 0.08789 0.97037 0.0
H296 H 0.71453 0.15186 0.97996 0.0
C297 C 0.29448 0.57681 0.23406 0.0
C298 C 0.31667 0.58431 0.23023 0.0
N299 N 0.33101 0.5705 0.24198 0.0
N300 N 0.2951 0.55817 0.2478 0.0
C301 C 0.31751 0.55479 0.25225 0.0
H302 H 0.27891 0.58492 0.22804 0.0
Co303 Co 0.27149 0.54266 0.26245 0.0
C304 C 0.27989 0.49401 0.25136 0.0
O305 O 0.25757 0.49147 0.24935 0.0
N306 N 0.24815 0.52828 0.27937 0.0
C307 C 0.21775 0.52334 0.30216 0.0
C308 C 0.22773 0.53724 0.28583 0.0
C309 C 0.25099 0.51017 0.29356 0.0
N310 N 0.23262 0.50643 0.30702 0.0
O311 O 0.2867 0.54759 0.29092 0.0
H312 H 0.22111 0.55362 0.28014 0.0
H313 H 0.26666 0.50032 0.29475 0.0
O314 O 0.28812 0.51332 0.25817 0.0
C315 C 0.28228 0.5645 0.30397 0.0
O316 O 0.26727 0.57994 0.29728 0.0
N317 N 0.25653 0.537 0.23336 0.0
C318 C 0.23809 0.50905 0.19918 0.0
C319 C 0.26116 0.51571 0.19831 0.0
C320 C 0.27008 0.52964 0.21557 0.0
C321 C 0.23325 0.53521 0.23119 0.0
C322 C 0.22365 0.52059 0.21465 0.0
H323 H 0.28849 0.53149 0.21613 0.0
H324 H 0.22193 0.5433 0.24323 0.0
H325 H 0.32376 0.54152 0.26366 0.0
H326 H 0.32174 0.59944 0.22069 0.0
H327 H 0.20146 0.52609 0.31068 0.0
H328 H 0.2728 0.50854 0.1857 0.0
H329 H 0.20543 0.51705 0.21534 0.0
C330 C 0.89005 0.00239 0.52156 0.0
C331 C 0.8739 0.01883 0.51602 0.0
N332 N 0.87519 0.03564 0.53184 0.0
N333 N 0.90167 0.0093 0.54043 0.0
C334 C 0.89202 0.02944 0.54637 0.0
H335 H 0.89336 0.98669 0.5122 0.0
Co336 Co 0.92622 0.99592 0.55568 0.0
C337 C 0.96176 0.03167 0.55751 0.0
O338 O 0.97667 0.01622 0.55061 0.0
N339 N 0.95097 0.98275 0.5722 0.0
C340 C 0.98448 0.96875 0.58452 0.0
C341 C 0.96873 0.96875 0.56674 0.0
C342 C 0.95614 0.99028 0.59357 0.0
N343 N 0.97621 0.98217 0.60136 0.0
O344 O 0.91003 0.00011 0.58381 0.0
H345 H 0.97133 0.96051 0.55035 0.0
H346 H 0.94657 0.00346 0.60253 0.0
O347 O 0.94062 0.02618 0.55973 0.0
C348 C 0.89605 0.98471 0.5904 0.0
O349 O 0.89355 0.9661 0.57785 0.0
N350 N 0.94048 0.99105 0.527 0.0
C351 C 0.94522 0.98193 0.48007 0.0
C352 C 0.94699 0.00443 0.48853 0.0
C353 C 0.94423 0.00866 0.51192 0.0
C354 C 0.93978 0.96895 0.51925 0.0
C355 C 0.94255 0.96395 0.49592 0.0
H356 H 0.94246 0.02632 0.51726 0.0
H357 H 0.93518 0.95528 0.53095 0.0
H358 H 0.89756 0.03968 0.56089 0.0
H359 H 0.8621 0.01843 0.50167 0.0
H360 H 0.00117 0.96062 0.58456 0.0
H361 H 0.94814 0.01898 0.47701 0.0
H362 H 0.94102 0.94631 0.49023 0.0
C363 C 0.30766 0.54417 0.77701 0.0
C364 C 0.28919 0.53224 0.7682 0.0
N365 N 0.27028 0.53872 0.77979 0.0
N366 N 0.30027 0.55835 0.7938 0.0
C367 C 0.27747 0.55458 0.79509 0.0
H368 H 0.32539 0.54221 0.7719 0.0
Co369 Co 0.31722 0.57711 0.81335 0.0
C370 C 0.29674 0.62295 0.80943 0.0
O371 O 0.31766 0.63137 0.8087 0.0
N372 N 0.33389 0.5958 0.83419 0.0
C373 C 0.3581 0.61766 0.85438 0.0
C374 C 0.35567 0.60385 0.83524 0.0
C375 C 0.32376 0.6047 0.85312 0.0
N376 N 0.33794 0.61803 0.86559 0.0
O377 O 0.30147 0.56385 0.83869 0.0
H378 H 0.36908 0.60049 0.82296 0.0
H379 H 0.3058 0.60227 0.85718 0.0
O380 O 0.29374 0.60121 0.81105 0.0
C381 C 0.31084 0.54608 0.84718 0.0
O382 O 0.33031 0.53884 0.83838 0.0
N383 N 0.33335 0.58839 0.78768 0.0
C384 C 0.35673 0.59439 0.74619 0.0
C385 C 0.33415 0.60224 0.74886 0.0
C386 C 0.32263 0.59868 0.76951 0.0
C387 C 0.35517 0.58035 0.7853 0.0
C388 C 0.36739 0.58364 0.76492 0.0
H389 H 0.30455 0.60257 0.77008 0.0
H390 H 0.36271 0.57014 0.79884 0.0
H391 H 0.2664 0.56302 0.80741 0.0
H392 H 0.28978 0.51913 0.75501 0.0
H393 H 0.37346 0.62674 0.85958 0.0
H394 H 0.32475 0.60953 0.73457 0.0
H395 H 0.38464 0.57689 0.76357 0.0
C396 C 0.24116 0.45556 0.03721 0.0
C397 C 0.25154 0.47397 0.04775 0.0
N398 N 0.23896 0.49283 0.04332 0.0
N399 N 0.22222 0.46284 0.02612 0.0
C400 C 0.22126 0.48565 0.03019 0.0
H401 H 0.24754 0.43812 0.03678 0.0
Co402 Co 0.20539 0.44439 0.0065 0.0
C403 C 0.15798 0.46247 0.00557 0.0
O404 O 0.15053 0.44119 0.00452 0.0
N405 N 0.18926 0.42551 0.98584 0.0
C406 C 0.16739 0.39954 0.96812 0.0
C407 C 0.18108 0.40379 0.98706 0.0
C408 C 0.18114 0.43357 0.96568 0.0
N409 N 0.1676 0.41839 0.95476 0.0
O410 O 0.21847 0.46042 0.98131 0.0
H411 H 0.18354 0.39221 0.00131 0.0
H412 H 0.18316 0.45121 0.96017 0.0
O413 O 0.17962 0.4664 0.00652 0.0
C414 C 0.23778 0.45435 0.97325 0.0
O415 O 0.2483 0.43655 0.98224 0.0
N416 N 0.19384 0.42878 0.03249 0.0
C417 C 0.19163 0.41307 0.07776 0.0
C418 C 0.17833 0.4317 0.07052 0.0
C419 C 0.18042 0.43981 0.04828 0.0
C420 C 0.20522 0.40922 0.03855 0.0
C421 C 0.20443 0.40106 0.06121 0.0
H422 H 0.17357 0.45665 0.04529 0.0
H423 H 0.21691 0.40134 0.02646 0.0
H424 H 0.20872 0.49702 0.02255 0.0
H425 H 0.26743 0.47368 0.05738 0.0
H426 H 0.15722 0.38428 0.96501 0.0
H427 H 0.16897 0.44222 0.08268 0.0
H428 H 0.21533 0.38684 0.06616 0.0
C429 C 0.82843 0.0492 0.28075 0.0
C430 C 0.81124 0.06344 0.28862 0.0
N431 N 0.79139 0.05158 0.28826 0.0
N432 N 0.81933 0.02861 0.27533 0.0
C433 C 0.79675 0.03056 0.28014 0.0
H434 H 0.84616 0.0539 0.27796 0.0
Co435 Co 0.83419 0.00553 0.25931 0.0
C436 C 0.81302 0.96217 0.27407 0.0
O437 O 0.83374 0.95331 0.27481 0.0
N438 N 0.84897 0.9823 0.24183 0.0
C439 C 0.87154 0.95631 0.22493 0.0
C440 C 0.87064 0.97399 0.24069 0.0
C441 C 0.83735 0.96968 0.22611 0.0
N442 N 0.85052 0.95375 0.21577 0.0
O443 O 0.81708 0.01388 0.23266 0.0
H444 H 0.88512 0.97992 0.25053 0.0
H445 H 0.81915 0.97154 0.22293 0.0
O446 O 0.81035 0.98318 0.26809 0.0
C447 C 0.82701 0.02837 0.21968 0.0
O448 O 0.84751 0.03579 0.22548 0.0
N449 N 0.85166 -0.0009 0.2859 0.0
C450 C 0.87904 0.9915 0.32453 0.0
C451 C 0.85527 0.98788 0.32539 0.0
C452 C 0.84183 0.99239 0.30613 0.0
C453 C 0.87427 0.00511 0.28552 0.0
C454 C 0.88845 0.0009 0.30445 0.0
H455 H 0.82345 0.99074 0.3077 0.0
H456 H 0.88138 0.01314 0.27037 0.0
H457 H 0.78416 0.01746 0.27619 0.0
H458 H 0.81301 0.08132 0.29343 0.0
H459 H 0.88649 0.94623 0.22047 0.0
H460 H 0.84699 0.9821 0.34101 0.0
H461 H 0.90658 0.00482 0.30326 0.0
C462 C 0.3226 0.54916 0.52336 0.0
C463 C 0.3064 0.53213 0.52627 0.0
N464 N 0.31551 0.51216 0.51896 0.0
N465 N 0.34167 0.5399 0.51413 0.0
C466 C 0.33684 0.51735 0.51166 0.0
H467 H 0.32033 0.56727 0.52685 0.0
Co468 Co 0.36695 0.55588 0.50337 0.0
C469 C 0.40625 0.52464 0.50895 0.0
O470 O 0.41825 0.54212 0.51674 0.0
N471 N 0.39245 0.57208 0.49136 0.0
C472 C 0.42206 0.59472 0.48242 0.0
C473 C 0.4041 0.59128 0.49747 0.0
C474 C 0.40346 0.56465 0.4723 0.0
N475 N 0.42148 0.57791 0.46658 0.0
O476 O 0.35692 0.55014 0.47278 0.0
H477 H 0.40035 0.60217 0.51195 0.0
H478 H 0.39894 0.54902 0.46328 0.0
O479 O 0.38529 0.52756 0.50305 0.0
C480 C 0.34439 0.56607 0.46468 0.0
O481 O 0.33955 0.58376 0.47788 0.0
N482 N 0.37504 0.56252 0.53393 0.0
C483 C 0.38103 0.57499 0.57987 0.0
C484 C 0.38344 0.55205 0.57289 0.0
C485 C 0.37982 0.54609 0.54997 0.0
C486 C 0.37115 0.58459 0.54067 0.0
C487 C 0.37462 0.59136 0.56341 0.0
H488 H 0.37994 0.5281 0.54545 0.0
H489 H 0.36491 0.59698 0.52833 0.0
H490 H 0.34815 0.50518 0.50335 0.0
H491 H 0.28909 0.53433 0.53264 0.0
H492 H 0.43457 0.60845 0.48312 0.0
H493 H 0.38704 0.5386 0.58521 0.0
H494 H 0.37196 0.60917 0.56808 0.0
C495 C 0.80085 -0.0005 0.79326 0.0
C496 C 0.82211 0.99472 0.8026 0.0
N497 N 0.8354 0.01346 0.80001 0.0
N498 N 0.80104 0.02104 0.78474 0.0
C499 C 0.82238 0.02898 0.78898 0.0
H500 H 0.78656 0.98773 0.79177 0.0
Co501 Co 0.77902 0.03469 0.76624 0.0
C502 C 0.78225 0.08394 0.7771 0.0
O503 O 0.75973 0.08464 0.77606 0.0
N504 N 0.75765 0.0473 0.74564 0.0
C505 C 0.73084 0.05072 0.71843 0.0
C506 C 0.73844 0.03774 0.73673 0.0
C507 C 0.76227 0.0649 0.73127 0.0
N508 N 0.7461 0.06767 0.71506 0.0
O509 O 0.79875 0.02988 0.7407 0.0
H510 H 0.73139 0.02134 0.74183 0.0
H511 H 0.7779 0.07492 0.73188 0.0
O512 O 0.79278 0.06529 0.77191 0.0
C513 C 0.79764 0.01125 0.72936 0.0
O514 O 0.78277 0.99547 0.73561 0.0
N515 N 0.75957 0.03968 0.79259 0.0
C516 C 0.73364 0.06121 0.8266 0.0
C517 C 0.75741 0.0593 0.82883 0.0
C518 C 0.76999 0.04831 0.81186 0.0
C519 C 0.73615 0.03796 0.7922 0.0
C520 C 0.72276 0.04907 0.80889 0.0
H521 H 0.7884 0.04929 0.81325 0.0
H522 H 0.7275 0.02909 0.77858 0.0
H523 H 0.8288 0.04533 0.78294 0.0
H524 H 0.82757 0.97864 0.81015 0.0
H525 H 0.71625 0.04708 0.70751 0.0
H526 H 0.76644 0.06746 0.84292 0.0
H527 H 0.70426 0.0492 0.8072 0.0
C528 C 0.00562 0.68715 0.04508 0.0
C529 C 0.00518 0.70574 0.03042 0.0
N530 N 0.00873 0.69798 0.00891 0.0
N531 N 0.00964 0.66793 0.03281 0.0
C532 C 0.01144 0.67509 0.01085 0.0
H533 H 0.00399 0.68766 0.06358 0.0
Co534 Co 0.01532 0.63897 0.04467 0.0
C535 C 0.00391 0.60654 0.00783 0.0
O536 O 0.99273 0.5941 0.02298 0.0
N537 N 0.02218 0.6096 0.05669 0.0
C538 C 0.02569 0.57565 0.07416 0.0
C539 C 0.01315 0.59575 0.07306 0.0
C540 C 0.04011 0.59749 0.04837 0.0
N541 N 0.04274 0.57705 0.05868 0.0
O542 O 0.04706 0.64448 0.0407 0.0
H543 H -0.00167 0.59948 0.08347 0.0
H544 H 0.05072 0.60321 0.03423 0.0
O545 O 0.01362 0.62525 0.01403 0.0
C546 C 0.05676 0.65203 0.05873 0.0
O547 O 0.04434 0.65487 0.07736 0.0
N548 N 0.98388 0.63556 0.04979 0.0
C549 C 0.93863 0.64647 0.06083 0.0
C550 C 0.94527 0.64316 0.03789 0.0
C551 C 0.96801 0.63806 0.03271 0.0
C552 C 0.9776 0.63794 0.07219 0.0
C553 C 0.95493 0.64263 0.07815 0.0
H554 H 0.97313 0.63867 0.01492 0.0
H555 H 0.9906 0.6381 0.08544 0.0
H556 H 0.01596 0.664 0.99663 0.0
H557 H 0.00298 0.72358 0.03521 0.0
H558 H 0.02257 0.56123 0.08546 0.0
H559 H 0.93368 0.64682 0.02383 0.0
H560 H 0.95069 0.64505 0.0961 0.0
C561 C 0.52044 0.85463 0.06711 0.0
C562 C 0.52159 0.83849 0.08441 0.0
N563 N 0.52228 0.84971 0.10464 0.0
N564 N 0.52068 0.87581 0.0765 0.0
C565 C 0.52177 0.87222 0.09936 0.0
H566 H 0.52036 0.85123 0.04884 0.0
Co567 Co 0.52297 0.90328 0.0606 0.0
C568 C 0.50955 0.93909 0.09338 0.0
O569 O 0.49606 0.94792 0.0776 0.0
N570 N 0.52641 0.93131 0.04448 0.0
C571 C 0.5285 0.96105 0.02037 0.0
C572 C 0.51686 0.94103 0.02565 0.0
C573 C 0.54344 0.94595 0.05031 0.0
N574 N 0.54541 0.96377 0.03584 0.0
O575 O 0.55525 0.9015 0.06374 0.0
H576 H 0.50285 0.93404 0.01578 0.0
H577 H 0.55458 0.94345 0.06497 0.0
O578 O 0.52098 0.92087 0.08905 0.0
C579 C 0.56512 0.89427 0.04568 0.0
O580 O 0.55248 0.88925 0.02764 0.0
N581 N 0.49126 0.90274 0.05644 0.0
C582 C 0.44826 0.88331 0.0485 0.0
C583 C 0.45436 0.89109 0.0705 0.0
C584 C 0.47604 0.90056 0.07417 0.0
C585 C 0.4852 0.89625 0.03481 0.0
C586 C 0.46353 0.88727 0.0303 0.0
H587 H 0.48134 0.90354 0.09168 0.0
H588 H 0.49799 0.89586 0.02138 0.0
H589 H 0.52347 0.88576 0.11198 0.0
H590 H 0.52245 0.82003 0.0823 0.0
H591 H 0.5254 0.97215 0.00579 0.0
H592 H 0.44352 0.88779 0.08524 0.0
H593 H 0.4596 0.88165 0.013 0.0
C594 C 0.45928 0.29819 0.20837 0.0
C595 C 0.47168 0.28815 0.22577 0.0
N596 N 0.45958 0.29024 0.24535 0.0
N597 N 0.43954 0.30659 0.21704 0.0
C598 C 0.44018 0.30148 0.23961 0.0
H599 H 0.46456 0.29987 0.19065 0.0
Co600 Co 0.41861 0.32367 0.20044 0.0
C601 C 0.37388 0.31845 0.22301 0.0
O602 O 0.36495 0.31547 0.20249 0.0
N603 N 0.39801 0.34189 0.18354 0.0
C604 C 0.37286 0.35839 0.15985 0.0
C605 C 0.38775 0.34008 0.16277 0.0
C606 C 0.38941 0.36146 0.19253 0.0
N607 N 0.3743 0.37183 0.17861 0.0
O608 O 0.43085 0.35061 0.21422 0.0
H609 H 0.39021 0.32612 0.1508 0.0
H610 H 0.39312 0.36744 0.20974 0.0
O611 O 0.39557 0.32142 0.22513 0.0
C612 C 0.44676 0.36033 0.2029 0.0
O613 O 0.45288 0.3515 0.18304 0.0
N614 N 0.40885 0.29627 0.18642 0.0
C615 C 0.42265 0.25188 0.17534 0.0
C616 C 0.40776 0.25581 0.19384 0.0
C617 C 0.40136 0.27814 0.19933 0.0
C618 C 0.42003 0.29237 0.16621 0.0
C619 C 0.42707 0.27018 0.16025 0.0
H620 H 0.39401 0.28056 0.21609 0.0
H621 H 0.42684 0.30675 0.15663 0.0
H622 H 0.42728 0.30686 0.25185 0.0
H623 H 0.48848 0.28037 0.22426 0.0
H624 H 0.36171 0.36142 0.1453 0.0
H625 H 0.40396 0.24248 0.20623 0.0
H626 H 0.43821 0.26791 0.14554 0.0
C627 C 0.01701 0.2984 0.62194 0.0
C628 C 0.01001 0.31432 0.63802 0.0
N629 N 0.01303 0.30511 0.65898 0.0
N630 N 0.02422 0.27924 0.63283 0.0
C631 C 0.02151 0.28393 0.65535 0.0
H632 H 0.01523 0.30005 0.60353 0.0
Co633 Co 0.02882 0.25026 0.61994 0.0
C634 C 0.07013 0.25294 0.6527 0.0
O635 O 0.06954 0.27475 0.6584 0.0
N636 N 0.03318 0.22125 0.60702 0.0
C637 C 0.04998 0.19076 0.59151 0.0
C638 C 0.05345 0.21238 0.60024 0.0
C639 C 0.01759 0.20479 0.60205 0.0
N640 N 0.02739 0.18597 0.59266 0.0
O641 O 0.00993 0.23717 0.64313 0.0
H642 H 0.06975 0.22118 0.6014 0.0
H643 H -0.00062 0.20666 0.60496 0.0
O644 O 0.05554 0.24451 0.63872 0.0
C645 C 0.98943 0.24052 0.63662 0.0
O646 O 0.98577 0.25064 0.61679 0.0
N647 N 0.04523 0.26309 0.59614 0.0
C648 C 0.06331 0.27865 0.55509 0.0
C649 C 0.07581 0.28113 0.57557 0.0
C650 C 0.06638 0.27311 0.59618 0.0
C651 C 0.03251 0.26175 0.57658 0.0
C652 C 0.04131 0.26921 0.55579 0.0
H653 H 0.07609 0.27468 0.61186 0.0
H654 H 0.01553 0.25426 0.57716 0.0
H655 H 0.02376 0.27128 0.66879 0.0
H656 H 0.00206 0.33077 0.63458 0.0
H657 H 0.0632 0.17936 0.58516 0.0
H658 H 0.09292 0.2884 0.57549 0.0
H659 H 0.03115 0.26728 0.54031 0.0
C660 C 0.06296 0.7724 0.82478 0.0
C661 C 0.04683 0.7715 0.84208 0.0
N662 N 0.05743 0.76468 0.86147 0.0
N663 N 0.08349 0.76602 0.83329 0.0
C664 C 0.07957 0.76144 0.85566 0.0
H665 H 0.0598 0.77654 0.80695 0.0
Co666 Co 0.10987 0.76085 0.81642 0.0
C667 C 0.14816 0.76927 0.84825 0.0
O668 O 0.15883 0.78055 0.83187 0.0
N669 N 0.13665 0.75451 0.79906 0.0
C670 C 0.16556 0.75136 0.77413 0.0
C671 C 0.146 0.7634 0.77971 0.0
C672 C 0.15076 0.73687 0.80449 0.0
N673 N 0.16839 0.73461 0.78974 0.0
O674 O 0.10488 0.72877 0.81922 0.0
H675 H 0.13932 0.77749 0.76981 0.0
H676 H 0.14835 0.72607 0.81941 0.0
O677 O 0.12833 0.76065 0.84448 0.0
C678 C 0.0947 0.72006 0.80198 0.0
O679 O 0.08831 0.73371 0.78519 0.0
N680 N 0.11312 0.79266 0.81277 0.0
C681 C 0.11438 0.83966 0.80345 0.0
C682 C 0.11723 0.83152 0.82596 0.0
C683 C 0.1161 0.80796 0.83033 0.0
C684 C 0.1081 0.80038 0.79132 0.0
C685 C 0.10948 0.82366 0.78604 0.0
H686 H 0.11702 0.80219 0.84792 0.0
H687 H 0.10305 0.78829 0.77814 0.0
H688 H 0.09235 0.7545 0.86721 0.0
H689 H 0.02866 0.77498 0.84043 0.0
H690 H 0.17659 0.75445 0.75949 0.0
H691 H 0.11964 0.84322 0.84022 0.0
H692 H 0.1067 0.82893 0.76845 0.0
C693 C 0.50218 0.27155 0.44577 0.0
C694 C 0.50167 0.26139 0.42438 0.0
N695 N 0.50228 0.27818 0.40851 0.0
N696 N 0.50287 0.29456 0.44321 0.0
C697 C 0.50296 0.29806 0.42033 0.0
H698 H 0.50097 0.26284 0.46213 0.0
Co699 Co 0.49926 0.31589 0.4664 0.0
C700 C 0.52249 0.35786 0.45071 0.0
O701 O 0.53105 0.36015 0.47148 0.0
N702 N 0.49444 0.33768 0.49011 0.0
C703 C 0.49195 0.35901 0.52188 0.0
C704 C 0.50086 0.33922 0.51241 0.0
C705 C 0.48137 0.35658 0.48675 0.0
N706 N 0.4796 0.36978 0.50565 0.0
O707 O 0.46873 0.32024 0.45679 0.0
H708 H 0.51126 0.32704 0.52162 0.0
H709 H 0.47374 0.36096 0.47039 0.0
O710 O 0.50944 0.34078 0.44608 0.0
C711 C 0.45471 0.30687 0.46675 0.0
O712 O 0.46256 0.29237 0.48215 0.0
N713 N 0.52913 0.30961 0.4759 0.0
C714 C 0.57192 0.29468 0.49071 0.0
C715 C 0.56957 0.30591 0.46958 0.0
C716 C 0.54793 0.31277 0.46223 0.0
C717 C 0.53082 0.29687 0.49541 0.0
C718 C 0.55214 0.2898 0.50354 0.0
H719 H 0.54631 0.31991 0.44521 0.0
H720 H 0.51545 0.29204 0.50463 0.0
H721 H 0.50191 0.31483 0.41241 0.0
H722 H 0.50016 0.24321 0.42075 0.0
H723 H 0.49417 0.36485 0.5394 0.0
H724 H 0.58421 0.30882 0.45851 0.0
H725 H 0.55305 0.28066 0.5197 0.0
C726 C 0.93219 0.30144 0.84524 0.0
C727 C 0.94531 0.31365 0.82987 0.0
N728 N 0.93831 0.30817 0.80851 0.0
N729 N 0.91699 0.2884 0.83359 0.0
C730 C 0.92116 0.29283 0.81125 0.0
H731 H 0.93402 0.30156 0.86372 0.0
Co732 Co 0.89677 0.26759 0.84664 0.0
C733 C 0.85684 0.26494 0.81562 0.0
O734 O 0.84322 0.26549 0.83361 0.0
N735 N 0.87697 0.24593 0.85994 0.0
C736 C 0.8505 0.22607 0.87913 0.0
C737 C 0.86317 0.24616 0.8786 0.0
C738 C 0.87275 0.22545 0.84988 0.0
N739 N 0.85675 0.21312 0.86101 0.0
O740 O 0.9155 0.24329 0.8353 0.0
H741 H 0.86153 0.26027 0.89054 0.0
H742 H 0.88006 0.22033 0.83358 0.0
O743 O 0.8786 0.26625 0.81834 0.0
C744 C 0.93284 0.23779 0.84732 0.0
O745 O 0.93633 0.24847 0.86691 0.0
N746 N 0.88009 0.29267 0.85834 0.0
C747 C 0.88593 0.33868 0.86948 0.0
C748 C 0.87416 0.33237 0.84943 0.0
C749 C 0.87167 0.30925 0.844 0.0
C750 C 0.88723 0.29846 0.87988 0.0
C751 C 0.89015 0.32155 0.88593 0.0
H752 H 0.86699 0.30556 0.82654 0.0
H753 H 0.8946 0.28544 0.89087 0.0
H754 H 0.91262 0.28411 0.79723 0.0
H755 H 0.95925 0.32522 0.83406 0.0
H756 H 0.83731 0.22166 0.89144 0.0
H757 H 0.87039 0.34475 0.8361 0.0
H758 H 0.89864 0.32564 0.90197 0.0
C759 C 0.58227 0.81373 0.29799 0.0
C760 C 0.56628 0.81049 0.28082 0.0
N761 N 0.57665 0.81432 0.26051 0.0
N762 N 0.60247 0.81971 0.28844 0.0
C763 C 0.59849 0.81995 0.26561 0.0
H764 H 0.57928 0.81241 0.31627 0.0
Co765 Co 0.62867 0.82825 0.30424 0.0
C766 C 0.66717 0.81944 0.27263 0.0
O767 O 0.67892 0.81106 0.28997 0.0
N768 N 0.65508 0.83802 0.32043 0.0
C769 C 0.68445 0.84519 0.34394 0.0
C770 C 0.66529 0.83173 0.34033 0.0
C771 C 0.66809 0.85566 0.31276 0.0
N772 N 0.68604 0.86028 0.32653 0.0
O773 O 0.62173 0.85945 0.29814 0.0
H774 H 0.65958 0.81836 0.35174 0.0
H775 H 0.66491 0.8645 0.29673 0.0
O776 O 0.64683 0.82702 0.2759 0.0
C777 C 0.61182 0.87111 0.31369 0.0
O778 O 0.60606 0.86093 0.33298 0.0
N779 N 0.6342 0.797 0.31056 0.0
C780 C 0.63851 0.75042 0.32094 0.0
C781 C 0.64022 0.75815 0.29824 0.0
C782 C 0.63738 0.78133 0.29336 0.0
C783 C 0.63069 0.78961 0.33249 0.0
C784 C 0.63328 0.76641 0.33821 0.0
H785 H 0.63689 0.78639 0.27555 0.0
H786 H 0.62535 0.80169 0.34555 0.0
H787 H 0.61102 0.82517 0.25294 0.0
H788 H 0.5484 0.80601 0.2831 0.0
H789 H 0.69623 0.84399 0.35826 0.0
H790 H 0.64265 0.74623 0.28415 0.0
H791 H 0.63087 0.76105 0.35585 0.0
H792 H 0.10419 0.9763 0.74482 0.0
H793 H 0.08911 0.86375 0.7718 0.0
H794 H 0.11232 0.98411 0.81804 0.0
H795 H 0.14145 0.87299 0.82364 0.0
H796 H 0.09079 0.90451 0.76355 0.0
H797 H 0.11326 0.93548 0.74848 0.0
C798 C 0.10831 0.96943 0.76161 0.0
C799 C 0.10705 0.98335 0.78123 0.0
C800 C 0.10227 0.89753 0.77639 0.0
C801 C 0.11679 0.93679 0.7856 0.0
C802 C 0.10133 0.87417 0.78117 0.0
C803 C 0.11539 0.86466 0.79827 0.0
C804 C 0.11713 0.91172 0.78898 0.0
C805 C 0.13013 0.8795 0.81045 0.0
C806 C 0.11327 0.94618 0.76371 0.0
C807 C 0.11296 0.97382 0.80255 0.0
N808 N 0.13042 0.9024 0.80575 0.0
N809 N 0.11726 0.95092 0.80426 0.0
H810 H 0.44568 0.84534 0.02089 0.0
H811 H 0.35086 0.7743 0.01443 0.0
H812 H 0.40606 0.88431 0.07013 0.0
H813 H 0.34214 0.79273 0.0858 0.0
H814 H 0.37884 0.80504 0.01036 0.0
H815 H 0.41564 0.8167 0.0198 0.0
C816 C 0.43035 0.84835 0.03096 0.0
C817 C 0.4284 0.86758 0.04545 0.0
C818 C 0.3711 0.80213 0.02701 0.0
C819 C 0.39389 0.83425 0.04452 0.0
C820 C 0.35516 0.78451 0.0294 0.0
C821 C 0.34442 0.7806 0.05062 0.0
C822 C 0.37642 0.816 0.04599 0.0
C823 C 0.35 0.79508 0.06912 0.0
C824 C 0.41318 0.8318 0.03037 0.0
C825 C 0.40843 0.86975 0.05881 0.0
N826 N 0.36564 0.81219 0.06637 0.0
N827 N 0.39204 0.85311 0.05824 0.0
H828 H 0.46863 0.24972 0.16547 0.0
H829 H 0.53633 0.1583 0.20495 0.0
H830 H 0.41209 0.20754 0.18849 0.0
H831 H 0.48458 0.15959 0.25817 0.0
H832 H 0.51156 0.18216 0.181 0.0
H833 H 0.49525 0.2207 0.17916 0.0
C834 C 0.46165 0.234 0.17253 0.0
C835 C 0.43791 0.23137 0.17611 0.0
C836 C 0.50577 0.17721 0.19797 0.0
C837 C 0.46859 0.19841 0.19258 0.0
C838 C 0.51998 0.1638 0.21183 0.0
C839 C 0.51277 0.15699 0.23389 0.0
C840 C 0.48404 0.18358 0.20603 0.0
C841 C 0.49091 0.16405 0.24129 0.0
C842 C 0.477 0.2175 0.18057 0.0
C843 C 0.43021 0.21066 0.18589 0.0
N844 N 0.47731 0.17683 0.22734 0.0
N845 N 0.44553 0.19531 0.19444 0.0
H846 H 0.06749 0.25009 0.51868 0.0
H847 H 0.13036 0.33937 0.43707 0.0
H848 H 0.08224 0.31928 0.54083 0.0
H849 H 0.15282 0.26903 0.44633 0.0
H850 H 0.10027 0.3326 0.46554 0.0
H851 H 0.0866 0.2581 0.48208 0.0
C852 C 0.07449 0.26707 0.51563 0.0
C853 C 0.07364 0.28403 0.53271 0.0
C854 C 0.11164 0.31867 0.46075 0.0
C855 C 0.09487 0.29331 0.49103 0.0
C856 C 0.12898 0.32247 0.44467 0.0
C857 C 0.14499 0.30505 0.43962 0.0
C858 C 0.10978 0.2971 0.47114 0.0
C859 C 0.14125 0.2832 0.44932 0.0
C860 C 0.08526 0.2716 0.49483 0.0
C861 C 0.08293 0.30574 0.52809 0.0
N862 N 0.12419 0.27995 0.46473 0.0
N863 N 0.0933 0.3098 0.50758 0.0
H864 H 0.62465 0.61111 0.28563 0.0
H865 H 0.66873 0.7191 0.30319 0.0
H866 H 0.59865 0.615 0.35499 0.0
H867 H 0.61108 0.7248 0.34938 0.0
H868 H 0.66556 0.67728 0.30506 0.0
H869 H 0.64228 0.64861 0.29063 0.0
C870 C 0.62322 0.6195 0.30217 0.0
C871 C 0.60985 0.60996 0.3198 0.0
C872 C 0.65366 0.68768 0.31483 0.0
C873 C 0.63 0.65313 0.32565 0.0
C874 C 0.65552 0.71153 0.31388 0.0
C875 C 0.63977 0.72545 0.32569 0.0
C876 C 0.63582 0.67773 0.32759 0.0
C877 C 0.62349 0.71477 0.33986 0.0
C878 C 0.63338 0.641 0.30505 0.0
C879 C 0.60832 0.62195 0.34072 0.0
N880 N 0.62174 0.69151 0.34017 0.0
N881 N 0.61783 0.64313 0.34289 0.0
H882 H 0.58385 0.25495 0.51294 0.0
H883 H 0.71672 0.28633 0.52199 0.0
H884 H 0.61221 0.31858 0.48736 0.0
H885 H 0.68317 0.23661 0.56567 0.0
H886 H 0.67961 0.29531 0.50462 0.0
H887 H 0.62157 0.2447 0.52785 0.0
C888 C 0.59797 0.26682 0.51055 0.0
C889 C 0.59483 0.28776 0.49907 0.0
C890 C 0.68047 0.28241 0.51798 0.0
C891 C 0.63804 0.27592 0.5157 0.0
C892 C 0.70159 0.27736 0.52799 0.0
C893 C 0.70305 0.26072 0.54536 0.0
C894 C 0.66079 0.27061 0.5253 0.0
C895 C 0.68293 0.2493 0.55211 0.0
C896 C 0.6195 0.26089 0.51895 0.0
C897 C 0.61389 0.30218 0.49593 0.0
N898 N 0.66263 0.25446 0.54205 0.0
N899 N 0.63472 0.296 0.50425 0.0
H900 H 0.87423 0.38114 0.85154 0.0
H901 H 0.00294 0.42704 0.85141 0.0
H902 H 0.92959 0.34557 0.88579 0.0
H903 H 0.95696 0.43504 0.79365 0.0
H904 H 0.9736 0.40465 0.87104 0.0
H905 H 0.90177 0.41011 0.83854 0.0
C906 C 0.89197 0.37965 0.85686 0.0
C907 C 0.89957 0.36036 0.86926 0.0
C908 C 0.97 0.41143 0.85409 0.0
C909 C 0.93094 0.39367 0.85474 0.0
C910 C 0.98686 0.42393 0.84263 0.0
C911 C 0.98271 0.43282 0.82054 0.0
C912 C 0.94859 0.40811 0.8437 0.0
C913 C 0.96104 0.42882 0.81066 0.0
C914 C 0.90765 0.39615 0.84932 0.0
C915 C 0.9227 0.35991 0.87623 0.0
N916 N 0.94479 0.4168 0.82233 0.0
N917 N 0.93761 0.3761 0.86859 0.0
H918 H 0.89676 0.64194 0.03914 0.0
H919 H 0.84631 0.75506 0.09777 0.0
H920 H 0.9306 0.67908 0.09387 0.0
H921 H 0.8303 0.73389 0.02842 0.0
H922 H 0.87072 0.7213 0.10188 0.0
H923 H 0.86492 0.66923 0.04126 0.0
C924 C 0.89736 0.65549 0.05188 0.0
C925 C 0.91672 0.65843 0.06598 0.0
C926 C 0.86171 0.72402 0.08584 0.0
C927 C 0.88028 0.68938 0.06863 0.0
C928 C 0.848 0.74342 0.08334 0.0
C929 C 0.83649 0.74757 0.06257 0.0
C930 C 0.8638 0.70852 0.06752 0.0
C931 C 0.83875 0.7314 0.04478 0.0
C932 C 0.87919 0.67102 0.05305 0.0
C933 C 0.91616 0.67595 0.08262 0.0
N934 N 0.85225 0.71262 0.04763 0.0
N935 N 0.89839 0.69092 0.08327 0.0
H936 H 0.72787 0.13929 0.94369 0.0
H937 H 0.69317 0.0534 0.8498 0.0
H938 H 0.65968 0.11024 0.94209 0.0
H939 H 0.74546 0.1047 0.83876 0.0
H940 H 0.67734 0.07711 0.88084 0.0
H941 H 0.73147 0.13188 0.90285 0.0
C942 C 0.71328 0.13209 0.93469 0.0
C943 C 0.69373 0.12464 0.94663 0.0
C944 C 0.69197 0.08342 0.87126 0.0
C945 C 0.69822 0.11515 0.89986 0.0
C946 C 0.70099 0.06985 0.85359 0.0
C947 C 0.72106 0.07677 0.84228 0.0
C948 C 0.70329 0.10382 0.87766 0.0
C949 C 0.73043 0.09836 0.84767 0.0
C950 C 0.71545 0.12763 0.91126 0.0
C951 C 0.67546 0.1154 0.93376 0.0
N952 N 0.72178 0.11088 0.86529 0.0
N953 N 0.67844 0.11016 0.91122 0.0
H954 H 0.16189 0.4157 0.11439 0.0
H955 H 0.26255 0.47024 0.18859 0.0
H956 H 0.23372 0.40872 0.09794 0.0
H957 H 0.19523 0.50028 0.18048 0.0
H958 H 0.25018 0.43732 0.166 0.0
H959 H 0.17248 0.43424 0.15062 0.0
C960 C 0.17989 0.41706 0.11886 0.0
C961 C 0.19693 0.41161 0.10265 0.0
C962 C 0.23808 0.45102 0.16944 0.0
C963 C 0.20903 0.43254 0.14391 0.0
C964 C 0.24518 0.47008 0.18203 0.0
C965 C 0.23015 0.4886 0.18595 0.0
C966 C 0.21567 0.45017 0.1609 0.0
C967 C 0.20754 0.48664 0.17781 0.0
C968 C 0.18587 0.42788 0.1394 0.0
C969 C 0.21995 0.41313 0.10961 0.0
N970 N 0.20106 0.46787 0.16547 0.0
N971 N 0.22536 0.42409 0.12949 0.0
H972 H 0.96638 0.00391 0.44379 0.0
H973 H 0.87601 0.95438 0.3531 0.0
H974 H 0.91597 0.95163 0.45893 0.0
H975 H 0.91501 0.01652 0.34239 0.0
H976 H 0.89687 0.94794 0.38885 0.0
H977 H 0.9542 0.00318 0.40357 0.0
C978 C 0.95303 0.99202 0.43865 0.0
C979 C 0.94199 0.97806 0.45497 0.0
C980 C 0.90102 0.96288 0.37858 0.0
C981 C 0.9281 0.97708 0.40892 0.0
C982 C 0.88903 0.96664 0.35823 0.0
C983 C 0.89346 0.98625 0.34491 0.0
C984 C 0.91761 0.97882 0.38578 0.0
C985 C 0.91099 0.00119 0.3521 0.0
C986 C 0.94611 0.99162 0.41567 0.0
C987 C 0.92514 0.96265 0.44712 0.0
N988 N 0.92226 0.99731 0.37219 0.0
N989 N 0.91855 0.96279 0.42476 0.0
H990 H 0.41253 0.55921 0.61115 0.0
H991 H 0.38318 0.56092 0.72623 0.0
H992 H 0.35469 0.60508 0.60484 0.0
H993 H 0.3544 0.62796 0.71304 0.0
H994 H 0.39484 0.55845 0.6863 0.0
H995 H 0.41308 0.56638 0.6525 0.0
C996 C 0.39993 0.57077 0.61846 0.0
C997 C 0.38328 0.58123 0.60452 0.0
C998 C 0.38664 0.57404 0.69221 0.0
C999 C 0.38361 0.58928 0.65187 0.0
C1000 C 0.37994 0.57548 0.71515 0.0
C1001 C 0.36761 0.59463 0.72309 0.0
C1002 C 0.38086 0.59183 0.67699 0.0
C1003 C 0.36346 0.61267 0.70762 0.0
C1004 C 0.40021 0.57479 0.64209 0.0
C1005 C 0.36786 0.59662 0.61483 0.0
N1006 N 0.3697 0.61064 0.68522 0.0
N1007 N 0.36829 0.60003 0.6379 0.0
H1008 H 0.09186 0.21534 0.63584 0.0
H1009 H 0.09757 0.15788 0.7587 0.0
H1010 H 0.08062 0.25311 0.69851 0.0
H1011 H 0.11327 0.12296 0.69515 0.0
H1012 H 0.09829 0.19449 0.73816 0.0
H1013 H 0.1073 0.18349 0.65806 0.0
C1014 C 0.0931 0.21706 0.6543 0.0
C1015 C 0.0847 0.23668 0.6654 0.0
C1016 C 0.10198 0.17883 0.72883 0.0
C1017 C 0.10179 0.20005 0.69114 0.0
C1018 C 0.10144 0.15787 0.74052 0.0
C1019 C 0.1048 0.13713 0.7286 0.0
C1020 C 0.10582 0.17905 0.70502 0.0
C1021 C 0.11041 0.13833 0.70516 0.0
C1022 C 0.10189 0.19886 0.66704 0.0
C1023 C 0.08693 0.23821 0.68934 0.0
N1024 N 0.11036 0.15885 0.69412 0.0
N1025 N 0.0948 0.21988 0.70151 0.0
H1026 H 0.22936 0.79492 0.96962 0.0
H1027 H 0.13514 0.74229 0.88463 0.0
H1028 H 0.19574 0.7301 0.98214 0.0
H1029 H 0.1846 0.79375 0.86453 0.0
H1030 H 0.15307 0.74074 0.92271 0.0
H1031 H 0.2085 0.79822 0.93332 0.0
C1032 C 0.2174 0.78151 0.96483 0.0
C1033 C 0.21436 0.76215 0.9788 0.0
C1034 C 0.15994 0.75235 0.90992 0.0
C1035 C 0.19056 0.76571 0.93731 0.0
C1036 C 0.14972 0.75328 0.88823 0.0
C1037 C 0.15849 0.76807 0.87136 0.0
C1038 C 0.17884 0.76654 0.91479 0.0
C1039 C 0.17738 0.78196 0.87695 0.0
C1040 C 0.20564 0.7833 0.94405 0.0
C1041 C 0.19881 0.74513 0.97167 0.0
N1042 N 0.18688 0.78089 0.89819 0.0
N1043 N 0.18747 0.7473 0.9514 0.0
H1044 H 0.54289 0.9332 0.12598 0.0
H1045 H 0.48788 0.02286 0.21428 0.0
H1046 H 0.48046 0.97059 0.11222 0.0
H1047 H 0.55994 0.00628 0.21353 0.0
H1048 H 0.48216 -0.00247 0.18106 0.0
H1049 H 0.54669 0.95398 0.16244 0.0
C1050 C 0.5299 0.94563 0.13072 0.0
C1051 C 0.51143 0.95034 0.11601 0.0
C1052 C 0.49919 -0.00063 0.18827 0.0
C1053 C 0.51558 0.97392 0.1576 0.0
C1054 C 0.50241 0.01367 0.20725 0.0
C1055 C 0.52442 0.01678 0.21643 0.0
C1056 C 0.51808 0.98787 0.17868 0.0
C1057 C 0.54277 0.00462 0.20666 0.0
C1058 C 0.53212 0.95751 0.15144 0.0
C1059 C 0.49509 0.9666 0.12296 0.0
N1060 N 0.5392 0.99067 0.18829 0.0
N1061 N 0.49753 0.97781 0.14328 0.0
H1062 H 0.26762 0.27363 0.31612 0.0
H1063 H 0.38258 0.33062 0.26786 0.0
H1064 H 0.30323 0.32751 0.3524 0.0
H1065 H 0.33136 0.29924 0.22437 0.0
H1066 H 0.35686 0.32535 0.30094 0.0
H1067 H 0.29431 0.27833 0.28385 0.0
C1068 C 0.28107 0.28644 0.31721 0.0
C1069 C 0.2831 0.30039 0.33671 0.0
C1070 C 0.35134 0.31968 0.2841 0.0
C1071 C 0.31376 0.3057 0.30024 0.0
C1072 C 0.366 0.32262 0.26529 0.0
C1073 C 0.35904 0.31548 0.24335 0.0
C1074 C 0.32985 0.30917 0.28091 0.0
C1075 C 0.33738 0.30518 0.24094 0.0
C1076 C 0.29621 0.28917 0.29886 0.0
C1077 C 0.30083 0.31673 0.33744 0.0
N1078 N 0.32362 0.30223 0.25949 0.0
N1079 N 0.31557 0.31888 0.31948 0.0
H1080 H 0.5062 0.36144 0.40655 0.0
H1081 H 0.59594 0.45984 0.37214 0.0
H1082 H 0.55625 0.39019 0.45314 0.0
H1083 H 0.53572 0.44427 0.33196 0.0
H1084 H 0.58487 0.42995 0.39948 0.0
H1085 H 0.51961 0.38796 0.3767 0.0
C1086 C 0.51998 0.37329 0.4105 0.0
C1087 C 0.53002 0.37371 0.4324 0.0
C1088 C 0.57413 0.433 0.38461 0.0
C1089 C 0.54555 0.4038 0.39838 0.0
C1090 C 0.58056 0.44991 0.36892 0.0
C1091 C 0.56663 0.45465 0.34989 0.0
C1092 C 0.5537 0.42062 0.38114 0.0
C1093 C 0.54673 0.4414 0.34664 0.0
C1094 C 0.52762 0.3884 0.39348 0.0
C1095 C 0.54787 0.38937 0.43656 0.0
N1096 N 0.54081 0.42502 0.36215 0.0
N1097 N 0.55508 0.40375 0.41971 0.0
H1098 H 0.87864 0.25862 0.77443 0.0
H1099 H 0.76832 0.28686 0.6979 0.0
H1100 H 0.81219 0.27301 0.8039 0.0
H1101 H 0.82702 0.24961 0.67259 0.0
H1102 H 0.78568 0.28697 0.73646 0.0
H1103 H 0.86142 0.26015 0.73611 0.0
C1104 C 0.86045 0.2621 0.77284 0.0
C1105 C 0.8468 0.26558 0.79237 0.0
C1106 C 0.79467 0.27872 0.72242 0.0
C1107 C 0.82709 0.26757 0.74869 0.0
C1108 C 0.78482 0.27875 0.70052 0.0
C1109 C 0.79611 0.26796 0.68223 0.0
C1110 C 0.81612 0.26821 0.7258 0.0
C1111 C 0.81753 0.25771 0.68635 0.0
C1112 C 0.85063 0.26294 0.751 0.0
C1113 C 0.82332 0.27007 0.78932 0.0
N1114 N 0.82686 0.25816 0.70767 0.0
N1115 N 0.81421 0.27102 0.76787 0.0
H1116 H 0.97563 0.57549 0.98721 0.0
H1117 H 0.04306 0.57194 0.86904 0.0
H1118 H 0.03202 0.62149 0.9731 0.0
H1119 H 0.97358 0.54757 0.87632 0.0
H1120 H 0.04085 0.58868 0.90763 0.0
H1121 H 0.97611 0.56314 0.94719 0.0
C1122 C 0.98813 0.583 0.97568 0.0
C1123 C 0.00389 0.59946 0.9835 0.0
C1124 C 0.02603 0.57986 0.90067 0.0
C1125 C 0.00457 0.58531 0.93767 0.0
C1126 C 0.02733 0.57022 0.87876 0.0
C1127 C 0.0085 0.55827 0.86961 0.0
C1128 C 0.0059 0.57716 0.91363 0.0
C1129 C 0.9884 0.55677 0.88273 0.0
C1130 C 0.9883 0.57603 0.9528 0.0
C1131 C 0.01958 0.60874 0.96774 0.0
N1132 N 0.98771 0.56586 0.9042 0.0
N1133 N 0.01968 0.60137 0.94557 0.0
H1134 H 0.70087 0.83146 0.12799 0.0
H1135 H 0.70332 0.79323 0.25882 0.0
H1136 H 0.731 0.7679 0.15099 0.0
H1137 H 0.65118 0.83901 0.23281 0.0
H1138 H 0.71684 0.78703 0.21971 0.0
H1139 H 0.68498 0.83741 0.16661 0.0
C1140 C 0.70401 0.81873 0.14117 0.0
C1141 C 0.71725 0.79918 0.1364 0.0
C1142 C 0.70243 0.79842 0.22255 0.0
C1143 C 0.69949 0.80596 0.1804 0.0
C1144 C 0.6948 0.80213 0.24489 0.0
C1145 C 0.6761 0.8167 0.24908 0.0
C1146 C 0.69152 0.8096 0.20423 0.0
C1147 C 0.66564 0.82762 0.23031 0.0
C1148 C 0.69491 0.82208 0.1631 0.0
C1149 C 0.72071 0.78308 0.15394 0.0
N1150 N 0.67358 0.82393 0.20865 0.0
N1151 N 0.71209 0.78695 0.17525 0.0
H1152 H 0.69416 0.10701 0.13277 0.0
H1153 H 0.56665 0.11076 0.18194 0.0
H1154 H 0.64037 0.14798 0.10289 0.0
H1155 H 0.62335 0.08096 0.21919 0.0
H1156 H 0.59335 0.12398 0.15256 0.0
H1157 H 0.66878 0.09756 0.16486 0.0
C1158 C 0.67706 0.11425 0.13319 0.0
C1159 C 0.66926 0.1282 0.11519 0.0
C1160 C 0.59997 0.11459 0.16717 0.0
C1161 C 0.64002 0.11724 0.15156 0.0
C1162 C 0.58471 0.10684 0.18389 0.0
C1163 C 0.59276 0.09459 0.20301 0.0
C1164 C 0.62348 0.10992 0.16946 0.0
C1165 C 0.61638 0.09027 0.2047 0.0
C1166 C 0.66258 0.10885 0.15146 0.0
C1167 C 0.64705 0.13731 0.11654 0.0
N1168 N 0.63091 0.09786 0.18808 0.0
N1169 N 0.63308 0.13143 0.13429 0.0
H1170 H 0.19406 0.48207 0.31527 0.0
H1171 H 0.2597 0.3907 0.394 0.0
H1172 H 0.26515 0.4884 0.33466 0.0
H1173 H 0.19754 0.37556 0.35653 0.0
H1174 H 0.25855 0.42999 0.37914 0.0
H1175 H 0.19151 0.44655 0.33784 0.0
C1176 C 0.20896 0.47617 0.32467 0.0
C1177 C 0.2299 0.48785 0.32293 0.0
C1178 C 0.24513 0.41806 0.37429 0.0
C1179 C 0.22725 0.44749 0.34848 0.0
C1180 C 0.24577 0.39566 0.38273 0.0
C1181 C 0.22885 0.37979 0.37623 0.0
C1182 C 0.22732 0.42464 0.35945 0.0
C1183 C 0.21111 0.38717 0.36172 0.0
C1184 C 0.20759 0.45588 0.33734 0.0
C1185 C 0.24882 0.47956 0.33527 0.0
N1186 N 0.21083 0.40907 0.35376 0.0
N1187 N 0.2471 0.45977 0.34743 0.0
H1188 H 0.96206 0.98003 0.6451 0.0
H1189 H 0.04181 0.0833 0.68422 0.0
H1190 H 0.01549 0.00664 0.60165 0.0
H1191 H 0.01137 0.03668 0.73313 0.0
H1192 H 0.02923 0.05794 0.653 0.0
H1193 H 0.97758 0.00235 0.6774 0.0
C1194 C 0.97747 0.99016 0.64266 0.0
C1195 C 0.9879 0.99123 0.62104 0.0
C1196 C 0.02535 0.0533 0.67058 0.0
C1197 C 0.00509 0.01753 0.65728 0.0
C1198 C 0.03228 0.06787 0.68838 0.0
C1199 C 0.02755 0.06212 0.7113 0.0
C1200 C 0.01327 0.03306 0.67574 0.0
C1201 C 0.0154 0.04176 0.71571 0.0
C1202 C 0.9862 0.00299 0.66093 0.0
C1203 C 0.00741 0.00504 0.61831 0.0
N1204 N 0.00855 0.02804 0.69809 0.0
N1205 N 0.01524 0.01794 0.63618 0.0
H1206 H 0.2742 0.66681 0.99022 0.0
H1207 H 0.35438 0.65968 0.87865 0.0
H1208 H 0.30825 0.7256 0.96052 0.0
H1209 H 0.30734 0.60602 0.89842 0.0
H1210 H 0.34134 0.68262 0.91147 0.0
H1211 H 0.28943 0.6429 0.95916 0.0
C1212 C 0.28486 0.67469 0.97719 0.0
C1213 C 0.28988 0.69826 0.97794 0.0
C1214 C 0.33393 0.66579 0.90866 0.0
C1215 C 0.30751 0.67098 0.94248 0.0
C1216 C 0.34151 0.65264 0.89005 0.0
C1217 C 0.33182 0.631 0.88576 0.0
C1218 C 0.31672 0.65711 0.92318 0.0
C1219 C 0.31501 0.62276 0.90095 0.0
C1220 C 0.29353 0.66104 0.95946 0.0
C1221 C 0.30381 0.70754 0.96058 0.0
N1222 N 0.30798 0.63582 0.91897 0.0
N1223 N 0.31218 0.69387 0.94361 0.0
H1224 H 0.17826 0.44364 0.91758 0.0
H1225 H 0.04672 0.46262 0.88451 0.0
H1226 H 0.12265 0.40736 0.95012 0.0
H1227 H 0.10314 0.49218 0.84659 0.0
H1228 H 0.07418 0.44187 0.90841 0.0
H1229 H 0.1511 0.46023 0.89023 0.0
C1230 C 0.16033 0.43886 0.91862 0.0
C1231 C 0.15262 0.42417 0.93605 0.0
C1232 C 0.08055 0.45288 0.89484 0.0
C1233 C 0.12134 0.44341 0.90526 0.0
C1234 C 0.06488 0.46489 0.88129 0.0
C1235 C 0.07263 0.47927 0.86356 0.0
C1236 C 0.10416 0.45532 0.89073 0.0
C1237 C 0.09637 0.48135 0.86008 0.0
C1238 C 0.14482 0.44839 0.90312 0.0
C1239 C 0.12926 0.41845 0.93677 0.0
N1240 N 0.11128 0.46954 0.87357 0.0
N1241 N 0.11436 0.42834 0.92176 0.0
H1242 H 0.78279 0.8823 0.10516 0.0
H1243 H 0.86562 0.90993 0.21117 0.0
H1244 H 0.81337 0.82944 0.14713 0.0
H1245 H 0.81812 0.95913 0.18297 0.0
H1246 H 0.85075 0.88089 0.18444 0.0
H1247 H 0.79945 0.91141 0.13045 0.0
C1248 C 0.79302 0.8768 0.11968 0.0
C1249 C 0.79663 0.85338 0.12408 0.0
C1250 C 0.84363 0.89807 0.18409 0.0
C1251 C 0.81589 0.88665 0.15297 0.0
C1252 C 0.85223 0.91465 0.19919 0.0
C1253 C 0.843 0.93689 0.19931 0.0
C1254 C 0.82591 0.9039 0.16881 0.0
C1255 C 0.82549 0.94209 0.1836 0.0
C1256 C 0.80249 0.89344 0.13412 0.0
C1257 C 0.81003 0.84729 0.14317 0.0
N1258 N 0.81755 0.92574 0.16896 0.0
N1259 N 0.81925 0.86382 0.15687 0.0
H1260 H 0.48737 0.53465 0.34087 0.0
H1261 H 0.46716 0.58666 0.46657 0.0
H1262 H 0.54154 0.54453 0.39053 0.0
H1263 H 0.41246 0.55877 0.42516 0.0
H1264 H 0.49462 0.57594 0.43658 0.0
H1265 H 0.45946 0.54729 0.36971 0.0
C1266 C 0.49339 0.53938 0.35783 0.0
C1267 C 0.51682 0.53845 0.36331 0.0
C1268 C 0.47659 0.57223 0.43403 0.0
C1269 C 0.48508 0.55319 0.39621 0.0
C1270 C 0.46092 0.57854 0.45104 0.0
C1271 C 0.43756 0.57348 0.44836 0.0
C1272 C 0.46879 0.56101 0.41411 0.0
C1273 C 0.43039 0.56268 0.428 0.0
C1274 C 0.47746 0.5466 0.37426 0.0
C1275 C 0.52365 0.54486 0.38555 0.0
N1276 N 0.44594 0.5568 0.41164 0.0
N1277 N 0.50788 0.55205 0.40113 0.0
H1278 H 0.79175 0.17199 0.62249 0.0
H1279 H 0.71016 0.09233 0.69917 0.0
H1280 H 0.72449 0.19298 0.64546 0.0
H1281 H 0.78279 0.08165 0.69064 0.0
H1282 H 0.71239 0.1252 0.6727 0.0
H1283 H 0.78594 0.13481 0.64083 0.0
C1284 C 0.77569 0.16875 0.63126 0.0
C1285 C 0.75868 0.18573 0.63269 0.0
C1286 C 0.72777 0.11547 0.67645 0.0
C1287 C 0.75194 0.14317 0.65372 0.0
C1288 C 0.72645 0.09671 0.69136 0.0
C1289 C 0.74637 0.08462 0.69721 0.0
C1290 C 0.74914 0.12186 0.66724 0.0
C1291 C 0.76714 0.09088 0.68682 0.0
C1292 C 0.77239 0.14751 0.64174 0.0
C1293 C 0.73816 0.18047 0.64417 0.0
N1294 N 0.76802 0.10915 0.67243 0.0
N1295 N 0.7354 0.15967 0.65438 0.0
H1296 H 0.16635 0.50803 0.01525 0.0
H1297 H 0.03793 0.53077 0.05813 0.0
H1298 H 0.11161 0.45826 0.00961 0.0
H1299 H 0.0865 0.58531 0.04598 0.0
H1300 H 0.06644 0.50295 0.0445 0.0
H1301 H 0.13851 0.53624 0.02938 0.0
C1302 C 0.14849 0.5031 0.01674 0.0
C1303 C 0.14134 0.48072 0.01133 0.0
C1304 C 0.07086 0.52101 0.04487 0.0
C1305 C 0.10959 0.51267 0.02783 0.0
C1306 C 0.0547 0.5368 0.05285 0.0
C1307 C 0.05988 0.56028 0.05299 0.0
C1308 C 0.0924 0.52882 0.03723 0.0
C1309 C 0.08178 0.56733 0.04579 0.0
C1310 C 0.13265 0.51915 0.0249 0.0
C1311 C 0.11797 0.47527 0.01366 0.0
N1312 N 0.09725 0.55167 0.03818 0.0
N1313 N 0.10299 0.49106 0.0219 0.0
H1314 H 0.67483 0.0342 0.05184 0.0
H1315 H 0.54249 0.00872 0.02404 0.0
H1316 H 0.62362 0.08712 0.04343 0.0
H1317 H 0.58953 0.95703 0.04833 0.0
H1318 H 0.57323 0.03744 0.02719 0.0
H1319 H 0.64461 0.00513 0.04771 0.0
C1320 C 0.65727 0.0397 0.04929 0.0
C1321 C 0.65177 0.06312 0.04799 0.0
C1322 C 0.57679 0.01979 0.03185 0.0
C1323 C 0.61727 0.03008 0.04292 0.0
C1324 C 0.55932 0.00345 0.02988 0.0
C1325 C 0.56344 0.98063 0.03621 0.0
C1326 C 0.59855 0.01312 0.03992 0.0
C1327 C 0.58553 0.97459 0.04374 0.0
C1328 C 0.64005 0.02314 0.04686 0.0
C1329 C 0.62871 0.06928 0.04455 0.0
N1330 N 0.60225 0.99073 0.0454 0.0
N1331 N 0.61237 0.05289 0.04202 0.0
H1332 H 0.3289 0.37892 0.17151 0.0
H1333 H 0.32689 0.49463 0.24642 0.0
H1334 H 0.38967 0.40954 0.20051 0.0
H1335 H 0.267 0.45307 0.23265 0.0
H1336 H 0.35036 0.46638 0.22581 0.0
H1337 H 0.30584 0.40983 0.18865 0.0
C1338 C 0.33738 0.39246 0.18105 0.0
C1339 C 0.36111 0.39174 0.18475 0.0
C1340 C 0.33208 0.46347 0.2274 0.0
C1341 C 0.33507 0.42674 0.20467 0.0
C1342 C 0.31871 0.47949 0.2393 0.0
C1343 C 0.29496 0.47619 0.24136 0.0
C1344 C 0.32155 0.44419 0.21733 0.0
C1345 C 0.28526 0.45635 0.23157 0.0
C1346 C 0.32427 0.4099 0.19106 0.0
C1347 C 0.37135 0.40948 0.1975 0.0
N1348 N 0.29855 0.44119 0.2199 0.0
N1349 N 0.35827 0.4262 0.20711 0.0
H1350 H 0.04266 0.15517 0.56123 0.0
H1351 H 0.9384 0.06731 0.57802 0.0
H1352 H 0.98677 0.16847 0.60806 0.0
H1353 H 0.00316 0.0501 0.54639 0.0
H1354 H 0.95302 0.10625 0.58542 0.0
H1355 H 0.02539 0.11839 0.5516 0.0
C1356 C 0.02679 0.15036 0.56957 0.0
C1357 C 0.01637 0.16488 0.58574 0.0
C1358 C 0.96393 0.0939 0.57682 0.0
C1359 C 0.99625 0.12269 0.57452 0.0
C1360 C 0.9556 0.07174 0.57255 0.0
C1361 C 0.96962 0.05543 0.56165 0.0
C1362 C 0.98629 0.09973 0.56989 0.0
C1363 C 0.99177 0.06204 0.55495 0.0
C1364 C 0.01686 0.12935 0.56398 0.0
C1365 C 0.9954 0.1579 0.59546 0.0
N1366 N -0.00062 0.08364 0.55915 0.0
N1367 N 0.98607 0.13722 0.58978 0.0
H1368 H 0.25066 0.6133 0.81313 0.0
H1369 H 0.21239 0.73998 0.77581 0.0
H1370 H 0.29807 0.66835 0.79824 0.0
H1371 H 0.16586 0.69124 0.80654 0.0
H1372 H 0.24347 0.71208 0.77975 0.0
H1373 H 0.2187 0.64007 0.8072 0.0
C1374 C 0.25435 0.63097 0.80863 0.0
C1375 C 0.27706 0.63861 0.80625 0.0
C1376 C 0.22645 0.70747 0.78562 0.0
C1377 C 0.24072 0.66916 0.79926 0.0
C1378 C 0.20869 0.72333 0.7832 0.0
C1379 C 0.18658 0.71797 0.79098 0.0
C1380 C 0.22201 0.68599 0.7957 0.0
C1381 C 0.18276 0.6962 0.80066 0.0
C1382 C 0.23613 0.64622 0.80527 0.0
C1383 C 0.28086 0.66169 0.80036 0.0
N1384 N 0.2003 0.68098 0.80274 0.0
N1385 N 0.26289 0.6761 0.79702 0.0
H1386 H 0.44093 0.3823 0.48311 0.0
H1387 H 0.44747 0.51191 0.52706 0.0
H1388 H 0.49091 0.40638 0.53218 0.0
H1389 H 0.38863 0.48456 0.49115 0.0
H1390 H 0.46444 0.4737 0.52747 0.0
H1391 H 0.42219 0.41986 0.48441 0.0
C1392 C 0.44795 0.39552 0.49416 0.0
C1393 C 0.46759 0.3913 0.50746 0.0
C1394 C 0.44779 0.47601 0.51956 0.0
C1395 C 0.44626 0.43427 0.50904 0.0
C1396 C 0.4381 0.49787 0.5192 0.0
C1397 C 0.41659 0.50147 0.50899 0.0
C1398 C 0.43602 0.45757 0.50944 0.0
C1399 C 0.40525 0.48257 0.4992 0.0
C1400 C 0.43718 0.41689 0.49499 0.0
C1401 C 0.47574 0.40888 0.52177 0.0
N1402 N 0.41516 0.46142 0.49957 0.0
N1403 N 0.46515 0.42966 0.52204 0.0
H1404 H 0.82868 0.08904 0.7846 0.0
H1405 H 0.81198 0.2007 0.86354 0.0
H1406 H 0.76338 0.1218 0.79706 0.0
H1407 H 0.87794 0.17859 0.83842 0.0
H1408 H 0.79406 0.16824 0.84359 0.0
H1409 H 0.84738 0.11909 0.80749 0.0
C1410 C 0.81831 0.10261 0.79195 0.0
C1411 C 0.79445 0.10293 0.78878 0.0
C1412 C 0.81249 0.17039 0.84258 0.0
C1413 C 0.81561 0.13702 0.81529 0.0
C1414 C 0.82271 0.18875 0.85418 0.0
C1415 C 0.84642 0.19236 0.85248 0.0
C1416 C 0.82613 0.15549 0.82933 0.0
C1417 C 0.85955 0.17652 0.83989 0.0
C1418 C 0.82897 0.11968 0.80509 0.0
C1419 C 0.78184 0.12087 0.79887 0.0
N1420 N 0.84923 0.15882 0.8287 0.0
N1421 N 0.79255 0.1371 0.81172 0.0
H1422 H 0.73089 0.85689 0.3383 0.0
H1423 H 0.767 0.97287 0.27354 0.0
H1424 H 0.68213 0.90097 0.3043 0.0
H1425 H 0.81469 0.92015 0.29448 0.0
H1426 H 0.73542 0.94937 0.2886 0.0
H1427 H 0.76171 0.88307 0.32701 0.0
C1428 C 0.72665 0.87224 0.32873 0.0
C1429 C 0.70398 0.87666 0.32205 0.0
C1430 C 0.75283 0.94302 0.28987 0.0
C1431 C 0.73911 0.90657 0.30883 0.0
C1432 C 0.77083 0.95639 0.28127 0.0
C1433 C 0.79349 0.94841 0.28263 0.0
C1434 C 0.75762 0.92166 0.30007 0.0
C1435 C 0.79749 0.92697 0.29291 0.0
C1436 C 0.74424 0.88708 0.3221 0.0
C1437 C 0.69945 0.89673 0.30945 0.0
N1438 N 0.77976 0.91439 0.30124 0.0
N1439 N 0.71687 0.91091 0.30316 0.0
H1440 H 0.0051 0.13091 0.77223 0.0
H1441 H 0.97259 0.22428 0.86796 0.0
H1442 H 0.04588 0.14529 0.83247 0.0
H1443 H 0.93095 0.21183 0.80788 0.0
H1444 H 0.00012 0.19603 0.8542 0.0
H1445 H 0.97851 0.16148 0.78367 0.0
C1446 C 0.00859 0.14063 0.78772 0.0
C1447 C 0.02768 0.13546 0.80148 0.0
C1448 C 0.98499 0.19945 0.84397 0.0
C1449 C -0.0027 0.17025 0.81473 0.0
C1450 C 0.9692 0.21557 0.85186 0.0
C1451 C 0.94939 0.2204 0.83909 0.0
C1452 C 0.98099 0.18794 0.82313 0.0
C1453 C 0.94599 0.20861 0.8183 0.0
C1454 C 0.99337 0.158 0.79428 0.0
C1455 C 0.03134 0.14857 0.82139 0.0
N1456 N 0.96163 0.19287 0.81097 0.0
N1457 N 0.01625 0.16524 0.82744 0.0
H1458 H 0.08187 0.66837 0.09463 0.0
H1459 H 0.1979 0.68203 0.02251 0.0
H1460 H 0.08763 0.64894 0.02326 0.0
H1461 H 0.18881 0.70555 0.09228 0.0
H1462 H 0.15857 0.66713 0.02291 0.0
H1463 H 0.12213 0.67936 0.09456 0.0
C1464 C 0.09163 0.66636 0.07892 0.0
C1465 C 0.08135 0.65788 0.05887 0.0
C1466 C 0.16526 0.67548 0.03814 0.0
C1467 C 0.12756 0.67049 0.05865 0.0
C1468 C 0.18768 0.68394 0.03794 0.0
C1469 C 0.19656 0.69513 0.05737 0.0
C1470 C 0.15173 0.67821 0.05792 0.0
C1471 C 0.18262 0.69717 0.07688 0.0
C1472 C 0.11465 0.67265 0.07889 0.0
C1473 C 0.09489 0.65553 0.03906 0.0
N1474 N 0.1609 0.68884 0.07663 0.0
N1475 N 0.11733 0.6619 0.03942 0.0
H1476 H 0.57406 0.01311 0.33315 0.0
H1477 H 0.62359 0.8979 0.27684 0.0
H1478 H 0.60253 0.01009 0.26474 0.0
H1479 H 0.592 0.90111 0.34385 0.0
H1480 H 0.61789 0.93929 0.27269 0.0
H1481 H 0.58291 0.97251 0.33818 0.0
C1482 C 0.58234 0.00395 0.31923 0.0
C1483 C 0.58747 0.01498 0.29845 0.0
C1484 C 0.61221 0.93093 0.2883 0.0
C1485 C 0.5975 0.96838 0.30404 0.0
C1486 C 0.6154 0.90729 0.29066 0.0
C1487 C 0.60815 0.89601 0.31069 0.0
C1488 C 0.60172 0.94337 0.3061 0.0
C1489 C 0.59779 0.90907 0.32808 0.0
C1490 C 0.58734 0.98073 0.3221 0.0
C1491 C 0.59826 0.00225 0.28105 0.0
N1492 N 0.59487 0.93204 0.32537 0.0
N1493 N 0.60281 0.97957 0.28419 0.0
H1494 H 0.42146 0.27813 0.48258 0.0
H1495 H 0.31952 0.33936 0.41429 0.0
H1496 H 0.43212 0.33627 0.4378 0.0
H1497 H 0.31208 0.27674 0.45334 0.0
H1498 H 0.36062 0.33937 0.42308 0.0
H1499 H 0.38093 0.27838 0.4727 0.0
C1500 C 0.41525 0.29098 0.47066 0.0
C1501 C 0.43015 0.30719 0.46097 0.0
C1502 C 0.34996 0.32562 0.42964 0.0
C1503 C 0.38372 0.30757 0.44953 0.0
C1504 C 0.32654 0.3256 0.42464 0.0
C1505 C 0.3124 0.30805 0.43316 0.0
C1506 C 0.35916 0.30802 0.4433 0.0
C1507 C 0.32234 0.29063 0.44644 0.0
C1508 C 0.3921 0.29109 0.46498 0.0
C1509 C 0.42118 0.32343 0.44562 0.0
N1510 N 0.34509 0.2911 0.45115 0.0
N1511 N 0.39847 0.32324 0.44037 0.0
H1512 H 0.49754 0.47186 0.28775 0.0
H1513 H 0.48102 0.38483 0.18249 0.0
H1514 H 0.53849 0.47289 0.22596 0.0
H1515 H 0.43958 0.38251 0.24392 0.0
H1516 H 0.50142 0.4179 0.19798 0.0
H1517 H 0.47536 0.43984 0.27189 0.0
C1518 C 0.50183 0.46539 0.27084 0.0
C1519 C 0.51992 0.47504 0.25816 0.0
C1520 C 0.48784 0.41022 0.20809 0.0
C1521 C 0.49465 0.43846 0.23995 0.0
C1522 C 0.47616 0.39131 0.19924 0.0
C1523 C 0.45862 0.38083 0.21197 0.0
C1524 C 0.482 0.41877 0.22988 0.0
C1525 C 0.45304 0.39004 0.23355 0.0
C1526 C 0.48917 0.44712 0.2618 0.0
C1527 C 0.52474 0.46597 0.23636 0.0
N1528 N 0.46475 0.40847 0.24187 0.0
N1529 N 0.5122 0.44819 0.22798 0.0
H1530 H 0.9656 0.20071 0.63712 0.0
H1531 H 0.86104 0.28195 0.63932 0.0
H1532 H 0.96736 0.26892 0.66563 0.0
H1533 H 0.85612 0.20987 0.62266 0.0
H1534 H 0.89753 0.27471 0.6584 0.0
H1535 H 0.92412 0.19966 0.64285 0.0
C1536 C 0.95733 0.21495 0.64581 0.0
C1537 C 0.96962 0.23499 0.65079 0.0
C1538 C 0.88836 0.26036 0.6509 0.0
C1539 C 0.9223 0.23459 0.65609 0.0
C1540 C 0.86764 0.26457 0.63976 0.0
C1541 C 0.856 0.24661 0.62874 0.0
C1542 C 0.89776 0.23813 0.65053 0.0
C1543 C 0.86488 0.22429 0.63049 0.0
C1544 C 0.9336 0.21453 0.64879 0.0
C1545 C 0.95827 0.25319 0.66158 0.0
N1546 N 0.88551 0.22076 0.64072 0.0
N1547 N 0.93506 0.25287 0.66325 0.0
H1548 H 0.05696 0.58553 0.7533 0.0
H1549 H 0.10627 0.68637 0.83293 0.0
H1550 H 0.08227 0.57406 0.82204 0.0
H1551 H 0.07529 0.69673 0.76637 0.0
H1552 H 0.1003 0.64489 0.8286 0.0
H1553 H 0.06685 0.62602 0.75687 0.0
C1554 C 0.06477 0.5915 0.7691 0.0
C1555 C 0.06868 0.57642 0.78744 0.0
C1556 C 0.09485 0.65629 0.81497 0.0
C1557 C 0.07989 0.6229 0.79175 0.0
C1558 C 0.0982 0.67994 0.81745 0.0
C1559 C 0.09115 0.69503 0.80004 0.0
C1560 C 0.08446 0.64774 0.79492 0.0
C1561 C 0.08091 0.68577 0.78028 0.0
C1562 C 0.07037 0.61466 0.77116 0.0
C1563 C 0.07895 0.58512 0.80748 0.0
N1564 N 0.07786 0.66277 0.77829 0.0
N1565 N 0.08408 0.60785 0.80916 0.0
H1566 H 0.59101 0.88274 0.00854 0.0
H1567 H 0.70627 0.86676 0.08088 0.0
H1568 H 0.59621 0.89861 0.08082 0.0
H1569 H 0.69817 0.84714 0.00979 0.0
H1570 H 0.66774 0.88344 0.08018 0.0
H1571 H 0.63192 0.87458 0.00773 0.0
C1572 C 0.6008 0.88461 0.02425 0.0
C1573 C 0.59015 0.89105 0.04485 0.0
C1574 C 0.67451 0.87568 0.06469 0.0
C1575 C 0.63706 0.88164 0.04408 0.0
C1576 C 0.6965 0.86622 0.06505 0.0
C1577 C 0.70528 0.85533 0.04542 0.0
C1578 C 0.66132 0.87424 0.04455 0.0
C1579 C 0.69195 0.85512 0.02539 0.0
C1580 C 0.62419 0.87997 0.02377 0.0
C1581 C 0.60373 0.89348 0.06461 0.0
N1582 N 0.67058 0.86428 0.02552 0.0
N1583 N 0.62651 0.88855 0.06379 0.0
H1584 H 0.84437 0.05894 0.18878 0.0
H1585 H 0.73304 0.05967 0.10815 0.0
H1586 H 0.78434 0.01765 0.20241 0.0
H1587 H 0.79396 0.09994 0.09538 0.0
H1588 H 0.75128 0.04381 0.14252 0.0
H1589 H 0.82597 0.07376 0.15433 0.0
C1590 C 0.82729 0.05295 0.18452 0.0
C1591 C 0.81587 0.03704 0.19856 0.0
C1592 C 0.76064 0.05611 0.13218 0.0
C1593 C 0.79459 0.05404 0.15896 0.0
C1594 C 0.75025 0.06518 0.11255 0.0
C1595 C 0.76199 0.08119 0.09885 0.0
C1596 C 0.78293 0.06309 0.13816 0.0
C1597 C 0.78423 0.08768 0.10541 0.0
C1598 C 0.81677 0.06145 0.1648 0.0
C1599 C 0.79377 0.02992 0.1921 0.0
N1600 N 0.79395 0.07862 0.12457 0.0
N1601 N 0.78382 0.0385 0.17277 0.0
H1602 H 0.35282 0.53356 0.43146 0.0
H1603 H 0.27598 0.59752 0.33689 0.0
H1604 H 0.3167 0.59718 0.44338 0.0
H1605 H 0.31194 0.53399 0.32395 0.0
H1606 H 0.29164 0.59799 0.37578 0.0
H1607 H 0.33863 0.53349 0.39183 0.0
C1608 C 0.34189 0.54747 0.42577 0.0
C1609 C 0.3359 0.56537 0.44077 0.0
C1610 C 0.29617 0.58397 0.36442 0.0
C1611 C 0.3197 0.56546 0.39551 0.0
C1612 C 0.28726 0.58373 0.34218 0.0
C1613 C 0.29262 0.56568 0.32714 0.0
C1614 C 0.31053 0.56603 0.37174 0.0
C1615 C 0.30733 0.54825 0.33497 0.0
C1616 C 0.33383 0.54746 0.40314 0.0
C1617 C 0.32176 0.58301 0.43245 0.0
N1618 N 0.31572 0.54882 0.35674 0.0
N1619 N 0.31415 0.5826 0.41043 0.0
H1620 H 0.86477 0.95518 0.60927 0.0
H1621 H 0.82984 0.04053 0.71144 0.0
H1622 H 0.89568 0.02187 0.61938 0.0
H1623 H 0.79988 0.97338 0.70156 0.0
H1624 H 0.85441 0.03393 0.67806 0.0
H1625 H 0.84126 0.96142 0.64339 0.0
C1626 C 0.86667 0.97113 0.61869 0.0
C1627 C 0.8822 0.98804 0.61142 0.0
C1628 C 0.84249 0.02063 0.68321 0.0
C1629 C 0.85525 0.99533 0.65053 0.0
C1630 C 0.82844 0.02438 0.70228 0.0
C1631 C 0.81276 0.00748 0.70931 0.0
C1632 C 0.84084 -0.00017 0.67107 0.0
C1633 C 0.81169 0.98691 0.69676 0.0
C1634 C 0.85321 0.97468 0.63819 0.0
C1635 C 0.88392 0.00835 0.62434 0.0
N1636 N 0.82552 0.98368 0.67826 0.0
N1637 N 0.87057 0.01145 0.64324 0.0
H1638 H 0.26961 0.55486 0.86817 0.0
H1639 H 0.27927 0.44674 0.95268 0.0
H1640 H 0.32702 0.50804 0.86921 0.0
H1641 H 0.22082 0.49224 0.95115 0.0
H1642 H 0.29708 0.46933 0.92222 0.0
H1643 H 0.25156 0.5326 0.8989 0.0
C1644 C 0.27844 0.53995 0.87489 0.0
C1645 C 0.29985 0.53328 0.8661 0.0
C1646 C 0.28035 0.47438 0.92852 0.0
C1647 C 0.27929 0.50773 0.90118 0.0
C1648 C 0.27015 0.46146 0.94591 0.0
C1649 C 0.24853 0.46761 0.95448 0.0
C1650 C 0.26885 0.49362 0.91961 0.0
C1651 C 0.23753 0.48687 0.94506 0.0
C1652 C 0.26812 0.52723 0.89241 0.0
C1653 C 0.3105 0.5138 0.87543 0.0
N1654 N 0.24782 0.49921 0.92814 0.0
N1655 N 0.30011 0.50172 0.89244 0.0
H1656 H 0.85526 0.04942 0.82105 0.0
H1657 H 0.97943 0.02091 0.77819 0.0
H1658 H 0.8697 0.98394 0.78984 0.0
H1659 H 0.96912 0.05892 0.84088 0.0
H1660 H 0.93874 0.0097 0.77874 0.0
H1661 H 0.89664 0.05604 0.82568 0.0
C1662 C 0.86726 0.03635 0.81549 0.0
C1663 C 0.8593 0.01608 0.80522 0.0
C1664 C 0.94549 0.0203 0.79247 0.0
C1665 C 0.90631 0.02371 0.80978 0.0
C1666 C 0.96855 0.02679 0.79207 0.0
C1667 C 0.97747 0.04082 0.80951 0.0
C1668 C 0.93121 0.02844 0.8101 0.0
C1669 C 0.96283 0.04795 0.82724 0.0
C1670 C 0.89074 0.04008 0.81813 0.0
C1671 C 0.87533 -0.00036 0.79807 0.0
N1672 N 0.94028 0.04196 0.82692 0.0
N1673 N 0.89818 0.00397 0.80013 0.0
H1674 H 0.29842 0.62733 0.04132 0.0
H1675 H 0.21036 0.52631 0.05793 0.0
H1676 H 0.24809 0.63038 0.09535 0.0
H1677 H 0.28097 0.51222 0.04121 0.0
H1678 H 0.22098 0.5663 0.06693 0.0
H1679 H 0.28989 0.58623 0.0362 0.0
C1680 C 0.28581 0.61915 0.05227 0.0
C1681 C 0.27413 0.63193 0.06894 0.0
C1682 C 0.23412 0.55435 0.06143 0.0
C1683 C 0.26374 0.58558 0.06274 0.0
C1684 C 0.22806 0.53171 0.05619 0.0
C1685 C 0.24487 0.51611 0.04896 0.0
C1686 C 0.25699 0.56145 0.05874 0.0
C1687 C 0.26761 0.52377 0.04697 0.0
C1688 C 0.28094 0.59586 0.04936 0.0
C1689 C 0.25767 0.62086 0.08258 0.0
N1690 N 0.27299 0.54601 0.05157 0.0
N1691 N 0.25268 0.59831 0.07897 0.0
H1692 H 0.75681 0.03044 0.31068 0.0
H1693 H 0.65975 0.11079 0.26384 0.0
H1694 H 0.77428 0.09237 0.27421 0.0
H1695 H 0.653 0.07937 0.33041 0.0
H1696 H 0.70088 0.10124 0.26392 0.0
H1697 H 0.71729 0.04465 0.31503 0.0
C1698 C 0.75227 0.04708 0.30375 0.0
C1699 C 0.76869 0.06035 0.2922 0.0
C1700 C 0.69043 0.09674 0.27864 0.0
C1701 C 0.72375 0.0764 0.2966 0.0
C1702 C 0.6671 0.10216 0.27857 0.0
C1703 C 0.65322 0.09603 0.29723 0.0
C1704 C 0.6997 0.08445 0.29718 0.0
C1705 C 0.66332 0.08464 0.31588 0.0
C1706 C 0.72987 0.0552 0.3063 0.0
C1707 C 0.7621 0.0818 0.28344 0.0
N1708 N 0.68592 0.07885 0.31524 0.0
N1709 N 0.74002 0.08904 0.2855 0.0
H1710 H 0.33365 0.47002 0.52568 0.0
H1711 H 0.23612 0.40562 0.45832 0.0
H1712 H 0.2716 0.50486 0.50571 0.0
H1713 H 0.27699 0.37004 0.50859 0.0
H1714 H 0.25041 0.44239 0.47323 0.0
H1715 H 0.31503 0.43302 0.51752 0.0
C1716 C 0.31604 0.46979 0.51976 0.0
C1717 C 0.3041 0.49041 0.51633 0.0
C1718 C 0.25602 0.42655 0.48121 0.0
C1719 C 0.28291 0.44843 0.50665 0.0
C1720 C 0.24795 0.40566 0.47268 0.0
C1721 C 0.25542 0.38493 0.48232 0.0
C1722 C 0.27215 0.42665 0.49911 0.0
C1723 C 0.27073 0.38574 0.50088 0.0
C1724 C 0.30541 0.44876 0.51523 0.0
C1725 C 0.28128 0.48931 0.50873 0.0
N1726 N 0.27892 0.4063 0.50847 0.0
N1727 N 0.27152 0.46867 0.50379 0.0
H1728 H 0.46554 0.56577 0.30057 0.0
H1729 H 0.36282 0.58539 0.21128 0.0
H1730 H 0.47703 0.57646 0.22817 0.0
H1731 H 0.35436 0.56241 0.28114 0.0
H1732 H 0.40452 0.58786 0.21772 0.0
H1733 H 0.4245 0.5704 0.2944 0.0
C1734 C 0.45941 0.56913 0.28335 0.0
C1735 C 0.47471 0.57036 0.26481 0.0
C1736 C 0.39347 0.58237 0.23162 0.0
C1737 C 0.4276 0.57579 0.25755 0.0
C1738 C 0.36975 0.58104 0.22797 0.0
C1739 C 0.35525 0.57334 0.24559 0.0
C1740 C 0.40255 0.57622 0.25314 0.0
C1741 C 0.36499 0.5679 0.26693 0.0
C1742 C 0.43596 0.57185 0.27983 0.0
C1743 C 0.46583 0.57538 0.24294 0.0
N1744 N 0.38797 0.5694 0.27007 0.0
N1745 N 0.44279 0.57769 0.23986 0.0
H1746 H 0.85695 0.05432 0.5698 0.0
H1747 H 0.83483 0.17572 0.51319 0.0
H1748 H 0.86447 0.06442 0.49692 0.0
H1749 H 0.8038 0.15437 0.57706 0.0
H1750 H 0.84686 0.13589 0.50644 0.0
H1751 H 0.83863 0.09191 0.57289 0.0
C1752 C 0.85449 0.06449 0.55443 0.0
C1753 C 0.86216 0.05646 0.53312 0.0
C1754 C 0.83726 0.14001 0.52182 0.0
C1755 C 0.84161 0.09955 0.53644 0.0
C1756 C 0.83038 0.16271 0.52568 0.0
C1757 C 0.8187 0.16856 0.54596 0.0
C1758 C 0.83254 0.12319 0.53844 0.0
C1759 C 0.81341 0.15094 0.56156 0.0
C1760 C 0.844 0.08587 0.55614 0.0
C1761 C 0.85857 0.0701 0.51361 0.0
N1762 N 0.82057 0.12916 0.55758 0.0
N1763 N 0.84881 0.09123 0.51576 0.0
H1764 H 0.13532 0.48842 0.80976 0.0
H1765 H 0.24898 0.52364 0.74111 0.0
H1766 H 0.13559 0.49884 0.73642 0.0
H1767 H 0.23981 0.53201 0.81412 0.0
H1768 H 0.2097 0.50833 0.73841 0.0
H1769 H 0.17612 0.49747 0.81088 0.0
C1770 C 0.14402 0.4925 0.79385 0.0
C1771 C 0.13192 0.49328 0.77302 0.0
C1772 C 0.21636 0.51349 0.75499 0.0
C1773 C 0.17879 0.5036 0.77416 0.0
C1774 C 0.23873 0.52213 0.75655 0.0
C1775 C 0.24752 0.5293 0.77783 0.0
C1776 C 0.20292 0.5117 0.77494 0.0
C1777 C 0.23356 0.52708 0.79733 0.0
C1778 C 0.16733 0.49766 0.7945 0.0
C1779 C 0.14423 0.49807 0.75284 0.0
N1780 N 0.21201 0.51846 0.79541 0.0
N1781 N 0.167 0.50328 0.75392 0.0
H1782 H 0.7569 0.01685 0.05566 0.0
H1783 H 0.78309 0.90135 0.98776 0.0
H1784 H 0.76182 0.01489 0.98179 0.0
H1785 H 0.79649 0.91048 0.06007 0.0
H1786 H 0.7759 0.94268 0.98444 0.0
H1787 H 0.77074 0.97735 0.05725 0.0
C1788 C 0.76077 0.00802 0.03976 0.0
C1789 C 0.75802 0.01904 0.01855 0.0
C1790 C 0.78071 0.93564 0.00096 0.0
C1791 C 0.77409 0.97386 0.02019 0.0
C1792 C 0.78498 0.91208 0.00283 0.0
C1793 C 0.79005 0.9024 0.02431 0.0
C1794 C 0.78138 0.94949 0.02074 0.0
C1795 C 0.7921 0.91714 0.0433 0.0
C1796 C 0.76891 0.98555 0.04067 0.0
C1797 C 0.76377 0.00697 -0.00152 0.0
N1798 N 0.78747 0.93985 0.04113 0.0
N1799 N 0.77135 0.98491 -0.00025 0.0
H1800 H 0.01628 0.74426 0.8685 0.0
H1801 H 0.03101 0.73861 0.00492 0.0
H1802 H 0.07532 0.77169 0.90369 0.0
H1803 H 0.99439 0.68722 0.96617 0.0
H1804 H 0.04035 0.75848 0.96888 0.0
H1805 H 0.00107 0.7308 0.90545 0.0
C1806 C 0.0258 0.7478 0.88407 0.0
C1807 C 0.04711 0.75895 0.88314 0.0
C1808 C 0.03004 0.743 0.96835 0.0
C1809 C 0.02988 0.74379 0.92524 0.0
C1810 C 0.02459 0.7318 0.98884 0.0
C1811 C 0.01204 0.71124 0.98838 0.0
C1812 C 0.02251 0.73376 0.94737 0.0
C1813 C 0.0043 0.70292 0.96713 0.0
C1814 C 0.01722 0.74001 0.90507 0.0
C1815 C 0.05894 0.76293 0.90375 0.0
N1816 N 0.00967 0.7142 0.94743 0.0
N1817 N 0.05018 0.75533 0.924 0.0
H1818 H 0.59621 0.80142 0.22047 0.0
H1819 H 0.50383 0.8644 0.14448 0.0
H1820 H 0.53381 0.82855 0.24944 0.0
H1821 H 0.54997 0.81413 0.11595 0.0
H1822 H 0.51454 0.85184 0.18317 0.0
H1823 H 0.57999 0.80613 0.18194 0.0
C1824 C 0.57901 0.80819 0.21866 0.0
C1825 C 0.56635 0.81475 0.23807 0.0
C1826 C 0.52206 0.8433 0.16846 0.0
C1827 C 0.54779 0.82038 0.1942 0.0
C1828 C 0.51602 0.85051 0.14645 0.0
C1829 C 0.52613 0.84032 0.12712 0.0
C1830 C 0.53873 0.8261 0.17114 0.0
C1831 C 0.54173 0.82231 0.13046 0.0
C1832 C 0.56972 0.81075 0.19673 0.0
C1833 C 0.54406 0.82322 0.2349 0.0
N1834 N 0.54786 0.816 0.15209 0.0
N1835 N 0.5356 0.82613 0.21333 0.0
H1836 H 0.52429 0.30188 0.37553 0.0
H1837 H 0.43347 0.27377 0.27997 0.0
H1838 H 0.47251 0.25019 0.38643 0.0
H1839 H 0.50247 0.29397 0.26258 0.0
H1840 H 0.44591 0.26706 0.31971 0.0
H1841 H 0.5155 0.30145 0.33432 0.0
C1842 C 0.51127 0.29026 0.36909 0.0
C1843 C 0.49911 0.27603 0.38418 0.0
C1844 C 0.45836 0.27267 0.30709 0.0
C1845 C 0.48863 0.27575 0.33748 0.0
C1846 C 0.45125 0.27661 0.28455 0.0
C1847 C 0.46699 0.28445 0.26813 0.0
C1848 C 0.48121 0.27715 0.31327 0.0
C1849 C 0.48989 0.28777 0.27475 0.0
C1850 C 0.5063 0.28996 0.34568 0.0
C1851 C 0.48236 0.26124 0.3752 0.0
N1852 N 0.49627 0.28444 0.29694 0.0
N1853 N 0.47731 0.26174 0.35241 0.0
H1854 H 0.91765 0.31339 0.76721 0.0
H1855 H 0.03398 0.30299 0.70001 0.0
H1856 H 0.98331 0.31714 0.80114 0.0
H1857 H 0.97162 0.3245 0.66676 0.0
H1858 H 0.01612 0.30999 0.73743 0.0
H1859 H 0.93686 0.31915 0.73025 0.0
C1860 C 0.93608 0.31568 0.76686 0.0
C1861 C 0.94896 0.31454 0.78717 0.0
C1862 C 0.00646 0.31366 0.72198 0.0
C1863 C 0.97103 0.32099 0.74512 0.0
C1864 C 0.01666 0.30967 0.70071 0.0
C1865 C 0.0042 0.31322 0.68047 0.0
C1866 C 0.98344 0.32069 0.72295 0.0
C1867 C 0.98179 0.32178 0.68207 0.0
C1868 C 0.94702 0.31911 0.74583 0.0
C1869 C 0.97275 0.31794 0.78588 0.0
N1870 N 0.97192 0.32483 0.703 0.0
N1871 N 0.98308 0.32063 0.76516 0.0
loop_
_geom_bond_atom_site_label_1
_geom_bond_atom_site_label_2
_geom_bond_distance
_geom_bond_site_symmetry_2
_ccdc_geom_bond_type
C0 C1 1.351 1_455 S
C0 N3 1.368 . S
C0 H5 0.931 . S
C1 C0 1.351 1_655 S
C1 N2 1.373 . S
C1 H29 0.930 . S
N2 C1 1.373 . S
N2 C4 1.340 . S
N3 C0 1.368 . S
N3 C4 1.321 1_455 S
N3 Co6 2.135 . S
C4 N2 1.340 . S
C4 N3 1.321 1_655 S
C4 H28 0.930 . S
H5 C0 0.931 . S
Co6 N3 2.135 . S
Co6 N9 2.121 . S
Co6 O14 2.055 . S
Co6 O17 2.039 . S
Co6 N20 2.140 . S
C7 O8 1.227 1_655 S
C7 O17 1.265 1_655 S
O8 C7 1.227 1_455 S
N9 Co6 2.121 . S
N9 C11 1.375 . S
N9 C12 1.313 . S
C10 C11 1.338 . S
C10 N13 1.377 . S
C10 H30 0.930 . S
C11 N9 1.375 . S
C11 C10 1.338 . S
C11 H15 0.931 . S
C12 N9 1.313 . S
C12 N13 1.344 . S
C12 H16 0.930 . S
N13 C10 1.377 . S
N13 C12 1.344 . S
O14 Co6 2.055 . S
O14 C18 1.253 . S
H15 C11 0.931 . S
H16 C12 0.930 . S
O17 Co6 2.039 . S
O17 C7 1.265 1_455 S
C18 O14 1.253 . S
C18 O19 1.227 . S
O19 C18 1.227 . S
N20 Co6 2.140 . S
N20 C23 1.346 . S
N20 C24 1.345 . S
C21 C22 1.387 . S
C21 C25 1.391 1_565 S
C22 C21 1.387 . S
C22 C23 1.369 1_565 S
C22 H31 0.929 . S
C23 N20 1.346 . S
C23 C22 1.369 1_545 S
C23 H26 0.928 . S
C24 N20 1.345 . S
C24 C25 1.371 . S
C24 H27 0.931 . S
C25 C21 1.391 1_545 S
C25 C24 1.371 . S
C25 H32 0.930 . S
H26 C23 0.928 . S
H27 C24 0.931 . S
H28 C4 0.930 . S
H29 C1 0.930 . S
H30 C10 0.930 . S
H31 C22 0.929 . S
H32 C25 0.930 . S
C33 C34 1.351 . S
C33 N36 1.368 . S
C33 H38 0.931 . S
C34 C33 1.351 . S
C34 N35 1.373 . S
C34 H62 0.930 . S
N35 C34 1.373 . S
N35 C37 1.340 . S
N36 C33 1.368 . S
N36 C37 1.321 . S
N36 Co39 2.135 1_554 S
C37 N35 1.340 . S
C37 N36 1.321 . S
C37 H61 0.930 1_554 S
H38 C33 0.931 . S
Co39 N36 2.135 1_556 S
Co39 N42 2.121 . S
Co39 O47 2.055 . S
Co39 O50 2.039 . S
Co39 N53 2.140 . S
C40 O41 1.227 . S
C40 O50 1.265 . S
O41 C40 1.227 . S
N42 Co39 2.121 . S
N42 C44 1.375 . S
N42 C45 1.313 . S
C43 C44 1.338 . S
C43 N46 1.377 . S
C43 H63 0.930 . S
C44 N42 1.375 . S
C44 C43 1.338 . S
C44 H48 0.931 . S
C45 N42 1.313 . S
C45 N46 1.344 . S
C45 H49 0.930 . S
N46 C43 1.377 . S
N46 C45 1.344 . S
O47 Co39 2.055 . S
O47 C51 1.253 . S
H48 C44 0.931 . S
H49 C45 0.930 . S
O50 Co39 2.039 . S
O50 C40 1.265 . S
C51 O47 1.253 . S
C51 O52 1.227 1_556 S
O52 C51 1.227 1_554 S
N53 Co39 2.140 . S
N53 C56 1.346 . S
N53 C57 1.345 . S
C54 C55 1.386 1_554 S
C54 C58 1.389 1_554 S
C55 C54 1.386 1_556 S
C55 C56 1.369 . S
C55 H64 0.929 1_556 S
C56 N53 1.346 . S
C56 C55 1.369 . S
C56 H59 0.928 . S
C57 N53 1.345 . S
C57 C58 1.371 . S
C57 H60 0.931 . S
C58 C54 1.389 1_556 S
C58 C57 1.371 . S
C58 H65 0.930 . S
H59 C56 0.928 . S
H60 C57 0.931 . S
H61 C37 0.930 1_556 S
H62 C34 0.930 . S
H63 C43 0.930 . S
H64 C55 0.929 1_554 S
H65 C58 0.930 . S
C66 C67 1.351 . S
C66 N69 1.368 . S
C66 H71 0.931 . S
C67 C66 1.351 . S
C67 N68 1.373 . S
C67 H95 0.930 . S
N68 C67 1.373 . S
N68 C70 1.340 . S
N69 C66 1.368 . S
N69 C70 1.321 . S
N69 Co72 2.135 . S
C70 N68 1.340 . S
C70 N69 1.321 . S
C70 H94 0.930 . S
H71 C66 0.931 . S
Co72 N69 2.135 . S
Co72 N75 2.121 . S
Co72 O80 2.055 1_545 S
Co72 O83 2.039 . S
Co72 N86 2.140 . S
C73 O74 1.227 . S
C73 O83 1.265 . S
O74 C73 1.227 . S
N75 Co72 2.121 . S
N75 C77 1.375 . S
N75 C78 1.317 . S
C76 C77 1.338 . S
C76 N79 1.377 . S
C76 H96 0.930 . S
C77 N75 1.375 . S
C77 C76 1.338 . S
C77 H81 0.931 . S
C78 N75 1.317 . S
C78 N79 1.344 . S
C78 H82 0.927 1_545 S
N79 C76 1.377 . S
N79 C78 1.344 . S
O80 Co72 2.055 1_565 S
O80 C84 1.253 . S
H81 C77 0.931 . S
H82 C78 0.927 1_565 S
O83 Co72 2.039 . S
O83 C73 1.265 . S
C84 O80 1.253 . S
C84 O85 1.227 1_565 S
O85 C84 1.227 1_545 S
N86 Co72 2.140 . S
N86 C89 1.346 . S
N86 C90 1.345 . S
C87 C88 1.387 . S
C87 C91 1.391 . S
C88 C87 1.387 . S
C88 C89 1.369 . S
C88 H97 0.929 . S
C89 N86 1.346 . S
C89 C88 1.369 . S
C89 H92 0.928 . S
C90 N86 1.345 . S
C90 C91 1.371 . S
C90 H93 0.931 . S
C91 C87 1.391 . S
C91 C90 1.371 . S
C91 H98 0.930 . S
H92 C89 0.928 . S
H93 C90 0.931 . S
H94 C70 0.930 . S
H95 C67 0.930 . S
H96 C76 0.930 . S
H97 C88 0.929 . S
H98 C91 0.930 . S
C99 C100 1.351 . S
C99 N102 1.368 . S
C99 H104 0.931 . S
C100 C99 1.351 . S
C100 N101 1.373 . S
C100 H128 0.930 . S
N101 C100 1.373 . S
N101 C103 1.340 . S
N102 C99 1.368 . S
N102 C103 1.321 . S
N102 Co105 2.135 . S
C103 N101 1.340 . S
C103 N102 1.321 . S
C103 H127 0.930 . S
H104 C99 0.931 . S
Co105 N102 2.135 . S
Co105 N108 2.121 . S
Co105 O113 2.055 . S
Co105 O116 2.039 . S
Co105 N119 2.140 . S
C106 O107 1.227 . S
C106 O116 1.265 . S
O107 C106 1.227 . S
N108 Co105 2.121 . S
N108 C110 1.375 . S
N108 C111 1.313 . S
C109 C110 1.338 . S
C109 N112 1.377 . S
C109 H129 0.930 . S
C110 N108 1.375 . S
C110 C109 1.338 . S
C110 H114 0.931 . S
C111 N108 1.313 . S
C111 N112 1.344 . S
C111 H115 0.930 . S
N112 C109 1.377 . S
N112 C111 1.344 . S
O113 Co105 2.055 . S
O113 C117 1.253 . S
H114 C110 0.931 . S
H115 C111 0.930 . S
O116 Co105 2.039 . S
O116 C106 1.265 . S
C117 O113 1.253 . S
C117 O118 1.227 . S
O118 C117 1.227 . S
N119 Co105 2.140 . S
N119 C122 1.346 . S
N119 C123 1.345 . S
C120 C121 1.387 . S
C120 C124 1.391 . S
C121 C120 1.387 . S
C121 C122 1.369 . S
C121 H130 0.929 . S
C122 N119 1.346 . S
C122 C121 1.369 . S
C122 H125 0.928 . S
C123 N119 1.345 . S
C123 C124 1.371 . S
C123 H126 0.931 . S
C124 C120 1.391 . S
C124 C123 1.371 . S
C124 H131 0.930 . S
H125 C122 0.928 . S
H126 C123 0.931 . S
H127 C103 0.930 . S
H128 C100 0.930 . S
H129 C109 0.930 . S
H130 C121 0.929 . S
H131 C124 0.930 . S
C132 C133 1.351 . S
C132 N135 1.368 . S
C132 H137 0.931 . S
C133 C132 1.351 . S
C133 N134 1.373 . S
C133 H161 0.930 . S
N134 C133 1.373 . S
N134 C136 1.340 . S
N135 C132 1.368 . S
N135 C136 1.321 . S
N135 Co138 2.135 . S
C136 N134 1.340 . S
C136 N135 1.321 . S
C136 H160 0.930 . S
H137 C132 0.931 . S
Co138 N135 2.135 . S
Co138 N141 2.121 . S
Co138 O146 2.055 . S
Co138 O149 2.039 . S
Co138 N152 2.140 . S
C139 O140 1.227 . S
C139 O149 1.265 . S
O140 C139 1.227 . S
N141 Co138 2.121 . S
N141 C143 1.375 . S
N141 C144 1.313 . S
C142 C143 1.338 . S
C142 N145 1.377 . S
C142 H162 0.930 . S
C143 N141 1.375 . S
C143 C142 1.338 . S
C143 H147 0.931 . S
C144 N141 1.313 . S
C144 N145 1.344 . S
C144 H148 0.930 . S
N145 C142 1.377 . S
N145 C144 1.344 . S
O146 Co138 2.055 . S
O146 C150 1.253 . S
H147 C143 0.931 . S
H148 C144 0.930 . S
O149 Co138 2.039 . S
O149 C139 1.265 . S
C150 O146 1.253 . S
C150 O151 1.227 . S
O151 C150 1.227 . S
N152 Co138 2.140 . S
N152 C155 1.346 . S
N152 C156 1.345 . S
C153 C154 1.387 . S
C153 C157 1.391 . S
C154 C153 1.387 . S
C154 C155 1.369 . S
C154 H163 0.929 . S
C155 N152 1.346 . S
C155 C154 1.369 . S
C155 H158 0.928 . S
C156 N152 1.345 . S
C156 C157 1.371 . S
C156 H159 0.931 . S
C157 C153 1.391 . S
C157 C156 1.371 . S
C157 H164 0.930 . S
H158 C155 0.928 . S
H159 C156 0.931 . S
H160 C136 0.930 . S
H161 C133 0.930 . S
H162 C142 0.930 . S
H163 C154 0.929 . S
H164 C157 0.930 . S
C165 C166 1.351 . S
C165 N168 1.368 . S
C165 H170 0.931 . S
C166 C165 1.351 . S
C166 N167 1.373 . S
C166 H194 0.930 . S
N167 C166 1.373 . S
N167 C169 1.340 . S
N168 C165 1.368 . S
N168 C169 1.321 . S
N168 Co171 2.135 . S
C169 N167 1.340 . S
C169 N168 1.321 . S
C169 H193 0.930 . S
H170 C165 0.931 . S
Co171 N168 2.135 . S
Co171 N174 2.121 . S
Co171 O179 2.055 . S
Co171 O182 2.039 . S
Co171 N185 2.140 . S
C172 O173 1.227 . S
C172 O182 1.265 . S
O173 C172 1.227 . S
N174 Co171 2.121 . S
N174 C176 1.375 . S
N174 C177 1.313 . S
C175 C176 1.338 . S
C175 N178 1.377 . S
C175 H195 0.930 . S
C176 N174 1.375 . S
C176 C175 1.338 . S
C176 H180 0.931 . S
C177 N174 1.313 . S
C177 N178 1.344 . S
C177 H181 0.930 . S
N178 C175 1.377 . S
N178 C177 1.344 . S
O179 Co171 2.055 . S
O179 C183 1.253 . S
H180 C176 0.931 . S
H181 C177 0.930 . S
O182 Co171 2.039 . S
O182 C172 1.265 . S
C183 O179 1.253 . S
C183 O184 1.227 . S
O184 C183 1.227 . S
N185 Co171 2.140 . S
N185 C188 1.346 . S
N185 C189 1.345 . S
C186 C187 1.387 . S
C186 C190 1.391 . S
C187 C186 1.387 . S
C187 C188 1.369 . S
C187 H196 0.929 . S
C188 N185 1.346 . S
C188 C187 1.369 . S
C188 H191 0.928 . S
C189 N185 1.345 . S
C189 C190 1.371 . S
C189 H192 0.931 . S
C190 C186 1.391 . S
C190 C189 1.371 . S
C190 H197 0.930 . S
H191 C188 0.928 . S
H192 C189 0.931 . S
H193 C169 0.930 . S
H194 C166 0.930 . S
H195 C175 0.930 . S
H196 C187 0.929 . S
H197 C190 0.930 . S
C198 C199 1.351 . S
C198 N201 1.368 . S
C198 H203 0.931 . S
C199 C198 1.351 . S
C199 N200 1.373 . S
C199 H227 0.930 . S
N200 C199 1.373 . S
N200 C202 1.340 . S
N201 C198 1.368 . S
N201 C202 1.321 . S
N201 Co204 2.135 . S
C202 N200 1.340 . S
C202 N201 1.321 . S
C202 H226 0.930 . S
H203 C198 0.931 . S
Co204 N201 2.135 . S
Co204 N207 2.121 . S
Co204 O212 2.055 . S
Co204 O215 2.039 . S
Co204 N218 2.140 . S
C205 O206 1.227 . S
C205 O215 1.265 . S
O206 C205 1.227 . S
N207 Co204 2.121 . S
N207 C209 1.375 . S
N207 C210 1.313 . S
C208 C209 1.338 . S
C208 N211 1.377 1_455 S
C208 H228 0.930 1_455 S
C209 N207 1.375 . S
C209 C208 1.338 . S
C209 H213 0.931 . S
C210 N207 1.313 . S
C210 N211 1.344 1_455 S
C210 H214 0.930 . S
N211 C208 1.377 1_655 S
N211 C210 1.344 1_655 S
O212 Co204 2.055 . S
O212 C216 1.253 . S
H213 C209 0.931 . S
H214 C210 0.930 . S
O215 Co204 2.039 . S
O215 C205 1.265 . S
C216 O212 1.253 . S
C216 O217 1.227 . S
O217 C216 1.227 . S
N218 Co204 2.140 . S
N218 C221 1.346 . S
N218 C222 1.345 . S
C219 C220 1.387 . S
C219 C223 1.391 1_455 S
C220 C219 1.387 . S
C220 C221 1.369 . S
C220 H229 0.929 . S
C221 N218 1.346 . S
C221 C220 1.369 . S
C221 H224 0.928 . S
C222 N218 1.345 . S
C222 C223 1.371 1_455 S
C222 H225 0.931 1_455 S
C223 C219 1.391 1_655 S
C223 C222 1.371 1_655 S
C223 H230 0.930 . S
H224 C221 0.928 . S
H225 C222 0.931 1_655 S
H226 C202 0.930 . S
H227 C199 0.930 . S
H228 C208 0.930 1_655 S
H229 C220 0.929 . S
H230 C223 0.930 . S
C231 C232 1.351 . S
C231 N234 1.368 . S
C231 H236 0.931 . S
C232 C231 1.351 . S
C232 N233 1.373 . S
C232 H260 0.930 . S
N233 C232 1.373 . S
N233 C235 1.340 . S
N234 C231 1.368 . S
N234 C235 1.321 . S
N234 Co237 2.135 . S
C235 N233 1.340 . S
C235 N234 1.321 . S
C235 H259 0.930 . S
H236 C231 0.931 . S
Co237 N234 2.135 . S
Co237 N240 2.121 . S
Co237 O245 2.055 . S
Co237 O248 2.039 . S
Co237 N251 2.140 . S
C238 O239 1.227 . S
C238 O248 1.265 . S
O239 C238 1.227 . S
N240 Co237 2.121 . S
N240 C242 1.375 . S
N240 C243 1.313 . S
C241 C242 1.338 . S
C241 N244 1.377 . S
C241 H261 0.930 . S
C242 N240 1.375 . S
C242 C241 1.338 . S
C242 H246 0.931 . S
C243 N240 1.313 . S
C243 N244 1.344 . S
C243 H247 0.930 . S
N244 C241 1.377 . S
N244 C243 1.344 . S
O245 Co237 2.055 . S
O245 C249 1.253 . S
H246 C242 0.931 . S
H247 C243 0.930 . S
O248 Co237 2.039 . S
O248 C238 1.265 . S
C249 O245 1.253 . S
C249 O250 1.227 . S
O250 C249 1.227 . S
N251 Co237 2.140 . S
N251 C254 1.346 . S
N251 C255 1.345 . S
C252 C253 1.387 . S
C252 C256 1.391 . S
C253 C252 1.387 . S
C253 C254 1.369 . S
C253 H262 0.929 . S
C254 N251 1.346 . S
C254 C253 1.369 . S
C254 H257 0.928 . S
C255 N251 1.345 . S
C255 C256 1.371 . S
C255 H258 0.931 . S
C256 C252 1.391 . S
C256 C255 1.371 . S
C256 H263 0.930 . S
H257 C254 0.928 . S
H258 C255 0.931 . S
H259 C235 0.930 . S
H260 C232 0.930 . S
H261 C241 0.930 . S
H262 C253 0.929 . S
H263 C256 0.930 . S
C264 C265 1.351 1_545 S
C264 N267 1.368 . S
C264 H269 0.931 . S
C265 C264 1.351 1_565 S
C265 N266 1.373 . S
C265 H293 0.930 . S
N266 C265 1.373 . S
N266 C268 1.340 . S
N267 C264 1.368 . S
N267 C268 1.321 1_545 S
N267 Co270 2.135 . S
C268 N266 1.340 . S
C268 N267 1.321 1_565 S
C268 H292 0.930 . S
H269 C264 0.931 . S
Co270 N267 2.135 . S
Co270 N273 2.121 . S
Co270 O278 2.055 . S
Co270 O281 2.039 . S
Co270 N284 2.140 . S
C271 O272 1.227 1_565 S
C271 O281 1.265 1_565 S
O272 C271 1.227 1_545 S
N273 Co270 2.121 . S
N273 C275 1.375 . S
N273 C276 1.313 . S
C274 C275 1.338 . S
C274 N277 1.377 . S
C274 H294 0.930 . S
C275 N273 1.375 . S
C275 C274 1.338 . S
C275 H279 0.931 . S
C276 N273 1.313 . S
C276 N277 1.344 . S
C276 H280 0.930 . S
N277 C274 1.377 . S
N277 C276 1.344 . S
O278 Co270 2.055 . S
O278 C282 1.253 . S
H279 C275 0.931 . S
H280 C276 0.930 . S
O281 Co270 2.039 . S
O281 C271 1.265 1_545 S
C282 O278 1.253 . S
C282 O283 1.227 . S
O283 C282 1.227 . S
N284 Co270 2.140 . S
N284 C287 1.346 . S
N284 C288 1.345 . S
C285 C286 1.387 . S
C285 C289 1.391 1_556 S
C286 C285 1.387 . S
C286 C287 1.369 1_556 S
C286 H295 0.929 . S
C287 N284 1.346 . S
C287 C286 1.369 1_554 S
C287 H290 0.928 . S
C288 N284 1.345 . S
C288 C289 1.371 . S
C288 H291 0.931 . S
C289 C285 1.391 1_554 S
C289 C288 1.371 . S
C289 H296 0.930 . S
H290 C287 0.928 . S
H291 C288 0.931 . S
H292 C268 0.930 . S
H293 C265 0.930 . S
H294 C274 0.930 . S
H295 C286 0.929 . S
H296 C289 0.930 . S
C297 C298 1.351 . S
C297 N300 1.368 . S
C297 H302 0.931 . S
C298 C297 1.351 . S
C298 N299 1.373 . S
C298 H326 0.930 . S
N299 C298 1.373 . S
N299 C301 1.340 . S
N300 C297 1.368 . S
N300 C301 1.321 . S
N300 Co303 2.135 . S
C301 N299 1.340 . S
C301 N300 1.321 . S
C301 H325 0.930 . S
H302 C297 0.931 . S
Co303 N300 2.135 . S
Co303 N306 2.121 . S
Co303 O311 2.055 . S
Co303 O314 2.039 . S
Co303 N317 2.140 . S
C304 O305 1.227 . S
C304 O314 1.265 . S
O305 C304 1.227 . S
N306 Co303 2.121 . S
N306 C308 1.375 . S
N306 C309 1.313 . S
C307 C308 1.338 . S
C307 N310 1.377 . S
C307 H327 0.930 . S
C308 N306 1.375 . S
C308 C307 1.338 . S
C308 H312 0.931 . S
C309 N306 1.313 . S
C309 N310 1.344 . S
C309 H313 0.930 . S
N310 C307 1.377 . S
N310 C309 1.344 . S
O311 Co303 2.055 . S
O311 C315 1.253 . S
H312 C308 0.931 . S
H313 C309 0.930 . S
O314 Co303 2.039 . S
O314 C304 1.265 . S
C315 O311 1.253 . S
C315 O316 1.227 . S
O316 C315 1.227 . S
N317 Co303 2.140 . S
N317 C320 1.346 . S
N317 C321 1.345 . S
C318 C319 1.387 . S
C318 C322 1.391 . S
C319 C318 1.387 . S
C319 C320 1.369 . S
C319 H328 0.929 . S
C320 N317 1.346 . S
C320 C319 1.369 . S
C320 H323 0.928 . S
C321 N317 1.345 . S
C321 C322 1.371 . S
C321 H324 0.931 . S
C322 C318 1.391 . S
C322 C321 1.371 . S
C322 H329 0.930 . S
H323 C320 0.928 . S
H324 C321 0.931 . S
H325 C301 0.930 . S
H326 C298 0.930 . S
H327 C307 0.930 . S
H328 C319 0.929 . S
H329 C322 0.930 . S
C330 C331 1.351 . S
C330 N333 1.368 . S
C330 H335 0.931 . S
C331 C330 1.351 . S
C331 N332 1.373 . S
C331 H359 0.930 . S
N332 C331 1.373 . S
N332 C334 1.340 . S
N333 C330 1.368 . S
N333 C334 1.321 . S
N333 Co336 2.135 . S
C334 N332 1.340 . S
C334 N333 1.321 . S
C334 H358 0.930 . S
H335 C330 0.931 . S
Co336 N333 2.135 . S
Co336 N339 2.121 . S
Co336 O344 2.055 . S
Co336 O347 2.039 . S
Co336 N350 2.140 . S
C337 O338 1.227 . S
C337 O347 1.265 . S
O338 C337 1.227 . S
N339 Co336 2.121 . S
N339 C341 1.375 . S
N339 C342 1.313 . S
C340 C341 1.338 . S
C340 N343 1.377 1_545 S
C340 H360 0.930 1_545 S
C341 N339 1.375 . S
C341 C340 1.338 . S
C341 H345 0.931 . S
C342 N339 1.313 . S
C342 N343 1.344 1_545 S
C342 H346 0.930 . S
N343 C340 1.377 1_565 S
N343 C342 1.344 1_565 S
O344 Co336 2.055 . S
O344 C348 1.253 . S
H345 C341 0.931 . S
H346 C342 0.930 . S
O347 Co336 2.039 . S
O347 C337 1.265 . S
C348 O344 1.253 . S
C348 O349 1.227 . S
O349 C348 1.227 . S
N350 Co336 2.140 . S
N350 C353 1.346 . S
N350 C354 1.345 . S
C351 C352 1.387 . S
C351 C355 1.391 1_545 S
C352 C351 1.387 . S
C352 C353 1.369 . S
C352 H361 0.929 . S
C353 N350 1.346 . S
C353 C352 1.369 . S
C353 H356 0.928 . S
C354 N350 1.345 . S
C354 C355 1.371 1_545 S
C354 H357 0.931 1_545 S
C355 C351 1.391 1_565 S
C355 C354 1.371 1_565 S
C355 H362 0.930 . S
H356 C353 0.928 . S
H357 C354 0.931 1_565 S
H358 C334 0.930 . S
H359 C331 0.930 . S
H360 C340 0.930 1_565 S
H361 C352 0.929 . S
H362 C355 0.930 . S
C363 C364 1.351 . S
C363 N366 1.368 . S
C363 H368 0.931 . S
C364 C363 1.351 . S
C364 N365 1.373 . S
C364 H392 0.930 . S
N365 C364 1.373 . S
N365 C367 1.340 . S
N366 C363 1.368 . S
N366 C367 1.321 . S
N366 Co369 2.135 . S
C367 N365 1.340 . S
C367 N366 1.321 . S
C367 H391 0.930 . S
H368 C363 0.931 . S
Co369 N366 2.135 . S
Co369 N372 2.121 . S
Co369 O377 2.055 . S
Co369 O380 2.039 . S
Co369 N383 2.140 . S
C370 O371 1.227 . S
C370 O380 1.265 . S
O371 C370 1.227 . S
N372 Co369 2.121 . S
N372 C374 1.375 . S
N372 C375 1.313 . S
C373 C374 1.338 . S
C373 N376 1.377 . S
C373 H393 0.930 . S
C374 N372 1.375 . S
C374 C373 1.338 . S
C374 H378 0.931 . S
C375 N372 1.313 . S
C375 N376 1.344 . S
C375 H379 0.930 . S
N376 C373 1.377 . S
N376 C375 1.344 . S
O377 Co369 2.055 . S
O377 C381 1.253 . S
H378 C374 0.931 . S
H379 C375 0.930 . S
O380 Co369 2.039 . S
O380 C370 1.265 . S
C381 O377 1.253 . S
C381 O382 1.227 . S
O382 C381 1.227 . S
N383 Co369 2.140 . S
N383 C386 1.346 . S
N383 C387 1.345 . S
C384 C385 1.387 . S
C384 C388 1.391 . S
C385 C384 1.387 . S
C385 C386 1.369 . S
C385 H394 0.929 . S
C386 N383 1.346 . S
C386 C385 1.369 . S
C386 H389 0.928 . S
C387 N383 1.345 . S
C387 C388 1.371 . S
C387 H390 0.931 . S
C388 C384 1.391 . S
C388 C387 1.371 . S
C388 H395 0.930 . S
H389 C386 0.928 . S
H390 C387 0.931 . S
H391 C367 0.930 . S
H392 C364 0.930 . S
H393 C373 0.930 . S
H394 C385 0.929 . S
H395 C388 0.930 . S
C396 C397 1.351 . S
C396 N399 1.368 . S
C396 H401 0.931 . S
C397 C396 1.351 . S
C397 N398 1.373 . S
C397 H425 0.930 . S
N398 C397 1.373 . S
N398 C400 1.340 . S
N399 C396 1.368 . S
N399 C400 1.321 . S
N399 Co402 2.135 . S
C400 N398 1.340 . S
C400 N399 1.321 . S
C400 H424 0.930 . S
H401 C396 0.931 . S
Co402 N399 2.135 . S
Co402 N405 2.121 . S
Co402 O410 2.055 1_554 S
Co402 O413 2.039 . S
Co402 N416 2.140 . S
C403 O404 1.227 . S
C403 O413 1.265 . S
O404 C403 1.227 . S
N405 Co402 2.121 . S
N405 C407 1.375 . S
N405 C408 1.317 . S
C406 C407 1.338 . S
C406 N409 1.377 . S
C406 H426 0.930 . S
C407 N405 1.375 . S
C407 C406 1.338 . S
C407 H411 0.931 . S
C408 N405 1.317 . S
C408 N409 1.344 . S
C408 H412 0.927 1_554 S
N409 C406 1.377 . S
N409 C408 1.344 . S
O410 Co402 2.055 1_556 S
O410 C414 1.253 . S
H411 C407 0.931 . S
H412 C408 0.927 1_556 S
O413 Co402 2.039 . S
O413 C403 1.265 . S
C414 O410 1.253 . S
C414 O415 1.227 1_556 S
O415 C414 1.227 1_554 S
N416 Co402 2.140 . S
N416 C419 1.346 . S
N416 C420 1.345 . S
C417 C418 1.387 . S
C417 C421 1.391 . S
C418 C417 1.387 . S
C418 C419 1.369 . S
C418 H427 0.929 . S
C419 N416 1.346 . S
C419 C418 1.369 . S
C419 H422 0.928 . S
C420 N416 1.345 . S
C420 C421 1.371 . S
C420 H423 0.931 . S
C421 C417 1.391 . S
C421 C420 1.371 . S
C421 H428 0.930 . S
H422 C419 0.928 . S
H423 C420 0.931 . S
H424 C400 0.930 . S
H425 C397 0.930 . S
H426 C406 0.930 . S
H427 C418 0.929 . S
H428 C421 0.930 . S
C429 C430 1.351 . S
C429 N432 1.368 . S
C429 H434 0.931 . S
C430 C429 1.351 . S
C430 N431 1.373 . S
C430 H458 0.930 . S
N431 C430 1.373 . S
N431 C433 1.340 . S
N432 C429 1.368 . S
N432 C433 1.321 . S
N432 Co435 2.135 1_545 S
C433 N431 1.340 . S
C433 N432 1.321 . S
C433 H457 0.930 1_545 S
H434 C429 0.931 . S
Co435 N432 2.135 1_565 S
Co435 N438 2.121 . S
Co435 O443 2.055 . S
Co435 O446 2.039 . S
Co435 N449 2.140 . S
C436 O437 1.227 . S
C436 O446 1.265 . S
O437 C436 1.227 . S
N438 Co435 2.121 . S
N438 C440 1.375 . S
N438 C441 1.313 . S
C439 C440 1.338 . S
C439 N442 1.377 . S
C439 H459 0.930 . S
C440 N438 1.375 . S
C440 C439 1.338 . S
C440 H444 0.931 . S
C441 N438 1.313 . S
C441 N442 1.344 . S
C441 H445 0.930 . S
N442 C439 1.377 . S
N442 C441 1.344 . S
O443 Co435 2.055 . S
O443 C447 1.253 . S
H444 C440 0.931 . S
H445 C441 0.930 . S
O446 Co435 2.039 . S
O446 C436 1.265 . S
C447 O443 1.253 . S
C447 O448 1.227 1_565 S
O448 C447 1.227 1_545 S
N449 Co435 2.140 . S
N449 C452 1.346 . S
N449 C453 1.345 . S
C450 C451 1.386 1_545 S
C450 C454 1.389 1_545 S
C451 C450 1.386 1_565 S
C451 C452 1.369 . S
C451 H460 0.929 1_565 S
C452 N449 1.346 . S
C452 C451 1.369 . S
C452 H455 0.928 . S
C453 N449 1.345 . S
C453 C454 1.371 . S
C453 H456 0.931 . S
C454 C450 1.389 1_565 S
C454 C453 1.371 . S
C454 H461 0.930 . S
H455 C452 0.928 . S
H456 C453 0.931 . S
H457 C433 0.930 1_565 S
H458 C430 0.930 . S
H459 C439 0.930 . S
H460 C451 0.929 1_545 S
H461 C454 0.930 . S
C462 C463 1.351 . S
C462 N465 1.368 . S
C462 H467 0.931 . S
C463 C462 1.351 . S
C463 N464 1.373 . S
C463 H491 0.930 . S
N464 C463 1.373 . S
N464 C466 1.340 . S
N465 C462 1.368 . S
N465 C466 1.321 . S
N465 Co468 2.135 . S
C466 N464 1.340 . S
C466 N465 1.321 . S
C466 H490 0.930 . S
H467 C462 0.931 . S
Co468 N465 2.135 . S
Co468 N471 2.121 . S
Co468 O476 2.055 . S
Co468 O479 2.039 . S
Co468 N482 2.140 . S
C469 O470 1.227 . S
C469 O479 1.265 . S
O470 C469 1.227 . S
N471 Co468 2.121 . S
N471 C473 1.375 . S
N471 C474 1.313 . S
C472 C473 1.338 . S
C472 N475 1.377 . S
C472 H492 0.930 . S
C473 N471 1.375 . S
C473 C472 1.338 . S
C473 H477 0.931 . S
C474 N471 1.313 . S
C474 N475 1.344 . S
C474 H478 0.930 . S
N475 C472 1.377 . S
N475 C474 1.344 . S
O476 Co468 2.055 . S
O476 C480 1.253 . S
H477 C473 0.931 . S
H478 C474 0.930 . S
O479 Co468 2.039 . S
O479 C469 1.265 . S
C480 O476 1.253 . S
C480 O481 1.227 . S
O481 C480 1.227 . S
N482 Co468 2.140 . S
N482 C485 1.346 . S
N482 C486 1.345 . S
C483 C484 1.387 . S
C483 C487 1.391 . S
C484 C483 1.387 . S
C484 C485 1.369 . S
C484 H493 0.929 . S
C485 N482 1.346 . S
C485 C484 1.369 . S
C485 H488 0.928 . S
C486 N482 1.345 . S
C486 C487 1.371 . S
C486 H489 0.931 . S
C487 C483 1.391 . S
C487 C486 1.371 . S
C487 H494 0.930 . S
H488 C485 0.928 . S
H489 C486 0.931 . S
H490 C466 0.930 . S
H491 C463 0.930 . S
H492 C472 0.930 . S
H493 C484 0.929 . S
H494 C487 0.930 . S
C495 C496 1.351 . S
C495 N498 1.368 . S
C495 H500 0.931 . S
C496 C495 1.351 . S
C496 N497 1.373 . S
C496 H524 0.930 . S
N497 C496 1.373 . S
N497 C499 1.340 . S
N498 C495 1.368 . S
N498 C499 1.321 . S
N498 Co501 2.135 . S
C499 N497 1.340 . S
C499 N498 1.321 . S
C499 H523 0.930 . S
H500 C495 0.931 . S
Co501 N498 2.135 . S
Co501 N504 2.121 . S
Co501 O509 2.055 . S
Co501 O512 2.039 . S
Co501 N515 2.140 . S
C502 O503 1.227 . S
C502 O512 1.265 . S
O503 C502 1.227 . S
N504 Co501 2.121 . S
N504 C506 1.375 . S
N504 C507 1.313 . S
C505 C506 1.338 . S
C505 N508 1.377 . S
C505 H525 0.930 . S
C506 N504 1.375 . S
C506 C505 1.338 . S
C506 H510 0.931 . S
C507 N504 1.313 . S
C507 N508 1.344 . S
C507 H511 0.930 . S
N508 C505 1.377 . S
N508 C507 1.344 . S
O509 Co501 2.055 . S
O509 C513 1.253 . S
H510 C506 0.931 . S
H511 C507 0.930 . S
O512 Co501 2.039 . S
O512 C502 1.265 . S
C513 O509 1.253 . S
C513 O514 1.227 . S
O514 C513 1.227 . S
N515 Co501 2.140 . S
N515 C518 1.346 . S
N515 C519 1.345 . S
C516 C517 1.387 . S
C516 C520 1.391 . S
C517 C516 1.387 . S
C517 C518 1.369 . S
C517 H526 0.929 . S
C518 N515 1.346 . S
C518 C517 1.369 . S
C518 H521 0.928 . S
C519 N515 1.345 . S
C519 C520 1.371 . S
C519 H522 0.931 . S
C520 C516 1.391 . S
C520 C519 1.371 . S
C520 H527 0.930 . S
H521 C518 0.928 . S
H522 C519 0.931 . S
H523 C499 0.930 . S
H524 C496 0.930 . S
H525 C505 0.930 . S
H526 C517 0.929 . S
H527 C520 0.930 . S
C528 C529 1.351 1_554 S
C528 N531 1.368 . S
C528 H533 0.931 . S
C529 C528 1.351 1_556 S
C529 N530 1.373 . S
C529 H557 0.930 . S
N530 C529 1.373 . S
N530 C532 1.340 . S
N531 C528 1.368 . S
N531 C532 1.321 1_554 S
N531 Co534 2.135 . S
C532 N530 1.340 . S
C532 N531 1.321 1_556 S
C532 H556 0.930 . S
H533 C528 0.931 . S
Co534 N531 2.135 . S
Co534 N537 2.121 . S
Co534 O542 2.055 . S
Co534 O545 2.039 . S
Co534 N548 2.140 . S
C535 O536 1.227 1_556 S
C535 O545 1.265 1_556 S
O536 C535 1.227 1_554 S
N537 Co534 2.121 . S
N537 C539 1.375 . S
N537 C540 1.313 . S
C538 C539 1.338 . S
C538 N541 1.377 . S
C538 H558 0.930 . S
C539 N537 1.375 . S
C539 C538 1.338 . S
C539 H543 0.931 . S
C540 N537 1.313 . S
C540 N541 1.344 . S
C540 H544 0.930 . S
N541 C538 1.377 . S
N541 C540 1.344 . S
O542 Co534 2.055 . S
O542 C546 1.253 . S
H543 C539 0.931 . S
H544 C540 0.930 . S
O545 Co534 2.039 . S
O545 C535 1.265 1_554 S
C546 O542 1.253 . S
C546 O547 1.227 . S
O547 C546 1.227 . S
N548 Co534 2.140 . S
N548 C551 1.346 . S
N548 C552 1.345 . S
C549 C550 1.387 . S
C549 C553 1.391 1_655 S
C550 C549 1.387 . S
C550 C551 1.369 1_655 S
C550 H559 0.929 . S
C551 N548 1.346 . S
C551 C550 1.369 1_455 S
C551 H554 0.928 . S
C552 N548 1.345 . S
C552 C553 1.371 . S
C552 H555 0.931 . S
C553 C549 1.391 1_455 S
C553 C552 1.371 . S
C553 H560 0.930 . S
H554 C551 0.928 . S
H555 C552 0.931 . S
H556 C532 0.930 . S
H557 C529 0.930 . S
H558 C538 0.930 . S
H559 C550 0.929 . S
H560 C553 0.930 . S
C561 C562 1.351 . S
C561 N564 1.368 . S
C561 H566 0.931 . S
C562 C561 1.351 . S
C562 N563 1.373 . S
C562 H590 0.930 . S
N563 C562 1.373 . S
N563 C565 1.340 . S
N564 C561 1.368 . S
N564 C565 1.321 . S
N564 Co567 2.135 . S
C565 N563 1.340 . S
C565 N564 1.321 . S
C565 H589 0.930 . S
H566 C561 0.931 . S
Co567 N564 2.135 . S
Co567 N570 2.121 . S
Co567 O575 2.055 . S
Co567 O578 2.039 . S
Co567 N581 2.140 . S
C568 O569 1.227 . S
C568 O578 1.265 . S
O569 C568 1.227 . S
N570 Co567 2.121 . S
N570 C572 1.375 . S
N570 C573 1.313 . S
C571 C572 1.338 . S
C571 N574 1.377 1_554 S
C571 H591 0.930 1_554 S
C572 N570 1.375 . S
C572 C571 1.338 . S
C572 H576 0.931 . S
C573 N570 1.313 . S
C573 N574 1.344 1_554 S
C573 H577 0.930 . S
N574 C571 1.377 1_556 S
N574 C573 1.344 1_556 S
O575 Co567 2.055 . S
O575 C579 1.253 . S
H576 C572 0.931 . S
H577 C573 0.930 . S
O578 Co567 2.039 . S
O578 C568 1.265 . S
C579 O575 1.253 . S
C579 O580 1.227 . S
O580 C579 1.227 . S
N581 Co567 2.140 . S
N581 C584 1.346 . S
N581 C585 1.345 . S
C582 C583 1.387 . S
C582 C586 1.391 1_554 S
C583 C582 1.387 . S
C583 C584 1.369 . S
C583 H592 0.929 . S
C584 N581 1.346 . S
C584 C583 1.369 . S
C584 H587 0.928 . S
C585 N581 1.345 . S
C585 C586 1.371 1_554 S
C585 H588 0.931 1_554 S
C586 C582 1.391 1_556 S
C586 C585 1.371 1_556 S
C586 H593 0.930 . S
H587 C584 0.928 . S
H588 C585 0.931 1_556 S
H589 C565 0.930 . S
H590 C562 0.930 . S
H591 C571 0.930 1_556 S
H592 C583 0.929 . S
H593 C586 0.930 . S
C594 C595 1.351 . S
C594 N597 1.368 . S
C594 H599 0.931 . S
C595 C594 1.351 . S
C595 N596 1.373 . S
C595 H623 0.930 . S
N596 C595 1.373 . S
N596 C598 1.340 . S
N597 C594 1.368 . S
N597 C598 1.321 . S
N597 Co600 2.135 . S
C598 N596 1.340 . S
C598 N597 1.321 . S
C598 H622 0.930 . S
H599 C594 0.931 . S
Co600 N597 2.135 . S
Co600 N603 2.121 . S
Co600 O608 2.055 . S
Co600 O611 2.039 . S
Co600 N614 2.140 . S
C601 O602 1.227 . S
C601 O611 1.265 . S
O602 C601 1.227 . S
N603 Co600 2.121 . S
N603 C605 1.375 . S
N603 C606 1.313 . S
C604 C605 1.338 . S
C604 N607 1.377 . S
C604 H624 0.930 . S
C605 N603 1.375 . S
C605 C604 1.338 . S
C605 H609 0.931 . S
C606 N603 1.313 . S
C606 N607 1.344 . S
C606 H610 0.930 . S
N607 C604 1.377 . S
N607 C606 1.344 . S
O608 Co600 2.055 . S
O608 C612 1.253 . S
H609 C605 0.931 . S
H610 C606 0.930 . S
O611 Co600 2.039 . S
O611 C601 1.265 . S
C612 O608 1.253 . S
C612 O613 1.227 . S
O613 C612 1.227 . S
N614 Co600 2.140 . S
N614 C617 1.346 . S
N614 C618 1.345 . S
C615 C616 1.387 . S
C615 C619 1.391 . S
C616 C615 1.387 . S
C616 C617 1.369 . S
C616 H625 0.929 . S
C617 N614 1.346 . S
C617 C616 1.369 . S
C617 H620 0.928 . S
C618 N614 1.345 . S
C618 C619 1.371 . S
C618 H621 0.931 . S
C619 C615 1.391 . S
C619 C618 1.371 . S
C619 H626 0.930 . S
H620 C617 0.928 . S
H621 C618 0.931 . S
H622 C598 0.930 . S
H623 C595 0.930 . S
H624 C604 0.930 . S
H625 C616 0.929 . S
H626 C619 0.930 . S
C627 C628 1.351 . S
C627 N630 1.368 . S
C627 H632 0.931 . S
C628 C627 1.351 . S
C628 N629 1.373 . S
C628 H656 0.930 . S
N629 C628 1.373 . S
N629 C631 1.340 . S
N630 C627 1.368 . S
N630 C631 1.321 . S
N630 Co633 2.135 . S
C631 N629 1.340 . S
C631 N630 1.321 . S
C631 H655 0.930 . S
H632 C627 0.931 . S
Co633 N630 2.135 . S
Co633 N636 2.121 . S
Co633 O641 2.055 1_455 S
Co633 O644 2.039 . S
Co633 N647 2.140 . S
C634 O635 1.227 . S
C634 O644 1.265 . S
O635 C634 1.227 . S
N636 Co633 2.121 . S
N636 C638 1.375 . S
N636 C639 1.317 . S
C637 C638 1.338 . S
C637 N640 1.377 . S
C637 H657 0.930 . S
C638 N636 1.375 . S
C638 C637 1.338 . S
C638 H642 0.931 . S
C639 N636 1.317 . S
C639 N640 1.344 . S
C639 H643 0.927 1_455 S
N640 C637 1.377 . S
N640 C639 1.344 . S
O641 Co633 2.055 1_655 S
O641 C645 1.253 . S
H642 C638 0.931 . S
H643 C639 0.927 1_655 S
O644 Co633 2.039 . S
O644 C634 1.265 . S
C645 O641 1.253 . S
C645 O646 1.227 1_655 S
O646 C645 1.227 1_455 S
N647 Co633 2.140 . S
N647 C650 1.346 . S
N647 C651 1.345 . S
C648 C649 1.387 . S
C648 C652 1.391 . S
C649 C648 1.387 . S
C649 C650 1.369 . S
C649 H658 0.929 . S
C650 N647 1.346 . S
C650 C649 1.369 . S
C650 H653 0.928 . S
C651 N647 1.345 . S
C651 C652 1.371 . S
C651 H654 0.931 . S
C652 C648 1.391 . S
C652 C651 1.371 . S
C652 H659 0.930 . S
H653 C650 0.928 . S
H654 C651 0.931 . S
H655 C631 0.930 . S
H656 C628 0.930 . S
H657 C637 0.930 . S
H658 C649 0.929 . S
H659 C652 0.930 . S
C660 C661 1.351 . S
C660 N663 1.368 . S
C660 H665 0.931 . S
C661 C660 1.351 . S
C661 N662 1.373 . S
C661 H689 0.930 . S
N662 C661 1.373 . S
N662 C664 1.340 . S
N663 C660 1.368 . S
N663 C664 1.321 . S
N663 Co666 2.135 . S
C664 N662 1.340 . S
C664 N663 1.321 . S
C664 H688 0.930 . S
H665 C660 0.931 . S
Co666 N663 2.135 . S
Co666 N669 2.121 . S
Co666 O674 2.055 . S
Co666 O677 2.039 . S
Co666 N680 2.140 . S
C667 O668 1.227 . S
C667 O677 1.265 . S
O668 C667 1.227 . S
N669 Co666 2.121 . S
N669 C671 1.375 . S
N669 C672 1.313 . S
C670 C671 1.338 . S
C670 N673 1.377 . S
C670 H690 0.930 . S
C671 N669 1.375 . S
C671 C670 1.338 . S
C671 H675 0.931 . S
C672 N669 1.313 . S
C672 N673 1.344 . S
C672 H676 0.930 . S
N673 C670 1.377 . S
N673 C672 1.344 . S
O674 Co666 2.055 . S
O674 C678 1.253 . S
H675 C671 0.931 . S
H676 C672 0.930 . S
O677 Co666 2.039 . S
O677 C667 1.265 . S
C678 O674 1.253 . S
C678 O679 1.227 . S
O679 C678 1.227 . S
N680 Co666 2.140 . S
N680 C683 1.346 . S
N680 C684 1.345 . S
C681 C682 1.387 . S
C681 C685 1.391 . S
C682 C681 1.387 . S
C682 C683 1.369 . S
C682 H691 0.929 . S
C683 N680 1.346 . S
C683 C682 1.369 . S
C683 H686 0.928 . S
C684 N680 1.345 . S
C684 C685 1.371 . S
C684 H687 0.931 . S
C685 C681 1.391 . S
C685 C684 1.371 . S
C685 H692 0.930 . S
H686 C683 0.928 . S
H687 C684 0.931 . S
H688 C664 0.930 . S
H689 C661 0.930 . S
H690 C670 0.930 . S
H691 C682 0.929 . S
H692 C685 0.930 . S
C693 C694 1.351 . S
C693 N696 1.368 . S
C693 H698 0.931 . S
C694 C693 1.351 . S
C694 N695 1.373 . S
C694 H722 0.930 . S
N695 C694 1.373 . S
N695 C697 1.340 . S
N696 C693 1.368 . S
N696 C697 1.321 . S
N696 Co699 2.135 . S
C697 N695 1.340 . S
C697 N696 1.321 . S
C697 H721 0.930 . S
H698 C693 0.931 . S
Co699 N696 2.135 . S
Co699 N702 2.121 . S
Co699 O707 2.055 . S
Co699 O710 2.039 . S
Co699 N713 2.140 . S
C700 O701 1.227 . S
C700 O710 1.265 . S
O701 C700 1.227 . S
N702 Co699 2.121 . S
N702 C704 1.375 . S
N702 C705 1.313 . S
C703 C704 1.338 . S
C703 N706 1.377 . S
C703 H723 0.930 . S
C704 N702 1.375 . S
C704 C703 1.338 . S
C704 H708 0.931 . S
C705 N702 1.313 . S
C705 N706 1.344 . S
C705 H709 0.930 . S
N706 C703 1.377 . S
N706 C705 1.344 . S
O707 Co699 2.055 . S
O707 C711 1.253 . S
H708 C704 0.931 . S
H709 C705 0.930 . S
O710 Co699 2.039 . S
O710 C700 1.265 . S
C711 O707 1.253 . S
C711 O712 1.227 . S
O712 C711 1.227 . S
N713 Co699 2.140 . S
N713 C716 1.346 . S
N713 C717 1.345 . S
C714 C715 1.387 . S
C714 C718 1.391 . S
C715 C714 1.387 . S
C715 C716 1.369 . S
C715 H724 0.929 . S
C716 N713 1.346 . S
C716 C715 1.369 . S
C716 H719 0.928 . S
C717 N713 1.345 . S
C717 C718 1.371 . S
C717 H720 0.931 . S
C718 C714 1.391 . S
C718 C717 1.371 . S
C718 H725 0.930 . S
H719 C716 0.928 . S
H720 C717 0.931 . S
H721 C697 0.930 . S
H722 C694 0.930 . S
H723 C703 0.930 . S
H724 C715 0.929 . S
H725 C718 0.930 . S
C726 C727 1.351 . S
C726 N729 1.368 . S
C726 H731 0.931 . S
C727 C726 1.351 . S
C727 N728 1.373 . S
C727 H755 0.930 . S
N728 C727 1.373 . S
N728 C730 1.340 . S
N729 C726 1.368 . S
N729 C730 1.321 . S
N729 Co732 2.135 1_455 S
C730 N728 1.340 . S
C730 N729 1.321 . S
C730 H754 0.930 1_455 S
H731 C726 0.931 . S
Co732 N729 2.135 1_655 S
Co732 N735 2.121 . S
Co732 O740 2.055 . S
Co732 O743 2.039 . S
Co732 N746 2.140 . S
C733 O734 1.227 . S
C733 O743 1.265 . S
O734 C733 1.227 . S
N735 Co732 2.121 . S
N735 C737 1.375 . S
N735 C738 1.313 . S
C736 C737 1.338 . S
C736 N739 1.377 . S
C736 H756 0.930 . S
C737 N735 1.375 . S
C737 C736 1.338 . S
C737 H741 0.931 . S
C738 N735 1.313 . S
C738 N739 1.344 . S
C738 H742 0.930 . S
N739 C736 1.377 . S
N739 C738 1.344 . S
O740 Co732 2.055 . S
O740 C744 1.253 . S
H741 C737 0.931 . S
H742 C738 0.930 . S
O743 Co732 2.039 . S
O743 C733 1.265 . S
C744 O740 1.253 . S
C744 O745 1.227 1_655 S
O745 C744 1.227 1_455 S
N746 Co732 2.140 . S
N746 C749 1.346 . S
N746 C750 1.345 . S
C747 C748 1.386 1_455 S
C747 C751 1.389 1_455 S
C748 C747 1.386 1_655 S
C748 C749 1.369 . S
C748 H757 0.929 1_655 S
C749 N746 1.346 . S
C749 C748 1.369 . S
C749 H752 0.928 . S
C750 N746 1.345 . S
C750 C751 1.371 . S
C750 H753 0.931 . S
C751 C747 1.389 1_655 S
C751 C750 1.371 . S
C751 H758 0.930 . S
H752 C749 0.928 . S
H753 C750 0.931 . S
H754 C730 0.930 1_655 S
H755 C727 0.930 . S
H756 C736 0.930 . S
H757 C748 0.929 1_455 S
H758 C751 0.930 . S
C759 C760 1.351 . S
C759 N762 1.368 . S
C759 H764 0.931 . S
C760 C759 1.351 . S
C760 N761 1.373 . S
C760 H788 0.930 . S
N761 C760 1.373 . S
N761 C763 1.340 . S
N762 C759 1.368 . S
N762 C763 1.321 . S
N762 Co765 2.135 . S
C763 N761 1.340 . S
C763 N762 1.321 . S
C763 H787 0.930 . S
H764 C759 0.931 . S
Co765 N762 2.135 . S
Co765 N768 2.121 . S
Co765 O773 2.055 . S
Co765 O776 2.039 . S
Co765 N779 2.140 . S
C766 O767 1.227 . S
C766 O776 1.265 . S
O767 C766 1.227 . S
N768 Co765 2.121 . S
N768 C770 1.375 . S
N768 C771 1.313 . S
C769 C770 1.338 . S
C769 N772 1.377 . S
C769 H789 0.930 . S
C770 N768 1.375 . S
C770 C769 1.338 . S
C770 H774 0.931 . S
C771 N768 1.313 . S
C771 N772 1.344 . S
C771 H775 0.930 . S
N772 C769 1.377 . S
N772 C771 1.344 . S
O773 Co765 2.055 . S
O773 C777 1.253 . S
H774 C770 0.931 . S
H775 C771 0.930 . S
O776 Co765 2.039 . S
O776 C766 1.265 . S
C777 O773 1.253 . S
C777 O778 1.227 . S
O778 C777 1.227 . S
N779 Co765 2.140 . S
N779 C782 1.346 . S
N779 C783 1.345 . S
C780 C781 1.387 . S
C780 C784 1.391 . S
C781 C780 1.387 . S
C781 C782 1.369 . S
C781 H790 0.929 . S
C782 N779 1.346 . S
C782 C781 1.369 . S
C782 H785 0.928 . S
C783 N779 1.345 . S
C783 C784 1.371 . S
C783 H786 0.931 . S
C784 C780 1.391 . S
C784 C783 1.371 . S
C784 H791 0.930 . S
H785 C782 0.928 . S
H786 C783 0.931 . S
H787 C763 0.930 . S
H788 C760 0.930 . S
H789 C769 0.930 . S
H790 C781 0.929 . S
H791 C784 0.930 . S
H792 C798 0.930 . S
H793 C802 0.930 . S
H794 C807 0.929 . S
H795 C805 0.929 . S
H796 C800 0.929 . S
H797 C806 0.929 . S
C798 H792 0.930 . S
C798 C799 1.367 . S
C798 C806 1.378 . S
C799 C798 1.367 . S
C799 C807 1.433 . S
C800 H796 0.929 . S
C800 C802 1.378 . S
C800 C804 1.350 . S
C801 C804 1.463 . S
C801 C806 1.350 . S
C801 N809 1.427 . S
C802 H793 0.930 . S
C802 C800 1.378 . S
C802 C803 1.367 . S
C803 C802 1.367 . S
C803 C805 1.433 . S
C804 C800 1.350 . S
C804 C801 1.463 . S
C804 N808 1.427 . S
C805 H795 0.929 . S
C805 C803 1.433 . S
C805 N808 1.384 . S
C806 H797 0.929 . S
C806 C798 1.378 . S
C806 C801 1.350 . S
C807 H794 0.929 . S
C807 C799 1.433 . S
C807 N809 1.384 . S
N808 C804 1.427 . S
N808 C805 1.384 . S
N809 C801 1.427 . S
N809 C807 1.384 . S
H810 C816 0.930 . S
H811 C820 0.930 . S
H812 C825 0.929 . S
H813 C823 0.929 . S
H814 C818 0.929 . S
H815 C824 0.929 . S
C816 H810 0.930 . S
C816 C817 1.367 1_554 S
C816 C824 1.378 . S
C817 C816 1.367 1_556 S
C817 C825 1.433 . S
C818 H814 0.929 . S
C818 C820 1.378 . S
C818 C822 1.328 1_556 S
C819 C822 1.462 . S
C819 C824 1.366 . S
C819 N827 1.409 1_554 S
C820 H811 0.930 . S
C820 C818 1.378 . S
C820 C821 1.367 1_556 S
C821 C820 1.367 1_554 S
C821 C823 1.433 . S
C822 C818 1.328 1_554 S
C822 C819 1.462 . S
C822 N826 1.451 . S
C823 H813 0.929 . S
C823 C821 1.433 . S
C823 N826 1.384 . S
C824 H815 0.929 . S
C824 C816 1.378 . S
C824 C819 1.366 . S
C825 H812 0.929 . S
C825 C817 1.433 . S
C825 N827 1.384 . S
N826 C822 1.451 . S
N826 C823 1.384 . S
N827 C819 1.409 1_556 S
N827 C825 1.384 . S
H828 C834 0.930 . S
H829 C838 0.930 . S
H830 C843 0.929 . S
H831 C841 0.929 . S
H832 C836 0.929 . S
H833 C842 0.929 . S
C834 H828 0.930 . S
C834 C835 1.367 . S
C834 C842 1.378 . S
C835 C834 1.367 . S
C835 C843 1.433 . S
C836 H832 0.929 . S
C836 C838 1.378 . S
C836 C840 1.350 . S
C837 C840 1.463 . S
C837 C842 1.350 . S
C837 N845 1.427 . S
C838 H829 0.930 . S
C838 C836 1.378 . S
C838 C839 1.367 . S
C839 C838 1.367 . S
C839 C841 1.433 . S
C840 C836 1.350 . S
C840 C837 1.463 . S
C840 N844 1.427 . S
C841 H831 0.929 . S
C841 C839 1.433 . S
C841 N844 1.384 . S
C842 H833 0.929 . S
C842 C834 1.378 . S
C842 C837 1.350 . S
C843 H830 0.929 . S
C843 C835 1.433 . S
C843 N845 1.384 . S
N844 C840 1.427 . S
N844 C841 1.384 . S
N845 C837 1.427 . S
N845 C843 1.384 . S
H846 C852 0.930 . S
H847 C856 0.930 . S
H848 C861 0.929 . S
H849 C859 0.929 . S
H850 C854 0.929 . S
H851 C860 0.929 . S
C852 H846 0.930 . S
C852 C853 1.367 . S
C852 C860 1.378 . S
C853 C852 1.367 . S
C853 C861 1.433 . S
C854 H850 0.929 . S
C854 C856 1.378 . S
C854 C858 1.350 . S
C855 C858 1.463 . S
C855 C860 1.350 . S
C855 N863 1.427 . S
C856 H847 0.930 . S
C856 C854 1.378 . S
C856 C857 1.367 . S
C857 C856 1.367 . S
C857 C859 1.433 . S
C858 C854 1.350 . S
C858 C855 1.463 . S
C858 N862 1.427 . S
C859 H849 0.929 . S
C859 C857 1.433 . S
C859 N862 1.384 . S
C860 H851 0.929 . S
C860 C852 1.378 . S
C860 C855 1.350 . S
C861 H848 0.929 . S
C861 C853 1.433 . S
C861 N863 1.384 . S
N862 C858 1.427 . S
N862 C859 1.384 . S
N863 C855 1.427 . S
N863 C861 1.384 . S
H864 C870 0.930 . S
H865 C874 0.930 . S
H866 C879 0.929 . S
H867 C877 0.929 . S
H868 C872 0.929 . S
H869 C878 0.929 . S
C870 H864 0.930 . S
C870 C871 1.367 . S
C870 C878 1.378 . S
C871 C870 1.367 . S
C871 C879 1.433 . S
C872 H868 0.929 . S
C872 C874 1.378 . S
C872 C876 1.350 . S
C873 C876 1.463 . S
C873 C878 1.350 . S
C873 N881 1.427 . S
C874 H865 0.930 . S
C874 C872 1.378 . S
C874 C875 1.367 . S
C875 C874 1.367 . S
C875 C877 1.433 . S
C876 C872 1.350 . S
C876 C873 1.463 . S
C876 N880 1.427 . S
C877 H867 0.929 . S
C877 C875 1.433 . S
C877 N880 1.384 . S
C878 H869 0.929 . S
C878 C870 1.378 . S
C878 C873 1.350 . S
C879 H866 0.929 . S
C879 C871 1.433 . S
C879 N881 1.384 . S
N880 C876 1.427 . S
N880 C877 1.384 . S
N881 C873 1.427 . S
N881 C879 1.384 . S
H882 C888 0.930 . S
H883 C892 0.930 . S
H884 C897 0.929 . S
H885 C895 0.929 . S
H886 C890 0.929 . S
H887 C896 0.929 . S
C888 H882 0.930 . S
C888 C889 1.367 . S
C888 C896 1.378 . S
C889 C888 1.367 . S
C889 C897 1.433 . S
C890 H886 0.929 . S
C890 C892 1.378 . S
C890 C894 1.350 . S
C891 C894 1.463 . S
C891 C896 1.350 . S
C891 N899 1.427 . S
C892 H883 0.930 . S
C892 C890 1.378 . S
C892 C893 1.367 . S
C893 C892 1.367 . S
C893 C895 1.433 . S
C894 C890 1.350 . S
C894 C891 1.463 . S
C894 N898 1.427 . S
C895 H885 0.929 . S
C895 C893 1.433 . S
C895 N898 1.384 . S
C896 H887 0.929 . S
C896 C888 1.378 . S
C896 C891 1.350 . S
C897 H884 0.929 . S
C897 C889 1.433 . S
C897 N899 1.384 . S
N898 C894 1.427 . S
N898 C895 1.384 . S
N899 C891 1.427 . S
N899 C897 1.384 . S
H900 C906 0.930 . S
H901 C910 0.930 . S
H902 C915 0.929 . S
H903 C913 0.929 . S
H904 C908 0.929 . S
H905 C914 0.929 . S
C906 H900 0.930 . S
C906 C907 1.367 1_655 S
C906 C914 1.378 . S
C907 C906 1.367 1_455 S
C907 C915 1.433 . S
C908 H904 0.929 . S
C908 C910 1.378 . S
C908 C912 1.357 . S
C909 C912 1.462 . S
C909 C914 1.328 1_455 S
C909 N917 1.453 . S
C910 H901 0.930 . S
C910 C908 1.378 . S
C910 C911 1.367 1_455 S
C911 C910 1.367 1_655 S
C911 C913 1.433 . S
C912 C908 1.357 . S
C912 C909 1.462 . S
C912 N916 1.419 1_455 S
C913 H903 0.929 . S
C913 C911 1.433 . S
C913 N916 1.384 . S
C914 H905 0.929 . S
C914 C906 1.378 . S
C914 C909 1.328 1_655 S
C915 H902 0.929 . S
C915 C907 1.433 . S
C915 N917 1.384 . S
N916 C912 1.419 1_655 S
N916 C913 1.384 . S
N917 C909 1.453 . S
N917 C915 1.384 . S
H918 C924 0.930 . S
H919 C928 0.930 . S
H920 C933 0.929 . S
H921 C931 0.929 . S
H922 C926 0.929 . S
H923 C932 0.929 . S
C924 H918 0.930 . S
C924 C925 1.367 . S
C924 C932 1.378 . S
C925 C924 1.367 . S
C925 C933 1.433 . S
C926 H922 0.929 . S
C926 C928 1.378 . S
C926 C930 1.350 . S
C927 C930 1.463 . S
C927 C932 1.350 . S
C927 N935 1.427 . S
C928 H919 0.930 . S
C928 C926 1.378 . S
C928 C929 1.367 . S
C929 C928 1.367 . S
C929 C931 1.433 . S
C930 C926 1.350 . S
C930 C927 1.463 . S
C930 N934 1.427 . S
C931 H921 0.929 . S
C931 C929 1.433 . S
C931 N934 1.384 . S
C932 H923 0.929 . S
C932 C924 1.378 . S
C932 C927 1.350 . S
C933 H920 0.929 . S
C933 C925 1.433 . S
C933 N935 1.384 . S
N934 C930 1.427 . S
N934 C931 1.384 . S
N935 C927 1.427 . S
N935 C933 1.384 . S
H936 C942 0.930 . S
H937 C946 0.930 . S
H938 C951 0.929 . S
H939 C949 0.929 . S
H940 C944 0.929 . S
H941 C950 0.929 . S
C942 H936 0.930 . S
C942 C943 1.367 . S
C942 C950 1.378 . S
C943 C942 1.367 . S
C943 C951 1.433 . S
C944 H940 0.929 . S
C944 C946 1.378 . S
C944 C948 1.350 . S
C945 C948 1.463 . S
C945 C950 1.350 . S
C945 N953 1.427 . S
C946 H937 0.930 . S
C946 C944 1.378 . S
C946 C947 1.367 . S
C947 C946 1.367 . S
C947 C949 1.433 . S
C948 C944 1.350 . S
C948 C945 1.463 . S
C948 N952 1.427 . S
C949 H939 0.929 . S
C949 C947 1.433 . S
C949 N952 1.384 . S
C950 H941 0.929 . S
C950 C942 1.378 . S
C950 C945 1.350 . S
C951 H938 0.929 . S
C951 C943 1.433 . S
C951 N953 1.384 . S
N952 C948 1.427 . S
N952 C949 1.384 . S
N953 C945 1.427 . S
N953 C951 1.384 . S
H954 C960 0.930 . S
H955 C964 0.930 . S
H956 C969 0.929 . S
H957 C967 0.929 . S
H958 C962 0.929 . S
H959 C968 0.929 . S
C960 H954 0.930 . S
C960 C961 1.367 . S
C960 C968 1.378 . S
C961 C960 1.367 . S
C961 C969 1.433 . S
C962 H958 0.929 . S
C962 C964 1.378 . S
C962 C966 1.350 . S
C963 C966 1.463 . S
C963 C968 1.350 . S
C963 N971 1.427 . S
C964 H955 0.930 . S
C964 C962 1.378 . S
C964 C965 1.367 . S
C965 C964 1.367 . S
C965 C967 1.433 . S
C966 C962 1.350 . S
C966 C963 1.463 . S
C966 N970 1.427 . S
C967 H957 0.929 . S
C967 C965 1.433 . S
C967 N970 1.384 . S
C968 H959 0.929 . S
C968 C960 1.378 . S
C968 C963 1.350 . S
C969 H956 0.929 . S
C969 C961 1.433 . S
C969 N971 1.384 . S
N970 C966 1.427 . S
N970 C967 1.384 . S
N971 C963 1.427 . S
N971 C969 1.384 . S
H972 C978 0.930 . S
H973 C982 0.930 . S
H974 C987 0.929 . S
H975 C985 0.929 . S
H976 C980 0.929 . S
H977 C986 0.929 . S
C978 H972 0.930 . S
C978 C979 1.367 1_545 S
C978 C986 1.378 . S
C979 C978 1.367 1_565 S
C979 C987 1.433 . S
C980 H976 0.929 . S
C980 C982 1.378 . S
C980 C984 1.327 1_565 S
C981 C984 1.462 . S
C981 C986 1.361 . S
C981 N989 1.415 1_545 S
C982 H973 0.930 . S
C982 C980 1.378 . S
C982 C983 1.367 1_565 S
C983 C982 1.367 1_545 S
C983 C985 1.433 . S
C984 C980 1.327 1_545 S
C984 C981 1.462 . S
C984 N988 1.452 . S
C985 H975 0.929 . S
C985 C983 1.433 . S
C985 N988 1.384 . S
C986 H977 0.929 . S
C986 C978 1.378 . S
C986 C981 1.361 . S
C987 H974 0.929 . S
C987 C979 1.433 . S
C987 N989 1.384 . S
N988 C984 1.452 . S
N988 C985 1.384 . S
N989 C981 1.415 1_565 S
N989 C987 1.384 . S
H990 C996 0.930 . S
H991 C1000 0.930 . S
H992 C1005 0.929 . S
H993 C1003 0.929 . S
H994 C998 0.929 . S
H995 C1004 0.929 . S
C996 H990 0.930 . S
C996 C997 1.367 . S
C996 C1004 1.378 . S
C997 C996 1.367 . S
C997 C1005 1.433 . S
C998 H994 0.929 . S
C998 C1000 1.378 . S
C998 C1002 1.350 . S
C999 C1002 1.463 . S
C999 C1004 1.350 . S
C999 N1007 1.427 . S
C1000 H991 0.930 . S
C1000 C998 1.378 . S
C1000 C1001 1.367 . S
C1001 C1000 1.367 . S
C1001 C1003 1.433 . S
C1002 C998 1.350 . S
C1002 C999 1.463 . S
C1002 N1006 1.427 . S
C1003 H993 0.929 . S
C1003 C1001 1.433 . S
C1003 N1006 1.384 . S
C1004 H995 0.929 . S
C1004 C996 1.378 . S
C1004 C999 1.350 . S
C1005 H992 0.929 . S
C1005 C997 1.433 . S
C1005 N1007 1.384 . S
N1006 C1002 1.427 . S
N1006 C1003 1.384 . S
N1007 C999 1.427 . S
N1007 C1005 1.384 . S
H1008 C1014 0.930 . S
H1009 C1018 0.930 . S
H1010 C1023 0.929 . S
H1011 C1021 0.929 . S
H1012 C1016 0.929 . S
H1013 C1022 0.929 . S
C1014 H1008 0.930 . S
C1014 C1015 1.367 . S
C1014 C1022 1.378 . S
C1015 C1014 1.367 . S
C1015 C1023 1.433 . S
C1016 H1012 0.929 . S
C1016 C1018 1.378 . S
C1016 C1020 1.350 . S
C1017 C1020 1.463 . S
C1017 C1022 1.350 . S
C1017 N1025 1.427 . S
C1018 H1009 0.930 . S
C1018 C1016 1.378 . S
C1018 C1019 1.367 . S
C1019 C1018 1.367 . S
C1019 C1021 1.433 . S
C1020 C1016 1.350 . S
C1020 C1017 1.463 . S
C1020 N1024 1.427 . S
C1021 H1011 0.929 . S
C1021 C1019 1.433 . S
C1021 N1024 1.384 . S
C1022 H1013 0.929 . S
C1022 C1014 1.378 . S
C1022 C1017 1.350 . S
C1023 H1010 0.929 . S
C1023 C1015 1.433 . S
C1023 N1025 1.384 . S
N1024 C1020 1.427 . S
N1024 C1021 1.384 . S
N1025 C1017 1.427 . S
N1025 C1023 1.384 . S
H1026 C1032 0.930 . S
H1027 C1036 0.930 . S
H1028 C1041 0.929 . S
H1029 C1039 0.929 . S
H1030 C1034 0.929 . S
H1031 C1040 0.929 . S
C1032 H1026 0.930 . S
C1032 C1033 1.367 . S
C1032 C1040 1.378 . S
C1033 C1032 1.367 . S
C1033 C1041 1.433 . S
C1034 H1030 0.929 . S
C1034 C1036 1.378 . S
C1034 C1038 1.350 . S
C1035 C1038 1.463 . S
C1035 C1040 1.350 . S
C1035 N1043 1.427 . S
C1036 H1027 0.930 . S
C1036 C1034 1.378 . S
C1036 C1037 1.367 . S
C1037 C1036 1.367 . S
C1037 C1039 1.433 . S
C1038 C1034 1.350 . S
C1038 C1035 1.463 . S
C1038 N1042 1.427 . S
C1039 H1029 0.929 . S
C1039 C1037 1.433 . S
C1039 N1042 1.384 . S
C1040 H1031 0.929 . S
C1040 C1032 1.378 . S
C1040 C1035 1.350 . S
C1041 H1028 0.929 . S
C1041 C1033 1.433 . S
C1041 N1043 1.384 . S
N1042 C1038 1.427 . S
N1042 C1039 1.384 . S
N1043 C1035 1.427 . S
N1043 C1041 1.384 . S
H1044 C1050 0.930 . S
H1045 C1054 0.930 . S
H1046 C1059 0.929 . S
H1047 C1057 0.929 . S
H1048 C1052 0.929 . S
H1049 C1058 0.929 . S
C1050 H1044 0.930 . S
C1050 C1051 1.367 . S
C1050 C1058 1.378 . S
C1051 C1050 1.367 . S
C1051 C1059 1.433 . S
C1052 H1048 0.929 . S
C1052 C1054 1.378 . S
C1052 C1056 1.350 . S
C1053 C1056 1.463 . S
C1053 C1058 1.350 . S
C1053 N1061 1.427 . S
C1054 H1045 0.930 . S
C1054 C1052 1.378 . S
C1054 C1055 1.367 . S
C1055 C1054 1.367 . S
C1055 C1057 1.433 . S
C1056 C1052 1.350 . S
C1056 C1053 1.463 . S
C1056 N1060 1.427 . S
C1057 H1047 0.929 . S
C1057 C1055 1.433 . S
C1057 N1060 1.384 . S
C1058 H1049 0.929 . S
C1058 C1050 1.378 . S
C1058 C1053 1.350 . S
C1059 H1046 0.929 . S
C1059 C1051 1.433 . S
C1059 N1061 1.384 . S
N1060 C1056 1.427 . S
N1060 C1057 1.384 . S
N1061 C1053 1.427 . S
N1061 C1059 1.384 . S
H1062 C1068 0.930 . S
H1063 C1072 0.930 . S
H1064 C1077 0.929 . S
H1065 C1075 0.929 . S
H1066 C1070 0.929 . S
H1067 C1076 0.929 . S
C1068 H1062 0.930 . S
C1068 C1069 1.367 . S
C1068 C1076 1.378 . S
C1069 C1068 1.367 . S
C1069 C1077 1.433 . S
C1070 H1066 0.929 . S
C1070 C1072 1.378 . S
C1070 C1074 1.350 . S
C1071 C1074 1.463 . S
C1071 C1076 1.350 . S
C1071 N1079 1.427 . S
C1072 H1063 0.930 . S
C1072 C1070 1.378 . S
C1072 C1073 1.367 . S
C1073 C1072 1.367 . S
C1073 C1075 1.433 . S
C1074 C1070 1.350 . S
C1074 C1071 1.463 . S
C1074 N1078 1.427 . S
C1075 H1065 0.929 . S
C1075 C1073 1.433 . S
C1075 N1078 1.384 . S
C1076 H1067 0.929 . S
C1076 C1068 1.378 . S
C1076 C1071 1.350 . S
C1077 H1064 0.929 . S
C1077 C1069 1.433 . S
C1077 N1079 1.384 . S
N1078 C1074 1.427 . S
N1078 C1075 1.384 . S
N1079 C1071 1.427 . S
N1079 C1077 1.384 . S
H1080 C1086 0.930 . S
H1081 C1090 0.930 . S
H1082 C1095 0.929 . S
H1083 C1093 0.929 . S
H1084 C1088 0.929 . S
H1085 C1094 0.929 . S
C1086 H1080 0.930 . S
C1086 C1087 1.367 . S
C1086 C1094 1.378 . S
C1087 C1086 1.367 . S
C1087 C1095 1.433 . S
C1088 H1084 0.929 . S
C1088 C1090 1.378 . S
C1088 C1092 1.350 . S
C1089 C1092 1.463 . S
C1089 C1094 1.350 . S
C1089 N1097 1.427 . S
C1090 H1081 0.930 . S
C1090 C1088 1.378 . S
C1090 C1091 1.367 . S
C1091 C1090 1.367 . S
C1091 C1093 1.433 . S
C1092 C1088 1.350 . S
C1092 C1089 1.463 . S
C1092 N1096 1.427 . S
C1093 H1083 0.929 . S
C1093 C1091 1.433 . S
C1093 N1096 1.384 . S
C1094 H1085 0.929 . S
C1094 C1086 1.378 . S
C1094 C1089 1.350 . S
C1095 H1082 0.929 . S
C1095 C1087 1.433 . S
C1095 N1097 1.384 . S
N1096 C1092 1.427 . S
N1096 C1093 1.384 . S
N1097 C1089 1.427 . S
N1097 C1095 1.384 . S
H1098 C1104 0.930 . S
H1099 C1108 0.930 . S
H1100 C1113 0.929 . S
H1101 C1111 0.929 . S
H1102 C1106 0.929 . S
H1103 C1112 0.929 . S
C1104 H1098 0.930 . S
C1104 C1105 1.367 . S
C1104 C1112 1.378 . S
C1105 C1104 1.367 . S
C1105 C1113 1.433 . S
C1106 H1102 0.929 . S
C1106 C1108 1.378 . S
C1106 C1110 1.350 . S
C1107 C1110 1.463 . S
C1107 C1112 1.350 . S
C1107 N1115 1.427 . S
C1108 H1099 0.930 . S
C1108 C1106 1.378 . S
C1108 C1109 1.367 . S
C1109 C1108 1.367 . S
C1109 C1111 1.433 . S
C1110 C1106 1.350 . S
C1110 C1107 1.463 . S
C1110 N1114 1.427 . S
C1111 H1101 0.929 . S
C1111 C1109 1.433 . S
C1111 N1114 1.384 . S
C1112 H1103 0.929 . S
C1112 C1104 1.378 . S
C1112 C1107 1.350 . S
C1113 H1100 0.929 . S
C1113 C1105 1.433 . S
C1113 N1115 1.384 . S
N1114 C1110 1.427 . S
N1114 C1111 1.384 . S
N1115 C1107 1.427 . S
N1115 C1113 1.384 . S
H1116 C1122 0.930 1_554 S
H1117 C1126 0.930 . S
H1118 C1131 0.929 . S
H1119 C1129 0.929 . S
H1120 C1124 0.929 . S
H1121 C1130 0.905 1_655 S
C1122 H1116 0.930 1_556 S
C1122 C1123 1.367 . S
C1122 C1130 1.388 . S
C1123 C1122 1.367 . S
C1123 C1131 1.433 . S
C1124 H1120 0.929 . S
C1124 C1126 1.378 . S
C1124 C1128 1.350 . S
C1125 C1128 1.463 . S
C1125 C1130 1.364 . S
C1125 N1133 1.427 . S
C1126 H1117 0.930 . S
C1126 C1124 1.378 . S
C1126 C1127 1.367 1_455 S
C1127 C1126 1.367 1_655 S
C1127 C1129 1.433 . S
C1128 C1124 1.350 . S
C1128 C1125 1.463 . S
C1128 N1132 1.427 1_455 S
C1129 H1119 0.929 . S
C1129 C1127 1.433 . S
C1129 N1132 1.384 . S
C1130 H1121 0.905 1_455 S
C1130 C1122 1.388 . S
C1130 C1125 1.364 . S
C1131 H1118 0.929 . S
C1131 C1123 1.433 . S
C1131 N1133 1.384 . S
N1132 C1128 1.427 1_655 S
N1132 C1129 1.384 . S
N1133 C1125 1.427 . S
N1133 C1131 1.384 . S
H1134 C1140 0.930 . S
H1135 C1144 0.930 . S
H1136 C1149 0.929 . S
H1137 C1147 0.929 . S
H1138 C1142 0.929 . S
H1139 C1148 0.929 . S
C1140 H1134 0.930 . S
C1140 C1141 1.367 . S
C1140 C1148 1.378 . S
C1141 C1140 1.367 . S
C1141 C1149 1.433 . S
C1142 H1138 0.929 . S
C1142 C1144 1.378 . S
C1142 C1146 1.350 . S
C1143 C1146 1.463 . S
C1143 C1148 1.350 . S
C1143 N1151 1.427 . S
C1144 H1135 0.930 . S
C1144 C1142 1.378 . S
C1144 C1145 1.367 . S
C1145 C1144 1.367 . S
C1145 C1147 1.433 . S
C1146 C1142 1.350 . S
C1146 C1143 1.463 . S
C1146 N1150 1.427 . S
C1147 H1137 0.929 . S
C1147 C1145 1.433 . S
C1147 N1150 1.384 . S
C1148 H1139 0.929 . S
C1148 C1140 1.378 . S
C1148 C1143 1.350 . S
C1149 H1136 0.929 . S
C1149 C1141 1.433 . S
C1149 N1151 1.384 . S
N1150 C1146 1.427 . S
N1150 C1147 1.384 . S
N1151 C1143 1.427 . S
N1151 C1149 1.384 . S
H1152 C1158 0.930 . S
H1153 C1162 0.930 . S
H1154 C1167 0.929 . S
H1155 C1165 0.929 . S
H1156 C1160 0.929 . S
H1157 C1166 0.929 . S
C1158 H1152 0.930 . S
C1158 C1159 1.367 . S
C1158 C1166 1.378 . S
C1159 C1158 1.367 . S
C1159 C1167 1.433 . S
C1160 H1156 0.929 . S
C1160 C1162 1.378 . S
C1160 C1164 1.350 . S
C1161 C1164 1.463 . S
C1161 C1166 1.350 . S
C1161 N1169 1.427 . S
C1162 H1153 0.930 . S
C1162 C1160 1.378 . S
C1162 C1163 1.367 . S
C1163 C1162 1.367 . S
C1163 C1165 1.433 . S
C1164 C1160 1.350 . S
C1164 C1161 1.463 . S
C1164 N1168 1.427 . S
C1165 H1155 0.929 . S
C1165 C1163 1.433 . S
C1165 N1168 1.384 . S
C1166 H1157 0.929 . S
C1166 C1158 1.378 . S
C1166 C1161 1.350 . S
C1167 H1154 0.929 . S
C1167 C1159 1.433 . S
C1167 N1169 1.384 . S
N1168 C1164 1.427 . S
N1168 C1165 1.384 . S
N1169 C1161 1.427 . S
N1169 C1167 1.384 . S
H1170 C1176 0.930 . S
H1171 C1180 0.930 . S
H1172 C1185 0.929 . S
H1173 C1183 0.929 . S
H1174 C1178 0.929 . S
H1175 C1184 0.929 . S
C1176 H1170 0.930 . S
C1176 C1177 1.367 . S
C1176 C1184 1.378 . S
C1177 C1176 1.367 . S
C1177 C1185 1.433 . S
C1178 H1174 0.929 . S
C1178 C1180 1.378 . S
C1178 C1182 1.350 . S
C1179 C1182 1.463 . S
C1179 C1184 1.350 . S
C1179 N1187 1.427 . S
C1180 H1171 0.930 . S
C1180 C1178 1.378 . S
C1180 C1181 1.367 . S
C1181 C1180 1.367 . S
C1181 C1183 1.433 . S
C1182 C1178 1.350 . S
C1182 C1179 1.463 . S
C1182 N1186 1.427 . S
C1183 H1173 0.929 . S
C1183 C1181 1.433 . S
C1183 N1186 1.384 . S
C1184 H1175 0.929 . S
C1184 C1176 1.378 . S
C1184 C1179 1.350 . S
C1185 H1172 0.929 . S
C1185 C1177 1.433 . S
C1185 N1187 1.384 . S
N1186 C1182 1.427 . S
N1186 C1183 1.384 . S
N1187 C1179 1.427 . S
N1187 C1185 1.384 . S
H1188 C1194 0.930 . S
H1189 C1198 0.930 1_565 S
H1190 C1203 0.929 . S
H1191 C1201 0.929 . S
H1192 C1196 0.929 . S
H1193 C1202 0.929 . S
C1194 H1188 0.930 . S
C1194 C1195 1.367 1_545 S
C1194 C1202 1.378 . S
C1195 C1194 1.367 1_565 S
C1195 C1203 1.433 . S
C1196 H1192 0.929 . S
C1196 C1198 1.378 1_565 S
C1196 C1200 1.350 1_565 S
C1197 C1200 1.463 . S
C1197 C1202 1.350 . S
C1197 N1205 1.427 1_545 S
C1198 H1189 0.930 1_545 S
C1198 C1196 1.378 1_545 S
C1198 C1199 1.367 . S
C1199 C1198 1.367 . S
C1199 C1201 1.433 . S
C1200 C1196 1.350 1_545 S
C1200 C1197 1.463 . S
C1200 N1204 1.427 . S
C1201 H1191 0.929 . S
C1201 C1199 1.433 . S
C1201 N1204 1.384 . S
C1202 H1193 0.929 . S
C1202 C1194 1.378 . S
C1202 C1197 1.350 . S
C1203 H1190 0.929 . S
C1203 C1195 1.433 . S
C1203 N1205 1.384 . S
N1204 C1200 1.427 . S
N1204 C1201 1.384 . S
N1205 C1197 1.427 1_565 S
N1205 C1203 1.384 . S
H1206 C1212 0.930 . S
H1207 C1216 0.930 . S
H1208 C1221 0.929 . S
H1209 C1219 0.929 . S
H1210 C1214 0.929 . S
H1211 C1220 0.929 . S
C1212 H1206 0.930 . S
C1212 C1213 1.367 . S
C1212 C1220 1.378 . S
C1213 C1212 1.367 . S
C1213 C1221 1.433 . S
C1214 H1210 0.929 . S
C1214 C1216 1.378 . S
C1214 C1218 1.350 . S
C1215 C1218 1.463 . S
C1215 C1220 1.350 . S
C1215 N1223 1.427 . S
C1216 H1207 0.930 . S
C1216 C1214 1.378 . S
C1216 C1217 1.367 . S
C1217 C1216 1.367 . S
C1217 C1219 1.433 . S
C1218 C1214 1.350 . S
C1218 C1215 1.463 . S
C1218 N1222 1.427 . S
C1219 H1209 0.929 . S
C1219 C1217 1.433 . S
C1219 N1222 1.384 . S
C1220 H1211 0.929 . S
C1220 C1212 1.378 . S
C1220 C1215 1.350 . S
C1221 H1208 0.929 . S
C1221 C1213 1.433 . S
C1221 N1223 1.384 . S
N1222 C1218 1.427 . S
N1222 C1219 1.384 . S
N1223 C1215 1.427 . S
N1223 C1221 1.384 . S
H1224 C1230 0.930 1_554 S
H1225 C1234 0.930 . S
H1226 C1239 0.929 . S
H1227 C1237 0.929 . S
H1228 C1232 0.929 . S
H1229 C1238 0.929 . S
C1230 H1224 0.930 1_556 S
C1230 C1231 1.367 . S
C1230 C1238 1.378 . S
C1231 C1230 1.367 . S
C1231 C1239 1.433 . S
C1232 H1228 0.929 . S
C1232 C1234 1.378 . S
C1232 C1236 1.350 . S
C1233 C1236 1.463 . S
C1233 C1238 1.350 . S
C1233 N1241 1.427 . S
C1234 H1225 0.930 . S
C1234 C1232 1.378 . S
C1234 C1235 1.367 . S
C1235 C1234 1.367 . S
C1235 C1237 1.433 . S
C1236 C1232 1.350 . S
C1236 C1233 1.463 . S
C1236 N1240 1.427 . S
C1237 H1227 0.929 . S
C1237 C1235 1.433 . S
C1237 N1240 1.384 . S
C1238 H1229 0.929 . S
C1238 C1230 1.378 . S
C1238 C1233 1.350 . S
C1239 H1226 0.929 . S
C1239 C1231 1.433 . S
C1239 N1241 1.384 . S
N1240 C1236 1.427 . S
N1240 C1237 1.384 . S
N1241 C1233 1.427 . S
N1241 C1239 1.384 . S
H1242 C1248 0.930 . S
H1243 C1252 0.930 . S
H1244 C1257 0.929 . S
H1245 C1255 0.929 . S
H1246 C1250 0.929 . S
H1247 C1256 0.929 . S
C1248 H1242 0.930 . S
C1248 C1249 1.367 . S
C1248 C1256 1.378 . S
C1249 C1248 1.367 . S
C1249 C1257 1.433 . S
C1250 H1246 0.929 . S
C1250 C1252 1.378 . S
C1250 C1254 1.350 . S
C1251 C1254 1.463 . S
C1251 C1256 1.350 . S
C1251 N1259 1.427 . S
C1252 H1243 0.930 . S
C1252 C1250 1.378 . S
C1252 C1253 1.367 . S
C1253 C1252 1.367 . S
C1253 C1255 1.433 . S
C1254 C1250 1.350 . S
C1254 C1251 1.463 . S
C1254 N1258 1.427 . S
C1255 H1245 0.929 . S
C1255 C1253 1.433 . S
C1255 N1258 1.384 . S
C1256 H1247 0.929 . S
C1256 C1248 1.378 . S
C1256 C1251 1.350 . S
C1257 H1244 0.929 . S
C1257 C1249 1.433 . S
C1257 N1259 1.384 . S
N1258 C1254 1.427 . S
N1258 C1255 1.384 . S
N1259 C1251 1.427 . S
N1259 C1257 1.384 . S
H1260 C1266 0.930 . S
H1261 C1270 0.930 . S
H1262 C1275 0.929 . S
H1263 C1273 0.929 . S
H1264 C1268 0.929 . S
H1265 C1274 0.929 . S
C1266 H1260 0.930 . S
C1266 C1267 1.367 . S
C1266 C1274 1.378 . S
C1267 C1266 1.367 . S
C1267 C1275 1.433 . S
C1268 H1264 0.929 . S
C1268 C1270 1.378 . S
C1268 C1272 1.350 . S
C1269 C1272 1.463 . S
C1269 C1274 1.350 . S
C1269 N1277 1.427 . S
C1270 H1261 0.930 . S
C1270 C1268 1.378 . S
C1270 C1271 1.367 . S
C1271 C1270 1.367 . S
C1271 C1273 1.433 . S
C1272 C1268 1.350 . S
C1272 C1269 1.463 . S
C1272 N1276 1.427 . S
C1273 H1263 0.929 . S
C1273 C1271 1.433 . S
C1273 N1276 1.384 . S
C1274 H1265 0.929 . S
C1274 C1266 1.378 . S
C1274 C1269 1.350 . S
C1275 H1262 0.929 . S
C1275 C1267 1.433 . S
C1275 N1277 1.384 . S
N1276 C1272 1.427 . S
N1276 C1273 1.384 . S
N1277 C1269 1.427 . S
N1277 C1275 1.384 . S
H1278 C1284 0.930 . S
H1279 C1288 0.930 . S
H1280 C1293 0.929 . S
H1281 C1291 0.929 . S
H1282 C1286 0.929 . S
H1283 C1292 0.929 . S
C1284 H1278 0.930 . S
C1284 C1285 1.367 . S
C1284 C1292 1.378 . S
C1285 C1284 1.367 . S
C1285 C1293 1.433 . S
C1286 H1282 0.929 . S
C1286 C1288 1.378 . S
C1286 C1290 1.350 . S
C1287 C1290 1.463 . S
C1287 C1292 1.350 . S
C1287 N1295 1.427 . S
C1288 H1279 0.930 . S
C1288 C1286 1.378 . S
C1288 C1289 1.367 . S
C1289 C1288 1.367 . S
C1289 C1291 1.433 . S
C1290 C1286 1.350 . S
C1290 C1287 1.463 . S
C1290 N1294 1.427 . S
C1291 H1281 0.929 . S
C1291 C1289 1.433 . S
C1291 N1294 1.384 . S
C1292 H1283 0.929 . S
C1292 C1284 1.378 . S
C1292 C1287 1.350 . S
C1293 H1280 0.929 . S
C1293 C1285 1.433 . S
C1293 N1295 1.384 . S
N1294 C1290 1.427 . S
N1294 C1291 1.384 . S
N1295 C1287 1.427 . S
N1295 C1293 1.384 . S
H1296 C1302 0.930 . S
H1297 C1306 0.930 . S
H1298 C1311 0.929 . S
H1299 C1309 0.929 . S
H1300 C1304 0.929 . S
H1301 C1310 0.929 . S
C1302 H1296 0.930 . S
C1302 C1303 1.367 . S
C1302 C1310 1.378 . S
C1303 C1302 1.367 . S
C1303 C1311 1.433 . S
C1304 H1300 0.929 . S
C1304 C1306 1.378 . S
C1304 C1308 1.350 . S
C1305 C1308 1.463 . S
C1305 C1310 1.350 . S
C1305 N1313 1.427 . S
C1306 H1297 0.930 . S
C1306 C1304 1.378 . S
C1306 C1307 1.367 . S
C1307 C1306 1.367 . S
C1307 C1309 1.433 . S
C1308 C1304 1.350 . S
C1308 C1305 1.463 . S
C1308 N1312 1.427 . S
C1309 H1299 0.929 . S
C1309 C1307 1.433 . S
C1309 N1312 1.384 . S
C1310 H1301 0.929 . S
C1310 C1302 1.378 . S
C1310 C1305 1.350 . S
C1311 H1298 0.929 . S
C1311 C1303 1.433 . S
C1311 N1313 1.384 . S
N1312 C1308 1.427 . S
N1312 C1309 1.384 . S
N1313 C1305 1.427 . S
N1313 C1311 1.384 . S
H1314 C1320 0.930 . S
H1315 C1324 0.930 . S
H1316 C1329 0.929 1_556 S
H1317 C1327 0.929 . S
H1318 C1322 0.929 . S
H1319 C1328 0.929 . S
C1320 H1314 0.930 . S
C1320 C1321 1.367 . S
C1320 C1328 1.378 . S
C1321 C1320 1.367 . S
C1321 C1329 1.433 . S
C1322 H1318 0.929 . S
C1322 C1324 1.378 . S
C1322 C1326 1.350 1_556 S
C1323 C1326 1.463 . S
C1323 C1328 1.350 . S
C1323 N1331 1.427 1_554 S
C1324 H1315 0.930 . S
C1324 C1322 1.378 . S
C1324 C1325 1.367 . S
C1325 C1324 1.367 . S
C1325 C1327 1.433 1_556 S
C1326 C1322 1.350 1_554 S
C1326 C1323 1.463 . S
C1326 N1330 1.427 . S
C1327 H1317 0.929 . S
C1327 C1325 1.433 1_554 S
C1327 N1330 1.384 . S
C1328 H1319 0.929 . S
C1328 C1320 1.378 . S
C1328 C1323 1.350 . S
C1329 H1316 0.929 1_554 S
C1329 C1321 1.433 . S
C1329 N1331 1.384 1_554 S
N1330 C1326 1.427 . S
N1330 C1327 1.384 . S
N1331 C1323 1.427 1_556 S
N1331 C1329 1.384 1_556 S
H1332 C1338 0.930 . S
H1333 C1342 0.930 . S
H1334 C1347 0.929 . S
H1335 C1345 0.929 . S
H1336 C1340 0.929 . S
H1337 C1346 0.929 . S
C1338 H1332 0.930 . S
C1338 C1339 1.367 . S
C1338 C1346 1.378 . S
C1339 C1338 1.367 . S
C1339 C1347 1.433 . S
C1340 H1336 0.929 . S
C1340 C1342 1.378 . S
C1340 C1344 1.350 . S
C1341 C1344 1.463 . S
C1341 C1346 1.350 . S
C1341 N1349 1.427 . S
C1342 H1333 0.930 . S
C1342 C1340 1.378 . S
C1342 C1343 1.367 . S
C1343 C1342 1.367 . S
C1343 C1345 1.433 . S
C1344 C1340 1.350 . S
C1344 C1341 1.463 . S
C1344 N1348 1.427 . S
C1345 H1335 0.929 . S
C1345 C1343 1.433 . S
C1345 N1348 1.384 . S
C1346 H1337 0.929 . S
C1346 C1338 1.378 . S
C1346 C1341 1.350 . S
C1347 H1334 0.929 . S
C1347 C1339 1.433 . S
C1347 N1349 1.384 . S
N1348 C1344 1.427 . S
N1348 C1345 1.384 . S
N1349 C1341 1.427 . S
N1349 C1347 1.384 . S
H1350 C1356 0.930 . S
H1351 C1360 0.930 . S
H1352 C1365 0.929 . S
H1353 C1363 0.929 . S
H1354 C1358 0.929 . S
H1355 C1364 0.929 . S
C1356 H1350 0.930 . S
C1356 C1357 1.367 . S
C1356 C1364 1.378 . S
C1357 C1356 1.367 . S
C1357 C1365 1.433 . S
C1358 H1354 0.929 . S
C1358 C1360 1.378 . S
C1358 C1362 1.350 . S
C1359 C1362 1.463 . S
C1359 C1364 1.350 . S
C1359 N1367 1.427 . S
C1360 H1351 0.930 . S
C1360 C1358 1.378 . S
C1360 C1361 1.367 . S
C1361 C1360 1.367 . S
C1361 C1363 1.433 . S
C1362 C1358 1.350 . S
C1362 C1359 1.463 . S
C1362 N1366 1.427 . S
C1363 H1353 0.929 . S
C1363 C1361 1.433 . S
C1363 N1366 1.384 . S
C1364 H1355 0.929 . S
C1364 C1356 1.378 . S
C1364 C1359 1.350 . S
C1365 H1352 0.929 . S
C1365 C1357 1.433 . S
C1365 N1367 1.384 . S
N1366 C1362 1.427 . S
N1366 C1363 1.384 . S
N1367 C1359 1.427 . S
N1367 C1365 1.384 . S
H1368 C1374 0.930 . S
H1369 C1378 0.930 . S
H1370 C1383 0.929 . S
H1371 C1381 0.929 . S
H1372 C1376 0.929 . S
H1373 C1382 0.929 . S
C1374 H1368 0.930 . S
C1374 C1375 1.367 . S
C1374 C1382 1.378 . S
C1375 C1374 1.367 . S
C1375 C1383 1.433 . S
C1376 H1372 0.929 . S
C1376 C1378 1.378 . S
C1376 C1380 1.350 . S
C1377 C1380 1.463 . S
C1377 C1382 1.350 . S
C1377 N1385 1.427 . S
C1378 H1369 0.930 . S
C1378 C1376 1.378 . S
C1378 C1379 1.367 . S
C1379 C1378 1.367 . S
C1379 C1381 1.433 . S
C1380 C1376 1.350 . S
C1380 C1377 1.463 . S
C1380 N1384 1.427 . S
C1381 H1371 0.929 . S
C1381 C1379 1.433 . S
C1381 N1384 1.384 . S
C1382 H1373 0.929 . S
C1382 C1374 1.378 . S
C1382 C1377 1.350 . S
C1383 H1370 0.929 . S
C1383 C1375 1.433 . S
C1383 N1385 1.384 . S
N1384 C1380 1.427 . S
N1384 C1381 1.384 . S
N1385 C1377 1.427 . S
N1385 C1383 1.384 . S
H1386 C1392 0.930 . S
H1387 C1396 0.930 . S
H1388 C1401 0.929 . S
H1389 C1399 0.929 . S
H1390 C1394 0.929 . S
H1391 C1400 0.929 . S
C1392 H1386 0.930 . S
C1392 C1393 1.367 . S
C1392 C1400 1.378 . S
C1393 C1392 1.367 . S
C1393 C1401 1.433 . S
C1394 H1390 0.929 . S
C1394 C1396 1.378 . S
C1394 C1398 1.350 . S
C1395 C1398 1.463 . S
C1395 C1400 1.350 . S
C1395 N1403 1.427 . S
C1396 H1387 0.930 . S
C1396 C1394 1.378 . S
C1396 C1397 1.367 . S
C1397 C1396 1.367 . S
C1397 C1399 1.433 . S
C1398 C1394 1.350 . S
C1398 C1395 1.463 . S
C1398 N1402 1.427 . S
C1399 H1389 0.929 . S
C1399 C1397 1.433 . S
C1399 N1402 1.384 . S
C1400 H1391 0.929 . S
C1400 C1392 1.378 . S
C1400 C1395 1.350 . S
C1401 H1388 0.929 . S
C1401 C1393 1.433 . S
C1401 N1403 1.384 . S
N1402 C1398 1.427 . S
N1402 C1399 1.384 . S
N1403 C1395 1.427 . S
N1403 C1401 1.384 . S
H1404 C1410 0.930 . S
H1405 C1414 0.930 . S
H1406 C1419 0.929 . S
H1407 C1417 0.929 . S
H1408 C1412 0.929 . S
H1409 C1418 0.929 . S
C1410 H1404 0.930 . S
C1410 C1411 1.367 . S
C1410 C1418 1.378 . S
C1411 C1410 1.367 . S
C1411 C1419 1.433 . S
C1412 H1408 0.929 . S
C1412 C1414 1.378 . S
C1412 C1416 1.350 . S
C1413 C1416 1.463 . S
C1413 C1418 1.350 . S
C1413 N1421 1.427 . S
C1414 H1405 0.930 . S
C1414 C1412 1.378 . S
C1414 C1415 1.367 . S
C1415 C1414 1.367 . S
C1415 C1417 1.433 . S
C1416 C1412 1.350 . S
C1416 C1413 1.463 . S
C1416 N1420 1.427 . S
C1417 H1407 0.929 . S
C1417 C1415 1.433 . S
C1417 N1420 1.384 . S
C1418 H1409 0.929 . S
C1418 C1410 1.378 . S
C1418 C1413 1.350 . S
C1419 H1406 0.929 . S
C1419 C1411 1.433 . S
C1419 N1421 1.384 . S
N1420 C1416 1.427 . S
N1420 C1417 1.384 . S
N1421 C1413 1.427 . S
N1421 C1419 1.384 . S
H1422 C1428 0.930 . S
H1423 C1432 0.930 . S
H1424 C1437 0.929 . S
H1425 C1435 0.929 . S
H1426 C1430 0.929 . S
H1427 C1436 0.929 . S
C1428 H1422 0.930 . S
C1428 C1429 1.367 . S
C1428 C1436 1.378 . S
C1429 C1428 1.367 . S
C1429 C1437 1.433 . S
C1430 H1426 0.929 . S
C1430 C1432 1.378 . S
C1430 C1434 1.350 . S
C1431 C1434 1.463 . S
C1431 C1436 1.350 . S
C1431 N1439 1.427 . S
C1432 H1423 0.930 . S
C1432 C1430 1.378 . S
C1432 C1433 1.367 . S
C1433 C1432 1.367 . S
C1433 C1435 1.433 . S
C1434 C1430 1.350 . S
C1434 C1431 1.463 . S
C1434 N1438 1.427 . S
C1435 H1425 0.929 . S
C1435 C1433 1.433 . S
C1435 N1438 1.384 . S
C1436 H1427 0.929 . S
C1436 C1428 1.378 . S
C1436 C1431 1.350 . S
C1437 H1424 0.929 . S
C1437 C1429 1.433 . S
C1437 N1439 1.384 . S
N1438 C1434 1.427 . S
N1438 C1435 1.384 . S
N1439 C1431 1.427 . S
N1439 C1437 1.384 . S
H1440 C1446 0.930 . S
H1441 C1450 0.930 . S
H1442 C1455 0.929 . S
H1443 C1453 0.929 . S
H1444 C1448 0.929 . S
H1445 C1454 0.929 . S
C1446 H1440 0.930 . S
C1446 C1447 1.367 . S
C1446 C1454 1.378 . S
C1447 C1446 1.367 . S
C1447 C1455 1.433 . S
C1448 H1444 0.929 . S
C1448 C1450 1.378 . S
C1448 C1452 1.350 . S
C1449 C1452 1.463 . S
C1449 C1454 1.350 . S
C1449 N1457 1.427 . S
C1450 H1441 0.930 . S
C1450 C1448 1.378 . S
C1450 C1451 1.367 . S
C1451 C1450 1.367 . S
C1451 C1453 1.433 . S
C1452 C1448 1.350 . S
C1452 C1449 1.463 . S
C1452 N1456 1.427 . S
C1453 H1443 0.929 . S
C1453 C1451 1.433 . S
C1453 N1456 1.384 . S
C1454 H1445 0.929 . S
C1454 C1446 1.378 . S
C1454 C1449 1.350 . S
C1455 H1442 0.929 . S
C1455 C1447 1.433 . S
C1455 N1457 1.384 . S
N1456 C1452 1.427 . S
N1456 C1453 1.384 . S
N1457 C1449 1.427 . S
N1457 C1455 1.384 . S
H1458 C1464 0.930 . S
H1459 C1468 0.930 . S
H1460 C1473 0.929 . S
H1461 C1471 0.929 . S
H1462 C1466 0.929 1_556 S
H1463 C1472 0.929 . S
C1464 H1458 0.930 . S
C1464 C1465 1.367 . S
C1464 C1472 1.378 . S
C1465 C1464 1.367 . S
C1465 C1473 1.433 . S
C1466 H1462 0.929 1_554 S
C1466 C1468 1.378 1_554 S
C1466 C1470 1.350 . S
C1467 C1470 1.463 . S
C1467 C1472 1.350 . S
C1467 N1475 1.427 . S
C1468 H1459 0.930 . S
C1468 C1466 1.378 1_556 S
C1468 C1469 1.367 1_556 S
C1469 C1468 1.367 1_554 S
C1469 C1471 1.433 . S
C1470 C1466 1.350 . S
C1470 C1467 1.463 . S
C1470 N1474 1.427 . S
C1471 H1461 0.929 . S
C1471 C1469 1.433 . S
C1471 N1474 1.384 . S
C1472 H1463 0.929 . S
C1472 C1464 1.378 . S
C1472 C1467 1.350 . S
C1473 H1460 0.929 . S
C1473 C1465 1.433 . S
C1473 N1475 1.384 . S
N1474 C1470 1.427 . S
N1474 C1471 1.384 . S
N1475 C1467 1.427 . S
N1475 C1473 1.384 . S
H1476 C1482 0.930 . S
H1477 C1486 0.930 . S
H1478 C1491 0.929 . S
H1479 C1489 0.929 . S
H1480 C1484 0.929 . S
H1481 C1490 0.929 . S
C1482 H1476 0.930 . S
C1482 C1483 1.367 . S
C1482 C1490 1.378 . S
C1483 C1482 1.367 . S
C1483 C1491 1.433 . S
C1484 H1480 0.929 . S
C1484 C1486 1.378 . S
C1484 C1488 1.350 . S
C1485 C1488 1.463 . S
C1485 C1490 1.350 . S
C1485 N1493 1.427 . S
C1486 H1477 0.930 . S
C1486 C1484 1.378 . S
C1486 C1487 1.367 . S
C1487 C1486 1.367 . S
C1487 C1489 1.433 . S
C1488 C1484 1.350 . S
C1488 C1485 1.463 . S
C1488 N1492 1.427 . S
C1489 H1479 0.929 . S
C1489 C1487 1.433 . S
C1489 N1492 1.384 . S
C1490 H1481 0.929 . S
C1490 C1482 1.378 . S
C1490 C1485 1.350 . S
C1491 H1478 0.929 . S
C1491 C1483 1.433 . S
C1491 N1493 1.384 . S
N1492 C1488 1.427 . S
N1492 C1489 1.384 . S
N1493 C1485 1.427 . S
N1493 C1491 1.384 . S
H1494 C1500 0.930 . S
H1495 C1504 0.930 . S
H1496 C1509 0.929 . S
H1497 C1507 0.929 . S
H1498 C1502 0.929 . S
H1499 C1508 0.929 . S
C1500 H1494 0.930 . S
C1500 C1501 1.367 . S
C1500 C1508 1.378 . S
C1501 C1500 1.367 . S
C1501 C1509 1.433 . S
C1502 H1498 0.929 . S
C1502 C1504 1.378 . S
C1502 C1506 1.350 . S
C1503 C1506 1.463 . S
C1503 C1508 1.350 . S
C1503 N1511 1.427 . S
C1504 H1495 0.930 . S
C1504 C1502 1.378 . S
C1504 C1505 1.367 . S
C1505 C1504 1.367 . S
C1505 C1507 1.433 . S
C1506 C1502 1.350 . S
C1506 C1503 1.463 . S
C1506 N1510 1.427 . S
C1507 H1497 0.929 . S
C1507 C1505 1.433 . S
C1507 N1510 1.384 . S
C1508 H1499 0.929 . S
C1508 C1500 1.378 . S
C1508 C1503 1.350 . S
C1509 H1496 0.929 . S
C1509 C1501 1.433 . S
C1509 N1511 1.384 . S
N1510 C1506 1.427 . S
N1510 C1507 1.384 . S
N1511 C1503 1.427 . S
N1511 C1509 1.384 . S
H1512 C1518 0.930 . S
H1513 C1522 0.930 . S
H1514 C1527 0.929 . S
H1515 C1525 0.929 . S
H1516 C1520 0.929 . S
H1517 C1526 0.929 . S
C1518 H1512 0.930 . S
C1518 C1519 1.367 . S
C1518 C1526 1.378 . S
C1519 C1518 1.367 . S
C1519 C1527 1.433 . S
C1520 H1516 0.929 . S
C1520 C1522 1.378 . S
C1520 C1524 1.350 . S
C1521 C1524 1.463 . S
C1521 C1526 1.350 . S
C1521 N1529 1.427 . S
C1522 H1513 0.930 . S
C1522 C1520 1.378 . S
C1522 C1523 1.367 . S
C1523 C1522 1.367 . S
C1523 C1525 1.433 . S
C1524 C1520 1.350 . S
C1524 C1521 1.463 . S
C1524 N1528 1.427 . S
C1525 H1515 0.929 . S
C1525 C1523 1.433 . S
C1525 N1528 1.384 . S
C1526 H1517 0.929 . S
C1526 C1518 1.378 . S
C1526 C1521 1.350 . S
C1527 H1514 0.929 . S
C1527 C1519 1.433 . S
C1527 N1529 1.384 . S
N1528 C1524 1.427 . S
N1528 C1525 1.384 . S
N1529 C1521 1.427 . S
N1529 C1527 1.384 . S
H1530 C1536 0.930 . S
H1531 C1540 0.930 . S
H1532 C1545 0.929 . S
H1533 C1543 0.929 . S
H1534 C1538 0.929 . S
H1535 C1544 0.929 . S
C1536 H1530 0.930 . S
C1536 C1537 1.367 . S
C1536 C1544 1.378 . S
C1537 C1536 1.367 . S
C1537 C1545 1.433 . S
C1538 H1534 0.929 . S
C1538 C1540 1.378 . S
C1538 C1542 1.350 . S
C1539 C1542 1.463 . S
C1539 C1544 1.350 . S
C1539 N1547 1.427 . S
C1540 H1531 0.930 . S
C1540 C1538 1.378 . S
C1540 C1541 1.367 . S
C1541 C1540 1.367 . S
C1541 C1543 1.433 . S
C1542 C1538 1.350 . S
C1542 C1539 1.463 . S
C1542 N1546 1.427 . S
C1543 H1533 0.929 . S
C1543 C1541 1.433 . S
C1543 N1546 1.384 . S
C1544 H1535 0.929 . S
C1544 C1536 1.378 . S
C1544 C1539 1.350 . S
C1545 H1532 0.929 . S
C1545 C1537 1.433 . S
C1545 N1547 1.384 . S
N1546 C1542 1.427 . S
N1546 C1543 1.384 . S
N1547 C1539 1.427 . S
N1547 C1545 1.384 . S
H1548 C1554 0.930 . S
H1549 C1558 0.930 . S
H1550 C1563 0.929 . S
H1551 C1561 0.929 . S
H1552 C1556 0.929 . S
H1553 C1562 0.929 . S
C1554 H1548 0.930 . S
C1554 C1555 1.367 . S
C1554 C1562 1.378 . S
C1555 C1554 1.367 . S
C1555 C1563 1.433 . S
C1556 H1552 0.929 . S
C1556 C1558 1.378 . S
C1556 C1560 1.350 . S
C1557 C1560 1.463 . S
C1557 C1562 1.350 . S
C1557 N1565 1.427 . S
C1558 H1549 0.930 . S
C1558 C1556 1.378 . S
C1558 C1559 1.367 . S
C1559 C1558 1.367 . S
C1559 C1561 1.433 . S
C1560 C1556 1.350 . S
C1560 C1557 1.463 . S
C1560 N1564 1.427 . S
C1561 H1551 0.929 . S
C1561 C1559 1.433 . S
C1561 N1564 1.384 . S
C1562 H1553 0.929 . S
C1562 C1554 1.378 . S
C1562 C1557 1.350 . S
C1563 H1550 0.929 . S
C1563 C1555 1.433 . S
C1563 N1565 1.384 . S
N1564 C1560 1.427 . S
N1564 C1561 1.384 . S
N1565 C1557 1.427 . S
N1565 C1563 1.384 . S
H1566 C1572 0.930 . S
H1567 C1576 0.930 . S
H1568 C1581 0.929 . S
H1569 C1579 0.929 . S
H1570 C1574 0.929 . S
H1571 C1580 0.929 . S
C1572 H1566 0.930 . S
C1572 C1573 1.367 . S
C1572 C1580 1.378 . S
C1573 C1572 1.367 . S
C1573 C1581 1.433 . S
C1574 H1570 0.929 . S
C1574 C1576 1.378 . S
C1574 C1578 1.350 . S
C1575 C1578 1.463 . S
C1575 C1580 1.350 . S
C1575 N1583 1.427 . S
C1576 H1567 0.930 . S
C1576 C1574 1.378 . S
C1576 C1577 1.367 . S
C1577 C1576 1.367 . S
C1577 C1579 1.433 . S
C1578 C1574 1.350 . S
C1578 C1575 1.463 . S
C1578 N1582 1.427 . S
C1579 H1569 0.929 . S
C1579 C1577 1.433 . S
C1579 N1582 1.384 . S
C1580 H1571 0.929 . S
C1580 C1572 1.378 . S
C1580 C1575 1.350 . S
C1581 H1568 0.929 . S
C1581 C1573 1.433 . S
C1581 N1583 1.384 . S
N1582 C1578 1.427 . S
N1582 C1579 1.384 . S
N1583 C1575 1.427 . S
N1583 C1581 1.384 . S
H1584 C1590 0.930 . S
H1585 C1594 0.930 . S
H1586 C1599 0.929 . S
H1587 C1597 0.929 . S
H1588 C1592 0.929 . S
H1589 C1598 0.929 . S
C1590 H1584 0.930 . S
C1590 C1591 1.367 . S
C1590 C1598 1.378 . S
C1591 C1590 1.367 . S
C1591 C1599 1.433 1_545 S
C1592 H1588 0.929 . S
C1592 C1594 1.378 . S
C1592 C1596 1.350 . S
C1593 C1596 1.463 . S
C1593 C1598 1.350 . S
C1593 N1601 1.433 . S
C1594 H1585 0.930 . S
C1594 C1592 1.378 . S
C1594 C1595 1.367 . S
C1595 C1594 1.367 . S
C1595 C1597 1.433 . S
C1596 C1592 1.350 . S
C1596 C1593 1.463 . S
C1596 N1600 1.427 . S
C1597 H1587 0.929 . S
C1597 C1595 1.433 . S
C1597 N1600 1.384 . S
C1598 H1589 0.929 . S
C1598 C1590 1.378 . S
C1598 C1593 1.350 . S
C1599 H1586 0.929 . S
C1599 C1591 1.433 1_565 S
C1599 N1601 1.382 1_565 S
N1600 C1596 1.427 . S
N1600 C1597 1.384 . S
N1601 C1593 1.433 . S
N1601 C1599 1.382 1_545 S
H1602 C1608 0.930 . S
H1603 C1612 0.930 . S
H1604 C1617 0.929 . S
H1605 C1615 0.929 . S
H1606 C1610 0.929 . S
H1607 C1616 0.929 . S
C1608 H1602 0.930 . S
C1608 C1609 1.367 . S
C1608 C1616 1.378 . S
C1609 C1608 1.367 . S
C1609 C1617 1.433 . S
C1610 H1606 0.929 . S
C1610 C1612 1.378 . S
C1610 C1614 1.350 . S
C1611 C1614 1.463 . S
C1611 C1616 1.350 . S
C1611 N1619 1.427 . S
C1612 H1603 0.930 . S
C1612 C1610 1.378 . S
C1612 C1613 1.367 . S
C1613 C1612 1.367 . S
C1613 C1615 1.433 . S
C1614 C1610 1.350 . S
C1614 C1611 1.463 . S
C1614 N1618 1.427 . S
C1615 H1605 0.929 . S
C1615 C1613 1.433 . S
C1615 N1618 1.384 . S
C1616 H1607 0.929 . S
C1616 C1608 1.378 . S
C1616 C1611 1.350 . S
C1617 H1604 0.929 . S
C1617 C1609 1.433 . S
C1617 N1619 1.384 . S
N1618 C1614 1.427 . S
N1618 C1615 1.384 . S
N1619 C1611 1.427 . S
N1619 C1617 1.384 . S
H1620 C1626 0.930 . S
H1621 C1630 0.930 . S
H1622 C1635 0.929 . S
H1623 C1633 0.929 . S
H1624 C1628 0.929 . S
H1625 C1634 0.929 . S
C1626 H1620 0.930 . S
C1626 C1627 1.367 . S
C1626 C1634 1.378 . S
C1627 C1626 1.367 . S
C1627 C1635 1.433 . S
C1628 H1624 0.929 . S
C1628 C1630 1.378 . S
C1628 C1632 1.350 . S
C1629 C1632 1.463 . S
C1629 C1634 1.350 . S
C1629 N1637 1.427 . S
C1630 H1621 0.930 . S
C1630 C1628 1.378 . S
C1630 C1631 1.367 . S
C1631 C1630 1.367 . S
C1631 C1633 1.433 . S
C1632 C1628 1.350 . S
C1632 C1629 1.463 . S
C1632 N1636 1.427 . S
C1633 H1623 0.929 . S
C1633 C1631 1.433 . S
C1633 N1636 1.384 . S
C1634 H1625 0.929 . S
C1634 C1626 1.378 . S
C1634 C1629 1.350 . S
C1635 H1622 0.929 . S
C1635 C1627 1.433 . S
C1635 N1637 1.384 . S
N1636 C1632 1.427 . S
N1636 C1633 1.384 . S
N1637 C1629 1.427 . S
N1637 C1635 1.384 . S
H1638 C1644 0.930 . S
H1639 C1648 0.930 . S
H1640 C1653 0.929 . S
H1641 C1651 0.929 . S
H1642 C1646 0.929 . S
H1643 C1652 0.929 . S
C1644 H1638 0.930 . S
C1644 C1645 1.367 . S
C1644 C1652 1.378 . S
C1645 C1644 1.367 . S
C1645 C1653 1.433 . S
C1646 H1642 0.929 . S
C1646 C1648 1.378 . S
C1646 C1650 1.350 . S
C1647 C1650 1.463 . S
C1647 C1652 1.350 . S
C1647 N1655 1.427 . S
C1648 H1639 0.930 . S
C1648 C1646 1.378 . S
C1648 C1649 1.367 . S
C1649 C1648 1.367 . S
C1649 C1651 1.433 . S
C1650 C1646 1.350 . S
C1650 C1647 1.463 . S
C1650 N1654 1.427 . S
C1651 H1641 0.929 . S
C1651 C1649 1.433 . S
C1651 N1654 1.384 . S
C1652 H1643 0.929 . S
C1652 C1644 1.378 . S
C1652 C1647 1.350 . S
C1653 H1640 0.929 . S
C1653 C1645 1.433 . S
C1653 N1655 1.384 . S
N1654 C1650 1.427 . S
N1654 C1651 1.384 . S
N1655 C1647 1.427 . S
N1655 C1653 1.384 . S
H1656 C1662 0.930 . S
H1657 C1666 0.930 . S
H1658 C1671 0.929 . S
H1659 C1669 0.929 . S
H1660 C1664 0.929 . S
H1661 C1670 0.929 . S
C1662 H1656 0.930 . S
C1662 C1663 1.367 . S
C1662 C1670 1.378 . S
C1663 C1662 1.367 . S
C1663 C1671 1.433 . S
C1664 H1660 0.929 . S
C1664 C1666 1.378 . S
C1664 C1668 1.350 . S
C1665 C1668 1.463 . S
C1665 C1670 1.350 . S
C1665 N1673 1.427 . S
C1666 H1657 0.930 . S
C1666 C1664 1.378 . S
C1666 C1667 1.367 . S
C1667 C1666 1.367 . S
C1667 C1669 1.433 . S
C1668 C1664 1.350 . S
C1668 C1665 1.463 . S
C1668 N1672 1.427 . S
C1669 H1659 0.929 . S
C1669 C1667 1.433 . S
C1669 N1672 1.384 . S
C1670 H1661 0.929 . S
C1670 C1662 1.378 . S
C1670 C1665 1.350 . S
C1671 H1658 0.929 . S
C1671 C1663 1.433 . S
C1671 N1673 1.384 . S
N1672 C1668 1.427 . S
N1672 C1669 1.384 . S
N1673 C1665 1.427 . S
N1673 C1671 1.384 . S
H1674 C1680 0.930 . S
H1675 C1684 0.930 . S
H1676 C1689 0.929 . S
H1677 C1687 0.929 . S
H1678 C1682 0.929 . S
H1679 C1688 0.929 . S
C1680 H1674 0.930 . S
C1680 C1681 1.367 . S
C1680 C1688 1.378 . S
C1681 C1680 1.367 . S
C1681 C1689 1.433 . S
C1682 H1678 0.929 . S
C1682 C1684 1.378 . S
C1682 C1686 1.350 . S
C1683 C1686 1.463 . S
C1683 C1688 1.350 . S
C1683 N1691 1.427 . S
C1684 H1675 0.930 . S
C1684 C1682 1.378 . S
C1684 C1685 1.367 . S
C1685 C1684 1.367 . S
C1685 C1687 1.433 . S
C1686 C1682 1.350 . S
C1686 C1683 1.463 . S
C1686 N1690 1.427 . S
C1687 H1677 0.929 . S
C1687 C1685 1.433 . S
C1687 N1690 1.384 . S
C1688 H1679 0.929 . S
C1688 C1680 1.378 . S
C1688 C1683 1.350 . S
C1689 H1676 0.929 . S
C1689 C1681 1.433 . S
C1689 N1691 1.384 . S
N1690 C1686 1.427 . S
N1690 C1687 1.384 . S
N1691 C1683 1.427 . S
N1691 C1689 1.384 . S
H1692 C1698 0.930 1_565 S
H1693 C1702 0.930 . S
H1694 C1707 0.929 . S
H1695 C1705 0.929 . S
H1696 C1700 0.929 . S
H1697 C1706 0.958 . S
C1698 H1692 0.930 1_545 S
C1698 C1699 1.367 . S
C1698 C1706 1.378 . S
C1699 C1698 1.367 . S
C1699 C1707 1.433 . S
C1700 H1696 0.929 . S
C1700 C1702 1.378 . S
C1700 C1704 1.350 . S
C1701 C1704 1.463 . S
C1701 C1706 1.350 . S
C1701 N1709 1.427 . S
C1702 H1693 0.930 . S
C1702 C1700 1.378 . S
C1702 C1703 1.367 . S
C1703 C1702 1.367 . S
C1703 C1705 1.433 . S
C1704 C1700 1.350 . S
C1704 C1701 1.463 . S
C1704 N1708 1.427 . S
C1705 H1695 0.929 . S
C1705 C1703 1.433 . S
C1705 N1708 1.384 . S
C1706 H1697 0.958 . S
C1706 C1698 1.378 . S
C1706 C1701 1.350 . S
C1707 H1694 0.929 . S
C1707 C1699 1.433 . S
C1707 N1709 1.384 . S
N1708 C1704 1.427 . S
N1708 C1705 1.384 . S
N1709 C1701 1.427 . S
N1709 C1707 1.384 . S
H1710 C1716 0.930 . S
H1711 C1720 0.930 . S
H1712 C1725 0.929 . S
H1713 C1723 0.929 . S
H1714 C1718 0.929 . S
H1715 C1724 0.929 . S
C1716 H1710 0.930 . S
C1716 C1717 1.367 . S
C1716 C1724 1.378 . S
C1717 C1716 1.367 . S
C1717 C1725 1.433 . S
C1718 H1714 0.929 . S
C1718 C1720 1.378 . S
C1718 C1722 1.350 . S
C1719 C1722 1.463 . S
C1719 C1724 1.350 . S
C1719 N1727 1.427 . S
C1720 H1711 0.930 . S
C1720 C1718 1.378 . S
C1720 C1721 1.367 . S
C1721 C1720 1.367 . S
C1721 C1723 1.433 . S
C1722 C1718 1.350 . S
C1722 C1719 1.463 . S
C1722 N1726 1.427 . S
C1723 H1713 0.929 . S
C1723 C1721 1.433 . S
C1723 N1726 1.384 . S
C1724 H1715 0.929 . S
C1724 C1716 1.378 . S
C1724 C1719 1.350 . S
C1725 H1712 0.929 . S
C1725 C1717 1.433 . S
C1725 N1727 1.384 . S
N1726 C1722 1.427 . S
N1726 C1723 1.384 . S
N1727 C1719 1.427 . S
N1727 C1725 1.384 . S
H1728 C1734 0.930 . S
H1729 C1738 0.930 . S
H1730 C1743 0.929 . S
H1731 C1741 0.929 . S
H1732 C1736 0.929 . S
H1733 C1742 0.929 . S
C1734 H1728 0.930 . S
C1734 C1735 1.367 . S
C1734 C1742 1.378 . S
C1735 C1734 1.367 . S
C1735 C1743 1.433 . S
C1736 H1732 0.929 . S
C1736 C1738 1.378 . S
C1736 C1740 1.350 . S
C1737 C1740 1.463 . S
C1737 C1742 1.350 . S
C1737 N1745 1.427 . S
C1738 H1729 0.930 . S
C1738 C1736 1.378 . S
C1738 C1739 1.367 . S
C1739 C1738 1.367 . S
C1739 C1741 1.433 . S
C1740 C1736 1.350 . S
C1740 C1737 1.463 . S
C1740 N1744 1.427 . S
C1741 H1731 0.929 . S
C1741 C1739 1.433 . S
C1741 N1744 1.384 . S
C1742 H1733 0.929 . S
C1742 C1734 1.378 . S
C1742 C1737 1.350 . S
C1743 H1730 0.929 . S
C1743 C1735 1.433 . S
C1743 N1745 1.384 . S
N1744 C1740 1.427 . S
N1744 C1741 1.384 . S
N1745 C1737 1.427 . S
N1745 C1743 1.384 . S
H1746 C1752 0.930 . S
H1747 C1756 0.930 . S
H1748 C1761 0.929 . S
H1749 C1759 0.929 . S
H1750 C1754 0.929 . S
H1751 C1760 0.929 . S
C1752 H1746 0.930 . S
C1752 C1753 1.367 . S
C1752 C1760 1.378 . S
C1753 C1752 1.367 . S
C1753 C1761 1.433 . S
C1754 H1750 0.929 . S
C1754 C1756 1.378 . S
C1754 C1758 1.350 . S
C1755 C1758 1.463 . S
C1755 C1760 1.350 . S
C1755 N1763 1.427 . S
C1756 H1747 0.930 . S
C1756 C1754 1.378 . S
C1756 C1757 1.367 . S
C1757 C1756 1.367 . S
C1757 C1759 1.433 . S
C1758 C1754 1.350 . S
C1758 C1755 1.463 . S
C1758 N1762 1.427 . S
C1759 H1749 0.929 . S
C1759 C1757 1.433 . S
C1759 N1762 1.384 . S
C1760 H1751 0.929 . S
C1760 C1752 1.378 . S
C1760 C1755 1.350 . S
C1761 H1748 0.929 . S
C1761 C1753 1.433 . S
C1761 N1763 1.384 . S
N1762 C1758 1.427 . S
N1762 C1759 1.384 . S
N1763 C1755 1.427 . S
N1763 C1761 1.384 . S
H1764 C1770 0.930 . S
H1765 C1774 0.930 . S
H1766 C1779 0.929 . S
H1767 C1777 0.929 . S
H1768 C1772 0.929 . S
H1769 C1778 0.929 . S
C1770 H1764 0.930 . S
C1770 C1771 1.367 . S
C1770 C1778 1.378 . S
C1771 C1770 1.367 . S
C1771 C1779 1.433 . S
C1772 H1768 0.929 . S
C1772 C1774 1.378 . S
C1772 C1776 1.350 . S
C1773 C1776 1.463 . S
C1773 C1778 1.350 . S
C1773 N1781 1.427 . S
C1774 H1765 0.930 . S
C1774 C1772 1.378 . S
C1774 C1775 1.367 . S
C1775 C1774 1.367 . S
C1775 C1777 1.433 . S
C1776 C1772 1.350 . S
C1776 C1773 1.463 . S
C1776 N1780 1.427 . S
C1777 H1767 0.929 . S
C1777 C1775 1.433 . S
C1777 N1780 1.384 . S
C1778 H1769 0.929 . S
C1778 C1770 1.378 . S
C1778 C1773 1.350 . S
C1779 H1766 0.929 . S
C1779 C1771 1.433 . S
C1779 N1781 1.384 . S
N1780 C1776 1.427 . S
N1780 C1777 1.384 . S
N1781 C1773 1.427 . S
N1781 C1779 1.384 . S
H1782 C1788 0.930 . S
H1783 C1792 0.930 . S
H1784 C1797 0.929 1_556 S
H1785 C1795 0.929 . S
H1786 C1790 0.929 . S
H1787 C1796 0.929 . S
C1788 H1782 0.930 . S
C1788 C1789 1.367 . S
C1788 C1796 1.378 . S
C1789 C1788 1.367 . S
C1789 C1797 1.433 . S
C1790 H1786 0.929 . S
C1790 C1792 1.378 . S
C1790 C1794 1.350 . S
C1791 C1794 1.463 . S
C1791 C1796 1.350 . S
C1791 N1799 1.427 . S
C1792 H1783 0.930 . S
C1792 C1790 1.378 . S
C1792 C1793 1.367 . S
C1793 C1792 1.367 . S
C1793 C1795 1.433 . S
C1794 C1790 1.350 . S
C1794 C1791 1.463 . S
C1794 N1798 1.427 . S
C1795 H1785 0.929 . S
C1795 C1793 1.433 . S
C1795 N1798 1.384 . S
C1796 H1787 0.929 . S
C1796 C1788 1.378 . S
C1796 C1791 1.350 . S
C1797 H1784 0.929 1_554 S
C1797 C1789 1.433 . S
C1797 N1799 1.384 . S
N1798 C1794 1.427 . S
N1798 C1795 1.384 . S
N1799 C1791 1.427 . S
N1799 C1797 1.384 . S
H1800 C1806 0.930 . S
H1801 C1810 0.930 . S
H1802 C1815 0.929 . S
H1803 C1813 0.929 . S
H1804 C1808 0.929 . S
H1805 C1814 0.929 . S
C1806 H1800 0.930 . S
C1806 C1807 1.367 . S
C1806 C1814 1.378 . S
C1807 C1806 1.367 . S
C1807 C1815 1.433 . S
C1808 H1804 0.929 . S
C1808 C1810 1.378 . S
C1808 C1812 1.350 . S
C1809 C1812 1.463 . S
C1809 C1814 1.350 . S
C1809 N1817 1.427 . S
C1810 H1801 0.930 . S
C1810 C1808 1.378 . S
C1810 C1811 1.367 . S
C1811 C1810 1.367 . S
C1811 C1813 1.433 . S
C1812 C1808 1.350 . S
C1812 C1809 1.463 . S
C1812 N1816 1.427 . S
C1813 H1803 0.929 . S
C1813 C1811 1.433 . S
C1813 N1816 1.384 . S
C1814 H1805 0.929 . S
C1814 C1806 1.378 . S
C1814 C1809 1.350 . S
C1815 H1802 0.929 . S
C1815 C1807 1.433 . S
C1815 N1817 1.384 . S
N1816 C1812 1.427 . S
N1816 C1813 1.384 . S
N1817 C1809 1.427 . S
N1817 C1815 1.384 . S
H1818 C1824 0.930 . S
H1819 C1828 0.930 . S
H1820 C1833 0.929 . S
H1821 C1831 0.929 . S
H1822 C1826 0.929 . S
H1823 C1832 0.929 . S
C1824 H1818 0.930 . S
C1824 C1825 1.367 . S
C1824 C1832 1.378 . S
C1825 C1824 1.367 . S
C1825 C1833 1.433 . S
C1826 H1822 0.929 . S
C1826 C1828 1.378 . S
C1826 C1830 1.350 . S
C1827 C1830 1.463 . S
C1827 C1832 1.350 . S
C1827 N1835 1.427 . S
C1828 H1819 0.930 . S
C1828 C1826 1.378 . S
C1828 C1829 1.367 . S
C1829 C1828 1.367 . S
C1829 C1831 1.433 . S
C1830 C1826 1.350 . S
C1830 C1827 1.463 . S
C1830 N1834 1.427 . S
C1831 H1821 0.929 . S
C1831 C1829 1.433 . S
C1831 N1834 1.384 . S
C1832 H1823 0.929 . S
C1832 C1824 1.378 . S
C1832 C1827 1.350 . S
C1833 H1820 0.929 . S
C1833 C1825 1.433 . S
C1833 N1835 1.384 . S
N1834 C1830 1.427 . S
N1834 C1831 1.384 . S
N1835 C1827 1.427 . S
N1835 C1833 1.384 . S
H1836 C1842 0.930 . S
H1837 C1846 0.930 . S
H1838 C1851 0.929 . S
H1839 C1849 0.929 . S
H1840 C1844 0.929 . S
H1841 C1850 0.929 . S
C1842 H1836 0.930 . S
C1842 C1843 1.367 . S
C1842 C1850 1.378 . S
C1843 C1842 1.367 . S
C1843 C1851 1.433 . S
C1844 H1840 0.929 . S
C1844 C1846 1.378 . S
C1844 C1848 1.350 . S
C1845 C1848 1.463 . S
C1845 C1850 1.350 . S
C1845 N1853 1.427 . S
C1846 H1837 0.930 . S
C1846 C1844 1.378 . S
C1846 C1847 1.367 . S
C1847 C1846 1.367 . S
C1847 C1849 1.433 . S
C1848 C1844 1.350 . S
C1848 C1845 1.463 . S
C1848 N1852 1.427 . S
C1849 H1839 0.929 . S
C1849 C1847 1.433 . S
C1849 N1852 1.384 . S
C1850 H1841 0.929 . S
C1850 C1842 1.378 . S
C1850 C1845 1.350 . S
C1851 H1838 0.929 . S
C1851 C1843 1.433 . S
C1851 N1853 1.384 . S
N1852 C1848 1.427 . S
N1852 C1849 1.384 . S
N1853 C1845 1.427 . S
N1853 C1851 1.384 . S
H1854 C1860 0.930 . S
H1855 C1864 0.930 . S
H1856 C1869 0.929 . S
H1857 C1867 0.929 . S
H1858 C1862 0.929 . S
H1859 C1868 0.929 . S
C1860 H1854 0.930 . S
C1860 C1861 1.367 . S
C1860 C1868 1.378 . S
C1861 C1860 1.367 . S
C1861 C1869 1.433 . S
C1862 H1858 0.929 . S
C1862 C1864 1.378 . S
C1862 C1866 1.350 . S
C1863 C1866 1.463 . S
C1863 C1868 1.350 . S
C1863 N1871 1.427 . S
C1864 H1855 0.930 . S
C1864 C1862 1.378 . S
C1864 C1865 1.367 . S
C1865 C1864 1.367 . S
C1865 C1867 1.433 . S
C1866 C1862 1.350 . S
C1866 C1863 1.463 . S
C1866 N1870 1.427 . S
C1867 H1857 0.929 . S
C1867 C1865 1.433 . S
C1867 N1870 1.384 . S
C1868 H1859 0.929 . S
C1868 C1860 1.378 . S
C1868 C1863 1.350 . S
C1869 H1856 0.929 . S
C1869 C1861 1.433 . S
C1869 N1871 1.384 . S
N1870 C1866 1.427 . S
N1870 C1867 1.384 . S
N1871 C1863 1.427 . S
N1871 C1869 1.384 . S
C799 C21 0.860 . S
C803 C681 0.853 . S
C817 C582 0.851 1_556 S
C821 C54 0.860 . S
C835 C615 0.849 . S
C839 C87 0.855 . S
C853 C648 0.847 . S
C857 C120 0.851 . S
C871 C153 0.861 . S
C875 C780 0.868 . S
C889 C714 0.879 . S
C893 C186 0.879 . S
C907 C747 0.850 . S
C911 C219 0.847 1_655 S
C925 C549 0.847 . S
C929 C252 0.852 . S
C943 C285 0.879 . S
C947 C516 0.878 . S
C961 C417 0.847 . S
C965 C318 0.849 . S
C979 C351 0.847 1_565 S
C983 C450 0.851 . S
C997 C483 0.868 . S
C1001 C384 0.860 . S
C1015 C634 1.511 . S
C1019 N13 1.242 . S
C1033 N46 1.239 . S
C1037 C667 1.509 . S
C1051 C568 1.510 . S
C1055 N79 1.241 1_565 S
C1069 N112 1.243 . S
C1073 C601 1.511 . S
C1087 C700 1.511 . S
C1091 N145 1.243 . S
C1105 C733 1.511 . S
C1109 N178 1.242 . S
C1123 C535 1.505 . S
C1127 N211 1.217 . S
C1141 N244 1.211 . S
C1145 C766 1.503 . S
C1159 N277 1.231 . S
C1163 C73 1.509 . S
C1177 N310 1.218 . S
C1181 C106 1.504 . S
C1195 N343 1.210 . S
C1199 C7 1.503 . S
C1213 C40 1.510 . S
C1217 N376 1.236 . S
C1231 N409 1.213 1_556 S
C1235 C205 1.503 . S
C1249 C238 1.511 . S
C1253 N442 1.243 . S
C1267 C139 1.506 . S
C1271 N475 1.228 . S
C1285 C172 1.511 . S
C1289 N508 1.243 . S
C1303 C403 1.509 . S
C1307 N541 1.238 . S
C1321 C271 1.511 . S
C1325 N574 1.243 . S
C1339 N607 1.224 . S
C1343 C304 1.506 . S
C1357 N640 1.237 1_655 S
C1361 C337 1.509 . S
C1375 C370 1.504 . S
C1379 N673 1.218 . S
C1393 N706 1.213 . S
C1397 C469 1.503 . S
C1411 C502 1.508 . S
C1415 N739 1.235 . S
C1429 N772 1.237 . S
C1433 C436 1.509 . S
C1447 C18 1.141 . S
C1451 C744 1.150 1_455 S
C1465 C546 1.150 . S
C1469 C51 1.136 1_554 S
C1483 C84 1.147 . S
C1487 C777 1.136 . S
C1501 C711 1.149 . S
C1505 C117 1.136 . S
C1519 C150 1.140 . S
C1523 C612 1.151 . S
C1537 C645 1.147 . S
C1541 C183 1.146 . S
C1555 C216 1.149 . S
C1559 C678 1.136 . S
C1573 C579 1.150 . S
C1577 C249 1.142 . S
C1591 C447 1.150 1_545 S
C1595 C282 1.136 . S
C1609 C480 1.139 . S
C1613 C315 1.142 . S
C1627 C348 1.146 . S
C1631 C513 1.137 . S
C1645 C381 1.137 . S
C1649 C414 1.151 . S
C1663 N497 0.614 . S
C1667 N2 0.588 . S
C1681 N35 0.607 . S
C1685 N398 0.603 . S
C1699 N431 0.587 . S
C1703 N68 0.614 . S
C1717 N464 0.594 . S
C1721 N101 0.612 . S
C1735 N134 0.575 . S
C1739 N299 0.613 . S
C1753 N332 0.561 . S
C1757 N167 0.600 . S
C1771 N200 0.579 . S
C1775 N365 0.614 . S
C1789 N266 0.562 . S
C1793 N233 0.600 . S
C1807 N662 0.565 . S
C1811 N530 0.576 . S
C1825 N761 0.614 . S
C1829 N563 0.584 . S
C1843 N695 0.606 . S
C1847 N596 0.603 . S
C1861 N728 0.614 . S
C1865 N629 0.583 . S
