# Generated by pormake.
# Topology smm, (6)-cn, num edge types: 1
# Building blocks:
#     Node 0, Type 0, BuildingBlock: BETDAH_clean_sbu_0, # of connection points: 6
#     Node 1, Type 0, BuildingBlock: BETDAH_clean_sbu_0, # of connection points: 6
#     Node 2, Type 0, BuildingBlock: BETDAH_clean_sbu_0, # of connection points: 6
#     Node 3, Type 0, BuildingBlock: BETDAH_clean_sbu_0, # of connection points: 6
#     Node 4, Type 0, BuildingBlock: BETDAH_clean_sbu_0, # of connection points: 6
#     Node 5, Type 0, BuildingBlock: BETDAH_clean_sbu_0, # of connection points: 6
#     Node 6, Type 0, BuildingBlock: BETDAH_clean_sbu_0, # of connection points: 6
#     Node 7, Type 0, BuildingBlock: BETDAH_clean_sbu_0, # of connection points: 6
#     Node 8, Type 0, BuildingBlock: BETDAH_clean_sbu_0, # of connection points: 6
#     Edge 9, Type (0, 0), BuildingBlock: TEMPAE_clean_linker_10, # of connection points: 2
#     Edge 10, Type (0, 0), BuildingBlock: TEMPAE_clean_linker_10, # of connection points: 2
#     Edge 11, Type (0, 0), BuildingBlock: TEMPAE_clean_linker_10, # of connection points: 2
#     Edge 12, Type (0, 0), BuildingBlock: TEMPAE_clean_linker_10, # of connection points: 2
#     Edge 13, Type (0, 0), BuildingBlock: TEMPAE_clean_linker_10, # of connection points: 2
#     Edge 14, Type (0, 0), BuildingBlock: TEMPAE_clean_linker_10, # of connection points: 2
#     Edge 15, Type (0, 0), BuildingBlock: TEMPAE_clean_linker_10, # of connection points: 2
#     Edge 16, Type (0, 0), BuildingBlock: TEMPAE_clean_linker_10, # of connection points: 2
#     Edge 17, Type (0, 0), BuildingBlock: TEMPAE_clean_linker_10, # of connection points: 2
#     Edge 18, Type (0, 0), BuildingBlock: TEMPAE_clean_linker_10, # of connection points: 2
#     Edge 19, Type (0, 0), BuildingBlock: TEMPAE_clean_linker_10, # of connection points: 2
#     Edge 20, Type (0, 0), BuildingBlock: TEMPAE_clean_linker_10, # of connection points: 2
#     Edge 21, Type (0, 0), BuildingBlock: TEMPAE_clean_linker_10, # of connection points: 2
#     Edge 22, Type (0, 0), BuildingBlock: TEMPAE_clean_linker_10, # of connection points: 2
#     Edge 23, Type (0, 0), BuildingBlock: TEMPAE_clean_linker_10, # of connection points: 2
#     Edge 24, Type (0, 0), BuildingBlock: TEMPAE_clean_linker_10, # of connection points: 2
#     Edge 25, Type (0, 0), BuildingBlock: TEMPAE_clean_linker_10, # of connection points: 2
#     Edge 26, Type (0, 0), BuildingBlock: TEMPAE_clean_linker_10, # of connection points: 2
#     Edge 27, Type (0, 0), BuildingBlock: TEMPAE_clean_linker_10, # of connection points: 2
#     Edge 28, Type (0, 0), BuildingBlock: TEMPAE_clean_linker_10, # of connection points: 2
#     Edge 29, Type (0, 0), BuildingBlock: TEMPAE_clean_linker_10, # of connection points: 2
#     Edge 30, Type (0, 0), BuildingBlock: TEMPAE_clean_linker_10, # of connection points: 2
#     Edge 31, Type (0, 0), BuildingBlock: TEMPAE_clean_linker_10, # of connection points: 2
#     Edge 32, Type (0, 0), BuildingBlock: TEMPAE_clean_linker_10, # of connection points: 2
#     Edge 33, Type (0, 0), BuildingBlock: TEMPAE_clean_linker_10, # of connection points: 2
#     Edge 34, Type (0, 0), BuildingBlock: TEMPAE_clean_linker_10, # of connection points: 2
#     Edge 35, Type (0, 0), BuildingBlock: TEMPAE_clean_linker_10, # of connection points: 2
# Relax obj value: 0.048
# Max RMSD: 0.126
# Mean RMSD: 0.126
data_MOF--net-smm--node1-BETDAH_clean_sbu_0--edge1-TEMPAE_clean_linker_10
_symmetry_space_group_name_H-M    P1
_symmetry_Int_Tables_number       1
_symmetry_cell_setting            triclinic
loop_
_symmetry_equiv_pos_as_xyz
'x, y, z'
_cell_length_a     71.309525
_cell_length_b     71.33018
_cell_length_c     14.322579
_cell_angle_alpha  90.035329
_cell_angle_beta   89.910712
_cell_angle_gamma 119.99173
loop_
_atom_site_label
_atom_site_type_symbol
_atom_site_fract_x
_atom_site_fract_y
_atom_site_fract_z
_atom_type_partial_charge
Ho0 Ho 0.06567 0.22654 0.98122 0.0
Ho1 Ho 1.02478 0.18328 0.03602 0.0
C2 C 1.02027 0.22566 0.02967 0.0
C3 C 0.0933 0.26084 0.89073 0.0
C4 C 0.10086 0.28399 0.87449 0.0
C5 C 0.08735 0.29291 0.88616 0.0
C6 C 0.09508 0.31486 0.86573 0.0
C7 C 0.1164 0.32817 0.8328 0.0
C8 C 0.12985 0.31909 0.8228 0.0
C9 C 0.12215 0.2973 0.84335 0.0
C10 C 0.06042 0.21843 0.16575 0.0
C11 C 0.07131 0.1852 0.00993 0.0
C12 C 0.99606 0.14631 0.10533 0.0
C13 C 0.98776 0.12291 0.09 0.0
C14 C 0.98463 0.10951 0.16703 0.0
C15 C 0.97565 0.08715 0.15554 0.0
C16 C 0.96946 0.07758 0.06656 0.0
C17 C 0.973 0.09114 -0.01089 0.0
C18 C 0.98208 0.11355 0.00065 0.0
C19 C 0.03142 0.19223 0.85236 0.0
O20 O 0.03899 0.23532 0.98359 0.0
O21 O 1.01314 0.20654 0.07013 0.0
O22 O 0.09726 0.25546 0.97262 0.0
O23 O 0.07426 0.24667 0.85784 0.0
O24 O 0.07919 0.23028 0.12672 0.0
O25 O 0.04562 0.21387 0.10739 0.0
O26 O 0.05177 0.1754 0.04835 0.0
O27 O 0.07908 0.20406 0.96663 0.0
O28 O 0.99183 0.15668 0.04102 0.0
O29 O 1.01573 0.15766 0.13818 0.0
O30 O 1.01237 0.18217 0.8897 0.0
O31 O 0.04552 0.19547 0.91194 0.0
H32 H 0.07083 0.28291 0.91007 0.0
H33 H 0.08426 0.32129 0.8739 0.0
H34 H 0.14645 0.32889 0.79948 0.0
H35 H 0.13286 0.29075 0.83411 0.0
H36 H 0.98894 0.11634 0.23657 0.0
H37 H 0.97359 0.07735 0.2166 0.0
H38 H 0.96827 0.0844 0.91968 0.0
H39 H 0.98433 0.12347 0.9398 0.0
Ho40 Ho 0.85599 0.86717 0.98145 0.0
Ho41 Ho 0.89942 0.86944 0.03515 0.0
C42 C 0.85668 0.82263 0.0309 0.0
C43 C 0.82173 0.8607 0.89157 0.0
C44 C 0.79849 0.84533 0.87634 0.0
C45 C 0.78946 0.82282 0.88494 0.0
C46 C 0.76745 0.80885 0.86492 0.0
C47 C 0.75417 0.81717 0.83552 0.0
C48 C 0.76334 0.83976 0.82878 0.0
C49 C 0.7852 0.85363 0.84889 0.0
C50 C 0.86496 0.87117 0.16472 0.0
C51 C 0.8977 0.91411 0.00787 0.0
C52 C 0.93628 0.87752 0.1045 0.0
C53 C 0.95964 0.89313 0.09076 0.0
C54 C 0.97272 0.90332 0.16869 0.0
C55 C 0.99507 0.91711 0.15846 0.0
C56 C 1.00494 0.92097 0.06988 0.0
C57 C 0.99169 0.91106 -0.00843 0.0
C58 C 0.9693 0.89734 0.00183 0.0
C59 C 0.89032 0.8671 0.85119 0.0
O60 O 0.84687 0.83167 -0.01393 0.0
O61 O 0.87608 0.83456 0.06906 0.0
O62 O 0.82734 0.87031 0.97288 0.0
O63 O 0.83565 0.85543 0.85889 0.0
O64 O 0.85256 0.87745 0.12629 0.0
O65 O 0.86905 0.86031 0.10764 0.0
O66 O 0.9076 0.90442 0.04566 0.0
O67 O 0.87869 0.90299 0.96571 0.0
O68 O 0.92629 0.86351 0.03765 0.0
O69 O 0.92449 0.88509 0.1402 0.0
O70 O 0.90075 0.85845 0.8882 0.0
O71 O 0.88691 0.8777 0.91173 0.0
H72 H 0.79944 0.81607 0.90597 0.0
H73 H 0.76095 0.79155 0.87052 0.0
H74 H 0.75357 0.84678 0.80821 0.0
H75 H 0.79183 0.87094 0.84204 0.0
H76 H 0.96565 0.9004 0.23793 0.0
H77 H 1.00463 0.92474 0.22018 0.0
H78 H 0.99867 0.91344 0.92239 0.0
H79 H 0.95965 0.88976 0.94027 0.0
Ho80 Ho 0.21521 1.01739 -0.01546 0.0
Ho81 Ho 0.21348 0.05863 0.03899 0.0
C82 C 0.26005 0.06231 0.03336 0.0
C83 C 0.22141 0.9894 0.89446 0.0
C84 C 0.23681 0.98158 0.8784 0.0
C85 C 0.25933 0.9951 0.88646 0.0
C86 C 0.27332 0.9871 0.86588 0.0
C87 C 0.26502 0.9655 0.83643 0.0
C88 C 0.24242 0.95205 0.83016 0.0
C89 C 0.22853 0.96001 0.85083 0.0
C90 C 0.21223 0.02268 0.16894 0.0
C91 C 0.1685 1.01253 0.01278 0.0
C92 C 0.20623 0.08806 0.10807 0.0
C93 C 0.1917 0.097 0.09332 0.0
C94 C 0.17035 0.08415 0.06136 0.0
C95 C 0.15692 0.09315 0.04964 0.0
C96 C 0.16461 0.11517 0.06953 0.0
C97 C 0.18611 0.12795 0.10042 0.0
C98 C 0.19945 0.11895 0.11224 0.0
C99 C 0.21589 0.05192 0.85543 0.0
O100 O 0.25084 0.04366 -0.01303 0.0
O101 O 0.2482 0.06964 0.07374 0.0
O102 O 0.21207 0.9856 0.9764 0.0
O103 O 0.22651 1.00848 0.8612 0.0
O104 O 0.20508 1.00388 0.12999 0.0
O105 O 0.22272 0.03743 0.11061 0.0
O106 O 0.17842 0.03207 0.0511 0.0
O107 O 0.17944 1.00454 0.96973 0.0
O108 O 0.22043 0.09187 0.04233 0.0
O109 O 0.19754 0.06835 0.14101 0.0
O110 O 0.2251 0.07096 0.89273 0.0
O111 O 0.20479 0.03789 0.91497 0.0
H112 H 0.26607 1.01183 0.90757 0.0
H113 H 0.29063 0.99793 0.87114 0.0
H114 H 0.23541 0.93526 0.80958 0.0
H115 H 0.21121 0.94929 0.84439 0.0
H116 H 0.16401 0.06716 0.04602 0.0
H117 H 0.14042 0.08276 0.02652 0.0
H118 H 0.19275 0.14502 0.11479 0.0
H119 H 0.21591 0.12919 0.13641 0.0
Ho120 Ho 0.73194 0.55919 0.3128 0.0
Ho121 Ho 0.69101 0.51572 0.36631 0.0
C122 C 0.68639 0.55801 0.36191 0.0
C123 C 0.75895 0.59421 0.22471 0.0
C124 C 0.76453 0.61697 0.2075 0.0
C125 C 0.76329 0.62351 0.1163 0.0
C126 C 0.77092 0.64535 0.09566 0.0
C127 C 0.78015 0.66128 0.16565 0.0
C128 C 0.78077 0.65461 0.25761 0.0
C129 C 0.7731 0.63274 0.27828 0.0
C130 C 0.72665 0.55036 0.49656 0.0
C131 C 0.73772 0.51784 0.33816 0.0
C132 C 0.66253 0.47876 0.43629 0.0
C133 C 0.65451 0.4554 0.42158 0.0
C134 C 0.65076 0.44199 0.49919 0.0
C135 C 0.6419 0.41963 0.48798 0.0
C136 C 0.63644 0.41009 0.39871 0.0
C137 C 0.64066 0.42368 0.32076 0.0
C138 C 0.64963 0.44608 0.33202 0.0
C139 C 0.69751 0.52518 0.1832 0.0
O140 O 0.70515 0.5678 0.31626 0.0
O141 O 0.6792 0.53878 0.40127 0.0
O142 O 0.76255 0.58915 0.30806 0.0
O143 O 0.74106 0.57886 0.18736 0.0
O144 O 0.74547 0.5621 0.45768 0.0
O145 O 0.71188 0.54616 0.43851 0.0
O146 O 0.71791 0.50762 0.37404 0.0
O147 O 0.74587 0.53717 0.29867 0.0
O148 O 0.65822 0.48889 0.3711 0.0
O149 O 0.68213 0.49036 0.46972 0.0
O150 O 0.67846 0.51468 0.22047 0.0
O151 O 0.71168 0.52832 0.2423 0.0
H152 H 0.7569 0.61176 0.06017 0.0
H153 H 0.76983 0.64978 0.0244 0.0
H154 H 0.78796 0.66639 0.3132 0.0
H155 H 0.77447 0.62833 0.34923 0.0
H156 H 0.65446 0.44879 0.5689 0.0
H157 H 0.63931 0.4098 0.54951 0.0
H158 H 0.63652 0.41697 0.25104 0.0
H159 H 0.6524 0.45604 0.27075 0.0
Ho160 Ho 0.52281 0.1997 0.31271 0.0
Ho161 Ho 0.56624 0.20196 0.36644 0.0
C162 C 0.52349 0.15518 0.36267 0.0
C163 C 0.48856 0.19316 0.2225 0.0
C164 C 0.46537 0.17769 0.20647 0.0
C165 C 0.45636 0.15523 0.21717 0.0
C166 C 0.4344 0.14113 0.1966 0.0
C167 C 0.42116 0.14927 0.16451 0.0
C168 C 0.43032 0.17182 0.15557 0.0
C169 C 0.45213 0.18581 0.17625 0.0
C170 C 0.5318 0.20375 0.49596 0.0
C171 C 0.5645 0.24662 0.33955 0.0
C172 C 0.60315 0.21005 0.43548 0.0
C173 C 0.62652 0.22561 0.42144 0.0
C174 C 0.6395 0.23644 0.4988 0.0
C175 C 0.66187 0.25018 0.48852 0.0
C176 C 0.67185 0.25335 0.40047 0.0
C177 C 0.6587 0.24279 0.32266 0.0
C178 C 0.63631 0.22911 0.33296 0.0
C179 C 0.55714 0.19963 0.18246 0.0
O180 O 0.51368 0.16419 0.31769 0.0
O181 O 0.5429 0.16711 0.40071 0.0
O182 O 0.494 0.20258 0.30426 0.0
O183 O 0.50262 0.18811 0.18965 0.0
O184 O 0.5194 0.21003 0.45747 0.0
O185 O 0.53588 0.19287 0.43893 0.0
O186 O 0.57439 0.23691 0.37728 0.0
O187 O 0.5455 0.23553 0.29726 0.0
O188 O 0.59308 0.19595 0.36903 0.0
O189 O 0.59141 0.2177 0.47106 0.0
O190 O 0.56756 0.19098 0.21944 0.0
O191 O 0.55373 0.21023 0.24304 0.0
H192 H 0.46632 0.14861 0.24035 0.0
H193 H 0.42791 0.12386 0.20396 0.0
H194 H 0.42058 0.17872 0.13293 0.0
H195 H 0.45875 0.20309 0.16775 0.0
H196 H 0.63236 0.23407 0.56771 0.0
H197 H 0.67134 0.25832 0.54978 0.0
H198 H 0.66577 0.24462 0.25395 0.0
H199 H 0.62674 0.22102 0.27181 0.0
Ho200 Ho 0.88248 0.351 0.31789 0.0
Ho201 Ho 0.8801 0.39192 0.37237 0.0
C202 C 0.92694 0.39633 0.36653 0.0
C203 C 0.89019 0.32389 0.22881 0.0
C204 C 0.90725 0.31819 0.21053 0.0
C205 C 0.91469 0.31919 0.11876 0.0
C206 C 0.9288 0.31148 0.09723 0.0
C207 C 0.93576 0.30243 0.16691 0.0
C208 C 0.92882 0.30205 0.25939 0.0
C209 C 0.91471 0.30979 0.28095 0.0
C210 C 0.87913 0.35622 0.50203 0.0
C211 C 0.83544 0.34538 0.34525 0.0
C212 C 0.87245 0.4209 0.44366 0.0
C213 C 0.85757 0.42943 0.43048 0.0
C214 C 0.86275 0.44932 0.471 0.0
C215 C 0.84921 0.45807 0.45878 0.0
C216 C 0.83011 0.4471 0.40567 0.0
C217 C 0.82498 0.4271 0.36488 0.0
C218 C 0.8386 0.41833 0.37718 0.0
C219 C 0.88283 0.38545 0.18885 0.0
O220 O 0.91793 0.3777 0.32006 0.0
O221 O 0.91491 0.40343 0.40693 0.0
O222 O 0.88165 0.3203 0.31251 0.0
O223 O 0.89281 0.34184 0.19181 0.0
O224 O 0.87192 0.33741 0.46298 0.0
O225 O 0.88968 0.37099 0.44384 0.0
O226 O 0.84511 0.36506 0.38236 0.0
O227 O 0.84658 0.33738 0.30389 0.0
O228 O 0.88641 0.4249 0.37659 0.0
O229 O 0.86407 0.40116 0.47606 0.0
O230 O 0.89154 0.40447 0.22622 0.0
O231 O 0.87184 0.3713 0.24816 0.0
H232 H 0.90913 0.32545 0.06292 0.0
H233 H 0.93405 0.31239 0.02556 0.0
H234 H 0.93363 0.29501 0.31477 0.0
H235 H 0.9092 0.30862 0.35233 0.0
H236 H 0.87739 0.45819 0.51188 0.0
H237 H 0.8539 0.47365 0.48992 0.0
H238 H 0.81033 0.41809 0.32432 0.0
H239 H 0.83434 0.40294 0.34516 0.0
Ho240 Ho 0.39756 0.89234 0.6551 0.0
Ho241 Ho 0.35658 0.84911 0.70952 0.0
C242 C 0.35226 0.89158 0.70419 0.0
C243 C 0.42472 0.92712 0.566 0.0
C244 C 0.43049 0.9499 0.54799 0.0
C245 C 0.42894 0.95624 0.45678 0.0
C246 C 0.4367 0.97805 0.43523 0.0
C247 C 0.44636 0.99415 0.50428 0.0
C248 C 0.44732 0.9877 0.59627 0.0
C249 C 0.43952 0.96586 0.61786 0.0
C250 C 0.39233 0.88383 0.83923 0.0
C251 C 0.40309 0.85089 0.68228 0.0
C252 C 0.32753 0.81241 0.77988 0.0
C253 C 0.31897 0.789 0.76612 0.0
C254 C 0.2978 0.7744 0.79506 0.0
C255 C 0.28911 0.75211 0.78307 0.0
C256 C 0.30143 0.74385 0.74189 0.0
C257 C 0.3227 0.75861 0.71234 0.0
C258 C 0.33139 0.78098 0.7243 0.0
C259 C 0.36312 0.85831 0.52605 0.0
O260 O 0.37089 0.90114 0.65754 0.0
O261 O 0.34513 0.87246 0.7446 0.0
O262 O 0.42832 0.92214 0.64953 0.0
O263 O 0.40673 0.91182 0.52915 0.0
O264 O 0.41114 0.89541 0.80007 0.0
O265 O 0.37755 0.8796 0.78118 0.0
O266 O 0.3834 0.84094 0.71948 0.0
O267 O 0.41113 0.87001 0.6409 0.0
O268 O 0.32354 0.82245 0.71329 0.0
O269 O 0.34723 0.82376 0.81264 0.0
O270 O 0.34408 0.84814 0.5635 0.0
O271 O 0.37724 0.8614 0.58529 0.0
H272 H 0.4222 0.94434 0.40131 0.0
H273 H 0.43536 0.98232 0.36399 0.0
H274 H 0.45484 0.99962 0.65112 0.0
H275 H 0.44115 0.9616 0.68876 0.0
H276 H 0.28791 0.78026 0.82691 0.0
H277 H 0.27258 0.74134 0.80516 0.0
H278 H 0.33273 0.75286 0.68112 0.0
H279 H 0.34778 0.79199 0.70117 0.0
Ho280 Ho 0.18942 0.53388 0.64972 0.0
Ho281 Ho 0.23274 0.53585 0.70312 0.0
C282 C 0.18974 0.48923 0.70035 0.0
C283 C 0.15525 0.52758 0.55955 0.0
C284 C 0.13208 0.51214 0.54313 0.0
C285 C 0.12313 0.48964 0.55172 0.0
C286 C 0.10119 0.47559 0.53073 0.0
C287 C 0.08791 0.48383 0.50033 0.0
C288 C 0.097 0.5064 0.49353 0.0
C289 C 0.1188 0.52035 0.51462 0.0
C290 C 0.19851 0.53801 0.83287 0.0
C291 C 0.23138 0.58073 0.67592 0.0
C292 C 0.26952 0.54354 0.77194 0.0
C293 C 0.29294 0.55878 0.75739 0.0
C294 C 0.30621 0.56893 0.83485 0.0
C295 C 0.3286 0.58236 0.82391 0.0
C296 C 0.3383 0.58589 0.73507 0.0
C297 C 0.32486 0.57602 0.65723 0.0
C298 C 0.30244 0.56265 0.6682 0.0
C299 C 0.22352 0.53345 0.51929 0.0
O300 O 0.18005 0.4983 0.65487 0.0
O301 O 0.20915 0.50112 0.73842 0.0
O302 O 0.16065 0.53683 0.64165 0.0
O303 O 0.16933 0.52259 0.52631 0.0
O304 O 0.18615 0.54434 0.79441 0.0
O305 O 0.20249 0.52704 0.77591 0.0
O306 O 0.24128 0.57094 0.71286 0.0
O307 O 0.21223 0.5697 0.63475 0.0
O308 O 0.25926 0.52938 0.7059 0.0
O309 O 0.25806 0.55154 0.80711 0.0
O310 O 0.23383 0.52467 0.55626 0.0
O311 O 0.22027 0.54417 0.57978 0.0
H312 H 0.13312 0.48295 0.57356 0.0
H313 H 0.09475 0.4583 0.5364 0.0
H314 H 0.08722 0.51336 0.47224 0.0
H315 H 0.12536 0.53765 0.50776 0.0
H316 H 0.29927 0.56626 0.90427 0.0
H317 H 0.33831 0.58998 0.88528 0.0
H318 H 0.33171 0.57816 0.58789 0.0
H319 H 0.29263 0.55509 0.60701 0.0
Ho320 Ho 0.54906 0.68385 0.65088 0.0
Ho321 Ho 0.54616 0.72464 0.70495 0.0
C322 C 0.59317 0.72932 0.7016 0.0
C323 C 0.557 0.65702 0.56085 0.0
C324 C 0.57393 0.65111 0.54343 0.0
C325 C 0.58171 0.65235 0.45214 0.0
C326 C 0.59569 0.64447 0.43111 0.0
C327 C 0.60217 0.63499 0.5008 0.0
C328 C 0.59488 0.63435 0.59286 0.0
C329 C 0.58091 0.64229 0.61393 0.0
C330 C 0.54472 0.6886 0.83412 0.0
C331 C 0.50183 0.67784 0.67805 0.0
C332 C 0.53764 0.75318 0.77404 0.0
C333 C 0.52212 0.76102 0.75946 0.0
C334 C 0.51107 0.76305 0.83644 0.0
C335 C 0.49742 0.77176 0.82581 0.0
C336 C 0.49456 0.77878 0.73781 0.0
C337 C 0.50533 0.77631 0.66035 0.0
C338 C 0.51892 0.76751 0.67098 0.0
C339 C 0.5487 0.71798 0.52091 0.0
O340 O 0.5844 0.71066 0.65541 0.0
O341 O 0.58099 0.73643 0.74048 0.0
O342 O 0.54796 0.65305 0.64362 0.0
O343 O 0.56009 0.67528 0.52532 0.0
O344 O 0.53858 0.66997 0.79528 0.0
O345 O 0.55556 0.70364 0.77736 0.0
O346 O 0.51133 0.69751 0.71521 0.0
O347 O 0.51311 0.67003 0.6364 0.0
O348 O 0.55201 0.75741 0.70846 0.0
O349 O 0.52987 0.73371 0.80865 0.0
O350 O 0.55719 0.73704 0.55803 0.0
O351 O 0.53818 0.70394 0.58141 0.0
H352 H 0.57651 0.65894 0.39624 0.0
H353 H 0.60122 0.64557 0.35979 0.0
H354 H 0.59933 0.62699 0.64821 0.0
H355 H 0.57512 0.64092 0.68493 0.0
H356 H 0.51322 0.75813 0.90532 0.0
H357 H 0.48911 0.77301 0.88678 0.0
H358 H 0.50373 0.7817 0.59169 0.0
H359 H 0.5272 0.76614 0.61014 0.0
C360 C 0.13784 0.36045 0.72901 0.0
C361 C 0.12484 0.35143 0.8086 0.0
C362 C 0.14725 0.3826 0.70832 0.0
C363 C 0.14362 0.39624 0.76849 0.0
C364 C 0.12996 0.38715 0.84737 0.0
C365 C 0.12072 0.36488 0.86639 0.0
C366 C 0.16157 0.39153 0.62322 0.0
C367 C 0.12567 0.40109 0.91337 0.0
C368 C 0.18702 0.45588 0.77243 0.0
C369 C 0.17784 0.46539 0.71666 0.0
C370 C 0.17596 0.43352 0.79049 0.0
C371 C 0.15515 0.42015 0.75169 0.0
C372 C 0.14575 0.4296 0.69533 0.0
C373 C 0.15718 0.45208 0.67857 0.0
C374 C 0.18661 0.42417 0.85104 0.0
C375 C 0.12365 0.41595 0.65239 0.0
H376 H 0.14079 0.35014 0.68287 0.0
H377 H 0.11083 0.35813 0.92832 0.0
H378 H 0.15594 0.40045 0.5786 0.0
H379 H 0.17837 0.40321 0.64507 0.0
H380 H 0.16183 0.37863 0.58074 0.0
H381 H 0.11359 0.39139 0.96793 0.0
H382 H 0.14098 0.4129 0.94818 0.0
H383 H 0.11974 0.4105 0.87417 0.0
H384 H 0.20292 0.46593 0.80261 0.0
H385 H 0.14989 0.45919 0.63546 0.0
H386 H 0.18879 0.41211 0.81073 0.0
H387 H 0.17607 0.41559 0.91163 0.0
H388 H 0.20266 0.43679 0.87747 0.0
H389 H 0.1238 0.40368 0.6052 0.0
H390 H 0.11838 0.42579 0.61193 0.0
H391 H 0.11151 0.40705 0.70775 0.0
C392 C 0.71745 0.78465 0.86721 0.0
C393 C 0.73088 0.80261 0.81132 0.0
C394 C 0.69518 0.77174 0.84801 0.0
C395 C 0.68608 0.77683 0.77088 0.0
C396 C 0.69969 0.79454 0.7127 0.0
C397 C 0.72184 0.80716 0.73354 0.0
C398 C 0.68126 0.75303 0.91186 0.0
C399 C 0.69075 0.80049 0.62946 0.0
C400 C 0.63059 0.73473 0.67764 0.0
C401 C 0.617 0.74152 0.71793 0.0
C402 C 0.65305 0.74594 0.69458 0.0
C403 C 0.66221 0.76437 0.75349 0.0
C404 C 0.64858 0.77126 0.79447 0.0
C405 C 0.62623 0.75983 0.77607 0.0
C406 C 0.667 0.73811 0.64918 0.0
C407 C 0.65762 0.79079 0.85783 0.0
H408 H 0.72422 0.78108 0.92775 0.0
H409 H 0.73214 0.82074 0.68885 0.0
H410 H 0.66924 0.75609 0.9477 0.0
H411 H 0.67207 0.73793 0.87074 0.0
H412 H 0.69094 0.75042 0.96559 0.0
H413 H 0.70362 0.81408 0.58863 0.0
H414 H 0.68203 0.7863 0.58267 0.0
H415 H 0.67888 0.80522 0.65321 0.0
H416 H 0.62369 0.72062 0.63269 0.0
H417 H 0.61596 0.76523 0.80798 0.0
H418 H 0.6758 0.73444 0.70338 0.0
H419 H 0.67935 0.75102 0.60399 0.0
H420 H 0.6574 0.72337 0.60613 0.0
H421 H 0.66618 0.78852 0.91753 0.0
H422 H 0.64483 0.79383 0.88559 0.0
H423 H 0.66964 0.80539 0.81927 0.0
C424 C 0.29759 0.96137 0.86746 0.0
C425 C 0.2796 0.9568 0.81189 0.0
C426 C 0.31048 0.95196 0.84817 0.0
C427 C 0.30531 0.93768 0.77129 0.0
C428 C 0.28759 0.93356 0.71332 0.0
C429 C 0.275 0.94314 0.73423 0.0
C430 C 0.32921 0.95679 0.91181 0.0
C431 C 0.28156 0.91857 0.63035 0.0
C432 C 0.34713 0.9237 0.67871 0.0
C433 C 0.34021 0.90339 0.71977 0.0
C434 C 0.33606 0.93512 0.69515 0.0
C435 C 0.31764 0.92609 0.75429 0.0
C436 C 0.31061 0.90563 0.79596 0.0
C437 C 0.32191 0.89455 0.77809 0.0
C438 C 0.34404 0.95684 0.64907 0.0
C439 C 0.29108 0.89539 0.85954 0.0
H440 H 0.30121 0.97176 0.92791 0.0
H441 H 0.2614 0.93983 0.68977 0.0
H442 H 0.32606 0.94176 0.94829 0.0
H443 H 0.34427 0.96249 0.87045 0.0
H444 H 0.33195 0.96924 0.96502 0.0
H445 H 0.26803 0.91791 0.5894 0.0
H446 H 0.29575 0.92386 0.58358 0.0
H447 H 0.27669 0.90196 0.65446 0.0
H448 H 0.36124 0.93073 0.63361 0.0
H449 H 0.3164 0.87893 0.81057 0.0
H450 H 0.34781 0.96943 0.70287 0.0
H451 H 0.33116 0.95631 0.60385 0.0
H452 H 0.35874 0.96178 0.60591 0.0
H453 H 0.29345 0.90635 0.91892 0.0
H454 H 0.28791 0.87956 0.88777 0.0
H455 H 0.27652 0.89286 0.82098 0.0
C456 C 0.38896 0.13876 0.06093 0.0
C457 C 0.39791 0.13457 0.14005 0.0
C458 C 0.3668 0.12613 0.04009 0.0
C459 C 0.3531 0.10876 0.09962 0.0
C460 C 0.36212 0.10397 0.17795 0.0
C461 C 0.38439 0.11689 0.19715 0.0
C462 C 0.35795 0.13176 0.95561 0.0
C463 C 0.3481 0.08562 0.24324 0.0
C464 C 0.29352 0.09278 0.10522 0.0
C465 C 0.28391 0.07419 0.04877 0.0
C466 C 0.3159 0.10398 0.12284 0.0
C467 C 0.32918 0.09653 0.08293 0.0
C468 C 0.31964 0.0778 0.02577 0.0
C469 C 0.29715 0.06686 0.00942 0.0
C470 C 0.32535 0.12385 0.18421 0.0
C471 C 0.3332 0.06935 0.98167 0.0
H472 H 0.39932 0.15211 0.01531 0.0
H473 H 0.39108 0.11358 0.2587 0.0
H474 H 0.34897 0.11732 0.91044 0.0
H475 H 0.34634 0.13694 0.97815 0.0
H476 H 0.37091 0.14497 0.91346 0.0
H477 H 0.35775 0.08304 0.29725 0.0
H478 H 0.33633 0.0891 0.27876 0.0
H479 H 0.33862 0.07037 0.20336 0.0
H480 H 0.28354 0.09862 0.13633 0.0
H481 H 0.28995 0.05254 0.96577 0.0
H482 H 0.33748 0.13814 0.14433 0.0
H483 H 0.33387 0.12171 0.24442 0.0
H484 H 0.3128 0.12734 0.21124 0.0
H485 H 0.34552 0.08184 0.93489 0.0
H486 H 0.3233 0.05436 0.94055 0.0
H487 H 0.34204 0.0659 0.03646 0.0
C488 C 0.94514 0.28009 0.06106 0.0
C489 C 0.94935 0.29255 0.14255 0.0
C490 C 0.95711 0.26987 0.03898 0.0
C491 C 0.97371 0.27204 0.09985 0.0
C492 C 0.97829 0.28486 0.18143 0.0
C493 C 0.96609 0.29493 0.20175 0.0
C494 C 0.95162 0.25633 0.95146 0.0
C495 C 0.99588 0.28765 0.24813 0.0
C496 C 0.9889 0.22784 0.09734 0.0
C497 C 1.00812 0.2374 0.04474 0.0
C498 C 0.9776 0.23891 0.1155 0.0
C499 C 0.98561 0.26013 0.08027 0.0
C500 C 1.0049 0.26983 0.02648 0.0
C501 C 1.01589 0.25837 0.00931 0.0
C502 C 0.9571 0.22792 0.17304 0.0
C503 C 1.01399 0.29239 -0.01252 0.0
H504 H 0.93206 0.27781 0.01547 0.0
H505 H 0.9697 0.30473 0.26417 0.0
H506 H 0.96631 0.26181 0.90777 0.0
H507 H 0.94572 0.23918 0.97031 0.0
H508 H 0.93899 0.25711 0.90908 0.0
H509 H 0.99799 0.29875 0.3067 0.0
H510 H 0.99195 0.2717 0.27754 0.0
H511 H 1.01151 0.2941 0.21045 0.0
H512 H 0.98269 0.21168 0.12518 0.0
H513 H 1.03069 0.26595 0.96862 0.0
H514 H 0.94337 0.22687 0.13246 0.0
H515 H 0.95894 0.23762 0.23648 0.0
H516 H 0.95293 0.21134 0.19489 0.0
H517 H 1.00189 0.2931 0.94125 0.0
H518 H 1.02913 0.29767 0.94708 0.0
H519 H 1.01742 0.30406 0.04515 0.0
C520 C 0.82378 0.7856 0.01261 0.0
C521 C 0.84491 0.79876 0.04641 0.0
C522 C 0.81234 0.76314 0.02967 0.0
C523 C 0.82223 0.75353 0.08175 0.0
C524 C 0.84358 0.7667 0.11553 0.0
C525 C 0.85462 0.78907 0.09747 0.0
C526 C 0.78963 0.74971 -0.00778 0.0
C527 C 0.85476 0.75717 0.17128 0.0
C528 C 0.78779 0.69908 0.20267 0.0
C529 C 0.78997 0.68478 0.1421 0.0
C530 C 0.79782 0.72138 0.18306 0.0
C531 C 0.81038 0.7297 0.1008 0.0
C532 C 0.81235 0.71533 0.03859 0.0
C533 C 0.80219 0.69313 0.06 0.0
C534 C 0.79526 0.7361 0.25121 0.0
C535 C 0.82561 0.72348 0.95028 0.0
H536 H 0.81606 0.79284 0.97315 0.0
H537 H 0.87091 0.79899 0.12408 0.0
H538 H 0.78876 0.73695 0.94507 0.0
H539 H 0.77818 0.74142 0.05056 0.0
H540 H 0.78421 0.7596 0.95322 0.0
H541 H 0.87141 0.76957 0.19244 0.0
H542 H 0.84525 0.74921 0.23507 0.0
H543 H 0.85572 0.74455 0.12965 0.0
H544 H 0.77818 0.69282 0.26561 0.0
H545 H 0.80431 0.68237 0.01332 0.0
H546 H 0.78866 0.7453 0.21497 0.0
H547 H 0.8113 0.74809 0.27978 0.0
H548 H 0.78436 0.72704 0.3103 0.0
H549 H 0.81997 0.73271 0.90786 0.0
H550 H 0.8247 0.71012 0.90698 0.0
H551 H 0.84282 0.73471 0.96817 0.0
C552 C 0.05573 0.4737 0.39719 0.0
C553 C 0.06468 0.46918 0.47538 0.0
C554 C 0.0336 0.46108 0.37591 0.0
C555 C 1.01993 0.44338 0.43405 0.0
C556 C 1.02895 0.43829 0.51146 0.0
C557 C 0.05119 0.45122 0.53111 0.0
C558 C 1.02474 0.46703 0.29242 0.0
C559 C 1.01496 0.41959 0.57527 0.0
C560 C 0.96019 0.42678 0.43991 0.0
C561 C 0.9508 0.40842 0.38205 0.0
C562 C 0.98255 0.43811 0.45788 0.0
C563 C 0.99604 0.43106 0.41678 0.0
C564 C 0.98673 0.41259 0.35805 0.0
C565 C 0.96424 0.40149 0.34149 0.0
C566 C 0.99175 0.45768 0.52098 0.0
C567 C 1.00053 0.40458 0.31259 0.0
H568 H 0.06607 0.48728 0.35261 0.0
H569 H 0.05789 0.44766 0.59196 0.0
H570 H 1.01591 0.45281 0.24593 0.0
H571 H 1.01298 0.47194 0.31596 0.0
H572 H 0.03767 0.48052 0.25134 0.0
H573 H 1.02461 0.41689 0.62884 0.0
H574 H 1.00304 0.42276 0.61134 0.0
H575 H 1.00566 0.40452 0.53413 0.0
H576 H 0.95003 0.4323 0.472 0.0
H577 H 0.95722 0.38734 0.29675 0.0
H578 H 1.00385 0.47221 0.48225 0.0
H579 H 1.00027 0.45536 0.58074 0.0
H580 H 0.97906 0.46089 0.5487 0.0
H581 H 1.01293 0.41743 0.26734 0.0
H582 H 0.99082 0.38987 0.26959 0.0
H583 H 1.00927 0.40083 0.36676 0.0
C584 C 0.6116 0.61277 0.39451 0.0
C585 C 0.61562 0.62493 0.47677 0.0
C586 C 0.62348 0.60246 0.37245 0.0
C587 C 0.63979 0.60424 0.43416 0.0
C588 C 0.64415 0.61672 0.51666 0.0
C589 C 0.63204 0.6269 0.53693 0.0
C590 C 0.61824 0.58928 0.28393 0.0
C591 C 0.66142 0.61908 0.58426 0.0
C592 C 0.65483 0.55994 0.42888 0.0
C593 C 0.67422 0.56971 0.37754 0.0
C594 C 0.64351 0.57098 0.44753 0.0
C595 C 0.6517 0.59236 0.41412 0.0
C596 C 0.67116 0.60228 0.36162 0.0
C597 C 0.68217 0.59085 0.34391 0.0
C598 C 0.6228 0.55976 0.50362 0.0
C599 C 0.68044 0.62503 0.32461 0.0
H600 H 0.59875 0.61081 0.34817 0.0
H601 H 0.6355 0.63647 0.6 0.0
H602 H 0.63307 0.59493 0.24098 0.0
H603 H 0.61226 0.57205 0.30148 0.0
H604 H 0.60576 0.59027 0.24128 0.0
H605 H 0.66331 0.62987 0.64382 0.0
H606 H 0.65733 0.60297 0.61218 0.0
H607 H 0.67721 0.6257 0.54772 0.0
H608 H 0.64848 0.54364 0.45531 0.0
H609 H 0.69713 0.5986 0.30428 0.0
H610 H 0.60924 0.55894 0.46256 0.0
H611 H 0.62443 0.56916 0.56782 0.0
H612 H 0.61851 0.54306 0.52411 0.0
H613 H 0.66849 0.62603 0.27842 0.0
H614 H 0.69567 0.63043 0.28472 0.0
H615 H 0.68378 0.63643 0.3833 0.0
C616 C 0.49041 0.11821 0.34626 0.0
C617 C 0.51166 0.13133 0.37877 0.0
C618 C 0.4789 0.0958 0.36426 0.0
C619 C 0.48884 0.08618 0.41592 0.0
C620 C 0.51033 0.0993 0.44826 0.0
C621 C 0.52144 0.12163 0.42934 0.0
C622 C 0.45604 0.08242 0.32838 0.0
C623 C 0.52158 0.08976 0.50346 0.0
C624 C 0.4545 0.03216 0.54005 0.0
C625 C 0.45629 1.01761 0.47965 0.0
C626 C 0.46463 0.05441 0.51937 0.0
C627 C 0.47689 0.06241 0.43618 0.0
C628 C 0.47846 0.04778 0.37416 0.0
C629 C 0.46821 0.02564 0.39664 0.0
C630 C 0.46249 0.06942 0.58734 0.0
C631 C 0.49141 0.0556 0.2849 0.0
H632 H 0.48264 0.12546 0.30722 0.0
H633 H 0.53783 0.13152 0.45491 0.0
H634 H 0.45486 0.06946 0.28168 0.0
H635 H 0.44477 0.07438 0.38755 0.0
H636 H 0.4506 0.0923 0.28935 0.0
H637 H 0.53835 0.10211 0.52325 0.0
H638 H 0.51229 0.08205 0.56804 0.0
H639 H 0.52222 0.07694 0.46205 0.0
H640 H 0.44512 0.02614 0.60371 0.0
H641 H 0.47002 1.01467 0.35006 0.0
H642 H 0.45588 0.07863 0.5513 0.0
H643 H 0.47868 0.08138 0.61469 0.0
H644 H 0.45178 0.06059 0.64727 0.0
H645 H 0.48573 0.06481 0.24261 0.0
H646 H 0.49021 0.04206 0.24196 0.0
H647 H 0.5087 0.06677 0.30152 0.0
C648 C 0.13619 0.11948 0.9827 0.0
C649 C 0.15035 0.12487 0.05892 0.0
C650 C 0.12303 0.12886 0.97146 0.0
C651 C 0.12399 0.14404 0.03795 0.0
C652 C 0.13815 0.14947 0.11522 0.0
C653 C 0.15108 0.13982 0.12483 0.0
C654 C 0.10817 0.12262 0.8881 0.0
C655 C 0.13964 0.16548 0.18802 0.0
C656 C 0.10515 0.18386 0.97258 0.0
C657 C 0.08458 0.17439 0.01426 0.0
C658 C 0.11799 0.17401 0.97846 0.0
C659 C 0.11015 0.1542 0.02735 0.0
C660 C 0.0893 0.14444 0.06858 0.0
C661 C 0.0768 0.15461 0.06154 0.0
C662 C 0.1401 0.18496 0.93336 0.0
C663 C 0.08029 0.12335 0.12134 0.0
H664 H 0.13566 0.10816 0.93077 0.0
H665 H 0.16164 0.14385 0.18483 0.0
H666 H 0.09117 0.11586 0.91173 0.0
H667 H 0.11232 0.13718 0.84552 0.0
H668 H 0.10917 0.11047 0.84304 0.0
H669 H 0.15155 0.16809 0.24362 0.0
H670 H 0.14441 0.18128 0.15465 0.0
H671 H 0.12357 0.15967 0.22091 0.0
H672 H 0.11135 0.19909 0.93573 0.0
H673 H 0.06095 0.14708 0.09403 0.0
H674 H 0.1414 0.17373 0.88361 0.0
H675 H 0.15273 0.18921 -0.0126 0.0
H676 H 0.14358 0.19993 0.89534 0.0
H677 H 0.08021 0.1107 0.07589 0.0
H678 H 0.06356 0.11751 0.14697 0.0
H679 H 0.09079 0.12539 0.18208 0.0
C680 C 0.89893 0.94924 0.97103 0.0
C681 C 0.90854 0.93818 0.01175 0.0
C682 C 0.90879 0.97192 0.97669 0.0
C683 C 0.92875 0.98394 0.02435 0.0
C684 C 0.93864 0.97291 0.06469 0.0
C685 C 0.92845 0.95024 0.05791 0.0
C686 C 0.89773 0.98303 0.93246 0.0
C687 C 0.95989 0.98505 0.11621 0.0
C688 C 0.96391 0.04454 0.97816 0.0
C689 C 0.95899 0.05356 0.05509 0.0
C690 C 0.9541 0.02197 0.96683 0.0
C691 C 0.93903 1.00797 0.03419 0.0
C692 C 0.93396 1.01693 0.11184 0.0
C693 C 0.94391 0.03954 0.12116 0.0
C694 C 0.95996 1.01309 0.88301 0.0
C695 C 0.91801 1.00262 0.18533 0.0
H696 H 0.88359 0.94016 0.9351 0.0
H697 H 0.93608 0.94196 0.08972 0.0
H698 H 0.89373 0.99158 -0.0132 0.0
H699 H 0.90879 0.99541 0.8818 0.0
H700 H 0.88259 0.97149 0.89567 0.0
H701 H 0.96576 0.97417 0.14155 0.0
H702 H 0.97242 0.99749 0.06999 0.0
H703 H 0.95803 0.99363 0.17702 0.0
H704 H 0.9757 0.05515 0.92724 0.0
H705 H 0.93964 0.04624 0.17996 0.0
H706 H 0.94517 1.0022 0.84276 0.0
H707 H 0.96725 1.00331 0.90625 0.0
H708 H 0.97159 0.0261 0.83585 0.0
H709 H 0.90204 0.99182 0.15281 0.0
H710 H 0.91581 1.0121 0.24153 0.0
H711 H 0.92361 0.99213 0.21733 0.0
C712 C 0.03805 0.94899 0.98343 0.0
C713 C 1.02897 0.93484 0.05962 0.0
C714 C 0.06064 0.96185 0.97262 0.0
C715 C 0.07459 0.96069 0.03978 0.0
C716 C 0.06556 0.94652 0.11693 0.0
C717 C 0.04294 0.93375 0.12573 0.0
C718 C 0.06958 0.97674 0.88932 0.0
C719 C 0.07981 0.94477 0.19021 0.0
C720 C 0.1332 0.97889 0.97581 0.0
C721 C 0.14442 0.9995 0.01692 0.0
C722 C 0.1105 0.96624 0.98155 0.0
C723 C 0.09863 0.97431 0.02975 0.0
C724 C 0.10982 0.99519 0.07041 0.0
C725 C 0.13251 1.00751 0.06349 0.0
C726 C 0.09922 0.94411 0.93684 0.0
C727 C 0.09783 1.00442 0.12247 0.0
H728 H 1.02748 0.9502 0.93253 0.0
H729 H 0.0362 0.92264 0.18397 0.0
H730 H 0.07954 0.99374 0.91311 0.0
H731 H 0.08034 0.97276 0.84825 0.0
H732 H 0.05661 0.97559 0.84274 0.0
H733 H 0.07029 0.93315 0.24649 0.0
H734 H 0.0905 0.93946 0.15747 0.0
H735 H 0.09043 0.96086 0.22211 0.0
H736 H 0.14216 0.97252 0.93949 0.0
H737 H 0.14092 0.02339 0.09552 0.0
H738 H 0.08687 0.94295 0.88649 0.0
H739 H 0.09061 0.93154 -0.00904 0.0
H740 H 0.11067 0.94043 0.89957 0.0
H741 H 0.08536 1.00455 0.07677 0.0
H742 H 0.10881 0.02117 0.14756 0.0
H743 H 0.0893 0.99404 0.1835 0.0
C744 C 0.77315 0.51843 0.32103 0.0
C745 C 0.75092 0.50697 0.34157 0.0
C746 C 0.78591 0.50852 0.32826 0.0
C747 C 0.77623 0.48653 0.35587 0.0
C748 C 0.75372 0.47475 0.37467 0.0
C749 C 0.74139 0.48511 0.36775 0.0
C750 C 0.80988 0.52172 0.30821 0.0
C751 C 0.74267 0.45125 0.40341 0.0
C752 C 0.80626 0.45579 0.30617 0.0
C753 C 0.81578 0.45666 0.39302 0.0
C754 C 0.7933 0.46535 0.29305 0.0
C755 C 0.78976 0.47609 0.36848 0.0
C756 C 0.79917 0.47685 0.45645 0.0
C757 C 0.81197 0.46711 0.46766 0.0
C758 C 0.78354 0.46412 0.19822 0.0
C759 C 0.79576 0.48803 0.53887 0.0
H760 H 0.78072 0.53532 0.30101 0.0
H761 H 0.72422 0.47601 0.38323 0.0
H762 H 0.81916 0.52275 0.37199 0.0
H763 H 0.81443 0.5137 0.25353 0.0
H764 H 0.81483 0.5384 0.28471 0.0
H765 H 0.72489 0.44409 0.41152 0.0
H766 H 0.74578 0.4417 0.35077 0.0
H767 H 0.74944 0.44965 0.47068 0.0
H768 H 0.80927 0.448 0.24773 0.0
H769 H 0.81891 0.46757 0.53546 0.0
H770 H 0.78956 0.48067 0.17041 0.0
H771 H 0.76568 0.45634 0.20419 0.0
H772 H 0.78747 0.45484 0.14722 0.0
H773 H 0.80167 0.50527 0.52176 0.0
H774 H 0.80428 0.48731 0.60247 0.0
H775 H 0.77823 0.48044 0.55479 0.0
C776 C 0.63142 0.37704 0.31213 0.0
C777 C 0.62599 0.38607 0.38739 0.0
C778 C 0.62158 0.35446 0.30077 0.0
C779 C 0.60595 0.34047 0.36642 0.0
C780 C 0.60037 0.34945 0.44241 0.0
C781 C 0.61036 0.37206 0.45175 0.0
C782 C 0.62799 0.34557 0.21873 0.0
C783 C 0.58383 0.33515 0.51411 0.0
C784 C 0.56611 0.28184 0.30072 0.0
C785 C 0.57535 0.27069 0.34372 0.0
C786 C 0.57602 0.30453 0.30643 0.0
C787 C 0.59564 0.31644 0.35661 0.0
C788 C 0.60514 0.30531 0.3994 0.0
C789 C 0.59494 0.28264 0.39238 0.0
C790 C 0.56539 0.31576 0.25945 0.0
C791 C 0.626 0.31733 0.45377 0.0
H792 H 0.64364 0.38763 0.26257 0.0
H793 H 0.60569 0.37877 0.50918 0.0
H794 H 0.63501 0.33571 0.24399 0.0
H795 H 0.61348 0.33475 0.17672 0.0
H796 H 0.64 0.35857 0.17265 0.0
H797 H 0.5813 0.34464 0.5692 0.0
H798 H 0.5681 0.32446 0.4796 0.0
H799 H 0.5891 0.32455 0.54783 0.0
H800 H 0.55103 0.27284 0.2628 0.0
H801 H 0.60227 0.27428 0.42606 0.0
H802 H 0.57685 0.32814 0.20978 0.0
H803 H 0.56106 0.32433 0.31239 0.0
H804 H 0.5505 0.30429 0.22093 0.0
H805 H 0.63892 0.32975 0.40885 0.0
H806 H 0.63158 0.30637 0.48107 0.0
H807 H 0.62375 0.32593 0.51349 0.0
C808 C 0.70502 0.28073 0.31233 0.0
C809 C 0.69589 0.26719 0.39033 0.0
C810 C 0.72761 0.29359 0.3017 0.0
C811 C 0.74152 0.29305 0.37086 0.0
C812 C 0.73243 0.27948 0.44979 0.0
C813 C 0.70981 0.26671 0.4584 0.0
C814 C 0.73661 0.30781 0.21648 0.0
C815 C 0.74664 0.27841 0.52524 0.0
C816 C 0.80035 0.31125 0.31081 0.0
C817 C 0.81135 0.33217 0.34902 0.0
C818 C 0.77765 0.29847 0.31629 0.0
C819 C 0.76557 0.30674 0.36122 0.0
C820 C 0.77655 0.32792 0.39894 0.0
C821 C 0.79924 0.34036 0.39237 0.0
C822 C 0.76659 0.27601 0.2748 0.0
C823 C 0.76434 0.33738 0.44743 0.0
H824 H 0.69449 0.28148 0.25986 0.0
H825 H 0.70303 0.25607 0.51811 0.0
H826 H 0.74642 0.32501 0.23794 0.0
H827 H 0.74752 0.30364 0.17783 0.0
H828 H 0.72367 0.30618 0.16838 0.0
H829 H 0.73707 0.26718 0.58259 0.0
H830 H 0.75747 0.27299 0.49503 0.0
H831 H 0.75711 0.29475 0.55526 0.0
H832 H 0.80947 0.30473 0.27703 0.0
H833 H 0.80748 0.35649 0.42206 0.0
H834 H 0.75429 0.27435 0.22306 0.0
H835 H 0.75796 0.26384 0.33038 0.0
H836 H 0.77819 0.27217 0.23993 0.0
H837 H 0.75192 0.3371 0.39998 0.0
H838 H 0.77518 0.35432 0.47069 0.0
H839 H 0.75571 0.32741 0.5093 0.0
C840 C 0.48121 0.8034 0.79582 0.0
C841 C 0.48083 0.78909 0.72742 0.0
C842 C 0.46853 0.81335 0.78707 0.0
C843 C 0.45517 0.80905 0.70766 0.0
C844 C 0.45475 0.79471 0.63813 0.0
C845 C 0.46752 0.78488 0.64891 0.0
C846 C 0.46948 0.82851 0.86291 0.0
C847 C 0.44074 0.78968 0.55241 0.0
C848 C 0.40791 0.81958 0.72859 0.0
C849 C 0.41624 0.83995 0.68595 0.0
C850 C 0.42028 0.80925 0.73502 0.0
C851 C 0.44155 0.81948 0.69797 0.0
C852 C 0.44996 0.8399 0.65377 0.0
C853 C 0.43724 0.84988 0.64833 0.0
C854 C 0.41065 0.7875 0.78269 0.0
C855 C 0.47252 0.85133 0.61306 0.0
H856 H 0.49169 0.80711 0.85594 0.0
H857 H 0.46685 0.77367 0.59615 0.0
H858 H 0.47499 0.84481 0.83319 0.0
H859 H 0.45307 0.82262 0.89245 0.0
H860 H 0.48058 0.83007 0.92052 0.0
H861 H 0.44246 0.77845 0.50404 0.0
H862 H 0.42349 0.78228 0.57324 0.0
H863 H 0.44504 0.80484 0.51428 0.0
H864 H 0.39172 0.81168 0.75782 0.0
H865 H 0.44386 0.86558 0.61512 0.0
H866 H 0.42045 0.78872 0.84491 0.0
H867 H 0.41105 0.77545 0.73497 0.0
H868 H 0.39365 0.78138 0.80522 0.0
H869 H 0.48456 0.85473 0.66899 0.0
H870 H 0.47648 0.86683 0.57866 0.0
H871 H 0.47427 0.84076 0.56108 0.0
C872 C 0.23192 0.61583 0.64758 0.0
C873 C 0.24235 0.60481 0.67995 0.0
C874 C 0.24182 0.6385 0.65451 0.0
C875 C 0.26272 0.65055 0.69452 0.0
C876 C 0.27348 0.63957 0.72578 0.0
C877 C 0.26318 0.6169 0.71834 0.0
C878 C 0.22974 0.64954 0.62052 0.0
C879 C 0.29579 0.65175 0.76847 0.0
C880 C 0.29561 0.71137 0.64826 0.0
C881 C 0.29201 0.71996 0.73017 0.0
C882 C 0.28628 0.68887 0.63576 0.0
C883 C 0.27298 0.67452 0.70675 0.0
C884 C 0.26943 0.68309 0.78984 0.0
C885 C 0.27899 0.70562 0.80058 0.0
C886 C 0.29051 0.68042 0.5462 0.0
C887 C 0.25545 0.66842 0.86749 0.0
H888 H 0.21584 0.60673 0.61784 0.0
H889 H 0.27148 0.60864 0.7434 0.0
H890 H 0.22677 0.65776 0.67974 0.0
H891 H 0.23965 0.66218 0.56842 0.0
H892 H 0.21394 0.638 0.58829 0.0
H893 H 0.30234 0.64095 0.78599 0.0
H894 H 0.30716 0.66444 0.71964 0.0
H895 H 0.29525 0.66003 0.83315 0.0
H896 H 0.30541 0.72224 0.59295 0.0
H897 H 0.27638 0.71203 0.86481 0.0
H898 H 0.27501 0.67004 0.50942 0.0
H899 H 0.2978 0.67021 0.56187 0.0
H900 H 0.30152 0.69367 0.49846 0.0
H901 H 0.2389 0.6573 0.84098 0.0
H902 H 0.25423 0.67761 0.92762 0.0
H903 H 0.26216 0.65826 0.89263 0.0
C904 C 0.46561 0.67217 0.72875 0.0
C905 C 0.47776 0.66445 0.68213 0.0
C906 C 0.44294 0.65961 0.73542 0.0
C907 C 0.43201 0.63876 0.69445 0.0
C908 C 0.44412 0.63094 0.64643 0.0
C909 C 0.46681 0.64384 0.64094 0.0
C910 C 0.43071 0.66859 0.78739 0.0
C911 C 0.4331 0.60884 0.60149 0.0
C912 C 0.37627 0.59823 0.79003 0.0
C913 C 0.36234 0.59944 0.7241 0.0
C914 C 0.3989 0.61084 0.781 0.0
C915 C 0.40797 0.62499 0.70379 0.0
C916 C 0.39406 0.6262 0.63656 0.0
C917 C 0.37146 0.61348 0.6476 0.0
C918 C 0.41311 0.60905 0.85435 0.0
C919 C 0.40305 0.64106 0.55322 0.0
H920 H 0.47382 0.68804 0.76097 0.0
H921 H 0.47596 0.63768 0.60464 0.0
H922 H 0.41834 0.66879 0.74116 0.0
H923 H 0.42202 0.65801 0.84768 0.0
H924 H 0.44154 0.68527 0.81355 0.0
H925 H 0.44472 0.60531 0.56473 0.0
H926 H 0.42446 0.59621 0.65537 0.0
H927 H 0.4208 0.60759 0.55065 0.0
H928 H 0.36949 0.58719 0.84848 0.0
H929 H 0.36093 0.61478 0.5968 0.0
H930 H 0.42357 0.62509 0.887 0.0
H931 H 0.42396 0.60395 0.82157 0.0
H932 H 0.40356 0.59727 0.91008 0.0
H933 H 0.41279 0.65809 0.57702 0.0
H934 H 0.3901 0.63974 0.50596 0.0
H935 H 0.41401 0.63724 0.5129 0.0
C936 C 0.04757 0.1883 0.70611 0.0
C937 C 0.0358 0.19632 0.75258 0.0
C938 C 0.05168 0.19179 0.61017 0.0
C939 C 0.04474 0.20449 0.56135 0.0
C940 C 0.0334 0.21319 0.60922 0.0
C941 C 1.02861 0.20855 0.70429 0.0
C942 C 0.06301 0.1815 0.56078 0.0
C943 C 1.02656 0.22756 0.56034 0.0
C944 C 0.07277 0.22813 0.33039 0.0
C945 C 0.05667 0.21489 0.26673 0.0
C946 C 0.06891 0.2253 0.42687 0.0
C947 C 0.04888 0.2082 0.4597 0.0
C948 C 0.03277 0.19454 0.39534 0.0
C949 C 0.03666 0.19848 0.29956 0.0
C950 C 0.08609 0.24077 0.49352 0.0
C951 C 1.01151 0.17563 0.42746 0.0
H952 H 0.05303 0.17881 0.74446 0.0
H953 H 1.01974 0.21492 0.74153 0.0
H954 H 0.05273 0.17111 0.50289 0.0
H955 H 0.0784 0.19417 0.52946 0.0
H956 H 0.06668 0.17148 0.60851 0.0
H957 H 1.01931 0.23428 0.60924 0.0
H958 H 0.04073 0.24118 0.52547 0.0
H959 H 1.01453 0.21828 0.50529 0.0
H960 H 0.08815 0.24105 0.30479 0.0
H961 H 1.0241 0.18853 0.25026 0.0
H962 H 0.09179 0.23192 0.53809 0.0
H963 H 0.07918 0.24815 0.54061 0.0
H964 H 0.10027 0.25393 0.4565 0.0
H965 H 1.01453 0.16517 0.47519 0.0
H966 H 1.00145 0.16562 0.36817 0.0
H967 H 1.00214 0.18156 0.46709 0.0
C968 C 0.88835 0.85328 0.68966 0.0
C969 C 0.88561 0.86697 0.7512 0.0
C970 C 0.88434 0.85342 0.59387 0.0
C971 C 0.87772 0.86781 0.55928 0.0
C972 C 0.87481 0.88156 0.62149 0.0
C973 C 0.87867 0.88088 0.71696 0.0
C974 C 0.88732 0.83832 0.52961 0.0
C975 C 0.86797 0.89725 0.58705 0.0
C976 C 0.8885 0.88363 0.30393 0.0
C977 C 0.86798 0.87075 0.26536 0.0
C978 C 0.89189 0.88293 0.39991 0.0
C979 C 0.8743 0.86882 0.4577 0.0
C980 C 0.85348 0.85578 0.41848 0.0
C981 C 0.85053 0.85703 0.32235 0.0
C982 C 0.91425 0.8973 0.43941 0.0
C983 C 0.83443 0.84038 0.47779 0.0
H984 H 0.89363 0.84246 0.7164 0.0
H985 H 0.87657 0.8915 0.76467 0.0
H986 H 0.87219 0.82811 0.49004 0.0
H987 H 0.90022 0.84782 0.47784 0.0
H988 H 0.89175 0.82757 0.56811 0.0
H989 H 0.86623 0.90669 0.64479 0.0
H990 H 0.88009 0.90872 0.53655 0.0
H991 H 0.85229 0.8884 0.54967 0.0
H992 H 0.90182 0.89439 0.25909 0.0
H993 H 0.8347 0.84703 0.29135 0.0
H994 H 0.92017 0.88728 0.47349 0.0
H995 H 0.91364 0.90808 0.49373 0.0
H996 H 0.9261 0.90745 0.38493 0.0
H997 H 0.838 0.82861 0.5125 0.0
H998 H 0.81936 0.83129 0.43626 0.0
H999 H 0.83154 0.84942 0.53366 0.0
C1000 C 0.19559 0.03653 0.70924 0.0
C1001 C 0.21544 0.04756 0.75562 0.0
C1002 C 0.19481 0.03237 0.61331 0.0
C1003 C 0.21432 0.03852 0.5644 0.0
C1004 C 0.23438 0.04912 0.61215 0.0
C1005 C 0.23473 0.05397 0.70725 0.0
C1006 C 0.17321 0.02184 0.56404 0.0
C1007 C 0.25541 0.0551 0.56312 0.0
C1008 C 0.2089 1.01012 0.33361 0.0
C1009 C 0.21243 0.02644 0.26988 0.0
C1010 C 0.20998 1.01398 0.43006 0.0
C1011 C 0.21374 0.03432 0.46279 0.0
C1012 C 0.21687 0.05067 0.39838 0.0
C1013 C 0.21676 0.0467 0.30261 0.0
C1014 C 0.20747 0.99649 0.4968 0.0
C1015 C 0.22014 0.07229 0.43045 0.0
H1016 H 0.18074 0.03167 0.74768 0.0
H1017 H 0.25 0.06226 0.74445 0.0
H1018 H 0.1736 0.03237 0.50616 0.0
H1019 H 0.16984 1.00624 0.53271 0.0
H1020 H 0.15967 1.01874 0.61185 0.0
H1021 H 0.26938 0.06191 0.61187 0.0
H1022 H 0.25424 0.04063 0.52853 0.0
H1023 H 0.25864 0.06723 0.50783 0.0
H1024 H 0.20586 0.99453 0.30808 0.0
H1025 H 0.21986 0.05941 0.25325 0.0
H1026 H 0.19303 0.99141 0.54161 0.0
H1027 H 0.22174 1.00285 0.54365 0.0
H1028 H 0.20575 0.98201 0.45986 0.0
H1029 H 0.20677 0.06983 0.47784 0.0
H1030 H 0.2208 0.08263 0.37112 0.0
H1031 H 0.23544 0.08109 0.47045 0.0
C1032 C 0.7396 0.55816 0.66109 0.0
C1033 C 0.72288 0.54645 0.59736 0.0
C1034 C 0.73578 0.5552 0.75753 0.0
C1035 C 0.71497 0.53964 0.79018 0.0
C1036 C 0.69818 0.52744 0.72576 0.0
C1037 C 0.70225 0.53135 0.63004 0.0
C1038 C 0.75387 0.56896 0.8244 0.0
C1039 C 0.67596 0.51026 0.75783 0.0
C1040 C 0.71094 0.5182 0.03568 0.0
C1041 C 0.70172 0.52873 0.08322 0.0
C1042 C 0.71509 0.52138 0.93966 0.0
C1043 C 0.71067 0.5361 0.89176 0.0
C1044 C 0.70181 0.54717 0.9406 0.0
C1045 C 0.69704 0.543 0.03592 0.0
C1046 C 0.72386 0.50877 0.88931 0.0
C1047 C 0.69761 0.56354 0.89247 0.0
H1048 H 0.75551 0.57002 0.63565 0.0
H1049 H 0.68927 0.52248 0.58069 0.0
H1050 H 0.74874 0.57794 0.8715 0.0
H1051 H 0.75759 0.55854 0.86896 0.0
H1052 H 0.76891 0.5808 0.78761 0.0
H1053 H 0.66516 0.50128 0.69844 0.0
H1054 H 0.67729 0.49852 0.80415 0.0
H1055 H 0.66826 0.51778 0.79899 0.0
H1056 H 0.71449 0.50716 0.0734 0.0
H1057 H 0.69014 0.55127 0.07405 0.0
H1058 H 0.73979 0.52003 0.85751 0.0
H1059 H 0.71278 0.49925 0.83168 0.0
H1060 H 0.72584 0.49753 0.93651 0.0
H1061 H 0.71268 0.57618 0.85876 0.0
H1062 H 0.69169 0.5715 0.94161 0.0
H1063 H 0.68539 0.55555 0.83658 0.0
C1064 C 0.55536 0.21618 0.63514 0.0
C1065 C 0.53482 0.20335 0.59661 0.0
C1066 C 0.55875 0.21549 0.73112 0.0
C1067 C 0.54115 0.20142 0.78897 0.0
C1068 C 0.52031 0.18843 0.74979 0.0
C1069 C 0.51737 0.18968 0.65366 0.0
C1070 C 0.58112 0.22981 0.77057 0.0
C1071 C 0.50125 0.17308 0.80915 0.0
C1072 C 0.55514 0.18582 0.0209 0.0
C1073 C 0.55245 0.19953 0.08247 0.0
C1074 C 0.55113 0.18597 0.92511 0.0
C1075 C 0.54457 0.2004 0.89054 0.0
C1076 C 0.54171 0.21419 0.95277 0.0
C1077 C 0.54556 0.21349 0.04824 0.0
C1078 C 0.55405 0.17083 0.86084 0.0
C1079 C 0.53494 0.22993 0.91835 0.0
H1080 H 0.56869 0.2269 0.59025 0.0
H1081 H 0.50152 0.17972 0.6227 0.0
H1082 H 0.58055 0.24061 0.8249 0.0
H1083 H 0.58701 0.21976 0.80462 0.0
H1084 H 0.59298 0.23995 0.71606 0.0
H1085 H 0.48616 0.16402 0.76766 0.0
H1086 H 0.50477 0.16127 0.84385 0.0
H1087 H 0.49841 0.18215 0.86504 0.0
H1088 H 0.56037 0.17495 0.04763 0.0
H1089 H 0.54351 0.22413 0.09597 0.0
H1090 H 0.56695 0.18031 0.80904 0.0
H1091 H 0.53891 0.16066 0.82131 0.0
H1092 H 0.55844 0.16005 0.89932 0.0
H1093 H 0.54707 0.24138 0.86781 0.0
H1094 H 0.53325 0.2394 0.9761 0.0
H1095 H 0.51925 0.22112 0.88104 0.0
C1096 C 0.88474 0.38066 0.6356 0.0
C1097 C 0.87902 0.35998 0.60291 0.0
C1098 C 0.88491 0.38473 0.73133 0.0
C1099 C 0.88009 0.36789 0.79583 0.0
C1100 C 0.87466 0.34703 0.76319 0.0
C1101 C 0.87382 0.34322 0.66673 0.0
C1102 C 0.89017 0.40702 0.76331 0.0
C1103 C 0.8701 0.32888 0.83011 0.0
C1104 C 0.90119 0.38568 0.04179 0.0
C1105 C 0.88224 0.38123 0.08885 0.0
C1106 C 0.90064 0.38085 0.94654 0.0
C1107 C 0.88078 0.37217 0.89745 0.0
C1108 C 0.86165 0.36797 0.94511 0.0
C1109 C 0.86255 0.37216 0.04109 0.0
C1110 C 0.9212 0.38483 0.89875 0.0
C1111 C 0.84035 0.35939 0.89454 0.0
H1112 H 0.889 0.39368 0.58622 0.0
H1113 H 0.86961 0.32727 0.64132 0.0
H1114 H 0.87708 0.40583 0.80929 0.0
H1115 H 0.90531 0.41452 0.80484 0.0
H1116 H 0.89224 0.4179 0.70389 0.0
H1117 H 0.86681 0.31381 0.79337 0.0
H1118 H 0.88413 0.33386 0.8774 0.0
H1119 H 0.85593 0.32526 0.87448 0.0
H1120 H 0.91631 0.39245 0.08007 0.0
H1121 H 0.84796 0.36877 0.0786 0.0
H1122 H 0.92561 0.39707 0.84275 0.0
H1123 H 0.91863 0.36969 0.86521 0.0
H1124 H 0.935 0.3906 0.94807 0.0
H1125 H 0.84208 0.37052 0.8368 0.0
H1126 H 0.82712 0.35754 0.94155 0.0
H1127 H 0.83557 0.34344 0.86285 0.0
C1128 C 0.37698 0.85187 0.37844 0.0
C1129 C 0.36739 0.86203 0.4261 0.0
C1130 C 0.38116 0.85519 0.28247 0.0
C1131 C 0.37645 0.86973 0.23475 0.0
C1132 C 0.36727 0.88048 0.28376 0.0
C1133 C 0.36243 0.87613 0.37897 0.0
C1134 C 0.39026 0.84289 0.23195 0.0
C1135 C 0.36279 0.89668 0.23593 0.0
C1136 C 0.40525 0.89195 0.00382 0.0
C1137 C 0.38858 0.88005 0.94015 0.0
C1138 C 0.40144 0.88905 0.10031 0.0
C1139 C 0.3807 0.87333 0.13311 0.0
C1140 C 0.36396 0.86098 0.06874 0.0
C1141 C 0.368 0.86485 0.97298 0.0
C1142 C 0.41946 0.90302 0.16708 0.0
C1143 C 0.34182 0.84362 0.1009 0.0
H1144 H 0.38076 0.84097 0.416 0.0
H1145 H 0.35526 0.88413 0.41717 0.0
H1146 H 0.37926 0.83328 0.17422 0.0
H1147 H 0.40613 0.85434 0.20024 0.0
H1148 H 0.39244 0.83175 0.279 0.0
H1149 H 0.35674 0.90449 0.28527 0.0
H1150 H 0.37777 0.90946 0.20215 0.0
H1151 H 0.35057 0.8886 0.18012 0.0
H1152 H 0.42112 0.90389 0.97828 0.0
H1153 H 0.35504 0.85586 0.92369 0.0
H1154 H 0.42347 0.89276 0.2114 0.0
H1155 H 0.41412 0.91178 0.21443 0.0
H1156 H 0.43439 0.91505 0.1302 0.0
H1157 H 0.34334 0.83195 0.14704 0.0
H1158 H 0.33105 0.83457 0.04156 0.0
H1159 H 0.334 0.85097 0.14229 0.0
C1160 C 0.22208 0.54996 0.97202 0.0
C1161 C 0.20148 0.53755 0.93353 0.0
C1162 C 0.22541 0.54917 0.06799 0.0
C1163 C 0.20766 0.53542 0.12586 0.0
C1164 C 0.18676 0.52285 0.08672 0.0
C1165 C 0.18388 0.5242 -0.0094 0.0
C1166 C 0.24786 0.56307 0.10742 0.0
C1167 C 0.16753 0.50781 0.1461 0.0
C1168 C 0.22112 0.51937 0.35795 0.0
C1169 C 0.21883 0.53337 0.41933 0.0
C1170 C 0.21711 0.51956 0.26217 0.0
C1171 C 0.21101 0.53433 0.22744 0.0
C1172 C 0.20856 0.5484 0.28949 0.0
C1173 C 0.21237 0.54765 0.38496 0.0
C1174 C 0.21956 0.5041 0.19809 0.0
C1175 C 0.2023 0.56452 0.25487 0.0
H1176 H 0.23553 0.56044 0.92713 0.0
H1177 H 0.16798 0.51455 0.95966 0.0
H1178 H 0.24761 0.57405 0.16167 0.0
H1179 H 0.25338 0.55272 0.14158 0.0
H1180 H 0.25984 0.57299 0.05289 0.0
H1181 H 0.15242 0.49904 0.10461 0.0
H1182 H 0.17069 0.49577 0.1809 0.0
H1183 H 0.16498 0.5171 0.20191 0.0
H1184 H 0.22601 0.50826 0.38482 0.0
H1185 H 0.21063 0.55851 0.43256 0.0
H1186 H 0.23255 0.51332 0.1463 0.0
H1187 H 0.20435 0.4942 0.15852 0.0
H1188 H 0.22357 0.49306 0.23672 0.0
H1189 H 0.21457 0.57576 0.20427 0.0
H1190 H 0.20089 0.57418 0.31251 0.0
H1191 H 0.18659 0.55599 0.21757 0.0
C1192 C 0.56265 0.72979 0.35941 0.0
C1193 C 0.54885 0.7134 0.42088 0.0
C1194 C 0.56255 0.72561 0.2636 0.0
C1195 C 0.54807 0.70464 0.22893 0.0
C1196 C 0.5342 0.68802 0.29106 0.0
C1197 C 0.53486 0.69258 0.38653 0.0
C1198 C 0.57778 0.74364 0.19943 0.0
C1199 C 0.51841 0.66553 0.25653 0.0
C1200 C 0.53235 0.69976 0.97363 0.0
C1201 C 0.54508 0.69194 0.93487 0.0
C1202 C 0.53305 0.70384 0.06966 0.0
C1203 C 0.54705 0.7002 0.12731 0.0
C1204 C 0.55993 0.69223 0.08791 0.0
C1205 C 0.55866 0.68803 -0.00826 0.0
C1206 C 0.51881 0.71199 0.10936 0.0
C1207 C 0.57522 0.68842 0.14708 0.0
H1208 H 0.57354 0.74586 0.38623 0.0
H1209 H 0.52415 0.6799 0.43418 0.0
H1210 H 0.5879 0.73859 0.15975 0.0
H1211 H 0.56837 0.74714 0.14775 0.0
H1212 H 0.58861 0.75877 0.23801 0.0
H1213 H 0.50887 0.6544 0.31422 0.0
H1214 H 0.50703 0.66627 0.20594 0.0
H1215 H 0.5272 0.6586 0.21926 0.0
H1216 H 0.52169 0.70248 0.9289 0.0
H1217 H 0.56856 0.68208 0.9606 0.0
H1218 H 0.52892 0.72792 0.14343 0.0
H1219 H 0.50797 0.70066 0.16372 0.0
H1220 H 0.50871 0.71377 0.05499 0.0
H1221 H 0.58711 0.70372 0.18163 0.0
H1222 H 0.58418 0.68227 0.10545 0.0
H1223 H 0.56611 0.67656 0.20309 0.0
loop_
_geom_bond_atom_site_label_1
_geom_bond_atom_site_label_2
_geom_bond_distance
_geom_bond_site_symmetry_2
_ccdc_geom_bond_type
Ho0 C3 2.811 1_554 S
Ho0 O20 2.322 . S
Ho0 O22 2.378 . S
Ho0 O23 2.524 1_554 S
Ho0 O24 2.381 . S
Ho0 O25 2.669 . S
Ho0 O27 2.346 . S
Ho0 O31 2.305 1_554 S
Ho1 C12 2.809 1_556 S
Ho1 O21 2.345 1_556 S
Ho1 O25 2.297 1_656 S
Ho1 O26 2.324 1_655 S
Ho1 O28 2.381 . S
Ho1 O29 2.518 1_556 S
Ho1 O30 2.392 . S
Ho1 O31 2.675 1_655 S
C2 O20 1.259 1_655 S
C2 O21 1.268 . S
C3 Ho0 2.811 1_556 S
C3 C4 1.488 . S
C3 O22 1.215 1_556 S
C3 O23 1.289 . S
C4 C3 1.488 . S
C4 C5 1.348 . S
C4 C9 1.413 1_556 S
C5 C4 1.348 . S
C5 C6 1.442 . S
C5 H32 0.930 . S
C6 C5 1.442 . S
C6 C7 1.381 . S
C6 H33 0.931 . S
C7 C6 1.381 . S
C7 C8 1.321 1_556 S
C8 C7 1.321 1_554 S
C8 C9 1.403 . S
C8 H34 0.934 . S
C9 C4 1.413 1_554 S
C9 C8 1.403 . S
C9 H35 0.930 . S
C10 O24 1.275 . S
C10 O25 1.256 . S
C11 O26 1.259 . S
C11 O27 1.268 1_556 S
C12 Ho1 2.809 1_554 S
C12 C13 1.488 . S
C12 O28 1.215 1_554 S
C12 O29 1.289 . S
C13 C12 1.488 . S
C13 C14 1.348 . S
C13 C18 1.413 1_554 S
C14 C13 1.348 . S
C14 C15 1.442 . S
C14 H36 0.930 . S
C15 C14 1.442 . S
C15 C16 1.381 . S
C15 H37 0.931 . S
C16 C15 1.381 . S
C16 C17 1.321 1_554 S
C17 C16 1.321 1_556 S
C17 C18 1.403 . S
C17 H38 0.934 . S
C18 C13 1.413 1_556 S
C18 C17 1.403 . S
C18 H39 0.930 . S
C19 O30 1.275 1_455 S
C19 O31 1.256 . S
O20 Ho0 2.322 . S
O20 C2 1.259 1_455 S
O21 Ho1 2.345 1_554 S
O21 C2 1.268 . S
O22 Ho0 2.378 . S
O22 C3 1.215 1_554 S
O23 Ho0 2.524 1_556 S
O23 C3 1.289 . S
O24 Ho0 2.381 . S
O24 C10 1.275 . S
O25 Ho0 2.669 . S
O25 Ho1 2.297 1_454 S
O25 C10 1.256 . S
O26 Ho1 2.324 1_455 S
O26 C11 1.259 . S
O27 Ho0 2.346 . S
O27 C11 1.268 1_554 S
O28 Ho1 2.381 . S
O28 C12 1.215 1_556 S
O29 Ho1 2.518 1_554 S
O29 C12 1.289 . S
O30 Ho1 2.392 . S
O30 C19 1.275 1_655 S
O31 Ho0 2.305 1_556 S
O31 Ho1 2.675 1_455 S
O31 C19 1.256 . S
H32 C5 0.930 . S
H33 C6 0.931 . S
H34 C8 0.934 . S
H35 C9 0.930 . S
H36 C14 0.930 . S
H37 C15 0.931 . S
H38 C17 0.934 . S
H39 C18 0.930 . S
Ho40 C43 2.811 1_554 S
Ho40 O60 2.322 . S
Ho40 O62 2.378 . S
Ho40 O63 2.524 1_554 S
Ho40 O64 2.381 . S
Ho40 O65 2.669 . S
Ho40 O67 2.346 . S
Ho40 O71 2.305 1_554 S
Ho41 C52 2.811 1_556 S
Ho41 O61 2.346 1_556 S
Ho41 O65 2.305 1_556 S
Ho41 O66 2.322 . S
Ho41 O68 2.378 . S
Ho41 O69 2.524 1_556 S
Ho41 O70 2.381 . S
Ho41 O71 2.669 . S
C42 O60 1.259 . S
C42 O61 1.268 . S
C43 Ho40 2.811 1_556 S
C43 C44 1.488 . S
C43 O62 1.215 1_556 S
C43 O63 1.289 . S
C44 C43 1.488 . S
C44 C45 1.348 . S
C44 C49 1.413 1_556 S
C45 C44 1.348 . S
C45 C46 1.442 . S
C45 H72 0.930 . S
C46 C45 1.442 . S
C46 C47 1.381 . S
C46 H73 0.931 . S
C47 C46 1.381 . S
C47 C48 1.321 1_556 S
C48 C47 1.321 1_554 S
C48 C49 1.403 . S
C48 H74 0.934 . S
C49 C44 1.413 1_554 S
C49 C48 1.403 . S
C49 H75 0.930 . S
C50 O64 1.275 . S
C50 O65 1.256 . S
C51 O66 1.259 . S
C51 O67 1.268 1_556 S
C52 Ho41 2.811 1_554 S
C52 C53 1.488 . S
C52 O68 1.215 1_554 S
C52 O69 1.289 . S
C53 C52 1.488 . S
C53 C54 1.348 . S
C53 C58 1.413 1_554 S
C54 C53 1.348 . S
C54 C55 1.442 . S
C54 H76 0.930 . S
C55 C54 1.442 . S
C55 C56 1.381 . S
C55 H77 0.931 . S
C56 C55 1.381 . S
C56 C57 1.321 1_554 S
C57 C56 1.321 1_556 S
C57 C58 1.403 . S
C57 H78 0.934 . S
C58 C53 1.413 1_556 S
C58 C57 1.403 . S
C58 H79 0.930 . S
C59 O70 1.275 . S
C59 O71 1.256 . S
O60 Ho40 2.322 . S
O60 C42 1.259 . S
O61 Ho41 2.346 1_554 S
O61 C42 1.268 . S
O62 Ho40 2.378 . S
O62 C43 1.215 1_554 S
O63 Ho40 2.524 1_556 S
O63 C43 1.289 . S
O64 Ho40 2.381 . S
O64 C50 1.275 . S
O65 Ho40 2.669 . S
O65 Ho41 2.305 1_554 S
O65 C50 1.256 . S
O66 Ho41 2.322 . S
O66 C51 1.259 . S
O67 Ho40 2.346 . S
O67 C51 1.268 1_554 S
O68 Ho41 2.378 . S
O68 C52 1.215 1_556 S
O69 Ho41 2.524 1_554 S
O69 C52 1.289 . S
O70 Ho41 2.381 . S
O70 C59 1.275 . S
O71 Ho40 2.305 1_556 S
O71 Ho41 2.669 . S
O71 C59 1.256 . S
H72 C45 0.930 . S
H73 C46 0.931 . S
H74 C48 0.934 . S
H75 C49 0.930 . S
H76 C54 0.930 . S
H77 C55 0.931 . S
H78 C57 0.934 . S
H79 C58 0.930 . S
Ho80 C83 2.811 1_554 S
Ho80 O100 2.322 1_565 S
Ho80 O102 2.378 . S
Ho80 O103 2.524 1_554 S
Ho80 O104 2.381 . S
Ho80 O105 2.669 1_565 S
Ho80 O107 2.346 . S
Ho80 O111 2.305 1_564 S
Ho81 C92 2.811 1_556 S
Ho81 O101 2.346 1_556 S
Ho81 O105 2.305 1_556 S
Ho81 O106 2.322 . S
Ho81 O108 2.378 . S
Ho81 O109 2.524 1_556 S
Ho81 O110 2.381 . S
Ho81 O111 2.669 . S
C82 O100 1.259 . S
C82 O101 1.268 . S
C83 Ho80 2.811 1_556 S
C83 C84 1.488 . S
C83 O102 1.215 1_556 S
C83 O103 1.289 . S
C84 C83 1.488 . S
C84 C85 1.348 . S
C84 C89 1.413 1_556 S
C85 C84 1.348 . S
C85 C86 1.442 . S
C85 H112 0.930 . S
C86 C85 1.442 . S
C86 C87 1.381 . S
C86 H113 0.931 . S
C87 C86 1.381 . S
C87 C88 1.321 1_556 S
C88 C87 1.321 1_554 S
C88 C89 1.403 . S
C88 H114 0.934 . S
C89 C84 1.413 1_554 S
C89 C88 1.403 . S
C89 H115 0.930 . S
C90 O104 1.275 1_545 S
C90 O105 1.256 . S
C91 O106 1.259 1_565 S
C91 O107 1.268 1_556 S
C92 Ho81 2.811 1_554 S
C92 C93 1.488 . S
C92 O108 1.215 1_554 S
C92 O109 1.289 . S
C93 C92 1.488 . S
C93 C94 1.348 . S
C93 C98 1.413 1_554 S
C94 C93 1.348 . S
C94 C95 1.442 . S
C94 H116 0.930 . S
C95 C94 1.442 . S
C95 C96 1.381 . S
C95 H117 0.931 . S
C96 C95 1.381 . S
C96 C97 1.321 1_554 S
C97 C96 1.321 1_556 S
C97 C98 1.403 . S
C97 H118 0.934 . S
C98 C93 1.413 1_556 S
C98 C97 1.403 . S
C98 H119 0.930 . S
C99 O110 1.275 . S
C99 O111 1.256 . S
O100 Ho80 2.322 1_545 S
O100 C82 1.259 . S
O101 Ho81 2.346 1_554 S
O101 C82 1.268 . S
O102 Ho80 2.378 . S
O102 C83 1.215 1_554 S
O103 Ho80 2.524 1_556 S
O103 C83 1.289 . S
O104 Ho80 2.381 . S
O104 C90 1.275 1_565 S
O105 Ho80 2.669 1_545 S
O105 Ho81 2.305 1_554 S
O105 C90 1.256 . S
O106 Ho81 2.322 . S
O106 C91 1.259 1_545 S
O107 Ho80 2.346 . S
O107 C91 1.268 1_554 S
O108 Ho81 2.378 . S
O108 C92 1.215 1_556 S
O109 Ho81 2.524 1_554 S
O109 C92 1.289 . S
O110 Ho81 2.381 . S
O110 C99 1.275 . S
O111 Ho80 2.305 1_546 S
O111 Ho81 2.669 . S
O111 C99 1.256 . S
H112 C85 0.930 . S
H113 C86 0.931 . S
H114 C88 0.934 . S
H115 C89 0.930 . S
H116 C94 0.930 . S
H117 C95 0.931 . S
H118 C97 0.934 . S
H119 C98 0.930 . S
Ho120 C123 2.811 . S
Ho120 O140 2.322 . S
Ho120 O142 2.378 . S
Ho120 O143 2.524 . S
Ho120 O144 2.381 . S
Ho120 O145 2.669 . S
Ho120 O147 2.346 . S
Ho120 O151 2.305 . S
Ho121 C132 2.811 . S
Ho121 O141 2.346 . S
Ho121 O145 2.305 . S
Ho121 O146 2.322 . S
Ho121 O148 2.378 . S
Ho121 O149 2.524 . S
Ho121 O150 2.381 . S
Ho121 O151 2.669 . S
C122 O140 1.259 . S
C122 O141 1.268 . S
C123 Ho120 2.811 . S
C123 C124 1.488 . S
C123 O142 1.215 . S
C123 O143 1.289 . S
C124 C123 1.488 . S
C124 C125 1.348 . S
C124 C129 1.413 . S
C125 C124 1.348 . S
C125 C126 1.442 . S
C125 H152 0.930 . S
C126 C125 1.442 . S
C126 C127 1.381 . S
C126 H153 0.931 . S
C127 C126 1.381 . S
C127 C128 1.321 . S
C128 C127 1.321 . S
C128 C129 1.403 . S
C128 H154 0.934 . S
C129 C124 1.413 . S
C129 C128 1.403 . S
C129 H155 0.930 . S
C130 O144 1.275 . S
C130 O145 1.256 . S
C131 O146 1.259 . S
C131 O147 1.268 . S
C132 Ho121 2.811 . S
C132 C133 1.488 . S
C132 O148 1.215 . S
C132 O149 1.289 . S
C133 C132 1.488 . S
C133 C134 1.348 . S
C133 C138 1.413 . S
C134 C133 1.348 . S
C134 C135 1.442 . S
C134 H156 0.930 . S
C135 C134 1.442 . S
C135 C136 1.381 . S
C135 H157 0.931 . S
C136 C135 1.381 . S
C136 C137 1.321 . S
C137 C136 1.321 . S
C137 C138 1.403 . S
C137 H158 0.934 . S
C138 C133 1.413 . S
C138 C137 1.403 . S
C138 H159 0.930 . S
C139 O150 1.275 . S
C139 O151 1.256 . S
O140 Ho120 2.322 . S
O140 C122 1.259 . S
O141 Ho121 2.346 . S
O141 C122 1.268 . S
O142 Ho120 2.378 . S
O142 C123 1.215 . S
O143 Ho120 2.524 . S
O143 C123 1.289 . S
O144 Ho120 2.381 . S
O144 C130 1.275 . S
O145 Ho120 2.669 . S
O145 Ho121 2.305 . S
O145 C130 1.256 . S
O146 Ho121 2.322 . S
O146 C131 1.259 . S
O147 Ho120 2.346 . S
O147 C131 1.268 . S
O148 Ho121 2.378 . S
O148 C132 1.215 . S
O149 Ho121 2.524 . S
O149 C132 1.289 . S
O150 Ho121 2.381 . S
O150 C139 1.275 . S
O151 Ho120 2.305 . S
O151 Ho121 2.669 . S
O151 C139 1.256 . S
H152 C125 0.930 . S
H153 C126 0.931 . S
H154 C128 0.934 . S
H155 C129 0.930 . S
H156 C134 0.930 . S
H157 C135 0.931 . S
H158 C137 0.934 . S
H159 C138 0.930 . S
Ho160 C163 2.811 . S
Ho160 O180 2.322 . S
Ho160 O182 2.378 . S
Ho160 O183 2.524 . S
Ho160 O184 2.381 . S
Ho160 O185 2.669 . S
Ho160 O187 2.346 . S
Ho160 O191 2.305 . S
Ho161 C172 2.811 . S
Ho161 O181 2.346 . S
Ho161 O185 2.305 . S
Ho161 O186 2.322 . S
Ho161 O188 2.378 . S
Ho161 O189 2.524 . S
Ho161 O190 2.381 . S
Ho161 O191 2.669 . S
C162 O180 1.259 . S
C162 O181 1.268 . S
C163 Ho160 2.811 . S
C163 C164 1.488 . S
C163 O182 1.215 . S
C163 O183 1.289 . S
C164 C163 1.488 . S
C164 C165 1.348 . S
C164 C169 1.413 . S
C165 C164 1.348 . S
C165 C166 1.442 . S
C165 H192 0.930 . S
C166 C165 1.442 . S
C166 C167 1.381 . S
C166 H193 0.931 . S
C167 C166 1.381 . S
C167 C168 1.321 . S
C168 C167 1.321 . S
C168 C169 1.403 . S
C168 H194 0.934 . S
C169 C164 1.413 . S
C169 C168 1.403 . S
C169 H195 0.930 . S
C170 O184 1.275 . S
C170 O185 1.256 . S
C171 O186 1.259 . S
C171 O187 1.268 . S
C172 Ho161 2.811 . S
C172 C173 1.488 . S
C172 O188 1.215 . S
C172 O189 1.289 . S
C173 C172 1.488 . S
C173 C174 1.348 . S
C173 C178 1.413 . S
C174 C173 1.348 . S
C174 C175 1.442 . S
C174 H196 0.930 . S
C175 C174 1.442 . S
C175 C176 1.381 . S
C175 H197 0.931 . S
C176 C175 1.381 . S
C176 C177 1.321 . S
C177 C176 1.321 . S
C177 C178 1.403 . S
C177 H198 0.934 . S
C178 C173 1.413 . S
C178 C177 1.403 . S
C178 H199 0.930 . S
C179 O190 1.275 . S
C179 O191 1.256 . S
O180 Ho160 2.322 . S
O180 C162 1.259 . S
O181 Ho161 2.346 . S
O181 C162 1.268 . S
O182 Ho160 2.378 . S
O182 C163 1.215 . S
O183 Ho160 2.524 . S
O183 C163 1.289 . S
O184 Ho160 2.381 . S
O184 C170 1.275 . S
O185 Ho160 2.669 . S
O185 Ho161 2.305 . S
O185 C170 1.256 . S
O186 Ho161 2.322 . S
O186 C171 1.259 . S
O187 Ho160 2.346 . S
O187 C171 1.268 . S
O188 Ho161 2.378 . S
O188 C172 1.215 . S
O189 Ho161 2.524 . S
O189 C172 1.289 . S
O190 Ho161 2.381 . S
O190 C179 1.275 . S
O191 Ho160 2.305 . S
O191 Ho161 2.669 . S
O191 C179 1.256 . S
H192 C165 0.930 . S
H193 C166 0.931 . S
H194 C168 0.934 . S
H195 C169 0.930 . S
H196 C174 0.930 . S
H197 C175 0.931 . S
H198 C177 0.934 . S
H199 C178 0.930 . S
Ho200 C203 2.811 . S
Ho200 O220 2.322 . S
Ho200 O222 2.378 . S
Ho200 O223 2.524 . S
Ho200 O224 2.381 . S
Ho200 O225 2.669 . S
Ho200 O227 2.346 . S
Ho200 O231 2.305 . S
Ho201 C212 2.811 . S
Ho201 O221 2.346 . S
Ho201 O225 2.305 . S
Ho201 O226 2.322 . S
Ho201 O228 2.378 . S
Ho201 O229 2.524 . S
Ho201 O230 2.381 . S
Ho201 O231 2.669 . S
C202 O220 1.259 . S
C202 O221 1.268 . S
C203 Ho200 2.811 . S
C203 C204 1.488 . S
C203 O222 1.215 . S
C203 O223 1.289 . S
C204 C203 1.488 . S
C204 C205 1.348 . S
C204 C209 1.413 . S
C205 C204 1.348 . S
C205 C206 1.442 . S
C205 H232 0.930 . S
C206 C205 1.442 . S
C206 C207 1.381 . S
C206 H233 0.931 . S
C207 C206 1.381 . S
C207 C208 1.321 . S
C208 C207 1.321 . S
C208 C209 1.403 . S
C208 H234 0.934 . S
C209 C204 1.413 . S
C209 C208 1.403 . S
C209 H235 0.930 . S
C210 O224 1.275 . S
C210 O225 1.256 . S
C211 O226 1.259 . S
C211 O227 1.268 . S
C212 Ho201 2.811 . S
C212 C213 1.488 . S
C212 O228 1.215 . S
C212 O229 1.289 . S
C213 C212 1.488 . S
C213 C214 1.348 . S
C213 C218 1.413 . S
C214 C213 1.348 . S
C214 C215 1.442 . S
C214 H236 0.930 . S
C215 C214 1.442 . S
C215 C216 1.381 . S
C215 H237 0.931 . S
C216 C215 1.381 . S
C216 C217 1.321 . S
C217 C216 1.321 . S
C217 C218 1.403 . S
C217 H238 0.934 . S
C218 C213 1.413 . S
C218 C217 1.403 . S
C218 H239 0.930 . S
C219 O230 1.275 . S
C219 O231 1.256 . S
O220 Ho200 2.322 . S
O220 C202 1.259 . S
O221 Ho201 2.346 . S
O221 C202 1.268 . S
O222 Ho200 2.378 . S
O222 C203 1.215 . S
O223 Ho200 2.524 . S
O223 C203 1.289 . S
O224 Ho200 2.381 . S
O224 C210 1.275 . S
O225 Ho200 2.669 . S
O225 Ho201 2.305 . S
O225 C210 1.256 . S
O226 Ho201 2.322 . S
O226 C211 1.259 . S
O227 Ho200 2.346 . S
O227 C211 1.268 . S
O228 Ho201 2.378 . S
O228 C212 1.215 . S
O229 Ho201 2.524 . S
O229 C212 1.289 . S
O230 Ho201 2.381 . S
O230 C219 1.275 . S
O231 Ho200 2.305 . S
O231 Ho201 2.669 . S
O231 C219 1.256 . S
H232 C205 0.930 . S
H233 C206 0.931 . S
H234 C208 0.934 . S
H235 C209 0.930 . S
H236 C214 0.930 . S
H237 C215 0.931 . S
H238 C217 0.934 . S
H239 C218 0.930 . S
Ho240 C243 2.811 . S
Ho240 O260 2.322 . S
Ho240 O262 2.378 . S
Ho240 O263 2.524 . S
Ho240 O264 2.381 . S
Ho240 O265 2.669 . S
Ho240 O267 2.346 . S
Ho240 O271 2.305 . S
Ho241 C252 2.811 . S
Ho241 O261 2.346 . S
Ho241 O265 2.305 . S
Ho241 O266 2.322 . S
Ho241 O268 2.378 . S
Ho241 O269 2.524 . S
Ho241 O270 2.381 . S
Ho241 O271 2.669 . S
C242 O260 1.259 . S
C242 O261 1.268 . S
C243 Ho240 2.811 . S
C243 C244 1.488 . S
C243 O262 1.215 . S
C243 O263 1.289 . S
C244 C243 1.488 . S
C244 C245 1.348 . S
C244 C249 1.413 . S
C245 C244 1.348 . S
C245 C246 1.442 . S
C245 H272 0.930 . S
C246 C245 1.442 . S
C246 C247 1.381 . S
C246 H273 0.931 . S
C247 C246 1.381 . S
C247 C248 1.321 . S
C248 C247 1.321 . S
C248 C249 1.403 . S
C248 H274 0.934 . S
C249 C244 1.413 . S
C249 C248 1.403 . S
C249 H275 0.930 . S
C250 O264 1.275 . S
C250 O265 1.256 . S
C251 O266 1.259 . S
C251 O267 1.268 . S
C252 Ho241 2.811 . S
C252 C253 1.488 . S
C252 O268 1.215 . S
C252 O269 1.289 . S
C253 C252 1.488 . S
C253 C254 1.348 . S
C253 C258 1.413 . S
C254 C253 1.348 . S
C254 C255 1.442 . S
C254 H276 0.930 . S
C255 C254 1.442 . S
C255 C256 1.381 . S
C255 H277 0.931 . S
C256 C255 1.381 . S
C256 C257 1.321 . S
C257 C256 1.321 . S
C257 C258 1.403 . S
C257 H278 0.934 . S
C258 C253 1.413 . S
C258 C257 1.403 . S
C258 H279 0.930 . S
C259 O270 1.275 . S
C259 O271 1.256 . S
O260 Ho240 2.322 . S
O260 C242 1.259 . S
O261 Ho241 2.346 . S
O261 C242 1.268 . S
O262 Ho240 2.378 . S
O262 C243 1.215 . S
O263 Ho240 2.524 . S
O263 C243 1.289 . S
O264 Ho240 2.381 . S
O264 C250 1.275 . S
O265 Ho240 2.669 . S
O265 Ho241 2.305 . S
O265 C250 1.256 . S
O266 Ho241 2.322 . S
O266 C251 1.259 . S
O267 Ho240 2.346 . S
O267 C251 1.268 . S
O268 Ho241 2.378 . S
O268 C252 1.215 . S
O269 Ho241 2.524 . S
O269 C252 1.289 . S
O270 Ho241 2.381 . S
O270 C259 1.275 . S
O271 Ho240 2.305 . S
O271 Ho241 2.669 . S
O271 C259 1.256 . S
H272 C245 0.930 . S
H273 C246 0.931 . S
H274 C248 0.934 . S
H275 C249 0.930 . S
H276 C254 0.930 . S
H277 C255 0.931 . S
H278 C257 0.934 . S
H279 C258 0.930 . S
Ho280 C283 2.811 . S
Ho280 O300 2.322 . S
Ho280 O302 2.378 . S
Ho280 O303 2.524 . S
Ho280 O304 2.381 . S
Ho280 O305 2.669 . S
Ho280 O307 2.346 . S
Ho280 O311 2.305 . S
Ho281 C292 2.811 . S
Ho281 O301 2.346 . S
Ho281 O305 2.305 . S
Ho281 O306 2.322 . S
Ho281 O308 2.378 . S
Ho281 O309 2.524 . S
Ho281 O310 2.381 . S
Ho281 O311 2.669 . S
C282 O300 1.259 . S
C282 O301 1.268 . S
C283 Ho280 2.811 . S
C283 C284 1.488 . S
C283 O302 1.215 . S
C283 O303 1.289 . S
C284 C283 1.488 . S
C284 C285 1.348 . S
C284 C289 1.413 . S
C285 C284 1.348 . S
C285 C286 1.442 . S
C285 H312 0.930 . S
C286 C285 1.442 . S
C286 C287 1.381 . S
C286 H313 0.931 . S
C287 C286 1.381 . S
C287 C288 1.321 . S
C288 C287 1.321 . S
C288 C289 1.403 . S
C288 H314 0.934 . S
C289 C284 1.413 . S
C289 C288 1.403 . S
C289 H315 0.930 . S
C290 O304 1.275 . S
C290 O305 1.256 . S
C291 O306 1.259 . S
C291 O307 1.268 . S
C292 Ho281 2.811 . S
C292 C293 1.488 . S
C292 O308 1.215 . S
C292 O309 1.289 . S
C293 C292 1.488 . S
C293 C294 1.348 . S
C293 C298 1.413 . S
C294 C293 1.348 . S
C294 C295 1.442 . S
C294 H316 0.930 . S
C295 C294 1.442 . S
C295 C296 1.381 . S
C295 H317 0.931 . S
C296 C295 1.381 . S
C296 C297 1.321 . S
C297 C296 1.321 . S
C297 C298 1.403 . S
C297 H318 0.934 . S
C298 C293 1.413 . S
C298 C297 1.403 . S
C298 H319 0.930 . S
C299 O310 1.275 . S
C299 O311 1.256 . S
O300 Ho280 2.322 . S
O300 C282 1.259 . S
O301 Ho281 2.346 . S
O301 C282 1.268 . S
O302 Ho280 2.378 . S
O302 C283 1.215 . S
O303 Ho280 2.524 . S
O303 C283 1.289 . S
O304 Ho280 2.381 . S
O304 C290 1.275 . S
O305 Ho280 2.669 . S
O305 Ho281 2.305 . S
O305 C290 1.256 . S
O306 Ho281 2.322 . S
O306 C291 1.259 . S
O307 Ho280 2.346 . S
O307 C291 1.268 . S
O308 Ho281 2.378 . S
O308 C292 1.215 . S
O309 Ho281 2.524 . S
O309 C292 1.289 . S
O310 Ho281 2.381 . S
O310 C299 1.275 . S
O311 Ho280 2.305 . S
O311 Ho281 2.669 . S
O311 C299 1.256 . S
H312 C285 0.930 . S
H313 C286 0.931 . S
H314 C288 0.934 . S
H315 C289 0.930 . S
H316 C294 0.930 . S
H317 C295 0.931 . S
H318 C297 0.934 . S
H319 C298 0.930 . S
Ho320 C323 2.811 . S
Ho320 O340 2.322 . S
Ho320 O342 2.378 . S
Ho320 O343 2.524 . S
Ho320 O344 2.381 . S
Ho320 O345 2.669 . S
Ho320 O347 2.346 . S
Ho320 O351 2.305 . S
Ho321 C332 2.811 . S
Ho321 O341 2.346 . S
Ho321 O345 2.305 . S
Ho321 O346 2.322 . S
Ho321 O348 2.378 . S
Ho321 O349 2.524 . S
Ho321 O350 2.381 . S
Ho321 O351 2.669 . S
C322 O340 1.259 . S
C322 O341 1.268 . S
C323 Ho320 2.811 . S
C323 C324 1.488 . S
C323 O342 1.215 . S
C323 O343 1.289 . S
C324 C323 1.488 . S
C324 C325 1.348 . S
C324 C329 1.413 . S
C325 C324 1.348 . S
C325 C326 1.442 . S
C325 H352 0.930 . S
C326 C325 1.442 . S
C326 C327 1.381 . S
C326 H353 0.931 . S
C327 C326 1.381 . S
C327 C328 1.321 . S
C328 C327 1.321 . S
C328 C329 1.403 . S
C328 H354 0.934 . S
C329 C324 1.413 . S
C329 C328 1.403 . S
C329 H355 0.930 . S
C330 O344 1.275 . S
C330 O345 1.256 . S
C331 O346 1.259 . S
C331 O347 1.268 . S
C332 Ho321 2.811 . S
C332 C333 1.488 . S
C332 O348 1.215 . S
C332 O349 1.289 . S
C333 C332 1.488 . S
C333 C334 1.348 . S
C333 C338 1.413 . S
C334 C333 1.348 . S
C334 C335 1.442 . S
C334 H356 0.930 . S
C335 C334 1.442 . S
C335 C336 1.381 . S
C335 H357 0.931 . S
C336 C335 1.381 . S
C336 C337 1.321 . S
C337 C336 1.321 . S
C337 C338 1.403 . S
C337 H358 0.934 . S
C338 C333 1.413 . S
C338 C337 1.403 . S
C338 H359 0.930 . S
C339 O350 1.275 . S
C339 O351 1.256 . S
O340 Ho320 2.322 . S
O340 C322 1.259 . S
O341 Ho321 2.346 . S
O341 C322 1.268 . S
O342 Ho320 2.378 . S
O342 C323 1.215 . S
O343 Ho320 2.524 . S
O343 C323 1.289 . S
O344 Ho320 2.381 . S
O344 C330 1.275 . S
O345 Ho320 2.669 . S
O345 Ho321 2.305 . S
O345 C330 1.256 . S
O346 Ho321 2.322 . S
O346 C331 1.259 . S
O347 Ho320 2.346 . S
O347 C331 1.268 . S
O348 Ho321 2.378 . S
O348 C332 1.215 . S
O349 Ho321 2.524 . S
O349 C332 1.289 . S
O350 Ho321 2.381 . S
O350 C339 1.275 . S
O351 Ho320 2.305 . S
O351 Ho321 2.669 . S
O351 C339 1.256 . S
H352 C325 0.930 . S
H353 C326 0.931 . S
H354 C328 0.934 . S
H355 C329 0.930 . S
H356 C334 0.930 . S
H357 C335 0.931 . S
H358 C337 0.934 . S
H359 C338 0.930 . S
C360 C361 1.391 . S
C360 C362 1.394 . S
C360 H376 0.931 . S
C361 C360 1.391 . S
C361 C365 1.376 . S
C362 C360 1.394 . S
C362 C363 1.369 . S
C362 C366 1.531 . S
C363 C362 1.369 . S
C363 C364 1.410 . S
C363 C371 1.503 . S
C364 C363 1.410 . S
C364 C365 1.392 . S
C364 C367 1.511 . S
C365 C361 1.376 . S
C365 C364 1.392 . S
C365 H377 0.929 . S
C366 C362 1.531 . S
C366 H378 0.960 . S
C366 H379 0.962 . S
C366 H380 0.960 . S
C367 C364 1.511 . S
C367 H381 0.961 . S
C367 H382 0.961 . S
C367 H383 0.961 . S
C368 C369 1.370 . S
C368 C370 1.363 . S
C368 H384 0.931 . S
C369 C368 1.370 . S
C369 C373 1.408 . S
C370 C368 1.363 . S
C370 C371 1.370 . S
C370 C374 1.524 . S
C371 C363 1.503 . S
C371 C370 1.370 . S
C371 C372 1.403 . S
C372 C371 1.403 . S
C372 C373 1.404 . S
C372 C375 1.539 . S
C373 C369 1.408 . S
C373 C372 1.404 . S
C373 H385 0.930 . S
C374 C370 1.524 . S
C374 H386 0.956 . S
C374 H387 0.961 . S
C374 H388 0.961 . S
C375 C372 1.539 . S
C375 H389 0.958 . S
C375 H390 0.961 . S
C375 H391 0.960 . S
H376 C360 0.931 . S
H377 C365 0.929 . S
H378 C366 0.960 . S
H379 C366 0.962 . S
H380 C366 0.960 . S
H381 C367 0.961 . S
H382 C367 0.961 . S
H383 C367 0.961 . S
H384 C368 0.931 . S
H385 C373 0.930 . S
H386 C374 0.956 . S
H387 C374 0.961 . S
H388 C374 0.961 . S
H389 C375 0.958 . S
H390 C375 0.961 . S
H391 C375 0.960 . S
C392 C393 1.391 . S
C392 C394 1.394 . S
C392 H408 0.931 . S
C393 C392 1.391 . S
C393 C397 1.376 . S
C394 C392 1.394 . S
C394 C395 1.369 . S
C394 C398 1.531 . S
C395 C394 1.369 . S
C395 C396 1.410 . S
C395 C403 1.503 . S
C396 C395 1.410 . S
C396 C397 1.392 . S
C396 C399 1.511 . S
C397 C393 1.376 . S
C397 C396 1.392 . S
C397 H409 0.929 . S
C398 C394 1.531 . S
C398 H410 0.960 . S
C398 H411 0.962 . S
C398 H412 0.960 . S
C399 C396 1.511 . S
C399 H413 0.961 . S
C399 H414 0.961 . S
C399 H415 0.961 . S
C400 C401 1.370 . S
C400 C402 1.363 . S
C400 H416 0.931 . S
C401 C400 1.370 . S
C401 C405 1.408 . S
C402 C400 1.363 . S
C402 C403 1.370 . S
C402 C406 1.524 . S
C403 C395 1.503 . S
C403 C402 1.370 . S
C403 C404 1.403 . S
C404 C403 1.403 . S
C404 C405 1.404 . S
C404 C407 1.539 . S
C405 C401 1.408 . S
C405 C404 1.404 . S
C405 H417 0.930 . S
C406 C402 1.524 . S
C406 H418 0.956 . S
C406 H419 0.961 . S
C406 H420 0.961 . S
C407 C404 1.539 . S
C407 H421 0.958 . S
C407 H422 0.961 . S
C407 H423 0.960 . S
H408 C392 0.931 . S
H409 C397 0.929 . S
H410 C398 0.960 . S
H411 C398 0.962 . S
H412 C398 0.960 . S
H413 C399 0.961 . S
H414 C399 0.961 . S
H415 C399 0.961 . S
H416 C400 0.931 . S
H417 C405 0.930 . S
H418 C406 0.956 . S
H419 C406 0.961 . S
H420 C406 0.961 . S
H421 C407 0.958 . S
H422 C407 0.961 . S
H423 C407 0.960 . S
C424 C425 1.391 . S
C424 C426 1.394 . S
C424 H440 0.931 . S
C425 C424 1.391 . S
C425 C429 1.376 . S
C426 C424 1.394 . S
C426 C427 1.369 . S
C426 C430 1.531 . S
C427 C426 1.369 . S
C427 C428 1.410 . S
C427 C435 1.503 . S
C428 C427 1.410 . S
C428 C429 1.392 . S
C428 C431 1.511 . S
C429 C425 1.376 . S
C429 C428 1.392 . S
C429 H441 0.929 . S
C430 C426 1.531 . S
C430 H442 0.960 . S
C430 H443 0.962 . S
C430 H444 0.960 . S
C431 C428 1.511 . S
C431 H445 0.961 . S
C431 H446 0.961 . S
C431 H447 0.961 . S
C432 C433 1.370 . S
C432 C434 1.363 . S
C432 H448 0.931 . S
C433 C432 1.370 . S
C433 C437 1.408 . S
C434 C432 1.363 . S
C434 C435 1.370 . S
C434 C438 1.524 . S
C435 C427 1.503 . S
C435 C434 1.370 . S
C435 C436 1.403 . S
C436 C435 1.403 . S
C436 C437 1.404 . S
C436 C439 1.539 . S
C437 C433 1.408 . S
C437 C436 1.404 . S
C437 H449 0.930 . S
C438 C434 1.524 . S
C438 H450 0.956 . S
C438 H451 0.961 . S
C438 H452 0.961 . S
C439 C436 1.539 . S
C439 H453 0.958 . S
C439 H454 0.961 . S
C439 H455 0.960 . S
H440 C424 0.931 . S
H441 C429 0.929 . S
H442 C430 0.960 . S
H443 C430 0.962 . S
H444 C430 0.960 . S
H445 C431 0.961 . S
H446 C431 0.961 . S
H447 C431 0.961 . S
H448 C432 0.931 . S
H449 C437 0.930 . S
H450 C438 0.956 . S
H451 C438 0.961 . S
H452 C438 0.961 . S
H453 C439 0.958 . S
H454 C439 0.961 . S
H455 C439 0.960 . S
C456 C457 1.391 . S
C456 C458 1.394 . S
C456 H472 0.931 . S
C457 C456 1.391 . S
C457 C461 1.376 . S
C458 C456 1.394 . S
C458 C459 1.369 . S
C458 C462 1.531 . S
C459 C458 1.369 . S
C459 C460 1.410 . S
C459 C467 1.503 . S
C460 C459 1.410 . S
C460 C461 1.392 . S
C460 C463 1.511 . S
C461 C457 1.376 . S
C461 C460 1.392 . S
C461 H473 0.929 . S
C462 C458 1.531 . S
C462 H474 0.960 . S
C462 H475 0.962 . S
C462 H476 0.960 . S
C463 C460 1.511 . S
C463 H477 0.961 . S
C463 H478 0.961 . S
C463 H479 0.961 . S
C464 C465 1.370 . S
C464 C466 1.363 . S
C464 H480 0.931 . S
C465 C464 1.370 . S
C465 C469 1.408 1_554 S
C466 C464 1.363 . S
C466 C467 1.370 . S
C466 C470 1.524 . S
C467 C459 1.503 . S
C467 C466 1.370 . S
C467 C468 1.403 . S
C468 C467 1.403 . S
C468 C469 1.404 1_554 S
C468 C471 1.539 1_554 S
C469 C465 1.408 1_556 S
C469 C468 1.404 1_556 S
C469 H481 0.930 . S
C470 C466 1.524 . S
C470 H482 0.956 . S
C470 H483 0.961 . S
C470 H484 0.961 . S
C471 C468 1.539 1_556 S
C471 H485 0.958 . S
C471 H486 0.961 . S
C471 H487 0.960 . S
H472 C456 0.931 . S
H473 C461 0.929 . S
H474 C462 0.960 . S
H475 C462 0.962 . S
H476 C462 0.960 . S
H477 C463 0.961 . S
H478 C463 0.961 . S
H479 C463 0.961 . S
H480 C464 0.931 . S
H481 C469 0.930 . S
H482 C470 0.956 . S
H483 C470 0.961 . S
H484 C470 0.961 . S
H485 C471 0.958 . S
H486 C471 0.961 . S
H487 C471 0.960 . S
C488 C489 1.391 . S
C488 C490 1.394 . S
C488 H504 0.931 . S
C489 C488 1.391 . S
C489 C493 1.376 . S
C490 C488 1.394 . S
C490 C491 1.369 . S
C490 C494 1.531 . S
C491 C490 1.369 . S
C491 C492 1.410 . S
C491 C499 1.503 . S
C492 C491 1.410 . S
C492 C493 1.392 . S
C492 C495 1.511 . S
C493 C489 1.376 . S
C493 C492 1.392 . S
C493 H505 0.929 . S
C494 C490 1.531 . S
C494 H506 0.960 . S
C494 H507 0.962 . S
C494 H508 0.960 . S
C495 C492 1.511 . S
C495 H509 0.961 . S
C495 H510 0.961 . S
C495 H511 0.961 . S
C496 C497 1.370 . S
C496 C498 1.363 . S
C496 H512 0.931 . S
C497 C496 1.370 . S
C497 C501 1.408 1_554 S
C498 C496 1.363 . S
C498 C499 1.370 . S
C498 C502 1.524 . S
C499 C491 1.503 . S
C499 C498 1.370 . S
C499 C500 1.403 . S
C500 C499 1.403 . S
C500 C501 1.404 1_554 S
C500 C503 1.539 1_554 S
C501 C497 1.408 1_556 S
C501 C500 1.404 1_556 S
C501 H513 0.930 . S
C502 C498 1.524 . S
C502 H514 0.956 . S
C502 H515 0.961 . S
C502 H516 0.961 . S
C503 C500 1.539 1_556 S
C503 H517 0.958 . S
C503 H518 0.961 . S
C503 H519 0.960 1_556 S
H504 C488 0.931 . S
H505 C493 0.929 . S
H506 C494 0.960 . S
H507 C494 0.962 . S
H508 C494 0.960 . S
H509 C495 0.961 . S
H510 C495 0.961 . S
H511 C495 0.961 . S
H512 C496 0.931 . S
H513 C501 0.930 . S
H514 C502 0.956 . S
H515 C502 0.961 . S
H516 C502 0.961 . S
H517 C503 0.958 . S
H518 C503 0.961 . S
H519 C503 0.960 1_554 S
C520 C521 1.391 . S
C520 C522 1.394 . S
C520 H536 0.931 1_554 S
C521 C520 1.391 . S
C521 C525 1.376 . S
C522 C520 1.394 . S
C522 C523 1.369 . S
C522 C526 1.531 . S
C523 C522 1.369 . S
C523 C524 1.410 . S
C523 C531 1.503 . S
C524 C523 1.410 . S
C524 C525 1.392 . S
C524 C527 1.511 . S
C525 C521 1.376 . S
C525 C524 1.392 . S
C525 H537 0.929 . S
C526 C522 1.531 . S
C526 H538 0.960 . S
C526 H539 0.962 . S
C526 H540 0.960 1_554 S
C527 C524 1.511 . S
C527 H541 0.961 . S
C527 H542 0.961 . S
C527 H543 0.961 . S
C528 C529 1.370 . S
C528 C530 1.363 . S
C528 H544 0.931 . S
C529 C528 1.370 . S
C529 C533 1.408 . S
C530 C528 1.363 . S
C530 C531 1.370 . S
C530 C534 1.524 . S
C531 C523 1.503 . S
C531 C530 1.370 . S
C531 C532 1.403 . S
C532 C531 1.403 . S
C532 C533 1.404 . S
C532 C535 1.539 . S
C533 C529 1.408 . S
C533 C532 1.404 . S
C533 H545 0.930 . S
C534 C530 1.524 . S
C534 H546 0.956 . S
C534 H547 0.961 . S
C534 H548 0.961 . S
C535 C532 1.539 . S
C535 H549 0.958 1_554 S
C535 H550 0.961 . S
C535 H551 0.960 . S
H536 C520 0.931 1_556 S
H537 C525 0.929 . S
H538 C526 0.960 . S
H539 C526 0.962 . S
H540 C526 0.960 1_556 S
H541 C527 0.961 . S
H542 C527 0.961 . S
H543 C527 0.961 . S
H544 C528 0.931 . S
H545 C533 0.930 . S
H546 C534 0.956 . S
H547 C534 0.961 . S
H548 C534 0.961 . S
H549 C535 0.958 1_556 S
H550 C535 0.961 . S
H551 C535 0.960 . S
C552 C553 1.391 . S
C552 C554 1.394 1_455 S
C552 H568 0.931 . S
C553 C552 1.391 . S
C553 C557 1.376 . S
C554 C552 1.394 1_655 S
C554 C555 1.369 . S
C554 C558 1.531 . S
C555 C554 1.369 . S
C555 C556 1.410 . S
C555 C563 1.503 . S
C556 C555 1.410 . S
C556 C557 1.392 1_655 S
C556 C559 1.511 . S
C557 C553 1.376 . S
C557 C556 1.392 1_455 S
C557 H569 0.929 . S
C558 C554 1.531 . S
C558 H570 0.960 . S
C558 H571 0.962 . S
C558 H572 0.960 . S
C559 C556 1.511 . S
C559 H573 0.961 . S
C559 H574 0.961 . S
C559 H575 0.961 . S
C560 C561 1.370 . S
C560 C562 1.363 . S
C560 H576 0.931 . S
C561 C560 1.370 . S
C561 C565 1.408 . S
C562 C560 1.363 . S
C562 C563 1.370 . S
C562 C566 1.524 . S
C563 C555 1.503 . S
C563 C562 1.370 . S
C563 C564 1.403 . S
C564 C563 1.403 . S
C564 C565 1.404 . S
C564 C567 1.539 . S
C565 C561 1.408 . S
C565 C564 1.404 . S
C565 H577 0.930 . S
C566 C562 1.524 . S
C566 H578 0.956 . S
C566 H579 0.961 . S
C566 H580 0.961 . S
C567 C564 1.539 . S
C567 H581 0.958 . S
C567 H582 0.961 . S
C567 H583 0.960 . S
H568 C552 0.931 . S
H569 C557 0.929 . S
H570 C558 0.960 . S
H571 C558 0.962 . S
H572 C558 0.960 . S
H573 C559 0.961 . S
H574 C559 0.961 . S
H575 C559 0.961 . S
H576 C560 0.931 . S
H577 C565 0.930 . S
H578 C566 0.956 . S
H579 C566 0.961 . S
H580 C566 0.961 . S
H581 C567 0.958 . S
H582 C567 0.961 . S
H583 C567 0.960 . S
C584 C585 1.391 . S
C584 C586 1.394 . S
C584 H600 0.931 . S
C585 C584 1.391 . S
C585 C589 1.376 . S
C586 C584 1.394 . S
C586 C587 1.369 . S
C586 C590 1.531 . S
C587 C586 1.369 . S
C587 C588 1.410 . S
C587 C595 1.503 . S
C588 C587 1.410 . S
C588 C589 1.392 . S
C588 C591 1.511 . S
C589 C585 1.376 . S
C589 C588 1.392 . S
C589 H601 0.929 . S
C590 C586 1.531 . S
C590 H602 0.960 . S
C590 H603 0.962 . S
C590 H604 0.960 . S
C591 C588 1.511 . S
C591 H605 0.961 . S
C591 H606 0.961 . S
C591 H607 0.961 . S
C592 C593 1.370 . S
C592 C594 1.363 . S
C592 H608 0.931 . S
C593 C592 1.370 . S
C593 C597 1.408 . S
C594 C592 1.363 . S
C594 C595 1.370 . S
C594 C598 1.524 . S
C595 C587 1.503 . S
C595 C594 1.370 . S
C595 C596 1.403 . S
C596 C595 1.403 . S
C596 C597 1.404 . S
C596 C599 1.539 . S
C597 C593 1.408 . S
C597 C596 1.404 . S
C597 H609 0.930 . S
C598 C594 1.524 . S
C598 H610 0.956 . S
C598 H611 0.961 . S
C598 H612 0.961 . S
C599 C596 1.539 . S
C599 H613 0.958 . S
C599 H614 0.961 . S
C599 H615 0.960 . S
H600 C584 0.931 . S
H601 C589 0.929 . S
H602 C590 0.960 . S
H603 C590 0.962 . S
H604 C590 0.960 . S
H605 C591 0.961 . S
H606 C591 0.961 . S
H607 C591 0.961 . S
H608 C592 0.931 . S
H609 C597 0.930 . S
H610 C598 0.956 . S
H611 C598 0.961 . S
H612 C598 0.961 . S
H613 C599 0.958 . S
H614 C599 0.961 . S
H615 C599 0.960 . S
C616 C617 1.391 . S
C616 C618 1.394 . S
C616 H632 0.931 . S
C617 C616 1.391 . S
C617 C621 1.376 . S
C618 C616 1.394 . S
C618 C619 1.369 . S
C618 C622 1.531 . S
C619 C618 1.369 . S
C619 C620 1.410 . S
C619 C627 1.503 . S
C620 C619 1.410 . S
C620 C621 1.392 . S
C620 C623 1.511 . S
C621 C617 1.376 . S
C621 C620 1.392 . S
C621 H633 0.929 . S
C622 C618 1.531 . S
C622 H634 0.960 . S
C622 H635 0.962 . S
C622 H636 0.960 . S
C623 C620 1.511 . S
C623 H637 0.961 . S
C623 H638 0.961 . S
C623 H639 0.961 . S
C624 C625 1.370 . S
C624 C626 1.363 . S
C624 H640 0.931 . S
C625 C624 1.370 . S
C625 C629 1.408 . S
C626 C624 1.363 . S
C626 C627 1.370 . S
C626 C630 1.524 . S
C627 C619 1.503 . S
C627 C626 1.370 . S
C627 C628 1.403 . S
C628 C627 1.403 . S
C628 C629 1.404 . S
C628 C631 1.539 . S
C629 C625 1.408 . S
C629 C628 1.404 . S
C629 H641 0.952 . S
C630 C626 1.524 . S
C630 H642 0.956 . S
C630 H643 0.961 . S
C630 H644 0.961 . S
C631 C628 1.539 . S
C631 H645 0.958 . S
C631 H646 0.961 . S
C631 H647 0.960 . S
H632 C616 0.931 . S
H633 C621 0.929 . S
H634 C622 0.960 . S
H635 C622 0.962 . S
H636 C622 0.960 . S
H637 C623 0.961 . S
H638 C623 0.961 . S
H639 C623 0.961 . S
H640 C624 0.931 . S
H641 C629 0.952 . S
H642 C630 0.956 . S
H643 C630 0.961 . S
H644 C630 0.961 . S
H645 C631 0.958 . S
H646 C631 0.961 . S
H647 C631 0.960 . S
C648 C649 1.391 . S
C648 C650 1.394 . S
C648 H664 0.931 . S
C649 C648 1.391 . S
C649 C653 1.376 . S
C650 C648 1.394 . S
C650 C651 1.369 . S
C650 C654 1.531 . S
C651 C650 1.369 . S
C651 C652 1.410 . S
C651 C659 1.503 . S
C652 C651 1.410 . S
C652 C653 1.392 . S
C652 C655 1.511 . S
C653 C649 1.376 . S
C653 C652 1.392 . S
C653 H665 0.929 . S
C654 C650 1.531 . S
C654 H666 0.960 . S
C654 H667 0.962 1_554 S
C654 H668 0.960 . S
C655 C652 1.511 . S
C655 H669 0.961 . S
C655 H670 0.961 . S
C655 H671 0.961 . S
C656 C657 1.370 1_556 S
C656 C658 1.363 . S
C656 H672 0.931 . S
C657 C656 1.370 1_554 S
C657 C661 1.408 . S
C658 C656 1.363 . S
C658 C659 1.370 1_556 S
C658 C662 1.524 . S
C659 C651 1.503 . S
C659 C658 1.370 1_554 S
C659 C660 1.403 . S
C660 C659 1.403 . S
C660 C661 1.404 . S
C660 C663 1.539 . S
C661 C657 1.408 . S
C661 C660 1.404 . S
C661 H673 0.930 . S
C662 C658 1.524 . S
C662 H674 0.956 . S
C662 H675 0.961 . S
C662 H676 0.961 . S
C663 C660 1.539 . S
C663 H677 0.958 . S
C663 H678 0.961 . S
C663 H679 0.960 . S
H664 C648 0.931 . S
H665 C653 0.929 . S
H666 C654 0.960 . S
H667 C654 0.962 1_556 S
H668 C654 0.960 . S
H669 C655 0.961 . S
H670 C655 0.961 . S
H671 C655 0.961 . S
H672 C656 0.931 . S
H673 C661 0.930 . S
H674 C662 0.956 . S
H675 C662 0.961 . S
H676 C662 0.961 . S
H677 C663 0.958 . S
H678 C663 0.961 . S
H679 C663 0.960 . S
C680 C681 1.391 . S
C680 C682 1.394 . S
C680 H696 0.931 . S
C681 C680 1.391 . S
C681 C685 1.376 . S
C682 C680 1.394 . S
C682 C683 1.369 . S
C682 C686 1.531 . S
C683 C682 1.369 . S
C683 C684 1.410 . S
C683 C691 1.503 . S
C684 C683 1.410 . S
C684 C685 1.392 . S
C684 C687 1.511 . S
C685 C681 1.376 . S
C685 C684 1.392 . S
C685 H697 0.929 1_554 S
C686 C682 1.531 . S
C686 H698 0.960 . S
C686 H699 0.962 . S
C686 H700 0.960 . S
C687 C684 1.511 . S
C687 H701 0.961 1_554 S
C687 H702 0.961 1_554 S
C687 H703 0.961 . S
C688 C689 1.370 1_556 S
C688 C690 1.363 1_545 S
C688 H704 0.931 . S
C689 C688 1.370 1_554 S
C689 C693 1.408 . S
C690 C688 1.363 1_565 S
C690 C691 1.370 1_556 S
C690 C694 1.524 . S
C691 C683 1.503 . S
C691 C690 1.370 1_554 S
C691 C692 1.403 . S
C692 C691 1.403 . S
C692 C693 1.404 1_565 S
C692 C695 1.539 . S
C693 C689 1.408 . S
C693 C692 1.404 1_545 S
C693 H705 0.930 . S
C694 C690 1.524 . S
C694 H706 0.956 . S
C694 H707 0.961 . S
C694 H708 0.961 . S
C695 C692 1.539 . S
C695 H709 0.958 . S
C695 H710 0.961 . S
C695 H711 0.960 . S
H696 C680 0.931 . S
H697 C685 0.929 1_556 S
H698 C686 0.960 . S
H699 C686 0.962 . S
H700 C686 0.960 . S
H701 C687 0.961 1_556 S
H702 C687 0.961 1_556 S
H703 C687 0.961 . S
H704 C688 0.931 . S
H705 C693 0.930 . S
H706 C694 0.956 . S
H707 C694 0.961 . S
H708 C694 0.961 . S
H709 C695 0.958 . S
H710 C695 0.961 . S
H711 C695 0.960 . S
C712 C713 1.391 1_556 S
C712 C714 1.394 . S
C712 H728 0.931 . S
C713 C712 1.391 1_554 S
C713 C717 1.376 . S
C714 C712 1.394 . S
C714 C715 1.369 1_556 S
C714 C718 1.531 . S
C715 C714 1.369 1_554 S
C715 C716 1.410 . S
C715 C723 1.503 . S
C716 C715 1.410 . S
C716 C717 1.392 . S
C716 C719 1.511 . S
C717 C713 1.376 . S
C717 C716 1.392 . S
C717 H729 0.929 . S
C718 C714 1.531 . S
C718 H730 0.960 . S
C718 H731 0.962 . S
C718 H732 0.960 . S
C719 C716 1.511 . S
C719 H733 0.961 . S
C719 H734 0.961 . S
C719 H735 0.961 . S
C720 C721 1.370 1_556 S
C720 C722 1.363 . S
C720 H736 0.931 . S
C721 C720 1.370 1_554 S
C721 C725 1.408 . S
C722 C720 1.363 . S
C722 C723 1.370 1_556 S
C722 C726 1.524 . S
C723 C715 1.503 . S
C723 C722 1.370 1_554 S
C723 C724 1.403 . S
C724 C723 1.403 . S
C724 C725 1.404 . S
C724 C727 1.539 . S
C725 C721 1.408 . S
C725 C724 1.404 . S
C725 H737 0.930 1_565 S
C726 C722 1.524 . S
C726 H738 0.956 . S
C726 H739 0.961 . S
C726 H740 0.961 . S
C727 C724 1.539 . S
C727 H741 0.958 1_565 S
C727 H742 0.961 1_565 S
C727 H743 0.960 . S
H728 C712 0.931 . S
H729 C717 0.929 . S
H730 C718 0.960 . S
H731 C718 0.962 . S
H732 C718 0.960 . S
H733 C719 0.961 . S
H734 C719 0.961 . S
H735 C719 0.961 . S
H736 C720 0.931 . S
H737 C725 0.930 1_545 S
H738 C726 0.956 . S
H739 C726 0.961 . S
H740 C726 0.961 . S
H741 C727 0.958 1_545 S
H742 C727 0.961 1_545 S
H743 C727 0.960 . S
C744 C745 1.391 . S
C744 C746 1.394 . S
C744 H760 0.931 . S
C745 C744 1.391 . S
C745 C749 1.376 . S
C746 C744 1.394 . S
C746 C747 1.369 . S
C746 C750 1.531 . S
C747 C746 1.369 . S
C747 C748 1.410 . S
C747 C755 1.503 . S
C748 C747 1.410 . S
C748 C749 1.392 . S
C748 C751 1.511 . S
C749 C745 1.376 . S
C749 C748 1.392 . S
C749 H761 0.929 . S
C750 C746 1.531 . S
C750 H762 0.960 . S
C750 H763 0.962 . S
C750 H764 0.960 . S
C751 C748 1.511 . S
C751 H765 0.961 . S
C751 H766 0.961 . S
C751 H767 0.961 . S
C752 C753 1.370 . S
C752 C754 1.363 . S
C752 H768 0.931 . S
C753 C752 1.370 . S
C753 C757 1.408 . S
C754 C752 1.363 . S
C754 C755 1.370 . S
C754 C758 1.524 . S
C755 C747 1.503 . S
C755 C754 1.370 . S
C755 C756 1.403 . S
C756 C755 1.403 . S
C756 C757 1.404 . S
C756 C759 1.539 . S
C757 C753 1.408 . S
C757 C756 1.404 . S
C757 H769 0.930 . S
C758 C754 1.524 . S
C758 H770 0.956 . S
C758 H771 0.961 . S
C758 H772 0.961 . S
C759 C756 1.539 . S
C759 H773 0.958 . S
C759 H774 0.961 . S
C759 H775 0.960 . S
H760 C744 0.931 . S
H761 C749 0.929 . S
H762 C750 0.960 . S
H763 C750 0.962 . S
H764 C750 0.960 . S
H765 C751 0.961 . S
H766 C751 0.961 . S
H767 C751 0.961 . S
H768 C752 0.931 . S
H769 C757 0.930 . S
H770 C758 0.956 . S
H771 C758 0.961 . S
H772 C758 0.961 . S
H773 C759 0.958 . S
H774 C759 0.961 . S
H775 C759 0.960 . S
C776 C777 1.391 . S
C776 C778 1.394 . S
C776 H792 0.931 . S
C777 C776 1.391 . S
C777 C781 1.376 . S
C778 C776 1.394 . S
C778 C779 1.369 . S
C778 C782 1.531 . S
C779 C778 1.369 . S
C779 C780 1.410 . S
C779 C787 1.503 . S
C780 C779 1.410 . S
C780 C781 1.392 . S
C780 C783 1.511 . S
C781 C777 1.376 . S
C781 C780 1.392 . S
C781 H793 0.929 . S
C782 C778 1.531 . S
C782 H794 0.960 . S
C782 H795 0.962 . S
C782 H796 0.960 . S
C783 C780 1.511 . S
C783 H797 0.961 . S
C783 H798 0.961 . S
C783 H799 0.961 . S
C784 C785 1.370 . S
C784 C786 1.363 . S
C784 H800 0.931 . S
C785 C784 1.370 . S
C785 C789 1.408 . S
C786 C784 1.363 . S
C786 C787 1.370 . S
C786 C790 1.524 . S
C787 C779 1.503 . S
C787 C786 1.370 . S
C787 C788 1.403 . S
C788 C787 1.403 . S
C788 C789 1.404 . S
C788 C791 1.539 . S
C789 C785 1.408 . S
C789 C788 1.404 . S
C789 H801 0.930 . S
C790 C786 1.524 . S
C790 H802 0.956 . S
C790 H803 0.961 . S
C790 H804 0.961 . S
C791 C788 1.539 . S
C791 H805 0.958 . S
C791 H806 0.961 . S
C791 H807 0.960 . S
H792 C776 0.931 . S
H793 C781 0.929 . S
H794 C782 0.960 . S
H795 C782 0.962 . S
H796 C782 0.960 . S
H797 C783 0.961 . S
H798 C783 0.961 . S
H799 C783 0.961 . S
H800 C784 0.931 . S
H801 C789 0.930 . S
H802 C790 0.956 . S
H803 C790 0.961 . S
H804 C790 0.961 . S
H805 C791 0.958 . S
H806 C791 0.961 . S
H807 C791 0.960 . S
C808 C809 1.391 . S
C808 C810 1.394 . S
C808 H824 0.931 . S
C809 C808 1.391 . S
C809 C813 1.376 . S
C810 C808 1.394 . S
C810 C811 1.369 . S
C810 C814 1.531 . S
C811 C810 1.369 . S
C811 C812 1.410 . S
C811 C819 1.503 . S
C812 C811 1.410 . S
C812 C813 1.392 . S
C812 C815 1.511 . S
C813 C809 1.376 . S
C813 C812 1.392 . S
C813 H825 0.929 . S
C814 C810 1.531 . S
C814 H826 0.960 . S
C814 H827 0.962 . S
C814 H828 0.960 . S
C815 C812 1.511 . S
C815 H829 0.961 . S
C815 H830 0.961 . S
C815 H831 0.961 . S
C816 C817 1.370 . S
C816 C818 1.363 . S
C816 H832 0.931 . S
C817 C816 1.370 . S
C817 C821 1.408 . S
C818 C816 1.363 . S
C818 C819 1.370 . S
C818 C822 1.524 . S
C819 C811 1.503 . S
C819 C818 1.370 . S
C819 C820 1.403 . S
C820 C819 1.403 . S
C820 C821 1.404 . S
C820 C823 1.539 . S
C821 C817 1.408 . S
C821 C820 1.404 . S
C821 H833 0.930 . S
C822 C818 1.524 . S
C822 H834 0.956 . S
C822 H835 0.961 . S
C822 H836 0.961 . S
C823 C820 1.539 . S
C823 H837 0.958 . S
C823 H838 0.961 . S
C823 H839 0.960 . S
H824 C808 0.931 . S
H825 C813 0.929 . S
H826 C814 0.960 . S
H827 C814 0.962 . S
H828 C814 0.960 . S
H829 C815 0.961 . S
H830 C815 0.961 . S
H831 C815 0.961 . S
H832 C816 0.931 . S
H833 C821 0.930 . S
H834 C822 0.956 . S
H835 C822 0.961 . S
H836 C822 0.961 . S
H837 C823 0.958 . S
H838 C823 0.961 . S
H839 C823 0.960 . S
C840 C841 1.391 . S
C840 C842 1.394 . S
C840 H856 0.931 . S
C841 C840 1.391 . S
C841 C845 1.376 . S
C842 C840 1.394 . S
C842 C843 1.369 . S
C842 C846 1.531 . S
C843 C842 1.369 . S
C843 C844 1.410 . S
C843 C851 1.503 . S
C844 C843 1.410 . S
C844 C845 1.392 . S
C844 C847 1.511 . S
C845 C841 1.376 . S
C845 C844 1.392 . S
C845 H857 0.929 . S
C846 C842 1.531 . S
C846 H858 0.960 . S
C846 H859 0.962 . S
C846 H860 0.960 . S
C847 C844 1.511 . S
C847 H861 0.961 . S
C847 H862 0.961 . S
C847 H863 0.961 . S
C848 C849 1.370 . S
C848 C850 1.363 . S
C848 H864 0.931 . S
C849 C848 1.370 . S
C849 C853 1.408 . S
C850 C848 1.363 . S
C850 C851 1.370 . S
C850 C854 1.524 . S
C851 C843 1.503 . S
C851 C850 1.370 . S
C851 C852 1.403 . S
C852 C851 1.403 . S
C852 C853 1.404 . S
C852 C855 1.539 . S
C853 C849 1.408 . S
C853 C852 1.404 . S
C853 H865 0.930 . S
C854 C850 1.524 . S
C854 H866 0.956 . S
C854 H867 0.961 . S
C854 H868 0.961 . S
C855 C852 1.539 . S
C855 H869 0.958 . S
C855 H870 0.961 . S
C855 H871 0.960 . S
H856 C840 0.931 . S
H857 C845 0.929 . S
H858 C846 0.960 . S
H859 C846 0.962 . S
H860 C846 0.960 . S
H861 C847 0.961 . S
H862 C847 0.961 . S
H863 C847 0.961 . S
H864 C848 0.931 . S
H865 C853 0.930 . S
H866 C854 0.956 . S
H867 C854 0.961 . S
H868 C854 0.961 . S
H869 C855 0.958 . S
H870 C855 0.961 . S
H871 C855 0.960 . S
C872 C873 1.391 . S
C872 C874 1.394 . S
C872 H888 0.931 . S
C873 C872 1.391 . S
C873 C877 1.376 . S
C874 C872 1.394 . S
C874 C875 1.369 . S
C874 C878 1.531 . S
C875 C874 1.369 . S
C875 C876 1.410 . S
C875 C883 1.503 . S
C876 C875 1.410 . S
C876 C877 1.392 . S
C876 C879 1.511 . S
C877 C873 1.376 . S
C877 C876 1.392 . S
C877 H889 0.929 . S
C878 C874 1.531 . S
C878 H890 0.960 . S
C878 H891 0.962 . S
C878 H892 0.960 . S
C879 C876 1.511 . S
C879 H893 0.961 . S
C879 H894 0.961 . S
C879 H895 0.961 . S
C880 C881 1.370 . S
C880 C882 1.363 . S
C880 H896 0.931 . S
C881 C880 1.370 . S
C881 C885 1.408 . S
C882 C880 1.363 . S
C882 C883 1.370 . S
C882 C886 1.524 . S
C883 C875 1.503 . S
C883 C882 1.370 . S
C883 C884 1.403 . S
C884 C883 1.403 . S
C884 C885 1.404 . S
C884 C887 1.539 . S
C885 C881 1.408 . S
C885 C884 1.404 . S
C885 H897 0.930 . S
C886 C882 1.524 . S
C886 H898 0.956 . S
C886 H899 0.961 . S
C886 H900 0.961 . S
C887 C884 1.539 . S
C887 H901 0.958 . S
C887 H902 0.961 . S
C887 H903 0.960 . S
H888 C872 0.931 . S
H889 C877 0.929 . S
H890 C878 0.960 . S
H891 C878 0.962 . S
H892 C878 0.960 . S
H893 C879 0.961 . S
H894 C879 0.961 . S
H895 C879 0.961 . S
H896 C880 0.931 . S
H897 C885 0.930 . S
H898 C886 0.956 . S
H899 C886 0.961 . S
H900 C886 0.961 . S
H901 C887 0.958 . S
H902 C887 0.961 . S
H903 C887 0.960 . S
C904 C905 1.391 . S
C904 C906 1.394 . S
C904 H920 0.931 . S
C905 C904 1.391 . S
C905 C909 1.376 . S
C906 C904 1.394 . S
C906 C907 1.369 . S
C906 C910 1.531 . S
C907 C906 1.369 . S
C907 C908 1.410 . S
C907 C915 1.503 . S
C908 C907 1.410 . S
C908 C909 1.392 . S
C908 C911 1.511 . S
C909 C905 1.376 . S
C909 C908 1.392 . S
C909 H921 0.929 . S
C910 C906 1.531 . S
C910 H922 0.960 . S
C910 H923 0.962 . S
C910 H924 0.960 . S
C911 C908 1.511 . S
C911 H925 0.961 . S
C911 H926 0.961 . S
C911 H927 0.961 . S
C912 C913 1.370 . S
C912 C914 1.363 . S
C912 H928 0.931 . S
C913 C912 1.370 . S
C913 C917 1.408 . S
C914 C912 1.363 . S
C914 C915 1.370 . S
C914 C918 1.524 . S
C915 C907 1.503 . S
C915 C914 1.370 . S
C915 C916 1.403 . S
C916 C915 1.403 . S
C916 C917 1.404 . S
C916 C919 1.539 . S
C917 C913 1.408 . S
C917 C916 1.404 . S
C917 H929 0.930 . S
C918 C914 1.524 . S
C918 H930 0.956 . S
C918 H931 0.961 . S
C918 H932 0.961 . S
C919 C916 1.539 . S
C919 H933 0.958 . S
C919 H934 0.961 . S
C919 H935 0.960 . S
H920 C904 0.931 . S
H921 C909 0.929 . S
H922 C910 0.960 . S
H923 C910 0.962 . S
H924 C910 0.960 . S
H925 C911 0.961 . S
H926 C911 0.961 . S
H927 C911 0.961 . S
H928 C912 0.931 . S
H929 C917 0.930 . S
H930 C918 0.956 . S
H931 C918 0.961 . S
H932 C918 0.961 . S
H933 C919 0.958 . S
H934 C919 0.961 . S
H935 C919 0.960 . S
C936 C937 1.391 . S
C936 C938 1.394 . S
C936 H952 0.931 . S
C937 C936 1.391 . S
C937 C941 1.376 . S
C938 C936 1.394 . S
C938 C939 1.369 . S
C938 C942 1.531 . S
C939 C938 1.369 . S
C939 C940 1.430 . S
C939 C947 1.503 . S
C940 C939 1.430 . S
C940 C941 1.392 . S
C940 C943 1.492 1_455 S
C941 C937 1.376 . S
C941 C940 1.392 . S
C941 H953 0.929 1_455 S
C942 C938 1.531 . S
C942 H954 0.960 . S
C942 H955 0.962 . S
C942 H956 0.960 . S
C943 C940 1.492 1_655 S
C943 H957 0.961 . S
C943 H958 0.961 . S
C943 H959 0.961 . S
C944 C945 1.370 . S
C944 C946 1.363 . S
C944 H960 0.931 . S
C945 C944 1.370 . S
C945 C949 1.408 1_455 S
C946 C944 1.363 . S
C946 C947 1.370 . S
C946 C950 1.524 . S
C947 C939 1.503 . S
C947 C946 1.370 . S
C947 C948 1.403 1_455 S
C948 C947 1.403 1_655 S
C948 C949 1.404 . S
C948 C951 1.539 . S
C949 C945 1.408 1_655 S
C949 C948 1.404 . S
C949 H961 0.930 . S
C950 C946 1.524 . S
C950 H962 0.956 . S
C950 H963 0.961 . S
C950 H964 0.961 . S
C951 C948 1.539 . S
C951 H965 0.958 . S
C951 H966 0.961 . S
C951 H967 0.960 . S
H952 C936 0.931 . S
H953 C941 0.929 1_655 S
H954 C942 0.960 . S
H955 C942 0.962 . S
H956 C942 0.960 . S
H957 C943 0.961 . S
H958 C943 0.961 . S
H959 C943 0.961 . S
H960 C944 0.931 . S
H961 C949 0.930 . S
H962 C950 0.956 . S
H963 C950 0.961 . S
H964 C950 0.961 . S
H965 C951 0.958 . S
H966 C951 0.961 . S
H967 C951 0.960 . S
C968 C969 1.391 . S
C968 C970 1.394 . S
C968 H984 0.931 . S
C969 C968 1.391 . S
C969 C973 1.376 . S
C970 C968 1.394 . S
C970 C971 1.369 . S
C970 C974 1.531 . S
C971 C970 1.369 . S
C971 C972 1.410 . S
C971 C979 1.503 . S
C972 C971 1.410 . S
C972 C973 1.392 . S
C972 C975 1.511 . S
C973 C969 1.376 . S
C973 C972 1.392 . S
C973 H985 0.929 . S
C974 C970 1.531 . S
C974 H986 0.960 . S
C974 H987 0.962 . S
C974 H988 0.960 . S
C975 C972 1.511 . S
C975 H989 0.961 . S
C975 H990 0.961 . S
C975 H991 0.961 . S
C976 C977 1.370 . S
C976 C978 1.363 . S
C976 H992 0.931 . S
C977 C976 1.370 . S
C977 C981 1.408 . S
C978 C976 1.363 . S
C978 C979 1.370 . S
C978 C982 1.524 . S
C979 C971 1.503 . S
C979 C978 1.370 . S
C979 C980 1.403 . S
C980 C979 1.403 . S
C980 C981 1.404 . S
C980 C983 1.539 . S
C981 C977 1.408 . S
C981 C980 1.404 . S
C981 H993 0.930 . S
C982 C978 1.524 . S
C982 H994 0.956 . S
C982 H995 0.961 . S
C982 H996 0.961 . S
C983 C980 1.539 . S
C983 H997 0.958 . S
C983 H998 0.961 . S
C983 H999 0.960 . S
H984 C968 0.931 . S
H985 C973 0.929 . S
H986 C974 0.960 . S
H987 C974 0.962 . S
H988 C974 0.960 . S
H989 C975 0.961 . S
H990 C975 0.961 . S
H991 C975 0.961 . S
H992 C976 0.931 . S
H993 C981 0.930 . S
H994 C982 0.956 . S
H995 C982 0.961 . S
H996 C982 0.961 . S
H997 C983 0.958 . S
H998 C983 0.961 . S
H999 C983 0.960 . S
C1000 C1001 1.391 . S
C1000 C1002 1.394 . S
C1000 H1016 0.931 . S
C1001 C1000 1.391 . S
C1001 C1005 1.376 . S
C1002 C1000 1.394 . S
C1002 C1003 1.369 . S
C1002 C1006 1.531 . S
C1003 C1002 1.369 . S
C1003 C1004 1.410 . S
C1003 C1011 1.503 . S
C1004 C1003 1.410 . S
C1004 C1005 1.392 . S
C1004 C1007 1.511 . S
C1005 C1001 1.376 . S
C1005 C1004 1.392 . S
C1005 H1017 0.929 . S
C1006 C1002 1.531 . S
C1006 H1018 0.960 . S
C1006 H1019 0.962 . S
C1006 H1020 0.960 . S
C1007 C1004 1.511 . S
C1007 H1021 0.961 1_545 S
C1007 H1022 0.968 . S
C1007 H1023 0.961 . S
C1008 C1009 1.370 1_565 S
C1008 C1010 1.363 1_565 S
C1008 H1024 0.931 . S
C1009 C1008 1.370 1_545 S
C1009 C1013 1.408 . S
C1010 C1008 1.363 1_545 S
C1010 C1011 1.374 . S
C1010 C1014 1.521 1_545 S
C1011 C1003 1.503 . S
C1011 C1010 1.374 . S
C1011 C1012 1.403 . S
C1012 C1011 1.403 . S
C1012 C1013 1.404 . S
C1012 C1015 1.539 . S
C1013 C1009 1.408 . S
C1013 C1012 1.404 . S
C1013 H1025 0.930 . S
C1014 C1010 1.521 1_565 S
C1014 H1026 0.956 . S
C1014 H1027 0.961 . S
C1014 H1028 0.961 . S
C1015 C1012 1.539 . S
C1015 H1029 0.958 . S
C1015 H1030 0.961 . S
C1015 H1031 0.960 . S
H1016 C1000 0.931 . S
H1017 C1005 0.929 . S
H1018 C1006 0.960 . S
H1019 C1006 0.962 . S
H1020 C1006 0.960 . S
H1021 C1007 0.961 1_565 S
H1022 C1007 0.968 . S
H1023 C1007 0.961 . S
H1024 C1008 0.931 . S
H1025 C1013 0.930 . S
H1026 C1014 0.956 . S
H1027 C1014 0.961 . S
H1028 C1014 0.961 . S
H1029 C1015 0.958 . S
H1030 C1015 0.961 . S
H1031 C1015 0.960 . S
C1032 C1033 1.391 . S
C1032 C1034 1.394 . S
C1032 H1048 0.931 . S
C1033 C1032 1.391 . S
C1033 C1037 1.376 . S
C1034 C1032 1.394 . S
C1034 C1035 1.369 . S
C1034 C1038 1.531 . S
C1035 C1034 1.369 . S
C1035 C1036 1.410 . S
C1035 C1043 1.503 . S
C1036 C1035 1.410 . S
C1036 C1037 1.392 . S
C1036 C1039 1.511 . S
C1037 C1033 1.376 . S
C1037 C1036 1.392 . S
C1037 H1049 0.929 . S
C1038 C1034 1.531 . S
C1038 H1050 0.960 . S
C1038 H1051 0.962 . S
C1038 H1052 0.960 . S
C1039 C1036 1.511 . S
C1039 H1053 0.961 . S
C1039 H1054 0.961 . S
C1039 H1055 0.961 . S
C1040 C1041 1.370 . S
C1040 C1042 1.363 1_554 S
C1040 H1056 0.931 . S
C1041 C1040 1.370 . S
C1041 C1045 1.408 . S
C1042 C1040 1.363 1_556 S
C1042 C1043 1.370 . S
C1042 C1046 1.524 . S
C1043 C1035 1.503 . S
C1043 C1042 1.370 . S
C1043 C1044 1.403 . S
C1044 C1043 1.403 . S
C1044 C1045 1.404 1_556 S
C1044 C1047 1.539 . S
C1045 C1041 1.408 . S
C1045 C1044 1.404 1_554 S
C1045 H1057 0.930 . S
C1046 C1042 1.524 . S
C1046 H1058 0.956 . S
C1046 H1059 0.961 . S
C1046 H1060 0.961 . S
C1047 C1044 1.539 . S
C1047 H1061 0.958 . S
C1047 H1062 0.961 . S
C1047 H1063 0.960 . S
H1048 C1032 0.931 . S
H1049 C1037 0.929 . S
H1050 C1038 0.960 . S
H1051 C1038 0.962 . S
H1052 C1038 0.960 . S
H1053 C1039 0.961 . S
H1054 C1039 0.961 . S
H1055 C1039 0.961 . S
H1056 C1040 0.931 . S
H1057 C1045 0.930 . S
H1058 C1046 0.956 . S
H1059 C1046 0.961 . S
H1060 C1046 0.961 . S
H1061 C1047 0.958 . S
H1062 C1047 0.961 . S
H1063 C1047 0.960 . S
C1064 C1065 1.391 . S
C1064 C1066 1.394 . S
C1064 H1080 0.931 . S
C1065 C1064 1.391 . S
C1065 C1069 1.376 . S
C1066 C1064 1.394 . S
C1066 C1067 1.369 . S
C1066 C1070 1.531 . S
C1067 C1066 1.369 . S
C1067 C1068 1.410 . S
C1067 C1075 1.503 . S
C1068 C1067 1.410 . S
C1068 C1069 1.392 . S
C1068 C1071 1.511 . S
C1069 C1065 1.376 . S
C1069 C1068 1.392 . S
C1069 H1081 0.929 . S
C1070 C1066 1.531 . S
C1070 H1082 0.960 . S
C1070 H1083 0.962 . S
C1070 H1084 0.960 . S
C1071 C1068 1.511 . S
C1071 H1085 0.961 . S
C1071 H1086 0.961 . S
C1071 H1087 0.961 . S
C1072 C1073 1.370 . S
C1072 C1074 1.363 1_554 S
C1072 H1088 0.931 . S
C1073 C1072 1.370 . S
C1073 C1077 1.408 . S
C1074 C1072 1.363 1_556 S
C1074 C1075 1.370 . S
C1074 C1078 1.524 . S
C1075 C1067 1.503 . S
C1075 C1074 1.370 . S
C1075 C1076 1.403 . S
C1076 C1075 1.403 . S
C1076 C1077 1.404 1_556 S
C1076 C1079 1.539 . S
C1077 C1073 1.408 . S
C1077 C1076 1.404 1_554 S
C1077 H1089 0.930 . S
C1078 C1074 1.524 . S
C1078 H1090 0.956 . S
C1078 H1091 0.961 . S
C1078 H1092 0.961 . S
C1079 C1076 1.539 . S
C1079 H1093 0.958 . S
C1079 H1094 0.961 . S
C1079 H1095 0.960 . S
H1080 C1064 0.931 . S
H1081 C1069 0.929 . S
H1082 C1070 0.960 . S
H1083 C1070 0.962 . S
H1084 C1070 0.960 . S
H1085 C1071 0.961 . S
H1086 C1071 0.961 . S
H1087 C1071 0.961 . S
H1088 C1072 0.931 . S
H1089 C1077 0.930 . S
H1090 C1078 0.956 . S
H1091 C1078 0.961 . S
H1092 C1078 0.961 . S
H1093 C1079 0.958 . S
H1094 C1079 0.961 . S
H1095 C1079 0.960 . S
C1096 C1097 1.391 . S
C1096 C1098 1.394 . S
C1096 H1112 0.931 . S
C1097 C1096 1.391 . S
C1097 C1101 1.376 . S
C1098 C1096 1.394 . S
C1098 C1099 1.369 . S
C1098 C1102 1.531 . S
C1099 C1098 1.369 . S
C1099 C1100 1.410 . S
C1099 C1107 1.503 . S
C1100 C1099 1.410 . S
C1100 C1101 1.392 . S
C1100 C1103 1.511 . S
C1101 C1097 1.376 . S
C1101 C1100 1.392 . S
C1101 H1113 0.929 . S
C1102 C1098 1.531 . S
C1102 H1114 0.960 . S
C1102 H1115 0.962 . S
C1102 H1116 0.960 . S
C1103 C1100 1.511 . S
C1103 H1117 0.961 . S
C1103 H1118 0.961 . S
C1103 H1119 0.961 . S
C1104 C1105 1.370 . S
C1104 C1106 1.363 1_554 S
C1104 H1120 0.931 . S
C1105 C1104 1.370 . S
C1105 C1109 1.408 . S
C1106 C1104 1.363 1_556 S
C1106 C1107 1.370 . S
C1106 C1110 1.524 . S
C1107 C1099 1.503 . S
C1107 C1106 1.370 . S
C1107 C1108 1.403 . S
C1108 C1107 1.403 . S
C1108 C1109 1.404 1_556 S
C1108 C1111 1.539 . S
C1109 C1105 1.408 . S
C1109 C1108 1.404 1_554 S
C1109 H1121 0.930 . S
C1110 C1106 1.524 . S
C1110 H1122 0.956 . S
C1110 H1123 0.961 . S
C1110 H1124 0.961 . S
C1111 C1108 1.539 . S
C1111 H1125 0.958 . S
C1111 H1126 0.961 . S
C1111 H1127 0.960 . S
H1112 C1096 0.931 . S
H1113 C1101 0.929 . S
H1114 C1102 0.960 . S
H1115 C1102 0.962 . S
H1116 C1102 0.960 . S
H1117 C1103 0.961 . S
H1118 C1103 0.961 . S
H1119 C1103 0.961 . S
H1120 C1104 0.931 . S
H1121 C1109 0.930 . S
H1122 C1110 0.956 . S
H1123 C1110 0.961 . S
H1124 C1110 0.961 . S
H1125 C1111 0.958 . S
H1126 C1111 0.961 . S
H1127 C1111 0.960 . S
C1128 C1129 1.391 . S
C1128 C1130 1.394 . S
C1128 H1144 0.931 . S
C1129 C1128 1.391 . S
C1129 C1133 1.376 . S
C1130 C1128 1.394 . S
C1130 C1131 1.369 . S
C1130 C1134 1.531 . S
C1131 C1130 1.369 . S
C1131 C1132 1.410 . S
C1131 C1139 1.503 . S
C1132 C1131 1.410 . S
C1132 C1133 1.392 . S
C1132 C1135 1.511 . S
C1133 C1129 1.376 . S
C1133 C1132 1.392 . S
C1133 H1145 0.929 . S
C1134 C1130 1.531 . S
C1134 H1146 0.960 . S
C1134 H1147 0.962 . S
C1134 H1148 0.960 . S
C1135 C1132 1.511 . S
C1135 H1149 0.961 . S
C1135 H1150 0.961 . S
C1135 H1151 0.961 . S
C1136 C1137 1.370 . S
C1136 C1138 1.363 1_556 S
C1136 H1152 0.931 . S
C1137 C1136 1.370 . S
C1137 C1141 1.408 . S
C1138 C1136 1.363 1_554 S
C1138 C1139 1.370 . S
C1138 C1142 1.524 . S
C1139 C1131 1.503 . S
C1139 C1138 1.370 . S
C1139 C1140 1.403 . S
C1140 C1139 1.403 . S
C1140 C1141 1.404 1_554 S
C1140 C1143 1.539 . S
C1141 C1137 1.408 . S
C1141 C1140 1.404 1_556 S
C1141 H1153 0.930 . S
C1142 C1138 1.524 . S
C1142 H1154 0.956 . S
C1142 H1155 0.961 . S
C1142 H1156 0.961 . S
C1143 C1140 1.539 . S
C1143 H1157 0.958 . S
C1143 H1158 0.961 . S
C1143 H1159 0.960 . S
H1144 C1128 0.931 . S
H1145 C1133 0.929 . S
H1146 C1134 0.960 . S
H1147 C1134 0.962 . S
H1148 C1134 0.960 . S
H1149 C1135 0.961 . S
H1150 C1135 0.961 . S
H1151 C1135 0.961 . S
H1152 C1136 0.931 . S
H1153 C1141 0.930 . S
H1154 C1142 0.956 . S
H1155 C1142 0.961 . S
H1156 C1142 0.961 . S
H1157 C1143 0.958 . S
H1158 C1143 0.961 . S
H1159 C1143 0.960 . S
C1160 C1161 1.391 . S
C1160 C1162 1.394 1_556 S
C1160 H1176 0.931 . S
C1161 C1160 1.391 . S
C1161 C1165 1.376 . S
C1162 C1160 1.394 1_554 S
C1162 C1163 1.369 . S
C1162 C1166 1.531 . S
C1163 C1162 1.369 . S
C1163 C1164 1.410 . S
C1163 C1171 1.503 . S
C1164 C1163 1.410 . S
C1164 C1165 1.392 1_554 S
C1164 C1167 1.511 . S
C1165 C1161 1.376 . S
C1165 C1164 1.392 1_556 S
C1165 H1177 0.929 . S
C1166 C1162 1.531 . S
C1166 H1178 0.960 . S
C1166 H1179 0.962 . S
C1166 H1180 0.960 . S
C1167 C1164 1.511 . S
C1167 H1181 0.961 . S
C1167 H1182 0.961 . S
C1167 H1183 0.961 . S
C1168 C1169 1.370 . S
C1168 C1170 1.363 . S
C1168 H1184 0.931 . S
C1169 C1168 1.370 . S
C1169 C1173 1.408 . S
C1170 C1168 1.363 . S
C1170 C1171 1.370 . S
C1170 C1174 1.524 . S
C1171 C1163 1.503 . S
C1171 C1170 1.370 . S
C1171 C1172 1.403 . S
C1172 C1171 1.403 . S
C1172 C1173 1.404 . S
C1172 C1175 1.539 . S
C1173 C1169 1.408 . S
C1173 C1172 1.404 . S
C1173 H1185 0.930 . S
C1174 C1170 1.524 . S
C1174 H1186 0.956 . S
C1174 H1187 0.961 . S
C1174 H1188 0.961 . S
C1175 C1172 1.539 . S
C1175 H1189 0.958 . S
C1175 H1190 0.961 . S
C1175 H1191 0.960 . S
H1176 C1160 0.931 . S
H1177 C1165 0.929 . S
H1178 C1166 0.960 . S
H1179 C1166 0.962 . S
H1180 C1166 0.960 . S
H1181 C1167 0.961 . S
H1182 C1167 0.961 . S
H1183 C1167 0.961 . S
H1184 C1168 0.931 . S
H1185 C1173 0.930 . S
H1186 C1174 0.956 . S
H1187 C1174 0.961 . S
H1188 C1174 0.961 . S
H1189 C1175 0.958 . S
H1190 C1175 0.961 . S
H1191 C1175 0.960 . S
C1192 C1193 1.391 . S
C1192 C1194 1.394 . S
C1192 H1208 0.931 . S
C1193 C1192 1.391 . S
C1193 C1197 1.376 . S
C1194 C1192 1.394 . S
C1194 C1195 1.369 . S
C1194 C1198 1.531 . S
C1195 C1194 1.369 . S
C1195 C1196 1.410 . S
C1195 C1203 1.503 . S
C1196 C1195 1.410 . S
C1196 C1197 1.392 . S
C1196 C1199 1.511 . S
C1197 C1193 1.376 . S
C1197 C1196 1.392 . S
C1197 H1209 0.929 . S
C1198 C1194 1.531 . S
C1198 H1210 0.960 . S
C1198 H1211 0.962 . S
C1198 H1212 0.960 . S
C1199 C1196 1.511 . S
C1199 H1213 0.961 . S
C1199 H1214 0.961 . S
C1199 H1215 0.961 . S
C1200 C1201 1.370 . S
C1200 C1202 1.363 1_556 S
C1200 H1216 0.931 . S
C1201 C1200 1.370 . S
C1201 C1205 1.408 . S
C1202 C1200 1.363 1_554 S
C1202 C1203 1.370 . S
C1202 C1206 1.524 . S
C1203 C1195 1.503 . S
C1203 C1202 1.370 . S
C1203 C1204 1.403 . S
C1204 C1203 1.403 . S
C1204 C1205 1.404 1_554 S
C1204 C1207 1.539 . S
C1205 C1201 1.408 . S
C1205 C1204 1.404 1_556 S
C1205 H1217 0.930 . S
C1206 C1202 1.524 . S
C1206 H1218 0.956 . S
C1206 H1219 0.961 . S
C1206 H1220 0.961 . S
C1207 C1204 1.539 . S
C1207 H1221 0.958 . S
C1207 H1222 0.961 . S
C1207 H1223 0.960 . S
H1208 C1192 0.931 . S
H1209 C1197 0.929 . S
H1210 C1198 0.960 . S
H1211 C1198 0.962 . S
H1212 C1198 0.960 . S
H1213 C1199 0.961 . S
H1214 C1199 0.961 . S
H1215 C1199 0.961 . S
H1216 C1200 0.931 . S
H1217 C1205 0.930 . S
H1218 C1206 0.956 . S
H1219 C1206 0.961 . S
H1220 C1206 0.961 . S
H1221 C1207 0.958 . S
H1222 C1207 0.961 . S
H1223 C1207 0.960 . S
C361 C7 1.912 . S
C369 C282 1.878 . S
C393 C47 1.938 . S
C401 C322 1.854 . S
C425 C87 1.938 . S
C433 C242 1.854 . S
C457 C167 1.909 . S
C465 C82 1.878 . S
C489 C207 1.914 . S
C497 C2 1.876 . S
C521 C42 1.880 . S
C529 C127 1.922 . S
C553 C287 1.907 . S
C561 C202 1.877 . S
C585 C327 1.931 . S
C593 C122 1.867 . S
C617 C162 1.889 . S
C625 C247 1.922 1_545 S
C649 C96 1.703 . S
C657 C11 1.706 1_554 S
C681 C51 1.707 1_554 S
C689 C16 1.703 . S
C713 C56 1.705 1_455 S
C721 C91 1.708 1_554 S
C745 C131 1.707 . S
C753 C216 1.701 . S
C777 C136 1.705 . S
C785 C171 1.707 . S
C809 C176 1.702 . S
C817 C211 1.707 . S
C841 C336 1.688 . S
C849 C251 1.702 . S
C873 C291 1.708 . S
C881 C256 1.703 . S
C905 C331 1.692 . S
C913 C296 1.693 . S
C937 C19 0.931 . S
C945 C10 0.984 . S
C969 C59 0.996 . S
C977 C50 0.956 . S
C1001 C99 0.955 . S
C1009 C90 0.973 . S
C1033 C130 0.945 . S
C1041 C139 0.977 . S
C1065 C170 0.938 . S
C1073 C179 0.984 . S
C1097 C210 1.006 . S
C1105 C219 0.955 . S
C1129 C259 0.956 . S
C1137 C250 0.973 . S
C1161 C290 0.967 . S
C1169 C299 0.974 . S
C1193 C339 0.978 . S
C1201 C330 0.964 . S
