# Generated by pormake.
# Topology zfx, (5)-cn, num edge types: 1
# Building blocks:
#     Node 0, Type 0, BuildingBlock: XOMCOT_clean_sbu_0, # of connection points: 5
#     Node 1, Type 0, BuildingBlock: XOMCOT_clean_sbu_0, # of connection points: 5
#     Node 2, Type 0, BuildingBlock: XOMCOT_clean_sbu_0, # of connection points: 5
#     Node 3, Type 0, BuildingBlock: XOMCOT_clean_sbu_0, # of connection points: 5
#     Node 4, Type 0, BuildingBlock: XOMCOT_clean_sbu_0, # of connection points: 5
#     Node 5, Type 0, BuildingBlock: XOMCOT_clean_sbu_0, # of connection points: 5
#     Node 6, Type 0, BuildingBlock: XOMCOT_clean_sbu_0, # of connection points: 5
#     Node 7, Type 0, BuildingBlock: XOMCOT_clean_sbu_0, # of connection points: 5
#     Node 8, Type 0, BuildingBlock: XOMCOT_clean_sbu_0, # of connection points: 5
#     Node 9, Type 0, BuildingBlock: XOMCOT_clean_sbu_0, # of connection points: 5
#     Node 10, Type 0, BuildingBlock: XOMCOT_clean_sbu_0, # of connection points: 5
#     Node 11, Type 0, BuildingBlock: XOMCOT_clean_sbu_0, # of connection points: 5
#     Node 12, Type 0, BuildingBlock: XOMCOT_clean_sbu_0, # of connection points: 5
#     Node 13, Type 0, BuildingBlock: XOMCOT_clean_sbu_0, # of connection points: 5
#     Node 14, Type 0, BuildingBlock: XOMCOT_clean_sbu_0, # of connection points: 5
#     Node 15, Type 0, BuildingBlock: XOMCOT_clean_sbu_0, # of connection points: 5
#     Edge 16, Type (0, 0), BuildingBlock: UVAHIK_clean_linker_0, # of connection points: 2
#     Edge 17, Type (0, 0), BuildingBlock: UVAHIK_clean_linker_0, # of connection points: 2
#     Edge 18, Type (0, 0), BuildingBlock: UVAHIK_clean_linker_0, # of connection points: 2
#     Edge 19, Type (0, 0), BuildingBlock: UVAHIK_clean_linker_0, # of connection points: 2
#     Edge 20, Type (0, 0), BuildingBlock: UVAHIK_clean_linker_0, # of connection points: 2
#     Edge 21, Type (0, 0), BuildingBlock: UVAHIK_clean_linker_0, # of connection points: 2
#     Edge 22, Type (0, 0), BuildingBlock: UVAHIK_clean_linker_0, # of connection points: 2
#     Edge 23, Type (0, 0), BuildingBlock: UVAHIK_clean_linker_0, # of connection points: 2
#     Edge 24, Type (0, 0), BuildingBlock: UVAHIK_clean_linker_0, # of connection points: 2
#     Edge 25, Type (0, 0), BuildingBlock: UVAHIK_clean_linker_0, # of connection points: 2
#     Edge 26, Type (0, 0), BuildingBlock: UVAHIK_clean_linker_0, # of connection points: 2
#     Edge 27, Type (0, 0), BuildingBlock: UVAHIK_clean_linker_0, # of connection points: 2
#     Edge 28, Type (0, 0), BuildingBlock: UVAHIK_clean_linker_0, # of connection points: 2
#     Edge 29, Type (0, 0), BuildingBlock: UVAHIK_clean_linker_0, # of connection points: 2
#     Edge 30, Type (0, 0), BuildingBlock: UVAHIK_clean_linker_0, # of connection points: 2
#     Edge 31, Type (0, 0), BuildingBlock: UVAHIK_clean_linker_0, # of connection points: 2
#     Edge 32, Type (0, 0), BuildingBlock: UVAHIK_clean_linker_0, # of connection points: 2
#     Edge 33, Type (0, 0), BuildingBlock: UVAHIK_clean_linker_0, # of connection points: 2
#     Edge 34, Type (0, 0), BuildingBlock: UVAHIK_clean_linker_0, # of connection points: 2
#     Edge 35, Type (0, 0), BuildingBlock: UVAHIK_clean_linker_0, # of connection points: 2
#     Edge 36, Type (0, 0), BuildingBlock: UVAHIK_clean_linker_0, # of connection points: 2
#     Edge 37, Type (0, 0), BuildingBlock: UVAHIK_clean_linker_0, # of connection points: 2
#     Edge 38, Type (0, 0), BuildingBlock: UVAHIK_clean_linker_0, # of connection points: 2
#     Edge 39, Type (0, 0), BuildingBlock: UVAHIK_clean_linker_0, # of connection points: 2
#     Edge 40, Type (0, 0), BuildingBlock: UVAHIK_clean_linker_0, # of connection points: 2
#     Edge 41, Type (0, 0), BuildingBlock: UVAHIK_clean_linker_0, # of connection points: 2
#     Edge 42, Type (0, 0), BuildingBlock: UVAHIK_clean_linker_0, # of connection points: 2
#     Edge 43, Type (0, 0), BuildingBlock: UVAHIK_clean_linker_0, # of connection points: 2
#     Edge 44, Type (0, 0), BuildingBlock: UVAHIK_clean_linker_0, # of connection points: 2
#     Edge 45, Type (0, 0), BuildingBlock: UVAHIK_clean_linker_0, # of connection points: 2
#     Edge 46, Type (0, 0), BuildingBlock: UVAHIK_clean_linker_0, # of connection points: 2
#     Edge 47, Type (0, 0), BuildingBlock: UVAHIK_clean_linker_0, # of connection points: 2
#     Edge 48, Type (0, 0), BuildingBlock: UVAHIK_clean_linker_0, # of connection points: 2
#     Edge 49, Type (0, 0), BuildingBlock: UVAHIK_clean_linker_0, # of connection points: 2
#     Edge 50, Type (0, 0), BuildingBlock: UVAHIK_clean_linker_0, # of connection points: 2
#     Edge 51, Type (0, 0), BuildingBlock: UVAHIK_clean_linker_0, # of connection points: 2
#     Edge 52, Type (0, 0), BuildingBlock: UVAHIK_clean_linker_0, # of connection points: 2
#     Edge 53, Type (0, 0), BuildingBlock: UVAHIK_clean_linker_0, # of connection points: 2
#     Edge 54, Type (0, 0), BuildingBlock: UVAHIK_clean_linker_0, # of connection points: 2
#     Edge 55, Type (0, 0), BuildingBlock: UVAHIK_clean_linker_0, # of connection points: 2
# Relax obj value: 0.339
# Max RMSD: 0.229
# Mean RMSD: 0.229
data_MOF--net-zfx--node1-XOMCOT_clean_sbu_0--edge1-UVAHIK_clean_linker_0
_symmetry_space_group_name_H-M    P1
_symmetry_Int_Tables_number       1
_symmetry_cell_setting            triclinic
loop_
_symmetry_equiv_pos_as_xyz
'x, y, z'
_cell_length_a     79.369042
_cell_length_b     79.430747
_cell_length_c     29.929199
_cell_angle_alpha  89.992994
_cell_angle_beta   89.999138
_cell_angle_gamma 90.033944
loop_
_atom_site_label
_atom_site_type_symbol
_atom_site_fract_x
_atom_site_fract_y
_atom_site_fract_z
_atom_type_partial_charge
Co0 Co 0.52135 0.1451 0.39794 0.0
C1 C 0.55315 0.14095 0.45221 0.0
C2 C 0.5519 0.1641 0.41567 0.0
C3 C 0.56737 0.16319 0.43611 0.0
N4 N 0.54296 0.1501 0.42537 0.0
N5 N 0.56809 0.14861 0.4589 0.0
H6 H 0.55022 0.12881 0.46601 0.0
H7 H 0.5476 0.17411 0.39397 0.0
C8 C 0.54686 0.14341 0.32376 0.0
O9 O 0.55628 0.13379 0.34926 0.0
N10 N 0.50012 0.14094 0.36891 0.0
C11 C 0.48752 0.13053 0.38097 0.0
C12 C 0.47482 0.13176 0.34948 0.0
C13 C 0.495 0.14835 0.33087 0.0
N14 N 0.47966 0.14291 0.31791 0.0
C15 C 0.52414 0.1137 0.44248 0.0
C16 C 0.52863 0.09295 0.36958 0.0
C17 C 0.5288 0.08597 0.41272 0.0
C18 C 0.5263 0.09657 0.44915 0.0
C19 C 0.52671 0.11051 0.36434 0.0
N20 N 0.52526 0.12076 0.40093 0.0
H21 H 0.52212 0.12137 0.47167 0.0
H22 H 0.52614 0.11574 0.33107 0.0
H23 H 0.48758 0.12259 0.41035 0.0
H24 H 0.50231 0.15779 0.31341 0.0
O25 O 0.50996 0.14731 0.45444 0.0
O26 O 0.51467 0.16855 0.40853 0.0
O27 O 0.53227 0.148 0.33718 0.0
C28 C 0.50846 0.16322 0.4463 0.0
H29 H 0.57723 0.17259 0.43478 0.0
H30 H 0.46308 0.12482 0.34951 0.0
H31 H 0.52999 0.08498 0.34046 0.0
H32 H 0.52587 0.09159 0.48286 0.0
Co33 Co 0.12519 0.26103 0.64977 0.0
C34 C 0.12956 0.29418 0.6976 0.0
C35 C 0.10431 0.28968 0.6755 0.0
C36 C 0.10487 0.30514 0.69587 0.0
N37 N 0.11975 0.28263 0.67694 0.0
N38 N 0.12078 0.30801 0.70971 0.0
H39 H 0.14291 0.29301 0.70239 0.0
H40 H 0.09332 0.28403 0.66029 0.0
C41 C 0.12519 0.28636 0.57574 0.0
O42 O 0.13447 0.29611 0.60122 0.0
N43 N 0.12978 0.23974 0.62161 0.0
C44 C 0.14217 0.2286 0.63013 0.0
C45 C 0.14059 0.21529 0.60071 0.0
C46 C 0.12077 0.23307 0.58791 0.0
N47 N 0.12707 0.21814 0.57441 0.0
C48 C 0.15662 0.26492 0.693 0.0
C49 C 0.17724 0.26741 0.61906 0.0
C50 C 0.18454 0.26649 0.66182 0.0
C51 C 0.17392 0.2655 0.69882 0.0
C52 C 0.15954 0.26669 0.61456 0.0
N53 N 0.14942 0.2657 0.65154 0.0
H54 H 0.14895 0.26406 0.72262 0.0
H55 H 0.15408 0.26627 0.58151 0.0
H56 H 0.15169 0.23006 0.65572 0.0
H57 H 0.10993 0.23919 0.57314 0.0
O58 O 0.12375 0.25011 0.70706 0.0
O59 O 0.10206 0.25347 0.66207 0.0
O60 O 0.12153 0.27143 0.58861 0.0
C61 C 0.1078 0.24809 0.70032 0.0
H62 H 0.0942 0.3134 0.70093 0.0
H63 H 0.14861 0.20428 0.59918 0.0
H64 H 0.18511 0.26798 0.58954 0.0
H65 H 0.17898 0.26498 0.73243 0.0
Co66 Co 0.00871 0.86358 0.89667 0.0
C67 C 0.9766 0.86726 0.94953 0.0
C68 C 0.97822 0.8442 0.91269 0.0
C69 C 0.9627 0.84486 0.93299 0.0
N70 N 0.98693 0.8583 0.92269 0.0
N71 N 0.96175 0.85938 0.95601 0.0
H72 H 0.97941 0.87935 0.96374 0.0
H73 H 0.98274 0.83425 0.89113 0.0
C74 C 0.98385 0.86462 0.82126 0.0
O75 O 0.97428 0.87433 0.84612 0.0
N76 N 0.03018 0.86803 0.86915 0.0
C77 C 0.04267 0.87822 0.88317 0.0
C78 C 0.05573 0.87736 0.85266 0.0
C79 C 0.0357 0.86112 0.8308 0.0
N80 N 0.05122 0.86666 0.81968 0.0
C81 C 0.00518 0.89507 0.94014 0.0
C82 C 1.00042 0.91562 0.86702 0.0
C83 C 0.99987 0.92268 0.91013 0.0
C84 C 1.00268 0.91214 0.94658 0.0
C85 C 1.00285 0.89809 0.86198 0.0
N86 N 1.00434 0.88789 0.8987 0.0
H87 H 0.00721 0.88757 0.96961 0.0
H88 H 1.00368 0.89284 0.82877 0.0
H89 H 0.0423 0.88575 0.91326 0.0
H90 H 0.02859 0.85198 0.81175 0.0
O91 O 0.01934 0.86192 0.9541 0.0
O92 O 0.01585 0.84028 0.90915 0.0
O93 O 0.99842 0.86019 0.83529 0.0
C94 C 0.02126 0.84599 0.94744 0.0
H95 H 0.953 0.83529 0.93163 0.0
H96 H 0.06748 0.88424 0.85428 0.0
H97 H 0.99887 0.92349 0.83777 0.0
H98 H 1.00303 0.91708 0.98033 0.0
Co99 Co 0.40739 0.74655 0.15715 0.0
C100 C 0.40334 0.713 0.20361 0.0
C101 C 0.4271 0.71621 0.17082 0.0
C102 C 0.42644 0.70016 0.18792 0.0
N103 N 0.41261 0.72432 0.18048 0.0
N104 N 0.41148 0.69821 0.20841 0.0
H105 H 0.39081 0.71498 0.21595 0.0
H106 H 0.43735 0.7215 0.15156 0.0
C107 C 0.40607 0.72311 0.0791 0.0
O108 O 0.39587 0.71358 0.10269 0.0
N109 N 0.40312 0.76846 0.13205 0.0
C110 C 0.39303 0.78084 0.14722 0.0
C111 C 0.39381 0.79416 0.11751 0.0
C112 C 0.40988 0.77432 0.09387 0.0
N113 N 0.40433 0.78991 0.0839 0.0
C114 C 0.3757 0.74161 0.19879 0.0
C115 C 0.35542 0.74111 0.12399 0.0
C116 C 0.34805 0.73918 0.16641 0.0
C117 C 0.35846 0.73962 0.20386 0.0
C118 C 0.37308 0.74271 0.12028 0.0
N119 N 0.38308 0.74223 0.15756 0.0
H120 H 0.38316 0.74225 0.22881 0.0
H121 H 0.37862 0.7447 0.08772 0.0
H122 H 0.38556 0.78016 0.17739 0.0
H123 H 0.41886 0.76735 0.07395 0.0
O124 O 0.40868 0.75613 0.21595 0.0
O125 O 0.43059 0.75356 0.17135 0.0
O126 O 0.41103 0.73725 0.09481 0.0
C127 C 0.42466 0.75824 0.21009 0.0
H128 H 0.4363 0.69077 0.1861 0.0
H129 H 0.38693 0.80589 0.11997 0.0
H130 H 0.34765 0.74138 0.09425 0.0
H131 H 0.35324 0.73877 0.23726 0.0
Co132 Co 0.52055 0.8624 0.62207 0.0
C133 C 0.55175 0.86662 0.56617 0.0
C134 C 0.55178 0.84419 0.60599 0.0
C135 C 0.56706 0.84537 0.58461 0.0
N136 N 0.54225 0.85766 0.59509 0.0
N137 N 0.56694 0.85949 0.5598 0.0
H138 H 0.54805 0.87816 0.55018 0.0
H139 H 0.54799 0.83439 0.629 0.0
C140 C 0.54598 0.8638 0.69609 0.0
O141 O 0.55542 0.87323 0.67011 0.0
N142 N 0.49911 0.86641 0.65021 0.0
C143 C 0.48644 0.87639 0.63633 0.0
C144 C 0.47353 0.87545 0.66721 0.0
C145 C 0.49384 0.85954 0.68887 0.0
N146 N 0.4783 0.86491 0.70029 0.0
C147 C 0.52254 0.89403 0.5785 0.0
C148 C 0.52643 0.91467 0.65189 0.0
C149 C 0.52483 0.92192 0.60926 0.0
C150 C 0.52297 0.91132 0.57257 0.0
C151 C 0.52576 0.89697 0.65654 0.0
N152 N 0.5243 0.88682 0.61973 0.0
H153 H 0.52074 0.88649 0.54902 0.0
H154 H 0.52587 0.89159 0.68966 0.0
H155 H 0.4866 0.88385 0.60611 0.0
H156 H 0.50116 0.85058 0.70795 0.0
O157 O 0.50964 0.86035 0.56506 0.0
O158 O 0.51393 0.8389 0.61024 0.0
O159 O 0.53122 0.85945 0.68331 0.0
C160 C 0.5081 0.84439 0.57214 0.0
H161 H 0.57734 0.83644 0.58641 0.0
H162 H 0.4617 0.88219 0.66576 0.0
H163 H 0.52755 0.92255 0.68124 0.0
H164 H 0.52165 0.91639 0.53912 0.0
Co165 Co 0.41147 0.26241 0.85941 0.0
C166 C 0.41126 0.29632 0.8132 0.0
C167 C 0.43536 0.28898 0.83874 0.0
C168 C 0.43654 0.30524 0.82372 0.0
N169 N 0.41952 0.28323 0.83225 0.0
N170 N 0.42137 0.30983 0.80798 0.0
H171 H 0.39796 0.29678 0.80635 0.0
H172 H 0.44526 0.28218 0.85569 0.0
C173 C 0.41001 0.28844 0.93162 0.0
O174 O 0.40091 0.2978 0.90471 0.0
N175 N 0.40451 0.24195 0.88858 0.0
C176 C 0.39392 0.2298 0.87445 0.0
C177 C 0.39354 0.21719 0.90639 0.0
C178 C 0.4104 0.23666 0.92827 0.0
N179 N 0.40385 0.22167 0.94025 0.0
C180 C 0.38202 0.26963 0.80966 0.0
C181 C 0.35928 0.27132 0.87928 0.0
C182 C 0.3534 0.27303 0.83517 0.0
C183 C 0.36507 0.27217 0.80035 0.0
C184 C 0.37665 0.26916 0.8873 0.0
N185 N 0.38784 0.26877 0.85255 0.0
H186 H 0.39062 0.26861 0.78186 0.0
H187 H 0.38101 0.26728 0.92115 0.0
H188 H 0.38712 0.23003 0.84314 0.0
H189 H 0.41976 0.24345 0.94742 0.0
O190 O 0.4135 0.25052 0.80353 0.0
O191 O 0.43415 0.25301 0.8526 0.0
O192 O 0.41418 0.27353 0.91994 0.0
C193 C 0.42898 0.24733 0.81411 0.0
H194 H 0.44763 0.31318 0.82486 0.0
H195 H 0.38624 0.20569 0.90487 0.0
H196 H 0.35056 0.27151 0.90711 0.0
H197 H 0.36106 0.27293 0.76579 0.0
Co198 Co 0.00921 0.14844 0.11261 0.0
C199 C 0.97456 0.14538 0.07303 0.0
C200 C 0.98334 0.17085 0.07386 0.0
C201 C 0.9674 0.1706 0.05601 0.0
N202 N 0.98807 0.15496 0.08393 0.0
N203 N 0.96192 0.15456 0.05547 0.0
H204 H 0.97357 0.13203 0.07881 0.0
H205 H 0.99085 0.18203 0.07894 0.0
C206 C 0.9841 0.14665 0.18836 0.0
O207 O 0.97522 0.13565 0.16569 0.0
N208 N 0.02989 0.14268 0.14257 0.0
C209 C 0.04173 0.13133 0.13115 0.0
C210 C 0.05421 0.13155 0.1634 0.0
C211 C 0.03527 0.14969 0.18088 0.0
N212 N 0.05003 0.14307 0.19473 0.0
C213 C 1.00218 0.11872 0.06497 0.0
C214 C 1.00144 0.09597 0.13463 0.0
C215 C 0.9991 0.09011 0.09062 0.0
C216 C 0.99966 0.10181 0.05583 0.0
C217 C 1.00377 0.11335 0.14253 0.0
N218 N 1.0036 0.12454 0.10776 0.0
H219 H 1.00252 0.12732 0.03708 0.0
H220 H 0.00599 0.11776 0.1762 0.0
H221 H 0.04124 0.12339 0.10182 0.0
H222 H 0.02856 0.15964 0.19795 0.0
O223 O 0.02098 0.14982 0.05658 0.0
O224 O 0.01807 0.17124 0.10278 0.0
O225 O 0.99811 0.15203 0.17287 0.0
C226 C 0.02373 0.16557 0.06468 0.0
H227 H 0.96063 0.18137 0.04307 0.0
H228 H 0.06531 0.12365 0.16409 0.0
H229 H 1.00147 0.08727 0.16247 0.0
H230 H 0.99849 0.09791 0.02128 0.0
Co231 Co 0.12199 0.74825 0.36258 0.0
C232 C 0.1248 0.71506 0.31344 0.0
C233 C 0.10164 0.71847 0.34913 0.0
C234 C 0.10187 0.70242 0.33222 0.0
N235 N 0.11607 0.72642 0.33787 0.0
N236 N 0.11643 0.70035 0.31 0.0
H237 H 0.13715 0.71693 0.29953 0.0
H238 H 0.09186 0.72381 0.3699 0.0
C239 C 0.12338 0.72372 0.43799 0.0
O240 O 0.13321 0.71446 0.41265 0.0
N241 N 0.12689 0.76979 0.38912 0.0
C242 C 0.13706 0.78216 0.37425 0.0
C243 C 0.13649 0.79532 0.40446 0.0
C244 C 0.12028 0.7755 0.42765 0.0
N245 N 0.126 0.791 0.43809 0.0
C246 C 0.1532 0.74349 0.31867 0.0
C247 C 0.1742 0.74329 0.39213 0.0
C248 C 0.18126 0.74326 0.34907 0.0
C249 C 0.17049 0.74315 0.31235 0.0
C250 C 0.15651 0.74376 0.3971 0.0
N251 N 0.1462 0.74352 0.3604 0.0
H252 H 0.14542 0.74398 0.28918 0.0
H253 H 0.15121 0.74502 0.43018 0.0
H254 H 0.14438 0.78162 0.34379 0.0
H255 H 0.11121 0.76854 0.44732 0.0
O256 O 0.12051 0.7585 0.3047 0.0
O257 O 0.09882 0.75584 0.35002 0.0
O258 O 0.11871 0.73828 0.42444 0.0
C259 C 0.10462 0.76083 0.31139 0.0
H260 H 0.09206 0.69302 0.33562 0.0
H261 H 0.14342 0.80703 0.40219 0.0
H262 H 0.18222 0.74371 0.42138 0.0
H263 H 0.17544 0.74318 0.27859 0.0
Co264 Co 0.90879 0.76194 0.35977 0.0
C265 C 0.90628 0.79502 0.31062 0.0
C266 C 0.92821 0.79276 0.35175 0.0
C267 C 0.92789 0.8087 0.33403 0.0
N268 N 0.91458 0.78418 0.33753 0.0
N269 N 0.91403 0.81015 0.30822 0.0
H270 H 0.89498 0.79211 0.29263 0.0
H271 H 0.9375 0.7879 0.37484 0.0
C272 C 0.90591 0.78537 0.43775 0.0
O273 O 0.89614 0.79492 0.413 0.0
N274 N 0.90387 0.73999 0.38374 0.0
C275 C 0.89515 0.72723 0.36515 0.0
C276 C 0.89561 0.71363 0.39403 0.0
C277 C 0.90946 0.73413 0.42319 0.0
N278 N 0.90452 0.71814 0.43052 0.0
C279 C 0.8779 0.76674 0.31349 0.0
C280 C 0.8563 0.76759 0.38561 0.0
C281 C 0.8497 0.76942 0.3423 0.0
C282 C 0.86077 0.76881 0.30619 0.0
C283 C 0.87386 0.76594 0.39157 0.0
N284 N 0.88453 0.76628 0.35561 0.0
H285 H 0.88588 0.76566 0.28449 0.0
H286 H 0.87877 0.764 0.42484 0.0
H287 H 0.88905 0.72772 0.33287 0.0
H288 H 0.91741 0.74125 0.44566 0.0
O289 O 0.91157 0.75241 0.30113 0.0
O290 O 0.93222 0.75495 0.34994 0.0
O291 O 0.91102 0.77119 0.42268 0.0
C292 C 0.92734 0.75018 0.31029 0.0
H293 H 0.93708 0.81847 0.34035 0.0
H294 H 0.88979 0.70146 0.38879 0.0
H295 H 0.84802 0.76741 0.41436 0.0
H296 H 0.85614 0.76949 0.27216 0.0
Co297 Co 0.62051 0.24604 0.8594 0.0
C298 C 0.6245 0.21196 0.81711 0.0
C299 C 0.59866 0.2191 0.82459 0.0
C300 C 0.59924 0.20332 0.80596 0.0
N301 N 0.61453 0.22476 0.83099 0.0
N302 N 0.61552 0.19884 0.80128 0.0
H303 H 0.63803 0.21177 0.81986 0.0
H304 H 0.58729 0.22586 0.83294 0.0
C305 C 0.62296 0.22072 0.93423 0.0
O306 O 0.63363 0.21188 0.91038 0.0
N307 N 0.62578 0.26688 0.88897 0.0
C308 C 0.63657 0.27914 0.87673 0.0
C309 C 0.63608 0.29167 0.90878 0.0
C310 C 0.61886 0.27205 0.92755 0.0
N311 N 0.62499 0.28707 0.94076 0.0
C312 C 0.65061 0.24098 0.81133 0.0
C313 C 0.67318 0.24113 0.88152 0.0
C314 C 0.67931 0.24097 0.83743 0.0
C315 C 0.66774 0.24062 0.80238 0.0
C316 C 0.65564 0.2416 0.88919 0.0
N317 N 0.64458 0.24131 0.8541 0.0
H318 H 0.64205 0.24093 0.7833 0.0
H319 H 0.651 0.24287 0.92298 0.0
H320 H 0.64427 0.27893 0.84692 0.0
H321 H 0.60928 0.265 0.94523 0.0
O322 O 0.61836 0.25776 0.8034 0.0
O323 O 0.59738 0.25414 0.85075 0.0
O324 O 0.61758 0.23487 0.91973 0.0
C325 C 0.60261 0.2601 0.81255 0.0
H326 H 0.58847 0.19595 0.79551 0.0
H327 H 0.6435 0.30311 0.90886 0.0
H328 H 0.68181 0.24162 0.90952 0.0
H329 H 0.67192 0.24033 0.76791 0.0
Co330 Co 0.62268 0.75856 0.1514 0.0
C331 C 0.62777 0.78896 0.20957 0.0
C332 C 0.60517 0.78995 0.17045 0.0
C333 C 0.60682 0.80497 0.1929 0.0
N334 N 0.61847 0.78001 0.18019 0.0
N335 N 0.62104 0.80423 0.21724 0.0
H336 H 0.63928 0.78479 0.22498 0.0
H337 H 0.59518 0.78666 0.14745 0.0
C338 C 0.6239 0.78468 0.07883 0.0
O339 O 0.63341 0.79395 0.10506 0.0
N340 N 0.62616 0.73741 0.1215 0.0
C341 C 0.63687 0.72488 0.132 0.0
C342 C 0.63559 0.71253 0.09968 0.0
C343 C 0.61847 0.73256 0.08359 0.0
N344 N 0.62405 0.71746 0.06915 0.0
C345 C 0.65465 0.75945 0.19371 0.0
C346 C 0.67487 0.76474 0.12008 0.0
C347 C 0.68239 0.76244 0.16217 0.0
C348 C 0.67198 0.75985 0.19899 0.0
C349 C 0.65714 0.76405 0.11607 0.0
N350 N 0.64719 0.76193 0.15306 0.0
H351 H 0.64728 0.75718 0.22327 0.0
H352 H 0.65158 0.76473 0.0832 0.0
H353 H 0.64521 0.72486 0.16058 0.0
H354 H 0.60891 0.73999 0.06702 0.0
O355 O 0.62068 0.74707 0.20767 0.0
O356 O 0.59912 0.75225 0.16349 0.0
O357 O 0.61958 0.76984 0.09099 0.0
C358 C 0.60465 0.74592 0.20096 0.0
H359 H 0.59815 0.81548 0.19209 0.0
H360 H 0.6429 0.70105 0.09823 0.0
H361 H 0.68258 0.76646 0.09058 0.0
H362 H 0.67723 0.75805 0.23209 0.0
Co363 Co 0.90665 0.24653 0.65426 0.0
C364 C 0.90237 0.21467 0.70795 0.0
C365 C 0.92538 0.2157 0.67069 0.0
C366 C 0.92444 0.20028 0.69138 0.0
N367 N 0.91146 0.22471 0.68059 0.0
N368 N 0.90994 0.1997 0.71464 0.0
H369 H 0.89042 0.21781 0.72259 0.0
H370 H 0.93541 0.21997 0.649 0.0
C371 C 0.90624 0.22191 0.57822 0.0
O372 O 0.8962 0.21235 0.60225 0.0
N373 N 0.90271 0.26803 0.62648 0.0
C374 C 0.8915 0.28006 0.63735 0.0
C375 C 0.89265 0.29284 0.60611 0.0
C376 C 0.91055 0.27358 0.58946 0.0
N377 N 0.90457 0.28864 0.57588 0.0
C378 C 0.87446 0.24282 0.69436 0.0
C379 C 0.85507 0.23904 0.61861 0.0
C380 C 0.84731 0.23818 0.66079 0.0
C381 C 0.85726 0.24038 0.69867 0.0
C382 C 0.8727 0.24121 0.61578 0.0
N383 N 0.8823 0.24225 0.65372 0.0
H384 H 0.88151 0.24478 0.72466 0.0
H385 H 0.87849 0.24233 0.58326 0.0
H386 H 0.8829 0.27944 0.66533 0.0
H387 H 0.92045 0.26666 0.5728 0.0
O388 O 0.90761 0.2571 0.71196 0.0
O389 O 0.9298 0.25356 0.66882 0.0
O390 O 0.91076 0.23633 0.59302 0.0
C391 C 0.92364 0.259 0.7066 0.0
H392 H 0.93381 0.19039 0.69014 0.0
H393 H 0.88495 0.30408 0.60503 0.0
H394 H 0.84764 0.23798 0.5884 0.0
H395 H 0.8517 0.24045 0.73176 0.0
Co396 Co 0.02127 0.64569 0.89881 0.0
C397 C 0.04829 0.63702 0.96216 0.0
C398 C 0.05729 0.65342 0.91027 0.0
C399 C 0.07069 0.64899 0.93694 0.0
N400 N 0.04333 0.64573 0.92585 0.0
N401 N 0.06498 0.63866 0.96931 0.0
H402 H 0.03995 0.62933 0.98222 0.0
H403 H 0.05779 0.6616 0.88143 0.0
C404 C 0.03527 0.6429 0.8036 0.0
O405 O 0.0295 0.62752 0.79858 0.0
N406 N 0.99889 0.64623 0.87124 0.0
C407 C 0.98386 0.64581 0.89248 0.0
C408 C 0.97114 0.64797 0.86185 0.0
C409 C 0.99492 0.64902 0.82791 0.0
N410 N 0.97811 0.65001 0.82116 0.0
C411 C 0.00957 0.61184 0.90709 0.0
C412 C 0.04035 0.59644 0.89363 0.0
C413 C 0.02709 0.58699 0.91186 0.0
C414 C 0.01138 0.59474 0.91671 0.0
C415 C 0.03789 0.61348 0.88326 0.0
N416 N 0.02279 0.62121 0.89167 0.0
H417 H 0.99787 0.61774 0.91605 0.0
H418 H 0.04855 0.62074 0.87167 0.0
H419 H 0.98209 0.64427 0.92804 0.0
H420 H 1.00402 0.65069 0.80173 0.0
O421 O 0.01132 0.64573 0.95775 0.0
O422 O 0.01796 0.66865 0.91946 0.0
O423 O 0.03232 0.65114 0.83945 0.0
C424 C 0.01194 0.66208 0.95608 0.0
H425 H 0.08355 0.65336 0.93355 0.0
H426 H 0.95783 0.64857 0.86943 0.0
H427 H 0.0527 0.59089 0.88918 0.0
H428 H 1.00086 0.58799 0.9313 0.0
Co429 Co 0.50715 0.36363 0.402 0.0
C430 C 0.47841 0.37128 0.46116 0.0
C431 C 0.47179 0.35343 0.41026 0.0
C432 C 0.4576 0.35716 0.43456 0.0
N433 N 0.48476 0.36241 0.42671 0.0
N434 N 0.46173 0.36844 0.46655 0.0
H435 H 0.48592 0.37968 0.48148 0.0
H436 H 0.47249 0.34491 0.38214 0.0
C437 C 0.49579 0.36649 0.30488 0.0
O438 O 0.50268 0.38144 0.30067 0.0
N439 N 0.52984 0.36414 0.37657 0.0
C440 C 0.54448 0.36704 0.39834 0.0
C441 C 0.55774 0.36452 0.36959 0.0
C442 C 0.53463 0.35913 0.3353 0.0
N443 N 0.55153 0.35954 0.32984 0.0
C444 C 0.51676 0.39803 0.4138 0.0
C445 C 0.48591 0.41202 0.39288 0.0
C446 C 0.49822 0.4221 0.41326 0.0
C447 C 0.51399 0.41506 0.42206 0.0
C448 C 0.48943 0.39505 0.3836 0.0
N449 N 0.50456 0.38804 0.39549 0.0
H450 H 0.52828 0.39273 0.426 0.0
H451 H 0.47951 0.38725 0.37004 0.0
H452 H 0.54565 0.37029 0.43326 0.0
H453 H 0.52613 0.3542 0.31048 0.0
O454 O 0.51634 0.36364 0.46172 0.0
O455 O 0.51124 0.3407 0.42188 0.0
O456 O 0.4971 0.35832 0.34148 0.0
C457 C 0.51656 0.34731 0.45921 0.0
H458 H 0.4452 0.352 0.4286 0.0
H459 H 0.57094 0.36599 0.37778 0.0
H460 H 0.47351 0.41703 0.38576 0.0
H461 H 0.52371 0.42233 0.43863 0.0
Co462 Co 0.02131 0.36332 0.11695 0.0
C463 C 0.05322 0.36622 0.06267 0.0
C464 C 0.05071 0.34282 0.09773 0.0
C465 C 0.06623 0.34313 0.07742 0.0
N466 N 0.04257 0.35737 0.08901 0.0
N467 N 0.06774 0.35786 0.05561 0.0
H468 H 0.05094 0.37862 0.04968 0.0
H469 H 0.04589 0.33287 0.11884 0.0
C470 C 0.04715 0.36292 0.18979 0.0
O471 O 0.05693 0.37183 0.16342 0.0
N472 N 1.00029 0.36831 0.14614 0.0
C473 C 0.98944 0.38107 0.13894 0.0
C474 C 0.9763 0.3796 0.16902 0.0
C475 C 0.99364 0.35923 0.17973 0.0
N476 N 0.97899 0.36581 0.19441 0.0
C477 C 0.02562 0.39491 0.07422 0.0
C478 C 0.03198 0.41478 0.14789 0.0
C479 C 0.03227 0.42213 0.10512 0.0
C480 C 0.02869 0.41194 0.06838 0.0
C481 C 0.02899 0.39732 0.1523 0.0
N482 N 0.0266 0.38746 0.11529 0.0
H483 H 0.02298 0.38763 0.04469 0.0
H484 H 0.02836 0.39189 0.18533 0.0
H485 H 0.99098 0.39074 0.11385 0.0
H486 H 0.99961 0.34815 0.19361 0.0
O487 O 0.00997 0.36213 0.06022 0.0
O488 O 0.01331 0.34032 0.10477 0.0
O489 O 0.03205 0.35948 0.17773 0.0
C490 C 0.00766 0.34623 0.06696 0.0
H491 H 0.07562 0.33326 0.07832 0.0
H492 H 0.96554 0.3879 0.17165 0.0
H493 H 0.03417 0.42237 0.17737 0.0
H494 H 0.02815 0.41713 0.03492 0.0
Co495 Co 0.50508 0.64498 0.61326 0.0
C496 C 0.47295 0.64146 0.56075 0.0
C497 C 0.47387 0.66366 0.60117 0.0
C498 C 0.45831 0.66282 0.58124 0.0
N499 N 0.48299 0.65011 0.58901 0.0
N500 N 0.45769 0.64878 0.55588 0.0
H501 H 0.47666 0.63031 0.54318 0.0
H502 H 0.47812 0.67328 0.62414 0.0
C503 C 0.4814 0.64471 0.69121 0.0
O504 O 0.4715 0.63485 0.6677 0.0
N505 N 0.5269 0.64072 0.6388 0.0
C506 C 0.53784 0.62818 0.63007 0.0
C507 C 0.55146 0.62981 0.65851 0.0
C508 C 0.53399 0.64986 0.67163 0.0
N509 N 0.54898 0.6435 0.68442 0.0
C510 C 0.50062 0.61286 0.57318 0.0
C511 C 0.49583 0.5936 0.64876 0.0
C512 C 0.4944 0.58598 0.60653 0.0
C513 C 0.4973 0.59583 0.56876 0.0
C514 C 0.49905 0.61106 0.65171 0.0
N515 N 0.50039 0.62068 0.61385 0.0
H516 H 0.50296 0.61979 0.54291 0.0
H517 H 0.50056 0.61671 0.68428 0.0
H518 H 0.53597 0.61844 0.6053 0.0
H519 H 0.52803 0.66073 0.68665 0.0
O520 O 0.51488 0.64601 0.55459 0.0
O521 O 0.51215 0.66808 0.59852 0.0
O522 O 0.49577 0.64907 0.67554 0.0
C523 C 0.51699 0.66201 0.5601 0.0
H524 H 0.44825 0.67184 0.58563 0.0
H525 H 0.56234 0.62161 0.65994 0.0
H526 H 0.49432 0.58623 0.67893 0.0
H527 H 0.4971 0.59035 0.53558 0.0
C528 C 0.54486 0.06247 0.4474 0.0
C529 C 0.53104 0.06778 0.42176 0.0
C530 C 0.54513 0.04641 0.46655 0.0
C531 C 0.52344 0.00463 0.4674 0.0
H532 H 0.54015 1.00282 0.58918 0.0
C533 C 0.51056 0.94722 0.57829 0.0
C534 C 0.52443 0.94033 0.60101 0.0
C535 C 0.51151 0.96322 0.55912 0.0
C536 C 0.53557 1.00308 0.5551 0.0
H537 H 0.50687 0.0604 0.39489 0.0
H538 H 0.50718 0.0323 0.4284 0.0
H539 H 0.54219 0.02901 0.54689 0.0
H540 H 0.54986 0.94511 0.6236 0.0
H541 H 0.55152 0.97339 0.59056 0.0
H542 H 0.51657 0.97877 0.47598 0.0
C543 C 0.51802 0.04037 0.43317 0.0
C544 C 0.5368 0.01808 0.53064 0.0
C545 C 0.51784 0.05644 0.41369 0.0
C546 C 0.53891 0.95025 0.60687 0.0
C547 C 0.53987 0.96637 0.58765 0.0
C548 C 0.52211 0.98969 0.49194 0.0
C549 C 0.53144 0.03533 0.46106 0.0
C550 C 0.53071 0.0191 0.48644 0.0
C551 C 0.52639 0.97276 0.56209 0.0
C552 C 0.52805 0.98874 0.53621 0.0
H553 H 0.5551 0.0711 0.4545 0.0
H554 H 0.55586 0.04289 0.48684 0.0
H555 H 0.51887 0.00479 0.43332 0.0
H556 H 0.49926 0.93979 0.57319 0.0
H557 H 0.50076 0.96789 0.54059 0.0
C558 C 0.32338 0.26296 0.8392 0.0
C559 C 0.33523 0.27475 0.82387 0.0
C560 C 0.30698 0.26276 0.82167 0.0
C561 C 0.28318 0.2767 0.72081 0.0
H562 H 0.2443 0.26345 0.7907 0.0
C563 C 0.2136 0.27918 0.65603 0.0
C564 C 0.20303 0.26597 0.66975 0.0
C565 C 0.23018 0.28029 0.67233 0.0
C566 C 0.25506 0.26702 0.77056 0.0
H567 H 0.33892 0.29624 0.7804 0.0
H568 H 0.31029 0.29629 0.75099 0.0
H569 H 0.27164 0.26617 0.82693 0.0
H570 H 0.20183 0.24295 0.70842 0.0
H571 H 0.23062 0.24472 0.73619 0.0
H572 H 0.26645 0.27768 0.6645 0.0
C573 C 0.3137 0.28681 0.77537 0.0
C574 C 0.27078 0.26857 0.7914 0.0
C575 C 0.33008 0.28691 0.79259 0.0
C576 C 0.20966 0.25335 0.6976 0.0
C577 C 0.22611 0.25446 0.71385 0.0
C578 C 0.26741 0.27525 0.70002 0.0
C579 C 0.30204 0.27444 0.78865 0.0
C580 C 0.28511 0.27333 0.76681 0.0
C581 C 0.23641 0.26822 0.70267 0.0
C582 C 0.25319 0.27023 0.72456 0.0
H583 H 0.32706 0.25331 0.86284 0.0
H584 H 0.29844 0.25295 0.83256 0.0
H585 H 0.29393 0.2801 0.70047 0.0
H586 H 0.20874 0.28915 0.63495 0.0
H587 H 0.2378 0.29104 0.66302 0.0
C588 C 0.98485 0.06758 0.04601 0.0
C589 C 0.99667 0.07202 0.07904 0.0
C590 C 0.98461 0.0514 0.02778 0.0
C591 C 0.99716 0.00745 0.0448 0.0
H592 H 0.996 0.00525 0.91518 0.0
C593 C 0.98516 0.94524 0.95289 0.0
C594 C 0.99673 0.94082 0.91926 0.0
C595 C 0.98473 0.96155 0.97014 0.0
C596 C 0.9964 0.00567 0.95134 0.0
H597 H 0.01679 0.06252 0.12089 0.0
H598 H 0.01606 0.03391 0.08977 0.0
H599 H 0.99614 0.03265 0.95268 0.0
H600 H 0.01613 0.95037 0.87521 0.0
H601 H 0.01507 0.97927 0.90471 0.0
H602 H 0.99725 0.98047 0.0435 0.0
C603 C 0.00712 0.04314 0.07765 0.0
C604 C 0.99635 0.02133 0.97286 0.0
C605 C 0.00747 0.05948 0.09572 0.0
C606 C 0.007 0.95346 0.90082 0.0
C607 C 0.00647 0.96994 0.91796 0.0
C608 C 0.99697 0.99179 0.0233 0.0
C609 C 0.99604 0.03912 0.04245 0.0
C610 C 0.99662 0.02241 0.01985 0.0
C611 C 0.99575 0.97396 0.95396 0.0
C612 C 0.99647 0.99071 0.97633 0.0
H613 H 0.97614 0.07686 0.03296 0.0
H614 H 0.97564 0.04859 1.00154 0.0
H615 H 0.99735 0.00785 0.08097 0.0
H616 H 0.97698 0.93579 0.96747 0.0
H617 H 0.97606 0.96435 0.99709 0.0
C618 C 0.3237 0.72379 0.19943 0.0
C619 C 0.32966 0.73738 0.17384 0.0
C620 C 0.30737 0.72388 0.21686 0.0
C621 C 0.26575 0.74541 0.21192 0.0
H622 H 0.26257 0.73074 0.33533 0.0
C623 C 0.20591 0.75767 0.31481 0.0
C624 C 0.19963 0.74423 0.34039 0.0
C625 C 0.22212 0.75706 0.29674 0.0
C626 C 0.26318 0.73473 0.30077 0.0
H627 H 0.32299 0.76137 0.14469 0.0
H628 H 0.29431 0.76162 0.17505 0.0
H629 H 0.28935 0.72854 0.29585 0.0
H630 H 0.20558 0.71992 0.36877 0.0
H631 H 0.23413 0.7188 0.33737 0.0
H632 H 0.2396 0.75168 0.21694 0.0
C633 C 0.30221 0.75077 0.18135 0.0
C634 C 0.27854 0.73343 0.27798 0.0
C635 C 0.3186 0.75062 0.16368 0.0
C636 C 0.21024 0.73055 0.34976 0.0
C637 C 0.22654 0.72991 0.33152 0.0
C638 C 0.2504 0.74674 0.23473 0.0
C639 C 0.29659 0.73766 0.20947 0.0
C640 C 0.28005 0.73875 0.23321 0.0
C641 C 0.23246 0.74292 0.30353 0.0
C642 C 0.24891 0.74148 0.27953 0.0
H643 H 0.33202 0.71345 0.20785 0.0
H644 H 0.30337 0.71338 0.23735 0.0
H645 H 0.26635 0.74943 0.17738 0.0
H646 H 0.19792 0.76833 0.30699 0.0
H647 H 0.22638 0.76749 0.27633 0.0
C648 C 0.82576 0.78432 0.30551 0.0
C649 C 0.83143 0.77109 0.33282 0.0
C650 C 0.80945 0.78422 0.28791 0.0
C651 C 0.76754 0.76297 0.29527 0.0
H652 H 0.76366 0.77745 0.17184 0.0
C653 C 0.70809 0.74875 0.19322 0.0
C654 C 0.7009 0.76225 0.16957 0.0
C655 C 0.72439 0.74993 0.21049 0.0
C656 C 0.7645 0.77349 0.2064 0.0
H657 H 0.8243 0.74768 0.36445 0.0
H658 H 0.79577 0.7473 0.33343 0.0
H659 H 0.79065 0.77986 0.21034 0.0
H660 H 0.7055 0.78718 0.14314 0.0
H661 H 0.7343 0.78921 0.17289 0.0
H662 H 0.74145 0.75633 0.29096 0.0
C663 C 0.80382 0.75795 0.32607 0.0
C664 C 0.77997 0.77494 0.22867 0.0
C665 C 0.82015 0.75816 0.34407 0.0
C666 C 0.71081 0.77652 0.16081 0.0
C667 C 0.72724 0.7777 0.17811 0.0
C668 C 0.75213 0.76142 0.27291 0.0
C669 C 0.79841 0.77075 0.29667 0.0
C670 C 0.78174 0.76966 0.27345 0.0
C671 C 0.73396 0.76464 0.20456 0.0
C672 C 0.75043 0.76656 0.22811 0.0
H673 H 0.83424 0.79445 0.29632 0.0
H674 H 0.80565 0.79452 0.26646 0.0
H675 H 0.76827 0.75903 0.32986 0.0
H676 H 0.70074 0.73757 0.20031 0.0
H677 H 0.72931 0.73948 0.22972 0.0
C678 C 0.82351 0.22263 0.69595 0.0
C679 C 0.82897 0.23558 0.66741 0.0
C680 C 0.80703 0.22238 0.71228 0.0
C681 C 0.76429 0.24087 0.69929 0.0
H682 H 0.76094 0.23143 0.82622 0.0
C683 C 0.70314 0.25412 0.79578 0.0
C684 C 0.69753 0.24186 0.8262 0.0
C685 C 0.71936 0.25341 0.77788 0.0
C686 C 0.76159 0.23391 0.79068 0.0
H687 H 0.82126 0.25797 0.63179 0.0
H688 H 0.79226 0.25757 0.66011 0.0
H689 H 0.78813 0.22926 0.78882 0.0
H690 H 0.70475 0.21964 0.86331 0.0
H691 H 0.73331 0.21831 0.83197 0.0
H692 H 0.73776 0.24556 0.70116 0.0
C693 C 0.80072 0.2475 0.66967 0.0
C694 C 0.7772 0.23264 0.76913 0.0
C695 C 0.81729 0.24771 0.65317 0.0
C696 C 0.70882 0.22934 0.84025 0.0
C697 C 0.72514 0.22857 0.82212 0.0
C698 C 0.74868 0.24213 0.72083 0.0
C699 C 0.79557 0.23515 0.7007 0.0
C700 C 0.77878 0.23612 0.72313 0.0
C701 C 0.73044 0.24034 0.7897 0.0
C702 C 0.74712 0.23876 0.76689 0.0
H703 H 0.83231 0.21316 0.70751 0.0
H704 H 0.80342 0.21246 0.73519 0.0
H705 H 0.76497 0.24344 0.6638 0.0
H706 H 0.6947 0.26399 0.78462 0.0
H707 H 0.72312 0.26296 0.75403 0.0
C708 C 0.01834 0.55678 0.92142 0.0
C709 C 0.02984 0.56982 0.93035 0.0
C710 C 0.01993 0.54114 0.94257 0.0
C711 C 0.03631 0.52103 0.04398 0.0
H712 H 0.03315 0.47975 0.9754 0.0
C713 C 0.02629 0.45301 0.11723 0.0
C714 C 0.03585 0.44025 0.09683 0.0
C715 C 0.02705 0.46962 0.10105 0.0
C716 C 0.03412 0.49117 0.99503 0.0
H717 H 0.05197 0.5767 0.9686 0.0
H718 H 0.05467 0.54936 1.0059 0.0
H719 H 0.03141 0.50686 0.93724 0.0
H720 H 0.05474 0.43513 0.04635 0.0
H721 H 0.056 0.4639 0.01829 0.0
H722 H 0.03876 0.5052 0.10194 0.0
C723 C 0.04449 0.55125 0.98233 0.0
C724 C 0.03301 0.50669 0.97318 0.0
C725 C 0.04307 0.56681 0.96057 0.0
C726 C 0.04708 0.44467 0.0624 0.0
C727 C 0.04774 0.46111 0.04614 0.0
C728 C 0.03715 0.50545 0.06601 0.0
C729 C 0.03288 0.53827 0.97376 0.0
C730 C 0.03416 0.5218 0.99731 0.0
C731 C 0.0373 0.47365 0.06413 0.0
C732 C 0.03619 0.49035 0.04167 0.0
H733 H 0.00799 0.55877 0.89843 0.0
H734 H 0.01075 0.53141 0.93542 0.0
H735 H 0.0371 0.53249 0.0635 0.0
H736 H 0.01745 0.44994 0.14357 0.0
H737 H 0.01887 0.47906 0.11561 0.0
C738 C 0.48147 0.44167 0.46155 0.0
C739 C 0.49443 0.43924 0.43021 0.0
C740 C 0.47966 0.45719 0.48336 0.0
C741 C 0.48931 0.50217 0.47423 0.0
H742 H 0.48752 0.50286 0.60386 0.0
C743 C 0.4778 0.56361 0.56834 0.0
C744 C 0.49027 0.56792 0.5997 0.0
C745 C 0.47648 0.5472 0.55214 0.0
C746 C 0.48798 0.50282 0.56769 0.0
H747 H 0.51533 0.45115 0.39617 0.0
H748 H 0.51179 0.47846 0.43297 0.0
H749 H 0.48853 0.47581 0.56405 0.0
H750 H 0.51029 0.55811 0.64129 0.0
H751 H 0.50776 0.52906 0.61347 0.0
H752 H 0.48874 0.52908 0.47757 0.0
C753 C 0.50313 0.46835 0.441 0.0
C754 C 0.48844 0.48738 0.54491 0.0
C755 C 0.50514 0.45277 0.41987 0.0
C756 C 0.50048 0.5551 0.61742 0.0
C757 C 0.49909 0.53853 0.60131 0.0
C758 C 0.48856 0.51754 0.49687 0.0
C759 C 0.49059 0.47064 0.47362 0.0
C760 C 0.48924 0.48692 0.49793 0.0
C761 C 0.48753 0.53461 0.56712 0.0
C762 C 0.48795 0.51806 0.54384 0.0
H763 H 0.47323 0.43135 0.47066 0.0
H764 H 0.46981 0.45863 0.50812 0.0
H765 H 0.48989 0.50221 0.43806 0.0
H766 H 0.46968 0.57323 0.55434 0.0
H767 H 0.46726 0.54449 0.52643 0.0
C768 C 0.47946 0.15395 0.24085 0.0
C769 C 0.4706 0.1482 0.27854 0.0
C770 C 0.47089 0.16037 0.20392 0.0
C771 C 0.42965 0.16276 0.14706 0.0
H772 H 0.44815 0.20442 0.10044 0.0
C773 C 0.40845 0.19474 0.9804 0.0
C774 C 0.40791 0.21243 0.98029 0.0
C775 C 0.41437 0.18602 0.01801 0.0
C776 C 0.44272 0.19287 0.11322 0.0
H777 H 0.4457 0.14405 0.30614 0.0
H778 H 0.43063 0.15534 0.2413 0.0
H779 H 0.46192 0.19053 0.1628 0.0
H780 H 0.4118 0.23475 0.02064 0.0
H781 H 0.42202 0.21965 0.08592 0.0
H782 H 0.41032 0.16532 0.09727 0.0
C783 C 0.44426 0.15479 0.24046 0.0
C784 C 0.45074 0.18479 0.14866 0.0
C785 C 0.45288 0.14834 0.27759 0.0
C786 C 0.41249 0.22115 0.01929 0.0
C787 C 0.41834 0.21249 0.05671 0.0
C788 C 0.42163 0.17085 0.11123 0.0
C789 C 0.45321 0.16121 0.20363 0.0
C790 C 0.44436 0.16963 0.16597 0.0
C791 C 0.41981 0.19487 0.05613 0.0
C792 C 0.42806 0.18604 0.09408 0.0
H793 H 0.49309 0.1536 0.23993 0.0
H794 H 0.47815 0.16484 0.17565 0.0
H795 H 0.42449 0.15105 0.15957 0.0
H796 H 0.40505 0.1877 0.95079 0.0
H797 H 0.41541 0.17244 0.0165 0.0
C798 C 0.07663 0.14546 0.23791 0.0
C799 C 0.05905 0.14743 0.23498 0.0
C800 C 0.08533 0.15049 0.27642 0.0
C801 C 0.07865 0.16181 0.39594 0.0
H802 H 0.11988 0.18749 0.38184 0.0
C803 C 0.10324 0.20732 0.53001 0.0
C804 C 0.1206 0.20766 0.53908 0.0
C805 C 0.09691 0.1977 0.49477 0.0
C806 C 0.10852 0.18012 0.38638 0.0
H807 H 0.03682 0.15561 0.27115 0.0
H808 H 0.0519 0.16474 0.33721 0.0
H809 H 0.10669 0.1746 0.3165 0.0
H810 H 0.14494 0.19811 0.51845 0.0
H811 H 0.13385 0.18131 0.45628 0.0
H812 H 0.08017 0.16785 0.46554 0.0
C813 C 0.05902 0.15918 0.31012 0.0
C814 C 0.10097 0.1727 0.34896 0.0
C815 C 0.05037 0.15416 0.27181 0.0
C816 C 0.1315 0.19799 0.51239 0.0
C817 C 0.12517 0.1885 0.47668 0.0
C818 C 0.08613 0.16931 0.4332 0.0
C819 C 0.07662 0.15753 0.31289 0.0
C820 C 0.08573 0.16377 0.35315 0.0
C821 C 0.1078 0.1883 0.46746 0.0
C822 C 0.10095 0.17883 0.4287 0.0
H823 H 0.08371 0.14038 0.21012 0.0
H824 H 0.09887 0.1489 0.27759 0.0
H825 H 0.06714 0.15469 0.40058 0.0
H826 H 0.09452 0.21449 0.55028 0.0
H827 H 0.08348 0.19795 0.48825 0.0
C828 C 0.1208 0.81833 0.47555 0.0
C829 C 0.12159 0.80066 0.47716 0.0
C830 C 0.11542 0.82753 0.51287 0.0
C831 C 0.109 0.82455 0.63538 0.0
H832 H 0.07443 0.85825 0.6162 0.0
C833 C 0.07844 0.86138 0.78164 0.0
C834 C 0.06075 0.86198 0.78057 0.0
C835 C 0.08754 0.85591 0.74425 0.0
C836 C 0.08411 0.8489 0.62209 0.0
H837 H 0.11814 0.77887 0.51979 0.0
H838 H 0.10872 0.79482 0.58457 0.0
H839 H 0.08773 0.84467 0.55206 0.0
H840 H 0.03879 0.85801 0.73878 0.0
H841 H 0.05458 0.84839 0.6739 0.0
H842 H 0.10498 0.82836 0.70541 0.0
C843 C 0.11223 0.80161 0.55459 0.0
C844 C 0.09185 0.84125 0.58534 0.0
C845 C 0.11744 0.79245 0.51728 0.0
C846 C 0.05239 0.85747 0.74092 0.0
C847 C 0.06147 0.85215 0.70352 0.0
C848 C 0.10134 0.83228 0.67212 0.0
C849 C 0.11094 0.81924 0.55271 0.0
C850 C 0.10413 0.82872 0.59158 0.0
C851 C 0.07913 0.85112 0.70486 0.0
C852 C 0.08855 0.84429 0.6659 0.0
H853 H 0.12386 0.825 0.44506 0.0
H854 H 0.11467 0.84111 0.51049 0.0
H855 H 0.11855 0.81507 0.64127 0.0
H856 H 0.08523 0.86471 0.81175 0.0
H857 H 0.10116 0.85535 0.74622 0.0
C858 C 0.40971 0.81725 0.04664 0.0
C859 C 0.4087 0.7996 0.04485 0.0
C860 C 0.41505 0.82645 0.00924 0.0
C861 C 0.42085 0.8235 0.88653 0.0
H862 H 0.45602 0.85672 0.90461 0.0
C863 C 0.45123 0.85976 0.7392 0.0
C864 C 0.46893 0.86026 0.73971 0.0
C865 C 0.44225 0.85442 0.77692 0.0
C866 C 0.44617 0.8475 0.89904 0.0
H867 H 0.41169 0.77784 1.00189 0.0
H868 H 0.42104 0.79377 0.93703 0.0
H869 H 0.44279 0.84333 0.96918 0.0
H870 H 0.49104 0.85621 0.78086 0.0
H871 H 0.47547 0.84677 0.84631 0.0
H872 H 0.42463 0.82723 0.8164 0.0
C873 C 0.41775 0.80056 0.96717 0.0
C874 C 0.43848 0.83996 0.93603 0.0
C875 C 0.41258 0.7914 1.00453 0.0
C876 C 0.47743 0.85574 0.77914 0.0
C877 C 0.46848 0.85053 0.81687 0.0
C878 C 0.42848 0.83111 0.84956 0.0
C879 C 0.41925 0.81817 0.96919 0.0
C880 C 0.42599 0.82761 0.93017 0.0
C881 C 0.4508 0.84963 0.81609 0.0
C882 C 0.44147 0.84293 0.85537 0.0
H883 H 0.40686 0.8239 0.07728 0.0
H884 H 0.41598 0.84002 0.01171 0.0
H885 H 0.41114 0.81415 0.88094 0.0
H886 H 0.44432 0.86308 0.70929 0.0
H887 H 0.42863 0.85398 0.77538 0.0
C888 C 0.57097 0.85525 0.74201 0.0
C889 C 0.55337 0.85636 0.73729 0.0
C890 C 0.57814 0.84704 0.77875 0.0
C891 C 0.57117 0.83521 0.89492 0.0
H892 H 0.60533 0.80116 0.87393 0.0
C893 C 0.61543 0.80986 0.03354 0.0
C894 C 0.61651 0.79225 0.03781 0.0
C895 C 0.60731 0.81717 0.99685 0.0
C896 C 0.59577 0.81059 0.88029 0.0
H897 H 0.5295 0.84998 0.7682 0.0
H898 H 0.54212 0.83611 0.83345 0.0
H899 H 0.59175 0.81515 0.81038 0.0
H900 H 0.61016 0.76853 1.00618 0.0
H901 H 0.59644 0.7814 0.94106 0.0
H902 H 0.57553 0.83099 0.96484 0.0
C903 C 0.55031 0.84146 0.80821 0.0
C904 C 0.58807 0.81866 0.84397 0.0
C905 C 0.5431 0.84938 0.77087 0.0
C906 C 0.60958 0.78213 1.00386 0.0
C907 C 0.60174 0.78948 0.96659 0.0
C908 C 0.57912 0.82739 0.93125 0.0
C909 C 0.56792 0.83999 0.81221 0.0
C910 C 0.57571 0.83109 0.85087 0.0
C911 C 0.60032 0.80709 0.96301 0.0
C912 C 0.59154 0.81502 0.92434 0.0
H913 H 0.57927 0.86035 0.71664 0.0
H914 H 0.59174 0.84624 0.7811 0.0
H915 H 0.56174 0.84477 0.90127 0.0
H916 H 0.6205 0.81804 0.0592 0.0
H917 H 0.60654 0.83077 0.99483 0.0
C918 C 0.96154 0.8631 0.76179 0.0
C919 C 0.97696 0.85735 0.77921 0.0
C920 C 0.95424 0.85534 0.72447 0.0
C921 C 0.95326 0.81505 0.66334 0.0
H922 H 0.93257 0.84146 0.56931 0.0
C923 C 0.92692 0.78466 0.50083 0.0
C924 C 0.91285 0.79215 0.48031 0.0
C925 C 0.93465 0.79223 0.53788 0.0
C926 C 0.93802 0.83383 0.59556 0.0
H927 H 0.99693 0.83902 0.77029 0.0
H928 H 0.98414 0.82543 0.70528 0.0
H929 H 0.94653 0.85564 0.63123 0.0
H930 H 0.89545 0.81313 0.48411 0.0
H931 H 0.90849 0.82598 0.54932 0.0
H932 H 0.94452 0.79323 0.62825 0.0
C933 C 0.97766 0.83593 0.7207 0.0
C934 C 0.94612 0.84201 0.63103 0.0
C935 C 0.98506 0.84382 0.75778 0.0
C936 C 0.90633 0.80705 0.49883 0.0
C937 C 0.91395 0.81454 0.53608 0.0
C938 C 0.94502 0.80685 0.62804 0.0
C939 C 0.96209 0.8415 0.70381 0.0
C940 C 0.95383 0.83274 0.66542 0.0
C941 C 0.92844 0.80744 0.55567 0.0
C942 C 0.93723 0.81612 0.59362 0.0
H943 H 0.95491 0.87346 0.77742 0.0
H944 H 0.94219 0.85988 0.71258 0.0
H945 H 0.95887 0.80752 0.68958 0.0
H946 H 0.93236 0.77324 0.48732 0.0
H947 H 0.94585 0.78642 0.55157 0.0
C948 C 0.98474 0.16786 0.25103 0.0
C949 C 0.97719 0.15379 0.2306 0.0
C950 C 0.97743 0.17535 0.28881 0.0
C951 C 0.94771 0.16734 0.3819 0.0
H952 H 0.94359 0.21595 0.3859 0.0
C953 C 0.90769 0.19994 0.51789 0.0
C954 C 0.91353 0.21522 0.53594 0.0
C955 C 0.9154 0.19285 0.48023 0.0
C956 C 0.94481 0.20237 0.38577 0.0
H957 H 0.95621 0.13635 0.23486 0.0
H958 H 0.94363 0.14927 0.30082 0.0
H959 H 0.95772 0.20259 0.32277 0.0
H960 H 0.93195 0.23515 0.52775 0.0
H961 H 0.9456 0.22266 0.46273 0.0
H962 H 0.93508 0.16703 0.44501 0.0
C963 C 0.9552 0.15453 0.28763 0.0
C964 C 0.95292 0.1947 0.34943 0.0
C965 C 0.9624 0.14715 0.24964 0.0
C966 C 0.92705 0.22341 0.51468 0.0
C967 C 0.93486 0.21624 0.47717 0.0
C968 C 0.93974 0.17499 0.41838 0.0
C969 C 0.9625 0.16885 0.30745 0.0
C970 C 0.95438 0.17707 0.34687 0.0
C971 C 0.92928 0.20073 0.45966 0.0
C972 C 0.93804 0.19263 0.42078 0.0
H973 H 0.99612 0.17334 0.23734 0.0
H974 H 0.98351 0.18624 0.30351 0.0
H975 H 0.94883 0.15375 0.3814 0.0
H976 H 0.89724 0.19332 0.53314 0.0
H977 H 0.91043 0.18113 0.46729 0.0
C978 C 0.56934 0.14453 0.26451 0.0
C979 C 0.55384 0.15031 0.28134 0.0
C980 C 0.57657 0.15194 0.22655 0.0
C981 C 0.57708 0.19152 0.16224 0.0
H982 H 0.59761 0.16442 0.06938 0.0
C983 C 0.60194 0.22095 0.99727 0.0
C984 C 0.61602 0.2136 0.97644 0.0
C985 C 0.5945 0.21342 0.03478 0.0
C986 C 0.5922 0.17225 0.09527 0.0
H987 H 0.53367 0.1683 0.27073 0.0
H988 H 0.54635 0.18126 0.20476 0.0
H989 H 0.58419 0.15071 0.13295 0.0
H990 H 0.63366 0.19281 0.97999 0.0
H991 H 0.62112 0.18002 0.04603 0.0
H992 H 0.58533 0.21307 0.12529 0.0
C993 C 0.55294 0.17103 0.22108 0.0
C994 C 0.58441 0.16434 0.1317 0.0
C995 C 0.54561 0.1635 0.25875 0.0
C996 C 0.62276 0.19879 0.99492 0.0
C997 C 0.61544 0.19134 0.03269 0.0
C998 C 0.58501 0.19945 0.12605 0.0
C999 C 0.56859 0.16544 0.20471 0.0
C1000 C 0.57672 0.17386 0.16562 0.0
C1001 C 0.60103 0.19839 0.05286 0.0
C1002 C 0.59269 0.18995 0.09192 0.0
H1003 H 0.57605 0.13443 0.28103 0.0
H1004 H 0.58868 0.14739 0.21504 0.0
H1005 H 0.57149 0.19925 0.1881 0.0
H1006 H 0.59632 0.23231 0.98386 0.0
H1007 H 0.58333 0.21917 0.04877 0.0
C1008 C 0.95221 0.64965 0.77474 0.0
C1009 C 0.96943 0.65352 0.7797 0.0
C1010 C 0.94362 0.65376 0.73544 0.0
C1011 C 0.94976 0.66495 0.61669 0.0
H1012 H 0.90771 0.68927 0.63021 0.0
C1013 C 0.90959 0.71588 0.51137 0.0
C1014 C 0.90852 0.70818 0.46923 0.0
C1015 C 0.9149 0.70675 0.54858 0.0
C1016 C 0.91938 0.68239 0.62591 0.0
H1017 H 0.99105 0.66465 0.74623 0.0
H1018 H 0.97613 0.67154 0.67786 0.0
H1019 H 0.92166 0.67764 0.69605 0.0
H1020 H 0.91175 0.68482 0.43305 0.0
H1021 H 0.92132 0.66875 0.49842 0.0
H1022 H 0.94773 0.6702 0.54666 0.0
C1023 C 0.96933 0.66519 0.70436 0.0
C1024 C 0.9273 0.67563 0.66353 0.0
C1025 C 0.9779 0.66121 0.74375 0.0
C1026 C 0.9124 0.691 0.46524 0.0
C1027 C 0.91797 0.68187 0.50249 0.0
C1028 C 0.94175 0.67158 0.57898 0.0
C1029 C 0.95206 0.66169 0.69997 0.0
C1030 C 0.94277 0.66718 0.65945 0.0
C1031 C 0.91944 0.68973 0.54443 0.0
C1032 C 0.92668 0.68071 0.58337 0.0
H1033 H 0.94531 0.64345 0.80119 0.0
H1034 H 0.93035 0.65075 0.7328 0.0
H1035 H 0.96159 0.65835 0.6125 0.0
H1036 H 0.90651 0.72907 0.5154 0.0
H1037 H 0.91606 0.7132 0.58032 0.0
C1038 C 0.61241 0.71798 0.99253 0.0
C1039 C 0.61908 0.70887 0.02872 0.0
C1040 C 0.60719 0.70976 0.95374 0.0
C1041 C 0.59332 0.66832 0.91187 0.0
H1042 H 0.5991 0.68989 0.7966 0.0
C1043 C 0.56906 0.63878 0.74645 0.0
C1044 C 0.55959 0.64981 0.71967 0.0
C1045 C 0.57842 0.64493 0.78262 0.0
C1046 C 0.59737 0.68372 0.82856 0.0
H1047 H 0.62564 0.68387 0.052 0.0
H1048 H 0.61679 0.66949 0.98376 0.0
H1049 H 0.61181 0.70242 0.86286 0.0
H1050 H 0.55305 0.67595 0.70863 0.0
H1051 H 0.56935 0.68669 0.77148 0.0
H1052 H 0.57874 0.64969 0.87735 0.0
C1053 C 0.61542 0.68303 0.98578 0.0
C1054 C 0.60461 0.69092 0.86658 0.0
C1055 C 0.62064 0.69129 0.02475 0.0
C1056 C 0.56007 0.66714 0.72896 0.0
C1057 C 0.56955 0.6733 0.76469 0.0
C1058 C 0.58616 0.66106 0.87373 0.0
C1059 C 0.60856 0.69218 0.94985 0.0
C1060 C 0.60236 0.68353 0.90888 0.0
C1061 C 0.57867 0.66226 0.79225 0.0
C1062 C 0.58781 0.66889 0.83183 0.0
H1063 H 0.61126 0.73154 0.99394 0.0
H1064 H 0.60176 0.71721 0.92708 0.0
H1065 H 0.59119 0.66237 0.94393 0.0
H1066 H 0.56883 0.62536 0.74024 0.0
H1067 H 0.58541 0.63614 0.80316 0.0
C1068 C 0.62134 0.31366 0.98306 0.0
C1069 C 0.62048 0.296 0.98096 0.0
C1070 C 0.616 0.32222 0.02147 0.0
C1071 C 0.6062 0.31563 0.14168 0.0
H1072 H 0.5777 0.35487 0.12721 0.0
C1073 C 0.57794 0.34978 0.29392 0.0
C1074 C 0.56093 0.35463 0.29061 0.0
C1075 C 0.58684 0.34448 0.25618 0.0
C1076 C 0.58559 0.34389 0.13182 0.0
H1077 H 0.61407 0.27348 0.01833 0.0
H1078 H 0.60445 0.28829 0.08435 0.0
H1079 H 0.59049 0.34185 0.06167 0.0
H1080 H 0.54023 0.35828 0.2442 0.0
H1081 H 0.55553 0.34847 0.1789 0.0
H1082 H 0.6007 0.31711 0.2114 0.0
C1083 C 0.60933 0.2956 0.05667 0.0
C1084 C 0.59311 0.33656 0.09429 0.0
C1085 C 0.61463 0.2871 0.01846 0.0
C1086 C 0.5532 0.35437 0.24832 0.0
C1087 C 0.56207 0.34898 0.21062 0.0
C1088 C 0.59864 0.3229 0.1791 0.0
C1089 C 0.60981 0.31327 0.05859 0.0
C1090 C 0.60325 0.32215 0.09871 0.0
C1091 C 0.57896 0.3438 0.21415 0.0
C1092 C 0.58803 0.33696 0.1746 0.0
H1093 H 0.62572 0.32088 0.95469 0.0
H1094 H 0.61668 0.33584 0.02204 0.0
H1095 H 0.61415 0.30469 0.14636 0.0
H1096 H 0.58435 0.3497 0.32579 0.0
H1097 H 0.59989 0.34081 0.26005 0.0
C1098 C 0.91632 0.28904 0.49941 0.0
C1099 C 0.90947 0.29771 0.53612 0.0
C1100 C 0.92148 0.2977 0.46124 0.0
C1101 C 0.93502 0.33956 0.42196 0.0
H1102 H 0.92924 0.31896 0.30546 0.0
C1103 C 0.9594 0.37026 0.25777 0.0
C1104 C 0.96865 0.35935 0.23011 0.0
C1105 C 0.95014 0.36392 0.29392 0.0
C1106 C 0.93097 0.32486 0.33776 0.0
H1107 H 0.90252 0.32237 0.56104 0.0
H1108 H 0.91134 0.33755 0.49383 0.0
H1109 H 0.91653 0.30589 0.37095 0.0
H1110 H 0.97495 0.33323 0.21766 0.0
H1111 H 0.95887 0.32219 0.28047 0.0
H1112 H 0.94965 0.35844 0.38853 0.0
C1113 C 0.91287 0.32401 0.49497 0.0
C1114 C 0.92373 0.31735 0.37534 0.0
C1115 C 0.90767 0.3153 0.53333 0.0
C1116 C 0.96811 0.34197 0.23866 0.0
C1117 C 0.95875 0.33563 0.27437 0.0
C1118 C 0.94221 0.34713 0.38424 0.0
C1119 C 0.91988 0.31529 0.45849 0.0
C1120 C 0.926 0.32437 0.41807 0.0
C1121 C 0.94977 0.34653 0.30267 0.0
C1122 C 0.94058 0.33964 0.3419 0.0
H1123 H 0.91765 0.27549 0.49994 0.0
H1124 H 0.92703 0.29058 0.43413 0.0
H1125 H 0.93714 0.34523 0.45438 0.0
H1126 H 0.95967 0.38372 0.25214 0.0
H1127 H 0.94328 0.37261 0.31503 0.0
C1128 C 0.04393 0.3488 0.2649 0.0
C1129 C 0.05434 0.3553 0.23098 0.0
C1130 C 0.05097 0.3409 0.30252 0.0
C1131 C 0.08836 0.31763 0.33945 0.0
H1132 H 0.07618 0.33131 0.45954 0.0
C1133 C 0.11048 0.28286 0.50152 0.0
C1134 C 0.11749 0.29339 0.53446 0.0
C1135 C 0.10242 0.28977 0.46396 0.0
C1136 C 0.07966 0.32733 0.42618 0.0
H1137 H 0.08032 0.35843 0.20997 0.0
H1138 H 0.09248 0.3444 0.27489 0.0
H1139 H 0.06242 0.34459 0.3952 0.0
H1140 H 0.12139 0.31944 0.55371 0.0
H1141 H 0.1071 0.33137 0.48887 0.0
H1142 H 0.10554 0.30031 0.37043 0.0
C1143 C 0.0789 0.34553 0.27259 0.0
C1144 C 0.07172 0.33486 0.38941 0.0
C1145 C 0.07191 0.3537 0.23556 0.0
C1146 C 0.11626 0.31094 0.52889 0.0
C1147 C 0.10794 0.3178 0.49192 0.0
C1148 C 0.09606 0.30987 0.37623 0.0
C1149 C 0.06853 0.339 0.30646 0.0
C1150 C 0.07616 0.33027 0.34562 0.0
C1151 C 0.10088 0.30732 0.45908 0.0
C1152 C 0.09197 0.3148 0.42 0.0
H1153 H 0.03035 0.34979 0.26234 0.0
H1154 H 0.04266 0.33595 0.32808 0.0
H1155 H 0.09196 0.31377 0.30609 0.0
H1156 H 0.11116 0.2693 0.50484 0.0
H1157 H 0.09707 0.28138 0.4392 0.0
C1158 C 0.42505 0.28592 1.0055 0.0
C1159 C 0.41711 0.29596 0.97305 0.0
C1160 C 0.43289 0.29331 0.04267 0.0
C1161 C 0.43647 0.33408 0.10571 0.0
H1162 H 0.47758 0.31387 0.15051 0.0
C1163 C 0.48161 0.36803 0.22961 0.0
C1164 C 0.487 0.35847 0.26648 0.0
C1165 C 0.47287 0.36038 0.19425 0.0
C1166 C 0.46606 0.31961 0.13853 0.0
H1167 H 0.41115 0.32167 0.95451 0.0
H1168 H 0.42514 0.3345 0.01806 0.0
H1169 H 0.46249 0.30051 0.08909 0.0
H1170 H 0.48764 0.33329 0.29463 0.0
H1171 H 0.47273 0.31999 0.23273 0.0
H1172 H 0.44043 0.35345 0.15457 0.0
C1173 C 0.42499 0.3209 0.01581 0.0
C1174 C 0.4573 0.31189 0.10342 0.0
C1175 C 0.41698 0.31352 0.97905 0.0
C1176 C 0.48366 0.34106 0.26683 0.0
C1177 C 0.47517 0.3334 0.23124 0.0
C1178 C 0.44537 0.34191 0.14039 0.0
C1179 C 0.43319 0.31094 0.0481 0.0
C1180 C 0.44235 0.31899 0.08641 0.0
C1181 C 0.46958 0.34296 0.19464 0.0
C1182 C 0.46025 0.33477 0.15726 0.0
H1183 H 0.42533 0.27235 1.00202 0.0
H1184 H 0.43874 0.28514 0.06711 0.0
H1185 H 0.42486 0.33981 0.09438 0.0
H1186 H 0.48394 0.38146 0.22832 0.0
H1187 H 0.46882 0.36807 0.16636 0.0
C1188 C 0.42694 0.72449 0.01572 0.0
C1189 C 0.41311 0.71659 0.03641 0.0
C1190 C 0.43452 0.71736 0.97783 0.0
C1191 C 0.42705 0.68722 0.88543 0.0
H1192 H 0.47575 0.68379 0.88146 0.0
C1193 C 0.45998 0.64624 0.75272 0.0
C1194 C 0.47501 0.65219 0.73352 0.0
C1195 C 0.45295 0.65423 0.78999 0.0
C1196 C 0.46215 0.68482 0.88162 0.0
H1197 H 0.39616 0.69521 0.03251 0.0
H1198 H 0.40922 0.68295 0.96643 0.0
H1199 H 0.46219 0.69817 0.94395 0.0
H1200 H 0.49464 0.67106 0.7393 0.0
H1201 H 0.48224 0.68519 0.80385 0.0
H1202 H 0.4269 0.67409 0.82309 0.0
C1203 C 0.41423 0.69465 0.97943 0.0
C1204 C 0.45437 0.69308 0.91755 0.0
C1205 C 0.40677 0.70166 0.01749 0.0
C1206 C 0.48309 0.66608 0.75335 0.0
C1207 C 0.47597 0.67417 0.79052 0.0
C1208 C 0.43481 0.67909 0.84941 0.0
C1209 C 0.42834 0.70227 0.95941 0.0
C1210 C 0.4367 0.69425 0.92011 0.0
C1211 C 0.46065 0.66851 0.80898 0.0
C1212 C 0.45248 0.67759 0.84714 0.0
H1213 H 0.43219 0.73598 0.02941 0.0
H1214 H 0.44525 0.72367 0.96295 0.0
H1215 H 0.41343 0.68812 0.88594 0.0
H1216 H 0.45347 0.63551 0.73858 0.0
H1217 H 0.44138 0.64919 0.80379 0.0
C1218 C 0.04638 0.66898 0.76623 0.0
C1219 C 0.04435 0.65138 0.76637 0.0
C1220 C 0.055 0.67706 0.73148 0.0
C1221 C 0.07094 0.67017 0.61508 0.0
H1222 H 0.09718 0.71027 0.64026 0.0
C1223 C 0.11707 0.69881 0.48662 0.0
C1224 C 0.11586 0.71625 0.47899 0.0
C1225 C 0.10866 0.69128 0.52251 0.0
C1226 C 0.0898 0.69915 0.63267 0.0
H1227 H 0.05004 0.62848 0.73013 0.0
H1228 H 0.06557 0.64242 0.67039 0.0
H1229 H 0.08213 0.69617 0.70073 0.0
H1230 H 0.10521 0.73951 0.50422 0.0
H1231 H 0.09076 0.72634 0.56767 0.0
H1232 H 0.07907 0.67297 0.54718 0.0
C1233 C 0.06008 0.65012 0.69642 0.0
C1234 C 0.08108 0.69106 0.66732 0.0
C1235 C 0.05124 0.64206 0.73091 0.0
C1236 C 0.10643 0.72605 0.50912 0.0
C1237 C 0.09818 0.71852 0.5455 0.0
C1238 C 0.07985 0.67812 0.58063 0.0
C1239 C 0.06209 0.66777 0.69607 0.0
C1240 C 0.07148 0.67643 0.65909 0.0
C1241 C 0.09896 0.70099 0.55212 0.0
C1242 C 0.0894 0.6927 0.58898 0.0
H1243 H 0.04113 0.6766 0.79283 0.0
H1244 H 0.0559 0.69065 0.73222 0.0
H1245 H 0.06344 0.65921 0.6069 0.0
H1246 H 0.12416 0.69082 0.46411 0.0
H1247 H 0.10968 0.67778 0.52699 0.0
C1248 C 0.45662 0.24289 0.77462 0.0
C1249 C 0.43984 0.23807 0.78244 0.0
C1250 C 0.46584 0.23552 0.73959 0.0
C1251 C 0.469 0.19774 0.67117 0.0
H1252 H 0.48457 0.2259 0.57365 0.0
C1253 C 0.48669 0.16771 0.50438 0.0
C1254 C 0.50022 0.1742 0.47964 0.0
C1255 C 0.48021 0.1765 0.54087 0.0
C1256 C 0.48059 0.21783 0.60083 0.0
H1257 H 0.41973 0.22147 0.76113 0.0
H1258 H 0.436 0.20811 0.70169 0.0
H1259 H 0.47292 0.2389 0.64119 0.0
H1260 H 0.51738 0.1952 0.47282 0.0
H1261 H 0.50642 0.21052 0.53791 0.0
H1262 H 0.4768 0.1767 0.63211 0.0
C1263 C 0.44197 0.21772 0.72192 0.0
C1264 C 0.47391 0.22531 0.6395 0.0
C1265 C 0.43267 0.22536 0.75594 0.0
C1266 C 0.5068 0.19003 0.49112 0.0
C1267 C 0.50052 0.19875 0.5285 0.0
C1268 C 0.47591 0.19029 0.63307 0.0
C1269 C 0.45852 0.22292 0.71281 0.0
C1270 C 0.46771 0.2153 0.67457 0.0
C1271 C 0.48739 0.19187 0.55461 0.0
C1272 C 0.48137 0.20017 0.59668 0.0
H1273 H 0.46233 0.25283 0.79422 0.0
H1274 H 0.47861 0.2397 0.73324 0.0
H1275 H 0.46446 0.18974 0.69791 0.0
H1276 H 0.48128 0.15559 0.49597 0.0
H1277 H 0.4697 0.17103 0.55878 0.0
C1278 C 0.03759 0.16857 0.99047 0.0
C1279 C 0.03174 0.17624 0.0299 0.0
C1280 C 0.04394 0.17818 0.95531 0.0
C1281 C 0.06309 0.21882 0.92701 0.0
H1282 H 0.05204 0.20511 0.80599 0.0
C1283 C 0.10455 0.23649 0.7772 0.0
C1284 C 0.09705 0.24094 0.73628 0.0
C1285 C 0.09486 0.23044 0.81262 0.0
C1286 C 0.05509 0.20928 0.83948 0.0
H1287 H 0.02831 0.20014 0.06351 0.0
H1288 H 0.03972 0.21711 1.0017 0.0
H1289 H 0.03816 0.1915 0.86919 0.0
H1290 H 0.07338 0.2424 0.70051 0.0
H1291 H 0.05629 0.23155 0.76277 0.0
H1292 H 0.08019 0.23644 0.89728 0.0
C1293 C 0.03928 0.20355 0.99826 0.0
C1294 C 0.04727 0.20135 0.87579 0.0
C1295 C 0.03278 0.19385 0.03367 0.0
C1296 C 0.07953 0.23902 0.73153 0.0
C1297 C 0.06978 0.23282 0.76717 0.0
C1298 C 0.07097 0.22669 0.89069 0.0
C1299 C 0.0447 0.1958 0.95838 0.0
C1300 C 0.05147 0.20573 0.92003 0.0
C1301 C 0.07735 0.22859 0.80831 0.0
C1302 C 0.06737 0.22174 0.84649 0.0
H1303 H 0.0371 0.15503 0.98635 0.0
H1304 H 0.04837 0.17174 0.92566 0.0
H1305 H 0.06664 0.22249 0.96056 0.0
H1306 H 0.11801 0.23774 0.78218 0.0
H1307 H 0.1012 0.22698 0.84333 0.0
C1308 C 0.03542 0.84361 0.02121 0.0
C1309 C 0.02891 0.83548 0.98318 0.0
C1310 C 0.04235 0.83446 0.05634 0.0
C1311 C 0.04407 0.79317 0.11163 0.0
H1312 H 0.08574 0.81122 0.15949 0.0
C1313 C 0.07666 0.77034 0.27829 0.0
C1314 C 0.09425 0.76846 0.27531 0.0
C1315 C 0.06754 0.77751 0.2426 0.0
C1316 C 0.07414 0.80594 0.14655 0.0
H1317 H 0.0244 0.81116 0.95273 0.0
H1318 H 0.03684 0.79492 0.01482 0.0
H1319 H 0.0726 0.82472 0.09572 0.0
H1320 H 0.11591 0.77235 0.23202 0.0
H1321 H 0.10024 0.78456 0.17106 0.0
H1322 H 0.04592 0.77418 0.16279 0.0
C1323 C 0.0364 0.80852 0.01707 0.0
C1324 C 0.06653 0.81376 0.11006 0.0
C1325 C 0.02942 0.81779 0.98141 0.0
C1326 C 0.10241 0.77369 0.23593 0.0
C1327 C 0.09341 0.78079 0.20077 0.0
C1328 C 0.05172 0.7853 0.14857 0.0
C1329 C 0.04309 0.81683 0.05476 0.0
C1330 C 0.05138 0.80756 0.09215 0.0
C1331 C 0.07591 0.78299 0.20363 0.0
C1332 C 0.06692 0.79158 0.16626 0.0
H1333 H 0.03518 0.85721 0.02411 0.0
H1334 H 0.0471 0.84128 0.08505 0.0
H1335 H 0.03233 0.78817 0.09882 0.0
H1336 H 0.07 0.76634 0.30803 0.0
H1337 H 0.05404 0.77909 0.24584 0.0
C1338 C 0.4524 0.76842 0.243 0.0
C1339 C 0.435 0.76536 0.24696 0.0
C1340 C 0.46146 0.77552 0.27888 0.0
C1341 C 0.45409 0.80198 0.37833 0.0
H1342 H 0.49797 0.78715 0.41951 0.0
C1343 C 0.49249 0.84153 0.50057 0.0
C1344 C 0.50029 0.83362 0.5372 0.0
C1345 C 0.48543 0.83213 0.46605 0.0
C1346 C 0.48565 0.79131 0.40856 0.0
H1347 H 0.41369 0.76686 0.29238 0.0
H1348 H 0.42927 0.77896 0.35378 0.0
H1349 H 0.48439 0.77279 0.35611 0.0
H1350 H 0.50692 0.80948 0.56584 0.0
H1351 H 0.49433 0.79281 0.50475 0.0
H1352 H 0.45511 0.82035 0.43033 0.0
C1353 C 0.43596 0.77621 0.3231 0.0
C1354 C 0.47798 0.78324 0.37195 0.0
C1355 C 0.42702 0.76919 0.28768 0.0
C1356 C 0.5009 0.81593 0.53825 0.0
C1357 C 0.49384 0.80642 0.50315 0.0
C1358 C 0.46172 0.81003 0.41445 0.0
C1359 C 0.45322 0.77973 0.31912 0.0
C1360 C 0.46206 0.78846 0.35656 0.0
C1361 C 0.4859 0.81448 0.46682 0.0
C1362 C 0.47762 0.80489 0.42999 0.0
H1363 H 0.45893 0.76552 0.21218 0.0
H1364 H 0.47476 0.77812 0.27476 0.0
H1365 H 0.44191 0.80646 0.36717 0.0
H1366 H 0.49181 0.85512 0.49834 0.0
H1367 H 0.47967 0.83878 0.43837 0.0
C1368 C 0.57531 0.86983 0.48605 0.0
C1369 C 0.57975 0.8649 0.52931 0.0
C1370 C 0.58771 0.87237 0.45386 0.0
C1371 C 0.61424 0.87514 0.38505 0.0
H1372 H 0.64762 0.84009 0.39866 0.0
C1373 C 0.627 0.83372 0.23694 0.0
C1374 C 0.62695 0.8166 0.24828 0.0
C1375 C 0.63056 0.84589 0.26932 0.0
C1376 C 0.63825 0.84983 0.39402 0.0
H1377 H 0.60042 0.86071 0.57492 0.0
H1378 H 0.62234 0.86615 0.51952 0.0
H1379 H 0.63437 0.85165 0.46398 0.0
H1380 H 0.63157 0.79855 0.30073 0.0
H1381 H 0.63645 0.81936 0.35789 0.0
H1382 H 0.61619 0.87151 0.31504 0.0
C1383 C 0.60931 0.86719 0.50934 0.0
C1384 C 0.63082 0.85683 0.43194 0.0
C1385 C 0.5968 0.86413 0.54124 0.0
C1386 C 0.63155 0.81173 0.29145 0.0
C1387 C 0.63457 0.82382 0.32413 0.0
C1388 C 0.62104 0.86754 0.3471 0.0
C1389 C 0.60494 0.87041 0.46448 0.0
C1390 C 0.61752 0.86846 0.4277 0.0
C1391 C 0.63344 0.84116 0.31409 0.0
C1392 C 0.63195 0.85365 0.35126 0.0
H1393 H 0.56219 0.87047 0.47626 0.0
H1394 H 0.58351 0.87455 0.41999 0.0
H1395 H 0.605 0.88501 0.38042 0.0
H1396 H 0.62383 0.83764 0.20332 0.0
H1397 H 0.63017 0.859 0.25955 0.0
C1398 C 0.8929 0.82524 0.26201 0.0
C1399 C 0.90913 0.82435 0.28103 0.0
C1400 C 0.88924 0.8372 0.22919 0.0
C1401 C 0.90681 0.87366 0.16628 0.0
H1402 H 0.90077 0.8442 0.06442 0.0
C1403 C 0.9519 0.87313 0.02477 0.0
C1404 C 0.94828 0.86467 0.9848 0.0
C1405 C 0.93932 0.87573 0.05644 0.0
C1406 C 0.90192 0.85301 0.09184 0.0
H1407 H 0.93347 0.83684 0.28398 0.0
H1408 H 0.92706 0.85754 0.22751 0.0
H1409 H 0.89136 0.83515 0.13698 0.0
H1410 H 0.92837 0.85417 0.94399 0.0
H1411 H 0.90615 0.85904 0.99901 0.0
H1412 H 0.91837 0.89109 0.1213 0.0
C1413 C 0.91716 0.84898 0.23778 0.0
C1414 C 0.89648 0.84775 0.13381 0.0
C1415 C 0.92091 0.83692 0.27008 0.0
C1416 C 0.93152 0.86033 0.97517 0.0
C1417 C 0.91883 0.86317 1.00662 0.0
C1418 C 0.91202 0.87907 0.12407 0.0
C1419 C 0.90162 0.84868 0.21536 0.0
C1420 C 0.90022 0.85738 0.17185 0.0
C1421 C 0.92275 0.87008 0.04868 0.0
C1422 C 0.91105 0.86811 0.08718 0.0
H1423 H 0.88321 0.81626 0.27077 0.0
H1424 H 0.8771 0.8368 0.21267 0.0
H1425 H 0.90948 0.88148 0.19507 0.0
H1426 H 0.96472 0.87659 0.03309 0.0
H1427 H 0.94302 0.88088 0.08846 0.0
C1428 C 0.89636 0.1903 0.78414 0.0
C1429 C 0.90442 0.18642 0.74376 0.0
C1430 C 0.8936 0.1778 0.81601 0.0
C1431 C 0.91573 0.14001 0.85013 0.0
H1432 H 0.88818 0.14777 0.95502 0.0
C1433 C 0.9467 0.1323 0.01421 0.0
C1434 C 0.94689 0.14834 0.03416 0.0
C1435 C 0.93392 0.12793 0.98429 0.0
C1436 C 0.8958 0.1451 0.92583 0.0
H1437 H 0.914 0.16623 0.70245 0.0
H1438 H 0.90885 0.14418 0.75775 0.0
H1439 H 0.87822 0.15709 0.88196 0.0
H1440 H 0.93253 0.17121 0.04397 0.0
H1441 H 0.91068 0.16396 0.99075 0.0
H1442 H 0.93383 0.12919 0.89384 0.0
C1443 C 0.90515 0.15697 0.76555 0.0
C1444 C 0.89015 0.15052 0.88398 0.0
C1445 C 0.90816 0.16956 0.73393 0.0
C1446 C 0.93299 0.159 0.028 0.0
C1447 C 0.92026 0.15466 0.99802 0.0
C1448 C 0.92128 0.13447 0.89173 0.0
C1449 C 0.89872 0.1611 0.80799 0.0
C1450 C 0.90077 0.14939 0.84643 0.0
C1451 C 0.92121 0.13956 0.97358 0.0
C1452 C 0.91205 0.13831 0.93049 0.0
H1453 H 0.89334 0.2032 0.79256 0.0
H1454 H 0.88881 0.18164 0.8483 0.0
H1455 H 0.92428 0.13871 0.82218 0.0
H1456 H 0.95711 0.12368 0.01854 0.0
H1457 H 0.93483 0.11608 0.96655 0.0
C1458 C 0.59838 0.14688 0.47661 0.0
C1459 C 0.58159 0.14299 0.48715 0.0
C1460 C 0.6112 0.14388 0.50758 0.0
C1461 C 0.61868 0.1286 0.62521 0.0
H1462 H 0.63947 0.17254 0.63517 0.0
C1463 C 0.61161 0.16993 0.77304 0.0
C1464 C 0.62185 0.18421 0.77834 0.0
C1465 C 0.61578 0.1576 0.7418 0.0
C1466 C 0.63435 0.15992 0.63301 0.0
H1467 H 0.56518 0.13161 0.53637 0.0
H1468 H 0.58718 0.12708 0.59109 0.0
H1469 H 0.62938 0.16321 0.56389 0.0
H1470 H 0.64583 0.19541 0.75983 0.0
H1471 H 0.65322 0.17375 0.70602 0.0
H1472 H 0.62228 0.12625 0.69588 0.0
C1473 C 0.59076 0.13201 0.55872 0.0
C1474 C 0.62849 0.1545 0.59162 0.0
C1475 C 0.57803 0.13475 0.52747 0.0
C1476 C 0.63749 0.18473 0.7562 0.0
C1477 C 0.64173 0.17231 0.72517 0.0
C1478 C 0.62448 0.13409 0.66685 0.0
C1479 C 0.60738 0.1373 0.55007 0.0
C1480 C 0.61932 0.13942 0.58799 0.0
C1481 C 0.63034 0.15927 0.71534 0.0
C1482 C 0.6311 0.15042 0.67168 0.0
H1483 H 0.60148 0.15284 0.44513 0.0
H1484 H 0.62392 0.14772 0.49931 0.0
H1485 H 0.61225 0.1166 0.62318 0.0
H1486 H 0.59978 0.16884 0.79075 0.0
H1487 H 0.60669 0.14772 0.73541 0.0
C1488 C 0.00635 0.69016 0.99233 0.0
C1489 C 0.00587 0.67249 0.99403 0.0
C1490 C 1.00029 0.6998 0.02815 0.0
C1491 C 0.98815 0.69715 0.14871 0.0
H1492 H 0.9606 0.73596 0.12045 0.0
C1493 C 0.95556 0.73851 0.2855 0.0
C1494 C 0.93869 0.74264 0.27627 0.0
C1495 C 0.96573 0.73111 0.25236 0.0
C1496 C 0.96827 0.72516 0.129 0.0
H1497 H 0.9988 0.6511 0.03503 0.0
H1498 H 0.98805 0.66781 0.09687 0.0
H1499 H 0.97453 0.72066 0.06052 0.0
H1500 H 0.91936 0.74228 0.2249 0.0
H1501 H 0.93685 0.7295 0.16809 0.0
H1502 H 0.98126 0.70132 0.21716 0.0
C1503 C 0.99334 0.6743 0.0683 0.0
C1504 C 0.97643 0.71647 0.09458 0.0
C1505 C 0.99938 0.66469 0.03256 0.0
C1506 C 0.9323 0.73933 0.23331 0.0
C1507 C 0.94241 0.73209 0.20042 0.0
C1508 C 0.97998 0.70587 0.18321 0.0
C1509 C 0.9936 0.69199 0.06656 0.0
C1510 C 0.98623 0.70214 0.10381 0.0
C1511 C 0.95926 0.72788 0.20932 0.0
C1512 C 0.96962 0.71977 0.17367 0.0
H1513 H 0.01134 0.69656 0.96323 0.0
H1514 H 1.00087 0.71339 0.02577 0.0
H1515 H 0.99581 0.68633 0.15719 0.0
H1516 H 0.96084 0.74088 0.31826 0.0
H1517 H 0.97869 0.72805 0.26029 0.0
C1518 C 0.57612 0.73888 0.23467 0.0
C1519 C 0.59382 0.738 0.2356 0.0
C1520 C 0.56651 0.73169 0.26938 0.0
C1521 C 0.56963 0.69895 0.35671 0.0
H1522 H 0.53252 0.72175 0.41531 0.0
C1523 C 0.52825 0.66425 0.4827 0.0
C1524 C 0.5243 0.67225 0.5233 0.0
C1525 C 0.53546 0.67316 0.44746 0.0
C1526 C 0.54292 0.71529 0.39939 0.0
H1527 H 0.61522 0.7289 0.27385 0.0
H1528 H 0.5987 0.71652 0.33322 0.0
H1529 H 0.54718 0.73546 0.35266 0.0
H1530 H 0.52448 0.69616 0.55809 0.0
H1531 H 0.5374 0.71191 0.49591 0.0
H1532 H 0.56573 0.67896 0.40324 0.0
C1533 C 0.59213 0.7226 0.30589 0.0
C1534 C 0.55118 0.72305 0.36321 0.0
C1535 C 0.60163 0.72979 0.27173 0.0
C1536 C 0.52745 0.68962 0.52735 0.0
C1537 C 0.53474 0.69864 0.49167 0.0
C1538 C 0.5614 0.69123 0.39244 0.0
C1539 C 0.57446 0.72334 0.30523 0.0
C1540 C 0.56473 0.71498 0.34168 0.0
C1541 C 0.53905 0.6904 0.45153 0.0
C1542 C 0.54793 0.69924 0.4143 0.0
H1543 H 0.56974 0.74521 0.20745 0.0
H1544 H 0.5529 0.73241 0.26785 0.0
H1545 H 0.57992 0.69231 0.34074 0.0
H1546 H 0.52585 0.65094 0.47798 0.0
H1547 H 0.53828 0.66647 0.41683 0.0
C1548 C 0.52788 0.34479 0.53699 0.0
C1549 C 0.52278 0.33696 0.49708 0.0
C1550 C 0.53417 0.33528 0.57262 0.0
C1551 C 0.55481 0.29479 0.59695 0.0
H1552 H 0.54611 0.30714 0.72026 0.0
C1553 C 0.59845 0.27397 0.73874 0.0
C1554 C 0.59149 0.26847 0.77942 0.0
C1555 C 0.58837 0.28123 0.70584 0.0
C1556 C 0.54851 0.30339 0.68605 0.0
H1557 H 0.52 0.31293 0.46362 0.0
H1558 H 0.53097 0.29627 0.52594 0.0
H1559 H 0.5311 0.32153 0.65996 0.0
H1560 H 0.56839 0.26656 0.81764 0.0
H1561 H 0.55059 0.27948 0.7597 0.0
H1562 H 0.57228 0.27676 0.62288 0.0
C1563 C 0.53024 0.30982 0.52952 0.0
C1564 C 0.54005 0.31176 0.65143 0.0
C1565 C 0.52389 0.31935 0.49384 0.0
C1566 C 0.57413 0.27068 0.78668 0.0
C1567 C 0.56397 0.27809 0.75355 0.0
C1568 C 0.56329 0.28649 0.63148 0.0
C1569 C 0.53556 0.31768 0.5693 0.0
C1570 C 0.54332 0.30777 0.60638 0.0
C1571 C 0.57098 0.28326 0.7125 0.0
C1572 C 0.56052 0.29091 0.67642 0.0
H1573 H 0.5272 0.35834 0.54066 0.0
H1574 H 0.53837 0.34182 0.60236 0.0
H1575 H 0.55776 0.29144 0.56277 0.0
H1576 H 0.61178 0.27258 0.73196 0.0
H1577 H 0.59428 0.28538 0.67513 0.0
C1578 C 0.99913 0.31812 0.03356 0.0
C1579 C 0.99951 0.33581 0.03181 0.0
C1580 C 0.99189 0.3088 0.99839 0.0
C1581 C 0.96123 0.31354 0.90612 0.0
H1582 H 0.98198 0.27378 0.85497 0.0
C1583 C 0.92551 0.27233 0.78169 0.0
C1584 C 0.93381 0.26679 0.74286 0.0
C1585 C 0.93438 0.27979 0.81662 0.0
C1586 C 0.97612 0.28494 0.86874 0.0
H1587 H 0.99263 0.35752 0.99163 0.0
H1588 H 0.98019 0.34148 0.93134 0.0
H1589 H 0.99563 0.28831 0.91787 0.0
H1590 H 0.95819 0.26448 0.71091 0.0
H1591 H 0.97389 0.2778 0.77259 0.0
H1592 H 0.94187 0.31047 0.85723 0.0
C1593 C 0.98528 0.3347 0.9597 0.0
C1594 C 0.98382 0.29313 0.90509 0.0
C1595 C 0.9925 0.34392 0.99439 0.0
C1596 C 0.95141 0.2687 0.74024 0.0
C1597 C 0.96039 0.27621 0.77565 0.0
C1598 C 0.95355 0.30538 0.87021 0.0
C1599 C 0.98478 0.31704 0.96116 0.0
C1600 C 0.97647 0.3076 0.92405 0.0
C1601 C 0.95189 0.28203 0.81404 0.0
C1602 C 0.96082 0.29094 0.85106 0.0
H1603 H 1.00452 0.3115 0.06178 0.0
H1604 H 0.99163 0.2952 1.00063 0.0
H1605 H 0.95512 0.32454 0.92007 0.0
H1606 H 0.91199 0.27097 0.78528 0.0
H1607 H 0.92744 0.28381 0.84592 0.0
C1608 C 0.11685 0.33665 0.7403 0.0
C1609 C 0.12664 0.32198 0.73638 0.0
C1610 C 0.12028 0.3484 0.77372 0.0
C1611 C 0.13548 0.34456 0.88657 0.0
H1612 H 0.1147 0.38857 0.89486 0.0
C1613 C 0.0982 0.35869 0.04006 0.0
C1614 C 0.08166 0.36311 0.02837 0.0
C1615 C 0.1114 0.3613 0.01003 0.0
C1616 C 0.12074 0.37636 0.89326 0.0
H1617 H 0.14937 0.30964 0.76032 0.0
H1618 H 0.15556 0.33034 0.81739 0.0
H1619 H 0.12585 0.37891 0.82331 0.0
H1620 H 0.0661 0.37505 0.97824 0.0
H1621 H 0.08879 0.37887 0.92492 0.0
H1622 H 0.12917 0.34122 0.95489 0.0
C1623 C 0.14484 0.33243 0.79567 0.0
C1624 C 0.12716 0.37085 0.85228 0.0
C1625 C 0.14128 0.32054 0.76266 0.0
C1626 C 0.07875 0.37149 0.9879 0.0
C1627 C 0.09187 0.37383 0.95752 0.0
C1628 C 0.12907 0.35004 0.92731 0.0
C1629 C 0.13369 0.34584 0.80365 0.0
C1630 C 0.13339 0.35435 0.84784 0.0
C1631 C 0.10821 0.36798 0.96731 0.0
C1632 C 0.12044 0.36544 0.93029 0.0
H1633 H 0.10589 0.33859 0.71951 0.0
H1634 H 0.11141 0.35859 0.7785 0.0
H1635 H 0.14021 0.3318 0.88477 0.0
H1636 H 0.10077 0.35261 0.07171 0.0
H1637 H 0.1239 0.35706 0.01916 0.0
C1638 C 0.42473 0.34065 0.80474 0.0
C1639 C 0.41704 0.32586 0.78907 0.0
C1640 C 0.42303 0.35571 0.78111 0.0
C1641 C 0.40458 0.37379 0.67563 0.0
H1642 H 0.45138 0.38511 0.65455 0.0
C1643 C 0.43569 0.36681 0.51163 0.0
C1644 C 0.45093 0.37496 0.5013 0.0
C1645 C 0.42665 0.37116 0.54976 0.0
C1646 C 0.43812 0.38273 0.66035 0.0
H1647 H 0.4002 0.31549 0.7394 0.0
H1648 H 0.39778 0.34138 0.69694 0.0
H1649 H 0.44335 0.37289 0.72484 0.0
H1650 H 0.46727 0.39576 0.52003 0.0
H1651 H 0.45174 0.40292 0.58767 0.0
H1652 H 0.39988 0.38212 0.60873 0.0
C1653 C 0.40482 0.34168 0.7279 0.0
C1654 C 0.43345 0.37564 0.70106 0.0
C1655 C 0.40632 0.32672 0.75196 0.0
C1656 C 0.45597 0.38874 0.52776 0.0
C1657 C 0.44694 0.39303 0.56624 0.0
C1658 C 0.40929 0.38083 0.6347 0.0
C1659 C 0.41391 0.35613 0.74083 0.0
C1660 C 0.41691 0.36973 0.70762 0.0
C1661 C 0.43265 0.38371 0.57877 0.0
C1662 C 0.42638 0.38397 0.62543 0.0
H1663 H 0.43267 0.34037 0.83414 0.0
H1664 H 0.42984 0.36669 0.79267 0.0
H1665 H 0.3916 0.36996 0.68032 0.0
H1666 H 0.43123 0.35623 0.49225 0.0
H1667 H 0.41581 0.36356 0.55851 0.0
C1668 C 0.43108 0.65445 0.51545 0.0
C1669 C 0.44415 0.64332 0.527 0.0
C1670 C 0.41961 0.65025 0.48202 0.0
C1671 C 0.42313 0.63054 0.37737 0.0
H1672 H 0.37874 0.65003 0.36281 0.0
C1673 C 0.41123 0.66759 0.22237 0.0
C1674 C 0.40601 0.6839 0.23392 0.0
C1675 C 0.40834 0.65412 0.25143 0.0
C1676 C 0.39107 0.64434 0.3661 0.0
H1677 H 0.45374 0.61796 0.5163 0.0
H1678 H 0.43426 0.61113 0.45625 0.0
H1679 H 0.38798 0.64084 0.43663 0.0
H1680 H 0.39241 0.69869 0.28277 0.0
H1681 H 0.38801 0.67569 0.33408 0.0
H1682 H 0.42726 0.63589 0.30875 0.0
C1683 C 0.43301 0.62311 0.47325 0.0
C1684 C 0.39628 0.63895 0.40833 0.0
C1685 C 0.44437 0.62721 0.50721 0.0
C1686 C 0.39658 0.68625 0.27301 0.0
C1687 C 0.39392 0.67291 0.30234 0.0
C1688 C 0.41806 0.63619 0.33541 0.0
C1689 C 0.421 0.6349 0.45903 0.0
C1690 C 0.41285 0.6333 0.41482 0.0
C1691 C 0.40052 0.65682 0.29304 0.0
C1692 C 0.40254 0.64454 0.33021 0.0
H1693 H 0.43025 0.66688 0.52991 0.0
H1694 H 0.41061 0.6597 0.47149 0.0
H1695 H 0.43596 0.62613 0.38125 0.0
H1696 H 0.41814 0.66539 0.19173 0.0
H1697 H 0.41321 0.64183 0.24258 0.0
C1698 C 0.12757 0.68765 0.24154 0.0
C1699 C 0.12129 0.68578 0.28491 0.0
C1700 C 0.12897 0.6737 0.21357 0.0
C1701 C 0.10715 0.63307 0.20136 0.0
H1702 H 0.12725 0.63863 0.08454 0.0
C1703 C 0.09142 0.62771 1.00115 0.0
C1704 C 0.07448 0.63234 1.00645 0.0
C1705 C 0.10146 0.62441 0.0385 0.0
C1706 C 0.12171 0.6363 0.11698 0.0
H1707 H 0.11364 0.66792 0.33547 0.0
H1708 H 0.11695 0.64326 0.28757 0.0
H1709 H 0.14061 0.65121 0.1487 0.0
H1710 H 0.05434 0.63587 0.05412 0.0
H1711 H 0.07172 0.63113 0.11906 0.0
H1712 H 0.0885 0.61781 0.16982 0.0
C1713 C 0.11999 0.65552 0.27404 0.0
C1714 C 0.12928 0.64388 0.15395 0.0
C1715 C 0.11815 0.66959 0.30161 0.0
C1716 C 0.06738 0.63231 0.04924 0.0
C1717 C 0.07743 0.6294 0.08657 0.0
C1718 C 0.09995 0.62497 0.16469 0.0
C1719 C 0.12442 0.65749 0.22876 0.0
C1720 C 0.12109 0.64384 0.19563 0.0
C1721 C 0.09482 0.62615 0.08189 0.0
C1722 C 0.10612 0.62799 0.1214 0.0
H1723 H 0.13005 0.70006 0.2281 0.0
H1724 H 0.13225 0.67601 0.17904 0.0
H1725 H 0.10058 0.63223 0.23294 0.0
H1726 H 0.09703 0.62728 0.9682 0.0
H1727 H 0.11462 0.62144 0.03334 0.0
loop_
_geom_bond_atom_site_label_1
_geom_bond_atom_site_label_2
_geom_bond_distance
_geom_bond_site_symmetry_2
_ccdc_geom_bond_type
Co0 N4 2.148 . S
Co0 N10 2.128 . S
Co0 N20 2.194 . S
Co0 O25 2.351 . S
Co0 O26 2.155 . S
Co0 O27 2.096 . S
C1 N4 1.301 . S
C1 N5 1.328 . S
C1 H6 0.930 . S
C2 C3 1.333 . S
C2 N4 1.317 . S
C2 H7 0.930 . S
C3 C2 1.333 . S
C3 N5 1.350 . S
C3 H29 0.931 . S
N4 Co0 2.148 . S
N4 C1 1.301 . S
N4 C2 1.317 . S
N5 C1 1.328 . S
N5 C3 1.350 . S
H6 C1 0.930 . S
H7 C2 0.930 . S
C8 O9 1.224 . S
C8 O27 1.247 . S
O9 C8 1.224 . S
N10 Co0 2.128 . S
N10 C11 1.355 . S
N10 C13 1.311 . S
C11 N10 1.355 . S
C11 C12 1.363 . S
C11 H23 0.929 . S
C12 C11 1.363 . S
C12 N14 1.375 . S
C12 H30 0.931 . S
C13 N10 1.311 . S
C13 N14 1.347 . S
C13 H24 0.929 . S
N14 C12 1.375 . S
N14 C13 1.347 . S
C15 C18 1.365 . S
C15 N20 1.328 . S
C15 H21 0.929 . S
C16 C17 1.362 . S
C16 C19 1.378 . S
C16 H31 0.929 . S
C17 C16 1.362 . S
C17 C18 1.366 . S
C18 C15 1.365 . S
C18 C17 1.366 . S
C18 H32 0.930 . S
C19 C16 1.378 . S
C19 N20 1.315 . S
C19 H22 0.930 . S
N20 Co0 2.194 . S
N20 C15 1.328 . S
N20 C19 1.315 . S
H21 C15 0.929 . S
H22 C19 0.930 . S
H23 C11 0.929 . S
H24 C13 0.929 . S
O25 Co0 2.351 . S
O25 C28 1.244 . S
O26 Co0 2.155 . S
O26 C28 1.240 . S
O27 Co0 2.096 . S
O27 C8 1.247 . S
C28 O25 1.244 . S
C28 O26 1.240 . S
H29 C3 0.931 . S
H30 C12 0.931 . S
H31 C16 0.929 . S
H32 C18 0.930 . S
Co33 N37 2.148 . S
Co33 N43 2.128 . S
Co33 N53 2.194 . S
Co33 O58 2.351 . S
Co33 O59 2.155 . S
Co33 O60 2.096 . S
C34 N37 1.301 . S
C34 N38 1.328 . S
C34 H39 0.930 . S
C35 C36 1.333 . S
C35 N37 1.317 . S
C35 H40 0.930 . S
C36 C35 1.333 . S
C36 N38 1.350 . S
C36 H62 0.931 . S
N37 Co33 2.148 . S
N37 C34 1.301 . S
N37 C35 1.317 . S
N38 C34 1.328 . S
N38 C36 1.350 . S
H39 C34 0.930 . S
H40 C35 0.930 . S
C41 O42 1.224 . S
C41 O60 1.247 . S
O42 C41 1.224 . S
N43 Co33 2.128 . S
N43 C44 1.355 . S
N43 C46 1.311 . S
C44 N43 1.355 . S
C44 C45 1.363 . S
C44 H56 0.929 . S
C45 C44 1.363 . S
C45 N47 1.375 . S
C45 H63 0.931 . S
C46 N43 1.311 . S
C46 N47 1.347 . S
C46 H57 0.929 . S
N47 C45 1.375 . S
N47 C46 1.347 . S
C48 C51 1.365 . S
C48 N53 1.328 . S
C48 H54 0.929 . S
C49 C50 1.362 . S
C49 C52 1.378 . S
C49 H64 0.929 . S
C50 C49 1.362 . S
C50 C51 1.366 . S
C51 C48 1.365 . S
C51 C50 1.366 . S
C51 H65 0.930 . S
C52 C49 1.378 . S
C52 N53 1.315 . S
C52 H55 0.930 . S
N53 Co33 2.194 . S
N53 C48 1.328 . S
N53 C52 1.315 . S
H54 C48 0.929 . S
H55 C52 0.930 . S
H56 C44 0.929 . S
H57 C46 0.929 . S
O58 Co33 2.351 . S
O58 C61 1.244 . S
O59 Co33 2.155 . S
O59 C61 1.240 . S
O60 Co33 2.096 . S
O60 C41 1.247 . S
C61 O58 1.244 . S
C61 O59 1.240 . S
H62 C36 0.931 . S
H63 C45 0.931 . S
H64 C49 0.929 . S
H65 C51 0.930 . S
Co66 N70 2.148 1_455 S
Co66 N76 2.128 . S
Co66 N86 2.194 . S
Co66 O91 2.351 . S
Co66 O92 2.155 . S
Co66 O93 2.096 1_455 S
C67 N70 1.301 . S
C67 N71 1.328 . S
C67 H72 0.930 . S
C68 C69 1.333 . S
C68 N70 1.317 . S
C68 H73 0.930 . S
C69 C68 1.333 . S
C69 N71 1.350 . S
C69 H95 0.931 . S
N70 Co66 2.148 1_655 S
N70 C67 1.301 . S
N70 C68 1.317 . S
N71 C67 1.328 . S
N71 C69 1.350 . S
H72 C67 0.930 . S
H73 C68 0.930 . S
C74 O75 1.224 . S
C74 O93 1.247 . S
O75 C74 1.224 . S
N76 Co66 2.128 . S
N76 C77 1.355 . S
N76 C79 1.311 . S
C77 N76 1.355 . S
C77 C78 1.363 . S
C77 H89 0.929 . S
C78 C77 1.363 . S
C78 N80 1.375 . S
C78 H96 0.931 . S
C79 N76 1.311 . S
C79 N80 1.347 . S
C79 H90 0.929 . S
N80 C78 1.375 . S
N80 C79 1.347 . S
C81 C84 1.365 . S
C81 N86 1.328 . S
C81 H87 0.929 . S
C82 C83 1.362 1_655 S
C82 C85 1.378 . S
C82 H97 0.929 . S
C83 C82 1.362 1_455 S
C83 C84 1.366 . S
C84 C81 1.365 . S
C84 C83 1.366 . S
C84 H98 0.930 . S
C85 C82 1.378 . S
C85 N86 1.315 1_655 S
C85 H88 0.930 . S
N86 Co66 2.194 . S
N86 C81 1.328 . S
N86 C85 1.315 1_455 S
H87 C81 0.929 . S
H88 C85 0.930 . S
H89 C77 0.929 . S
H90 C79 0.929 . S
O91 Co66 2.351 . S
O91 C94 1.244 . S
O92 Co66 2.155 . S
O92 C94 1.240 . S
O93 Co66 2.096 1_655 S
O93 C74 1.247 . S
C94 O91 1.244 . S
C94 O92 1.240 . S
H95 C69 0.931 . S
H96 C78 0.931 . S
H97 C82 0.929 . S
H98 C84 0.930 . S
Co99 N103 2.148 . S
Co99 N109 2.128 . S
Co99 N119 2.194 . S
Co99 O124 2.351 . S
Co99 O125 2.155 . S
Co99 O126 2.096 . S
C100 N103 1.301 . S
C100 N104 1.328 . S
C100 H105 0.930 . S
C101 C102 1.333 . S
C101 N103 1.317 . S
C101 H106 0.930 . S
C102 C101 1.333 . S
C102 N104 1.350 . S
C102 H128 0.931 . S
N103 Co99 2.148 . S
N103 C100 1.301 . S
N103 C101 1.317 . S
N104 C100 1.328 . S
N104 C102 1.350 . S
H105 C100 0.930 . S
H106 C101 0.930 . S
C107 O108 1.224 . S
C107 O126 1.247 . S
O108 C107 1.224 . S
N109 Co99 2.128 . S
N109 C110 1.355 . S
N109 C112 1.311 . S
C110 N109 1.355 . S
C110 C111 1.363 . S
C110 H122 0.929 . S
C111 C110 1.363 . S
C111 N113 1.375 . S
C111 H129 0.931 . S
C112 N109 1.311 . S
C112 N113 1.347 . S
C112 H123 0.929 . S
N113 C111 1.375 . S
N113 C112 1.347 . S
C114 C117 1.365 . S
C114 N119 1.328 . S
C114 H120 0.929 . S
C115 C116 1.362 . S
C115 C118 1.378 . S
C115 H130 0.929 . S
C116 C115 1.362 . S
C116 C117 1.366 . S
C117 C114 1.365 . S
C117 C116 1.366 . S
C117 H131 0.930 . S
C118 C115 1.378 . S
C118 N119 1.315 . S
C118 H121 0.930 . S
N119 Co99 2.194 . S
N119 C114 1.328 . S
N119 C118 1.315 . S
H120 C114 0.929 . S
H121 C118 0.930 . S
H122 C110 0.929 . S
H123 C112 0.929 . S
O124 Co99 2.351 . S
O124 C127 1.244 . S
O125 Co99 2.155 . S
O125 C127 1.240 . S
O126 Co99 2.096 . S
O126 C107 1.247 . S
C127 O124 1.244 . S
C127 O125 1.240 . S
H128 C102 0.931 . S
H129 C111 0.931 . S
H130 C115 0.929 . S
H131 C117 0.930 . S
Co132 N136 2.148 . S
Co132 N142 2.128 . S
Co132 N152 2.194 . S
Co132 O157 2.351 . S
Co132 O158 2.155 . S
Co132 O159 2.096 . S
C133 N136 1.301 . S
C133 N137 1.328 . S
C133 H138 0.930 . S
C134 C135 1.333 . S
C134 N136 1.317 . S
C134 H139 0.930 . S
C135 C134 1.333 . S
C135 N137 1.350 . S
C135 H161 0.931 . S
N136 Co132 2.148 . S
N136 C133 1.301 . S
N136 C134 1.317 . S
N137 C133 1.328 . S
N137 C135 1.350 . S
H138 C133 0.930 . S
H139 C134 0.930 . S
C140 O141 1.224 . S
C140 O159 1.247 . S
O141 C140 1.224 . S
N142 Co132 2.128 . S
N142 C143 1.355 . S
N142 C145 1.311 . S
C143 N142 1.355 . S
C143 C144 1.363 . S
C143 H155 0.929 . S
C144 C143 1.363 . S
C144 N146 1.375 . S
C144 H162 0.931 . S
C145 N142 1.311 . S
C145 N146 1.347 . S
C145 H156 0.929 . S
N146 C144 1.375 . S
N146 C145 1.347 . S
C147 C150 1.365 . S
C147 N152 1.328 . S
C147 H153 0.929 . S
C148 C149 1.362 . S
C148 C151 1.378 . S
C148 H163 0.929 . S
C149 C148 1.362 . S
C149 C150 1.366 . S
C150 C147 1.365 . S
C150 C149 1.366 . S
C150 H164 0.930 . S
C151 C148 1.378 . S
C151 N152 1.315 . S
C151 H154 0.930 . S
N152 Co132 2.194 . S
N152 C147 1.328 . S
N152 C151 1.315 . S
H153 C147 0.929 . S
H154 C151 0.930 . S
H155 C143 0.929 . S
H156 C145 0.929 . S
O157 Co132 2.351 . S
O157 C160 1.244 . S
O158 Co132 2.155 . S
O158 C160 1.240 . S
O159 Co132 2.096 . S
O159 C140 1.247 . S
C160 O157 1.244 . S
C160 O158 1.240 . S
H161 C135 0.931 . S
H162 C144 0.931 . S
H163 C148 0.929 . S
H164 C150 0.930 . S
Co165 N169 2.148 . S
Co165 N175 2.128 . S
Co165 N185 2.194 . S
Co165 O190 2.351 . S
Co165 O191 2.155 . S
Co165 O192 2.096 . S
C166 N169 1.301 . S
C166 N170 1.328 . S
C166 H171 0.930 . S
C167 C168 1.333 . S
C167 N169 1.317 . S
C167 H172 0.930 . S
C168 C167 1.333 . S
C168 N170 1.350 . S
C168 H194 0.931 . S
N169 Co165 2.148 . S
N169 C166 1.301 . S
N169 C167 1.317 . S
N170 C166 1.328 . S
N170 C168 1.350 . S
H171 C166 0.930 . S
H172 C167 0.930 . S
C173 O174 1.224 . S
C173 O192 1.247 . S
O174 C173 1.224 . S
N175 Co165 2.128 . S
N175 C176 1.355 . S
N175 C178 1.311 . S
C176 N175 1.355 . S
C176 C177 1.363 . S
C176 H188 0.929 . S
C177 C176 1.363 . S
C177 N179 1.375 . S
C177 H195 0.931 . S
C178 N175 1.311 . S
C178 N179 1.347 . S
C178 H189 0.929 . S
N179 C177 1.375 . S
N179 C178 1.347 . S
C180 C183 1.365 . S
C180 N185 1.328 . S
C180 H186 0.929 . S
C181 C182 1.362 . S
C181 C184 1.378 . S
C181 H196 0.929 . S
C182 C181 1.362 . S
C182 C183 1.366 . S
C183 C180 1.365 . S
C183 C182 1.366 . S
C183 H197 0.930 . S
C184 C181 1.378 . S
C184 N185 1.315 . S
C184 H187 0.930 . S
N185 Co165 2.194 . S
N185 C180 1.328 . S
N185 C184 1.315 . S
H186 C180 0.929 . S
H187 C184 0.930 . S
H188 C176 0.929 . S
H189 C178 0.929 . S
O190 Co165 2.351 . S
O190 C193 1.244 . S
O191 Co165 2.155 . S
O191 C193 1.240 . S
O192 Co165 2.096 . S
O192 C173 1.247 . S
C193 O190 1.244 . S
C193 O191 1.240 . S
H194 C168 0.931 . S
H195 C177 0.931 . S
H196 C181 0.929 . S
H197 C183 0.930 . S
Co198 N202 2.148 1_455 S
Co198 N208 2.128 . S
Co198 N218 2.194 . S
Co198 O223 2.351 . S
Co198 O224 2.155 . S
Co198 O225 2.096 1_455 S
C199 N202 1.301 . S
C199 N203 1.328 . S
C199 H204 0.930 . S
C200 C201 1.333 . S
C200 N202 1.317 . S
C200 H205 0.930 . S
C201 C200 1.333 . S
C201 N203 1.350 . S
C201 H227 0.931 . S
N202 Co198 2.148 1_655 S
N202 C199 1.301 . S
N202 C200 1.317 . S
N203 C199 1.328 . S
N203 C201 1.350 . S
H204 C199 0.930 . S
H205 C200 0.930 . S
C206 O207 1.224 . S
C206 O225 1.247 . S
O207 C206 1.224 . S
N208 Co198 2.128 . S
N208 C209 1.355 . S
N208 C211 1.311 . S
C209 N208 1.355 . S
C209 C210 1.363 . S
C209 H221 0.929 . S
C210 C209 1.363 . S
C210 N212 1.375 . S
C210 H228 0.931 . S
C211 N208 1.311 . S
C211 N212 1.347 . S
C211 H222 0.929 . S
N212 C210 1.375 . S
N212 C211 1.347 . S
C213 C216 1.365 . S
C213 N218 1.328 . S
C213 H219 0.929 . S
C214 C215 1.362 1_655 S
C214 C217 1.378 . S
C214 H229 0.929 . S
C215 C214 1.362 1_455 S
C215 C216 1.366 . S
C216 C213 1.365 . S
C216 C215 1.366 . S
C216 H230 0.930 . S
C217 C214 1.378 . S
C217 N218 1.315 1_655 S
C217 H220 0.930 . S
N218 Co198 2.194 . S
N218 C213 1.328 . S
N218 C217 1.315 1_455 S
H219 C213 0.929 . S
H220 C217 0.930 . S
H221 C209 0.929 . S
H222 C211 0.929 . S
O223 Co198 2.351 . S
O223 C226 1.244 . S
O224 Co198 2.155 . S
O224 C226 1.240 . S
O225 Co198 2.096 1_655 S
O225 C206 1.247 . S
C226 O223 1.244 . S
C226 O224 1.240 . S
H227 C201 0.931 . S
H228 C210 0.931 . S
H229 C214 0.929 . S
H230 C216 0.930 . S
Co231 N235 2.148 . S
Co231 N241 2.128 . S
Co231 N251 2.194 . S
Co231 O256 2.351 . S
Co231 O257 2.155 . S
Co231 O258 2.096 . S
C232 N235 1.301 . S
C232 N236 1.328 . S
C232 H237 0.930 . S
C233 C234 1.333 . S
C233 N235 1.317 . S
C233 H238 0.930 . S
C234 C233 1.333 . S
C234 N236 1.350 . S
C234 H260 0.931 . S
N235 Co231 2.148 . S
N235 C232 1.301 . S
N235 C233 1.317 . S
N236 C232 1.328 . S
N236 C234 1.350 . S
H237 C232 0.930 . S
H238 C233 0.930 . S
C239 O240 1.224 . S
C239 O258 1.247 . S
O240 C239 1.224 . S
N241 Co231 2.128 . S
N241 C242 1.355 . S
N241 C244 1.311 . S
C242 N241 1.355 . S
C242 C243 1.363 . S
C242 H254 0.929 . S
C243 C242 1.363 . S
C243 N245 1.375 . S
C243 H261 0.931 . S
C244 N241 1.311 . S
C244 N245 1.347 . S
C244 H255 0.929 . S
N245 C243 1.375 . S
N245 C244 1.347 . S
C246 C249 1.365 . S
C246 N251 1.328 . S
C246 H252 0.929 . S
C247 C248 1.362 . S
C247 C250 1.378 . S
C247 H262 0.929 . S
C248 C247 1.362 . S
C248 C249 1.366 . S
C249 C246 1.365 . S
C249 C248 1.366 . S
C249 H263 0.930 . S
C250 C247 1.378 . S
C250 N251 1.315 . S
C250 H253 0.930 . S
N251 Co231 2.194 . S
N251 C246 1.328 . S
N251 C250 1.315 . S
H252 C246 0.929 . S
H253 C250 0.930 . S
H254 C242 0.929 . S
H255 C244 0.929 . S
O256 Co231 2.351 . S
O256 C259 1.244 . S
O257 Co231 2.155 . S
O257 C259 1.240 . S
O258 Co231 2.096 . S
O258 C239 1.247 . S
C259 O256 1.244 . S
C259 O257 1.240 . S
H260 C234 0.931 . S
H261 C243 0.931 . S
H262 C247 0.929 . S
H263 C249 0.930 . S
Co264 N268 2.148 . S
Co264 N274 2.128 . S
Co264 N284 2.194 . S
Co264 O289 2.351 . S
Co264 O290 2.155 . S
Co264 O291 2.096 . S
C265 N268 1.301 . S
C265 N269 1.328 . S
C265 H270 0.930 . S
C266 C267 1.333 . S
C266 N268 1.317 . S
C266 H271 0.930 . S
C267 C266 1.333 . S
C267 N269 1.350 . S
C267 H293 0.931 . S
N268 Co264 2.148 . S
N268 C265 1.301 . S
N268 C266 1.317 . S
N269 C265 1.328 . S
N269 C267 1.350 . S
H270 C265 0.930 . S
H271 C266 0.930 . S
C272 O273 1.224 . S
C272 O291 1.247 . S
O273 C272 1.224 . S
N274 Co264 2.128 . S
N274 C275 1.355 . S
N274 C277 1.311 . S
C275 N274 1.355 . S
C275 C276 1.363 . S
C275 H287 0.929 . S
C276 C275 1.363 . S
C276 N278 1.375 . S
C276 H294 0.931 . S
C277 N274 1.311 . S
C277 N278 1.347 . S
C277 H288 0.929 . S
N278 C276 1.375 . S
N278 C277 1.347 . S
C279 C282 1.365 . S
C279 N284 1.328 . S
C279 H285 0.929 . S
C280 C281 1.362 . S
C280 C283 1.378 . S
C280 H295 0.929 . S
C281 C280 1.362 . S
C281 C282 1.366 . S
C282 C279 1.365 . S
C282 C281 1.366 . S
C282 H296 0.930 . S
C283 C280 1.378 . S
C283 N284 1.315 . S
C283 H286 0.930 . S
N284 Co264 2.194 . S
N284 C279 1.328 . S
N284 C283 1.315 . S
H285 C279 0.929 . S
H286 C283 0.930 . S
H287 C275 0.929 . S
H288 C277 0.929 . S
O289 Co264 2.351 . S
O289 C292 1.244 . S
O290 Co264 2.155 . S
O290 C292 1.240 . S
O291 Co264 2.096 . S
O291 C272 1.247 . S
C292 O289 1.244 . S
C292 O290 1.240 . S
H293 C267 0.931 . S
H294 C276 0.931 . S
H295 C280 0.929 . S
H296 C282 0.930 . S
Co297 N301 2.148 . S
Co297 N307 2.128 . S
Co297 N317 2.194 . S
Co297 O322 2.351 . S
Co297 O323 2.155 . S
Co297 O324 2.096 . S
C298 N301 1.301 . S
C298 N302 1.328 . S
C298 H303 0.930 . S
C299 C300 1.333 . S
C299 N301 1.317 . S
C299 H304 0.930 . S
C300 C299 1.333 . S
C300 N302 1.350 . S
C300 H326 0.931 . S
N301 Co297 2.148 . S
N301 C298 1.301 . S
N301 C299 1.317 . S
N302 C298 1.328 . S
N302 C300 1.350 . S
H303 C298 0.930 . S
H304 C299 0.930 . S
C305 O306 1.224 . S
C305 O324 1.247 . S
O306 C305 1.224 . S
N307 Co297 2.128 . S
N307 C308 1.355 . S
N307 C310 1.311 . S
C308 N307 1.355 . S
C308 C309 1.363 . S
C308 H320 0.929 . S
C309 C308 1.363 . S
C309 N311 1.375 . S
C309 H327 0.931 . S
C310 N307 1.311 . S
C310 N311 1.347 . S
C310 H321 0.929 . S
N311 C309 1.375 . S
N311 C310 1.347 . S
C312 C315 1.365 . S
C312 N317 1.328 . S
C312 H318 0.929 . S
C313 C314 1.362 . S
C313 C316 1.378 . S
C313 H328 0.929 . S
C314 C313 1.362 . S
C314 C315 1.366 . S
C315 C312 1.365 . S
C315 C314 1.366 . S
C315 H329 0.930 . S
C316 C313 1.378 . S
C316 N317 1.315 . S
C316 H319 0.930 . S
N317 Co297 2.194 . S
N317 C312 1.328 . S
N317 C316 1.315 . S
H318 C312 0.929 . S
H319 C316 0.930 . S
H320 C308 0.929 . S
H321 C310 0.929 . S
O322 Co297 2.351 . S
O322 C325 1.244 . S
O323 Co297 2.155 . S
O323 C325 1.240 . S
O324 Co297 2.096 . S
O324 C305 1.247 . S
C325 O322 1.244 . S
C325 O323 1.240 . S
H326 C300 0.931 . S
H327 C309 0.931 . S
H328 C313 0.929 . S
H329 C315 0.930 . S
Co330 N334 2.148 . S
Co330 N340 2.128 . S
Co330 N350 2.194 . S
Co330 O355 2.351 . S
Co330 O356 2.155 . S
Co330 O357 2.096 . S
C331 N334 1.301 . S
C331 N335 1.328 . S
C331 H336 0.930 . S
C332 C333 1.333 . S
C332 N334 1.317 . S
C332 H337 0.930 . S
C333 C332 1.333 . S
C333 N335 1.350 . S
C333 H359 0.931 . S
N334 Co330 2.148 . S
N334 C331 1.301 . S
N334 C332 1.317 . S
N335 C331 1.328 . S
N335 C333 1.350 . S
H336 C331 0.930 . S
H337 C332 0.930 . S
C338 O339 1.224 . S
C338 O357 1.247 . S
O339 C338 1.224 . S
N340 Co330 2.128 . S
N340 C341 1.355 . S
N340 C343 1.311 . S
C341 N340 1.355 . S
C341 C342 1.363 . S
C341 H353 0.929 . S
C342 C341 1.363 . S
C342 N344 1.375 . S
C342 H360 0.931 . S
C343 N340 1.311 . S
C343 N344 1.347 . S
C343 H354 0.929 . S
N344 C342 1.375 . S
N344 C343 1.347 . S
C345 C348 1.365 . S
C345 N350 1.328 . S
C345 H351 0.929 . S
C346 C347 1.362 . S
C346 C349 1.378 . S
C346 H361 0.929 . S
C347 C346 1.362 . S
C347 C348 1.366 . S
C348 C345 1.365 . S
C348 C347 1.366 . S
C348 H362 0.930 . S
C349 C346 1.378 . S
C349 N350 1.315 . S
C349 H352 0.930 . S
N350 Co330 2.194 . S
N350 C345 1.328 . S
N350 C349 1.315 . S
H351 C345 0.929 . S
H352 C349 0.930 . S
H353 C341 0.929 . S
H354 C343 0.929 . S
O355 Co330 2.351 . S
O355 C358 1.244 . S
O356 Co330 2.155 . S
O356 C358 1.240 . S
O357 Co330 2.096 . S
O357 C338 1.247 . S
C358 O355 1.244 . S
C358 O356 1.240 . S
H359 C333 0.931 . S
H360 C342 0.931 . S
H361 C346 0.929 . S
H362 C348 0.930 . S
Co363 N367 2.148 . S
Co363 N373 2.128 . S
Co363 N383 2.194 . S
Co363 O388 2.351 . S
Co363 O389 2.155 . S
Co363 O390 2.096 . S
C364 N367 1.301 . S
C364 N368 1.328 . S
C364 H369 0.930 . S
C365 C366 1.333 . S
C365 N367 1.317 . S
C365 H370 0.930 . S
C366 C365 1.333 . S
C366 N368 1.350 . S
C366 H392 0.931 . S
N367 Co363 2.148 . S
N367 C364 1.301 . S
N367 C365 1.317 . S
N368 C364 1.328 . S
N368 C366 1.350 . S
H369 C364 0.930 . S
H370 C365 0.930 . S
C371 O372 1.224 . S
C371 O390 1.247 . S
O372 C371 1.224 . S
N373 Co363 2.128 . S
N373 C374 1.355 . S
N373 C376 1.311 . S
C374 N373 1.355 . S
C374 C375 1.363 . S
C374 H386 0.929 . S
C375 C374 1.363 . S
C375 N377 1.375 . S
C375 H393 0.931 . S
C376 N373 1.311 . S
C376 N377 1.347 . S
C376 H387 0.929 . S
N377 C375 1.375 . S
N377 C376 1.347 . S
C378 C381 1.365 . S
C378 N383 1.328 . S
C378 H384 0.929 . S
C379 C380 1.362 . S
C379 C382 1.378 . S
C379 H394 0.929 . S
C380 C379 1.362 . S
C380 C381 1.366 . S
C381 C378 1.365 . S
C381 C380 1.366 . S
C381 H395 0.930 . S
C382 C379 1.378 . S
C382 N383 1.315 . S
C382 H385 0.930 . S
N383 Co363 2.194 . S
N383 C378 1.328 . S
N383 C382 1.315 . S
H384 C378 0.929 . S
H385 C382 0.930 . S
H386 C374 0.929 . S
H387 C376 0.929 . S
O388 Co363 2.351 . S
O388 C391 1.244 . S
O389 Co363 2.155 . S
O389 C391 1.240 . S
O390 Co363 2.096 . S
O390 C371 1.247 . S
C391 O388 1.244 . S
C391 O389 1.240 . S
H392 C366 0.931 . S
H393 C375 0.931 . S
H394 C379 0.929 . S
H395 C381 0.930 . S
Co396 N400 2.148 . S
Co396 N406 2.128 1_455 S
Co396 N416 2.194 . S
Co396 O421 2.351 1_455 S
Co396 O422 2.127 1_455 S
Co396 O423 2.096 . S
C397 N400 1.301 . S
C397 N401 1.328 . S
C397 H402 0.930 . S
C398 C399 1.333 . S
C398 N400 1.317 . S
C398 H403 0.930 . S
C399 C398 1.333 . S
C399 N401 1.350 . S
C399 H425 0.931 . S
N400 Co396 2.148 . S
N400 C397 1.301 . S
N400 C398 1.317 . S
N401 C397 1.328 . S
N401 C399 1.350 . S
H402 C397 0.930 . S
H403 C398 0.930 . S
C404 O405 1.224 . S
C404 O423 1.247 . S
O405 C404 1.224 . S
N406 Co396 2.128 1_655 S
N406 C407 1.355 . S
N406 C409 1.311 . S
C407 N406 1.355 . S
C407 C408 1.363 . S
C407 H419 0.929 . S
C408 C407 1.363 . S
C408 N410 1.375 . S
C408 H426 0.931 . S
C409 N406 1.311 . S
C409 N410 1.347 . S
C409 H420 0.929 . S
N410 C408 1.375 . S
N410 C409 1.347 . S
C411 C414 1.365 . S
C411 N416 1.328 . S
C411 H417 0.929 . S
C412 C413 1.362 . S
C412 C415 1.378 . S
C412 H427 0.929 . S
C413 C412 1.362 . S
C413 C414 1.366 . S
C414 C411 1.365 . S
C414 C413 1.366 . S
C414 H428 0.939 . S
C415 C412 1.378 . S
C415 N416 1.315 . S
C415 H418 0.930 . S
N416 Co396 2.194 . S
N416 C411 1.328 . S
N416 C415 1.315 . S
H417 C411 0.929 . S
H418 C415 0.930 . S
H419 C407 0.929 . S
H420 C409 0.929 . S
O421 Co396 2.351 1_655 S
O421 C424 1.244 . S
O422 Co396 2.127 1_655 S
O422 C424 1.270 . S
O423 Co396 2.096 . S
O423 C404 1.247 . S
C424 O421 1.244 . S
C424 O422 1.270 . S
H425 C399 0.931 . S
H426 C408 0.931 . S
H427 C412 0.929 . S
H428 C414 0.939 . S
Co429 N433 2.148 . S
Co429 N439 2.128 . S
Co429 N449 2.194 . S
Co429 O454 2.351 . S
Co429 O455 2.155 . S
Co429 O456 2.096 . S
C430 N433 1.301 . S
C430 N434 1.328 . S
C430 H435 0.930 . S
C431 C432 1.333 . S
C431 N433 1.317 . S
C431 H436 0.930 . S
C432 C431 1.333 . S
C432 N434 1.350 . S
C432 H458 0.931 . S
N433 Co429 2.148 . S
N433 C430 1.301 . S
N433 C431 1.317 . S
N434 C430 1.328 . S
N434 C432 1.350 . S
H435 C430 0.930 . S
H436 C431 0.930 . S
C437 O438 1.224 . S
C437 O456 1.247 . S
O438 C437 1.224 . S
N439 Co429 2.128 . S
N439 C440 1.355 . S
N439 C442 1.311 . S
C440 N439 1.355 . S
C440 C441 1.363 . S
C440 H452 0.929 . S
C441 C440 1.363 . S
C441 N443 1.375 . S
C441 H459 0.931 . S
C442 N439 1.311 . S
C442 N443 1.347 . S
C442 H453 0.929 . S
N443 C441 1.375 . S
N443 C442 1.347 . S
C444 C447 1.365 . S
C444 N449 1.328 . S
C444 H450 0.929 . S
C445 C446 1.362 . S
C445 C448 1.378 . S
C445 H460 0.929 . S
C446 C445 1.362 . S
C446 C447 1.366 . S
C447 C444 1.365 . S
C447 C446 1.366 . S
C447 H461 0.930 . S
C448 C445 1.378 . S
C448 N449 1.315 . S
C448 H451 0.930 . S
N449 Co429 2.194 . S
N449 C444 1.328 . S
N449 C448 1.315 . S
H450 C444 0.929 . S
H451 C448 0.930 . S
H452 C440 0.929 . S
H453 C442 0.929 . S
O454 Co429 2.351 . S
O454 C457 1.244 . S
O455 Co429 2.155 . S
O455 C457 1.240 . S
O456 Co429 2.096 . S
O456 C437 1.247 . S
C457 O454 1.244 . S
C457 O455 1.240 . S
H458 C432 0.931 . S
H459 C441 0.931 . S
H460 C445 0.929 . S
H461 C447 0.930 . S
Co462 N466 2.148 . S
Co462 N472 2.128 1_455 S
Co462 N482 2.194 . S
Co462 O487 2.351 1_455 S
Co462 O488 2.127 1_455 S
Co462 O489 2.096 . S
C463 N466 1.301 . S
C463 N467 1.328 . S
C463 H468 0.930 . S
C464 C465 1.333 . S
C464 N466 1.317 . S
C464 H469 0.930 . S
C465 C464 1.333 . S
C465 N467 1.350 . S
C465 H491 0.931 . S
N466 Co462 2.148 . S
N466 C463 1.301 . S
N466 C464 1.317 . S
N467 C463 1.328 . S
N467 C465 1.350 . S
H468 C463 0.930 . S
H469 C464 0.930 . S
C470 O471 1.224 . S
C470 O489 1.247 . S
O471 C470 1.224 . S
N472 Co462 2.128 1_655 S
N472 C473 1.355 . S
N472 C475 1.311 . S
C473 N472 1.355 . S
C473 C474 1.363 . S
C473 H485 0.929 . S
C474 C473 1.363 . S
C474 N476 1.375 . S
C474 H492 0.931 . S
C475 N472 1.311 . S
C475 N476 1.347 . S
C475 H486 0.929 . S
N476 C474 1.375 . S
N476 C475 1.347 . S
C477 C480 1.365 . S
C477 N482 1.328 . S
C477 H483 0.929 . S
C478 C479 1.362 . S
C478 C481 1.378 . S
C478 H493 0.929 . S
C479 C478 1.362 . S
C479 C480 1.366 . S
C480 C477 1.365 . S
C480 C479 1.366 . S
C480 H494 0.939 . S
C481 C478 1.378 . S
C481 N482 1.315 . S
C481 H484 0.930 . S
N482 Co462 2.194 . S
N482 C477 1.328 . S
N482 C481 1.315 . S
H483 C477 0.929 . S
H484 C481 0.930 . S
H485 C473 0.929 . S
H486 C475 0.929 . S
O487 Co462 2.351 1_655 S
O487 C490 1.244 . S
O488 Co462 2.127 1_655 S
O488 C490 1.270 . S
O489 Co462 2.096 . S
O489 C470 1.247 . S
C490 O487 1.244 . S
C490 O488 1.270 . S
H491 C465 0.931 . S
H492 C474 0.931 . S
H493 C478 0.929 . S
H494 C480 0.939 . S
Co495 N499 2.148 . S
Co495 N505 2.128 . S
Co495 N515 2.194 . S
Co495 O520 2.351 . S
Co495 O521 2.155 . S
Co495 O522 2.096 . S
C496 N499 1.301 . S
C496 N500 1.328 . S
C496 H501 0.930 . S
C497 C498 1.333 . S
C497 N499 1.317 . S
C497 H502 0.930 . S
C498 C497 1.333 . S
C498 N500 1.350 . S
C498 H524 0.931 . S
N499 Co495 2.148 . S
N499 C496 1.301 . S
N499 C497 1.317 . S
N500 C496 1.328 . S
N500 C498 1.350 . S
H501 C496 0.930 . S
H502 C497 0.930 . S
C503 O504 1.224 . S
C503 O522 1.247 . S
O504 C503 1.224 . S
N505 Co495 2.128 . S
N505 C506 1.355 . S
N505 C508 1.311 . S
C506 N505 1.355 . S
C506 C507 1.363 . S
C506 H518 0.929 . S
C507 C506 1.363 . S
C507 N509 1.375 . S
C507 H525 0.931 . S
C508 N505 1.311 . S
C508 N509 1.347 . S
C508 H519 0.929 . S
N509 C507 1.375 . S
N509 C508 1.347 . S
C510 C513 1.365 . S
C510 N515 1.328 . S
C510 H516 0.929 . S
C511 C512 1.362 . S
C511 C514 1.378 . S
C511 H526 0.929 . S
C512 C511 1.362 . S
C512 C513 1.366 . S
C513 C510 1.365 . S
C513 C512 1.366 . S
C513 H527 0.930 . S
C514 C511 1.378 . S
C514 N515 1.315 . S
C514 H517 0.930 . S
N515 Co495 2.194 . S
N515 C510 1.328 . S
N515 C514 1.315 . S
H516 C510 0.929 . S
H517 C514 0.930 . S
H518 C506 0.929 . S
H519 C508 0.929 . S
O520 Co495 2.351 . S
O520 C523 1.244 . S
O521 Co495 2.155 . S
O521 C523 1.240 . S
O522 Co495 2.096 . S
O522 C503 1.247 . S
C523 O520 1.244 . S
C523 O521 1.240 . S
H524 C498 0.931 . S
H525 C507 0.931 . S
H526 C511 0.929 . S
H527 C513 0.930 . S
C528 C529 1.349 . S
C528 C530 1.327 . S
C528 H553 0.950 . S
C529 C528 1.349 . S
C529 C545 1.349 . S
C530 C528 1.327 . S
C530 C549 1.429 . S
C530 H554 0.950 . S
C531 C548 1.574 1_545 S
C531 C550 1.368 . S
C531 H555 0.949 . S
H532 C536 0.949 . S
C533 C534 1.349 . S
C533 C535 1.327 . S
C533 H556 0.950 . S
C534 C533 1.349 . S
C534 C546 1.349 . S
C535 C533 1.327 . S
C535 C551 1.429 . S
C535 H557 0.950 . S
C536 H532 0.949 . S
C536 C544 1.574 1_565 S
C536 C552 1.368 . S
H537 C545 0.950 . S
H538 C543 0.950 . S
H539 C544 0.949 . S
H540 C546 0.950 . S
H541 C547 0.950 . S
H542 C548 0.949 . S
C543 H538 0.950 . S
C543 C545 1.327 . S
C543 C549 1.429 . S
C544 C536 1.574 1_545 S
C544 H539 0.949 . S
C544 C550 1.368 . S
C545 C529 1.349 . S
C545 H537 0.950 . S
C545 C543 1.327 . S
C546 C534 1.349 . S
C546 H540 0.950 . S
C546 C547 1.327 . S
C547 H541 0.950 . S
C547 C546 1.327 . S
C547 C551 1.429 . S
C548 C531 1.574 1_565 S
C548 H542 0.949 . S
C548 C552 1.368 . S
C549 C530 1.429 . S
C549 C543 1.429 . S
C549 C550 1.523 . S
C550 C531 1.368 . S
C550 C544 1.368 . S
C550 C549 1.523 . S
C551 C535 1.429 . S
C551 C547 1.429 . S
C551 C552 1.523 . S
C552 C536 1.368 . S
C552 C548 1.368 . S
C552 C551 1.523 . S
H553 C528 0.950 . S
H554 C530 0.950 . S
H555 C531 0.949 . S
H556 C533 0.950 . S
H557 C535 0.950 . S
C558 C559 1.349 . S
C558 C560 1.327 . S
C558 H583 0.950 . S
C559 C558 1.349 . S
C559 C575 1.349 . S
C560 C558 1.327 . S
C560 C579 1.429 . S
C560 H584 0.950 . S
C561 C578 1.574 . S
C561 C580 1.368 . S
C561 H585 0.949 . S
H562 C566 0.949 . S
C563 C564 1.349 . S
C563 C565 1.327 . S
C563 H586 0.950 . S
C564 C563 1.349 . S
C564 C576 1.349 . S
C565 C563 1.327 . S
C565 C581 1.429 . S
C565 H587 0.950 . S
C566 H562 0.949 . S
C566 C574 1.574 . S
C566 C582 1.368 . S
H567 C575 0.950 . S
H568 C573 0.950 . S
H569 C574 0.949 . S
H570 C576 0.950 . S
H571 C577 0.950 . S
H572 C578 0.949 . S
C573 H568 0.950 . S
C573 C575 1.327 . S
C573 C579 1.429 . S
C574 C566 1.574 . S
C574 H569 0.949 . S
C574 C580 1.368 . S
C575 C559 1.349 . S
C575 H567 0.950 . S
C575 C573 1.327 . S
C576 C564 1.349 . S
C576 H570 0.950 . S
C576 C577 1.327 . S
C577 H571 0.950 . S
C577 C576 1.327 . S
C577 C581 1.429 . S
C578 C561 1.574 . S
C578 H572 0.949 . S
C578 C582 1.368 . S
C579 C560 1.429 . S
C579 C573 1.429 . S
C579 C580 1.523 . S
C580 C561 1.368 . S
C580 C574 1.368 . S
C580 C579 1.523 . S
C581 C565 1.429 . S
C581 C577 1.429 . S
C581 C582 1.523 . S
C582 C566 1.368 . S
C582 C578 1.368 . S
C582 C581 1.523 . S
H583 C558 0.950 . S
H584 C560 0.950 . S
H585 C561 0.949 . S
H586 C563 0.950 . S
H587 C565 0.950 . S
C588 C589 1.349 . S
C588 C590 1.327 . S
C588 H613 0.950 . S
C589 C588 1.349 . S
C589 C605 1.372 . S
C590 C588 1.327 . S
C590 C609 1.429 . S
C590 H614 0.950 1_554 S
C591 C608 1.574 1_545 S
C591 C610 1.376 . S
C591 H615 0.942 1_455 S
H592 C596 0.949 . S
C593 C594 1.372 . S
C593 C595 1.327 . S
C593 H616 0.930 1_455 S
C594 C593 1.372 . S
C594 C606 1.349 . S
C595 C593 1.327 . S
C595 C611 1.446 . S
C595 H617 0.933 1_456 S
C596 H592 0.949 . S
C596 C604 1.574 1_565 S
C596 C612 1.368 . S
H597 C605 0.930 1_655 S
H598 C603 0.933 1_655 S
H599 C604 0.949 . S
H600 C606 0.950 . S
H601 C607 0.950 . S
H602 C608 0.942 1_655 S
C603 H598 0.933 1_455 S
C603 C605 1.327 . S
C603 C609 1.446 . S
C604 C596 1.574 1_545 S
C604 H599 0.949 . S
C604 C610 1.368 1_556 S
C605 C589 1.372 . S
C605 H597 0.930 1_455 S
C605 C603 1.327 . S
C606 C594 1.349 . S
C606 H600 0.950 . S
C606 C607 1.327 . S
C607 H601 0.950 . S
C607 C606 1.327 . S
C607 C611 1.429 . S
C608 C591 1.574 1_565 S
C608 H602 0.942 1_455 S
C608 C612 1.376 1_554 S
C609 C590 1.429 . S
C609 C603 1.446 . S
C609 C610 1.523 . S
C610 C591 1.376 . S
C610 C604 1.368 1_554 S
C610 C609 1.523 . S
C611 C595 1.446 . S
C611 C607 1.429 . S
C611 C612 1.523 . S
C612 C596 1.368 . S
C612 C608 1.376 1_556 S
C612 C611 1.523 . S
H613 C588 0.950 . S
H614 C590 0.950 1_556 S
H615 C591 0.942 1_655 S
H616 C593 0.930 1_655 S
H617 C595 0.933 1_654 S
C618 C619 1.349 . S
C618 C620 1.327 . S
C618 H643 0.950 . S
C619 C618 1.349 . S
C619 C635 1.349 . S
C620 C618 1.327 . S
C620 C639 1.429 . S
C620 H644 0.950 . S
C621 C638 1.574 . S
C621 C640 1.368 . S
C621 H645 0.949 . S
H622 C626 0.949 . S
C623 C624 1.349 . S
C623 C625 1.327 . S
C623 H646 0.950 . S
C624 C623 1.349 . S
C624 C636 1.349 . S
C625 C623 1.327 . S
C625 C641 1.429 . S
C625 H647 0.950 . S
C626 H622 0.949 . S
C626 C634 1.574 . S
C626 C642 1.368 . S
H627 C635 0.950 . S
H628 C633 0.950 . S
H629 C634 0.949 . S
H630 C636 0.950 . S
H631 C637 0.950 . S
H632 C638 0.949 . S
C633 H628 0.950 . S
C633 C635 1.327 . S
C633 C639 1.429 . S
C634 C626 1.574 . S
C634 H629 0.949 . S
C634 C640 1.368 . S
C635 C619 1.349 . S
C635 H627 0.950 . S
C635 C633 1.327 . S
C636 C624 1.349 . S
C636 H630 0.950 . S
C636 C637 1.327 . S
C637 H631 0.950 . S
C637 C636 1.327 . S
C637 C641 1.429 . S
C638 C621 1.574 . S
C638 H632 0.949 . S
C638 C642 1.368 . S
C639 C620 1.429 . S
C639 C633 1.429 . S
C639 C640 1.523 . S
C640 C621 1.368 . S
C640 C634 1.368 . S
C640 C639 1.523 . S
C641 C625 1.429 . S
C641 C637 1.429 . S
C641 C642 1.523 . S
C642 C626 1.368 . S
C642 C638 1.368 . S
C642 C641 1.523 . S
H643 C618 0.950 . S
H644 C620 0.950 . S
H645 C621 0.949 . S
H646 C623 0.950 . S
H647 C625 0.950 . S
C648 C649 1.349 . S
C648 C650 1.327 . S
C648 H673 0.950 . S
C649 C648 1.349 . S
C649 C665 1.349 . S
C650 C648 1.327 . S
C650 C669 1.429 . S
C650 H674 0.950 . S
C651 C668 1.574 . S
C651 C670 1.368 . S
C651 H675 0.949 . S
H652 C656 0.949 . S
C653 C654 1.349 . S
C653 C655 1.327 . S
C653 H676 0.950 . S
C654 C653 1.349 . S
C654 C666 1.349 . S
C655 C653 1.327 . S
C655 C671 1.429 . S
C655 H677 0.950 . S
C656 H652 0.949 . S
C656 C664 1.574 . S
C656 C672 1.368 . S
H657 C665 0.950 . S
H658 C663 0.950 . S
H659 C664 0.949 . S
H660 C666 0.950 . S
H661 C667 0.950 . S
H662 C668 0.949 . S
C663 H658 0.950 . S
C663 C665 1.327 . S
C663 C669 1.429 . S
C664 C656 1.574 . S
C664 H659 0.949 . S
C664 C670 1.368 . S
C665 C649 1.349 . S
C665 H657 0.950 . S
C665 C663 1.327 . S
C666 C654 1.349 . S
C666 H660 0.950 . S
C666 C667 1.327 . S
C667 H661 0.950 . S
C667 C666 1.327 . S
C667 C671 1.429 . S
C668 C651 1.574 . S
C668 H662 0.949 . S
C668 C672 1.368 . S
C669 C650 1.429 . S
C669 C663 1.429 . S
C669 C670 1.523 . S
C670 C651 1.368 . S
C670 C664 1.368 . S
C670 C669 1.523 . S
C671 C655 1.429 . S
C671 C667 1.429 . S
C671 C672 1.523 . S
C672 C656 1.368 . S
C672 C668 1.368 . S
C672 C671 1.523 . S
H673 C648 0.950 . S
H674 C650 0.950 . S
H675 C651 0.949 . S
H676 C653 0.950 . S
H677 C655 0.950 . S
C678 C679 1.349 . S
C678 C680 1.327 . S
C678 H703 0.950 . S
C679 C678 1.349 . S
C679 C695 1.349 . S
C680 C678 1.327 . S
C680 C699 1.429 . S
C680 H704 0.950 . S
C681 C698 1.574 . S
C681 C700 1.368 . S
C681 H705 0.949 . S
H682 C686 0.949 . S
C683 C684 1.349 . S
C683 C685 1.327 . S
C683 H706 0.950 . S
C684 C683 1.349 . S
C684 C696 1.349 . S
C685 C683 1.327 . S
C685 C701 1.429 . S
C685 H707 0.950 . S
C686 H682 0.949 . S
C686 C694 1.574 . S
C686 C702 1.368 . S
H687 C695 0.950 . S
H688 C693 0.950 . S
H689 C694 0.949 . S
H690 C696 0.950 . S
H691 C697 0.950 . S
H692 C698 0.949 . S
C693 H688 0.950 . S
C693 C695 1.327 . S
C693 C699 1.429 . S
C694 C686 1.574 . S
C694 H689 0.949 . S
C694 C700 1.368 . S
C695 C679 1.349 . S
C695 H687 0.950 . S
C695 C693 1.327 . S
C696 C684 1.349 . S
C696 H690 0.950 . S
C696 C697 1.327 . S
C697 H691 0.950 . S
C697 C696 1.327 . S
C697 C701 1.429 . S
C698 C681 1.574 . S
C698 H692 0.949 . S
C698 C702 1.368 . S
C699 C680 1.429 . S
C699 C693 1.429 . S
C699 C700 1.523 . S
C700 C681 1.368 . S
C700 C694 1.368 . S
C700 C699 1.523 . S
C701 C685 1.429 . S
C701 C697 1.429 . S
C701 C702 1.523 . S
C702 C686 1.368 . S
C702 C698 1.368 . S
C702 C701 1.523 . S
H703 C678 0.950 . S
H704 C680 0.950 . S
H705 C681 0.949 . S
H706 C683 0.950 . S
H707 C685 0.950 . S
C708 C709 1.349 . S
C708 C710 1.327 . S
C708 H733 0.950 . S
C709 C708 1.349 . S
C709 C725 1.349 . S
C710 C708 1.327 . S
C710 C729 1.429 . S
C710 H734 0.950 . S
C711 C728 1.574 . S
C711 C730 1.368 1_554 S
C711 H735 0.949 . S
H712 C716 0.949 . S
C713 C714 1.349 . S
C713 C715 1.327 . S
C713 H736 0.950 . S
C714 C713 1.349 . S
C714 C726 1.349 . S
C715 C713 1.327 . S
C715 C731 1.429 . S
C715 H737 0.950 . S
C716 H712 0.949 . S
C716 C724 1.574 . S
C716 C732 1.368 1_556 S
H717 C725 0.950 . S
H718 C723 0.950 1_554 S
H719 C724 0.949 . S
H720 C726 0.950 . S
H721 C727 0.950 1_556 S
H722 C728 0.949 . S
C723 H718 0.950 1_556 S
C723 C725 1.327 . S
C723 C729 1.429 . S
C724 C716 1.574 . S
C724 H719 0.949 . S
C724 C730 1.368 . S
C725 C709 1.349 . S
C725 H717 0.950 . S
C725 C723 1.327 . S
C726 C714 1.349 . S
C726 H720 0.950 . S
C726 C727 1.327 . S
C727 H721 0.950 1_554 S
C727 C726 1.327 . S
C727 C731 1.429 . S
C728 C711 1.574 . S
C728 H722 0.949 . S
C728 C732 1.368 . S
C729 C710 1.429 . S
C729 C723 1.429 . S
C729 C730 1.523 . S
C730 C711 1.368 1_556 S
C730 C724 1.368 . S
C730 C729 1.523 . S
C731 C715 1.429 . S
C731 C727 1.429 . S
C731 C732 1.523 . S
C732 C716 1.368 1_554 S
C732 C728 1.368 . S
C732 C731 1.523 . S
H733 C708 0.950 . S
H734 C710 0.950 . S
H735 C711 0.949 . S
H736 C713 0.950 . S
H737 C715 0.950 . S
C738 C739 1.349 . S
C738 C740 1.327 . S
C738 H763 0.950 . S
C739 C738 1.349 . S
C739 C755 1.349 . S
C740 C738 1.327 . S
C740 C759 1.429 . S
C740 H764 0.950 . S
C741 C758 1.574 . S
C741 C760 1.368 . S
C741 H765 0.949 . S
H742 C746 0.949 . S
C743 C744 1.349 . S
C743 C745 1.327 . S
C743 H766 0.950 . S
C744 C743 1.349 . S
C744 C756 1.349 . S
C745 C743 1.327 . S
C745 C761 1.429 . S
C745 H767 0.950 . S
C746 H742 0.949 . S
C746 C754 1.574 . S
C746 C762 1.368 . S
H747 C755 0.950 . S
H748 C753 0.950 . S
H749 C754 0.949 . S
H750 C756 0.950 . S
H751 C757 0.950 . S
H752 C758 0.949 . S
C753 H748 0.950 . S
C753 C755 1.327 . S
C753 C759 1.429 . S
C754 C746 1.574 . S
C754 H749 0.949 . S
C754 C760 1.368 . S
C755 C739 1.349 . S
C755 H747 0.950 . S
C755 C753 1.327 . S
C756 C744 1.349 . S
C756 H750 0.950 . S
C756 C757 1.327 . S
C757 H751 0.950 . S
C757 C756 1.327 . S
C757 C761 1.429 . S
C758 C741 1.574 . S
C758 H752 0.949 . S
C758 C762 1.368 . S
C759 C740 1.429 . S
C759 C753 1.429 . S
C759 C760 1.523 . S
C760 C741 1.368 . S
C760 C754 1.368 . S
C760 C759 1.523 . S
C761 C745 1.429 . S
C761 C757 1.429 . S
C761 C762 1.523 . S
C762 C746 1.368 . S
C762 C758 1.368 . S
C762 C761 1.523 . S
H763 C738 0.950 . S
H764 C740 0.950 . S
H765 C741 0.949 . S
H766 C743 0.950 . S
H767 C745 0.950 . S
C768 C769 1.349 . S
C768 C770 1.327 . S
C768 H793 0.950 . S
C769 C768 1.349 . S
C769 C785 1.349 . S
C770 C768 1.327 . S
C770 C789 1.429 . S
C770 H794 0.950 . S
C771 C788 1.574 . S
C771 C790 1.368 . S
C771 H795 0.949 . S
H772 C776 0.949 . S
C773 C774 1.349 . S
C773 C775 1.327 . S
C773 H796 0.950 . S
C774 C773 1.349 . S
C774 C786 1.349 . S
C775 C773 1.327 . S
C775 C791 1.429 . S
C775 H797 0.950 . S
C776 H772 0.949 . S
C776 C784 1.574 . S
C776 C792 1.368 . S
H777 C785 0.950 . S
H778 C783 0.950 . S
H779 C784 0.949 . S
H780 C786 0.950 . S
H781 C787 0.950 . S
H782 C788 0.949 . S
C783 H778 0.950 . S
C783 C785 1.327 . S
C783 C789 1.429 . S
C784 C776 1.574 . S
C784 H779 0.949 . S
C784 C790 1.368 . S
C785 C769 1.349 . S
C785 H777 0.950 . S
C785 C783 1.327 . S
C786 C774 1.349 . S
C786 H780 0.950 . S
C786 C787 1.327 . S
C787 H781 0.950 . S
C787 C786 1.327 . S
C787 C791 1.429 . S
C788 C771 1.574 . S
C788 H782 0.949 . S
C788 C792 1.368 . S
C789 C770 1.429 . S
C789 C783 1.429 . S
C789 C790 1.523 . S
C790 C771 1.368 . S
C790 C784 1.368 . S
C790 C789 1.523 . S
C791 C775 1.429 . S
C791 C787 1.429 . S
C791 C792 1.523 . S
C792 C776 1.368 . S
C792 C788 1.368 . S
C792 C791 1.523 . S
H793 C768 0.950 . S
H794 C770 0.950 . S
H795 C771 0.949 . S
H796 C773 0.950 . S
H797 C775 0.950 . S
C798 C799 1.349 . S
C798 C800 1.327 . S
C798 H823 0.950 . S
C799 C798 1.349 . S
C799 C815 1.349 . S
C800 C798 1.327 . S
C800 C819 1.429 . S
C800 H824 0.950 . S
C801 C818 1.574 . S
C801 C820 1.368 . S
C801 H825 0.949 . S
H802 C806 0.949 . S
C803 C804 1.349 . S
C803 C805 1.327 . S
C803 H826 0.950 . S
C804 C803 1.349 . S
C804 C816 1.349 . S
C805 C803 1.327 . S
C805 C821 1.429 . S
C805 H827 0.950 . S
C806 H802 0.949 . S
C806 C814 1.574 . S
C806 C822 1.368 . S
H807 C815 0.950 . S
H808 C813 0.950 . S
H809 C814 0.949 . S
H810 C816 0.950 . S
H811 C817 0.950 . S
H812 C818 0.949 . S
C813 H808 0.950 . S
C813 C815 1.327 . S
C813 C819 1.429 . S
C814 C806 1.574 . S
C814 H809 0.949 . S
C814 C820 1.368 . S
C815 C799 1.349 . S
C815 H807 0.950 . S
C815 C813 1.327 . S
C816 C804 1.349 . S
C816 H810 0.950 . S
C816 C817 1.327 . S
C817 H811 0.950 . S
C817 C816 1.327 . S
C817 C821 1.429 . S
C818 C801 1.574 . S
C818 H812 0.949 . S
C818 C822 1.368 . S
C819 C800 1.429 . S
C819 C813 1.429 . S
C819 C820 1.523 . S
C820 C801 1.368 . S
C820 C814 1.368 . S
C820 C819 1.523 . S
C821 C805 1.429 . S
C821 C817 1.429 . S
C821 C822 1.523 . S
C822 C806 1.368 . S
C822 C818 1.368 . S
C822 C821 1.523 . S
H823 C798 0.950 . S
H824 C800 0.950 . S
H825 C801 0.949 . S
H826 C803 0.950 . S
H827 C805 0.950 . S
C828 C829 1.349 . S
C828 C830 1.327 . S
C828 H853 0.950 . S
C829 C828 1.349 . S
C829 C845 1.349 . S
C830 C828 1.327 . S
C830 C849 1.429 . S
C830 H854 0.950 . S
C831 C848 1.574 . S
C831 C850 1.368 . S
C831 H855 0.949 . S
H832 C836 0.949 . S
C833 C834 1.349 . S
C833 C835 1.327 . S
C833 H856 0.950 . S
C834 C833 1.349 . S
C834 C846 1.349 . S
C835 C833 1.327 . S
C835 C851 1.429 . S
C835 H857 0.950 . S
C836 H832 0.949 . S
C836 C844 1.574 . S
C836 C852 1.368 . S
H837 C845 0.950 . S
H838 C843 0.950 . S
H839 C844 0.949 . S
H840 C846 0.950 . S
H841 C847 0.950 . S
H842 C848 0.949 . S
C843 H838 0.950 . S
C843 C845 1.327 . S
C843 C849 1.429 . S
C844 C836 1.574 . S
C844 H839 0.949 . S
C844 C850 1.368 . S
C845 C829 1.349 . S
C845 H837 0.950 . S
C845 C843 1.327 . S
C846 C834 1.349 . S
C846 H840 0.950 . S
C846 C847 1.327 . S
C847 H841 0.950 . S
C847 C846 1.327 . S
C847 C851 1.429 . S
C848 C831 1.574 . S
C848 H842 0.949 . S
C848 C852 1.368 . S
C849 C830 1.429 . S
C849 C843 1.429 . S
C849 C850 1.523 . S
C850 C831 1.368 . S
C850 C844 1.368 . S
C850 C849 1.523 . S
C851 C835 1.429 . S
C851 C847 1.429 . S
C851 C852 1.523 . S
C852 C836 1.368 . S
C852 C848 1.368 . S
C852 C851 1.523 . S
H853 C828 0.950 . S
H854 C830 0.950 . S
H855 C831 0.949 . S
H856 C833 0.950 . S
H857 C835 0.950 . S
C858 C859 1.349 1_554 S
C858 C860 1.327 1_554 S
C858 H883 0.950 . S
C859 C858 1.349 1_556 S
C859 C875 1.349 . S
C860 C858 1.327 1_556 S
C860 C879 1.429 . S
C860 H884 0.950 . S
C861 C878 1.574 . S
C861 C880 1.368 . S
C861 H885 0.949 . S
H862 C866 0.949 . S
C863 C864 1.349 . S
C863 C865 1.327 . S
C863 H886 0.950 . S
C864 C863 1.349 . S
C864 C876 1.349 . S
C865 C863 1.327 . S
C865 C881 1.429 . S
C865 H887 0.950 . S
C866 H862 0.949 . S
C866 C874 1.574 . S
C866 C882 1.368 . S
H867 C875 0.950 . S
H868 C873 0.950 . S
H869 C874 0.949 . S
H870 C876 0.950 . S
H871 C877 0.950 . S
H872 C878 0.949 . S
C873 H868 0.950 . S
C873 C875 1.327 . S
C873 C879 1.429 . S
C874 C866 1.574 . S
C874 H869 0.949 . S
C874 C880 1.368 . S
C875 C859 1.349 . S
C875 H867 0.950 . S
C875 C873 1.327 . S
C876 C864 1.349 . S
C876 H870 0.950 . S
C876 C877 1.327 . S
C877 H871 0.950 . S
C877 C876 1.327 . S
C877 C881 1.429 . S
C878 C861 1.574 . S
C878 H872 0.949 . S
C878 C882 1.368 . S
C879 C860 1.429 . S
C879 C873 1.429 . S
C879 C880 1.523 . S
C880 C861 1.368 . S
C880 C874 1.368 . S
C880 C879 1.523 . S
C881 C865 1.429 . S
C881 C877 1.429 . S
C881 C882 1.523 . S
C882 C866 1.368 . S
C882 C878 1.368 . S
C882 C881 1.523 . S
H883 C858 0.950 . S
H884 C860 0.950 . S
H885 C861 0.949 . S
H886 C863 0.950 . S
H887 C865 0.950 . S
C888 C889 1.349 . S
C888 C890 1.327 . S
C888 H913 0.950 . S
C889 C888 1.349 . S
C889 C905 1.349 . S
C890 C888 1.327 . S
C890 C909 1.429 . S
C890 H914 0.950 . S
C891 C908 1.574 . S
C891 C910 1.368 . S
C891 H915 0.949 . S
H892 C896 0.949 . S
C893 C894 1.349 . S
C893 C895 1.327 1_554 S
C893 H916 0.950 . S
C894 C893 1.349 . S
C894 C906 1.349 1_554 S
C895 C893 1.327 1_556 S
C895 C911 1.429 . S
C895 H917 0.950 . S
C896 H892 0.949 . S
C896 C904 1.574 . S
C896 C912 1.368 . S
H897 C905 0.950 . S
H898 C903 0.950 . S
H899 C904 0.949 . S
H900 C906 0.950 . S
H901 C907 0.950 . S
H902 C908 0.949 . S
C903 H898 0.950 . S
C903 C905 1.327 . S
C903 C909 1.429 . S
C904 C896 1.574 . S
C904 H899 0.949 . S
C904 C910 1.368 . S
C905 C889 1.349 . S
C905 H897 0.950 . S
C905 C903 1.327 . S
C906 C894 1.349 1_556 S
C906 H900 0.950 . S
C906 C907 1.327 . S
C907 H901 0.950 . S
C907 C906 1.327 . S
C907 C911 1.429 . S
C908 C891 1.574 . S
C908 H902 0.949 . S
C908 C912 1.368 . S
C909 C890 1.429 . S
C909 C903 1.429 . S
C909 C910 1.523 . S
C910 C891 1.368 . S
C910 C904 1.368 . S
C910 C909 1.523 . S
C911 C895 1.429 . S
C911 C907 1.429 . S
C911 C912 1.523 . S
C912 C896 1.368 . S
C912 C908 1.368 . S
C912 C911 1.523 . S
H913 C888 0.950 . S
H914 C890 0.950 . S
H915 C891 0.949 . S
H916 C893 0.950 . S
H917 C895 0.950 . S
C918 C919 1.349 . S
C918 C920 1.327 . S
C918 H943 0.950 . S
C919 C918 1.349 . S
C919 C935 1.349 . S
C920 C918 1.327 . S
C920 C939 1.429 . S
C920 H944 0.950 . S
C921 C938 1.574 . S
C921 C940 1.368 . S
C921 H945 0.949 . S
H922 C926 0.949 . S
C923 C924 1.349 . S
C923 C925 1.327 . S
C923 H946 0.950 . S
C924 C923 1.349 . S
C924 C936 1.349 . S
C925 C923 1.327 . S
C925 C941 1.429 . S
C925 H947 0.950 . S
C926 H922 0.949 . S
C926 C934 1.574 . S
C926 C942 1.368 . S
H927 C935 0.950 . S
H928 C933 0.950 . S
H929 C934 0.949 . S
H930 C936 0.950 . S
H931 C937 0.950 . S
H932 C938 0.949 . S
C933 H928 0.950 . S
C933 C935 1.327 . S
C933 C939 1.429 . S
C934 C926 1.574 . S
C934 H929 0.949 . S
C934 C940 1.368 . S
C935 C919 1.349 . S
C935 H927 0.950 . S
C935 C933 1.327 . S
C936 C924 1.349 . S
C936 H930 0.950 . S
C936 C937 1.327 . S
C937 H931 0.950 . S
C937 C936 1.327 . S
C937 C941 1.429 . S
C938 C921 1.574 . S
C938 H932 0.949 . S
C938 C942 1.368 . S
C939 C920 1.429 . S
C939 C933 1.429 . S
C939 C940 1.523 . S
C940 C921 1.368 . S
C940 C934 1.368 . S
C940 C939 1.523 . S
C941 C925 1.429 . S
C941 C937 1.429 . S
C941 C942 1.523 . S
C942 C926 1.368 . S
C942 C938 1.368 . S
C942 C941 1.523 . S
H943 C918 0.950 . S
H944 C920 0.950 . S
H945 C921 0.949 . S
H946 C923 0.950 . S
H947 C925 0.950 . S
C948 C949 1.349 . S
C948 C950 1.327 . S
C948 H973 0.950 . S
C949 C948 1.349 . S
C949 C965 1.349 . S
C950 C948 1.327 . S
C950 C969 1.429 . S
C950 H974 0.950 . S
C951 C968 1.574 . S
C951 C970 1.368 . S
C951 H975 0.949 . S
H952 C956 0.949 . S
C953 C954 1.349 . S
C953 C955 1.327 . S
C953 H976 0.950 . S
C954 C953 1.349 . S
C954 C966 1.349 . S
C955 C953 1.327 . S
C955 C971 1.429 . S
C955 H977 0.950 . S
C956 H952 0.949 . S
C956 C964 1.574 . S
C956 C972 1.368 . S
H957 C965 0.950 . S
H958 C963 0.950 . S
H959 C964 0.949 . S
H960 C966 0.950 . S
H961 C967 0.950 . S
H962 C968 0.949 . S
C963 H958 0.950 . S
C963 C965 1.327 . S
C963 C969 1.429 . S
C964 C956 1.574 . S
C964 H959 0.949 . S
C964 C970 1.368 . S
C965 C949 1.349 . S
C965 H957 0.950 . S
C965 C963 1.327 . S
C966 C954 1.349 . S
C966 H960 0.950 . S
C966 C967 1.327 . S
C967 H961 0.950 . S
C967 C966 1.327 . S
C967 C971 1.429 . S
C968 C951 1.574 . S
C968 H962 0.949 . S
C968 C972 1.368 . S
C969 C950 1.429 . S
C969 C963 1.429 . S
C969 C970 1.523 . S
C970 C951 1.368 . S
C970 C964 1.368 . S
C970 C969 1.523 . S
C971 C955 1.429 . S
C971 C967 1.429 . S
C971 C972 1.523 . S
C972 C956 1.368 . S
C972 C968 1.368 . S
C972 C971 1.523 . S
H973 C948 0.950 . S
H974 C950 0.950 . S
H975 C951 0.949 . S
H976 C953 0.950 . S
H977 C955 0.950 . S
C978 C979 1.349 . S
C978 C980 1.327 . S
C978 H1003 0.950 . S
C979 C978 1.349 . S
C979 C995 1.349 . S
C980 C978 1.327 . S
C980 C999 1.429 . S
C980 H1004 0.950 . S
C981 C998 1.574 . S
C981 C1000 1.368 . S
C981 H1005 0.949 . S
H982 C986 0.949 . S
C983 C984 1.349 1_554 S
C983 C985 1.327 . S
C983 H1006 0.950 . S
C984 C983 1.349 1_556 S
C984 C996 1.349 . S
C985 C983 1.327 . S
C985 C1001 1.429 . S
C985 H1007 0.950 . S
C986 H982 0.949 . S
C986 C994 1.574 . S
C986 C1002 1.368 . S
H987 C995 0.950 . S
H988 C993 0.950 . S
H989 C994 0.949 . S
H990 C996 0.950 . S
H991 C997 0.950 . S
H992 C998 0.949 . S
C993 H988 0.950 . S
C993 C995 1.327 . S
C993 C999 1.429 . S
C994 C986 1.574 . S
C994 H989 0.949 . S
C994 C1000 1.368 . S
C995 C979 1.349 . S
C995 H987 0.950 . S
C995 C993 1.327 . S
C996 C984 1.349 . S
C996 H990 0.950 . S
C996 C997 1.327 1_556 S
C997 H991 0.950 . S
C997 C996 1.327 1_554 S
C997 C1001 1.429 . S
C998 C981 1.574 . S
C998 H992 0.949 . S
C998 C1002 1.368 . S
C999 C980 1.429 . S
C999 C993 1.429 . S
C999 C1000 1.523 . S
C1000 C981 1.368 . S
C1000 C994 1.368 . S
C1000 C999 1.523 . S
C1001 C985 1.429 . S
C1001 C997 1.429 . S
C1001 C1002 1.523 . S
C1002 C986 1.368 . S
C1002 C998 1.368 . S
C1002 C1001 1.523 . S
H1003 C978 0.950 . S
H1004 C980 0.950 . S
H1005 C981 0.949 . S
H1006 C983 0.950 . S
H1007 C985 0.950 . S
C1008 C1009 1.349 . S
C1008 C1010 1.327 . S
C1008 H1033 0.950 . S
C1009 C1008 1.349 . S
C1009 C1025 1.349 . S
C1010 C1008 1.327 . S
C1010 C1029 1.429 . S
C1010 H1034 0.950 . S
C1011 C1028 1.574 . S
C1011 C1030 1.368 . S
C1011 H1035 0.949 . S
H1012 C1016 0.949 . S
C1013 C1014 1.349 . S
C1013 C1015 1.327 . S
C1013 H1036 0.950 . S
C1014 C1013 1.349 . S
C1014 C1026 1.349 . S
C1015 C1013 1.327 . S
C1015 C1031 1.429 . S
C1015 H1037 0.950 . S
C1016 H1012 0.949 . S
C1016 C1024 1.574 . S
C1016 C1032 1.368 . S
H1017 C1025 0.950 . S
H1018 C1023 0.950 . S
H1019 C1024 0.949 . S
H1020 C1026 0.950 . S
H1021 C1027 0.950 . S
H1022 C1028 0.949 . S
C1023 H1018 0.950 . S
C1023 C1025 1.327 . S
C1023 C1029 1.429 . S
C1024 C1016 1.574 . S
C1024 H1019 0.949 . S
C1024 C1030 1.368 . S
C1025 C1009 1.349 . S
C1025 H1017 0.950 . S
C1025 C1023 1.327 . S
C1026 C1014 1.349 . S
C1026 H1020 0.950 . S
C1026 C1027 1.327 . S
C1027 H1021 0.950 . S
C1027 C1026 1.327 . S
C1027 C1031 1.429 . S
C1028 C1011 1.574 . S
C1028 H1022 0.949 . S
C1028 C1032 1.368 . S
C1029 C1010 1.429 . S
C1029 C1023 1.429 . S
C1029 C1030 1.523 . S
C1030 C1011 1.368 . S
C1030 C1024 1.368 . S
C1030 C1029 1.523 . S
C1031 C1015 1.429 . S
C1031 C1027 1.429 . S
C1031 C1032 1.523 . S
C1032 C1016 1.368 . S
C1032 C1028 1.368 . S
C1032 C1031 1.523 . S
H1033 C1008 0.950 . S
H1034 C1010 0.950 . S
H1035 C1011 0.949 . S
H1036 C1013 0.950 . S
H1037 C1015 0.950 . S
C1038 C1039 1.349 . S
C1038 C1040 1.327 . S
C1038 H1063 0.950 . S
C1039 C1038 1.349 . S
C1039 C1055 1.349 1_556 S
C1040 C1038 1.327 . S
C1040 C1059 1.429 . S
C1040 H1064 0.950 . S
C1041 C1058 1.574 . S
C1041 C1060 1.368 . S
C1041 H1065 0.949 . S
H1042 C1046 0.949 . S
C1043 C1044 1.349 . S
C1043 C1045 1.327 . S
C1043 H1066 0.950 . S
C1044 C1043 1.349 . S
C1044 C1056 1.349 . S
C1045 C1043 1.327 . S
C1045 C1061 1.429 . S
C1045 H1067 0.950 . S
C1046 H1042 0.949 . S
C1046 C1054 1.574 . S
C1046 C1062 1.368 . S
H1047 C1055 0.950 . S
H1048 C1053 0.950 . S
H1049 C1054 0.949 . S
H1050 C1056 0.950 . S
H1051 C1057 0.950 . S
H1052 C1058 0.949 . S
C1053 H1048 0.950 . S
C1053 C1055 1.327 1_556 S
C1053 C1059 1.429 . S
C1054 C1046 1.574 . S
C1054 H1049 0.949 . S
C1054 C1060 1.368 . S
C1055 C1039 1.349 1_554 S
C1055 H1047 0.950 . S
C1055 C1053 1.327 1_554 S
C1056 C1044 1.349 . S
C1056 H1050 0.950 . S
C1056 C1057 1.327 . S
C1057 H1051 0.950 . S
C1057 C1056 1.327 . S
C1057 C1061 1.429 . S
C1058 C1041 1.574 . S
C1058 H1052 0.949 . S
C1058 C1062 1.368 . S
C1059 C1040 1.429 . S
C1059 C1053 1.429 . S
C1059 C1060 1.523 . S
C1060 C1041 1.368 . S
C1060 C1054 1.368 . S
C1060 C1059 1.523 . S
C1061 C1045 1.429 . S
C1061 C1057 1.429 . S
C1061 C1062 1.523 . S
C1062 C1046 1.368 . S
C1062 C1058 1.368 . S
C1062 C1061 1.523 . S
H1063 C1038 0.950 . S
H1064 C1040 0.950 . S
H1065 C1041 0.949 . S
H1066 C1043 0.950 . S
H1067 C1045 0.950 . S
C1068 C1069 1.349 1_556 S
C1068 C1070 1.327 1_556 S
C1068 H1093 0.950 . S
C1069 C1068 1.349 1_554 S
C1069 C1085 1.349 . S
C1070 C1068 1.327 1_554 S
C1070 C1089 1.429 . S
C1070 H1094 0.950 . S
C1071 C1088 1.574 . S
C1071 C1090 1.368 . S
C1071 H1095 0.949 . S
H1072 C1076 0.949 . S
C1073 C1074 1.349 . S
C1073 C1075 1.327 . S
C1073 H1096 0.950 . S
C1074 C1073 1.349 . S
C1074 C1086 1.349 . S
C1075 C1073 1.327 . S
C1075 C1091 1.429 . S
C1075 H1097 0.950 . S
C1076 H1072 0.949 . S
C1076 C1084 1.574 . S
C1076 C1092 1.368 . S
H1077 C1085 0.950 . S
H1078 C1083 0.950 . S
H1079 C1084 0.949 . S
H1080 C1086 0.950 . S
H1081 C1087 0.950 . S
H1082 C1088 0.949 . S
C1083 H1078 0.950 . S
C1083 C1085 1.327 . S
C1083 C1089 1.429 . S
C1084 C1076 1.574 . S
C1084 H1079 0.949 . S
C1084 C1090 1.368 . S
C1085 C1069 1.349 . S
C1085 H1077 0.950 . S
C1085 C1083 1.327 . S
C1086 C1074 1.349 . S
C1086 H1080 0.950 . S
C1086 C1087 1.327 . S
C1087 H1081 0.950 . S
C1087 C1086 1.327 . S
C1087 C1091 1.429 . S
C1088 C1071 1.574 . S
C1088 H1082 0.949 . S
C1088 C1092 1.368 . S
C1089 C1070 1.429 . S
C1089 C1083 1.429 . S
C1089 C1090 1.523 . S
C1090 C1071 1.368 . S
C1090 C1084 1.368 . S
C1090 C1089 1.523 . S
C1091 C1075 1.429 . S
C1091 C1087 1.429 . S
C1091 C1092 1.523 . S
C1092 C1076 1.368 . S
C1092 C1088 1.368 . S
C1092 C1091 1.523 . S
H1093 C1068 0.950 . S
H1094 C1070 0.950 . S
H1095 C1071 0.949 . S
H1096 C1073 0.950 . S
H1097 C1075 0.950 . S
C1098 C1099 1.349 . S
C1098 C1100 1.327 . S
C1098 H1123 0.950 . S
C1099 C1098 1.349 . S
C1099 C1115 1.349 . S
C1100 C1098 1.327 . S
C1100 C1119 1.429 . S
C1100 H1124 0.950 . S
C1101 C1118 1.574 . S
C1101 C1120 1.368 . S
C1101 H1125 0.949 . S
H1102 C1106 0.949 . S
C1103 C1104 1.349 . S
C1103 C1105 1.327 . S
C1103 H1126 0.950 . S
C1104 C1103 1.349 . S
C1104 C1116 1.349 . S
C1105 C1103 1.327 . S
C1105 C1121 1.429 . S
C1105 H1127 0.950 . S
C1106 H1102 0.949 . S
C1106 C1114 1.574 . S
C1106 C1122 1.368 . S
H1107 C1115 0.950 . S
H1108 C1113 0.950 . S
H1109 C1114 0.949 . S
H1110 C1116 0.950 . S
H1111 C1117 0.950 . S
H1112 C1118 0.949 . S
C1113 H1108 0.950 . S
C1113 C1115 1.327 . S
C1113 C1119 1.429 . S
C1114 C1106 1.574 . S
C1114 H1109 0.949 . S
C1114 C1120 1.368 . S
C1115 C1099 1.349 . S
C1115 H1107 0.950 . S
C1115 C1113 1.327 . S
C1116 C1104 1.349 . S
C1116 H1110 0.950 . S
C1116 C1117 1.327 . S
C1117 H1111 0.950 . S
C1117 C1116 1.327 . S
C1117 C1121 1.429 . S
C1118 C1101 1.574 . S
C1118 H1112 0.949 . S
C1118 C1122 1.368 . S
C1119 C1100 1.429 . S
C1119 C1113 1.429 . S
C1119 C1120 1.523 . S
C1120 C1101 1.368 . S
C1120 C1114 1.368 . S
C1120 C1119 1.523 . S
C1121 C1105 1.429 . S
C1121 C1117 1.429 . S
C1121 C1122 1.523 . S
C1122 C1106 1.368 . S
C1122 C1118 1.368 . S
C1122 C1121 1.523 . S
H1123 C1098 0.950 . S
H1124 C1100 0.950 . S
H1125 C1101 0.949 . S
H1126 C1103 0.950 . S
H1127 C1105 0.950 . S
C1128 C1129 1.349 . S
C1128 C1130 1.327 . S
C1128 H1153 0.950 . S
C1129 C1128 1.349 . S
C1129 C1145 1.349 . S
C1130 C1128 1.327 . S
C1130 C1149 1.429 . S
C1130 H1154 0.950 . S
C1131 C1148 1.574 . S
C1131 C1150 1.368 . S
C1131 H1155 0.949 . S
H1132 C1136 0.949 . S
C1133 C1134 1.349 . S
C1133 C1135 1.327 . S
C1133 H1156 0.950 . S
C1134 C1133 1.349 . S
C1134 C1146 1.349 . S
C1135 C1133 1.327 . S
C1135 C1151 1.429 . S
C1135 H1157 0.950 . S
C1136 H1132 0.949 . S
C1136 C1144 1.574 . S
C1136 C1152 1.368 . S
H1137 C1145 0.950 . S
H1138 C1143 0.950 . S
H1139 C1144 0.949 . S
H1140 C1146 0.950 . S
H1141 C1147 0.950 . S
H1142 C1148 0.949 . S
C1143 H1138 0.950 . S
C1143 C1145 1.327 . S
C1143 C1149 1.429 . S
C1144 C1136 1.574 . S
C1144 H1139 0.949 . S
C1144 C1150 1.368 . S
C1145 C1129 1.349 . S
C1145 H1137 0.950 . S
C1145 C1143 1.327 . S
C1146 C1134 1.349 . S
C1146 H1140 0.950 . S
C1146 C1147 1.327 . S
C1147 H1141 0.950 . S
C1147 C1146 1.327 . S
C1147 C1151 1.429 . S
C1148 C1131 1.574 . S
C1148 H1142 0.949 . S
C1148 C1152 1.368 . S
C1149 C1130 1.429 . S
C1149 C1143 1.429 . S
C1149 C1150 1.523 . S
C1150 C1131 1.368 . S
C1150 C1144 1.368 . S
C1150 C1149 1.523 . S
C1151 C1135 1.429 . S
C1151 C1147 1.429 . S
C1151 C1152 1.523 . S
C1152 C1136 1.368 . S
C1152 C1148 1.368 . S
C1152 C1151 1.523 . S
H1153 C1128 0.950 . S
H1154 C1130 0.950 . S
H1155 C1131 0.949 . S
H1156 C1133 0.950 . S
H1157 C1135 0.950 . S
C1158 C1159 1.349 1_554 S
C1158 C1160 1.327 . S
C1158 H1183 0.950 1_554 S
C1159 C1158 1.349 1_556 S
C1159 C1175 1.349 . S
C1160 C1158 1.327 . S
C1160 C1179 1.429 . S
C1160 H1184 0.950 . S
C1161 C1178 1.574 . S
C1161 C1180 1.368 . S
C1161 H1185 0.949 . S
H1162 C1166 0.949 . S
C1163 C1164 1.349 . S
C1163 C1165 1.327 . S
C1163 H1186 0.950 . S
C1164 C1163 1.349 . S
C1164 C1176 1.349 . S
C1165 C1163 1.327 . S
C1165 C1181 1.429 . S
C1165 H1187 0.950 . S
C1166 H1162 0.949 . S
C1166 C1174 1.574 . S
C1166 C1182 1.368 . S
H1167 C1175 0.950 . S
H1168 C1173 0.950 . S
H1169 C1174 0.949 . S
H1170 C1176 0.950 . S
H1171 C1177 0.950 . S
H1172 C1178 0.949 . S
C1173 H1168 0.950 . S
C1173 C1175 1.327 1_554 S
C1173 C1179 1.429 . S
C1174 C1166 1.574 . S
C1174 H1169 0.949 . S
C1174 C1180 1.368 . S
C1175 C1159 1.349 . S
C1175 H1167 0.950 . S
C1175 C1173 1.327 1_556 S
C1176 C1164 1.349 . S
C1176 H1170 0.950 . S
C1176 C1177 1.327 . S
C1177 H1171 0.950 . S
C1177 C1176 1.327 . S
C1177 C1181 1.429 . S
C1178 C1161 1.574 . S
C1178 H1172 0.949 . S
C1178 C1182 1.368 . S
C1179 C1160 1.429 . S
C1179 C1173 1.429 . S
C1179 C1180 1.523 . S
C1180 C1161 1.368 . S
C1180 C1174 1.368 . S
C1180 C1179 1.523 . S
C1181 C1165 1.429 . S
C1181 C1177 1.429 . S
C1181 C1182 1.523 . S
C1182 C1166 1.368 . S
C1182 C1178 1.368 . S
C1182 C1181 1.523 . S
H1183 C1158 0.950 1_556 S
H1184 C1160 0.950 . S
H1185 C1161 0.949 . S
H1186 C1163 0.950 . S
H1187 C1165 0.950 . S
C1188 C1189 1.349 . S
C1188 C1190 1.327 1_554 S
C1188 H1213 0.950 . S
C1189 C1188 1.349 . S
C1189 C1205 1.349 1_554 S
C1190 C1188 1.327 1_556 S
C1190 C1209 1.429 . S
C1190 H1214 0.950 . S
C1191 C1208 1.574 . S
C1191 C1210 1.368 . S
C1191 H1215 0.949 . S
H1192 C1196 0.949 . S
C1193 C1194 1.349 . S
C1193 C1195 1.327 . S
C1193 H1216 0.950 . S
C1194 C1193 1.349 . S
C1194 C1206 1.349 . S
C1195 C1193 1.327 . S
C1195 C1211 1.429 . S
C1195 H1217 0.950 . S
C1196 H1192 0.949 . S
C1196 C1204 1.574 . S
C1196 C1212 1.368 . S
H1197 C1205 0.950 1_554 S
H1198 C1203 0.950 . S
H1199 C1204 0.949 . S
H1200 C1206 0.950 . S
H1201 C1207 0.950 . S
H1202 C1208 0.949 . S
C1203 H1198 0.950 . S
C1203 C1205 1.327 . S
C1203 C1209 1.429 . S
C1204 C1196 1.574 . S
C1204 H1199 0.949 . S
C1204 C1210 1.368 . S
C1205 C1189 1.349 1_556 S
C1205 H1197 0.950 1_556 S
C1205 C1203 1.327 . S
C1206 C1194 1.349 . S
C1206 H1200 0.950 . S
C1206 C1207 1.327 . S
C1207 H1201 0.950 . S
C1207 C1206 1.327 . S
C1207 C1211 1.429 . S
C1208 C1191 1.574 . S
C1208 H1202 0.949 . S
C1208 C1212 1.368 . S
C1209 C1190 1.429 . S
C1209 C1203 1.429 . S
C1209 C1210 1.523 . S
C1210 C1191 1.368 . S
C1210 C1204 1.368 . S
C1210 C1209 1.523 . S
C1211 C1195 1.429 . S
C1211 C1207 1.429 . S
C1211 C1212 1.523 . S
C1212 C1196 1.368 . S
C1212 C1208 1.368 . S
C1212 C1211 1.523 . S
H1213 C1188 0.950 . S
H1214 C1190 0.950 . S
H1215 C1191 0.949 . S
H1216 C1193 0.950 . S
H1217 C1195 0.950 . S
C1218 C1219 1.349 . S
C1218 C1220 1.327 . S
C1218 H1243 0.950 . S
C1219 C1218 1.349 . S
C1219 C1235 1.349 . S
C1220 C1218 1.327 . S
C1220 C1239 1.429 . S
C1220 H1244 0.950 . S
C1221 C1238 1.574 . S
C1221 C1240 1.368 . S
C1221 H1245 0.949 . S
H1222 C1226 0.949 . S
C1223 C1224 1.349 . S
C1223 C1225 1.327 . S
C1223 H1246 0.950 . S
C1224 C1223 1.349 . S
C1224 C1236 1.349 . S
C1225 C1223 1.327 . S
C1225 C1241 1.429 . S
C1225 H1247 0.950 . S
C1226 H1222 0.949 . S
C1226 C1234 1.574 . S
C1226 C1242 1.368 . S
H1227 C1235 0.950 . S
H1228 C1233 0.950 . S
H1229 C1234 0.949 . S
H1230 C1236 0.950 . S
H1231 C1237 0.950 . S
H1232 C1238 0.949 . S
C1233 H1228 0.950 . S
C1233 C1235 1.327 . S
C1233 C1239 1.429 . S
C1234 C1226 1.574 . S
C1234 H1229 0.949 . S
C1234 C1240 1.368 . S
C1235 C1219 1.349 . S
C1235 H1227 0.950 . S
C1235 C1233 1.327 . S
C1236 C1224 1.349 . S
C1236 H1230 0.950 . S
C1236 C1237 1.327 . S
C1237 H1231 0.950 . S
C1237 C1236 1.327 . S
C1237 C1241 1.429 . S
C1238 C1221 1.574 . S
C1238 H1232 0.949 . S
C1238 C1242 1.368 . S
C1239 C1220 1.429 . S
C1239 C1233 1.429 . S
C1239 C1240 1.523 . S
C1240 C1221 1.368 . S
C1240 C1234 1.368 . S
C1240 C1239 1.523 . S
C1241 C1225 1.429 . S
C1241 C1237 1.429 . S
C1241 C1242 1.523 . S
C1242 C1226 1.368 . S
C1242 C1238 1.368 . S
C1242 C1241 1.523 . S
H1243 C1218 0.950 . S
H1244 C1220 0.950 . S
H1245 C1221 0.949 . S
H1246 C1223 0.950 . S
H1247 C1225 0.950 . S
C1248 C1249 1.349 . S
C1248 C1250 1.327 . S
C1248 H1273 0.950 . S
C1249 C1248 1.349 . S
C1249 C1265 1.349 . S
C1250 C1248 1.327 . S
C1250 C1269 1.429 . S
C1250 H1274 0.950 . S
C1251 C1268 1.574 . S
C1251 C1270 1.368 . S
C1251 H1275 0.949 . S
H1252 C1256 0.949 . S
C1253 C1254 1.349 . S
C1253 C1255 1.327 . S
C1253 H1276 0.950 . S
C1254 C1253 1.349 . S
C1254 C1266 1.349 . S
C1255 C1253 1.327 . S
C1255 C1271 1.429 . S
C1255 H1277 0.950 . S
C1256 H1252 0.949 . S
C1256 C1264 1.574 . S
C1256 C1272 1.368 . S
H1257 C1265 0.950 . S
H1258 C1263 0.950 . S
H1259 C1264 0.949 . S
H1260 C1266 0.950 . S
H1261 C1267 0.950 . S
H1262 C1268 0.949 . S
C1263 H1258 0.950 . S
C1263 C1265 1.327 . S
C1263 C1269 1.429 . S
C1264 C1256 1.574 . S
C1264 H1259 0.949 . S
C1264 C1270 1.368 . S
C1265 C1249 1.349 . S
C1265 H1257 0.950 . S
C1265 C1263 1.327 . S
C1266 C1254 1.349 . S
C1266 H1260 0.950 . S
C1266 C1267 1.327 . S
C1267 H1261 0.950 . S
C1267 C1266 1.327 . S
C1267 C1271 1.429 . S
C1268 C1251 1.574 . S
C1268 H1262 0.949 . S
C1268 C1272 1.368 . S
C1269 C1250 1.429 . S
C1269 C1263 1.429 . S
C1269 C1270 1.523 . S
C1270 C1251 1.368 . S
C1270 C1264 1.368 . S
C1270 C1269 1.523 . S
C1271 C1255 1.429 . S
C1271 C1267 1.429 . S
C1271 C1272 1.523 . S
C1272 C1256 1.368 . S
C1272 C1268 1.368 . S
C1272 C1271 1.523 . S
H1273 C1248 0.950 . S
H1274 C1250 0.950 . S
H1275 C1251 0.949 . S
H1276 C1253 0.950 . S
H1277 C1255 0.950 . S
C1278 C1279 1.349 1_556 S
C1278 C1280 1.327 . S
C1278 H1303 0.950 . S
C1279 C1278 1.349 1_554 S
C1279 C1295 1.349 . S
C1280 C1278 1.327 . S
C1280 C1299 1.429 . S
C1280 H1304 0.950 . S
C1281 C1298 1.574 . S
C1281 C1300 1.368 . S
C1281 H1305 0.949 . S
H1282 C1286 0.949 . S
C1283 C1284 1.349 . S
C1283 C1285 1.327 . S
C1283 H1306 0.950 . S
C1284 C1283 1.349 . S
C1284 C1296 1.349 . S
C1285 C1283 1.327 . S
C1285 C1301 1.429 . S
C1285 H1307 0.950 . S
C1286 H1282 0.949 . S
C1286 C1294 1.574 . S
C1286 C1302 1.368 . S
H1287 C1295 0.950 . S
H1288 C1293 0.950 . S
H1289 C1294 0.949 . S
H1290 C1296 0.950 . S
H1291 C1297 0.950 . S
H1292 C1298 0.949 . S
C1293 H1288 0.950 . S
C1293 C1295 1.327 1_556 S
C1293 C1299 1.429 . S
C1294 C1286 1.574 . S
C1294 H1289 0.949 . S
C1294 C1300 1.368 . S
C1295 C1279 1.349 . S
C1295 H1287 0.950 . S
C1295 C1293 1.327 1_554 S
C1296 C1284 1.349 . S
C1296 H1290 0.950 . S
C1296 C1297 1.327 . S
C1297 H1291 0.950 . S
C1297 C1296 1.327 . S
C1297 C1301 1.429 . S
C1298 C1281 1.574 . S
C1298 H1292 0.949 . S
C1298 C1302 1.368 . S
C1299 C1280 1.429 . S
C1299 C1293 1.429 . S
C1299 C1300 1.523 . S
C1300 C1281 1.368 . S
C1300 C1294 1.368 . S
C1300 C1299 1.523 . S
C1301 C1285 1.429 . S
C1301 C1297 1.429 . S
C1301 C1302 1.523 . S
C1302 C1286 1.368 . S
C1302 C1298 1.368 . S
C1302 C1301 1.523 . S
H1303 C1278 0.950 . S
H1304 C1280 0.950 . S
H1305 C1281 0.949 . S
H1306 C1283 0.950 . S
H1307 C1285 0.950 . S
C1308 C1309 1.349 . S
C1308 C1310 1.327 1_556 S
C1308 H1333 0.950 . S
C1309 C1308 1.349 . S
C1309 C1325 1.349 1_556 S
C1310 C1308 1.327 1_554 S
C1310 C1329 1.429 . S
C1310 H1334 0.950 . S
C1311 C1328 1.574 . S
C1311 C1330 1.368 . S
C1311 H1335 0.949 . S
H1312 C1316 0.949 . S
C1313 C1314 1.349 . S
C1313 C1315 1.327 . S
C1313 H1336 0.950 . S
C1314 C1313 1.349 . S
C1314 C1326 1.349 . S
C1315 C1313 1.327 . S
C1315 C1331 1.429 . S
C1315 H1337 0.950 . S
C1316 H1312 0.949 . S
C1316 C1324 1.574 . S
C1316 C1332 1.368 . S
H1317 C1325 0.950 1_556 S
H1318 C1323 0.950 . S
H1319 C1324 0.949 . S
H1320 C1326 0.950 . S
H1321 C1327 0.950 . S
H1322 C1328 0.949 . S
C1323 H1318 0.950 . S
C1323 C1325 1.327 . S
C1323 C1329 1.429 . S
C1324 C1316 1.574 . S
C1324 H1319 0.949 . S
C1324 C1330 1.368 . S
C1325 C1309 1.349 1_554 S
C1325 H1317 0.950 1_554 S
C1325 C1323 1.327 . S
C1326 C1314 1.349 . S
C1326 H1320 0.950 . S
C1326 C1327 1.327 . S
C1327 H1321 0.950 . S
C1327 C1326 1.327 . S
C1327 C1331 1.429 . S
C1328 C1311 1.574 . S
C1328 H1322 0.949 . S
C1328 C1332 1.368 . S
C1329 C1310 1.429 . S
C1329 C1323 1.429 . S
C1329 C1330 1.523 . S
C1330 C1311 1.368 . S
C1330 C1324 1.368 . S
C1330 C1329 1.523 . S
C1331 C1315 1.429 . S
C1331 C1327 1.429 . S
C1331 C1332 1.523 . S
C1332 C1316 1.368 . S
C1332 C1328 1.368 . S
C1332 C1331 1.523 . S
H1333 C1308 0.950 . S
H1334 C1310 0.950 . S
H1335 C1311 0.949 . S
H1336 C1313 0.950 . S
H1337 C1315 0.950 . S
C1338 C1339 1.349 . S
C1338 C1340 1.327 . S
C1338 H1363 0.950 . S
C1339 C1338 1.349 . S
C1339 C1355 1.349 . S
C1340 C1338 1.327 . S
C1340 C1359 1.429 . S
C1340 H1364 0.950 . S
C1341 C1358 1.574 . S
C1341 C1360 1.368 . S
C1341 H1365 0.949 . S
H1342 C1346 0.949 . S
C1343 C1344 1.349 . S
C1343 C1345 1.327 . S
C1343 H1366 0.950 . S
C1344 C1343 1.349 . S
C1344 C1356 1.349 . S
C1345 C1343 1.327 . S
C1345 C1361 1.429 . S
C1345 H1367 0.950 . S
C1346 H1342 0.949 . S
C1346 C1354 1.574 . S
C1346 C1362 1.368 . S
H1347 C1355 0.950 . S
H1348 C1353 0.950 . S
H1349 C1354 0.949 . S
H1350 C1356 0.950 . S
H1351 C1357 0.950 . S
H1352 C1358 0.949 . S
C1353 H1348 0.950 . S
C1353 C1355 1.327 . S
C1353 C1359 1.429 . S
C1354 C1346 1.574 . S
C1354 H1349 0.949 . S
C1354 C1360 1.368 . S
C1355 C1339 1.349 . S
C1355 H1347 0.950 . S
C1355 C1353 1.327 . S
C1356 C1344 1.349 . S
C1356 H1350 0.950 . S
C1356 C1357 1.327 . S
C1357 H1351 0.950 . S
C1357 C1356 1.327 . S
C1357 C1361 1.429 . S
C1358 C1341 1.574 . S
C1358 H1352 0.949 . S
C1358 C1362 1.368 . S
C1359 C1340 1.429 . S
C1359 C1353 1.429 . S
C1359 C1360 1.523 . S
C1360 C1341 1.368 . S
C1360 C1354 1.368 . S
C1360 C1359 1.523 . S
C1361 C1345 1.429 . S
C1361 C1357 1.429 . S
C1361 C1362 1.523 . S
C1362 C1346 1.368 . S
C1362 C1358 1.368 . S
C1362 C1361 1.523 . S
H1363 C1338 0.950 . S
H1364 C1340 0.950 . S
H1365 C1341 0.949 . S
H1366 C1343 0.950 . S
H1367 C1345 0.950 . S
C1368 C1369 1.349 . S
C1368 C1370 1.327 . S
C1368 H1393 0.950 . S
C1369 C1368 1.349 . S
C1369 C1385 1.349 . S
C1370 C1368 1.327 . S
C1370 C1389 1.429 . S
C1370 H1394 0.950 . S
C1371 C1388 1.574 . S
C1371 C1390 1.368 . S
C1371 H1395 0.949 . S
H1372 C1376 0.949 . S
C1373 C1374 1.349 . S
C1373 C1375 1.327 . S
C1373 H1396 0.950 . S
C1374 C1373 1.349 . S
C1374 C1386 1.349 . S
C1375 C1373 1.327 . S
C1375 C1391 1.429 . S
C1375 H1397 0.950 . S
C1376 H1372 0.949 . S
C1376 C1384 1.574 . S
C1376 C1392 1.368 . S
H1377 C1385 0.950 . S
H1378 C1383 0.950 . S
H1379 C1384 0.949 . S
H1380 C1386 0.950 . S
H1381 C1387 0.950 . S
H1382 C1388 0.949 . S
C1383 H1378 0.950 . S
C1383 C1385 1.327 . S
C1383 C1389 1.429 . S
C1384 C1376 1.574 . S
C1384 H1379 0.949 . S
C1384 C1390 1.368 . S
C1385 C1369 1.349 . S
C1385 H1377 0.950 . S
C1385 C1383 1.327 . S
C1386 C1374 1.349 . S
C1386 H1380 0.950 . S
C1386 C1387 1.327 . S
C1387 H1381 0.950 . S
C1387 C1386 1.327 . S
C1387 C1391 1.429 . S
C1388 C1371 1.574 . S
C1388 H1382 0.949 . S
C1388 C1392 1.368 . S
C1389 C1370 1.429 . S
C1389 C1383 1.429 . S
C1389 C1390 1.523 . S
C1390 C1371 1.368 . S
C1390 C1384 1.368 . S
C1390 C1389 1.523 . S
C1391 C1375 1.429 . S
C1391 C1387 1.429 . S
C1391 C1392 1.523 . S
C1392 C1376 1.368 . S
C1392 C1388 1.368 . S
C1392 C1391 1.523 . S
H1393 C1368 0.950 . S
H1394 C1370 0.950 . S
H1395 C1371 0.949 . S
H1396 C1373 0.950 . S
H1397 C1375 0.950 . S
C1398 C1399 1.349 . S
C1398 C1400 1.327 . S
C1398 H1423 0.950 . S
C1399 C1398 1.349 . S
C1399 C1415 1.349 . S
C1400 C1398 1.327 . S
C1400 C1419 1.429 . S
C1400 H1424 0.950 . S
C1401 C1418 1.574 . S
C1401 C1420 1.368 . S
C1401 H1425 0.949 . S
H1402 C1406 0.949 . S
C1403 C1404 1.349 . S
C1403 C1405 1.327 . S
C1403 H1426 0.950 . S
C1404 C1403 1.349 . S
C1404 C1416 1.349 1_554 S
C1405 C1403 1.327 . S
C1405 C1421 1.429 . S
C1405 H1427 0.950 . S
C1406 H1402 0.949 . S
C1406 C1414 1.574 . S
C1406 C1422 1.368 . S
H1407 C1415 0.950 . S
H1408 C1413 0.950 . S
H1409 C1414 0.949 . S
H1410 C1416 0.950 . S
H1411 C1417 0.950 . S
H1412 C1418 0.949 . S
C1413 H1408 0.950 . S
C1413 C1415 1.327 . S
C1413 C1419 1.429 . S
C1414 C1406 1.574 . S
C1414 H1409 0.949 . S
C1414 C1420 1.368 . S
C1415 C1399 1.349 . S
C1415 H1407 0.950 . S
C1415 C1413 1.327 . S
C1416 C1404 1.349 1_556 S
C1416 H1410 0.950 . S
C1416 C1417 1.327 1_556 S
C1417 H1411 0.950 . S
C1417 C1416 1.327 1_554 S
C1417 C1421 1.429 . S
C1418 C1401 1.574 . S
C1418 H1412 0.949 . S
C1418 C1422 1.368 . S
C1419 C1400 1.429 . S
C1419 C1413 1.429 . S
C1419 C1420 1.523 . S
C1420 C1401 1.368 . S
C1420 C1414 1.368 . S
C1420 C1419 1.523 . S
C1421 C1405 1.429 . S
C1421 C1417 1.429 . S
C1421 C1422 1.523 . S
C1422 C1406 1.368 . S
C1422 C1418 1.368 . S
C1422 C1421 1.523 . S
H1423 C1398 0.950 . S
H1424 C1400 0.950 . S
H1425 C1401 0.949 . S
H1426 C1403 0.950 . S
H1427 C1405 0.950 . S
C1428 C1429 1.349 . S
C1428 C1430 1.327 . S
C1428 H1453 0.950 . S
C1429 C1428 1.349 . S
C1429 C1445 1.349 . S
C1430 C1428 1.327 . S
C1430 C1449 1.429 . S
C1430 H1454 0.950 . S
C1431 C1448 1.574 . S
C1431 C1450 1.368 . S
C1431 H1455 0.949 . S
H1432 C1436 0.949 . S
C1433 C1434 1.349 . S
C1433 C1435 1.327 . S
C1433 H1456 0.950 . S
C1434 C1433 1.349 . S
C1434 C1446 1.349 1_556 S
C1435 C1433 1.327 . S
C1435 C1451 1.429 . S
C1435 H1457 0.950 . S
C1436 H1432 0.949 . S
C1436 C1444 1.574 . S
C1436 C1452 1.368 . S
H1437 C1445 0.950 . S
H1438 C1443 0.950 . S
H1439 C1444 0.949 . S
H1440 C1446 0.950 . S
H1441 C1447 0.950 . S
H1442 C1448 0.949 . S
C1443 H1438 0.950 . S
C1443 C1445 1.327 . S
C1443 C1449 1.429 . S
C1444 C1436 1.574 . S
C1444 H1439 0.949 . S
C1444 C1450 1.368 . S
C1445 C1429 1.349 . S
C1445 H1437 0.950 . S
C1445 C1443 1.327 . S
C1446 C1434 1.349 1_554 S
C1446 H1440 0.950 . S
C1446 C1447 1.327 1_554 S
C1447 H1441 0.950 . S
C1447 C1446 1.327 1_556 S
C1447 C1451 1.429 . S
C1448 C1431 1.574 . S
C1448 H1442 0.949 . S
C1448 C1452 1.368 . S
C1449 C1430 1.429 . S
C1449 C1443 1.429 . S
C1449 C1450 1.523 . S
C1450 C1431 1.368 . S
C1450 C1444 1.368 . S
C1450 C1449 1.523 . S
C1451 C1435 1.429 . S
C1451 C1447 1.429 . S
C1451 C1452 1.523 . S
C1452 C1436 1.368 . S
C1452 C1448 1.368 . S
C1452 C1451 1.523 . S
H1453 C1428 0.950 . S
H1454 C1430 0.950 . S
H1455 C1431 0.949 . S
H1456 C1433 0.950 . S
H1457 C1435 0.950 . S
C1458 C1459 1.349 . S
C1458 C1460 1.327 . S
C1458 H1483 0.950 . S
C1459 C1458 1.349 . S
C1459 C1475 1.349 . S
C1460 C1458 1.327 . S
C1460 C1479 1.429 . S
C1460 H1484 0.950 . S
C1461 C1478 1.574 . S
C1461 C1480 1.368 . S
C1461 H1485 0.949 . S
H1462 C1466 0.949 . S
C1463 C1464 1.349 . S
C1463 C1465 1.327 . S
C1463 H1486 0.950 . S
C1464 C1463 1.349 . S
C1464 C1476 1.349 . S
C1465 C1463 1.327 . S
C1465 C1481 1.429 . S
C1465 H1487 0.950 . S
C1466 H1462 0.949 . S
C1466 C1474 1.574 . S
C1466 C1482 1.368 . S
H1467 C1475 0.950 . S
H1468 C1473 0.950 . S
H1469 C1474 0.949 . S
H1470 C1476 0.950 . S
H1471 C1477 0.950 . S
H1472 C1478 0.949 . S
C1473 H1468 0.950 . S
C1473 C1475 1.327 . S
C1473 C1479 1.429 . S
C1474 C1466 1.574 . S
C1474 H1469 0.949 . S
C1474 C1480 1.368 . S
C1475 C1459 1.349 . S
C1475 H1467 0.950 . S
C1475 C1473 1.327 . S
C1476 C1464 1.349 . S
C1476 H1470 0.950 . S
C1476 C1477 1.327 . S
C1477 H1471 0.950 . S
C1477 C1476 1.327 . S
C1477 C1481 1.429 . S
C1478 C1461 1.574 . S
C1478 H1472 0.949 . S
C1478 C1482 1.368 . S
C1479 C1460 1.429 . S
C1479 C1473 1.429 . S
C1479 C1480 1.523 . S
C1480 C1461 1.368 . S
C1480 C1474 1.368 . S
C1480 C1479 1.523 . S
C1481 C1465 1.429 . S
C1481 C1477 1.429 . S
C1481 C1482 1.523 . S
C1482 C1466 1.368 . S
C1482 C1478 1.368 . S
C1482 C1481 1.523 . S
H1483 C1458 0.950 . S
H1484 C1460 0.950 . S
H1485 C1461 0.949 . S
H1486 C1463 0.950 . S
H1487 C1465 0.950 . S
C1488 C1489 1.349 . S
C1488 C1490 1.327 1_556 S
C1488 H1513 0.950 . S
C1489 C1488 1.349 . S
C1489 C1505 1.349 1_556 S
C1490 C1488 1.327 1_554 S
C1490 C1509 1.429 . S
C1490 H1514 0.950 . S
C1491 C1508 1.574 . S
C1491 C1510 1.368 . S
C1491 H1515 0.949 . S
H1492 C1496 0.949 . S
C1493 C1494 1.349 . S
C1493 C1495 1.327 . S
C1493 H1516 0.950 . S
C1494 C1493 1.349 . S
C1494 C1506 1.349 . S
C1495 C1493 1.327 . S
C1495 C1511 1.429 . S
C1495 H1517 0.950 . S
C1496 H1492 0.949 . S
C1496 C1504 1.574 . S
C1496 C1512 1.368 . S
H1497 C1505 0.950 . S
H1498 C1503 0.950 . S
H1499 C1504 0.949 . S
H1500 C1506 0.950 . S
H1501 C1507 0.950 . S
H1502 C1508 0.949 . S
C1503 H1498 0.950 . S
C1503 C1505 1.327 . S
C1503 C1509 1.429 . S
C1504 C1496 1.574 . S
C1504 H1499 0.949 . S
C1504 C1510 1.368 . S
C1505 C1489 1.349 1_554 S
C1505 H1497 0.950 . S
C1505 C1503 1.327 . S
C1506 C1494 1.349 . S
C1506 H1500 0.950 . S
C1506 C1507 1.327 . S
C1507 H1501 0.950 . S
C1507 C1506 1.327 . S
C1507 C1511 1.429 . S
C1508 C1491 1.574 . S
C1508 H1502 0.949 . S
C1508 C1512 1.368 . S
C1509 C1490 1.429 . S
C1509 C1503 1.429 . S
C1509 C1510 1.523 . S
C1510 C1491 1.368 . S
C1510 C1504 1.368 . S
C1510 C1509 1.523 . S
C1511 C1495 1.429 . S
C1511 C1507 1.429 . S
C1511 C1512 1.523 . S
C1512 C1496 1.368 . S
C1512 C1508 1.368 . S
C1512 C1511 1.523 . S
H1513 C1488 0.950 . S
H1514 C1490 0.950 . S
H1515 C1491 0.949 . S
H1516 C1493 0.950 . S
H1517 C1495 0.950 . S
C1518 C1519 1.349 . S
C1518 C1520 1.327 . S
C1518 H1543 0.950 . S
C1519 C1518 1.349 . S
C1519 C1535 1.349 . S
C1520 C1518 1.327 . S
C1520 C1539 1.429 . S
C1520 H1544 0.950 . S
C1521 C1538 1.574 . S
C1521 C1540 1.368 . S
C1521 H1545 0.949 . S
H1522 C1526 0.949 . S
C1523 C1524 1.349 . S
C1523 C1525 1.327 . S
C1523 H1546 0.950 . S
C1524 C1523 1.349 . S
C1524 C1536 1.349 . S
C1525 C1523 1.327 . S
C1525 C1541 1.429 . S
C1525 H1547 0.950 . S
C1526 H1522 0.949 . S
C1526 C1534 1.574 . S
C1526 C1542 1.368 . S
H1527 C1535 0.950 . S
H1528 C1533 0.950 . S
H1529 C1534 0.949 . S
H1530 C1536 0.950 . S
H1531 C1537 0.950 . S
H1532 C1538 0.949 . S
C1533 H1528 0.950 . S
C1533 C1535 1.327 . S
C1533 C1539 1.429 . S
C1534 C1526 1.574 . S
C1534 H1529 0.949 . S
C1534 C1540 1.368 . S
C1535 C1519 1.349 . S
C1535 H1527 0.950 . S
C1535 C1533 1.327 . S
C1536 C1524 1.349 . S
C1536 H1530 0.950 . S
C1536 C1537 1.327 . S
C1537 H1531 0.950 . S
C1537 C1536 1.327 . S
C1537 C1541 1.429 . S
C1538 C1521 1.574 . S
C1538 H1532 0.949 . S
C1538 C1542 1.368 . S
C1539 C1520 1.429 . S
C1539 C1533 1.429 . S
C1539 C1540 1.523 . S
C1540 C1521 1.368 . S
C1540 C1534 1.368 . S
C1540 C1539 1.523 . S
C1541 C1525 1.429 . S
C1541 C1537 1.429 . S
C1541 C1542 1.523 . S
C1542 C1526 1.368 . S
C1542 C1538 1.368 . S
C1542 C1541 1.523 . S
H1543 C1518 0.950 . S
H1544 C1520 0.950 . S
H1545 C1521 0.949 . S
H1546 C1523 0.950 . S
H1547 C1525 0.950 . S
C1548 C1549 1.349 . S
C1548 C1550 1.327 . S
C1548 H1573 0.950 . S
C1549 C1548 1.349 . S
C1549 C1565 1.349 . S
C1550 C1548 1.327 . S
C1550 C1569 1.429 . S
C1550 H1574 0.950 . S
C1551 C1568 1.574 . S
C1551 C1570 1.368 . S
C1551 H1575 0.949 . S
H1552 C1556 0.949 . S
C1553 C1554 1.349 . S
C1553 C1555 1.327 . S
C1553 H1576 0.950 . S
C1554 C1553 1.349 . S
C1554 C1566 1.349 . S
C1555 C1553 1.327 . S
C1555 C1571 1.429 . S
C1555 H1577 0.950 . S
C1556 H1552 0.949 . S
C1556 C1564 1.574 . S
C1556 C1572 1.368 . S
H1557 C1565 0.950 . S
H1558 C1563 0.950 . S
H1559 C1564 0.949 . S
H1560 C1566 0.950 . S
H1561 C1567 0.950 . S
H1562 C1568 0.949 . S
C1563 H1558 0.950 . S
C1563 C1565 1.327 . S
C1563 C1569 1.429 . S
C1564 C1556 1.574 . S
C1564 H1559 0.949 . S
C1564 C1570 1.368 . S
C1565 C1549 1.349 . S
C1565 H1557 0.950 . S
C1565 C1563 1.327 . S
C1566 C1554 1.349 . S
C1566 H1560 0.950 . S
C1566 C1567 1.327 . S
C1567 H1561 0.950 . S
C1567 C1566 1.327 . S
C1567 C1571 1.429 . S
C1568 C1551 1.574 . S
C1568 H1562 0.949 . S
C1568 C1572 1.368 . S
C1569 C1550 1.429 . S
C1569 C1563 1.429 . S
C1569 C1570 1.523 . S
C1570 C1551 1.368 . S
C1570 C1564 1.368 . S
C1570 C1569 1.523 . S
C1571 C1555 1.429 . S
C1571 C1567 1.429 . S
C1571 C1572 1.523 . S
C1572 C1556 1.368 . S
C1572 C1568 1.368 . S
C1572 C1571 1.523 . S
H1573 C1548 0.950 . S
H1574 C1550 0.950 . S
H1575 C1551 0.949 . S
H1576 C1553 0.950 . S
H1577 C1555 0.950 . S
C1578 C1579 1.349 . S
C1578 C1580 1.327 1_554 S
C1578 H1603 0.950 . S
C1579 C1578 1.349 . S
C1579 C1595 1.349 1_554 S
C1580 C1578 1.327 1_556 S
C1580 C1599 1.429 . S
C1580 H1604 0.950 . S
C1581 C1598 1.574 . S
C1581 C1600 1.368 . S
C1581 H1605 0.949 . S
H1582 C1586 0.949 . S
C1583 C1584 1.349 . S
C1583 C1585 1.327 . S
C1583 H1606 0.950 . S
C1584 C1583 1.349 . S
C1584 C1596 1.349 . S
C1585 C1583 1.327 . S
C1585 C1601 1.429 . S
C1585 H1607 0.950 . S
C1586 H1582 0.949 . S
C1586 C1594 1.574 . S
C1586 C1602 1.368 . S
H1587 C1595 0.950 1_554 S
H1588 C1593 0.950 . S
H1589 C1594 0.949 . S
H1590 C1596 0.950 . S
H1591 C1597 0.950 . S
H1592 C1598 0.949 . S
C1593 H1588 0.950 . S
C1593 C1595 1.327 . S
C1593 C1599 1.429 . S
C1594 C1586 1.574 . S
C1594 H1589 0.949 . S
C1594 C1600 1.368 . S
C1595 C1579 1.349 1_556 S
C1595 H1587 0.950 1_556 S
C1595 C1593 1.327 . S
C1596 C1584 1.349 . S
C1596 H1590 0.950 . S
C1596 C1597 1.327 . S
C1597 H1591 0.950 . S
C1597 C1596 1.327 . S
C1597 C1601 1.429 . S
C1598 C1581 1.574 . S
C1598 H1592 0.949 . S
C1598 C1602 1.368 . S
C1599 C1580 1.429 . S
C1599 C1593 1.429 . S
C1599 C1600 1.523 . S
C1600 C1581 1.368 . S
C1600 C1594 1.368 . S
C1600 C1599 1.523 . S
C1601 C1585 1.429 . S
C1601 C1597 1.429 . S
C1601 C1602 1.523 . S
C1602 C1586 1.368 . S
C1602 C1598 1.368 . S
C1602 C1601 1.523 . S
H1603 C1578 0.950 . S
H1604 C1580 0.950 . S
H1605 C1581 0.949 . S
H1606 C1583 0.950 . S
H1607 C1585 0.950 . S
C1608 C1609 1.349 . S
C1608 C1610 1.327 . S
C1608 H1633 0.950 . S
C1609 C1608 1.349 . S
C1609 C1625 1.349 . S
C1610 C1608 1.327 . S
C1610 C1629 1.429 . S
C1610 H1634 0.950 . S
C1611 C1628 1.574 . S
C1611 C1630 1.368 . S
C1611 H1635 0.949 . S
H1612 C1616 0.949 . S
C1613 C1614 1.349 1_554 S
C1613 C1615 1.327 1_554 S
C1613 H1636 0.950 . S
C1614 C1613 1.349 1_556 S
C1614 C1626 1.349 . S
C1615 C1613 1.327 1_556 S
C1615 C1631 1.429 . S
C1615 H1637 0.950 . S
C1616 H1612 0.949 . S
C1616 C1624 1.574 . S
C1616 C1632 1.368 . S
H1617 C1625 0.950 . S
H1618 C1623 0.950 . S
H1619 C1624 0.949 . S
H1620 C1626 0.950 . S
H1621 C1627 0.950 . S
H1622 C1628 0.949 . S
C1623 H1618 0.950 . S
C1623 C1625 1.327 . S
C1623 C1629 1.429 . S
C1624 C1616 1.574 . S
C1624 H1619 0.949 . S
C1624 C1630 1.368 . S
C1625 C1609 1.349 . S
C1625 H1617 0.950 . S
C1625 C1623 1.327 . S
C1626 C1614 1.349 . S
C1626 H1620 0.950 . S
C1626 C1627 1.327 . S
C1627 H1621 0.950 . S
C1627 C1626 1.327 . S
C1627 C1631 1.429 . S
C1628 C1611 1.574 . S
C1628 H1622 0.949 . S
C1628 C1632 1.368 . S
C1629 C1610 1.429 . S
C1629 C1623 1.429 . S
C1629 C1630 1.523 . S
C1630 C1611 1.368 . S
C1630 C1624 1.368 . S
C1630 C1629 1.523 . S
C1631 C1615 1.429 . S
C1631 C1627 1.429 . S
C1631 C1632 1.523 . S
C1632 C1616 1.368 . S
C1632 C1628 1.368 . S
C1632 C1631 1.523 . S
H1633 C1608 0.950 . S
H1634 C1610 0.950 . S
H1635 C1611 0.949 . S
H1636 C1613 0.950 . S
H1637 C1615 0.950 . S
C1638 C1639 1.349 . S
C1638 C1640 1.327 . S
C1638 H1663 0.950 . S
C1639 C1638 1.349 . S
C1639 C1655 1.349 . S
C1640 C1638 1.327 . S
C1640 C1659 1.429 . S
C1640 H1664 0.950 . S
C1641 C1658 1.574 . S
C1641 C1660 1.368 . S
C1641 H1665 0.949 . S
H1642 C1646 0.949 . S
C1643 C1644 1.349 . S
C1643 C1645 1.327 . S
C1643 H1666 0.950 . S
C1644 C1643 1.349 . S
C1644 C1656 1.349 . S
C1645 C1643 1.327 . S
C1645 C1661 1.429 . S
C1645 H1667 0.950 . S
C1646 H1642 0.949 . S
C1646 C1654 1.574 . S
C1646 C1662 1.368 . S
H1647 C1655 0.950 . S
H1648 C1653 0.950 . S
H1649 C1654 0.949 . S
H1650 C1656 0.950 . S
H1651 C1657 0.950 . S
H1652 C1658 0.949 . S
C1653 H1648 0.950 . S
C1653 C1655 1.327 . S
C1653 C1659 1.429 . S
C1654 C1646 1.574 . S
C1654 H1649 0.949 . S
C1654 C1660 1.368 . S
C1655 C1639 1.349 . S
C1655 H1647 0.950 . S
C1655 C1653 1.327 . S
C1656 C1644 1.349 . S
C1656 H1650 0.950 . S
C1656 C1657 1.327 . S
C1657 H1651 0.950 . S
C1657 C1656 1.327 . S
C1657 C1661 1.429 . S
C1658 C1641 1.574 . S
C1658 H1652 0.949 . S
C1658 C1662 1.368 . S
C1659 C1640 1.429 . S
C1659 C1653 1.429 . S
C1659 C1660 1.523 . S
C1660 C1641 1.368 . S
C1660 C1654 1.368 . S
C1660 C1659 1.523 . S
C1661 C1645 1.429 . S
C1661 C1657 1.429 . S
C1661 C1662 1.523 . S
C1662 C1646 1.368 . S
C1662 C1658 1.368 . S
C1662 C1661 1.523 . S
H1663 C1638 0.950 . S
H1664 C1640 0.950 . S
H1665 C1641 0.949 . S
H1666 C1643 0.950 . S
H1667 C1645 0.950 . S
C1668 C1669 1.349 . S
C1668 C1670 1.327 . S
C1668 H1693 0.950 . S
C1669 C1668 1.349 . S
C1669 C1685 1.349 . S
C1670 C1668 1.327 . S
C1670 C1689 1.429 . S
C1670 H1694 0.950 . S
C1671 C1688 1.574 . S
C1671 C1690 1.368 . S
C1671 H1695 0.949 . S
H1672 C1676 0.949 . S
C1673 C1674 1.349 . S
C1673 C1675 1.327 . S
C1673 H1696 0.950 . S
C1674 C1673 1.349 . S
C1674 C1686 1.349 . S
C1675 C1673 1.327 . S
C1675 C1691 1.429 . S
C1675 H1697 0.950 . S
C1676 H1672 0.949 . S
C1676 C1684 1.574 . S
C1676 C1692 1.368 . S
H1677 C1685 0.950 . S
H1678 C1683 0.950 . S
H1679 C1684 0.949 . S
H1680 C1686 0.950 . S
H1681 C1687 0.950 . S
H1682 C1688 0.949 . S
C1683 H1678 0.950 . S
C1683 C1685 1.327 . S
C1683 C1689 1.429 . S
C1684 C1676 1.574 . S
C1684 H1679 0.949 . S
C1684 C1690 1.368 . S
C1685 C1669 1.349 . S
C1685 H1677 0.950 . S
C1685 C1683 1.327 . S
C1686 C1674 1.349 . S
C1686 H1680 0.950 . S
C1686 C1687 1.327 . S
C1687 H1681 0.950 . S
C1687 C1686 1.327 . S
C1687 C1691 1.429 . S
C1688 C1671 1.574 . S
C1688 H1682 0.949 . S
C1688 C1692 1.368 . S
C1689 C1670 1.429 . S
C1689 C1683 1.429 . S
C1689 C1690 1.523 . S
C1690 C1671 1.368 . S
C1690 C1684 1.368 . S
C1690 C1689 1.523 . S
C1691 C1675 1.429 . S
C1691 C1687 1.429 . S
C1691 C1692 1.523 . S
C1692 C1676 1.368 . S
C1692 C1688 1.368 . S
C1692 C1691 1.523 . S
H1693 C1668 0.950 . S
H1694 C1670 0.950 . S
H1695 C1671 0.949 . S
H1696 C1673 0.950 . S
H1697 C1675 0.950 . S
C1698 C1699 1.349 . S
C1698 C1700 1.327 . S
C1698 H1723 0.950 . S
C1699 C1698 1.349 . S
C1699 C1715 1.349 . S
C1700 C1698 1.327 . S
C1700 C1719 1.429 . S
C1700 H1724 0.950 . S
C1701 C1718 1.574 . S
C1701 C1720 1.368 . S
C1701 H1725 0.949 . S
H1702 C1706 0.949 . S
C1703 C1704 1.349 . S
C1703 C1705 1.327 . S
C1703 H1726 0.950 . S
C1704 C1703 1.349 . S
C1704 C1716 1.347 1_554 S
C1705 C1703 1.327 . S
C1705 C1721 1.429 . S
C1705 H1727 0.950 . S
C1706 H1702 0.949 . S
C1706 C1714 1.574 . S
C1706 C1722 1.368 . S
H1707 C1715 0.950 . S
H1708 C1713 0.950 . S
H1709 C1714 0.949 . S
H1710 C1716 0.962 . S
H1711 C1717 0.950 . S
H1712 C1718 0.949 . S
C1713 H1708 0.950 . S
C1713 C1715 1.327 . S
C1713 C1719 1.429 . S
C1714 C1706 1.574 . S
C1714 H1709 0.949 . S
C1714 C1720 1.368 . S
C1715 C1699 1.349 . S
C1715 H1707 0.950 . S
C1715 C1713 1.327 . S
C1716 C1704 1.347 1_556 S
C1716 H1710 0.962 . S
C1716 C1717 1.317 1_556 S
C1717 H1711 0.950 . S
C1717 C1716 1.317 1_554 S
C1717 C1721 1.429 . S
C1718 C1701 1.574 . S
C1718 H1712 0.949 . S
C1718 C1722 1.368 . S
C1719 C1700 1.429 . S
C1719 C1713 1.429 . S
C1719 C1720 1.523 . S
C1720 C1701 1.368 . S
C1720 C1714 1.368 . S
C1720 C1719 1.523 . S
C1721 C1705 1.429 . S
C1721 C1717 1.429 . S
C1721 C1722 1.523 . S
C1722 C1706 1.368 . S
C1722 C1718 1.368 . S
C1722 C1721 1.523 . S
H1723 C1698 0.950 . S
H1724 C1700 0.950 . S
H1725 C1701 0.949 . S
H1726 C1703 0.950 . S
H1727 C1705 0.950 . S
C529 C17 1.118 . S
C534 C149 1.118 . S
C559 C182 1.118 . S
C564 C50 1.118 . S
C589 C215 1.118 . S
C594 C83 1.118 . S
C619 C116 1.118 . S
C624 C248 1.118 . S
C649 C281 1.118 . S
C654 C347 1.118 . S
C679 C380 1.118 . S
C684 C314 1.118 . S
C709 C413 1.118 . S
C714 C479 1.118 . S
C739 C446 1.118 . S
C744 C512 1.118 . S
C769 N14 1.276 . S
C774 N179 1.276 1_554 S
C799 N212 1.275 . S
C804 N47 1.275 . S
C829 N245 1.275 . S
C834 N80 1.275 . S
C859 N113 1.276 1_556 S
C864 N146 1.276 . S
C889 C140 1.903 . S
C894 C338 1.903 . S
C919 C74 1.903 . S
C924 C272 1.903 . S
C949 C206 1.903 . S
C954 C371 1.903 . S
C979 C8 1.903 . S
C984 C305 1.903 . S
C1009 N410 1.275 . S
C1014 N278 1.275 . S
C1039 N344 1.275 1_556 S
C1044 N509 1.275 . S
C1069 N311 1.275 1_554 S
C1074 N443 1.275 . S
C1099 N377 1.275 . S
C1104 N476 1.275 . S
C1129 C470 1.903 . S
C1134 C41 1.903 . S
C1159 C173 1.903 . S
C1164 C437 1.903 . S
C1189 C107 1.903 . S
C1194 C503 1.903 . S
C1219 C404 1.903 . S
C1224 C239 1.903 . S
C1249 C193 1.538 . S
C1254 C28 1.538 . S
C1279 C226 1.538 . S
C1284 C61 1.538 . S
C1309 C94 1.538 . S
C1314 C259 1.538 . S
C1339 C127 1.538 . S
C1344 C160 1.538 . S
C1369 N137 0.541 . S
C1374 N335 0.541 . S
C1399 N269 0.541 . S
C1404 N71 0.541 1_554 S
C1429 N368 0.541 . S
C1434 N203 0.541 1_556 S
C1459 N5 0.541 . S
C1464 N302 0.541 . S
C1489 C424 1.538 . S
C1494 C292 1.538 . S
C1519 C358 1.538 . S
C1524 C523 1.538 . S
C1549 C457 1.538 . S
C1554 C325 1.538 . S
C1579 C490 1.538 . S
C1584 C391 1.538 . S
C1609 N38 0.541 . S
C1614 N467 0.541 1_556 S
C1639 N170 0.541 . S
C1644 N434 0.541 . S
C1669 N500 0.541 . S
C1674 N104 0.541 . S
C1699 N236 0.541 . S
C1704 N401 0.541 1_554 S
