# Generated by pormake.
# Topology crb, (4)-cn, num edge types: 1
# Building blocks:
#     Node 0, Type 0, BuildingBlock: CEKHIL_clean_sbu_0, # of connection points: 4
#     Node 1, Type 0, BuildingBlock: CEKHIL_clean_sbu_0, # of connection points: 4
#     Node 2, Type 0, BuildingBlock: CEKHIL_clean_sbu_0, # of connection points: 4
#     Node 3, Type 0, BuildingBlock: CEKHIL_clean_sbu_0, # of connection points: 4
#     Node 4, Type 0, BuildingBlock: CEKHIL_clean_sbu_0, # of connection points: 4
#     Node 5, Type 0, BuildingBlock: CEKHIL_clean_sbu_0, # of connection points: 4
#     Node 6, Type 0, BuildingBlock: CEKHIL_clean_sbu_0, # of connection points: 4
#     Node 7, Type 0, BuildingBlock: CEKHIL_clean_sbu_0, # of connection points: 4
#     Edge 8, Type (0, 0), BuildingBlock: FUNLAD_clean_linker_1, # of connection points: 2
#     Edge 9, Type (0, 0), BuildingBlock: FUNLAD_clean_linker_1, # of connection points: 2
#     Edge 10, Type (0, 0), BuildingBlock: FUNLAD_clean_linker_1, # of connection points: 2
#     Edge 11, Type (0, 0), BuildingBlock: FUNLAD_clean_linker_1, # of connection points: 2
#     Edge 12, Type (0, 0), BuildingBlock: FUNLAD_clean_linker_1, # of connection points: 2
#     Edge 13, Type (0, 0), BuildingBlock: FUNLAD_clean_linker_1, # of connection points: 2
#     Edge 14, Type (0, 0), BuildingBlock: FUNLAD_clean_linker_1, # of connection points: 2
#     Edge 15, Type (0, 0), BuildingBlock: FUNLAD_clean_linker_1, # of connection points: 2
#     Edge 16, Type (0, 0), BuildingBlock: FUNLAD_clean_linker_1, # of connection points: 2
#     Edge 17, Type (0, 0), BuildingBlock: FUNLAD_clean_linker_1, # of connection points: 2
#     Edge 18, Type (0, 0), BuildingBlock: FUNLAD_clean_linker_1, # of connection points: 2
#     Edge 19, Type (0, 0), BuildingBlock: FUNLAD_clean_linker_1, # of connection points: 2
#     Edge 20, Type (0, 0), BuildingBlock: FUNLAD_clean_linker_1, # of connection points: 2
#     Edge 21, Type (0, 0), BuildingBlock: FUNLAD_clean_linker_1, # of connection points: 2
#     Edge 22, Type (0, 0), BuildingBlock: FUNLAD_clean_linker_1, # of connection points: 2
#     Edge 23, Type (0, 0), BuildingBlock: FUNLAD_clean_linker_1, # of connection points: 2
# Relax obj value: 0.118
# Max RMSD: 0.159
# Mean RMSD: 0.159
data_MOF--net-crb--node1-CEKHIL_clean_sbu_0--edge1-FUNLAD_clean_linker_1
_symmetry_space_group_name_H-M    P1
_symmetry_Int_Tables_number       1
_symmetry_cell_setting            triclinic
loop_
_symmetry_equiv_pos_as_xyz
'x, y, z'
_cell_length_a     45.361555
_cell_length_b     44.395479
_cell_length_c     23.820178
_cell_angle_alpha  89.96828
_cell_angle_beta   89.601364
_cell_angle_gamma 90.102326
loop_
_atom_site_label
_atom_site_type_symbol
_atom_site_fract_x
_atom_site_fract_y
_atom_site_fract_z
_atom_type_partial_charge
Co0 Co 0.33591 0.33579 0.04347 0.0
O1 O 0.29897 0.3281 0.08275 0.0
O2 O 0.33988 0.30176 0.09354 0.0
C3 C 0.33661 0.38624 0.05652 0.0
O4 O 0.37879 0.33757 0.01594 0.0
Co5 Co 0.34066 0.3748 0.93611 0.0
O6 O 0.38379 0.3731 0.94925 0.0
C7 C 0.31472 0.31402 0.92861 0.0
C8 C 0.31266 0.30639 0.10824 0.0
C9 C 0.39479 0.35426 0.9835 0.0
O10 O 0.32328 0.30839 0.97915 0.0
O11 O 0.31749 0.33998 0.90567 0.0
O12 O 0.34501 0.3682 0.09625 0.0
O13 O 0.3257 0.37339 0.01263 0.0
Co14 Co 0.6773 0.33842 0.02668 0.0
O15 O 0.7145 0.33136 0.98835 0.0
O16 O 0.67396 0.30437 0.97651 0.0
C17 C 0.6765 0.38879 0.01317 0.0
O18 O 0.63428 0.33965 0.05337 0.0
Co19 Co 0.67174 0.37747 0.13364 0.0
O20 O 0.62868 0.37509 0.11994 0.0
C21 C 0.69831 0.31711 0.14173 0.0
C22 C 0.70118 0.30957 0.96232 0.0
C23 C 0.618 0.35608 0.08562 0.0
O24 O 0.68972 0.3112 0.09133 0.0
O25 O 0.69542 0.34312 0.16429 0.0
O26 O 0.66829 0.37063 0.97351 0.0
O27 O 0.68714 0.37612 0.05747 0.0
Co28 Co 0.69041 0.67273 0.05584 0.0
O29 O 0.73061 0.67752 0.08154 0.0
O30 O 0.69259 0.70463 0.1108 0.0
C31 C 0.68832 0.62211 0.06338 0.0
O32 O 0.64582 0.67384 0.04403 0.0
Co33 Co 0.67355 0.63835 0.94815 0.0
O34 O 0.63258 0.6404 0.97811 0.0
C35 C 0.70319 0.69735 0.93868 0.0
C36 C 0.72048 0.69845 0.1145 0.0
C37 C 0.6261 0.65879 0.01733 0.0
O38 O 0.69863 0.70187 0.99156 0.0
O39 O 0.69693 0.67244 0.91436 0.0
O40 O 0.68448 0.63903 0.10724 0.0
O41 O 0.69573 0.63594 0.01758 0.0
Co42 Co 0.33465 0.67104 0.01662 0.0
O43 O 0.29642 0.67682 0.98181 0.0
O44 O 0.33622 0.70437 0.96484 0.0
C45 C 0.3365 0.62051 1.00591 0.0
O46 O 0.37819 0.67162 0.03752 0.0
Co47 Co 0.34573 0.6342 0.12408 0.0
O48 O 0.38822 0.63711 0.10348 0.0
C49 C 0.31683 0.69354 0.13305 0.0
C50 C 0.30887 0.69857 0.95366 0.0
C51 C 0.39653 0.65635 0.06696 0.0
O52 O 0.32318 0.69887 0.08107 0.0
O53 O 0.32191 0.66817 0.15669 0.0
O54 O 0.3432 0.63827 0.96436 0.0
O55 O 0.32684 0.63354 0.05095 0.0
Co56 Co 0.84252 0.84139 0.55544 0.0
O57 O 0.80604 0.83496 0.59718 0.0
O58 O 0.84627 0.80732 0.60553 0.0
C59 C 0.84506 0.89186 0.5671 0.0
O60 O 0.88493 0.84162 0.52511 0.0
Co61 Co 0.8471 0.88027 0.44746 0.0
O62 O 0.89019 0.87776 0.45959 0.0
C63 C 0.82051 0.81961 0.44116 0.0
C64 C 0.81937 0.81263 0.62153 0.0
C65 C 0.90102 0.85825 0.49269 0.0
O66 O 0.82782 0.81426 0.49252 0.0
O67 O 0.82462 0.8451 0.4172 0.0
O68 O 0.85379 0.87386 0.6067 0.0
O69 O 0.83292 0.87904 0.52448 0.0
Co70 Co 0.18283 0.83881 0.5209 0.0
O71 O 0.219 0.82973 0.48015 0.0
O72 O 0.17619 0.80702 0.46688 0.0
C73 C 0.18655 0.88951 0.51473 0.0
O74 O 0.14037 0.84245 0.54955 0.0
Co75 Co 0.18051 0.8748 0.63214 0.0
O76 O 0.13726 0.87581 0.62021 0.0
C77 C 0.20161 0.81187 0.63292 0.0
C78 C 0.20374 0.80984 0.45272 0.0
C79 C 0.12528 0.85856 0.58429 0.0
O80 O 0.19334 0.80834 0.58154 0.0
O81 O 0.2005 0.83723 0.6584 0.0
O82 O 0.17597 0.87414 0.47295 0.0
O83 O 0.19628 0.874 0.55632 0.0
Co84 Co 0.17552 0.17254 0.54543 0.0
O85 O 0.2121 0.1794 0.58561 0.0
O86 O 0.17153 0.20638 0.5961 0.0
C87 C 0.17372 0.12198 0.55699 0.0
O88 O 0.133 0.17169 0.51697 0.0
Co89 Co 0.17148 0.13399 0.43729 0.0
O90 O 0.12824 0.13627 0.45018 0.0
C91 C 0.19811 0.19457 0.43117 0.0
C92 C 0.19854 0.20132 0.61103 0.0
C93 C 0.11714 0.15525 0.48431 0.0
O94 O 0.18931 0.2001 0.48183 0.0
O95 O 0.19521 0.16876 0.40787 0.0
O96 O 0.16497 0.1398 0.59703 0.0
O97 O 0.18555 0.13506 0.51397 0.0
Co98 Co 0.83483 0.17412 0.52608 0.0
O99 O 0.79844 0.18248 0.48638 0.0
O100 O 0.84078 0.20607 0.47186 0.0
C101 C 0.83209 0.12341 0.51984 0.0
O102 O 0.87747 0.17133 0.55329 0.0
Co103 Co 0.83822 0.13793 0.63696 0.0
O104 O 0.88141 0.13752 0.62301 0.0
C105 C 0.81462 0.19994 0.63837 0.0
C106 C 0.8133 0.20265 0.45843 0.0
C107 C 0.89298 0.15515 0.5869 0.0
O108 O 0.82346 0.20415 0.58725 0.0
O109 O 0.81637 0.17446 0.66332 0.0
O110 O 0.84237 0.13902 0.4778 0.0
O111 O 0.82216 0.13867 0.56179 0.0
H112 H 0.3475 0.42855 0.1008 0.0
C113 C 0.33969 0.4193 0.06137 0.0
H114 H 0.32395 0.42886 0.9802 0.0
H115 H 0.27668 0.55894 0.03117 0.0
H116 H 0.2311 0.53104 0.02002 0.0
H117 H 0.23141 0.47566 0.01198 0.0
H118 H 0.27728 0.44782 0.01484 0.0
C119 C 0.33255 0.43799 0.01913 0.0
C120 C 0.33278 0.47146 0.0258 0.0
C121 C 0.30572 0.48743 0.02444 0.0
C122 C 0.30549 0.51937 0.02979 0.0
C123 C 0.27813 0.53468 0.02786 0.0
C124 C 0.25178 0.51895 0.02139 0.0
C125 C 0.25196 0.48778 0.01679 0.0
C126 C 0.27851 0.47208 0.01835 0.0
H127 H 0.3485 0.57819 0.96258 0.0
C128 C 0.33985 0.58748 1.00154 0.0
H129 H 0.32186 0.57781 0.08154 0.0
H130 H 0.3888 0.4484 0.02497 0.0
H131 H 0.43421 0.47634 0.03806 0.0
H132 H 0.43352 0.53139 0.05186 0.0
H133 H 0.38741 0.55895 0.05197 0.0
C134 C 0.33159 0.5688 0.04327 0.0
C135 C 0.33229 0.5354 0.03647 0.0
C136 C 0.35937 0.51949 0.03796 0.0
C137 C 0.35967 0.48754 0.03186 0.0
C138 C 0.38715 0.47246 0.03123 0.0
C139 C 0.41343 0.48826 0.03838 0.0
C140 C 0.41305 0.51927 0.04601 0.0
C141 C 0.38642 0.53483 0.04582 0.0
H142 H 0.43987 0.36294 0.95193 0.0
C143 C 0.42738 0.3523 0.98567 0.0
H144 H 0.42991 0.32954 0.06328 0.0
H145 H 0.56096 0.28401 0.04317 0.0
H146 H 0.5336 0.23706 0.04224 0.0
H147 H 0.47937 0.23692 0.03571 0.0
H148 H 0.45209 0.28372 0.03059 0.0
C149 C 0.44204 0.34034 0.0293 0.0
C150 C 0.47508 0.34074 0.03208 0.0
C151 C 0.49084 0.31318 0.03425 0.0
C152 C 0.52225 0.31324 0.03695 0.0
C153 C 0.53721 0.28532 0.04023 0.0
C154 C 0.52177 0.25818 0.03985 0.0
C155 C 0.49123 0.2581 0.03624 0.0
C156 C 0.47584 0.28517 0.03344 0.0
H157 H 0.57272 0.3648 0.11579 0.0
C158 C 0.58545 0.35367 0.08301 0.0
H159 H 0.58338 0.32926 1.00709 0.0
H160 H 0.45225 0.39794 0.03836 0.0
H161 H 0.47967 0.44471 0.03336 0.0
H162 H 0.53388 0.44463 0.02581 0.0
H163 H 0.56107 0.39778 0.02511 0.0
C164 C 0.57106 0.34065 0.04008 0.0
C165 C 0.53806 0.34086 0.03672 0.0
C166 C 0.52233 0.36845 0.03307 0.0
C167 C 0.49088 0.36844 0.03309 0.0
C168 C 0.47597 0.39645 0.0348 0.0
C169 C 0.49145 0.42355 0.03251 0.0
C170 C 0.52199 0.42351 0.02858 0.0
C171 C 0.53735 0.39639 0.02879 0.0
H172 H 0.66784 0.43091 0.96667 0.0
C173 C 0.67448 0.42183 1.00702 0.0
H174 H 0.68889 0.43163 0.08895 0.0
H175 H 0.74313 0.55892 0.03943 0.0
H176 H 0.78688 0.52927 0.05798 0.0
H177 H 0.78373 0.47407 0.06828 0.0
H178 H 0.73689 0.44816 0.0603 0.0
C179 C 0.68149 0.44069 0.04906 0.0
C180 C 0.68304 0.47401 0.04097 0.0
C181 C 0.71069 0.48882 0.04549 0.0
C182 C 0.71259 0.52064 0.03903 0.0
C183 C 0.74046 0.5348 0.04386 0.0
C184 C 0.76576 0.51806 0.05446 0.0
C185 C 0.76398 0.48699 0.0603 0.0
C186 C 0.73688 0.47241 0.0558 0.0
H187 H 0.67743 0.57943 0.10634 0.0
C188 C 0.68408 0.58917 0.06632 0.0
H189 H 0.69638 0.58022 0.98219 0.0
H190 H 0.62605 0.45348 0.03466 0.0
H191 H 0.58277 0.48315 0.01293 0.0
H192 H 0.58678 0.53789 0.99646 0.0
H193 H 0.63391 0.56348 1.00355 0.0
C194 C 0.68904 0.57101 0.02219 0.0
C195 C 0.6869 0.53767 0.02801 0.0
C196 C 0.65931 0.52293 0.02281 0.0
C197 C 0.65726 0.49113 0.03015 0.0
C198 C 0.62914 0.47732 0.02738 0.0
C199 C 0.60405 0.49414 0.01536 0.0
C200 C 0.60626 0.52499 1.00639 0.0
C201 C 0.63346 0.53938 0.01043 0.0
H202 H 0.43434 0.67273 0.01681 0.0
C203 C 0.42835 0.66045 0.05472 0.0
H204 H 0.44397 0.636 0.12419 0.0
H205 H 0.56485 0.59298 0.02457 0.0
H206 H 0.53943 0.54601 0.044 0.0
H207 H 0.48724 0.54562 0.07281 0.0
H208 H 0.46009 0.59212 0.08355 0.0
C209 C 0.44983 0.6487 0.08672 0.0
C210 C 0.48157 0.64944 0.06876 0.0
C211 C 0.49697 0.62192 0.06095 0.0
C212 C 0.52691 0.62211 0.04232 0.0
C213 C 0.54192 0.59425 0.03705 0.0
C214 C 0.52765 0.56707 0.04821 0.0
C215 C 0.49825 0.56684 0.06461 0.0
C216 C 0.48297 0.59381 0.07086 0.0
H217 H 0.59035 0.67526 0.07286 0.0
C218 C 0.59489 0.66231 0.03506 0.0
H219 H 0.57683 0.63566 0.97063 0.0
H220 H 0.46109 0.70642 0.08983 0.0
H221 H 0.48541 0.75336 0.06572 0.0
H222 H 0.53467 0.75347 0.02124 0.0
H223 H 0.56029 0.70671 1.00242 0.0
C224 C 0.57233 0.64926 1.00762 0.0
C225 C 0.5413 0.64976 0.02963 0.0
C226 C 0.5258 0.6773 0.03688 0.0
C227 C 0.49641 0.67717 0.05864 0.0
C228 C 0.4826 0.70509 0.07017 0.0
C229 C 0.49643 0.73225 0.05703 0.0
C230 C 0.52423 0.73231 0.03229 0.0
C231 C 0.53882 0.70525 0.02217 0.0
H232 H 0.86833 0.93279 0.59623 0.0
C233 C 0.85171 0.92446 0.56749 0.0
H234 H 0.82138 0.93474 0.50398 0.0
H235 H 0.85727 0.06922 0.61406 0.0
H236 H 0.84425 0.049 0.70556 0.0
H237 H 0.82876 0.99598 0.71604 0.0
H238 H 0.82757 0.96266 0.63584 0.0
C239 C 0.83772 0.9436 0.53283 0.0
C240 C 0.84515 0.97638 0.52782 0.0
C241 C 0.84328 0.99608 0.57473 0.0
C242 C 0.84938 0.02737 0.56788 0.0
C243 C 0.85061 0.04584 0.61629 0.0
C244 C 0.8435 0.03445 0.66914 0.0
C245 C 0.83498 1.00457 0.67508 0.0
C246 C 0.83475 0.98554 0.62861 0.0
H247 H 0.81341 0.0798 0.54415 0.0
C248 C 0.83176 0.09028 0.52194 0.0
H249 H 0.87314 0.08345 0.48335 0.0
H250 H 0.8545 0.94493 0.43029 0.0
H251 H 0.86524 0.9659 0.33852 0.0
H252 H 0.8703 0.02077 0.32524 0.0
H253 H 0.86517 0.05497 0.40386 0.0
C254 C 0.85437 0.07309 0.50442 0.0
C255 C 0.85396 0.03964 0.51334 0.0
C256 C 0.85654 0.01994 0.46676 0.0
C257 C 0.85267 0.98831 0.47417 0.0
C258 C 0.85629 0.96917 0.42701 0.0
C259 C 0.86263 0.98089 0.37403 0.0
C260 C 0.86554 0.01177 0.36658 0.0
C261 C 0.86254 0.03117 0.41218 0.0
H262 H 0.08068 0.86846 0.61708 0.0
C263 C 0.09264 0.85737 0.58322 0.0
H264 H 0.089 0.83314 0.50736 0.0
H265 H 0.95878 0.78677 0.53714 0.0
H266 H 0.9865 0.74016 0.53942 0.0
H267 H 0.04082 0.74072 0.54316 0.0
H268 H 0.0678 0.78789 0.54407 0.0
C269 C 0.07737 0.84463 0.54112 0.0
C270 C 0.04434 0.84462 0.54022 0.0
C271 C 0.02878 0.81684 0.54059 0.0
C272 C 0.99735 0.8165 0.53954 0.0
C273 C 0.98256 0.78838 0.53872 0.0
C274 C 0.9982 0.76143 0.53993 0.0
C275 C 0.02879 0.76175 0.54196 0.0
C276 C 0.04401 0.78903 0.54233 0.0
H277 H 0.94591 0.86626 0.45987 0.0
C278 C 0.93353 0.85558 0.49371 0.0
H279 H 0.9364 0.83253 0.57104 0.0
H280 H 0.06666 0.90189 0.52941 0.0
H281 H 0.03903 0.94844 0.53329 0.0
H282 H 0.98491 0.94789 0.54386 0.0
H283 H 0.95808 0.90076 0.54869 0.0
C284 C 0.94835 0.84333 0.53682 0.0
C285 C 0.98136 0.84393 0.53892 0.0
C286 C 0.99691 0.87176 0.54023 0.0
C287 C 0.02833 0.8721 0.5385 0.0
C288 C 0.04302 0.90022 0.53437 0.0
C289 C 0.02739 0.92718 0.53599 0.0
C290 C 0.99692 0.92686 0.54161 0.0
C291 C 0.98175 0.89958 0.54377 0.0
H292 H 0.15123 0.08074 0.5874 0.0
C293 C 0.16757 0.08927 0.55783 0.0
H294 H 0.19779 0.07918 0.49325 0.0
H295 H 0.16325 0.94517 0.609 0.0
H296 H 0.17679 0.96624 0.69912 0.0
H297 H 0.19235 0.01933 0.70705 0.0
H298 H 0.19307 0.05191 0.62566 0.0
C299 C 0.18172 0.07019 0.52292 0.0
C300 C 0.1748 0.03723 0.51906 0.0
C301 C 0.17706 0.01792 0.56646 0.0
C302 C 0.17098 0.98655 0.56094 0.0
C303 C 0.16997 0.96855 0.61005 0.0
C304 C 0.17736 0.98044 0.66216 0.0
C305 C 0.18591 0.01037 0.66668 0.0
C306 C 0.18587 0.02896 0.61957 0.0
H307 H 0.20594 0.93288 0.53839 0.0
C308 C 0.18742 0.92267 0.51675 0.0
H309 H 0.1463 0.93007 0.47876 0.0
H310 H 0.165 0.06776 0.42088 0.0
H311 H 0.15402 0.04596 0.33026 0.0
H312 H 0.14919 0.99097 0.31893 0.0
H313 H 0.15477 0.95748 0.39837 0.0
C314 C 0.16518 0.94023 0.49928 0.0
C315 C 0.16611 0.97378 0.50703 0.0
C316 C 0.1634 0.99307 0.45989 0.0
C317 C 0.16718 0.02479 0.46611 0.0
C318 C 0.1633 0.04349 0.41847 0.0
C319 C 0.15682 0.03129 0.36614 0.0
C320 C 0.15404 1.00034 0.35979 0.0
C321 C 0.15728 0.98135 0.40589 0.0
H322 H 0.93787 0.14539 0.6172 0.0
C323 C 0.92562 0.15653 0.58408 0.0
H324 H 0.92868 0.18073 0.50794 0.0
H325 H 0.05955 0.22623 0.53054 0.0
H326 H 0.03219 0.27302 0.53508 0.0
H327 H 0.97792 0.27283 0.54199 0.0
H328 H 0.95062 0.22586 0.54389 0.0
C329 C 0.94058 0.16923 0.54106 0.0
C330 C 0.97362 0.169 0.5381 0.0
C331 C 0.98939 0.19665 0.53781 0.0
C332 C 0.02081 0.19675 0.53491 0.0
C333 C 0.03579 0.22477 0.53356 0.0
C334 C 0.02035 0.25183 0.53602 0.0
C335 C 0.98979 0.25173 0.53983 0.0
C336 C 0.97438 0.22456 0.54076 0.0
H337 H 0.07222 0.14691 0.45276 0.0
C338 C 0.08455 0.15753 0.48638 0.0
H339 H 0.08163 0.18041 0.56388 0.0
H340 H 0.95077 0.11196 0.52802 0.0
H341 H 0.97807 0.06518 0.52942 0.0
H342 H 0.03229 0.06526 0.53649 0.0
H343 H 0.05953 0.11213 0.54032 0.0
C344 C 0.06967 0.16963 0.52999 0.0
C345 C 0.03663 0.16921 0.53307 0.0
C346 C 0.02086 0.1415 0.53478 0.0
C347 C 0.98941 0.14142 0.535 0.0
C348 C 0.97448 0.11343 0.53144 0.0
C349 C 0.98991 0.08634 0.53166 0.0
C350 C 0.02043 0.08639 0.53532 0.0
C351 C 0.03583 0.11354 0.53693 0.0
H352 H 0.2112 0.24208 0.41367 0.0
C353 C 0.21145 0.21928 0.39712 0.0
H354 H 0.22283 0.1912 0.32886 0.0
H355 H 0.22628 0.27779 0.12667 0.0
H356 H 0.18046 0.2512 0.11008 0.0
H357 H 0.15835 0.21883 0.18333 0.0
H358 H 0.18201 0.21272 0.27356 0.0
C359 C 0.2232 0.21393 0.34576 0.0
C360 C 0.23413 0.23794 0.30663 0.0
C361 C 0.21971 0.242 0.25444 0.0
C362 C 0.2322 0.26114 0.21249 0.0
C363 C 0.21762 0.26392 0.16032 0.0
C364 C 0.19131 0.24873 0.15016 0.0
C365 C 0.17888 0.23047 0.19135 0.0
C366 C 0.19279 0.22705 0.2429 0.0
H367 H 0.31066 0.26867 0.16865 0.0
C368 C 0.29868 0.28815 0.15327 0.0
H369 H 0.26032 0.31463 0.16171 0.0
H370 H 0.26804 0.23528 0.40129 0.0
H371 H 0.31211 0.26436 0.42006 0.0
H372 H 0.33166 0.30031 0.35009 0.0
H373 H 0.30759 0.30691 0.26036 0.0
C374 C 0.27266 0.29541 0.17719 0.0
C375 C 0.25903 0.27656 0.22272 0.0
C376 C 0.27257 0.27391 0.27614 0.0
C377 C 0.26048 0.25414 0.31765 0.0
C378 C 0.27557 0.25065 0.36906 0.0
C379 C 0.30101 0.26715 0.38032 0.0
C380 C 0.31207 0.28732 0.34084 0.0
C381 C 0.29813 0.29074 0.28933 0.0
H382 H 0.70992 0.26954 0.16121 0.0
C383 C 0.71139 0.2926 0.1762 0.0
H384 H 0.72552 0.32149 0.24096 0.0
H385 H 0.73056 0.23888 0.44899 0.0
H386 H 0.68794 0.26969 0.4705 0.0
H387 H 0.66603 0.30249 0.39844 0.0
H388 H 0.68674 0.30486 0.3045 0.0
C389 C 0.72452 0.29843 0.22582 0.0
C390 C 0.73528 0.27468 0.26545 0.0
C391 C 0.72248 0.2728 0.31996 0.0
C392 C 0.73474 0.25336 0.36129 0.0
C393 C 0.72192 0.25282 0.4157 0.0
C394 C 0.69745 0.27046 0.42872 0.0
C395 C 0.68516 0.28897 0.38818 0.0
C396 C 0.69738 0.29021 0.33444 0.0
H397 H 0.81338 0.23894 0.3949 0.0
C398 C 0.80011 0.22092 0.41294 0.0
H399 H 0.75923 0.19823 0.41118 0.0
H400 H 0.76648 0.27332 0.16645 0.0
H401 H 0.80717 0.24025 0.14336 0.0
H402 H 0.82574 0.20366 0.2125 0.0
H403 H 0.80413 0.20042 0.3057 0.0
C404 C 0.77289 0.21581 0.39271 0.0
C405 C 0.75965 0.23536 0.34815 0.0
C406 C 0.77158 0.23607 0.29283 0.0
C407 C 0.75985 0.25621 0.25188 0.0
C408 C 0.77358 0.25772 0.1984 0.0
C409 C 0.79712 0.23895 0.18465 0.0
C410 C 0.80765 0.21842 0.22365 0.0
C411 C 0.79515 0.21692 0.27714 0.0
H412 H 0.79492 0.7772 0.43061 0.0
C413 C 0.80536 0.79578 0.40836 0.0
H414 H 0.81337 0.81675 0.33031 0.0
H415 H 0.76054 0.68457 0.24419 0.0
H416 H 0.80065 0.66097 0.29434 0.0
H417 H 0.83396 0.6911 0.3535 0.0
H418 H 0.82687 0.74489 0.36405 0.0
C419 C 0.80296 0.79795 0.35201 0.0
C420 C 0.7829 0.77876 0.31754 0.0
C421 C 0.78818 0.74752 0.30983 0.0
C422 C 0.76995 0.73039 0.27304 0.0
C423 C 0.77455 0.69893 0.26916 0.0
C424 C 0.79737 0.68503 0.29812 0.0
C425 C 0.81605 0.70198 0.33162 0.0
C426 C 0.81163 0.73286 0.33753 0.0
H427 H 0.76348 0.71326 0.14831 0.0
C428 C 0.73979 0.71391 0.15522 0.0
H429 H 0.70502 0.72807 0.20788 0.0
H430 H 0.76488 0.83748 0.32617 0.0
H431 H 0.72594 0.86143 0.27356 0.0
H432 H 0.69681 0.83268 0.20486 0.0
H433 H 0.70624 0.77975 0.18882 0.0
C434 C 0.72875 0.72766 0.20115 0.0
C435 C 0.74752 0.74484 0.24152 0.0
C436 C 0.74211 0.77601 0.24973 0.0
C437 C 0.75951 0.79282 0.28817 0.0
C438 C 0.75296 0.82374 0.29645 0.0
C439 C 0.73053 0.83779 0.26672 0.0
C440 C 0.71409 0.82159 0.22816 0.0
C441 C 0.71971 0.79111 0.21955 0.0
H442 H 0.20377 0.77214 0.39221 0.0
C443 C 0.21667 0.79107 0.40739 0.0
H444 H 0.25627 0.81563 0.39927 0.0
H445 H 0.33403 0.71321 0.29213 0.0
H446 H 0.35804 0.72154 0.38135 0.0
H447 H 0.3358 0.75485 0.45275 0.0
H448 H 0.28958 0.78023 0.43526 0.0
C449 C 0.24317 0.79691 0.38383 0.0
C450 C 0.2565 0.77693 0.33964 0.0
C451 C 0.28349 0.76197 0.3506 0.0
C452 C 0.29599 0.74216 0.30986 0.0
C453 C 0.32318 0.72795 0.32192 0.0
C454 C 0.3373 0.73263 0.37291 0.0
C455 C 0.32481 0.75143 0.41305 0.0
C456 C 0.29825 0.76595 0.40233 0.0
H457 H 0.30239 0.74054 0.15015 0.0
C458 C 0.30349 0.71796 0.16762 0.0
H459 H 0.29451 0.69022 0.23764 0.0
H460 H 0.20779 0.80618 0.2999 0.0
H461 H 0.18301 0.79679 0.2118 0.0
H462 H 0.20207 0.75892 0.14516 0.0
H463 H 0.2464 0.73079 0.16551 0.0
C464 C 0.29289 0.71271 0.2199 0.0
C465 C 0.28137 0.73677 0.25829 0.0
C466 C 0.25466 0.75217 0.24676 0.0
C467 C 0.24269 0.77286 0.28675 0.0
C468 C 0.21703 0.78919 0.27249 0.0
C469 C 0.20271 0.7842 0.22181 0.0
C470 C 0.21351 0.76297 0.18418 0.0
C471 C 0.23912 0.74706 0.1963 0.0
H472 H 0.21122 0.76318 0.64638 0.0
C473 C 0.21234 0.78543 0.66521 0.0
H474 H 0.22331 0.81093 0.73693 0.0
H475 H 0.21918 0.72144 0.93262 0.0
H476 H 0.173 0.74786 0.94714 0.0
H477 H 0.15288 0.781 0.87368 0.0
H478 H 0.17891 0.78808 0.78529 0.0
C479 C 0.22293 0.78873 0.71775 0.0
C480 C 0.23181 0.76331 0.75506 0.0
C481 C 0.21596 0.7586 0.80594 0.0
C482 C 0.22732 0.73909 0.848 0.0
C483 C 0.21143 0.73573 0.89903 0.0
C484 C 0.18489 0.75077 0.90795 0.0
C485 C 0.17358 0.76947 0.86662 0.0
C486 C 0.18883 0.77344 0.81618 0.0
H487 H 0.30478 0.73533 0.89218 0.0
C488 C 0.29368 0.71553 0.90898 0.0
H489 H 0.25658 0.68696 0.90239 0.0
H490 H 0.26759 0.76612 0.66188 0.0
H491 H 0.31168 0.73676 0.64466 0.0
H492 H 0.32935 0.70022 0.7148 0.0
H493 H 0.30329 0.69332 0.80321 0.0
C494 C 0.26811 0.70658 0.88598 0.0
C495 C 0.25447 0.72404 0.8391 0.0
C496 C 0.26905 0.72672 0.78632 0.0
C497 C 0.25808 0.74685 0.74473 0.0
C498 C 0.27428 0.75052 0.69417 0.0
C499 C 0.29973 0.73385 0.68379 0.0
C500 C 0.30973 0.71334 0.72335 0.0
C501 C 0.29468 0.70975 0.77408 0.0
H502 H 0.30087 0.26669 0.91206 0.0
C503 C 0.30143 0.28933 0.89474 0.0
H504 H 0.2915 0.31699 0.82527 0.0
H505 H 0.28592 0.22676 0.6282 0.0
H506 H 0.33316 0.25056 0.61035 0.0
H507 H 0.35619 0.28314 0.68156 0.0
H508 H 0.33201 0.29227 0.77102 0.0
C509 C 0.29027 0.29449 0.84311 0.0
C510 C 0.27847 0.27039 0.80531 0.0
C511 C 0.29311 0.26459 0.75356 0.0
C512 C 0.28006 0.24529 0.71282 0.0
C513 C 0.29495 0.24077 0.66102 0.0
C514 C 0.32209 0.25437 0.65012 0.0
C515 C 0.33503 0.27275 0.69016 0.0
C516 C 0.32082 0.2779 0.74127 0.0
H517 H 0.20087 0.23954 0.67023 0.0
C518 C 0.21255 0.21965 0.65559 0.0
H519 H 0.25036 0.19256 0.66468 0.0
H520 H 0.24389 0.2767 0.89931 0.0
H521 H 0.19829 0.2503 0.91975 0.0
H522 H 0.17766 0.21392 0.85232 0.0
H523 H 0.2022 0.20421 0.76344 0.0
C524 C 0.23837 0.2122 0.67954 0.0
C525 C 0.25241 0.23142 0.72384 0.0
C526 C 0.23856 0.23583 0.77695 0.0
C527 C 0.25125 0.25581 0.81715 0.0
C528 C 0.23589 0.26109 0.86813 0.0
C529 C 0.20959 0.24614 0.88034 0.0
C530 C 0.19792 0.22573 0.84229 0.0
C531 C 0.21214 0.22053 0.7912 0.0
H532 H 0.70443 0.27203 0.9018 0.0
C533 C 0.71555 0.29214 0.91685 0.0
H534 H 0.75212 0.32114 0.90674 0.0
H535 H 0.83457 0.22473 0.78988 0.0
H536 H 0.85994 0.23347 0.87774 0.0
H537 H 0.83753 0.26498 0.95177 0.0
H538 H 0.78972 0.28807 0.93841 0.0
C539 C 0.74078 0.30115 0.89179 0.0
C540 C 0.75484 0.28341 0.84538 0.0
C541 C 0.7829 0.27017 0.85374 0.0
C542 C 0.79561 0.25155 0.81139 0.0
C543 C 0.82365 0.23861 0.82103 0.0
C544 C 0.83853 0.24354 0.87115 0.0
C545 C 0.82593 0.26133 0.91279 0.0
C546 C 0.79846 0.2745 0.90448 0.0
H547 H 0.80256 0.24803 0.65275 0.0
C548 C 0.80222 0.2256 0.67098 0.0
H549 H 0.79124 0.19895 0.74164 0.0
H550 H 0.70386 0.31032 0.81061 0.0
H551 H 0.67853 0.30156 0.72276 0.0
H552 H 0.69894 0.26663 0.65207 0.0
H553 H 0.74508 0.24071 0.66826 0.0
C554 C 0.79093 0.2213 0.72306 0.0
C555 C 0.78025 0.2459 0.76077 0.0
C556 C 0.75288 0.26035 0.75114 0.0
C557 C 0.74045 0.27957 0.79303 0.0
C558 C 0.71369 0.2946 0.78133 0.0
C559 C 0.69902 0.28994 0.73088 0.0
C560 C 0.71056 0.27033 0.69101 0.0
C561 C 0.73713 0.25562 0.70082 0.0
H562 H 0.71899 0.74412 0.92314 0.0
C563 C 0.71639 0.72201 0.90429 0.0
H564 H 0.72271 0.69535 0.83188 0.0
H565 H 0.73109 0.7896 0.64093 0.0
H566 H 0.68294 0.76795 0.62393 0.0
H567 H 0.65932 0.73457 0.6938 0.0
H568 H 0.68384 0.72244 0.78101 0.0
C569 C 0.72576 0.71734 0.85101 0.0
C570 C 0.73841 0.74148 0.81389 0.0
C571 C 0.72357 0.74908 0.76354 0.0
C572 C 0.73696 0.7689 0.72368 0.0
C573 C 0.72185 0.77516 0.67314 0.0
C574 C 0.69417 0.76281 0.66272 0.0
C575 C 0.6809 0.74398 0.702 0.0
C576 C 0.6953 0.7371 0.75182 0.0
H577 H 0.81648 0.77356 0.67873 0.0
C578 C 0.80513 0.7939 0.66563 0.0
H579 H 0.76782 0.82148 0.67742 0.0
H580 H 0.77408 0.73089 0.90428 0.0
H581 H 0.82058 0.7553 0.92433 0.0
H582 H 0.84147 0.79322 0.85957 0.0
H583 H 0.8163 0.80636 0.77358 0.0
C584 C 0.77946 0.80138 0.69078 0.0
C585 C 0.76511 0.78159 0.73428 0.0
C586 C 0.77924 0.77535 0.7861 0.0
C587 C 0.76631 0.75468 0.82515 0.0
C588 C 0.7821 0.74731 0.87434 0.0
C589 C 0.80896 0.76105 0.88626 0.0
C590 C 0.82078 0.78231 0.84969 0.0
C591 C 0.8062 0.78947 0.8002 0.0
loop_
_geom_bond_atom_site_label_1
_geom_bond_atom_site_label_2
_geom_bond_distance
_geom_bond_site_symmetry_2
_ccdc_geom_bond_type
Co0 O1 2.216 . S
Co0 O2 2.091 . S
Co0 O4 2.004 . S
Co0 O10 2.014 1_554 S
Co0 O12 2.137 . S
Co0 O13 2.244 . S
O1 Co0 2.216 . S
O1 C8 1.247 . S
O2 Co0 2.091 . S
O2 C8 1.261 . S
C3 O12 1.247 . S
C3 O13 1.272 . S
O4 Co0 2.004 . S
O4 C9 1.259 . S
Co5 O6 2.061 . S
Co5 O11 2.052 . S
Co5 O13 2.135 1_556 S
O6 Co5 2.061 . S
O6 C9 1.235 1_556 S
C7 O10 1.246 . S
C7 O11 1.241 . S
C8 O1 1.247 . S
C8 O2 1.261 . S
C9 O4 1.259 . S
C9 O6 1.235 1_554 S
O10 Co0 2.014 1_556 S
O10 C7 1.246 . S
O11 Co5 2.052 . S
O11 C7 1.241 . S
O12 Co0 2.137 . S
O12 C3 1.247 . S
O13 Co0 2.244 . S
O13 C3 1.272 . S
O13 Co5 2.135 1_554 S
Co14 O15 2.216 . S
Co14 O16 2.091 . S
Co14 O18 2.004 1_556 S
Co14 O24 2.021 1_556 S
Co14 O26 2.137 . S
Co14 O27 2.244 1_556 S
O15 Co14 2.216 . S
O15 C22 1.247 . S
O16 Co14 2.091 . S
O16 C22 1.261 . S
C17 O26 1.245 . S
C17 O27 1.273 1_556 S
O18 Co14 2.004 1_554 S
O18 C23 1.259 . S
Co19 O20 2.061 . S
Co19 O25 2.052 . S
Co19 O27 2.135 . S
O20 Co19 2.061 . S
O20 C23 1.235 . S
C21 O24 1.238 . S
C21 O25 1.241 . S
C22 O15 1.247 . S
C22 O16 1.261 . S
C23 O18 1.259 . S
C23 O20 1.235 . S
O24 Co14 2.021 1_554 S
O24 C21 1.238 . S
O25 Co19 2.052 . S
O25 C21 1.241 . S
O26 Co14 2.137 . S
O26 C17 1.245 . S
O27 Co14 2.244 1_554 S
O27 C17 1.273 1_554 S
O27 Co19 2.135 . S
Co28 O29 2.216 . S
Co28 O30 2.091 . S
Co28 O32 2.004 . S
Co28 O38 2.014 1_554 S
Co28 O40 2.137 . S
Co28 O41 2.244 . S
O29 Co28 2.216 . S
O29 C36 1.247 . S
O30 Co28 2.091 . S
O30 C36 1.261 . S
C31 O40 1.247 . S
C31 O41 1.272 . S
O32 Co28 2.004 . S
O32 C37 1.259 . S
Co33 O34 2.061 . S
Co33 O39 2.052 . S
Co33 O41 2.135 1_556 S
O34 Co33 2.061 . S
O34 C37 1.235 1_556 S
C35 O38 1.246 . S
C35 O39 1.241 . S
C36 O29 1.247 . S
C36 O30 1.261 . S
C37 O32 1.259 . S
C37 O34 1.235 1_554 S
O38 Co28 2.014 1_556 S
O38 C35 1.246 . S
O39 Co33 2.052 . S
O39 C35 1.241 . S
O40 Co28 2.137 . S
O40 C31 1.247 . S
O41 Co28 2.244 . S
O41 C31 1.272 . S
O41 Co33 2.135 1_554 S
Co42 O43 2.216 . S
Co42 O44 2.091 . S
Co42 O46 2.004 1_556 S
Co42 O52 2.021 1_556 S
Co42 O54 2.137 . S
Co42 O55 2.244 1_556 S
O43 Co42 2.216 . S
O43 C50 1.247 . S
O44 Co42 2.091 . S
O44 C50 1.261 . S
C45 O54 1.245 . S
C45 O55 1.273 1_556 S
O46 Co42 2.004 1_554 S
O46 C51 1.259 . S
Co47 O48 2.061 . S
Co47 O53 2.052 . S
Co47 O55 2.135 . S
O48 Co47 2.061 . S
O48 C51 1.235 . S
C49 O52 1.238 . S
C49 O53 1.241 . S
C50 O43 1.247 . S
C50 O44 1.261 . S
C51 O46 1.259 . S
C51 O48 1.235 . S
O52 Co42 2.021 1_554 S
O52 C49 1.238 . S
O53 Co47 2.052 . S
O53 C49 1.241 . S
O54 Co42 2.137 . S
O54 C45 1.245 . S
O55 Co42 2.244 1_554 S
O55 C45 1.273 1_554 S
O55 Co47 2.135 . S
Co56 O57 2.216 . S
Co56 O58 2.091 . S
Co56 O60 2.004 . S
Co56 O66 2.021 . S
Co56 O68 2.137 . S
Co56 O69 2.244 . S
O57 Co56 2.216 . S
O57 C64 1.247 . S
O58 Co56 2.091 . S
O58 C64 1.261 . S
C59 O68 1.247 . S
C59 O69 1.272 . S
O60 Co56 2.004 . S
O60 C65 1.259 . S
Co61 O62 2.061 . S
Co61 O67 2.052 . S
Co61 O69 2.135 . S
O62 Co61 2.061 . S
O62 C65 1.235 . S
C63 O66 1.238 . S
C63 O67 1.241 . S
C64 O57 1.247 . S
C64 O58 1.261 . S
C65 O60 1.259 . S
C65 O62 1.235 . S
O66 Co56 2.021 . S
O66 C63 1.238 . S
O67 Co61 2.052 . S
O67 C63 1.241 . S
O68 Co56 2.137 . S
O68 C59 1.247 . S
O69 Co56 2.244 . S
O69 C59 1.272 . S
O69 Co61 2.135 . S
Co70 O71 2.216 . S
Co70 O72 2.091 . S
Co70 O74 2.004 . S
Co70 O80 2.021 . S
Co70 O82 2.137 . S
Co70 O83 2.244 . S
O71 Co70 2.216 . S
O71 C78 1.247 . S
O72 Co70 2.091 . S
O72 C78 1.261 . S
C73 O82 1.247 . S
C73 O83 1.272 . S
O74 Co70 2.004 . S
O74 C79 1.259 . S
Co75 O76 2.061 . S
Co75 O81 2.052 . S
Co75 O83 2.135 . S
O76 Co75 2.061 . S
O76 C79 1.235 . S
C77 O80 1.238 . S
C77 O81 1.241 . S
C78 O71 1.247 . S
C78 O72 1.261 . S
C79 O74 1.259 . S
C79 O76 1.235 . S
O80 Co70 2.021 . S
O80 C77 1.238 . S
O81 Co75 2.052 . S
O81 C77 1.241 . S
O82 Co70 2.137 . S
O82 C73 1.247 . S
O83 Co70 2.244 . S
O83 C73 1.272 . S
O83 Co75 2.135 . S
Co84 O85 2.216 . S
Co84 O86 2.091 . S
Co84 O88 2.004 . S
Co84 O94 2.021 . S
Co84 O96 2.137 . S
Co84 O97 2.244 . S
O85 Co84 2.216 . S
O85 C92 1.247 . S
O86 Co84 2.091 . S
O86 C92 1.261 . S
C87 O96 1.247 . S
C87 O97 1.272 . S
O88 Co84 2.004 . S
O88 C93 1.259 . S
Co89 O90 2.061 . S
Co89 O95 2.052 . S
Co89 O97 2.135 . S
O90 Co89 2.061 . S
O90 C93 1.235 . S
C91 O94 1.238 . S
C91 O95 1.241 . S
C92 O85 1.247 . S
C92 O86 1.261 . S
C93 O88 1.259 . S
C93 O90 1.235 . S
O94 Co84 2.021 . S
O94 C91 1.238 . S
O95 Co89 2.052 . S
O95 C91 1.241 . S
O96 Co84 2.137 . S
O96 C87 1.247 . S
O97 Co84 2.244 . S
O97 C87 1.272 . S
O97 Co89 2.135 . S
Co98 O99 2.216 . S
Co98 O100 2.091 . S
Co98 O102 2.004 . S
Co98 O108 2.021 . S
Co98 O110 2.137 . S
Co98 O111 2.244 . S
O99 Co98 2.216 . S
O99 C106 1.247 . S
O100 Co98 2.091 . S
O100 C106 1.261 . S
C101 O110 1.247 . S
C101 O111 1.272 . S
O102 Co98 2.004 . S
O102 C107 1.259 . S
Co103 O104 2.061 . S
Co103 O109 2.052 . S
Co103 O111 2.135 . S
O104 Co103 2.061 . S
O104 C107 1.235 . S
C105 O108 1.238 . S
C105 O109 1.241 . S
C106 O99 1.247 . S
C106 O100 1.261 . S
C107 O102 1.259 . S
C107 O104 1.235 . S
O108 Co98 2.021 . S
O108 C105 1.238 . S
O109 Co103 2.052 . S
O109 C105 1.241 . S
O110 Co98 2.137 . S
O110 C101 1.247 . S
O111 Co98 2.244 . S
O111 C101 1.272 . S
O111 Co103 2.135 . S
H112 C113 0.951 . S
C113 H112 0.951 . S
C113 C119 1.265 . S
H114 C119 0.950 . S
H115 C123 0.949 . S
H116 C124 0.950 . S
H117 C125 0.951 . S
H118 C126 0.951 . S
C119 C113 1.265 . S
C119 H114 0.950 . S
C119 C120 1.478 . S
C120 C119 1.478 . S
C120 C121 1.397 1_554 S
C120 C137 1.394 . S
C121 C120 1.397 1_556 S
C121 C122 1.438 . S
C121 C126 1.429 . S
C122 C121 1.438 . S
C122 C123 1.428 . S
C122 C135 1.394 1_556 S
C123 H115 0.949 . S
C123 C122 1.428 . S
C123 C124 1.345 . S
C124 H116 0.950 . S
C124 C123 1.345 . S
C124 C125 1.424 . S
C125 H117 0.951 . S
C125 C124 1.424 . S
C125 C126 1.347 . S
C126 H118 0.951 . S
C126 C121 1.429 . S
C126 C125 1.347 . S
H127 C128 0.951 1_556 S
C128 H127 0.951 1_554 S
C128 C134 1.265 . S
H129 C134 0.950 . S
H130 C138 0.949 . S
H131 C139 0.950 . S
H132 C140 0.951 . S
H133 C141 0.951 . S
C134 C128 1.265 . S
C134 H129 0.950 . S
C134 C135 1.478 . S
C135 C122 1.394 1_554 S
C135 C134 1.478 . S
C135 C136 1.397 . S
C136 C135 1.397 . S
C136 C137 1.438 . S
C136 C141 1.429 . S
C137 C120 1.394 . S
C137 C136 1.438 . S
C137 C138 1.428 . S
C138 H130 0.949 . S
C138 C137 1.428 . S
C138 C139 1.345 . S
C139 H131 0.950 . S
C139 C138 1.345 . S
C139 C140 1.424 . S
C140 H132 0.951 . S
C140 C139 1.424 . S
C140 C141 1.347 . S
C141 H133 0.951 . S
C141 C136 1.429 . S
C141 C140 1.347 . S
H142 C143 0.951 1_556 S
C143 H142 0.951 1_554 S
C143 C149 1.265 . S
H144 C149 0.950 . S
H145 C153 0.949 . S
H146 C154 0.950 . S
H147 C155 0.951 . S
H148 C156 0.951 . S
C149 C143 1.265 . S
C149 H144 0.950 . S
C149 C150 1.478 . S
C150 C149 1.478 . S
C150 C151 1.397 . S
C150 C167 1.394 . S
C151 C150 1.397 . S
C151 C152 1.438 . S
C151 C156 1.429 . S
C152 C151 1.438 . S
C152 C153 1.428 . S
C152 C165 1.394 . S
C153 H145 0.949 . S
C153 C152 1.428 . S
C153 C154 1.345 . S
C154 H146 0.950 . S
C154 C153 1.345 . S
C154 C155 1.424 . S
C155 H147 0.951 . S
C155 C154 1.424 . S
C155 C156 1.347 . S
C156 H148 0.951 . S
C156 C151 1.429 . S
C156 C155 1.347 . S
H157 C158 0.951 . S
C158 H157 0.951 . S
C158 C164 1.265 . S
H159 C164 0.950 1_556 S
H160 C168 0.949 . S
H161 C169 0.950 . S
H162 C170 0.951 . S
H163 C171 0.951 . S
C164 C158 1.265 . S
C164 H159 0.950 1_554 S
C164 C165 1.478 . S
C165 C152 1.394 . S
C165 C164 1.478 . S
C165 C166 1.397 . S
C166 C165 1.397 . S
C166 C167 1.438 . S
C166 C171 1.429 1_554 S
C167 C150 1.394 . S
C167 C166 1.438 . S
C167 C168 1.428 . S
C168 H160 0.949 . S
C168 C167 1.428 . S
C168 C169 1.345 1_554 S
C169 H161 0.950 . S
C169 C168 1.345 1_556 S
C169 C170 1.424 . S
C170 H162 0.951 . S
C170 C169 1.424 . S
C170 C171 1.347 . S
C171 H163 0.951 . S
C171 C166 1.429 1_556 S
C171 C170 1.347 . S
H172 C173 0.951 1_556 S
C173 H172 0.951 1_554 S
C173 C179 1.265 . S
H174 C179 0.950 . S
H175 C183 0.949 . S
H176 C184 0.950 . S
H177 C185 0.951 . S
H178 C186 0.951 . S
C179 C173 1.265 . S
C179 H174 0.950 . S
C179 C180 1.478 . S
C180 C179 1.478 . S
C180 C181 1.397 . S
C180 C197 1.394 1_554 S
C181 C180 1.397 . S
C181 C182 1.438 . S
C181 C186 1.429 . S
C182 C181 1.438 . S
C182 C183 1.428 . S
C182 C195 1.394 . S
C183 H175 0.949 . S
C183 C182 1.428 . S
C183 C184 1.345 . S
C184 H176 0.950 . S
C184 C183 1.345 . S
C184 C185 1.424 . S
C185 H177 0.951 . S
C185 C184 1.424 . S
C185 C186 1.347 . S
C186 H178 0.951 . S
C186 C181 1.429 . S
C186 C185 1.347 . S
H187 C188 0.951 . S
C188 H187 0.951 . S
C188 C194 1.265 . S
H189 C194 0.950 . S
H190 C198 0.949 . S
H191 C199 0.950 . S
H192 C200 0.951 . S
H193 C201 0.951 . S
C194 C188 1.265 . S
C194 H189 0.950 . S
C194 C195 1.478 . S
C195 C182 1.394 . S
C195 C194 1.478 . S
C195 C196 1.397 1_554 S
C196 C195 1.397 1_556 S
C196 C197 1.438 . S
C196 C201 1.429 . S
C197 C180 1.394 1_556 S
C197 C196 1.438 . S
C197 C198 1.428 . S
C198 H190 0.949 . S
C198 C197 1.428 . S
C198 C199 1.345 . S
C199 H191 0.950 . S
C199 C198 1.345 . S
C199 C200 1.424 . S
C200 H192 0.951 . S
C200 C199 1.424 . S
C200 C201 1.347 . S
C201 H193 0.951 . S
C201 C196 1.429 . S
C201 C200 1.347 . S
H202 C203 0.955 . S
C203 H202 0.955 . S
C203 C209 1.265 . S
H204 C209 0.950 . S
H205 C213 0.949 . S
H206 C214 0.950 . S
H207 C215 0.951 . S
H208 C216 0.951 . S
C209 C203 1.265 . S
C209 H204 0.950 . S
C209 C210 1.478 . S
C210 C209 1.478 . S
C210 C211 1.397 . S
C210 C227 1.394 1_554 S
C211 C210 1.397 . S
C211 C212 1.438 . S
C211 C216 1.429 . S
C212 C211 1.438 . S
C212 C213 1.428 . S
C212 C225 1.394 . S
C213 H205 0.949 . S
C213 C212 1.428 . S
C213 C214 1.345 . S
C214 H206 0.950 . S
C214 C213 1.345 . S
C214 C215 1.424 . S
C215 H207 0.951 . S
C215 C214 1.424 . S
C215 C216 1.347 . S
C216 H208 0.951 . S
C216 C211 1.429 . S
C216 C215 1.347 . S
H217 C218 0.951 . S
C218 H217 0.951 . S
C218 C224 1.265 1_554 S
H219 C224 0.950 . S
H220 C228 0.949 . S
H221 C229 0.950 . S
H222 C230 0.951 . S
H223 C231 0.951 . S
C224 C218 1.265 1_556 S
C224 H219 0.950 . S
C224 C225 1.478 1_556 S
C225 C212 1.394 . S
C225 C224 1.478 1_554 S
C225 C226 1.397 1_554 S
C226 C225 1.397 1_556 S
C226 C227 1.438 . S
C226 C231 1.429 . S
C227 C210 1.394 1_556 S
C227 C226 1.438 . S
C227 C228 1.428 . S
C228 H220 0.949 . S
C228 C227 1.428 . S
C228 C229 1.345 . S
C229 H221 0.950 . S
C229 C228 1.345 . S
C229 C230 1.424 . S
C230 H222 0.951 . S
C230 C229 1.424 . S
C230 C231 1.347 . S
C231 H223 0.951 . S
C231 C226 1.429 . S
C231 C230 1.347 . S
H232 C233 0.951 . S
C233 H232 0.951 . S
C233 C239 1.265 . S
H234 C239 0.950 . S
H235 C243 0.949 . S
H236 C244 0.950 . S
H237 C245 0.951 1_565 S
H238 C246 0.951 . S
C239 C233 1.265 . S
C239 H234 0.950 . S
C239 C240 1.478 . S
C240 C239 1.478 . S
C240 C241 1.397 . S
C240 C257 1.394 . S
C241 C240 1.397 . S
C241 C242 1.438 1_565 S
C241 C246 1.429 . S
C242 C241 1.438 1_545 S
C242 C243 1.428 . S
C242 C255 1.394 . S
C243 H235 0.949 . S
C243 C242 1.428 . S
C243 C244 1.345 . S
C244 H236 0.950 . S
C244 C243 1.345 . S
C244 C245 1.424 . S
C245 H237 0.951 1_545 S
C245 C244 1.424 . S
C245 C246 1.347 1_545 S
C246 H238 0.951 . S
C246 C241 1.429 . S
C246 C245 1.347 1_565 S
H247 C248 0.951 . S
C248 H247 0.951 . S
C248 C254 1.265 . S
H249 C254 0.950 . S
H250 C258 0.949 . S
H251 C259 0.950 . S
H252 C260 0.951 1_545 S
H253 C261 0.951 . S
C254 C248 1.265 . S
C254 H249 0.950 . S
C254 C255 1.478 . S
C255 C242 1.394 . S
C255 C254 1.478 . S
C255 C256 1.397 . S
C256 C255 1.397 . S
C256 C257 1.438 1_545 S
C256 C261 1.429 . S
C257 C240 1.394 . S
C257 C256 1.438 1_565 S
C257 C258 1.428 . S
C258 H250 0.949 . S
C258 C257 1.428 . S
C258 C259 1.345 . S
C259 H251 0.950 . S
C259 C258 1.345 . S
C259 C260 1.424 . S
C260 H252 0.951 1_565 S
C260 C259 1.424 . S
C260 C261 1.347 1_565 S
C261 H253 0.951 . S
C261 C256 1.429 . S
C261 C260 1.347 1_545 S
H262 C263 0.951 . S
C263 H262 0.951 . S
C263 C269 1.265 . S
H264 C269 0.950 . S
H265 C273 0.949 . S
H266 C274 0.950 . S
H267 C275 0.951 . S
H268 C276 0.951 . S
C269 C263 1.265 . S
C269 H264 0.950 . S
C269 C270 1.478 . S
C270 C269 1.478 . S
C270 C271 1.397 . S
C270 C287 1.394 . S
C271 C270 1.397 . S
C271 C272 1.438 1_455 S
C271 C276 1.429 . S
C272 C271 1.438 1_655 S
C272 C273 1.428 . S
C272 C285 1.394 . S
C273 H265 0.949 . S
C273 C272 1.428 . S
C273 C274 1.345 . S
C274 H266 0.950 . S
C274 C273 1.345 . S
C274 C275 1.424 1_655 S
C275 H267 0.951 . S
C275 C274 1.424 1_455 S
C275 C276 1.347 . S
C276 H268 0.951 . S
C276 C271 1.429 . S
C276 C275 1.347 . S
H277 C278 0.951 . S
C278 H277 0.951 . S
C278 C284 1.265 . S
H279 C284 0.950 . S
H280 C288 0.949 . S
H281 C289 0.950 . S
H282 C290 0.951 . S
H283 C291 0.951 . S
C284 C278 1.265 . S
C284 H279 0.950 . S
C284 C285 1.478 . S
C285 C272 1.394 . S
C285 C284 1.478 . S
C285 C286 1.397 . S
C286 C285 1.397 . S
C286 C287 1.438 1_655 S
C286 C291 1.429 . S
C287 C270 1.394 . S
C287 C286 1.438 1_455 S
C287 C288 1.428 . S
C288 H280 0.949 . S
C288 C287 1.428 . S
C288 C289 1.345 . S
C289 H281 0.950 . S
C289 C288 1.345 . S
C289 C290 1.424 1_455 S
C290 H282 0.951 . S
C290 C289 1.424 1_655 S
C290 C291 1.347 . S
C291 H283 0.951 . S
C291 C286 1.429 . S
C291 C290 1.347 . S
H292 C293 0.951 . S
C293 H292 0.951 . S
C293 C299 1.265 . S
H294 C299 0.950 . S
H295 C303 0.949 . S
H296 C304 0.950 . S
H297 C305 0.951 1_545 S
H298 C306 0.951 . S
C299 C293 1.265 . S
C299 H294 0.950 . S
C299 C300 1.478 . S
C300 C299 1.478 . S
C300 C301 1.397 . S
C300 C317 1.394 . S
C301 C300 1.397 . S
C301 C302 1.438 1_545 S
C301 C306 1.429 . S
C302 C301 1.438 1_565 S
C302 C303 1.428 . S
C302 C315 1.394 . S
C303 H295 0.949 . S
C303 C302 1.428 . S
C303 C304 1.345 . S
C304 H296 0.950 . S
C304 C303 1.345 . S
C304 C305 1.424 . S
C305 H297 0.951 1_565 S
C305 C304 1.424 . S
C305 C306 1.347 1_565 S
C306 H298 0.951 . S
C306 C301 1.429 . S
C306 C305 1.347 1_545 S
H307 C308 0.951 . S
C308 H307 0.951 . S
C308 C314 1.265 . S
H309 C314 0.950 . S
H310 C318 0.949 . S
H311 C319 0.950 . S
H312 C320 0.951 1_565 S
H313 C321 0.951 . S
C314 C308 1.265 . S
C314 H309 0.950 . S
C314 C315 1.478 . S
C315 C302 1.394 . S
C315 C314 1.478 . S
C315 C316 1.397 . S
C316 C315 1.397 . S
C316 C317 1.438 1_565 S
C316 C321 1.429 . S
C317 C300 1.394 . S
C317 C316 1.438 1_545 S
C317 C318 1.428 . S
C318 H310 0.949 . S
C318 C317 1.428 . S
C318 C319 1.345 . S
C319 H311 0.950 . S
C319 C318 1.345 . S
C319 C320 1.424 . S
C320 H312 0.951 1_545 S
C320 C319 1.424 . S
C320 C321 1.347 1_545 S
C321 H313 0.951 . S
C321 C316 1.429 . S
C321 C320 1.347 1_565 S
H322 C323 0.951 . S
C323 H322 0.951 . S
C323 C329 1.265 . S
H324 C329 0.950 . S
H325 C333 0.949 . S
H326 C334 0.950 . S
H327 C335 0.951 . S
H328 C336 0.951 . S
C329 C323 1.265 . S
C329 H324 0.950 . S
C329 C330 1.478 . S
C330 C329 1.478 . S
C330 C331 1.397 . S
C330 C347 1.394 . S
C331 C330 1.397 . S
C331 C332 1.438 1_655 S
C331 C336 1.429 . S
C332 C331 1.438 1_455 S
C332 C333 1.428 . S
C332 C345 1.394 . S
C333 H325 0.949 . S
C333 C332 1.428 . S
C333 C334 1.345 . S
C334 H326 0.950 . S
C334 C333 1.345 . S
C334 C335 1.424 1_455 S
C335 H327 0.951 . S
C335 C334 1.424 1_655 S
C335 C336 1.347 . S
C336 H328 0.951 . S
C336 C331 1.429 . S
C336 C335 1.347 . S
H337 C338 0.951 . S
C338 H337 0.951 . S
C338 C344 1.265 . S
H339 C344 0.950 . S
H340 C348 0.949 . S
H341 C349 0.950 . S
H342 C350 0.951 . S
H343 C351 0.951 . S
C344 C338 1.265 . S
C344 H339 0.950 . S
C344 C345 1.478 . S
C345 C332 1.394 . S
C345 C344 1.478 . S
C345 C346 1.397 . S
C346 C345 1.397 . S
C346 C347 1.438 1_455 S
C346 C351 1.429 . S
C347 C330 1.394 . S
C347 C346 1.438 1_655 S
C347 C348 1.428 . S
C348 H340 0.949 . S
C348 C347 1.428 . S
C348 C349 1.345 . S
C349 H341 0.950 . S
C349 C348 1.345 . S
C349 C350 1.424 1_655 S
C350 H342 0.951 . S
C350 C349 1.424 1_455 S
C350 C351 1.347 . S
C351 H343 0.951 . S
C351 C346 1.429 . S
C351 C350 1.347 . S
H352 C353 0.951 . S
C353 H352 0.951 . S
C353 C359 1.265 . S
H354 C359 0.950 . S
H355 C363 0.949 . S
H356 C364 0.950 . S
H357 C365 0.951 . S
H358 C366 0.951 . S
C359 C353 1.265 . S
C359 H354 0.950 . S
C359 C360 1.478 . S
C360 C359 1.478 . S
C360 C361 1.397 . S
C360 C377 1.394 . S
C361 C360 1.397 . S
C361 C362 1.438 . S
C361 C366 1.429 . S
C362 C361 1.438 . S
C362 C363 1.428 . S
C362 C375 1.394 . S
C363 H355 0.949 . S
C363 C362 1.428 . S
C363 C364 1.345 . S
C364 H356 0.950 . S
C364 C363 1.345 . S
C364 C365 1.424 . S
C365 H357 0.951 . S
C365 C364 1.424 . S
C365 C366 1.347 . S
C366 H358 0.951 . S
C366 C361 1.429 . S
C366 C365 1.347 . S
H367 C368 0.951 . S
C368 H367 0.951 . S
C368 C374 1.265 . S
H369 C374 0.950 . S
H370 C378 0.949 . S
H371 C379 0.950 . S
H372 C380 0.951 . S
H373 C381 0.951 . S
C374 C368 1.265 . S
C374 H369 0.950 . S
C374 C375 1.478 . S
C375 C362 1.394 . S
C375 C374 1.478 . S
C375 C376 1.397 . S
C376 C375 1.397 . S
C376 C377 1.438 . S
C376 C381 1.429 . S
C377 C360 1.394 . S
C377 C376 1.438 . S
C377 C378 1.428 . S
C378 H370 0.949 . S
C378 C377 1.428 . S
C378 C379 1.345 . S
C379 H371 0.950 . S
C379 C378 1.345 . S
C379 C380 1.424 . S
C380 H372 0.951 . S
C380 C379 1.424 . S
C380 C381 1.347 . S
C381 H373 0.951 . S
C381 C376 1.429 . S
C381 C380 1.347 . S
H382 C383 0.951 . S
C383 H382 0.951 . S
C383 C389 1.265 . S
H384 C389 0.950 . S
H385 C393 0.949 . S
H386 C394 0.950 . S
H387 C395 0.951 . S
H388 C396 0.951 . S
C389 C383 1.265 . S
C389 H384 0.950 . S
C389 C390 1.478 . S
C390 C389 1.478 . S
C390 C391 1.397 . S
C390 C407 1.394 . S
C391 C390 1.397 . S
C391 C392 1.438 . S
C391 C396 1.429 . S
C392 C391 1.438 . S
C392 C393 1.428 . S
C392 C405 1.394 . S
C393 H385 0.949 . S
C393 C392 1.428 . S
C393 C394 1.345 . S
C394 H386 0.950 . S
C394 C393 1.345 . S
C394 C395 1.424 . S
C395 H387 0.951 . S
C395 C394 1.424 . S
C395 C396 1.347 . S
C396 H388 0.951 . S
C396 C391 1.429 . S
C396 C395 1.347 . S
H397 C398 0.951 . S
C398 H397 0.951 . S
C398 C404 1.265 . S
H399 C404 0.950 . S
H400 C408 0.949 . S
H401 C409 0.950 . S
H402 C410 0.951 . S
H403 C411 0.951 . S
C404 C398 1.265 . S
C404 H399 0.950 . S
C404 C405 1.478 . S
C405 C392 1.394 . S
C405 C404 1.478 . S
C405 C406 1.397 . S
C406 C405 1.397 . S
C406 C407 1.438 . S
C406 C411 1.429 . S
C407 C390 1.394 . S
C407 C406 1.438 . S
C407 C408 1.428 . S
C408 H400 0.949 . S
C408 C407 1.428 . S
C408 C409 1.345 . S
C409 H401 0.950 . S
C409 C408 1.345 . S
C409 C410 1.424 . S
C410 H402 0.951 . S
C410 C409 1.424 . S
C410 C411 1.347 . S
C411 H403 0.951 . S
C411 C406 1.429 . S
C411 C410 1.347 . S
H412 C413 0.951 . S
C413 H412 0.951 . S
C413 C419 1.265 . S
H414 C419 0.950 . S
H415 C423 0.949 . S
H416 C424 0.950 . S
H417 C425 0.951 . S
H418 C426 0.951 . S
C419 C413 1.265 . S
C419 H414 0.950 . S
C419 C420 1.478 . S
C420 C419 1.478 . S
C420 C421 1.397 . S
C420 C437 1.394 . S
C421 C420 1.397 . S
C421 C422 1.438 . S
C421 C426 1.429 . S
C422 C421 1.438 . S
C422 C423 1.428 . S
C422 C435 1.394 . S
C423 H415 0.949 . S
C423 C422 1.428 . S
C423 C424 1.345 . S
C424 H416 0.950 . S
C424 C423 1.345 . S
C424 C425 1.424 . S
C425 H417 0.951 . S
C425 C424 1.424 . S
C425 C426 1.347 . S
C426 H418 0.951 . S
C426 C421 1.429 . S
C426 C425 1.347 . S
H427 C428 0.951 . S
C428 H427 0.951 . S
C428 C434 1.265 . S
H429 C434 0.950 . S
H430 C438 0.949 . S
H431 C439 0.950 . S
H432 C440 0.951 . S
H433 C441 0.951 . S
C434 C428 1.265 . S
C434 H429 0.950 . S
C434 C435 1.478 . S
C435 C422 1.394 . S
C435 C434 1.478 . S
C435 C436 1.397 . S
C436 C435 1.397 . S
C436 C437 1.438 . S
C436 C441 1.429 . S
C437 C420 1.394 . S
C437 C436 1.438 . S
C437 C438 1.428 . S
C438 H430 0.949 . S
C438 C437 1.428 . S
C438 C439 1.345 . S
C439 H431 0.950 . S
C439 C438 1.345 . S
C439 C440 1.424 . S
C440 H432 0.951 . S
C440 C439 1.424 . S
C440 C441 1.347 . S
C441 H433 0.951 . S
C441 C436 1.429 . S
C441 C440 1.347 . S
H442 C443 0.951 . S
C443 H442 0.951 . S
C443 C449 1.265 . S
H444 C449 0.950 . S
H445 C453 0.949 . S
H446 C454 0.950 . S
H447 C455 0.951 . S
H448 C456 0.951 . S
C449 C443 1.265 . S
C449 H444 0.950 . S
C449 C450 1.478 . S
C450 C449 1.478 . S
C450 C451 1.397 . S
C450 C467 1.394 . S
C451 C450 1.397 . S
C451 C452 1.438 . S
C451 C456 1.429 . S
C452 C451 1.438 . S
C452 C453 1.428 . S
C452 C465 1.394 . S
C453 H445 0.949 . S
C453 C452 1.428 . S
C453 C454 1.345 . S
C454 H446 0.950 . S
C454 C453 1.345 . S
C454 C455 1.424 . S
C455 H447 0.951 . S
C455 C454 1.424 . S
C455 C456 1.347 . S
C456 H448 0.951 . S
C456 C451 1.429 . S
C456 C455 1.347 . S
H457 C458 0.951 . S
C458 H457 0.951 . S
C458 C464 1.265 . S
H459 C464 0.950 . S
H460 C468 0.949 . S
H461 C469 0.950 . S
H462 C470 0.951 . S
H463 C471 0.951 . S
C464 C458 1.265 . S
C464 H459 0.950 . S
C464 C465 1.478 . S
C465 C452 1.394 . S
C465 C464 1.478 . S
C465 C466 1.397 . S
C466 C465 1.397 . S
C466 C467 1.438 . S
C466 C471 1.429 . S
C467 C450 1.394 . S
C467 C466 1.438 . S
C467 C468 1.428 . S
C468 H460 0.949 . S
C468 C467 1.428 . S
C468 C469 1.345 . S
C469 H461 0.950 . S
C469 C468 1.345 . S
C469 C470 1.424 . S
C470 H462 0.951 . S
C470 C469 1.424 . S
C470 C471 1.347 . S
C471 H463 0.951 . S
C471 C466 1.429 . S
C471 C470 1.347 . S
H472 C473 0.951 . S
C473 H472 0.951 . S
C473 C479 1.265 . S
H474 C479 0.950 . S
H475 C483 0.949 . S
H476 C484 0.950 . S
H477 C485 0.951 . S
H478 C486 0.951 . S
C479 C473 1.265 . S
C479 H474 0.950 . S
C479 C480 1.478 . S
C480 C479 1.478 . S
C480 C481 1.397 . S
C480 C497 1.394 . S
C481 C480 1.397 . S
C481 C482 1.438 . S
C481 C486 1.429 . S
C482 C481 1.438 . S
C482 C483 1.428 . S
C482 C495 1.394 . S
C483 H475 0.949 . S
C483 C482 1.428 . S
C483 C484 1.345 . S
C484 H476 0.950 . S
C484 C483 1.345 . S
C484 C485 1.424 . S
C485 H477 0.951 . S
C485 C484 1.424 . S
C485 C486 1.347 . S
C486 H478 0.951 . S
C486 C481 1.429 . S
C486 C485 1.347 . S
H487 C488 0.951 . S
C488 H487 0.951 . S
C488 C494 1.265 . S
H489 C494 0.950 . S
H490 C498 0.949 . S
H491 C499 0.950 . S
H492 C500 0.951 . S
H493 C501 0.951 . S
C494 C488 1.265 . S
C494 H489 0.950 . S
C494 C495 1.478 . S
C495 C482 1.394 . S
C495 C494 1.478 . S
C495 C496 1.397 . S
C496 C495 1.397 . S
C496 C497 1.438 . S
C496 C501 1.429 . S
C497 C480 1.394 . S
C497 C496 1.438 . S
C497 C498 1.428 . S
C498 H490 0.949 . S
C498 C497 1.428 . S
C498 C499 1.345 . S
C499 H491 0.950 . S
C499 C498 1.345 . S
C499 C500 1.424 . S
C500 H492 0.951 . S
C500 C499 1.424 . S
C500 C501 1.347 . S
C501 H493 0.951 . S
C501 C496 1.429 . S
C501 C500 1.347 . S
H502 C503 0.951 . S
C503 H502 0.951 . S
C503 C509 1.265 . S
H504 C509 0.950 . S
H505 C513 0.949 . S
H506 C514 0.950 . S
H507 C515 0.951 . S
H508 C516 0.951 . S
C509 C503 1.265 . S
C509 H504 0.950 . S
C509 C510 1.478 . S
C510 C509 1.478 . S
C510 C511 1.397 . S
C510 C527 1.394 . S
C511 C510 1.397 . S
C511 C512 1.438 . S
C511 C516 1.429 . S
C512 C511 1.438 . S
C512 C513 1.428 . S
C512 C525 1.394 . S
C513 H505 0.949 . S
C513 C512 1.428 . S
C513 C514 1.345 . S
C514 H506 0.950 . S
C514 C513 1.345 . S
C514 C515 1.424 . S
C515 H507 0.951 . S
C515 C514 1.424 . S
C515 C516 1.347 . S
C516 H508 0.951 . S
C516 C511 1.429 . S
C516 C515 1.347 . S
H517 C518 0.951 . S
C518 H517 0.951 . S
C518 C524 1.265 . S
H519 C524 0.950 . S
H520 C528 0.949 . S
H521 C529 0.950 . S
H522 C530 0.951 . S
H523 C531 0.951 . S
C524 C518 1.265 . S
C524 H519 0.950 . S
C524 C525 1.478 . S
C525 C512 1.394 . S
C525 C524 1.478 . S
C525 C526 1.397 . S
C526 C525 1.397 . S
C526 C527 1.438 . S
C526 C531 1.429 . S
C527 C510 1.394 . S
C527 C526 1.438 . S
C527 C528 1.428 . S
C528 H520 0.949 . S
C528 C527 1.428 . S
C528 C529 1.345 . S
C529 H521 0.950 . S
C529 C528 1.345 . S
C529 C530 1.424 . S
C530 H522 0.951 . S
C530 C529 1.424 . S
C530 C531 1.347 . S
C531 H523 0.951 . S
C531 C526 1.429 . S
C531 C530 1.347 . S
H532 C533 0.951 . S
C533 H532 0.951 . S
C533 C539 1.265 . S
H534 C539 0.950 . S
H535 C543 0.949 . S
H536 C544 0.950 . S
H537 C545 0.951 . S
H538 C546 0.951 . S
C539 C533 1.265 . S
C539 H534 0.950 . S
C539 C540 1.478 . S
C540 C539 1.478 . S
C540 C541 1.397 . S
C540 C557 1.394 . S
C541 C540 1.397 . S
C541 C542 1.438 . S
C541 C546 1.429 . S
C542 C541 1.438 . S
C542 C543 1.428 . S
C542 C555 1.394 . S
C543 H535 0.949 . S
C543 C542 1.428 . S
C543 C544 1.345 . S
C544 H536 0.950 . S
C544 C543 1.345 . S
C544 C545 1.424 . S
C545 H537 0.951 . S
C545 C544 1.424 . S
C545 C546 1.347 . S
C546 H538 0.951 . S
C546 C541 1.429 . S
C546 C545 1.347 . S
H547 C548 0.951 . S
C548 H547 0.951 . S
C548 C554 1.265 . S
H549 C554 0.950 . S
H550 C558 0.949 . S
H551 C559 0.950 . S
H552 C560 0.951 . S
H553 C561 0.951 . S
C554 C548 1.265 . S
C554 H549 0.950 . S
C554 C555 1.478 . S
C555 C542 1.394 . S
C555 C554 1.478 . S
C555 C556 1.397 . S
C556 C555 1.397 . S
C556 C557 1.438 . S
C556 C561 1.429 . S
C557 C540 1.394 . S
C557 C556 1.438 . S
C557 C558 1.428 . S
C558 H550 0.949 . S
C558 C557 1.428 . S
C558 C559 1.345 . S
C559 H551 0.950 . S
C559 C558 1.345 . S
C559 C560 1.424 . S
C560 H552 0.951 . S
C560 C559 1.424 . S
C560 C561 1.347 . S
C561 H553 0.951 . S
C561 C556 1.429 . S
C561 C560 1.347 . S
H562 C563 0.951 . S
C563 H562 0.951 . S
C563 C569 1.265 . S
H564 C569 0.950 . S
H565 C573 0.949 . S
H566 C574 0.950 . S
H567 C575 0.951 . S
H568 C576 0.951 . S
C569 C563 1.265 . S
C569 H564 0.950 . S
C569 C570 1.478 . S
C570 C569 1.478 . S
C570 C571 1.397 . S
C570 C587 1.394 . S
C571 C570 1.397 . S
C571 C572 1.438 . S
C571 C576 1.429 . S
C572 C571 1.438 . S
C572 C573 1.428 . S
C572 C585 1.394 . S
C573 H565 0.949 . S
C573 C572 1.428 . S
C573 C574 1.345 . S
C574 H566 0.950 . S
C574 C573 1.345 . S
C574 C575 1.424 . S
C575 H567 0.951 . S
C575 C574 1.424 . S
C575 C576 1.347 . S
C576 H568 0.951 . S
C576 C571 1.429 . S
C576 C575 1.347 . S
H577 C578 0.951 . S
C578 H577 0.951 . S
C578 C584 1.265 . S
H579 C584 0.950 . S
H580 C588 0.949 . S
H581 C589 0.950 . S
H582 C590 0.951 . S
H583 C591 0.951 . S
C584 C578 1.265 . S
C584 H579 0.950 . S
C584 C585 1.478 . S
C585 C572 1.394 . S
C585 C584 1.478 . S
C585 C586 1.397 . S
C586 C585 1.397 . S
C586 C587 1.438 . S
C586 C591 1.429 . S
C587 C570 1.394 . S
C587 C586 1.438 . S
C587 C588 1.428 . S
C588 H580 0.949 . S
C588 C587 1.428 . S
C588 C589 1.345 . S
C589 H581 0.950 . S
C589 C588 1.345 . S
C589 C590 1.424 . S
C590 H582 0.951 . S
C590 C589 1.424 . S
C590 C591 1.347 . S
C591 H583 0.951 . S
C591 C586 1.429 . S
C591 C590 1.347 . S
C113 C3 1.533 . S
C128 C45 1.519 1_554 S
C143 C9 1.527 . S
C158 C23 1.532 . S
C173 C17 1.533 1_554 S
C188 C31 1.518 . S
C203 C51 1.509 . S
C218 C37 1.531 . S
C233 C59 1.507 . S
C248 C101 1.520 . S
C263 C79 1.529 . S
C278 C65 1.531 . S
C293 C87 1.511 . S
C308 C73 1.526 . S
C323 C107 1.520 . S
C338 C93 1.539 . S
C353 C91 1.444 . S
C368 C8 1.458 . S
C383 C21 1.425 . S
C398 C106 1.459 . S
C413 C63 1.456 . S
C428 C36 1.496 . S
C443 C78 1.461 . S
C458 C49 1.465 . S
C473 C77 1.449 . S
C488 C50 1.458 . S
C503 C7 1.486 . S
C518 C92 1.475 . S
C533 C22 1.458 . S
C548 C105 1.443 . S
C563 C35 1.479 . S
C578 C64 1.468 . S
