# Generated by pormake.
# Topology smc, (6)-cn, num edge types: 1
# Building blocks:
#     Node 0, Type 0, BuildingBlock: NUHQIS_clean_sbu_0, # of connection points: 6
#     Node 1, Type 0, BuildingBlock: NUHQIS_clean_sbu_0, # of connection points: 6
#     Node 2, Type 0, BuildingBlock: NUHQIS_clean_sbu_0, # of connection points: 6
#     Node 3, Type 0, BuildingBlock: NUHQIS_clean_sbu_0, # of connection points: 6
#     Node 4, Type 0, BuildingBlock: NUHQIS_clean_sbu_0, # of connection points: 6
#     Node 5, Type 0, BuildingBlock: NUHQIS_clean_sbu_0, # of connection points: 6
#     Node 6, Type 0, BuildingBlock: NUHQIS_clean_sbu_0, # of connection points: 6
#     Node 7, Type 0, BuildingBlock: NUHQIS_clean_sbu_0, # of connection points: 6
#     Node 8, Type 0, BuildingBlock: NUHQIS_clean_sbu_0, # of connection points: 6
#     Edge 9, Type (0, 0), BuildingBlock: TEMPAE_clean_linker_10, # of connection points: 2
#     Edge 10, Type (0, 0), BuildingBlock: TEMPAE_clean_linker_10, # of connection points: 2
#     Edge 11, Type (0, 0), BuildingBlock: TEMPAE_clean_linker_10, # of connection points: 2
#     Edge 12, Type (0, 0), BuildingBlock: TEMPAE_clean_linker_10, # of connection points: 2
#     Edge 13, Type (0, 0), BuildingBlock: TEMPAE_clean_linker_10, # of connection points: 2
#     Edge 14, Type (0, 0), BuildingBlock: TEMPAE_clean_linker_10, # of connection points: 2
#     Edge 15, Type (0, 0), BuildingBlock: TEMPAE_clean_linker_10, # of connection points: 2
#     Edge 16, Type (0, 0), BuildingBlock: TEMPAE_clean_linker_10, # of connection points: 2
#     Edge 17, Type (0, 0), BuildingBlock: TEMPAE_clean_linker_10, # of connection points: 2
#     Edge 18, Type (0, 0), BuildingBlock: TEMPAE_clean_linker_10, # of connection points: 2
#     Edge 19, Type (0, 0), BuildingBlock: TEMPAE_clean_linker_10, # of connection points: 2
#     Edge 20, Type (0, 0), BuildingBlock: TEMPAE_clean_linker_10, # of connection points: 2
#     Edge 21, Type (0, 0), BuildingBlock: TEMPAE_clean_linker_10, # of connection points: 2
#     Edge 22, Type (0, 0), BuildingBlock: TEMPAE_clean_linker_10, # of connection points: 2
#     Edge 23, Type (0, 0), BuildingBlock: TEMPAE_clean_linker_10, # of connection points: 2
#     Edge 24, Type (0, 0), BuildingBlock: TEMPAE_clean_linker_10, # of connection points: 2
#     Edge 25, Type (0, 0), BuildingBlock: TEMPAE_clean_linker_10, # of connection points: 2
#     Edge 26, Type (0, 0), BuildingBlock: TEMPAE_clean_linker_10, # of connection points: 2
#     Edge 27, Type (0, 0), BuildingBlock: TEMPAE_clean_linker_10, # of connection points: 2
#     Edge 28, Type (0, 0), BuildingBlock: TEMPAE_clean_linker_10, # of connection points: 2
#     Edge 29, Type (0, 0), BuildingBlock: TEMPAE_clean_linker_10, # of connection points: 2
#     Edge 30, Type (0, 0), BuildingBlock: TEMPAE_clean_linker_10, # of connection points: 2
#     Edge 31, Type (0, 0), BuildingBlock: TEMPAE_clean_linker_10, # of connection points: 2
#     Edge 32, Type (0, 0), BuildingBlock: TEMPAE_clean_linker_10, # of connection points: 2
#     Edge 33, Type (0, 0), BuildingBlock: TEMPAE_clean_linker_10, # of connection points: 2
#     Edge 34, Type (0, 0), BuildingBlock: TEMPAE_clean_linker_10, # of connection points: 2
#     Edge 35, Type (0, 0), BuildingBlock: TEMPAE_clean_linker_10, # of connection points: 2
# Relax obj value: 0.322
# Max RMSD: 0.372
# Mean RMSD: 0.323
data_MOF--net-smc--node1-NUHQIS_clean_sbu_0--edge1-TEMPAE_clean_linker_10
_symmetry_space_group_name_H-M    P1
_symmetry_Int_Tables_number       1
_symmetry_cell_setting            triclinic
loop_
_symmetry_equiv_pos_as_xyz
'x, y, z'
_cell_length_a     43.582001
_cell_length_b     33.232904
_cell_length_c     40.919245
_cell_angle_alpha  91.779101
_cell_angle_beta   90.958507
_cell_angle_gamma 119.59831
loop_
_atom_site_label
_atom_site_type_symbol
_atom_site_fract_x
_atom_site_fract_y
_atom_site_fract_z
_atom_type_partial_charge
Tb0 Tb 0.05218 0.48848 0.0252 0.0
Eu1 Eu 0.07727 0.41585 1.00322 0.0
C2 C 0.09687 0.46421 0.07585 0.0
C3 C 0.12804 0.52634 0.99903 0.0
C4 C 0.99797 0.54342 0.04889 0.0
C5 C 0.9675 0.58593 0.06148 0.0
C6 C 0.99844 0.58547 0.05422 0.0
C7 C 0.96614 0.50151 0.05085 0.0
C8 C 0.93501 0.50191 0.05822 0.0
C9 C 0.93543 0.54424 0.06349 0.0
C10 C 1.03128 0.54443 0.04246 0.0
O11 O 1.01897 0.45036 0.98039 0.0
O12 O 0.05635 0.42942 0.95631 0.0
O13 O 1.01786 0.37576 1.0077 0.0
O14 O 1.01611 0.42435 0.04676 0.0
C15 C 1.02839 0.43471 0.95434 0.0
O16 O 0.10775 0.39263 0.97443 0.0
O17 O 0.0711 0.34746 1.00945 0.0
O18 O 0.08782 0.42633 0.05792 0.0
O19 O 0.0908 0.49673 0.06476 0.0
O20 O 0.09889 0.52854 0.99768 0.0
O21 O 0.12711 0.48721 1.00567 0.0
C22 C 1.0008 0.3846 0.03034 0.0
O23 O 1.04058 0.5227 0.06272 0.0
O24 O 1.03641 0.53653 0.01226 0.0
C25 C 0.12596 0.35237 1.00833 0.0
C26 C 0.18207 0.34999 0.0413 0.0
C27 C 0.15731 0.31145 0.02173 0.0
C28 C 0.12935 0.31267 1.0053 0.0
C29 C 0.14931 0.3896 0.02919 0.0
C30 C 0.17705 0.38853 0.04544 0.0
C31 C 0.09761 0.35554 0.99123 0.0
H32 H 0.96878 0.61904 0.06595 0.0
H33 H 1.02288 0.61806 0.05305 0.0
H34 H 0.96544 0.46868 0.04682 0.0
H35 H 0.91064 0.46928 0.05943 0.0
H36 H 0.16033 0.28118 0.01818 0.0
H37 H 0.11093 0.28323 0.98978 0.0
H38 H 0.14671 0.42029 0.03214 0.0
H39 H 0.19582 0.41939 0.05954 0.0
Tb40 Tb 0.57481 0.61294 0.97753 0.0
Eu41 Eu 0.64071 0.65339 0.02059 0.0
C42 C 0.65087 0.65354 0.9422 0.0
C43 C 0.59801 0.53694 1.00013 0.0
C44 C 0.48054 0.56812 0.96406 0.0
C45 C 0.41715 0.51959 0.9651 0.0
C46 C 0.44846 0.53612 0.94837 0.0
C47 C 0.48075 0.58658 0.99548 0.0
C48 C 0.4496 0.56929 0.01247 0.0
C49 C 0.41796 0.53442 0.99776 0.0
C50 C 0.51336 0.5727 0.95192 0.0
O51 O 0.56814 0.63026 0.03021 0.0
O52 O 0.59889 0.60039 0.04955 0.0
O53 O 0.62321 0.71296 0.0199 0.0
O54 O 0.58082 0.68358 0.97913 0.0
C55 C 0.57751 0.61536 0.05603 0.0
O56 O 0.66456 0.6817 0.06934 0.0
O57 O 0.69709 0.68214 0.02979 0.0
O58 O 0.66562 0.66705 0.97154 0.0
O59 O 0.6157 0.63076 0.93875 0.0
O60 O 0.5763 0.54646 0.98322 0.0
O61 O 0.62567 0.57316 0.01598 0.0
C62 C 0.59974 0.71793 1.00073 0.0
O63 O 0.53769 0.61382 0.94419 0.0
O64 O 0.52619 0.55269 0.97008 0.0
C65 C 0.71122 0.66686 0.0812 0.0
C66 C 0.74677 0.62089 0.10306 0.0
C67 C 0.76493 0.66938 0.1007 0.0
C68 C 0.74725 0.69212 0.0898 0.0
C69 C 0.69231 0.61915 0.08624 0.0
C70 C 0.70995 0.59633 0.09721 0.0
C71 C 0.69545 0.68823 0.0612 0.0
H72 H 0.39282 0.49242 0.95354 0.0
H73 H 0.44797 0.52114 0.92433 0.0
H74 H 0.50539 0.61123 1.00794 0.0
H75 H 0.45055 0.58099 0.03767 0.0
H76 H 0.79332 0.68936 0.10463 0.0
H77 H 0.76225 0.72888 0.08575 0.0
H78 H 0.66442 0.59905 0.07958 0.0
H79 H 0.69516 0.5591 0.0992 0.0
Tb80 Tb 0.56311 0.10436 0.02222 0.0
Eu81 Eu 0.48587 0.05161 1.00527 0.0
C82 C 0.50361 0.07411 0.07591 0.0
C83 C 0.5351 0.99718 1.00931 0.0
C84 C 0.66281 0.1794 0.04123 0.0
C85 C 0.7209 0.21895 0.06811 0.0
C86 C 0.6843 0.19238 0.06978 0.0
C87 C 0.67818 0.19664 0.01122 0.0
C88 C 0.71491 0.22345 1.00956 0.0
C89 C 0.73661 0.233 0.03781 0.0
C90 C 0.62644 0.14087 0.04272 0.0
O91 O 0.5572 0.12411 0.97109 0.0
O92 O 0.50801 0.05694 0.95623 0.0
O93 O 0.50129 0.13311 1.00135 0.0
O94 O 0.5591 0.16846 0.01954 0.0
C95 C 0.53379 0.09645 0.94799 0.0
O96 O 0.43812 1.01585 0.97268 0.0
O97 O 0.434 1.00979 0.025 0.0
O98 O 0.48867 0.08577 0.05362 0.0
O99 O 0.52983 0.06798 0.06562 0.0
O100 O 0.56074 1.03904 1.00354 0.0
O101 O 0.50413 0.99482 0.01608 0.0
C102 C 0.53196 0.17301 1.00946 0.0
O103 O 0.60288 0.14755 0.0575 0.0
O104 O 0.61345 0.11324 0.01674 0.0
C105 C 0.39379 0.94306 0.99279 0.0
C106 C 0.34321 0.84671 0.99004 0.0
C107 C 0.34131 0.87661 0.96739 0.0
C108 C 0.36618 0.92422 0.9689 0.0
C109 C 0.39647 0.91286 0.01462 0.0
C110 C 0.37144 0.86548 0.01337 0.0
C111 C 0.4177 0.99424 0.99661 0.0
H112 H 0.73704 0.22656 0.09033 0.0
H113 H 0.67298 0.17927 0.09312 0.0
H114 H 0.66207 0.1869 0.98882 0.0
H115 H 0.72638 0.23393 0.9859 0.0
H116 H 0.31981 0.8635 0.94924 0.0
H117 H 0.36328 0.94656 0.95188 0.0
H118 H 0.41751 0.92597 0.03325 0.0
H119 H 0.37407 0.84352 0.03092 0.0
Tb120 Tb 0.68555 0.82224 0.3524 0.0
Eu121 Eu 0.74775 0.78419 0.33106 0.0
C122 C 0.73416 0.80628 0.40797 0.0
C123 C 0.76278 0.88829 0.33395 0.0
C124 C 0.61191 0.86206 0.35334 0.0
C125 C 0.5656 0.87659 0.37597 0.0
C126 C 0.59358 0.86662 0.3801 0.0
C127 C 0.60037 0.86723 0.32199 0.0
C128 C 0.57202 0.87675 0.31779 0.0
C129 C 0.55419 0.88246 0.34474 0.0
C130 C 0.64535 0.85849 0.35945 0.0
O131 O 0.67527 0.79279 0.30027 0.0
O132 O 0.71676 0.77114 0.28363 0.0
O133 O 0.68965 0.71843 0.33833 0.0
O134 O 0.65421 0.74941 0.35717 0.0
C135 C 0.68831 0.77512 0.27806 0.0
O136 O 0.78222 0.75178 0.31878 0.0
O137 O 0.80587 0.82449 0.33318 0.0
O138 O 0.74773 0.79101 0.38564 0.0
O139 O 0.71041 0.81962 0.40078 0.0
O140 O 0.73911 0.87962 0.35586 0.0
O141 O 0.76043 0.85494 0.31427 0.0
C142 C 0.65839 0.7142 0.34835 0.0
O143 O 0.64546 0.82764 0.37848 0.0
O144 O 0.66837 0.86844 0.33662 0.0
C145 C 0.85142 0.80202 0.31992 0.0
C146 C 0.92802 0.82855 0.31662 0.0
C147 C 0.90115 0.78425 0.32635 0.0
C148 C 0.86424 0.77132 0.32763 0.0
C149 C 0.87826 0.84626 0.31042 0.0
C150 C 0.91489 0.85878 0.30839 0.0
C151 C 0.81211 0.79107 0.32484 0.0
H152 H 0.55287 0.87973 0.39761 0.0
H153 H 0.60158 0.86368 0.40471 0.0
H154 H 0.61376 0.8649 0.30057 0.0
H155 H 0.56486 0.88114 0.29324 0.0
H156 H 0.90855 0.75882 0.33292 0.0
H157 H 0.84575 0.73719 0.33562 0.0
H158 H 0.87096 0.87205 0.30457 0.0
H159 H 0.93327 0.89332 0.30105 0.0
Tb160 Tb 0.2619 0.89031 0.30618 0.0
Eu161 Eu 0.29187 0.99519 0.30739 0.0
C162 C 0.27389 0.94412 0.37637 0.0
C163 C 0.2031 0.92388 0.30718 0.0
C164 C 0.26492 0.79166 0.27371 0.0
C165 C 0.27275 0.72707 0.25743 0.0
C166 C 0.2506 0.74593 0.2617 0.0
C167 C 0.30183 0.82031 0.27574 0.0
C168 C 0.3238 0.80125 0.27194 0.0
C169 C 0.30867 0.75304 0.26775 0.0
C170 C 0.24221 0.80874 0.287 0.0
O171 O 0.30187 0.91946 0.26679 0.0
O172 O 0.29933 0.98302 0.25442 0.0
O173 O 0.34125 0.98334 0.31314 0.0
O174 O 0.31259 0.90892 0.32947 0.0
C175 C 0.31029 0.95395 0.2472 0.0
O176 O 0.29382 0.05658 0.28777 0.0
O177 O 0.32809 0.06382 0.32913 0.0
O178 O 0.28566 0.98195 0.3603 0.0
O179 O 0.26171 0.90311 0.36051 0.0
O180 O 0.21038 0.88987 0.30344 0.0
O181 O 0.23028 0.967 0.31007 0.0
C182 C 0.34239 0.94672 0.32456 0.0
O183 O 0.24854 0.82268 0.31787 0.0
O184 O 0.239 0.83819 0.26893 0.0
C185 C 0.29837 0.10609 0.33119 0.0
C186 C 0.25923 0.14265 0.36058 0.0
C187 C 0.28736 0.16995 0.34044 0.0
C188 C 0.30677 0.15164 0.32572 0.0
C189 C 0.2715 0.07964 0.35253 0.0
C190 C 0.25209 0.09778 0.36716 0.0
C191 C 0.31407 0.08351 0.31204 0.0
H192 H 0.26049 0.69015 0.25205 0.0
H193 H 0.22227 0.72377 0.25853 0.0
H194 H 0.31367 0.85627 0.28366 0.0
H195 H 0.3516 0.82254 0.27871 0.0
H196 H 0.29305 0.20448 0.33461 0.0
H197 H 0.32718 0.17223 0.30902 0.0
H198 H 0.26439 0.04413 0.3567 0.0
H199 H 0.23069 0.07617 0.38265 0.0
Tb200 Tb 0.20514 0.43972 0.37996 0.0
Eu201 Eu 0.11702 0.39761 0.36082 0.0
C202 C 0.14144 0.40056 0.43574 0.0
C203 C 0.15316 0.33446 0.36659 0.0
C204 C 0.31121 0.49538 0.37963 0.0
C205 C 0.36823 0.55662 0.35892 0.0
C206 C 0.33142 0.5378 0.36417 0.0
C207 C 0.32997 0.47267 0.38921 0.0
C208 C 0.36677 0.49136 0.38382 0.0
C209 C 0.38726 0.5343 0.36888 0.0
C210 C 0.27307 0.47913 0.39027 0.0
O211 O 0.19722 0.45731 0.32848 0.0
O212 O 0.14526 0.39175 0.31787 0.0
O213 O 0.14792 0.47616 0.35962 0.0
O214 O 0.18286 0.47891 0.40142 0.0
C215 C 0.17157 0.42903 0.30711 0.0
O216 O 0.07608 0.36774 0.32177 0.0
O217 O 0.06275 0.38053 0.37015 0.0
O218 O 0.11821 0.40024 0.41492 0.0
O219 O 0.17458 0.41119 0.42718 0.0
O220 O 0.18373 0.36992 0.35944 0.0
O221 O 0.12571 0.33861 0.37469 0.0
C222 C 0.17318 0.50093 0.38176 0.0
O223 O 0.25081 0.43577 0.39586 0.0
O224 O 0.25603 0.49938 0.37943 0.0
C225 C 1.02038 0.31232 0.33999 0.0
C226 C 0.96485 0.21905 0.33535 0.0
C227 C 0.97413 0.24673 0.30789 0.0
C228 C 1.00151 0.29282 0.31024 0.0
C229 C 1.01111 0.28495 0.36753 0.0
C230 C 0.98357 0.23896 0.36526 0.0
C231 C 0.05069 0.36018 0.34133 0.0
H232 H 0.38175 0.58914 0.34691 0.0
H233 H 0.31894 0.55738 0.35665 0.0
H234 H 0.31633 0.44068 0.40188 0.0
H235 H 0.37937 0.47248 0.39253 0.0
H236 H 0.96072 0.23255 0.28435 0.0
H237 H 1.00836 0.31308 0.28859 0.0
H238 H 1.02529 0.29886 0.39081 0.0
H239 H 0.97687 0.21907 0.38707 0.0
Tb240 Tb 0.38516 0.13692 0.67418 0.0
Eu241 Eu 0.40521 0.05718 0.67297 0.0
C242 C 0.42076 0.11932 0.73674 0.0
C243 C 0.46114 0.164 0.65806 0.0
C244 C 0.33773 0.20522 0.68085 0.0
C245 C 0.31226 0.25525 0.68759 0.0
C246 C 0.34146 0.24953 0.68233 0.0
C247 C 0.3043 0.16636 0.68434 0.0
C248 C 0.27495 0.17202 0.68963 0.0
C249 C 0.27866 0.21663 0.69145 0.0
C250 C 0.36939 0.20075 0.67745 0.0
O251 O 0.35603 0.0912 0.63002 0.0
O252 O 0.39176 0.06011 0.62004 0.0
O253 O 0.34485 1.02094 0.6723 0.0
O254 O 0.34232 0.08075 0.69829 0.0
C255 C 0.3668 0.06859 0.61017 0.0
O256 O 0.43706 1.02695 0.65641 0.0
O257 O 0.39779 0.99278 0.69256 0.0
O258 O 0.40477 0.07621 0.72603 0.0
O259 O 0.42245 0.15115 0.71704 0.0
O260 O 0.43309 0.16471 0.64717 0.0
O261 O 0.45705 0.12787 0.67413 0.0
C262 C 0.32685 1.03717 0.68815 0.0
O263 O 0.37828 0.18526 0.70259 0.0
O264 O 0.37208 0.18182 0.65012 0.0
C265 C 0.45342 1.00114 0.70226 0.0
C266 C 0.51322 1.01982 0.74106 0.0
C267 C 0.49384 0.97703 0.72331 0.0
C268 C 0.46416 0.96787 0.70377 0.0
C269 C 0.47088 0.04192 0.72197 0.0
C270 C 0.50046 0.05129 0.741 0.0
C271 C 0.42586 0.99645 0.67903 0.0
H272 H 0.31622 0.29009 0.68943 0.0
H273 H 0.36715 0.27989 0.67997 0.0
H274 H 0.30103 0.13183 0.68332 0.0
H275 H 0.2494 0.14155 0.69224 0.0
H276 H 0.50281 0.95189 0.723 0.0
H277 H 0.45064 0.93596 0.68889 0.0
H278 H 0.46294 0.06803 0.72107 0.0
H279 H 0.5149 0.08508 0.75341 0.0
Tb280 Tb 0.8916 0.27598 0.66003 0.0
Eu281 Eu 0.95793 0.31358 0.70054 0.0
C282 C 0.96544 0.30586 0.62294 0.0
C283 C 0.91316 0.19757 0.67968 0.0
C284 C 0.79924 0.24203 0.65081 0.0
C285 C 0.73628 0.20233 0.65828 0.0
C286 C 0.76493 0.21044 0.6393 0.0
C287 C 0.80447 0.26867 0.67986 0.0
C288 C 0.77595 0.25979 0.69922 0.0
C289 C 0.7419 0.2251 0.68916 0.0
C290 C 0.82902 0.23891 0.6377 0.0
O291 O 0.88804 0.29526 0.71337 0.0
O292 O 0.9177 0.26341 0.73202 0.0
O293 O 0.94157 0.37492 0.7006 0.0
O294 O 0.89903 0.34694 0.66018 0.0
C295 C 0.89742 0.27987 0.73899 0.0
O296 O 0.9859 0.3276 0.74812 0.0
O297 O 1.01499 0.35852 0.70512 0.0
O298 O 0.97958 0.31037 0.65209 0.0
O299 O 0.93152 0.29462 0.61998 0.0
O300 O 0.89228 0.20859 0.6628 0.0
O301 O 0.9411 0.23284 0.69589 0.0
C302 C 0.91843 0.38103 0.6816 0.0
O303 O 0.85466 0.27656 0.62641 0.0
O304 O 0.84073 0.2188 0.65714 0.0
C305 C 1.04139 0.33188 0.74211 0.0
C306 C 0.08952 0.29824 0.74148 0.0
C307 C 0.1017 0.34618 0.74421 0.0
C308 C 0.07782 0.3628 0.74448 0.0
C309 C 1.02907 0.28401 0.74096 0.0
C310 C 0.0529 0.26735 0.74079 0.0
C311 C 1.01696 0.34949 0.73555 0.0
H312 H 0.71015 0.17507 0.6503 0.0
H313 H 0.76052 0.1893 0.61714 0.0
H314 H 0.83087 0.29325 0.68907 0.0
H315 H 0.78074 0.27756 0.72298 0.0
H316 H 0.12968 0.37096 0.7444 0.0
H317 H 0.08782 0.39985 0.7449 0.0
H318 H 1.00104 0.25947 0.73877 0.0
H319 H 1.04263 0.23026 0.73917 0.0
Tb320 Tb 0.87882 0.76829 0.69149 0.0
Eu321 Eu 0.79936 0.70945 0.68141 0.0
C322 C 0.82361 0.74629 0.74971 0.0
C323 C 0.85186 0.65915 0.6859 0.0
C324 C 0.98457 0.83405 0.69745 0.0
C325 C 1.04195 0.87301 0.72674 0.0
C326 C 1.00492 0.85257 0.72669 0.0
C327 C 1.00211 0.83691 0.66831 0.0
C328 C 1.03892 0.85741 0.66833 0.0
C329 C 0.05945 0.87567 0.69751 0.0
C330 C 0.94524 0.81003 0.69682 0.0
O331 O 0.86249 0.78354 0.64215 0.0
O332 O 0.81509 0.71369 0.62992 0.0
O333 O 0.81322 0.79145 0.67895 0.0
O334 O 0.87224 0.82999 0.69378 0.0
C335 C 0.8375 0.75457 0.62053 0.0
O336 O 0.74766 0.67352 0.6548 0.0
O337 O 0.75183 0.66094 0.70579 0.0
O338 O 0.80537 0.751 0.7266 0.0
O339 O 0.85127 0.74211 0.74025 0.0
O340 O 0.87701 0.70098 0.67928 0.0
O341 O 0.82052 0.6558 0.69217 0.0
C342 C 0.8438 0.83258 0.68581 0.0
O343 O 0.92588 0.80984 0.72104 0.0
O344 O 0.927 0.78733 0.67039 0.0
C345 C 0.70724 0.59752 0.67364 0.0
C346 C 0.65963 0.49957 0.66969 0.0
C347 C 0.6471 0.53146 0.67047 0.0
C348 C 0.67051 0.57956 0.67244 0.0
C349 C 0.72006 0.56605 0.67222 0.0
C350 C 0.6966 0.51778 0.67012 0.0
C351 C 0.7313 0.64851 0.67953 0.0
H352 H 0.0569 0.88708 0.74964 0.0
H353 H 0.99224 0.8508 0.74955 0.0
H354 H 0.98736 0.82288 0.64531 0.0
H355 H 0.05125 0.85815 0.64543 0.0
H356 H 0.61901 0.51928 0.6696 0.0
H357 H 0.6598 0.60283 0.6737 0.0
H358 H 0.74823 0.57876 0.67346 0.0
H359 H 0.7075 0.49473 0.66982 0.0
C360 C 0.38785 0.47807 0.04039 0.0
C361 C 0.38708 0.50812 0.01754 0.0
C362 C 0.35677 0.44549 0.05465 0.0
C363 C 0.32458 0.4436 0.04586 0.0
C364 C 0.32441 0.47671 0.0248 0.0
C365 C 0.35572 0.5082 0.01047 0.0
C366 C 0.35832 0.41108 0.07686 0.0
C367 C 0.29075 0.47684 0.01549 0.0
C368 C 0.2352 0.34362 0.02926 0.0
C369 C 0.21661 0.35516 0.05182 0.0
C370 C 0.27213 0.3675 0.03047 0.0
C371 C 0.29029 0.40396 0.05433 0.0
C372 C 0.27187 0.40882 0.08085 0.0
C373 C 0.23491 0.3834 0.07961 0.0
C374 C 0.29123 0.3591 1.00298 0.0
C375 C 0.29048 0.44585 0.10762 0.0
H376 H 0.41235 0.47807 0.04551 0.0
H377 H 0.3555 0.53167 0.99275 0.0
H378 H 0.33705 0.39831 0.09477 0.0
H379 H 0.35519 0.38085 0.06179 0.0
H380 H 0.38426 0.42653 0.09034 0.0
H381 H 0.2959 0.5079 1.00192 0.0
H382 H 0.27344 0.44557 0.99975 0.0
H383 H 0.27609 0.47585 0.03764 0.0
H384 H 0.22143 0.32078 1.00815 0.0
H385 H 0.2205 0.39048 0.09814 0.0
H386 H 0.31653 0.36247 0.01211 0.0
H387 H 0.29732 0.38536 0.98434 0.0
H388 H 0.2749 0.32419 0.99088 0.0
H389 H 0.31704 0.45079 0.11376 0.0
H390 H 0.27486 0.43735 0.13008 0.0
H391 H 0.29392 0.47919 0.09911 0.0
C392 C 0.5206 0.90965 0.02031 0.0
C393 C 0.5431 0.95468 1.00864 0.0
C394 C 0.52957 0.87255 0.02037 0.0
C395 C 0.56215 0.87776 1.00805 0.0
C396 C 0.58465 0.92293 0.99601 0.0
C397 C 0.57535 0.95947 0.99673 0.0
C398 C 0.50371 0.82708 0.03418 0.0
C399 C 0.61927 0.93303 0.98181 0.0
C400 C 0.60258 0.79406 0.02983 0.0
C401 C 0.59196 0.76055 1.00321 0.0
C402 C 0.59303 0.83059 0.03196 0.0
C403 C 0.57225 0.83682 1.00682 0.0
C404 C 0.56189 0.8034 0.97987 0.0
C405 C 0.57116 0.76685 0.97866 0.0
C406 C 0.60515 0.86274 0.06194 0.0
C407 C 0.54062 0.80621 0.95153 0.0
H408 H 0.49566 0.90318 0.03 0.0
H409 H 0.59398 0.99268 0.98744 0.0
H410 H 0.49393 0.79923 0.01465 0.0
H411 H 0.5171 0.81789 0.05347 0.0
H412 H 0.48074 0.828 0.04474 0.0
H413 H 0.63613 0.92932 1.00071 0.0
H414 H 0.61454 0.90751 0.96146 0.0
H415 H 0.63389 0.96846 0.97246 0.0
H416 H 0.61813 0.79143 0.0497 0.0
H417 H 0.56186 0.74269 0.95764 0.0
H418 H 0.58215 0.86271 0.07324 0.0
H419 H 0.62334 0.89866 0.0549 0.0
H420 H 0.61891 0.85291 0.08044 0.0
H421 H 0.51501 0.80123 0.9601 0.0
H422 H 0.53535 0.77981 0.93166 0.0
H423 H 0.55485 0.84112 0.94135 0.0
C424 C 0.3006 0.77652 0.01997 0.0
C425 C 0.31503 0.79673 0.99035 0.0
C426 C 0.27256 0.73056 0.0207 0.0
C427 C 0.25861 0.70351 0.9911 0.0
C428 C 0.27398 0.72312 0.96123 0.0
C429 C 0.30169 0.76946 0.96117 0.0
C430 C 0.25678 0.71169 0.05309 0.0
C431 C 0.26043 0.69555 0.92914 0.0
C432 C 0.19513 0.57282 0.99759 0.0
C433 C 0.16205 0.57032 0.9947 0.0
C434 C 0.22685 0.61558 0.99569 0.0
C435 C 0.22557 0.65697 0.99116 0.0
C436 C 0.19226 0.65435 0.98771 0.0
C437 C 0.16121 0.61141 0.98931 0.0
C438 C 0.26175 0.61662 0.99907 0.0
C439 C 0.18929 0.69727 0.98313 0.0
H440 H 0.31038 0.79729 0.04264 0.0
H441 H 0.31289 0.78444 0.93819 0.0
H442 H 0.22939 0.70575 0.05341 0.0
H443 H 0.25533 0.67781 0.05645 0.0
H444 H 0.2722 0.73563 0.0741 0.0
H445 H 0.27754 0.71371 0.9086 0.0
H446 H 0.25867 0.66123 0.93094 0.0
H447 H 0.23342 0.68926 0.92332 0.0
H448 H 0.19627 0.54154 1.00179 0.0
H449 H 0.13603 0.61041 0.98699 0.0
H450 H 0.27626 0.63701 0.02165 0.0
H451 H 0.27838 0.63405 0.97814 0.0
H452 H 0.25844 0.58133 1.00023 0.0
H453 H 0.202 0.72198 1.00445 0.0
H454 H 0.16143 0.68938 0.98045 0.0
H455 H 0.20337 0.71497 0.9611 0.0
C456 C 0.51394 0.24055 1.00988 0.0
C457 C 0.53914 0.22526 1.00638 0.0
C458 C 0.52277 0.28927 1.00976 0.0
C459 C 0.55809 0.32708 1.00474 0.0
C460 C 0.58321 0.31127 1.00017 0.0
C461 C 0.57389 0.26283 1.00179 0.0
C462 C 0.49323 0.29939 0.0158 0.0
C463 C 0.62098 0.3454 0.99316 0.0
C464 C 0.56599 0.44861 0.97799 0.0
C465 C 0.58932 0.48383 1.00138 0.0
C466 C 0.55654 0.39992 0.97841 0.0
C467 C 0.56869 0.38149 1.00389 0.0
C468 C 0.59188 0.41691 0.02802 0.0
C469 C 0.60202 0.46587 0.02617 0.0
C470 C 0.53321 0.36845 0.95049 0.0
C471 C 0.60635 0.40392 0.05701 0.0
H472 H 0.48691 0.21438 0.01384 0.0
H473 H 0.59473 0.25431 0.9989 0.0
H474 H 0.50292 0.33594 0.02404 0.0
H475 H 0.47702 0.29172 0.99286 0.0
H476 H 0.47561 0.27649 0.03452 0.0
H477 H 0.63207 0.32936 0.97634 0.0
H478 H 0.62381 0.37708 0.98214 0.0
H479 H 0.63706 0.35549 0.01636 0.0
H480 H 0.555 0.45923 0.95832 0.0
H481 H 0.61961 0.49016 0.04518 0.0
H482 H 0.50524 0.35647 0.95598 0.0
H483 H 0.53656 0.33772 0.94628 0.0
H484 H 0.53876 0.38736 0.92748 0.0
H485 H 0.60644 0.42371 0.07944 0.0
H486 H 0.63419 0.41357 0.05277 0.0
H487 H 0.5911 0.36641 0.06154 0.0
C488 C 0.79212 0.23156 0.05068 0.0
C489 C 0.77528 0.25304 0.03542 0.0
C490 C 0.8286 0.2494 0.04888 0.0
C491 C 0.84881 0.28995 0.03161 0.0
C492 C 0.83193 0.31144 0.01565 0.0
C493 C 0.79522 0.29249 0.01757 0.0
C494 C 0.8456 0.22529 0.06593 0.0
C495 C 0.85278 0.35507 0.9973 0.0
C496 C 0.94503 0.3651 0.05792 0.0
C497 C 0.96219 0.35522 0.03282 0.0
C498 C 0.90819 0.34396 0.05779 0.0
C499 C 0.88787 0.31153 0.03218 0.0
C500 C 0.90488 0.29998 1.00739 0.0
C501 C 0.94194 0.32207 1.00797 0.0
C502 C 0.89108 0.35752 0.08452 0.0
C503 C 0.88402 0.26556 0.97968 0.0
H504 H 0.77661 0.20043 0.06389 0.0
H505 H 0.7822 0.30905 1.00573 0.0
H506 H 0.8612 0.21721 0.04845 0.0
H507 H 0.86416 0.24857 0.08575 0.0
H508 H 0.82587 0.19263 0.07676 0.0
H509 H 0.8355 0.36607 0.98478 0.0
H510 H 0.8713 0.3836 0.01454 0.0
H511 H 0.86891 0.3498 0.97878 0.0
H512 H 0.96047 0.39074 0.0772 0.0
H513 H 0.95502 0.31473 0.98826 0.0
H514 H 0.87217 0.32642 0.09737 0.0
H515 H 0.87587 0.37282 0.07369 0.0
H516 H 0.91071 0.38306 0.10282 0.0
H517 H 0.86339 0.23267 0.98946 0.0
H518 H 0.90104 0.25792 0.9637 0.0
H519 H 0.87036 0.27945 0.96449 0.0
C520 C 0.87983 0.51735 0.09452 0.0
C521 C 0.90283 0.5457 0.07106 0.0
C522 C 0.8506 0.52172 0.10363 0.0
C523 C 0.84443 0.5552 0.08892 0.0
C524 C 0.86696 0.58277 0.06447 0.0
C525 C 0.89575 0.57755 0.0558 0.0
C526 C 0.82698 0.49153 0.12959 0.0
C527 C 0.86116 0.61862 0.0479 0.0
C528 C 0.75897 0.55786 0.08477 0.0
C529 C 0.76712 0.59605 0.10607 0.0
C530 C 0.78258 0.54096 0.08122 0.0
C531 C 0.81517 0.56299 0.09922 0.0
C532 C 0.82196 0.59847 0.12308 0.0
C533 C 0.79778 0.61454 0.12627 0.0
C534 C 0.7741 0.50262 0.05582 0.0
C535 C 0.85624 0.62252 0.14306 0.0
H536 H 0.88532 0.49282 0.10648 0.0
H537 H 0.91307 0.59887 0.0372 0.0
H538 H 0.83008 0.51321 0.15192 0.0
H539 H 0.79887 0.47485 0.12114 0.0
H540 H 0.83324 0.46415 0.13624 0.0
H541 H 0.88076 0.63658 0.02895 0.0
H542 H 0.83432 0.60204 0.03616 0.0
H543 H 0.86297 0.64497 0.06634 0.0
H544 H 0.73546 0.5434 0.06889 0.0
H545 H 0.80388 0.64343 0.14325 0.0
H546 H 0.78198 0.47782 0.0649 0.0
H547 H 0.78917 0.51773 0.03361 0.0
H548 H 0.74553 0.48336 0.04868 0.0
H549 H 0.86306 0.59695 0.15264 0.0
H550 H 0.8551 0.64386 0.16394 0.0
H551 H 0.87786 0.64556 0.12724 0.0
C552 C 0.99184 0.87419 0.29227 0.0
C553 C 0.96874 0.84325 0.3153 0.0
C554 C 1.02886 0.88756 0.29052 0.0
C555 C 1.04587 0.87183 0.31304 0.0
C556 C 1.02286 0.84131 0.33679 0.0
C557 C 0.98562 0.82715 0.33719 0.0
C558 C 0.04978 0.91871 0.26382 0.0
C559 C 1.03725 0.82306 0.36261 0.0
C560 C 0.13481 0.86822 0.29675 0.0
C561 C 0.16312 0.91203 0.30816 0.0
C562 C 0.09795 0.85567 0.29753 0.0
C563 C 0.08667 0.88625 0.3113 0.0
C564 C 0.11518 0.93049 0.32329 0.0
C565 C 0.152 0.94275 0.32109 0.0
C566 C 0.07088 0.80883 0.28308 0.0
C567 C 0.10738 0.96593 0.33896 0.0
H568 H 0.98075 0.88757 0.27463 0.0
H569 H 0.96976 0.80382 0.35563 0.0
H570 H 0.06683 0.95432 0.27441 0.0
H571 H 0.06716 0.90683 0.25267 0.0
H572 H 1.03241 0.92014 0.24426 0.0
H573 H 1.0332 0.78875 0.35398 0.0
H574 H 0.06585 0.84647 0.36806 0.0
H575 H 1.02294 0.81805 0.38567 0.0
H576 H 0.14145 0.84315 0.28654 0.0
H577 H 0.17224 0.97669 0.33038 0.0
H578 H 0.04969 0.81102 0.26917 0.0
H579 H 0.05852 0.78481 0.3031 0.0
H580 H 0.08291 0.79376 0.26654 0.0
H581 H 0.10867 0.9901 0.32024 0.0
H582 H 0.12747 0.98686 0.35857 0.0
H583 H 0.08085 0.94984 0.34956 0.0
C584 C 0.16396 0.27591 0.33971 0.0
C585 C 0.15109 0.28929 0.36646 0.0
C586 C 0.17301 0.24127 0.34232 0.0
C587 C 0.16974 0.22053 0.37273 0.0
C588 C 0.15305 0.23038 0.3987 0.0
C589 C 0.14371 0.26489 0.39519 0.0
C590 C 0.18989 0.23094 0.31371 0.0
C591 C 0.14854 0.20835 0.43123 0.0
C592 C 0.1985 0.13099 0.36586 0.0
C593 C 0.23508 0.15919 0.37139 0.0
C594 C 0.17578 0.14924 0.36949 0.0
C595 C 0.19021 0.19667 0.37867 0.0
C596 C 0.22664 0.22392 0.38746 0.0
C597 C 0.24869 0.2048 0.3836 0.0
C598 C 0.13705 0.11889 0.36047 0.0
C599 C 0.24299 0.27456 0.39791 0.0
H600 H 0.16936 0.29493 0.31749 0.0
H601 H 0.13382 0.27568 0.41587 0.0
H602 H 0.2187 0.24665 0.31899 0.0
H603 H 0.17889 0.19307 0.30972 0.0
H604 H 0.18598 0.24508 0.29074 0.0
H605 H 0.12758 0.21007 0.44528 0.0
H606 H 0.14194 0.17164 0.42802 0.0
H607 H 0.17369 0.22713 0.44591 0.0
H608 H 0.18787 0.09558 0.35641 0.0
H609 H 0.27689 0.22623 0.38849 0.0
H610 H 0.13205 0.12467 0.33483 0.0
H611 H 0.12049 0.12745 0.37634 0.0
H612 H 0.12863 0.08158 0.36229 0.0
H613 H 0.24353 0.29463 0.37652 0.0
H614 H 0.27046 0.28903 0.4079 0.0
H615 H 0.22707 0.27964 0.41674 0.0
C616 C 0.93891 0.13558 0.3498 0.0
C617 C 0.93592 0.16966 0.33281 0.0
C618 C 0.91148 0.08927 0.34849 0.0
C619 C 0.88028 0.07639 0.32948 0.0
C620 C 0.87738 0.11027 0.31163 0.0
C621 C 0.90509 0.15644 0.31363 0.0
C622 C 0.9156 0.05429 0.36801 0.0
C623 C 0.84463 0.09797 0.29099 0.0
C624 C 0.81825 0.9479 0.30831 0.0
C625 C 0.79248 0.93651 0.33184 0.0
C626 C 0.84684 0.99334 0.307 0.0
C627 C 0.84987 1.02814 0.32989 0.0
C628 C 0.82389 1.01682 0.35361 0.0
C629 C 0.79557 0.97133 0.35423 0.0
C630 C 0.87389 1.00409 0.28124 0.0
C631 C 0.8262 0.0527 0.37863 0.0
H632 H 0.96282 0.14508 0.36416 0.0
H633 H 0.90222 0.18241 0.3007 0.0
H634 H 0.89513 1.04038 0.38669 0.0
H635 H 0.91161 1.02462 0.35177 0.0
H636 H 0.94199 0.06944 0.38059 0.0
H637 H 0.84744 0.12754 0.27686 0.0
H638 H 0.83857 0.06845 0.27364 0.0
H639 H 0.82171 0.08686 0.30691 0.0
H640 H 0.8162 0.9213 0.29096 0.0
H641 H 0.77595 0.96303 0.37262 0.0
H642 H 0.90033 1.0166 0.29308 0.0
H643 H 0.87568 1.03227 0.26612 0.0
H644 H 0.86747 0.97342 0.26489 0.0
H645 H 0.85121 0.06686 0.39346 0.0
H646 H 0.8038 1.03835 0.3954 0.0
H647 H 0.82653 0.08206 0.36615 0.0
C648 C 0.31437 0.68455 0.28083 0.0
C649 C 0.32159 0.72952 0.28963 0.0
C650 C 0.29971 0.64987 0.30361 0.0
C651 C 0.29125 0.66095 0.33467 0.0
C652 C 0.30667 0.70787 0.34564 0.0
C653 C 0.3239 0.74209 0.3231 0.0
C654 C 0.28825 0.60061 0.29268 0.0
C655 C 0.30151 0.72222 0.3796 0.0
C656 C 0.19653 0.57075 0.34819 0.0
C657 C 0.20045 0.5486 0.37503 0.0
C658 C 0.22571 0.60991 0.33663 0.0
C659 C 0.25991 0.6251 0.35087 0.0
C660 C 0.26344 0.60507 0.37958 0.0
C661 C 0.23326 0.56854 0.39222 0.0
C662 C 0.21982 0.63381 0.30844 0.0
C663 C 0.29874 0.6204 0.39665 0.0
H664 H 0.31455 0.67498 0.25528 0.0
H665 H 0.33215 0.77763 0.33062 0.0
H666 H 0.28622 0.57929 0.31377 0.0
H667 H 0.26204 0.58518 0.27989 0.0
H668 H 0.30703 0.59944 0.27516 0.0
H669 H 0.30644 0.75839 0.38098 0.0
H670 H 0.27449 0.69915 0.38799 0.0
H671 H 0.3206 0.72038 0.3969 0.0
H672 H 0.17105 0.55654 0.33545 0.0
H673 H 0.23623 0.55296 0.41408 0.0
H674 H 0.22686 0.62255 0.28533 0.0
H675 H 0.23652 0.67195 0.31192 0.0
H676 H 0.19179 0.62519 0.30579 0.0
H677 H 0.3212 0.63768 0.38022 0.0
H678 H 0.29953 0.59048 0.40715 0.0
H679 H 0.30244 0.64484 0.41741 0.0
C680 C 0.44424 0.52839 0.36033 0.0
C681 C 0.42781 0.55584 0.36432 0.0
C682 C 0.48152 0.54791 0.35642 0.0
C683 C 0.50451 0.59682 0.35653 0.0
C684 C 0.4882 0.62474 0.36045 0.0
C685 C 0.45086 0.60436 0.36415 0.0
C686 C 0.49641 0.51576 0.35204 0.0
C687 C 0.51046 0.67681 0.36106 0.0
C688 C 0.60594 0.65568 0.37886 0.0
C689 C 0.62261 0.66964 0.34865 0.0
C690 C 0.56837 0.63067 0.38154 0.0
C691 C 0.54527 0.61882 0.35341 0.0
C692 C 0.56181 0.6307 0.32262 0.0
C693 C 0.59955 0.65579 0.3207 0.0
C694 C 0.55341 0.61972 0.41512 0.0
C695 C 0.53966 0.6197 0.29148 0.0
H696 H 0.42785 0.49108 0.35978 0.0
H697 H 0.43986 0.62706 0.36761 0.0
H698 H 0.51045 0.52237 0.32874 0.0
H699 H 0.51605 0.52258 0.37211 0.0
H700 H 0.47564 0.47871 0.35183 0.0
H701 H 0.49442 0.69421 0.36387 0.0
H702 H 0.53039 0.68894 0.38159 0.0
H703 H 0.52504 0.68775 0.33811 0.0
H704 H 0.62248 0.66771 0.40106 0.0
H705 H 0.61102 0.66793 0.29724 0.0
H706 H 0.53256 0.58284 0.41564 0.0
H707 H 0.54097 0.64104 0.42121 0.0
H708 H 0.57401 0.62677 0.43431 0.0
H709 H 0.51713 0.58376 0.29107 0.0
H710 H 0.55533 0.62388 0.26942 0.0
H711 H 0.52861 0.6434 0.29018 0.0
C712 C 0.37492 0.9054 0.34471 0.0
C713 C 0.37623 0.94331 0.32862 0.0
C714 C 0.404 0.8972 0.34665 0.0
C715 C 0.4364 0.92722 0.33203 0.0
C716 C 0.43817 0.96578 0.31577 0.0
C717 C 0.40848 0.97335 0.31431 0.0
C718 C 0.39964 0.85544 0.3641 0.0
C719 C 0.4715 0.99894 0.29942 0.0
C720 C 0.52008 0.92375 0.36417 0.0
C721 C 0.52457 0.89509 0.34068 0.0
C722 C 0.49266 0.93532 0.36119 0.0
C723 C 0.46791 0.91792 0.3341 0.0
C724 C 0.47235 0.88926 0.31015 0.0
C725 C 0.50028 0.87861 0.31355 0.0
C726 C 0.48997 0.96608 0.38752 0.0
C727 C 0.44691 0.86878 0.28101 0.0
H728 H 0.35056 0.88116 0.35576 0.0
H729 H 0.41031 1.00223 0.30118 0.0
H730 H 0.40189 0.8311 0.34642 0.0
H731 H 0.42094 0.86601 0.38317 0.0
H732 H 0.37377 0.83673 0.37586 0.0
H733 H 0.46919 1.02716 0.2878 0.0
H734 H 0.49393 1.01453 0.31764 0.0
H735 H 0.47787 0.97997 0.28039 0.0
H736 H 0.53841 0.93784 0.38508 0.0
H737 H 0.50248 0.85618 0.29511 0.0
H738 H 0.46454 0.94673 0.39984 0.0
H739 H 0.49022 0.99631 0.37647 0.0
H740 H 0.51186 0.97885 0.40626 0.0
H741 H 0.4201 0.84458 0.28938 0.0
H742 H 0.45474 0.84966 0.26339 0.0
H743 H 0.44518 0.8965 0.2681 0.0
C744 C 0.71775 0.18351 0.73977 0.0
C745 C 0.71365 0.20565 0.71279 0.0
C746 C 0.68837 0.15248 0.75689 0.0
C747 C 0.65449 0.1441 0.74673 0.0
C748 C 0.65104 0.17108 0.72221 0.0
C749 C 0.68073 0.20109 0.70511 0.0
C750 C 0.69347 0.12531 0.78321 0.0
C751 C 0.61546 0.16466 0.71157 0.0
C752 C 0.57299 1.03021 0.73279 0.0
C753 C 0.55016 1.03699 0.75304 0.0
C754 C 0.60919 0.06201 0.73407 0.0
C755 C 0.62239 0.10148 0.75576 0.0
C756 C 0.60076 0.10353 0.7803 0.0
C757 C 0.56474 0.0705 0.779 0.0
C758 C 0.63203 0.05709 0.70868 0.0
C759 C 0.61428 0.14384 0.80492 0.0
H760 H 0.74339 0.18712 0.74561 0.0
H761 H 0.67786 0.21861 0.68434 0.0
H762 H 0.67233 0.11338 0.80124 0.0
H763 H 0.69305 0.09434 0.77173 0.0
H764 H 0.71947 0.14637 0.79631 0.0
H765 H 0.61798 0.19262 0.69572 0.0
H766 H 0.6001 0.131 0.69763 0.0
H767 H 0.60016 0.16403 0.73313 0.0
H768 H 0.56237 1.00384 0.71311 0.0
H769 H 0.54747 0.0745 0.79583 0.0
H770 H 0.65833 0.06648 0.71952 0.0
H771 H 0.63606 0.08096 0.68874 0.0
H772 H 0.61969 1.02123 0.69777 0.0
H773 H 0.59793 0.13451 0.82693 0.0
H774 H 0.61309 0.173 0.79364 0.0
H775 H 0.64217 0.15615 0.81257 0.0
C776 C 0.91911 0.45576 0.71129 0.0
C777 C 0.9112 0.42423 0.68378 0.0
C778 C 0.90925 0.49208 0.71293 0.0
C779 C 0.89099 0.50025 0.68635 0.0
C780 C 0.88351 0.46896 0.6585 0.0
C781 C 0.89287 0.43247 0.65781 0.0
C782 C 0.91811 0.52175 0.74396 0.0
C783 C 0.86524 0.47398 0.62861 0.0
C784 C 0.83727 0.5712 0.69586 0.0
C785 C 0.86064 0.61725 0.68633 0.0
C786 C 0.84654 0.53436 0.69646 0.0
C787 C 0.88048 0.54092 0.68707 0.0
C788 C 0.90395 0.5872 0.67732 0.0
C789 C 0.8942 0.62335 0.67728 0.0
C790 C 0.81942 0.4876 0.70752 0.0
C791 C 0.94015 0.59892 0.66637 0.0
H792 H 0.93253 0.45154 0.7323 0.0
H793 H 0.88564 0.40987 0.63603 0.0
H794 H 0.93674 0.55838 0.73884 0.0
H795 H 0.89385 0.52031 0.75334 0.0
H796 H 0.93019 0.51068 0.7633 0.0
H797 H 0.86252 0.4496 0.60811 0.0
H798 H 0.83856 0.46757 0.63478 0.0
H799 H 0.88022 0.50992 0.62026 0.0
H800 H 0.81124 0.56357 0.7032 0.0
H801 H 0.91356 0.65734 0.66972 0.0
H802 H 0.83084 0.47696 0.72769 0.0
H803 H 0.81185 0.46137 0.68707 0.0
H804 H 0.79526 0.48735 0.71602 0.0
H805 H 0.95495 0.59352 0.68647 0.0
H806 H 0.95568 0.63529 0.65892 0.0
H807 H 0.93775 0.57538 0.64543 0.0
C808 C 0.64013 0.41648 0.64999 0.0
C809 C 0.63416 0.44788 0.66895 0.0
C810 C 0.61553 0.36835 0.64813 0.0
C811 C 0.58396 0.35052 0.66573 0.0
C812 C 0.57834 0.38182 0.68569 0.0
C813 C 0.60326 0.42968 0.68702 0.0
C814 C 0.62285 0.33673 0.62645 0.0
C815 C 0.54542 0.36488 0.70517 0.0
C816 C 0.499 0.242 0.635 0.0
C817 C 0.49587 0.20826 0.65674 0.0
C818 C 0.52811 0.28734 0.63681 0.0
C819 C 0.55528 0.30025 0.66114 0.0
C820 C 0.55334 0.26572 0.6821 0.0
C821 C 0.52383 0.22022 0.67956 0.0
C822 C 0.52885 0.32216 0.61352 0.0
C823 C 0.58155 0.27734 0.70833 0.0
H824 H 0.66363 0.42966 0.63573 0.0
H825 H 0.59843 0.45298 0.70237 0.0
H826 H 0.61989 0.30682 0.64018 0.0
H827 H 0.60331 0.32267 0.60557 0.0
H828 H 0.64978 0.35489 0.61664 0.0
H829 H 0.5459 0.39281 0.72118 0.0
H830 H 0.52189 0.35086 0.68826 0.0
H831 H 0.54225 0.33629 0.7206 0.0
H832 H 0.47787 0.23341 0.61703 0.0
H833 H 0.52193 0.19473 0.69648 0.0
H834 H 0.55453 0.33956 0.60139 0.0
H835 H 0.52604 0.34934 0.62734 0.0
H836 H 0.50734 0.30597 0.59435 0.0
H837 H 0.60819 0.29678 0.69816 0.0
H838 H 0.57889 0.24585 0.71964 0.0
H839 H 0.57967 0.29996 0.72778 0.0
C840 C 0.82587 0.9004 0.68977 0.0
C841 C 0.8502 0.88448 0.68298 0.0
C842 C 0.83507 0.94931 0.69005 0.0
C843 C 0.86977 0.98651 0.68234 0.0
C844 C 0.8938 0.97002 0.67444 0.0
C845 C 0.88428 0.92153 0.67556 0.0
C846 C 0.80673 0.96037 0.69944 0.0
C847 C 0.93064 1.0036 0.66443 0.0
C848 C 0.87832 0.10909 0.65778 0.0
C849 C 0.90336 0.144 0.68041 0.0
C850 C 0.86791 0.06006 0.65787 0.0
C851 C 0.88097 0.04111 0.68214 0.0
C852 C 0.90593 0.07619 0.70548 0.0
C853 C 0.91681 0.12541 0.70404 0.0
C854 C 0.8425 1.02862 0.63104 0.0
C855 C 0.92161 0.06254 0.73315 0.0
H856 H 0.79945 0.87472 0.69607 0.0
H857 H 0.90445 0.91253 0.67008 0.0
H858 H 0.81756 0.99718 0.70765 0.0
H859 H 0.78843 0.95263 0.67801 0.0
H860 H 0.79094 0.93809 0.71929 0.0
H861 H 0.9405 0.98655 0.6471 0.0
H862 H 0.93207 1.03416 0.65278 0.0
H863 H 0.94864 1.01575 0.68643 0.0
H864 H 0.86664 0.12021 0.63904 0.0
H865 H 0.93572 0.14944 0.72241 0.0
H866 H 0.81512 1.01519 0.63917 0.0
H867 H 0.84641 0.99874 0.62488 0.0
H868 H 0.84525 0.04775 0.60849 0.0
H869 H 0.90616 1.02508 0.73779 0.0
H870 H 0.92341 0.08261 0.75603 0.0
H871 H 0.94892 0.07132 0.72726 0.0
C872 C 0.11779 0.92555 0.67168 0.0
C873 C 0.09886 0.89711 0.69711 0.0
C874 C 0.1547 0.94537 0.67049 0.0
C875 C 0.17349 0.9367 0.69531 0.0
C876 C 0.15458 0.90783 0.72095 0.0
C877 C 0.11761 0.88854 0.7216 0.0
C878 C 0.1737 0.97637 0.64291 0.0
C879 C 0.17348 0.89757 0.74787 0.0
C880 C 0.26781 0.96433 0.6771 0.0
C881 C 0.28796 1.00859 0.6923 0.0
C882 C 0.23061 0.93988 0.67856 0.0
C883 C 0.21307 0.96025 0.69541 0.0
C884 C 0.23339 1.00443 0.71136 0.0
C885 C 0.27034 1.02775 0.70978 0.0
C886 C 0.20999 0.89281 0.66129 0.0
C887 C 0.21605 1.02789 0.72932 0.0
H888 H 0.10376 0.93298 0.65285 0.0
H889 H 0.10331 0.86618 0.74112 0.0
H890 H 0.19219 1.01192 0.65291 0.0
H891 H 0.18967 0.96364 0.63003 0.0
H892 H 0.1552 0.97822 0.62481 0.0
H893 H 0.15493 0.8729 0.76528 0.0
H894 H 0.18924 0.88283 0.73722 0.0
H895 H 0.19217 0.93016 0.76168 0.0
H896 H 0.281 0.94923 0.66339 0.0
H897 H 0.2854 0.06183 0.72176 0.0
H898 H 0.19364 0.89439 0.64084 0.0
H899 H 0.1917 0.86721 0.67834 0.0
H900 H 0.22746 0.88027 0.6513 0.0
H901 H 0.19906 1.03394 0.71196 0.0
H902 H 0.23562 0.06171 0.74127 0.0
H903 H 0.19879 1.00524 0.74827 0.0
C904 C 0.22395 0.19817 0.72197 0.0
C905 C 0.24804 0.22347 0.69817 0.0
C906 C 0.19644 0.20679 0.73005 0.0
C907 C 0.19302 0.24161 0.71403 0.0
C908 C 0.21673 0.26646 0.68946 0.0
C909 C 0.24382 0.25699 0.68177 0.0
C910 C 0.17152 0.17937 0.75622 0.0
C911 C 0.21388 0.30371 0.67167 0.0
C912 C 0.10723 0.24518 0.7132 0.0
C913 C 0.11481 0.28084 0.73674 0.0
C914 C 0.13196 0.23092 0.70636 0.0
C915 C 0.1652 0.25302 0.7233 0.0
C916 C 0.17266 0.28808 0.74774 0.0
C917 C 0.14737 0.30152 0.75419 0.0
C918 C 0.12298 0.19337 0.68015 0.0
C919 C 0.2078 0.31243 0.76637 0.0
H920 H 0.22721 0.17253 0.73497 0.0
H921 H 0.26192 0.27609 0.66294 0.0
H922 H 0.17423 0.20293 0.77726 0.0
H923 H 0.14378 0.16296 0.74668 0.0
H924 H 0.17663 0.15193 0.76518 0.0
H925 H 0.23398 0.3192 0.65274 0.0
H926 H 0.18727 0.2892 0.65971 0.0
H927 H 0.21725 0.33167 0.6894 0.0
H928 H 0.08239 0.22945 0.69921 0.0
H929 H 0.15325 0.32866 0.77269 0.0
H930 H 0.12788 0.16605 0.68961 0.0
H931 H 0.14026 0.2082 0.65914 0.0
H932 H 0.09502 0.17708 0.67115 0.0
H933 H 0.21336 0.28674 0.77777 0.0
H934 H 0.20875 0.33715 0.78582 0.0
H935 H 0.22919 0.33178 0.74925 0.0
C936 C 0.18999 0.48243 0.25799 0.0
C937 C 0.16718 0.44031 0.27218 0.0
C938 C 0.18291 0.49228 0.22589 0.0
C939 C 0.15167 0.4599 0.20757 0.0
C940 C 0.12872 0.41761 0.22199 0.0
C941 C 0.13691 0.40825 0.25334 0.0
C942 C 0.20868 0.53788 0.21208 0.0
C943 C 0.0948 0.38199 0.20444 0.0
C944 C 0.10853 0.49092 0.13634 0.0
C945 C 0.11461 0.46934 0.10905 0.0
C946 C 0.12176 0.49017 0.16823 0.0
C947 C 0.14255 0.46851 0.17323 0.0
C948 C 0.15063 0.44949 0.14531 0.0
C949 C 0.13618 0.44937 0.11403 0.0
C950 C 0.11207 0.51072 0.19689 0.0
C951 C 0.17385 0.42788 0.14858 0.0
H952 H 0.21319 0.50785 0.272 0.0
H953 H 0.11867 0.37542 0.26338 0.0
H954 H 0.21007 0.53474 0.18514 0.0
H955 H 0.19996 0.56352 0.21759 0.0
H956 H 0.23559 0.55161 0.22327 0.0
H957 H 0.07865 0.35201 0.21962 0.0
H958 H 0.07872 0.3981 0.19747 0.0
H959 H 0.10082 0.36888 0.18157 0.0
H960 H 0.09195 0.50642 0.13306 0.0
H961 H 0.1416 0.43307 0.0933 0.0
H962 H 0.13627 0.53615 0.21103 0.0
H963 H 0.09561 0.48296 0.21356 0.0
H964 H 0.09722 0.52822 0.18914 0.0
H965 H 0.19809 0.45124 0.16356 0.0
H966 H 0.18164 0.42038 0.12443 0.0
H967 H 0.15963 0.39496 0.16134 0.0
C968 C 0.63208 0.73844 0.24146 0.0
C969 C 0.66877 0.75594 0.24523 0.0
C970 C 0.61311 0.71601 0.21169 0.0
C971 C 0.63102 0.71155 0.18423 0.0
C972 C 0.66821 0.73052 0.18762 0.0
C973 C 0.68635 0.75173 0.21784 0.0
C974 C 0.57357 0.69567 0.20998 0.0
C975 C 0.68897 0.7277 0.15931 0.0
C976 C 0.58675 0.61428 0.11683 0.0
C977 C 0.58204 0.63678 0.0902 0.0
C978 C 0.60058 0.6373 0.14774 0.0
C979 C 0.61107 0.68494 0.15266 0.0
C980 C 0.60472 0.70734 0.12637 0.0
C981 C 0.59013 0.68308 0.09576 0.0
C982 C 0.60571 0.61098 0.17471 0.0
C983 C 0.61559 0.758 0.1297 0.0
H984 H 0.61784 0.74065 0.26228 0.0
H985 H 0.71458 0.76496 0.22004 0.0
H986 H 0.5657 0.70958 0.18913 0.0
H987 H 0.56064 0.65755 0.2056 0.0
H988 H 0.56348 0.70311 0.23282 0.0
H989 H 0.71788 0.74672 0.16487 0.0
H990 H 0.68072 0.69095 0.15301 0.0
H991 H 0.6834 0.74215 0.13734 0.0
H992 H 0.58113 0.57881 0.113 0.0
H993 H 0.58733 0.70147 0.07556 0.0
H994 H 0.59544 0.6169 0.19793 0.0
H995 H 0.63431 0.62368 0.17896 0.0
H996 H 0.5923 0.57314 0.16867 0.0
H997 H 0.60837 0.76656 0.15375 0.0
H998 H 0.6033 0.76825 0.11003 0.0
H999 H 0.64472 0.77899 0.12826 0.0
C1000 C 0.45335 1.00594 0.10249 0.0
C1001 C 0.48166 0.05182 0.10539 0.0
C1002 C 0.42612 0.98768 0.12557 0.0
C1003 C 0.42687 1.01529 0.15324 0.0
C1004 C 0.45638 0.06097 0.15712 0.0
C1005 C 0.4827 0.0788 0.13307 0.0
C1006 C 0.39536 0.93944 0.1192 0.0
C1007 C 0.45961 0.09191 0.18625 0.0
C1008 C 0.34017 0.99238 0.19468 0.0
C1009 C 0.33839 0.96609 0.22168 0.0
C1010 C 0.36789 1.00723 0.17213 0.0
C1011 C 0.39605 0.99756 0.17682 0.0
C1012 C 0.3945 0.97126 0.20425 0.0
C1013 C 0.36574 0.95539 0.22575 0.0
C1014 C 0.36707 1.0337 0.14316 0.0
C1015 C 0.42393 0.96106 0.21162 0.0
H1016 H 0.45146 0.98484 0.08101 0.0
H1017 H 0.50358 0.11462 0.13542 0.0
H1018 H 0.39108 0.91853 0.141 0.0
H1019 H 0.37094 0.94132 0.11453 0.0
H1020 H 0.39929 0.92124 0.09783 0.0
H1021 H 0.48581 0.12394 0.18816 0.0
H1022 H 0.4389 0.10196 0.18423 0.0
H1023 H 0.45545 0.07312 0.20917 0.0
H1024 H 0.31963 1.00135 0.19105 0.0
H1025 H 0.36545 0.93598 0.24667 0.0
H1026 H 0.36932 1.01686 0.12017 0.0
H1027 H 0.38995 0.06937 0.145 0.0
H1028 H 0.34246 1.03587 0.14145 0.0
H1029 H 0.42761 0.94267 0.19028 0.0
H1030 H 0.41884 0.93968 0.23335 0.0
H1031 H 0.44907 0.99407 0.21619 0.0
C1032 C 0.53046 0.154 0.91057 0.0
C1033 C 0.52962 0.11159 0.91464 0.0
C1034 C 0.51593 0.16222 0.88179 0.0
C1035 C 0.50043 0.12754 0.85598 0.0
C1036 C 0.50143 0.08577 0.85941 0.0
C1037 C 0.51561 0.07835 0.88845 0.0
C1038 C 0.51473 0.20667 0.88017 0.0
C1039 C 0.48507 0.04685 0.83357 0.0
C1040 C 0.42442 0.11131 0.79754 0.0
C1041 C 0.44162 0.13068 0.76866 0.0
C1042 C 0.44338 0.113 0.82651 0.0
C1043 C 0.48072 0.13276 0.82669 0.0
C1044 C 0.49829 0.15307 0.79761 0.0
C1045 C 0.47867 0.15236 0.7693 0.0
C1046 C 0.42308 0.09163 0.85663 0.0
C1047 C 0.53769 0.17328 0.79578 0.0
H1048 H 0.54004 0.17946 0.93086 0.0
H1049 H 0.51398 0.04503 0.89137 0.0
H1050 H 0.52491 0.22315 0.85666 0.0
H1051 H 0.48691 0.1989 0.88125 0.0
H1052 H 0.53031 0.23176 0.90062 0.0
H1053 H 0.49777 1.02495 0.8341 0.0
H1054 H 0.45671 1.02441 0.8384 0.0
H1055 H 0.48695 0.05994 0.8087 0.0
H1056 H 0.39581 0.09356 0.79722 0.0
H1057 H 0.49221 0.16616 0.74694 0.0
H1058 H 0.43607 0.11484 0.87859 0.0
H1059 H 0.42272 0.05854 0.86061 0.0
H1060 H 0.39535 0.08437 0.85437 0.0
H1061 H 0.55144 0.20385 0.81303 0.0
H1062 H 0.54715 0.18404 0.77079 0.0
H1063 H 0.54527 0.14752 0.8033 0.0
C1064 C 0.969 0.40268 0.92292 0.0
C1065 C 1.00534 0.41722 0.92319 0.0
C1066 C 0.94683 0.38161 0.89441 0.0
C1067 C 0.96104 0.37509 0.8649 0.0
C1068 C 0.9979 0.39102 0.86489 0.0
C1069 C 1.01926 0.41131 0.89375 0.0
C1070 C 0.90786 0.36484 0.89626 0.0
C1071 C 1.0148 0.38555 0.8344 0.0
C1072 C 0.90775 0.27794 0.79938 0.0
C1073 C 0.90356 0.30161 0.77323 0.0
C1074 C 0.9242 0.3007 0.82975 0.0
C1075 C 0.9376 0.3491 0.83468 0.0
C1076 C 0.93136 0.37271 0.80917 0.0
C1077 C 0.91443 0.34884 0.77899 0.0
C1078 C 0.92934 0.27323 0.85583 0.0
C1079 C 0.94477 0.42406 0.81278 0.0
H1080 H 0.95754 0.4062 0.94539 0.0
H1081 H 1.04714 0.42219 0.89328 0.0
H1082 H 0.89873 0.37752 0.87555 0.0
H1083 H 0.89297 0.32642 0.89422 0.0
H1084 H 0.90126 0.37631 0.9196 0.0
H1085 H 1.04396 0.40206 0.83754 0.0
H1086 H 1.004 0.34822 0.82784 0.0
H1087 H 1.00848 0.40107 0.81353 0.0
H1088 H 0.89999 0.24169 0.79537 0.0
H1089 H 0.91201 0.36807 0.75917 0.0
H1090 H 0.92145 0.28072 0.8799 0.0
H1091 H 0.95771 0.28351 0.85822 0.0
H1092 H 0.91391 0.23533 0.85007 0.0
H1093 H 0.93967 0.43368 0.83748 0.0
H1094 H 0.9324 0.43571 0.79413 0.0
H1095 H 0.97377 0.44299 0.80985 0.0
C1096 C 0.7956 0.69358 0.79835 0.0
C1097 C 0.8059 0.73545 0.78277 0.0
C1098 C 0.7705 0.67828 0.82382 0.0
C1099 C 0.75456 0.7049 0.83445 0.0
C1100 C 0.76575 0.7477 0.81933 0.0
C1101 C 0.79056 0.76192 0.79402 0.0
C1102 C 0.76 0.63248 0.83858 0.0
C1103 C 0.75064 0.7783 0.82924 0.0
C1104 C 0.66514 0.65162 0.88046 0.0
C1105 C 0.67617 0.66519 0.91356 0.0
C1106 C 0.68991 0.6632 0.85484 0.0
C1107 C 0.72719 0.6893 0.86173 0.0
C1108 C 0.73827 0.70271 0.89505 0.0
C1109 C 0.71318 0.69071 0.91998 0.0
C1110 C 0.67608 0.64762 0.8201 0.0
C1111 C 0.77708 0.73059 0.90456 0.0
H1112 H 0.80568 0.67145 0.78947 0.0
H1113 H 0.79711 0.79361 0.78194 0.0
H1114 H 0.76372 0.63704 0.8656 0.0
H1115 H 0.73154 0.6082 0.83302 0.0
H1116 H 0.77548 0.61655 0.82913 0.0
H1117 H 0.76246 0.81105 0.81604 0.0
H1118 H 0.72167 0.75953 0.8242 0.0
H1119 H 0.75515 0.78697 0.85593 0.0
H1120 H 0.63708 0.6319 0.87446 0.0
H1121 H 0.72299 0.70188 0.945 0.0
H1122 H 0.68766 0.62727 0.80935 0.0
H1123 H 0.68424 0.67827 0.80506 0.0
H1124 H 0.64683 0.62614 0.81842 0.0
H1125 H 0.79094 0.71211 0.89579 0.0
H1126 H 0.78189 0.73728 0.93143 0.0
H1127 H 0.78903 0.76435 0.89268 0.0
C1128 C 0.72994 0.79533 0.47061 0.0
C1129 C 0.74982 0.80971 0.44227 0.0
C1130 C 0.74497 0.79072 0.50071 0.0
C1131 C 0.78081 0.80049 0.50296 0.0
C1132 C 0.80116 0.81703 0.47477 0.0
C1133 C 0.78568 0.82146 0.44538 0.0
C1134 C 0.72198 0.77353 0.52985 0.0
C1135 C 0.83916 0.82794 0.47501 0.0
C1136 C 0.8316 0.81374 0.58577 0.0
C1137 C 0.82776 0.76938 0.58895 0.0
C1138 C 0.81613 0.8242 0.5586 0.0
C1139 C 0.79644 0.7899 0.5333 0.0
C1140 C 0.79335 0.74553 0.53616 0.0
C1141 C 0.80851 0.73587 0.56368 0.0
C1142 C 0.82015 0.87185 0.55738 0.0
C1143 C 0.77361 0.7077 0.51007 0.0
H1144 H 0.70226 0.78554 0.46895 0.0
H1145 H 0.80175 0.83286 0.42403 0.0
H1146 H 0.71659 0.73804 0.53483 0.0
H1147 H 0.73582 0.79591 0.55195 0.0
H1148 H 0.69638 0.77264 0.52586 0.0
H1149 H 0.85229 0.84347 0.45203 0.0
H1150 H 0.85432 0.85224 0.49589 0.0
H1151 H 0.84034 0.7957 0.47822 0.0
H1152 H 0.84541 0.83981 0.60526 0.0
H1153 H 0.80474 0.70127 0.56571 0.0
H1154 H 0.79371 0.86908 0.55639 0.0
H1155 H 0.83356 0.88854 0.53483 0.0
H1156 H 0.83553 0.89456 0.57892 0.0
H1157 H 0.74588 0.7002 0.50759 0.0
H1158 H 0.77355 0.67512 0.51554 0.0
H1159 H 0.78577 0.7193 0.48608 0.0
C1160 C 0.28331 0.92427 0.43494 0.0
C1161 C 0.27765 0.95226 0.41331 0.0
C1162 C 0.29415 0.93901 0.46837 0.0
C1163 C 0.30042 0.98328 0.48055 0.0
C1164 C 0.29321 1.01043 0.45907 0.0
C1165 C 0.2815 0.99441 0.42645 0.0
C1166 C 0.30016 0.90781 0.49033 0.0
C1167 C 0.29999 0.05813 0.46985 0.0
C1168 C 0.31237 1.02449 0.57199 0.0
C1169 C 0.3493 0.04856 0.57693 0.0
C1170 C 0.29607 1.00133 0.54149 0.0
C1171 C 0.31699 1.00335 0.51453 0.0
C1172 C 0.35432 1.02826 0.51945 0.0
C1173 C 0.36979 0.04949 0.55046 0.0
C1174 C 0.25632 0.97407 0.53825 0.0
C1175 C 0.37815 1.03329 0.49168 0.0
H1176 H 0.2808 0.8919 0.42553 0.0
H1177 H 0.27696 1.01658 0.41057 0.0
H1178 H 0.32893 0.92153 0.49429 0.0
H1179 H 0.28892 0.90686 0.51462 0.0
H1180 H 0.28824 0.87191 0.47957 0.0
H1181 H 0.29223 0.07457 0.45059 0.0
H1182 H 0.28529 0.05634 0.4921 0.0
H1183 H 0.32851 0.08083 0.47621 0.0
H1184 H 0.29612 1.02239 0.59236 0.0
H1185 H 0.39829 0.06754 0.55391 0.0
H1186 H 0.24762 0.93839 0.52843 0.0
H1187 H 0.24665 0.99036 0.52063 0.0
H1188 H 0.24374 0.97202 0.562 0.0
H1189 H 0.37277 0.99866 0.48232 0.0
H1190 H 0.40657 0.05414 0.49916 0.0
H1191 H 0.37269 0.05018 0.47115 0.0
C1192 C 0.98354 0.32357 0.56216 0.0
C1193 C 0.99056 0.31574 0.59443 0.0
C1194 C 1.00939 0.33658 0.53743 0.0
C1195 C 1.04363 0.34228 0.54451 0.0
C1196 C 0.05042 0.33358 0.57682 0.0
C1197 C 1.02435 0.32065 0.60081 0.0
C1198 C 1.00017 0.34491 0.5036 0.0
C1199 C 0.08578 0.33859 0.58641 0.0
C1200 C 0.10233 0.3394 0.4742 0.0
C1201 C 0.12613 0.38658 0.46932 0.0
C1202 C 0.07613 0.32469 0.49841 0.0
C1203 C 0.07248 0.35758 0.51874 0.0
C1204 C 0.09718 0.40525 0.51468 0.0
C1205 C 0.123 0.41894 0.49013 0.0
C1206 C 0.05104 0.27357 0.50103 0.0
C1207 C 0.09534 0.44226 0.53539 0.0
H1208 H 0.9581 0.32044 0.5563 0.0
H1209 H 1.03095 0.31479 0.62519 0.0
H1210 H 1.01822 0.38139 0.4976 0.0
H1211 H 1.00392 0.32253 0.48527 0.0
H1212 H 0.97252 0.33791 0.50125 0.0
H1213 H 0.08716 0.33009 0.61225 0.0
H1214 H 0.09124 0.31553 0.57034 0.0
H1215 H 0.10703 0.37465 0.58303 0.0
H1216 H 0.10263 0.3137 0.45744 0.0
H1217 H 0.13949 0.45545 0.48586 0.0
H1218 H 1.02389 0.26558 0.49384 0.0
H1219 H 0.05054 0.26356 0.52671 0.0
H1220 H 0.05831 0.25206 0.48517 0.0
H1221 H 0.06987 0.44118 0.53016 0.0
H1222 H 0.11724 0.47751 0.53079 0.0
H1223 H 0.09628 0.43576 0.56172 0.0
loop_
_geom_bond_atom_site_label_1
_geom_bond_atom_site_label_2
_geom_bond_distance
_geom_bond_site_symmetry_2
_ccdc_geom_bond_type
Tb0 C10 2.825 . S
Tb0 O11 2.347 1_554 S
Tb0 O14 2.366 . S
Tb0 O19 2.418 . S
Tb0 O20 2.384 1_655 S
Tb0 O23 2.479 . S
Tb0 O24 2.471 1_554 S
Eu1 O12 2.387 1_554 S
Eu1 O13 2.389 1_455 S
Eu1 O16 2.465 1_554 S
Eu1 O17 2.485 . S
Eu1 O18 2.373 . S
Eu1 O21 2.361 1_554 S
Eu1 C31 2.825 . S
C2 O18 1.259 . S
C2 O19 1.265 1_455 S
C3 O20 1.255 . S
C3 O21 1.265 1_554 S
C4 C6 1.380 . S
C4 C7 1.374 1_554 S
C4 C10 1.507 . S
C5 C6 1.384 . S
C5 C9 1.387 . S
C5 H32 0.930 . S
C6 C4 1.380 . S
C6 C5 1.384 . S
C6 H33 0.931 . S
C7 C4 1.374 1_556 S
C7 C8 1.390 . S
C7 H34 0.930 . S
C8 C7 1.390 . S
C8 C9 1.391 1_556 S
C8 H35 0.930 . S
C9 C5 1.387 . S
C9 C8 1.391 1_554 S
C10 Tb0 2.825 . S
C10 C4 1.507 . S
C10 O23 1.238 . S
C10 O24 1.247 1_554 S
O11 Tb0 2.347 1_556 S
O11 C15 1.259 . S
O12 Eu1 2.387 1_556 S
O12 C15 1.265 1_455 S
O13 Eu1 2.389 1_655 S
O13 C22 1.255 . S
O14 Tb0 2.366 . S
O14 C22 1.265 . S
C15 O11 1.259 . S
C15 O12 1.265 1_655 S
O16 Eu1 2.465 1_556 S
O16 C31 1.238 1_556 S
O17 Eu1 2.485 . S
O17 C31 1.247 . S
O18 Eu1 2.373 . S
O18 C2 1.259 . S
O19 Tb0 2.418 . S
O19 C2 1.265 1_655 S
O20 Tb0 2.384 1_455 S
O20 C3 1.255 . S
O21 Eu1 2.361 1_556 S
O21 C3 1.265 1_556 S
C22 O13 1.255 . S
C22 O14 1.265 . S
O23 Tb0 2.479 . S
O23 C10 1.238 . S
O24 Tb0 2.471 1_556 S
O24 C10 1.247 1_556 S
C25 C28 1.380 1_554 S
C25 C29 1.374 . S
C25 C31 1.507 . S
C26 C27 1.387 1_554 S
C26 C30 1.391 . S
C27 C26 1.387 1_556 S
C27 C28 1.384 . S
C27 H36 0.930 . S
C28 C25 1.380 1_556 S
C28 C27 1.384 . S
C28 H37 0.931 . S
C29 C25 1.374 . S
C29 C30 1.390 . S
C29 H38 0.930 . S
C30 C26 1.391 . S
C30 C29 1.390 . S
C30 H39 0.930 . S
C31 Eu1 2.825 . S
C31 O16 1.238 1_554 S
C31 O17 1.247 . S
C31 C25 1.507 . S
H32 C5 0.930 . S
H33 C6 0.931 . S
H34 C7 0.930 . S
H35 C8 0.930 . S
H36 C27 0.930 . S
H37 C28 0.931 . S
H38 C29 0.930 . S
H39 C30 0.930 . S
Tb40 C50 2.825 . S
Tb40 O51 2.347 1_556 S
Tb40 O54 2.366 . S
Tb40 O59 2.418 . S
Tb40 O60 2.384 . S
Tb40 O63 2.479 . S
Tb40 O64 2.471 1_556 S
Eu41 O52 2.418 . S
Eu41 O53 2.384 . S
Eu41 O56 2.479 . S
Eu41 O57 2.471 1_554 S
Eu41 O58 2.347 1_554 S
Eu41 O61 2.366 . S
Eu41 C71 2.825 . S
C42 O58 1.259 . S
C42 O59 1.265 . S
C43 O60 1.255 1_554 S
C43 O61 1.265 . S
C44 C46 1.380 . S
C44 C47 1.374 1_556 S
C44 C50 1.507 . S
C45 C46 1.384 . S
C45 C49 1.387 . S
C45 H72 0.930 . S
C46 C44 1.380 . S
C46 C45 1.384 . S
C46 H73 0.931 . S
C47 C44 1.374 1_554 S
C47 C48 1.390 . S
C47 H74 0.930 . S
C48 C47 1.390 . S
C48 C49 1.391 1_554 S
C48 H75 0.930 . S
C49 C45 1.387 . S
C49 C48 1.391 1_556 S
C50 Tb40 2.825 . S
C50 C44 1.507 . S
C50 O63 1.238 . S
C50 O64 1.247 1_556 S
O51 Tb40 2.347 1_554 S
O51 C55 1.259 . S
O52 Eu41 2.418 . S
O52 C55 1.265 . S
O53 Eu41 2.384 . S
O53 C62 1.255 1_554 S
O54 Tb40 2.366 . S
O54 C62 1.265 . S
C55 O51 1.259 . S
C55 O52 1.265 . S
O56 Eu41 2.479 . S
O56 C71 1.238 . S
O57 Eu41 2.471 1_556 S
O57 C71 1.247 1_556 S
O58 Eu41 2.347 1_556 S
O58 C42 1.259 . S
O59 Tb40 2.418 . S
O59 C42 1.265 . S
O60 Tb40 2.384 . S
O60 C43 1.255 1_556 S
O61 Eu41 2.366 . S
O61 C43 1.265 . S
C62 O53 1.255 1_556 S
C62 O54 1.265 . S
O63 Tb40 2.479 . S
O63 C50 1.238 . S
O64 Tb40 2.471 1_554 S
O64 C50 1.247 1_554 S
C65 C68 1.380 . S
C65 C69 1.374 1_554 S
C65 C71 1.507 . S
C66 C67 1.387 . S
C66 C70 1.391 1_554 S
C67 C66 1.387 . S
C67 C68 1.384 . S
C67 H76 0.930 . S
C68 C65 1.380 . S
C68 C67 1.384 . S
C68 H77 0.931 . S
C69 C65 1.374 1_556 S
C69 C70 1.390 . S
C69 H78 0.930 . S
C70 C66 1.391 1_556 S
C70 C69 1.390 . S
C70 H79 0.930 . S
C71 Eu41 2.825 . S
C71 O56 1.238 . S
C71 O57 1.247 1_554 S
C71 C65 1.507 . S
H72 C45 0.930 . S
H73 C46 0.931 . S
H74 C47 0.930 . S
H75 C48 0.930 . S
H76 C67 0.930 . S
H77 C68 0.931 . S
H78 C69 0.930 . S
H79 C70 0.930 . S
Tb80 C90 2.825 . S
Tb80 O91 2.347 1_554 S
Tb80 O94 2.366 . S
Tb80 O99 2.418 . S
Tb80 O100 2.384 1_545 S
Tb80 O103 2.479 . S
Tb80 O104 2.471 1_554 S
Eu81 O92 2.447 . S
Eu81 O93 2.382 1_566 S
Eu81 O96 2.490 . S
Eu81 O97 2.457 1_556 S
Eu81 O98 2.324 1_556 S
Eu81 O101 2.369 . S
Eu81 C111 2.825 . S
C82 O98 1.259 . S
C82 O99 1.265 1_565 S
C83 O100 1.255 . S
C83 O101 1.265 1_554 S
C84 C86 1.380 . S
C84 C87 1.374 1_554 S
C84 C90 1.507 . S
C85 C86 1.384 . S
C85 C89 1.387 . S
C85 H112 0.930 . S
C86 C84 1.380 . S
C86 C85 1.384 . S
C86 H113 0.931 . S
C87 C84 1.374 1_556 S
C87 C88 1.390 . S
C87 H114 0.930 . S
C88 C87 1.390 . S
C88 C89 1.391 1_556 S
C88 H115 0.930 . S
C89 C85 1.387 . S
C89 C88 1.391 1_554 S
C90 Tb80 2.825 . S
C90 C84 1.507 . S
C90 O103 1.238 . S
C90 O104 1.247 1_554 S
O91 Tb80 2.347 1_556 S
O91 C95 1.259 . S
O92 Eu81 2.447 . S
O92 C95 1.265 1_565 S
O93 Eu81 2.382 1_544 S
O93 C102 1.255 . S
O94 Tb80 2.366 . S
O94 C102 1.265 . S
C95 O91 1.259 . S
C95 O92 1.265 1_545 S
O96 Eu81 2.490 . S
O96 C111 1.255 . S
O97 Eu81 2.457 1_554 S
O97 C111 1.231 1_554 S
O98 Eu81 2.324 1_554 S
O98 C82 1.259 . S
O99 Tb80 2.418 . S
O99 C82 1.265 1_545 S
O100 Tb80 2.384 1_565 S
O100 C83 1.255 . S
O101 Eu81 2.369 . S
O101 C83 1.265 1_556 S
C102 O93 1.255 . S
C102 O94 1.265 . S
O103 Tb80 2.479 . S
O103 C90 1.238 . S
O104 Tb80 2.471 1_556 S
O104 C90 1.247 1_556 S
C105 C108 1.401 . S
C105 C109 1.351 1_556 S
C105 C111 1.507 . S
C106 C107 1.378 1_554 S
C106 C110 1.399 . S
C107 C106 1.378 1_556 S
C107 C108 1.384 . S
C107 H116 0.930 . S
C108 C105 1.401 . S
C108 C107 1.384 . S
C108 H117 0.931 . S
C109 C105 1.351 1_554 S
C109 C110 1.390 . S
C109 H118 0.930 . S
C110 C106 1.399 . S
C110 C109 1.390 . S
C110 H119 0.930 . S
C111 Eu81 2.825 . S
C111 O96 1.255 . S
C111 O97 1.231 1_556 S
C111 C105 1.507 . S
H112 C85 0.930 . S
H113 C86 0.931 . S
H114 C87 0.930 . S
H115 C88 0.930 . S
H116 C107 0.930 . S
H117 C108 0.931 . S
H118 C109 0.930 . S
H119 C110 0.930 . S
Tb120 C130 2.825 . S
Tb120 O131 2.347 . S
Tb120 O134 2.366 . S
Tb120 O139 2.418 . S
Tb120 O140 2.384 . S
Tb120 O143 2.479 . S
Tb120 O144 2.471 . S
Eu121 O132 2.418 . S
Eu121 O133 2.384 . S
Eu121 O136 2.479 . S
Eu121 O137 2.471 . S
Eu121 O138 2.347 . S
Eu121 O141 2.366 . S
Eu121 C151 2.825 . S
C122 O138 1.259 . S
C122 O139 1.265 . S
C123 O140 1.255 . S
C123 O141 1.265 . S
C124 C126 1.380 . S
C124 C127 1.374 . S
C124 C130 1.507 . S
C125 C126 1.384 . S
C125 C129 1.387 . S
C125 H152 0.930 . S
C126 C124 1.380 . S
C126 C125 1.384 . S
C126 H153 0.931 . S
C127 C124 1.374 . S
C127 C128 1.390 . S
C127 H154 0.930 . S
C128 C127 1.390 . S
C128 C129 1.391 . S
C128 H155 0.930 . S
C129 C125 1.387 . S
C129 C128 1.391 . S
C130 Tb120 2.825 . S
C130 C124 1.507 . S
C130 O143 1.238 . S
C130 O144 1.247 . S
O131 Tb120 2.347 . S
O131 C135 1.259 . S
O132 Eu121 2.418 . S
O132 C135 1.265 . S
O133 Eu121 2.384 . S
O133 C142 1.255 . S
O134 Tb120 2.366 . S
O134 C142 1.265 . S
C135 O131 1.259 . S
C135 O132 1.265 . S
O136 Eu121 2.479 . S
O136 C151 1.238 . S
O137 Eu121 2.471 . S
O137 C151 1.247 . S
O138 Eu121 2.347 . S
O138 C122 1.259 . S
O139 Tb120 2.418 . S
O139 C122 1.265 . S
O140 Tb120 2.384 . S
O140 C123 1.255 . S
O141 Eu121 2.366 . S
O141 C123 1.265 . S
C142 O133 1.255 . S
C142 O134 1.265 . S
O143 Tb120 2.479 . S
O143 C130 1.238 . S
O144 Tb120 2.471 . S
O144 C130 1.247 . S
C145 C148 1.380 . S
C145 C149 1.374 . S
C145 C151 1.507 . S
C146 C147 1.387 . S
C146 C150 1.391 . S
C147 C146 1.387 . S
C147 C148 1.384 . S
C147 H156 0.930 . S
C148 C145 1.380 . S
C148 C147 1.384 . S
C148 H157 0.931 . S
C149 C145 1.374 . S
C149 C150 1.390 . S
C149 H158 0.930 . S
C150 C146 1.391 . S
C150 C149 1.390 . S
C150 H159 0.930 . S
C151 Eu121 2.825 . S
C151 O136 1.238 . S
C151 O137 1.247 . S
C151 C145 1.507 . S
H152 C125 0.930 . S
H153 C126 0.931 . S
H154 C127 0.930 . S
H155 C128 0.930 . S
H156 C147 0.930 . S
H157 C148 0.931 . S
H158 C149 0.930 . S
H159 C150 0.930 . S
Tb160 C170 2.825 . S
Tb160 O171 2.347 . S
Tb160 O174 2.366 . S
Tb160 O179 2.418 . S
Tb160 O180 2.384 . S
Tb160 O183 2.479 . S
Tb160 O184 2.471 . S
Eu161 O172 2.418 . S
Eu161 O173 2.384 . S
Eu161 O176 2.479 1_565 S
Eu161 O177 2.471 1_565 S
Eu161 O178 2.347 . S
Eu161 O181 2.366 . S
Eu161 C191 2.825 1_565 S
C162 O178 1.259 . S
C162 O179 1.265 . S
C163 O180 1.255 . S
C163 O181 1.265 . S
C164 C166 1.380 . S
C164 C167 1.374 . S
C164 C170 1.507 . S
C165 C166 1.384 . S
C165 C169 1.387 . S
C165 H192 0.930 . S
C166 C164 1.380 . S
C166 C165 1.384 . S
C166 H193 0.931 . S
C167 C164 1.374 . S
C167 C168 1.390 . S
C167 H194 0.930 . S
C168 C167 1.390 . S
C168 C169 1.391 . S
C168 H195 0.930 . S
C169 C165 1.387 . S
C169 C168 1.391 . S
C170 Tb160 2.825 . S
C170 C164 1.507 . S
C170 O183 1.238 . S
C170 O184 1.247 . S
O171 Tb160 2.347 . S
O171 C175 1.259 . S
O172 Eu161 2.418 . S
O172 C175 1.265 . S
O173 Eu161 2.384 . S
O173 C182 1.255 . S
O174 Tb160 2.366 . S
O174 C182 1.265 . S
C175 O171 1.259 . S
C175 O172 1.265 . S
O176 Eu161 2.479 1_545 S
O176 C191 1.238 . S
O177 Eu161 2.471 1_545 S
O177 C191 1.247 . S
O178 Eu161 2.347 . S
O178 C162 1.259 . S
O179 Tb160 2.418 . S
O179 C162 1.265 . S
O180 Tb160 2.384 . S
O180 C163 1.255 . S
O181 Eu161 2.366 . S
O181 C163 1.265 . S
C182 O173 1.255 . S
C182 O174 1.265 . S
O183 Tb160 2.479 . S
O183 C170 1.238 . S
O184 Tb160 2.471 . S
O184 C170 1.247 . S
C185 C188 1.380 . S
C185 C189 1.374 . S
C185 C191 1.507 . S
C186 C187 1.387 . S
C186 C190 1.391 . S
C187 C186 1.387 . S
C187 C188 1.384 . S
C187 H196 0.930 . S
C188 C185 1.380 . S
C188 C187 1.384 . S
C188 H197 0.931 . S
C189 C185 1.374 . S
C189 C190 1.390 . S
C189 H198 0.930 . S
C190 C186 1.391 . S
C190 C189 1.390 . S
C190 H199 0.930 . S
C191 Eu161 2.825 1_545 S
C191 O176 1.238 . S
C191 O177 1.247 . S
C191 C185 1.507 . S
H192 C165 0.930 . S
H193 C166 0.931 . S
H194 C167 0.930 . S
H195 C168 0.930 . S
H196 C187 0.930 . S
H197 C188 0.931 . S
H198 C189 0.930 . S
H199 C190 0.930 . S
Tb200 C210 2.825 . S
Tb200 O211 2.347 . S
Tb200 O214 2.366 . S
Tb200 O219 2.418 . S
Tb200 O220 2.384 . S
Tb200 O223 2.479 . S
Tb200 O224 2.471 . S
Eu201 O212 2.418 . S
Eu201 O213 2.384 . S
Eu201 O216 2.479 . S
Eu201 O217 2.471 . S
Eu201 O218 2.347 . S
Eu201 O221 2.366 . S
Eu201 C231 2.825 . S
C202 O218 1.259 . S
C202 O219 1.265 . S
C203 O220 1.255 . S
C203 O221 1.265 . S
C204 C206 1.380 . S
C204 C207 1.374 . S
C204 C210 1.507 . S
C205 C206 1.384 . S
C205 C209 1.387 . S
C205 H232 0.930 . S
C206 C204 1.380 . S
C206 C205 1.384 . S
C206 H233 0.931 . S
C207 C204 1.374 . S
C207 C208 1.390 . S
C207 H234 0.930 . S
C208 C207 1.390 . S
C208 C209 1.391 . S
C208 H235 0.930 . S
C209 C205 1.387 . S
C209 C208 1.391 . S
C210 Tb200 2.825 . S
C210 C204 1.507 . S
C210 O223 1.238 . S
C210 O224 1.247 . S
O211 Tb200 2.347 . S
O211 C215 1.259 . S
O212 Eu201 2.418 . S
O212 C215 1.265 . S
O213 Eu201 2.384 . S
O213 C222 1.255 . S
O214 Tb200 2.366 . S
O214 C222 1.265 . S
C215 O211 1.259 . S
C215 O212 1.265 . S
O216 Eu201 2.479 . S
O216 C231 1.238 . S
O217 Eu201 2.471 . S
O217 C231 1.247 . S
O218 Eu201 2.347 . S
O218 C202 1.259 . S
O219 Tb200 2.418 . S
O219 C202 1.265 . S
O220 Tb200 2.384 . S
O220 C203 1.255 . S
O221 Eu201 2.366 . S
O221 C203 1.265 . S
C222 O213 1.255 . S
C222 O214 1.265 . S
O223 Tb200 2.479 . S
O223 C210 1.238 . S
O224 Tb200 2.471 . S
O224 C210 1.247 . S
C225 C228 1.380 . S
C225 C229 1.374 . S
C225 C231 1.507 1_655 S
C226 C227 1.387 . S
C226 C230 1.391 . S
C227 C226 1.387 . S
C227 C228 1.384 . S
C227 H236 0.930 . S
C228 C225 1.380 . S
C228 C227 1.384 . S
C228 H237 0.931 . S
C229 C225 1.374 . S
C229 C230 1.390 . S
C229 H238 0.930 . S
C230 C226 1.391 . S
C230 C229 1.390 . S
C230 H239 0.930 . S
C231 Eu201 2.825 . S
C231 O216 1.238 . S
C231 O217 1.247 . S
C231 C225 1.507 1_455 S
H232 C205 0.930 . S
H233 C206 0.931 . S
H234 C207 0.930 . S
H235 C208 0.930 . S
H236 C227 0.930 . S
H237 C228 0.931 . S
H238 C229 0.930 . S
H239 C230 0.930 . S
Tb240 C250 2.825 . S
Tb240 O251 2.347 . S
Tb240 O254 2.366 . S
Tb240 O259 2.418 . S
Tb240 O260 2.384 . S
Tb240 O263 2.479 . S
Tb240 O264 2.471 . S
Eu241 O252 2.418 . S
Eu241 O253 2.384 . S
Eu241 O256 2.479 . S
Eu241 O257 2.471 . S
Eu241 O258 2.347 . S
Eu241 O261 2.366 . S
Eu241 C271 2.825 . S
C242 O258 1.259 . S
C242 O259 1.265 . S
C243 O260 1.255 . S
C243 O261 1.265 . S
C244 C246 1.380 . S
C244 C247 1.374 . S
C244 C250 1.507 . S
C245 C246 1.384 . S
C245 C249 1.387 . S
C245 H272 0.930 . S
C246 C244 1.380 . S
C246 C245 1.384 . S
C246 H273 0.931 . S
C247 C244 1.374 . S
C247 C248 1.390 . S
C247 H274 0.930 . S
C248 C247 1.390 . S
C248 C249 1.391 . S
C248 H275 0.930 . S
C249 C245 1.387 . S
C249 C248 1.391 . S
C250 Tb240 2.825 . S
C250 C244 1.507 . S
C250 O263 1.238 . S
C250 O264 1.247 . S
O251 Tb240 2.347 . S
O251 C255 1.259 . S
O252 Eu241 2.418 . S
O252 C255 1.265 . S
O253 Eu241 2.384 . S
O253 C262 1.255 . S
O254 Tb240 2.366 . S
O254 C262 1.265 . S
C255 O251 1.259 . S
C255 O252 1.265 . S
O256 Eu241 2.479 . S
O256 C271 1.238 . S
O257 Eu241 2.471 . S
O257 C271 1.247 . S
O258 Eu241 2.347 . S
O258 C242 1.259 . S
O259 Tb240 2.418 . S
O259 C242 1.265 . S
O260 Tb240 2.384 . S
O260 C243 1.255 . S
O261 Eu241 2.366 . S
O261 C243 1.265 . S
C262 O253 1.255 . S
C262 O254 1.265 . S
O263 Tb240 2.479 . S
O263 C250 1.238 . S
O264 Tb240 2.471 . S
O264 C250 1.247 . S
C265 C268 1.380 . S
C265 C269 1.374 . S
C265 C271 1.507 . S
C266 C267 1.387 . S
C266 C270 1.391 . S
C267 C266 1.387 . S
C267 C268 1.384 . S
C267 H276 0.930 . S
C268 C265 1.380 . S
C268 C267 1.384 . S
C268 H277 0.931 . S
C269 C265 1.374 . S
C269 C270 1.390 . S
C269 H278 0.930 . S
C270 C266 1.391 . S
C270 C269 1.390 . S
C270 H279 0.930 . S
C271 Eu241 2.825 . S
C271 O256 1.238 . S
C271 O257 1.247 . S
C271 C265 1.507 . S
H272 C245 0.930 . S
H273 C246 0.931 . S
H274 C247 0.930 . S
H275 C248 0.930 . S
H276 C267 0.930 . S
H277 C268 0.931 . S
H278 C269 0.930 . S
H279 C270 0.930 . S
Tb280 C290 2.825 . S
Tb280 O291 2.347 . S
Tb280 O294 2.366 . S
Tb280 O299 2.418 . S
Tb280 O300 2.384 . S
Tb280 O303 2.479 . S
Tb280 O304 2.471 . S
Eu281 O292 2.418 . S
Eu281 O293 2.384 . S
Eu281 O296 2.479 . S
Eu281 O297 2.471 . S
Eu281 O298 2.347 . S
Eu281 O301 2.366 . S
Eu281 C311 2.844 . S
C282 O298 1.259 . S
C282 O299 1.265 . S
C283 O300 1.255 . S
C283 O301 1.265 . S
C284 C286 1.380 . S
C284 C287 1.374 . S
C284 C290 1.507 . S
C285 C286 1.384 . S
C285 C289 1.387 . S
C285 H312 0.930 . S
C286 C284 1.380 . S
C286 C285 1.384 . S
C286 H313 0.931 . S
C287 C284 1.374 . S
C287 C288 1.390 . S
C287 H314 0.930 . S
C288 C287 1.390 . S
C288 C289 1.391 . S
C288 H315 0.930 . S
C289 C285 1.387 . S
C289 C288 1.391 . S
C290 Tb280 2.825 . S
C290 C284 1.507 . S
C290 O303 1.238 . S
C290 O304 1.247 . S
O291 Tb280 2.347 . S
O291 C295 1.259 . S
O292 Eu281 2.418 . S
O292 C295 1.265 . S
O293 Eu281 2.384 . S
O293 C302 1.255 . S
O294 Tb280 2.366 . S
O294 C302 1.265 . S
C295 O291 1.259 . S
C295 O292 1.265 . S
O296 Eu281 2.479 . S
O296 C311 1.246 . S
O297 Eu281 2.471 . S
O297 C311 1.257 . S
O298 Eu281 2.347 . S
O298 C282 1.259 . S
O299 Tb280 2.418 . S
O299 C282 1.265 . S
O300 Tb280 2.384 . S
O300 C283 1.255 . S
O301 Eu281 2.366 . S
O301 C283 1.265 . S
C302 O293 1.255 . S
C302 O294 1.265 . S
O303 Tb280 2.479 . S
O303 C290 1.238 . S
O304 Tb280 2.471 . S
O304 C290 1.247 . S
C305 C308 1.380 . S
C305 C309 1.374 . S
C305 C311 1.488 1_455 S
C306 C307 1.387 . S
C306 C310 1.391 . S
C307 C306 1.387 . S
C307 C308 1.384 . S
C307 H316 0.930 . S
C308 C305 1.380 . S
C308 C307 1.384 . S
C308 H317 0.931 . S
C309 C305 1.374 . S
C309 C310 1.390 . S
C309 H318 0.930 . S
C310 C306 1.391 . S
C310 C309 1.390 . S
C310 H319 0.930 . S
C311 Eu281 2.844 . S
C311 O296 1.246 . S
C311 O297 1.257 . S
C311 C305 1.488 1_655 S
H312 C285 0.930 . S
H313 C286 0.931 . S
H314 C287 0.930 . S
H315 C288 0.930 . S
H316 C307 0.930 . S
H317 C308 0.931 . S
H318 C309 0.930 . S
H319 C310 0.930 . S
Tb320 C330 2.825 . S
Tb320 O331 2.347 . S
Tb320 O334 2.366 . S
Tb320 O339 2.418 . S
Tb320 O340 2.384 . S
Tb320 O343 2.479 . S
Tb320 O344 2.471 . S
Eu321 O332 2.418 . S
Eu321 O333 2.384 . S
Eu321 O336 2.479 . S
Eu321 O337 2.471 . S
Eu321 O338 2.347 . S
Eu321 O341 2.366 . S
Eu321 C351 2.825 . S
C322 O338 1.259 . S
C322 O339 1.265 . S
C323 O340 1.255 . S
C323 O341 1.265 . S
C324 C326 1.380 . S
C324 C327 1.374 . S
C324 C330 1.507 . S
C325 C326 1.384 . S
C325 C329 1.387 . S
C325 H352 0.930 1_655 S
C326 C324 1.380 . S
C326 C325 1.384 . S
C326 H353 0.931 . S
C327 C324 1.374 . S
C327 C328 1.390 . S
C327 H354 0.930 . S
C328 C327 1.390 . S
C328 C329 1.391 . S
C328 H355 0.930 . S
C329 C325 1.387 . S
C329 C328 1.391 . S
C330 Tb320 2.825 . S
C330 C324 1.507 . S
C330 O343 1.238 . S
C330 O344 1.247 . S
O331 Tb320 2.347 . S
O331 C335 1.259 . S
O332 Eu321 2.418 . S
O332 C335 1.265 . S
O333 Eu321 2.384 . S
O333 C342 1.255 . S
O334 Tb320 2.366 . S
O334 C342 1.265 . S
C335 O331 1.259 . S
C335 O332 1.265 . S
O336 Eu321 2.479 . S
O336 C351 1.238 . S
O337 Eu321 2.471 . S
O337 C351 1.247 . S
O338 Eu321 2.347 . S
O338 C322 1.259 . S
O339 Tb320 2.418 . S
O339 C322 1.265 . S
O340 Tb320 2.384 . S
O340 C323 1.255 . S
O341 Eu321 2.366 . S
O341 C323 1.265 . S
C342 O333 1.255 . S
C342 O334 1.265 . S
O343 Tb320 2.479 . S
O343 C330 1.238 . S
O344 Tb320 2.471 . S
O344 C330 1.247 . S
C345 C348 1.380 . S
C345 C349 1.374 . S
C345 C351 1.507 . S
C346 C347 1.387 . S
C346 C350 1.391 . S
C347 C346 1.387 . S
C347 C348 1.384 . S
C347 H356 0.930 . S
C348 C345 1.380 . S
C348 C347 1.384 . S
C348 H357 0.931 . S
C349 C345 1.374 . S
C349 C350 1.390 . S
C349 H358 0.930 . S
C350 C346 1.391 . S
C350 C349 1.390 . S
C350 H359 0.930 . S
C351 Eu321 2.825 . S
C351 O336 1.238 . S
C351 O337 1.247 . S
C351 C345 1.507 . S
H352 C325 0.930 1_455 S
H353 C326 0.931 . S
H354 C327 0.930 . S
H355 C328 0.930 . S
H356 C347 0.930 . S
H357 C348 0.931 . S
H358 C349 0.930 . S
H359 C350 0.930 . S
C360 C361 1.391 1_554 S
C360 C362 1.394 . S
C360 H376 0.931 . S
C361 C360 1.391 1_556 S
C361 C365 1.376 . S
C362 C360 1.394 . S
C362 C363 1.369 . S
C362 C366 1.531 . S
C363 C362 1.369 . S
C363 C364 1.410 1_554 S
C363 C371 1.503 . S
C364 C363 1.410 1_556 S
C364 C365 1.392 . S
C364 C367 1.511 . S
C365 C361 1.376 . S
C365 C364 1.392 . S
C365 H377 0.929 . S
C366 C362 1.531 . S
C366 H378 0.960 . S
C366 H379 0.962 1_554 S
C366 H380 0.960 . S
C367 C364 1.511 . S
C367 H381 0.961 . S
C367 H382 0.961 . S
C367 H383 0.961 1_556 S
C368 C369 1.370 1_556 S
C368 C370 1.363 . S
C368 H384 0.931 . S
C369 C368 1.370 1_554 S
C369 C373 1.408 . S
C370 C368 1.363 . S
C370 C371 1.370 1_556 S
C370 C374 1.524 . S
C371 C363 1.503 . S
C371 C370 1.370 1_554 S
C371 C372 1.403 . S
C372 C371 1.403 . S
C372 C373 1.404 . S
C372 C375 1.539 . S
C373 C369 1.408 . S
C373 C372 1.404 . S
C373 H385 0.930 . S
C374 C370 1.524 . S
C374 H386 0.956 . S
C374 H387 0.961 . S
C374 H388 0.961 . S
C375 C372 1.539 . S
C375 H389 0.958 . S
C375 H390 0.961 . S
C375 H391 0.960 . S
H376 C360 0.931 . S
H377 C365 0.929 . S
H378 C366 0.960 . S
H379 C366 0.962 1_556 S
H380 C366 0.960 . S
H381 C367 0.961 . S
H382 C367 0.961 . S
H383 C367 0.961 1_554 S
H384 C368 0.931 . S
H385 C373 0.930 . S
H386 C374 0.956 . S
H387 C374 0.961 . S
H388 C374 0.961 . S
H389 C375 0.958 . S
H390 C375 0.961 . S
H391 C375 0.960 . S
C392 C393 1.391 . S
C392 C394 1.394 . S
C392 H408 0.931 . S
C393 C392 1.391 . S
C393 C397 1.376 . S
C394 C392 1.394 . S
C394 C395 1.369 . S
C394 C398 1.531 . S
C395 C394 1.369 . S
C395 C396 1.410 . S
C395 C403 1.503 . S
C396 C395 1.410 . S
C396 C397 1.392 . S
C396 C399 1.511 . S
C397 C393 1.376 . S
C397 C396 1.392 . S
C397 H409 0.929 . S
C398 C394 1.531 . S
C398 H410 0.960 . S
C398 H411 0.962 1_556 S
C398 H412 0.960 . S
C399 C396 1.511 . S
C399 H413 0.961 . S
C399 H414 0.961 . S
C399 H415 0.961 . S
C400 C401 1.370 1_554 S
C400 C402 1.363 . S
C400 H416 0.931 . S
C401 C400 1.370 1_556 S
C401 C405 1.408 . S
C402 C400 1.363 . S
C402 C403 1.370 1_554 S
C402 C406 1.524 . S
C403 C395 1.503 . S
C403 C402 1.370 1_556 S
C403 C404 1.403 . S
C404 C403 1.403 . S
C404 C405 1.404 . S
C404 C407 1.539 . S
C405 C401 1.408 . S
C405 C404 1.404 . S
C405 H417 0.930 . S
C406 C402 1.524 . S
C406 H418 0.956 . S
C406 H419 0.961 . S
C406 H420 0.961 . S
C407 C404 1.539 . S
C407 H421 0.958 . S
C407 H422 0.961 . S
C407 H423 0.960 . S
H408 C392 0.931 . S
H409 C397 0.929 . S
H410 C398 0.960 . S
H411 C398 0.962 1_554 S
H412 C398 0.960 . S
H413 C399 0.961 . S
H414 C399 0.961 . S
H415 C399 0.961 . S
H416 C400 0.931 . S
H417 C405 0.930 . S
H418 C406 0.956 . S
H419 C406 0.961 . S
H420 C406 0.961 . S
H421 C407 0.958 . S
H422 C407 0.961 . S
H423 C407 0.960 . S
C424 C425 1.394 . S
C424 C426 1.394 . S
C424 H440 0.931 . S
C425 C424 1.394 . S
C425 C429 1.373 1_554 S
C426 C424 1.394 . S
C426 C427 1.380 . S
C426 C430 1.531 . S
C427 C426 1.380 . S
C427 C428 1.397 1_554 S
C427 C435 1.502 . S
C428 C427 1.397 1_556 S
C428 C429 1.392 . S
C428 C431 1.511 . S
C429 C425 1.373 1_556 S
C429 C428 1.392 . S
C429 H441 0.929 . S
C430 C426 1.531 . S
C430 H442 0.960 . S
C430 H443 0.962 . S
C430 H444 0.960 . S
C431 C428 1.511 . S
C431 H445 0.961 . S
C431 H446 0.961 . S
C431 H447 0.961 . S
C432 C433 1.370 . S
C432 C434 1.363 . S
C432 H448 0.931 . S
C433 C432 1.370 . S
C433 C437 1.408 1_554 S
C434 C432 1.363 . S
C434 C435 1.378 . S
C434 C438 1.524 . S
C435 C427 1.502 . S
C435 C434 1.378 . S
C435 C436 1.399 1_554 S
C436 C435 1.399 1_556 S
C436 C437 1.404 . S
C436 C439 1.539 . S
C437 C433 1.408 1_556 S
C437 C436 1.404 . S
C437 H449 0.930 . S
C438 C434 1.524 . S
C438 H450 0.956 . S
C438 H451 0.961 1_554 S
C438 H452 0.961 . S
C439 C436 1.539 . S
C439 H453 0.958 1_556 S
C439 H454 0.961 . S
C439 H455 0.960 . S
H440 C424 0.931 . S
H441 C429 0.929 . S
H442 C430 0.960 . S
H443 C430 0.962 . S
H444 C430 0.960 . S
H445 C431 0.961 . S
H446 C431 0.961 . S
H447 C431 0.961 . S
H448 C432 0.931 . S
H449 C437 0.930 . S
H450 C438 0.956 . S
H451 C438 0.961 1_556 S
H452 C438 0.961 . S
H453 C439 0.958 1_554 S
H454 C439 0.961 . S
H455 C439 0.960 . S
C456 C457 1.391 . S
C456 C458 1.394 . S
C456 H472 0.931 . S
C457 C456 1.391 . S
C457 C461 1.376 . S
C458 C456 1.394 . S
C458 C459 1.369 . S
C458 C462 1.531 . S
C459 C458 1.369 . S
C459 C460 1.410 . S
C459 C467 1.503 . S
C460 C459 1.410 . S
C460 C461 1.392 . S
C460 C463 1.511 1_554 S
C461 C457 1.376 . S
C461 C460 1.392 . S
C461 H473 0.929 1_554 S
C462 C458 1.531 . S
C462 H474 0.960 . S
C462 H475 0.962 . S
C462 H476 0.960 . S
C463 C460 1.511 1_556 S
C463 H477 0.961 . S
C463 H478 0.961 . S
C463 H479 0.961 1_556 S
C464 C465 1.370 1_556 S
C464 C466 1.363 . S
C464 H480 0.931 . S
C465 C464 1.370 1_554 S
C465 C469 1.408 . S
C466 C464 1.363 . S
C466 C467 1.370 1_556 S
C466 C470 1.524 . S
C467 C459 1.503 . S
C467 C466 1.370 1_554 S
C467 C468 1.403 . S
C468 C467 1.403 . S
C468 C469 1.404 . S
C468 C471 1.539 . S
C469 C465 1.408 . S
C469 C468 1.404 . S
C469 H481 0.930 . S
C470 C466 1.524 . S
C470 H482 0.956 . S
C470 H483 0.961 . S
C470 H484 0.961 . S
C471 C468 1.539 . S
C471 H485 0.958 . S
C471 H486 0.961 . S
C471 H487 0.960 . S
H472 C456 0.931 . S
H473 C461 0.929 1_556 S
H474 C462 0.960 . S
H475 C462 0.962 . S
H476 C462 0.960 . S
H477 C463 0.961 . S
H478 C463 0.961 . S
H479 C463 0.961 1_554 S
H480 C464 0.931 . S
H481 C469 0.930 . S
H482 C470 0.956 . S
H483 C470 0.961 . S
H484 C470 0.961 . S
H485 C471 0.958 . S
H486 C471 0.961 . S
H487 C471 0.960 . S
C488 C489 1.391 . S
C488 C490 1.394 . S
C488 H504 0.931 . S
C489 C488 1.391 . S
C489 C493 1.376 1_554 S
C490 C488 1.394 . S
C490 C491 1.369 . S
C490 C494 1.531 . S
C491 C490 1.369 . S
C491 C492 1.410 1_554 S
C491 C499 1.503 . S
C492 C491 1.410 1_556 S
C492 C493 1.392 . S
C492 C495 1.511 . S
C493 C489 1.376 1_556 S
C493 C492 1.392 . S
C493 H505 0.929 . S
C494 C490 1.531 . S
C494 H506 0.960 . S
C494 H507 0.962 . S
C494 H508 0.960 . S
C495 C492 1.511 . S
C495 H509 0.961 . S
C495 H510 0.961 . S
C495 H511 0.961 . S
C496 C497 1.370 . S
C496 C498 1.363 . S
C496 H512 0.931 . S
C497 C496 1.370 . S
C497 C501 1.408 . S
C498 C496 1.363 . S
C498 C499 1.370 . S
C498 C502 1.524 . S
C499 C491 1.503 . S
C499 C498 1.370 . S
C499 C500 1.403 . S
C500 C499 1.403 . S
C500 C501 1.404 . S
C500 C503 1.539 1_554 S
C501 C497 1.408 . S
C501 C500 1.404 . S
C501 H513 0.930 . S
C502 C498 1.524 . S
C502 H514 0.956 . S
C502 H515 0.961 . S
C502 H516 0.961 . S
C503 C500 1.539 1_556 S
C503 H517 0.958 1_556 S
C503 H518 0.961 . S
C503 H519 0.960 . S
H504 C488 0.931 . S
H505 C493 0.929 . S
H506 C494 0.960 . S
H507 C494 0.962 . S
H508 C494 0.960 . S
H509 C495 0.961 . S
H510 C495 0.961 . S
H511 C495 0.961 . S
H512 C496 0.931 . S
H513 C501 0.930 . S
H514 C502 0.956 . S
H515 C502 0.961 . S
H516 C502 0.961 . S
H517 C503 0.958 1_554 S
H518 C503 0.961 . S
H519 C503 0.960 . S
C520 C521 1.391 . S
C520 C522 1.394 . S
C520 H536 0.931 . S
C521 C520 1.391 . S
C521 C525 1.376 . S
C522 C520 1.394 . S
C522 C523 1.369 . S
C522 C526 1.531 . S
C523 C522 1.369 . S
C523 C524 1.410 . S
C523 C531 1.503 . S
C524 C523 1.410 . S
C524 C525 1.392 . S
C524 C527 1.511 . S
C525 C521 1.376 . S
C525 C524 1.392 . S
C525 H537 0.929 . S
C526 C522 1.531 . S
C526 H538 0.960 . S
C526 H539 0.962 1_554 S
C526 H540 0.960 . S
C527 C524 1.511 . S
C527 H541 0.961 . S
C527 H542 0.961 . S
C527 H543 0.961 . S
C528 C529 1.370 1_556 S
C528 C530 1.363 . S
C528 H544 0.931 . S
C529 C528 1.370 1_554 S
C529 C533 1.408 . S
C530 C528 1.363 . S
C530 C531 1.370 1_556 S
C530 C534 1.524 . S
C531 C523 1.503 . S
C531 C530 1.370 1_554 S
C531 C532 1.403 . S
C532 C531 1.403 . S
C532 C533 1.404 . S
C532 C535 1.539 . S
C533 C529 1.408 . S
C533 C532 1.404 . S
C533 H545 0.930 . S
C534 C530 1.524 . S
C534 H546 0.956 . S
C534 H547 0.961 . S
C534 H548 0.961 . S
C535 C532 1.539 . S
C535 H549 0.958 . S
C535 H550 0.961 . S
C535 H551 0.960 . S
H536 C520 0.931 . S
H537 C525 0.929 . S
H538 C526 0.960 . S
H539 C526 0.962 1_556 S
H540 C526 0.960 . S
H541 C527 0.961 . S
H542 C527 0.961 . S
H543 C527 0.961 . S
H544 C528 0.931 . S
H545 C533 0.930 . S
H546 C534 0.956 . S
H547 C534 0.961 . S
H548 C534 0.961 . S
H549 C535 0.958 . S
H550 C535 0.961 . S
H551 C535 0.960 . S
C552 C553 1.391 . S
C552 C554 1.394 . S
C552 H568 0.931 . S
C553 C552 1.391 . S
C553 C557 1.376 . S
C554 C552 1.394 . S
C554 C555 1.369 . S
C554 C558 1.531 1_655 S
C555 C554 1.369 . S
C555 C556 1.410 . S
C555 C563 1.503 1_655 S
C556 C555 1.410 . S
C556 C557 1.392 . S
C556 C559 1.511 . S
C557 C553 1.376 . S
C557 C556 1.392 . S
C557 H569 0.929 . S
C558 C554 1.531 1_455 S
C558 H570 0.960 . S
C558 H571 0.962 . S
C558 H572 0.960 1_455 S
C559 C556 1.511 . S
C559 H573 0.961 . S
C559 H574 0.961 1_655 S
C559 H575 0.961 . S
C560 C561 1.370 . S
C560 C562 1.363 . S
C560 H576 0.931 . S
C561 C560 1.370 . S
C561 C565 1.408 . S
C562 C560 1.363 . S
C562 C563 1.370 . S
C562 C566 1.524 . S
C563 C555 1.503 1_455 S
C563 C562 1.370 . S
C563 C564 1.403 . S
C564 C563 1.403 . S
C564 C565 1.404 . S
C564 C567 1.539 . S
C565 C561 1.408 . S
C565 C564 1.404 . S
C565 H577 0.930 . S
C566 C562 1.524 . S
C566 H578 0.956 . S
C566 H579 0.961 1_455 S
C566 H580 0.961 . S
C567 C564 1.539 . S
C567 H581 0.958 . S
C567 H582 0.961 . S
C567 H583 0.960 . S
H568 C552 0.931 . S
H569 C557 0.929 . S
H570 C558 0.960 . S
H571 C558 0.962 . S
H572 C558 0.960 1_655 S
H573 C559 0.961 . S
H574 C559 0.961 1_455 S
H575 C559 0.961 . S
H576 C560 0.931 . S
H577 C565 0.930 . S
H578 C566 0.956 . S
H579 C566 0.961 1_655 S
H580 C566 0.961 . S
H581 C567 0.958 . S
H582 C567 0.961 . S
H583 C567 0.960 . S
C584 C585 1.391 . S
C584 C586 1.394 . S
C584 H600 0.931 . S
C585 C584 1.391 . S
C585 C589 1.376 . S
C586 C584 1.394 . S
C586 C587 1.369 . S
C586 C590 1.531 . S
C587 C586 1.369 . S
C587 C588 1.410 . S
C587 C595 1.503 . S
C588 C587 1.410 . S
C588 C589 1.392 . S
C588 C591 1.511 . S
C589 C585 1.376 . S
C589 C588 1.392 . S
C589 H601 0.929 . S
C590 C586 1.531 . S
C590 H602 0.960 . S
C590 H603 0.962 . S
C590 H604 0.960 . S
C591 C588 1.511 . S
C591 H605 0.961 . S
C591 H606 0.961 . S
C591 H607 0.961 . S
C592 C593 1.370 . S
C592 C594 1.363 . S
C592 H608 0.931 . S
C593 C592 1.370 . S
C593 C597 1.408 . S
C594 C592 1.363 . S
C594 C595 1.370 . S
C594 C598 1.524 . S
C595 C587 1.503 . S
C595 C594 1.370 . S
C595 C596 1.403 . S
C596 C595 1.403 . S
C596 C597 1.404 . S
C596 C599 1.539 . S
C597 C593 1.408 . S
C597 C596 1.404 . S
C597 H609 0.930 . S
C598 C594 1.524 . S
C598 H610 0.956 . S
C598 H611 0.961 . S
C598 H612 0.961 . S
C599 C596 1.539 . S
C599 H613 0.958 . S
C599 H614 0.961 . S
C599 H615 0.960 . S
H600 C584 0.931 . S
H601 C589 0.929 . S
H602 C590 0.960 . S
H603 C590 0.962 . S
H604 C590 0.960 . S
H605 C591 0.961 . S
H606 C591 0.961 . S
H607 C591 0.961 . S
H608 C592 0.931 . S
H609 C597 0.930 . S
H610 C598 0.956 . S
H611 C598 0.961 . S
H612 C598 0.961 . S
H613 C599 0.958 . S
H614 C599 0.961 . S
H615 C599 0.960 . S
C616 C617 1.391 . S
C616 C618 1.394 . S
C616 H632 0.931 . S
C617 C616 1.391 . S
C617 C621 1.376 . S
C618 C616 1.394 . S
C618 C619 1.369 1_545 S
C618 C622 1.531 1_545 S
C619 C618 1.369 1_565 S
C619 C620 1.410 1_565 S
C619 C627 1.503 . S
C620 C619 1.410 1_545 S
C620 C621 1.392 . S
C620 C623 1.511 . S
C621 C617 1.376 . S
C621 C620 1.392 . S
C621 H633 0.929 . S
C622 C618 1.531 1_565 S
C622 H634 0.960 . S
C622 H635 0.962 . S
C622 H636 0.960 . S
C623 C620 1.511 . S
C623 H637 0.961 . S
C623 H638 0.961 1_545 S
C623 H639 0.961 . S
C624 C625 1.370 . S
C624 C626 1.363 . S
C624 H640 0.931 . S
C625 C624 1.370 . S
C625 C629 1.408 . S
C626 C624 1.363 . S
C626 C627 1.370 . S
C626 C630 1.524 . S
C627 C619 1.503 . S
C627 C626 1.370 . S
C627 C628 1.403 . S
C628 C627 1.403 . S
C628 C629 1.404 . S
C628 C631 1.539 . S
C629 C625 1.408 . S
C629 C628 1.404 . S
C629 H641 0.930 . S
C630 C626 1.524 . S
C630 H642 0.956 . S
C630 H643 0.961 . S
C630 H644 0.961 . S
C631 C628 1.539 . S
C631 H645 0.958 . S
C631 H646 0.961 . S
C631 H647 0.960 1_565 S
H632 C616 0.931 . S
H633 C621 0.929 . S
H634 C622 0.960 . S
H635 C622 0.962 . S
H636 C622 0.960 . S
H637 C623 0.961 . S
H638 C623 0.961 1_565 S
H639 C623 0.961 . S
H640 C624 0.931 . S
H641 C629 0.930 . S
H642 C630 0.956 . S
H643 C630 0.961 . S
H644 C630 0.961 . S
H645 C631 0.958 . S
H646 C631 0.961 . S
H647 C631 0.960 1_545 S
C648 C649 1.391 . S
C648 C650 1.394 . S
C648 H664 0.931 . S
C649 C648 1.391 . S
C649 C653 1.376 . S
C650 C648 1.394 . S
C650 C651 1.369 . S
C650 C654 1.531 . S
C651 C650 1.369 . S
C651 C652 1.410 . S
C651 C659 1.503 . S
C652 C651 1.410 . S
C652 C653 1.392 . S
C652 C655 1.511 . S
C653 C649 1.376 . S
C653 C652 1.392 . S
C653 H665 0.929 . S
C654 C650 1.531 . S
C654 H666 0.960 . S
C654 H667 0.962 . S
C654 H668 0.960 . S
C655 C652 1.511 . S
C655 H669 0.961 . S
C655 H670 0.961 . S
C655 H671 0.961 . S
C656 C657 1.370 . S
C656 C658 1.363 . S
C656 H672 0.931 . S
C657 C656 1.370 . S
C657 C661 1.408 . S
C658 C656 1.363 . S
C658 C659 1.370 . S
C658 C662 1.524 . S
C659 C651 1.503 . S
C659 C658 1.370 . S
C659 C660 1.403 . S
C660 C659 1.403 . S
C660 C661 1.404 . S
C660 C663 1.539 . S
C661 C657 1.408 . S
C661 C660 1.404 . S
C661 H673 0.930 . S
C662 C658 1.524 . S
C662 H674 0.956 . S
C662 H675 0.961 . S
C662 H676 0.961 . S
C663 C660 1.539 . S
C663 H677 0.958 . S
C663 H678 0.961 . S
C663 H679 0.960 . S
H664 C648 0.931 . S
H665 C653 0.929 . S
H666 C654 0.960 . S
H667 C654 0.962 . S
H668 C654 0.960 . S
H669 C655 0.961 . S
H670 C655 0.961 . S
H671 C655 0.961 . S
H672 C656 0.931 . S
H673 C661 0.930 . S
H674 C662 0.956 . S
H675 C662 0.961 . S
H676 C662 0.961 . S
H677 C663 0.958 . S
H678 C663 0.961 . S
H679 C663 0.960 . S
C680 C681 1.391 . S
C680 C682 1.394 . S
C680 H696 0.931 . S
C681 C680 1.391 . S
C681 C685 1.376 . S
C682 C680 1.394 . S
C682 C683 1.369 . S
C682 C686 1.531 . S
C683 C682 1.369 . S
C683 C684 1.410 . S
C683 C691 1.503 . S
C684 C683 1.410 . S
C684 C685 1.392 . S
C684 C687 1.511 . S
C685 C681 1.376 . S
C685 C684 1.392 . S
C685 H697 0.929 . S
C686 C682 1.531 . S
C686 H698 0.960 . S
C686 H699 0.962 . S
C686 H700 0.960 . S
C687 C684 1.511 . S
C687 H701 0.961 . S
C687 H702 0.961 . S
C687 H703 0.961 . S
C688 C689 1.370 . S
C688 C690 1.363 . S
C688 H704 0.931 . S
C689 C688 1.370 . S
C689 C693 1.408 . S
C690 C688 1.363 . S
C690 C691 1.370 . S
C690 C694 1.524 . S
C691 C683 1.503 . S
C691 C690 1.370 . S
C691 C692 1.403 . S
C692 C691 1.403 . S
C692 C693 1.404 . S
C692 C695 1.539 . S
C693 C689 1.408 . S
C693 C692 1.404 . S
C693 H705 0.930 . S
C694 C690 1.524 . S
C694 H706 0.956 . S
C694 H707 0.961 . S
C694 H708 0.961 . S
C695 C692 1.539 . S
C695 H709 0.958 . S
C695 H710 0.961 . S
C695 H711 0.960 . S
H696 C680 0.931 . S
H697 C685 0.929 . S
H698 C686 0.960 . S
H699 C686 0.962 . S
H700 C686 0.960 . S
H701 C687 0.961 . S
H702 C687 0.961 . S
H703 C687 0.961 . S
H704 C688 0.931 . S
H705 C693 0.930 . S
H706 C694 0.956 . S
H707 C694 0.961 . S
H708 C694 0.961 . S
H709 C695 0.958 . S
H710 C695 0.961 . S
H711 C695 0.960 . S
C712 C713 1.391 . S
C712 C714 1.394 . S
C712 H728 0.931 . S
C713 C712 1.391 . S
C713 C717 1.376 . S
C714 C712 1.394 . S
C714 C715 1.369 . S
C714 C718 1.531 . S
C715 C714 1.369 . S
C715 C716 1.410 . S
C715 C723 1.503 . S
C716 C715 1.410 . S
C716 C717 1.392 . S
C716 C719 1.511 . S
C717 C713 1.376 . S
C717 C716 1.392 . S
C717 H729 0.929 . S
C718 C714 1.531 . S
C718 H730 0.960 . S
C718 H731 0.962 . S
C718 H732 0.960 . S
C719 C716 1.511 . S
C719 H733 0.961 . S
C719 H734 0.961 . S
C719 H735 0.961 . S
C720 C721 1.370 . S
C720 C722 1.363 . S
C720 H736 0.931 . S
C721 C720 1.370 . S
C721 C725 1.408 . S
C722 C720 1.363 . S
C722 C723 1.370 . S
C722 C726 1.524 . S
C723 C715 1.503 . S
C723 C722 1.370 . S
C723 C724 1.403 . S
C724 C723 1.403 . S
C724 C725 1.404 . S
C724 C727 1.539 . S
C725 C721 1.408 . S
C725 C724 1.404 . S
C725 H737 0.930 . S
C726 C722 1.524 . S
C726 H738 0.956 . S
C726 H739 0.961 . S
C726 H740 0.961 . S
C727 C724 1.539 . S
C727 H741 0.958 . S
C727 H742 0.961 . S
C727 H743 0.960 . S
H728 C712 0.931 . S
H729 C717 0.929 . S
H730 C718 0.960 . S
H731 C718 0.962 . S
H732 C718 0.960 . S
H733 C719 0.961 . S
H734 C719 0.961 . S
H735 C719 0.961 . S
H736 C720 0.931 . S
H737 C725 0.930 . S
H738 C726 0.956 . S
H739 C726 0.961 . S
H740 C726 0.961 . S
H741 C727 0.958 . S
H742 C727 0.961 . S
H743 C727 0.960 . S
C744 C745 1.391 . S
C744 C746 1.394 . S
C744 H760 0.931 . S
C745 C744 1.391 . S
C745 C749 1.376 . S
C746 C744 1.394 . S
C746 C747 1.369 . S
C746 C750 1.531 . S
C747 C746 1.369 . S
C747 C748 1.410 . S
C747 C755 1.503 . S
C748 C747 1.410 . S
C748 C749 1.392 . S
C748 C751 1.511 . S
C749 C745 1.376 . S
C749 C748 1.392 . S
C749 H761 0.929 . S
C750 C746 1.531 . S
C750 H762 0.960 . S
C750 H763 0.962 . S
C750 H764 0.960 . S
C751 C748 1.511 . S
C751 H765 0.961 . S
C751 H766 0.961 . S
C751 H767 0.961 . S
C752 C753 1.370 . S
C752 C754 1.363 . S
C752 H768 0.931 . S
C753 C752 1.370 . S
C753 C757 1.408 . S
C754 C752 1.363 . S
C754 C755 1.370 . S
C754 C758 1.524 . S
C755 C747 1.503 . S
C755 C754 1.370 . S
C755 C756 1.403 . S
C756 C755 1.403 . S
C756 C757 1.404 . S
C756 C759 1.539 . S
C757 C753 1.408 . S
C757 C756 1.404 . S
C757 H769 0.930 . S
C758 C754 1.524 . S
C758 H770 0.956 . S
C758 H771 0.961 . S
C758 H772 0.961 . S
C759 C756 1.539 . S
C759 H773 0.958 . S
C759 H774 0.961 . S
C759 H775 0.960 . S
H760 C744 0.931 . S
H761 C749 0.929 . S
H762 C750 0.960 . S
H763 C750 0.962 . S
H764 C750 0.960 . S
H765 C751 0.961 . S
H766 C751 0.961 . S
H767 C751 0.961 . S
H768 C752 0.931 . S
H769 C757 0.930 . S
H770 C758 0.956 . S
H771 C758 0.961 . S
H772 C758 0.961 . S
H773 C759 0.958 . S
H774 C759 0.961 . S
H775 C759 0.960 . S
C776 C777 1.391 . S
C776 C778 1.394 . S
C776 H792 0.931 . S
C777 C776 1.391 . S
C777 C781 1.376 . S
C778 C776 1.394 . S
C778 C779 1.369 . S
C778 C782 1.531 . S
C779 C778 1.369 . S
C779 C780 1.410 . S
C779 C787 1.503 . S
C780 C779 1.410 . S
C780 C781 1.392 . S
C780 C783 1.511 . S
C781 C777 1.376 . S
C781 C780 1.392 . S
C781 H793 0.929 . S
C782 C778 1.531 . S
C782 H794 0.960 . S
C782 H795 0.962 . S
C782 H796 0.960 . S
C783 C780 1.511 . S
C783 H797 0.961 . S
C783 H798 0.961 . S
C783 H799 0.961 . S
C784 C785 1.370 . S
C784 C786 1.363 . S
C784 H800 0.931 . S
C785 C784 1.370 . S
C785 C789 1.408 . S
C786 C784 1.363 . S
C786 C787 1.370 . S
C786 C790 1.524 . S
C787 C779 1.503 . S
C787 C786 1.370 . S
C787 C788 1.403 . S
C788 C787 1.403 . S
C788 C789 1.404 . S
C788 C791 1.539 . S
C789 C785 1.408 . S
C789 C788 1.404 . S
C789 H801 0.930 . S
C790 C786 1.524 . S
C790 H802 0.956 . S
C790 H803 0.961 . S
C790 H804 0.961 . S
C791 C788 1.539 . S
C791 H805 0.958 . S
C791 H806 0.961 . S
C791 H807 0.960 . S
H792 C776 0.931 . S
H793 C781 0.929 . S
H794 C782 0.960 . S
H795 C782 0.962 . S
H796 C782 0.960 . S
H797 C783 0.961 . S
H798 C783 0.961 . S
H799 C783 0.961 . S
H800 C784 0.931 . S
H801 C789 0.930 . S
H802 C790 0.956 . S
H803 C790 0.961 . S
H804 C790 0.961 . S
H805 C791 0.958 . S
H806 C791 0.961 . S
H807 C791 0.960 . S
C808 C809 1.391 . S
C808 C810 1.394 . S
C808 H824 0.931 . S
C809 C808 1.391 . S
C809 C813 1.376 . S
C810 C808 1.394 . S
C810 C811 1.369 . S
C810 C814 1.531 . S
C811 C810 1.369 . S
C811 C812 1.410 . S
C811 C819 1.503 . S
C812 C811 1.410 . S
C812 C813 1.392 . S
C812 C815 1.511 . S
C813 C809 1.376 . S
C813 C812 1.392 . S
C813 H825 0.929 . S
C814 C810 1.531 . S
C814 H826 0.960 . S
C814 H827 0.962 . S
C814 H828 0.960 . S
C815 C812 1.511 . S
C815 H829 0.961 . S
C815 H830 0.961 . S
C815 H831 0.961 . S
C816 C817 1.370 . S
C816 C818 1.363 . S
C816 H832 0.931 . S
C817 C816 1.370 . S
C817 C821 1.408 . S
C818 C816 1.363 . S
C818 C819 1.370 . S
C818 C822 1.524 . S
C819 C811 1.503 . S
C819 C818 1.370 . S
C819 C820 1.403 . S
C820 C819 1.403 . S
C820 C821 1.404 . S
C820 C823 1.539 . S
C821 C817 1.408 . S
C821 C820 1.404 . S
C821 H833 0.930 . S
C822 C818 1.524 . S
C822 H834 0.956 . S
C822 H835 0.961 . S
C822 H836 0.961 . S
C823 C820 1.539 . S
C823 H837 0.958 . S
C823 H838 0.961 . S
C823 H839 0.960 . S
H824 C808 0.931 . S
H825 C813 0.929 . S
H826 C814 0.960 . S
H827 C814 0.962 . S
H828 C814 0.960 . S
H829 C815 0.961 . S
H830 C815 0.961 . S
H831 C815 0.961 . S
H832 C816 0.931 . S
H833 C821 0.930 . S
H834 C822 0.956 . S
H835 C822 0.961 . S
H836 C822 0.961 . S
H837 C823 0.958 . S
H838 C823 0.961 . S
H839 C823 0.960 . S
C840 C841 1.391 . S
C840 C842 1.394 . S
C840 H856 0.931 . S
C841 C840 1.391 . S
C841 C845 1.376 . S
C842 C840 1.394 . S
C842 C843 1.369 . S
C842 C846 1.531 . S
C843 C842 1.369 . S
C843 C844 1.410 . S
C843 C851 1.503 . S
C844 C843 1.410 . S
C844 C845 1.392 . S
C844 C847 1.511 . S
C845 C841 1.376 . S
C845 C844 1.392 . S
C845 H857 0.929 . S
C846 C842 1.531 . S
C846 H858 0.960 . S
C846 H859 0.962 . S
C846 H860 0.960 . S
C847 C844 1.511 . S
C847 H861 0.961 . S
C847 H862 0.961 . S
C847 H863 0.961 . S
C848 C849 1.370 . S
C848 C850 1.363 1_545 S
C848 H864 0.931 . S
C849 C848 1.370 . S
C849 C853 1.408 . S
C850 C848 1.363 1_565 S
C850 C851 1.370 . S
C850 C854 1.524 . S
C851 C843 1.503 . S
C851 C850 1.370 . S
C851 C852 1.403 1_565 S
C852 C851 1.403 1_545 S
C852 C853 1.404 . S
C852 C855 1.539 . S
C853 C849 1.408 . S
C853 C852 1.404 . S
C853 H865 0.930 . S
C854 C850 1.524 . S
C854 H866 0.956 . S
C854 H867 0.961 . S
C854 H868 0.961 . S
C855 C852 1.539 . S
C855 H869 0.958 . S
C855 H870 0.961 . S
C855 H871 0.960 1_545 S
H856 C840 0.931 . S
H857 C845 0.929 . S
H858 C846 0.960 . S
H859 C846 0.962 . S
H860 C846 0.960 . S
H861 C847 0.961 . S
H862 C847 0.961 . S
H863 C847 0.961 . S
H864 C848 0.931 . S
H865 C853 0.930 . S
H866 C854 0.956 . S
H867 C854 0.961 . S
H868 C854 0.961 . S
H869 C855 0.958 . S
H870 C855 0.961 . S
H871 C855 0.960 1_565 S
C872 C873 1.391 . S
C872 C874 1.394 . S
C872 H888 0.931 . S
C873 C872 1.391 . S
C873 C877 1.376 . S
C874 C872 1.394 . S
C874 C875 1.369 . S
C874 C878 1.531 . S
C875 C874 1.369 . S
C875 C876 1.410 . S
C875 C883 1.503 . S
C876 C875 1.410 . S
C876 C877 1.392 . S
C876 C879 1.511 . S
C877 C873 1.376 . S
C877 C876 1.392 . S
C877 H889 0.929 . S
C878 C874 1.531 . S
C878 H890 0.960 1_565 S
C878 H891 0.962 . S
C878 H892 0.960 . S
C879 C876 1.511 . S
C879 H893 0.961 . S
C879 H894 0.961 . S
C879 H895 0.961 1_565 S
C880 C881 1.370 1_565 S
C880 C882 1.363 . S
C880 H896 0.931 . S
C881 C880 1.370 1_545 S
C881 C885 1.408 . S
C882 C880 1.363 . S
C882 C883 1.370 . S
C882 C886 1.524 . S
C883 C875 1.503 . S
C883 C882 1.370 . S
C883 C884 1.403 1_565 S
C884 C883 1.403 1_545 S
C884 C885 1.404 . S
C884 C887 1.539 . S
C885 C881 1.408 . S
C885 C884 1.404 . S
C885 H897 0.930 . S
C886 C882 1.524 . S
C886 H898 0.956 . S
C886 H899 0.961 . S
C886 H900 0.961 . S
C887 C884 1.539 . S
C887 H901 0.958 . S
C887 H902 0.961 . S
C887 H903 0.960 . S
H888 C872 0.931 . S
H889 C877 0.929 . S
H890 C878 0.960 1_545 S
H891 C878 0.962 . S
H892 C878 0.960 . S
H893 C879 0.961 . S
H894 C879 0.961 . S
H895 C879 0.961 1_545 S
H896 C880 0.931 . S
H897 C885 0.930 . S
H898 C886 0.956 . S
H899 C886 0.961 . S
H900 C886 0.961 . S
H901 C887 0.958 . S
H902 C887 0.961 . S
H903 C887 0.960 . S
C904 C905 1.391 . S
C904 C906 1.394 . S
C904 H920 0.931 . S
C905 C904 1.391 . S
C905 C909 1.376 . S
C906 C904 1.394 . S
C906 C907 1.369 . S
C906 C910 1.531 . S
C907 C906 1.369 . S
C907 C908 1.410 . S
C907 C915 1.503 . S
C908 C907 1.410 . S
C908 C909 1.392 . S
C908 C911 1.511 . S
C909 C905 1.376 . S
C909 C908 1.392 . S
C909 H921 0.929 . S
C910 C906 1.531 . S
C910 H922 0.960 . S
C910 H923 0.962 . S
C910 H924 0.960 . S
C911 C908 1.511 . S
C911 H925 0.961 . S
C911 H926 0.961 . S
C911 H927 0.961 . S
C912 C913 1.370 . S
C912 C914 1.363 . S
C912 H928 0.931 . S
C913 C912 1.370 . S
C913 C917 1.408 . S
C914 C912 1.363 . S
C914 C915 1.370 . S
C914 C918 1.524 . S
C915 C907 1.503 . S
C915 C914 1.370 . S
C915 C916 1.403 . S
C916 C915 1.403 . S
C916 C917 1.404 . S
C916 C919 1.539 . S
C917 C913 1.408 . S
C917 C916 1.404 . S
C917 H929 0.930 . S
C918 C914 1.524 . S
C918 H930 0.956 . S
C918 H931 0.961 . S
C918 H932 0.961 . S
C919 C916 1.539 . S
C919 H933 0.958 . S
C919 H934 0.961 . S
C919 H935 0.960 . S
H920 C904 0.931 . S
H921 C909 0.929 . S
H922 C910 0.960 . S
H923 C910 0.962 . S
H924 C910 0.960 . S
H925 C911 0.961 . S
H926 C911 0.961 . S
H927 C911 0.961 . S
H928 C912 0.931 . S
H929 C917 0.930 . S
H930 C918 0.956 . S
H931 C918 0.961 . S
H932 C918 0.961 . S
H933 C919 0.958 . S
H934 C919 0.961 . S
H935 C919 0.960 . S
C936 C937 1.391 . S
C936 C938 1.394 . S
C936 H952 0.931 . S
C937 C936 1.391 . S
C937 C941 1.376 . S
C938 C936 1.394 . S
C938 C939 1.369 . S
C938 C942 1.531 . S
C939 C938 1.369 . S
C939 C940 1.410 . S
C939 C947 1.503 . S
C940 C939 1.410 . S
C940 C941 1.392 . S
C940 C943 1.511 . S
C941 C937 1.376 . S
C941 C940 1.392 . S
C941 H953 0.929 . S
C942 C938 1.531 . S
C942 H954 0.960 . S
C942 H955 0.962 . S
C942 H956 0.960 . S
C943 C940 1.511 . S
C943 H957 0.961 . S
C943 H958 0.961 . S
C943 H959 0.961 . S
C944 C945 1.370 . S
C944 C946 1.363 . S
C944 H960 0.931 . S
C945 C944 1.370 . S
C945 C949 1.408 . S
C946 C944 1.363 . S
C946 C947 1.370 . S
C946 C950 1.524 . S
C947 C939 1.503 . S
C947 C946 1.370 . S
C947 C948 1.403 . S
C948 C947 1.403 . S
C948 C949 1.404 . S
C948 C951 1.539 . S
C949 C945 1.408 . S
C949 C948 1.404 . S
C949 H961 0.930 . S
C950 C946 1.524 . S
C950 H962 0.956 . S
C950 H963 0.961 . S
C950 H964 0.999 . S
C951 C948 1.539 . S
C951 H965 0.958 . S
C951 H966 0.961 . S
C951 H967 0.960 . S
H952 C936 0.931 . S
H953 C941 0.929 . S
H954 C942 0.960 . S
H955 C942 0.962 . S
H956 C942 0.960 . S
H957 C943 0.961 . S
H958 C943 0.961 . S
H959 C943 0.961 . S
H960 C944 0.931 . S
H961 C949 0.930 . S
H962 C950 0.956 . S
H963 C950 0.961 . S
H964 C950 0.999 . S
H965 C951 0.958 . S
H966 C951 0.961 . S
H967 C951 0.960 . S
C968 C969 1.391 . S
C968 C970 1.394 . S
C968 H984 0.931 . S
C969 C968 1.391 . S
C969 C973 1.376 . S
C970 C968 1.394 . S
C970 C971 1.369 . S
C970 C974 1.531 . S
C971 C970 1.369 . S
C971 C972 1.410 . S
C971 C979 1.503 . S
C972 C971 1.410 . S
C972 C973 1.392 . S
C972 C975 1.511 . S
C973 C969 1.376 . S
C973 C972 1.392 . S
C973 H985 0.929 . S
C974 C970 1.531 . S
C974 H986 0.960 . S
C974 H987 0.962 . S
C974 H988 0.960 . S
C975 C972 1.511 . S
C975 H989 0.961 . S
C975 H990 0.961 . S
C975 H991 0.961 . S
C976 C977 1.370 . S
C976 C978 1.363 . S
C976 H992 0.931 . S
C977 C976 1.370 . S
C977 C981 1.408 . S
C978 C976 1.363 . S
C978 C979 1.370 . S
C978 C982 1.524 . S
C979 C971 1.503 . S
C979 C978 1.370 . S
C979 C980 1.403 . S
C980 C979 1.403 . S
C980 C981 1.404 . S
C980 C983 1.539 . S
C981 C977 1.408 . S
C981 C980 1.404 . S
C981 H993 0.930 . S
C982 C978 1.524 . S
C982 H994 0.956 . S
C982 H995 0.961 . S
C982 H996 0.961 . S
C983 C980 1.539 . S
C983 H997 0.958 . S
C983 H998 0.961 . S
C983 H999 0.960 . S
H984 C968 0.931 . S
H985 C973 0.929 . S
H986 C974 0.960 . S
H987 C974 0.962 . S
H988 C974 0.960 . S
H989 C975 0.961 . S
H990 C975 0.961 . S
H991 C975 0.961 . S
H992 C976 0.931 . S
H993 C981 0.930 . S
H994 C982 0.956 . S
H995 C982 0.961 . S
H996 C982 0.961 . S
H997 C983 0.958 . S
H998 C983 0.961 . S
H999 C983 0.960 . S
C1000 C1001 1.391 . S
C1000 C1002 1.394 . S
C1000 H1016 0.931 . S
C1001 C1000 1.391 . S
C1001 C1005 1.376 . S
C1002 C1000 1.394 . S
C1002 C1003 1.369 . S
C1002 C1006 1.531 . S
C1003 C1002 1.369 . S
C1003 C1004 1.410 . S
C1003 C1011 1.503 . S
C1004 C1003 1.410 . S
C1004 C1005 1.392 . S
C1004 C1007 1.511 1_565 S
C1005 C1001 1.376 . S
C1005 C1004 1.392 . S
C1005 H1017 0.929 1_565 S
C1006 C1002 1.531 . S
C1006 H1018 0.960 . S
C1006 H1019 0.962 . S
C1006 H1020 0.960 . S
C1007 C1004 1.511 1_545 S
C1007 H1021 0.961 . S
C1007 H1022 0.961 . S
C1007 H1023 0.961 . S
C1008 C1009 1.370 . S
C1008 C1010 1.363 . S
C1008 H1024 0.931 . S
C1009 C1008 1.370 . S
C1009 C1013 1.408 . S
C1010 C1008 1.363 . S
C1010 C1011 1.370 . S
C1010 C1014 1.524 . S
C1011 C1003 1.503 . S
C1011 C1010 1.370 . S
C1011 C1012 1.403 . S
C1012 C1011 1.403 . S
C1012 C1013 1.404 . S
C1012 C1015 1.539 . S
C1013 C1009 1.408 . S
C1013 C1012 1.404 . S
C1013 H1025 0.930 . S
C1014 C1010 1.524 . S
C1014 H1026 0.956 . S
C1014 H1027 0.961 . S
C1014 H1028 0.961 . S
C1015 C1012 1.539 . S
C1015 H1029 0.958 . S
C1015 H1030 0.961 . S
C1015 H1031 0.960 . S
H1016 C1000 0.931 . S
H1017 C1005 0.929 1_545 S
H1018 C1006 0.960 . S
H1019 C1006 0.962 . S
H1020 C1006 0.960 . S
H1021 C1007 0.961 . S
H1022 C1007 0.961 . S
H1023 C1007 0.961 . S
H1024 C1008 0.931 . S
H1025 C1013 0.930 . S
H1026 C1014 0.956 . S
H1027 C1014 0.961 . S
H1028 C1014 0.961 . S
H1029 C1015 0.958 . S
H1030 C1015 0.961 . S
H1031 C1015 0.960 . S
C1032 C1033 1.391 . S
C1032 C1034 1.394 . S
C1032 H1048 0.931 . S
C1033 C1032 1.391 . S
C1033 C1037 1.376 . S
C1034 C1032 1.394 . S
C1034 C1035 1.369 . S
C1034 C1038 1.531 . S
C1035 C1034 1.369 . S
C1035 C1036 1.410 . S
C1035 C1043 1.503 . S
C1036 C1035 1.410 . S
C1036 C1037 1.392 . S
C1036 C1039 1.511 . S
C1037 C1033 1.376 . S
C1037 C1036 1.392 . S
C1037 H1049 0.929 . S
C1038 C1034 1.531 . S
C1038 H1050 0.960 . S
C1038 H1051 0.962 . S
C1038 H1052 0.960 . S
C1039 C1036 1.511 . S
C1039 H1053 0.961 . S
C1039 H1054 0.961 . S
C1039 H1055 0.961 . S
C1040 C1041 1.370 . S
C1040 C1042 1.363 . S
C1040 H1056 0.931 . S
C1041 C1040 1.370 . S
C1041 C1045 1.408 . S
C1042 C1040 1.363 . S
C1042 C1043 1.370 . S
C1042 C1046 1.524 1_545 S
C1043 C1035 1.503 . S
C1043 C1042 1.370 . S
C1043 C1044 1.403 . S
C1044 C1043 1.403 . S
C1044 C1045 1.404 . S
C1044 C1047 1.539 . S
C1045 C1041 1.408 . S
C1045 C1044 1.404 . S
C1045 H1057 0.930 . S
C1046 C1042 1.524 1_565 S
C1046 H1058 0.956 . S
C1046 H1059 0.961 . S
C1046 H1060 0.961 . S
C1047 C1044 1.539 . S
C1047 H1061 0.958 . S
C1047 H1062 0.961 . S
C1047 H1063 0.960 . S
H1048 C1032 0.931 . S
H1049 C1037 0.929 . S
H1050 C1038 0.960 . S
H1051 C1038 0.962 . S
H1052 C1038 0.960 . S
H1053 C1039 0.961 . S
H1054 C1039 0.961 . S
H1055 C1039 0.961 . S
H1056 C1040 0.931 . S
H1057 C1045 0.930 . S
H1058 C1046 0.956 . S
H1059 C1046 0.961 . S
H1060 C1046 0.961 . S
H1061 C1047 0.958 . S
H1062 C1047 0.961 . S
H1063 C1047 0.960 . S
C1064 C1065 1.391 . S
C1064 C1066 1.394 . S
C1064 H1080 0.931 . S
C1065 C1064 1.391 . S
C1065 C1069 1.376 . S
C1066 C1064 1.394 . S
C1066 C1067 1.369 . S
C1066 C1070 1.531 . S
C1067 C1066 1.369 . S
C1067 C1068 1.410 . S
C1067 C1075 1.503 . S
C1068 C1067 1.410 . S
C1068 C1069 1.392 . S
C1068 C1071 1.511 1_655 S
C1069 C1065 1.376 . S
C1069 C1068 1.392 . S
C1069 H1081 0.929 1_655 S
C1070 C1066 1.531 . S
C1070 H1082 0.960 . S
C1070 H1083 0.962 . S
C1070 H1084 0.960 . S
C1071 C1068 1.511 1_455 S
C1071 H1085 0.961 . S
C1071 H1086 0.961 1_455 S
C1071 H1087 0.961 . S
C1072 C1073 1.370 . S
C1072 C1074 1.363 . S
C1072 H1088 0.931 . S
C1073 C1072 1.370 . S
C1073 C1077 1.408 . S
C1074 C1072 1.363 . S
C1074 C1075 1.370 . S
C1074 C1078 1.524 . S
C1075 C1067 1.503 . S
C1075 C1074 1.370 . S
C1075 C1076 1.403 . S
C1076 C1075 1.403 . S
C1076 C1077 1.404 . S
C1076 C1079 1.539 . S
C1077 C1073 1.408 . S
C1077 C1076 1.404 . S
C1077 H1089 0.930 . S
C1078 C1074 1.524 . S
C1078 H1090 0.956 . S
C1078 H1091 0.961 . S
C1078 H1092 0.961 . S
C1079 C1076 1.539 . S
C1079 H1093 0.958 . S
C1079 H1094 0.961 . S
C1079 H1095 0.960 . S
H1080 C1064 0.931 . S
H1081 C1069 0.929 1_455 S
H1082 C1070 0.960 . S
H1083 C1070 0.962 . S
H1084 C1070 0.960 . S
H1085 C1071 0.961 . S
H1086 C1071 0.961 1_655 S
H1087 C1071 0.961 . S
H1088 C1072 0.931 . S
H1089 C1077 0.930 . S
H1090 C1078 0.956 . S
H1091 C1078 0.961 . S
H1092 C1078 0.961 . S
H1093 C1079 0.958 . S
H1094 C1079 0.961 . S
H1095 C1079 0.960 . S
C1096 C1097 1.391 . S
C1096 C1098 1.394 . S
C1096 H1112 0.931 . S
C1097 C1096 1.391 . S
C1097 C1101 1.376 . S
C1098 C1096 1.394 . S
C1098 C1099 1.369 . S
C1098 C1102 1.531 . S
C1099 C1098 1.369 . S
C1099 C1100 1.410 . S
C1099 C1107 1.503 . S
C1100 C1099 1.410 . S
C1100 C1101 1.392 . S
C1100 C1103 1.511 . S
C1101 C1097 1.376 . S
C1101 C1100 1.392 . S
C1101 H1113 0.929 . S
C1102 C1098 1.531 . S
C1102 H1114 0.960 . S
C1102 H1115 0.962 . S
C1102 H1116 0.960 . S
C1103 C1100 1.511 . S
C1103 H1117 0.961 . S
C1103 H1118 0.961 . S
C1103 H1119 0.961 . S
C1104 C1105 1.370 . S
C1104 C1106 1.363 . S
C1104 H1120 0.931 . S
C1105 C1104 1.370 . S
C1105 C1109 1.408 . S
C1106 C1104 1.363 . S
C1106 C1107 1.370 . S
C1106 C1110 1.524 . S
C1107 C1099 1.503 . S
C1107 C1106 1.370 . S
C1107 C1108 1.403 . S
C1108 C1107 1.403 . S
C1108 C1109 1.404 . S
C1108 C1111 1.539 . S
C1109 C1105 1.408 . S
C1109 C1108 1.404 . S
C1109 H1121 0.930 . S
C1110 C1106 1.524 . S
C1110 H1122 0.956 . S
C1110 H1123 0.961 . S
C1110 H1124 0.961 . S
C1111 C1108 1.539 . S
C1111 H1125 0.958 . S
C1111 H1126 0.961 . S
C1111 H1127 0.960 . S
H1112 C1096 0.931 . S
H1113 C1101 0.929 . S
H1114 C1102 0.960 . S
H1115 C1102 0.962 . S
H1116 C1102 0.960 . S
H1117 C1103 0.961 . S
H1118 C1103 0.961 . S
H1119 C1103 0.961 . S
H1120 C1104 0.931 . S
H1121 C1109 0.930 . S
H1122 C1110 0.956 . S
H1123 C1110 0.961 . S
H1124 C1110 0.961 . S
H1125 C1111 0.958 . S
H1126 C1111 0.961 . S
H1127 C1111 0.960 . S
C1128 C1129 1.391 . S
C1128 C1130 1.394 . S
C1128 H1144 0.931 . S
C1129 C1128 1.391 . S
C1129 C1133 1.376 . S
C1130 C1128 1.394 . S
C1130 C1131 1.369 . S
C1130 C1134 1.531 . S
C1131 C1130 1.369 . S
C1131 C1132 1.410 . S
C1131 C1139 1.503 . S
C1132 C1131 1.410 . S
C1132 C1133 1.392 . S
C1132 C1135 1.511 . S
C1133 C1129 1.376 . S
C1133 C1132 1.392 . S
C1133 H1145 0.929 . S
C1134 C1130 1.531 . S
C1134 H1146 0.960 . S
C1134 H1147 0.962 . S
C1134 H1148 0.960 . S
C1135 C1132 1.511 . S
C1135 H1149 0.961 . S
C1135 H1150 0.961 . S
C1135 H1151 0.961 . S
C1136 C1137 1.370 . S
C1136 C1138 1.363 . S
C1136 H1152 0.931 . S
C1137 C1136 1.370 . S
C1137 C1141 1.408 . S
C1138 C1136 1.363 . S
C1138 C1139 1.370 . S
C1138 C1142 1.524 . S
C1139 C1131 1.503 . S
C1139 C1138 1.370 . S
C1139 C1140 1.403 . S
C1140 C1139 1.403 . S
C1140 C1141 1.404 . S
C1140 C1143 1.539 . S
C1141 C1137 1.408 . S
C1141 C1140 1.404 . S
C1141 H1153 0.930 . S
C1142 C1138 1.524 . S
C1142 H1154 0.956 . S
C1142 H1155 0.961 . S
C1142 H1156 0.961 . S
C1143 C1140 1.539 . S
C1143 H1157 0.958 . S
C1143 H1158 0.961 . S
C1143 H1159 0.960 . S
H1144 C1128 0.931 . S
H1145 C1133 0.929 . S
H1146 C1134 0.960 . S
H1147 C1134 0.962 . S
H1148 C1134 0.960 . S
H1149 C1135 0.961 . S
H1150 C1135 0.961 . S
H1151 C1135 0.961 . S
H1152 C1136 0.931 . S
H1153 C1141 0.930 . S
H1154 C1142 0.956 . S
H1155 C1142 0.961 . S
H1156 C1142 0.961 . S
H1157 C1143 0.958 . S
H1158 C1143 0.961 . S
H1159 C1143 0.960 . S
C1160 C1161 1.391 . S
C1160 C1162 1.394 . S
C1160 H1176 0.931 . S
C1161 C1160 1.391 . S
C1161 C1165 1.376 . S
C1162 C1160 1.394 . S
C1162 C1163 1.369 . S
C1162 C1166 1.531 . S
C1163 C1162 1.369 . S
C1163 C1164 1.410 . S
C1163 C1171 1.503 1_565 S
C1164 C1163 1.410 . S
C1164 C1165 1.392 . S
C1164 C1167 1.511 1_565 S
C1165 C1161 1.376 . S
C1165 C1164 1.392 . S
C1165 H1177 0.929 . S
C1166 C1162 1.531 . S
C1166 H1178 0.960 1_565 S
C1166 H1179 0.962 . S
C1166 H1180 0.960 . S
C1167 C1164 1.511 1_545 S
C1167 H1181 0.961 . S
C1167 H1182 0.961 . S
C1167 H1183 0.961 . S
C1168 C1169 1.370 . S
C1168 C1170 1.363 . S
C1168 H1184 0.931 . S
C1169 C1168 1.370 . S
C1169 C1173 1.408 . S
C1170 C1168 1.363 . S
C1170 C1171 1.370 . S
C1170 C1174 1.524 1_545 S
C1171 C1163 1.503 1_545 S
C1171 C1170 1.370 . S
C1171 C1172 1.403 . S
C1172 C1171 1.403 . S
C1172 C1173 1.404 . S
C1172 C1175 1.539 . S
C1173 C1169 1.408 . S
C1173 C1172 1.404 . S
C1173 H1185 0.930 . S
C1174 C1170 1.524 1_565 S
C1174 H1186 0.956 . S
C1174 H1187 0.961 . S
C1174 H1188 0.961 . S
C1175 C1172 1.539 . S
C1175 H1189 0.958 . S
C1175 H1190 0.961 . S
C1175 H1191 0.960 . S
H1176 C1160 0.931 . S
H1177 C1165 0.929 . S
H1178 C1166 0.960 1_545 S
H1179 C1166 0.962 . S
H1180 C1166 0.960 . S
H1181 C1167 0.961 . S
H1182 C1167 0.961 . S
H1183 C1167 0.961 . S
H1184 C1168 0.931 . S
H1185 C1173 0.930 . S
H1186 C1174 0.956 . S
H1187 C1174 0.961 . S
H1188 C1174 0.961 . S
H1189 C1175 0.958 . S
H1190 C1175 0.961 . S
H1191 C1175 0.960 . S
C1192 C1193 1.391 . S
C1192 C1194 1.394 . S
C1192 H1208 0.931 . S
C1193 C1192 1.391 . S
C1193 C1197 1.376 . S
C1194 C1192 1.394 . S
C1194 C1195 1.369 . S
C1194 C1198 1.531 . S
C1195 C1194 1.369 . S
C1195 C1196 1.410 . S
C1195 C1203 1.503 1_655 S
C1196 C1195 1.410 . S
C1196 C1197 1.392 . S
C1196 C1199 1.511 1_655 S
C1197 C1193 1.376 . S
C1197 C1196 1.392 . S
C1197 H1209 0.929 . S
C1198 C1194 1.531 . S
C1198 H1210 0.960 . S
C1198 H1211 0.962 . S
C1198 H1212 0.960 . S
C1199 C1196 1.511 1_455 S
C1199 H1213 0.961 . S
C1199 H1214 0.961 . S
C1199 H1215 0.961 . S
C1200 C1201 1.370 . S
C1200 C1202 1.363 . S
C1200 H1216 0.931 . S
C1201 C1200 1.370 . S
C1201 C1205 1.408 . S
C1202 C1200 1.363 . S
C1202 C1203 1.370 . S
C1202 C1206 1.524 . S
C1203 C1195 1.503 1_455 S
C1203 C1202 1.370 . S
C1203 C1204 1.403 . S
C1204 C1203 1.403 . S
C1204 C1205 1.404 . S
C1204 C1207 1.539 1_455 S
C1205 C1201 1.408 . S
C1205 C1204 1.404 . S
C1205 H1217 0.930 . S
C1206 C1202 1.524 . S
C1206 H1218 0.956 . S
C1206 H1219 0.961 . S
C1206 H1220 0.961 . S
C1207 C1204 1.539 1_655 S
C1207 H1221 0.958 . S
C1207 H1222 0.960 . S
C1207 H1223 0.960 . S
H1208 C1192 0.931 . S
H1209 C1197 0.929 . S
H1210 C1198 0.960 . S
H1211 C1198 0.962 . S
H1212 C1198 0.960 . S
H1213 C1199 0.961 . S
H1214 C1199 0.961 . S
H1215 C1199 0.961 . S
H1216 C1200 0.931 . S
H1217 C1205 0.930 . S
H1218 C1206 0.956 . S
H1219 C1206 0.961 . S
H1220 C1206 0.961 . S
H1221 C1207 0.958 . S
H1222 C1207 0.960 . S
H1223 C1207 0.960 . S
C361 C49 0.714 . S
C369 C26 0.643 . S
C393 C83 3.357 1_556 S
C401 C62 3.421 . S
C425 C106 1.072 . S
C433 C3 1.066 . S
C457 C102 3.117 . S
C465 C43 3.097 . S
C489 C89 2.137 . S
C497 C22 2.298 . S
C521 C9 0.646 . S
C529 C66 0.354 . S
C553 C146 2.926 . S
C561 C163 2.885 . S
C585 C203 0.798 . S
C593 C186 0.865 . S
C617 C226 0.924 . S
C625 C123 0.913 . S
C649 C169 0.703 . S
C657 C222 0.474 . S
C681 C209 2.252 . S
C689 C142 2.338 . S
C713 C182 2.452 . S
C721 C129 2.432 . S
C745 C289 0.722 . S
C753 C266 0.571 . S
C777 C302 3.433 . S
C785 C323 3.382 . S
C809 C346 1.084 . S
C817 C243 1.073 . S
C841 C342 3.043 . S
C849 C283 3.027 . S
C873 C329 2.207 1_455 S
C881 C262 2.290 . S
C905 C249 0.623 . S
C913 C306 0.330 . S
C937 C215 2.303 . S
C945 C2 2.599 . S
C969 C135 1.958 . S
C977 C55 1.915 . S
C1001 C82 3.047 . S
C1009 C175 2.745 . S
C1033 C95 2.289 . S
C1041 C242 2.606 . S
C1065 C15 1.897 . S
C1073 C295 1.818 . S
C1097 C322 3.000 . S
C1105 C42 3.006 . S
C1129 C122 2.663 . S
C1137 C335 2.348 . S
C1161 C162 2.044 . S
C1169 C255 1.869 . S
C1193 C282 2.911 . S
C1201 C202 2.896 . S
