# Generated by pormake.
# Topology uom, (4)-cn, num edge types: 1
# Building blocks:
#     Node 0, Type 0, BuildingBlock: NAWXER_clean_sbu_0, # of connection points: 4
#     Node 1, Type 0, BuildingBlock: NAWXER_clean_sbu_0, # of connection points: 4
#     Node 2, Type 0, BuildingBlock: NAWXER_clean_sbu_0, # of connection points: 4
#     Node 3, Type 0, BuildingBlock: NAWXER_clean_sbu_0, # of connection points: 4
#     Node 4, Type 0, BuildingBlock: NAWXER_clean_sbu_0, # of connection points: 4
#     Node 5, Type 0, BuildingBlock: NAWXER_clean_sbu_0, # of connection points: 4
#     Edge 6, Type (0, 0), BuildingBlock: FUNLAD_clean_linker_0, # of connection points: 2
#     Edge 7, Type (0, 0), BuildingBlock: FUNLAD_clean_linker_0, # of connection points: 2
#     Edge 8, Type (0, 0), BuildingBlock: FUNLAD_clean_linker_0, # of connection points: 2
#     Edge 9, Type (0, 0), BuildingBlock: FUNLAD_clean_linker_0, # of connection points: 2
#     Edge 10, Type (0, 0), BuildingBlock: FUNLAD_clean_linker_0, # of connection points: 2
#     Edge 11, Type (0, 0), BuildingBlock: FUNLAD_clean_linker_0, # of connection points: 2
#     Edge 12, Type (0, 0), BuildingBlock: FUNLAD_clean_linker_0, # of connection points: 2
#     Edge 13, Type (0, 0), BuildingBlock: FUNLAD_clean_linker_0, # of connection points: 2
#     Edge 14, Type (0, 0), BuildingBlock: FUNLAD_clean_linker_0, # of connection points: 2
#     Edge 15, Type (0, 0), BuildingBlock: FUNLAD_clean_linker_0, # of connection points: 2
#     Edge 16, Type (0, 0), BuildingBlock: FUNLAD_clean_linker_0, # of connection points: 2
#     Edge 17, Type (0, 0), BuildingBlock: FUNLAD_clean_linker_0, # of connection points: 2
# Relax obj value: 0.104
# Max RMSD: 0.115
# Mean RMSD: 0.115
data_MOF--net-uom--node1-NAWXER_clean_sbu_0--edge1-FUNLAD_clean_linker_0
_symmetry_space_group_name_H-M    P1
_symmetry_Int_Tables_number       1
_symmetry_cell_setting            triclinic
loop_
_symmetry_equiv_pos_as_xyz
'x, y, z'
_cell_length_a     34.228206
_cell_length_b     34.233839
_cell_length_c     44.355427
_cell_angle_alpha  90.183339
_cell_angle_beta   89.826032
_cell_angle_gamma 120.10031
loop_
_atom_site_label
_atom_site_type_symbol
_atom_site_fract_x
_atom_site_fract_y
_atom_site_fract_z
_atom_type_partial_charge
C0 C 0.21378 0.93026 1.01984 0.0
C1 C 0.26849 0.00373 0.11865 0.0
O2 O 0.23896 0.97332 1.01825 0.0
Zn3 Zn 0.27674 0.02961 0.04829 0.0
O4 O 0.2078 0.91098 0.04529 0.0
Zn5 Zn 0.24338 0.96552 0.0693 0.0
O6 O 0.20427 -0.00194 0.0633 0.0
O7 O 0.24746 0.06402 0.04143 0.0
O8 O 0.24447 0.96173 0.11309 0.0
O9 O 0.28271 0.03182 0.09668 0.0
O10 O 0.3373 0.05509 0.03441 0.0
O11 O 0.31201 -0.01156 0.05564 0.0
C12 C 0.20947 0.03497 0.05228 0.0
C13 C 0.34386 0.02334 0.0425 0.0
C14 C 0.36726 0.35216 0.36915 0.0
C15 C 0.21795 0.21935 0.37909 0.0
O16 O 0.36769 0.321 0.38489 0.0
Zn17 Zn 0.32042 0.25453 0.40038 0.0
O18 O 0.33019 0.34585 0.35839 0.0
Zn19 Zn 0.29155 0.28615 0.37421 0.0
O20 O 0.29195 0.29666 0.42177 0.0
O21 O 0.32221 0.26112 0.44454 0.0
O22 O 0.22774 0.25603 0.36575 0.0
O23 O 0.24898 0.21551 0.39254 0.0
O24 O 0.3405 0.21663 0.37984 0.0
O25 O 0.3094 0.24381 0.34911 0.0
C26 C 0.30387 0.28552 0.44615 0.0
C27 C 0.32699 0.21894 0.35353 0.0
C28 C 0.14608 0.33104 0.68728 0.0
C29 C 0.0612 0.30727 0.78205 0.0
O30 O 0.10336 0.31332 0.68352 0.0
Zn31 Zn 0.04381 0.29312 0.71051 0.0
O32 O 0.16247 0.34306 0.71365 0.0
Zn33 Zn 0.10532 0.32299 0.73486 0.0
O34 O 0.0737 0.25162 0.72701 0.0
O35 O 0.01044 0.22975 0.7018 0.0
O36 O 0.10377 0.32584 0.77885 0.0
O37 O 0.03602 0.29432 0.75855 0.0
O38 O 0.01992 0.32888 0.69547 0.0
O39 O 0.08399 0.3693 0.72001 0.0
C40 C 0.03829 0.22041 0.71402 0.0
C41 C 0.05065 0.36684 0.70518 0.0
C42 C 0.71019 0.03564 0.03357 0.0
C43 C 0.84948 0.03209 0.04055 0.0
O44 O 0.74109 0.07003 0.04774 0.0
Zn45 Zn 0.81 0.09559 0.06124 0.0
O46 O 0.71852 0.00595 1.02322 0.0
Zn47 Zn 0.77957 0.03306 0.03689 0.0
O48 O 0.77219 0.02645 0.08482 0.0
O49 O 0.80631 0.0941 0.10556 0.0
O50 O 0.81291 0.00282 1.02815 0.0
O51 O 0.85173 0.06677 0.05333 0.0
O52 O 0.84406 0.15242 0.03876 0.0
O53 O 0.81431 0.09214 1.0095 0.0
C54 C 0.78362 0.05135 0.10847 0.0
C55 C 0.8379 0.13511 1.01252 0.0
C56 C 0.85233 0.86463 0.38293 0.0
C57 C 0.70233 0.73296 0.374 0.0
O58 O 0.82158 0.86985 0.39567 0.0
Zn59 Zn 0.75023 0.83238 0.40331 0.0
O60 O 0.84198 0.82707 0.37061 0.0
Zn61 Zn 0.77812 0.79816 0.37908 0.0
O62 O 0.7598 0.83833 0.35194 0.0
O63 O 0.73228 0.87063 0.38151 0.0
O64 O 0.73957 0.73802 0.36438 0.0
O65 O 0.70191 0.76518 0.38863 0.0
O66 O 0.74743 0.82847 0.4474 0.0
O67 O 0.77651 0.78991 0.42706 0.0
C68 C 0.74357 0.86467 0.35526 0.0
C69 C 0.76454 0.80321 0.45057 0.0
C70 C 0.04063 0.72213 0.69689 0.0
C71 C 0.04506 0.86562 0.70244 0.0
O72 O 0.0068 0.71922 0.71148 0.0
Zn73 Zn -0.0178 0.76337 0.72498 0.0
O74 O 0.07008 0.75983 0.68598 0.0
Zn75 Zn 0.04374 0.79454 0.69961 0.0
O76 O 0.05227 0.79639 0.74748 0.0
O77 O -0.01465 0.76312 0.76923 0.0
O78 O 0.07388 0.85783 0.68981 0.0
O79 O 0.01088 0.83369 0.71599 0.0
O80 O 0.92451 0.74001 0.7036 0.0
O81 O -0.01647 0.76943 0.67321 0.0
C82 C 0.0282 0.78387 0.77153 0.0
C83 C 0.94071 0.75035 0.67704 0.0
C84 C 0.31371 0.0645 0.15651 0.0
C85 C 0.27755 0.02098 0.15014 0.0
C86 C 0.31947 0.08305 0.18549 0.0
C87 C 0.2887 0.05871 0.20866 0.0
C88 C 0.25325 0.01482 0.20248 0.0
C89 C 0.24807 -0.00411 0.17366 0.0
C90 C 0.28952 0.08015 0.23814 0.0
C91 C 0.32753 0.11234 0.25155 0.0
C92 C 0.32632 0.13761 0.27865 0.0
C93 C 0.35964 0.15129 0.30112 0.0
C94 C 0.3597 0.17691 0.32601 0.0
C95 C 0.32734 0.1906 0.32823 0.0
H96 H 0.26814 0.14181 0.26403 0.0
C97 C 0.29437 0.17716 0.30556 0.0
C98 C 0.29364 0.15079 0.28125 0.0
H99 H 0.26878 0.18692 0.30664 0.0
H100 H 0.337 0.08474 0.13886 0.0
H101 H 0.34662 0.11729 0.18923 0.0
H102 H 0.22881 -0.00451 0.21982 0.0
H103 H 0.2197 0.96243 0.16948 0.0
H104 H 0.25718 0.06917 0.24907 0.0
H105 H 0.3603 0.12058 0.24249 0.0
H106 H 0.38552 0.14199 0.29947 0.0
H107 H 0.38558 0.18686 0.34307 0.0
C108 C 0.29633 0.28088 0.50314 0.0
C109 C 0.29357 0.29959 0.47555 0.0
C110 C 0.28175 0.29139 0.53011 0.0
C111 C 0.26433 0.32103 0.52998 0.0
C112 C 0.26317 0.3407 0.50253 0.0
C113 C 0.27761 0.33029 0.47581 0.0
C114 C 0.24339 0.32972 0.55691 0.0
C115 C 0.24914 0.3215 0.58585 0.0
C116 C 0.224 0.32754 0.61142 0.0
C117 C 0.2425 0.33665 0.64062 0.0
C118 C 0.21827 0.33989 0.6652 0.0
C119 C 0.17461 0.33332 0.66118 0.0
H120 H 0.16438 0.31336 0.5856 0.0
C121 C 0.15641 0.32473 0.63191 0.0
C122 C 0.18062 0.32181 0.60742 0.0
H123 H 0.12276 0.31912 0.62793 0.0
H124 H 0.30825 0.25697 0.50375 0.0
H125 H 0.2826 0.27488 0.55065 0.0
H126 H 0.25 0.3636 0.50157 0.0
H127 H 0.27518 0.34566 0.45512 0.0
H128 H 0.22219 0.34428 0.55242 0.0
H129 H 0.27324 0.31077 0.59119 0.0
H130 H 0.27563 0.34083 0.64447 0.0
H131 H 0.23314 0.34606 0.68747 0.0
C132 C 0.89997 0.20466 0.98687 0.0
C133 C 0.85955 0.16286 0.98526 0.0
C134 C 0.92289 0.22713 0.96038 0.0
C135 C 0.90548 0.20829 0.93181 0.0
C136 C 0.86404 0.16767 0.93046 0.0
C137 C 0.84162 0.14511 0.95672 0.0
C138 C 0.9287 0.22909 0.90272 0.0
C139 C 0.97348 0.25815 0.89959 0.0
C140 C -0.00389 0.27389 0.86952 0.0
C141 C 0.04262 0.28936 0.86684 0.0
C142 C 0.06429 0.30152 0.83867 0.0
C143 C 0.0399 0.29848 0.81246 0.0
H144 H 0.93704 0.26334 0.84438 0.0
C145 C -0.00615 0.28481 0.81532 0.0
C146 C 0.97234 0.27306 0.84341 0.0
H147 H 0.97414 0.28282 0.79571 0.0
H148 H 0.91467 0.21917 1.00854 0.0
H149 H 0.95412 0.25896 0.96243 0.0
H150 H 0.8494 0.15248 0.90889 0.0
H151 H 0.81043 0.11315 0.9546 0.0
H152 H 0.90802 0.21648 0.88263 0.0
H153 H -0.00502 0.268 0.91937 0.0
H154 H 0.06207 0.29095 0.88651 0.0
H155 H 0.09984 0.31207 0.83734 0.0
C156 C 0.78986 0.05304 0.16554 0.0
C157 C 0.77116 0.02914 0.13857 0.0
C158 C 0.78029 0.03014 0.1933 0.0
C159 C 0.75156 0.98287 0.19457 0.0
C160 C 0.732 0.95959 0.16769 0.0
C161 C 0.74153 0.98225 0.14019 0.0
C162 C 0.74353 0.95549 0.2225 0.0
C163 C 0.75266 0.97169 0.25097 0.0
C164 C 0.74717 0.94231 0.27744 0.0
C165 C 0.73877 0.95364 0.30632 0.0
C166 C 0.73569 0.92757 0.33162 0.0
C167 C 0.74167 0.88997 0.32859 0.0
H168 H 0.76059 0.89511 0.25297 0.0
C169 C 0.74972 0.87856 0.29965 0.0
C170 C 0.75257 0.90433 0.27451 0.0
H171 H 0.75489 0.85009 0.2964 0.0
H172 H 0.81293 0.08915 0.16509 0.0
H173 H 0.79667 0.04938 0.21337 0.0
H174 H 0.7098 0.92329 0.16779 0.0
H175 H 0.72616 0.9626 0.12003 0.0
H176 H 0.72869 0.91934 0.21916 0.0
H177 H 0.76375 0.00696 0.25526 0.0
H178 H 0.73489 0.98293 0.30936 0.0
H179 H 0.72993 0.93763 0.3536 0.0
C180 C 0.87081 0.74397 0.653 0.0
C181 C 0.91189 0.74412 0.65041 0.0
C182 C 0.84753 0.74461 0.62706 0.0
C183 C 0.86479 0.74498 0.59807 0.0
C184 C 0.90463 0.74291 0.59575 0.0
C185 C 0.92803 0.74289 0.62146 0.0
C186 C 0.84304 0.7475 0.56953 0.0
C187 C 0.81514 0.76462 0.56717 0.0
C188 C 0.79854 0.77142 0.53749 0.0
C189 C 0.78528 0.80413 0.53505 0.0
C190 C 0.77271 0.81364 0.5071 0.0
C191 C 0.7731 0.79058 0.48091 0.0
H192 H 0.80437 0.71986 0.51237 0.0
C193 C 0.78434 0.75646 0.48363 0.0
C194 C 0.79649 0.74672 0.5115 0.0
H195 H 0.78423 0.73739 0.46405 0.0
H196 H 0.85757 0.74504 0.675 0.0
H197 H 0.81632 0.74501 0.62985 0.0
H198 H 0.91858 0.74263 0.57384 0.0
H199 H 0.95942 0.74277 0.61862 0.0
H200 H 0.854 0.73824 0.54911 0.0
H201 H 0.80708 0.77751 0.5872 0.0
H202 H 0.78589 0.82336 0.55467 0.0
H203 H 0.76408 0.84001 0.50586 0.0
C204 C 0.19914 0.92648 0.96429 0.0
C205 C 0.18952 0.90451 0.99236 0.0
C206 C 0.17414 0.9042 0.93864 0.0
C207 C 0.13879 0.85904 0.94021 0.0
C208 C 0.12926 0.83691 0.96821 0.0
C209 C 0.15452 0.85924 0.99397 0.0
C210 C 0.11015 0.83528 0.91337 0.0
C211 C 0.12568 0.8459 0.88481 0.0
C212 C 0.09845 0.82546 0.85694 0.0
C213 C 0.12182 0.83176 0.8297 0.0
C214 C 0.09874 0.81707 0.8024 0.0
C215 C 0.05135 0.79575 0.80134 0.0
H216 H 0.03149 0.79822 0.87657 0.0
C217 C 0.02755 0.78833 0.82864 0.0
C218 C 0.05084 0.80309 0.8562 0.0
H219 H -0.00893 0.77219 0.82865 0.0
H220 H 0.22553 0.96145 0.96216 0.0
H221 H 0.18181 0.92314 0.91786 0.0
H222 H 0.10202 0.80229 0.97022 0.0
H223 H 0.14586 0.84139 1.01525 0.0
H224 H 0.07605 0.80782 0.91742 0.0
H225 H 0.16109 0.87067 0.88137 0.0
H226 H 0.15839 0.8489 0.82941 0.0
H227 H 0.1184 0.82331 0.78196 0.0
C228 C 0.12849 0.00844 0.06239 0.0
C229 C 0.17018 0.04152 0.05054 0.0
C230 C 0.09014 0.01216 0.0589 0.0
C231 C 0.09258 0.04897 0.04332 0.0
C232 C 0.13447 0.08291 0.03241 0.0
C233 C 0.17301 0.07913 0.03582 0.0
C234 C 0.05227 0.05364 0.03953 0.0
C235 C 0.01018 0.01776 0.03815 0.0
C236 C 0.96944 0.02224 0.03804 0.0
C237 C 0.92918 -0.01235 1.02556 0.0
C238 C 0.88983 -0.00952 1.02626 0.0
C239 C 0.89018 0.02778 0.03982 0.0
H240 H -0.00065 0.08565 0.06282 0.0
C241 C 0.93039 0.06198 0.05267 0.0
C242 C 0.9695 0.0592 0.05189 0.0
H243 H 0.9318 0.09106 0.06352 0.0
H244 H 0.12524 0.97928 0.07418 0.0
H245 H 0.05879 0.98635 0.06875 0.0
H246 H 0.13724 0.112 1.0208 0.0
H247 H 0.20473 0.10522 1.02655 0.0
H248 H 0.05764 0.0876 0.03744 0.0
H249 H 0.00522 0.98386 0.03692 0.0
H250 H 0.92821 0.95849 1.01516 0.0
H251 H 0.85929 0.96355 1.01627 0.0
C252 C 0.90804 0.94514 0.39382 0.0
C253 C 0.89874 0.90351 0.38142 0.0
C254 C 0.95087 0.98298 0.39129 0.0
C255 C -0.01451 0.98018 0.37617 0.0
C256 C 0.97672 0.93837 0.36449 0.0
C257 C 0.93358 0.90034 0.36688 0.0
C258 C 0.0315 0.01987 0.37386 0.0
C259 C 0.03936 0.06258 0.37335 0.0
C260 C 0.08537 0.10247 0.37449 0.0
C261 C 0.09337 0.14364 0.36226 0.0
C262 C 0.13636 0.18204 0.36383 0.0
C263 C 0.17184 0.17992 0.37809 0.0
H264 H 0.11546 0.07002 0.39987 0.0
C265 C 0.16341 0.13887 0.39087 0.0
C266 C 0.12073 0.10065 0.38915 0.0
H267 H 0.18988 0.13605 0.40221 0.0
H268 H 0.88213 0.94876 0.40542 0.0
H269 H 0.95682 0.01416 0.40164 0.0
H270 H 0.00314 0.93526 0.35317 0.0
H271 H 0.92748 0.86869 0.3572 0.0
H272 H 0.05951 0.01353 0.37218 0.0
H273 H 0.01124 0.06875 0.37176 0.0
H274 H 0.06641 0.146 0.35127 0.0
H275 H 0.14179 0.21321 0.35385 0.0
C276 C 0.06529 0.16637 0.72361 0.0
C277 C 0.03243 0.17487 0.71146 0.0
C278 C 0.06234 0.12472 0.7194 0.0
C279 C 0.02649 0.09063 0.70282 0.0
C280 C -0.00723 0.09844 0.69152 0.0
C281 C -0.00417 0.14038 0.69561 0.0
C282 C 0.02236 0.04591 0.69861 0.0
C283 C 0.05847 0.04013 0.69783 0.0
C284 C 0.05422 -0.00499 0.69808 0.0
C285 C 0.08904 -0.01066 0.68603 0.0
C286 C 0.08643 0.94727 0.68729 0.0
C287 C 0.04917 0.9105 0.70104 0.0
H288 H -0.00936 0.96174 0.72266 0.0
C289 C 0.01473 0.91654 0.71342 0.0
C290 C 0.01725 0.95827 0.71206 0.0
H291 H -0.01436 0.88902 0.72437 0.0
H292 H 0.09373 0.19208 0.73619 0.0
H293 H 0.08792 0.11923 0.72952 0.0
H294 H 0.96439 0.0723 0.67914 0.0
H295 H 0.96993 0.14591 0.68606 0.0
H296 H -0.01143 0.01708 0.696 0.0
H297 H 0.09232 0.06931 0.69712 0.0
H298 H 0.1182 0.01743 0.67557 0.0
H299 H 0.11353 0.94362 0.67764 0.0
C300 C 0.65591 0.06319 0.04185 0.0
C301 C 0.66473 0.03007 1.03043 0.0
C302 C 0.61258 0.05724 0.04039 0.0
C303 C 0.57709 0.01809 1.02721 0.0
C304 C 0.58588 0.98502 1.01574 0.0
C305 C 0.62934 -0.00898 1.01716 0.0
C306 C 0.53018 0.0097 1.02684 0.0
C307 C 0.52056 0.0433 1.02717 0.0
C308 C 0.47409 0.03578 1.02956 0.0
C309 C 0.46609 0.07027 1.02026 0.0
C310 C 0.42359 0.06591 1.02397 0.0
C311 C 0.38822 0.02701 0.03736 0.0
H312 H 0.44368 0.96986 0.05106 0.0
C313 C 0.39606 -0.00771 0.0465 0.0
C314 C 0.43858 -0.00337 0.04274 0.0
H315 H 0.36957 0.962 0.05706 0.0
H316 H 0.68232 0.09351 0.05247 0.0
H317 H 0.60692 0.08281 0.05045 0.0
H318 H 0.55901 0.95435 1.00577 0.0
H319 H 0.635 0.96475 1.00829 0.0
H320 H 0.50303 0.97482 1.02574 0.0
H321 H 0.5478 0.07805 1.02517 0.0
H322 H 0.49295 0.10094 1.0103 0.0
H323 H 0.41871 0.09333 1.01673 0.0
C324 C 0.65982 0.65371 0.35407 0.0
C325 C 0.65968 0.69001 0.36886 0.0
C326 C 0.61968 0.61267 0.3502 0.0
C327 C 0.57854 0.60702 0.3612 0.0
C328 C 0.57826 0.64375 0.37511 0.0
C329 C 0.61837 0.68472 0.37904 0.0
C330 C 0.5354 0.56341 0.35883 0.0
C331 C 0.53347 0.52315 0.35784 0.0
C332 C 0.49045 0.47932 0.35903 0.0
C333 C 0.49095 0.44182 0.37122 0.0
C334 C 0.45104 0.40047 0.37413 0.0
C335 C 0.40968 0.39548 0.36452 0.0
H336 H 0.44778 0.50185 0.33816 0.0
C337 C 0.4093 0.43256 0.3513 0.0
C338 C 0.44929 0.4741 0.34856 0.0
H339 H 0.37805 0.42971 0.34343 0.0
H340 H 0.69098 0.65682 0.34563 0.0
H341 H 0.62111 0.58567 0.33844 0.0
H342 H 0.54701 0.64048 0.38353 0.0
H343 H 0.61697 0.71211 0.39033 0.0
H344 H 0.50433 0.56454 0.36067 0.0
H345 H 0.56452 0.52192 0.35896 0.0
H346 H 0.52222 0.44476 0.37918 0.0
H347 H 0.45262 0.3725 0.38419 0.0
C348 C 0.01242 0.6401 0.70512 0.0
C349 C 0.04588 0.68202 0.69387 0.0
C350 C 0.01809 0.60254 0.70371 0.0
C351 C 0.05733 0.60602 0.69083 0.0
C352 C 0.09074 0.64787 0.67954 0.0
C353 C 0.085 0.68548 0.68086 0.0
C354 C 0.06545 0.56735 0.69056 0.0
C355 C 0.03169 0.5241 0.69041 0.0
C356 C 0.03901 0.48504 0.69268 0.0
C357 C 0.00509 0.44278 0.6823 0.0
C358 C 0.00928 0.40455 0.68581 0.0
C359 C 0.04736 0.40773 0.70012 0.0
H360 H 0.10364 0.52005 0.71588 0.0
C361 C 0.08151 0.45008 0.71035 0.0
C362 C 0.07738 0.48836 0.70675 0.0
H363 H 0.11115 0.45361 0.72162 0.0
H364 H -0.01797 0.63635 0.7155 0.0
H365 H -0.00778 0.57129 0.71357 0.0
H366 H 0.12147 0.65153 0.6698 0.0
H367 H 0.11154 0.71738 0.67214 0.0
H368 H 0.10029 0.57497 0.68988 0.0
H369 H -0.00295 0.51666 0.68799 0.0
H370 H 0.97503 0.43923 0.67164 0.0
H371 H -0.01771 0.3724 0.67773 0.0
loop_
_geom_bond_atom_site_label_1
_geom_bond_atom_site_label_2
_geom_bond_distance
_geom_bond_site_symmetry_2
_ccdc_geom_bond_type
C0 O2 1.247 . S
C0 O4 1.258 . S
C1 O8 1.247 . S
C1 O9 1.258 . S
O2 C0 1.247 . S
O2 Zn3 2.028 1_556 S
Zn3 O2 2.028 1_554 S
Zn3 O7 2.035 . S
Zn3 O9 2.035 . S
Zn3 O10 2.028 . S
O4 C0 1.258 . S
O4 Zn5 2.035 1_556 S
Zn5 O4 2.035 1_554 S
Zn5 O6 2.028 . S
Zn5 O8 2.028 . S
Zn5 O11 2.035 . S
O6 Zn5 2.028 . S
O6 C12 1.247 . S
O7 Zn3 2.035 . S
O7 C12 1.258 . S
O8 C1 1.247 . S
O8 Zn5 2.028 . S
O9 C1 1.258 . S
O9 Zn3 2.035 . S
O10 Zn3 2.028 . S
O10 C13 1.247 . S
O11 Zn5 2.035 . S
O11 C13 1.258 . S
C12 O6 1.247 . S
C12 O7 1.258 . S
C13 O10 1.247 . S
C13 O11 1.258 . S
C14 O16 1.247 . S
C14 O18 1.258 . S
C15 O22 1.247 . S
C15 O23 1.258 . S
O16 C14 1.247 . S
O16 Zn17 2.028 . S
Zn17 O16 2.028 . S
Zn17 O21 2.035 . S
Zn17 O23 2.035 . S
Zn17 O24 2.028 . S
O18 C14 1.258 . S
O18 Zn19 2.035 . S
Zn19 O18 2.035 . S
Zn19 O20 2.028 . S
Zn19 O22 2.028 . S
Zn19 O25 2.035 . S
O20 Zn19 2.028 . S
O20 C26 1.247 . S
O21 Zn17 2.035 . S
O21 C26 1.258 . S
O22 C15 1.247 . S
O22 Zn19 2.028 . S
O23 C15 1.258 . S
O23 Zn17 2.035 . S
O24 Zn17 2.028 . S
O24 C27 1.247 . S
O25 Zn19 2.035 . S
O25 C27 1.258 . S
C26 O20 1.247 . S
C26 O21 1.258 . S
C27 O24 1.247 . S
C27 O25 1.258 . S
C28 O30 1.247 1_455 S
C28 O32 1.258 . S
C29 O36 1.247 1_655 S
C29 O37 1.258 . S
O30 C28 1.247 1_655 S
O30 Zn31 2.028 . S
Zn31 O30 2.028 . S
Zn31 O35 2.035 . S
Zn31 O37 2.035 . S
Zn31 O38 2.028 . S
O32 C28 1.258 . S
O32 Zn33 2.035 . S
Zn33 O32 2.035 . S
Zn33 O34 2.028 . S
Zn33 O36 2.028 . S
Zn33 O39 2.035 . S
O34 Zn33 2.028 . S
O34 C40 1.247 . S
O35 Zn31 2.035 . S
O35 C40 1.258 1_655 S
O36 C29 1.247 1_455 S
O36 Zn33 2.028 . S
O37 C29 1.258 . S
O37 Zn31 2.035 . S
O38 Zn31 2.028 . S
O38 C41 1.247 1_655 S
O39 Zn33 2.035 . S
O39 C41 1.258 . S
C40 O34 1.247 . S
C40 O35 1.258 1_455 S
C41 O38 1.247 1_455 S
C41 O39 1.258 . S
C42 O44 1.247 . S
C42 O46 1.258 1_545 S
C43 O50 1.247 1_545 S
C43 O51 1.258 . S
O44 C42 1.247 . S
O44 Zn45 2.028 . S
Zn45 O44 2.028 . S
Zn45 O49 2.035 . S
Zn45 O51 2.035 . S
Zn45 O52 2.028 1_554 S
O46 C42 1.258 1_565 S
O46 Zn47 2.035 . S
Zn47 O46 2.035 . S
Zn47 O48 2.028 . S
Zn47 O50 2.028 . S
Zn47 O53 2.035 1_554 S
O48 Zn47 2.028 . S
O48 C54 1.247 . S
O49 Zn45 2.035 . S
O49 C54 1.258 1_545 S
O50 C43 1.247 1_565 S
O50 Zn47 2.028 . S
O51 C43 1.258 . S
O51 Zn45 2.035 . S
O52 Zn45 2.028 1_556 S
O52 C55 1.247 . S
O53 Zn47 2.035 1_556 S
O53 C55 1.258 1_565 S
C54 O48 1.247 . S
C54 O49 1.258 1_565 S
C55 O52 1.247 . S
C55 O53 1.258 1_545 S
C56 O58 1.247 . S
C56 O60 1.258 . S
C57 O64 1.247 . S
C57 O65 1.258 . S
O58 C56 1.247 . S
O58 Zn59 2.028 . S
Zn59 O58 2.028 . S
Zn59 O63 2.035 . S
Zn59 O65 2.035 . S
Zn59 O66 2.028 . S
O60 C56 1.258 . S
O60 Zn61 2.035 . S
Zn61 O60 2.035 . S
Zn61 O62 2.028 . S
Zn61 O64 2.028 . S
Zn61 O67 2.035 . S
O62 Zn61 2.028 . S
O62 C68 1.247 . S
O63 Zn59 2.035 . S
O63 C68 1.258 . S
O64 C57 1.247 . S
O64 Zn61 2.028 . S
O65 C57 1.258 . S
O65 Zn59 2.035 . S
O66 Zn59 2.028 . S
O66 C69 1.247 . S
O67 Zn61 2.035 . S
O67 C69 1.258 . S
C68 O62 1.247 . S
C68 O63 1.258 . S
C69 O66 1.247 . S
C69 O67 1.258 . S
C70 O72 1.247 . S
C70 O74 1.258 . S
C71 O78 1.247 . S
C71 O79 1.258 . S
O72 C70 1.247 . S
O72 Zn73 2.028 . S
Zn73 O72 2.028 . S
Zn73 O77 2.035 . S
Zn73 O79 2.035 . S
Zn73 O80 2.028 . S
O74 C70 1.258 . S
O74 Zn75 2.035 . S
Zn75 O74 2.035 . S
Zn75 O76 2.028 . S
Zn75 O78 2.028 . S
Zn75 O81 2.035 . S
O76 Zn75 2.028 . S
O76 C82 1.247 . S
O77 Zn73 2.035 . S
O77 C82 1.258 . S
O78 C71 1.247 . S
O78 Zn75 2.028 . S
O79 C71 1.258 . S
O79 Zn73 2.035 . S
O80 Zn73 2.028 . S
O80 C83 1.247 . S
O81 Zn75 2.035 . S
O81 C83 1.258 . S
C82 O76 1.247 . S
C82 O77 1.258 . S
C83 O80 1.247 . S
C83 O81 1.258 . S
C84 C85 1.386 . S
C84 C86 1.383 . S
C84 H100 0.951 . S
C85 C84 1.386 . S
C85 C89 1.383 . S
C86 C84 1.383 . S
C86 C87 1.402 . S
C86 H101 0.951 . S
C87 C86 1.402 . S
C87 C88 1.375 . S
C87 C90 1.481 . S
C88 C87 1.375 . S
C88 C89 1.367 . S
C88 H102 0.951 . S
C89 C85 1.383 . S
C89 C88 1.367 . S
C89 H103 0.950 . S
C90 C87 1.481 . S
C90 C91 1.297 . S
C90 H104 0.950 . S
C91 C90 1.297 . S
C91 C92 1.479 . S
C91 H105 0.950 . S
C92 C91 1.479 . S
C92 C93 1.375 . S
C92 C98 1.404 . S
C93 C92 1.375 . S
C93 C94 1.369 . S
C93 H106 0.950 . S
C94 C93 1.369 . S
C94 C95 1.392 . S
C94 H107 0.951 . S
C95 C94 1.392 . S
C95 C97 1.384 . S
H96 C98 0.949 . S
C97 C95 1.384 . S
C97 C98 1.385 . S
C97 H99 0.950 . S
C98 C92 1.404 . S
C98 H96 0.949 . S
C98 C97 1.385 . S
H99 C97 0.950 . S
H100 C84 0.951 . S
H101 C86 0.951 . S
H102 C88 0.951 . S
H103 C89 0.950 . S
H104 C90 0.950 . S
H105 C91 0.950 . S
H106 C93 0.950 . S
H107 C94 0.951 . S
C108 C109 1.386 . S
C108 C110 1.383 . S
C108 H124 0.951 . S
C109 C108 1.386 . S
C109 C113 1.383 . S
C110 C108 1.383 . S
C110 C111 1.402 . S
C110 H125 0.951 . S
C111 C110 1.402 . S
C111 C112 1.375 . S
C111 C114 1.481 . S
C112 C111 1.375 . S
C112 C113 1.367 . S
C112 H126 0.951 . S
C113 C109 1.383 . S
C113 C112 1.367 . S
C113 H127 0.950 . S
C114 C111 1.481 . S
C114 C115 1.297 . S
C114 H128 0.950 . S
C115 C114 1.297 . S
C115 C116 1.479 . S
C115 H129 0.950 . S
C116 C115 1.479 . S
C116 C117 1.375 . S
C116 C122 1.404 . S
C117 C116 1.375 . S
C117 C118 1.369 . S
C117 H130 0.950 . S
C118 C117 1.369 . S
C118 C119 1.392 . S
C118 H131 0.951 . S
C119 C118 1.392 . S
C119 C121 1.384 . S
H120 C122 0.949 . S
C121 C119 1.384 . S
C121 C122 1.385 . S
C121 H123 0.950 . S
C122 C116 1.404 . S
C122 H120 0.949 . S
C122 C121 1.385 . S
H123 C121 0.950 . S
H124 C108 0.951 . S
H125 C110 0.951 . S
H126 C112 0.951 . S
H127 C113 0.950 . S
H128 C114 0.950 . S
H129 C115 0.950 . S
H130 C117 0.950 . S
H131 C118 0.951 . S
C132 C133 1.386 . S
C132 C134 1.383 . S
C132 H148 0.951 . S
C133 C132 1.386 . S
C133 C137 1.383 . S
C134 C132 1.383 . S
C134 C135 1.402 . S
C134 H149 0.951 . S
C135 C134 1.402 . S
C135 C136 1.375 . S
C135 C138 1.481 . S
C136 C135 1.375 . S
C136 C137 1.367 . S
C136 H150 0.951 . S
C137 C133 1.383 . S
C137 C136 1.367 . S
C137 H151 0.950 . S
C138 C135 1.481 . S
C138 C139 1.297 . S
C138 H152 0.950 . S
C139 C138 1.297 . S
C139 C140 1.479 . S
C139 H153 0.950 . S
C140 C139 1.479 . S
C140 C141 1.375 . S
C140 C146 1.404 . S
C141 C140 1.375 . S
C141 C142 1.369 . S
C141 H154 0.950 . S
C142 C141 1.369 . S
C142 C143 1.392 . S
C142 H155 0.951 . S
C143 C142 1.392 . S
C143 C145 1.384 . S
H144 C146 0.949 . S
C145 C143 1.384 . S
C145 C146 1.385 . S
C145 H147 0.950 . S
C146 C140 1.404 . S
C146 H144 0.949 . S
C146 C145 1.385 . S
H147 C145 0.950 . S
H148 C132 0.951 . S
H149 C134 0.951 . S
H150 C136 0.951 . S
H151 C137 0.950 . S
H152 C138 0.950 . S
H153 C139 0.950 . S
H154 C141 0.950 . S
H155 C142 0.951 . S
C156 C157 1.386 . S
C156 C158 1.383 . S
C156 H172 0.951 . S
C157 C156 1.386 . S
C157 C161 1.383 . S
C158 C156 1.383 . S
C158 C159 1.402 . S
C158 H173 0.951 . S
C159 C158 1.402 . S
C159 C160 1.375 . S
C159 C162 1.481 . S
C160 C159 1.375 . S
C160 C161 1.367 . S
C160 H174 0.951 . S
C161 C157 1.383 . S
C161 C160 1.367 . S
C161 H175 0.950 . S
C162 C159 1.481 . S
C162 C163 1.297 . S
C162 H176 0.950 . S
C163 C162 1.297 . S
C163 C164 1.479 . S
C163 H177 0.950 . S
C164 C163 1.479 . S
C164 C165 1.375 . S
C164 C170 1.404 . S
C165 C164 1.375 . S
C165 C166 1.369 . S
C165 H178 0.950 . S
C166 C165 1.369 . S
C166 C167 1.392 . S
C166 H179 0.951 . S
C167 C166 1.392 . S
C167 C169 1.384 . S
H168 C170 0.949 . S
C169 C167 1.384 . S
C169 C170 1.385 . S
C169 H171 0.950 . S
C170 C164 1.404 . S
C170 H168 0.949 . S
C170 C169 1.385 . S
H171 C169 0.950 . S
H172 C156 0.951 . S
H173 C158 0.951 . S
H174 C160 0.951 . S
H175 C161 0.950 . S
H176 C162 0.950 . S
H177 C163 0.950 . S
H178 C165 0.950 . S
H179 C166 0.951 . S
C180 C181 1.386 1_655 S
C180 C182 1.383 . S
C180 H196 0.951 . S
C181 C180 1.386 1_455 S
C181 C185 1.383 . S
C182 C180 1.383 . S
C182 C183 1.402 1_655 S
C182 H197 0.951 . S
C183 C182 1.402 1_455 S
C183 C184 1.375 . S
C183 C186 1.481 1_455 S
C184 C183 1.375 . S
C184 C185 1.367 . S
C184 H198 0.951 . S
C185 C181 1.383 . S
C185 C184 1.367 . S
C185 H199 0.950 . S
C186 C183 1.481 1_655 S
C186 C187 1.297 . S
C186 H200 0.950 1_655 S
C187 C186 1.297 . S
C187 C188 1.479 . S
C187 H201 0.950 . S
C188 C187 1.479 . S
C188 C189 1.375 . S
C188 C194 1.404 . S
C189 C188 1.375 . S
C189 C190 1.369 . S
C189 H202 0.950 . S
C190 C189 1.369 . S
C190 C191 1.392 . S
C190 H203 0.951 . S
C191 C190 1.392 . S
C191 C193 1.384 . S
H192 C194 0.949 . S
C193 C191 1.384 . S
C193 C194 1.385 . S
C193 H195 0.950 . S
C194 C188 1.404 . S
C194 H192 0.949 . S
C194 C193 1.385 . S
H195 C193 0.950 . S
H196 C180 0.951 . S
H197 C182 0.951 . S
H198 C184 0.951 . S
H199 C185 0.950 . S
H200 C186 0.950 1_455 S
H201 C187 0.950 . S
H202 C189 0.950 . S
H203 C190 0.951 . S
C204 C205 1.386 . S
C204 C206 1.383 1_545 S
C204 H220 0.951 . S
C205 C204 1.386 . S
C205 C209 1.383 . S
C206 C204 1.383 1_565 S
C206 C207 1.402 . S
C206 H221 0.951 . S
C207 C206 1.402 . S
C207 C208 1.375 . S
C207 C210 1.481 . S
C208 C207 1.375 . S
C208 C209 1.367 1_565 S
C208 H222 0.951 . S
C209 C205 1.383 . S
C209 C208 1.367 1_545 S
C209 H223 0.950 . S
C210 C207 1.481 . S
C210 C211 1.297 . S
C210 H224 0.950 . S
C211 C210 1.297 . S
C211 C212 1.479 . S
C211 H225 0.950 . S
C212 C211 1.479 . S
C212 C213 1.375 . S
C212 C218 1.404 . S
C213 C212 1.375 . S
C213 C214 1.369 . S
C213 H226 0.950 . S
C214 C213 1.369 . S
C214 C215 1.392 . S
C214 H227 0.951 . S
C215 C214 1.392 . S
C215 C217 1.384 . S
H216 C218 0.949 . S
C217 C215 1.384 . S
C217 C218 1.385 . S
C217 H219 0.950 . S
C218 C212 1.404 . S
C218 H216 0.949 . S
C218 C217 1.385 . S
H219 C217 0.950 . S
H220 C204 0.951 . S
H221 C206 0.951 . S
H222 C208 0.951 . S
H223 C209 0.950 . S
H224 C210 0.950 . S
H225 C211 0.950 . S
H226 C213 0.950 . S
H227 C214 0.951 . S
C228 C229 1.386 . S
C228 C230 1.383 . S
C228 H244 0.951 . S
C229 C228 1.386 . S
C229 C233 1.395 . S
C230 C228 1.383 . S
C230 C231 1.402 . S
C230 H245 0.951 . S
C231 C230 1.402 . S
C231 C232 1.375 1_554 S
C231 C234 1.481 . S
C232 C231 1.375 1_556 S
C232 C233 1.365 1_556 S
C232 H246 0.951 . S
C233 C229 1.395 . S
C233 C232 1.365 1_554 S
C233 H247 0.940 1_554 S
C234 C231 1.481 . S
C234 C235 1.297 . S
C234 H248 0.950 1_554 S
C235 C234 1.297 . S
C235 C236 1.479 1_455 S
C235 H249 0.950 . S
C236 C235 1.479 1_655 S
C236 C237 1.375 . S
C236 C242 1.404 1_554 S
C237 C236 1.375 . S
C237 C238 1.369 . S
C237 H250 0.950 . S
C238 C237 1.369 . S
C238 C239 1.392 . S
C238 H251 0.951 . S
C239 C238 1.392 . S
C239 C241 1.367 1_544 S
H240 C242 0.949 . S
C241 C239 1.367 1_566 S
C241 C242 1.387 1_565 S
C241 H243 0.966 . S
C242 C236 1.404 1_556 S
C242 H240 0.949 . S
C242 C241 1.387 1_545 S
H243 C241 0.966 . S
H244 C228 0.951 . S
H245 C230 0.951 . S
H246 C232 0.951 . S
H247 C233 0.940 1_556 S
H248 C234 0.950 1_556 S
H249 C235 0.950 . S
H250 C237 0.950 . S
H251 C238 0.951 . S
C252 C253 1.386 . S
C252 C254 1.383 . S
C252 H268 0.951 . S
C253 C252 1.386 . S
C253 C257 1.383 . S
C254 C252 1.383 . S
C254 C255 1.402 1_655 S
C254 H269 0.951 1_655 S
C255 C254 1.402 1_455 S
C255 C256 1.375 . S
C255 C258 1.481 1_565 S
C256 C255 1.375 . S
C256 C257 1.367 1_455 S
C256 H270 0.951 . S
C257 C253 1.383 . S
C257 C256 1.367 1_655 S
C257 H271 0.950 . S
C258 C255 1.481 1_545 S
C258 C259 1.297 . S
C258 H272 0.950 . S
C259 C258 1.297 . S
C259 C260 1.479 . S
C259 H273 0.950 . S
C260 C259 1.479 . S
C260 C261 1.375 . S
C260 C266 1.404 . S
C261 C260 1.375 . S
C261 C262 1.369 . S
C261 H274 0.950 . S
C262 C261 1.369 . S
C262 C263 1.392 . S
C262 H275 0.951 . S
C263 C262 1.392 . S
C263 C265 1.384 . S
H264 C266 0.949 . S
C265 C263 1.384 . S
C265 C266 1.385 . S
C265 H267 0.950 . S
C266 C260 1.404 . S
C266 H264 0.949 . S
C266 C265 1.385 . S
H267 C265 0.950 . S
H268 C252 0.951 . S
H269 C254 0.951 1_455 S
H270 C256 0.951 . S
H271 C257 0.950 . S
H272 C258 0.950 . S
H273 C259 0.950 . S
H274 C261 0.950 . S
H275 C262 0.951 . S
C276 C277 1.386 . S
C276 C278 1.383 . S
C276 H292 0.951 . S
C277 C276 1.386 . S
C277 C281 1.383 1_455 S
C278 C276 1.383 . S
C278 C279 1.402 . S
C278 H293 0.951 . S
C279 C278 1.402 . S
C279 C280 1.375 1_455 S
C279 C282 1.481 . S
C280 C279 1.375 1_655 S
C280 C281 1.367 . S
C280 H294 0.951 . S
C281 C277 1.383 1_655 S
C281 C280 1.367 . S
C281 H295 0.950 . S
C282 C279 1.481 . S
C282 C283 1.297 . S
C282 H296 0.950 . S
C283 C282 1.297 . S
C283 C284 1.479 . S
C283 H297 0.950 . S
C284 C283 1.479 . S
C284 C285 1.375 . S
C284 C290 1.404 1_545 S
C285 C284 1.375 . S
C285 C286 1.369 1_545 S
C285 H298 0.950 . S
C286 C285 1.369 1_565 S
C286 C287 1.392 . S
C286 H299 0.951 . S
C287 C286 1.392 . S
C287 C289 1.384 . S
H288 C290 0.949 . S
C289 C287 1.384 . S
C289 C290 1.385 . S
C289 H291 0.950 . S
C290 C284 1.404 1_565 S
C290 H288 0.949 . S
C290 C289 1.385 . S
H291 C289 0.950 . S
H292 C276 0.951 . S
H293 C278 0.951 . S
H294 C280 0.951 . S
H295 C281 0.950 . S
H296 C282 0.950 . S
H297 C283 0.950 . S
H298 C285 0.950 . S
H299 C286 0.951 . S
C300 C301 1.386 . S
C300 C302 1.383 . S
C300 H316 0.951 1_554 S
C301 C300 1.386 . S
C301 C305 1.383 1_545 S
C302 C300 1.383 . S
C302 C303 1.402 . S
C302 H317 0.951 1_554 S
C303 C302 1.402 . S
C303 C304 1.375 1_545 S
C303 C306 1.481 . S
C304 C303 1.375 1_565 S
C304 C305 1.367 . S
C304 H318 0.951 . S
C305 C301 1.383 1_565 S
C305 C304 1.367 . S
C305 H319 0.950 . S
C306 C303 1.481 . S
C306 C307 1.297 . S
C306 H320 0.950 . S
C307 C306 1.297 . S
C307 C308 1.479 . S
C307 H321 0.950 1_554 S
C308 C307 1.479 . S
C308 C309 1.375 1_554 S
C308 C314 1.404 . S
C309 C308 1.375 1_556 S
C309 C310 1.369 . S
C309 H322 0.950 . S
C310 C309 1.369 . S
C310 C311 1.392 1_556 S
C310 H323 0.951 . S
C311 C310 1.392 1_554 S
C311 C313 1.384 . S
H312 C314 0.949 . S
C313 C311 1.384 . S
C313 C314 1.385 . S
C313 H315 0.950 . S
C314 C308 1.404 . S
C314 H312 0.949 . S
C314 C313 1.385 . S
H315 C313 0.950 . S
H316 C300 0.951 1_556 S
H317 C302 0.951 1_556 S
H318 C304 0.951 . S
H319 C305 0.950 . S
H320 C306 0.950 . S
H321 C307 0.950 1_556 S
H322 C309 0.950 . S
H323 C310 0.951 . S
C324 C325 1.386 . S
C324 C326 1.383 . S
C324 H340 0.951 . S
C325 C324 1.386 . S
C325 C329 1.383 . S
C326 C324 1.383 . S
C326 C327 1.402 . S
C326 H341 0.951 . S
C327 C326 1.402 . S
C327 C328 1.375 . S
C327 C330 1.481 . S
C328 C327 1.375 . S
C328 C329 1.367 . S
C328 H342 0.951 . S
C329 C325 1.383 . S
C329 C328 1.367 . S
C329 H343 0.950 . S
C330 C327 1.481 . S
C330 C331 1.297 . S
C330 H344 0.950 . S
C331 C330 1.297 . S
C331 C332 1.479 . S
C331 H345 0.950 . S
C332 C331 1.479 . S
C332 C333 1.375 . S
C332 C338 1.404 . S
C333 C332 1.375 . S
C333 C334 1.369 . S
C333 H346 0.950 . S
C334 C333 1.369 . S
C334 C335 1.392 . S
C334 H347 0.951 . S
C335 C334 1.392 . S
C335 C337 1.384 . S
H336 C338 0.949 . S
C337 C335 1.384 . S
C337 C338 1.385 . S
C337 H339 0.950 . S
C338 C332 1.404 . S
C338 H336 0.949 . S
C338 C337 1.385 . S
H339 C337 0.950 . S
H340 C324 0.951 . S
H341 C326 0.951 . S
H342 C328 0.951 . S
H343 C329 0.950 . S
H344 C330 0.950 . S
H345 C331 0.950 . S
H346 C333 0.950 . S
H347 C334 0.951 . S
C348 C349 1.386 . S
C348 C350 1.383 . S
C348 H364 0.951 . S
C349 C348 1.386 . S
C349 C353 1.383 . S
C350 C348 1.383 . S
C350 C351 1.402 . S
C350 H365 0.951 . S
C351 C350 1.402 . S
C351 C352 1.375 . S
C351 C354 1.481 . S
C352 C351 1.375 . S
C352 C353 1.367 . S
C352 H366 0.951 . S
C353 C349 1.383 . S
C353 C352 1.367 . S
C353 H367 0.950 . S
C354 C351 1.481 . S
C354 C355 1.297 . S
C354 H368 0.950 . S
C355 C354 1.297 . S
C355 C356 1.479 . S
C355 H369 0.950 . S
C356 C355 1.479 . S
C356 C357 1.375 . S
C356 C362 1.404 . S
C357 C356 1.375 . S
C357 C358 1.364 . S
C357 H370 0.950 . S
C358 C357 1.364 . S
C358 C359 1.409 . S
C358 H371 0.939 1_455 S
C359 C358 1.409 . S
C359 C361 1.384 . S
H360 C362 0.949 . S
C361 C359 1.384 . S
C361 C362 1.385 . S
C361 H363 0.950 . S
C362 C356 1.404 . S
C362 H360 0.949 . S
C362 C361 1.385 . S
H363 C361 0.950 . S
H364 C348 0.951 . S
H365 C350 0.951 . S
H366 C352 0.951 . S
H367 C353 0.950 . S
H368 C354 0.950 . S
H369 C355 0.950 . S
H370 C357 0.950 . S
H371 C358 0.939 1_655 S
C85 C1 1.747 . S
C95 C27 1.744 . S
C109 C26 1.756 . S
C119 C28 1.710 . S
C133 C55 1.715 . S
C143 C29 1.738 . S
C157 C54 1.747 . S
C167 C68 1.745 . S
C181 C83 1.718 . S
C191 C69 1.737 . S
C205 C0 1.708 . S
C215 C82 1.753 . S
C229 C12 1.027 . S
C239 C43 0.992 . S
C253 C56 1.053 . S
C263 C15 0.999 . S
C277 C40 1.066 . S
C287 C71 1.036 . S
C301 C42 1.563 . S
C311 C13 1.544 . S
C325 C57 1.542 . S
C335 C14 1.545 . S
C349 C70 1.561 . S
C359 C41 1.538 . S
