# Generated by pormake.
# Topology unh, (4)-cn, num edge types: 1
# Building blocks:
#     Node 0, Type 0, BuildingBlock: MUDLON_clean_sbu_0, # of connection points: 4
#     Node 1, Type 0, BuildingBlock: MUDLON_clean_sbu_0, # of connection points: 4
#     Node 2, Type 0, BuildingBlock: MUDLON_clean_sbu_0, # of connection points: 4
#     Node 3, Type 0, BuildingBlock: MUDLON_clean_sbu_0, # of connection points: 4
#     Node 4, Type 0, BuildingBlock: MUDLON_clean_sbu_0, # of connection points: 4
#     Node 5, Type 0, BuildingBlock: MUDLON_clean_sbu_0, # of connection points: 4
#     Edge 6, Type (0, 0), BuildingBlock: UVAHIK_clean_linker_0, # of connection points: 2
#     Edge 7, Type (0, 0), BuildingBlock: UVAHIK_clean_linker_0, # of connection points: 2
#     Edge 8, Type (0, 0), BuildingBlock: UVAHIK_clean_linker_0, # of connection points: 2
#     Edge 9, Type (0, 0), BuildingBlock: UVAHIK_clean_linker_0, # of connection points: 2
#     Edge 10, Type (0, 0), BuildingBlock: UVAHIK_clean_linker_0, # of connection points: 2
#     Edge 11, Type (0, 0), BuildingBlock: UVAHIK_clean_linker_0, # of connection points: 2
#     Edge 12, Type (0, 0), BuildingBlock: UVAHIK_clean_linker_0, # of connection points: 2
#     Edge 13, Type (0, 0), BuildingBlock: UVAHIK_clean_linker_0, # of connection points: 2
#     Edge 14, Type (0, 0), BuildingBlock: UVAHIK_clean_linker_0, # of connection points: 2
#     Edge 15, Type (0, 0), BuildingBlock: UVAHIK_clean_linker_0, # of connection points: 2
#     Edge 16, Type (0, 0), BuildingBlock: UVAHIK_clean_linker_0, # of connection points: 2
#     Edge 17, Type (0, 0), BuildingBlock: UVAHIK_clean_linker_0, # of connection points: 2
# Relax obj value: 0.034
# Max RMSD: 0.245
# Mean RMSD: 0.245
data_MOF--net-unh--node1-MUDLON_clean_sbu_0--edge1-UVAHIK_clean_linker_0
_symmetry_space_group_name_H-M    P1
_symmetry_Int_Tables_number       1
_symmetry_cell_setting            triclinic
loop_
_symmetry_equiv_pos_as_xyz
'x, y, z'
_cell_length_a     56.795391
_cell_length_b     56.753816
_cell_length_c     29.815023
_cell_angle_alpha  90.110852
_cell_angle_beta   90.08269
_cell_angle_gamma 119.94798
loop_
_atom_site_label
_atom_site_type_symbol
_atom_site_fract_x
_atom_site_fract_y
_atom_site_fract_z
_atom_type_partial_charge
Mg0 Mg 0.14586 0.57626 0.10517 0.0
C1 C 0.1932 0.63232 0.08774 0.0
O2 O 0.20072 0.62719 0.12649 0.0
C3 C 0.09787 0.57002 0.159 0.0
O4 O 0.0854 0.55908 0.12101 0.0
C5 C 0.17239 0.55625 0.1716 0.0
O6 O 0.15328 0.55545 0.19741 0.0
O7 O 0.17351 0.56323 0.13078 0.0
O8 O 0.17041 0.61485 0.07118 0.0
O9 O 0.11663 0.54739 0.05743 0.0
C10 C 0.12143 0.54951 1.01555 0.0
O11 O 0.14526 0.56855 1.00117 0.0
O12 O 0.12347 0.57995 0.16147 0.0
Mg13 Mg 0.58293 0.14042 0.27057 0.0
C14 C 0.55411 0.16658 0.21947 0.0
O15 O 0.53515 0.14138 0.21116 0.0
C16 C 0.5384 0.08955 0.31521 0.0
O17 O 0.53938 0.0788 0.27668 0.0
C18 C 0.62293 0.1659 0.34627 0.0
O19 O 0.59997 0.15349 0.36855 0.0
O20 O 0.62235 0.16326 0.30381 0.0
O21 O 0.57458 0.17105 0.24319 0.0
O22 O 0.58313 0.11409 0.21725 0.0
C23 C 0.58316 0.11971 0.17596 0.0
O24 O 0.58485 0.1429 0.16491 0.0
O25 O 0.5534 0.11505 0.32102 0.0
Mg26 Mg 0.45567 0.58237 0.42527 0.0
C27 C 0.41036 0.5683 0.35997 0.0
O28 O 0.43151 0.57878 0.3332 0.0
C29 C 0.44187 0.54058 0.50247 0.0
O30 O 0.41791 0.53881 0.50285 0.0
C31 C 0.46576 0.62318 0.49805 0.0
O32 O 0.45661 0.6008 0.52166 0.0
O33 O 0.46836 0.62198 0.45584 0.0
O34 O 0.41404 0.56632 0.4016 0.0
O35 O 0.48069 0.58505 0.36772 0.0
C36 C 0.49658 0.57533 0.36968 0.0
O37 O 0.49925 0.5654 0.40789 0.0
O38 O 0.45969 0.55625 0.47449 0.0
Mg39 Mg 0.88441 0.44351 0.60087 0.0
C40 C 0.83894 0.38434 0.59022 0.0
O41 O 0.83368 0.38775 0.63188 0.0
C42 C 0.90716 0.43811 0.68998 0.0
O43 O 0.88216 0.43011 0.70278 0.0
C44 C 0.83516 0.44937 0.62265 0.0
O45 O 0.82621 0.43561 0.585 0.0
O46 O 0.85895 0.45609 0.6362 0.0
O47 O 0.85908 0.40374 0.57041 0.0
O48 O 0.90748 0.47091 0.54655 0.0
C49 C 0.93236 0.48876 0.55193 0.0
O50 O 0.94342 0.49182 0.5918 0.0
O51 O 0.91337 0.44376 0.64891 0.0
Mg52 Mg 0.44668 0.87958 0.76611 0.0
C53 C 0.47062 0.85472 0.70401 0.0
O54 O 0.472 0.87387 0.6776 0.0
C55 C 0.48931 0.9098 0.84148 0.0
O56 O 0.49057 0.88734 0.84422 0.0
C57 C 0.40829 0.84864 0.84069 0.0
O58 O 0.43176 0.85999 0.86171 0.0
O59 O 0.40785 0.85365 0.7992 0.0
O60 O 0.46208 0.85315 0.74395 0.0
O61 O 0.44219 0.89968 0.70713 0.0
C62 C 0.44923 0.92475 0.70862 0.0
O63 O 0.45727 0.93777 0.74705 0.0
O64 O 0.47373 0.91145 0.81256 0.0
Mg65 Mg 0.57561 0.43948 0.92767 0.0
C66 C 0.63704 0.46154 0.90667 0.0
O67 O 0.64178 0.47071 0.94809 0.0
C68 C 0.57226 0.48505 0.97544 0.0
O69 O 0.56226 0.48631 0.93634 0.0
C70 C 0.57658 0.40091 0.99253 0.0
O71 O 0.59731 0.42445 1.00458 0.0
O72 O 0.56201 0.40029 0.9596 0.0
O73 O 0.61278 0.4491 0.89194 0.0
O74 O 0.54719 0.43884 0.8775 0.0
C75 C 0.55785 0.45325 0.84274 0.0
O76 O 0.58445 0.46679 0.83937 0.0
O77 O 0.58073 0.46828 0.9806 0.0
C78 C 0.10463 0.53517 0.9368 0.0
C79 C 0.09956 0.53254 0.98319 0.0
C80 C 0.08349 0.52095 0.9061 0.0
C81 C 1.00944 0.49041 0.89629 0.0
H82 H 0.01856 0.45933 0.78627 0.0
C83 C 0.92175 0.43715 0.76909 0.0
C84 C 0.9285 0.44339 0.72365 0.0
C85 C 0.94209 0.44449 0.80149 0.0
C86 C 0.01574 0.46808 0.81669 0.0
H87 H 0.06839 0.51211 0.03368 0.0
H88 H 0.03158 0.48725 0.98012 0.0
H89 H 0.05524 0.47863 0.84159 0.0
H90 H 0.96196 0.46149 0.67649 0.0
H91 H 0.99738 0.47466 0.73297 0.0
H92 H 0.97031 0.48058 0.87115 0.0
C93 C 0.05186 0.50056 0.96749 0.0
C94 C 0.03676 0.4791 0.84841 0.0
C95 C 0.07301 0.5147 0.99819 0.0
C96 C 0.95602 0.45631 0.71118 0.0
C97 C 0.97637 0.46376 0.74361 0.0
C98 C 0.9885 0.4795 0.86456 0.0
C99 C 0.05677 0.50383 0.92108 0.0
C100 C 0.03393 0.4906 0.88842 0.0
C101 C 0.96969 0.45835 0.78929 0.0
C102 C 0.99144 0.46839 0.82415 0.0
H103 H 0.12483 0.54872 0.92408 0.0
H104 H 0.08793 0.52412 0.8706 0.0
H105 H 1.00675 0.4995 0.92641 0.0
H106 H 0.90075 0.42704 0.77983 0.0
H107 H 0.93617 0.43955 0.83624 0.0
C108 C 0.50567 0.95755 0.86732 0.0
C109 C 0.50412 0.93229 0.87402 0.0
C110 C 0.51804 0.97829 0.89926 0.0
C111 C 0.53316 0.98909 1.01928 0.0
H112 H 0.5798 0.06436 0.98505 0.0
C113 C 0.57853 0.07512 0.15184 0.0
C114 C 0.57889 0.09937 0.14086 0.0
C115 C 0.57267 0.05519 0.11912 0.0
C116 C 0.56661 0.04349 0.99521 0.0
H117 H 0.51484 0.90922 0.91926 0.0
H118 H 0.53626 0.94546 0.97532 0.0
H119 H 0.56358 0.02875 0.928 0.0
H120 H 0.57373 0.12183 0.08662 0.0
H121 H 0.56291 0.08699 0.03003 0.0
H122 H 0.53532 1.00373 0.08615 0.0
C123 C 0.52783 0.94912 0.94528 0.0
C124 C 0.5574 0.02308 0.96248 0.0
C125 C 0.5157 0.92844 0.91305 0.0
C126 C 0.57378 0.10346 0.09624 0.0
C127 C 0.56771 0.08348 0.06364 0.0
C128 C 0.54216 1.00951 0.05198 0.0
C129 C 0.52894 0.97419 0.93888 0.0
C130 C 0.54034 0.99568 0.97407 0.0
C131 C 0.56682 0.05894 0.07467 0.0
C132 C 0.55876 0.03704 0.04032 0.0
H133 H 0.497 0.96123 0.8376 0.0
H134 H 0.51833 0.99727 0.89353 0.0
H135 H 0.51976 0.9682 0.02918 0.0
H136 H 0.58251 0.07137 0.18586 0.0
H137 H 0.57263 0.03679 0.12876 0.0
C138 C 0.52554 0.55986 0.33048 0.0
C139 C 0.50966 0.5725 0.32854 0.0
C140 C 0.5358 0.55478 0.29131 0.0
C141 C 0.52207 0.54486 0.16978 0.0
H142 H 0.59188 0.5481 0.16601 0.0
C143 C 0.5596 0.51777 1.00891 0.0
C144 C 0.57056 0.50054 1.01428 0.0
C145 C 0.55522 0.53014 0.04609 0.0
C146 C 0.57227 0.54695 0.16661 0.0
H147 H 0.49306 0.59071 0.28388 0.0
H148 H 0.51129 0.58218 0.21558 0.0
H149 H 0.57884 0.56365 0.23297 0.0
H150 H 0.58654 0.48371 0.06292 0.0
H151 H 0.57873 0.50514 0.12779 0.0
H152 H 0.51528 0.52779 0.10381 0.0
C153 C 0.5154 0.57575 0.24738 0.0
C154 C 0.56478 0.55586 0.20499 0.0
C155 C 0.5051 0.58082 0.28659 0.0
C156 C 0.57806 0.49686 0.05755 0.0
C157 C 0.57369 0.50926 0.09477 0.0
C158 C 0.52958 0.53601 0.13143 0.0
C159 C 0.5305 0.56225 0.24917 0.0
C160 C 0.53945 0.55465 0.20726 0.0
C161 C 0.56171 0.52562 0.08958 0.0
C162 C 0.55464 0.53668 0.12949 0.0
H163 H 0.52946 0.55316 0.36219 0.0
H164 H 0.54707 0.54407 0.294 0.0
H165 H 0.50222 0.54316 0.17055 0.0
H166 H 0.55375 0.52122 0.97605 0.0
H167 H 0.54641 0.543 0.04079 0.0
C168 C 0.93838 0.49848 0.4693 0.0
C169 C 0.94945 0.50356 0.51282 0.0
C170 C 0.95511 0.51025 0.432 0.0
C171 C 0.02607 0.53738 0.39695 0.0
H172 H 1.00366 0.56135 0.2918 0.0
C173 C 0.09482 0.57807 0.24114 0.0
C174 C 0.08192 0.56824 0.19949 0.0
C175 C 0.07949 0.5741 0.27999 0.0
C176 C 1.01015 0.55459 0.32081 0.0
H177 H 0.98668 0.52602 0.55132 0.0
H178 H 0.01576 0.54668 0.48635 0.0
H179 H 0.97515 0.5474 0.35871 0.0
H180 H 0.0428 0.54732 0.16585 0.0
H181 H 0.01615 0.5401 0.2335 0.0
H182 H 0.06069 0.5439 0.35893 0.0
C183 C 0.9942 0.53325 0.481 0.0
C184 C 0.99381 0.54661 0.35916 0.0
C185 C 0.97747 0.52152 0.51828 0.0
C186 C 0.05341 0.55517 0.19736 0.0
C187 C 0.0381 0.55117 0.23619 0.0
C188 C 0.04236 0.5453 0.35864 0.0
C189 C 0.98331 0.52734 0.43736 0.0
C190 C 1.00144 0.53764 0.39754 0.0
C191 C 0.05092 0.56018 0.27812 0.0
C192 C 0.03448 0.55372 0.31989 0.0
H193 H 0.91688 0.48475 0.46386 0.0
H194 H 0.94607 0.50507 0.39886 0.0
H195 H 0.03235 0.53016 0.42562 0.0
H196 H 0.11675 0.58834 0.24396 0.0
H197 H 0.09005 0.58169 0.31161 0.0
C198 C 0.52396 0.08274 0.39595 0.0
C199 C 0.52255 0.07177 0.35303 0.0
C200 C 0.51134 0.06566 0.43258 0.0
C201 C 0.48898 0.99598 0.47049 0.0
H202 H 0.45496 0.01404 0.56693 0.0
C203 C 0.44496 0.92664 0.62499 0.0
C204 C 0.45134 0.93985 0.66687 0.0
C205 C 0.44959 0.94148 0.58535 0.0
C206 C 0.46453 1.00878 0.54039 0.0
H207 H 0.50569 0.03427 0.31467 0.0
H208 H 0.48352 1.00457 0.37842 0.0
H209 H 0.47038 0.04246 0.49994 0.0
H210 H 0.46667 0.97893 0.69993 0.0
H211 H 0.47504 1.00476 0.631 0.0
H212 H 0.48379 0.96274 0.51115 0.0
C213 C 0.49476 0.02635 0.3839 0.0
C214 C 0.47336 0.02507 0.50199 0.0
C215 C 0.50735 0.04341 0.34729 0.0
C216 C 0.46151 0.96808 0.66827 0.0
C217 C 0.46617 0.98291 0.62867 0.0
C218 C 0.48021 0.97974 0.50885 0.0
C219 C 0.49704 0.03724 0.42715 0.0
C220 C 0.48594 0.01902 0.46677 0.0
C221 C 0.46073 0.96988 0.58666 0.0
C222 C 0.46814 0.98609 0.54452 0.0
H223 H 0.53551 0.10449 0.40159 0.0
H224 H 0.51371 0.07473 0.46547 0.0
H225 H 0.499 0.99097 0.44437 0.0
H226 H 0.43697 0.90491 0.62269 0.0
H227 H 0.44474 0.93073 0.55362 0.0
C228 C 0.51345 0.44718 0.81359 0.0
C229 C 0.54112 0.4559 0.80707 0.0
C230 C 0.4985 0.45142 0.78025 0.0
C231 C 0.49931 0.46618 0.65905 0.0
H232 H 0.45718 0.50008 0.69272 0.0
C233 C 0.47432 0.5271 0.53382 0.0
C234 C 0.44897 0.52579 0.5359 0.0
C235 C 0.48182 0.51435 0.56623 0.0
C236 C 0.46844 0.49017 0.68276 0.0
H237 H 0.57458 0.47528 0.76008 0.0
H238 H 0.54867 0.48251 0.70241 0.0
H239 H 0.47676 0.48478 0.751 0.0
H240 H 0.41141 0.5096 0.57349 0.0
H241 H 0.42455 0.48718 0.63023 0.0
H242 H 0.49158 0.47205 0.59093 0.0
C243 C 0.53839 0.4723 0.73299 0.0
C244 C 0.47965 0.4814 0.71618 0.0
C245 C 0.55332 0.46832 0.76627 0.0
C246 C 0.4311 0.51103 0.57091 0.0
C247 C 0.43868 0.4983 0.60355 0.0
C248 C 0.48809 0.47487 0.62573 0.0
C249 C 0.51088 0.46411 0.73963 0.0
C250 C 0.49583 0.46997 0.70464 0.0
C251 C 0.4642 0.49993 0.60166 0.0
C252 C 0.47313 0.48764 0.63714 0.0
H253 H 0.5035 0.4376 0.84471 0.0
H254 H 0.47728 0.44479 0.78624 0.0
H255 H 0.51123 0.45697 0.64908 0.0
H256 H 0.48864 0.53831 0.5074 0.0
H257 H 0.50181 0.51643 0.5641 0.0
C258 C 0.21564 0.55462 0.16471 0.0
C259 C 0.1937 0.55144 0.19096 0.0
C260 C 0.2368 0.55218 0.184 0.0
C261 C 0.26994 0.55821 0.29321 0.0
H262 H 0.30618 0.52575 0.22942 0.0
C263 C 0.3609 0.55336 0.37068 0.0
C264 C 0.38316 0.56095 0.342 0.0
C265 C 0.33589 0.54853 0.35351 0.0
C266 C 0.29636 0.53501 0.24759 0.0
H267 H 0.1764 0.5423 0.25783 0.0
H268 H 0.21314 0.53781 0.29126 0.0
H269 H 0.26591 0.52401 0.19675 0.0
H270 H 0.39631 0.56858 0.27261 0.0
H271 H 0.35299 0.5604 0.24293 0.0
H272 H 0.30065 0.56967 0.34363 0.0
C273 C 0.2142 0.5426 0.25591 0.0
C274 C 0.27329 0.53403 0.22884 0.0
C275 C 0.19304 0.54501 0.23664 0.0
C276 C 0.37962 0.5628 0.29571 0.0
C277 C 0.35467 0.55792 0.27859 0.0
C278 C 0.29301 0.5592 0.31195 0.0
C279 C 0.23653 0.54652 0.22999 0.0
C280 C 0.26 0.54592 0.25115 0.0
C281 C 0.33258 0.55107 0.3073 0.0
C282 C 0.30673 0.54794 0.2891 0.0
H283 H 0.21682 0.55962 0.12945 0.0
H284 H 0.25381 0.55561 0.16312 0.0
H285 H 0.26046 0.56792 0.31105 0.0
H286 H 0.36291 0.55168 0.40649 0.0
H287 H 0.31918 0.54297 0.37649 0.0
C288 C 0.6725 0.2016 0.34645 0.0
C289 C 0.6485 0.1847 0.37015 0.0
C290 C 0.69578 0.22109 0.36913 0.0
C291 C 0.72714 0.24181 0.4826 0.0
H292 H 0.7643 0.31407 0.43104 0.0
C293 C 0.79704 0.33825 0.586 0.0
C294 C 0.82029 0.35916 0.56523 0.0
C295 C 0.7784 0.31542 0.56148 0.0
C296 C 0.75447 0.29393 0.44564 0.0
H297 H 0.63053 0.17436 0.43648 0.0
H298 H 0.67084 0.20832 0.47574 0.0
H299 H 0.72794 0.27674 0.38915 0.0
H300 H 0.84259 0.37199 0.50262 0.0
H301 H 0.8102 0.33212 0.46004 0.0
H302 H 0.75334 0.2592 0.53953 0.0
C303 C 0.67186 0.20645 0.43973 0.0
C304 C 0.73361 0.27249 0.42155 0.0
C305 C 0.64863 0.18706 0.41711 0.0
C306 C 0.82484 0.35634 0.51967 0.0
C307 C 0.80618 0.33355 0.49515 0.0
C308 C 0.748 0.26328 0.50671 0.0
C309 C 0.6956 0.22403 0.416 0.0
C310 C 0.71941 0.24623 0.43998 0.0
C311 C 0.78254 0.31297 0.51559 0.0
C312 C 0.76168 0.28969 0.48878 0.0
H313 H 0.67313 0.20026 0.31027 0.0
H314 H 0.71384 0.23406 0.34988 0.0
H315 H 0.71693 0.22176 0.4975 0.0
H316 H 0.79288 0.33975 0.62101 0.0
H317 H 0.76028 0.30011 0.5782 0.0
C318 C 0.4722 0.81148 0.71247 0.0
C319 C 0.47587 0.83343 0.68574 0.0
C320 C 0.47447 0.79004 0.69385 0.0
C321 C 0.49956 0.76953 0.59418 0.0
H322 H 0.44386 0.69693 0.62821 0.0
C323 C 0.47791 0.67234 0.49528 0.0
C324 C 0.47106 0.6488 0.52028 0.0
C325 C 0.481 0.6958 0.51646 0.0
C326 C 0.45981 0.71704 0.61874 0.0
H327 H 0.48583 0.8505 0.61876 0.0
H328 H 0.48949 0.81308 0.58631 0.0
H329 H 0.44528 0.73615 0.664 0.0
H330 H 0.46308 0.63184 0.58741 0.0
H331 H 0.46873 0.67264 0.62414 0.0
H332 H 0.5138 0.75024 0.54836 0.0
C333 C 0.4851 0.81249 0.62176 0.0
C334 C 0.46066 0.73958 0.63936 0.0
C335 C 0.48285 0.83392 0.64037 0.0
C336 C 0.46814 0.64951 0.56701 0.0
C337 C 0.47123 0.67289 0.58811 0.0
C338 C 0.4987 0.74693 0.57347 0.0
C339 C 0.48045 0.79003 0.64805 0.0
C340 C 0.48048 0.76613 0.62728 0.0
C341 C 0.4773 0.6962 0.56307 0.0
C342 C 0.47876 0.7204 0.58545 0.0
H343 H 0.46695 0.8105 0.74759 0.0
H344 H 0.47124 0.7733 0.71528 0.0
H345 H 0.5153 0.78968 0.58441 0.0
H346 H 0.48028 0.67248 0.45923 0.0
H347 H 0.48548 0.71333 0.49611 0.0
C348 C 0.68632 0.47648 0.89343 0.0
C349 C 0.65949 0.46457 0.87735 0.0
C350 C 0.7071 0.47819 0.86593 0.0
C351 C 0.72425 0.4746 0.74673 0.0
H352 H 0.77535 0.45537 0.79713 0.0
C353 C 0.79033 0.44666 0.63664 0.0
C354 C 0.81706 0.4552 0.65061 0.0
C355 C 0.77271 0.45069 0.66412 0.0
C356 C 0.76152 0.4612 0.78262 0.0
H357 H 0.63361 0.44548 0.8194 0.0
H358 H 0.6696 0.4482 0.77193 0.0
H359 H 0.7419 0.45744 0.84562 0.0
H360 H 0.84639 0.47523 0.70414 0.0
H361 H 0.81569 0.48247 0.75187 0.0
H362 H 0.74359 0.47794 0.6836 0.0
C363 C 0.67475 0.45655 0.80554 0.0
C364 C 0.74233 0.4624 0.81047 0.0
C365 C 0.65403 0.45481 0.83296 0.0
C366 C 0.82591 0.46833 0.69236 0.0
C367 C 0.80825 0.47234 0.71988 0.0
C368 C 0.74342 0.47338 0.7189 0.0
C369 C 0.70153 0.4681 0.8217 0.0
C370 C 0.72322 0.46876 0.79276 0.0
C371 C 0.78135 0.46335 0.70627 0.0
C372 C 0.76208 0.46633 0.73638 0.0
H373 H 0.69125 0.48426 0.92739 0.0
H374 H 0.72756 0.48748 0.87928 0.0
H375 H 0.71016 0.48005 0.7321 0.0
H376 H 0.78281 0.43641 0.60476 0.0
H377 H 0.75204 0.4432 0.65279 0.0
C378 C 0.35824 0.81429 0.84221 0.0
C379 C 0.3832 0.82921 0.86482 0.0
C380 C 0.33512 0.79484 0.86508 0.0
C381 C 0.30706 0.77263 0.97972 0.0
H382 H 0.26309 0.7021 0.92371 0.0
C383 C 0.23704 0.67636 0.08091 0.0
C384 C 0.21195 0.65711 0.06225 0.0
C385 C 0.25559 0.69884 0.056 0.0
C386 C 0.27486 0.7218 0.93961 0.0
H387 H 0.40325 0.83576 0.92941 0.0
H388 H 0.36326 0.80194 0.96889 0.0
H389 H 0.2996 0.73886 0.88131 0.0
H390 H 0.18642 0.64677 1.00298 0.0
H391 H 0.21881 0.68615 0.95955 0.0
H392 H 0.28272 0.75541 0.03832 0.0
C393 C 0.36134 0.80537 0.93369 0.0
C394 C 0.2958 0.74291 0.91526 0.0
C395 C 0.38437 0.82468 0.91089 0.0
C396 C 0.20559 0.66119 1.01836 0.0
C397 C 0.22422 0.68367 0.99336 0.0
C398 C 0.28616 0.75155 1.00405 0.0
C399 C 0.33646 0.79003 0.91107 0.0
C400 C 0.31249 0.76843 0.93531 0.0
C401 C 0.24955 0.70264 1.01175 0.0
C402 C 0.27012 0.72573 0.98457 0.0
H403 H 0.35664 0.81731 0.80673 0.0
H404 H 0.31621 0.78355 0.84675 0.0
H405 H 0.31917 0.79219 0.99591 0.0
H406 H 0.24263 0.67385 0.11457 0.0
H407 H 0.27503 0.71284 0.07104 0.0
C408 C 0.54951 0.35014 1.00403 0.0
C409 C 0.57143 0.37574 1.01599 0.0
C410 C 0.54567 0.32652 0.02557 0.0
C411 C 0.58384 0.30069 0.08925 0.0
H412 H 0.51315 0.24391 0.12924 0.0
C413 C 0.57373 0.21655 0.20718 0.0
C414 C 0.55319 0.18972 0.19815 0.0
C415 C 0.57428 0.2384 0.18478 0.0
C416 C 0.53298 0.25945 0.11782 0.0
H417 H 0.60612 0.39659 0.06064 0.0
H418 H 0.59938 0.3557 0.09796 0.0
H419 H 0.51712 0.28348 0.08955 0.0
H420 H 0.5166 0.16493 0.15932 0.0
H421 H 0.51768 0.20321 0.1199 0.0
H422 H 0.5998 0.27691 0.11725 0.0
C423 C 0.58535 0.35373 0.07162 0.0
C424 C 0.53524 0.2821 0.09508 0.0
C425 C 0.5891 0.37723 0.05034 0.0
C426 C 0.53272 0.18534 0.16707 0.0
C427 C 0.53328 0.20729 0.14458 0.0
C428 C 0.58158 0.27814 0.11181 0.0
C429 C 0.56378 0.32806 0.05924 0.0
C430 C 0.56078 0.30316 0.08112 0.0
C431 C 0.55435 0.23405 0.15265 0.0
C432 C 0.55621 0.2574 0.12697 0.0
H433 H 0.5355 0.3483 0.97774 0.0
H434 H 0.52892 0.30702 1.01515 0.0
H435 H 0.60373 0.31624 0.07806 0.0
H436 H 0.58971 0.22073 0.23115 0.0
H437 H 0.59047 0.25877 0.19254 0.0
loop_
_geom_bond_atom_site_label_1
_geom_bond_atom_site_label_2
_geom_bond_distance
_geom_bond_site_symmetry_2
_ccdc_geom_bond_type
Mg0 O7 2.141 . S
Mg0 O8 2.048 . S
Mg0 O9 2.048 . S
Mg0 O12 2.141 . S
C1 O2 1.313 . S
C1 O8 1.195 . S
O2 C1 1.313 . S
C3 O4 1.245 . S
C3 O12 1.289 . S
O4 C3 1.245 . S
C5 O6 1.245 . S
C5 O7 1.289 . S
O6 C5 1.245 . S
O7 Mg0 2.141 . S
O7 C5 1.289 . S
O8 Mg0 2.048 . S
O8 C1 1.195 . S
O9 Mg0 2.048 . S
O9 C10 1.195 . S
C10 O9 1.195 . S
C10 O11 1.313 . S
O11 C10 1.313 . S
O12 Mg0 2.141 . S
O12 C3 1.289 . S
Mg13 O20 2.141 . S
Mg13 O21 2.048 . S
Mg13 O22 2.048 . S
Mg13 O25 2.141 . S
C14 O15 1.313 . S
C14 O21 1.195 . S
O15 C14 1.313 . S
C16 O17 1.245 . S
C16 O25 1.289 . S
O17 C16 1.245 . S
C18 O19 1.245 . S
C18 O20 1.289 . S
O19 C18 1.245 . S
O20 Mg13 2.141 . S
O20 C18 1.289 . S
O21 Mg13 2.048 . S
O21 C14 1.195 . S
O22 Mg13 2.048 . S
O22 C23 1.195 . S
C23 O22 1.195 . S
C23 O24 1.313 . S
O24 C23 1.313 . S
O25 Mg13 2.141 . S
O25 C16 1.289 . S
Mg26 O33 2.141 . S
Mg26 O34 2.048 . S
Mg26 O35 2.048 . S
Mg26 O38 2.141 . S
C27 O28 1.313 . S
C27 O34 1.195 . S
O28 C27 1.313 . S
C29 O30 1.245 . S
C29 O38 1.289 . S
O30 C29 1.245 . S
C31 O32 1.245 . S
C31 O33 1.289 . S
O32 C31 1.245 . S
O33 Mg26 2.141 . S
O33 C31 1.289 . S
O34 Mg26 2.048 . S
O34 C27 1.195 . S
O35 Mg26 2.048 . S
O35 C36 1.195 . S
C36 O35 1.195 . S
C36 O37 1.313 . S
O37 C36 1.313 . S
O38 Mg26 2.141 . S
O38 C29 1.289 . S
Mg39 O46 2.141 . S
Mg39 O47 2.048 . S
Mg39 O48 2.048 . S
Mg39 O51 2.141 . S
C40 O41 1.313 . S
C40 O47 1.195 . S
O41 C40 1.313 . S
C42 O43 1.245 . S
C42 O51 1.289 . S
O43 C42 1.245 . S
C44 O45 1.245 . S
C44 O46 1.289 . S
O45 C44 1.245 . S
O46 Mg39 2.141 . S
O46 C44 1.289 . S
O47 Mg39 2.048 . S
O47 C40 1.195 . S
O48 Mg39 2.048 . S
O48 C49 1.195 . S
C49 O48 1.195 . S
C49 O50 1.313 . S
O50 C49 1.313 . S
O51 Mg39 2.141 . S
O51 C42 1.289 . S
Mg52 O59 2.141 . S
Mg52 O60 2.048 . S
Mg52 O61 2.048 . S
Mg52 O64 2.141 . S
C53 O54 1.313 . S
C53 O60 1.195 . S
O54 C53 1.313 . S
C55 O56 1.245 . S
C55 O64 1.289 . S
O56 C55 1.245 . S
C57 O58 1.245 . S
C57 O59 1.289 . S
O58 C57 1.245 . S
O59 Mg52 2.141 . S
O59 C57 1.289 . S
O60 Mg52 2.048 . S
O60 C53 1.195 . S
O61 Mg52 2.048 . S
O61 C62 1.195 . S
C62 O61 1.195 . S
C62 O63 1.313 . S
O63 C62 1.313 . S
O64 Mg52 2.141 . S
O64 C55 1.289 . S
Mg65 O72 2.141 . S
Mg65 O73 2.048 . S
Mg65 O74 2.048 . S
Mg65 O77 2.141 . S
C66 O67 1.313 . S
C66 O73 1.195 . S
O67 C66 1.313 . S
C68 O69 1.245 . S
C68 O77 1.289 . S
O69 C68 1.245 . S
C70 O71 1.245 . S
C70 O72 1.289 . S
O71 C70 1.245 . S
O72 Mg65 2.141 . S
O72 C70 1.289 . S
O73 Mg65 2.048 . S
O73 C66 1.195 . S
O74 Mg65 2.048 . S
O74 C75 1.195 . S
C75 O74 1.195 . S
C75 O76 1.313 . S
O76 C75 1.313 . S
O77 Mg65 2.141 . S
O77 C68 1.289 . S
C78 C79 1.349 . S
C78 C80 1.327 . S
C78 H103 0.950 . S
C79 C78 1.349 . S
C79 C95 1.349 . S
C80 C78 1.327 . S
C80 C99 1.429 . S
C80 H104 0.950 . S
C81 C98 1.574 . S
C81 C100 1.368 1_655 S
C81 H105 0.949 . S
H82 C86 0.949 . S
C83 C84 1.349 . S
C83 C85 1.327 . S
C83 H106 0.950 . S
C84 C83 1.349 . S
C84 C96 1.349 . S
C85 C83 1.327 . S
C85 C101 1.429 . S
C85 H107 0.950 . S
C86 H82 0.949 . S
C86 C94 1.574 . S
C86 C102 1.368 1_455 S
H87 C95 0.950 1_554 S
H88 C93 0.950 . S
H89 C94 0.949 . S
H90 C96 0.950 . S
H91 C97 0.950 . S
H92 C98 0.949 . S
C93 H88 0.950 . S
C93 C95 1.327 . S
C93 C99 1.429 . S
C94 C86 1.574 . S
C94 H89 0.949 . S
C94 C100 1.368 . S
C95 C79 1.349 . S
C95 H87 0.950 1_556 S
C95 C93 1.327 . S
C96 C84 1.349 . S
C96 H90 0.950 . S
C96 C97 1.327 . S
C97 H91 0.950 . S
C97 C96 1.327 . S
C97 C101 1.429 . S
C98 C81 1.574 . S
C98 H92 0.949 . S
C98 C102 1.368 . S
C99 C80 1.429 . S
C99 C93 1.429 . S
C99 C100 1.523 . S
C100 C81 1.368 1_455 S
C100 C94 1.368 . S
C100 C99 1.523 . S
C101 C85 1.429 . S
C101 C97 1.429 . S
C101 C102 1.523 . S
C102 C86 1.368 1_655 S
C102 C98 1.368 . S
C102 C101 1.523 . S
H103 C78 0.950 . S
H104 C80 0.950 . S
H105 C81 0.949 . S
H106 C83 0.950 . S
H107 C85 0.950 . S
C108 C109 1.349 . S
C108 C110 1.327 . S
C108 H133 0.950 . S
C109 C108 1.349 . S
C109 C125 1.349 . S
C110 C108 1.327 . S
C110 C129 1.429 . S
C110 H134 0.950 . S
C111 C128 1.593 . S
C111 C130 1.350 1_554 S
C111 H135 0.949 . S
H112 C116 0.949 1_554 S
C113 C114 1.349 . S
C113 C115 1.327 . S
C113 H136 0.950 . S
C114 C113 1.349 . S
C114 C126 1.349 . S
C115 C113 1.327 . S
C115 C131 1.429 . S
C115 H137 0.950 . S
C116 H112 0.949 1_556 S
C116 C124 1.572 . S
C116 C132 1.370 1_556 S
H117 C125 0.950 . S
H118 C123 0.950 . S
H119 C124 0.949 . S
H120 C126 0.950 . S
H121 C127 0.950 . S
H122 C128 0.949 . S
C123 H118 0.950 . S
C123 C125 1.327 . S
C123 C129 1.429 . S
C124 C116 1.572 . S
C124 H119 0.949 . S
C124 C130 1.368 1_545 S
C125 C109 1.349 . S
C125 H117 0.950 . S
C125 C123 1.327 . S
C126 C114 1.349 . S
C126 H120 0.950 . S
C126 C127 1.327 . S
C127 H121 0.950 . S
C127 C126 1.327 . S
C127 C131 1.429 . S
C128 C111 1.593 . S
C128 H122 0.949 . S
C128 C132 1.368 1_565 S
C129 C110 1.429 . S
C129 C123 1.429 . S
C129 C130 1.523 . S
C130 C111 1.350 1_556 S
C130 C124 1.368 1_565 S
C130 C129 1.523 . S
C131 C115 1.429 . S
C131 C127 1.429 . S
C131 C132 1.523 . S
C132 C116 1.370 1_554 S
C132 C128 1.368 1_545 S
C132 C131 1.523 . S
H133 C108 0.950 . S
H134 C110 0.950 . S
H135 C111 0.949 . S
H136 C113 0.950 . S
H137 C115 0.950 . S
C138 C139 1.349 . S
C138 C140 1.327 . S
C138 H163 0.950 . S
C139 C138 1.349 . S
C139 C155 1.349 . S
C140 C138 1.327 . S
C140 C159 1.429 . S
C140 H164 0.950 . S
C141 C158 1.574 . S
C141 C160 1.368 . S
C141 H165 0.949 . S
H142 C146 0.949 . S
C143 C144 1.349 . S
C143 C145 1.327 . S
C143 H166 0.950 . S
C144 C143 1.349 . S
C144 C156 1.349 . S
C145 C143 1.327 . S
C145 C161 1.429 . S
C145 H167 0.950 . S
C146 H142 0.949 . S
C146 C154 1.574 . S
C146 C162 1.368 . S
H147 C155 0.950 . S
H148 C153 0.950 . S
H149 C154 0.949 . S
H150 C156 0.950 . S
H151 C157 0.950 . S
H152 C158 0.949 . S
C153 H148 0.950 . S
C153 C155 1.327 . S
C153 C159 1.429 . S
C154 C146 1.574 . S
C154 H149 0.949 . S
C154 C160 1.368 . S
C155 C139 1.349 . S
C155 H147 0.950 . S
C155 C153 1.327 . S
C156 C144 1.349 . S
C156 H150 0.950 . S
C156 C157 1.327 . S
C157 H151 0.950 . S
C157 C156 1.327 . S
C157 C161 1.429 . S
C158 C141 1.574 . S
C158 H152 0.949 . S
C158 C162 1.368 . S
C159 C140 1.429 . S
C159 C153 1.429 . S
C159 C160 1.523 . S
C160 C141 1.368 . S
C160 C154 1.368 . S
C160 C159 1.523 . S
C161 C145 1.429 . S
C161 C157 1.429 . S
C161 C162 1.523 . S
C162 C146 1.368 . S
C162 C158 1.368 . S
C162 C161 1.523 . S
H163 C138 0.950 . S
H164 C140 0.950 . S
H165 C141 0.949 . S
H166 C143 0.950 . S
H167 C145 0.950 . S
C168 C169 1.349 . S
C168 C170 1.327 . S
C168 H193 0.950 . S
C169 C168 1.349 . S
C169 C185 1.349 . S
C170 C168 1.327 . S
C170 C189 1.429 . S
C170 H194 0.950 . S
C171 C188 1.574 1_655 S
C171 C190 1.368 . S
C171 H195 0.949 . S
H172 C176 0.949 . S
C173 C174 1.349 . S
C173 C175 1.327 . S
C173 H196 0.950 . S
C174 C173 1.349 . S
C174 C186 1.349 . S
C175 C173 1.327 . S
C175 C191 1.429 . S
C175 H197 0.950 . S
C176 H172 0.949 . S
C176 C184 1.574 1_455 S
C176 C192 1.368 . S
H177 C185 0.950 . S
H178 C183 0.950 . S
H179 C184 0.949 . S
H180 C186 0.950 . S
H181 C187 0.950 . S
H182 C188 0.949 . S
C183 H178 0.950 . S
C183 C185 1.327 . S
C183 C189 1.429 . S
C184 C176 1.574 1_655 S
C184 H179 0.949 . S
C184 C190 1.368 . S
C185 C169 1.349 . S
C185 H177 0.950 . S
C185 C183 1.327 . S
C186 C174 1.349 . S
C186 H180 0.950 . S
C186 C187 1.327 . S
C187 H181 0.950 . S
C187 C186 1.327 . S
C187 C191 1.429 . S
C188 C171 1.574 1_455 S
C188 H182 0.949 . S
C188 C192 1.368 . S
C189 C170 1.429 . S
C189 C183 1.429 . S
C189 C190 1.523 . S
C190 C171 1.368 . S
C190 C184 1.368 . S
C190 C189 1.523 . S
C191 C175 1.429 . S
C191 C187 1.429 . S
C191 C192 1.523 . S
C192 C176 1.368 . S
C192 C188 1.368 . S
C192 C191 1.523 . S
H193 C168 0.950 . S
H194 C170 0.950 . S
H195 C171 0.949 . S
H196 C173 0.950 . S
H197 C175 0.950 . S
C198 C199 1.349 . S
C198 C200 1.327 . S
C198 H223 0.950 . S
C199 C198 1.349 . S
C199 C215 1.349 . S
C200 C198 1.327 . S
C200 C219 1.429 . S
C200 H224 0.950 . S
C201 C218 1.574 . S
C201 C220 1.368 1_565 S
C201 H225 0.949 . S
H202 C206 0.949 . S
C203 C204 1.349 . S
C203 C205 1.327 . S
C203 H226 0.950 . S
C204 C203 1.349 . S
C204 C216 1.349 . S
C205 C203 1.327 . S
C205 C221 1.429 . S
C205 H227 0.950 . S
C206 H202 0.949 . S
C206 C214 1.574 . S
C206 C222 1.368 1_545 S
H207 C215 0.950 . S
H208 C213 0.950 . S
H209 C214 0.949 . S
H210 C216 0.950 . S
H211 C217 0.950 . S
H212 C218 0.949 . S
C213 H208 0.950 . S
C213 C215 1.327 . S
C213 C219 1.429 . S
C214 C206 1.574 . S
C214 H209 0.949 . S
C214 C220 1.368 . S
C215 C199 1.349 . S
C215 H207 0.950 . S
C215 C213 1.327 . S
C216 C204 1.349 . S
C216 H210 0.950 . S
C216 C217 1.327 . S
C217 H211 0.950 . S
C217 C216 1.327 . S
C217 C221 1.429 . S
C218 C201 1.574 . S
C218 H212 0.949 . S
C218 C222 1.368 . S
C219 C200 1.429 . S
C219 C213 1.429 . S
C219 C220 1.523 . S
C220 C201 1.368 1_545 S
C220 C214 1.368 . S
C220 C219 1.523 . S
C221 C205 1.429 . S
C221 C217 1.429 . S
C221 C222 1.523 . S
C222 C206 1.368 1_565 S
C222 C218 1.368 . S
C222 C221 1.523 . S
H223 C198 0.950 . S
H224 C200 0.950 . S
H225 C201 0.949 . S
H226 C203 0.950 . S
H227 C205 0.950 . S
C228 C229 1.349 . S
C228 C230 1.327 . S
C228 H253 0.950 . S
C229 C228 1.349 . S
C229 C245 1.349 . S
C230 C228 1.327 . S
C230 C249 1.429 . S
C230 H254 0.950 . S
C231 C248 1.574 . S
C231 C250 1.368 . S
C231 H255 0.949 . S
H232 C236 0.949 . S
C233 C234 1.349 . S
C233 C235 1.327 . S
C233 H256 0.950 . S
C234 C233 1.349 . S
C234 C246 1.349 . S
C235 C233 1.327 . S
C235 C251 1.429 . S
C235 H257 0.950 . S
C236 H232 0.949 . S
C236 C244 1.574 . S
C236 C252 1.368 . S
H237 C245 0.950 . S
H238 C243 0.950 . S
H239 C244 0.949 . S
H240 C246 0.950 . S
H241 C247 0.950 . S
H242 C248 0.949 . S
C243 H238 0.950 . S
C243 C245 1.327 . S
C243 C249 1.429 . S
C244 C236 1.574 . S
C244 H239 0.949 . S
C244 C250 1.368 . S
C245 C229 1.349 . S
C245 H237 0.950 . S
C245 C243 1.327 . S
C246 C234 1.349 . S
C246 H240 0.950 . S
C246 C247 1.327 . S
C247 H241 0.950 . S
C247 C246 1.327 . S
C247 C251 1.429 . S
C248 C231 1.574 . S
C248 H242 0.949 . S
C248 C252 1.368 . S
C249 C230 1.429 . S
C249 C243 1.429 . S
C249 C250 1.523 . S
C250 C231 1.368 . S
C250 C244 1.368 . S
C250 C249 1.523 . S
C251 C235 1.429 . S
C251 C247 1.429 . S
C251 C252 1.523 . S
C252 C236 1.368 . S
C252 C248 1.368 . S
C252 C251 1.523 . S
H253 C228 0.950 . S
H254 C230 0.950 . S
H255 C231 0.949 . S
H256 C233 0.950 . S
H257 C235 0.950 . S
C258 C259 1.349 . S
C258 C260 1.327 . S
C258 H283 0.950 . S
C259 C258 1.349 . S
C259 C275 1.349 . S
C260 C258 1.327 . S
C260 C279 1.429 . S
C260 H284 0.950 . S
C261 C278 1.574 . S
C261 C280 1.368 . S
C261 H285 0.949 . S
H262 C266 0.949 . S
C263 C264 1.349 . S
C263 C265 1.327 . S
C263 H286 0.950 . S
C264 C263 1.349 . S
C264 C276 1.349 . S
C265 C263 1.327 . S
C265 C281 1.429 . S
C265 H287 0.950 . S
C266 H262 0.949 . S
C266 C274 1.574 . S
C266 C282 1.368 . S
H267 C275 0.950 . S
H268 C273 0.950 . S
H269 C274 0.949 . S
H270 C276 0.950 . S
H271 C277 0.950 . S
H272 C278 0.949 . S
C273 H268 0.950 . S
C273 C275 1.327 . S
C273 C279 1.429 . S
C274 C266 1.574 . S
C274 H269 0.949 . S
C274 C280 1.368 . S
C275 C259 1.349 . S
C275 H267 0.950 . S
C275 C273 1.327 . S
C276 C264 1.349 . S
C276 H270 0.950 . S
C276 C277 1.327 . S
C277 H271 0.950 . S
C277 C276 1.327 . S
C277 C281 1.429 . S
C278 C261 1.574 . S
C278 H272 0.949 . S
C278 C282 1.368 . S
C279 C260 1.429 . S
C279 C273 1.429 . S
C279 C280 1.523 . S
C280 C261 1.368 . S
C280 C274 1.368 . S
C280 C279 1.523 . S
C281 C265 1.429 . S
C281 C277 1.429 . S
C281 C282 1.523 . S
C282 C266 1.368 . S
C282 C278 1.368 . S
C282 C281 1.523 . S
H283 C258 0.950 . S
H284 C260 0.950 . S
H285 C261 0.949 . S
H286 C263 0.950 . S
H287 C265 0.950 . S
C288 C289 1.349 . S
C288 C290 1.327 . S
C288 H313 0.950 . S
C289 C288 1.349 . S
C289 C305 1.349 . S
C290 C288 1.327 . S
C290 C309 1.429 . S
C290 H314 0.950 . S
C291 C308 1.574 . S
C291 C310 1.368 . S
C291 H315 0.949 . S
H292 C296 0.949 . S
C293 C294 1.349 . S
C293 C295 1.327 . S
C293 H316 0.950 . S
C294 C293 1.349 . S
C294 C306 1.349 . S
C295 C293 1.327 . S
C295 C311 1.429 . S
C295 H317 0.950 . S
C296 H292 0.949 . S
C296 C304 1.574 . S
C296 C312 1.368 . S
H297 C305 0.950 . S
H298 C303 0.950 . S
H299 C304 0.949 . S
H300 C306 0.950 . S
H301 C307 0.950 . S
H302 C308 0.949 . S
C303 H298 0.950 . S
C303 C305 1.327 . S
C303 C309 1.429 . S
C304 C296 1.574 . S
C304 H299 0.949 . S
C304 C310 1.368 . S
C305 C289 1.349 . S
C305 H297 0.950 . S
C305 C303 1.327 . S
C306 C294 1.349 . S
C306 H300 0.950 . S
C306 C307 1.327 . S
C307 H301 0.950 . S
C307 C306 1.327 . S
C307 C311 1.429 . S
C308 C291 1.574 . S
C308 H302 0.949 . S
C308 C312 1.368 . S
C309 C290 1.429 . S
C309 C303 1.429 . S
C309 C310 1.523 . S
C310 C291 1.368 . S
C310 C304 1.368 . S
C310 C309 1.523 . S
C311 C295 1.429 . S
C311 C307 1.429 . S
C311 C312 1.523 . S
C312 C296 1.368 . S
C312 C308 1.368 . S
C312 C311 1.523 . S
H313 C288 0.950 . S
H314 C290 0.950 . S
H315 C291 0.949 . S
H316 C293 0.950 . S
H317 C295 0.950 . S
C318 C319 1.349 . S
C318 C320 1.327 . S
C318 H343 0.950 . S
C319 C318 1.349 . S
C319 C335 1.349 . S
C320 C318 1.327 . S
C320 C339 1.429 . S
C320 H344 0.950 . S
C321 C338 1.574 . S
C321 C340 1.368 . S
C321 H345 0.949 . S
H322 C326 0.949 . S
C323 C324 1.349 . S
C323 C325 1.327 . S
C323 H346 0.950 . S
C324 C323 1.349 . S
C324 C336 1.349 . S
C325 C323 1.327 . S
C325 C341 1.429 . S
C325 H347 0.950 . S
C326 H322 0.949 . S
C326 C334 1.574 . S
C326 C342 1.368 . S
H327 C335 0.950 . S
H328 C333 0.950 . S
H329 C334 0.949 . S
H330 C336 0.950 . S
H331 C337 0.950 . S
H332 C338 0.949 . S
C333 H328 0.950 . S
C333 C335 1.327 . S
C333 C339 1.429 . S
C334 C326 1.574 . S
C334 H329 0.949 . S
C334 C340 1.368 . S
C335 C319 1.349 . S
C335 H327 0.950 . S
C335 C333 1.327 . S
C336 C324 1.349 . S
C336 H330 0.950 . S
C336 C337 1.327 . S
C337 H331 0.950 . S
C337 C336 1.327 . S
C337 C341 1.429 . S
C338 C321 1.574 . S
C338 H332 0.949 . S
C338 C342 1.368 . S
C339 C320 1.429 . S
C339 C333 1.429 . S
C339 C340 1.523 . S
C340 C321 1.368 . S
C340 C334 1.368 . S
C340 C339 1.523 . S
C341 C325 1.429 . S
C341 C337 1.429 . S
C341 C342 1.523 . S
C342 C326 1.368 . S
C342 C338 1.368 . S
C342 C341 1.523 . S
H343 C318 0.950 . S
H344 C320 0.950 . S
H345 C321 0.949 . S
H346 C323 0.950 . S
H347 C325 0.950 . S
C348 C349 1.349 . S
C348 C350 1.327 . S
C348 H373 0.950 . S
C349 C348 1.349 . S
C349 C365 1.349 . S
C350 C348 1.327 . S
C350 C369 1.429 . S
C350 H374 0.950 . S
C351 C368 1.574 . S
C351 C370 1.368 . S
C351 H375 0.949 . S
H352 C356 0.949 . S
C353 C354 1.349 . S
C353 C355 1.327 . S
C353 H376 0.950 . S
C354 C353 1.349 . S
C354 C366 1.349 . S
C355 C353 1.327 . S
C355 C371 1.429 . S
C355 H377 0.950 . S
C356 H352 0.949 . S
C356 C364 1.574 . S
C356 C372 1.368 . S
H357 C365 0.950 . S
H358 C363 0.950 . S
H359 C364 0.949 . S
H360 C366 0.950 . S
H361 C367 0.950 . S
H362 C368 0.949 . S
C363 H358 0.950 . S
C363 C365 1.327 . S
C363 C369 1.429 . S
C364 C356 1.574 . S
C364 H359 0.949 . S
C364 C370 1.368 . S
C365 C349 1.349 . S
C365 H357 0.950 . S
C365 C363 1.327 . S
C366 C354 1.349 . S
C366 H360 0.950 . S
C366 C367 1.327 . S
C367 H361 0.950 . S
C367 C366 1.327 . S
C367 C371 1.429 . S
C368 C351 1.574 . S
C368 H362 0.949 . S
C368 C372 1.368 . S
C369 C350 1.429 . S
C369 C363 1.429 . S
C369 C370 1.523 . S
C370 C351 1.368 . S
C370 C364 1.368 . S
C370 C369 1.523 . S
C371 C355 1.429 . S
C371 C367 1.429 . S
C371 C372 1.523 . S
C372 C356 1.368 . S
C372 C368 1.368 . S
C372 C371 1.523 . S
H373 C348 0.950 . S
H374 C350 0.950 . S
H375 C351 0.949 . S
H376 C353 0.950 . S
H377 C355 0.950 . S
C378 C379 1.349 . S
C378 C380 1.327 . S
C378 H403 0.950 . S
C379 C378 1.349 . S
C379 C395 1.349 . S
C380 C378 1.327 . S
C380 C399 1.429 . S
C380 H404 0.950 . S
C381 C398 1.574 . S
C381 C400 1.368 . S
C381 H405 0.949 . S
H382 C386 0.949 . S
C383 C384 1.349 1_554 S
C383 C385 1.327 1_554 S
C383 H406 0.950 . S
C384 C383 1.349 1_556 S
C384 C396 1.349 . S
C385 C383 1.327 1_556 S
C385 C401 1.429 . S
C385 H407 0.950 1_556 S
C386 H382 0.949 . S
C386 C394 1.574 . S
C386 C402 1.368 . S
H387 C395 0.950 . S
H388 C393 0.950 . S
H389 C394 0.949 . S
H390 C396 0.950 . S
H391 C397 0.950 . S
H392 C398 0.949 . S
C393 H388 0.950 . S
C393 C395 1.327 . S
C393 C399 1.429 . S
C394 C386 1.574 . S
C394 H389 0.949 . S
C394 C400 1.368 . S
C395 C379 1.349 . S
C395 H387 0.950 . S
C395 C393 1.327 . S
C396 C384 1.349 . S
C396 H390 0.950 . S
C396 C397 1.327 . S
C397 H391 0.950 . S
C397 C396 1.327 . S
C397 C401 1.429 . S
C398 C381 1.574 . S
C398 H392 0.949 . S
C398 C402 1.368 . S
C399 C380 1.429 . S
C399 C393 1.429 . S
C399 C400 1.523 . S
C400 C381 1.368 . S
C400 C394 1.368 . S
C400 C399 1.523 . S
C401 C385 1.429 . S
C401 C397 1.429 . S
C401 C402 1.523 . S
C402 C386 1.368 . S
C402 C398 1.368 . S
C402 C401 1.523 . S
H403 C378 0.950 . S
H404 C380 0.950 . S
H405 C381 0.949 . S
H406 C383 0.950 . S
H407 C385 0.950 1_554 S
C408 C409 1.349 . S
C408 C410 1.327 . S
C408 H433 0.950 . S
C409 C408 1.349 . S
C409 C425 1.349 1_554 S
C410 C408 1.327 . S
C410 C429 1.429 . S
C410 H434 0.950 . S
C411 C428 1.574 . S
C411 C430 1.368 . S
C411 H435 0.949 . S
H412 C416 0.949 . S
C413 C414 1.349 . S
C413 C415 1.327 . S
C413 H436 0.950 . S
C414 C413 1.349 . S
C414 C426 1.349 . S
C415 C413 1.327 . S
C415 C431 1.429 . S
C415 H437 0.950 . S
C416 H412 0.949 . S
C416 C424 1.574 . S
C416 C432 1.368 . S
H417 C425 0.950 . S
H418 C423 0.950 . S
H419 C424 0.949 . S
H420 C426 0.950 . S
H421 C427 0.950 . S
H422 C428 0.949 . S
C423 H418 0.950 . S
C423 C425 1.327 1_554 S
C423 C429 1.429 . S
C424 C416 1.574 . S
C424 H419 0.949 . S
C424 C430 1.368 . S
C425 C409 1.349 1_556 S
C425 H417 0.950 . S
C425 C423 1.327 1_556 S
C426 C414 1.349 . S
C426 H420 0.950 . S
C426 C427 1.327 . S
C427 H421 0.950 . S
C427 C426 1.327 . S
C427 C431 1.429 . S
C428 C411 1.574 . S
C428 H422 0.949 . S
C428 C432 1.368 . S
C429 C410 1.429 . S
C429 C423 1.429 . S
C429 C430 1.523 . S
C430 C411 1.368 . S
C430 C424 1.368 . S
C430 C429 1.523 . S
C431 C415 1.429 . S
C431 C427 1.429 . S
C431 C432 1.523 . S
C432 C416 1.368 . S
C432 C428 1.368 . S
C432 C431 1.523 . S
H433 C408 0.950 . S
H434 C410 0.950 . S
H435 C411 0.949 . S
H436 C413 0.950 . S
H437 C415 0.950 . S
C79 C10 1.981 1_556 S
C84 C42 1.922 . S
C109 C55 1.922 . S
C114 C23 1.981 . S
C139 C36 1.981 . S
C144 C68 1.922 1_554 S
C169 C49 1.981 . S
C174 C3 1.922 . S
C199 C16 1.922 . S
C204 C62 1.981 . S
C229 C75 1.981 . S
C234 C29 1.922 . S
C259 C5 1.566 . S
C264 C27 1.519 . S
C289 C18 1.566 . S
C294 C40 1.519 . S
C319 C53 1.519 . S
C324 C31 1.566 . S
C349 C66 1.519 . S
C354 C44 1.566 . S
C379 C57 1.566 . S
C384 C1 1.519 1_556 S
C409 C70 1.566 1_554 S
C414 C14 1.519 . S
