# Generated by pormake.
# Topology yfl, (5)-cn, num edge types: 1
# Building blocks:
#     Node 0, Type 0, BuildingBlock: BEQFEK_clean_sbu_0, # of connection points: 5
#     Node 1, Type 0, BuildingBlock: BEQFEK_clean_sbu_0, # of connection points: 5
#     Node 2, Type 0, BuildingBlock: BEQFEK_clean_sbu_0, # of connection points: 5
#     Node 3, Type 0, BuildingBlock: BEQFEK_clean_sbu_0, # of connection points: 5
#     Node 4, Type 0, BuildingBlock: BEQFEK_clean_sbu_0, # of connection points: 5
#     Node 5, Type 0, BuildingBlock: BEQFEK_clean_sbu_0, # of connection points: 5
#     Node 6, Type 0, BuildingBlock: BEQFEK_clean_sbu_0, # of connection points: 5
#     Node 7, Type 0, BuildingBlock: BEQFEK_clean_sbu_0, # of connection points: 5
#     Node 8, Type 0, BuildingBlock: BEQFEK_clean_sbu_0, # of connection points: 5
#     Node 9, Type 0, BuildingBlock: BEQFEK_clean_sbu_0, # of connection points: 5
#     Node 10, Type 0, BuildingBlock: BEQFEK_clean_sbu_0, # of connection points: 5
#     Node 11, Type 0, BuildingBlock: BEQFEK_clean_sbu_0, # of connection points: 5
#     Node 12, Type 0, BuildingBlock: BEQFEK_clean_sbu_0, # of connection points: 5
#     Node 13, Type 0, BuildingBlock: BEQFEK_clean_sbu_0, # of connection points: 5
#     Node 14, Type 0, BuildingBlock: BEQFEK_clean_sbu_0, # of connection points: 5
#     Node 15, Type 0, BuildingBlock: BEQFEK_clean_sbu_0, # of connection points: 5
#     Edge 16, Type (0, 0), BuildingBlock: EZIPEK_clean_linker_0, # of connection points: 2
#     Edge 17, Type (0, 0), BuildingBlock: EZIPEK_clean_linker_0, # of connection points: 2
#     Edge 18, Type (0, 0), BuildingBlock: EZIPEK_clean_linker_0, # of connection points: 2
#     Edge 19, Type (0, 0), BuildingBlock: EZIPEK_clean_linker_0, # of connection points: 2
#     Edge 20, Type (0, 0), BuildingBlock: EZIPEK_clean_linker_0, # of connection points: 2
#     Edge 21, Type (0, 0), BuildingBlock: EZIPEK_clean_linker_0, # of connection points: 2
#     Edge 22, Type (0, 0), BuildingBlock: EZIPEK_clean_linker_0, # of connection points: 2
#     Edge 23, Type (0, 0), BuildingBlock: EZIPEK_clean_linker_0, # of connection points: 2
#     Edge 24, Type (0, 0), BuildingBlock: EZIPEK_clean_linker_0, # of connection points: 2
#     Edge 25, Type (0, 0), BuildingBlock: EZIPEK_clean_linker_0, # of connection points: 2
#     Edge 26, Type (0, 0), BuildingBlock: EZIPEK_clean_linker_0, # of connection points: 2
#     Edge 27, Type (0, 0), BuildingBlock: EZIPEK_clean_linker_0, # of connection points: 2
#     Edge 28, Type (0, 0), BuildingBlock: EZIPEK_clean_linker_0, # of connection points: 2
#     Edge 29, Type (0, 0), BuildingBlock: EZIPEK_clean_linker_0, # of connection points: 2
#     Edge 30, Type (0, 0), BuildingBlock: EZIPEK_clean_linker_0, # of connection points: 2
#     Edge 31, Type (0, 0), BuildingBlock: EZIPEK_clean_linker_0, # of connection points: 2
#     Edge 32, Type (0, 0), BuildingBlock: EZIPEK_clean_linker_0, # of connection points: 2
#     Edge 33, Type (0, 0), BuildingBlock: EZIPEK_clean_linker_0, # of connection points: 2
#     Edge 34, Type (0, 0), BuildingBlock: EZIPEK_clean_linker_0, # of connection points: 2
#     Edge 35, Type (0, 0), BuildingBlock: EZIPEK_clean_linker_0, # of connection points: 2
#     Edge 36, Type (0, 0), BuildingBlock: EZIPEK_clean_linker_0, # of connection points: 2
#     Edge 37, Type (0, 0), BuildingBlock: EZIPEK_clean_linker_0, # of connection points: 2
#     Edge 38, Type (0, 0), BuildingBlock: EZIPEK_clean_linker_0, # of connection points: 2
#     Edge 39, Type (0, 0), BuildingBlock: EZIPEK_clean_linker_0, # of connection points: 2
#     Edge 40, Type (0, 0), BuildingBlock: EZIPEK_clean_linker_0, # of connection points: 2
#     Edge 41, Type (0, 0), BuildingBlock: EZIPEK_clean_linker_0, # of connection points: 2
#     Edge 42, Type (0, 0), BuildingBlock: EZIPEK_clean_linker_0, # of connection points: 2
#     Edge 43, Type (0, 0), BuildingBlock: EZIPEK_clean_linker_0, # of connection points: 2
#     Edge 44, Type (0, 0), BuildingBlock: EZIPEK_clean_linker_0, # of connection points: 2
#     Edge 45, Type (0, 0), BuildingBlock: EZIPEK_clean_linker_0, # of connection points: 2
#     Edge 46, Type (0, 0), BuildingBlock: EZIPEK_clean_linker_0, # of connection points: 2
#     Edge 47, Type (0, 0), BuildingBlock: EZIPEK_clean_linker_0, # of connection points: 2
#     Edge 48, Type (0, 0), BuildingBlock: EZIPEK_clean_linker_0, # of connection points: 2
#     Edge 49, Type (0, 0), BuildingBlock: EZIPEK_clean_linker_0, # of connection points: 2
#     Edge 50, Type (0, 0), BuildingBlock: EZIPEK_clean_linker_0, # of connection points: 2
#     Edge 51, Type (0, 0), BuildingBlock: EZIPEK_clean_linker_0, # of connection points: 2
#     Edge 52, Type (0, 0), BuildingBlock: EZIPEK_clean_linker_0, # of connection points: 2
#     Edge 53, Type (0, 0), BuildingBlock: EZIPEK_clean_linker_0, # of connection points: 2
#     Edge 54, Type (0, 0), BuildingBlock: EZIPEK_clean_linker_0, # of connection points: 2
#     Edge 55, Type (0, 0), BuildingBlock: EZIPEK_clean_linker_0, # of connection points: 2
# Relax obj value: 0.262
# Max RMSD: 0.188
# Mean RMSD: 0.188
data_MOF--net-yfl--node1-BEQFEK_clean_sbu_0--edge1-EZIPEK_clean_linker_0
_symmetry_space_group_name_H-M    P1
_symmetry_Int_Tables_number       1
_symmetry_cell_setting            triclinic
loop_
_symmetry_equiv_pos_as_xyz
'x, y, z'
_cell_length_a     22.811521
_cell_length_b     22.776621
_cell_length_c     90.798545
_cell_angle_alpha  89.995858
_cell_angle_beta   89.998666
_cell_angle_gamma 90.017374
loop_
_atom_site_label
_atom_site_type_symbol
_atom_site_fract_x
_atom_site_fract_y
_atom_site_fract_z
_atom_type_partial_charge
Co0 Co 0.98481 0.27659 0.29182 0.0
Co1 Co 0.09945 0.27436 0.3104 0.0
C2 C 0.00416 0.36753 0.31436 0.0
O3 O 0.97037 0.34258 0.30513 0.0
O4 O 0.055 0.34651 0.31686 0.0
C5 C 0.9 0.31308 0.27247 0.0
O6 O 0.92347 0.36308 0.27658 0.0
C7 C 0.15698 0.26329 0.3387 0.0
C8 C 0.24989 0.24947 0.33275 0.0
C9 C 0.21202 0.25479 0.34459 0.0
N10 N 0.16155 0.26306 0.32398 0.0
N11 N 0.21719 0.25473 0.32045 0.0
C12 C 0.10088 0.27122 0.34695 0.0
H13 H 0.06266 0.26628 0.33949 0.0
H14 H 0.09815 0.23872 0.35604 0.0
H15 H 0.10023 0.31568 0.35195 0.0
C16 C 0.97817 0.15406 0.30182 0.0
N17 N 0.00276 0.20765 0.30216 0.0
N18 N 0.05237 0.20528 0.30949 0.0
C19 C 0.06191 0.14924 0.31368 0.0
C20 C 0.01514 0.11487 0.30895 0.0
C21 C 0.92271 0.14008 0.29375 0.0
H22 H 0.88951 0.17451 0.29602 0.0
H23 H 0.90519 0.09651 0.29702 0.0
H24 H 0.93154 0.14007 0.28173 0.0
O25 O 0.05009 0.29878 0.27855 0.0
O26 O 0.13372 0.29056 0.29087 0.0
H27 H 0.12076 0.07948 0.32033 0.0
H28 H 0.11851 0.14272 0.33228 0.0
C29 C 0.11744 0.12806 0.32064 0.0
H30 H 0.15567 0.14754 0.31489 0.0
H31 H 0.23285 0.25288 0.30966 0.0
O32 O 0.91754 0.26581 0.2784 0.0
C33 C 0.1057 0.30216 0.27912 0.0
Co34 Co 0.27356 0.00316 0.71222 0.0
Co35 Co 0.26911 0.89249 0.69174 0.0
C36 C 0.37184 0.9776 0.69254 0.0
O37 O 0.34619 0.01232 0.70139 0.0
O38 O 0.34821 0.92969 0.68829 0.0
C39 C 0.28459 0.12063 0.72451 0.0
O40 O 0.31837 0.13071 0.71307 0.0
C41 C 0.2756 0.82849 0.66367 0.0
C42 C 0.20901 0.75937 0.66716 0.0
C43 C 0.24602 0.78313 0.65661 0.0
N44 N 0.25558 0.8323 0.67756 0.0
N45 N 0.21703 0.78983 0.67969 0.0
C46 C 0.32192 0.86789 0.65744 0.0
H47 H 0.30569 0.91382 0.65743 0.0
H48 H 0.33463 0.85478 0.64612 0.0
H49 H 0.36131 0.86624 0.66459 0.0
C50 C 0.16123 0.02732 0.69785 0.0
N51 N 0.2105 0.9955 0.69918 0.0
N52 N 0.20672 0.94833 0.69087 0.0
C53 C 0.15358 0.94794 0.68432 0.0
C54 C 0.12294 -0.00242 0.68867 0.0
C55 C 0.14869 0.08196 0.70642 0.0
H56 H 0.18592 0.11291 0.70527 0.0
H57 H 0.10791 0.10362 0.70256 0.0
H58 H 0.144 0.07063 0.71824 0.0
O59 O 0.28267 0.93351 0.72515 0.0
O60 O 0.27052 0.85424 0.71134 0.0
H61 H 0.12375 0.85936 0.68305 0.0
H62 H 0.08615 0.90822 0.67073 0.0
C63 C 0.12933 0.89764 0.67566 0.0
H64 H 0.16017 0.88593 0.66672 0.0
H65 H 0.19439 0.78316 0.68953 0.0
O66 O 0.26229 0.06982 0.72586 0.0
C67 C 0.28011 0.87792 0.7238 0.0
Co68 Co 0.98927 0.70035 0.28794 0.0
Co69 Co 0.87897 0.71664 0.30811 0.0
C70 C 0.95651 0.60859 0.30957 0.0
O71 O 0.99202 0.62785 0.2999 0.0
O72 O 0.91242 0.63869 0.31371 0.0
C73 C 0.11027 0.69023 0.27574 0.0
O74 O 0.13131 0.68791 0.28919 0.0
C75 C 0.82436 0.72775 0.3368 0.0
C76 C 0.73548 0.76018 0.33155 0.0
C77 C 0.77168 0.74389 0.34308 0.0
N78 N 0.81997 0.73417 0.32217 0.0
N79 N 0.76671 0.75348 0.31906 0.0
C80 C 0.87816 0.70669 0.34457 0.0
H81 H 0.91777 0.71614 0.33787 0.0
H82 H 0.882 0.72764 0.35557 0.0
H83 H 0.87488 0.6585 0.34617 0.0
C84 C 0.0142 0.821 0.29964 0.0
N85 N 0.98393 0.77008 0.29964 0.0
N86 N 0.93649 0.77689 0.30775 0.0
C87 C 0.93453 0.83242 0.31286 0.0
C88 C 0.98356 0.8623 0.30786 0.0
C89 C 0.06718 0.83272 0.29046 0.0
H90 H 0.05322 0.83849 0.27887 0.0
H91 H 0.09772 0.79519 0.29111 0.0
H92 H 0.09007 0.87319 0.29412 0.0
O93 O 0.91972 0.69465 0.27497 0.0
O94 O 0.84076 0.7114 0.28858 0.0
H95 H 0.84224 0.84812 0.31444 0.0
H96 H 0.8868 0.90689 0.32172 0.0
C97 C 0.88285 0.85855 0.32062 0.0
H98 H 0.87928 0.83902 0.33176 0.0
H99 H 0.75166 0.76194 0.30841 0.0
O100 O 0.05573 0.69865 0.27375 0.0
C101 C 0.8644 0.70016 0.27622 0.0
Co102 Co 0.72027 0.00204 0.70697 0.0
Co103 Co 0.71824 0.11837 0.68901 0.0
C104 C 0.61824 0.02909 0.68942 0.0
O105 O 0.64839 0.99078 0.69613 0.0
O106 O 0.63881 0.07993 0.68657 0.0
C107 C 0.69544 0.89479 0.72169 0.0
O108 O 0.65452 0.88952 0.71162 0.0
C109 C 0.7227 0.17023 0.65999 0.0
C110 C 0.73861 0.26428 0.66444 0.0
C111 C 0.73176 0.22366 0.65322 0.0
N112 N 0.72437 0.17832 0.67461 0.0
N113 N 0.73354 0.23469 0.67725 0.0
C114 C 0.71495 0.11199 0.65267 0.0
H115 H 0.71205 0.07623 0.66094 0.0
H116 H 0.75234 0.10376 0.64512 0.0
H117 H 0.67439 0.1127 0.64592 0.0
C118 C 0.83447 0.98969 0.69307 0.0
N119 N 0.78216 0.01608 0.69418 0.0
N120 N 0.7834 0.06656 0.68718 0.0
C121 C 0.83796 0.0752 0.68192 0.0
C122 C 0.87217 0.02686 0.68553 0.0
C123 C 0.85005 0.93419 0.70098 0.0
H124 H 0.81405 0.9018 0.69971 0.0
H125 H 0.89157 0.91537 0.69669 0.0
H126 H 0.85511 0.94355 0.7129 0.0
O127 O 0.70857 0.06956 0.72054 0.0
O128 O 0.71961 0.15402 0.70879 0.0
H129 H 0.90776 0.13555 0.67615 0.0
H130 H 0.84503 0.13561 0.66413 0.0
C131 C 0.85925 0.13229 0.67577 0.0
H132 H 0.83977 0.16939 0.68198 0.0
H133 H 0.73724 0.25277 0.68777 0.0
O134 O 0.73343 0.93531 0.72053 0.0
C135 C 0.71023 0.12543 0.72059 0.0
Co136 Co 0.99074 0.22508 0.95844 0.0
Co137 Co 0.10602 0.22832 0.93977 0.0
C138 C 0.02121 0.12627 0.93932 0.0
O139 O 0.98447 0.15311 0.94735 0.0
O140 O 0.0702 0.14921 0.93579 0.0
C141 C 0.87963 0.19676 0.9709 0.0
O142 O 0.87399 0.16267 0.95934 0.0
C143 C 0.16523 0.23438 0.91154 0.0
C144 C 0.25551 0.26006 0.91761 0.0
C145 C 0.21973 0.24704 0.90574 0.0
N146 N 0.16822 0.23967 0.92622 0.0
N147 N 0.22232 0.25484 0.92983 0.0
C148 C 0.11087 0.21864 0.90324 0.0
H149 H 0.07156 0.22383 0.91033 0.0
H150 H 0.10682 0.24651 0.89326 0.0
H151 H 0.11394 0.17223 0.89961 0.0
C152 C 0.97279 0.33885 0.9446 0.0
N153 N 0.00225 0.2882 0.94581 0.0
N154 N 0.05198 0.29184 0.93855 0.0
C155 C 0.05703 0.34649 0.93301 0.0
C156 C 0.00712 0.37815 0.93674 0.0
C157 C 0.91635 0.35127 0.9524 0.0
H158 H 0.92492 0.35589 0.96438 0.0
H159 H 0.88588 0.31377 0.95089 0.0
H160 H 0.89566 0.39212 0.94823 0.0
O161 O 0.05724 0.2153 0.97237 0.0
O162 O 0.13993 0.22458 0.95969 0.0
H163 H 0.15045 0.35641 0.93284 0.0
H164 H 0.1111 0.41886 0.92548 0.0
C165 C 0.11195 0.37026 0.92624 0.0
H166 H 0.11675 0.35188 0.915 0.0
H167 H 0.23646 0.26201 0.94061 0.0
O168 O 0.9218 0.23313 0.97146 0.0
C169 C 0.11296 0.21594 0.97175 0.0
Co170 Co 0.21183 -0.00188 0.03719 0.0
Co171 Co 0.22446 0.88324 0.05609 0.0
C172 C 0.11594 0.9614 0.05612 0.0
O173 O 0.13877 0.00084 0.04806 0.0
O174 O 0.14325 0.91438 0.05942 0.0
C175 C 0.18963 0.11406 0.02475 0.0
O176 O 0.14937 0.11782 0.03505 0.0
C177 C 0.22114 0.82194 0.08432 0.0
C178 C 0.2885 0.75335 0.08129 0.0
C179 C 0.25206 0.77854 0.09176 0.0
N180 N 0.23992 0.82352 0.0703 0.0
N181 N 0.27885 0.78121 0.06844 0.0
C182 C 0.17479 0.86185 0.09033 0.0
H183 H 0.13422 0.85673 0.08373 0.0
H184 H 0.18946 0.90813 0.08927 0.0
H185 H 0.1643 0.85191 0.10199 0.0
C186 C 0.32362 0.02545 0.05146 0.0
N187 N 0.27561 0.99172 0.05007 0.0
N188 N 0.28299 0.94263 0.05747 0.0
C189 C 0.33724 0.94275 0.06337 0.0
C190 C 0.36488 0.99485 0.05961 0.0
C191 C 0.33243 0.08253 0.04361 0.0
H192 H 0.29305 0.11051 0.04503 0.0
H193 H 0.37163 0.106 0.04784 0.0
H194 H 0.33817 0.07403 0.03167 0.0
O195 O 0.20617 0.9295 0.02377 0.0
O196 O 0.22579 0.848 0.03621 0.0
H197 H 0.41079 0.89996 0.07414 0.0
H198 H 0.33923 0.87631 0.07996 0.0
C199 C 0.36557 0.89052 0.07037 0.0
H200 H 0.36738 0.85426 0.06225 0.0
H201 H 0.30088 0.77317 0.05857 0.0
O202 O 0.21966 0.0672 0.02405 0.0
C203 C 0.21278 0.87398 0.02425 0.0
Co204 Co 0.98898 0.78076 0.9612 0.0
Co205 Co 0.88018 0.78106 0.9401 0.0
C206 C 0.96608 0.88087 0.94143 0.0
O207 O -0.00134 0.85313 0.95036 0.0
O208 O 0.91813 0.85927 0.93671 0.0
C209 C 0.11001 0.78634 0.97161 0.0
O210 O 0.12582 0.79049 0.95775 0.0
C211 C 0.82557 0.77839 0.91112 0.0
C212 C 0.73452 0.75193 0.91617 0.0
C213 C 0.77197 0.76635 0.90474 0.0
N214 N 0.82049 0.77137 0.92572 0.0
N215 N 0.76589 0.75583 0.92871 0.0
C216 C 0.88108 0.79492 0.90342 0.0
H217 H 0.91937 0.78845 0.91079 0.0
H218 H 0.88633 0.76845 0.89324 0.0
H219 H 0.87871 0.84184 0.90017 0.0
C220 C 0.00802 0.6659 0.94723 0.0
N221 N 0.9803 0.71776 0.94809 0.0
N222 N 0.93376 0.71685 0.9395 0.0
C223 C 0.92938 0.66331 0.93329 0.0
C224 C 0.97619 0.62931 0.93801 0.0
C225 C 0.05923 0.64922 0.95664 0.0
H226 H 0.09506 0.68128 0.955 0.0
H227 H 0.07589 0.60476 0.95392 0.0
H228 H 0.04589 0.65067 0.96838 0.0
O229 O 0.91915 0.78825 0.97417 0.0
O230 O 0.84141 0.78314 0.95949 0.0
H231 H 0.87779 0.59419 0.92316 0.0
H232 H 0.87664 0.66417 0.91391 0.0
C233 C 0.87707 0.64243 0.92483 0.0
H234 H 0.83641 0.65469 0.93077 0.0
H235 H 0.75017 0.74742 0.93929 0.0
O236 O 0.05668 0.77616 0.97479 0.0
C237 C 0.86385 0.7883 0.97224 0.0
Co238 Co 0.76433 0.98379 0.03806 0.0
Co239 Co 0.77614 0.09912 0.05679 0.0
C240 C 0.86813 0.00247 0.05614 0.0
O241 O 0.83572 0.96747 0.04892 0.0
O242 O 0.85104 0.05396 0.05963 0.0
C243 C 0.77184 0.86747 0.02546 0.0
O244 O 0.81055 0.85909 0.03596 0.0
C245 C 0.79336 0.16588 0.08407 0.0
C246 C 0.73492 0.24174 0.08033 0.0
C247 C 0.76915 0.21469 0.09097 0.0
N248 N 0.77235 0.16309 0.07027 0.0
N249 N 0.73918 0.2097 0.06794 0.0
C250 C 0.83537 0.12215 0.09039 0.0
H251 H 0.81377 0.07855 0.09098 0.0
H252 H 0.85095 0.13535 0.10147 0.0
H253 H 0.87374 0.11802 0.08296 0.0
C254 C 0.65017 0.97947 0.05224 0.0
N255 N 0.70386 0.00286 0.05095 0.0
N256 N 0.70682 0.05194 0.05856 0.0
C257 C 0.65377 0.06195 0.06469 0.0
C258 C 0.61617 0.01676 0.06072 0.0
C259 C 0.62992 0.92655 0.0439 0.0
H260 H 0.62628 0.93773 0.03204 0.0
H261 H 0.66272 0.89089 0.04504 0.0
H262 H 0.58673 0.91094 0.04796 0.0
O263 O 0.78089 0.04928 0.02426 0.0
O264 O 0.78116 0.13282 0.03691 0.0
H265 H 0.63667 0.15393 0.06419 0.0
H266 H 0.59196 0.11446 0.07712 0.0
C267 C 0.63647 0.11753 0.07228 0.0
H268 H 0.66817 0.12735 0.08117 0.0
H269 H 0.717 0.21803 0.05811 0.0
O270 O 0.74551 0.9166 0.02505 0.0
C271 C 0.78497 0.10493 0.02484 0.0
Co272 Co 0.49414 0.7766 0.78799 0.0
Co273 Co 0.60722 0.77968 0.80754 0.0
C274 C 0.51396 0.87429 0.80788 0.0
O275 O 0.47866 0.84422 0.80016 0.0
O276 O 0.56495 0.85553 0.81115 0.0
C277 C 0.37389 0.77801 0.77642 0.0
O278 O 0.35482 0.77879 0.79006 0.0
C279 C 0.66196 0.77654 0.83648 0.0
C280 C 0.75491 0.75883 0.83123 0.0
C281 C 0.71639 0.7681 0.84277 0.0
N282 N 0.6676 0.77244 0.82181 0.0
N283 N 0.7233 0.76207 0.81871 0.0
C284 C 0.60531 0.78697 0.8443 0.0
H285 H 0.56773 0.78227 0.83662 0.0
H286 H 0.60075 0.7556 0.85359 0.0
H287 H 0.60543 0.83199 0.84898 0.0
C288 C 0.48434 0.65865 0.80063 0.0
N289 N 0.50939 0.71181 0.79988 0.0
N290 N 0.55792 0.71204 0.80773 0.0
C291 C 0.56647 0.6579 0.81329 0.0
C292 C 0.52014 0.62241 0.80897 0.0
C293 C 0.43067 0.64155 0.79218 0.0
H294 H 0.44023 0.6438 0.78021 0.0
H295 H 0.39502 0.67308 0.79458 0.0
H296 H 0.41564 0.59667 0.79508 0.0
O297 O 0.56234 0.79405 0.77517 0.0
O298 O 0.64459 0.78791 0.7882 0.0
H299 H 0.66018 0.65605 0.81488 0.0
H300 H 0.62461 0.59015 0.82152 0.0
C301 C 0.62148 0.63869 0.82085 0.0
H302 H 0.62186 0.65685 0.83218 0.0
H303 H 0.73967 0.75682 0.80806 0.0
O304 O 0.42817 0.77032 0.77391 0.0
C305 C 0.61794 0.79589 0.77608 0.0
Co306 Co 0.7693 0.50272 0.20917 0.0
Co307 Co 0.77391 0.39447 0.18788 0.0
C308 C 0.8673 0.48906 0.18886 0.0
O309 O 0.83721 0.52171 0.1973 0.0
O310 O 0.84903 0.43876 0.18475 0.0
C311 C 0.76686 0.62052 0.22223 0.0
O312 O 0.7668 0.64253 0.20886 0.0
C313 C 0.78911 0.33127 0.15986 0.0
C314 C 0.72507 0.25925 0.16249 0.0
C315 C 0.76302 0.28473 0.15242 0.0
N316 N 0.76584 0.33433 0.17343 0.0
N317 N 0.72916 0.28992 0.17509 0.0
C318 C 0.83575 0.37189 0.15432 0.0
H319 H 0.87258 0.37288 0.16228 0.0
H320 H 0.81758 0.41696 0.15354 0.0
H321 H 0.85281 0.35797 0.14343 0.0
C322 C 0.65106 0.5139 0.1968 0.0
N323 N 0.70438 0.48905 0.19711 0.0
N324 N 0.7057 0.44404 0.188 0.0
C325 C 0.65241 0.4388 0.18165 0.0
C326 C 0.61609 0.48234 0.18717 0.0
C327 C 0.6325 0.56301 0.20669 0.0
H328 H 0.63745 0.54904 0.21833 0.0
H329 H 0.66144 0.60132 0.20485 0.0
H330 H 0.5865 0.57648 0.20463 0.0
O331 O 0.7884 0.43303 0.22114 0.0
O332 O 0.7821 0.35401 0.20694 0.0
H333 H 0.62926 0.34901 0.17851 0.0
H334 H 0.5915 0.39822 0.16642 0.0
C335 C 0.63414 0.38939 0.17183 0.0
H336 H 0.66776 0.38226 0.16322 0.0
H337 H 0.70525 0.28187 0.18468 0.0
O338 O 0.76135 0.56548 0.22402 0.0
C339 C 0.79134 0.3778 0.21937 0.0
Co340 Co 0.4966 0.21607 0.78789 0.0
Co341 Co 0.38699 0.22626 0.80871 0.0
C342 C 0.46656 0.12093 0.8084 0.0
O343 O 0.50167 0.14446 0.79929 0.0
O344 O 0.42005 0.1467 0.81267 0.0
C345 C 0.61627 0.20495 0.77555 0.0
O346 O 0.63667 0.19954 0.789 0.0
C347 C 0.33319 0.23364 0.83767 0.0
C348 C 0.2442 0.26653 0.83268 0.0
C349 C 0.28062 0.24938 0.84408 0.0
N350 N 0.32847 0.24113 0.82307 0.0
N351 N 0.27512 0.2606 0.82012 0.0
C352 C 0.38732 0.21254 0.84528 0.0
H353 H 0.42643 0.21984 0.83823 0.0
H354 H 0.39277 0.23528 0.85601 0.0
H355 H 0.38302 0.16479 0.84746 0.0
C356 C 0.52243 0.33146 0.80109 0.0
N357 N 0.49148 0.28136 0.80048 0.0
N358 N 0.44448 0.2865 0.80881 0.0
C359 C 0.44291 0.34099 0.81453 0.0
C360 C 0.49204 0.37129 0.80975 0.0
C361 C 0.57535 0.34383 0.7919 0.0
H362 H 0.60754 0.30794 0.79324 0.0
H363 H 0.59629 0.38601 0.79503 0.0
H364 H 0.56206 0.34571 0.78017 0.0
O365 O 0.4261 0.20986 0.77523 0.0
O366 O 0.348 0.22382 0.78939 0.0
H367 H 0.39473 0.41449 0.82377 0.0
H368 H 0.38772 0.34581 0.83346 0.0
C369 C 0.39109 0.36624 0.82241 0.0
H370 H 0.35049 0.35603 0.81621 0.0
H371 H 0.25992 0.27006 0.80954 0.0
O372 O 0.56231 0.21643 0.77355 0.0
C373 C 0.37086 0.21392 0.77687 0.0
Co374 Co 0.2091 0.49563 0.20605 0.0
Co375 Co 0.22115 0.61486 0.18907 0.0
C376 C 0.11387 0.5352 0.18746 0.0
O377 O 0.13769 0.49373 0.19461 0.0
O378 O 0.1401 0.5838 0.18524 0.0
C379 C 0.16967 0.41963 0.22681 0.0
O380 O 0.12686 0.45787 0.22568 0.0
C381 C 0.21919 0.67851 0.16128 0.0
C382 C 0.28341 0.74947 0.16509 0.0
C383 C 0.2493 0.7235 0.15424 0.0
N384 N 0.23622 0.6768 0.17543 0.0
N385 N 0.27324 0.72047 0.17776 0.0
C386 C 0.17532 0.63709 0.15474 0.0
H387 H 0.19129 0.59132 0.15597 0.0
H388 H 0.16648 0.64673 0.14299 0.0
H389 H 0.13347 0.64085 0.16088 0.0
C390 C 0.32275 0.47354 0.19256 0.0
N391 N 0.27369 0.50561 0.1938 0.0
N392 N 0.28101 0.55665 0.18728 0.0
C393 C 0.33641 0.55952 0.18216 0.0
C394 C 0.36474 0.50723 0.18547 0.0
C395 C 0.33137 0.41512 0.19978 0.0
H396 H 0.2928 0.38676 0.19758 0.0
H397 H 0.37178 0.3933 0.19573 0.0
H398 H 0.3346 0.42123 0.21188 0.0
O399 O 0.2025 0.56116 0.22038 0.0
O400 O 0.22087 0.64623 0.20936 0.0
H401 H 0.41149 0.60792 0.17378 0.0
H402 H 0.34121 0.62991 0.16668 0.0
C403 C 0.3647 0.61449 0.17661 0.0
H404 H 0.36183 0.64877 0.18524 0.0
H405 H 0.29373 0.72872 0.18782 0.0
O406 O 0.21387 0.42428 0.21839 0.0
C407 C 0.2083 0.61673 0.22084 0.0
Co408 Co 0.50326 0.70645 0.46163 0.0
Co409 Co 0.61202 0.71531 0.44071 0.0
C410 C 0.52861 0.61087 0.44067 0.0
O411 O 0.49523 0.63216 0.45057 0.0
O412 O 0.57309 0.63901 0.43589 0.0
C413 C 0.38783 0.69628 0.47566 0.0
O414 O 0.37441 0.66091 0.46474 0.0
C415 C 0.66424 0.72507 0.41164 0.0
C416 C 0.75542 0.75154 0.41651 0.0
C417 C 0.71712 0.73898 0.40512 0.0
N418 N 0.67057 0.72917 0.42628 0.0
N419 N 0.72521 0.74487 0.42916 0.0
C420 C 0.60831 0.70893 0.40408 0.0
H421 H 0.57029 0.71699 0.41143 0.0
H422 H 0.60341 0.73428 0.39371 0.0
H423 H 0.60953 0.66157 0.40123 0.0
C424 C 0.47987 0.82305 0.44857 0.0
N425 N 0.51042 0.77257 0.4491 0.0
N426 N 0.55796 0.77805 0.44103 0.0
C427 C 0.56027 0.83293 0.43552 0.0
C428 C 0.51094 0.86337 0.44016 0.0
C429 C 0.42491 0.83429 0.45709 0.0
H430 H 0.39479 0.79636 0.45591 0.0
H431 H 0.40268 0.87482 0.45323 0.0
H432 H 0.43596 0.8392 0.46891 0.0
O433 O 0.57318 0.69812 0.47431 0.0
O434 O 0.65133 0.70877 0.46001 0.0
H435 H 0.61006 0.90641 0.42689 0.0
H436 H 0.61285 0.83989 0.41617 0.0
C437 C 0.612 0.85781 0.42752 0.0
H438 H 0.65303 0.84453 0.43315 0.0
H439 H 0.74178 0.75129 0.43975 0.0
O440 O 0.43901 0.71803 0.47595 0.0
C441 C 0.62848 0.69976 0.47258 0.0
Co442 Co 0.72229 0.48524 0.53646 0.0
Co443 Co 0.73001 0.3703 0.55519 0.0
C444 C 0.62597 0.45433 0.55639 0.0
O445 O 0.6481 0.49127 0.54746 0.0
O446 O 0.65336 0.40791 0.56012 0.0
C447 C 0.7103 0.60433 0.52503 0.0
O448 O 0.67442 0.6122 0.53617 0.0
C449 C 0.73593 0.3172 0.58392 0.0
C450 C 0.75895 0.22472 0.57942 0.0
C451 C 0.74649 0.264 0.59063 0.0
N452 N 0.74173 0.31029 0.56934 0.0
N453 N 0.75552 0.25491 0.56666 0.0
C454 C 0.7202 0.3738 0.59126 0.0
H455 H 0.7307 0.41154 0.58398 0.0
H456 H 0.74378 0.37817 0.6019 0.0
H457 H 0.67244 0.37401 0.59358 0.0
C458 C 0.83903 0.5036 0.54989 0.0
N459 N 0.78801 0.47417 0.54889 0.0
N460 N 0.79318 0.42373 0.5558 0.0
C461 C 0.84846 0.41815 0.56081 0.0
C462 C 0.87959 0.46855 0.55721 0.0
C463 C 0.85022 0.56185 0.54283 0.0
H464 H 0.81207 0.59116 0.54462 0.0
H465 H 0.89037 0.58266 0.54735 0.0
H466 H 0.8558 0.5556 0.53081 0.0
O467 O 0.7138 0.41808 0.52262 0.0
O468 O 0.72471 0.33552 0.53539 0.0
H469 H 0.92137 0.36235 0.56704 0.0
H470 H 0.8576 0.35841 0.57873 0.0
C471 C 0.87275 0.36265 0.56718 0.0
H472 H 0.85617 0.32436 0.56089 0.0
H473 H 0.76234 0.23772 0.55615 0.0
O474 O 0.73384 0.55418 0.52354 0.0
C475 C 0.71564 0.36223 0.52329 0.0
Co476 Co 0.50557 0.27306 0.45769 0.0
Co477 Co 0.38905 0.27004 0.43976 0.0
C478 C 0.47877 0.36884 0.43686 0.0
O479 O 0.51413 0.34407 0.44574 0.0
O480 O 0.42903 0.34571 0.43418 0.0
C481 C 0.62313 0.28939 0.46946 0.0
O482 O 0.62707 0.33102 0.4595 0.0
C483 C 0.32837 0.263 0.41181 0.0
C484 C 0.23699 0.24325 0.4182 0.0
C485 C 0.27315 0.25284 0.4062 0.0
N486 N 0.32557 0.25956 0.42653 0.0
N487 N 0.27082 0.24783 0.43033 0.0
C488 C 0.38313 0.27498 0.40329 0.0
H489 H 0.42238 0.26997 0.4104 0.0
H490 H 0.38603 0.2447 0.39374 0.0
H491 H 0.38152 0.32049 0.39895 0.0
C492 C 0.51631 0.15415 0.44526 0.0
N493 N 0.49 0.20689 0.44586 0.0
N494 N 0.43974 0.20423 0.4388 0.0
C495 C 0.43147 0.14891 0.43394 0.0
C496 C 0.47968 0.11528 0.43793 0.0
C497 C 0.57201 0.13946 0.45312 0.0
H498 H 0.56272 0.13487 0.46505 0.0
H499 H 0.60422 0.17546 0.45164 0.0
H500 H 0.5909 0.09768 0.44899 0.0
O501 O 0.44117 0.28611 0.47197 0.0
O502 O 0.35729 0.27587 0.4599 0.0
H503 H 0.33774 0.14314 0.43414 0.0
H504 H 0.37392 0.07823 0.42709 0.0
C505 C 0.37521 0.12689 0.42752 0.0
H506 H 0.37061 0.14424 0.41617 0.0
H507 H 0.25659 0.24288 0.44118 0.0
O508 O 0.57569 0.26032 0.47014 0.0
C509 C 0.38536 0.28496 0.47178 0.0
Co510 Co 0.29148 0.49001 0.53908 0.0
Co511 Co 0.28541 0.59539 0.56135 0.0
C512 C 0.38507 0.50724 0.56184 0.0
O513 O 0.36112 0.47964 0.55126 0.0
O514 O 0.36169 0.5542 0.56685 0.0
C515 C 0.29807 0.3707 0.52656 0.0
O516 O 0.29884 0.34924 0.53999 0.0
C517 C 0.28312 0.66322 0.58924 0.0
C518 C 0.21566 0.72972 0.58421 0.0
C519 C 0.25094 0.70865 0.59545 0.0
N520 N 0.26655 0.65662 0.57513 0.0
N521 N 0.22741 0.6977 0.5721 0.0
C522 C 0.3313 0.629 0.59628 0.0
H523 H 0.37311 0.64487 0.59153 0.0
H524 H 0.3261 0.58165 0.59374 0.0
H525 H 0.33356 0.63564 0.60834 0.0
C526 C 0.17118 0.47012 0.5499 0.0
N527 N 0.22341 0.4974 0.55068 0.0
N528 N 0.21997 0.54147 0.56006 0.0
C529 C 0.16474 0.54324 0.5655 0.0
C530 C 0.13198 0.49873 0.55908 0.0
C531 C 0.15712 0.4224 0.53918 0.0
H532 H 0.1892 0.38632 0.54039 0.0
H533 H 0.11237 0.40458 0.54091 0.0
H534 H 0.16062 0.44028 0.52785 0.0
O535 O 0.30175 0.55988 0.5268 0.0
O536 O 0.29582 0.63571 0.54205 0.0
H537 H 0.13366 0.63057 0.56867 0.0
H538 H 0.09882 0.5777 0.58032 0.0
C539 C 0.14121 0.59044 0.57529 0.0
H540 H 0.17293 0.59993 0.58419 0.0
H541 H 0.20704 0.70248 0.56188 0.0
O542 O 0.29039 0.42537 0.52459 0.0
C543 C 0.30271 0.61477 0.52918 0.0
C544 C 0.1249 0.29575 0.2521 0.0
C545 C 0.13693 0.32319 0.26582 0.0
C546 C 0.19255 0.39969 0.25301 0.0
C547 C 0.16976 0.37919 0.23947 0.0
N548 N 0.11573 0.30736 0.22561 0.0
N549 N 0.17911 0.40464 0.27936 0.0
C550 C 0.13699 0.32655 0.23883 0.0
C551 C 0.17119 0.37535 0.26636 0.0
N552 N 0.10225 0.2402 0.25186 0.0
N553 N 0.23367 0.44331 0.25308 0.0
H554 H 0.16312 0.38991 0.28944 0.0
H555 H 0.19755 0.44639 0.28001 0.0
H556 H 0.24954 0.46234 0.24342 0.0
H557 H 0.25626 0.45612 0.26251 0.0
H558 H 0.09657 0.21592 0.24225 0.0
H559 H 0.09422 0.2163 0.26146 0.0
H560 H 0.08583 0.27308 0.22456 0.0
H561 H 0.12637 0.32775 0.21567 0.0
C562 C 0.29765 0.84324 0.76403 0.0
C563 C 0.33535 0.79338 0.76373 0.0
C564 C 0.33073 0.7927 0.73678 0.0
C565 C 0.2915 0.84131 0.73711 0.0
N566 N 0.22085 0.8961 0.7513 0.0
N567 N 0.36799 0.70863 0.75013 0.0
C568 C 0.26911 0.86067 0.75085 0.0
C569 C 0.34477 0.76387 0.75019 0.0
N570 N 0.29244 0.87738 0.77634 0.0
N571 N 0.35876 0.77664 0.7241 0.0
H572 H 0.37707 0.68589 0.75985 0.0
H573 H 0.37156 0.68339 0.74059 0.0
H574 H 0.35379 0.79812 0.71408 0.0
H575 H 0.39209 0.74534 0.72391 0.0
H576 H 0.27039 0.91747 0.77629 0.0
H577 H 0.31443 0.86958 0.78616 0.0
H578 H 0.20017 0.9077 0.76112 0.0
H579 H 0.19774 0.90791 0.74183 0.0
C580 C 0.83077 0.69433 0.23579 0.0
C581 C 0.78092 0.6567 0.23542 0.0
C582 C 0.77876 0.6549 0.26239 0.0
C583 C 0.82813 0.69298 0.26273 0.0
N584 N 0.88472 0.7664 0.24994 0.0
N585 N 0.69561 0.62076 0.24819 0.0
C586 C 0.84835 0.71878 0.24946 0.0
C587 C 0.75075 0.644 0.2487 0.0
N588 N 0.86469 0.70319 0.22359 0.0
N589 N 0.76111 0.62533 0.27471 0.0
H590 H 0.67362 0.61397 0.23825 0.0
H591 H 0.66974 0.61485 0.25753 0.0
H592 H 0.78137 0.62929 0.28493 0.0
H593 H 0.72939 0.5924 0.27445 0.0
H594 H 0.905 0.72471 0.22401 0.0
H595 H 0.85617 0.68502 0.21332 0.0
H596 H 0.8969 0.78979 0.24055 0.0
H597 H 0.89694 0.78637 0.25982 0.0
C598 C 0.64497 0.22812 0.74962 0.0
C599 C 0.65342 0.19311 0.76237 0.0
C600 C 0.71926 0.13055 0.748 0.0
C601 C 0.69808 0.15607 0.73476 0.0
N602 N 0.63153 0.22607 0.72335 0.0
N603 N 0.69363 0.10336 0.77279 0.0
C604 C 0.65911 0.20473 0.73559 0.0
C605 C 0.69002 0.14264 0.76145 0.0
N606 N 0.62319 0.28367 0.7509 0.0
N607 N 0.76711 0.09453 0.74772 0.0
H608 H 0.67047 0.10728 0.7826 0.0
H609 H 0.71518 0.0632 0.77178 0.0
H610 H 0.79107 0.08683 0.73812 0.0
H611 H 0.78672 0.07833 0.75727 0.0
H612 H 0.6204 0.31257 0.74202 0.0
H613 H 0.61497 0.30284 0.76111 0.0
H614 H 0.59844 0.25756 0.72393 0.0
H615 H 0.63641 0.20864 0.71284 0.0
C616 C 0.21529 0.13867 0.99853 0.0
C617 C 0.18965 0.15617 0.01202 0.0
C618 C 0.1341 0.23156 0.99861 0.0
C619 C 0.14628 0.20122 0.98528 0.0
N620 N 0.19637 0.1211 0.97287 0.0
N621 N 0.14052 0.2329 0.02539 0.0
C622 C 0.1872 0.15417 0.98522 0.0
C623 C 0.15405 0.20732 0.01223 0.0
N624 N 0.26717 0.10891 0.99838 0.0
N625 N 0.1046 0.28377 0.99813 0.0
H626 H 0.16241 0.22172 0.03508 0.0
H627 H 0.10914 0.26559 0.02671 0.0
H628 H 0.09167 0.3032 0.98823 0.0
H629 H 0.09666 0.31014 0.00726 0.0
H630 H 0.2892 0.09838 0.98868 0.0
H631 H 0.29206 0.10308 0.00791 0.0
H632 H 0.22141 0.08281 0.97299 0.0
H633 H 0.17469 0.12793 0.96293 0.0
C634 C 0.14661 0.76497 0.9969 0.0
C635 C 0.15149 0.79891 0.98388 0.0
C636 C 0.21905 0.86426 0.99694 0.0
C637 C 0.2007 0.84007 0.01057 0.0
N638 N 0.13903 0.76912 0.02331 0.0
N639 N 0.1892 0.88734 0.97218 0.0
C640 C 0.16322 0.79006 0.01058 0.0
C641 C 0.18783 0.84977 0.98391 0.0
N642 N 0.12531 0.70903 0.99622 0.0
N643 N 0.26576 0.90173 0.99647 0.0
H644 H 0.16527 0.88137 0.96257 0.0
H645 H 0.21014 0.928 0.9726 0.0
H646 H 0.29049 0.91175 0.00582 0.0
H647 H 0.28367 0.91709 0.98663 0.0
H648 H 0.12503 0.68081 0.00527 0.0
H649 H 0.11471 0.68901 0.98624 0.0
H650 H 0.10666 0.73679 0.02338 0.0
H651 H 0.14616 0.78726 0.03365 0.0
C652 C 0.83305 0.76031 0.99784 0.0
C653 C 0.82537 0.79662 0.98524 0.0
C654 C 0.75118 0.85254 0.9986 0.0
C655 C 0.77288 0.82947 0.01198 0.0
N656 N 0.81719 0.74713 0.02418 0.0
N657 N 0.77687 0.87998 0.97384 0.0
C658 C 0.80818 0.77826 0.01154 0.0
C659 C 0.78329 0.84265 0.98551 0.0
N660 N 0.8632 0.70869 0.99654 0.0
N661 N 0.69966 0.8829 0.9984 0.0
H662 H 0.8013 0.87698 0.96418 0.0
H663 H 0.75088 0.91757 0.97434 0.0
H664 H 0.67297 0.88584 0.00771 0.0
H665 H 0.68004 0.89747 0.9887 0.0
H666 H 0.86844 0.67851 0.00502 0.0
H667 H 0.87963 0.6938 0.98648 0.0
H668 H 0.84747 0.71328 0.02525 0.0
H669 H 0.79263 0.75512 0.03367 0.0
C670 C 0.76918 0.15746 0.00081 0.0
C671 C 0.8077 0.1355 0.01175 0.0
C672 C 0.89168 0.1506 0.99556 0.0
C673 C 0.85411 0.17696 0.98498 0.0
N674 N 0.75865 0.21231 0.97797 0.0
N675 N 0.90617 0.12347 0.02102 0.0
C676 C 0.79314 0.18245 0.98773 0.0
C677 C 0.86916 0.13628 0.0096 0.0
N678 N 0.70997 0.15319 0.00282 0.0
N679 N 0.94796 0.13567 0.99191 0.0
H680 H 0.89143 0.11228 0.03152 0.0
H681 H 0.95142 0.12932 0.02045 0.0
H682 H 0.96588 0.14261 0.9815 0.0
H683 H 0.97498 0.11056 0.99869 0.0
H684 H 0.67935 0.16261 0.99466 0.0
H685 H 0.69147 0.13703 0.01252 0.0
H686 H 0.71493 0.22273 0.97995 0.0
H687 H 0.77509 0.23038 0.96825 0.0
C688 C 0.65648 0.8806 0.76213 0.0
C689 C 0.65029 0.81898 0.76332 0.0
C690 C 0.68712 0.8068 0.73816 0.0
C691 C 0.68485 0.86859 0.73632 0.0
N692 N 0.65637 0.96394 0.74577 0.0
N693 N 0.65735 0.72239 0.75276 0.0
C694 C 0.66738 0.90562 0.74814 0.0
C695 C 0.66542 0.78161 0.75145 0.0
N696 N 0.65071 0.91536 0.77433 0.0
N697 N 0.71049 0.77259 0.72729 0.0
H698 H 0.644 0.70278 0.7626 0.0
H699 H 0.66118 0.69314 0.74401 0.0
H700 H 0.72651 0.7901 0.71745 0.0
H701 H 0.71823 0.72779 0.72843 0.0
H702 H 0.66065 0.96 0.77438 0.0
H703 H 0.64127 0.89869 0.78476 0.0
H704 H 0.63732 0.99134 0.75361 0.0
H705 H 0.66019 0.984 0.73552 0.0
C706 C 0.87159 0.32186 0.23159 0.0
C707 C 0.81286 0.34247 0.23188 0.0
C708 C 0.80664 0.32189 0.25835 0.0
C709 C 0.86771 0.31131 0.25842 0.0
N710 N 0.95907 0.29798 0.24554 0.0
N711 N 0.72205 0.35791 0.24477 0.0
C712 C 0.90012 0.30895 0.2451 0.0
C713 C 0.77932 0.34029 0.24504 0.0
N714 N 0.90051 0.31611 0.21847 0.0
N715 N 0.77538 0.31462 0.27106 0.0
H716 H 0.70035 0.36826 0.23498 0.0
H717 H 0.69633 0.36362 0.25412 0.0
H718 H 0.79501 0.30098 0.28087 0.0
H719 H 0.72997 0.31771 0.27173 0.0
H720 H 0.94114 0.29586 0.21736 0.0
H721 H 0.88234 0.32761 0.20836 0.0
H722 H 0.98727 0.30402 0.23667 0.0
H723 H 0.98071 0.28495 0.2551 0.0
C724 C 0.26169 0.14165 0.75104 0.0
C725 C 0.2848 0.16135 0.73747 0.0
C726 C 0.34329 0.23466 0.75064 0.0
C727 C 0.333 0.20296 0.76391 0.0
N728 N 0.28252 0.12381 0.77662 0.0
N729 N 0.32252 0.2447 0.7244 0.0
C730 C 0.29102 0.15679 0.76422 0.0
C731 C 0.31808 0.21384 0.73724 0.0
N732 N 0.21087 0.11009 0.75131 0.0
N733 N 0.37801 0.2836 0.75095 0.0
H734 H 0.29803 0.23336 0.71511 0.0
H735 H 0.34523 0.28398 0.72321 0.0
H736 H 0.39319 0.30193 0.76077 0.0
H737 H 0.392 0.30621 0.74164 0.0
H738 H 0.18978 0.09814 0.76105 0.0
H739 H 0.18589 0.10348 0.74183 0.0
H740 H 0.25744 0.08554 0.77665 0.0
H741 H 0.30419 0.13107 0.78653 0.0
C742 C 0.21742 0.62158 0.24821 0.0
C743 C 0.19531 0.6465 0.23502 0.0
C744 C 0.13778 0.71508 0.24982 0.0
C745 C 0.14815 0.68056 0.26257 0.0
N746 N 0.19432 0.59427 0.27319 0.0
N747 N 0.12613 0.71323 0.22348 0.0
C748 C 0.18789 0.63251 0.26171 0.0
C749 C 0.15389 0.69296 0.23581 0.0
N750 N 0.26638 0.58714 0.24781 0.0
N751 N 0.11259 0.76915 0.25109 0.0
H752 H 0.13346 0.69692 0.21294 0.0
H753 H 0.09111 0.74257 0.22395 0.0
H754 H 0.103 0.7876 0.26129 0.0
H755 H 0.10828 0.79799 0.24223 0.0
H756 H 0.2872 0.57189 0.25729 0.0
H757 H 0.28959 0.57942 0.23809 0.0
H758 H 0.21832 0.55551 0.27234 0.0
H759 H 0.17151 0.59759 0.28307 0.0
C760 C 0.67664 0.69817 0.51246 0.0
C761 C 0.71127 0.64647 0.51232 0.0
C762 C 0.70844 0.64323 0.48552 0.0
C763 C 0.66598 0.68889 0.48563 0.0
N764 N 0.62421 0.77213 0.49818 0.0
N765 N 0.78815 0.59791 0.49887 0.0
C766 C 0.65489 0.72062 0.49884 0.0
C767 C 0.73662 0.62825 0.49887 0.0
N768 N 0.66591 0.72582 0.52552 0.0
N769 N 0.71891 0.61087 0.47313 0.0
H770 H 0.81208 0.59139 0.50852 0.0
H771 H 0.81062 0.58698 0.48926 0.0
H772 H 0.69863 0.61847 0.46305 0.0
H773 H 0.74454 0.57298 0.47321 0.0
H774 H 0.63632 0.76009 0.52688 0.0
H775 H 0.68921 0.71533 0.53506 0.0
H776 H 0.61531 0.79876 0.5072 0.0
H777 H 0.61053 0.79043 0.48821 0.0
C778 C 0.71461 0.32522 0.48262 0.0
C779 C 0.6651 0.28755 0.48218 0.0
C780 C 0.66125 0.28435 0.50896 0.0
C781 C 0.70521 0.32854 0.50956 0.0
N782 N 0.78716 0.37575 0.49771 0.0
N783 N 0.62084 0.20507 0.49448 0.0
C784 C 0.73644 0.34407 0.49657 0.0
C785 C 0.64812 0.25827 0.49522 0.0
N786 N 0.7407 0.342 0.46977 0.0
N787 N 0.62875 0.27003 0.52108 0.0
H788 H 0.61641 0.18262 0.48454 0.0
H789 H 0.61085 0.18014 0.50378 0.0
H790 H 0.63461 0.28897 0.5314 0.0
H791 H 0.59213 0.24271 0.52052 0.0
H792 H 0.77219 0.37489 0.46896 0.0
H793 H 0.73119 0.3213 0.45979 0.0
H794 H 0.81396 0.38646 0.48884 0.0
H795 H 0.80509 0.38761 0.50786 0.0
C796 C 0.36099 0.29694 0.51273 0.0
C797 C 0.31081 0.33391 0.51342 0.0
C798 C 0.30467 0.33413 0.48653 0.0
C799 C 0.35356 0.29554 0.48582 0.0
N800 N 0.41229 0.22326 0.49852 0.0
N801 N 0.22287 0.3669 0.5013 0.0
C802 C 0.37631 0.27115 0.49903 0.0
C803 C 0.27846 0.34514 0.5004 0.0
N804 N 0.39686 0.28959 0.52463 0.0
N805 N 0.28579 0.36421 0.4744 0.0
H806 H 0.2019 0.37278 0.51139 0.0
H807 H 0.19576 0.37188 0.49214 0.0
H808 H 0.30579 0.3618 0.46413 0.0
H809 H 0.25389 0.3969 0.47497 0.0
H810 H 0.43726 0.26838 0.52393 0.0
H811 H 0.38955 0.30876 0.53485 0.0
H812 H 0.42629 0.20123 0.50795 0.0
H813 H 0.42219 0.2016 0.4887 0.0
C814 C 0.27595 0.6473 0.50376 0.0
C815 C 0.3123 0.65392 0.51638 0.0
C816 C 0.37502 0.72072 0.50251 0.0
C817 C 0.35051 0.69888 0.48927 0.0
N818 N 0.26357 0.66298 0.47737 0.0
N819 N 0.39711 0.69882 0.52787 0.0
C820 C 0.29601 0.66907 0.48991 0.0
C821 C 0.36121 0.69239 0.51594 0.0
N822 N 0.22264 0.62041 0.50519 0.0
N823 N 0.40981 0.76943 0.50228 0.0
H824 H 0.38968 0.67843 0.53796 0.0
H825 H 0.43698 0.72111 0.52736 0.0
H826 H 0.41534 0.79436 0.49275 0.0
H827 H 0.42569 0.78943 0.51181 0.0
H828 H 0.19297 0.61436 0.49664 0.0
H829 H 0.20641 0.60674 0.51538 0.0
H830 H 0.22596 0.63746 0.47649 0.0
H831 H 0.27361 0.68633 0.4678 0.0
C832 C 0.00636 0.018 0.32231 0.0
C833 C 0.01087 0.04968 0.3089 0.0
C834 C 0.9914 0.95983 0.29504 0.0
C835 C 0.99335 0.92688 0.30828 0.0
N836 N 0.0127 0.9232 0.33438 0.0
N837 N 0.02477 0.04712 0.28253 0.0
C838 C 0.00393 0.95556 0.32191 0.0
C839 C 0.00867 0.01948 0.29526 0.0
N840 N 0.00221 0.04744 0.33538 0.0
N841 N 0.97035 0.93524 0.28237 0.0
H842 H 0.04035 0.09018 0.2823 0.0
H843 H 0.0288 0.02518 0.2725 0.0
H844 H 0.95404 0.89252 0.28187 0.0
H845 H 0.96312 0.95941 0.27279 0.0
H846 H 0.99267 0.02684 0.34534 0.0
H847 H 0.00344 0.09312 0.33611 0.0
H848 H 0.02641 0.94146 0.34432 0.0
H849 H 0.01113 0.87742 0.33449 0.0
C850 C 0.03236 0.01854 0.67373 0.0
C851 C 0.05886 0.00691 0.68756 0.0
C852 C 0.96535 0.02281 0.69983 0.0
C853 C 0.937 0.02454 0.68597 0.0
N854 N 0.94239 0.01862 0.65948 0.0
N855 N 0.04664 0.98265 0.71335 0.0
C856 C 0.97017 0.02113 0.6728 0.0
C857 C 0.0243 0.00466 0.70052 0.0
N858 N 0.0665 0.02798 0.6616 0.0
N859 N 0.93665 0.04011 0.71231 0.0
H860 H 0.08876 0.96522 0.71419 0.0
H861 H 0.02095 0.97563 0.72269 0.0
H862 H 0.89409 0.05685 0.71216 0.0
H863 H 0.95753 0.04409 0.72247 0.0
H864 H 0.04979 0.04223 0.65154 0.0
H865 H 0.11219 0.0261 0.66193 0.0
H866 H 0.9641 0.00998 0.64963 0.0
H867 H 0.89691 0.02091 0.65842 0.0
C868 C 0.99231 0.53629 0.92355 0.0
C869 C 0.9811 0.56463 0.93717 0.0
C870 C 0.99675 0.4729 0.95027 0.0
C871 C 0.00047 0.44276 0.93666 0.0
N872 N 0.99324 0.44416 0.91015 0.0
N873 N 0.95414 0.55553 0.96283 0.0
C874 C 0.99576 0.47396 0.92319 0.0
C875 C 0.97745 0.53158 0.95034 0.0
N876 N 0.00117 0.56878 0.9111 0.0
N877 N 0.01406 0.4466 0.96307 0.0
H878 H 0.93645 0.59774 0.96315 0.0
H879 H 0.94646 0.53102 0.97234 0.0
H880 H 0.03242 0.40469 0.96342 0.0
H881 H 0.01648 0.46911 0.97306 0.0
H882 H 0.01538 0.5507 0.90119 0.0
H883 H -0.00138 0.6145 0.91098 0.0
H884 H 0.98394 0.46433 0.90012 0.0
H885 H 0.99588 0.39851 0.90951 0.0
C886 C 0.51992 0.01159 0.07426 0.0
C887 C 0.55135 0.01844 0.06091 0.0
C888 C 0.46136 0.00749 0.04681 0.0
C889 C 0.4288 0.00585 0.06011 0.0
N890 N 0.42561 0.01812 0.08648 0.0
N891 N 0.54904 0.04324 0.03504 0.0
C892 C 0.45764 0.01188 0.07387 0.0
C893 C 0.52108 0.02315 0.04735 0.0
N894 N 0.54935 0.00274 0.08717 0.0
N895 N 0.43673 0.9905 0.03376 0.0
H896 H 0.59249 0.05753 0.03514 0.0
H897 H 0.52706 0.05182 0.0252 0.0
H898 H 0.39416 0.97425 0.03291 0.0
H899 H 0.46094 0.98614 0.02409 0.0
H900 H 0.52859 0.9913 0.09698 0.0
H901 H 0.59501 0.00273 0.08784 0.0
H902 H 0.4443 0.02802 0.09665 0.0
H903 H 0.37986 0.01831 0.08653 0.0
C904 C 0.4987 0.46684 0.7964 0.0
C905 C 0.50009 0.43565 0.80989 0.0
C906 C 0.51177 0.52809 0.82326 0.0
C907 C 0.51747 0.55767 0.80959 0.0
N908 N 0.5357 0.55112 0.78341 0.0
N909 N 0.51751 0.43496 0.83611 0.0
C910 C 0.51717 0.52576 0.79622 0.0
C911 C 0.50962 0.46576 0.82335 0.0
N912 N 0.47716 0.44141 0.78389 0.0
N913 N 0.50645 0.55934 0.83603 0.0
H914 H 0.51597 0.38921 0.83654 0.0
H915 H 0.53026 0.45452 0.84597 0.0
H916 H 0.50769 0.6051 0.83635 0.0
H917 H 0.49621 0.54007 0.84611 0.0
H918 H 0.47105 0.46473 0.77413 0.0
H919 H 0.45911 0.39935 0.78372 0.0
H920 H 0.54043 0.52752 0.77364 0.0
H921 H 0.5526 0.59365 0.78295 0.0
C922 C 0.52308 0.49776 0.17276 0.0
C923 C 0.5514 0.48435 0.18625 0.0
C924 C 0.45852 0.4916 0.19926 0.0
C925 C 0.42892 0.49787 0.18562 0.0
N926 N 0.43195 0.49605 0.15906 0.0
N927 N 0.54286 0.45028 0.21138 0.0
C928 C 0.46088 0.49738 0.17222 0.0
C929 C 0.51808 0.47527 0.1992 0.0
N930 N 0.55532 0.5128 0.16065 0.0
N931 N 0.43121 0.50462 0.21225 0.0
H932 H 0.58604 0.43524 0.21158 0.0
H933 H 0.51849 0.43867 0.22065 0.0
H934 H 0.38877 0.52141 0.21282 0.0
H935 H 0.45327 0.50532 0.22231 0.0
H936 H 0.53662 0.52874 0.15098 0.0
H937 H 0.60104 0.51375 0.16069 0.0
H938 H 0.45318 0.4902 0.149 0.0
H939 H 0.3863 0.49576 0.1583 0.0
C940 C 0.5018 0.96141 0.45251 0.0
C941 C 0.50131 0.92777 0.43937 0.0
C942 C 0.4891 0.0179 0.42492 0.0
C943 C 0.48361 0.05023 0.4382 0.0
N944 N 0.46674 0.04914 0.46447 0.0
N945 N 0.48462 0.92234 0.41317 0.0
C946 C 0.48436 0.02088 0.45196 0.0
C947 C 0.49198 0.95553 0.42557 0.0
N948 N 0.52166 0.93769 0.4654 0.0
N949 N 0.49333 0.04674 0.41177 0.0
H950 H 0.48642 0.87657 0.41327 0.0
H951 H 0.47191 0.93984 0.40307 0.0
H952 H 0.49091 0.09234 0.41089 0.0
H953 H 0.50364 0.02585 0.4019 0.0
H954 H 0.5278 0.96249 0.47493 0.0
H955 H 0.53819 0.89514 0.46618 0.0
H956 H 0.46165 0.02773 0.47454 0.0
H957 H 0.45098 0.09213 0.46445 0.0
C958 C 0.03595 0.50251 0.54565 0.0
C959 C 0.06699 0.49314 0.55896 0.0
C960 C 0.97383 0.47568 0.57167 0.0
C961 C 0.94426 0.47678 0.55792 0.0
N962 N 0.95192 0.47339 0.53135 0.0
N963 N 0.06633 0.46075 0.58427 0.0
C964 C 0.9766 0.48511 0.54474 0.0
C965 C 0.03619 0.47678 0.57191 0.0
N966 N 0.06246 0.52937 0.53396 0.0
N967 N 0.94254 0.47509 0.5845 0.0
H968 H 0.11202 0.46098 0.58481 0.0
H969 H 0.04615 0.44275 0.59352 0.0
H970 H 0.89682 0.47516 0.58475 0.0
H971 H 0.96187 0.47988 0.59483 0.0
H972 H 0.03966 0.5414 0.52447 0.0
H973 H 0.10526 0.5454 0.53437 0.0
H974 H 0.97582 0.47418 0.52156 0.0
H975 H 0.9098 0.45621 0.53019 0.0
C976 C 0.91854 0.50571 0.31331 0.0
C977 C 0.96425 0.54766 0.31516 0.0
C978 C 0.0295 0.46933 0.32421 0.0
C979 C 0.98691 0.42738 0.31984 0.0
N980 N 0.88366 0.40778 0.31899 0.0
N981 N 0.06074 0.57159 0.3242 0.0
C982 C 0.92886 0.44649 0.31731 0.0
C983 C 0.0189 0.53014 0.32135 0.0
N984 N 0.86724 0.52066 0.30647 0.0
N985 N 0.07761 0.45134 0.33193 0.0
H986 H 0.05249 0.61654 0.3234 0.0
H987 H 0.10388 0.56191 0.327 0.0
H988 H 0.08146 0.40871 0.33599 0.0
H989 H 0.10976 0.47937 0.33599 0.0
H990 H 0.8358 0.48985 0.30338 0.0
H991 H 0.85797 0.5626 0.30256 0.0
H992 H 0.83971 0.42007 0.31849 0.0
H993 H 0.89066 0.36499 0.32274 0.0
C994 C 0.4604 0.00195 0.67686 0.0
C995 C 0.43543 0.98645 0.69064 0.0
C996 C 0.52687 0.00972 0.70315 0.0
C997 C 0.55424 0.0194 0.68934 0.0
N998 N 0.54974 0.01984 0.66285 0.0
N999 N 0.44954 0.95979 0.71616 0.0
C1000 C 0.52177 0.01426 0.67607 0.0
C1001 C 0.47018 0.98543 0.70355 0.0
N1002 N 0.42534 0.00631 0.66472 0.0
N1003 N 0.55416 0.02594 0.71594 0.0
H1004 H 0.4086 0.9395 0.71681 0.0
H1005 H 0.47559 0.95289 0.72543 0.0
H1006 H 0.59473 0.047 0.71615 0.0
H1007 H 0.53362 0.02474 0.72619 0.0
H1008 H 0.4396 0.02283 0.65465 0.0
H1009 H 0.38069 0.99642 0.66502 0.0
H1010 H 0.52988 0.01103 0.65277 0.0
H1011 H 0.59423 0.03008 0.66206 0.0
C1012 C 0.01176 0.03236 0.9523 0.0
C1013 C 0.01389 0.06214 0.93864 0.0
C1014 C 0.98746 0.97101 0.92591 0.0
C1015 C 0.97802 0.94419 0.93984 0.0
N1016 N 0.96401 0.95616 0.96611 0.0
N1017 N -2e-05 0.06255 0.91238 0.0
C1018 C 0.98515 0.97688 0.95299 0.0
C1019 C 0.00082 0.03227 0.92535 0.0
N1020 N 0.03601 0.05682 0.96464 0.0
N1021 N 0.9852 0.93789 0.9134 0.0
H1022 H 0.01133 0.10688 0.91173 0.0
H1023 H 0.98514 0.0447 0.9025 0.0
H1024 H 0.97521 0.8932 0.91354 0.0
H1025 H -0.00307 0.95372 0.90305 0.0
H1026 H 0.03988 0.03426 0.97458 0.0
H1027 H 0.05811 0.09692 0.96448 0.0
H1028 H 0.96367 0.98124 0.97571 0.0
H1029 H 0.94046 0.91704 0.96702 0.0
C1030 C 0.96091 0.97303 0.04379 0.0
C1031 C 0.93114 0.98788 0.05704 0.0
C1032 C 0.02386 0.98141 0.07064 0.0
C1033 C 0.05179 0.9628 0.05752 0.0
N1034 N 0.04375 0.92367 0.03291 0.0
N1035 N 0.93153 0.99593 0.08351 0.0
C1036 C 0.01908 0.95268 0.04456 0.0
C1037 C 0.9618 0.98911 0.07065 0.0
N1038 N 0.93543 0.98221 0.03033 0.0
N1039 N 0.0567 0.9929 0.08287 0.0
H1040 H 0.88602 0.00014 0.08379 0.0
H1041 H 0.95072 0.99241 0.09387 0.0
H1042 H 0.10186 0.98558 0.0832 0.0
H1043 H 0.03985 0.01242 0.09234 0.0
H1044 H 0.95814 0.97779 0.02043 0.0
H1045 H 0.89412 0.00085 0.02893 0.0
H1046 H 0.01974 0.9102 0.02374 0.0
H1047 H 0.08652 0.90747 0.0331 0.0
C1048 C 0.48996 0.02925 0.8229 0.0
C1049 C 0.47077 0.05688 0.80978 0.0
C1050 C 0.48718 0.9677 0.79582 0.0
C1051 C 0.50117 0.93753 0.80903 0.0
N1052 N 0.50913 0.9369 0.83551 0.0
N1053 N 0.43344 0.04762 0.785 0.0
C1054 C 0.50068 0.96748 0.82275 0.0
C1055 C 0.46334 0.02433 0.79668 0.0
N1056 N 0.49914 0.06211 0.83526 0.0
N1057 N 0.50014 0.94398 0.78235 0.0
H1058 H 0.41408 0.0891 0.78531 0.0
H1059 H 0.42245 0.02318 0.77568 0.0
H1060 H 0.52224 0.90429 0.78105 0.0
H1061 H 0.49557 0.9672 0.77252 0.0
H1062 H 0.51868 0.04573 0.84477 0.0
H1063 H 0.48973 0.10693 0.83566 0.0
H1064 H 0.50427 0.9553 0.84593 0.0
H1065 H 0.51706 0.8918 0.83563 0.0
C1066 C 0.95836 0.5088 0.17367 0.0
C1067 C 0.93018 0.50331 0.18755 0.0
C1068 C 0.01882 0.53633 0.19998 0.0
C1069 C 0.04962 0.53313 0.18651 0.0
N1070 N 0.05122 0.51346 0.16049 0.0
N1071 N 0.93972 0.49557 0.21409 0.0
C1072 C 0.02012 0.51878 0.17326 0.0
C1073 C 0.96199 0.51279 0.20077 0.0
N1074 N 0.92609 0.50592 0.16103 0.0
N1075 N 0.04407 0.56162 0.21207 0.0
H1076 H 0.90001 0.4734 0.21523 0.0
H1077 H 0.96406 0.49671 0.22381 0.0
H1078 H 0.08576 0.58041 0.21184 0.0
H1079 H 0.02112 0.56954 0.22181 0.0
H1080 H 0.9433 0.5144 0.15063 0.0
H1081 H 0.88081 0.49954 0.16112 0.0
H1082 H 0.03336 0.49737 0.15074 0.0
H1083 H 0.09604 0.52244 0.15993 0.0
C1084 C 0.56415 0.50728 0.43696 0.0
C1085 C 0.51851 0.54957 0.43562 0.0
C1086 C 0.45048 0.47141 0.42781 0.0
C1087 C 0.49408 0.42933 0.43147 0.0
N1088 N 0.59734 0.40962 0.4306 0.0
N1089 N 0.42045 0.57413 0.42787 0.0
C1090 C 0.55268 0.44827 0.43307 0.0
C1091 C 0.46233 0.5323 0.43031 0.0
N1092 N 0.61673 0.52167 0.44323 0.0
N1093 N 0.40009 0.45356 0.42102 0.0
H1094 H 0.42945 0.61901 0.42835 0.0
H1095 H 0.37668 0.56501 0.42565 0.0
H1096 H 0.39491 0.41119 0.41692 0.0
H1097 H 0.36663 0.48154 0.4177 0.0
H1098 H 0.64845 0.49051 0.4459 0.0
H1099 H 0.62682 0.5633 0.44722 0.0
H1100 H 0.64133 0.42199 0.43041 0.0
H1101 H 0.58944 0.36691 0.4269 0.0
C1102 C 0.48795 0.52585 0.572 0.0
C1103 C 0.44499 0.48665 0.5665 0.0
C1104 C 0.52166 0.41939 0.55819 0.0
C1105 C 0.56465 0.46282 0.56143 0.0
N1106 N 0.59039 0.55531 0.57265 0.0
N1107 N 0.42274 0.38485 0.56256 0.0
C1108 C 0.54831 0.51536 0.56883 0.0
C1109 C 0.46262 0.42956 0.56228 0.0
N1110 N 0.47136 0.56935 0.58139 0.0
N1111 N 0.53573 0.3709 0.55004 0.0
H1112 H 0.38001 0.39117 0.56638 0.0
H1113 H 0.43389 0.34103 0.56083 0.0
H1114 H 0.57765 0.36246 0.54604 0.0
H1115 H 0.50445 0.34174 0.54599 0.0
H1116 H 0.50001 0.59873 0.5864 0.0
H1117 H 0.42968 0.56931 0.58597 0.0
H1118 H 0.58119 0.59751 0.57638 0.0
H1119 H 0.63514 0.54682 0.57161 0.0
C1120 C 0.24672 0.30748 0.38328 0.0
C1121 C 0.25586 0.25309 0.39053 0.0
C1122 C 0.23272 0.19969 0.36784 0.0
C1123 C 0.22791 0.25409 0.36035 0.0
N1124 N 0.23663 0.35958 0.36011 0.0
N1125 N 0.26512 0.1477 0.38969 0.0
C1126 C 0.23661 0.30802 0.36784 0.0
C1127 C 0.25082 0.19918 0.38281 0.0
N1128 N 0.24622 0.35844 0.39126 0.0
N1129 N 0.21852 0.1487 0.36073 0.0
H1130 H 0.27711 0.14545 0.40076 0.0
H1131 H 0.26905 0.1077 0.38423 0.0
H1132 H 0.20665 0.14725 0.34964 0.0
H1133 H 0.21449 0.10833 0.36601 0.0
H1134 H 0.23357 0.39887 0.38698 0.0
H1135 H 0.25427 0.35978 0.40257 0.0
H1136 H 0.24913 0.39976 0.36457 0.0
H1137 H 0.22815 0.3618 0.34884 0.0
C1138 C 0.24304 0.80667 0.62938 0.0
C1139 C 0.24854 0.76478 0.6409 0.0
C1140 C 0.24273 0.6865 0.62259 0.0
C1141 C 0.24967 0.72818 0.61109 0.0
N1142 N 0.26835 0.82914 0.60419 0.0
N1143 N 0.26723 0.6638 0.64776 0.0
C1144 C 0.25339 0.78873 0.61465 0.0
C1145 C 0.25244 0.7043 0.63731 0.0
N1146 N 0.22473 0.86256 0.63226 0.0
N1147 N 0.22434 0.63067 0.61963 0.0
H1148 H 0.27848 0.67521 0.65852 0.0
H1149 H 0.27496 0.61982 0.64522 0.0
H1150 H 0.21288 0.61673 0.60909 0.0
H1151 H 0.21426 0.60057 0.62791 0.0
H1152 H 0.21559 0.89283 0.62396 0.0
H1153 H 0.21205 0.87638 0.64272 0.0
H1154 H 0.27617 0.87311 0.60672 0.0
H1155 H 0.27928 0.81772 0.59342 0.0
C1156 C 0.75388 0.7962 0.36691 0.0
C1157 C 0.75631 0.74285 0.35889 0.0
C1158 C 0.73756 0.68682 0.38142 0.0
C1159 C 0.73065 0.74033 0.38921 0.0
N1160 N 0.72249 0.84591 0.38916 0.0
N1161 N 0.74163 0.6381 0.35771 0.0
C1162 C 0.7361 0.79509 0.3819 0.0
C1163 C 0.74566 0.68828 0.36592 0.0
N1164 N 0.77053 0.84762 0.36035 0.0
N1165 N 0.7383 0.63473 0.38891 0.0
H1166 H 0.74759 0.63741 0.34632 0.0
H1167 H 0.72765 0.598 0.36195 0.0
H1168 H 0.73218 0.63186 0.40028 0.0
H1169 H 0.74965 0.59482 0.38411 0.0
H1170 H 0.7761 0.88683 0.36607 0.0
H1171 H 0.78336 0.85027 0.34934 0.0
H1172 H 0.71925 0.88655 0.38397 0.0
H1173 H 0.70969 0.8469 0.40018 0.0
C1174 C 0.79154 0.24164 0.63053 0.0
C1175 C 0.73574 0.23482 0.63722 0.0
C1176 C 0.68792 0.2403 0.61311 0.0
C1177 C 0.74328 0.25133 0.60656 0.0
N1178 N 0.8469 0.26992 0.60885 0.0
N1179 N 0.6303 0.23547 0.63553 0.0
C1180 C 0.79493 0.25397 0.61522 0.0
C1181 C 0.68371 0.23619 0.62868 0.0
N1182 N 0.84131 0.23455 0.63874 0.0
N1183 N 0.63966 0.23256 0.60438 0.0
H1184 H 0.62556 0.23211 0.64693 0.0
H1185 H 0.59076 0.24275 0.63011 0.0
H1186 H 0.64096 0.23624 0.59293 0.0
H1187 H 0.59928 0.21813 0.60831 0.0
H1188 H 0.88317 0.23189 0.63422 0.0
H1189 H 0.84068 0.22729 0.65007 0.0
H1190 H 0.88464 0.27965 0.61482 0.0
H1191 H 0.85149 0.27724 0.59757 0.0
C1192 C 0.24453 0.19377 0.88248 0.0
C1193 C 0.23657 0.24766 0.89004 0.0
C1194 C 0.26292 0.30241 0.86779 0.0
C1195 C 0.26573 0.24873 0.85991 0.0
N1196 N 0.25146 0.14388 0.85896 0.0
N1197 N 0.22935 0.35331 0.88965 0.0
C1198 C 0.2545 0.19447 0.86704 0.0
C1199 C 0.24342 0.30208 0.88264 0.0
N1200 N 0.24421 0.14208 0.89014 0.0
N1201 N 0.28066 0.35344 0.86121 0.0
H1202 H 0.21545 0.35495 0.90059 0.0
H1203 H 0.22694 0.39373 0.88433 0.0
H1204 H 0.29487 0.3555 0.85031 0.0
H1205 H 0.28589 0.39285 0.86687 0.0
H1206 H 0.25609 0.10191 0.88556 0.0
H1207 H 0.23666 0.13984 0.90146 0.0
H1208 H 0.23703 0.10398 0.86322 0.0
H1209 H 0.25893 0.14257 0.84763 0.0
C1210 C 0.25936 0.69269 0.12764 0.0
C1211 C 0.25094 0.73777 0.13824 0.0
C1212 C 0.25702 0.81007 0.11843 0.0
C1213 C 0.25193 0.76462 0.10778 0.0
N1214 N 0.23621 0.66122 0.10298 0.0
N1215 N 0.23023 0.84032 0.14297 0.0
C1216 C 0.24958 0.70538 0.11257 0.0
C1217 C 0.2464 0.79687 0.13344 0.0
N1218 N 0.27944 0.63864 0.13174 0.0
N1219 N 0.27492 0.86502 0.11445 0.0
H1220 H 0.21875 0.83232 0.15389 0.0
H1221 H 0.22193 0.88317 0.1395 0.0
H1222 H 0.28775 0.8755 0.10375 0.0
H1223 H 0.28359 0.89794 0.12213 0.0
H1224 H 0.29046 0.60623 0.12412 0.0
H1225 H 0.29162 0.62875 0.14252 0.0
H1226 H 0.2296 0.61803 0.10642 0.0
H1227 H 0.22513 0.66869 0.092 0.0
C1228 C 0.74678 0.82104 0.8817 0.0
C1229 C 0.75744 0.7668 0.88889 0.0
C1230 C 0.73735 0.71329 0.86604 0.0
C1231 C 0.73089 0.76767 0.85862 0.0
N1232 N 0.73663 0.87336 0.85856 0.0
N1233 N 0.77127 0.66192 0.88782 0.0
C1234 C 0.73754 0.82165 0.86622 0.0
C1235 C 0.75499 0.71302 0.88104 0.0
N1236 N 0.74384 0.87169 0.88976 0.0
N1237 N 0.72493 0.66198 0.85886 0.0
H1238 H 0.7833 0.65976 0.89888 0.0
H1239 H 0.77708 0.62237 0.88227 0.0
H1240 H 0.71313 0.66031 0.84777 0.0
H1241 H 0.72206 0.62143 0.8641 0.0
H1242 H 0.72986 0.91171 0.88548 0.0
H1243 H 0.75121 0.87301 0.90109 0.0
H1244 H 0.74763 0.91376 0.86315 0.0
H1245 H 0.72906 0.87553 0.84724 0.0
C1246 C 0.77771 0.29214 0.11061 0.0
C1247 C 0.77153 0.23208 0.10677 0.0
C1248 C 0.77229 0.20694 0.13292 0.0
C1249 C 0.76866 0.26726 0.13669 0.0
N1250 N 0.7465 0.36547 0.12801 0.0
N1251 N 0.74072 0.13564 0.11508 0.0
C1252 C 0.7654 0.30969 0.12525 0.0
C1253 C 0.7626 0.19008 0.11813 0.0
N1254 N 0.79599 0.33247 0.10049 0.0
N1255 N 0.7857 0.16565 0.14328 0.0
H1256 H 0.7265 0.12339 0.10462 0.0
H1257 H 0.72976 0.10568 0.12332 0.0
H1258 H 0.79679 0.17644 0.15409 0.0
H1259 H 0.79252 0.12165 0.14059 0.0
H1260 H 0.80477 0.37602 0.10329 0.0
H1261 H 0.80887 0.32097 0.08985 0.0
H1262 H 0.73957 0.39608 0.11964 0.0
H1263 H 0.73074 0.37867 0.13825 0.0
loop_
_geom_bond_atom_site_label_1
_geom_bond_atom_site_label_2
_geom_bond_distance
_geom_bond_site_symmetry_2
_ccdc_geom_bond_type
Co0 O3 1.968 1_455 S
Co0 N17 1.991 . S
Co0 O25 1.976 . S
Co0 O32 1.914 1_455 S
Co1 O4 1.966 . S
Co1 N10 2.022 . S
Co1 N18 1.993 . S
Co1 O26 1.941 . S
C2 O3 1.258 1_455 S
C2 O4 1.263 . S
O3 Co0 1.968 1_655 S
O3 C2 1.258 1_655 S
O4 Co1 1.966 . S
O4 C2 1.263 . S
C5 O6 1.235 . S
C5 O32 1.289 . S
O6 C5 1.235 . S
C7 C9 1.400 . S
C7 N10 1.351 . S
C7 C12 1.501 . S
C8 C9 1.387 . S
C8 N11 1.341 . S
C9 C7 1.400 . S
C9 C8 1.387 . S
N10 Co1 2.022 . S
N10 C7 1.351 . S
N10 N11 1.365 . S
N11 C8 1.341 . S
N11 N10 1.365 . S
N11 H31 0.862 . S
C12 C7 1.501 . S
C12 H13 0.961 . S
C12 H14 0.961 . S
C12 H15 0.960 . S
H13 C12 0.961 . S
H14 C12 0.961 . S
H15 C12 0.960 . S
C16 N17 1.342 1_655 S
C16 C20 1.401 1_655 S
C16 C21 1.499 . S
N17 Co0 1.991 . S
N17 C16 1.342 1_455 S
N17 N18 1.388 . S
N18 Co1 1.993 . S
N18 N17 1.388 . S
N18 C19 1.346 . S
C19 N18 1.346 . S
C19 C20 1.396 . S
C19 C29 1.510 . S
C20 C16 1.401 1_455 S
C20 C19 1.396 . S
C21 C16 1.499 . S
C21 H22 0.959 . S
C21 H23 0.960 . S
C21 H24 0.961 . S
H22 C21 0.959 . S
H23 C21 0.960 . S
H24 C21 0.961 . S
O25 Co0 1.976 . S
O25 C33 1.258 . S
O26 Co1 1.941 . S
O26 C33 1.266 . S
H27 C29 0.959 . S
H28 C29 0.961 . S
C29 C19 1.510 . S
C29 H27 0.959 . S
C29 H28 0.961 . S
C29 H30 0.960 . S
H30 C29 0.960 . S
H31 N11 0.862 . S
O32 Co0 1.914 1_655 S
O32 C5 1.289 . S
C33 O25 1.258 . S
C33 O26 1.266 . S
Co34 O37 1.968 1_565 S
Co34 N51 1.991 . S
Co34 O59 1.976 . S
Co34 O66 1.914 1_565 S
Co35 O38 1.966 . S
Co35 N44 2.022 . S
Co35 N52 1.993 . S
Co35 O60 1.941 . S
C36 O37 1.258 1_565 S
C36 O38 1.263 . S
O37 Co34 1.968 1_545 S
O37 C36 1.258 1_545 S
O38 Co35 1.966 . S
O38 C36 1.263 . S
C39 O40 1.235 . S
C39 O66 1.289 . S
O40 C39 1.235 . S
C41 C43 1.400 . S
C41 N44 1.351 . S
C41 C46 1.501 . S
C42 C43 1.387 . S
C42 N45 1.341 . S
C43 C41 1.400 . S
C43 C42 1.387 . S
N44 Co35 2.022 . S
N44 C41 1.351 . S
N44 N45 1.365 . S
N45 C42 1.341 . S
N45 N44 1.365 . S
N45 H65 0.862 . S
C46 C41 1.501 . S
C46 H47 0.961 . S
C46 H48 0.961 . S
C46 H49 0.960 . S
H47 C46 0.961 . S
H48 C46 0.961 . S
H49 C46 0.960 . S
C50 N51 1.342 1_545 S
C50 C54 1.401 1_545 S
C50 C55 1.499 . S
N51 Co34 1.991 . S
N51 C50 1.342 1_565 S
N51 N52 1.388 . S
N52 Co35 1.993 . S
N52 N51 1.388 . S
N52 C53 1.346 . S
C53 N52 1.346 . S
C53 C54 1.396 . S
C53 C63 1.510 . S
C54 C50 1.401 1_565 S
C54 C53 1.396 . S
C55 C50 1.499 . S
C55 H56 0.959 . S
C55 H57 0.960 . S
C55 H58 0.961 . S
H56 C55 0.959 . S
H57 C55 0.960 . S
H58 C55 0.961 . S
O59 Co34 1.976 . S
O59 C67 1.258 . S
O60 Co35 1.941 . S
O60 C67 1.266 . S
H61 C63 0.959 . S
H62 C63 0.961 . S
C63 C53 1.510 . S
C63 H61 0.959 . S
C63 H62 0.961 . S
C63 H64 0.960 . S
H64 C63 0.960 . S
H65 N45 0.862 . S
O66 Co34 1.914 1_545 S
O66 C39 1.289 . S
C67 O59 1.258 . S
C67 O60 1.266 . S
Co68 O71 1.968 1_655 S
Co68 N85 1.991 . S
Co68 O93 1.976 . S
Co68 O100 1.914 1_655 S
Co69 O72 1.966 . S
Co69 N78 2.022 . S
Co69 N86 1.993 . S
Co69 O94 1.941 . S
C70 O71 1.258 1_655 S
C70 O72 1.263 . S
O71 Co68 1.968 1_455 S
O71 C70 1.258 1_455 S
O72 Co69 1.966 . S
O72 C70 1.263 . S
C73 O74 1.235 . S
C73 O100 1.289 . S
O74 C73 1.235 . S
C75 C77 1.400 . S
C75 N78 1.351 . S
C75 C80 1.501 . S
C76 C77 1.387 . S
C76 N79 1.341 . S
C77 C75 1.400 . S
C77 C76 1.387 . S
N78 Co69 2.022 . S
N78 C75 1.351 . S
N78 N79 1.365 . S
N79 C76 1.341 . S
N79 N78 1.365 . S
N79 H99 0.862 . S
C80 C75 1.501 . S
C80 H81 0.961 . S
C80 H82 0.961 . S
C80 H83 0.960 . S
H81 C80 0.961 . S
H82 C80 0.961 . S
H83 C80 0.960 . S
C84 N85 1.342 1_455 S
C84 C88 1.401 1_455 S
C84 C89 1.499 . S
N85 Co68 1.991 . S
N85 C84 1.342 1_655 S
N85 N86 1.388 . S
N86 Co69 1.993 . S
N86 N85 1.388 . S
N86 C87 1.346 . S
C87 N86 1.346 . S
C87 C88 1.396 . S
C87 C97 1.510 . S
C88 C84 1.401 1_655 S
C88 C87 1.396 . S
C89 C84 1.499 . S
C89 H90 0.959 . S
C89 H91 0.960 . S
C89 H92 0.961 . S
H90 C89 0.959 . S
H91 C89 0.960 . S
H92 C89 0.961 . S
O93 Co68 1.976 . S
O93 C101 1.258 . S
O94 Co69 1.941 . S
O94 C101 1.266 . S
H95 C97 0.959 . S
H96 C97 0.961 . S
C97 C87 1.510 . S
C97 H95 0.959 . S
C97 H96 0.961 . S
C97 H98 0.960 . S
H98 C97 0.960 . S
H99 N79 0.862 . S
O100 Co68 1.914 1_455 S
O100 C73 1.289 . S
C101 O93 1.258 . S
C101 O94 1.266 . S
Co102 O105 1.968 1_545 S
Co102 N119 1.991 . S
Co102 O127 1.976 . S
Co102 O134 1.914 1_545 S
Co103 O106 1.966 . S
Co103 N112 2.022 . S
Co103 N120 1.993 . S
Co103 O128 1.941 . S
C104 O105 1.258 1_545 S
C104 O106 1.263 . S
O105 Co102 1.968 1_565 S
O105 C104 1.258 1_565 S
O106 Co103 1.966 . S
O106 C104 1.263 . S
C107 O108 1.235 . S
C107 O134 1.289 . S
O108 C107 1.235 . S
C109 C111 1.400 . S
C109 N112 1.351 . S
C109 C114 1.501 . S
C110 C111 1.387 . S
C110 N113 1.341 . S
C111 C109 1.400 . S
C111 C110 1.387 . S
N112 Co103 2.022 . S
N112 C109 1.351 . S
N112 N113 1.365 . S
N113 C110 1.341 . S
N113 N112 1.365 . S
N113 H133 0.862 . S
C114 C109 1.501 . S
C114 H115 0.961 . S
C114 H116 0.961 . S
C114 H117 0.960 . S
H115 C114 0.961 . S
H116 C114 0.961 . S
H117 C114 0.960 . S
C118 N119 1.342 1_565 S
C118 C122 1.401 1_565 S
C118 C123 1.499 . S
N119 Co102 1.991 . S
N119 C118 1.342 1_545 S
N119 N120 1.388 . S
N120 Co103 1.993 . S
N120 N119 1.388 . S
N120 C121 1.346 . S
C121 N120 1.346 . S
C121 C122 1.396 . S
C121 C131 1.510 . S
C122 C118 1.401 1_545 S
C122 C121 1.396 . S
C123 C118 1.499 . S
C123 H124 0.959 . S
C123 H125 0.960 . S
C123 H126 0.961 . S
H124 C123 0.959 . S
H125 C123 0.960 . S
H126 C123 0.961 . S
O127 Co102 1.976 . S
O127 C135 1.258 . S
O128 Co103 1.941 . S
O128 C135 1.266 . S
H129 C131 0.959 . S
H130 C131 0.961 . S
C131 C121 1.510 . S
C131 H129 0.959 . S
C131 H130 0.961 . S
C131 H132 0.960 . S
H132 C131 0.960 . S
H133 N113 0.862 . S
O134 Co102 1.914 1_565 S
O134 C107 1.289 . S
C135 O127 1.258 . S
C135 O128 1.266 . S
Co136 O139 1.968 1_455 S
Co136 N153 1.991 . S
Co136 O161 1.975 . S
Co136 O168 1.914 1_455 S
Co137 O140 1.966 . S
Co137 N146 2.022 . S
Co137 N154 1.993 . S
Co137 O162 1.941 . S
C138 O139 1.258 1_455 S
C138 O140 1.263 . S
O139 Co136 1.968 1_655 S
O139 C138 1.258 1_655 S
O140 Co137 1.966 . S
O140 C138 1.263 . S
C141 O142 1.235 . S
C141 O168 1.289 . S
O142 C141 1.235 . S
C143 C145 1.400 . S
C143 N146 1.351 . S
C143 C148 1.501 . S
C144 C145 1.387 . S
C144 N147 1.341 . S
C145 C143 1.400 . S
C145 C144 1.387 . S
N146 Co137 2.022 . S
N146 C143 1.351 . S
N146 N147 1.365 . S
N147 C144 1.341 . S
N147 N146 1.365 . S
N147 H167 0.862 . S
C148 C143 1.501 . S
C148 H149 0.961 . S
C148 H150 0.961 . S
C148 H151 0.960 . S
H149 C148 0.961 . S
H150 C148 0.961 . S
H151 C148 0.960 . S
C152 N153 1.342 1_655 S
C152 C156 1.401 1_655 S
C152 C157 1.499 . S
N153 Co136 1.991 . S
N153 C152 1.342 1_455 S
N153 N154 1.388 . S
N154 Co137 1.993 . S
N154 N153 1.388 . S
N154 C155 1.346 . S
C155 N154 1.346 . S
C155 C156 1.396 . S
C155 C165 1.510 . S
C156 C152 1.401 1_455 S
C156 C155 1.396 . S
C157 C152 1.499 . S
C157 H158 0.959 . S
C157 H159 0.960 . S
C157 H160 0.961 . S
H158 C157 0.959 . S
H159 C157 0.960 . S
H160 C157 0.961 . S
O161 Co136 1.975 . S
O161 C169 1.258 . S
O162 Co137 1.941 . S
O162 C169 1.266 . S
H163 C165 0.959 . S
H164 C165 0.961 . S
C165 C155 1.510 . S
C165 H163 0.959 . S
C165 H164 0.961 . S
C165 H166 0.960 . S
H166 C165 0.960 . S
H167 N147 0.862 . S
O168 Co136 1.914 1_655 S
O168 C141 1.289 . S
C169 O161 1.258 . S
C169 O162 1.266 . S
Co170 O173 1.968 1_565 S
Co170 N187 1.991 . S
Co170 O195 1.975 . S
Co170 O202 1.914 1_565 S
Co171 O174 1.966 . S
Co171 N180 2.022 . S
Co171 N188 1.993 . S
Co171 O196 1.941 . S
C172 O173 1.258 1_565 S
C172 O174 1.263 . S
O173 Co170 1.968 1_545 S
O173 C172 1.258 1_545 S
O174 Co171 1.966 . S
O174 C172 1.263 . S
C175 O176 1.235 . S
C175 O202 1.289 . S
O176 C175 1.235 . S
C177 C179 1.400 . S
C177 N180 1.351 . S
C177 C182 1.501 . S
C178 C179 1.387 . S
C178 N181 1.341 . S
C179 C177 1.400 . S
C179 C178 1.387 . S
N180 Co171 2.022 . S
N180 C177 1.351 . S
N180 N181 1.365 . S
N181 C178 1.341 . S
N181 N180 1.365 . S
N181 H201 0.862 . S
C182 C177 1.501 . S
C182 H183 0.961 . S
C182 H184 0.961 . S
C182 H185 0.960 . S
H183 C182 0.961 . S
H184 C182 0.961 . S
H185 C182 0.960 . S
C186 N187 1.342 1_545 S
C186 C190 1.401 1_545 S
C186 C191 1.499 . S
N187 Co170 1.991 . S
N187 C186 1.342 1_565 S
N187 N188 1.388 . S
N188 Co171 1.993 . S
N188 N187 1.388 . S
N188 C189 1.346 . S
C189 N188 1.346 . S
C189 C190 1.396 . S
C189 C199 1.510 . S
C190 C186 1.401 1_565 S
C190 C189 1.396 . S
C191 C186 1.499 . S
C191 H192 0.959 . S
C191 H193 0.960 . S
C191 H194 0.961 . S
H192 C191 0.959 . S
H193 C191 0.960 . S
H194 C191 0.961 . S
O195 Co170 1.975 . S
O195 C203 1.258 . S
O196 Co171 1.941 . S
O196 C203 1.266 . S
H197 C199 0.959 . S
H198 C199 0.961 . S
C199 C189 1.510 . S
C199 H197 0.959 . S
C199 H198 0.961 . S
C199 H200 0.960 . S
H200 C199 0.960 . S
H201 N181 0.862 . S
O202 Co170 1.914 1_545 S
O202 C175 1.289 . S
C203 O195 1.258 . S
C203 O196 1.266 . S
Co204 O207 1.968 1_655 S
Co204 N221 1.991 . S
Co204 O229 1.975 . S
Co204 O236 1.914 1_655 S
Co205 O208 1.966 . S
Co205 N214 2.022 . S
Co205 N222 1.993 . S
Co205 O230 1.941 . S
C206 O207 1.258 1_655 S
C206 O208 1.263 . S
O207 Co204 1.968 1_455 S
O207 C206 1.258 1_455 S
O208 Co205 1.966 . S
O208 C206 1.263 . S
C209 O210 1.235 . S
C209 O236 1.289 . S
O210 C209 1.235 . S
C211 C213 1.400 . S
C211 N214 1.351 . S
C211 C216 1.501 . S
C212 C213 1.387 . S
C212 N215 1.341 . S
C213 C211 1.400 . S
C213 C212 1.387 . S
N214 Co205 2.022 . S
N214 C211 1.351 . S
N214 N215 1.365 . S
N215 C212 1.341 . S
N215 N214 1.365 . S
N215 H235 0.862 . S
C216 C211 1.501 . S
C216 H217 0.961 . S
C216 H218 0.961 . S
C216 H219 0.960 . S
H217 C216 0.961 . S
H218 C216 0.961 . S
H219 C216 0.960 . S
C220 N221 1.342 1_455 S
C220 C224 1.401 1_455 S
C220 C225 1.499 . S
N221 Co204 1.991 . S
N221 C220 1.342 1_655 S
N221 N222 1.388 . S
N222 Co205 1.993 . S
N222 N221 1.388 . S
N222 C223 1.346 . S
C223 N222 1.346 . S
C223 C224 1.396 . S
C223 C233 1.510 . S
C224 C220 1.401 1_655 S
C224 C223 1.396 . S
C225 C220 1.499 . S
C225 H226 0.959 . S
C225 H227 0.960 . S
C225 H228 0.961 . S
H226 C225 0.959 . S
H227 C225 0.960 . S
H228 C225 0.961 . S
O229 Co204 1.975 . S
O229 C237 1.258 . S
O230 Co205 1.941 . S
O230 C237 1.266 . S
H231 C233 0.959 . S
H232 C233 0.961 . S
C233 C223 1.510 . S
C233 H231 0.959 . S
C233 H232 0.961 . S
C233 H234 0.960 . S
H234 C233 0.960 . S
H235 N215 0.862 . S
O236 Co204 1.914 1_455 S
O236 C209 1.289 . S
C237 O229 1.258 . S
C237 O230 1.266 . S
Co238 O241 1.968 1_545 S
Co238 N255 1.991 . S
Co238 O263 1.975 . S
Co238 O270 1.914 1_545 S
Co239 O242 1.966 . S
Co239 N248 2.022 . S
Co239 N256 1.993 . S
Co239 O264 1.941 . S
C240 O241 1.258 1_545 S
C240 O242 1.263 . S
O241 Co238 1.968 1_565 S
O241 C240 1.258 1_565 S
O242 Co239 1.966 . S
O242 C240 1.263 . S
C243 O244 1.235 . S
C243 O270 1.289 . S
O244 C243 1.235 . S
C245 C247 1.400 . S
C245 N248 1.351 . S
C245 C250 1.501 . S
C246 C247 1.387 . S
C246 N249 1.341 . S
C247 C245 1.400 . S
C247 C246 1.387 . S
N248 Co239 2.022 . S
N248 C245 1.351 . S
N248 N249 1.365 . S
N249 C246 1.341 . S
N249 N248 1.365 . S
N249 H269 0.862 . S
C250 C245 1.501 . S
C250 H251 0.961 . S
C250 H252 0.961 . S
C250 H253 0.960 . S
H251 C250 0.961 . S
H252 C250 0.961 . S
H253 C250 0.960 . S
C254 N255 1.342 1_565 S
C254 C258 1.401 1_565 S
C254 C259 1.499 . S
N255 Co238 1.991 . S
N255 C254 1.342 1_545 S
N255 N256 1.388 . S
N256 Co239 1.993 . S
N256 N255 1.388 . S
N256 C257 1.346 . S
C257 N256 1.346 . S
C257 C258 1.396 . S
C257 C267 1.510 . S
C258 C254 1.401 1_545 S
C258 C257 1.396 . S
C259 C254 1.499 . S
C259 H260 0.959 . S
C259 H261 0.960 . S
C259 H262 0.961 . S
H260 C259 0.959 . S
H261 C259 0.960 . S
H262 C259 0.961 . S
O263 Co238 1.975 . S
O263 C271 1.258 . S
O264 Co239 1.941 . S
O264 C271 1.266 . S
H265 C267 0.959 . S
H266 C267 0.961 . S
C267 C257 1.510 . S
C267 H265 0.959 . S
C267 H266 0.961 . S
C267 H268 0.960 . S
H268 C267 0.960 . S
H269 N249 0.862 . S
O270 Co238 1.914 1_565 S
O270 C243 1.289 . S
C271 O263 1.258 . S
C271 O264 1.266 . S
Co272 O275 1.970 . S
Co272 N289 1.989 . S
Co272 O297 1.967 . S
Co272 O304 1.920 . S
Co273 O276 1.966 . S
Co273 N282 2.022 . S
Co273 N290 1.993 . S
Co273 O298 1.941 . S
C274 O275 1.258 . S
C274 O276 1.263 . S
O275 Co272 1.970 . S
O275 C274 1.258 . S
O276 Co273 1.966 . S
O276 C274 1.263 . S
C277 O278 1.235 . S
C277 O304 1.289 . S
O278 C277 1.235 . S
C279 C281 1.400 . S
C279 N282 1.351 . S
C279 C284 1.501 . S
C280 C281 1.387 . S
C280 N283 1.341 . S
C281 C279 1.400 . S
C281 C280 1.387 . S
N282 Co273 2.022 . S
N282 C279 1.351 . S
N282 N283 1.365 . S
N283 C280 1.341 . S
N283 N282 1.365 . S
N283 H303 0.862 . S
C284 C279 1.501 . S
C284 H285 0.961 . S
C284 H286 0.961 . S
C284 H287 0.960 . S
H285 C284 0.961 . S
H286 C284 0.961 . S
H287 C284 0.960 . S
C288 N289 1.342 . S
C288 C292 1.401 . S
C288 C293 1.499 . S
N289 Co272 1.989 . S
N289 C288 1.342 . S
N289 N290 1.388 . S
N290 Co273 1.993 . S
N290 N289 1.388 . S
N290 C291 1.346 . S
C291 N290 1.346 . S
C291 C292 1.396 . S
C291 C301 1.510 . S
C292 C288 1.401 . S
C292 C291 1.396 . S
C293 C288 1.499 . S
C293 H294 0.959 . S
C293 H295 0.960 . S
C293 H296 0.961 . S
H294 C293 0.959 . S
H295 C293 0.960 . S
H296 C293 0.961 . S
O297 Co272 1.967 . S
O297 C305 1.258 . S
O298 Co273 1.941 . S
O298 C305 1.266 . S
H299 C301 0.959 . S
H300 C301 0.961 . S
C301 C291 1.510 . S
C301 H299 0.959 . S
C301 H300 0.961 . S
C301 H302 0.960 . S
H302 C301 0.960 . S
H303 N283 0.862 . S
O304 Co272 1.920 . S
O304 C277 1.289 . S
C305 O297 1.258 . S
C305 O298 1.266 . S
Co306 O309 1.970 . S
Co306 N323 1.989 . S
Co306 O331 1.967 . S
Co306 O338 1.920 . S
Co307 O310 1.966 . S
Co307 N316 2.022 . S
Co307 N324 1.993 . S
Co307 O332 1.941 . S
C308 O309 1.258 . S
C308 O310 1.263 . S
O309 Co306 1.970 . S
O309 C308 1.258 . S
O310 Co307 1.966 . S
O310 C308 1.263 . S
C311 O312 1.235 . S
C311 O338 1.289 . S
O312 C311 1.235 . S
C313 C315 1.400 . S
C313 N316 1.351 . S
C313 C318 1.501 . S
C314 C315 1.387 . S
C314 N317 1.341 . S
C315 C313 1.400 . S
C315 C314 1.387 . S
N316 Co307 2.022 . S
N316 C313 1.351 . S
N316 N317 1.365 . S
N317 C314 1.341 . S
N317 N316 1.365 . S
N317 H337 0.862 . S
C318 C313 1.501 . S
C318 H319 0.961 . S
C318 H320 0.961 . S
C318 H321 0.960 . S
H319 C318 0.961 . S
H320 C318 0.961 . S
H321 C318 0.960 . S
C322 N323 1.342 . S
C322 C326 1.401 . S
C322 C327 1.499 . S
N323 Co306 1.989 . S
N323 C322 1.342 . S
N323 N324 1.388 . S
N324 Co307 1.993 . S
N324 N323 1.388 . S
N324 C325 1.346 . S
C325 N324 1.346 . S
C325 C326 1.396 . S
C325 C335 1.510 . S
C326 C322 1.401 . S
C326 C325 1.396 . S
C327 C322 1.499 . S
C327 H328 0.959 . S
C327 H329 0.960 . S
C327 H330 0.961 . S
H328 C327 0.959 . S
H329 C327 0.960 . S
H330 C327 0.961 . S
O331 Co306 1.967 . S
O331 C339 1.258 . S
O332 Co307 1.941 . S
O332 C339 1.266 . S
H333 C335 0.959 . S
H334 C335 0.961 . S
C335 C325 1.510 . S
C335 H333 0.959 . S
C335 H334 0.961 . S
C335 H336 0.960 . S
H336 C335 0.960 . S
H337 N317 0.862 . S
O338 Co306 1.920 . S
O338 C311 1.289 . S
C339 O331 1.258 . S
C339 O332 1.266 . S
Co340 O343 1.970 . S
Co340 N357 1.989 . S
Co340 O365 1.967 . S
Co340 O372 1.920 . S
Co341 O344 1.966 . S
Co341 N350 2.022 . S
Co341 N358 1.993 . S
Co341 O366 1.941 . S
C342 O343 1.258 . S
C342 O344 1.263 . S
O343 Co340 1.970 . S
O343 C342 1.258 . S
O344 Co341 1.966 . S
O344 C342 1.263 . S
C345 O346 1.235 . S
C345 O372 1.289 . S
O346 C345 1.235 . S
C347 C349 1.400 . S
C347 N350 1.351 . S
C347 C352 1.501 . S
C348 C349 1.387 . S
C348 N351 1.341 . S
C349 C347 1.400 . S
C349 C348 1.387 . S
N350 Co341 2.022 . S
N350 C347 1.351 . S
N350 N351 1.365 . S
N351 C348 1.341 . S
N351 N350 1.365 . S
N351 H371 0.862 . S
C352 C347 1.501 . S
C352 H353 0.961 . S
C352 H354 0.961 . S
C352 H355 0.960 . S
H353 C352 0.961 . S
H354 C352 0.961 . S
H355 C352 0.960 . S
C356 N357 1.342 . S
C356 C360 1.401 . S
C356 C361 1.499 . S
N357 Co340 1.989 . S
N357 C356 1.342 . S
N357 N358 1.388 . S
N358 Co341 1.993 . S
N358 N357 1.388 . S
N358 C359 1.346 . S
C359 N358 1.346 . S
C359 C360 1.396 . S
C359 C369 1.510 . S
C360 C356 1.401 . S
C360 C359 1.396 . S
C361 C356 1.499 . S
C361 H362 0.959 . S
C361 H363 0.960 . S
C361 H364 0.961 . S
H362 C361 0.959 . S
H363 C361 0.960 . S
H364 C361 0.961 . S
O365 Co340 1.967 . S
O365 C373 1.258 . S
O366 Co341 1.941 . S
O366 C373 1.266 . S
H367 C369 0.959 . S
H368 C369 0.961 . S
C369 C359 1.510 . S
C369 H367 0.959 . S
C369 H368 0.961 . S
C369 H370 0.960 . S
H370 C369 0.960 . S
H371 N351 0.862 . S
O372 Co340 1.920 . S
O372 C345 1.289 . S
C373 O365 1.258 . S
C373 O366 1.266 . S
Co374 O377 1.970 . S
Co374 N391 1.989 . S
Co374 O399 1.967 . S
Co374 O406 1.920 . S
Co375 O378 1.966 . S
Co375 N384 2.022 . S
Co375 N392 1.993 . S
Co375 O400 1.941 . S
C376 O377 1.258 . S
C376 O378 1.263 . S
O377 Co374 1.970 . S
O377 C376 1.258 . S
O378 Co375 1.966 . S
O378 C376 1.263 . S
C379 O380 1.235 . S
C379 O406 1.289 . S
O380 C379 1.235 . S
C381 C383 1.400 . S
C381 N384 1.351 . S
C381 C386 1.501 . S
C382 C383 1.387 . S
C382 N385 1.341 . S
C383 C381 1.400 . S
C383 C382 1.387 . S
N384 Co375 2.022 . S
N384 C381 1.351 . S
N384 N385 1.365 . S
N385 C382 1.341 . S
N385 N384 1.365 . S
N385 H405 0.862 . S
C386 C381 1.501 . S
C386 H387 0.961 . S
C386 H388 0.961 . S
C386 H389 0.960 . S
H387 C386 0.961 . S
H388 C386 0.961 . S
H389 C386 0.960 . S
C390 N391 1.342 . S
C390 C394 1.401 . S
C390 C395 1.499 . S
N391 Co374 1.989 . S
N391 C390 1.342 . S
N391 N392 1.388 . S
N392 Co375 1.993 . S
N392 N391 1.388 . S
N392 C393 1.346 . S
C393 N392 1.346 . S
C393 C394 1.396 . S
C393 C403 1.510 . S
C394 C390 1.401 . S
C394 C393 1.396 . S
C395 C390 1.499 . S
C395 H396 0.959 . S
C395 H397 0.960 . S
C395 H398 0.961 . S
H396 C395 0.959 . S
H397 C395 0.960 . S
H398 C395 0.961 . S
O399 Co374 1.967 . S
O399 C407 1.258 . S
O400 Co375 1.941 . S
O400 C407 1.266 . S
H401 C403 0.959 . S
H402 C403 0.961 . S
C403 C393 1.510 . S
C403 H401 0.959 . S
C403 H402 0.961 . S
C403 H404 0.960 . S
H404 C403 0.960 . S
H405 N385 0.862 . S
O406 Co374 1.920 . S
O406 C379 1.289 . S
C407 O399 1.258 . S
C407 O400 1.266 . S
Co408 O411 1.970 . S
Co408 N425 1.989 . S
Co408 O433 1.967 . S
Co408 O440 1.920 . S
Co409 O412 1.966 . S
Co409 N418 2.022 . S
Co409 N426 1.993 . S
Co409 O434 1.941 . S
C410 O411 1.258 . S
C410 O412 1.263 . S
O411 Co408 1.970 . S
O411 C410 1.258 . S
O412 Co409 1.966 . S
O412 C410 1.263 . S
C413 O414 1.235 . S
C413 O440 1.289 . S
O414 C413 1.235 . S
C415 C417 1.400 . S
C415 N418 1.351 . S
C415 C420 1.501 . S
C416 C417 1.387 . S
C416 N419 1.341 . S
C417 C415 1.400 . S
C417 C416 1.387 . S
N418 Co409 2.022 . S
N418 C415 1.351 . S
N418 N419 1.365 . S
N419 C416 1.341 . S
N419 N418 1.365 . S
N419 H439 0.862 . S
C420 C415 1.501 . S
C420 H421 0.961 . S
C420 H422 0.961 . S
C420 H423 0.960 . S
H421 C420 0.961 . S
H422 C420 0.961 . S
H423 C420 0.960 . S
C424 N425 1.342 . S
C424 C428 1.401 . S
C424 C429 1.499 . S
N425 Co408 1.989 . S
N425 C424 1.342 . S
N425 N426 1.388 . S
N426 Co409 1.993 . S
N426 N425 1.388 . S
N426 C427 1.346 . S
C427 N426 1.346 . S
C427 C428 1.396 . S
C427 C437 1.510 . S
C428 C424 1.401 . S
C428 C427 1.396 . S
C429 C424 1.499 . S
C429 H430 0.959 . S
C429 H431 0.960 . S
C429 H432 0.961 . S
H430 C429 0.959 . S
H431 C429 0.960 . S
H432 C429 0.961 . S
O433 Co408 1.967 . S
O433 C441 1.258 . S
O434 Co409 1.941 . S
O434 C441 1.266 . S
H435 C437 0.959 . S
H436 C437 0.961 . S
C437 C427 1.510 . S
C437 H435 0.959 . S
C437 H436 0.961 . S
C437 H438 0.960 . S
H438 C437 0.960 . S
H439 N419 0.862 . S
O440 Co408 1.920 . S
O440 C413 1.289 . S
C441 O433 1.258 . S
C441 O434 1.266 . S
Co442 O445 1.970 . S
Co442 N459 1.989 . S
Co442 O467 1.967 . S
Co442 O474 1.920 . S
Co443 O446 1.966 . S
Co443 N452 2.022 . S
Co443 N460 1.993 . S
Co443 O468 1.941 . S
C444 O445 1.258 . S
C444 O446 1.263 . S
O445 Co442 1.970 . S
O445 C444 1.258 . S
O446 Co443 1.966 . S
O446 C444 1.263 . S
C447 O448 1.235 . S
C447 O474 1.289 . S
O448 C447 1.235 . S
C449 C451 1.400 . S
C449 N452 1.351 . S
C449 C454 1.501 . S
C450 C451 1.387 . S
C450 N453 1.341 . S
C451 C449 1.400 . S
C451 C450 1.387 . S
N452 Co443 2.022 . S
N452 C449 1.351 . S
N452 N453 1.365 . S
N453 C450 1.341 . S
N453 N452 1.365 . S
N453 H473 0.862 . S
C454 C449 1.501 . S
C454 H455 0.961 . S
C454 H456 0.961 . S
C454 H457 0.960 . S
H455 C454 0.961 . S
H456 C454 0.961 . S
H457 C454 0.960 . S
C458 N459 1.342 . S
C458 C462 1.401 . S
C458 C463 1.499 . S
N459 Co442 1.989 . S
N459 C458 1.342 . S
N459 N460 1.388 . S
N460 Co443 1.993 . S
N460 N459 1.388 . S
N460 C461 1.346 . S
C461 N460 1.346 . S
C461 C462 1.396 . S
C461 C471 1.510 . S
C462 C458 1.401 . S
C462 C461 1.396 . S
C463 C458 1.499 . S
C463 H464 0.959 . S
C463 H465 0.960 . S
C463 H466 0.961 . S
H464 C463 0.959 . S
H465 C463 0.960 . S
H466 C463 0.961 . S
O467 Co442 1.967 . S
O467 C475 1.258 . S
O468 Co443 1.941 . S
O468 C475 1.266 . S
H469 C471 0.959 . S
H470 C471 0.961 . S
C471 C461 1.510 . S
C471 H469 0.959 . S
C471 H470 0.961 . S
C471 H472 0.960 . S
H472 C471 0.960 . S
H473 N453 0.862 . S
O474 Co442 1.920 . S
O474 C447 1.289 . S
C475 O467 1.258 . S
C475 O468 1.266 . S
Co476 O479 1.970 . S
Co476 N493 1.989 . S
Co476 O501 1.967 . S
Co476 O508 1.920 . S
Co477 O480 1.966 . S
Co477 N486 2.022 . S
Co477 N494 1.993 . S
Co477 O502 1.941 . S
C478 O479 1.258 . S
C478 O480 1.263 . S
O479 Co476 1.970 . S
O479 C478 1.258 . S
O480 Co477 1.966 . S
O480 C478 1.263 . S
C481 O482 1.235 . S
C481 O508 1.289 . S
O482 C481 1.235 . S
C483 C485 1.400 . S
C483 N486 1.351 . S
C483 C488 1.501 . S
C484 C485 1.387 . S
C484 N487 1.341 . S
C485 C483 1.400 . S
C485 C484 1.387 . S
N486 Co477 2.022 . S
N486 C483 1.351 . S
N486 N487 1.365 . S
N487 C484 1.341 . S
N487 N486 1.365 . S
N487 H507 0.862 . S
C488 C483 1.501 . S
C488 H489 0.961 . S
C488 H490 0.961 . S
C488 H491 0.960 . S
H489 C488 0.961 . S
H490 C488 0.961 . S
H491 C488 0.960 . S
C492 N493 1.342 . S
C492 C496 1.401 . S
C492 C497 1.499 . S
N493 Co476 1.989 . S
N493 C492 1.342 . S
N493 N494 1.388 . S
N494 Co477 1.993 . S
N494 N493 1.388 . S
N494 C495 1.346 . S
C495 N494 1.346 . S
C495 C496 1.396 . S
C495 C505 1.510 . S
C496 C492 1.401 . S
C496 C495 1.396 . S
C497 C492 1.499 . S
C497 H498 0.959 . S
C497 H499 0.960 . S
C497 H500 0.961 . S
H498 C497 0.959 . S
H499 C497 0.960 . S
H500 C497 0.961 . S
O501 Co476 1.967 . S
O501 C509 1.258 . S
O502 Co477 1.941 . S
O502 C509 1.266 . S
H503 C505 0.959 . S
H504 C505 0.961 . S
C505 C495 1.510 . S
C505 H503 0.959 . S
C505 H504 0.961 . S
C505 H506 0.960 . S
H506 C505 0.960 . S
H507 N487 0.862 . S
O508 Co476 1.920 . S
O508 C481 1.289 . S
C509 O501 1.258 . S
C509 O502 1.266 . S
Co510 O513 1.970 . S
Co510 N527 1.989 . S
Co510 O535 1.967 . S
Co510 O542 1.920 . S
Co511 O514 1.966 . S
Co511 N520 2.022 . S
Co511 N528 1.993 . S
Co511 O536 1.941 . S
C512 O513 1.258 . S
C512 O514 1.263 . S
O513 Co510 1.970 . S
O513 C512 1.258 . S
O514 Co511 1.966 . S
O514 C512 1.263 . S
C515 O516 1.235 . S
C515 O542 1.289 . S
O516 C515 1.235 . S
C517 C519 1.400 . S
C517 N520 1.351 . S
C517 C522 1.501 . S
C518 C519 1.387 . S
C518 N521 1.341 . S
C519 C517 1.400 . S
C519 C518 1.387 . S
N520 Co511 2.022 . S
N520 C517 1.351 . S
N520 N521 1.365 . S
N521 C518 1.341 . S
N521 N520 1.365 . S
N521 H541 0.862 . S
C522 C517 1.501 . S
C522 H523 0.961 . S
C522 H524 0.961 . S
C522 H525 0.960 . S
H523 C522 0.961 . S
H524 C522 0.961 . S
H525 C522 0.960 . S
C526 N527 1.342 . S
C526 C530 1.401 . S
C526 C531 1.499 . S
N527 Co510 1.989 . S
N527 C526 1.342 . S
N527 N528 1.388 . S
N528 Co511 1.993 . S
N528 N527 1.388 . S
N528 C529 1.346 . S
C529 N528 1.346 . S
C529 C530 1.396 . S
C529 C539 1.510 . S
C530 C526 1.401 . S
C530 C529 1.396 . S
C531 C526 1.499 . S
C531 H532 0.959 . S
C531 H533 0.960 . S
C531 H534 0.961 . S
H532 C531 0.959 . S
H533 C531 0.960 . S
H534 C531 0.961 . S
O535 Co510 1.967 . S
O535 C543 1.258 . S
O536 Co511 1.941 . S
O536 C543 1.266 . S
H537 C539 0.959 . S
H538 C539 0.961 . S
C539 C529 1.510 . S
C539 H537 0.959 . S
C539 H538 0.961 . S
C539 H540 0.960 . S
H540 C539 0.960 . S
H541 N521 0.862 . S
O542 Co510 1.920 . S
O542 C515 1.289 . S
C543 O535 1.258 . S
C543 O536 1.266 . S
C544 C545 1.363 . S
C544 C550 1.379 . S
C544 N552 1.356 . S
C545 C544 1.363 . S
C545 C551 1.363 . S
C546 C547 1.363 . S
C546 C551 1.379 . S
C546 N553 1.356 . S
C547 C546 1.363 . S
C547 C550 1.363 . S
N548 C550 1.356 . S
N548 H560 0.984 . S
N548 H561 0.985 . S
N549 C551 1.356 . S
N549 H554 0.984 . S
N549 H555 0.985 . S
C550 C544 1.379 . S
C550 C547 1.363 . S
C550 N548 1.356 . S
C551 C545 1.363 . S
C551 C546 1.379 . S
C551 N549 1.356 . S
N552 C544 1.356 . S
N552 H558 0.984 . S
N552 H559 0.984 . S
N553 C546 1.356 . S
N553 H556 0.984 . S
N553 H557 0.985 . S
H554 N549 0.984 . S
H555 N549 0.985 . S
H556 N553 0.984 . S
H557 N553 0.985 . S
H558 N552 0.984 . S
H559 N552 0.984 . S
H560 N548 0.984 . S
H561 N548 0.985 . S
C562 C563 1.363 . S
C562 C568 1.379 . S
C562 N570 1.356 . S
C563 C562 1.363 . S
C563 C569 1.363 . S
C564 C565 1.363 . S
C564 C569 1.379 . S
C564 N571 1.356 . S
C565 C564 1.363 . S
C565 C568 1.363 . S
N566 C568 1.356 . S
N566 H578 0.984 . S
N566 H579 0.985 . S
N567 C569 1.356 . S
N567 H572 0.984 . S
N567 H573 0.985 . S
C568 C562 1.379 . S
C568 C565 1.363 . S
C568 N566 1.356 . S
C569 C563 1.363 . S
C569 C564 1.379 . S
C569 N567 1.356 . S
N570 C562 1.356 . S
N570 H576 0.984 . S
N570 H577 0.984 . S
N571 C564 1.356 . S
N571 H574 0.984 . S
N571 H575 0.985 . S
H572 N567 0.984 . S
H573 N567 0.985 . S
H574 N571 0.984 . S
H575 N571 0.985 . S
H576 N570 0.984 . S
H577 N570 0.984 . S
H578 N566 0.984 . S
H579 N566 0.985 . S
C580 C581 1.363 . S
C580 C586 1.379 . S
C580 N588 1.356 . S
C581 C580 1.363 . S
C581 C587 1.363 . S
C582 C583 1.363 . S
C582 C587 1.379 . S
C582 N589 1.356 . S
C583 C582 1.363 . S
C583 C586 1.363 . S
N584 C586 1.356 . S
N584 H596 0.984 . S
N584 H597 0.985 . S
N585 C587 1.356 . S
N585 H590 0.984 . S
N585 H591 0.985 . S
C586 C580 1.379 . S
C586 C583 1.363 . S
C586 N584 1.356 . S
C587 C581 1.363 . S
C587 C582 1.379 . S
C587 N585 1.356 . S
N588 C580 1.356 . S
N588 H594 0.984 . S
N588 H595 0.984 . S
N589 C582 1.356 . S
N589 H592 0.984 . S
N589 H593 0.985 . S
H590 N585 0.984 . S
H591 N585 0.985 . S
H592 N589 0.984 . S
H593 N589 0.985 . S
H594 N588 0.984 . S
H595 N588 0.984 . S
H596 N584 0.984 . S
H597 N584 0.985 . S
C598 C599 1.363 . S
C598 C604 1.379 . S
C598 N606 1.356 . S
C599 C598 1.363 . S
C599 C605 1.363 . S
C600 C601 1.363 . S
C600 C605 1.379 . S
C600 N607 1.356 . S
C601 C600 1.363 . S
C601 C604 1.363 . S
N602 C604 1.356 . S
N602 H614 0.984 . S
N602 H615 0.985 . S
N603 C605 1.356 . S
N603 H608 0.984 . S
N603 H609 0.985 . S
C604 C598 1.379 . S
C604 C601 1.363 . S
C604 N602 1.356 . S
C605 C599 1.363 . S
C605 C600 1.379 . S
C605 N603 1.356 . S
N606 C598 1.356 . S
N606 H612 0.984 . S
N606 H613 0.984 . S
N607 C600 1.356 . S
N607 H610 0.984 . S
N607 H611 0.985 . S
H608 N603 0.984 . S
H609 N603 0.985 . S
H610 N607 0.984 . S
H611 N607 0.985 . S
H612 N606 0.984 . S
H613 N606 0.984 . S
H614 N602 0.984 . S
H615 N602 0.985 . S
C616 C617 1.363 1_556 S
C616 C622 1.379 . S
C616 N624 1.357 . S
C617 C616 1.363 1_554 S
C617 C623 1.363 . S
C618 C619 1.363 . S
C618 C623 1.379 1_556 S
C618 N625 1.356 . S
C619 C618 1.363 . S
C619 C622 1.363 . S
N620 C622 1.356 . S
N620 H632 0.984 . S
N620 H633 0.985 . S
N621 C623 1.356 . S
N621 H626 0.984 . S
N621 H627 0.985 . S
C622 C616 1.379 . S
C622 C619 1.363 . S
C622 N620 1.356 . S
C623 C617 1.363 . S
C623 C618 1.379 1_554 S
C623 N621 1.356 . S
N624 C616 1.357 . S
N624 H630 0.987 . S
N624 H631 0.981 1_556 S
N625 C618 1.356 . S
N625 H628 0.984 . S
N625 H629 0.985 . S
H626 N621 0.984 . S
H627 N621 0.985 . S
H628 N625 0.984 . S
H629 N625 0.985 . S
H630 N624 0.987 . S
H631 N624 0.981 1_554 S
H632 N620 0.984 . S
H633 N620 0.985 . S
C634 C635 1.363 1_554 S
C634 C640 1.379 . S
C634 N642 1.366 . S
C635 C634 1.363 1_556 S
C635 C641 1.363 . S
C636 C637 1.363 . S
C636 C641 1.379 1_554 S
C636 N643 1.356 . S
C637 C636 1.363 . S
C637 C640 1.363 . S
N638 C640 1.356 . S
N638 H650 0.984 . S
N638 H651 0.985 . S
N639 C641 1.356 . S
N639 H644 0.984 . S
N639 H645 0.985 . S
C640 C634 1.379 . S
C640 C637 1.363 . S
C640 N638 1.356 . S
C641 C635 1.363 . S
C641 C636 1.379 1_556 S
C641 N639 1.356 . S
N642 C634 1.366 . S
N642 H648 1.008 . S
N642 H649 0.952 1_554 S
N643 C636 1.356 . S
N643 H646 0.984 . S
N643 H647 0.985 . S
H644 N639 0.984 . S
H645 N639 0.985 . S
H646 N643 0.984 . S
H647 N643 0.985 . S
H648 N642 1.008 . S
H649 N642 0.952 1_556 S
H650 N638 0.984 . S
H651 N638 0.985 . S
C652 C653 1.363 . S
C652 C658 1.379 1_556 S
C652 N660 1.356 . S
C653 C652 1.363 . S
C653 C659 1.363 . S
C654 C655 1.363 1_556 S
C654 C659 1.379 . S
C654 N661 1.356 1_556 S
C655 C654 1.363 1_554 S
C655 C658 1.363 . S
N656 C658 1.356 . S
N656 H668 0.984 . S
N656 H669 0.985 . S
N657 C659 1.356 . S
N657 H662 0.984 . S
N657 H663 0.985 . S
C658 C652 1.379 1_554 S
C658 C655 1.363 . S
C658 N656 1.356 . S
C659 C653 1.363 . S
C659 C654 1.379 . S
C659 N657 1.356 . S
N660 C652 1.356 . S
N660 H666 0.984 . S
N660 H667 0.984 . S
N661 C654 1.356 1_554 S
N661 H664 0.984 . S
N661 H665 0.982 1_554 S
H662 N657 0.984 . S
H663 N657 0.985 . S
H664 N661 0.984 . S
H665 N661 0.982 1_556 S
H666 N660 0.984 . S
H667 N660 0.984 . S
H668 N656 0.984 . S
H669 N656 0.985 . S
C670 C671 1.363 . S
C670 C676 1.379 . S
C670 N678 1.356 . S
C671 C670 1.363 . S
C671 C677 1.363 . S
C672 C673 1.363 . S
C672 C677 1.379 1_556 S
C672 N679 1.356 . S
C673 C672 1.363 . S
C673 C676 1.363 1_556 S
N674 C676 1.356 1_556 S
N674 H686 0.984 . S
N674 H687 0.985 . S
N675 C677 1.356 . S
N675 H680 0.984 . S
N675 H681 0.985 . S
C676 C670 1.379 . S
C676 C673 1.363 1_554 S
C676 N674 1.356 1_554 S
C677 C671 1.363 . S
C677 C672 1.379 1_554 S
C677 N675 1.356 . S
N678 C670 1.356 . S
N678 H684 0.984 . S
N678 H685 0.984 . S
N679 C672 1.356 . S
N679 H682 0.984 . S
N679 H683 0.985 . S
H680 N675 0.984 . S
H681 N675 0.985 . S
H682 N679 0.984 . S
H683 N679 0.985 . S
H684 N678 0.984 . S
H685 N678 0.984 . S
H686 N674 0.984 . S
H687 N674 0.985 . S
C688 C689 1.363 . S
C688 C694 1.379 . S
C688 N696 1.356 . S
C689 C688 1.363 . S
C689 C695 1.363 . S
C690 C691 1.363 . S
C690 C695 1.379 . S
C690 N697 1.356 . S
C691 C690 1.363 . S
C691 C694 1.363 . S
N692 C694 1.356 . S
N692 H704 0.984 . S
N692 H705 0.985 . S
N693 C695 1.356 . S
N693 H698 0.984 . S
N693 H699 0.985 . S
C694 C688 1.379 . S
C694 C691 1.363 . S
C694 N692 1.356 . S
C695 C689 1.363 . S
C695 C690 1.379 . S
C695 N693 1.356 . S
N696 C688 1.356 . S
N696 H702 0.984 . S
N696 H703 0.984 . S
N697 C690 1.356 . S
N697 H700 0.984 . S
N697 H701 0.985 . S
H698 N693 0.984 . S
H699 N693 0.985 . S
H700 N697 0.984 . S
H701 N697 0.985 . S
H702 N696 0.984 . S
H703 N696 0.984 . S
H704 N692 0.984 . S
H705 N692 0.985 . S
C706 C707 1.363 . S
C706 C712 1.379 . S
C706 N714 1.356 . S
C707 C706 1.363 . S
C707 C713 1.363 . S
C708 C709 1.363 . S
C708 C713 1.379 . S
C708 N715 1.356 . S
C709 C708 1.363 . S
C709 C712 1.363 . S
N710 C712 1.356 . S
N710 H722 0.984 . S
N710 H723 0.985 . S
N711 C713 1.356 . S
N711 H716 0.984 . S
N711 H717 0.985 . S
C712 C706 1.379 . S
C712 C709 1.363 . S
C712 N710 1.356 . S
C713 C707 1.363 . S
C713 C708 1.379 . S
C713 N711 1.356 . S
N714 C706 1.356 . S
N714 H720 0.984 . S
N714 H721 0.984 . S
N715 C708 1.356 . S
N715 H718 0.984 . S
N715 H719 0.985 . S
H716 N711 0.984 . S
H717 N711 0.985 . S
H718 N715 0.984 . S
H719 N715 0.985 . S
H720 N714 0.984 . S
H721 N714 0.984 . S
H722 N710 0.984 . S
H723 N710 0.985 . S
C724 C725 1.363 . S
C724 C730 1.379 . S
C724 N732 1.356 . S
C725 C724 1.363 . S
C725 C731 1.363 . S
C726 C727 1.363 . S
C726 C731 1.379 . S
C726 N733 1.356 . S
C727 C726 1.363 . S
C727 C730 1.363 . S
N728 C730 1.356 . S
N728 H740 0.984 . S
N728 H741 0.985 . S
N729 C731 1.356 . S
N729 H734 0.984 . S
N729 H735 0.985 . S
C730 C724 1.379 . S
C730 C727 1.363 . S
C730 N728 1.356 . S
C731 C725 1.363 . S
C731 C726 1.379 . S
C731 N729 1.356 . S
N732 C724 1.356 . S
N732 H738 0.984 . S
N732 H739 0.984 . S
N733 C726 1.356 . S
N733 H736 0.984 . S
N733 H737 0.985 . S
H734 N729 0.984 . S
H735 N729 0.985 . S
H736 N733 0.984 . S
H737 N733 0.985 . S
H738 N732 0.984 . S
H739 N732 0.984 . S
H740 N728 0.984 . S
H741 N728 0.985 . S
C742 C743 1.363 . S
C742 C748 1.379 . S
C742 N750 1.356 . S
C743 C742 1.363 . S
C743 C749 1.363 . S
C744 C745 1.363 . S
C744 C749 1.379 . S
C744 N751 1.356 . S
C745 C744 1.363 . S
C745 C748 1.363 . S
N746 C748 1.356 . S
N746 H758 0.984 . S
N746 H759 0.985 . S
N747 C749 1.356 . S
N747 H752 0.984 . S
N747 H753 0.985 . S
C748 C742 1.379 . S
C748 C745 1.363 . S
C748 N746 1.356 . S
C749 C743 1.363 . S
C749 C744 1.379 . S
C749 N747 1.356 . S
N750 C742 1.356 . S
N750 H756 0.984 . S
N750 H757 0.984 . S
N751 C744 1.356 . S
N751 H754 0.984 . S
N751 H755 0.985 . S
H752 N747 0.984 . S
H753 N747 0.985 . S
H754 N751 0.984 . S
H755 N751 0.985 . S
H756 N750 0.984 . S
H757 N750 0.984 . S
H758 N746 0.984 . S
H759 N746 0.985 . S
C760 C761 1.363 . S
C760 C766 1.379 . S
C760 N768 1.356 . S
C761 C760 1.363 . S
C761 C767 1.363 . S
C762 C763 1.363 . S
C762 C767 1.379 . S
C762 N769 1.356 . S
C763 C762 1.363 . S
C763 C766 1.363 . S
N764 C766 1.356 . S
N764 H776 0.984 . S
N764 H777 0.985 . S
N765 C767 1.356 . S
N765 H770 0.984 . S
N765 H771 0.985 . S
C766 C760 1.379 . S
C766 C763 1.363 . S
C766 N764 1.356 . S
C767 C761 1.363 . S
C767 C762 1.379 . S
C767 N765 1.356 . S
N768 C760 1.356 . S
N768 H774 0.984 . S
N768 H775 0.984 . S
N769 C762 1.356 . S
N769 H772 0.984 . S
N769 H773 0.985 . S
H770 N765 0.984 . S
H771 N765 0.985 . S
H772 N769 0.984 . S
H773 N769 0.985 . S
H774 N768 0.984 . S
H775 N768 0.984 . S
H776 N764 0.984 . S
H777 N764 0.985 . S
C778 C779 1.363 . S
C778 C784 1.379 . S
C778 N786 1.356 . S
C779 C778 1.363 . S
C779 C785 1.363 . S
C780 C781 1.363 . S
C780 C785 1.379 . S
C780 N787 1.356 . S
C781 C780 1.363 . S
C781 C784 1.363 . S
N782 C784 1.356 . S
N782 H794 0.984 . S
N782 H795 0.985 . S
N783 C785 1.356 . S
N783 H788 0.984 . S
N783 H789 0.985 . S
C784 C778 1.379 . S
C784 C781 1.363 . S
C784 N782 1.356 . S
C785 C779 1.363 . S
C785 C780 1.379 . S
C785 N783 1.356 . S
N786 C778 1.356 . S
N786 H792 0.984 . S
N786 H793 0.984 . S
N787 C780 1.356 . S
N787 H790 0.984 . S
N787 H791 0.985 . S
H788 N783 0.984 . S
H789 N783 0.985 . S
H790 N787 0.984 . S
H791 N787 0.985 . S
H792 N786 0.984 . S
H793 N786 0.984 . S
H794 N782 0.984 . S
H795 N782 0.985 . S
C796 C797 1.363 . S
C796 C802 1.379 . S
C796 N804 1.356 . S
C797 C796 1.363 . S
C797 C803 1.363 . S
C798 C799 1.363 . S
C798 C803 1.379 . S
C798 N805 1.356 . S
C799 C798 1.363 . S
C799 C802 1.363 . S
N800 C802 1.356 . S
N800 H812 0.984 . S
N800 H813 0.985 . S
N801 C803 1.356 . S
N801 H806 0.984 . S
N801 H807 0.985 . S
C802 C796 1.379 . S
C802 C799 1.363 . S
C802 N800 1.356 . S
C803 C797 1.363 . S
C803 C798 1.379 . S
C803 N801 1.356 . S
N804 C796 1.356 . S
N804 H810 0.984 . S
N804 H811 0.984 . S
N805 C798 1.356 . S
N805 H808 0.984 . S
N805 H809 0.985 . S
H806 N801 0.984 . S
H807 N801 0.985 . S
H808 N805 0.984 . S
H809 N805 0.985 . S
H810 N804 0.984 . S
H811 N804 0.984 . S
H812 N800 0.984 . S
H813 N800 0.985 . S
C814 C815 1.363 . S
C814 C820 1.379 . S
C814 N822 1.356 . S
C815 C814 1.363 . S
C815 C821 1.363 . S
C816 C817 1.363 . S
C816 C821 1.379 . S
C816 N823 1.356 . S
C817 C816 1.363 . S
C817 C820 1.363 . S
N818 C820 1.356 . S
N818 H830 0.984 . S
N818 H831 0.985 . S
N819 C821 1.356 . S
N819 H824 0.984 . S
N819 H825 0.985 . S
C820 C814 1.379 . S
C820 C817 1.363 . S
C820 N818 1.356 . S
C821 C815 1.363 . S
C821 C816 1.379 . S
C821 N819 1.356 . S
N822 C814 1.356 . S
N822 H828 0.984 . S
N822 H829 0.984 . S
N823 C816 1.356 . S
N823 H826 0.984 . S
N823 H827 0.985 . S
H824 N819 0.984 . S
H825 N819 0.985 . S
H826 N823 0.984 . S
H827 N823 0.985 . S
H828 N822 0.984 . S
H829 N822 0.984 . S
H830 N818 0.984 . S
H831 N818 0.985 . S
C832 C833 1.363 . S
C832 C838 1.379 1_545 S
C832 N840 1.356 . S
C833 C832 1.363 . S
C833 C839 1.363 1_455 S
C834 C835 1.363 . S
C834 C839 1.379 1_565 S
C834 N841 1.356 . S
C835 C834 1.363 . S
C835 C838 1.363 1_655 S
N836 C838 1.356 . S
N836 H848 0.984 . S
N836 H849 0.985 . S
N837 C839 1.356 . S
N837 H842 0.984 . S
N837 H843 0.985 . S
C838 C832 1.379 1_565 S
C838 C835 1.363 1_455 S
C838 N836 1.356 . S
C839 C833 1.363 1_655 S
C839 C834 1.379 1_545 S
C839 N837 1.356 . S
N840 C832 1.356 . S
N840 H846 0.984 . S
N840 H847 0.984 . S
N841 C834 1.356 . S
N841 H844 0.984 . S
N841 H845 0.985 . S
H842 N837 0.984 . S
H843 N837 0.985 . S
H844 N841 0.984 . S
H845 N841 0.985 . S
H846 N840 0.984 . S
H847 N840 0.984 . S
H848 N836 0.984 . S
H849 N836 0.985 . S
C850 C851 1.363 1_545 S
C850 C856 1.379 1_455 S
C850 N858 1.356 . S
C851 C850 1.363 1_565 S
C851 C857 1.363 . S
C852 C853 1.363 1_565 S
C852 C857 1.379 1_655 S
C852 N859 1.356 . S
C853 C852 1.363 1_545 S
C853 C856 1.363 . S
N854 C856 1.356 . S
N854 H866 0.984 . S
N854 H867 0.985 . S
N855 C857 1.356 . S
N855 H860 0.984 . S
N855 H861 0.985 . S
C856 C850 1.379 1_655 S
C856 C853 1.363 . S
C856 N854 1.356 . S
C857 C851 1.363 . S
C857 C852 1.379 1_455 S
C857 N855 1.356 . S
N858 C850 1.356 . S
N858 H864 0.984 . S
N858 H865 0.984 . S
N859 C852 1.356 . S
N859 H862 0.984 . S
N859 H863 0.985 . S
H860 N855 0.984 . S
H861 N855 0.985 . S
H862 N859 0.984 . S
H863 N859 0.985 . S
H864 N858 0.984 . S
H865 N858 0.984 . S
H866 N854 0.984 . S
H867 N854 0.985 . S
C868 C869 1.363 . S
C868 C874 1.379 . S
C868 N876 1.356 . S
C869 C868 1.363 . S
C869 C875 1.363 1_655 S
C870 C871 1.363 . S
C870 C875 1.379 . S
C870 N877 1.356 . S
C871 C870 1.363 . S
C871 C874 1.363 1_455 S
N872 C874 1.356 . S
N872 H884 0.984 . S
N872 H885 0.985 . S
N873 C875 1.356 . S
N873 H878 0.984 . S
N873 H879 0.985 . S
C874 C868 1.379 . S
C874 C871 1.363 1_655 S
C874 N872 1.356 . S
C875 C869 1.363 1_455 S
C875 C870 1.379 . S
C875 N873 1.356 . S
N876 C868 1.356 . S
N876 H882 0.984 . S
N876 H883 0.984 . S
N877 C870 1.356 . S
N877 H880 0.984 . S
N877 H881 0.985 . S
H878 N873 0.984 . S
H879 N873 0.985 . S
H880 N877 0.984 . S
H881 N877 0.985 . S
H882 N876 0.984 . S
H883 N876 0.984 . S
H884 N872 0.984 . S
H885 N872 0.985 . S
C886 C887 1.363 1_565 S
C886 C892 1.379 . S
C886 N894 1.356 . S
C887 C886 1.363 1_545 S
C887 C893 1.363 . S
C888 C889 1.363 1_545 S
C888 C893 1.379 . S
C888 N895 1.356 . S
C889 C888 1.363 1_565 S
C889 C892 1.363 . S
N890 C892 1.356 . S
N890 H902 0.984 . S
N890 H903 0.985 . S
N891 C893 1.356 . S
N891 H896 0.984 . S
N891 H897 0.985 . S
C892 C886 1.379 . S
C892 C889 1.363 . S
C892 N890 1.356 . S
C893 C887 1.363 . S
C893 C888 1.379 . S
C893 N891 1.356 . S
N894 C886 1.356 . S
N894 H900 0.984 . S
N894 H901 0.984 . S
N895 C888 1.356 . S
N895 H898 0.984 . S
N895 H899 0.985 . S
H896 N891 0.984 . S
H897 N891 0.985 . S
H898 N895 0.984 . S
H899 N895 0.985 . S
H900 N894 0.984 . S
H901 N894 0.984 . S
H902 N890 0.984 . S
H903 N890 0.985 . S
C904 C905 1.363 . S
C904 C910 1.379 . S
C904 N912 1.356 . S
C905 C904 1.363 . S
C905 C911 1.363 . S
C906 C907 1.363 . S
C906 C911 1.379 . S
C906 N913 1.356 . S
C907 C906 1.363 . S
C907 C910 1.363 . S
N908 C910 1.356 . S
N908 H920 0.984 . S
N908 H921 0.985 . S
N909 C911 1.356 . S
N909 H914 0.984 . S
N909 H915 0.985 . S
C910 C904 1.379 . S
C910 C907 1.363 . S
C910 N908 1.356 . S
C911 C905 1.363 . S
C911 C906 1.379 . S
C911 N909 1.356 . S
N912 C904 1.356 . S
N912 H918 0.984 . S
N912 H919 0.984 . S
N913 C906 1.356 . S
N913 H916 0.984 . S
N913 H917 0.985 . S
H914 N909 0.984 . S
H915 N909 0.985 . S
H916 N913 0.984 . S
H917 N913 0.985 . S
H918 N912 0.984 . S
H919 N912 0.984 . S
H920 N908 0.984 . S
H921 N908 0.985 . S
C922 C923 1.363 . S
C922 C928 1.379 . S
C922 N930 1.356 . S
C923 C922 1.363 . S
C923 C929 1.363 . S
C924 C925 1.363 . S
C924 C929 1.379 . S
C924 N931 1.356 . S
C925 C924 1.363 . S
C925 C928 1.363 . S
N926 C928 1.356 . S
N926 H938 0.984 . S
N926 H939 0.985 . S
N927 C929 1.356 . S
N927 H932 0.984 . S
N927 H933 0.985 . S
C928 C922 1.379 . S
C928 C925 1.363 . S
C928 N926 1.356 . S
C929 C923 1.363 . S
C929 C924 1.379 . S
C929 N927 1.356 . S
N930 C922 1.356 . S
N930 H936 0.984 . S
N930 H937 0.984 . S
N931 C924 1.356 . S
N931 H934 0.984 . S
N931 H935 0.985 . S
H932 N927 0.984 . S
H933 N927 0.985 . S
H934 N931 0.984 . S
H935 N931 0.985 . S
H936 N930 0.984 . S
H937 N930 0.984 . S
H938 N926 0.984 . S
H939 N926 0.985 . S
C940 C941 1.363 . S
C940 C946 1.379 1_565 S
C940 N948 1.356 . S
C941 C940 1.363 . S
C941 C947 1.363 . S
C942 C943 1.363 . S
C942 C947 1.379 1_545 S
C942 N949 1.356 . S
C943 C942 1.363 . S
C943 C946 1.363 . S
N944 C946 1.356 . S
N944 H956 0.984 . S
N944 H957 0.985 . S
N945 C947 1.356 . S
N945 H950 0.984 . S
N945 H951 0.985 . S
C946 C940 1.379 1_545 S
C946 C943 1.363 . S
C946 N944 1.356 . S
C947 C941 1.363 . S
C947 C942 1.379 1_565 S
C947 N945 1.356 . S
N948 C940 1.356 . S
N948 H954 0.984 . S
N948 H955 0.984 . S
N949 C942 1.356 . S
N949 H952 0.984 . S
N949 H953 0.985 . S
H950 N945 0.984 . S
H951 N945 0.985 . S
H952 N949 0.984 . S
H953 N949 0.985 . S
H954 N948 0.984 . S
H955 N948 0.984 . S
H956 N944 0.984 . S
H957 N944 0.985 . S
C958 C959 1.363 . S
C958 C964 1.379 1_455 S
C958 N966 1.356 . S
C959 C958 1.363 . S
C959 C965 1.363 . S
C960 C961 1.363 . S
C960 C965 1.379 1_655 S
C960 N967 1.356 . S
C961 C960 1.363 . S
C961 C964 1.363 . S
N962 C964 1.356 . S
N962 H974 0.984 . S
N962 H975 0.985 . S
N963 C965 1.356 . S
N963 H968 0.984 . S
N963 H969 0.985 . S
C964 C958 1.379 1_655 S
C964 C961 1.363 . S
C964 N962 1.356 . S
C965 C959 1.363 . S
C965 C960 1.379 1_455 S
C965 N963 1.356 . S
N966 C958 1.356 . S
N966 H972 0.984 . S
N966 H973 0.984 . S
N967 C960 1.356 . S
N967 H970 0.984 . S
N967 H971 0.985 . S
H968 N963 0.984 . S
H969 N963 0.985 . S
H970 N967 0.984 . S
H971 N967 0.985 . S
H972 N966 0.984 . S
H973 N966 0.984 . S
H974 N962 0.984 . S
H975 N962 0.985 . S
C976 C977 1.363 . S
C976 C982 1.379 . S
C976 N984 1.356 . S
C977 C976 1.363 . S
C977 C983 1.363 1_655 S
C978 C979 1.363 . S
C978 C983 1.379 . S
C978 N985 1.356 . S
C979 C978 1.363 . S
C979 C982 1.363 1_455 S
N980 C982 1.356 . S
N980 H992 0.984 . S
N980 H993 0.985 . S
N981 C983 1.356 . S
N981 H986 0.984 . S
N981 H987 0.985 . S
C982 C976 1.379 . S
C982 C979 1.363 1_655 S
C982 N980 1.356 . S
C983 C977 1.363 1_455 S
C983 C978 1.379 . S
C983 N981 1.356 . S
N984 C976 1.356 . S
N984 H990 0.984 . S
N984 H991 0.984 . S
N985 C978 1.356 . S
N985 H988 0.984 . S
N985 H989 0.985 . S
H986 N981 0.984 . S
H987 N981 0.985 . S
H988 N985 0.984 . S
H989 N985 0.985 . S
H990 N984 0.984 . S
H991 N984 0.984 . S
H992 N980 0.984 . S
H993 N980 0.985 . S
C994 C995 1.363 . S
C994 C1000 1.379 . S
C994 N1002 1.356 . S
C995 C994 1.363 . S
C995 C1001 1.363 1_565 S
C996 C997 1.363 . S
C996 C1001 1.379 . S
C996 N1003 1.356 . S
C997 C996 1.363 . S
C997 C1000 1.363 1_545 S
N998 C1000 1.356 . S
N998 H1010 0.984 . S
N998 H1011 0.985 . S
N999 C1001 1.356 . S
N999 H1004 0.984 . S
N999 H1005 0.985 . S
C1000 C994 1.379 . S
C1000 C997 1.363 1_565 S
C1000 N998 1.356 . S
C1001 C995 1.363 1_545 S
C1001 C996 1.379 . S
C1001 N999 1.356 . S
N1002 C994 1.356 . S
N1002 H1008 0.984 . S
N1002 H1009 0.984 . S
N1003 C996 1.356 . S
N1003 H1006 0.984 . S
N1003 H1007 0.985 . S
H1004 N999 0.984 . S
H1005 N999 0.985 . S
H1006 N1003 0.984 . S
H1007 N1003 0.985 . S
H1008 N1002 0.984 . S
H1009 N1002 0.984 . S
H1010 N998 0.984 . S
H1011 N998 0.985 . S
C1012 C1013 1.363 . S
C1012 C1018 1.379 1_545 S
C1012 N1020 1.356 . S
C1013 C1012 1.363 . S
C1013 C1019 1.363 1_455 S
C1014 C1015 1.363 . S
C1014 C1019 1.379 1_565 S
C1014 N1021 1.356 . S
C1015 C1014 1.363 . S
C1015 C1018 1.363 1_655 S
N1016 C1018 1.356 . S
N1016 H1028 0.984 . S
N1016 H1029 0.985 . S
N1017 C1019 1.356 . S
N1017 H1022 0.984 . S
N1017 H1023 0.985 . S
C1018 C1012 1.379 1_565 S
C1018 C1015 1.363 1_455 S
C1018 N1016 1.356 . S
C1019 C1013 1.363 1_655 S
C1019 C1014 1.379 1_545 S
C1019 N1017 1.356 . S
N1020 C1012 1.356 . S
N1020 H1026 0.984 . S
N1020 H1027 0.984 . S
N1021 C1014 1.356 . S
N1021 H1024 0.984 . S
N1021 H1025 0.985 . S
H1022 N1017 0.984 . S
H1023 N1017 0.985 . S
H1024 N1021 0.984 . S
H1025 N1021 0.985 . S
H1026 N1020 0.984 . S
H1027 N1020 0.984 . S
H1028 N1016 0.984 . S
H1029 N1016 0.985 . S
C1030 C1031 1.363 1_565 S
C1030 C1036 1.379 1_655 S
C1030 N1038 1.356 . S
C1031 C1030 1.363 1_545 S
C1031 C1037 1.363 . S
C1032 C1033 1.363 1_545 S
C1032 C1037 1.379 1_455 S
C1032 N1039 1.356 . S
C1033 C1032 1.363 1_565 S
C1033 C1036 1.363 . S
N1034 C1036 1.356 . S
N1034 H1046 0.984 . S
N1034 H1047 0.985 . S
N1035 C1037 1.356 . S
N1035 H1040 0.984 . S
N1035 H1041 0.985 . S
C1036 C1030 1.379 1_455 S
C1036 C1033 1.363 . S
C1036 N1034 1.356 . S
C1037 C1031 1.363 . S
C1037 C1032 1.379 1_655 S
C1037 N1035 1.356 . S
N1038 C1030 1.356 . S
N1038 H1044 0.984 . S
N1038 H1045 0.984 . S
N1039 C1032 1.356 . S
N1039 H1042 0.984 . S
N1039 H1043 0.985 . S
H1040 N1035 0.984 . S
H1041 N1035 0.985 . S
H1042 N1039 0.984 . S
H1043 N1039 0.985 . S
H1044 N1038 0.984 . S
H1045 N1038 0.984 . S
H1046 N1034 0.984 . S
H1047 N1034 0.985 . S
C1048 C1049 1.363 . S
C1048 C1054 1.379 1_545 S
C1048 N1056 1.356 . S
C1049 C1048 1.363 . S
C1049 C1055 1.363 . S
C1050 C1051 1.363 . S
C1050 C1055 1.379 1_565 S
C1050 N1057 1.356 . S
C1051 C1050 1.363 . S
C1051 C1054 1.363 . S
N1052 C1054 1.356 . S
N1052 H1064 0.984 . S
N1052 H1065 0.985 . S
N1053 C1055 1.356 . S
N1053 H1058 0.984 . S
N1053 H1059 0.985 . S
C1054 C1048 1.379 1_565 S
C1054 C1051 1.363 . S
C1054 N1052 1.356 . S
C1055 C1049 1.363 . S
C1055 C1050 1.379 1_545 S
C1055 N1053 1.356 . S
N1056 C1048 1.356 . S
N1056 H1062 0.984 . S
N1056 H1063 0.984 . S
N1057 C1050 1.356 . S
N1057 H1060 0.984 . S
N1057 H1061 0.985 . S
H1058 N1053 0.984 . S
H1059 N1053 0.985 . S
H1060 N1057 0.984 . S
H1061 N1057 0.985 . S
H1062 N1056 0.984 . S
H1063 N1056 0.984 . S
H1064 N1052 0.984 . S
H1065 N1052 0.985 . S
C1066 C1067 1.363 . S
C1066 C1072 1.379 1_655 S
C1066 N1074 1.356 . S
C1067 C1066 1.363 . S
C1067 C1073 1.363 . S
C1068 C1069 1.363 . S
C1068 C1073 1.379 1_455 S
C1068 N1075 1.356 . S
C1069 C1068 1.363 . S
C1069 C1072 1.363 . S
N1070 C1072 1.356 . S
N1070 H1082 0.984 . S
N1070 H1083 0.985 . S
N1071 C1073 1.356 . S
N1071 H1076 0.984 . S
N1071 H1077 0.985 . S
C1072 C1066 1.379 1_455 S
C1072 C1069 1.363 . S
C1072 N1070 1.356 . S
C1073 C1067 1.363 . S
C1073 C1068 1.379 1_655 S
C1073 N1071 1.356 . S
N1074 C1066 1.356 . S
N1074 H1080 0.984 . S
N1074 H1081 0.984 . S
N1075 C1068 1.356 . S
N1075 H1078 0.984 . S
N1075 H1079 0.985 . S
H1076 N1071 0.984 . S
H1077 N1071 0.985 . S
H1078 N1075 0.984 . S
H1079 N1075 0.985 . S
H1080 N1074 0.984 . S
H1081 N1074 0.984 . S
H1082 N1070 0.984 . S
H1083 N1070 0.985 . S
C1084 C1085 1.363 . S
C1084 C1090 1.379 . S
C1084 N1092 1.356 . S
C1085 C1084 1.363 . S
C1085 C1091 1.363 . S
C1086 C1087 1.363 . S
C1086 C1091 1.379 . S
C1086 N1093 1.356 . S
C1087 C1086 1.363 . S
C1087 C1090 1.363 . S
N1088 C1090 1.356 . S
N1088 H1100 0.984 . S
N1088 H1101 0.985 . S
N1089 C1091 1.356 . S
N1089 H1094 0.984 . S
N1089 H1095 0.985 . S
C1090 C1084 1.379 . S
C1090 C1087 1.363 . S
C1090 N1088 1.356 . S
C1091 C1085 1.363 . S
C1091 C1086 1.379 . S
C1091 N1089 1.356 . S
N1092 C1084 1.356 . S
N1092 H1098 0.984 . S
N1092 H1099 0.984 . S
N1093 C1086 1.356 . S
N1093 H1096 0.984 . S
N1093 H1097 0.985 . S
H1094 N1089 0.984 . S
H1095 N1089 0.985 . S
H1096 N1093 0.984 . S
H1097 N1093 0.985 . S
H1098 N1092 0.984 . S
H1099 N1092 0.984 . S
H1100 N1088 0.984 . S
H1101 N1088 0.985 . S
C1102 C1103 1.363 . S
C1102 C1108 1.379 . S
C1102 N1110 1.356 . S
C1103 C1102 1.363 . S
C1103 C1109 1.363 . S
C1104 C1105 1.363 . S
C1104 C1109 1.379 . S
C1104 N1111 1.356 . S
C1105 C1104 1.363 . S
C1105 C1108 1.363 . S
N1106 C1108 1.356 . S
N1106 H1118 0.984 . S
N1106 H1119 0.985 . S
N1107 C1109 1.356 . S
N1107 H1112 0.984 . S
N1107 H1113 0.985 . S
C1108 C1102 1.379 . S
C1108 C1105 1.363 . S
C1108 N1106 1.356 . S
C1109 C1103 1.363 . S
C1109 C1104 1.379 . S
C1109 N1107 1.356 . S
N1110 C1102 1.356 . S
N1110 H1116 0.984 . S
N1110 H1117 0.984 . S
N1111 C1104 1.356 . S
N1111 H1114 0.984 . S
N1111 H1115 0.985 . S
H1112 N1107 0.984 . S
H1113 N1107 0.985 . S
H1114 N1111 0.984 . S
H1115 N1111 0.985 . S
H1116 N1110 0.984 . S
H1117 N1110 0.984 . S
H1118 N1106 0.984 . S
H1119 N1106 0.985 . S
C1120 C1121 1.363 . S
C1120 C1126 1.379 . S
C1120 N1128 1.356 . S
C1121 C1120 1.363 . S
C1121 C1127 1.363 . S
C1122 C1123 1.363 . S
C1122 C1127 1.379 . S
C1122 N1129 1.356 . S
C1123 C1122 1.363 . S
C1123 C1126 1.363 . S
N1124 C1126 1.356 . S
N1124 H1136 0.984 . S
N1124 H1137 0.985 . S
N1125 C1127 1.356 . S
N1125 H1130 0.984 . S
N1125 H1131 0.985 . S
C1126 C1120 1.379 . S
C1126 C1123 1.363 . S
C1126 N1124 1.356 . S
C1127 C1121 1.363 . S
C1127 C1122 1.379 . S
C1127 N1125 1.356 . S
N1128 C1120 1.356 . S
N1128 H1134 0.984 . S
N1128 H1135 0.984 . S
N1129 C1122 1.356 . S
N1129 H1132 0.984 . S
N1129 H1133 0.985 . S
H1130 N1125 0.984 . S
H1131 N1125 0.985 . S
H1132 N1129 0.984 . S
H1133 N1129 0.985 . S
H1134 N1128 0.984 . S
H1135 N1128 0.984 . S
H1136 N1124 0.984 . S
H1137 N1124 0.985 . S
C1138 C1139 1.363 . S
C1138 C1144 1.379 . S
C1138 N1146 1.356 . S
C1139 C1138 1.363 . S
C1139 C1145 1.363 . S
C1140 C1141 1.363 . S
C1140 C1145 1.379 . S
C1140 N1147 1.356 . S
C1141 C1140 1.363 . S
C1141 C1144 1.363 . S
N1142 C1144 1.356 . S
N1142 H1154 0.984 . S
N1142 H1155 0.985 . S
N1143 C1145 1.356 . S
N1143 H1148 0.984 . S
N1143 H1149 0.985 . S
C1144 C1138 1.379 . S
C1144 C1141 1.363 . S
C1144 N1142 1.356 . S
C1145 C1139 1.363 . S
C1145 C1140 1.379 . S
C1145 N1143 1.356 . S
N1146 C1138 1.356 . S
N1146 H1152 0.984 . S
N1146 H1153 0.984 . S
N1147 C1140 1.356 . S
N1147 H1150 0.984 . S
N1147 H1151 0.985 . S
H1148 N1143 0.984 . S
H1149 N1143 0.985 . S
H1150 N1147 0.984 . S
H1151 N1147 0.985 . S
H1152 N1146 0.984 . S
H1153 N1146 0.984 . S
H1154 N1142 0.984 . S
H1155 N1142 0.985 . S
C1156 C1157 1.363 . S
C1156 C1162 1.379 . S
C1156 N1164 1.356 . S
C1157 C1156 1.363 . S
C1157 C1163 1.363 . S
C1158 C1159 1.363 . S
C1158 C1163 1.379 . S
C1158 N1165 1.356 . S
C1159 C1158 1.363 . S
C1159 C1162 1.363 . S
N1160 C1162 1.356 . S
N1160 H1172 0.984 . S
N1160 H1173 0.985 . S
N1161 C1163 1.356 . S
N1161 H1166 0.984 . S
N1161 H1167 0.985 . S
C1162 C1156 1.379 . S
C1162 C1159 1.363 . S
C1162 N1160 1.356 . S
C1163 C1157 1.363 . S
C1163 C1158 1.379 . S
C1163 N1161 1.356 . S
N1164 C1156 1.356 . S
N1164 H1170 0.984 . S
N1164 H1171 0.984 . S
N1165 C1158 1.356 . S
N1165 H1168 0.984 . S
N1165 H1169 0.985 . S
H1166 N1161 0.984 . S
H1167 N1161 0.985 . S
H1168 N1165 0.984 . S
H1169 N1165 0.985 . S
H1170 N1164 0.984 . S
H1171 N1164 0.984 . S
H1172 N1160 0.984 . S
H1173 N1160 0.985 . S
C1174 C1175 1.363 . S
C1174 C1180 1.379 . S
C1174 N1182 1.356 . S
C1175 C1174 1.363 . S
C1175 C1181 1.363 . S
C1176 C1177 1.363 . S
C1176 C1181 1.379 . S
C1176 N1183 1.356 . S
C1177 C1176 1.363 . S
C1177 C1180 1.363 . S
N1178 C1180 1.356 . S
N1178 H1190 0.984 . S
N1178 H1191 0.985 . S
N1179 C1181 1.356 . S
N1179 H1184 0.984 . S
N1179 H1185 0.985 . S
C1180 C1174 1.379 . S
C1180 C1177 1.363 . S
C1180 N1178 1.356 . S
C1181 C1175 1.363 . S
C1181 C1176 1.379 . S
C1181 N1179 1.356 . S
N1182 C1174 1.356 . S
N1182 H1188 0.984 . S
N1182 H1189 0.984 . S
N1183 C1176 1.356 . S
N1183 H1186 0.984 . S
N1183 H1187 0.985 . S
H1184 N1179 0.984 . S
H1185 N1179 0.985 . S
H1186 N1183 0.984 . S
H1187 N1183 0.985 . S
H1188 N1182 0.984 . S
H1189 N1182 0.984 . S
H1190 N1178 0.984 . S
H1191 N1178 0.985 . S
C1192 C1193 1.363 . S
C1192 C1198 1.379 . S
C1192 N1200 1.356 . S
C1193 C1192 1.363 . S
C1193 C1199 1.363 . S
C1194 C1195 1.363 . S
C1194 C1199 1.379 . S
C1194 N1201 1.356 . S
C1195 C1194 1.363 . S
C1195 C1198 1.363 . S
N1196 C1198 1.356 . S
N1196 H1208 0.984 . S
N1196 H1209 0.985 . S
N1197 C1199 1.356 . S
N1197 H1202 0.984 . S
N1197 H1203 0.985 . S
C1198 C1192 1.379 . S
C1198 C1195 1.363 . S
C1198 N1196 1.356 . S
C1199 C1193 1.363 . S
C1199 C1194 1.379 . S
C1199 N1197 1.356 . S
N1200 C1192 1.356 . S
N1200 H1206 0.984 . S
N1200 H1207 0.984 . S
N1201 C1194 1.356 . S
N1201 H1204 0.984 . S
N1201 H1205 0.985 . S
H1202 N1197 0.984 . S
H1203 N1197 0.985 . S
H1204 N1201 0.984 . S
H1205 N1201 0.985 . S
H1206 N1200 0.984 . S
H1207 N1200 0.984 . S
H1208 N1196 0.984 . S
H1209 N1196 0.985 . S
C1210 C1211 1.363 . S
C1210 C1216 1.379 . S
C1210 N1218 1.356 . S
C1211 C1210 1.363 . S
C1211 C1217 1.363 . S
C1212 C1213 1.363 . S
C1212 C1217 1.379 . S
C1212 N1219 1.356 . S
C1213 C1212 1.363 . S
C1213 C1216 1.363 . S
N1214 C1216 1.356 . S
N1214 H1226 0.984 . S
N1214 H1227 0.985 . S
N1215 C1217 1.356 . S
N1215 H1220 0.984 . S
N1215 H1221 0.985 . S
C1216 C1210 1.379 . S
C1216 C1213 1.363 . S
C1216 N1214 1.356 . S
C1217 C1211 1.363 . S
C1217 C1212 1.379 . S
C1217 N1215 1.356 . S
N1218 C1210 1.356 . S
N1218 H1224 0.984 . S
N1218 H1225 0.984 . S
N1219 C1212 1.356 . S
N1219 H1222 0.984 . S
N1219 H1223 0.985 . S
H1220 N1215 0.984 . S
H1221 N1215 0.985 . S
H1222 N1219 0.984 . S
H1223 N1219 0.985 . S
H1224 N1218 0.984 . S
H1225 N1218 0.984 . S
H1226 N1214 0.984 . S
H1227 N1214 0.985 . S
C1228 C1229 1.363 . S
C1228 C1234 1.379 . S
C1228 N1236 1.356 . S
C1229 C1228 1.363 . S
C1229 C1235 1.363 . S
C1230 C1231 1.363 . S
C1230 C1235 1.379 . S
C1230 N1237 1.356 . S
C1231 C1230 1.363 . S
C1231 C1234 1.363 . S
N1232 C1234 1.356 . S
N1232 H1244 0.984 . S
N1232 H1245 0.985 . S
N1233 C1235 1.356 . S
N1233 H1238 0.984 . S
N1233 H1239 0.985 . S
C1234 C1228 1.379 . S
C1234 C1231 1.363 . S
C1234 N1232 1.356 . S
C1235 C1229 1.363 . S
C1235 C1230 1.379 . S
C1235 N1233 1.356 . S
N1236 C1228 1.356 . S
N1236 H1242 0.984 . S
N1236 H1243 0.984 . S
N1237 C1230 1.356 . S
N1237 H1240 0.984 . S
N1237 H1241 0.985 . S
H1238 N1233 0.984 . S
H1239 N1233 0.985 . S
H1240 N1237 0.984 . S
H1241 N1237 0.985 . S
H1242 N1236 0.984 . S
H1243 N1236 0.984 . S
H1244 N1232 0.984 . S
H1245 N1232 0.985 . S
C1246 C1247 1.363 . S
C1246 C1252 1.379 . S
C1246 N1254 1.356 . S
C1247 C1246 1.363 . S
C1247 C1253 1.363 . S
C1248 C1249 1.363 . S
C1248 C1253 1.379 . S
C1248 N1255 1.356 . S
C1249 C1248 1.363 . S
C1249 C1252 1.363 . S
N1250 C1252 1.356 . S
N1250 H1262 0.984 . S
N1250 H1263 0.985 . S
N1251 C1253 1.356 . S
N1251 H1256 0.984 . S
N1251 H1257 0.985 . S
C1252 C1246 1.379 . S
C1252 C1249 1.363 . S
C1252 N1250 1.356 . S
C1253 C1247 1.363 . S
C1253 C1248 1.379 . S
C1253 N1251 1.356 . S
N1254 C1246 1.356 . S
N1254 H1260 0.984 . S
N1254 H1261 0.984 . S
N1255 C1248 1.356 . S
N1255 H1258 0.984 . S
N1255 H1259 0.985 . S
H1256 N1251 0.984 . S
H1257 N1251 0.985 . S
H1258 N1255 0.984 . S
H1259 N1255 0.985 . S
H1260 N1254 0.984 . S
H1261 N1254 0.984 . S
H1262 N1250 0.984 . S
H1263 N1250 0.985 . S
C545 C33 1.074 . S
C547 C379 1.055 . S
C563 C277 1.055 . S
C565 C67 1.074 . S
C581 C311 1.055 . S
C583 C101 1.074 . S
C599 C345 1.055 . S
C601 C135 1.074 . S
C617 C175 1.055 . S
C619 C169 1.074 . S
C635 C209 1.055 . S
C637 C203 1.074 . S
C653 C237 1.074 . S
C655 C243 1.055 . S
C671 C271 1.074 . S
C673 C141 1.055 . S
C689 C305 1.074 . S
C691 C107 1.055 . S
C707 C339 1.074 . S
C709 C5 1.055 . S
C725 C39 1.055 . S
C727 C373 1.074 . S
C743 C407 1.074 . S
C745 C73 1.055 . S
C761 C447 1.055 . S
C763 C441 1.074 . S
C779 C481 1.055 . S
C781 C475 1.074 . S
C797 C515 1.055 . S
C799 C509 1.074 . S
C815 C543 1.074 . S
C817 C413 1.055 . S
C833 C20 1.390 . S
C835 C88 1.390 . S
C851 C54 1.390 . S
C853 C122 1.390 . S
C869 C224 1.390 . S
C871 C156 1.390 . S
C887 C258 1.390 . S
C889 C190 1.390 . S
C905 C360 1.390 . S
C907 C292 1.390 . S
C923 C326 1.390 . S
C925 C394 1.390 . S
C941 C428 1.390 . S
C943 C496 1.390 . S
C959 C530 1.390 . S
C961 C462 1.390 . S
C977 C70 1.392 . S
C979 C2 1.392 . S
C995 C36 1.392 . S
C997 C104 1.392 . S
C1013 C138 1.391 . S
C1015 C206 1.391 . S
C1031 C240 1.391 . S
C1033 C172 1.391 . S
C1049 C342 1.391 . S
C1051 C274 1.391 . S
C1067 C308 1.391 . S
C1069 C376 1.391 . S
C1085 C410 1.391 . S
C1087 C478 1.391 . S
C1103 C512 1.391 . S
C1105 C444 1.391 . S
C1121 C485 1.471 . S
C1123 C9 1.471 . S
C1139 C43 1.471 . S
C1141 C519 1.471 . S
C1157 C77 1.471 . S
C1159 C417 1.471 . S
C1175 C111 1.471 . S
C1177 C451 1.471 . S
C1193 C145 1.471 . S
C1195 C349 1.471 . S
C1211 C383 1.471 . S
C1213 C179 1.471 . S
C1229 C213 1.471 . S
C1231 C281 1.471 . S
C1247 C247 1.471 . S
C1249 C315 1.471 . S
