# Generated by pormake.
# Topology nia-e, (7)-cn, num edge types: 1
# Building blocks:
#     Node 0, Type 0, BuildingBlock: OLANEW_clean_sbu_0, # of connection points: 7
#     Node 1, Type 0, BuildingBlock: OLANEW_clean_sbu_0, # of connection points: 7
#     Node 2, Type 0, BuildingBlock: OLANEW_clean_sbu_0, # of connection points: 7
#     Node 3, Type 0, BuildingBlock: OLANEW_clean_sbu_0, # of connection points: 7
#     Node 4, Type 0, BuildingBlock: OLANEW_clean_sbu_0, # of connection points: 7
#     Node 5, Type 0, BuildingBlock: OLANEW_clean_sbu_0, # of connection points: 7
#     Node 6, Type 0, BuildingBlock: OLANEW_clean_sbu_0, # of connection points: 7
#     Node 7, Type 0, BuildingBlock: OLANEW_clean_sbu_0, # of connection points: 7
#     Node 8, Type 0, BuildingBlock: OLANEW_clean_sbu_0, # of connection points: 7
#     Node 9, Type 0, BuildingBlock: OLANEW_clean_sbu_0, # of connection points: 7
#     Node 10, Type 0, BuildingBlock: OLANEW_clean_sbu_0, # of connection points: 7
#     Node 11, Type 0, BuildingBlock: OLANEW_clean_sbu_0, # of connection points: 7
#     Edge 12, Type (0, 0), BuildingBlock: XIVTED_clean_linker_0, # of connection points: 2
#     Edge 13, Type (0, 0), BuildingBlock: XIVTED_clean_linker_0, # of connection points: 2
#     Edge 14, Type (0, 0), BuildingBlock: XIVTED_clean_linker_0, # of connection points: 2
#     Edge 15, Type (0, 0), BuildingBlock: XIVTED_clean_linker_0, # of connection points: 2
#     Edge 16, Type (0, 0), BuildingBlock: XIVTED_clean_linker_0, # of connection points: 2
#     Edge 17, Type (0, 0), BuildingBlock: XIVTED_clean_linker_0, # of connection points: 2
#     Edge 18, Type (0, 0), BuildingBlock: XIVTED_clean_linker_0, # of connection points: 2
#     Edge 19, Type (0, 0), BuildingBlock: XIVTED_clean_linker_0, # of connection points: 2
#     Edge 20, Type (0, 0), BuildingBlock: XIVTED_clean_linker_0, # of connection points: 2
#     Edge 21, Type (0, 0), BuildingBlock: XIVTED_clean_linker_0, # of connection points: 2
#     Edge 22, Type (0, 0), BuildingBlock: XIVTED_clean_linker_0, # of connection points: 2
#     Edge 23, Type (0, 0), BuildingBlock: XIVTED_clean_linker_0, # of connection points: 2
#     Edge 24, Type (0, 0), BuildingBlock: XIVTED_clean_linker_0, # of connection points: 2
#     Edge 25, Type (0, 0), BuildingBlock: XIVTED_clean_linker_0, # of connection points: 2
#     Edge 26, Type (0, 0), BuildingBlock: XIVTED_clean_linker_0, # of connection points: 2
#     Edge 27, Type (0, 0), BuildingBlock: XIVTED_clean_linker_0, # of connection points: 2
#     Edge 28, Type (0, 0), BuildingBlock: XIVTED_clean_linker_0, # of connection points: 2
#     Edge 29, Type (0, 0), BuildingBlock: XIVTED_clean_linker_0, # of connection points: 2
#     Edge 30, Type (0, 0), BuildingBlock: XIVTED_clean_linker_0, # of connection points: 2
#     Edge 31, Type (0, 0), BuildingBlock: XIVTED_clean_linker_0, # of connection points: 2
#     Edge 32, Type (0, 0), BuildingBlock: XIVTED_clean_linker_0, # of connection points: 2
#     Edge 33, Type (0, 0), BuildingBlock: XIVTED_clean_linker_0, # of connection points: 2
#     Edge 34, Type (0, 0), BuildingBlock: XIVTED_clean_linker_0, # of connection points: 2
#     Edge 35, Type (0, 0), BuildingBlock: XIVTED_clean_linker_0, # of connection points: 2
#     Edge 36, Type (0, 0), BuildingBlock: XIVTED_clean_linker_0, # of connection points: 2
#     Edge 37, Type (0, 0), BuildingBlock: XIVTED_clean_linker_0, # of connection points: 2
#     Edge 38, Type (0, 0), BuildingBlock: XIVTED_clean_linker_0, # of connection points: 2
#     Edge 39, Type (0, 0), BuildingBlock: XIVTED_clean_linker_0, # of connection points: 2
#     Edge 40, Type (0, 0), BuildingBlock: XIVTED_clean_linker_0, # of connection points: 2
#     Edge 41, Type (0, 0), BuildingBlock: XIVTED_clean_linker_0, # of connection points: 2
#     Edge 42, Type (0, 0), BuildingBlock: XIVTED_clean_linker_0, # of connection points: 2
#     Edge 43, Type (0, 0), BuildingBlock: XIVTED_clean_linker_0, # of connection points: 2
#     Edge 44, Type (0, 0), BuildingBlock: XIVTED_clean_linker_0, # of connection points: 2
#     Edge 45, Type (0, 0), BuildingBlock: XIVTED_clean_linker_0, # of connection points: 2
#     Edge 46, Type (0, 0), BuildingBlock: XIVTED_clean_linker_0, # of connection points: 2
#     Edge 47, Type (0, 0), BuildingBlock: XIVTED_clean_linker_0, # of connection points: 2
#     Edge 48, Type (0, 0), BuildingBlock: XIVTED_clean_linker_0, # of connection points: 2
#     Edge 49, Type (0, 0), BuildingBlock: XIVTED_clean_linker_0, # of connection points: 2
#     Edge 50, Type (0, 0), BuildingBlock: XIVTED_clean_linker_0, # of connection points: 2
#     Edge 51, Type (0, 0), BuildingBlock: XIVTED_clean_linker_0, # of connection points: 2
#     Edge 52, Type (0, 0), BuildingBlock: XIVTED_clean_linker_0, # of connection points: 2
#     Edge 53, Type (0, 0), BuildingBlock: XIVTED_clean_linker_0, # of connection points: 2
# Relax obj value: 0.212
# Max RMSD: 0.283
# Mean RMSD: 0.283
data_MOF--net-nia-e--node1-OLANEW_clean_sbu_0--edge1-XIVTED_clean_linker_0
_symmetry_space_group_name_H-M    P1
_symmetry_Int_Tables_number       1
_symmetry_cell_setting            triclinic
loop_
_symmetry_equiv_pos_as_xyz
'x, y, z'
_cell_length_a     45.686615
_cell_length_b     45.69808
_cell_length_c     66.104471
_cell_angle_alpha  90.0058
_cell_angle_beta   90.04161
_cell_angle_gamma 119.95633
loop_
_atom_site_label
_atom_site_type_symbol
_atom_site_fract_x
_atom_site_fract_y
_atom_site_fract_z
_atom_type_partial_charge
Cd0 Cd 0.13682 0.23194 0.09224 0.0
C1 C 0.05305 0.19663 0.10708 0.0
C2 C 0.18412 0.41021 0.0619 0.0
O3 O 0.1757 0.41807 0.04456 0.0
Cd4 Cd 0.09592 0.1951 0.14223 0.0
C5 C 0.21963 0.4231 0.0678 0.0
C6 C 0.28158 0.43699 0.08444 0.0
C7 C 0.25118 0.41758 0.09476 0.0
N8 N 0.22261 0.41202 0.08591 0.0
C9 C 0.24912 0.44354 0.05682 0.0
C10 C 0.28038 0.45053 0.06541 0.0
Co11 Co 0.18328 0.38333 0.09905 0.0
C12 C 0.24536 0.40079 0.11458 0.0
O13 O 0.27004 0.40171 0.12532 0.0
C14 C 0.20234 0.35776 0.13637 0.0
C15 C 0.199 0.32644 0.13218 0.0
C16 C 0.1875 0.30109 0.14695 0.0
C17 C 0.18344 0.30896 0.1668 0.0
C18 C 0.1885 0.34102 0.17156 0.0
C19 C 0.1976 0.36549 0.15624 0.0
C20 C 0.16965 0.26581 0.14013 0.0
C21 C 0.12463 0.37315 0.07199 0.0
C22 C 0.10864 0.34799 0.05693 0.0
C23 C 0.10548 0.38398 0.0828 0.0
C24 C 0.07083 0.36898 0.07962 0.0
C25 C 0.05483 0.34321 0.06544 0.0
C26 C 0.0734 0.33239 0.05375 0.0
N27 N 0.16048 0.38918 0.07562 0.0
N28 N 0.21226 0.38193 0.12031 0.0
N29 N 0.1788 0.34245 0.08621 0.0
C30 C 0.20081 0.3421 0.07075 0.0
C31 C 0.19125 0.33818 0.05034 0.0
C32 C 0.23322 0.34854 0.07583 0.0
C33 C 0.21453 0.34294 0.03498 0.0
H34 H 0.16594 0.33204 0.04645 0.0
C35 C 0.24757 0.35128 0.04038 0.0
C36 C 0.25711 0.35401 0.0608 0.0
C37 C 0.2045 0.33914 0.01331 0.0
H38 H 0.24024 0.35031 0.09155 0.0
H39 H 0.26581 0.35537 0.02867 0.0
C40 C 0.29228 0.36362 0.0664 0.0
O41 O 0.22734 0.34453 -0.00131 0.0
O42 O 0.1755 0.3308 0.00856 0.0
O43 O 0.3004 0.36552 0.08419 0.0
O44 O 0.31568 0.37074 0.05188 0.0
H45 H 0.22103 0.3418 0.98596 0.0
H46 H 0.33879 0.37732 0.05521 0.0
N47 N 0.14392 0.35428 0.11212 0.0
C48 C 0.13172 0.36828 0.12474 0.0
C49 C 0.09977 0.34758 0.13325 0.0
C50 C 0.08222 0.31296 0.12786 0.0
C51 C 0.09665 0.29978 0.11428 0.0
C52 C 0.12873 0.32186 0.10652 0.0
N53 N 0.18134 0.41985 0.11386 0.0
C54 C 0.15345 0.40531 0.12628 0.0
O55 O 0.14585 0.42326 0.13848 0.0
C56 C 0.14841 0.31473 0.09164 0.0
O57 O 0.1885 0.25037 0.07353 0.0
O58 O 0.14113 0.22215 0.0571 0.0
C59 C 0.20191 0.45631 0.11111 0.0
C60 C 0.23758 0.47348 0.11362 0.0
C61 C 0.25745 0.50853 0.10966 0.0
C62 C 0.24075 0.5255 0.10309 0.0
C63 C 0.20601 0.51121 0.10534 0.0
C64 C 0.18624 0.47617 0.10831 0.0
O65 O 0.07507 0.19863 0.09457 0.0
O66 O 0.06255 0.21228 0.12372 0.0
O67 O 0.16987 0.26139 0.12121 0.0
O68 O 0.14547 0.24494 0.15108 0.0
O69 O 0.13531 0.28423 0.08235 0.0
C70 C 0.11793 0.15151 0.10868 0.0
O71 O 0.10429 0.15426 0.12473 0.0
O72 O 0.13189 0.17579 0.09617 0.0
C73 C 0.17315 0.23697 0.05717 0.0
H74 H 0.30538 0.44177 0.09084 0.0
H75 H 0.24813 0.45332 0.04209 0.0
H76 H 0.30359 0.46606 0.05722 0.0
H77 H 0.20272 0.32107 0.11681 0.0
H78 H 0.17449 0.28958 0.17839 0.0
H79 H 0.20085 0.39012 0.15968 0.0
H80 H 0.12332 0.34059 0.04777 0.0
H81 H 0.11739 0.40454 0.09347 0.0
H82 H 0.02794 0.33259 0.06317 0.0
H83 H 0.08839 0.35783 0.14325 0.0
H84 H 0.0573 0.29649 0.13397 0.0
H85 H 0.08299 0.27356 0.10977 0.0
H86 H 0.24955 0.4603 0.11976 0.0
H87 H 0.255 0.55187 0.09877 0.0
H88 H 0.15904 0.46474 0.10906 0.0
Cd89 Cd 0.90661 0.13904 0.59562 0.0
C90 C 0.86159 0.05324 0.60995 0.0
C91 C 0.77319 0.18356 0.56378 0.0
O92 O 0.75677 0.1748 0.54649 0.0
Cd93 Cd 0.9047 0.099 0.64401 0.0
C94 C 0.79591 0.21918 0.56929 0.0
C95 C 0.8436 0.2817 0.58548 0.0
C96 C 0.83365 0.25146 0.59578 0.0
N97 N 0.81054 0.2226 0.58725 0.0
C98 C 0.80465 0.24837 0.55805 0.0
C99 C 0.82874 0.2799 0.56639 0.0
Co100 Co 0.80002 0.18362 0.60091 0.0
C101 C 0.84513 0.2462 0.61558 0.0
O102 O 0.86923 0.27111 0.62599 0.0
C103 C 0.84504 0.2036 0.63782 0.0
C104 C 0.87294 0.20004 0.63371 0.0
C105 C 0.88657 0.18857 0.64858 0.0
C106 C 0.87427 0.18418 0.66834 0.0
C107 C 0.8474 0.18944 0.67295 0.0
C108 C 0.83227 0.1987 0.6576 0.0
C109 C 0.90504 0.17176 0.64206 0.0
C110 C 0.75489 0.12452 0.57344 0.0
C111 C 0.7619 0.11193 0.5556 0.0
C112 C 0.73116 0.10161 0.58711 0.0
C113 C 0.71874 0.06715 0.58509 0.0
C114 C 0.72774 0.05489 0.56844 0.0
C115 C 0.74721 0.0768 0.5528 0.0
N116 N 0.771 0.1602 0.57764 0.0
N117 N 0.83074 0.2133 0.62173 0.0
N118 N 0.83623 0.17853 0.58826 0.0
C119 C 0.85879 0.1997 0.57262 0.0
C120 C 0.85454 0.18846 0.55251 0.0
C121 C 0.88468 0.23235 0.57728 0.0
C122 C 0.87473 0.21037 0.53697 0.0
H123 H 0.83524 0.16287 0.54903 0.0
C124 C 0.89916 0.24376 0.54187 0.0
C125 C 0.90436 0.25495 0.56202 0.0
C126 C 0.87018 0.19881 0.5156 0.0
H127 H 0.88919 0.24045 0.59284 0.0
H128 H 0.91444 0.26097 0.53 0.0
C129 C 0.92973 0.29043 0.56709 0.0
O130 O 0.88728 0.22105 0.50064 0.0
O131 O 0.85099 0.16918 0.51138 0.0
O132 O 0.93529 0.29964 0.58474 0.0
O133 O 0.94653 0.31291 0.55222 0.0
H134 H 0.8847 0.2141 0.48662 0.0
H135 H 0.96291 0.33621 0.55519 0.0
N136 N 0.79016 0.14491 0.61477 0.0
C137 C 0.76516 0.13391 0.62821 0.0
C138 C 0.75492 0.10289 0.63776 0.0
C139 C 0.77211 0.08526 0.63282 0.0
C140 C 0.79901 0.09881 0.61876 0.0
C141 C 0.80783 0.12988 0.60985 0.0
N142 N 0.76153 0.1818 0.61572 0.0
C143 C 0.74918 0.15509 0.62899 0.0
O144 O 0.72372 0.14787 0.64118 0.0
C145 C 0.83415 0.14879 0.59466 0.0
O146 O 0.94052 0.18864 0.57454 0.0
O147 O 0.9101 0.13981 0.56013 0.0
C148 C 0.74609 0.2028 0.61349 0.0
C149 C 0.76548 0.23804 0.61604 0.0
C150 C 0.75112 0.25862 0.61349 0.0
C151 C 0.71641 0.24386 0.61057 0.0
C152 C 0.6957 0.20878 0.61008 0.0
C153 C 0.71058 0.18812 0.61089 0.0
O154 O 0.88118 0.07726 0.59832 0.0
O155 O 0.85462 0.05975 0.62729 0.0
O156 O 0.91496 0.17601 0.62382 0.0
O157 O 0.89893 0.14548 0.65177 0.0
O158 O 0.85195 0.13555 0.58617 0.0
C159 C 0.96942 0.12206 0.60939 0.0
O160 O 0.954 0.10946 0.62585 0.0
O161 O 0.95822 0.13478 0.5966 0.0
C162 C 0.93123 0.17107 0.55847 0.0
H163 H 0.8621 0.30575 0.59184 0.0
H164 H 0.79361 0.24697 0.54334 0.0
H165 H 0.83596 0.30289 0.55805 0.0
H166 H 0.8822 0.20364 0.61838 0.0
H167 H 0.88458 0.17517 0.68 0.0
H168 H 0.81099 0.20216 0.66096 0.0
H169 H 0.77736 0.12902 0.54378 0.0
H170 H 0.72168 0.11021 0.59925 0.0
H171 H 0.71681 0.02781 0.5669 0.0
H172 H 0.73389 0.09221 0.64821 0.0
H173 H 0.76442 0.06103 0.63975 0.0
H174 H 0.8121 0.08532 0.61489 0.0
H175 H 0.79121 0.24962 0.62101 0.0
H176 H 0.70521 0.2599 0.60942 0.0
H177 H 0.69466 0.16095 0.60999 0.0
Cd178 Cd 0.77082 0.90291 0.09063 0.0
C179 C 0.80626 0.85655 0.10592 0.0
C180 C 0.59185 0.7742 0.06141 0.0
O181 O 0.58435 0.75882 0.04378 0.0
Cd182 Cd 0.80782 0.90171 0.14114 0.0
C183 C 0.57885 0.79655 0.06777 0.0
C184 C 0.56453 0.8437 0.08539 0.0
C185 C 0.58428 0.83261 0.09529 0.0
N186 N 0.58954 0.80963 0.08614 0.0
C187 C 0.55893 0.80647 0.05692 0.0
C188 C 0.55168 0.83021 0.06601 0.0
Co189 Co 0.61828 0.79857 0.0989 0.0
C190 C 0.60154 0.84334 0.11502 0.0
O191 O 0.60129 0.86735 0.12585 0.0
C192 C 0.64458 0.84266 0.13645 0.0
C193 C 0.67591 0.87008 0.13162 0.0
C194 C 0.70184 0.88405 0.14592 0.0
C195 C 0.69469 0.87367 0.16597 0.0
C196 C 0.66223 0.84862 0.17181 0.0
C197 C 0.63727 0.83189 0.15675 0.0
C198 C 0.73683 0.90108 0.13885 0.0
C199 C 0.62833 0.75079 0.07119 0.0
C200 C 0.65397 0.76032 0.05643 0.0
C201 C 0.61699 0.72041 0.08164 0.0
C202 C 0.63211 0.70085 0.07854 0.0
C203 C 0.65844 0.71104 0.06474 0.0
C204 C 0.66961 0.7407 0.05329 0.0
N205 N 0.61258 0.77083 0.07504 0.0
N206 N 0.61974 0.82829 0.1207 0.0
N207 N 0.65912 0.83545 0.08627 0.0
C208 C 0.65955 0.85798 0.07087 0.0
C209 C 0.66409 0.85286 0.05047 0.0
C210 C 0.65337 0.88411 0.07602 0.0
C211 C 0.66022 0.87205 0.03515 0.0
H212 H 0.66999 0.83355 0.04655 0.0
C213 C 0.65234 0.89704 0.04059 0.0
C214 C 0.64892 0.9033 0.06101 0.0
C215 C 0.66375 0.86568 0.01347 0.0
H216 H 0.65117 0.88901 0.09174 0.0
H217 H 0.64892 0.9117 0.02891 0.0
C218 C 0.63963 0.92907 0.06662 0.0
O219 O 0.65857 0.88331 -0.00113 0.0
O220 O 0.67149 0.84458 0.00869 0.0
O221 O 0.63778 0.9353 0.08441 0.0
O222 O 0.63273 0.94555 0.05209 0.0
H223 H 0.66056 0.87949 0.98613 0.0
H224 H 0.62633 0.96222 0.05542 0.0
N225 N 0.64744 0.78788 0.11155 0.0
C226 C 0.63352 0.76112 0.12375 0.0
C227 C 0.65443 0.75001 0.13214 0.0
C228 C 0.68916 0.7677 0.12703 0.0
C229 C 0.7022 0.79568 0.11375 0.0
C230 C 0.67991 0.80552 0.10607 0.0
N231 N 0.58177 0.75929 0.11334 0.0
C232 C 0.59643 0.7454 0.1252 0.0
O233 O 0.57854 0.71922 0.13697 0.0
C234 C 0.6869 0.83265 0.09142 0.0
O235 O 0.76467 0.94643 0.0753 0.0
O236 O 0.76557 0.90915 0.05501 0.0
C237 C 0.54523 0.74518 0.11261 0.0
C238 C 0.53067 0.76539 0.11705 0.0
C239 C 0.49561 0.7521 0.1162 0.0
C240 C 0.47459 0.71768 0.11299 0.0
C241 C 0.48771 0.69622 0.10958 0.0
C242 C 0.52316 0.71005 0.10913 0.0
O243 O 0.80488 0.87609 0.09276 0.0
O244 O 0.78996 0.8511 0.12229 0.0
O245 O 0.74102 0.90011 0.12004 0.0
O246 O 0.75978 0.90492 0.15113 0.0
O247 O 0.71709 0.84979 0.08176 0.0
C248 C 0.85226 0.96527 0.10686 0.0
O249 O 0.84912 0.95011 0.12347 0.0
O250 O 0.82829 0.95384 0.094 0.0
C251 C 0.76418 0.93604 0.0574 0.0
H252 H 0.5594 0.86218 0.09224 0.0
H253 H 0.54966 0.79668 0.04194 0.0
H254 H 0.53636 0.83837 0.05798 0.0
H255 H 0.68085 0.87891 0.1162 0.0
H256 H 0.71491 0.88417 0.17704 0.0
H257 H 0.61225 0.8118 0.16077 0.0
H258 H 0.66174 0.78266 0.04748 0.0
H259 H 0.59597 0.71142 0.09198 0.0
H260 H 0.66914 0.69482 0.06252 0.0
H261 H 0.6443 0.72809 0.14189 0.0
H262 H 0.70582 0.75943 0.13311 0.0
H263 H 0.72851 0.8087 0.10943 0.0
H264 H 0.54591 0.7909 0.12206 0.0
H265 H 0.44744 0.70753 0.11287 0.0
H266 H 0.53348 0.69372 0.10604 0.0
Cd267 Cd 0.86633 0.76709 0.59339 0.0
C268 C 0.95065 0.8045 0.60831 0.0
C269 C 0.81809 0.58828 0.56429 0.0
O270 O 0.82664 0.58052 0.54696 0.0
Cd271 Cd 0.90774 0.80678 0.6433 0.0
C272 C 0.78254 0.57563 0.56996 0.0
C273 C 0.72029 0.56075 0.58664 0.0
C274 C 0.75082 0.58213 0.59641 0.0
N275 N 0.7795 0.58775 0.58768 0.0
C276 C 0.75304 0.5541 0.55925 0.0
C277 C 0.72165 0.54657 0.56787 0.0
Co278 Co 0.81877 0.61643 0.60099 0.0
C279 C 0.75658 0.5996 0.61601 0.0
O280 O 0.73186 0.59896 0.62654 0.0
C281 C 0.79967 0.64306 0.63765 0.0
C282 C 0.80369 0.67455 0.63311 0.0
C283 C 0.81545 0.70014 0.64769 0.0
C284 C 0.8195 0.69263 0.66762 0.0
C285 C 0.81434 0.66063 0.67269 0.0
C286 C 0.80457 0.6357 0.65758 0.0
C287 C 0.8333 0.73527 0.64076 0.0
C288 C 0.87736 0.62836 0.57385 0.0
C289 C 0.89043 0.65139 0.55759 0.0
C290 C 0.89969 0.6239 0.5862 0.0
C291 C 0.93445 0.64442 0.58391 0.0
C292 C 0.94737 0.66894 0.56884 0.0
C293 C 0.92562 0.6722 0.55515 0.0
N294 N 0.84165 0.60963 0.57798 0.0
N295 N 0.78965 0.61857 0.62179 0.0
N296 N 0.82398 0.65731 0.58765 0.0
C297 C 0.80215 0.65805 0.57215 0.0
C298 C 0.81258 0.66435 0.5519 0.0
C299 C 0.76942 0.65079 0.57707 0.0
C300 C 0.78959 0.66024 0.53644 0.0
H301 H 0.8384 0.67211 0.54822 0.0
C302 C 0.75599 0.65005 0.5416 0.0
C303 C 0.74582 0.64582 0.56193 0.0
C304 C 0.80043 0.66657 0.51492 0.0
H305 H 0.76206 0.64839 0.59272 0.0
H306 H 0.73796 0.64632 0.52982 0.0
C307 C 0.71046 0.63566 0.56736 0.0
O308 O 0.77766 0.66079 0.50016 0.0
O309 O 0.83 0.67718 0.51042 0.0
O310 O 0.70186 0.63259 0.5851 0.0
O311 O 0.68744 0.62946 0.55271 0.0
H312 H 0.78417 0.66483 0.48606 0.0
H313 H 0.66423 0.62264 0.55592 0.0
N314 N 0.85802 0.64551 0.61429 0.0
C315 C 0.86985 0.63163 0.62729 0.0
C316 C 0.90185 0.65223 0.63579 0.0
C317 C 0.91982 0.68668 0.6301 0.0
C318 C 0.90575 0.69981 0.61622 0.0
C319 C 0.87364 0.67779 0.60842 0.0
N320 N 0.82037 0.58009 0.6163 0.0
C321 C 0.84809 0.59465 0.62885 0.0
O322 O 0.85563 0.5767 0.6411 0.0
C323 C 0.85447 0.68484 0.59315 0.0
O324 O 0.81585 0.74666 0.57263 0.0
O325 O 0.86459 0.78002 0.55885 0.0
C326 C 0.7992 0.54361 0.61429 0.0
C327 C 0.76376 0.52768 0.61644 0.0
C328 C 0.7432 0.49292 0.61293 0.0
C329 C 0.75822 0.47313 0.6102 0.0
C330 C 0.79328 0.48744 0.61069 0.0
C331 C 0.8139 0.52282 0.61183 0.0
O332 O 0.92781 0.80074 0.59591 0.0
O333 O 0.94229 0.79045 0.62544 0.0
O334 O 0.83046 0.74014 0.62214 0.0
O335 O 0.8591 0.75553 0.65088 0.0
O336 O 0.86807 0.71519 0.58375 0.0
C337 C 0.88293 0.84732 0.60927 0.0
O338 O 0.89677 0.84582 0.62557 0.0
O339 O 0.87008 0.82279 0.59687 0.0
C340 C 0.83267 0.76343 0.55738 0.0
H341 H 0.69635 0.55507 0.59323 0.0
H342 H 0.75408 0.54352 0.5448 0.0
H343 H 0.69842 0.52987 0.55998 0.0
H344 H 0.80025 0.67981 0.61764 0.0
H345 H 0.82859 0.71236 0.67901 0.0
H346 H 0.80122 0.61108 0.66119 0.0
H347 H 0.87349 0.65283 0.5468 0.0
H348 H 0.89032 0.60443 0.59761 0.0
H349 H 0.97453 0.68391 0.56715 0.0
H350 H 0.91302 0.64197 0.64597 0.0
H351 H 0.94481 0.70304 0.63618 0.0
H352 H 0.9197 0.72594 0.61153 0.0
H353 H 0.75196 0.54159 0.62142 0.0
H354 H 0.74233 0.44598 0.60851 0.0
H355 H 0.84109 0.53395 0.61132 0.0
Cd356 Cd 0.09818 0.86546 0.09235 0.0
C357 C 0.14445 0.94811 0.10747 0.0
C358 C 0.22806 0.81681 0.06268 0.0
O359 O 0.24353 0.8253 0.04509 0.0
Cd360 Cd 0.10009 0.90141 0.14202 0.0
C361 C 0.20508 0.78135 0.0683 0.0
C362 C 0.15628 0.71946 0.08449 0.0
C363 C 0.16837 0.74964 0.09527 0.0
N364 N 0.19167 0.7782 0.08662 0.0
C365 C 0.19441 0.75218 0.05665 0.0
C366 C 0.16968 0.72097 0.06496 0.0
Co367 Co 0.20268 0.81739 0.10011 0.0
C368 C 0.15787 0.75527 0.11531 0.0
O369 O 0.13362 0.73059 0.12576 0.0
C370 C 0.15765 0.7981 0.13717 0.0
C371 C 0.12873 0.79967 0.13266 0.0
C372 C 0.11418 0.81094 0.147 0.0
C373 C 0.12525 0.81503 0.16696 0.0
C374 C 0.15432 0.81363 0.17209 0.0
C375 C 0.17082 0.80523 0.15699 0.0
C376 C 0.09796 0.82977 0.13987 0.0
C377 C 0.24697 0.8759 0.07212 0.0
C378 C 0.23733 0.88747 0.05496 0.0
C379 C 0.27274 0.8995 0.0846 0.0
C380 C 0.28588 0.93398 0.08156 0.0
C381 C 0.2744 0.94533 0.06555 0.0
C382 C 0.25085 0.92226 0.05173 0.0
N383 N 0.23121 0.84038 0.07666 0.0
N384 N 0.17253 0.78827 0.12139 0.0
N385 N 0.16617 0.82246 0.08762 0.0
C386 C 0.14328 0.80123 0.07202 0.0
C387 C 0.14651 0.81279 0.05203 0.0
C388 C 0.1178 0.76835 0.0766 0.0
C389 C 0.12643 0.79088 0.03645 0.0
H390 H 0.16487 0.83867 0.04864 0.0
C391 C 0.10243 0.75732 0.04125 0.0
C392 C 0.0978 0.7459 0.06134 0.0
C393 C 0.13079 0.80258 0.01512 0.0
H394 H 0.11376 0.75991 0.09207 0.0
H395 H 0.08708 0.74015 0.02937 0.0
C396 C 0.07271 0.71032 0.06634 0.0
O397 O 0.1141 0.78033 8e-05 0.0
O398 O 0.14956 0.83234 0.011 0.0
O399 O 0.06729 0.70101 0.08397 0.0
O400 O 0.05597 0.68786 0.05143 0.0
H401 H 0.11635 0.78721 0.98754 0.0
H402 H 0.03976 0.66449 0.05436 0.0
N403 N 0.21315 0.85646 0.11367 0.0
C404 C 0.23914 0.86806 0.12645 0.0
C405 C 0.25046 0.89977 0.13535 0.0
C406 C 0.23352 0.91761 0.13032 0.0
C407 C 0.20589 0.90367 0.11674 0.0
C408 C 0.19585 0.87183 0.10854 0.0
N409 N 0.24148 0.8191 0.11447 0.0
C410 C 0.25479 0.84654 0.12726 0.0
O411 O 0.28068 0.85402 0.13914 0.0
C412 C 0.16906 0.85276 0.09354 0.0
O413 O 0.05844 0.81619 0.07369 0.0
O414 O 0.09627 0.85928 0.05666 0.0
C415 C 0.25703 0.79817 0.11176 0.0
C416 C 0.23798 0.76272 0.11425 0.0
C417 C 0.25304 0.74251 0.11215 0.0
C418 C 0.28773 0.75801 0.10869 0.0
C419 C 0.30794 0.79308 0.10828 0.0
C420 C 0.29259 0.81325 0.10917 0.0
O421 O 0.12449 0.9266 0.0947 0.0
O422 O 0.15059 0.93806 0.12396 0.0
O423 O 0.0993 0.83523 0.12105 0.0
O424 O 0.09521 0.84953 0.15215 0.0
O425 O 0.15238 0.86668 0.08428 0.0
C426 C 0.0364 0.88422 0.10874 0.0
O427 O 0.05181 0.89584 0.12532 0.0
O428 O 0.04734 0.8716 0.09565 0.0
C429 C 0.071 0.82953 0.05668 0.0
H430 H 0.13712 0.69567 0.09078 0.0
H431 H 0.20423 0.75343 0.04159 0.0
H432 H 0.16074 0.69802 0.05625 0.0
H433 H 0.11954 0.79528 0.1173 0.0
H434 H 0.11267 0.82205 0.17826 0.0
H435 H 0.19349 0.8043 0.16052 0.0
H436 H 0.22008 0.86971 0.044 0.0
H437 H 0.2832 0.8914 0.0965 0.0
H438 H 0.28566 0.97229 0.06318 0.0
H439 H 0.27216 0.91084 0.14531 0.0
H440 H 0.24209 0.9424 0.1367 0.0
H441 H 0.19333 0.91752 0.11257 0.0
H442 H 0.21231 0.75089 0.11937 0.0
H443 H 0.29961 0.74256 0.10774 0.0
H444 H 0.3083 0.84047 0.10857 0.0
Cd445 Cd 0.23345 0.09661 0.5937 0.0
C446 C 0.19322 0.13593 0.61184 0.0
C447 C 0.41167 0.22718 0.56245 0.0
O448 O 0.42033 0.24302 0.54499 0.0
Cd449 Cd 0.19449 0.08433 0.64576 0.0
C450 C 0.42364 0.20409 0.56904 0.0
C451 C 0.43739 0.15712 0.58755 0.0
C452 C 0.41635 0.16741 0.5966 0.0
N453 N 0.4113 0.1902 0.58702 0.0
C454 C 0.44491 0.19499 0.55904 0.0
C455 C 0.45182 0.17131 0.56856 0.0
Co456 Co 0.38326 0.20247 0.59945 0.0
C457 C 0.39862 0.15719 0.61623 0.0
O458 O 0.39863 0.13353 0.62754 0.0
C459 C 0.35556 0.15948 0.63708 0.0
C460 C 0.32316 0.13266 0.63291 0.0
C461 C 0.2991 0.11845 0.64828 0.0
C462 C 0.30784 0.13046 0.66794 0.0
C463 C 0.34067 0.15549 0.67277 0.0
C464 C 0.36459 0.1709 0.65717 0.0
C465 C 0.2637 0.09482 0.64363 0.0
C466 C 0.3746 0.25034 0.57141 0.0
C467 C 0.34975 0.2406 0.55614 0.0
C468 C 0.38422 0.27995 0.58237 0.0
C469 C 0.36803 0.29852 0.57923 0.0
C470 C 0.34236 0.28804 0.56491 0.0
C471 C 0.333 0.25916 0.553 0.0
N472 N 0.39058 0.2307 0.5757 0.0
N473 N 0.38008 0.1722 0.62114 0.0
N474 N 0.34205 0.16645 0.58663 0.0
C475 C 0.34049 0.14283 0.57162 0.0
C476 C 0.33334 0.14579 0.55133 0.0
C477 C 0.34727 0.11721 0.57705 0.0
C478 C 0.33554 0.12513 0.5363 0.0
H479 H 0.32652 0.16444 0.54726 0.0
C480 C 0.34488 0.10125 0.5419 0.0
C481 C 0.35077 0.09708 0.56227 0.0
C482 C 0.32883 0.12881 0.51472 0.0
H483 H 0.35036 0.11328 0.59281 0.0
H484 H 0.34728 0.08567 0.53042 0.0
C485 C 0.36158 0.07248 0.56803 0.0
O486 O 0.33492 0.11173 0.50018 0.0
O487 O 0.31776 0.14729 0.50995 0.0
O488 O 0.36539 0.06791 0.58583 0.0
O489 O 0.36783 0.05538 0.5536 0.0
H490 H 0.33075 0.11376 0.48604 0.0
H491 H 0.37527 0.03953 0.55701 0.0
N492 N 0.35486 0.21437 0.61188 0.0
C493 C 0.36907 0.2403 0.62468 0.0
C494 C 0.34849 0.2513 0.63367 0.0
C495 C 0.31367 0.23403 0.62874 0.0
C496 C 0.30014 0.20639 0.61517 0.0
C497 C 0.32223 0.19686 0.6068 0.0
N498 N 0.42024 0.24095 0.61425 0.0
C499 C 0.40599 0.25495 0.62638 0.0
O500 O 0.42414 0.28037 0.63863 0.0
C501 C 0.31467 0.16953 0.59227 0.0
O502 O 0.24737 0.05895 0.57575 0.0
O503 O 0.23651 0.09326 0.55862 0.0
C504 C 0.45679 0.25552 0.61276 0.0
C505 C 0.47215 0.23567 0.61602 0.0
C506 C 0.50723 0.24953 0.61403 0.0
C507 C 0.52762 0.28418 0.61113 0.0
C508 C 0.51372 0.30527 0.60985 0.0
C509 C 0.47825 0.29089 0.61 0.0
O510 O 0.19828 0.12115 0.59713 0.0
O511 O 0.20523 0.13637 0.62932 0.0
O512 O 0.25289 0.09531 0.62619 0.0
O513 O 0.24249 0.08179 0.6578 0.0
O514 O 0.28371 0.15128 0.58378 0.0
C515 C 0.15184 0.03102 0.60685 0.0
O516 O 0.15503 0.04013 0.62521 0.0
O517 O 0.17542 0.04659 0.594 0.0
C518 C 0.24397 0.06994 0.55869 0.0
H519 H 0.44263 0.13902 0.59483 0.0
H520 H 0.45574 0.20563 0.54445 0.0
H521 H 0.46831 0.16392 0.56122 0.0
H522 H 0.31663 0.12287 0.61769 0.0
H523 H 0.28893 0.12016 0.6798 0.0
H524 H 0.39021 0.19034 0.66065 0.0
H525 H 0.34341 0.21883 0.54687 0.0
H526 H 0.40455 0.28901 0.59323 0.0
H527 H 0.3307 0.3034 0.56267 0.0
H528 H 0.3589 0.27266 0.64389 0.0
H529 H 0.29723 0.24213 0.63537 0.0
H530 H 0.27354 0.19318 0.61136 0.0
H531 H 0.45758 0.21005 0.62103 0.0
H532 H 0.55484 0.29501 0.6103 0.0
H533 H 0.46748 0.30716 0.60829 0.0
Cd534 Cd 0.768 0.86184 0.39668 0.0
C535 C 0.81235 0.94854 0.3823 0.0
C536 C 0.59149 0.81791 0.42997 0.0
O537 O 0.58434 0.82673 0.44741 0.0
Cd538 Cd 0.80757 0.90289 0.34746 0.0
C539 C 0.57895 0.78233 0.42451 0.0
C540 C 0.56567 0.72018 0.40852 0.0
C541 C 0.58416 0.75028 0.39777 0.0
N542 N 0.58954 0.77899 0.40633 0.0
C543 C 0.55972 0.75318 0.43603 0.0
C544 C 0.55313 0.72183 0.42781 0.0
Co545 Co 0.61774 0.81806 0.39274 0.0
C546 C 0.60045 0.75571 0.37783 0.0
O547 O 0.60008 0.73098 0.36744 0.0
C548 C 0.64254 0.79853 0.35556 0.0
C549 C 0.67403 0.80214 0.35955 0.0
C550 C 0.69879 0.81338 0.34458 0.0
C551 C 0.69072 0.81778 0.3249 0.0
C552 C 0.65881 0.81329 0.32041 0.0
C553 C 0.63449 0.80373 0.33585 0.0
C554 C 0.73406 0.83014 0.35085 0.0
C555 C 0.63067 0.87694 0.41982 0.0
C556 C 0.65392 0.89012 0.43595 0.0
C557 C 0.62578 0.8991 0.40757 0.0
C558 C 0.64612 0.93388 0.40986 0.0
C559 C 0.67081 0.94694 0.42486 0.0
C560 C 0.6744 0.92526 0.43842 0.0
N561 N 0.61194 0.84122 0.41592 0.0
N562 N 0.61879 0.78866 0.37177 0.0
N563 N 0.65922 0.8233 0.40534 0.0
C564 C 0.66108 0.80191 0.42074 0.0
C565 C 0.66891 0.81296 0.44086 0.0
C566 C 0.65415 0.76929 0.41584 0.0
C567 C 0.66705 0.79072 0.45624 0.0
H568 H 0.67603 0.83865 0.44452 0.0
C569 C 0.65771 0.75732 0.45112 0.0
C570 C 0.65137 0.74644 0.43092 0.0
C571 C 0.67412 0.80189 0.47769 0.0
H572 H 0.65031 0.7614 0.40025 0.0
H573 H 0.65572 0.73986 0.46284 0.0
C574 C 0.64093 0.71097 0.42561 0.0
O575 O 0.66817 0.77922 0.49253 0.0
O576 O 0.68524 0.83158 0.48209 0.0
O577 O 0.63729 0.70207 0.4079 0.0
O578 O 0.63489 0.68813 0.44033 0.0
H579 H 0.67248 0.7859 0.5066 0.0
H580 H 0.62772 0.66482 0.43719 0.0
N581 N 0.64631 0.85709 0.37909 0.0
C582 C 0.63196 0.86871 0.3663 0.0
C583 C 0.65232 0.90046 0.35747 0.0
C584 C 0.6871 0.9183 0.36251 0.0
C585 C 0.70081 0.90424 0.37598 0.0
C586 C 0.67894 0.87242 0.38417 0.0
N587 N 0.58094 0.81958 0.37814 0.0
C588 C 0.59491 0.84695 0.36532 0.0
O589 O 0.57638 0.85426 0.35342 0.0
C590 C 0.68663 0.85321 0.39901 0.0
O591 O 0.75546 0.81355 0.41813 0.0
O592 O 0.77014 0.86172 0.4324 0.0
C593 C 0.54471 0.79906 0.38126 0.0
C594 C 0.52784 0.76362 0.37851 0.0
C595 C 0.49267 0.74386 0.38127 0.0
C596 C 0.47442 0.75989 0.38626 0.0
C597 C 0.48965 0.79496 0.38655 0.0
C598 C 0.52497 0.81467 0.38465 0.0
O599 O 0.80454 0.92254 0.39296 0.0
O600 O 0.80181 0.94559 0.36431 0.0
O601 O 0.74035 0.82453 0.36866 0.0
O602 O 0.75377 0.85718 0.34163 0.0
O603 O 0.71786 0.86616 0.40711 0.0
C604 C 0.84747 0.87796 0.38178 0.0
O605 O 0.8457 0.88992 0.3648 0.0
O606 O 0.82361 0.86708 0.39456 0.0
C607 C 0.76165 0.83086 0.43423 0.0
H608 H 0.56101 0.69631 0.40232 0.0
H609 H 0.55062 0.75452 0.45091 0.0
H610 H 0.53856 0.6989 0.43643 0.0
H611 H 0.67999 0.7987 0.37486 0.0
H612 H 0.71001 0.82663 0.31325 0.0
H613 H 0.60988 0.80077 0.33268 0.0
H614 H 0.65572 0.87326 0.44665 0.0
H615 H 0.60606 0.88959 0.39631 0.0
H616 H 0.68561 0.97409 0.42663 0.0
H617 H 0.64169 0.91154 0.34751 0.0
H618 H 0.70331 0.94308 0.35615 0.0
H619 H 0.72732 0.91794 0.38001 0.0
H620 H 0.54126 0.75162 0.37278 0.0
H621 H 0.44721 0.7449 0.38813 0.0
H622 H 0.53686 0.84194 0.38521 0.0
Cd623 Cd 0.89874 0.76667 0.90332 0.0
C624 C 0.86366 0.80878 0.88865 0.0
C625 C 0.77326 0.58899 0.93155 0.0
O626 O 0.75793 0.58098 0.94918 0.0
Cd627 Cd 0.90793 0.81323 0.84923 0.0
C628 C 0.79712 0.57774 0.9253 0.0
C629 C 0.84655 0.56657 0.90785 0.0
C630 C 0.83464 0.58572 0.89807 0.0
N631 N 0.81073 0.58957 0.90719 0.0
C632 C 0.80792 0.55845 0.93604 0.0
C633 C 0.83286 0.55286 0.92706 0.0
Co634 Co 0.79843 0.61742 0.89464 0.0
C635 C 0.8452 0.60362 0.87847 0.0
O636 O 0.86958 0.60435 0.86753 0.0
C637 C 0.84235 0.64629 0.8572 0.0
C638 C 0.86623 0.67993 0.86159 0.0
C639 C 0.87852 0.70446 0.84632 0.0
C640 C 0.86878 0.6947 0.82639 0.0
C641 C 0.84688 0.6609 0.82133 0.0
C642 C 0.83268 0.63662 0.83691 0.0
C643 C 0.89722 0.74059 0.85129 0.0
C644 C 0.7504 0.6264 0.92239 0.0
C645 C 0.75955 0.64966 0.93858 0.0
C646 C 0.72294 0.62036 0.91017 0.0
C647 C 0.70679 0.63912 0.91269 0.0
C648 C 0.71728 0.66363 0.92775 0.0
C649 C 0.74337 0.66889 0.94117 0.0
N650 N 0.76907 0.60931 0.91801 0.0
N651 N 0.82992 0.62182 0.87331 0.0
N652 N 0.83335 0.65826 0.90811 0.0
C653 C 0.85674 0.65945 0.92316 0.0
C654 C 0.85174 0.66318 0.94369 0.0
C655 C 0.88347 0.65451 0.91752 0.0
C656 C 0.87132 0.65912 0.95868 0.0
H657 H 0.83234 0.66877 0.94796 0.0
C658 C 0.89639 0.65162 0.95275 0.0
C659 C 0.90269 0.64931 0.93219 0.0
C660 C 0.86554 0.66241 0.98048 0.0
H661 H 0.88864 0.65376 0.90166 0.0
H662 H 0.91119 0.64781 0.96417 0.0
C663 C 0.92837 0.64017 0.92606 0.0
O664 O 0.88364 0.6572 0.99476 0.0
O665 O 0.84463 0.67019 0.98567 0.0
O666 O 0.93428 0.63876 0.90816 0.0
O667 O 0.94499 0.63274 0.94024 0.0
H668 H 0.88073 0.65961 0.00757 0.0
H669 H 0.96153 0.62635 0.93657 0.0
N670 N 0.78658 0.64567 0.88207 0.0
C671 C 0.76156 0.63153 0.86864 0.0
C672 C 0.75037 0.65194 0.85962 0.0
C673 C 0.76648 0.68647 0.86522 0.0
C674 C 0.79307 0.69985 0.87956 0.0
C675 C 0.80284 0.67795 0.88793 0.0
N676 N 0.76099 0.58046 0.87934 0.0
C677 C 0.74741 0.59464 0.86678 0.0
O678 O 0.72237 0.57639 0.85432 0.0
C679 C 0.82924 0.68523 0.90316 0.0
O680 O 0.94219 0.7567 0.91607 0.0
O681 O 0.91058 0.76366 0.9381 0.0
C682 C 0.74622 0.54393 0.88139 0.0
C683 C 0.76603 0.52827 0.87888 0.0
C684 C 0.75167 0.49303 0.88068 0.0
C685 C 0.71687 0.47301 0.88329 0.0
C686 C 0.69606 0.48726 0.88405 0.0
C687 C 0.71073 0.52273 0.88375 0.0
O688 O 0.87539 0.80292 0.90456 0.0
O689 O 0.86119 0.79222 0.87271 0.0
O690 O 0.89776 0.74968 0.86938 0.0
O691 O 0.9064 0.76259 0.83739 0.0
O692 O 0.84569 0.71527 0.91281 0.0
C693 C 0.96766 0.84676 0.88691 0.0
O694 O 0.95766 0.84713 0.86903 0.0
O695 O 0.95068 0.82266 0.8992 0.0
C696 C 0.9355 0.75942 0.9344 0.0
H697 H 0.86582 0.56256 0.90108 0.0
H698 H 0.79785 0.5484 0.95085 0.0
H699 H 0.84171 0.53806 0.93503 0.0
H700 H 0.87489 0.68713 0.87696 0.0
H701 H 0.87788 0.71371 0.81458 0.0
H702 H 0.81523 0.61041 0.8333 0.0
H703 H 0.77905 0.65287 0.94902 0.0
H704 H 0.71379 0.60099 0.89869 0.0
H705 H 0.70382 0.67738 0.92944 0.0
H706 H 0.72963 0.64159 0.84895 0.0
H707 H 0.7582 0.70276 0.85859 0.0
H708 H 0.80528 0.72617 0.88394 0.0
H709 H 0.79191 0.54273 0.87423 0.0
H710 H 0.70561 0.44573 0.88385 0.0
H711 H 0.69454 0.5337 0.88471 0.0
Cd712 Cd 0.13904 0.90483 0.3998 0.0
C713 C 0.05527 0.86182 0.38506 0.0
C714 C 0.18486 0.77189 0.42942 0.0
O715 O 0.17631 0.75554 0.44672 0.0
Cd716 Cd 0.10241 0.90587 0.3505 0.0
C717 C 0.22044 0.79457 0.42377 0.0
C718 C 0.28274 0.84271 0.40759 0.0
C719 C 0.25241 0.83242 0.39728 0.0
N720 N 0.2237 0.80904 0.40578 0.0
C721 C 0.24973 0.80366 0.43502 0.0
C722 C 0.28115 0.82795 0.42667 0.0
Co723 Co 0.18463 0.7987 0.39232 0.0
C724 C 0.24691 0.84393 0.37753 0.0
O725 O 0.27172 0.86826 0.36721 0.0
C726 C 0.20418 0.84412 0.35548 0.0
C727 C 0.20315 0.87328 0.35989 0.0
C728 C 0.1919 0.88791 0.34559 0.0
C729 C 0.18689 0.87628 0.32571 0.0
C730 C 0.1877 0.84684 0.32066 0.0
C731 C 0.19627 0.83049 0.33581 0.0
C732 C 0.17394 0.90489 0.3529 0.0
C733 C 0.12557 0.75343 0.41996 0.0
C734 C 0.11286 0.75999 0.43795 0.0
C735 C 0.10264 0.73001 0.40615 0.0
C736 C 0.0682 0.71786 0.40805 0.0
C737 C 0.0559 0.72671 0.42474 0.0
C738 C 0.07766 0.74558 0.4406 0.0
N739 N 0.16132 0.7697 0.41568 0.0
N740 N 0.21398 0.82928 0.3713 0.0
N741 N 0.18005 0.83502 0.4052 0.0
C742 C 0.20134 0.85681 0.4211 0.0
C743 C 0.1908 0.85067 0.44134 0.0
C744 C 0.23377 0.88322 0.41658 0.0
C745 C 0.21315 0.86952 0.45707 0.0
H746 H 0.16544 0.8309 0.44474 0.0
C747 C 0.24612 0.895 0.4522 0.0
C748 C 0.25664 0.90204 0.43196 0.0
C749 C 0.20243 0.86259 0.47859 0.0
H750 H 0.24167 0.88864 0.40103 0.0
H751 H 0.26362 0.90945 0.46418 0.0
C752 C 0.29177 0.92833 0.42688 0.0
O753 O 0.22449 0.88028 0.49352 0.0
O754 O 0.17356 0.84107 0.48295 0.0
O755 O 0.30046 0.93515 0.40921 0.0
O756 O 0.31451 0.94463 0.44174 0.0
H757 H 0.218 0.87636 0.50763 0.0
H758 H 0.33758 0.96163 0.43874 0.0
N759 N 0.14584 0.7891 0.37873 0.0
C760 C 0.13464 0.76415 0.36522 0.0
C761 C 0.10354 0.75409 0.35579 0.0
C762 C 0.08606 0.77135 0.36097 0.0
C763 C 0.0998 0.79814 0.37514 0.0
C764 C 0.13096 0.80684 0.38391 0.0
N765 N 0.18265 0.76027 0.37739 0.0
C766 C 0.15576 0.74804 0.36423 0.0
O767 O 0.14838 0.72266 0.35192 0.0
C768 C 0.15016 0.83305 0.39924 0.0
O769 O 0.18705 0.94798 0.41651 0.0
O770 O 0.14895 0.90871 0.43577 0.0
C771 C 0.20395 0.74504 0.37935 0.0
C772 C 0.23927 0.76462 0.37682 0.0
C773 C 0.26006 0.75041 0.37928 0.0
C774 C 0.24539 0.71567 0.38204 0.0
C775 C 0.21031 0.69486 0.3825 0.0
C776 C 0.1895 0.70958 0.38184 0.0
O777 O 0.0784 0.88055 0.39741 0.0
O778 O 0.06283 0.85591 0.3677 0.0
O779 O 0.17254 0.90716 0.37191 0.0
O780 O 0.15104 0.90387 0.34162 0.0
O781 O 0.13686 0.85028 0.40851 0.0
C782 C 0.12263 0.96886 0.38458 0.0
O783 O 0.11222 0.956 0.36724 0.0
O784 O 0.13259 0.9552 0.39753 0.0
C785 C 0.17677 0.93626 0.4341 0.0
H786 H 0.30669 0.86145 0.40126 0.0
H787 H 0.24848 0.7928 0.44976 0.0
H788 H 0.3042 0.83547 0.43503 0.0
H789 H 0.20795 0.88256 0.37522 0.0
H790 H 0.17997 0.88904 0.3145 0.0
H791 H 0.19678 0.80756 0.33243 0.0
H792 H 0.12982 0.77484 0.44999 0.0
H793 H 0.1112 0.7206 0.39397 0.0
H794 H 0.02883 0.71606 0.42612 0.0
H795 H 0.09268 0.73315 0.34527 0.0
H796 H 0.06177 0.76379 0.35413 0.0
H797 H 0.0864 0.81124 0.37919 0.0
H798 H 0.25075 0.79035 0.37193 0.0
H799 H 0.26149 0.70454 0.38313 0.0
H800 H 0.16233 0.69354 0.38275 0.0
Cd801 Cd 0.23493 0.1414 0.89624 0.0
C802 C 0.18724 0.05449 0.87991 0.0
C803 C 0.41274 0.18348 0.93035 0.0
O804 O 0.42068 0.17508 0.94767 0.0
Cd805 Cd 0.19138 0.10373 0.84658 0.0
C806 C 0.4253 0.21897 0.92466 0.0
C807 C 0.43944 0.28108 0.90814 0.0
C808 C 0.4191 0.25061 0.89807 0.0
N809 N 0.41359 0.22197 0.90679 0.0
C810 C 0.44591 0.24843 0.93566 0.0
C811 C 0.45296 0.27974 0.92716 0.0
Co812 Co 0.38516 0.18266 0.8934 0.0
C813 C 0.40181 0.24482 0.87843 0.0
O814 O 0.40207 0.26939 0.86793 0.0
C815 C 0.35972 0.20153 0.85634 0.0
C816 C 0.32807 0.19773 0.86016 0.0
C817 C 0.30361 0.18672 0.84496 0.0
C818 C 0.31189 0.18198 0.82538 0.0
C819 C 0.34416 0.18736 0.82114 0.0
C820 C 0.36819 0.19681 0.83669 0.0
C821 C 0.26827 0.1725 0.85071 0.0
C822 C 0.37165 0.12433 0.92122 0.0
C823 C 0.35147 0.11264 0.93881 0.0
C824 C 0.37261 0.10075 0.90814 0.0
C825 C 0.35052 0.06635 0.9107 0.0
C826 C 0.32861 0.05495 0.92711 0.0
C827 C 0.33014 0.07777 0.94184 0.0
N828 N 0.39137 0.15983 0.91668 0.0
N829 N 0.38354 0.21179 0.87251 0.0
N830 N 0.34379 0.17753 0.90604 0.0
C831 C 0.34211 0.19884 0.92151 0.0
C832 C 0.33466 0.18775 0.94163 0.0
C833 C 0.3487 0.23135 0.91664 0.0
C834 C 0.33617 0.20982 0.95703 0.0
H835 H 0.32812 0.16216 0.94523 0.0
C836 C 0.34509 0.24313 0.95195 0.0
C837 C 0.35133 0.25409 0.93176 0.0
C838 C 0.32911 0.19856 0.97845 0.0
H839 H 0.35231 0.2392 0.90105 0.0
H840 H 0.34685 0.26047 0.9637 0.0
C841 C 0.36152 0.28951 0.9265 0.0
O842 O 0.3346 0.22108 0.99331 0.0
O843 O 0.31834 0.16891 0.9828 0.0
O844 O 0.3651 0.29844 0.90881 0.0
O845 O 0.36741 0.31227 0.94125 0.0
H846 H 0.33049 0.21448 0.00591 0.0
H847 H 0.37443 0.33556 0.93815 0.0
N848 N 0.35641 0.14356 0.87982 0.0
C849 C 0.37052 0.13214 0.86671 0.0
C850 C 0.34983 0.1009 0.85737 0.0
C851 C 0.31496 0.08345 0.86216 0.0
C852 C 0.30147 0.09743 0.87583 0.0
C853 C 0.32367 0.12871 0.88456 0.0
N854 N 0.42183 0.1809 0.87861 0.0
C855 C 0.40765 0.15351 0.86584 0.0
O856 O 0.42603 0.14607 0.85391 0.0
C857 C 0.31613 0.14805 0.89939 0.0
O858 O 0.24737 0.18977 0.91751 0.0
O859 O 0.23488 0.1425 0.93223 0.0
C860 C 0.45819 0.20292 0.88016 0.0
C861 C 0.47301 0.23765 0.87581 0.0
C862 C 0.50798 0.25917 0.87735 0.0
C863 C 0.52867 0.24561 0.88142 0.0
C864 C 0.51526 0.21097 0.88482 0.0
C865 C 0.47979 0.18952 0.88431 0.0
O866 O 0.19754 0.08005 0.89149 0.0
O867 O 0.19406 0.05803 0.86119 0.0
O868 O 0.26194 0.17918 0.86822 0.0
O869 O 0.24725 0.14621 0.84133 0.0
O870 O 0.28462 0.13585 0.90696 0.0
C871 C 0.15374 0.12433 0.88485 0.0
O872 O 0.1537 0.11258 0.86746 0.0
O873 O 0.17934 0.13629 0.89637 0.0
C874 C 0.24259 0.17321 0.93379 0.0
H875 H 0.44468 0.30496 0.90166 0.0
H876 H 0.45596 0.24738 0.9503 0.0
H877 H 0.46881 0.30292 0.93532 0.0
H878 H 0.32198 0.20144 0.87537 0.0
H879 H 0.29298 0.17331 0.8135 0.0
H880 H 0.39313 0.20062 0.83358 0.0
H881 H 0.35302 0.13029 0.95023 0.0
H882 H 0.3908 0.10878 0.89607 0.0
H883 H 0.31248 0.02799 0.92919 0.0
H884 H 0.36024 0.08994 0.84715 0.0
H885 H 0.29848 0.05908 0.85537 0.0
H886 H 0.27484 0.08413 0.87954 0.0
H887 H 0.45793 0.24804 0.87051 0.0
H888 H 0.55581 0.26252 0.88196 0.0
H889 H 0.46905 0.16276 0.88716 0.0
Cd890 Cd 0.10062 0.23672 0.39953 0.0
C891 C 0.13573 0.19155 0.38194 0.0
C892 C 0.22921 0.4115 0.43067 0.0
O893 O 0.24495 0.42012 0.44819 0.0
Cd894 Cd 0.08496 0.19197 0.34685 0.0
C895 C 0.20559 0.42289 0.4242 0.0
C896 C 0.15735 0.43517 0.40603 0.0
C897 C 0.16817 0.41466 0.39685 0.0
N898 N 0.19163 0.41041 0.40625 0.0
C899 C 0.19591 0.4436 0.43435 0.0
C900 C 0.1716 0.44978 0.425 0.0
Co901 Co 0.2043 0.38272 0.39376 0.0
C902 C 0.15804 0.39691 0.37719 0.0
O903 O 0.13416 0.39659 0.36592 0.0
C904 C 0.16123 0.35454 0.35606 0.0
C905 C 0.13504 0.32169 0.35999 0.0
C906 C 0.12094 0.29808 0.34434 0.0
C907 C 0.1324 0.30771 0.32464 0.0
C908 C 0.15727 0.34074 0.32013 0.0
C909 C 0.17247 0.36423 0.33599 0.0
C910 C 0.09778 0.26236 0.34857 0.0
C911 C 0.25229 0.37429 0.42179 0.0
C912 C 0.24255 0.34994 0.43736 0.0
C913 C 0.28125 0.38262 0.41046 0.0
C914 C 0.299 0.36556 0.4135 0.0
C915 C 0.28838 0.3403 0.42808 0.0
C916 C 0.26024 0.33229 0.44038 0.0
N917 N 0.23305 0.39066 0.41737 0.0
N918 N 0.17346 0.37879 0.3722 0.0
N919 N 0.16892 0.34172 0.40683 0.0
C920 C 0.14514 0.34006 0.42177 0.0
C921 C 0.14839 0.33364 0.44216 0.0
C922 C 0.11921 0.3463 0.41619 0.0
C923 C 0.12797 0.33642 0.45711 0.0
H924 H 0.16705 0.32689 0.44635 0.0
C925 C 0.10426 0.3459 0.45135 0.0
C926 C 0.09955 0.35071 0.43089 0.0
C927 C 0.13164 0.33006 0.47876 0.0
H928 H 0.11479 0.34841 0.40038 0.0
H929 H 0.08901 0.34896 0.46278 0.0
C930 C 0.07486 0.36131 0.42494 0.0
O931 O 0.11436 0.33617 0.49315 0.0
O932 O 0.15024 0.31922 0.4837 0.0
O933 O 0.07018 0.3647 0.40709 0.0
O934 O 0.05778 0.36784 0.43925 0.0
H935 H 0.11638 0.33222 0.50734 0.0
H936 H 0.04186 0.37513 0.43571 0.0
N937 N 0.21651 0.35463 0.38129 0.0
C938 C 0.24201 0.36886 0.36821 0.0
C939 C 0.25311 0.3484 0.35915 0.0
C940 C 0.23637 0.31368 0.36433 0.0
C941 C 0.2092 0.30017 0.37823 0.0
C942 C 0.19958 0.32216 0.38664 0.0
N943 N 0.24224 0.41971 0.37879 0.0
C944 C 0.25626 0.40572 0.36646 0.0
O945 O 0.28128 0.424 0.35402 0.0
C946 C 0.17271 0.31471 0.40146 0.0
O947 O 0.06484 0.25362 0.41783 0.0
O948 O 0.09134 0.23209 0.43407 0.0
C949 C 0.25648 0.45606 0.38102 0.0
C950 C 0.23579 0.47076 0.37936 0.0
C951 C 0.24823 0.50482 0.38421 0.0
C952 C 0.28263 0.52546 0.38775 0.0
C953 C 0.30503 0.51331 0.38496 0.0
C954 C 0.29193 0.47816 0.38302 0.0
O955 O 0.12244 0.19904 0.39644 0.0
O956 O 0.13647 0.20253 0.36412 0.0
O957 O 0.09722 0.25094 0.36597 0.0
O958 O 0.08547 0.24144 0.33417 0.0
O959 O 0.15513 0.28413 0.41024 0.0
C960 C 0.03164 0.15634 0.38668 0.0
O961 O 0.0396 0.15618 0.36834 0.0
O962 O 0.04903 0.18095 0.39853 0.0
C963 C 0.0704 0.24268 0.43431 0.0
H964 H 0.13878 0.43987 0.39888 0.0
H965 H 0.20655 0.4545 0.44893 0.0
H966 H 0.16377 0.46584 0.43245 0.0
H967 H 0.12558 0.31455 0.37524 0.0
H968 H 0.12205 0.28924 0.31253 0.0
H969 H 0.19169 0.39002 0.33275 0.0
H970 H 0.22139 0.34467 0.44693 0.0
H971 H 0.29038 0.40255 0.39934 0.0
H972 H 0.3031 0.32792 0.43021 0.0
H973 H 0.27416 0.35881 0.34872 0.0
H974 H 0.24453 0.29733 0.35766 0.0
H975 H 0.1964 0.27367 0.38223 0.0
H976 H 0.21072 0.45659 0.37336 0.0
H977 H 0.29253 0.55229 0.39018 0.0
H978 H 0.30918 0.46845 0.38206 0.0
Cd979 Cd 0.86907 0.10185 0.90193 0.0
C980 C 0.94555 0.13816 0.88517 0.0
C981 C 0.81814 0.22861 0.93099 0.0
O982 O 0.82559 0.24452 0.94844 0.0
Cd983 Cd 0.90187 0.0887 0.84767 0.0
C984 C 0.78303 0.20469 0.92486 0.0
C985 C 0.72243 0.15489 0.90771 0.0
C986 C 0.75331 0.16689 0.89776 0.0
N987 N 0.78116 0.19053 0.90692 0.0
C988 C 0.75298 0.19463 0.93544 0.0
C989 C 0.72242 0.16943 0.92663 0.0
Co990 Co 0.82115 0.20271 0.89425 0.0
C991 C 0.76046 0.15634 0.87811 0.0
O992 O 0.73668 0.13213 0.86715 0.0
C993 C 0.80569 0.1584 0.85699 0.0
C994 C 0.81438 0.13365 0.86123 0.0
C995 C 0.82508 0.12019 0.84574 0.0
C996 C 0.82498 0.13004 0.82585 0.0
C997 C 0.815 0.15353 0.82111 0.0
C998 C 0.80609 0.16851 0.83679 0.0
C999 C 0.84128 0.1002 0.85038 0.0
C1000 C 0.87823 0.2507 0.92195 0.0
C1001 C 0.89211 0.24134 0.93817 0.0
C1002 C 0.89974 0.27825 0.90985 0.0
C1003 C 0.93457 0.29459 0.91267 0.0
C1004 C 0.94841 0.28414 0.92788 0.0
C1005 C 0.92748 0.25778 0.94108 0.0
N1006 N 0.84254 0.23232 0.91751 0.0
N1007 N 0.79391 0.17108 0.87308 0.0
N1008 N 0.82749 0.16796 0.90774 0.0
C1009 C 0.8055 0.14407 0.92267 0.0
C1010 C 0.81524 0.14723 0.94305 0.0
C1011 C 0.77346 0.11797 0.91706 0.0
C1012 C 0.79226 0.12633 0.95796 0.0
H1013 H 0.84051 0.1662 0.94728 0.0
C1014 C 0.75927 0.10218 0.95216 0.0
C1015 C 0.74961 0.09783 0.93172 0.0
C1016 C 0.80228 0.12999 0.97961 0.0
H1017 H 0.76688 0.11373 0.90125 0.0
H1018 H 0.74115 0.08652 0.96355 0.0
C1019 C 0.71435 0.07312 0.92577 0.0
O1020 O 0.77898 0.11243 0.99398 0.0
O1021 O 0.83165 0.1488 0.98458 0.0
O1022 O 0.70626 0.06847 0.90792 0.0
O1023 O 0.69076 0.05607 0.94008 0.0
H1024 H 0.78522 0.11455 0.0067 0.0
H1025 H 0.66755 0.0402 0.93655 0.0
N1026 N 0.86109 0.21458 0.8815 0.0
C1027 C 0.87165 0.23943 0.86802 0.0
C1028 C 0.90323 0.25077 0.85895 0.0
C1029 C 0.92191 0.2349 0.86452 0.0
C1030 C 0.90892 0.20832 0.87882 0.0
C1031 C 0.87726 0.19841 0.88723 0.0
N1032 N 0.82111 0.23984 0.87888 0.0
C1033 C 0.84867 0.25331 0.86617 0.0
O1034 O 0.85519 0.27819 0.85365 0.0
C1035 C 0.85845 0.17204 0.90243 0.0
O1036 O 0.8157 0.06437 0.91827 0.0
O1037 O 0.86049 0.09416 0.93683 0.0
C1038 C 0.80049 0.25573 0.88189 0.0
C1039 C 0.76469 0.23723 0.87975 0.0
C1040 C 0.74502 0.25293 0.88296 0.0
C1041 C 0.76184 0.28718 0.88827 0.0
C1042 C 0.79679 0.30705 0.88709 0.0
C1043 C 0.81631 0.29131 0.88463 0.0
O1044 O 0.92909 0.12653 0.90142 0.0
O1045 O 0.92981 0.13794 0.8693 0.0
O1046 O 0.85134 0.10034 0.86817 0.0
O1047 O 0.85229 0.08957 0.83622 0.0
O1048 O 0.87219 0.15538 0.91161 0.0
C1049 C 0.87806 0.03174 0.88701 0.0
O1050 O 0.88738 0.04103 0.86893 0.0
O1051 O 0.87188 0.04923 0.89945 0.0
C1052 C 0.82926 0.07237 0.93574 0.0
H1053 H 0.69915 0.13536 0.90107 0.0
H1054 H 0.75303 0.20539 0.95003 0.0
H1055 H 0.69879 0.16101 0.93451 0.0
H1056 H 0.81313 0.12508 0.8766 0.0
H1057 H 0.83353 0.11996 0.81381 0.0
H1058 H 0.79844 0.18689 0.83332 0.0
H1059 H 0.87564 0.22146 0.94835 0.0
H1060 H 0.88962 0.28732 0.89825 0.0
H1061 H 0.97557 0.2978 0.92982 0.0
H1062 H 0.91342 0.27147 0.84827 0.0
H1063 H 0.94649 0.24333 0.85787 0.0
H1064 H 0.92319 0.19624 0.88316 0.0
H1065 H 0.75236 0.21154 0.87445 0.0
H1066 H 0.74758 0.29971 0.89167 0.0
H1067 H 0.84357 0.30674 0.88438 0.0
H1068 H 0.17252 0.53441 0.08087 0.0
H1069 H 0.26641 0.70748 0.14015 0.0
H1070 H 0.21748 0.54613 0.13973 0.0
H1071 H 0.19938 0.69326 0.09064 0.0
H1072 H 0.24459 0.64676 0.14118 0.0
H1073 H 0.17524 0.58934 0.08538 0.0
C1074 C 0.18161 0.54785 0.09505 0.0
C1075 C 0.1944 0.53556 0.11005 0.0
C1076 C 0.23383 0.65659 0.13039 0.0
C1077 C 0.19957 0.59904 0.11482 0.0
C1078 C 0.24628 0.69133 0.12986 0.0
C1079 C 0.23434 0.70536 0.11544 0.0
C1080 C 0.20933 0.63542 0.11626 0.0
C1081 C 0.20865 0.68335 0.10224 0.0
C1082 C 0.18366 0.57941 0.09753 0.0
C1083 C 0.20682 0.55445 0.12794 0.0
N1084 N 0.19728 0.64946 0.10276 0.0
N1085 N 0.20984 0.58544 0.1296 0.0
H1086 H 0.53231 0.23284 0.64686 0.0
H1087 H 0.65453 0.19866 0.5778 0.0
H1088 H 0.52294 0.22278 0.58212 0.0
H1089 H 0.65493 0.19433 0.6428 0.0
H1090 H 0.60102 0.1989 0.5791 0.0
H1091 H 0.57203 0.21134 0.64612 0.0
C1092 C 0.53775 0.22492 0.63258 0.0
C1093 C 0.52385 0.22879 0.61457 0.0
C1094 C 0.61218 0.19685 0.5931 0.0
C1095 C 0.57011 0.20534 0.61341 0.0
C1096 C 0.64248 0.19617 0.5923 0.0
C1097 C 0.65875 0.19571 0.61019 0.0
C1098 C 0.59839 0.19783 0.61196 0.0
C1099 C 0.64276 0.19391 0.62866 0.0
C1100 C 0.56064 0.21293 0.6321 0.0
C1101 C 0.53259 0.21939 0.59635 0.0
N1102 N 0.61382 0.19561 0.6291 0.0
N1103 N 0.55539 0.20846 0.5962 0.0
H1104 H 0.30775 0.49026 0.10835 0.0
H1105 H 0.44082 0.67059 0.07997 0.0
H1106 H 0.29411 0.57492 0.12211 0.0
H1107 H 0.47526 0.64034 0.13239 0.0
H1108 H 0.38674 0.61805 0.08199 0.0
H1109 H 0.36943 0.5293 0.10739 0.0
C1110 C 0.31733 0.51676 0.11088 0.0
C1111 C 0.295 0.52932 0.1134 0.0
C1112 C 0.40669 0.62224 0.0925 0.0
C1113 C 0.36519 0.5738 0.11274 0.0
C1114 C 0.43763 0.65206 0.09128 0.0
C1115 C 0.46259 0.65993 0.10606 0.0
C1116 C 0.40063 0.59959 0.10835 0.0
C1117 C 0.45675 0.63516 0.12066 0.0
C1118 C 0.35255 0.53897 0.1105 0.0
C1119 C 0.30954 0.56393 0.11821 0.0
N1120 N 0.42595 0.60624 0.12174 0.0
N1121 N 0.34337 0.58492 0.11706 0.0
H1122 H 0.78141 0.30102 0.58197 0.0
H1123 H 0.80276 0.46003 0.64446 0.0
H1124 H 0.76405 0.29996 0.646 0.0
H1125 H 0.80847 0.45795 0.57955 0.0
H1126 H 0.80207 0.40618 0.64615 0.0
H1127 H 0.80407 0.36232 0.58161 0.0
C1128 C 0.78348 0.31403 0.59606 0.0
C1129 C 0.77154 0.29581 0.6141 0.0
C1130 C 0.80457 0.41793 0.63154 0.0
C1131 C 0.79631 0.36553 0.6138 0.0
C1132 C 0.80554 0.44896 0.63061 0.0
C1133 C 0.80634 0.46369 0.61186 0.0
C1134 C 0.80418 0.40137 0.61354 0.0
C1135 C 0.80854 0.44769 0.5943 0.0
C1136 C 0.79606 0.34889 0.59584 0.0
C1137 C 0.7736 0.3134 0.63187 0.0
N1138 N 0.80696 0.41718 0.59554 0.0
N1139 N 0.78545 0.34726 0.63126 0.0
H1140 H 0.34327 0.80309 0.14279 0.0
H1141 H 0.48633 0.78414 0.08465 0.0
H1142 H 0.3544 0.80803 0.07805 0.0
H1143 H 0.46529 0.76461 0.14818 0.0
H1144 H 0.44682 0.80565 0.08296 0.0
H1145 H 0.39624 0.80226 0.14598 0.0
C1146 C 0.35784 0.80575 0.12929 0.0
C1147 C 0.34485 0.80645 0.11015 0.0
C1148 C 0.45147 0.79757 0.09742 0.0
C1149 C 0.40501 0.80421 0.11359 0.0
C1150 C 0.47441 0.78578 0.09843 0.0
C1151 C 0.47972 0.77352 0.11668 0.0
C1152 C 0.43343 0.79689 0.1148 0.0
C1153 C 0.46245 0.77462 0.13393 0.0
C1154 C 0.38779 0.80465 0.13109 0.0
C1155 C 0.36396 0.80832 0.09309 0.0
N1156 N 0.43991 0.78585 0.13255 0.0
N1157 N 0.39288 0.80679 0.09519 0.0
H1158 H 0.70549 0.46713 0.57934 0.0
H1159 H 0.53648 0.35061 0.64096 0.0
H1160 H 0.69666 0.47861 0.6433 0.0
H1161 H 0.54886 0.34173 0.57714 0.0
H1162 H 0.59048 0.40419 0.64142 0.0
H1163 H 0.6447 0.42818 0.5775 0.0
C1164 C 0.69041 0.46203 0.59292 0.0
C1165 C 0.70591 0.47616 0.61145 0.0
C1166 C 0.58092 0.39109 0.62719 0.0
C1167 C 0.63619 0.43075 0.60967 0.0
C1168 C 0.54984 0.36078 0.62687 0.0
C1169 C 0.53791 0.34209 0.60889 0.0
C1170 C 0.60034 0.40253 0.60941 0.0
C1171 C 0.55682 0.35571 0.59121 0.0
C1172 C 0.65571 0.43962 0.59192 0.0
C1173 C 0.68547 0.46843 0.62869 0.0
N1174 N 0.58719 0.38477 0.59197 0.0
N1175 N 0.65165 0.44585 0.62745 0.0
H1176 H 0.45962 0.80939 0.4177 0.0
H1177 H 0.3017 0.76282 0.34699 0.0
H1178 H 0.46356 0.80621 0.35276 0.0
H1179 H 0.30248 0.78122 0.41087 0.0
H1180 H 0.36306 0.78568 0.34812 0.0
H1181 H 0.40533 0.80792 0.41518 0.0
C1182 C 0.44981 0.81008 0.40289 0.0
C1183 C 0.46642 0.80871 0.38541 0.0
C1184 C 0.35005 0.7856 0.36182 0.0
C1185 C 0.40334 0.80491 0.38233 0.0
C1186 C 0.3151 0.77276 0.36111 0.0
C1187 C 0.29736 0.77092 0.37877 0.0
C1188 C 0.36726 0.79614 0.38043 0.0
C1189 C 0.31553 0.78302 0.39686 0.0
C1190 C 0.41851 0.80862 0.40142 0.0
C1191 C 0.45192 0.80817 0.36657 0.0
N1192 N 0.34941 0.7948 0.39728 0.0
N1193 N 0.42095 0.80558 0.36553 0.0
H1194 H 0.6523 0.4561 0.91535 0.0
H1195 H 0.5369 0.30021 0.84461 0.0
H1196 H 0.65797 0.46121 0.85038 0.0
H1197 H 0.51877 0.30194 0.90833 0.0
H1198 H 0.57653 0.36135 0.84568 0.0
H1199 H 0.59853 0.40275 0.91285 0.0
C1200 C 0.64139 0.44671 0.90057 0.0
C1201 C 0.65916 0.46341 0.88305 0.0
C1202 C 0.56319 0.34861 0.85934 0.0
C1203 C 0.5986 0.40146 0.87996 0.0
C1204 C 0.54035 0.3138 0.85864 0.0
C1205 C 0.52402 0.29637 0.87631 0.0
C1206 C 0.57024 0.3659 0.87795 0.0
C1207 C 0.53024 0.31477 0.89431 0.0
C1208 C 0.61093 0.41599 0.8991 0.0
C1209 C 0.64461 0.44946 0.86423 0.0
N1210 N 0.55314 0.34841 0.89474 0.0
N1211 N 0.61555 0.41907 0.86317 0.0
H1212 H 0.22309 0.52265 0.41608 0.0
H1213 H 0.19934 0.65514 0.34969 0.0
H1214 H 0.2293 0.52696 0.35111 0.0
H1215 H 0.19667 0.65265 0.41475 0.0
H1216 H 0.1987 0.60118 0.34947 0.0
H1217 H 0.20202 0.56257 0.41555 0.0
C1218 C 0.2188 0.53115 0.40166 0.0
C1219 C 0.22715 0.52102 0.3836 0.0
C1220 C 0.19719 0.61181 0.36381 0.0
C1221 C 0.20453 0.56789 0.38281 0.0
C1222 C 0.19702 0.64236 0.36391 0.0
C1223 C 0.19729 0.65795 0.38226 0.0
C1224 C 0.19796 0.59683 0.38223 0.0
C1225 C 0.1957 0.64106 0.40029 0.0
C1226 C 0.20717 0.55424 0.40134 0.0
C1227 C 0.22237 0.53364 0.36532 0.0
N1228 N 0.1965 0.61165 0.39984 0.0
N1229 N 0.21178 0.55674 0.36539 0.0
H1230 H 0.70826 0.28046 0.86742 0.0
H1231 H 0.52472 0.16369 0.864 0.0
H1232 H 0.69445 0.18601 0.89018 0.0
H1233 H 0.564 0.23413 0.91362 0.0
H1234 H 0.57884 0.16367 0.86267 0.0
H1235 H 0.64807 0.25891 0.87075 0.0
C1236 C 0.69278 0.25509 0.87321 0.0
C1237 C 0.70729 0.23588 0.87995 0.0
C1238 C 0.57493 0.17807 0.87429 0.0
C1239 C 0.63724 0.21023 0.88226 0.0
C1240 C 0.54403 0.17791 0.87517 0.0
C1241 C 0.54003 0.19935 0.88877 0.0
C1242 C 0.60171 0.20006 0.88692 0.0
C1243 C 0.56611 0.21752 0.90277 0.0
C1244 C 0.65823 0.24274 0.87479 0.0
C1245 C 0.68487 0.20224 0.88569 0.0
N1246 N 0.59614 0.2184 0.90102 0.0
N1247 N 0.65086 0.19049 0.88706 0.0
H1248 H 0.43886 0.71251 0.35631 0.0
H1249 H 0.3657 0.53158 0.40499 0.0
H1250 H 0.5004 0.69135 0.39631 0.0
H1251 H 0.32381 0.55491 0.35316 0.0
H1252 H 0.41865 0.58614 0.40037 0.0
H1253 H 0.39877 0.65272 0.35399 0.0
C1254 C 0.44435 0.69508 0.36429 0.0
C1255 C 0.473 0.70705 0.37667 0.0
C1256 C 0.39803 0.57886 0.3898 0.0
C1257 C 0.4268 0.6376 0.37399 0.0
C1258 C 0.36801 0.54765 0.39233 0.0
C1259 C 0.34025 0.53905 0.3796 0.0
C1260 C 0.39961 0.60144 0.37472 0.0
C1261 C 0.34451 0.56071 0.36343 0.0
C1262 C 0.42137 0.66074 0.36294 0.0
C1263 C 0.47879 0.68318 0.38655 0.0
N1264 N 0.3731 0.59103 0.36177 0.0
N1265 N 0.45559 0.64949 0.38527 0.0
H1266 H 0.81876 0.35634 0.91639 0.0
H1267 H 0.7527 0.45541 0.84912 0.0
H1268 H 0.799 0.33933 0.85257 0.0
H1269 H 0.79245 0.48793 0.90906 0.0
H1270 H 0.77461 0.41622 0.84927 0.0
H1271 H 0.81644 0.4088 0.91337 0.0
C1272 C 0.81557 0.36451 0.90159 0.0
C1273 C 0.80991 0.34387 0.88463 0.0
C1274 C 0.77946 0.43253 0.86222 0.0
C1275 C 0.80498 0.40266 0.88121 0.0
C1276 C 0.76714 0.45509 0.86204 0.0
C1277 C 0.77166 0.4756 0.87887 0.0
C1278 C 0.79594 0.4299 0.87955 0.0
C1279 C 0.78942 0.47332 0.89555 0.0
C1280 C 0.81361 0.39415 0.89989 0.0
C1281 C 0.80441 0.35497 0.86592 0.0
N1282 N 0.80059 0.45063 0.89558 0.0
N1283 N 0.8014 0.38309 0.86479 0.0
H1284 H 0.21867 0.37079 0.3003 0.0
H1285 H 0.12963 0.31166 0.19258 0.0
H1286 H 0.11162 0.32829 0.29069 0.0
H1287 H 0.23597 0.38289 0.1984 0.0
H1288 H 0.12298 0.31545 0.22909 0.0
H1289 H 0.22678 0.37445 0.26329 0.0
C1290 C 0.1971 0.36303 0.29042 0.0
C1291 C 0.16451 0.34943 0.29847 0.0
C1292 C 0.1477 0.33072 0.22238 0.0
C1293 C 0.17328 0.3525 0.25654 0.0
C1294 C 0.15138 0.32869 0.20159 0.0
C1295 C 0.18325 0.34762 0.19263 0.0
C1296 C 0.17624 0.35137 0.23429 0.0
C1297 C 0.21092 0.3686 0.20485 0.0
C1298 C 0.20161 0.36477 0.26938 0.0
C1299 C 0.13719 0.33892 0.28506 0.0
N1300 N 0.20687 0.36972 0.22516 0.0
N1301 N 0.14213 0.34029 0.26483 0.0
H1302 H 0.7819 0.10752 0.79187 0.0
H1303 H 0.8633 0.23859 0.70057 0.0
H1304 H 0.84636 0.21456 0.80114 0.0
H1305 H 0.80911 0.13055 0.69315 0.0
H1306 H 0.85331 0.23118 0.73717 0.0
H1307 H 0.78745 0.11631 0.75547 0.0
C1308 C 0.79668 0.13306 0.78614 0.0
C1309 C 0.8134 0.16045 0.79945 0.0
C1310 C 0.84308 0.20909 0.72752 0.0
C1311 C 0.82008 0.17075 0.7577 0.0
C1312 C 0.84842 0.21335 0.7067 0.0
C1313 C 0.83607 0.18515 0.69403 0.0
C1314 C 0.82521 0.17635 0.7356 0.0
C1315 C 0.81818 0.15285 0.70254 0.0
C1316 C 0.80005 0.13803 0.76536 0.0
C1317 C 0.83257 0.19293 0.79133 0.0
N1318 N 0.81324 0.14931 0.72285 0.0
N1319 N 0.83553 0.1972 0.77088 0.0
H1320 H 0.69423 0.87172 0.29964 0.0
H1321 H 0.62582 0.78722 0.19169 0.0
H1322 H 0.61145 0.76974 0.29378 0.0
H1323 H 0.68464 0.89477 0.2021 0.0
H1324 H 0.62104 0.7785 0.22863 0.0
H1325 H 0.69245 0.87946 0.26325 0.0
C1326 C 0.6751 0.85125 0.29064 0.0
C1327 C 0.65266 0.82018 0.29957 0.0
C1328 C 0.63481 0.80394 0.22268 0.0
C1329 C 0.65085 0.82845 0.25792 0.0
C1330 C 0.63735 0.8089 0.20167 0.0
C1331 C 0.65581 0.84171 0.19378 0.0
C1332 C 0.65105 0.83199 0.23568 0.0
C1333 C 0.67068 0.86894 0.20741 0.0
C1334 C 0.6742 0.85554 0.26988 0.0
C1335 C 0.62874 0.79419 0.28735 0.0
N1336 N 0.66825 0.86344 0.22758 0.0
N1337 N 0.62864 0.79876 0.26701 0.0
H1338 H 0.78624 0.62312 0.80113 0.0
H1339 H 0.87183 0.69721 0.69447 0.0
H1340 H 0.89398 0.68146 0.79181 0.0
H1341 H 0.77083 0.61214 0.69881 0.0
H1342 H 0.87921 0.6934 0.73078 0.0
H1343 H 0.77831 0.61924 0.7641 0.0
C1344 C 0.80814 0.63444 0.79132 0.0
C1345 C 0.84076 0.65264 0.7995 0.0
C1346 C 0.85557 0.67519 0.72381 0.0
C1347 C 0.83199 0.64917 0.75752 0.0
C1348 C 0.85143 0.67733 0.70311 0.0
C1349 C 0.82075 0.65475 0.69375 0.0
C1350 C 0.82871 0.65049 0.7353 0.0
C1351 C 0.79496 0.62966 0.70553 0.0
C1352 C 0.80365 0.6325 0.77027 0.0
C1353 C 0.86834 0.66741 0.78614 0.0
N1354 N 0.79936 0.62839 0.72582 0.0
N1355 N 0.86331 0.66573 0.76591 0.0
H1356 H 0.1586 0.86453 0.19605 0.0
H1357 H 0.21688 0.81849 0.29728 0.0
H1358 H 0.17741 0.78086 0.19657 0.0
H1359 H 0.13939 0.84634 0.29557 0.0
H1360 H 0.21131 0.81019 0.26047 0.0
H1361 H 0.16405 0.86806 0.2328 0.0
C1362 C 0.16423 0.84708 0.20388 0.0
C1363 C 0.16646 0.82153 0.19329 0.0
C1364 C 0.19555 0.81801 0.26831 0.0
C1365 C 0.17354 0.82616 0.23526 0.0
C1366 C 0.19842 0.82241 0.2893 0.0
C1367 C 0.17953 0.83433 0.29949 0.0
C1368 C 0.17417 0.82624 0.25755 0.0
C1369 C 0.15575 0.83872 0.28828 0.0
C1370 C 0.16719 0.84909 0.22483 0.0
C1371 C 0.17518 0.80064 0.20415 0.0
N1372 N 0.15434 0.83549 0.26787 0.0
N1373 N 0.17822 0.80326 0.22465 0.0
H1374 H 0.38134 0.2372 0.79459 0.0
H1375 H 0.32609 0.10875 0.7017 0.0
H1376 H 0.32134 0.12905 0.80007 0.0
H1377 H 0.37221 0.21645 0.69332 0.0
H1378 H 0.32959 0.1167 0.73801 0.0
H1379 H 0.38415 0.23106 0.75784 0.0
C1380 C 0.3697 0.21215 0.78801 0.0
C1381 C 0.35189 0.18353 0.80015 0.0
C1382 C 0.33938 0.13875 0.72836 0.0
C1383 C 0.3542 0.17628 0.75848 0.0
C1384 C 0.3375 0.13426 0.70759 0.0
C1385 C 0.34888 0.16204 0.69451 0.0
C1386 C 0.3534 0.1714 0.73632 0.0
C1387 C 0.36352 0.19447 0.70293 0.0
C1388 C 0.3709 0.20866 0.76711 0.0
C1389 C 0.33598 0.1516 0.7911 0.0
N1390 N 0.36527 0.19829 0.72343 0.0
N1391 N 0.3375 0.14882 0.77075 0.0
H1392 H 0.23178 0.14229 0.9702 0.0
H1393 H 0.20575 0.28062 0.02628 0.0
H1394 H 0.25291 0.23643 0.94249 0.0
H1395 H 0.17973 0.18307 0.05011 0.0
H1396 H 0.23182 0.26988 -0.00322 0.0
H1397 H 0.22236 0.16205 0.00073 0.0
C1398 C 0.23484 0.16735 0.97092 0.0
C1399 C 0.24252 0.18754 0.95363 0.0
C1400 C 0.2208 0.25102 0.00859 0.0
C1401 C 0.23109 0.21008 0.99023 0.0
C1402 C 0.20611 0.25726 0.02531 0.0
C1403 C 0.19092 0.2327 0.0403 0.0
C1404 C 0.21994 0.21991 0.00712 0.0
C1405 C 0.19132 0.20249 0.03864 0.0
C1406 C 0.22922 0.17853 0.98921 0.0
C1407 C 0.24654 0.21993 0.95548 0.0
N1408 N 0.20547 0.19684 0.02224 0.0
N1409 N 0.24028 0.2301 0.97348 0.0
H1410 H 0.04689 0.18725 0.45654 0.0
H1411 H 0.96223 0.23679 0.54435 0.0
H1412 H 0.04402 0.27996 0.45165 0.0
H1413 H 0.93886 0.13553 0.52898 0.0
H1414 H 0.99476 0.25715 0.51252 0.0
H1415 H 0.01131 0.17192 0.48592 0.0
C1416 C 0.03894 0.20463 0.46188 0.0
C1417 C 0.04877 0.23516 0.452 0.0
C1418 C 0.98204 0.23049 0.51616 0.0
C1419 C 0.00739 0.21755 0.48572 0.0
C1420 C 0.96366 0.21895 0.53419 0.0
C1421 C 0.94785 0.18449 0.53909 0.0
C1422 C 0.985 0.20732 0.5036 0.0
C1423 C 0.95031 0.16223 0.52567 0.0
C1424 C 0.01831 0.19572 0.47859 0.0
C1425 C 0.03707 0.25635 0.45916 0.0
N1426 N 0.9688 0.17411 0.5087 0.0
N1427 N 0.01703 0.24728 0.47593 0.0
H1428 H 0.80569 0.00297 0.05473 0.0
H1429 H 0.76998 0.01203 0.93905 0.0
H1430 H 0.73122 0.91693 0.02118 0.0
H1431 H 0.84794 0.09335 0.97412 0.0
H1432 H 0.74799 0.9789 0.97028 0.0
H1433 H 0.81563 0.03853 0.0253 0.0
C1434 C 0.79096 0.99166 0.04121 0.0
C1435 C 0.76733 0.95724 0.04024 0.0
C1436 C 0.76941 0.00442 0.97109 0.0
C1437 C 0.77838 0.99746 0.00653 0.0
C1438 C 0.78189 0.02319 0.95336 0.0
C1439 C 0.81107 0.0551 0.9541 0.0
C1440 C 0.78634 0.01796 0.98944 0.0
C1441 C 0.82568 0.06858 0.97289 0.0
C1442 C 0.79646 0.0121 0.02438 0.0
C1443 C 0.74931 0.9436 0.02233 0.0
N1444 N 0.81337 0.04977 0.98978 0.0
N1445 N 0.75517 0.96386 0.00602 0.0
H1446 H 0.78425 0.86601 0.46902 0.0
H1447 H 0.78036 0.71726 0.53383 0.0
H1448 H 0.7419 0.76518 0.44461 0.0
H1449 H 0.84739 0.82368 0.54318 0.0
H1450 H 0.75556 0.73048 0.50447 0.0
H1451 H 0.79501 0.8465 0.5006 0.0
C1452 C 0.77672 0.83955 0.47041 0.0
C1453 C 0.76276 0.81728 0.45409 0.0
C1454 C 0.77557 0.75078 0.51308 0.0
C1455 C 0.77544 0.79481 0.49025 0.0
C1456 C 0.78968 0.74323 0.52963 0.0
C1457 C 0.8163 0.76944 0.54033 0.0
C1458 C 0.78767 0.78476 0.50799 0.0
C1459 C 0.82737 0.80283 0.53487 0.0
C1460 C 0.78304 0.82845 0.48845 0.0
C1461 C 0.75329 0.78321 0.45682 0.0
N1462 N 0.81293 0.80954 0.5191 0.0
N1463 N 0.7602 0.77295 0.47461 0.0
H1464 H 0.00256 0.80395 0.93598 0.0
H1465 H 0.0136 0.76847 0.05151 0.0
H1466 H 0.9202 0.72529 0.96979 0.0
H1467 H 0.09236 0.85259 0.0186 0.0
H1468 H 0.98277 0.74586 0.01976 0.0
H1469 H 0.03933 0.81675 0.96547 0.0
C1470 C 0.99238 0.78857 0.94946 0.0
C1471 C 0.95859 0.76297 0.95057 0.0
C1472 C 0.00732 0.76906 0.01948 0.0
C1473 C 0.99995 0.7773 0.98417 0.0
C1474 C 0.0247 0.78189 0.03756 0.0
C1475 C 0.05516 0.8127 0.03764 0.0
C1476 C 0.02061 0.78727 0.00149 0.0
C1477 C 0.06865 0.82898 0.0192 0.0
C1478 C 0.01358 0.79598 0.9663 0.0
C1479 C 0.9464 0.74457 0.96844 0.0
N1480 N 0.05104 0.81626 0.00186 0.0
N1481 N 0.96713 0.75205 0.98463 0.0
H1482 H 0.19092 0.91594 0.46978 0.0
H1483 H 0.24134 0.09169 0.52109 0.0
H1484 H 0.19927 0.00261 0.43829 0.0
H1485 H 0.24795 0.01255 0.55281 0.0
H1486 H 0.23162 0.06076 0.48983 0.0
H1487 H 0.21713 0.95153 0.49972 0.0
C1488 C 0.19881 0.94249 0.46921 0.0
C1489 C 0.19385 0.95664 0.45173 0.0
C1490 C 0.23569 0.05024 0.50351 0.0
C1491 C 0.2222 0.99685 0.48559 0.0
C1492 C 0.24128 0.06796 0.5214 0.0
C1493 C 0.24486 0.05431 0.53957 0.0
C1494 C 0.23338 0.01847 0.50378 0.0
C1495 C 0.24493 0.02369 0.53908 0.0
C1496 C 0.21363 0.96274 0.48617 0.0
C1497 C 0.20364 0.99087 0.4515 0.0
N1498 N 0.23867 0.00639 0.52141 0.0
N1499 N 0.21677 0.01 0.4683 0.0
H1500 H 0.7492 0.65765 0.98136 0.0
H1501 H 0.6699 0.7597 0.0136 0.0
H1502 H 0.75358 0.73343 0.94065 0.0
H1503 H 0.72875 0.73943 0.05645 0.0
H1504 H 0.7032 0.75506 0.98751 0.0
H1505 H 0.7455 0.68986 0.00843 0.0
C1506 C 0.75049 0.6816 0.97846 0.0
C1507 C 0.75092 0.69246 0.95856 0.0
C1508 C 0.70965 0.75272 0.00154 0.0
C1509 C 0.74556 0.72885 0.9911 0.0
C1510 C 0.69054 0.75538 0.01729 0.0
C1511 C 0.69572 0.74873 0.03733 0.0
C1512 C 0.73354 0.74271 0.00589 0.0
C1513 C 0.72304 0.74345 0.04115 0.0
C1514 C 0.74811 0.69988 0.99476 0.0
C1515 C 0.75231 0.72368 0.95575 0.0
N1516 N 0.74021 0.7395 0.02558 0.0
N1517 N 0.74863 0.74032 0.97176 0.0
H1518 H 0.07811 0.79654 0.46437 0.0
H1519 H 0.91092 0.6532 0.51583 0.0
H1520 H 0.03989 0.68921 0.46156 0.0
H1521 H 0.97557 0.73901 0.55307 0.0
H1522 H 0.95017 0.67922 0.48772 0.0
H1523 H 0.03722 0.78654 0.49204 0.0
C1524 C 0.06168 0.77111 0.46982 0.0
C1525 C 0.06178 0.74348 0.4605 0.0
C1526 C 0.95529 0.69283 0.50191 0.0
C1527 C 0.0145 0.73201 0.49073 0.0
C1528 C 0.93265 0.67818 0.51786 0.0
C1529 C 0.94065 0.6935 0.53693 0.0
C1530 C 0.986 0.72295 0.50506 0.0
C1531 C 0.96918 0.72603 0.53865 0.0
C1532 C 0.03819 0.76543 0.48531 0.0
C1533 C 0.0402 0.71109 0.46812 0.0
N1534 N 0.99148 0.73946 0.52302 0.0
N1535 N 0.01705 0.70622 0.48239 0.0
H1536 H 0.35979 0.06296 0.97165 0.0
H1537 H 0.218 0.95796 0.04525 0.0
H1538 H 0.26576 0.05758 0.95574 0.0
H1539 H 0.27546 0.91937 0.0153 0.0
H1540 H 0.23235 0.99929 0.01763 0.0
H1541 H 0.33033 0.01965 0.99732 0.0
C1542 C 0.33314 0.05365 0.97424 0.0
C1543 C 0.31507 0.06358 0.96165 0.0
C1544 C 0.24079 0.98099 0.01686 0.0
C1545 C 0.28116 0.01364 0.99053 0.0
C1546 C 0.23242 0.95731 0.03242 0.0
C1547 C 0.24601 0.93569 0.03253 0.0
C1548 C 0.26368 0.98339 0.00196 0.0
C1549 C 0.26465 0.93574 0.01575 0.0
C1550 C 0.31626 0.02854 0.98855 0.0
C1551 C 0.2804 0.05037 0.96527 0.0
N1552 N 0.27388 0.96003 0.00144 0.0
N1553 N 0.26426 0.02566 0.97943 0.0
H1554 H 0.24779 0.33809 0.48048 0.0
H1555 H 0.33675 0.24461 0.513 0.0
H1556 H 0.25433 0.2697 0.43824 0.0
H1557 H 0.27151 0.25563 0.55561 0.0
H1558 H 0.3033 0.24861 0.48523 0.0
H1559 H 0.2514 0.30477 0.50843 0.0
C1560 C 0.24884 0.31544 0.47707 0.0
C1561 C 0.2518 0.30724 0.457 0.0
C1562 C 0.29567 0.24912 0.50068 0.0
C1563 C 0.25678 0.26955 0.48886 0.0
C1564 C 0.31473 0.24672 0.51654 0.0
C1565 C 0.30752 0.25083 0.53663 0.0
C1566 C 0.26973 0.25629 0.50498 0.0
C1567 C 0.2786 0.25348 0.54029 0.0
C1568 C 0.25101 0.29645 0.49304 0.0
C1569 C 0.2531 0.27753 0.45352 0.0
N1570 N 0.26137 0.2572 0.52464 0.0
N1571 N 0.25661 0.26033 0.46926 0.0
H1572 H 0.09218 0.33269 0.01399 0.0
H1573 H 0.91016 0.25208 0.98121 0.0
H1574 H 0.01312 0.27321 0.05662 0.0
H1575 H 0.98184 0.24764 0.94079 0.0
H1576 H 0.94648 0.25668 0.0084 0.0
H1577 H 0.05405 0.29904 0.98777 0.0
C1578 C 0.06728 0.31196 0.0176 0.0
C1579 C 0.0554 0.30654 0.03762 0.0
C1580 C 0.95357 0.25352 0.99476 0.0
C1581 C 0.01179 0.26881 0.00605 0.0
C1582 C 0.93288 0.25085 0.9784 0.0
C1583 C 0.94336 0.25024 0.95855 0.0
C1584 C 0.98517 0.25619 0.99121 0.0
C1585 C 0.97329 0.24898 0.95585 0.0
C1586 C 0.04561 0.29289 0.00178 0.0
C1587 C 0.02287 0.27911 0.04134 0.0
N1588 N 0.99364 0.25296 0.97192 0.0
N1589 N 0.00186 0.26198 0.02571 0.0
H1590 H 0.79822 0.07637 0.52973 0.0
H1591 H 0.6545 0.91108 0.47751 0.0
H1592 H 0.69131 0.04091 0.53107 0.0
H1593 H 0.74136 0.97445 0.44075 0.0
H1594 H 0.68038 0.95051 0.50558 0.0
H1595 H 0.78809 0.03553 0.50201 0.0
C1596 C 0.77289 0.06056 0.52392 0.0
C1597 C 0.74535 0.06131 0.53286 0.0
C1598 C 0.69424 0.95527 0.49153 0.0
C1599 C 0.73368 0.01415 0.50262 0.0
C1600 C 0.67968 0.93254 0.47562 0.0
C1601 C 0.69543 0.94017 0.45669 0.0
C1602 C 0.72469 0.98565 0.48845 0.0
C1603 C 0.72815 0.96836 0.45508 0.0
C1604 C 0.76712 0.03711 0.50842 0.0
C1605 C 0.71307 0.04062 0.5248 0.0
N1606 N 0.74153 0.99075 0.47066 0.0
N1607 N 0.70805 0.01743 0.51053 0.0
H1608 H 0.14109 0.98359 0.13946 0.0
H1609 H 0.13954 0.13061 0.07524 0.0
H1610 H 0.15065 0.98655 0.07443 0.0
H1611 H 0.09898 0.10051 0.13554 0.0
H1612 H 0.14726 0.08097 0.07366 0.0
H1613 H 0.13228 0.03211 0.13802 0.0
C1614 C 0.14239 0.99507 0.1249 0.0
C1615 C 0.14699 0.9814 0.10702 0.0
C1616 C 0.13659 0.08542 0.08714 0.0
C1617 C 0.13611 0.03649 0.1052 0.0
C1618 C 0.13221 0.11364 0.08806 0.0
C1619 C 0.11945 0.12025 0.10577 0.0
C1620 C 0.12866 0.06435 0.10415 0.0
C1621 C 0.10955 0.097 0.12173 0.0
C1622 C 0.13665 0.02253 0.12403 0.0
C1623 C 0.14743 0.99668 0.08853 0.0
N1624 N 0.11479 0.07047 0.12062 0.0
N1625 N 0.14191 0.02368 0.08805 0.0
H1626 H 0.16124 0.14903 0.64227 0.0
H1627 H 0.00284 0.11853 0.57485 0.0
H1628 H 0.15994 0.13623 0.57744 0.0
H1629 H 0.01377 0.13578 0.63932 0.0
H1630 H 0.06039 0.12596 0.57392 0.0
H1631 H 0.10757 0.14715 0.64004 0.0
C1632 C 0.15005 0.14664 0.62747 0.0
C1633 C 0.16507 0.14269 0.61004 0.0
C1634 C 0.05003 0.12829 0.58816 0.0
C1635 C 0.10287 0.1398 0.60733 0.0
C1636 C 0.01741 0.12408 0.58868 0.0
C1637 C 0.00374 0.12647 0.60723 0.0
C1638 C 0.06866 0.13541 0.60627 0.0
C1639 C 0.0232 0.13336 0.62475 0.0
C1640 C 0.11908 0.14518 0.62618 0.0
C1641 C 0.14907 0.13926 0.59128 0.0
N1642 N 0.05452 0.13765 0.6238 0.0
N1643 N 0.11853 0.13753 0.5904 0.0
H1644 H 0.87011 0.01026 0.07457 0.0
H1645 H 0.02067 0.15498 0.13863 0.0
H1646 H 0.90593 0.99547 0.13224 0.0
H1647 H 0.01305 0.16588 0.0743 0.0
H1648 H 0.97272 0.09777 0.1367 0.0
H1649 H 0.91911 0.06799 0.07345 0.0
C1650 C 0.88821 0.01901 0.08687 0.0
C1651 C 0.88348 0.99812 0.10378 0.0
C1652 C 0.9811 0.11272 0.12299 0.0
C1653 C 0.93844 0.06398 0.10273 0.0
C1654 C 0.0083 0.14561 0.12416 0.0
C1655 C 0.02039 0.16522 0.10658 0.0
C1656 C 0.96597 0.0994 0.10418 0.0
C1657 C 0.0041 0.15146 0.08816 0.0
C1658 C 0.91603 0.05188 0.08623 0.0
C1659 C 0.90786 0.0108 0.1191 0.0
N1660 N 0.97733 0.11925 0.08739 0.0
N1661 N 0.93399 0.04283 0.11832 0.0
H1662 H 0.87926 0.03012 0.57639 0.0
H1663 H 0.86137 0.87239 0.63821 0.0
H1664 H 0.83602 0.99975 0.63605 0.0
H1665 H 0.89064 0.8866 0.57538 0.0
H1666 H 0.85214 0.9199 0.63645 0.0
H1667 H 0.88278 0.978 0.57416 0.0
C1668 C 0.86977 0.01234 0.58882 0.0
C1669 C 0.85725 0.01946 0.60644 0.0
C1670 C 0.86049 0.91286 0.62291 0.0
C1671 C 0.86177 0.96049 0.6041 0.0
C1672 C 0.86592 0.88575 0.62397 0.0
C1673 C 0.87681 0.87575 0.60697 0.0
C1674 C 0.86638 0.9307 0.60472 0.0
C1675 C 0.88202 0.89363 0.58879 0.0
C1676 C 0.8721 0.98265 0.58756 0.0
C1677 C 0.84576 0.99543 0.62213 0.0
N1678 N 0.87704 0.9207 0.58817 0.0
N1679 N 0.84856 0.96743 0.62063 0.0
H1680 H 0.84323 0.85772 0.1386 0.0
H1681 H 0.99581 0.86791 0.07442 0.0
H1682 H 0.84042 0.85282 0.07335 0.0
H1683 H 0.00222 0.89808 0.13697 0.0
H1684 H 0.93839 0.8599 0.0728 0.0
H1685 H 0.90038 0.86686 0.13792 0.0
C1686 C 0.85433 0.85763 0.12414 0.0
C1687 C 0.83711 0.85426 0.10596 0.0
C1688 C 0.95254 0.86836 0.08679 0.0
C1689 C 0.90278 0.86556 0.10503 0.0
C1690 C 0.98518 0.87293 0.08772 0.0
C1691 C 0.00372 0.88289 0.10599 0.0
C1692 C 0.93813 0.87326 0.10434 0.0
C1693 C 0.98871 0.88982 0.12264 0.0
C1694 C 0.88719 0.86344 0.12372 0.0
C1695 C 0.85299 0.85517 0.08765 0.0
N1696 N 0.95691 0.88444 0.12147 0.0
N1697 N 0.88511 0.86084 0.08761 0.0
H1698 H 0.97125 0.85541 0.63511 0.0
H1699 H 0.14101 0.98135 0.57917 0.0
H1700 H 0.99786 0.82824 0.57839 0.0
H1701 H 0.09022 0.01286 0.62178 0.0
H1702 H 0.08965 0.92554 0.57721 0.0
H1703 H 0.01751 0.91322 0.63072 0.0
C1704 C 0.98743 0.86158 0.62196 0.0
C1705 C 0.98159 0.83716 0.60726 0.0
C1706 C 0.0897 0.94492 0.58667 0.0
C1707 C 0.03388 0.9032 0.60189 0.0
C1708 C 0.11883 0.9767 0.58767 0.0
C1709 C 0.11982 0.00124 0.60109 0.0
C1710 C 0.06218 0.93785 0.59927 0.0
C1711 C 0.09072 0.99405 0.61171 0.0
C1712 C 0.01357 0.89465 0.61926 0.0
C1713 C 0.00268 0.84649 0.59015 0.0
N1714 N 0.06314 0.96289 0.61085 0.0
N1715 N 0.02811 0.8789 0.58798 0.0
H1716 H 0.86316 0.84078 0.35812 0.0
H1717 H 0.03357 0.88536 0.41631 0.0
H1718 H 0.89444 0.90095 0.41246 0.0
H1719 H 1.00011 0.82963 0.36017 0.0
H1720 H 0.98066 0.88706 0.4176 0.0
H1721 H 0.91117 0.83202 0.36119 0.0
C1722 C 0.88036 0.85208 0.37075 0.0
C1723 C 0.87532 0.87164 0.38499 0.0
C1724 C 0.98476 0.87406 0.40519 0.0
C1725 C 0.93057 0.86231 0.38855 0.0
C1726 C 0.01498 0.8728 0.40449 0.0
C1727 C 0.02138 0.85717 0.38812 0.0
C1728 C 0.96124 0.85943 0.38947 0.0
C1729 C 0.99622 0.84177 0.37312 0.0
C1730 C 0.90773 0.84712 0.37254 0.0
C1731 C 0.8978 0.8856 0.40125 0.0
N1732 N 0.96757 0.84353 0.37411 0.0
N1733 N 0.92494 0.88097 0.40251 0.0
H1734 H 0.13821 0.04463 0.90672 0.0
H1735 H 0.02666 0.84885 0.87878 0.0
H1736 H 0.17081 0.99128 0.86681 0.0
H1737 H 0.98504 0.90605 0.90607 0.0
H1738 H 0.08321 0.89844 0.88088 0.0
H1739 H 0.08556 0.99175 0.91258 0.0
C1740 C 0.13465 0.02161 0.89974 0.0
C1741 C 0.15898 0.0221 0.88657 0.0
C1742 C 0.06194 0.90007 0.88675 0.0
C1743 C 0.09879 0.96191 0.89301 0.0
C1744 C 0.02984 0.87175 0.88572 0.0
C1745 C 0.00184 0.87363 0.89245 0.0
C1746 C 0.06586 0.93046 0.89443 0.0
C1747 C 0.00676 0.9038 0.90097 0.0
C1748 C 0.10454 0.99147 0.9029 0.0
C1749 C 0.15282 0.99172 0.87728 0.0
N1750 N 0.0383 0.9313 0.90159 0.0
N1751 N 0.12315 0.96291 0.88066 0.0
H1752 H 0.16022 0.16479 0.35431 0.0
H1753 H 0.10029 0.9937 0.41545 0.0
H1754 H 0.12276 0.15209 0.41558 0.0
H1755 H 0.15903 0.0216 0.36066 0.0
H1756 H 0.10761 0.05141 0.41688 0.0
H1757 H 0.15986 0.11167 0.35718 0.0
C1758 C 0.15255 0.15116 0.36851 0.0
C1759 C 0.14157 0.16294 0.38471 0.0
C1760 C 0.11925 0.04489 0.40476 0.0
C1761 C 0.14057 0.10171 0.38805 0.0
C1762 C 0.115 0.01233 0.40399 0.0
C1763 C 0.12882 0.00343 0.38781 0.0
C1764 C 0.13753 0.0681 0.38929 0.0
C1765 C 0.14773 0.02763 0.37321 0.0
C1766 C 0.15218 0.1207 0.37014 0.0
C1767 C 0.13157 0.14399 0.40271 0.0
N1768 N 0.15142 0.05877 0.37426 0.0
N1769 N 0.13092 0.11402 0.40384 0.0
H1770 H 0.1497 0.17855 0.89779 0.0
H1771 H 0.94969 0.08184 0.8805 0.0
H1772 H 0.08975 0.07197 0.88534 0.0
H1773 H 0.01058 0.18965 0.88764 0.0
H1774 H 1.00006 0.0769 0.88494 0.0
H1775 H 0.09789 0.18203 0.89909 0.0
C1776 C 0.12545 0.15577 0.89591 0.0
C1777 C 0.12357 0.12511 0.89106 0.0
C1778 C 0.00291 0.10172 0.88537 0.0
C1779 C 0.06487 0.1288 0.89214 0.0
C1780 C 0.97387 0.1045 0.88256 0.0
C1781 C 0.97624 0.13618 0.88348 0.0
C1782 C 0.03403 0.13093 0.88919 0.0
C1783 C 0.00815 0.16488 0.88659 0.0
C1784 C 0.09602 0.15777 0.89641 0.0
C1785 C 0.0919 0.09617 0.88872 0.0
N1786 N 0.03581 0.1616 0.88939 0.0
N1787 N 0.06366 0.09877 0.88908 0.0
H1788 H 0.97221 0.15461 0.393 0.0
H1789 H 0.86857 0.95339 0.3988 0.0
H1790 H 0.01979 0.09321 0.39413 0.0
H1791 H 0.82662 0.01374 0.37625 0.0
H1792 H 0.92243 0.005 0.40411 0.0
H1793 H 0.91669 0.10332 0.39501 0.0
C1794 C 0.97072 0.13027 0.39441 0.0
C1795 C 0.99987 0.12767 0.39362 0.0
C1796 C 0.90129 0.00701 0.39836 0.0
C1797 C 0.93726 0.0695 0.39542 0.0
C1798 C 0.87061 0.97759 0.39552 0.0
C1799 C 0.84316 0.97959 0.38764 0.0
C1800 C 0.90449 0.03832 0.39356 0.0
C1801 C 0.84715 0.01147 0.38275 0.0
C1802 C 0.93922 0.10113 0.39526 0.0
C1803 C 0.99713 0.09585 0.39492 0.0
N1804 N 0.87748 0.03967 0.38591 0.0
N1805 N 0.96617 0.06776 0.39566 0.0
H1806 H 0.81795 0.82416 0.87247 0.0
H1807 H 0.92805 0.0202 0.89855 0.0
H1808 H 0.91522 0.86812 0.90175 0.0
H1809 H 0.82112 0.97066 0.88749 0.0
H1810 H 0.92484 0.96476 0.8991 0.0
H1811 H 0.82016 0.87898 0.87501 0.0
C1812 C 0.83983 0.84549 0.87921 0.0
C1813 C 0.86614 0.84184 0.88725 0.0
C1814 C 0.90192 0.96589 0.89696 0.0
C1815 C 0.86885 0.90377 0.89033 0.0
C1816 C 0.90386 0.99727 0.8969 0.0
C1817 C 0.87483 0.99936 0.89321 0.0
C1818 C 0.87086 0.93675 0.89281 0.0
C1819 C 0.84387 0.96966 0.89063 0.0
C1820 C 0.84095 0.8765 0.88088 0.0
C1821 C 0.89414 0.86998 0.89575 0.0
N1822 N 0.8427 0.9394 0.8902 0.0
N1823 N 0.89476 0.89982 0.8971 0.0
loop_
_geom_bond_atom_site_label_1
_geom_bond_atom_site_label_2
_geom_bond_distance
_geom_bond_site_symmetry_2
_ccdc_geom_bond_type
Cd0 O57 2.350 . S
Cd0 O58 2.277 . S
Cd0 O65 2.173 . S
Cd0 O67 2.263 . S
Cd0 O69 2.366 . S
Cd0 O72 2.329 . S
C1 O65 1.277 . S
C1 O66 1.230 . S
C2 O3 1.246 . S
C2 C5 1.481 . S
C2 N27 1.329 . S
O3 C2 1.246 . S
Cd4 O66 2.250 . S
Cd4 O68 2.308 . S
Cd4 O71 2.352 . S
C5 C2 1.481 . S
C5 N8 1.327 . S
C5 C9 1.407 . S
C6 C7 1.346 . S
C6 C10 1.390 . S
C6 H74 0.930 . S
C7 C6 1.346 . S
C7 N8 1.342 . S
C7 C12 1.516 . S
N8 C5 1.327 . S
N8 C7 1.342 . S
N8 Co11 1.864 . S
C9 C5 1.407 . S
C9 C10 1.364 . S
C9 H75 0.930 . S
C10 C6 1.390 . S
C10 C9 1.364 . S
C10 H76 0.931 . S
Co11 N8 1.864 . S
Co11 N27 1.955 . S
Co11 N28 1.958 . S
Co11 N29 1.953 . S
Co11 N47 1.869 . S
Co11 N53 1.974 . S
C12 C7 1.516 . S
C12 O13 1.238 . S
C12 N28 1.324 . S
O13 C12 1.238 . S
C14 C15 1.394 . S
C14 C19 1.395 . S
C14 N28 1.427 . S
C15 C14 1.394 . S
C15 C16 1.380 . S
C15 H77 0.929 . S
C16 C15 1.380 . S
C16 C17 1.384 . S
C16 C20 1.495 . S
C17 C16 1.384 . S
C17 C18 1.382 . S
C17 H78 0.930 . S
C18 C17 1.382 . S
C18 C19 1.398 . S
C19 C14 1.395 . S
C19 C18 1.398 . S
C19 H79 0.930 . S
C20 C16 1.495 . S
C20 O67 1.258 . S
C20 O68 1.274 . S
C21 C22 1.385 . S
C21 C23 1.381 . S
C21 N27 1.432 . S
C22 C21 1.385 . S
C22 C26 1.388 . S
C22 H80 0.929 . S
C23 C21 1.381 . S
C23 C24 1.371 . S
C23 H81 0.932 . S
C24 C23 1.371 . S
C24 C25 1.400 . S
C25 C24 1.400 . S
C25 C26 1.351 . S
C25 H82 0.930 . S
C26 C22 1.388 . S
C26 C25 1.351 . S
N27 C2 1.329 . S
N27 Co11 1.955 . S
N27 C21 1.432 . S
N28 Co11 1.958 . S
N28 C12 1.324 . S
N28 C14 1.427 . S
N29 Co11 1.953 . S
N29 C30 1.436 . S
N29 C56 1.316 . S
C30 N29 1.436 . S
C30 C31 1.421 . S
C30 C32 1.360 . S
C31 C30 1.421 . S
C31 C33 1.379 . S
C31 H34 0.929 . S
C32 C30 1.360 . S
C32 C36 1.393 . S
C32 H38 0.931 . S
C33 C31 1.379 . S
C33 C35 1.417 . S
C33 C37 1.505 . S
H34 C31 0.929 . S
C35 C33 1.417 . S
C35 C36 1.352 . S
C35 H39 0.929 . S
C36 C32 1.393 . S
C36 C35 1.352 . S
C36 C40 1.482 . S
C37 C33 1.505 . S
C37 O41 1.259 . S
C37 O42 1.229 . S
H38 C32 0.931 . S
H39 C35 0.929 . S
C40 C36 1.482 . S
C40 O43 1.207 . S
C40 O44 1.289 . S
O41 C37 1.259 . S
O41 H45 0.822 1_554 S
O42 C37 1.229 . S
O43 C40 1.207 . S
O44 C40 1.289 . S
O44 H46 0.819 . S
H45 O41 0.822 1_556 S
H46 O44 0.819 . S
N47 Co11 1.869 . S
N47 C48 1.330 . S
N47 C52 1.325 . S
C48 N47 1.330 . S
C48 C49 1.359 . S
C48 C54 1.504 . S
C49 C48 1.359 . S
C49 C50 1.366 . S
C49 H83 0.929 . S
C50 C49 1.366 . S
C50 C51 1.415 . S
C50 H84 0.932 . S
C51 C50 1.415 . S
C51 C52 1.366 . S
C51 H85 0.931 . S
C52 N47 1.325 . S
C52 C51 1.366 . S
C52 C56 1.516 . S
N53 Co11 1.974 . S
N53 C54 1.309 . S
N53 C59 1.423 . S
C54 C48 1.504 . S
C54 N53 1.309 . S
C54 O55 1.258 . S
O55 C54 1.258 . S
C56 N29 1.316 . S
C56 C52 1.516 . S
C56 O69 1.263 . S
O57 Cd0 2.350 . S
O57 C73 1.270 . S
O58 Cd0 2.277 . S
O58 C73 1.248 . S
C59 N53 1.423 . S
C59 C60 1.370 . S
C59 C64 1.403 . S
C60 C59 1.370 . S
C60 C61 1.389 . S
C60 H86 0.931 . S
C61 C60 1.389 . S
C61 C62 1.389 . S
C62 C61 1.389 . S
C62 C63 1.379 . S
C62 H87 0.929 . S
C63 C62 1.379 . S
C63 C64 1.405 . S
C64 C59 1.403 . S
C64 C63 1.405 . S
C64 H88 0.932 . S
O65 Cd0 2.173 . S
O65 C1 1.277 . S
O66 C1 1.230 . S
O66 Cd4 2.250 . S
O67 Cd0 2.263 . S
O67 C20 1.258 . S
O68 Cd4 2.308 . S
O68 C20 1.274 . S
O69 Cd0 2.366 . S
O69 C56 1.263 . S
C70 O71 1.235 . S
C70 O72 1.270 . S
O71 Cd4 2.352 . S
O71 C70 1.235 . S
O72 Cd0 2.329 . S
O72 C70 1.270 . S
C73 O57 1.270 . S
C73 O58 1.248 . S
H74 C6 0.930 . S
H75 C9 0.930 . S
H76 C10 0.931 . S
H77 C15 0.929 . S
H78 C17 0.930 . S
H79 C19 0.930 . S
H80 C22 0.929 . S
H81 C23 0.932 . S
H82 C25 0.930 . S
H83 C49 0.929 . S
H84 C50 0.932 . S
H85 C51 0.931 . S
H86 C60 0.931 . S
H87 C62 0.929 . S
H88 C64 0.932 . S
Cd89 O146 2.350 . S
Cd89 O147 2.277 . S
Cd89 O154 2.173 . S
Cd89 O156 2.263 . S
Cd89 O158 2.366 . S
Cd89 O161 2.329 . S
C90 O154 1.277 . S
C90 O155 1.230 . S
C91 O92 1.246 . S
C91 C94 1.481 . S
C91 N116 1.329 . S
O92 C91 1.246 . S
Cd93 O155 2.250 . S
Cd93 O157 2.308 . S
Cd93 O160 2.352 . S
C94 C91 1.481 . S
C94 N97 1.327 . S
C94 C98 1.407 . S
C95 C96 1.346 . S
C95 C99 1.390 . S
C95 H163 0.930 . S
C96 C95 1.346 . S
C96 N97 1.342 . S
C96 C101 1.516 . S
N97 C94 1.327 . S
N97 C96 1.342 . S
N97 Co100 1.864 . S
C98 C94 1.407 . S
C98 C99 1.364 . S
C98 H164 0.930 . S
C99 C95 1.390 . S
C99 C98 1.364 . S
C99 H165 0.931 . S
Co100 N97 1.864 . S
Co100 N116 1.955 . S
Co100 N117 1.958 . S
Co100 N118 1.953 . S
Co100 N136 1.869 . S
Co100 N142 1.974 . S
C101 C96 1.516 . S
C101 O102 1.238 . S
C101 N117 1.324 . S
O102 C101 1.238 . S
C103 C104 1.394 . S
C103 C108 1.395 . S
C103 N117 1.427 . S
C104 C103 1.394 . S
C104 C105 1.380 . S
C104 H166 0.929 . S
C105 C104 1.380 . S
C105 C106 1.384 . S
C105 C109 1.495 . S
C106 C105 1.384 . S
C106 C107 1.382 . S
C106 H167 0.930 . S
C107 C106 1.382 . S
C107 C108 1.398 . S
C108 C103 1.395 . S
C108 C107 1.398 . S
C108 H168 0.930 . S
C109 C105 1.495 . S
C109 O156 1.258 . S
C109 O157 1.274 . S
C110 C111 1.385 . S
C110 C112 1.381 . S
C110 N116 1.432 . S
C111 C110 1.385 . S
C111 C115 1.388 . S
C111 H169 0.929 . S
C112 C110 1.381 . S
C112 C113 1.371 . S
C112 H170 0.932 . S
C113 C112 1.371 . S
C113 C114 1.400 . S
C114 C113 1.400 . S
C114 C115 1.351 . S
C114 H171 0.930 . S
C115 C111 1.388 . S
C115 C114 1.351 . S
N116 C91 1.329 . S
N116 Co100 1.955 . S
N116 C110 1.432 . S
N117 Co100 1.958 . S
N117 C101 1.324 . S
N117 C103 1.427 . S
N118 Co100 1.953 . S
N118 C119 1.436 . S
N118 C145 1.316 . S
C119 N118 1.436 . S
C119 C120 1.421 . S
C119 C121 1.360 . S
C120 C119 1.421 . S
C120 C122 1.379 . S
C120 H123 0.929 . S
C121 C119 1.360 . S
C121 C125 1.393 . S
C121 H127 0.931 . S
C122 C120 1.379 . S
C122 C124 1.417 . S
C122 C126 1.505 . S
H123 C120 0.929 . S
C124 C122 1.417 . S
C124 C125 1.352 . S
C124 H128 0.929 . S
C125 C121 1.393 . S
C125 C124 1.352 . S
C125 C129 1.482 . S
C126 C122 1.505 . S
C126 O130 1.259 . S
C126 O131 1.229 . S
H127 C121 0.931 . S
H128 C124 0.929 . S
C129 C125 1.482 . S
C129 O132 1.207 . S
C129 O133 1.289 . S
O130 C126 1.259 . S
O130 H134 0.822 . S
O131 C126 1.229 . S
O132 C129 1.207 . S
O133 C129 1.289 . S
O133 H135 0.819 . S
H134 O130 0.822 . S
H135 O133 0.819 . S
N136 Co100 1.869 . S
N136 C137 1.330 . S
N136 C141 1.325 . S
C137 N136 1.330 . S
C137 C138 1.359 . S
C137 C143 1.504 . S
C138 C137 1.359 . S
C138 C139 1.366 . S
C138 H172 0.929 . S
C139 C138 1.366 . S
C139 C140 1.415 . S
C139 H173 0.932 . S
C140 C139 1.415 . S
C140 C141 1.366 . S
C140 H174 0.931 . S
C141 N136 1.325 . S
C141 C140 1.366 . S
C141 C145 1.516 . S
N142 Co100 1.974 . S
N142 C143 1.309 . S
N142 C148 1.423 . S
C143 C137 1.504 . S
C143 N142 1.309 . S
C143 O144 1.258 . S
O144 C143 1.258 . S
C145 N118 1.316 . S
C145 C141 1.516 . S
C145 O158 1.263 . S
O146 Cd89 2.350 . S
O146 C162 1.270 . S
O147 Cd89 2.277 . S
O147 C162 1.248 . S
C148 N142 1.423 . S
C148 C149 1.370 . S
C148 C153 1.403 . S
C149 C148 1.370 . S
C149 C150 1.389 . S
C149 H175 0.931 . S
C150 C149 1.389 . S
C150 C151 1.389 . S
C151 C150 1.389 . S
C151 C152 1.379 . S
C151 H176 0.929 . S
C152 C151 1.379 . S
C152 C153 1.405 . S
C153 C148 1.403 . S
C153 C152 1.405 . S
C153 H177 0.932 . S
O154 Cd89 2.173 . S
O154 C90 1.277 . S
O155 C90 1.230 . S
O155 Cd93 2.250 . S
O156 Cd89 2.263 . S
O156 C109 1.258 . S
O157 Cd93 2.308 . S
O157 C109 1.274 . S
O158 Cd89 2.366 . S
O158 C145 1.263 . S
C159 O160 1.235 . S
C159 O161 1.270 . S
O160 Cd93 2.352 . S
O160 C159 1.235 . S
O161 Cd89 2.329 . S
O161 C159 1.270 . S
C162 O146 1.270 . S
C162 O147 1.248 . S
H163 C95 0.930 . S
H164 C98 0.930 . S
H165 C99 0.931 . S
H166 C104 0.929 . S
H167 C106 0.930 . S
H168 C108 0.930 . S
H169 C111 0.929 . S
H170 C112 0.932 . S
H171 C114 0.930 . S
H172 C138 0.929 . S
H173 C139 0.932 . S
H174 C140 0.931 . S
H175 C149 0.931 . S
H176 C151 0.929 . S
H177 C153 0.932 . S
Cd178 O235 2.350 . S
Cd178 O236 2.277 . S
Cd178 O243 2.173 . S
Cd178 O245 2.263 . S
Cd178 O247 2.366 . S
Cd178 O250 2.329 . S
C179 O243 1.277 . S
C179 O244 1.230 . S
C180 O181 1.246 . S
C180 C183 1.481 . S
C180 N205 1.329 . S
O181 C180 1.246 . S
Cd182 O244 2.250 . S
Cd182 O246 2.308 . S
Cd182 O249 2.352 . S
C183 C180 1.481 . S
C183 N186 1.327 . S
C183 C187 1.407 . S
C184 C185 1.346 . S
C184 C188 1.390 . S
C184 H252 0.930 . S
C185 C184 1.346 . S
C185 N186 1.342 . S
C185 C190 1.516 . S
N186 C183 1.327 . S
N186 C185 1.342 . S
N186 Co189 1.864 . S
C187 C183 1.407 . S
C187 C188 1.364 . S
C187 H253 0.930 . S
C188 C184 1.390 . S
C188 C187 1.364 . S
C188 H254 0.931 . S
Co189 N186 1.864 . S
Co189 N205 1.955 . S
Co189 N206 1.958 . S
Co189 N207 1.953 . S
Co189 N225 1.869 . S
Co189 N231 1.974 . S
C190 C185 1.516 . S
C190 O191 1.238 . S
C190 N206 1.324 . S
O191 C190 1.238 . S
C192 C193 1.394 . S
C192 C197 1.395 . S
C192 N206 1.427 . S
C193 C192 1.394 . S
C193 C194 1.380 . S
C193 H255 0.929 . S
C194 C193 1.380 . S
C194 C195 1.384 . S
C194 C198 1.495 . S
C195 C194 1.384 . S
C195 C196 1.382 . S
C195 H256 0.930 . S
C196 C195 1.382 . S
C196 C197 1.398 . S
C197 C192 1.395 . S
C197 C196 1.398 . S
C197 H257 0.930 . S
C198 C194 1.495 . S
C198 O245 1.258 . S
C198 O246 1.274 . S
C199 C200 1.385 . S
C199 C201 1.381 . S
C199 N205 1.432 . S
C200 C199 1.385 . S
C200 C204 1.388 . S
C200 H258 0.929 . S
C201 C199 1.381 . S
C201 C202 1.371 . S
C201 H259 0.932 . S
C202 C201 1.371 . S
C202 C203 1.400 . S
C203 C202 1.400 . S
C203 C204 1.351 . S
C203 H260 0.930 . S
C204 C200 1.388 . S
C204 C203 1.351 . S
N205 C180 1.329 . S
N205 Co189 1.955 . S
N205 C199 1.432 . S
N206 Co189 1.958 . S
N206 C190 1.324 . S
N206 C192 1.427 . S
N207 Co189 1.953 . S
N207 C208 1.436 . S
N207 C234 1.316 . S
C208 N207 1.436 . S
C208 C209 1.421 . S
C208 C210 1.360 . S
C209 C208 1.421 . S
C209 C211 1.379 . S
C209 H212 0.929 . S
C210 C208 1.360 . S
C210 C214 1.393 . S
C210 H216 0.931 . S
C211 C209 1.379 . S
C211 C213 1.417 . S
C211 C215 1.505 . S
H212 C209 0.929 . S
C213 C211 1.417 . S
C213 C214 1.352 . S
C213 H217 0.929 . S
C214 C210 1.393 . S
C214 C213 1.352 . S
C214 C218 1.482 . S
C215 C211 1.505 . S
C215 O219 1.259 . S
C215 O220 1.229 . S
H216 C210 0.931 . S
H217 C213 0.929 . S
C218 C214 1.482 . S
C218 O221 1.207 . S
C218 O222 1.289 . S
O219 C215 1.259 . S
O219 H223 0.822 1_554 S
O220 C215 1.229 . S
O221 C218 1.207 . S
O222 C218 1.289 . S
O222 H224 0.819 . S
H223 O219 0.822 1_556 S
H224 O222 0.819 . S
N225 Co189 1.869 . S
N225 C226 1.330 . S
N225 C230 1.325 . S
C226 N225 1.330 . S
C226 C227 1.359 . S
C226 C232 1.504 . S
C227 C226 1.359 . S
C227 C228 1.366 . S
C227 H261 0.929 . S
C228 C227 1.366 . S
C228 C229 1.415 . S
C228 H262 0.932 . S
C229 C228 1.415 . S
C229 C230 1.366 . S
C229 H263 0.931 . S
C230 N225 1.325 . S
C230 C229 1.366 . S
C230 C234 1.516 . S
N231 Co189 1.974 . S
N231 C232 1.309 . S
N231 C237 1.423 . S
C232 C226 1.504 . S
C232 N231 1.309 . S
C232 O233 1.258 . S
O233 C232 1.258 . S
C234 N207 1.316 . S
C234 C230 1.516 . S
C234 O247 1.263 . S
O235 Cd178 2.350 . S
O235 C251 1.270 . S
O236 Cd178 2.277 . S
O236 C251 1.248 . S
C237 N231 1.423 . S
C237 C238 1.370 . S
C237 C242 1.403 . S
C238 C237 1.370 . S
C238 C239 1.389 . S
C238 H264 0.931 . S
C239 C238 1.389 . S
C239 C240 1.389 . S
C240 C239 1.389 . S
C240 C241 1.379 . S
C240 H265 0.929 . S
C241 C240 1.379 . S
C241 C242 1.405 . S
C242 C237 1.403 . S
C242 C241 1.405 . S
C242 H266 0.932 . S
O243 Cd178 2.173 . S
O243 C179 1.277 . S
O244 C179 1.230 . S
O244 Cd182 2.250 . S
O245 Cd178 2.263 . S
O245 C198 1.258 . S
O246 Cd182 2.308 . S
O246 C198 1.274 . S
O247 Cd178 2.366 . S
O247 C234 1.263 . S
C248 O249 1.235 . S
C248 O250 1.270 . S
O249 Cd182 2.352 . S
O249 C248 1.235 . S
O250 Cd178 2.329 . S
O250 C248 1.270 . S
C251 O235 1.270 . S
C251 O236 1.248 . S
H252 C184 0.930 . S
H253 C187 0.930 . S
H254 C188 0.931 . S
H255 C193 0.929 . S
H256 C195 0.930 . S
H257 C197 0.930 . S
H258 C200 0.929 . S
H259 C201 0.932 . S
H260 C203 0.930 . S
H261 C227 0.929 . S
H262 C228 0.932 . S
H263 C229 0.931 . S
H264 C238 0.931 . S
H265 C240 0.929 . S
H266 C242 0.932 . S
Cd267 O324 2.350 . S
Cd267 O325 2.277 . S
Cd267 O332 2.173 . S
Cd267 O334 2.263 . S
Cd267 O336 2.366 . S
Cd267 O339 2.329 . S
C268 O332 1.277 . S
C268 O333 1.230 . S
C269 O270 1.246 . S
C269 C272 1.481 . S
C269 N294 1.329 . S
O270 C269 1.246 . S
Cd271 O333 2.250 . S
Cd271 O335 2.308 . S
Cd271 O338 2.352 . S
C272 C269 1.481 . S
C272 N275 1.327 . S
C272 C276 1.407 . S
C273 C274 1.346 . S
C273 C277 1.390 . S
C273 H341 0.930 . S
C274 C273 1.346 . S
C274 N275 1.342 . S
C274 C279 1.516 . S
N275 C272 1.327 . S
N275 C274 1.342 . S
N275 Co278 1.864 . S
C276 C272 1.407 . S
C276 C277 1.364 . S
C276 H342 0.930 . S
C277 C273 1.390 . S
C277 C276 1.364 . S
C277 H343 0.931 . S
Co278 N275 1.864 . S
Co278 N294 1.955 . S
Co278 N295 1.958 . S
Co278 N296 1.953 . S
Co278 N314 1.869 . S
Co278 N320 1.974 . S
C279 C274 1.516 . S
C279 O280 1.238 . S
C279 N295 1.324 . S
O280 C279 1.238 . S
C281 C282 1.394 . S
C281 C286 1.395 . S
C281 N295 1.427 . S
C282 C281 1.394 . S
C282 C283 1.380 . S
C282 H344 0.929 . S
C283 C282 1.380 . S
C283 C284 1.384 . S
C283 C287 1.495 . S
C284 C283 1.384 . S
C284 C285 1.382 . S
C284 H345 0.930 . S
C285 C284 1.382 . S
C285 C286 1.398 . S
C286 C281 1.395 . S
C286 C285 1.398 . S
C286 H346 0.930 . S
C287 C283 1.495 . S
C287 O334 1.258 . S
C287 O335 1.274 . S
C288 C289 1.385 . S
C288 C290 1.381 . S
C288 N294 1.432 . S
C289 C288 1.385 . S
C289 C293 1.388 . S
C289 H347 0.929 . S
C290 C288 1.381 . S
C290 C291 1.371 . S
C290 H348 0.932 . S
C291 C290 1.371 . S
C291 C292 1.400 . S
C292 C291 1.400 . S
C292 C293 1.351 . S
C292 H349 0.930 . S
C293 C289 1.388 . S
C293 C292 1.351 . S
N294 C269 1.329 . S
N294 Co278 1.955 . S
N294 C288 1.432 . S
N295 Co278 1.958 . S
N295 C279 1.324 . S
N295 C281 1.427 . S
N296 Co278 1.953 . S
N296 C297 1.436 . S
N296 C323 1.316 . S
C297 N296 1.436 . S
C297 C298 1.421 . S
C297 C299 1.360 . S
C298 C297 1.421 . S
C298 C300 1.379 . S
C298 H301 0.929 . S
C299 C297 1.360 . S
C299 C303 1.393 . S
C299 H305 0.931 . S
C300 C298 1.379 . S
C300 C302 1.417 . S
C300 C304 1.505 . S
H301 C298 0.929 . S
C302 C300 1.417 . S
C302 C303 1.352 . S
C302 H306 0.929 . S
C303 C299 1.393 . S
C303 C302 1.352 . S
C303 C307 1.482 . S
C304 C300 1.505 . S
C304 O308 1.259 . S
C304 O309 1.229 . S
H305 C299 0.931 . S
H306 C302 0.929 . S
C307 C303 1.482 . S
C307 O310 1.207 . S
C307 O311 1.289 . S
O308 C304 1.259 . S
O308 H312 0.822 . S
O309 C304 1.229 . S
O310 C307 1.207 . S
O311 C307 1.289 . S
O311 H313 0.819 . S
H312 O308 0.822 . S
H313 O311 0.819 . S
N314 Co278 1.869 . S
N314 C315 1.330 . S
N314 C319 1.325 . S
C315 N314 1.330 . S
C315 C316 1.359 . S
C315 C321 1.504 . S
C316 C315 1.359 . S
C316 C317 1.366 . S
C316 H350 0.929 . S
C317 C316 1.366 . S
C317 C318 1.415 . S
C317 H351 0.932 . S
C318 C317 1.415 . S
C318 C319 1.366 . S
C318 H352 0.931 . S
C319 N314 1.325 . S
C319 C318 1.366 . S
C319 C323 1.516 . S
N320 Co278 1.974 . S
N320 C321 1.309 . S
N320 C326 1.423 . S
C321 C315 1.504 . S
C321 N320 1.309 . S
C321 O322 1.258 . S
O322 C321 1.258 . S
C323 N296 1.316 . S
C323 C319 1.516 . S
C323 O336 1.263 . S
O324 Cd267 2.350 . S
O324 C340 1.270 . S
O325 Cd267 2.277 . S
O325 C340 1.248 . S
C326 N320 1.423 . S
C326 C327 1.370 . S
C326 C331 1.403 . S
C327 C326 1.370 . S
C327 C328 1.389 . S
C327 H353 0.931 . S
C328 C327 1.389 . S
C328 C329 1.389 . S
C329 C328 1.389 . S
C329 C330 1.379 . S
C329 H354 0.929 . S
C330 C329 1.379 . S
C330 C331 1.405 . S
C331 C326 1.403 . S
C331 C330 1.405 . S
C331 H355 0.932 . S
O332 Cd267 2.173 . S
O332 C268 1.277 . S
O333 C268 1.230 . S
O333 Cd271 2.250 . S
O334 Cd267 2.263 . S
O334 C287 1.258 . S
O335 Cd271 2.308 . S
O335 C287 1.274 . S
O336 Cd267 2.366 . S
O336 C323 1.263 . S
C337 O338 1.235 . S
C337 O339 1.270 . S
O338 Cd271 2.352 . S
O338 C337 1.235 . S
O339 Cd267 2.329 . S
O339 C337 1.270 . S
C340 O324 1.270 . S
C340 O325 1.248 . S
H341 C273 0.930 . S
H342 C276 0.930 . S
H343 C277 0.931 . S
H344 C282 0.929 . S
H345 C284 0.930 . S
H346 C286 0.930 . S
H347 C289 0.929 . S
H348 C290 0.932 . S
H349 C292 0.930 . S
H350 C316 0.929 . S
H351 C317 0.932 . S
H352 C318 0.931 . S
H353 C327 0.931 . S
H354 C329 0.929 . S
H355 C331 0.932 . S
Cd356 O413 2.350 . S
Cd356 O414 2.277 . S
Cd356 O421 2.173 . S
Cd356 O423 2.263 . S
Cd356 O425 2.366 . S
Cd356 O428 2.329 . S
C357 O421 1.277 . S
C357 O422 1.230 . S
C358 O359 1.246 . S
C358 C361 1.481 . S
C358 N383 1.329 . S
O359 C358 1.246 . S
Cd360 O422 2.250 . S
Cd360 O424 2.308 . S
Cd360 O427 2.352 . S
C361 C358 1.481 . S
C361 N364 1.327 . S
C361 C365 1.407 . S
C362 C363 1.346 . S
C362 C366 1.390 . S
C362 H430 0.930 . S
C363 C362 1.346 . S
C363 N364 1.342 . S
C363 C368 1.516 . S
N364 C361 1.327 . S
N364 C363 1.342 . S
N364 Co367 1.864 . S
C365 C361 1.407 . S
C365 C366 1.364 . S
C365 H431 0.930 . S
C366 C362 1.390 . S
C366 C365 1.364 . S
C366 H432 0.931 . S
Co367 N364 1.864 . S
Co367 N383 1.955 . S
Co367 N384 1.958 . S
Co367 N385 1.953 . S
Co367 N403 1.869 . S
Co367 N409 1.974 . S
C368 C363 1.516 . S
C368 O369 1.238 . S
C368 N384 1.324 . S
O369 C368 1.238 . S
C370 C371 1.394 . S
C370 C375 1.395 . S
C370 N384 1.427 . S
C371 C370 1.394 . S
C371 C372 1.380 . S
C371 H433 0.929 . S
C372 C371 1.380 . S
C372 C373 1.384 . S
C372 C376 1.495 . S
C373 C372 1.384 . S
C373 C374 1.382 . S
C373 H434 0.930 . S
C374 C373 1.382 . S
C374 C375 1.398 . S
C375 C370 1.395 . S
C375 C374 1.398 . S
C375 H435 0.930 . S
C376 C372 1.495 . S
C376 O423 1.258 . S
C376 O424 1.274 . S
C377 C378 1.385 . S
C377 C379 1.381 . S
C377 N383 1.432 . S
C378 C377 1.385 . S
C378 C382 1.388 . S
C378 H436 0.929 . S
C379 C377 1.381 . S
C379 C380 1.371 . S
C379 H437 0.932 . S
C380 C379 1.371 . S
C380 C381 1.400 . S
C381 C380 1.400 . S
C381 C382 1.351 . S
C381 H438 0.930 . S
C382 C378 1.388 . S
C382 C381 1.351 . S
N383 C358 1.329 . S
N383 Co367 1.955 . S
N383 C377 1.432 . S
N384 Co367 1.958 . S
N384 C368 1.324 . S
N384 C370 1.427 . S
N385 Co367 1.953 . S
N385 C386 1.436 . S
N385 C412 1.316 . S
C386 N385 1.436 . S
C386 C387 1.421 . S
C386 C388 1.360 . S
C387 C386 1.421 . S
C387 C389 1.379 . S
C387 H390 0.929 . S
C388 C386 1.360 . S
C388 C392 1.393 . S
C388 H394 0.931 . S
C389 C387 1.379 . S
C389 C391 1.417 . S
C389 C393 1.505 . S
H390 C387 0.929 . S
C391 C389 1.417 . S
C391 C392 1.352 . S
C391 H395 0.929 . S
C392 C388 1.393 . S
C392 C391 1.352 . S
C392 C396 1.482 . S
C393 C389 1.505 . S
C393 O397 1.259 . S
C393 O398 1.229 . S
H394 C388 0.931 . S
H395 C391 0.929 . S
C396 C392 1.482 . S
C396 O399 1.207 . S
C396 O400 1.289 . S
O397 C393 1.259 . S
O397 H401 0.822 1_554 S
O398 C393 1.229 . S
O399 C396 1.207 . S
O400 C396 1.289 . S
O400 H402 0.819 . S
H401 O397 0.822 1_556 S
H402 O400 0.819 . S
N403 Co367 1.869 . S
N403 C404 1.330 . S
N403 C408 1.325 . S
C404 N403 1.330 . S
C404 C405 1.359 . S
C404 C410 1.504 . S
C405 C404 1.359 . S
C405 C406 1.366 . S
C405 H439 0.929 . S
C406 C405 1.366 . S
C406 C407 1.415 . S
C406 H440 0.932 . S
C407 C406 1.415 . S
C407 C408 1.366 . S
C407 H441 0.931 . S
C408 N403 1.325 . S
C408 C407 1.366 . S
C408 C412 1.516 . S
N409 Co367 1.974 . S
N409 C410 1.309 . S
N409 C415 1.423 . S
C410 C404 1.504 . S
C410 N409 1.309 . S
C410 O411 1.258 . S
O411 C410 1.258 . S
C412 N385 1.316 . S
C412 C408 1.516 . S
C412 O425 1.263 . S
O413 Cd356 2.350 . S
O413 C429 1.270 . S
O414 Cd356 2.277 . S
O414 C429 1.248 . S
C415 N409 1.423 . S
C415 C416 1.370 . S
C415 C420 1.403 . S
C416 C415 1.370 . S
C416 C417 1.389 . S
C416 H442 0.931 . S
C417 C416 1.389 . S
C417 C418 1.389 . S
C418 C417 1.389 . S
C418 C419 1.379 . S
C418 H443 0.929 . S
C419 C418 1.379 . S
C419 C420 1.405 . S
C420 C415 1.403 . S
C420 C419 1.405 . S
C420 H444 0.932 . S
O421 Cd356 2.173 . S
O421 C357 1.277 . S
O422 C357 1.230 . S
O422 Cd360 2.250 . S
O423 Cd356 2.263 . S
O423 C376 1.258 . S
O424 Cd360 2.308 . S
O424 C376 1.274 . S
O425 Cd356 2.366 . S
O425 C412 1.263 . S
C426 O427 1.235 . S
C426 O428 1.270 . S
O427 Cd360 2.352 . S
O427 C426 1.235 . S
O428 Cd356 2.329 . S
O428 C426 1.270 . S
C429 O413 1.270 . S
C429 O414 1.248 . S
H430 C362 0.930 . S
H431 C365 0.930 . S
H432 C366 0.931 . S
H433 C371 0.929 . S
H434 C373 0.930 . S
H435 C375 0.930 . S
H436 C378 0.929 . S
H437 C379 0.932 . S
H438 C381 0.930 . S
H439 C405 0.929 . S
H440 C406 0.932 . S
H441 C407 0.931 . S
H442 C416 0.931 . S
H443 C418 0.929 . S
H444 C420 0.932 . S
Cd445 O502 2.350 . S
Cd445 O503 2.277 . S
Cd445 O510 2.173 . S
Cd445 O512 2.263 . S
Cd445 O514 2.366 . S
Cd445 O517 2.329 . S
C446 O510 1.277 . S
C446 O511 1.230 . S
C447 O448 1.246 . S
C447 C450 1.481 . S
C447 N472 1.329 . S
O448 C447 1.246 . S
Cd449 O511 2.250 . S
Cd449 O513 2.308 . S
Cd449 O516 2.352 . S
C450 C447 1.481 . S
C450 N453 1.327 . S
C450 C454 1.407 . S
C451 C452 1.346 . S
C451 C455 1.390 . S
C451 H519 0.930 . S
C452 C451 1.346 . S
C452 N453 1.342 . S
C452 C457 1.516 . S
N453 C450 1.327 . S
N453 C452 1.342 . S
N453 Co456 1.864 . S
C454 C450 1.407 . S
C454 C455 1.364 . S
C454 H520 0.930 . S
C455 C451 1.390 . S
C455 C454 1.364 . S
C455 H521 0.931 . S
Co456 N453 1.864 . S
Co456 N472 1.955 . S
Co456 N473 1.958 . S
Co456 N474 1.953 . S
Co456 N492 1.869 . S
Co456 N498 1.974 . S
C457 C452 1.516 . S
C457 O458 1.238 . S
C457 N473 1.324 . S
O458 C457 1.238 . S
C459 C460 1.394 . S
C459 C464 1.395 . S
C459 N473 1.427 . S
C460 C459 1.394 . S
C460 C461 1.380 . S
C460 H522 0.929 . S
C461 C460 1.380 . S
C461 C462 1.384 . S
C461 C465 1.495 . S
C462 C461 1.384 . S
C462 C463 1.382 . S
C462 H523 0.930 . S
C463 C462 1.382 . S
C463 C464 1.398 . S
C464 C459 1.395 . S
C464 C463 1.398 . S
C464 H524 0.930 . S
C465 C461 1.495 . S
C465 O512 1.258 . S
C465 O513 1.274 . S
C466 C467 1.385 . S
C466 C468 1.381 . S
C466 N472 1.432 . S
C467 C466 1.385 . S
C467 C471 1.388 . S
C467 H525 0.929 . S
C468 C466 1.381 . S
C468 C469 1.371 . S
C468 H526 0.932 . S
C469 C468 1.371 . S
C469 C470 1.400 . S
C470 C469 1.400 . S
C470 C471 1.351 . S
C470 H527 0.930 . S
C471 C467 1.388 . S
C471 C470 1.351 . S
N472 C447 1.329 . S
N472 Co456 1.955 . S
N472 C466 1.432 . S
N473 Co456 1.958 . S
N473 C457 1.324 . S
N473 C459 1.427 . S
N474 Co456 1.953 . S
N474 C475 1.436 . S
N474 C501 1.316 . S
C475 N474 1.436 . S
C475 C476 1.421 . S
C475 C477 1.360 . S
C476 C475 1.421 . S
C476 C478 1.379 . S
C476 H479 0.929 . S
C477 C475 1.360 . S
C477 C481 1.393 . S
C477 H483 0.931 . S
C478 C476 1.379 . S
C478 C480 1.417 . S
C478 C482 1.505 . S
H479 C476 0.929 . S
C480 C478 1.417 . S
C480 C481 1.352 . S
C480 H484 0.929 . S
C481 C477 1.393 . S
C481 C480 1.352 . S
C481 C485 1.482 . S
C482 C478 1.505 . S
C482 O486 1.259 . S
C482 O487 1.229 . S
H483 C477 0.931 . S
H484 C480 0.929 . S
C485 C481 1.482 . S
C485 O488 1.207 . S
C485 O489 1.289 . S
O486 C482 1.259 . S
O486 H490 0.822 . S
O487 C482 1.229 . S
O488 C485 1.207 . S
O489 C485 1.289 . S
O489 H491 0.819 . S
H490 O486 0.822 . S
H491 O489 0.819 . S
N492 Co456 1.869 . S
N492 C493 1.330 . S
N492 C497 1.325 . S
C493 N492 1.330 . S
C493 C494 1.359 . S
C493 C499 1.504 . S
C494 C493 1.359 . S
C494 C495 1.366 . S
C494 H528 0.929 . S
C495 C494 1.366 . S
C495 C496 1.415 . S
C495 H529 0.932 . S
C496 C495 1.415 . S
C496 C497 1.366 . S
C496 H530 0.931 . S
C497 N492 1.325 . S
C497 C496 1.366 . S
C497 C501 1.516 . S
N498 Co456 1.974 . S
N498 C499 1.309 . S
N498 C504 1.423 . S
C499 C493 1.504 . S
C499 N498 1.309 . S
C499 O500 1.258 . S
O500 C499 1.258 . S
C501 N474 1.316 . S
C501 C497 1.516 . S
C501 O514 1.263 . S
O502 Cd445 2.350 . S
O502 C518 1.270 . S
O503 Cd445 2.277 . S
O503 C518 1.248 . S
C504 N498 1.423 . S
C504 C505 1.370 . S
C504 C509 1.403 . S
C505 C504 1.370 . S
C505 C506 1.389 . S
C505 H531 0.931 . S
C506 C505 1.389 . S
C506 C507 1.389 . S
C507 C506 1.389 . S
C507 C508 1.379 . S
C507 H532 0.929 . S
C508 C507 1.379 . S
C508 C509 1.405 . S
C509 C504 1.403 . S
C509 C508 1.405 . S
C509 H533 0.932 . S
O510 Cd445 2.173 . S
O510 C446 1.277 . S
O511 C446 1.230 . S
O511 Cd449 2.250 . S
O512 Cd445 2.263 . S
O512 C465 1.258 . S
O513 Cd449 2.308 . S
O513 C465 1.274 . S
O514 Cd445 2.366 . S
O514 C501 1.263 . S
C515 O516 1.235 . S
C515 O517 1.270 . S
O516 Cd449 2.352 . S
O516 C515 1.235 . S
O517 Cd445 2.329 . S
O517 C515 1.270 . S
C518 O502 1.270 . S
C518 O503 1.248 . S
H519 C451 0.930 . S
H520 C454 0.930 . S
H521 C455 0.931 . S
H522 C460 0.929 . S
H523 C462 0.930 . S
H524 C464 0.930 . S
H525 C467 0.929 . S
H526 C468 0.932 . S
H527 C470 0.930 . S
H528 C494 0.929 . S
H529 C495 0.932 . S
H530 C496 0.931 . S
H531 C505 0.931 . S
H532 C507 0.929 . S
H533 C509 0.932 . S
Cd534 O591 2.350 . S
Cd534 O592 2.277 . S
Cd534 O599 2.173 . S
Cd534 O601 2.263 . S
Cd534 O603 2.366 . S
Cd534 O606 2.329 . S
C535 O599 1.277 . S
C535 O600 1.230 . S
C536 O537 1.246 . S
C536 C539 1.481 . S
C536 N561 1.329 . S
O537 C536 1.246 . S
Cd538 O600 2.250 . S
Cd538 O602 2.308 . S
Cd538 O605 2.352 . S
C539 C536 1.481 . S
C539 N542 1.327 . S
C539 C543 1.407 . S
C540 C541 1.346 . S
C540 C544 1.390 . S
C540 H608 0.930 . S
C541 C540 1.346 . S
C541 N542 1.342 . S
C541 C546 1.516 . S
N542 C539 1.327 . S
N542 C541 1.342 . S
N542 Co545 1.864 . S
C543 C539 1.407 . S
C543 C544 1.364 . S
C543 H609 0.930 . S
C544 C540 1.390 . S
C544 C543 1.364 . S
C544 H610 0.931 . S
Co545 N542 1.864 . S
Co545 N561 1.955 . S
Co545 N562 1.958 . S
Co545 N563 1.953 . S
Co545 N581 1.869 . S
Co545 N587 1.974 . S
C546 C541 1.516 . S
C546 O547 1.238 . S
C546 N562 1.324 . S
O547 C546 1.238 . S
C548 C549 1.394 . S
C548 C553 1.395 . S
C548 N562 1.427 . S
C549 C548 1.394 . S
C549 C550 1.380 . S
C549 H611 0.929 . S
C550 C549 1.380 . S
C550 C551 1.384 . S
C550 C554 1.495 . S
C551 C550 1.384 . S
C551 C552 1.382 . S
C551 H612 0.930 . S
C552 C551 1.382 . S
C552 C553 1.398 . S
C553 C548 1.395 . S
C553 C552 1.398 . S
C553 H613 0.930 . S
C554 C550 1.495 . S
C554 O601 1.258 . S
C554 O602 1.274 . S
C555 C556 1.385 . S
C555 C557 1.381 . S
C555 N561 1.432 . S
C556 C555 1.385 . S
C556 C560 1.388 . S
C556 H614 0.929 . S
C557 C555 1.381 . S
C557 C558 1.371 . S
C557 H615 0.932 . S
C558 C557 1.371 . S
C558 C559 1.400 . S
C559 C558 1.400 . S
C559 C560 1.351 . S
C559 H616 0.930 . S
C560 C556 1.388 . S
C560 C559 1.351 . S
N561 C536 1.329 . S
N561 Co545 1.955 . S
N561 C555 1.432 . S
N562 Co545 1.958 . S
N562 C546 1.324 . S
N562 C548 1.427 . S
N563 Co545 1.953 . S
N563 C564 1.436 . S
N563 C590 1.316 . S
C564 N563 1.436 . S
C564 C565 1.421 . S
C564 C566 1.360 . S
C565 C564 1.421 . S
C565 C567 1.379 . S
C565 H568 0.929 . S
C566 C564 1.360 . S
C566 C570 1.393 . S
C566 H572 0.931 . S
C567 C565 1.379 . S
C567 C569 1.417 . S
C567 C571 1.505 . S
H568 C565 0.929 . S
C569 C567 1.417 . S
C569 C570 1.352 . S
C569 H573 0.929 . S
C570 C566 1.393 . S
C570 C569 1.352 . S
C570 C574 1.482 . S
C571 C567 1.505 . S
C571 O575 1.259 . S
C571 O576 1.229 . S
H572 C566 0.931 . S
H573 C569 0.929 . S
C574 C570 1.482 . S
C574 O577 1.207 . S
C574 O578 1.289 . S
O575 C571 1.259 . S
O575 H579 0.822 . S
O576 C571 1.229 . S
O577 C574 1.207 . S
O578 C574 1.289 . S
O578 H580 0.819 . S
H579 O575 0.822 . S
H580 O578 0.819 . S
N581 Co545 1.869 . S
N581 C582 1.330 . S
N581 C586 1.325 . S
C582 N581 1.330 . S
C582 C583 1.359 . S
C582 C588 1.504 . S
C583 C582 1.359 . S
C583 C584 1.366 . S
C583 H617 0.929 . S
C584 C583 1.366 . S
C584 C585 1.415 . S
C584 H618 0.932 . S
C585 C584 1.415 . S
C585 C586 1.366 . S
C585 H619 0.931 . S
C586 N581 1.325 . S
C586 C585 1.366 . S
C586 C590 1.516 . S
N587 Co545 1.974 . S
N587 C588 1.309 . S
N587 C593 1.423 . S
C588 C582 1.504 . S
C588 N587 1.309 . S
C588 O589 1.258 . S
O589 C588 1.258 . S
C590 N563 1.316 . S
C590 C586 1.516 . S
C590 O603 1.263 . S
O591 Cd534 2.350 . S
O591 C607 1.270 . S
O592 Cd534 2.277 . S
O592 C607 1.248 . S
C593 N587 1.423 . S
C593 C594 1.370 . S
C593 C598 1.403 . S
C594 C593 1.370 . S
C594 C595 1.389 . S
C594 H620 0.931 . S
C595 C594 1.389 . S
C595 C596 1.389 . S
C596 C595 1.389 . S
C596 C597 1.379 . S
C596 H621 0.929 . S
C597 C596 1.379 . S
C597 C598 1.405 . S
C598 C593 1.403 . S
C598 C597 1.405 . S
C598 H622 0.932 . S
O599 Cd534 2.173 . S
O599 C535 1.277 . S
O600 C535 1.230 . S
O600 Cd538 2.250 . S
O601 Cd534 2.263 . S
O601 C554 1.258 . S
O602 Cd538 2.308 . S
O602 C554 1.274 . S
O603 Cd534 2.366 . S
O603 C590 1.263 . S
C604 O605 1.235 . S
C604 O606 1.270 . S
O605 Cd538 2.352 . S
O605 C604 1.235 . S
O606 Cd534 2.329 . S
O606 C604 1.270 . S
C607 O591 1.270 . S
C607 O592 1.248 . S
H608 C540 0.930 . S
H609 C543 0.930 . S
H610 C544 0.931 . S
H611 C549 0.929 . S
H612 C551 0.930 . S
H613 C553 0.930 . S
H614 C556 0.929 . S
H615 C557 0.932 . S
H616 C559 0.930 . S
H617 C583 0.929 . S
H618 C584 0.932 . S
H619 C585 0.931 . S
H620 C594 0.931 . S
H621 C596 0.929 . S
H622 C598 0.932 . S
Cd623 O680 2.350 . S
Cd623 O681 2.277 . S
Cd623 O688 2.173 . S
Cd623 O690 2.263 . S
Cd623 O692 2.366 . S
Cd623 O695 2.329 . S
C624 O688 1.277 . S
C624 O689 1.230 . S
C625 O626 1.246 . S
C625 C628 1.481 . S
C625 N650 1.329 . S
O626 C625 1.246 . S
Cd627 O689 2.250 . S
Cd627 O691 2.308 . S
Cd627 O694 2.352 . S
C628 C625 1.481 . S
C628 N631 1.327 . S
C628 C632 1.407 . S
C629 C630 1.346 . S
C629 C633 1.390 . S
C629 H697 0.930 . S
C630 C629 1.346 . S
C630 N631 1.342 . S
C630 C635 1.516 . S
N631 C628 1.327 . S
N631 C630 1.342 . S
N631 Co634 1.864 . S
C632 C628 1.407 . S
C632 C633 1.364 . S
C632 H698 0.930 . S
C633 C629 1.390 . S
C633 C632 1.364 . S
C633 H699 0.931 . S
Co634 N631 1.864 . S
Co634 N650 1.955 . S
Co634 N651 1.958 . S
Co634 N652 1.953 . S
Co634 N670 1.869 . S
Co634 N676 1.974 . S
C635 C630 1.516 . S
C635 O636 1.238 . S
C635 N651 1.324 . S
O636 C635 1.238 . S
C637 C638 1.394 . S
C637 C642 1.395 . S
C637 N651 1.427 . S
C638 C637 1.394 . S
C638 C639 1.380 . S
C638 H700 0.929 . S
C639 C638 1.380 . S
C639 C640 1.384 . S
C639 C643 1.495 . S
C640 C639 1.384 . S
C640 C641 1.382 . S
C640 H701 0.930 . S
C641 C640 1.382 . S
C641 C642 1.398 . S
C642 C637 1.395 . S
C642 C641 1.398 . S
C642 H702 0.930 . S
C643 C639 1.495 . S
C643 O690 1.258 . S
C643 O691 1.274 . S
C644 C645 1.385 . S
C644 C646 1.381 . S
C644 N650 1.432 . S
C645 C644 1.385 . S
C645 C649 1.388 . S
C645 H703 0.929 . S
C646 C644 1.381 . S
C646 C647 1.371 . S
C646 H704 0.932 . S
C647 C646 1.371 . S
C647 C648 1.400 . S
C648 C647 1.400 . S
C648 C649 1.351 . S
C648 H705 0.930 . S
C649 C645 1.388 . S
C649 C648 1.351 . S
N650 C625 1.329 . S
N650 Co634 1.955 . S
N650 C644 1.432 . S
N651 Co634 1.958 . S
N651 C635 1.324 . S
N651 C637 1.427 . S
N652 Co634 1.953 . S
N652 C653 1.436 . S
N652 C679 1.316 . S
C653 N652 1.436 . S
C653 C654 1.421 . S
C653 C655 1.360 . S
C654 C653 1.421 . S
C654 C656 1.379 . S
C654 H657 0.929 . S
C655 C653 1.360 . S
C655 C659 1.393 . S
C655 H661 0.931 . S
C656 C654 1.379 . S
C656 C658 1.417 . S
C656 C660 1.505 . S
H657 C654 0.929 . S
C658 C656 1.417 . S
C658 C659 1.352 . S
C658 H662 0.929 . S
C659 C655 1.393 . S
C659 C658 1.352 . S
C659 C663 1.482 . S
C660 C656 1.505 . S
C660 O664 1.259 . S
C660 O665 1.229 . S
H661 C655 0.931 . S
H662 C658 0.929 . S
C663 C659 1.482 . S
C663 O666 1.207 . S
C663 O667 1.289 . S
O664 C660 1.259 . S
O664 H668 0.822 1_556 S
O665 C660 1.229 . S
O666 C663 1.207 . S
O667 C663 1.289 . S
O667 H669 0.819 . S
H668 O664 0.822 1_554 S
H669 O667 0.819 . S
N670 Co634 1.869 . S
N670 C671 1.330 . S
N670 C675 1.325 . S
C671 N670 1.330 . S
C671 C672 1.359 . S
C671 C677 1.504 . S
C672 C671 1.359 . S
C672 C673 1.366 . S
C672 H706 0.929 . S
C673 C672 1.366 . S
C673 C674 1.415 . S
C673 H707 0.932 . S
C674 C673 1.415 . S
C674 C675 1.366 . S
C674 H708 0.931 . S
C675 N670 1.325 . S
C675 C674 1.366 . S
C675 C679 1.516 . S
N676 Co634 1.974 . S
N676 C677 1.309 . S
N676 C682 1.423 . S
C677 C671 1.504 . S
C677 N676 1.309 . S
C677 O678 1.258 . S
O678 C677 1.258 . S
C679 N652 1.316 . S
C679 C675 1.516 . S
C679 O692 1.263 . S
O680 Cd623 2.350 . S
O680 C696 1.270 . S
O681 Cd623 2.277 . S
O681 C696 1.248 . S
C682 N676 1.423 . S
C682 C683 1.370 . S
C682 C687 1.403 . S
C683 C682 1.370 . S
C683 C684 1.389 . S
C683 H709 0.931 . S
C684 C683 1.389 . S
C684 C685 1.389 . S
C685 C684 1.389 . S
C685 C686 1.379 . S
C685 H710 0.929 . S
C686 C685 1.379 . S
C686 C687 1.405 . S
C687 C682 1.403 . S
C687 C686 1.405 . S
C687 H711 0.932 . S
O688 Cd623 2.173 . S
O688 C624 1.277 . S
O689 C624 1.230 . S
O689 Cd627 2.250 . S
O690 Cd623 2.263 . S
O690 C643 1.258 . S
O691 Cd627 2.308 . S
O691 C643 1.274 . S
O692 Cd623 2.366 . S
O692 C679 1.263 . S
C693 O694 1.235 . S
C693 O695 1.270 . S
O694 Cd627 2.352 . S
O694 C693 1.235 . S
O695 Cd623 2.329 . S
O695 C693 1.270 . S
C696 O680 1.270 . S
C696 O681 1.248 . S
H697 C629 0.930 . S
H698 C632 0.930 . S
H699 C633 0.931 . S
H700 C638 0.929 . S
H701 C640 0.930 . S
H702 C642 0.930 . S
H703 C645 0.929 . S
H704 C646 0.932 . S
H705 C648 0.930 . S
H706 C672 0.929 . S
H707 C673 0.932 . S
H708 C674 0.931 . S
H709 C683 0.931 . S
H710 C685 0.929 . S
H711 C687 0.932 . S
Cd712 O769 2.350 . S
Cd712 O770 2.277 . S
Cd712 O777 2.173 . S
Cd712 O779 2.263 . S
Cd712 O781 2.366 . S
Cd712 O784 2.329 . S
C713 O777 1.277 . S
C713 O778 1.230 . S
C714 O715 1.246 . S
C714 C717 1.481 . S
C714 N739 1.329 . S
O715 C714 1.246 . S
Cd716 O778 2.250 . S
Cd716 O780 2.308 . S
Cd716 O783 2.352 . S
C717 C714 1.481 . S
C717 N720 1.327 . S
C717 C721 1.407 . S
C718 C719 1.346 . S
C718 C722 1.390 . S
C718 H786 0.930 . S
C719 C718 1.346 . S
C719 N720 1.342 . S
C719 C724 1.516 . S
N720 C717 1.327 . S
N720 C719 1.342 . S
N720 Co723 1.864 . S
C721 C717 1.407 . S
C721 C722 1.364 . S
C721 H787 0.930 . S
C722 C718 1.390 . S
C722 C721 1.364 . S
C722 H788 0.931 . S
Co723 N720 1.864 . S
Co723 N739 1.955 . S
Co723 N740 1.958 . S
Co723 N741 1.953 . S
Co723 N759 1.869 . S
Co723 N765 1.974 . S
C724 C719 1.516 . S
C724 O725 1.238 . S
C724 N740 1.324 . S
O725 C724 1.238 . S
C726 C727 1.394 . S
C726 C731 1.395 . S
C726 N740 1.427 . S
C727 C726 1.394 . S
C727 C728 1.380 . S
C727 H789 0.929 . S
C728 C727 1.380 . S
C728 C729 1.384 . S
C728 C732 1.495 . S
C729 C728 1.384 . S
C729 C730 1.382 . S
C729 H790 0.930 . S
C730 C729 1.382 . S
C730 C731 1.398 . S
C731 C726 1.395 . S
C731 C730 1.398 . S
C731 H791 0.930 . S
C732 C728 1.495 . S
C732 O779 1.258 . S
C732 O780 1.274 . S
C733 C734 1.385 . S
C733 C735 1.381 . S
C733 N739 1.432 . S
C734 C733 1.385 . S
C734 C738 1.388 . S
C734 H792 0.929 . S
C735 C733 1.381 . S
C735 C736 1.371 . S
C735 H793 0.932 . S
C736 C735 1.371 . S
C736 C737 1.400 . S
C737 C736 1.400 . S
C737 C738 1.351 . S
C737 H794 0.930 . S
C738 C734 1.388 . S
C738 C737 1.351 . S
N739 C714 1.329 . S
N739 Co723 1.955 . S
N739 C733 1.432 . S
N740 Co723 1.958 . S
N740 C724 1.324 . S
N740 C726 1.427 . S
N741 Co723 1.953 . S
N741 C742 1.436 . S
N741 C768 1.316 . S
C742 N741 1.436 . S
C742 C743 1.421 . S
C742 C744 1.360 . S
C743 C742 1.421 . S
C743 C745 1.379 . S
C743 H746 0.929 . S
C744 C742 1.360 . S
C744 C748 1.393 . S
C744 H750 0.931 . S
C745 C743 1.379 . S
C745 C747 1.417 . S
C745 C749 1.505 . S
H746 C743 0.929 . S
C747 C745 1.417 . S
C747 C748 1.352 . S
C747 H751 0.929 . S
C748 C744 1.393 . S
C748 C747 1.352 . S
C748 C752 1.482 . S
C749 C745 1.505 . S
C749 O753 1.259 . S
C749 O754 1.229 . S
H750 C744 0.931 . S
H751 C747 0.929 . S
C752 C748 1.482 . S
C752 O755 1.207 . S
C752 O756 1.289 . S
O753 C749 1.259 . S
O753 H757 0.822 . S
O754 C749 1.229 . S
O755 C752 1.207 . S
O756 C752 1.289 . S
O756 H758 0.819 . S
H757 O753 0.822 . S
H758 O756 0.819 . S
N759 Co723 1.869 . S
N759 C760 1.330 . S
N759 C764 1.325 . S
C760 N759 1.330 . S
C760 C761 1.359 . S
C760 C766 1.504 . S
C761 C760 1.359 . S
C761 C762 1.366 . S
C761 H795 0.929 . S
C762 C761 1.366 . S
C762 C763 1.415 . S
C762 H796 0.932 . S
C763 C762 1.415 . S
C763 C764 1.366 . S
C763 H797 0.931 . S
C764 N759 1.325 . S
C764 C763 1.366 . S
C764 C768 1.516 . S
N765 Co723 1.974 . S
N765 C766 1.309 . S
N765 C771 1.423 . S
C766 C760 1.504 . S
C766 N765 1.309 . S
C766 O767 1.258 . S
O767 C766 1.258 . S
C768 N741 1.316 . S
C768 C764 1.516 . S
C768 O781 1.263 . S
O769 Cd712 2.350 . S
O769 C785 1.270 . S
O770 Cd712 2.277 . S
O770 C785 1.248 . S
C771 N765 1.423 . S
C771 C772 1.370 . S
C771 C776 1.403 . S
C772 C771 1.370 . S
C772 C773 1.389 . S
C772 H798 0.931 . S
C773 C772 1.389 . S
C773 C774 1.389 . S
C774 C773 1.389 . S
C774 C775 1.379 . S
C774 H799 0.929 . S
C775 C774 1.379 . S
C775 C776 1.405 . S
C776 C771 1.403 . S
C776 C775 1.405 . S
C776 H800 0.932 . S
O777 Cd712 2.173 . S
O777 C713 1.277 . S
O778 C713 1.230 . S
O778 Cd716 2.250 . S
O779 Cd712 2.263 . S
O779 C732 1.258 . S
O780 Cd716 2.308 . S
O780 C732 1.274 . S
O781 Cd712 2.366 . S
O781 C768 1.263 . S
C782 O783 1.235 . S
C782 O784 1.270 . S
O783 Cd716 2.352 . S
O783 C782 1.235 . S
O784 Cd712 2.329 . S
O784 C782 1.270 . S
C785 O769 1.270 . S
C785 O770 1.248 . S
H786 C718 0.930 . S
H787 C721 0.930 . S
H788 C722 0.931 . S
H789 C727 0.929 . S
H790 C729 0.930 . S
H791 C731 0.930 . S
H792 C734 0.929 . S
H793 C735 0.932 . S
H794 C737 0.930 . S
H795 C761 0.929 . S
H796 C762 0.932 . S
H797 C763 0.931 . S
H798 C772 0.931 . S
H799 C774 0.929 . S
H800 C776 0.932 . S
Cd801 O858 2.350 . S
Cd801 O859 2.277 . S
Cd801 O866 2.173 . S
Cd801 O868 2.263 . S
Cd801 O870 2.366 . S
Cd801 O873 2.329 . S
C802 O866 1.277 . S
C802 O867 1.230 . S
C803 O804 1.246 . S
C803 C806 1.481 . S
C803 N828 1.329 . S
O804 C803 1.246 . S
Cd805 O867 2.250 . S
Cd805 O869 2.308 . S
Cd805 O872 2.352 . S
C806 C803 1.481 . S
C806 N809 1.327 . S
C806 C810 1.407 . S
C807 C808 1.346 . S
C807 C811 1.390 . S
C807 H875 0.930 . S
C808 C807 1.346 . S
C808 N809 1.342 . S
C808 C813 1.516 . S
N809 C806 1.327 . S
N809 C808 1.342 . S
N809 Co812 1.864 . S
C810 C806 1.407 . S
C810 C811 1.364 . S
C810 H876 0.930 . S
C811 C807 1.390 . S
C811 C810 1.364 . S
C811 H877 0.931 . S
Co812 N809 1.864 . S
Co812 N828 1.955 . S
Co812 N829 1.958 . S
Co812 N830 1.953 . S
Co812 N848 1.869 . S
Co812 N854 1.974 . S
C813 C808 1.516 . S
C813 O814 1.238 . S
C813 N829 1.324 . S
O814 C813 1.238 . S
C815 C816 1.394 . S
C815 C820 1.395 . S
C815 N829 1.427 . S
C816 C815 1.394 . S
C816 C817 1.380 . S
C816 H878 0.929 . S
C817 C816 1.380 . S
C817 C818 1.384 . S
C817 C821 1.495 . S
C818 C817 1.384 . S
C818 C819 1.382 . S
C818 H879 0.930 . S
C819 C818 1.382 . S
C819 C820 1.398 . S
C820 C815 1.395 . S
C820 C819 1.398 . S
C820 H880 0.930 . S
C821 C817 1.495 . S
C821 O868 1.258 . S
C821 O869 1.274 . S
C822 C823 1.385 . S
C822 C824 1.381 . S
C822 N828 1.432 . S
C823 C822 1.385 . S
C823 C827 1.388 . S
C823 H881 0.929 . S
C824 C822 1.381 . S
C824 C825 1.371 . S
C824 H882 0.932 . S
C825 C824 1.371 . S
C825 C826 1.400 . S
C826 C825 1.400 . S
C826 C827 1.351 . S
C826 H883 0.930 . S
C827 C823 1.388 . S
C827 C826 1.351 . S
N828 C803 1.329 . S
N828 Co812 1.955 . S
N828 C822 1.432 . S
N829 Co812 1.958 . S
N829 C813 1.324 . S
N829 C815 1.427 . S
N830 Co812 1.953 . S
N830 C831 1.436 . S
N830 C857 1.316 . S
C831 N830 1.436 . S
C831 C832 1.421 . S
C831 C833 1.360 . S
C832 C831 1.421 . S
C832 C834 1.379 . S
C832 H835 0.929 . S
C833 C831 1.360 . S
C833 C837 1.393 . S
C833 H839 0.931 . S
C834 C832 1.379 . S
C834 C836 1.417 . S
C834 C838 1.505 . S
H835 C832 0.929 . S
C836 C834 1.417 . S
C836 C837 1.352 . S
C836 H840 0.929 . S
C837 C833 1.393 . S
C837 C836 1.352 . S
C837 C841 1.482 . S
C838 C834 1.505 . S
C838 O842 1.259 . S
C838 O843 1.229 . S
H839 C833 0.931 . S
H840 C836 0.929 . S
C841 C837 1.482 . S
C841 O844 1.207 . S
C841 O845 1.289 . S
O842 C838 1.259 . S
O842 H846 0.822 1_556 S
O843 C838 1.229 . S
O844 C841 1.207 . S
O845 C841 1.289 . S
O845 H847 0.819 . S
H846 O842 0.822 1_554 S
H847 O845 0.819 . S
N848 Co812 1.869 . S
N848 C849 1.330 . S
N848 C853 1.325 . S
C849 N848 1.330 . S
C849 C850 1.359 . S
C849 C855 1.504 . S
C850 C849 1.359 . S
C850 C851 1.366 . S
C850 H884 0.929 . S
C851 C850 1.366 . S
C851 C852 1.415 . S
C851 H885 0.932 . S
C852 C851 1.415 . S
C852 C853 1.366 . S
C852 H886 0.931 . S
C853 N848 1.325 . S
C853 C852 1.366 . S
C853 C857 1.516 . S
N854 Co812 1.974 . S
N854 C855 1.309 . S
N854 C860 1.423 . S
C855 C849 1.504 . S
C855 N854 1.309 . S
C855 O856 1.258 . S
O856 C855 1.258 . S
C857 N830 1.316 . S
C857 C853 1.516 . S
C857 O870 1.263 . S
O858 Cd801 2.350 . S
O858 C874 1.270 . S
O859 Cd801 2.277 . S
O859 C874 1.248 . S
C860 N854 1.423 . S
C860 C861 1.370 . S
C860 C865 1.403 . S
C861 C860 1.370 . S
C861 C862 1.389 . S
C861 H887 0.931 . S
C862 C861 1.389 . S
C862 C863 1.389 . S
C863 C862 1.389 . S
C863 C864 1.379 . S
C863 H888 0.929 . S
C864 C863 1.379 . S
C864 C865 1.405 . S
C865 C860 1.403 . S
C865 C864 1.405 . S
C865 H889 0.932 . S
O866 Cd801 2.173 . S
O866 C802 1.277 . S
O867 C802 1.230 . S
O867 Cd805 2.250 . S
O868 Cd801 2.263 . S
O868 C821 1.258 . S
O869 Cd805 2.308 . S
O869 C821 1.274 . S
O870 Cd801 2.366 . S
O870 C857 1.263 . S
C871 O872 1.235 . S
C871 O873 1.270 . S
O872 Cd805 2.352 . S
O872 C871 1.235 . S
O873 Cd801 2.329 . S
O873 C871 1.270 . S
C874 O858 1.270 . S
C874 O859 1.248 . S
H875 C807 0.930 . S
H876 C810 0.930 . S
H877 C811 0.931 . S
H878 C816 0.929 . S
H879 C818 0.930 . S
H880 C820 0.930 . S
H881 C823 0.929 . S
H882 C824 0.932 . S
H883 C826 0.930 . S
H884 C850 0.929 . S
H885 C851 0.932 . S
H886 C852 0.931 . S
H887 C861 0.931 . S
H888 C863 0.929 . S
H889 C865 0.932 . S
Cd890 O947 2.350 . S
Cd890 O948 2.277 . S
Cd890 O955 2.173 . S
Cd890 O957 2.263 . S
Cd890 O959 2.366 . S
Cd890 O962 2.329 . S
C891 O955 1.277 . S
C891 O956 1.230 . S
C892 O893 1.246 . S
C892 C895 1.481 . S
C892 N917 1.329 . S
O893 C892 1.246 . S
Cd894 O956 2.250 . S
Cd894 O958 2.308 . S
Cd894 O961 2.352 . S
C895 C892 1.481 . S
C895 N898 1.327 . S
C895 C899 1.407 . S
C896 C897 1.346 . S
C896 C900 1.390 . S
C896 H964 0.930 . S
C897 C896 1.346 . S
C897 N898 1.342 . S
C897 C902 1.516 . S
N898 C895 1.327 . S
N898 C897 1.342 . S
N898 Co901 1.864 . S
C899 C895 1.407 . S
C899 C900 1.364 . S
C899 H965 0.930 . S
C900 C896 1.390 . S
C900 C899 1.364 . S
C900 H966 0.931 . S
Co901 N898 1.864 . S
Co901 N917 1.955 . S
Co901 N918 1.958 . S
Co901 N919 1.953 . S
Co901 N937 1.869 . S
Co901 N943 1.974 . S
C902 C897 1.516 . S
C902 O903 1.238 . S
C902 N918 1.324 . S
O903 C902 1.238 . S
C904 C905 1.394 . S
C904 C909 1.395 . S
C904 N918 1.427 . S
C905 C904 1.394 . S
C905 C906 1.380 . S
C905 H967 0.929 . S
C906 C905 1.380 . S
C906 C907 1.384 . S
C906 C910 1.495 . S
C907 C906 1.384 . S
C907 C908 1.382 . S
C907 H968 0.930 . S
C908 C907 1.382 . S
C908 C909 1.398 . S
C909 C904 1.395 . S
C909 C908 1.398 . S
C909 H969 0.930 . S
C910 C906 1.495 . S
C910 O957 1.258 . S
C910 O958 1.274 . S
C911 C912 1.385 . S
C911 C913 1.381 . S
C911 N917 1.432 . S
C912 C911 1.385 . S
C912 C916 1.388 . S
C912 H970 0.929 . S
C913 C911 1.381 . S
C913 C914 1.371 . S
C913 H971 0.932 . S
C914 C913 1.371 . S
C914 C915 1.400 . S
C915 C914 1.400 . S
C915 C916 1.351 . S
C915 H972 0.930 . S
C916 C912 1.388 . S
C916 C915 1.351 . S
N917 C892 1.329 . S
N917 Co901 1.955 . S
N917 C911 1.432 . S
N918 Co901 1.958 . S
N918 C902 1.324 . S
N918 C904 1.427 . S
N919 Co901 1.953 . S
N919 C920 1.436 . S
N919 C946 1.316 . S
C920 N919 1.436 . S
C920 C921 1.421 . S
C920 C922 1.360 . S
C921 C920 1.421 . S
C921 C923 1.379 . S
C921 H924 0.929 . S
C922 C920 1.360 . S
C922 C926 1.393 . S
C922 H928 0.931 . S
C923 C921 1.379 . S
C923 C925 1.417 . S
C923 C927 1.505 . S
H924 C921 0.929 . S
C925 C923 1.417 . S
C925 C926 1.352 . S
C925 H929 0.929 . S
C926 C922 1.393 . S
C926 C925 1.352 . S
C926 C930 1.482 . S
C927 C923 1.505 . S
C927 O931 1.259 . S
C927 O932 1.229 . S
H928 C922 0.931 . S
H929 C925 0.929 . S
C930 C926 1.482 . S
C930 O933 1.207 . S
C930 O934 1.289 . S
O931 C927 1.259 . S
O931 H935 0.822 . S
O932 C927 1.229 . S
O933 C930 1.207 . S
O934 C930 1.289 . S
O934 H936 0.819 . S
H935 O931 0.822 . S
H936 O934 0.819 . S
N937 Co901 1.869 . S
N937 C938 1.330 . S
N937 C942 1.325 . S
C938 N937 1.330 . S
C938 C939 1.359 . S
C938 C944 1.504 . S
C939 C938 1.359 . S
C939 C940 1.366 . S
C939 H973 0.929 . S
C940 C939 1.366 . S
C940 C941 1.415 . S
C940 H974 0.932 . S
C941 C940 1.415 . S
C941 C942 1.366 . S
C941 H975 0.931 . S
C942 N937 1.325 . S
C942 C941 1.366 . S
C942 C946 1.516 . S
N943 Co901 1.974 . S
N943 C944 1.309 . S
N943 C949 1.423 . S
C944 C938 1.504 . S
C944 N943 1.309 . S
C944 O945 1.258 . S
O945 C944 1.258 . S
C946 N919 1.316 . S
C946 C942 1.516 . S
C946 O959 1.263 . S
O947 Cd890 2.350 . S
O947 C963 1.270 . S
O948 Cd890 2.277 . S
O948 C963 1.248 . S
C949 N943 1.423 . S
C949 C950 1.370 . S
C949 C954 1.403 . S
C950 C949 1.370 . S
C950 C951 1.389 . S
C950 H976 0.931 . S
C951 C950 1.389 . S
C951 C952 1.389 . S
C952 C951 1.389 . S
C952 C953 1.379 . S
C952 H977 0.929 . S
C953 C952 1.379 . S
C953 C954 1.405 . S
C954 C949 1.403 . S
C954 C953 1.405 . S
C954 H978 0.932 . S
O955 Cd890 2.173 . S
O955 C891 1.277 . S
O956 C891 1.230 . S
O956 Cd894 2.250 . S
O957 Cd890 2.263 . S
O957 C910 1.258 . S
O958 Cd894 2.308 . S
O958 C910 1.274 . S
O959 Cd890 2.366 . S
O959 C946 1.263 . S
C960 O961 1.235 . S
C960 O962 1.270 . S
O961 Cd894 2.352 . S
O961 C960 1.235 . S
O962 Cd890 2.329 . S
O962 C960 1.270 . S
C963 O947 1.270 . S
C963 O948 1.248 . S
H964 C896 0.930 . S
H965 C899 0.930 . S
H966 C900 0.931 . S
H967 C905 0.929 . S
H968 C907 0.930 . S
H969 C909 0.930 . S
H970 C912 0.929 . S
H971 C913 0.932 . S
H972 C915 0.930 . S
H973 C939 0.929 . S
H974 C940 0.932 . S
H975 C941 0.931 . S
H976 C950 0.931 . S
H977 C952 0.929 . S
H978 C954 0.932 . S
Cd979 O1036 2.350 . S
Cd979 O1037 2.277 . S
Cd979 O1044 2.173 . S
Cd979 O1046 2.263 . S
Cd979 O1048 2.366 . S
Cd979 O1051 2.329 . S
C980 O1044 1.277 . S
C980 O1045 1.230 . S
C981 O982 1.246 . S
C981 C984 1.481 . S
C981 N1006 1.329 . S
O982 C981 1.246 . S
Cd983 O1045 2.250 . S
Cd983 O1047 2.308 . S
Cd983 O1050 2.352 . S
C984 C981 1.481 . S
C984 N987 1.327 . S
C984 C988 1.407 . S
C985 C986 1.346 . S
C985 C989 1.390 . S
C985 H1053 0.930 . S
C986 C985 1.346 . S
C986 N987 1.342 . S
C986 C991 1.516 . S
N987 C984 1.327 . S
N987 C986 1.342 . S
N987 Co990 1.864 . S
C988 C984 1.407 . S
C988 C989 1.364 . S
C988 H1054 0.930 . S
C989 C985 1.390 . S
C989 C988 1.364 . S
C989 H1055 0.931 . S
Co990 N987 1.864 . S
Co990 N1006 1.955 . S
Co990 N1007 1.958 . S
Co990 N1008 1.953 . S
Co990 N1026 1.869 . S
Co990 N1032 1.974 . S
C991 C986 1.516 . S
C991 O992 1.238 . S
C991 N1007 1.324 . S
O992 C991 1.238 . S
C993 C994 1.394 . S
C993 C998 1.395 . S
C993 N1007 1.427 . S
C994 C993 1.394 . S
C994 C995 1.380 . S
C994 H1056 0.929 . S
C995 C994 1.380 . S
C995 C996 1.384 . S
C995 C999 1.495 . S
C996 C995 1.384 . S
C996 C997 1.382 . S
C996 H1057 0.930 . S
C997 C996 1.382 . S
C997 C998 1.398 . S
C998 C993 1.395 . S
C998 C997 1.398 . S
C998 H1058 0.930 . S
C999 C995 1.495 . S
C999 O1046 1.258 . S
C999 O1047 1.274 . S
C1000 C1001 1.385 . S
C1000 C1002 1.381 . S
C1000 N1006 1.432 . S
C1001 C1000 1.385 . S
C1001 C1005 1.388 . S
C1001 H1059 0.929 . S
C1002 C1000 1.381 . S
C1002 C1003 1.371 . S
C1002 H1060 0.932 . S
C1003 C1002 1.371 . S
C1003 C1004 1.400 . S
C1004 C1003 1.400 . S
C1004 C1005 1.351 . S
C1004 H1061 0.930 . S
C1005 C1001 1.388 . S
C1005 C1004 1.351 . S
N1006 C981 1.329 . S
N1006 Co990 1.955 . S
N1006 C1000 1.432 . S
N1007 Co990 1.958 . S
N1007 C991 1.324 . S
N1007 C993 1.427 . S
N1008 Co990 1.953 . S
N1008 C1009 1.436 . S
N1008 C1035 1.316 . S
C1009 N1008 1.436 . S
C1009 C1010 1.421 . S
C1009 C1011 1.360 . S
C1010 C1009 1.421 . S
C1010 C1012 1.379 . S
C1010 H1013 0.929 . S
C1011 C1009 1.360 . S
C1011 C1015 1.393 . S
C1011 H1017 0.931 . S
C1012 C1010 1.379 . S
C1012 C1014 1.417 . S
C1012 C1016 1.505 . S
H1013 C1010 0.929 . S
C1014 C1012 1.417 . S
C1014 C1015 1.352 . S
C1014 H1018 0.929 . S
C1015 C1011 1.393 . S
C1015 C1014 1.352 . S
C1015 C1019 1.482 . S
C1016 C1012 1.505 . S
C1016 O1020 1.259 . S
C1016 O1021 1.229 . S
H1017 C1011 0.931 . S
H1018 C1014 0.929 . S
C1019 C1015 1.482 . S
C1019 O1022 1.207 . S
C1019 O1023 1.289 . S
O1020 C1016 1.259 . S
O1020 H1024 0.822 1_556 S
O1021 C1016 1.229 . S
O1022 C1019 1.207 . S
O1023 C1019 1.289 . S
O1023 H1025 0.819 . S
H1024 O1020 0.822 1_554 S
H1025 O1023 0.819 . S
N1026 Co990 1.869 . S
N1026 C1027 1.330 . S
N1026 C1031 1.325 . S
C1027 N1026 1.330 . S
C1027 C1028 1.359 . S
C1027 C1033 1.504 . S
C1028 C1027 1.359 . S
C1028 C1029 1.366 . S
C1028 H1062 0.929 . S
C1029 C1028 1.366 . S
C1029 C1030 1.415 . S
C1029 H1063 0.932 . S
C1030 C1029 1.415 . S
C1030 C1031 1.366 . S
C1030 H1064 0.931 . S
C1031 N1026 1.325 . S
C1031 C1030 1.366 . S
C1031 C1035 1.516 . S
N1032 Co990 1.974 . S
N1032 C1033 1.309 . S
N1032 C1038 1.423 . S
C1033 C1027 1.504 . S
C1033 N1032 1.309 . S
C1033 O1034 1.258 . S
O1034 C1033 1.258 . S
C1035 N1008 1.316 . S
C1035 C1031 1.516 . S
C1035 O1048 1.263 . S
O1036 Cd979 2.350 . S
O1036 C1052 1.270 . S
O1037 Cd979 2.277 . S
O1037 C1052 1.248 . S
C1038 N1032 1.423 . S
C1038 C1039 1.370 . S
C1038 C1043 1.403 . S
C1039 C1038 1.370 . S
C1039 C1040 1.389 . S
C1039 H1065 0.931 . S
C1040 C1039 1.389 . S
C1040 C1041 1.389 . S
C1041 C1040 1.389 . S
C1041 C1042 1.379 . S
C1041 H1066 0.929 . S
C1042 C1041 1.379 . S
C1042 C1043 1.405 . S
C1043 C1038 1.403 . S
C1043 C1042 1.405 . S
C1043 H1067 0.932 . S
O1044 Cd979 2.173 . S
O1044 C980 1.277 . S
O1045 C980 1.230 . S
O1045 Cd983 2.250 . S
O1046 Cd979 2.263 . S
O1046 C999 1.258 . S
O1047 Cd983 2.308 . S
O1047 C999 1.274 . S
O1048 Cd979 2.366 . S
O1048 C1035 1.263 . S
C1049 O1050 1.235 . S
C1049 O1051 1.270 . S
O1050 Cd983 2.352 . S
O1050 C1049 1.235 . S
O1051 Cd979 2.329 . S
O1051 C1049 1.270 . S
C1052 O1036 1.270 . S
C1052 O1037 1.248 . S
H1053 C985 0.930 . S
H1054 C988 0.930 . S
H1055 C989 0.931 . S
H1056 C994 0.929 . S
H1057 C996 0.930 . S
H1058 C998 0.930 . S
H1059 C1001 0.929 . S
H1060 C1002 0.932 . S
H1061 C1004 0.930 . S
H1062 C1028 0.929 . S
H1063 C1029 0.932 . S
H1064 C1030 0.931 . S
H1065 C1039 0.931 . S
H1066 C1041 0.929 . S
H1067 C1043 0.932 . S
H1068 C1074 0.930 . S
H1069 C1078 0.930 . S
H1070 C1083 0.929 . S
H1071 C1081 0.929 . S
H1072 C1076 0.929 . S
H1073 C1082 0.929 . S
C1074 H1068 0.930 . S
C1074 C1075 1.367 . S
C1074 C1082 1.378 . S
C1075 C1074 1.367 . S
C1075 C1083 1.433 . S
C1076 H1072 0.929 . S
C1076 C1078 1.378 . S
C1076 C1080 1.350 . S
C1077 C1080 1.463 . S
C1077 C1082 1.350 . S
C1077 N1085 1.427 . S
C1078 H1069 0.930 . S
C1078 C1076 1.378 . S
C1078 C1079 1.367 . S
C1079 C1078 1.367 . S
C1079 C1081 1.433 . S
C1080 C1076 1.350 . S
C1080 C1077 1.463 . S
C1080 N1084 1.427 . S
C1081 H1071 0.929 . S
C1081 C1079 1.433 . S
C1081 N1084 1.384 . S
C1082 H1073 0.929 . S
C1082 C1074 1.378 . S
C1082 C1077 1.350 . S
C1083 H1070 0.929 . S
C1083 C1075 1.433 . S
C1083 N1085 1.384 . S
N1084 C1080 1.427 . S
N1084 C1081 1.384 . S
N1085 C1077 1.427 . S
N1085 C1083 1.384 . S
H1086 C1092 0.930 . S
H1087 C1096 0.930 . S
H1088 C1101 0.929 . S
H1089 C1099 0.929 . S
H1090 C1094 0.929 . S
H1091 C1100 0.929 . S
C1092 H1086 0.930 . S
C1092 C1093 1.367 . S
C1092 C1100 1.378 . S
C1093 C1092 1.367 . S
C1093 C1101 1.433 . S
C1094 H1090 0.929 . S
C1094 C1096 1.378 . S
C1094 C1098 1.350 . S
C1095 C1098 1.463 . S
C1095 C1100 1.350 . S
C1095 N1103 1.427 . S
C1096 H1087 0.930 . S
C1096 C1094 1.378 . S
C1096 C1097 1.367 . S
C1097 C1096 1.367 . S
C1097 C1099 1.433 . S
C1098 C1094 1.350 . S
C1098 C1095 1.463 . S
C1098 N1102 1.427 . S
C1099 H1089 0.929 . S
C1099 C1097 1.433 . S
C1099 N1102 1.384 . S
C1100 H1091 0.929 . S
C1100 C1092 1.378 . S
C1100 C1095 1.350 . S
C1101 H1088 0.929 . S
C1101 C1093 1.433 . S
C1101 N1103 1.384 . S
N1102 C1098 1.427 . S
N1102 C1099 1.384 . S
N1103 C1095 1.427 . S
N1103 C1101 1.384 . S
H1104 C1110 0.930 . S
H1105 C1114 0.930 . S
H1106 C1119 0.929 . S
H1107 C1117 0.929 . S
H1108 C1112 0.929 . S
H1109 C1118 0.929 . S
C1110 H1104 0.930 . S
C1110 C1111 1.367 . S
C1110 C1118 1.378 . S
C1111 C1110 1.367 . S
C1111 C1119 1.433 . S
C1112 H1108 0.929 . S
C1112 C1114 1.378 . S
C1112 C1116 1.350 . S
C1113 C1116 1.463 . S
C1113 C1118 1.350 . S
C1113 N1121 1.427 . S
C1114 H1105 0.930 . S
C1114 C1112 1.378 . S
C1114 C1115 1.367 . S
C1115 C1114 1.367 . S
C1115 C1117 1.433 . S
C1116 C1112 1.350 . S
C1116 C1113 1.463 . S
C1116 N1120 1.427 . S
C1117 H1107 0.929 . S
C1117 C1115 1.433 . S
C1117 N1120 1.384 . S
C1118 H1109 0.929 . S
C1118 C1110 1.378 . S
C1118 C1113 1.350 . S
C1119 H1106 0.929 . S
C1119 C1111 1.433 . S
C1119 N1121 1.384 . S
N1120 C1116 1.427 . S
N1120 C1117 1.384 . S
N1121 C1113 1.427 . S
N1121 C1119 1.384 . S
H1122 C1128 0.930 . S
H1123 C1132 0.930 . S
H1124 C1137 0.929 . S
H1125 C1135 0.929 . S
H1126 C1130 0.929 . S
H1127 C1136 0.929 . S
C1128 H1122 0.930 . S
C1128 C1129 1.367 . S
C1128 C1136 1.378 . S
C1129 C1128 1.367 . S
C1129 C1137 1.433 . S
C1130 H1126 0.929 . S
C1130 C1132 1.378 . S
C1130 C1134 1.350 . S
C1131 C1134 1.463 . S
C1131 C1136 1.350 . S
C1131 N1139 1.427 . S
C1132 H1123 0.930 . S
C1132 C1130 1.378 . S
C1132 C1133 1.367 . S
C1133 C1132 1.367 . S
C1133 C1135 1.433 . S
C1134 C1130 1.350 . S
C1134 C1131 1.463 . S
C1134 N1138 1.427 . S
C1135 H1125 0.929 . S
C1135 C1133 1.433 . S
C1135 N1138 1.384 . S
C1136 H1127 0.929 . S
C1136 C1128 1.378 . S
C1136 C1131 1.350 . S
C1137 H1124 0.929 . S
C1137 C1129 1.433 . S
C1137 N1139 1.384 . S
N1138 C1134 1.427 . S
N1138 C1135 1.384 . S
N1139 C1131 1.427 . S
N1139 C1137 1.384 . S
H1140 C1146 0.930 . S
H1141 C1150 0.930 . S
H1142 C1155 0.929 . S
H1143 C1153 0.929 . S
H1144 C1148 0.929 . S
H1145 C1154 0.929 . S
C1146 H1140 0.930 . S
C1146 C1147 1.367 . S
C1146 C1154 1.378 . S
C1147 C1146 1.367 . S
C1147 C1155 1.433 . S
C1148 H1144 0.929 . S
C1148 C1150 1.378 . S
C1148 C1152 1.350 . S
C1149 C1152 1.463 . S
C1149 C1154 1.350 . S
C1149 N1157 1.427 . S
C1150 H1141 0.930 . S
C1150 C1148 1.378 . S
C1150 C1151 1.367 . S
C1151 C1150 1.367 . S
C1151 C1153 1.433 . S
C1152 C1148 1.350 . S
C1152 C1149 1.463 . S
C1152 N1156 1.427 . S
C1153 H1143 0.929 . S
C1153 C1151 1.433 . S
C1153 N1156 1.384 . S
C1154 H1145 0.929 . S
C1154 C1146 1.378 . S
C1154 C1149 1.350 . S
C1155 H1142 0.929 . S
C1155 C1147 1.433 . S
C1155 N1157 1.384 . S
N1156 C1152 1.427 . S
N1156 C1153 1.384 . S
N1157 C1149 1.427 . S
N1157 C1155 1.384 . S
H1158 C1164 0.930 . S
H1159 C1168 0.930 . S
H1160 C1173 0.929 . S
H1161 C1171 0.929 . S
H1162 C1166 0.929 . S
H1163 C1172 0.929 . S
C1164 H1158 0.930 . S
C1164 C1165 1.367 . S
C1164 C1172 1.378 . S
C1165 C1164 1.367 . S
C1165 C1173 1.433 . S
C1166 H1162 0.929 . S
C1166 C1168 1.378 . S
C1166 C1170 1.350 . S
C1167 C1170 1.463 . S
C1167 C1172 1.350 . S
C1167 N1175 1.427 . S
C1168 H1159 0.930 . S
C1168 C1166 1.378 . S
C1168 C1169 1.367 . S
C1169 C1168 1.367 . S
C1169 C1171 1.433 . S
C1170 C1166 1.350 . S
C1170 C1167 1.463 . S
C1170 N1174 1.427 . S
C1171 H1161 0.929 . S
C1171 C1169 1.433 . S
C1171 N1174 1.384 . S
C1172 H1163 0.929 . S
C1172 C1164 1.378 . S
C1172 C1167 1.350 . S
C1173 H1160 0.929 . S
C1173 C1165 1.433 . S
C1173 N1175 1.384 . S
N1174 C1170 1.427 . S
N1174 C1171 1.384 . S
N1175 C1167 1.427 . S
N1175 C1173 1.384 . S
H1176 C1182 0.930 . S
H1177 C1186 0.930 . S
H1178 C1191 0.929 . S
H1179 C1189 0.929 . S
H1180 C1184 0.929 . S
H1181 C1190 0.929 . S
C1182 H1176 0.930 . S
C1182 C1183 1.367 . S
C1182 C1190 1.378 . S
C1183 C1182 1.367 . S
C1183 C1191 1.433 . S
C1184 H1180 0.929 . S
C1184 C1186 1.378 . S
C1184 C1188 1.350 . S
C1185 C1188 1.463 . S
C1185 C1190 1.350 . S
C1185 N1193 1.427 . S
C1186 H1177 0.930 . S
C1186 C1184 1.378 . S
C1186 C1187 1.367 . S
C1187 C1186 1.367 . S
C1187 C1189 1.433 . S
C1188 C1184 1.350 . S
C1188 C1185 1.463 . S
C1188 N1192 1.427 . S
C1189 H1179 0.929 . S
C1189 C1187 1.433 . S
C1189 N1192 1.384 . S
C1190 H1181 0.929 . S
C1190 C1182 1.378 . S
C1190 C1185 1.350 . S
C1191 H1178 0.929 . S
C1191 C1183 1.433 . S
C1191 N1193 1.384 . S
N1192 C1188 1.427 . S
N1192 C1189 1.384 . S
N1193 C1185 1.427 . S
N1193 C1191 1.384 . S
H1194 C1200 0.930 . S
H1195 C1204 0.930 . S
H1196 C1209 0.929 . S
H1197 C1207 0.929 . S
H1198 C1202 0.929 . S
H1199 C1208 0.929 . S
C1200 H1194 0.930 . S
C1200 C1201 1.367 . S
C1200 C1208 1.378 . S
C1201 C1200 1.367 . S
C1201 C1209 1.433 . S
C1202 H1198 0.929 . S
C1202 C1204 1.378 . S
C1202 C1206 1.350 . S
C1203 C1206 1.463 . S
C1203 C1208 1.350 . S
C1203 N1211 1.427 . S
C1204 H1195 0.930 . S
C1204 C1202 1.378 . S
C1204 C1205 1.367 . S
C1205 C1204 1.367 . S
C1205 C1207 1.433 . S
C1206 C1202 1.350 . S
C1206 C1203 1.463 . S
C1206 N1210 1.427 . S
C1207 H1197 0.929 . S
C1207 C1205 1.433 . S
C1207 N1210 1.384 . S
C1208 H1199 0.929 . S
C1208 C1200 1.378 . S
C1208 C1203 1.350 . S
C1209 H1196 0.929 . S
C1209 C1201 1.433 . S
C1209 N1211 1.384 . S
N1210 C1206 1.427 . S
N1210 C1207 1.384 . S
N1211 C1203 1.427 . S
N1211 C1209 1.384 . S
H1212 C1218 0.930 . S
H1213 C1222 0.930 . S
H1214 C1227 0.929 . S
H1215 C1225 0.929 . S
H1216 C1220 0.929 . S
H1217 C1226 0.929 . S
C1218 H1212 0.930 . S
C1218 C1219 1.367 . S
C1218 C1226 1.378 . S
C1219 C1218 1.367 . S
C1219 C1227 1.433 . S
C1220 H1216 0.929 . S
C1220 C1222 1.378 . S
C1220 C1224 1.350 . S
C1221 C1224 1.463 . S
C1221 C1226 1.350 . S
C1221 N1229 1.427 . S
C1222 H1213 0.930 . S
C1222 C1220 1.378 . S
C1222 C1223 1.367 . S
C1223 C1222 1.367 . S
C1223 C1225 1.433 . S
C1224 C1220 1.350 . S
C1224 C1221 1.463 . S
C1224 N1228 1.427 . S
C1225 H1215 0.929 . S
C1225 C1223 1.433 . S
C1225 N1228 1.384 . S
C1226 H1217 0.929 . S
C1226 C1218 1.378 . S
C1226 C1221 1.350 . S
C1227 H1214 0.929 . S
C1227 C1219 1.433 . S
C1227 N1229 1.384 . S
N1228 C1224 1.427 . S
N1228 C1225 1.384 . S
N1229 C1221 1.427 . S
N1229 C1227 1.384 . S
H1230 C1236 0.930 . S
H1231 C1240 0.930 . S
H1232 C1245 0.929 . S
H1233 C1243 0.929 . S
H1234 C1238 0.929 . S
H1235 C1244 0.929 . S
C1236 H1230 0.930 . S
C1236 C1237 1.367 . S
C1236 C1244 1.378 . S
C1237 C1236 1.367 . S
C1237 C1245 1.433 . S
C1238 H1234 0.929 . S
C1238 C1240 1.378 . S
C1238 C1242 1.350 . S
C1239 C1242 1.463 . S
C1239 C1244 1.350 . S
C1239 N1247 1.427 . S
C1240 H1231 0.930 . S
C1240 C1238 1.378 . S
C1240 C1241 1.367 . S
C1241 C1240 1.367 . S
C1241 C1243 1.433 . S
C1242 C1238 1.350 . S
C1242 C1239 1.463 . S
C1242 N1246 1.427 . S
C1243 H1233 0.929 . S
C1243 C1241 1.433 . S
C1243 N1246 1.384 . S
C1244 H1235 0.929 . S
C1244 C1236 1.378 . S
C1244 C1239 1.350 . S
C1245 H1232 0.929 . S
C1245 C1237 1.433 . S
C1245 N1247 1.384 . S
N1246 C1242 1.427 . S
N1246 C1243 1.384 . S
N1247 C1239 1.427 . S
N1247 C1245 1.384 . S
H1248 C1254 0.930 . S
H1249 C1258 0.930 . S
H1250 C1263 0.929 . S
H1251 C1261 0.929 . S
H1252 C1256 0.929 . S
H1253 C1262 0.929 . S
C1254 H1248 0.930 . S
C1254 C1255 1.367 . S
C1254 C1262 1.378 . S
C1255 C1254 1.367 . S
C1255 C1263 1.433 . S
C1256 H1252 0.929 . S
C1256 C1258 1.378 . S
C1256 C1260 1.350 . S
C1257 C1260 1.463 . S
C1257 C1262 1.350 . S
C1257 N1265 1.427 . S
C1258 H1249 0.930 . S
C1258 C1256 1.378 . S
C1258 C1259 1.367 . S
C1259 C1258 1.367 . S
C1259 C1261 1.433 . S
C1260 C1256 1.350 . S
C1260 C1257 1.463 . S
C1260 N1264 1.427 . S
C1261 H1251 0.929 . S
C1261 C1259 1.433 . S
C1261 N1264 1.384 . S
C1262 H1253 0.929 . S
C1262 C1254 1.378 . S
C1262 C1257 1.350 . S
C1263 H1250 0.929 . S
C1263 C1255 1.433 . S
C1263 N1265 1.384 . S
N1264 C1260 1.427 . S
N1264 C1261 1.384 . S
N1265 C1257 1.427 . S
N1265 C1263 1.384 . S
H1266 C1272 0.930 . S
H1267 C1276 0.930 . S
H1268 C1281 0.929 . S
H1269 C1279 0.929 . S
H1270 C1274 0.929 . S
H1271 C1280 0.929 . S
C1272 H1266 0.930 . S
C1272 C1273 1.367 . S
C1272 C1280 1.378 . S
C1273 C1272 1.367 . S
C1273 C1281 1.433 . S
C1274 H1270 0.929 . S
C1274 C1276 1.378 . S
C1274 C1278 1.350 . S
C1275 C1278 1.463 . S
C1275 C1280 1.350 . S
C1275 N1283 1.427 . S
C1276 H1267 0.930 . S
C1276 C1274 1.378 . S
C1276 C1277 1.367 . S
C1277 C1276 1.367 . S
C1277 C1279 1.433 . S
C1278 C1274 1.350 . S
C1278 C1275 1.463 . S
C1278 N1282 1.427 . S
C1279 H1269 0.929 . S
C1279 C1277 1.433 . S
C1279 N1282 1.384 . S
C1280 H1271 0.929 . S
C1280 C1272 1.378 . S
C1280 C1275 1.350 . S
C1281 H1268 0.929 . S
C1281 C1273 1.433 . S
C1281 N1283 1.384 . S
N1282 C1278 1.427 . S
N1282 C1279 1.384 . S
N1283 C1275 1.427 . S
N1283 C1281 1.384 . S
H1284 C1290 0.930 . S
H1285 C1294 0.930 . S
H1286 C1299 0.929 . S
H1287 C1297 0.929 . S
H1288 C1292 0.929 . S
H1289 C1298 0.929 . S
C1290 H1284 0.930 . S
C1290 C1291 1.367 . S
C1290 C1298 1.378 . S
C1291 C1290 1.367 . S
C1291 C1299 1.433 . S
C1292 H1288 0.929 . S
C1292 C1294 1.378 . S
C1292 C1296 1.350 . S
C1293 C1296 1.463 . S
C1293 C1298 1.350 . S
C1293 N1301 1.427 . S
C1294 H1285 0.930 . S
C1294 C1292 1.378 . S
C1294 C1295 1.367 . S
C1295 C1294 1.367 . S
C1295 C1297 1.433 . S
C1296 C1292 1.350 . S
C1296 C1293 1.463 . S
C1296 N1300 1.427 . S
C1297 H1287 0.929 . S
C1297 C1295 1.433 . S
C1297 N1300 1.384 . S
C1298 H1289 0.929 . S
C1298 C1290 1.378 . S
C1298 C1293 1.350 . S
C1299 H1286 0.929 . S
C1299 C1291 1.433 . S
C1299 N1301 1.384 . S
N1300 C1296 1.427 . S
N1300 C1297 1.384 . S
N1301 C1293 1.427 . S
N1301 C1299 1.384 . S
H1302 C1308 0.930 . S
H1303 C1312 0.930 . S
H1304 C1317 0.929 . S
H1305 C1315 0.929 . S
H1306 C1310 0.929 . S
H1307 C1316 0.929 . S
C1308 H1302 0.930 . S
C1308 C1309 1.367 . S
C1308 C1316 1.378 . S
C1309 C1308 1.367 . S
C1309 C1317 1.433 . S
C1310 H1306 0.929 . S
C1310 C1312 1.378 . S
C1310 C1314 1.350 . S
C1311 C1314 1.463 . S
C1311 C1316 1.350 . S
C1311 N1319 1.427 . S
C1312 H1303 0.930 . S
C1312 C1310 1.378 . S
C1312 C1313 1.367 . S
C1313 C1312 1.367 . S
C1313 C1315 1.433 . S
C1314 C1310 1.350 . S
C1314 C1311 1.463 . S
C1314 N1318 1.427 . S
C1315 H1305 0.929 . S
C1315 C1313 1.433 . S
C1315 N1318 1.384 . S
C1316 H1307 0.929 . S
C1316 C1308 1.378 . S
C1316 C1311 1.350 . S
C1317 H1304 0.929 . S
C1317 C1309 1.433 . S
C1317 N1319 1.384 . S
N1318 C1314 1.427 . S
N1318 C1315 1.384 . S
N1319 C1311 1.427 . S
N1319 C1317 1.384 . S
H1320 C1326 0.930 . S
H1321 C1330 0.930 . S
H1322 C1335 0.929 . S
H1323 C1333 0.929 . S
H1324 C1328 0.929 . S
H1325 C1334 0.929 . S
C1326 H1320 0.930 . S
C1326 C1327 1.367 . S
C1326 C1334 1.378 . S
C1327 C1326 1.367 . S
C1327 C1335 1.433 . S
C1328 H1324 0.929 . S
C1328 C1330 1.378 . S
C1328 C1332 1.350 . S
C1329 C1332 1.463 . S
C1329 C1334 1.350 . S
C1329 N1337 1.427 . S
C1330 H1321 0.930 . S
C1330 C1328 1.378 . S
C1330 C1331 1.367 . S
C1331 C1330 1.367 . S
C1331 C1333 1.433 . S
C1332 C1328 1.350 . S
C1332 C1329 1.463 . S
C1332 N1336 1.427 . S
C1333 H1323 0.929 . S
C1333 C1331 1.433 . S
C1333 N1336 1.384 . S
C1334 H1325 0.929 . S
C1334 C1326 1.378 . S
C1334 C1329 1.350 . S
C1335 H1322 0.929 . S
C1335 C1327 1.433 . S
C1335 N1337 1.384 . S
N1336 C1332 1.427 . S
N1336 C1333 1.384 . S
N1337 C1329 1.427 . S
N1337 C1335 1.384 . S
H1338 C1344 0.930 . S
H1339 C1348 0.930 . S
H1340 C1353 0.929 . S
H1341 C1351 0.929 . S
H1342 C1346 0.929 . S
H1343 C1352 0.929 . S
C1344 H1338 0.930 . S
C1344 C1345 1.367 . S
C1344 C1352 1.378 . S
C1345 C1344 1.367 . S
C1345 C1353 1.433 . S
C1346 H1342 0.929 . S
C1346 C1348 1.378 . S
C1346 C1350 1.350 . S
C1347 C1350 1.463 . S
C1347 C1352 1.350 . S
C1347 N1355 1.427 . S
C1348 H1339 0.930 . S
C1348 C1346 1.378 . S
C1348 C1349 1.367 . S
C1349 C1348 1.367 . S
C1349 C1351 1.433 . S
C1350 C1346 1.350 . S
C1350 C1347 1.463 . S
C1350 N1354 1.427 . S
C1351 H1341 0.929 . S
C1351 C1349 1.433 . S
C1351 N1354 1.384 . S
C1352 H1343 0.929 . S
C1352 C1344 1.378 . S
C1352 C1347 1.350 . S
C1353 H1340 0.929 . S
C1353 C1345 1.433 . S
C1353 N1355 1.384 . S
N1354 C1350 1.427 . S
N1354 C1351 1.384 . S
N1355 C1347 1.427 . S
N1355 C1353 1.384 . S
H1356 C1362 0.930 . S
H1357 C1366 0.930 . S
H1358 C1371 0.929 . S
H1359 C1369 0.929 . S
H1360 C1364 0.929 . S
H1361 C1370 0.929 . S
C1362 H1356 0.930 . S
C1362 C1363 1.367 . S
C1362 C1370 1.378 . S
C1363 C1362 1.367 . S
C1363 C1371 1.433 . S
C1364 H1360 0.929 . S
C1364 C1366 1.378 . S
C1364 C1368 1.350 . S
C1365 C1368 1.463 . S
C1365 C1370 1.350 . S
C1365 N1373 1.427 . S
C1366 H1357 0.930 . S
C1366 C1364 1.378 . S
C1366 C1367 1.367 . S
C1367 C1366 1.367 . S
C1367 C1369 1.433 . S
C1368 C1364 1.350 . S
C1368 C1365 1.463 . S
C1368 N1372 1.427 . S
C1369 H1359 0.929 . S
C1369 C1367 1.433 . S
C1369 N1372 1.384 . S
C1370 H1361 0.929 . S
C1370 C1362 1.378 . S
C1370 C1365 1.350 . S
C1371 H1358 0.929 . S
C1371 C1363 1.433 . S
C1371 N1373 1.384 . S
N1372 C1368 1.427 . S
N1372 C1369 1.384 . S
N1373 C1365 1.427 . S
N1373 C1371 1.384 . S
H1374 C1380 0.930 . S
H1375 C1384 0.930 . S
H1376 C1389 0.929 . S
H1377 C1387 0.929 . S
H1378 C1382 0.929 . S
H1379 C1388 0.929 . S
C1380 H1374 0.930 . S
C1380 C1381 1.367 . S
C1380 C1388 1.378 . S
C1381 C1380 1.367 . S
C1381 C1389 1.433 . S
C1382 H1378 0.929 . S
C1382 C1384 1.378 . S
C1382 C1386 1.350 . S
C1383 C1386 1.463 . S
C1383 C1388 1.350 . S
C1383 N1391 1.427 . S
C1384 H1375 0.930 . S
C1384 C1382 1.378 . S
C1384 C1385 1.367 . S
C1385 C1384 1.367 . S
C1385 C1387 1.433 . S
C1386 C1382 1.350 . S
C1386 C1383 1.463 . S
C1386 N1390 1.427 . S
C1387 H1377 0.929 . S
C1387 C1385 1.433 . S
C1387 N1390 1.384 . S
C1388 H1379 0.929 . S
C1388 C1380 1.378 . S
C1388 C1383 1.350 . S
C1389 H1376 0.929 . S
C1389 C1381 1.433 . S
C1389 N1391 1.384 . S
N1390 C1386 1.427 . S
N1390 C1387 1.384 . S
N1391 C1383 1.427 . S
N1391 C1389 1.384 . S
H1392 C1398 0.930 . S
H1393 C1402 0.930 . S
H1394 C1407 0.929 . S
H1395 C1405 0.929 . S
H1396 C1400 0.933 1_556 S
H1397 C1406 0.933 1_554 S
C1398 H1392 0.930 . S
C1398 C1399 1.367 . S
C1398 C1406 1.378 . S
C1399 C1398 1.367 . S
C1399 C1407 1.433 . S
C1400 H1396 0.933 1_554 S
C1400 C1402 1.378 . S
C1400 C1404 1.350 . S
C1401 C1404 1.463 1_556 S
C1401 C1406 1.350 . S
C1401 N1409 1.427 . S
C1402 H1393 0.930 . S
C1402 C1400 1.378 . S
C1402 C1403 1.367 . S
C1403 C1402 1.367 . S
C1403 C1405 1.433 . S
C1404 C1400 1.350 . S
C1404 C1401 1.463 1_554 S
C1404 N1408 1.427 . S
C1405 H1395 0.929 . S
C1405 C1403 1.433 . S
C1405 N1408 1.384 . S
C1406 H1397 0.933 1_556 S
C1406 C1398 1.378 . S
C1406 C1401 1.350 . S
C1407 H1394 0.929 . S
C1407 C1399 1.433 . S
C1407 N1409 1.384 . S
N1408 C1404 1.427 . S
N1408 C1405 1.384 . S
N1409 C1401 1.427 . S
N1409 C1407 1.384 . S
H1410 C1416 0.930 . S
H1411 C1420 0.930 . S
H1412 C1425 0.929 . S
H1413 C1423 0.929 . S
H1414 C1418 0.929 . S
H1415 C1424 0.929 . S
C1416 H1410 0.930 . S
C1416 C1417 1.367 . S
C1416 C1424 1.378 . S
C1417 C1416 1.367 . S
C1417 C1425 1.433 . S
C1418 H1414 0.929 . S
C1418 C1420 1.378 . S
C1418 C1422 1.350 . S
C1419 C1422 1.463 1_455 S
C1419 C1424 1.350 . S
C1419 N1427 1.427 . S
C1420 H1411 0.930 . S
C1420 C1418 1.378 . S
C1420 C1421 1.367 . S
C1421 C1420 1.367 . S
C1421 C1423 1.433 . S
C1422 C1418 1.350 . S
C1422 C1419 1.463 1_655 S
C1422 N1426 1.427 . S
C1423 H1413 0.929 . S
C1423 C1421 1.433 . S
C1423 N1426 1.384 . S
C1424 H1415 0.929 . S
C1424 C1416 1.378 . S
C1424 C1419 1.350 . S
C1425 H1412 0.929 . S
C1425 C1417 1.433 . S
C1425 N1427 1.384 . S
N1426 C1422 1.427 . S
N1426 C1423 1.384 . S
N1427 C1419 1.427 . S
N1427 C1425 1.384 . S
H1428 C1434 0.930 . S
H1429 C1438 0.930 . S
H1430 C1443 0.929 . S
H1431 C1441 0.929 . S
H1432 C1436 0.929 . S
H1433 C1442 0.929 . S
C1434 H1428 0.930 . S
C1434 C1435 1.367 . S
C1434 C1442 1.378 1_565 S
C1435 C1434 1.367 . S
C1435 C1443 1.433 . S
C1436 H1432 0.929 . S
C1436 C1438 1.378 1_565 S
C1436 C1440 1.350 1_565 S
C1437 C1440 1.463 1_564 S
C1437 C1442 1.350 1_565 S
C1437 N1445 1.427 . S
C1438 H1429 0.930 . S
C1438 C1436 1.378 1_545 S
C1438 C1439 1.367 . S
C1439 C1438 1.367 . S
C1439 C1441 1.433 . S
C1440 C1436 1.350 1_545 S
C1440 C1437 1.463 1_546 S
C1440 N1444 1.427 . S
C1441 H1431 0.929 . S
C1441 C1439 1.433 . S
C1441 N1444 1.384 . S
C1442 H1433 0.929 . S
C1442 C1434 1.378 1_545 S
C1442 C1437 1.350 1_545 S
C1443 H1430 0.929 . S
C1443 C1435 1.433 . S
C1443 N1445 1.384 . S
N1444 C1440 1.427 . S
N1444 C1441 1.384 . S
N1445 C1437 1.427 . S
N1445 C1443 1.384 . S
H1446 C1452 0.930 . S
H1447 C1456 0.930 . S
H1448 C1461 0.929 . S
H1449 C1459 0.929 . S
H1450 C1454 0.929 . S
H1451 C1460 0.929 . S
C1452 H1446 0.930 . S
C1452 C1453 1.367 . S
C1452 C1460 1.378 . S
C1453 C1452 1.367 . S
C1453 C1461 1.433 . S
C1454 H1450 0.929 . S
C1454 C1456 1.378 . S
C1454 C1458 1.350 . S
C1455 C1458 1.463 . S
C1455 C1460 1.350 . S
C1455 N1463 1.427 . S
C1456 H1447 0.930 . S
C1456 C1454 1.378 . S
C1456 C1457 1.367 . S
C1457 C1456 1.367 . S
C1457 C1459 1.433 . S
C1458 C1454 1.350 . S
C1458 C1455 1.463 . S
C1458 N1462 1.427 . S
C1459 H1449 0.929 . S
C1459 C1457 1.433 . S
C1459 N1462 1.384 . S
C1460 H1451 0.929 . S
C1460 C1452 1.378 . S
C1460 C1455 1.350 . S
C1461 H1448 0.929 . S
C1461 C1453 1.433 . S
C1461 N1463 1.384 . S
N1462 C1458 1.427 . S
N1462 C1459 1.384 . S
N1463 C1455 1.427 . S
N1463 C1461 1.384 . S
H1464 C1470 0.930 . S
H1465 C1474 0.930 . S
H1466 C1479 0.929 . S
H1467 C1477 0.929 . S
H1468 C1472 0.929 . S
H1469 C1478 0.929 . S
C1470 H1464 0.930 . S
C1470 C1471 1.367 . S
C1470 C1478 1.378 1_655 S
C1471 C1470 1.367 . S
C1471 C1479 1.433 . S
C1472 H1468 0.929 . S
C1472 C1474 1.378 1_655 S
C1472 C1476 1.350 1_655 S
C1473 C1476 1.463 1_656 S
C1473 C1478 1.350 1_655 S
C1473 N1481 1.427 . S
C1474 H1465 0.930 . S
C1474 C1472 1.378 1_455 S
C1474 C1475 1.367 . S
C1475 C1474 1.367 . S
C1475 C1477 1.433 . S
C1476 C1472 1.350 1_455 S
C1476 C1473 1.463 1_454 S
C1476 N1480 1.427 . S
C1477 H1467 0.929 . S
C1477 C1475 1.433 . S
C1477 N1480 1.384 . S
C1478 H1469 0.929 . S
C1478 C1470 1.378 1_455 S
C1478 C1473 1.350 1_455 S
C1479 H1466 0.929 . S
C1479 C1471 1.433 . S
C1479 N1481 1.384 . S
N1480 C1476 1.427 . S
N1480 C1477 1.384 . S
N1481 C1473 1.427 . S
N1481 C1479 1.384 . S
H1482 C1488 0.930 . S
H1483 C1492 0.930 . S
H1484 C1497 0.929 . S
H1485 C1495 0.929 . S
H1486 C1490 0.929 . S
H1487 C1496 0.929 . S
C1488 H1482 0.930 . S
C1488 C1489 1.367 . S
C1488 C1496 1.378 . S
C1489 C1488 1.367 . S
C1489 C1497 1.433 . S
C1490 H1486 0.929 . S
C1490 C1492 1.378 . S
C1490 C1494 1.350 . S
C1491 C1494 1.463 1_565 S
C1491 C1496 1.350 . S
C1491 N1499 1.427 1_565 S
C1492 H1483 0.930 . S
C1492 C1490 1.378 . S
C1492 C1493 1.367 . S
C1493 C1492 1.367 . S
C1493 C1495 1.433 . S
C1494 C1490 1.350 . S
C1494 C1491 1.463 1_545 S
C1494 N1498 1.427 1_545 S
C1495 H1485 0.929 . S
C1495 C1493 1.433 . S
C1495 N1498 1.384 1_545 S
C1496 H1487 0.929 . S
C1496 C1488 1.378 . S
C1496 C1491 1.350 . S
C1497 H1484 0.929 . S
C1497 C1489 1.433 . S
C1497 N1499 1.384 1_565 S
N1498 C1494 1.427 1_565 S
N1498 C1495 1.384 1_565 S
N1499 C1491 1.427 1_545 S
N1499 C1497 1.384 1_545 S
H1500 C1506 0.930 . S
H1501 C1510 0.930 . S
H1502 C1515 0.929 . S
H1503 C1513 0.929 . S
H1504 C1508 0.932 . S
H1505 C1514 0.932 . S
C1506 H1500 0.930 . S
C1506 C1507 1.367 . S
C1506 C1514 1.375 1_556 S
C1507 C1506 1.367 . S
C1507 C1515 1.433 . S
C1508 H1504 0.932 . S
C1508 C1510 1.375 1_556 S
C1508 C1512 1.349 1_556 S
C1509 C1512 1.463 1_556 S
C1509 C1514 1.349 1_556 S
C1509 N1517 1.427 . S
C1510 H1501 0.930 . S
C1510 C1508 1.375 1_554 S
C1510 C1511 1.367 . S
C1511 C1510 1.367 . S
C1511 C1513 1.433 . S
C1512 C1508 1.349 1_554 S
C1512 C1509 1.463 1_554 S
C1512 N1516 1.427 . S
C1513 H1503 0.929 . S
C1513 C1511 1.433 . S
C1513 N1516 1.384 . S
C1514 H1505 0.932 . S
C1514 C1506 1.375 1_554 S
C1514 C1509 1.349 1_554 S
C1515 H1502 0.929 . S
C1515 C1507 1.433 . S
C1515 N1517 1.384 . S
N1516 C1512 1.427 . S
N1516 C1513 1.384 . S
N1517 C1509 1.427 . S
N1517 C1515 1.384 . S
H1518 C1524 0.930 . S
H1519 C1528 0.930 . S
H1520 C1533 0.929 . S
H1521 C1531 0.929 . S
H1522 C1526 0.929 . S
H1523 C1532 0.929 . S
C1524 H1518 0.930 . S
C1524 C1525 1.367 . S
C1524 C1532 1.378 . S
C1525 C1524 1.367 . S
C1525 C1533 1.433 . S
C1526 H1522 0.929 . S
C1526 C1528 1.378 . S
C1526 C1530 1.350 . S
C1527 C1530 1.463 1_455 S
C1527 C1532 1.350 . S
C1527 N1535 1.427 . S
C1528 H1519 0.930 . S
C1528 C1526 1.378 . S
C1528 C1529 1.367 . S
C1529 C1528 1.367 . S
C1529 C1531 1.433 . S
C1530 C1526 1.350 . S
C1530 C1527 1.463 1_655 S
C1530 N1534 1.427 . S
C1531 H1521 0.929 . S
C1531 C1529 1.433 . S
C1531 N1534 1.384 . S
C1532 H1523 0.929 . S
C1532 C1524 1.378 . S
C1532 C1527 1.350 . S
C1533 H1520 0.929 . S
C1533 C1525 1.433 . S
C1533 N1535 1.384 . S
N1534 C1530 1.427 . S
N1534 C1531 1.384 . S
N1535 C1527 1.427 . S
N1535 C1533 1.384 . S
H1536 C1542 0.930 . S
H1537 C1546 0.930 . S
H1538 C1551 0.929 . S
H1539 C1549 0.929 . S
H1540 C1544 0.929 . S
H1541 C1550 0.929 . S
C1542 H1536 0.930 . S
C1542 C1543 1.367 . S
C1542 C1550 1.378 . S
C1543 C1542 1.367 . S
C1543 C1551 1.433 . S
C1544 H1540 0.929 . S
C1544 C1546 1.378 . S
C1544 C1548 1.350 . S
C1545 C1548 1.463 1_546 S
C1545 C1550 1.350 . S
C1545 N1553 1.427 . S
C1546 H1537 0.930 . S
C1546 C1544 1.378 . S
C1546 C1547 1.367 . S
C1547 C1546 1.367 . S
C1547 C1549 1.433 . S
C1548 C1544 1.350 . S
C1548 C1545 1.463 1_564 S
C1548 N1552 1.427 . S
C1549 H1539 0.929 . S
C1549 C1547 1.433 . S
C1549 N1552 1.384 . S
C1550 H1541 0.929 . S
C1550 C1542 1.378 . S
C1550 C1545 1.350 . S
C1551 H1538 0.929 . S
C1551 C1543 1.433 . S
C1551 N1553 1.384 . S
N1552 C1548 1.427 . S
N1552 C1549 1.384 . S
N1553 C1545 1.427 . S
N1553 C1551 1.384 . S
H1554 C1560 0.930 . S
H1555 C1564 0.930 . S
H1556 C1569 0.929 . S
H1557 C1567 0.929 . S
H1558 C1562 0.929 . S
H1559 C1568 0.929 . S
C1560 H1554 0.930 . S
C1560 C1561 1.367 . S
C1560 C1568 1.378 . S
C1561 C1560 1.367 . S
C1561 C1569 1.433 . S
C1562 H1558 0.929 . S
C1562 C1564 1.378 . S
C1562 C1566 1.350 . S
C1563 C1566 1.463 . S
C1563 C1568 1.350 . S
C1563 N1571 1.427 . S
C1564 H1555 0.930 . S
C1564 C1562 1.378 . S
C1564 C1565 1.367 . S
C1565 C1564 1.367 . S
C1565 C1567 1.433 . S
C1566 C1562 1.350 . S
C1566 C1563 1.463 . S
C1566 N1570 1.427 . S
C1567 H1557 0.929 . S
C1567 C1565 1.433 . S
C1567 N1570 1.384 . S
C1568 H1559 0.929 . S
C1568 C1560 1.378 . S
C1568 C1563 1.350 . S
C1569 H1556 0.929 . S
C1569 C1561 1.433 . S
C1569 N1571 1.384 . S
N1570 C1566 1.427 . S
N1570 C1567 1.384 . S
N1571 C1563 1.427 . S
N1571 C1569 1.384 . S
H1572 C1578 0.930 . S
H1573 C1582 0.930 . S
H1574 C1587 0.929 . S
H1575 C1585 0.929 . S
H1576 C1580 0.933 . S
H1577 C1586 0.933 . S
C1578 H1572 0.930 . S
C1578 C1579 1.367 . S
C1578 C1586 1.375 1_554 S
C1579 C1578 1.367 . S
C1579 C1587 1.433 . S
C1580 H1576 0.933 . S
C1580 C1582 1.375 1_554 S
C1580 C1584 1.348 1_554 S
C1581 C1584 1.463 1_454 S
C1581 C1586 1.348 1_554 S
C1581 N1589 1.427 . S
C1582 H1573 0.930 . S
C1582 C1580 1.375 1_556 S
C1582 C1583 1.367 . S
C1583 C1582 1.367 . S
C1583 C1585 1.433 . S
C1584 C1580 1.348 1_556 S
C1584 C1581 1.463 1_656 S
C1584 N1588 1.427 . S
C1585 H1575 0.929 . S
C1585 C1583 1.433 . S
C1585 N1588 1.384 . S
C1586 H1577 0.933 . S
C1586 C1578 1.375 1_556 S
C1586 C1581 1.348 1_556 S
C1587 H1574 0.929 . S
C1587 C1579 1.433 . S
C1587 N1589 1.384 . S
N1588 C1584 1.427 . S
N1588 C1585 1.384 . S
N1589 C1581 1.427 . S
N1589 C1587 1.384 . S
H1590 C1596 0.930 . S
H1591 C1600 0.930 . S
H1592 C1605 0.929 . S
H1593 C1603 0.929 . S
H1594 C1598 0.929 . S
H1595 C1604 0.929 . S
C1596 H1590 0.930 . S
C1596 C1597 1.367 . S
C1596 C1604 1.378 . S
C1597 C1596 1.367 . S
C1597 C1605 1.433 . S
C1598 H1594 0.929 . S
C1598 C1600 1.378 . S
C1598 C1602 1.350 . S
C1599 C1602 1.463 1_545 S
C1599 C1604 1.350 . S
C1599 N1607 1.427 . S
C1600 H1591 0.930 . S
C1600 C1598 1.378 . S
C1600 C1601 1.367 . S
C1601 C1600 1.367 . S
C1601 C1603 1.433 . S
C1602 C1598 1.350 . S
C1602 C1599 1.463 1_565 S
C1602 N1606 1.427 . S
C1603 H1593 0.929 . S
C1603 C1601 1.433 . S
C1603 N1606 1.384 . S
C1604 H1595 0.929 . S
C1604 C1596 1.378 . S
C1604 C1599 1.350 . S
C1605 H1592 0.929 . S
C1605 C1597 1.433 . S
C1605 N1607 1.384 . S
N1606 C1602 1.427 . S
N1606 C1603 1.384 . S
N1607 C1599 1.427 . S
N1607 C1605 1.384 . S
H1608 C1614 0.930 . S
H1609 C1618 0.930 . S
H1610 C1623 0.929 . S
H1611 C1621 0.929 . S
H1612 C1616 0.929 . S
H1613 C1622 0.929 . S
C1614 H1608 0.930 . S
C1614 C1615 1.367 . S
C1614 C1622 1.378 1_565 S
C1615 C1614 1.367 . S
C1615 C1623 1.433 . S
C1616 H1612 0.929 . S
C1616 C1618 1.378 . S
C1616 C1620 1.350 . S
C1617 C1620 1.463 . S
C1617 C1622 1.350 . S
C1617 N1625 1.427 . S
C1618 H1609 0.930 . S
C1618 C1616 1.378 . S
C1618 C1619 1.367 . S
C1619 C1618 1.367 . S
C1619 C1621 1.433 . S
C1620 C1616 1.350 . S
C1620 C1617 1.463 . S
C1620 N1624 1.427 . S
C1621 H1611 0.929 . S
C1621 C1619 1.433 . S
C1621 N1624 1.384 . S
C1622 H1613 0.929 . S
C1622 C1614 1.378 1_545 S
C1622 C1617 1.350 . S
C1623 H1610 0.929 . S
C1623 C1615 1.433 . S
C1623 N1625 1.384 1_565 S
N1624 C1620 1.427 . S
N1624 C1621 1.384 . S
N1625 C1617 1.427 . S
N1625 C1623 1.384 1_545 S
H1626 C1632 0.930 . S
H1627 C1636 0.930 . S
H1628 C1641 0.929 . S
H1629 C1639 0.943 . S
H1630 C1634 0.929 . S
H1631 C1640 0.929 . S
C1632 H1626 0.930 . S
C1632 C1633 1.367 . S
C1632 C1640 1.378 . S
C1633 C1632 1.367 . S
C1633 C1641 1.433 . S
C1634 H1630 0.929 . S
C1634 C1636 1.378 . S
C1634 C1638 1.350 . S
C1635 C1638 1.463 . S
C1635 C1640 1.350 . S
C1635 N1643 1.427 . S
C1636 H1627 0.930 . S
C1636 C1634 1.378 . S
C1636 C1637 1.367 . S
C1637 C1636 1.367 . S
C1637 C1639 1.433 . S
C1638 C1634 1.350 . S
C1638 C1635 1.463 . S
C1638 N1642 1.427 . S
C1639 H1629 0.943 . S
C1639 C1637 1.433 . S
C1639 N1642 1.384 . S
C1640 H1631 0.929 . S
C1640 C1632 1.378 . S
C1640 C1635 1.350 . S
C1641 H1628 0.929 . S
C1641 C1633 1.433 . S
C1641 N1643 1.384 . S
N1642 C1638 1.427 . S
N1642 C1639 1.384 . S
N1643 C1635 1.427 . S
N1643 C1641 1.384 . S
H1644 C1650 0.930 . S
H1645 C1654 0.930 . S
H1646 C1659 0.929 1_565 S
H1647 C1657 0.929 . S
H1648 C1652 0.929 . S
H1649 C1658 0.929 . S
C1650 H1644 0.930 . S
C1650 C1651 1.367 . S
C1650 C1658 1.378 . S
C1651 C1650 1.367 . S
C1651 C1659 1.433 . S
C1652 H1648 0.929 . S
C1652 C1654 1.378 1_655 S
C1652 C1656 1.350 . S
C1653 C1656 1.463 . S
C1653 C1658 1.350 . S
C1653 N1661 1.427 . S
C1654 H1645 0.930 . S
C1654 C1652 1.378 1_455 S
C1654 C1655 1.367 . S
C1655 C1654 1.367 . S
C1655 C1657 1.433 . S
C1656 C1652 1.350 . S
C1656 C1653 1.463 . S
C1656 N1660 1.427 . S
C1657 H1647 0.929 . S
C1657 C1655 1.433 . S
C1657 N1660 1.384 1_455 S
C1658 H1649 0.929 . S
C1658 C1650 1.378 . S
C1658 C1653 1.350 . S
C1659 H1646 0.929 1_545 S
C1659 C1651 1.433 . S
C1659 N1661 1.384 . S
N1660 C1656 1.427 . S
N1660 C1657 1.384 1_655 S
N1661 C1653 1.427 . S
N1661 C1659 1.384 . S
H1662 C1668 0.930 . S
H1663 C1672 0.930 . S
H1664 C1677 0.929 . S
H1665 C1675 0.929 . S
H1666 C1670 0.929 . S
H1667 C1676 0.929 . S
C1668 H1662 0.930 . S
C1668 C1669 1.367 . S
C1668 C1676 1.378 1_545 S
C1669 C1668 1.367 . S
C1669 C1677 1.433 . S
C1670 H1666 0.929 . S
C1670 C1672 1.378 . S
C1670 C1674 1.350 . S
C1671 C1674 1.463 . S
C1671 C1676 1.350 . S
C1671 N1679 1.427 . S
C1672 H1663 0.930 . S
C1672 C1670 1.378 . S
C1672 C1673 1.367 . S
C1673 C1672 1.367 . S
C1673 C1675 1.433 . S
C1674 C1670 1.350 . S
C1674 C1671 1.463 . S
C1674 N1678 1.427 . S
C1675 H1665 0.929 . S
C1675 C1673 1.433 . S
C1675 N1678 1.384 . S
C1676 H1667 0.929 . S
C1676 C1668 1.378 1_565 S
C1676 C1671 1.350 . S
C1677 H1664 0.929 . S
C1677 C1669 1.433 . S
C1677 N1679 1.384 1_545 S
N1678 C1674 1.427 . S
N1678 C1675 1.384 . S
N1679 C1671 1.427 . S
N1679 C1677 1.384 1_565 S
H1680 C1686 0.930 . S
H1681 C1690 0.930 . S
H1682 C1695 0.929 . S
H1683 C1693 0.929 1_455 S
H1684 C1688 0.929 . S
H1685 C1694 0.929 . S
C1686 H1680 0.930 . S
C1686 C1687 1.367 . S
C1686 C1694 1.378 . S
C1687 C1686 1.367 . S
C1687 C1695 1.433 . S
C1688 H1684 0.929 . S
C1688 C1690 1.378 . S
C1688 C1692 1.350 . S
C1689 C1692 1.463 . S
C1689 C1694 1.350 . S
C1689 N1697 1.427 . S
C1690 H1681 0.930 . S
C1690 C1688 1.378 . S
C1690 C1691 1.367 . S
C1691 C1690 1.367 . S
C1691 C1693 1.433 . S
C1692 C1688 1.350 . S
C1692 C1689 1.463 . S
C1692 N1696 1.427 . S
C1693 H1683 0.929 1_655 S
C1693 C1691 1.433 . S
C1693 N1696 1.384 . S
C1694 H1685 0.929 . S
C1694 C1686 1.378 . S
C1694 C1689 1.350 . S
C1695 H1682 0.929 . S
C1695 C1687 1.433 . S
C1695 N1697 1.384 . S
N1696 C1692 1.427 . S
N1696 C1693 1.384 . S
N1697 C1689 1.427 . S
N1697 C1695 1.384 . S
H1698 C1704 0.930 . S
H1699 C1708 0.930 . S
H1700 C1713 0.929 . S
H1701 C1711 0.929 1_545 S
H1702 C1706 0.929 . S
H1703 C1712 0.929 . S
C1704 H1698 0.930 . S
C1704 C1705 1.367 . S
C1704 C1712 1.378 1_655 S
C1705 C1704 1.367 . S
C1705 C1713 1.433 . S
C1706 H1702 0.929 . S
C1706 C1708 1.378 . S
C1706 C1710 1.350 . S
C1707 C1710 1.463 . S
C1707 C1712 1.350 . S
C1707 N1715 1.427 . S
C1708 H1699 0.930 . S
C1708 C1706 1.378 . S
C1708 C1709 1.367 . S
C1709 C1708 1.367 . S
C1709 C1711 1.433 . S
C1710 C1706 1.350 . S
C1710 C1707 1.463 . S
C1710 N1714 1.427 . S
C1711 H1701 0.929 1_565 S
C1711 C1709 1.433 . S
C1711 N1714 1.384 . S
C1712 H1703 0.929 . S
C1712 C1704 1.378 1_455 S
C1712 C1707 1.350 . S
C1713 H1700 0.929 . S
C1713 C1705 1.433 . S
C1713 N1715 1.384 1_655 S
N1714 C1710 1.427 . S
N1714 C1711 1.384 . S
N1715 C1707 1.427 . S
N1715 C1713 1.384 1_455 S
H1716 C1722 0.930 . S
H1717 C1726 0.930 . S
H1718 C1731 0.929 . S
H1719 C1729 0.932 . S
H1720 C1724 0.929 . S
H1721 C1730 0.929 . S
C1722 H1716 0.930 . S
C1722 C1723 1.367 . S
C1722 C1730 1.378 . S
C1723 C1722 1.367 . S
C1723 C1731 1.433 . S
C1724 H1720 0.929 . S
C1724 C1726 1.378 1_655 S
C1724 C1728 1.350 . S
C1725 C1728 1.463 . S
C1725 C1730 1.350 . S
C1725 N1733 1.427 . S
C1726 H1717 0.930 . S
C1726 C1724 1.378 1_455 S
C1726 C1727 1.367 . S
C1727 C1726 1.367 . S
C1727 C1729 1.433 1_455 S
C1728 C1724 1.350 . S
C1728 C1725 1.463 . S
C1728 N1732 1.427 . S
C1729 H1719 0.932 . S
C1729 C1727 1.433 1_655 S
C1729 N1732 1.384 . S
C1730 H1721 0.929 . S
C1730 C1722 1.378 . S
C1730 C1725 1.350 . S
C1731 H1718 0.929 . S
C1731 C1723 1.433 . S
C1731 N1733 1.384 . S
N1732 C1728 1.427 . S
N1732 C1729 1.384 . S
N1733 C1725 1.427 . S
N1733 C1731 1.384 . S
H1734 C1740 0.930 . S
H1735 C1744 0.930 . S
H1736 C1749 0.929 . S
H1737 C1747 0.929 1_655 S
H1738 C1742 0.929 . S
H1739 C1748 0.929 . S
C1740 H1734 0.930 . S
C1740 C1741 1.367 . S
C1740 C1748 1.378 . S
C1741 C1740 1.367 . S
C1741 C1749 1.433 1_545 S
C1742 H1738 0.929 . S
C1742 C1744 1.378 . S
C1742 C1746 1.350 . S
C1743 C1746 1.463 . S
C1743 C1748 1.350 1_565 S
C1743 N1751 1.427 . S
C1744 H1735 0.930 . S
C1744 C1742 1.378 . S
C1744 C1745 1.367 . S
C1745 C1744 1.367 . S
C1745 C1747 1.433 . S
C1746 C1742 1.350 . S
C1746 C1743 1.463 . S
C1746 N1750 1.427 . S
C1747 H1737 0.929 1_455 S
C1747 C1745 1.433 . S
C1747 N1750 1.384 . S
C1748 H1739 0.929 . S
C1748 C1740 1.378 . S
C1748 C1743 1.350 1_545 S
C1749 H1736 0.929 . S
C1749 C1741 1.433 1_565 S
C1749 N1751 1.384 . S
N1750 C1746 1.427 . S
N1750 C1747 1.384 . S
N1751 C1743 1.427 . S
N1751 C1749 1.384 . S
H1752 C1758 0.930 . S
H1753 C1762 0.930 . S
H1754 C1767 0.929 . S
H1755 C1765 0.929 . S
H1756 C1760 0.929 . S
H1757 C1766 0.929 . S
C1758 H1752 0.930 . S
C1758 C1759 1.367 . S
C1758 C1766 1.378 . S
C1759 C1758 1.367 . S
C1759 C1767 1.433 . S
C1760 H1756 0.929 . S
C1760 C1762 1.378 . S
C1760 C1764 1.350 . S
C1761 C1764 1.463 . S
C1761 C1766 1.350 . S
C1761 N1769 1.427 . S
C1762 H1753 0.930 . S
C1762 C1760 1.378 . S
C1762 C1763 1.367 . S
C1763 C1762 1.367 . S
C1763 C1765 1.433 . S
C1764 C1760 1.350 . S
C1764 C1761 1.463 . S
C1764 N1768 1.427 . S
C1765 H1755 0.929 . S
C1765 C1763 1.433 . S
C1765 N1768 1.384 . S
C1766 H1757 0.929 . S
C1766 C1758 1.378 . S
C1766 C1761 1.350 . S
C1767 H1754 0.929 . S
C1767 C1759 1.433 . S
C1767 N1769 1.384 . S
N1768 C1764 1.427 . S
N1768 C1765 1.384 . S
N1769 C1761 1.427 . S
N1769 C1767 1.384 . S
H1770 C1776 0.930 . S
H1771 C1780 0.930 . S
H1772 C1785 0.929 . S
H1773 C1783 0.929 . S
H1774 C1778 0.929 . S
H1775 C1784 0.929 . S
C1776 H1770 0.930 . S
C1776 C1777 1.367 . S
C1776 C1784 1.378 . S
C1777 C1776 1.367 . S
C1777 C1785 1.433 . S
C1778 H1774 0.929 . S
C1778 C1780 1.378 . S
C1778 C1782 1.350 1_655 S
C1779 C1782 1.463 . S
C1779 C1784 1.350 . S
C1779 N1787 1.427 . S
C1780 H1771 0.930 . S
C1780 C1778 1.378 . S
C1780 C1781 1.367 . S
C1781 C1780 1.367 . S
C1781 C1783 1.433 1_655 S
C1782 C1778 1.350 1_455 S
C1782 C1779 1.463 . S
C1782 N1786 1.427 . S
C1783 H1773 0.929 . S
C1783 C1781 1.433 1_455 S
C1783 N1786 1.384 . S
C1784 H1775 0.929 . S
C1784 C1776 1.378 . S
C1784 C1779 1.350 . S
C1785 H1772 0.929 . S
C1785 C1777 1.433 . S
C1785 N1787 1.384 . S
N1786 C1782 1.427 . S
N1786 C1783 1.384 . S
N1787 C1779 1.427 . S
N1787 C1785 1.384 . S
H1788 C1794 0.930 . S
H1789 C1798 0.930 . S
H1790 C1803 0.929 1_455 S
H1791 C1801 0.929 . S
H1792 C1796 0.929 . S
H1793 C1802 0.929 . S
C1794 H1788 0.930 . S
C1794 C1795 1.367 . S
C1794 C1802 1.378 . S
C1795 C1794 1.367 . S
C1795 C1803 1.433 . S
C1796 H1792 0.929 . S
C1796 C1798 1.378 . S
C1796 C1800 1.350 1_565 S
C1797 C1800 1.463 . S
C1797 C1802 1.350 . S
C1797 N1805 1.427 . S
C1798 H1789 0.930 . S
C1798 C1796 1.378 . S
C1798 C1799 1.367 . S
C1799 C1798 1.367 . S
C1799 C1801 1.433 1_565 S
C1800 C1796 1.350 1_545 S
C1800 C1797 1.463 . S
C1800 N1804 1.427 . S
C1801 H1791 0.929 . S
C1801 C1799 1.433 1_545 S
C1801 N1804 1.384 . S
C1802 H1793 0.929 . S
C1802 C1794 1.378 . S
C1802 C1797 1.350 . S
C1803 H1790 0.929 1_655 S
C1803 C1795 1.433 . S
C1803 N1805 1.384 . S
N1804 C1800 1.427 . S
N1804 C1801 1.384 . S
N1805 C1797 1.427 . S
N1805 C1803 1.384 . S
H1806 C1812 0.930 . S
H1807 C1816 0.930 1_545 S
H1808 C1821 0.929 . S
H1809 C1819 0.929 . S
H1810 C1814 0.929 . S
H1811 C1820 0.929 . S
C1812 H1806 0.930 . S
C1812 C1813 1.367 . S
C1812 C1820 1.378 . S
C1813 C1812 1.367 . S
C1813 C1821 1.433 . S
C1814 H1810 0.929 . S
C1814 C1816 1.378 . S
C1814 C1818 1.350 . S
C1815 C1818 1.463 . S
C1815 C1820 1.350 . S
C1815 N1823 1.427 . S
C1816 H1807 0.930 1_565 S
C1816 C1814 1.378 . S
C1816 C1817 1.367 . S
C1817 C1816 1.367 . S
C1817 C1819 1.433 . S
C1818 C1814 1.350 . S
C1818 C1815 1.463 . S
C1818 N1822 1.427 . S
C1819 H1809 0.929 . S
C1819 C1817 1.433 . S
C1819 N1822 1.384 . S
C1820 H1811 0.929 . S
C1820 C1812 1.378 . S
C1820 C1815 1.350 . S
C1821 H1808 0.929 . S
C1821 C1813 1.433 . S
C1821 N1823 1.384 . S
N1822 C1818 1.427 . S
N1822 C1819 1.384 . S
N1823 C1815 1.427 . S
N1823 C1821 1.384 . S
C1075 C63 2.501 . S
C1079 C417 2.624 . S
C1093 C506 2.626 . S
C1097 C152 2.499 . S
C1111 C61 2.625 . S
C1115 C241 2.490 . S
C1129 C150 2.619 . S
C1133 C330 2.489 . S
C1147 C419 2.489 . S
C1151 C239 2.620 . S
C1165 C328 2.618 . S
C1169 C508 2.491 . S
C1183 C597 2.499 . S
C1187 C773 2.626 . S
C1201 C686 2.499 . S
C1205 C862 2.626 . S
C1219 C951 2.619 . S
C1223 C775 2.490 . S
C1237 C1040 2.620 . S
C1241 C864 2.499 . S
C1255 C595 2.622 . S
C1259 C953 2.500 . S
C1273 C1042 2.500 . S
C1277 C684 2.625 . S
C1291 C908 1.664 . S
C1295 C18 1.660 . S
C1309 C997 1.657 . S
C1313 C107 1.660 . S
C1327 C552 1.659 . S
C1331 C196 1.665 . S
C1345 C641 1.665 . S
C1349 C285 1.659 . S
C1363 C374 1.657 . S
C1367 C730 1.664 . S
C1381 C819 1.661 . S
C1385 C463 1.657 . S
C1399 C874 1.565 . S
C1403 C73 1.574 . S
C1417 C963 1.561 . S
C1421 C162 1.575 . S
C1435 C251 1.563 . S
C1439 C1052 1.571 . S
C1453 C607 1.563 . S
C1457 C340 1.575 . S
C1471 C696 1.562 . S
C1475 C429 1.570 . S
C1489 C785 1.574 . S
C1493 C518 1.566 . S
C1507 C649 0.968 . S
C1511 C204 0.976 . S
C1525 C738 0.976 . S
C1529 C293 0.965 . S
C1543 C827 0.948 . S
C1547 C382 0.966 . S
C1561 C916 0.972 . S
C1565 C471 0.973 . S
C1579 C26 0.976 . S
C1583 C1005 0.968 . S
C1597 C115 0.976 . S
C1601 C560 0.964 . S
C1615 C357 1.648 . S
C1619 C70 1.572 . S
C1633 C446 1.652 . S
C1637 C159 1.574 1_455 S
C1651 C248 1.571 1_545 S
C1655 C1 1.647 . S
C1669 C90 1.642 . S
C1673 C337 1.548 . S
C1687 C179 1.649 . S
C1691 C426 1.572 1_655 S
C1705 C268 1.643 . S
C1709 C515 1.567 1_565 S
C1723 C604 1.548 . S
C1727 C713 1.641 . S
C1741 C802 1.637 . S
C1745 C693 1.551 1_455 S
C1759 C891 1.655 . S
C1763 C782 1.573 1_545 S
C1777 C871 1.557 . S
C1781 C980 1.637 . S
C1795 C960 1.555 1_655 S
C1799 C535 1.637 . S
C1813 C624 1.659 . S
C1817 C1049 1.569 1_565 S
