# Generated by pormake.
# Topology whk, (6)-cn, num edge types: 1
# Building blocks:
#     Node 0, Type 0, BuildingBlock: MIFKUJ_clean_sbu_0, # of connection points: 6
#     Node 1, Type 0, BuildingBlock: MIFKUJ_clean_sbu_0, # of connection points: 6
#     Node 2, Type 0, BuildingBlock: MIFKUJ_clean_sbu_0, # of connection points: 6
#     Node 3, Type 0, BuildingBlock: MIFKUJ_clean_sbu_0, # of connection points: 6
#     Node 4, Type 0, BuildingBlock: MIFKUJ_clean_sbu_0, # of connection points: 6
#     Node 5, Type 0, BuildingBlock: MIFKUJ_clean_sbu_0, # of connection points: 6
#     Node 6, Type 0, BuildingBlock: MIFKUJ_clean_sbu_0, # of connection points: 6
#     Node 7, Type 0, BuildingBlock: MIFKUJ_clean_sbu_0, # of connection points: 6
#     Node 8, Type 0, BuildingBlock: MIFKUJ_clean_sbu_0, # of connection points: 6
#     Node 9, Type 0, BuildingBlock: MIFKUJ_clean_sbu_0, # of connection points: 6
#     Node 10, Type 0, BuildingBlock: MIFKUJ_clean_sbu_0, # of connection points: 6
#     Node 11, Type 0, BuildingBlock: MIFKUJ_clean_sbu_0, # of connection points: 6
#     Node 12, Type 0, BuildingBlock: MIFKUJ_clean_sbu_0, # of connection points: 6
#     Node 13, Type 0, BuildingBlock: MIFKUJ_clean_sbu_0, # of connection points: 6
#     Node 14, Type 0, BuildingBlock: MIFKUJ_clean_sbu_0, # of connection points: 6
#     Node 15, Type 0, BuildingBlock: MIFKUJ_clean_sbu_0, # of connection points: 6
#     Edge 16, Type (0, 0), BuildingBlock: KIFKEQ_clean_linker_1, # of connection points: 2
#     Edge 17, Type (0, 0), BuildingBlock: KIFKEQ_clean_linker_1, # of connection points: 2
#     Edge 18, Type (0, 0), BuildingBlock: KIFKEQ_clean_linker_1, # of connection points: 2
#     Edge 19, Type (0, 0), BuildingBlock: KIFKEQ_clean_linker_1, # of connection points: 2
#     Edge 20, Type (0, 0), BuildingBlock: KIFKEQ_clean_linker_1, # of connection points: 2
#     Edge 21, Type (0, 0), BuildingBlock: KIFKEQ_clean_linker_1, # of connection points: 2
#     Edge 22, Type (0, 0), BuildingBlock: KIFKEQ_clean_linker_1, # of connection points: 2
#     Edge 23, Type (0, 0), BuildingBlock: KIFKEQ_clean_linker_1, # of connection points: 2
#     Edge 24, Type (0, 0), BuildingBlock: KIFKEQ_clean_linker_1, # of connection points: 2
#     Edge 25, Type (0, 0), BuildingBlock: KIFKEQ_clean_linker_1, # of connection points: 2
#     Edge 26, Type (0, 0), BuildingBlock: KIFKEQ_clean_linker_1, # of connection points: 2
#     Edge 27, Type (0, 0), BuildingBlock: KIFKEQ_clean_linker_1, # of connection points: 2
#     Edge 28, Type (0, 0), BuildingBlock: KIFKEQ_clean_linker_1, # of connection points: 2
#     Edge 29, Type (0, 0), BuildingBlock: KIFKEQ_clean_linker_1, # of connection points: 2
#     Edge 30, Type (0, 0), BuildingBlock: KIFKEQ_clean_linker_1, # of connection points: 2
#     Edge 31, Type (0, 0), BuildingBlock: KIFKEQ_clean_linker_1, # of connection points: 2
#     Edge 32, Type (0, 0), BuildingBlock: KIFKEQ_clean_linker_1, # of connection points: 2
#     Edge 33, Type (0, 0), BuildingBlock: KIFKEQ_clean_linker_1, # of connection points: 2
#     Edge 34, Type (0, 0), BuildingBlock: KIFKEQ_clean_linker_1, # of connection points: 2
#     Edge 35, Type (0, 0), BuildingBlock: KIFKEQ_clean_linker_1, # of connection points: 2
#     Edge 36, Type (0, 0), BuildingBlock: KIFKEQ_clean_linker_1, # of connection points: 2
#     Edge 37, Type (0, 0), BuildingBlock: KIFKEQ_clean_linker_1, # of connection points: 2
#     Edge 38, Type (0, 0), BuildingBlock: KIFKEQ_clean_linker_1, # of connection points: 2
#     Edge 39, Type (0, 0), BuildingBlock: KIFKEQ_clean_linker_1, # of connection points: 2
#     Edge 40, Type (0, 0), BuildingBlock: KIFKEQ_clean_linker_1, # of connection points: 2
#     Edge 41, Type (0, 0), BuildingBlock: KIFKEQ_clean_linker_1, # of connection points: 2
#     Edge 42, Type (0, 0), BuildingBlock: KIFKEQ_clean_linker_1, # of connection points: 2
#     Edge 43, Type (0, 0), BuildingBlock: KIFKEQ_clean_linker_1, # of connection points: 2
#     Edge 44, Type (0, 0), BuildingBlock: KIFKEQ_clean_linker_1, # of connection points: 2
#     Edge 45, Type (0, 0), BuildingBlock: KIFKEQ_clean_linker_1, # of connection points: 2
#     Edge 46, Type (0, 0), BuildingBlock: KIFKEQ_clean_linker_1, # of connection points: 2
#     Edge 47, Type (0, 0), BuildingBlock: KIFKEQ_clean_linker_1, # of connection points: 2
#     Edge 48, Type (0, 0), BuildingBlock: KIFKEQ_clean_linker_1, # of connection points: 2
#     Edge 49, Type (0, 0), BuildingBlock: KIFKEQ_clean_linker_1, # of connection points: 2
#     Edge 50, Type (0, 0), BuildingBlock: KIFKEQ_clean_linker_1, # of connection points: 2
#     Edge 51, Type (0, 0), BuildingBlock: KIFKEQ_clean_linker_1, # of connection points: 2
#     Edge 52, Type (0, 0), BuildingBlock: KIFKEQ_clean_linker_1, # of connection points: 2
#     Edge 53, Type (0, 0), BuildingBlock: KIFKEQ_clean_linker_1, # of connection points: 2
#     Edge 54, Type (0, 0), BuildingBlock: KIFKEQ_clean_linker_1, # of connection points: 2
#     Edge 55, Type (0, 0), BuildingBlock: KIFKEQ_clean_linker_1, # of connection points: 2
#     Edge 56, Type (0, 0), BuildingBlock: KIFKEQ_clean_linker_1, # of connection points: 2
#     Edge 57, Type (0, 0), BuildingBlock: KIFKEQ_clean_linker_1, # of connection points: 2
#     Edge 58, Type (0, 0), BuildingBlock: KIFKEQ_clean_linker_1, # of connection points: 2
#     Edge 59, Type (0, 0), BuildingBlock: KIFKEQ_clean_linker_1, # of connection points: 2
#     Edge 60, Type (0, 0), BuildingBlock: KIFKEQ_clean_linker_1, # of connection points: 2
#     Edge 61, Type (0, 0), BuildingBlock: KIFKEQ_clean_linker_1, # of connection points: 2
#     Edge 62, Type (0, 0), BuildingBlock: KIFKEQ_clean_linker_1, # of connection points: 2
#     Edge 63, Type (0, 0), BuildingBlock: KIFKEQ_clean_linker_1, # of connection points: 2
# Relax obj value: 0.392
# Max RMSD: 0.269
# Mean RMSD: 0.269
data_MOF--net-whk--node1-MIFKUJ_clean_sbu_0--edge1-KIFKEQ_clean_linker_1
_symmetry_space_group_name_H-M    P1
_symmetry_Int_Tables_number       1
_symmetry_cell_setting            triclinic
loop_
_symmetry_equiv_pos_as_xyz
'x, y, z'
_cell_length_a     40.817351
_cell_length_b     40.785577
_cell_length_c     44.029797
_cell_angle_alpha  89.96082
_cell_angle_beta   89.995931
_cell_angle_gamma 90.104711
loop_
_atom_site_label
_atom_site_type_symbol
_atom_site_fract_x
_atom_site_fract_y
_atom_site_fract_z
_atom_type_partial_charge
Zn0 Zn 0.51071 0.15722 0.39509 0.0
Zn1 Zn 0.6066 0.14285 0.40073 0.0
C2 C 0.48167 0.21834 0.40427 0.0
O3 O 0.47557 0.20281 0.42981 0.0
C4 C 0.63946 0.08794 0.42634 0.0
O5 O 0.64492 0.08234 0.39739 0.0
O6 O 0.46876 0.13275 0.40497 0.0
O7 O 0.53068 0.13261 0.35903 0.0
O8 O 0.58367 0.12205 0.36592 0.0
C9 C 0.44815 0.13088 0.38333 0.0
O10 O 0.45546 0.14474 0.35723 0.0
O11 O 0.49719 0.20331 0.38344 0.0
C12 C 0.65135 0.18427 0.36757 0.0
O13 O 0.62463 0.2005 0.36051 0.0
O14 O 0.64914 0.15861 0.38378 0.0
O15 O 0.58604 0.18327 0.41747 0.0
O16 O 0.5389 0.16295 0.43274 0.0
O17 O 0.62045 0.11135 0.43368 0.0
C18 C 0.5574 0.11913 0.35072 0.0
C19 C 0.55911 0.18667 0.43136 0.0
Zn20 Zn 0.35192 0.50268 0.39898 0.0
Zn21 Zn 0.34034 0.60012 0.3982 0.0
C22 C 0.29762 0.4603 0.39769 0.0
O23 O 0.31626 0.4465 0.41837 0.0
C24 C 0.38296 0.64863 0.4217 0.0
O25 O 0.38698 0.65272 0.39233 0.0
O26 O 0.38138 0.4631 0.40379 0.0
O27 O 0.37398 0.53306 0.36718 0.0
O28 O 0.37148 0.58792 0.36549 0.0
C29 C 0.38565 0.44478 0.38075 0.0
O30 O 0.3718 0.45298 0.3549 0.0
O31 O 0.30793 0.48594 0.38419 0.0
C32 C 0.27592 0.62471 0.3804 0.0
O33 O 0.26496 0.59581 0.38884 0.0
O34 O 0.30646 0.63065 0.38147 0.0
O35 O 0.31973 0.55897 0.41203 0.0
O36 O 0.34134 0.52184 0.44052 0.0
O37 O 0.36427 0.62562 0.43092 0.0
C38 C 0.3818 0.56064 0.35529 0.0
C39 C 0.3252 0.54823 0.43845 0.0
Zn40 Zn 0.00623 0.34596 0.39401 0.0
Zn41 Zn 0.90808 0.35172 0.39766 0.0
C42 C 0.03324 0.28403 0.40528 0.0
O43 O 0.04045 0.3004 0.4301 0.0
C44 C 0.85676 0.39584 0.41425 0.0
O45 O 0.85145 0.39398 0.38486 0.0
O46 O 0.0497 0.3692 0.39968 0.0
O47 O 0.98446 0.37013 0.35877 0.0
O48 O 0.93045 0.37603 0.36417 0.0
C49 C 0.07144 0.36323 0.37971 0.0
O50 O 0.06445 0.34277 0.3576 0.0
O51 O 0.01755 0.29858 0.38421 0.0
C52 C 0.86015 0.30294 0.39558 0.0
O53 O 0.86934 0.30167 0.42416 0.0
O54 O 0.87392 0.32343 0.37797 0.0
O55 O 0.93483 0.32014 0.42177 0.0
O56 O 0.98134 0.34452 0.43392 0.0
O57 O 0.88173 0.38142 0.4253 0.0
C58 C 0.95702 0.38168 0.35003 0.0
C59 C 0.96135 0.32078 0.43667 0.0
Zn60 Zn 0.16354 0.99778 0.39733 0.0
Zn61 Zn 0.14309 0.90177 0.404 0.0
C62 C 0.22456 0.02695 0.40818 0.0
O63 O 0.20904 0.03132 0.43402 0.0
C64 C 0.08429 0.87444 0.42709 0.0
O65 O 0.07999 0.86952 0.39787 0.0
O66 O 0.13869 0.04 0.40688 0.0
O67 O 0.14023 0.9769 0.36074 0.0
O68 O 0.12554 0.9248 0.36769 0.0
C69 C 0.12229 0.05388 0.38586 0.0
O70 O 0.12094 0.04007 0.35896 0.0
O71 O 0.20969 0.01225 0.38669 0.0
C72 C 0.1599 0.83455 0.40843 0.0
O73 O 0.15515 0.84113 0.4373 0.0
O74 O 0.15643 0.85729 0.38895 0.0
O75 O 0.18449 0.92019 0.42125 0.0
O76 O 0.1687 0.9695 0.43523 0.0
O77 O 0.10856 0.8918 0.43566 0.0
C78 C 0.12549 0.95095 0.35203 0.0
C79 C 0.1905 0.94727 0.43421 0.0
Zn80 Zn 0.00736 0.85747 0.09811 0.0
Zn81 Zn 0.0958 0.8402 0.10083 0.0
C82 C 0.99757 0.7926 0.12922 0.0
O83 O 0.02399 0.79864 0.14534 0.0
C84 C 0.13234 0.89212 0.07169 0.0
O85 O 0.13222 0.90387 0.09945 0.0
O86 O 0.9682 0.88624 0.08927 0.0
O87 O 0.03179 0.8796 0.13367 0.0
O88 O 0.08531 0.86966 0.13496 0.0
C89 C 0.94923 0.891 0.11179 0.0
O90 O 0.95709 0.87818 0.13819 0.0
O91 O 0.98719 0.81408 0.11064 0.0
C92 C 0.13647 0.78524 0.09722 0.0
O93 O 0.11861 0.78161 0.07266 0.0
O94 O 0.13096 0.80948 0.11454 0.0
O95 O 0.05799 0.81231 0.08807 0.0
O96 O 0.03102 0.8455 0.05845 0.0
O97 O 0.11647 0.86586 0.06612 0.0
C98 C 0.06 0.88343 0.14568 0.0
C99 C 0.04745 0.81934 0.06191 0.0
Zn100 Zn 0.66009 0.01127 0.09729 0.0
Zn101 Zn 0.64317 0.10722 0.08831 0.0
C102 C 0.72124 0.98219 0.08764 0.0
O103 O 0.70489 0.9739 0.0631 0.0
C104 C 0.58493 0.13553 0.06633 0.0
O105 O 0.58154 0.1403 0.09568 0.0
O106 O 0.63599 0.96876 0.0893 0.0
O107 O 0.63628 0.03259 0.13314 0.0
O108 O 0.62529 0.08547 0.12542 0.0
C109 C 0.63358 0.94947 0.11192 0.0
O110 O 0.6466 0.95839 0.13795 0.0
O111 O 0.70674 0.99905 0.1079 0.0
C112 C 0.66792 0.16959 0.07872 0.0
O113 O 0.6664 0.15755 0.05107 0.0
O114 O 0.65888 0.15172 0.10084 0.0
O115 O 0.68329 0.08675 0.07098 0.0
O116 O 0.6633 0.03846 0.05902 0.0
O117 O 0.60846 0.11766 0.05712 0.0
C118 C 0.62328 0.05959 0.14142 0.0
C119 C 0.68676 0.05897 0.05865 0.0
Zn120 Zn 0.50913 0.66087 0.10638 0.0
Zn121 Zn 0.41383 0.64662 0.10077 0.0
C122 C 0.53878 0.7214 0.09435 0.0
O123 O 0.54617 0.70417 0.0701 0.0
C124 C 0.37573 0.59416 0.07928 0.0
O125 O 0.36966 0.59281 0.10856 0.0
O126 O 0.55147 0.63652 0.0992 0.0
O127 O 0.4879 0.63906 0.14329 0.0
O128 O 0.43482 0.62704 0.13754 0.0
C129 C 0.57075 0.63417 0.12181 0.0
O130 O 0.56184 0.64707 0.14787 0.0
O131 O 0.52209 0.7078 0.11531 0.0
C132 C 0.35454 0.67642 0.09169 0.0
O133 O 0.36737 0.67481 0.06435 0.0
O134 O 0.3711 0.6659 0.1141 0.0
O135 O 0.43623 0.68506 0.0817 0.0
O136 O 0.48273 0.66277 0.06754 0.0
O137 O 0.39858 0.61301 0.07003 0.0
C138 C 0.46136 0.62594 0.15257 0.0
C139 C 0.46274 0.68656 0.06689 0.0
Zn140 Zn 0.85888 0.51164 0.10352 0.0
Zn141 Zn 0.84041 0.4215 0.10199 0.0
C142 C 0.8003 0.54586 0.09839 0.0
O143 O 0.81669 0.55472 0.07403 0.0
C144 C 0.88239 0.37284 0.07983 0.0
O145 O 0.8819 0.36703 0.10919 0.0
O146 O 0.88563 0.55343 0.09992 0.0
O147 O 0.88107 0.4842 0.13678 0.0
O148 O 0.86951 0.43083 0.13697 0.0
C149 C 0.89124 0.56841 0.12475 0.0
O150 O 0.88025 0.55559 0.15019 0.0
O151 O 0.81393 0.52649 0.1172 0.0
C152 C 0.78293 0.38482 0.09543 0.0
O153 O 0.78178 0.40356 0.07118 0.0
O154 O 0.80629 0.38866 0.11418 0.0
O155 O 0.81628 0.46091 0.08715 0.0
O156 O 0.85008 0.49163 0.06158 0.0
O157 O 0.86675 0.39759 0.06975 0.0
C158 C 0.88419 0.45555 0.14805 0.0
C159 C 0.82541 0.47258 0.06193 0.0
Zn160 Zn 0.41275 0.85163 0.6036 0.0
Zn161 Zn 0.50201 0.85816 0.60417 0.0
C162 C 0.37953 0.90271 0.57135 0.0
O163 O 0.37643 0.91384 0.59919 0.0
C164 C 0.53772 0.79984 0.60074 0.0
O165 O 0.5472 0.81607 0.57648 0.0
O166 O 0.37302 0.82621 0.6155 0.0
O167 O 0.44689 0.81798 0.59451 0.0
O168 O 0.47849 0.8463 0.5644 0.0
C169 C 0.36304 0.8071 0.59471 0.0
O170 O 0.37996 0.8051 0.56939 0.0
O171 O 0.39703 0.87733 0.56682 0.0
C172 C 0.56167 0.88905 0.61867 0.0
O173 O 0.55234 0.87753 0.64518 0.0
O174 O 0.5433 0.88425 0.59572 0.0
O175 O 0.47854 0.88326 0.63854 0.0
O176 O 0.42419 0.88092 0.63752 0.0
O177 O 0.5176 0.8135 0.61886 0.0
C178 C 0.45985 0.82174 0.56869 0.0
C179 C 0.45062 0.8912 0.64928 0.0
Zn180 Zn 0.65004 0.41252 0.5947 0.0
Zn181 Zn 0.65204 0.50726 0.60064 0.0
C182 C 0.59855 0.37827 0.56452 0.0
O183 O 0.58859 0.37539 0.59278 0.0
C184 C 0.70759 0.53894 0.63294 0.0
O185 O 0.68558 0.55649 0.64734 0.0
O186 O 0.67485 0.37301 0.60824 0.0
O187 O 0.68195 0.44744 0.58452 0.0
O188 O 0.66064 0.48738 0.55868 0.0
C189 C 0.70427 0.3725 0.61757 0.0
O190 O 0.7206 0.40013 0.62025 0.0
O191 O 0.62359 0.39596 0.55892 0.0
C192 C 0.61493 0.56482 0.61827 0.0
O193 O 0.61381 0.54918 0.64435 0.0
O194 O 0.62936 0.5514 0.59583 0.0
O195 O 0.62649 0.48071 0.63317 0.0
O196 O 0.62181 0.42641 0.62871 0.0
O197 O 0.69829 0.51673 0.61462 0.0
C198 C 0.67768 0.46135 0.55921 0.0
C199 C 0.61543 0.45307 0.64237 0.0
Zn200 Zn 0.09237 0.6572 0.59613 0.0
Zn201 Zn 0.99468 0.66118 0.60767 0.0
C202 C 0.14279 0.61411 0.57916 0.0
O203 O 0.14765 0.61664 0.60857 0.0
C204 C 0.96016 0.71668 0.63546 0.0
O205 O 0.94072 0.69401 0.6466 0.0
O206 O 0.12806 0.68706 0.6105 0.0
O207 O 0.06227 0.68719 0.57371 0.0
O208 O 0.01341 0.66558 0.56511 0.0
C209 C 0.14057 0.70361 0.58896 0.0
O210 O 0.12788 0.70098 0.56164 0.0
O211 O 0.11739 0.62737 0.56771 0.0
C212 C 0.94012 0.62289 0.62939 0.0
O213 O 0.95764 0.62399 0.65438 0.0
O214 O 0.95105 0.6369 0.60556 0.0
O215 O 0.02181 0.63738 0.63973 0.0
O216 O 0.07554 0.63306 0.63227 0.0
O217 O 0.98512 0.70813 0.62011 0.0
C218 C 0.03447 0.68815 0.56098 0.0
C219 C 0.04994 0.62701 0.64768 0.0
Zn220 Zn 0.86025 0.10337 0.59916 0.0
Zn221 Zn 0.85192 0.00855 0.60783 0.0
C222 C 0.91518 0.13829 0.57598 0.0
O223 O 0.91951 0.1434 0.60517 0.0
C224 C 0.79123 0.97899 0.59932 0.0
O225 O 0.80853 0.96903 0.57591 0.0
O226 O 0.83849 0.14459 0.6132 0.0
O227 O 0.8238 0.07723 0.58074 0.0
O228 O 0.84879 0.03173 0.56709 0.0
C229 C 0.82065 0.15869 0.59352 0.0
O230 O 0.81785 0.14555 0.5664 0.0
O231 O 0.89227 0.11915 0.56754 0.0
C232 C 0.87481 0.94844 0.62847 0.0
O233 O 0.86089 0.96119 0.65264 0.0
O234 O 0.8746 0.96479 0.60384 0.0
O235 O 0.87636 0.03137 0.64233 0.0
O236 O 0.88286 0.08492 0.63527 0.0
O237 O 0.8049 0.99759 0.6188 0.0
C238 C 0.8243 0.05087 0.56557 0.0
C239 C 0.8878 0.05904 0.65058 0.0
Zn240 Zn 0.90982 0.14838 0.9077 0.0
Zn241 Zn 1.00192 0.15983 0.90309 0.0
C242 C 0.88552 0.09193 0.93751 0.0
O243 O 0.88138 0.08353 0.90897 0.0
C244 C 0.0382 0.21796 0.90591 0.0
O245 O 0.04738 0.20228 0.93056 0.0
O246 O 0.86547 0.16655 0.89769 0.0
O247 O 0.9363 0.18833 0.91609 0.0
O248 O 0.97837 0.1724 0.94271 0.0
C249 C 0.84686 0.17246 0.92015 0.0
O250 O 0.85731 0.16621 0.94775 0.0
O251 O 0.90178 0.11787 0.94336 0.0
C252 C 0.06231 0.12995 0.8895 0.0
O253 O 0.05412 0.14283 0.86321 0.0
O254 O 0.04299 0.13359 0.91196 0.0
O255 O 0.97896 0.13469 0.86821 0.0
O256 O 0.92553 0.12451 0.87195 0.0
O257 O 0.0179 0.2041 0.88807 0.0
C258 C 0.9524 0.1894 0.94054 0.0
C259 C 0.95262 0.12171 0.85811 0.0
Zn260 Zn 0.36675 0.90491 0.90457 0.0
Zn261 Zn 0.34795 1.00014 0.90159 0.0
C262 C 0.42246 0.87384 0.9309 0.0
O263 O 0.42925 0.86925 0.90204 0.0
C264 C 0.28694 0.02872 0.91199 0.0
O265 O 0.30248 0.03314 0.93781 0.0
O266 O 0.35339 0.86203 0.88622 0.0
O267 O 0.32521 0.92327 0.92127 0.0
O268 O 0.34196 0.97097 0.93881 0.0
C269 C 0.32636 0.85869 0.87227 0.0
O270 O 0.30706 0.88418 0.86895 0.0
O271 O 0.39801 0.89163 0.93788 0.0
C272 C 0.37543 0.06165 0.88934 0.0
O273 O 0.36313 0.05283 0.86299 0.0
O274 O 0.37214 0.04228 0.91186 0.0
O275 O 0.37289 0.98169 0.86494 0.0
O276 O 0.3873 0.92941 0.87055 0.0
O277 O 0.30184 0.01419 0.89044 0.0
C278 C 0.3198 0.94916 0.93631 0.0
C279 C 0.38823 0.95625 0.85597 0.0
Zn280 Zn 0.59951 0.35973 0.90477 0.0
Zn281 Zn 0.50139 0.34994 0.89338 0.0
C282 C 0.64693 0.40804 0.91911 0.0
O283 O 0.65387 0.40223 0.89047 0.0
C284 C 0.47009 0.2901 0.90446 0.0
O285 O 0.45963 0.30879 0.92674 0.0
O286 O 0.63648 0.32981 0.89371 0.0
O287 O 0.57109 0.32946 0.92879 0.0
O288 O 0.52203 0.35083 0.93514 0.0
C289 C 0.65069 0.31903 0.91738 0.0
O290 O 0.64017 0.32865 0.94414 0.0
O291 O 0.62171 0.39444 0.93067 0.0
C292 C 0.44262 0.37492 0.86931 0.0
O293 O 0.45521 0.36012 0.84553 0.0
O294 O 0.45835 0.37427 0.89425 0.0
O295 O 0.52728 0.37145 0.85894 0.0
O296 O 0.58083 0.3786 0.8665 0.0
O297 O 0.4897 0.3024 0.88502 0.0
C298 C 0.54303 0.32878 0.94099 0.0
C299 C 0.55521 0.38208 0.85037 0.0
Zn300 Zn 0.17176 0.60123 0.89157 0.0
Zn301 Zn 0.16227 0.50652 0.89239 0.0
C302 C 0.13088 0.6514 0.91372 0.0
O303 O 0.12956 0.65633 0.88425 0.0
C304 C 0.21507 0.47014 0.86193 0.0
O305 O 0.19147 0.45116 0.85182 0.0
O306 O 0.20129 0.63418 0.87149 0.0
O307 O 0.19921 0.56517 0.90854 0.0
O308 O 0.17124 0.5282 0.93327 0.0
C309 C 0.23208 0.63528 0.87555 0.0
O310 O 0.2463 0.6126 0.89208 0.0
O311 O 0.14738 0.62716 0.92367 0.0
C312 C 0.12229 0.44965 0.87837 0.0
O313 O 0.12036 0.46436 0.85188 0.0
O314 O 0.13847 0.4633 0.89966 0.0
O315 O 0.13611 0.53151 0.86002 0.0
O316 O 0.14025 0.58598 0.86034 0.0
O317 O 0.20784 0.49538 0.87745 0.0
C318 C 0.19129 0.55209 0.93356 0.0
C319 C 0.12841 0.55963 0.84956 0.0
H320 H 0.60539 0.07765 0.33184 0.0
H321 H 0.51459 0.12189 0.30252 0.0
H322 H 0.61487 0.05734 0.28087 0.0
H323 H 0.52388 0.10083 0.2512 0.0
H324 H 0.58574 0.11004 0.16217 0.0
H325 H 0.56336 0.11755 0.21265 0.0
H326 H 0.59909 0.02198 0.23883 0.0
H327 H 0.62225 0.01457 0.18805 0.0
C328 C 0.58706 0.0825 0.31462 0.0
C329 C 0.5595 0.10193 0.32114 0.0
C330 C 0.59238 0.07052 0.28538 0.0
C331 C 0.57032 0.0777 0.26185 0.0
C332 C 0.54159 0.09527 0.26878 0.0
C333 C 0.53616 0.10718 0.2982 0.0
C334 C 0.5886 0.09038 0.17851 0.0
C335 C 0.60633 0.0619 0.17116 0.0
C336 C 0.57537 0.09457 0.20744 0.0
C337 C 0.57951 0.07044 0.22987 0.0
C338 C 0.59579 0.04119 0.22213 0.0
C339 C 0.60899 0.03691 0.19302 0.0
H340 H 0.47522 0.65448 0.20655 0.0
H341 H 0.44322 0.56372 0.16624 0.0
H342 H 0.46167 0.63358 0.25666 0.0
H343 H 0.43246 0.54105 0.21648 0.0
H344 H 0.36835 0.53152 0.30152 0.0
H345 H 0.39394 0.5432 0.25292 0.0
H346 H 0.46713 0.60248 0.29854 0.0
H347 H 0.43909 0.59301 0.34661 0.0
C348 C 0.46645 0.62949 0.2087 0.0
C349 C 0.46011 0.61068 0.18278 0.0
C350 C 0.45878 0.61724 0.23751 0.0
C351 C 0.44541 0.5855 0.24107 0.0
C352 C 0.44158 0.56591 0.21492 0.0
C353 C 0.4482 0.57864 0.18608 0.0
C354 C 0.39029 0.54651 0.30102 0.0
C355 C 0.40178 0.56148 0.32756 0.0
C356 C 0.40524 0.55319 0.27311 0.0
C357 C 0.43263 0.57433 0.27128 0.0
C358 C 0.44553 0.58706 0.29855 0.0
C359 C 0.42984 0.58127 0.32627 0.0
H360 H 0.91104 0.42675 0.33438 0.0
H361 H 0.9977 0.37829 0.30055 0.0
H362 H 0.9015 0.45053 0.28444 0.0
H363 H 0.98788 0.40205 0.25022 0.0
H364 H 0.91518 0.39974 0.16541 0.0
H365 H 0.94083 0.38823 0.21417 0.0
H366 H 0.92337 0.48801 0.24248 0.0
H367 H 0.8978 0.49974 0.19326 0.0
C368 C 0.92842 0.42169 0.31638 0.0
C369 C 0.9549 0.40032 0.32127 0.0
C370 C 0.92309 0.43556 0.28784 0.0
C371 C 0.94386 0.42802 0.26342 0.0
C372 C 0.97142 0.40814 0.26867 0.0
C373 C 0.97708 0.39464 0.29745 0.0
C374 C 0.91736 0.41943 0.1818 0.0
C375 C 0.90413 0.45054 0.17569 0.0
C376 C 0.93233 0.4129 0.20962 0.0
C377 C 0.93401 0.4372 0.23214 0.0
C378 C 0.92229 0.46883 0.22551 0.0
C379 C 0.90776 0.47554 0.19737 0.0
H380 H 0.13537 0.99109 0.30263 0.0
H381 H 0.07835 0.90818 0.33357 0.0
H382 H 0.11379 0.98323 0.25121 0.0
H383 H 0.05713 0.90033 0.28257 0.0
H384 H 0.0141 0.89715 0.18954 0.0
H385 H 0.02427 0.92197 0.23939 0.0
H386 H 0.12536 0.9384 0.21459 0.0
H387 H 0.11527 0.91392 0.1652 0.0
C388 C 0.11778 0.97165 0.29862 0.0
C389 C 0.10901 0.94993 0.32205 0.0
C390 C 0.1055 0.96709 0.26919 0.0
C391 C 0.0839 0.94103 0.26279 0.0
C392 C 0.07346 0.9208 0.28673 0.0
C393 C 0.08595 0.92512 0.31595 0.0
C394 C 0.03825 0.90678 0.19456 0.0
C395 C 0.06399 0.90316 0.17365 0.0
C396 C 0.04412 0.92085 0.2231 0.0
C397 C 0.07568 0.93197 0.23099 0.0
C398 C 0.10072 0.93039 0.20919 0.0
C399 C 0.09499 0.91603 0.18095 0.0
H400 H 0.43493 0.91343 0.837 0.0
H401 H 0.38075 0.9988 0.80796 0.0
H402 H 0.45619 0.9065 0.78598 0.0
H403 H 0.40258 0.99203 0.75653 0.0
H404 H 0.39786 0.92576 0.66897 0.0
H405 H 0.3895 0.94999 0.71866 0.0
H406 H 0.48917 0.92631 0.7432 0.0
H407 H 0.49748 0.90146 0.69316 0.0
C408 C 0.42808 0.93118 0.81983 0.0
C409 C 0.40564 0.95633 0.82642 0.0
C410 C 0.44059 0.92737 0.79057 0.0
C411 C 0.43088 0.94853 0.76707 0.0
C412 C 0.41022 0.97509 0.7741 0.0
C413 C 0.39783 0.97907 0.80356 0.0
C414 C 0.41824 0.92619 0.68472 0.0
C415 C 0.44817 0.91113 0.67731 0.0
C416 C 0.41353 0.94045 0.71317 0.0
C417 C 0.43857 0.93987 0.73504 0.0
C418 C 0.46928 0.9268 0.72693 0.0
C419 C 0.4741 0.9127 0.69825 0.0
H420 H 0.51008 0.38565 0.8041 0.0
H421 H 0.60777 0.41662 0.82911 0.0
H422 H 0.51776 0.40979 0.75372 0.0
H423 H 0.61538 0.44032 0.77899 0.0
H424 H 0.61821 0.49455 0.69136 0.0
H425 H 0.59779 0.48325 0.74263 0.0
H426 H 0.55267 0.39396 0.71034 0.0
H427 H 0.5727 0.40531 0.65942 0.0
C428 C 0.53302 0.39786 0.79901 0.0
C429 C 0.55845 0.3988 0.82056 0.0
C430 C 0.53741 0.41166 0.77015 0.0
C431 C 0.56717 0.42698 0.76235 0.0
C432 C 0.592 0.42912 0.78435 0.0
C433 C 0.58774 0.41515 0.81303 0.0
C434 C 0.60312 0.47304 0.69508 0.0
C435 C 0.5974 0.45062 0.67146 0.0
C436 C 0.59166 0.46642 0.72447 0.0
C437 C 0.57395 0.4375 0.73061 0.0
C438 C 0.56606 0.41653 0.70641 0.0
C439 C 0.57774 0.42295 0.67722 0.0
H440 H 0.09984 0.58637 0.66384 0.0
H441 H 0.00917 0.62734 0.69721 0.0
H442 H 0.1109 0.56334 0.71378 0.0
H443 H 0.0203 0.60406 0.7474 0.0
H444 H 0.09012 0.61119 0.83347 0.0
H445 H 0.06385 0.62065 0.78466 0.0
H446 H 0.09313 0.52418 0.75489 0.0
H447 H 0.11958 0.51463 0.80405 0.0
C448 C 0.08195 0.58994 0.68172 0.0
C449 C 0.05379 0.60899 0.67666 0.0
C450 C 0.08815 0.57646 0.71027 0.0
C451 C 0.06652 0.58198 0.73453 0.0
C452 C 0.03747 0.59955 0.72911 0.0
C453 C 0.03105 0.61276 0.70037 0.0
C454 C 0.09033 0.59168 0.81677 0.0
C455 C 0.10723 0.56231 0.82244 0.0
C456 C 0.07504 0.59701 0.78888 0.0
C457 C 0.07662 0.57324 0.76588 0.0
C458 C 0.09174 0.54301 0.77218 0.0
C459 C 0.10671 0.53748 0.80034 0.0
H460 H 0.92254 0.11186 0.67077 0.0
H461 H 0.89474 0.01319 0.69598 0.0
H462 H 0.94623 0.12023 0.72067 0.0
H463 H 0.91917 0.02151 0.7461 0.0
H464 H 0.90862 0.07606 0.83946 0.0
H465 H 0.90077 0.05503 0.7885 0.0
H466 H 0.98772 0.10638 0.7587 0.0
H467 H 0.99537 0.12803 0.81015 0.0
C468 C 0.92195 0.0917 0.6868 0.0
C469 C 0.90613 0.06204 0.67954 0.0
C470 C 0.93594 0.09641 0.71537 0.0
C471 C 0.93445 0.07162 0.73747 0.0
C472 C 0.92038 0.04123 0.72965 0.0
C473 C 0.90643 0.03644 0.70092 0.0
C474 C 0.92646 0.08244 0.82221 0.0
C475 C 0.95229 0.1042 0.82869 0.0
C476 C 0.92213 0.07007 0.79299 0.0
C477 C 0.94343 0.07925 0.76943 0.0
C478 C 0.97065 0.09919 0.77634 0.0
C479 C 0.97515 0.11144 0.80579 0.0
H480 H 0.4256 0.09698 0.43305 0.0
H481 H 0.39865 0.12574 0.34197 0.0
H482 H 0.37294 0.06913 0.4388 0.0
H483 H 0.3459 0.09875 0.34797 0.0
H484 H 0.26437 0.02352 0.35793 0.0
H485 H 0.31952 0.04613 0.35213 0.0
H486 H 0.31597 0.08223 0.44431 0.0
H487 H 0.26151 0.05902 0.45032 0.0
C488 C 0.40845 0.09743 0.41429 0.0
C489 C 0.41636 0.11366 0.38709 0.0
C490 C 0.37818 0.08158 0.41761 0.0
C491 C 0.35508 0.08166 0.39384 0.0
C492 C 0.3632 0.09769 0.36658 0.0
C493 C 0.39344 0.11343 0.36324 0.0
C494 C 0.27547 0.03614 0.37698 0.0
C495 C 0.25842 0.03961 0.40451 0.0
C496 C 0.30702 0.04926 0.37363 0.0
C497 C 0.32223 0.06614 0.39773 0.0
C498 C 0.3053 0.06905 0.42539 0.0
C499 C 0.27387 0.05593 0.42875 0.0
H500 H 0.41854 0.42076 0.43022 0.0
H501 H 0.39353 0.39764 0.33731 0.0
H502 H 0.44524 0.3676 0.43534 0.0
H503 H 0.41936 0.34421 0.34268 0.0
H504 H 0.48978 0.25872 0.35479 0.0
H505 H 0.47031 0.31503 0.34883 0.0
H506 H 0.42869 0.31142 0.43903 0.0
H507 H 0.44876 0.25586 0.44522 0.0
C508 C 0.41881 0.40439 0.41086 0.0
C509 C 0.40373 0.41341 0.38341 0.0
C510 C 0.43396 0.37381 0.41384 0.0
C511 C 0.43427 0.35145 0.38949 0.0
C512 C 0.41995 0.36089 0.3618 0.0
C513 C 0.40493 0.39151 0.35878 0.0
C514 C 0.4766 0.27006 0.37336 0.0
C515 C 0.47066 0.2527 0.40039 0.0
C516 C 0.46531 0.30228 0.36991 0.0
C517 C 0.44788 0.31783 0.39344 0.0
C518 C 0.44244 0.30051 0.4206 0.0
C519 C 0.45372 0.26844 0.42404 0.0
H520 H 0.08999 0.41862 0.41065 0.0
H521 H 0.12708 0.34253 0.35177 0.0
H522 H 0.14475 0.44355 0.4124 0.0
H523 H 0.1816 0.36709 0.35403 0.0
H524 H 0.27776 0.39741 0.40548 0.0
H525 H 0.22259 0.37506 0.39971 0.0
H526 H 0.18731 0.47026 0.37228 0.0
H527 H 0.24298 0.49269 0.37746 0.0
C528 C 0.10979 0.40722 0.39816 0.0
C529 C 0.10428 0.37858 0.38115 0.0
C530 C 0.14098 0.42161 0.39897 0.0
C531 C 0.16727 0.40721 0.3833 0.0
C532 C 0.16173 0.37861 0.36635 0.0
C533 C 0.13052 0.36462 0.36506 0.0
C534 C 0.25832 0.41353 0.39794 0.0
C535 C 0.26464 0.44675 0.39182 0.0
C536 C 0.2268 0.40071 0.3946 0.0
C537 C 0.20078 0.42098 0.38566 0.0
C538 C 0.20701 0.45421 0.37936 0.0
C539 C 0.23881 0.46693 0.38208 0.0
H540 H 0.07472 0.08195 0.35122 0.0
H541 H 0.13412 0.09888 0.43082 0.0
H542 H 0.05059 0.13609 0.35658 0.0
H543 H 0.11115 0.15379 0.4355 0.0
H544 H 0.04652 0.24166 0.45129 0.0
H545 H 0.06511 0.18518 0.44778 0.0
H546 H 0.06237 0.19173 0.34975 0.0
H547 H 0.04218 0.24788 0.35352 0.0
C548 C 0.08268 0.09732 0.36988 0.0
C549 C 0.10637 0.08612 0.39059 0.0
C550 C 0.06901 0.12856 0.37282 0.0
C551 C 0.079 0.14968 0.39632 0.0
C552 C 0.10239 0.13818 0.41735 0.0
C553 C 0.11573 0.10669 0.41464 0.0
C554 C 0.04979 0.23096 0.42898 0.0
C555 C 0.0431 0.24925 0.40265 0.0
C556 C 0.06066 0.19856 0.42695 0.0
C557 C 0.06566 0.18373 0.39849 0.0
C558 C 0.05842 0.20201 0.37211 0.0
C559 C 0.047 0.2343 0.37419 0.0
H560 H 0.90281 0.90182 0.15517 0.0
H561 H 0.92423 0.9201 0.06054 0.0
H562 H 0.84928 0.92692 0.14905 0.0
H563 H 0.87076 0.94614 0.05459 0.0
H564 H 0.75819 0.94752 0.04741 0.0
H565 H 0.81441 0.92914 0.0531 0.0
H566 H 0.82001 0.97724 0.14037 0.0
H567 H 0.76316 0.99503 0.13497 0.0
C568 C 0.89628 0.91158 0.1331 0.0
C569 C 0.91776 0.90871 0.10827 0.0
C570 C 0.86559 0.92623 0.12966 0.0
C571 C 0.85558 0.9385 0.10131 0.0
C572 C 0.87747 0.9365 0.07665 0.0
C573 C 0.9082 0.92173 0.08009 0.0
C574 C 0.77136 0.95426 0.06783 0.0
C575 C 0.75601 0.97241 0.09092 0.0
C576 C 0.80379 0.94396 0.07095 0.0
C577 C 0.82181 0.95162 0.09722 0.0
C578 C 0.8067 0.97048 0.12003 0.0
C579 C 0.77416 0.98078 0.11691 0.0
H580 H 0.57267 0.75676 0.05223 0.0
H581 H 0.52953 0.76437 0.14156 0.0
H582 H 0.59308 0.81257 0.05638 0.0
H583 H 0.5494 0.82078 0.14544 0.0
H584 H 0.62646 0.9028 0.15586 0.0
H585 H 0.60115 0.849 0.15141 0.0
H586 H 0.57701 0.86939 0.05775 0.0
H587 H 0.60312 0.92311 0.062 0.0
C588 C 0.56733 0.77042 0.07272 0.0
C589 C 0.54975 0.75595 0.09672 0.0
C590 C 0.57882 0.8026 0.07498 0.0
C591 C 0.57297 0.82121 0.10127 0.0
C592 C 0.55476 0.80697 0.12504 0.0
C593 C 0.54324 0.7747 0.12278 0.0
C594 C 0.61568 0.89591 0.13431 0.0
C595 C 0.61699 0.91723 0.10922 0.0
C596 C 0.60091 0.86509 0.13184 0.0
C597 C 0.58701 0.8548 0.10423 0.0
C598 C 0.58785 0.87635 0.07925 0.0
C599 C 0.6027 0.90721 0.08171 0.0
H600 H 0.59816 0.60693 0.07094 0.0
H601 H 0.61696 0.62565 0.16595 0.0
H602 H 0.65269 0.58312 0.06582 0.0
H603 H 0.6716 0.60245 0.16067 0.0
H604 H 0.75835 0.53291 0.14579 0.0
H605 H 0.70172 0.55153 0.15154 0.0
H606 H 0.70875 0.60311 0.06605 0.0
H607 H 0.76475 0.58422 0.06008 0.0
C608 C 0.61387 0.60591 0.09074 0.0
C609 C 0.60325 0.61836 0.1188 0.0
C610 C 0.64519 0.59241 0.08778 0.0
C611 C 0.66659 0.59104 0.11281 0.0
C612 C 0.65565 0.60281 0.14102 0.0
C613 C 0.62436 0.61632 0.14397 0.0
C614 C 0.74775 0.54822 0.12826 0.0
C615 C 0.76613 0.55719 0.10257 0.0
C616 C 0.71536 0.55896 0.13158 0.0
C617 C 0.70067 0.57874 0.1092 0.0
C618 C 0.71909 0.5875 0.08349 0.0
C619 C 0.75137 0.57688 0.08022 0.0
H620 H 0.94656 0.77087 0.09443 0.0
H621 H 0.0132 0.73973 0.16501 0.0
H622 H 0.92236 0.71633 0.09327 0.0
H623 H 0.98902 0.68487 0.1636 0.0
H624 H 0.91116 0.60296 0.1745 0.0
H625 H 0.93722 0.65671 0.176 0.0
H626 H 0.93694 0.66015 0.07796 0.0
H627 H 0.91046 0.60637 0.07641 0.0
C628 C 0.95602 0.75243 0.1098 0.0
C629 C 0.98182 0.75977 0.12989 0.0
C630 C 0.9423 0.72104 0.10891 0.0
C631 C 0.95388 0.69616 0.12818 0.0
C632 C 0.97938 0.70356 0.14859 0.0
C633 C 0.99327 0.73499 0.14937 0.0
C634 C 0.91675 0.61508 0.15321 0.0
C635 C 0.9086 0.60038 0.12531 0.0
C636 C 0.93188 0.64584 0.15411 0.0
C637 C 0.93908 0.66279 0.12713 0.0
C638 C 0.93134 0.64791 0.09918 0.0
C639 C 0.91636 0.61701 0.09827 0.0
H640 H 0.74752 0.99358 0.64487 0.0
H641 H 0.756 0.94203 0.55954 0.0
H642 H 0.6905 0.97555 0.64908 0.0
H643 H 0.69968 0.92354 0.56405 0.0
H644 H 0.58947 0.91559 0.56745 0.0
H645 H 0.64344 0.94102 0.5627 0.0
H646 H 0.66059 0.92527 0.65843 0.0
H647 H 0.60653 0.90069 0.66332 0.0
C648 C 0.73726 0.97841 0.62706 0.0
C649 C 0.75642 0.96902 0.60203 0.0
C650 C 0.70463 0.96798 0.6295 0.0
C651 C 0.69046 0.94802 0.60692 0.0
C652 C 0.70955 0.93923 0.58166 0.0
C653 C 0.74204 0.94962 0.57923 0.0
C654 C 0.60467 0.9178 0.58751 0.0
C655 C 0.59372 0.90594 0.61571 0.0
C656 C 0.63568 0.93223 0.58478 0.0
C657 C 0.65647 0.93508 0.61017 0.0
C658 C 0.64513 0.9239 0.63848 0.0
C659 C 0.61416 0.90954 0.64122 0.0
H660 H 0.59112 0.60342 0.66395 0.0
H661 H 0.60861 0.6027 0.56719 0.0
H662 H 0.57226 0.65993 0.6607 0.0
H663 H 0.5887 0.65886 0.56374 0.0
H664 H 0.5881 0.76935 0.57204 0.0
H665 H 0.60552 0.71271 0.57669 0.0
H666 H 0.5296 0.69547 0.64328 0.0
H667 H 0.51276 0.75286 0.63922 0.0
C668 C 0.59059 0.61519 0.64189 0.0
C669 C 0.60156 0.59854 0.61583 0.0
C670 C 0.57958 0.64761 0.64002 0.0
C671 C 0.57909 0.66418 0.612 0.0
C672 C 0.58934 0.64719 0.58583 0.0
C673 C 0.60056 0.61485 0.58774 0.0
C674 C 0.57516 0.75356 0.5878 0.0
C675 C 0.54902 0.76566 0.60527 0.0
C676 C 0.585 0.7209 0.59027 0.0
C677 C 0.56878 0.69924 0.6101 0.0
C678 C 0.54287 0.71147 0.62796 0.0
C679 C 0.53316 0.74435 0.62563 0.0
H680 H 0.90631 0.6014 0.67898 0.0
H681 H 0.89886 0.61079 0.58144 0.0
H682 H 0.85099 0.57894 0.68085 0.0
H683 H 0.84333 0.58817 0.58343 0.0
H684 H 0.75754 0.51649 0.5972 0.0
H685 H 0.81439 0.53507 0.59657 0.0
H686 H 0.79417 0.60047 0.67128 0.0
H687 H 0.73721 0.58201 0.67196 0.0
C688 C 0.89296 0.59852 0.65789 0.0
C689 C 0.907 0.60796 0.63003 0.0
C690 C 0.86118 0.5858 0.65903 0.0
C691 C 0.84282 0.58187 0.63233 0.0
C692 C 0.85703 0.59068 0.60437 0.0
C693 C 0.88875 0.60377 0.60324 0.0
C694 C 0.76524 0.53459 0.61373 0.0
C695 C 0.74277 0.54783 0.63463 0.0
C696 C 0.79776 0.54539 0.61317 0.0
C697 C 0.80866 0.56935 0.63373 0.0
C698 C 0.78651 0.58182 0.65526 0.0
C699 C 0.75387 0.5713 0.65561 0.0
H700 H 0.90477 0.91343 0.58305 0.0
H701 H 0.87867 0.90874 0.67809 0.0
H702 H 0.92753 0.85811 0.58632 0.0
H703 H 0.90175 0.85395 0.6814 0.0
H704 H 0.90698 0.7428 0.6642 0.0
H705 H 0.8881 0.79934 0.66289 0.0
H706 H 0.97268 0.82655 0.60948 0.0
H707 H 0.99143 0.76982 0.61056 0.0
C708 C 0.90408 0.90072 0.60464 0.0
C709 C 0.88974 0.91543 0.63024 0.0
C710 C 0.91729 0.86912 0.60657 0.0
C711 C 0.91634 0.8516 0.63411 0.0
C712 C 0.90245 0.86658 0.65976 0.0
C713 C 0.88933 0.89809 0.65785 0.0
C714 C 0.92177 0.76085 0.65243 0.0
C715 C 0.95067 0.75169 0.63734 0.0
C716 C 0.91097 0.79332 0.65175 0.0
C717 C 0.9288 0.81743 0.63594 0.0
C718 C 0.95814 0.80847 0.62148 0.0
C719 C 0.969 0.77597 0.62227 0.0
H720 H 0.08637 0.0977 0.93948 0.0
H721 H 0.10999 0.12263 0.84663 0.0
H722 H 0.1392 0.07025 0.94458 0.0
H723 H 0.16298 0.09614 0.85196 0.0
H724 H 0.24607 0.02303 0.86261 0.0
H725 H 0.19049 0.04452 0.8573 0.0
H726 H 0.19594 0.08421 0.94814 0.0
H727 H 0.25075 0.06206 0.9537 0.0
C728 C 0.10282 0.09736 0.92018 0.0
C729 C 0.09396 0.11247 0.8927 0.0
C730 C 0.1332 0.08176 0.92312 0.0
C731 C 0.15549 0.08102 0.8987 0.0
C732 C 0.14633 0.09575 0.87111 0.0
C733 C 0.11596 0.1112 0.86814 0.0
C734 C 0.23529 0.03621 0.88146 0.0
C735 C 0.25295 0.04094 0.9085 0.0
C736 C 0.20348 0.04868 0.87839 0.0
C737 C 0.18865 0.06619 0.90229 0.0
C738 C 0.20626 0.07046 0.92943 0.0
C739 C 0.23791 0.05795 0.93251 0.0
H740 H 0.40197 0.08983 0.94052 0.0
H741 H 0.38716 0.10627 0.84454 0.0
H742 H 0.42835 0.14356 0.94468 0.0
H743 H 0.41278 0.15986 0.84881 0.0
H744 H 0.48393 0.24445 0.8604 0.0
H745 H 0.46442 0.1878 0.85766 0.0
H746 H 0.41253 0.20081 0.9423 0.0
H747 H 0.43242 0.2569 0.94532 0.0
C748 C 0.40437 0.10483 0.92033 0.0
C749 C 0.39232 0.09376 0.89225 0.0
C750 C 0.41936 0.13568 0.92272 0.0
C751 C 0.4227 0.15609 0.89707 0.0
C752 C 0.4111 0.14468 0.86894 0.0
C753 C 0.39612 0.11397 0.86657 0.0
C754 C 0.46849 0.23513 0.87847 0.0
C755 C 0.45947 0.25534 0.90289 0.0
C756 C 0.4572 0.2027 0.87686 0.0
C757 C 0.43675 0.18974 0.89971 0.0
C758 C 0.42849 0.20978 0.92448 0.0
C759 C 0.43969 0.24212 0.92605 0.0
H760 H 0.4039 0.38044 0.81907 0.0
H761 H 0.40845 0.40681 0.91403 0.0
H762 H 0.35034 0.40623 0.81502 0.0
H763 H 0.35448 0.43219 0.91005 0.0
H764 H 0.26941 0.49935 0.88657 0.0
H765 H 0.3254 0.47851 0.88695 0.0
H766 H 0.29485 0.39567 0.83275 0.0
H767 H 0.23907 0.41668 0.83193 0.0
C768 C 0.39349 0.39175 0.83911 0.0
C769 C 0.41042 0.39144 0.86692 0.0
C770 C 0.36269 0.40642 0.83679 0.0
C771 C 0.34807 0.4212 0.86221 0.0
C772 C 0.36523 0.42137 0.88993 0.0
C773 C 0.39607 0.40663 0.89227 0.0
C774 C 0.27471 0.47692 0.87437 0.0
C775 C 0.2497 0.45963 0.85928 0.0
C776 C 0.30676 0.46484 0.87483 0.0
C777 C 0.31456 0.4353 0.8601 0.0
C778 C 0.28977 0.41865 0.84412 0.0
C779 C 0.25772 0.43065 0.84373 0.0
H780 H 0.11564 0.41457 0.93109 0.0
H781 H 0.09685 0.40949 0.83467 0.0
H782 H 0.09405 0.35921 0.93717 0.0
H783 H 0.07645 0.35375 0.84049 0.0
H784 H 0.01471 0.26375 0.86566 0.0
H785 H 0.03322 0.32038 0.85936 0.0
H786 H 0.10847 0.30433 0.92682 0.0
H787 H 0.08924 0.24848 0.9338 0.0
C788 C 0.10698 0.40161 0.91118 0.0
C789 C 0.10804 0.41646 0.88241 0.0
C790 C 0.09479 0.36973 0.9146 0.0
C791 C 0.08369 0.35175 0.88928 0.0
C792 C 0.08436 0.36687 0.86057 0.0
C793 C 0.09625 0.39886 0.85721 0.0
C794 C 0.03527 0.27237 0.87902 0.0
C795 C 0.05041 0.25166 0.90029 0.0
C796 C 0.04598 0.30481 0.87538 0.0
C797 C 0.07224 0.31716 0.89276 0.0
C798 C 0.08771 0.29607 0.91355 0.0
C799 C 0.07683 0.26386 0.91737 0.0
H800 H 0.71044 0.15403 0.37335 0.0
H801 H 0.66612 0.24628 0.34808 0.0
H802 H 0.76425 0.17988 0.37302 0.0
H803 H 0.72 0.27227 0.34835 0.0
H804 H 0.82517 0.30826 0.34263 0.0
H805 H 0.77685 0.2763 0.32787 0.0
H806 H 0.78556 0.21923 0.41018 0.0
H807 H 0.83358 0.25064 0.42468 0.0
C808 C 0.71225 0.17971 0.36723 0.0
C809 C 0.68401 0.19831 0.36134 0.0
C810 C 0.74305 0.1945 0.3671 0.0
C811 C 0.74623 0.2282 0.36124 0.0
C812 C 0.71832 0.24621 0.35287 0.0
C813 C 0.68743 0.23135 0.35286 0.0
C814 C 0.81697 0.28854 0.35728 0.0
C815 C 0.83297 0.28207 0.38492 0.0
C816 C 0.78931 0.27037 0.34888 0.0
C817 C 0.7775 0.24523 0.36782 0.0
C818 C 0.79434 0.23808 0.39485 0.0
C819 C 0.8217 0.25632 0.40332 0.0
H820 H 0.28961 0.68411 0.35514 0.0
H821 H 0.21091 0.62767 0.3951 0.0
H822 H 0.25562 0.73302 0.35664 0.0
H823 H 0.17673 0.67677 0.39637 0.0
H824 H 0.16097 0.77923 0.44298 0.0
H825 H 0.18331 0.72595 0.42947 0.0
H826 H 0.20501 0.76153 0.33924 0.0
H827 H 0.18277 0.81518 0.35282 0.0
C828 C 0.26475 0.68199 0.36356 0.0
C829 C 0.25307 0.65218 0.3754 0.0
C830 C 0.2452 0.70998 0.36424 0.0
C831 C 0.21367 0.70875 0.37693 0.0
C832 C 0.20112 0.67844 0.38679 0.0
C833 C 0.22062 0.65032 0.38589 0.0
C834 C 0.17016 0.77563 0.42015 0.0
C835 C 0.17052 0.8015 0.39909 0.0
C836 C 0.18264 0.74498 0.41231 0.0
C837 C 0.1959 0.7396 0.3833 0.0
C838 C 0.19509 0.76509 0.36182 0.0
C839 C 0.18235 0.79574 0.3696 0.0
H840 H 0.32161 0.68832 0.14491 0.0
H841 H 0.31168 0.69289 0.04723 0.0
H842 H 0.26595 0.70996 0.15043 0.0
H843 H 0.25683 0.71466 0.05275 0.0
H844 H 0.15116 0.72877 0.06746 0.0
H845 H 0.20216 0.69806 0.06985 0.0
H846 H 0.23772 0.76305 0.13998 0.0
H847 H 0.18633 0.79348 0.13808 0.0
C848 C 0.30756 0.69386 0.12469 0.0
C849 C 0.32103 0.68907 0.09565 0.0
C850 C 0.27581 0.70626 0.12785 0.0
C851 C 0.25701 0.71373 0.10202 0.0
C852 C 0.27047 0.70856 0.07308 0.0
C853 C 0.30209 0.69639 0.06993 0.0
C854 C 0.16963 0.7362 0.08374 0.0
C855 C 0.16502 0.76386 0.10221 0.0
C856 C 0.19885 0.71867 0.08504 0.0
C857 C 0.22409 0.72854 0.10472 0.0
C858 C 0.21864 0.75483 0.12467 0.0
C859 C 0.18928 0.77234 0.12347 0.0
H860 H 0.72844 0.37274 0.0616 0.0
H861 H 0.78646 0.3333 0.13514 0.0
H862 H 0.69605 0.32259 0.06045 0.0
H863 H 0.75443 0.2828 0.13353 0.0
H864 H 0.67783 0.20128 0.13286 0.0
H865 H 0.70075 0.25613 0.1404 0.0
H866 H 0.70991 0.26772 0.04319 0.0
H867 H 0.68665 0.21357 0.03565 0.0
C868 C 0.73403 0.35352 0.07777 0.0
C869 C 0.76027 0.35676 0.09819 0.0
C870 C 0.71557 0.32474 0.07701 0.0
C871 C 0.72304 0.29857 0.09657 0.0
C872 C 0.74797 0.3026 0.11828 0.0
C873 C 0.7664 0.33149 0.11912 0.0
C874 C 0.68453 0.2157 0.11314 0.0
C875 C 0.68056 0.20307 0.08367 0.0
C876 C 0.69772 0.24702 0.11747 0.0
C877 C 0.70699 0.26628 0.0924 0.0
C878 C 0.70247 0.25376 0.06297 0.0
C879 C 0.68939 0.22255 0.05866 0.0
H880 H 0.17141 0.74207 0.54753 0.0
H881 H 0.17943 0.70641 0.63975 0.0
H882 H 0.22542 0.76677 0.55159 0.0
H883 H 0.23396 0.7312 0.64365 0.0
H884 H 0.31857 0.81045 0.64128 0.0
H885 H 0.26352 0.78656 0.64238 0.0
H886 H 0.28115 0.74152 0.55516 0.0
H887 H 0.33574 0.76534 0.55385 0.0
C888 C 0.18458 0.73972 0.56877 0.0
C889 C 0.17134 0.72198 0.59321 0.0
C890 C 0.21559 0.75372 0.57101 0.0
C891 C 0.23401 0.75034 0.59773 0.0
C892 C 0.2202 0.73408 0.62279 0.0
C893 C 0.18906 0.71992 0.62053 0.0
C894 C 0.31076 0.79517 0.62251 0.0
C895 C 0.3313 0.79007 0.59731 0.0
C896 C 0.27934 0.78149 0.6232 0.0
C897 C 0.26801 0.7627 0.59863 0.0
C898 C 0.28907 0.75652 0.5741 0.0
C899 C 0.32039 0.77003 0.57345 0.0
H900 H 0.83039 0.19962 0.64205 0.0
H901 H 0.77167 0.18704 0.56117 0.0
H902 H 0.80176 0.25111 0.65287 0.0
H903 H 0.74329 0.23807 0.57203 0.0
H904 H 0.67668 0.31182 0.61406 0.0
H905 H 0.70466 0.25929 0.61228 0.0
H906 H 0.79734 0.3079 0.62707 0.0
H907 H 0.76932 0.36087 0.62896 0.0
C908 C 0.8113 0.20775 0.62671 0.0
C909 C 0.80324 0.18935 0.60076 0.0
C910 C 0.79508 0.23719 0.63286 0.0
C911 C 0.77023 0.24836 0.61339 0.0
C912 C 0.76205 0.22977 0.58764 0.0
C913 C 0.77847 0.20067 0.58132 0.0
C914 C 0.70297 0.31139 0.61735 0.0
C915 C 0.72086 0.34058 0.6212 0.0
C916 C 0.71896 0.28129 0.61625 0.0
C917 C 0.75315 0.27967 0.61911 0.0
C918 C 0.77091 0.30854 0.62487 0.0
C919 C 0.75489 0.33881 0.62585 0.0
H920 H 0.82708 0.21027 0.87227 0.0
H921 H 0.79529 0.17172 0.95881 0.0
H922 H 0.77771 0.24394 0.86958 0.0
H923 H 0.74551 0.20418 0.95564 0.0
H924 H 0.69029 0.29964 0.96336 0.0
H925 H 0.73541 0.26131 0.96136 0.0
H926 H 0.71846 0.24669 0.86538 0.0
H927 H 0.67345 0.28623 0.86722 0.0
C928 C 0.80916 0.20846 0.89034 0.0
C929 C 0.81514 0.18887 0.91598 0.0
C930 C 0.78085 0.22763 0.88877 0.0
C931 C 0.75799 0.22717 0.91267 0.0
C932 C 0.76309 0.2058 0.93727 0.0
C933 C 0.7915 0.18707 0.93903 0.0
C934 C 0.69607 0.28827 0.94178 0.0
C935 C 0.67828 0.29588 0.91545 0.0
C936 C 0.72182 0.26603 0.94069 0.0
C937 C 0.73026 0.25057 0.91329 0.0
C938 C 0.71262 0.25831 0.8868 0.0
C939 C 0.68685 0.28086 0.88787 0.0
H940 H 0.2639 0.83908 0.85997 0.0
H941 H 0.36338 0.8036 0.86524 0.0
H942 H 0.24423 0.78326 0.85381 0.0
H943 H 0.34392 0.74769 0.85762 0.0
H944 H 0.29155 0.65589 0.89623 0.0
H945 H 0.31664 0.7092 0.88836 0.0
H946 H 0.2396 0.73471 0.82522 0.0
H947 H 0.21368 0.68172 0.83428 0.0
C948 C 0.28165 0.81939 0.859 0.0
C949 C 0.3151 0.82562 0.86354 0.0
C950 C 0.2704 0.78731 0.85525 0.0
C951 C 0.29245 0.7608 0.85552 0.0
C952 C 0.32618 0.76739 0.85801 0.0
C953 C 0.33736 0.79944 0.86221 0.0
C954 C 0.2803 0.67263 0.88022 0.0
C955 C 0.25041 0.66483 0.86622 0.0
C956 C 0.29481 0.70323 0.87554 0.0
C957 C 0.27995 0.72653 0.85641 0.0
C958 C 0.25129 0.71769 0.84067 0.0
C959 C 0.23654 0.68724 0.84569 0.0
H960 H 0.6807 0.03558 0.41925 0.0
H961 H 0.64693 0.10553 0.48579 0.0
H962 H 0.72243 0.01646 0.45472 0.0
H963 H 0.68924 0.08771 0.52055 0.0
H964 H 0.76139 0.05076 0.58443 0.0
H965 H 0.71239 0.04954 0.55293 0.0
H966 H 0.77291 0.03547 0.47332 0.0
H967 H 0.82164 0.03436 0.50554 0.0
C968 C 0.68189 0.04658 0.4416 0.0
C969 C 0.66062 0.07228 0.44957 0.0
C970 C 0.70604 0.0358 0.46188 0.0
C971 C 0.7097 0.0507 0.49051 0.0
C972 C 0.68712 0.07515 0.49899 0.0
C973 C 0.66279 0.08561 0.4789 0.0
C974 C 0.76398 0.04642 0.56026 0.0
C975 C 0.79516 0.04281 0.54728 0.0
C976 C 0.73595 0.04609 0.54211 0.0
C977 C 0.73853 0.04338 0.51034 0.0
C978 C 0.76973 0.03746 0.49765 0.0
C979 C 0.79778 0.03688 0.51604 0.0
H980 H 0.45302 0.75697 0.57919 0.0
H981 H 0.45495 0.82805 0.5066 0.0
H982 H 0.43786 0.71423 0.54352 0.0
H983 H 0.43838 0.78526 0.47056 0.0
H984 H 0.42979 0.69484 0.40977 0.0
H985 H 0.45221 0.73588 0.44426 0.0
H986 H 0.39086 0.69817 0.51634 0.0
H987 H 0.36942 0.65647 0.48215 0.0
C988 C 0.45026 0.7634 0.55544 0.0
C989 C 0.45492 0.79587 0.54565 0.0
C990 C 0.44127 0.73891 0.535 0.0
C991 C 0.43619 0.74627 0.50418 0.0
C992 C 0.44222 0.77859 0.4941 0.0
C993 C 0.45171 0.80316 0.51466 0.0
C994 C 0.42131 0.69514 0.43308 0.0
C995 C 0.39788 0.67228 0.44324 0.0
C996 C 0.43401 0.71889 0.45281 0.0
C997 C 0.42344 0.7205 0.48316 0.0
C998 C 0.40014 0.69739 0.49331 0.0
C999 C 0.38767 0.67348 0.47367 0.0
H1000 H 0.80135 0.42932 0.39791 0.0
H1001 H 0.85418 0.39387 0.47635 0.0
H1002 H 0.75609 0.4462 0.4307 0.0
H1003 H 0.80908 0.41092 0.50899 0.0
H1004 H 0.70898 0.40346 0.55181 0.0
H1005 H 0.7523 0.39039 0.516 0.0
H1006 H 0.74015 0.48485 0.47318 0.0
H1007 H 0.69638 0.49813 0.50939 0.0
C1008 C 0.80353 0.42552 0.42217 0.0
C1009 C 0.83134 0.41001 0.43447 0.0
C1010 C 0.7776 0.43528 0.44094 0.0
C1011 C 0.77878 0.42947 0.47237 0.0
C1012 C 0.80716 0.41518 0.48477 0.0
C1013 C 0.83315 0.40565 0.46608 0.0
C1014 C 0.71523 0.4214 0.53459 0.0
C1015 C 0.69944 0.452 0.53368 0.0
C1016 C 0.74028 0.41397 0.5142 0.0
C1017 C 0.75019 0.43686 0.4922 0.0
C1018 C 0.73313 0.46676 0.48999 0.0
C1019 C 0.70798 0.47431 0.51061 0.0
H1020 H 0.02017 0.69208 0.50036 0.0
H1021 H 0.03549 0.75024 0.5807 0.0
H1022 H 0.02467 0.74145 0.46901 0.0
H1023 H 0.0373 0.79991 0.55015 0.0
H1024 H 0.09903 0.86455 0.48691 0.0
H1025 H 0.0781 0.82186 0.51983 0.0
H1026 H 0.00838 0.79341 0.4507 0.0
H1027 H 0.03055 0.83558 0.4171 0.0
C1028 C 0.02285 0.71569 0.51135 0.0
C1029 C 0.02713 0.71757 0.54288 0.0
C1030 C 0.02547 0.74408 0.49346 0.0
C1031 C 0.03201 0.77483 0.50693 0.0
C1032 C 0.03322 0.77671 0.5388 0.0
C1033 C 0.03149 0.74836 0.55645 0.0
C1034 C 0.07875 0.84972 0.47891 0.0
C1035 C 0.06669 0.85337 0.44925 0.0
C1036 C 0.06652 0.82515 0.49793 0.0
C1037 C 0.04152 0.80379 0.488 0.0
C1038 C 0.02802 0.80888 0.45898 0.0
C1039 C 0.04054 0.8333 0.43979 0.0
H1040 H 0.30995 0.9705 0.9947 0.0
H1041 H 0.2599 0.93075 0.91672 0.0
H1042 H 0.26097 0.96135 0.02561 0.0
H1043 H 0.21045 0.92322 0.9468 0.0
H1044 H 0.15132 0.86563 0.01743 0.0
H1045 H 0.19373 0.88549 0.98339 0.0
H1046 H 0.20608 0.97177 0.03928 0.0
H1047 H 0.16444 0.95103 0.0741 0.0
C1048 C 0.28809 0.9608 0.984 0.0
C1049 C 0.28877 0.95088 0.95351 0.0
C1050 C 0.25992 0.95556 0.00164 0.0
C1051 C 0.23176 0.9408 0.98894 0.0
C1052 C 0.23187 0.93357 0.95771 0.0
C1053 C 0.26011 0.93819 0.94034 0.0
C1054 C 0.16272 0.88907 0.02224 0.0
C1055 C 0.1546 0.9066 0.04861 0.0
C1056 C 0.18704 0.90065 0.00257 0.0
C1057 C 0.20364 0.93033 0.0085 0.0
C1058 C 0.19438 0.94857 0.0342 0.0
C1059 C 0.17027 0.93678 0.05407 0.0
H1060 H 0.53194 0.1747 0.07765 0.0
H1061 H 0.59921 0.14666 0.00659 0.0
H1062 H 0.51077 0.21858 0.04552 0.0
H1063 H 0.57924 0.191 0.97511 0.0
H1064 H 0.54032 0.26777 0.91777 0.0
H1065 H 0.53932 0.21636 0.94585 0.0
H1066 H 0.52972 0.27058 0.02979 0.0
H1067 H 0.52822 0.32184 0.00103 0.0
C1068 C 0.54182 0.17754 0.05496 0.0
C1069 C 0.56745 0.15731 0.04479 0.0
C1070 C 0.52987 0.20291 0.03662 0.0
C1071 C 0.54347 0.20882 0.00777 0.0
C1072 C 0.56768 0.18715 0.99695 0.0
C1073 C 0.57934 0.16163 0.01513 0.0
C1074 C 0.53662 0.26847 0.94213 0.0
C1075 C 0.53401 0.29859 0.9573 0.0
C1076 C 0.53656 0.23905 0.95832 0.0
C1077 C 0.53533 0.23914 0.99025 0.0
C1078 C 0.53047 0.26934 0.00525 0.0
C1079 C 0.52963 0.29881 0.98884 0.0
H1080 H 0.21187 0.50705 0.97612 0.0
H1081 H 0.2223 0.60821 0.94891 0.0
H1082 H 0.25772 0.51365 0.01165 0.0
H1083 H 0.2679 0.6148 0.98406 0.0
H1084 H 0.3712 0.60615 0.0182 0.0
H1085 H 0.32482 0.59424 0.98512 0.0
H1086 H 0.2766 0.54298 0.05844 0.0
H1087 H 0.32318 0.55457 0.09156 0.0
C1088 C 0.22344 0.53086 0.97824 0.0
C1089 C 0.2138 0.55705 0.95951 0.0
C1090 C 0.24983 0.53459 0.99841 0.0
C1091 C 0.26698 0.56452 8e-05 0.0
C1092 C 0.25588 0.59115 0.98265 0.0
C1093 C 0.22961 0.58746 0.96268 0.0
C1094 C 0.35107 0.59175 0.02714 0.0
C1095 C 0.35088 0.58151 0.05762 0.0
C1096 C 0.32428 0.58525 0.00827 0.0
C1097 C 0.29673 0.56822 0.01935 0.0
C1098 C 0.2974 0.5562 0.04924 0.0
C1099 C 0.32414 0.56286 0.0682 0.0
H1100 H 0.88016 0.37097 0.01752 0.0
H1101 H 0.919 0.31943 0.09531 0.0
H1102 H 0.9001 0.32736 0.98436 0.0
H1103 H 0.93832 0.27566 0.06229 0.0
H1104 H 0.98956 0.21311 0.98835 0.0
H1105 H 0.97634 0.25959 0.02154 0.0
H1106 H 0.88349 0.27093 0.97568 0.0
H1107 H 0.89668 0.22537 0.94268 0.0
C1108 C 0.89323 0.35055 0.02752 0.0
C1109 C 0.8977 0.3486 0.05909 0.0
C1110 C 0.90447 0.32541 0.00856 0.0
C1111 C 0.92047 0.29775 0.02071 0.0
C1112 C 0.92627 0.29661 0.05213 0.0
C1113 C 0.91499 0.32169 0.07108 0.0
C1114 C 0.96627 0.22542 0.98558 0.0
C1115 C 0.94427 0.21552 0.96278 0.0
C1116 C 0.9587 0.25208 0.00452 0.0
C1117 C 0.92905 0.26935 0.00095 0.0
C1118 C 0.90689 0.25883 0.9786 0.0
C1119 C 0.91437 0.23238 0.95983 0.0
H1120 H 0.34696 0.96123 0.57027 0.0
H1121 H 0.3621 0.87295 0.51813 0.0
H1122 H 0.30503 0.97883 0.53435 0.0
H1123 H 0.31929 0.88951 0.48315 0.0
H1124 H 0.25016 0.92748 0.4152 0.0
H1125 H 0.30026 0.92317 0.44486 0.0
H1126 H 0.25072 0.96696 0.5216 0.0
H1127 H 0.20119 0.97301 0.49092 0.0
C1128 C 0.34155 0.94572 0.55093 0.0
C1129 C 0.35786 0.91566 0.54709 0.0
C1130 C 0.31723 0.95567 0.53046 0.0
C1131 C 0.30827 0.93557 0.50582 0.0
C1132 C 0.32566 0.90609 0.50141 0.0
C1133 C 0.35027 0.89641 0.52162 0.0
C1134 C 0.2503 0.93681 0.43824 0.0
C1135 C 0.22179 0.95029 0.45091 0.0
C1136 C 0.27894 0.93404 0.45541 0.0
C1137 C 0.27958 0.94388 0.48603 0.0
C1138 C 0.25145 0.95922 0.49811 0.0
C1139 C 0.22292 0.96266 0.4806 0.0
H1140 H 0.62463 0.36341 0.50905 0.0
H1141 H 0.54189 0.34243 0.56704 0.0
H1142 H 0.60775 0.31996 0.47487 0.0
H1143 H 0.52396 0.29968 0.53204 0.0
H1144 H 0.53608 0.19564 0.48915 0.0
H1145 H 0.53945 0.2461 0.51889 0.0
H1146 H 0.57195 0.29862 0.43895 0.0
H1147 H 0.57041 0.24774 0.41008 0.0
C1148 C 0.60226 0.35013 0.51406 0.0
C1149 C 0.5848 0.35623 0.54093 0.0
C1150 C 0.59239 0.32516 0.4943 0.0
C1151 C 0.56449 0.30589 0.50065 0.0
C1152 C 0.54592 0.31343 0.52665 0.0
C1153 C 0.55605 0.33817 0.54662 0.0
C1154 C 0.54325 0.21819 0.47794 0.0
C1155 C 0.55347 0.21782 0.44755 0.0
C1156 C 0.54513 0.24723 0.49491 0.0
C1157 C 0.55673 0.27653 0.48158 0.0
C1158 C 0.56402 0.27646 0.45035 0.0
C1159 C 0.56283 0.24737 0.43367 0.0
H1160 H 0.30702 0.51485 0.4899 0.0
H1161 H 0.29541 0.6076 0.44385 0.0
H1162 H 0.26301 0.5296 0.52494 0.0
H1163 H 0.25144 0.62227 0.47868 0.0
H1164 H 0.1478 0.61787 0.51717 0.0
H1165 H 0.19469 0.60279 0.4858 0.0
H1166 H 0.24549 0.56757 0.5654 0.0
H1167 H 0.1985 0.5823 0.59676 0.0
C1168 C 0.29566 0.53871 0.48771 0.0
C1169 C 0.30439 0.55988 0.46381 0.0
C1170 C 0.2703 0.54709 0.50769 0.0
C1171 C 0.25319 0.57678 0.50414 0.0
C1172 C 0.26348 0.59882 0.4815 0.0
C1173 C 0.28884 0.59051 0.46166 0.0
C1174 C 0.16876 0.6065 0.52794 0.0
C1175 C 0.16936 0.60132 0.55949 0.0
C1176 C 0.19582 0.59821 0.51002 0.0
C1177 C 0.22403 0.58438 0.52318 0.0
C1178 C 0.22415 0.57811 0.55455 0.0
C1179 C 0.19718 0.58659 0.57251 0.0
H1180 H 0.96724 0.1795 0.58552 0.0
H1181 H 0.90078 0.1457 0.51587 0.0
H1182 H 0.9889 0.22076 0.55067 0.0
H1183 H 0.92113 0.18749 0.48169 0.0
H1184 H 0.96262 0.2577 0.41889 0.0
H1185 H 0.96191 0.20927 0.45117 0.0
H1186 H 0.97145 0.27129 0.53038 0.0
H1187 H 0.97466 0.3195 0.49745 0.0
C1188 C 0.95755 0.18059 0.56264 0.0
C1189 C 0.93212 0.15945 0.55354 0.0
C1190 C 0.96979 0.20444 0.54272 0.0
C1191 C 0.95667 0.20786 0.51334 0.0
C1192 C 0.93239 0.18547 0.50386 0.0
C1193 C 0.92046 0.16147 0.52361 0.0
C1194 C 0.96568 0.26073 0.44318 0.0
C1195 C 0.96867 0.29215 0.45581 0.0
C1196 C 0.96485 0.23305 0.46175 0.0
C1197 C 0.96561 0.23625 0.49354 0.0
C1198 C 0.97096 0.26769 0.50604 0.0
C1199 C 0.97275 0.29541 0.48725 0.0
H1200 H 0.87049 0.11631 0.99365 0.0
H1201 H 0.85091 0.03455 0.93407 0.0
H1202 H 0.8254 0.09974 0.02593 0.0
H1203 H 0.80655 0.01675 0.96734 0.0
H1204 H 0.69984 0.03367 0.00256 0.0
H1205 H 0.75288 0.03381 0.97689 0.0
H1206 H 0.79946 0.06545 0.06016 0.0
H1207 H 0.74607 0.06738 0.08482 0.0
C1208 C 0.85726 0.0941 0.98798 0.0
C1209 C 0.86404 0.07708 0.961 0.0
C1210 C 0.8313 0.08438 0.00667 0.0
C1211 C 0.81173 0.05702 0.99917 0.0
C1212 C 0.8204 0.0384 0.9735 0.0
C1213 C 0.84611 0.04843 0.95456 0.0
C1214 C 0.72161 0.03992 0.0154 0.0
C1215 C 0.71895 0.05099 0.04541 0.0
C1216 C 0.75214 0.03992 0.00079 0.0
C1217 C 0.78065 0.05042 0.01617 0.0
C1218 C 0.77807 0.05835 0.04718 0.0
C1219 C 0.74753 0.05917 0.06145 0.0
H1220 H 0.40286 0.86394 0.98949 0.0
H1221 H 0.47703 0.83537 0.92482 0.0
H1222 H 0.42117 0.8215 0.02392 0.0
H1223 H 0.49662 0.79357 0.96003 0.0
H1224 H 0.48139 0.69209 0.00758 0.0
H1225 H 0.47932 0.74176 0.97663 0.0
H1226 H 0.45872 0.79892 0.05715 0.0
H1227 H 0.45859 0.74884 0.08732 0.0
C1228 C 0.42378 0.84923 0.98299 0.0
C1229 C 0.43819 0.85284 0.95422 0.0
C1230 C 0.43452 0.82483 0.0029 0.0
C1231 C 0.46032 0.80363 0.99481 0.0
C1232 C 0.47624 0.80884 0.96685 0.0
C1233 C 0.46519 0.83304 0.94673 0.0
C1234 C 0.47716 0.71545 0.01859 0.0
C1235 C 0.46968 0.71674 0.04961 0.0
C1236 C 0.47605 0.74404 0.00093 0.0
C1237 C 0.46806 0.77451 0.01418 0.0
C1238 C 0.46377 0.77589 0.04587 0.0
C1239 C 0.46401 0.74727 0.06327 0.0
H1240 H 0.76251 0.49203 0.06643 0.0
H1241 H 0.83271 0.45312 0.00286 0.0
H1242 H 0.71852 0.48284 0.03014 0.0
H1243 H 0.78836 0.44252 0.96655 0.0
H1244 H 0.70242 0.44041 0.90114 0.0
H1245 H 0.74586 0.46261 0.93319 0.0
H1246 H 0.69077 0.43502 0.01306 0.0
H1247 H 0.64711 0.41367 0.98108 0.0
C1248 C 0.76856 0.48211 0.04431 0.0
C1249 C 0.80097 0.47345 0.03728 0.0
C1250 C 0.74328 0.47642 0.02364 0.0
C1251 C 0.74968 0.46133 0.99558 0.0
C1252 C 0.7825 0.45438 0.98785 0.0
C1253 C 0.80798 0.46049 0.00854 0.0
C1254 C 0.69935 0.43956 0.92556 0.0
C1255 C 0.67122 0.42524 0.93853 0.0
C1256 C 0.72442 0.45208 0.94394 0.0
C1257 C 0.722 0.45057 0.97575 0.0
C1258 C 0.69335 0.43716 0.98867 0.0
C1259 C 0.66826 0.42477 0.9703 0.0
H1260 H 0.06409 0.83064 0.00226 0.0
H1261 H 0.04313 0.75371 0.06671 0.0
H1262 H 0.08223 0.78937 0.96533 0.0
H1263 H 0.06025 0.71264 0.03002 0.0
H1264 H 0.13497 0.6538 0.97583 0.0
H1265 H 0.11151 0.69475 0.00969 0.0
H1266 H 0.06728 0.7436 0.93288 0.0
H1267 H 0.09145 0.7031 0.89894 0.0
C1268 C 0.06254 0.80489 0.00815 0.0
C1269 C 0.05246 0.79531 0.03729 0.0
C1270 C 0.073 0.78123 0.98713 0.0
C1271 C 0.07328 0.74764 0.9949 0.0
C1272 C 0.06124 0.73824 0.0235 0.0
C1273 C 0.0511 0.76175 0.04442 0.0
C1274 C 0.12007 0.67313 0.96618 0.0
C1275 C 0.11509 0.67509 0.93468 0.0
C1276 C 0.10646 0.69659 0.9856 0.0
C1277 C 0.08734 0.72251 0.97404 0.0
C1278 C 0.08214 0.72426 0.94254 0.0
C1279 C 0.09585 0.70085 0.92311 0.0
loop_
_geom_bond_atom_site_label_1
_geom_bond_atom_site_label_2
_geom_bond_distance
_geom_bond_site_symmetry_2
_ccdc_geom_bond_type
Zn0 O6 1.969 . S
Zn0 O7 1.965 . S
Zn0 O11 2.024 . S
Zn0 O16 1.969 . S
Zn1 O8 1.969 . S
Zn1 O14 1.969 . S
Zn1 O15 1.965 . S
Zn1 O17 2.024 . S
C2 O3 1.229 . S
C2 O11 1.058 . S
O3 C2 1.229 . S
C4 O5 1.229 . S
C4 O17 1.058 . S
O5 C4 1.229 . S
O6 Zn0 1.969 . S
O6 C9 1.267 . S
O7 Zn0 1.965 . S
O7 C18 1.260 . S
O8 Zn1 1.969 . S
O8 C18 1.258 . S
C9 O6 1.267 . S
C9 O10 1.228 . S
O10 C9 1.228 . S
O11 Zn0 2.024 . S
O11 C2 1.058 . S
C12 O13 1.228 . S
C12 O14 1.267 . S
O13 C12 1.228 . S
O14 Zn1 1.969 . S
O14 C12 1.267 . S
O15 Zn1 1.965 . S
O15 C19 1.260 . S
O16 Zn0 1.969 . S
O16 C19 1.258 . S
O17 Zn1 2.024 . S
O17 C4 1.058 . S
C18 O7 1.260 . S
C18 O8 1.258 . S
C19 O15 1.260 . S
C19 O16 1.258 . S
Zn20 O26 1.969 . S
Zn20 O27 1.965 . S
Zn20 O31 2.024 . S
Zn20 O36 1.969 . S
Zn21 O28 1.969 . S
Zn21 O34 1.969 . S
Zn21 O35 1.965 . S
Zn21 O37 2.024 . S
C22 O23 1.229 . S
C22 O31 1.058 . S
O23 C22 1.229 . S
C24 O25 1.229 . S
C24 O37 1.058 . S
O25 C24 1.229 . S
O26 Zn20 1.969 . S
O26 C29 1.267 . S
O27 Zn20 1.965 . S
O27 C38 1.260 . S
O28 Zn21 1.969 . S
O28 C38 1.258 . S
C29 O26 1.267 . S
C29 O30 1.228 . S
O30 C29 1.228 . S
O31 Zn20 2.024 . S
O31 C22 1.058 . S
C32 O33 1.228 . S
C32 O34 1.267 . S
O33 C32 1.228 . S
O34 Zn21 1.969 . S
O34 C32 1.267 . S
O35 Zn21 1.965 . S
O35 C39 1.260 . S
O36 Zn20 1.969 . S
O36 C39 1.258 . S
O37 Zn21 2.024 . S
O37 C24 1.058 . S
C38 O27 1.260 . S
C38 O28 1.258 . S
C39 O35 1.260 . S
C39 O36 1.258 . S
Zn40 O46 1.969 1_655 S
Zn40 O47 1.965 . S
Zn40 O51 2.023 1_655 S
Zn40 O56 1.969 . S
Zn41 O48 1.969 . S
Zn41 O54 1.969 . S
Zn41 O55 1.965 . S
Zn41 O57 2.024 . S
C42 O43 1.229 . S
C42 O51 1.063 . S
O43 C42 1.229 . S
C44 O45 1.229 . S
C44 O57 1.058 . S
O45 C44 1.229 . S
O46 Zn40 1.969 1_455 S
O46 C49 1.267 . S
O47 Zn40 1.965 . S
O47 C58 1.260 . S
O48 Zn41 1.969 . S
O48 C58 1.258 . S
C49 O46 1.267 . S
C49 O50 1.228 . S
O50 C49 1.228 . S
O51 Zn40 2.023 1_455 S
O51 C42 1.063 . S
C52 O53 1.228 . S
C52 O54 1.267 . S
O53 C52 1.228 . S
O54 Zn41 1.969 . S
O54 C52 1.267 . S
O55 Zn41 1.965 . S
O55 C59 1.260 . S
O56 Zn40 1.969 . S
O56 C59 1.258 . S
O57 Zn41 2.024 . S
O57 C44 1.058 . S
C58 O47 1.260 . S
C58 O48 1.258 . S
C59 O55 1.260 . S
C59 O56 1.258 . S
Zn60 O66 1.969 1_565 S
Zn60 O67 1.965 . S
Zn60 O71 2.023 1_565 S
Zn60 O76 1.969 . S
Zn61 O68 1.969 . S
Zn61 O74 1.969 . S
Zn61 O75 1.965 . S
Zn61 O77 2.024 . S
C62 O63 1.229 . S
C62 O71 1.063 . S
O63 C62 1.229 . S
C64 O65 1.229 . S
C64 O77 1.058 . S
O65 C64 1.229 . S
O66 Zn60 1.969 1_545 S
O66 C69 1.267 . S
O67 Zn60 1.965 . S
O67 C78 1.260 . S
O68 Zn61 1.969 . S
O68 C78 1.258 . S
C69 O66 1.267 . S
C69 O70 1.228 . S
O70 C69 1.228 . S
O71 Zn60 2.023 1_545 S
O71 C62 1.063 . S
C72 O73 1.228 . S
C72 O74 1.267 . S
O73 C72 1.228 . S
O74 Zn61 1.969 . S
O74 C72 1.267 . S
O75 Zn61 1.965 . S
O75 C79 1.260 . S
O76 Zn60 1.969 . S
O76 C79 1.258 . S
O77 Zn61 2.024 . S
O77 C64 1.058 . S
C78 O67 1.260 . S
C78 O68 1.258 . S
C79 O75 1.260 . S
C79 O76 1.258 . S
Zn80 O86 1.969 1_455 S
Zn80 O87 1.965 . S
Zn80 O91 2.023 1_455 S
Zn80 O96 1.969 . S
Zn81 O88 1.969 . S
Zn81 O94 1.969 . S
Zn81 O95 1.965 . S
Zn81 O97 2.024 . S
C82 O83 1.229 . S
C82 O91 1.063 . S
O83 C82 1.229 . S
C84 O85 1.229 . S
C84 O97 1.058 . S
O85 C84 1.229 . S
O86 Zn80 1.969 1_655 S
O86 C89 1.267 . S
O87 Zn80 1.965 . S
O87 C98 1.260 . S
O88 Zn81 1.969 . S
O88 C98 1.258 . S
C89 O86 1.267 . S
C89 O90 1.228 . S
O90 C89 1.228 . S
O91 Zn80 2.023 1_655 S
O91 C82 1.063 . S
C92 O93 1.228 . S
C92 O94 1.267 . S
O93 C92 1.228 . S
O94 Zn81 1.969 . S
O94 C92 1.267 . S
O95 Zn81 1.965 . S
O95 C99 1.260 . S
O96 Zn80 1.969 . S
O96 C99 1.258 . S
O97 Zn81 2.024 . S
O97 C84 1.058 . S
C98 O87 1.260 . S
C98 O88 1.258 . S
C99 O95 1.260 . S
C99 O96 1.258 . S
Zn100 O106 1.969 1_545 S
Zn100 O107 1.965 . S
Zn100 O111 2.023 1_545 S
Zn100 O116 1.969 . S
Zn101 O108 1.969 . S
Zn101 O114 1.969 . S
Zn101 O115 1.965 . S
Zn101 O117 2.024 . S
C102 O103 1.229 . S
C102 O111 1.063 . S
O103 C102 1.229 . S
C104 O105 1.229 . S
C104 O117 1.058 . S
O105 C104 1.229 . S
O106 Zn100 1.969 1_565 S
O106 C109 1.267 . S
O107 Zn100 1.965 . S
O107 C118 1.260 . S
O108 Zn101 1.969 . S
O108 C118 1.258 . S
C109 O106 1.267 . S
C109 O110 1.228 . S
O110 C109 1.228 . S
O111 Zn100 2.023 1_565 S
O111 C102 1.063 . S
C112 O113 1.228 . S
C112 O114 1.267 . S
O113 C112 1.228 . S
O114 Zn101 1.969 . S
O114 C112 1.267 . S
O115 Zn101 1.965 . S
O115 C119 1.260 . S
O116 Zn100 1.969 . S
O116 C119 1.258 . S
O117 Zn101 2.024 . S
O117 C104 1.058 . S
C118 O107 1.260 . S
C118 O108 1.258 . S
C119 O115 1.260 . S
C119 O116 1.258 . S
Zn120 O126 1.969 . S
Zn120 O127 1.965 . S
Zn120 O131 2.024 . S
Zn120 O136 1.969 . S
Zn121 O128 1.969 . S
Zn121 O134 1.969 . S
Zn121 O135 1.965 . S
Zn121 O137 2.024 . S
C122 O123 1.229 . S
C122 O131 1.058 . S
O123 C122 1.229 . S
C124 O125 1.229 . S
C124 O137 1.058 . S
O125 C124 1.229 . S
O126 Zn120 1.969 . S
O126 C129 1.267 . S
O127 Zn120 1.965 . S
O127 C138 1.260 . S
O128 Zn121 1.969 . S
O128 C138 1.258 . S
C129 O126 1.267 . S
C129 O130 1.228 . S
O130 C129 1.228 . S
O131 Zn120 2.024 . S
O131 C122 1.058 . S
C132 O133 1.228 . S
C132 O134 1.267 . S
O133 C132 1.228 . S
O134 Zn121 1.969 . S
O134 C132 1.267 . S
O135 Zn121 1.965 . S
O135 C139 1.260 . S
O136 Zn120 1.969 . S
O136 C139 1.258 . S
O137 Zn121 2.024 . S
O137 C124 1.058 . S
C138 O127 1.260 . S
C138 O128 1.258 . S
C139 O135 1.260 . S
C139 O136 1.258 . S
Zn140 O146 1.969 . S
Zn140 O147 1.965 . S
Zn140 O151 2.024 . S
Zn140 O156 1.969 . S
Zn141 O148 1.969 . S
Zn141 O154 1.969 . S
Zn141 O155 1.965 . S
Zn141 O157 2.024 . S
C142 O143 1.229 . S
C142 O151 1.058 . S
O143 C142 1.229 . S
C144 O145 1.229 . S
C144 O157 1.058 . S
O145 C144 1.229 . S
O146 Zn140 1.969 . S
O146 C149 1.267 . S
O147 Zn140 1.965 . S
O147 C158 1.260 . S
O148 Zn141 1.969 . S
O148 C158 1.258 . S
C149 O146 1.267 . S
C149 O150 1.228 . S
O150 C149 1.228 . S
O151 Zn140 2.024 . S
O151 C142 1.058 . S
C152 O153 1.228 . S
C152 O154 1.267 . S
O153 C152 1.228 . S
O154 Zn141 1.969 . S
O154 C152 1.267 . S
O155 Zn141 1.965 . S
O155 C159 1.260 . S
O156 Zn140 1.969 . S
O156 C159 1.258 . S
O157 Zn141 2.024 . S
O157 C144 1.058 . S
C158 O147 1.260 . S
C158 O148 1.258 . S
C159 O155 1.260 . S
C159 O156 1.258 . S
Zn160 O166 1.969 . S
Zn160 O167 1.965 . S
Zn160 O171 2.024 . S
Zn160 O176 1.969 . S
Zn161 O168 1.969 . S
Zn161 O174 1.969 . S
Zn161 O175 1.965 . S
Zn161 O177 2.024 . S
C162 O163 1.229 . S
C162 O171 1.058 . S
O163 C162 1.229 . S
C164 O165 1.229 . S
C164 O177 1.058 . S
O165 C164 1.229 . S
O166 Zn160 1.969 . S
O166 C169 1.267 . S
O167 Zn160 1.965 . S
O167 C178 1.260 . S
O168 Zn161 1.969 . S
O168 C178 1.258 . S
C169 O166 1.267 . S
C169 O170 1.228 . S
O170 C169 1.228 . S
O171 Zn160 2.024 . S
O171 C162 1.058 . S
C172 O173 1.228 . S
C172 O174 1.267 . S
O173 C172 1.228 . S
O174 Zn161 1.969 . S
O174 C172 1.267 . S
O175 Zn161 1.965 . S
O175 C179 1.260 . S
O176 Zn160 1.969 . S
O176 C179 1.258 . S
O177 Zn161 2.024 . S
O177 C164 1.058 . S
C178 O167 1.260 . S
C178 O168 1.258 . S
C179 O175 1.260 . S
C179 O176 1.258 . S
Zn180 O186 1.969 . S
Zn180 O187 1.965 . S
Zn180 O191 2.024 . S
Zn180 O196 1.969 . S
Zn181 O188 1.969 . S
Zn181 O194 1.969 . S
Zn181 O195 1.965 . S
Zn181 O197 2.024 . S
C182 O183 1.229 . S
C182 O191 1.058 . S
O183 C182 1.229 . S
C184 O185 1.229 . S
C184 O197 1.058 . S
O185 C184 1.229 . S
O186 Zn180 1.969 . S
O186 C189 1.267 . S
O187 Zn180 1.965 . S
O187 C198 1.260 . S
O188 Zn181 1.969 . S
O188 C198 1.258 . S
C189 O186 1.267 . S
C189 O190 1.228 . S
O190 C189 1.228 . S
O191 Zn180 2.024 . S
O191 C182 1.058 . S
C192 O193 1.228 . S
C192 O194 1.267 . S
O193 C192 1.228 . S
O194 Zn181 1.969 . S
O194 C192 1.267 . S
O195 Zn181 1.965 . S
O195 C199 1.260 . S
O196 Zn180 1.969 . S
O196 C199 1.258 . S
O197 Zn181 2.024 . S
O197 C184 1.058 . S
C198 O187 1.260 . S
C198 O188 1.258 . S
C199 O195 1.260 . S
C199 O196 1.258 . S
Zn200 O206 1.969 . S
Zn200 O207 1.965 . S
Zn200 O211 2.024 . S
Zn200 O216 1.969 . S
Zn201 O208 1.969 . S
Zn201 O214 1.969 1_455 S
Zn201 O215 1.965 . S
Zn201 O217 2.023 1_455 S
C202 O203 1.229 . S
C202 O211 1.058 . S
O203 C202 1.229 . S
C204 O205 1.229 . S
C204 O217 1.063 . S
O205 C204 1.229 . S
O206 Zn200 1.969 . S
O206 C209 1.267 . S
O207 Zn200 1.965 . S
O207 C218 1.260 . S
O208 Zn201 1.969 . S
O208 C218 1.258 . S
C209 O206 1.267 . S
C209 O210 1.228 . S
O210 C209 1.228 . S
O211 Zn200 2.024 . S
O211 C202 1.058 . S
C212 O213 1.228 . S
C212 O214 1.267 . S
O213 C212 1.228 . S
O214 Zn201 1.969 1_655 S
O214 C212 1.267 . S
O215 Zn201 1.965 . S
O215 C219 1.260 . S
O216 Zn200 1.969 . S
O216 C219 1.258 . S
O217 Zn201 2.023 1_655 S
O217 C204 1.063 . S
C218 O207 1.260 . S
C218 O208 1.258 . S
C219 O215 1.260 . S
C219 O216 1.258 . S
Zn220 O226 1.969 . S
Zn220 O227 1.965 . S
Zn220 O231 2.024 . S
Zn220 O236 1.969 . S
Zn221 O228 1.969 . S
Zn221 O234 1.969 1_545 S
Zn221 O235 1.965 . S
Zn221 O237 2.023 1_545 S
C222 O223 1.229 . S
C222 O231 1.058 . S
O223 C222 1.229 . S
C224 O225 1.229 . S
C224 O237 1.063 . S
O225 C224 1.229 . S
O226 Zn220 1.969 . S
O226 C229 1.267 . S
O227 Zn220 1.965 . S
O227 C238 1.260 . S
O228 Zn221 1.969 . S
O228 C238 1.258 . S
C229 O226 1.267 . S
C229 O230 1.228 . S
O230 C229 1.228 . S
O231 Zn220 2.024 . S
O231 C222 1.058 . S
C232 O233 1.228 . S
C232 O234 1.267 . S
O233 C232 1.228 . S
O234 Zn221 1.969 1_565 S
O234 C232 1.267 . S
O235 Zn221 1.965 . S
O235 C239 1.260 . S
O236 Zn220 1.969 . S
O236 C239 1.258 . S
O237 Zn221 2.023 1_565 S
O237 C224 1.063 . S
C238 O227 1.260 . S
C238 O228 1.258 . S
C239 O235 1.260 . S
C239 O236 1.258 . S
Zn240 O246 1.969 . S
Zn240 O247 1.965 . S
Zn240 O251 2.024 . S
Zn240 O256 1.969 . S
Zn241 O248 1.969 . S
Zn241 O254 1.969 1_655 S
Zn241 O255 1.965 . S
Zn241 O257 2.023 1_655 S
C242 O243 1.229 . S
C242 O251 1.058 . S
O243 C242 1.229 . S
C244 O245 1.229 . S
C244 O257 1.063 . S
O245 C244 1.229 . S
O246 Zn240 1.969 . S
O246 C249 1.267 . S
O247 Zn240 1.965 . S
O247 C258 1.260 . S
O248 Zn241 1.969 . S
O248 C258 1.258 . S
C249 O246 1.267 . S
C249 O250 1.228 . S
O250 C249 1.228 . S
O251 Zn240 2.024 . S
O251 C242 1.058 . S
C252 O253 1.228 . S
C252 O254 1.267 . S
O253 C252 1.228 . S
O254 Zn241 1.969 1_455 S
O254 C252 1.267 . S
O255 Zn241 1.965 . S
O255 C259 1.260 . S
O256 Zn240 1.969 . S
O256 C259 1.258 . S
O257 Zn241 2.023 1_455 S
O257 C244 1.063 . S
C258 O247 1.260 . S
C258 O248 1.258 . S
C259 O255 1.260 . S
C259 O256 1.258 . S
Zn260 O266 1.969 . S
Zn260 O267 1.965 . S
Zn260 O271 2.024 . S
Zn260 O276 1.969 . S
Zn261 O268 1.969 . S
Zn261 O274 1.969 1_565 S
Zn261 O275 1.965 . S
Zn261 O277 2.023 1_565 S
C262 O263 1.229 . S
C262 O271 1.058 . S
O263 C262 1.229 . S
C264 O265 1.229 . S
C264 O277 1.063 . S
O265 C264 1.229 . S
O266 Zn260 1.969 . S
O266 C269 1.267 . S
O267 Zn260 1.965 . S
O267 C278 1.260 . S
O268 Zn261 1.969 . S
O268 C278 1.258 . S
C269 O266 1.267 . S
C269 O270 1.228 . S
O270 C269 1.228 . S
O271 Zn260 2.024 . S
O271 C262 1.058 . S
C272 O273 1.228 . S
C272 O274 1.267 . S
O273 C272 1.228 . S
O274 Zn261 1.969 1_545 S
O274 C272 1.267 . S
O275 Zn261 1.965 . S
O275 C279 1.260 . S
O276 Zn260 1.969 . S
O276 C279 1.258 . S
O277 Zn261 2.023 1_545 S
O277 C264 1.063 . S
C278 O267 1.260 . S
C278 O268 1.258 . S
C279 O275 1.260 . S
C279 O276 1.258 . S
Zn280 O286 1.969 . S
Zn280 O287 1.965 . S
Zn280 O291 2.024 . S
Zn280 O296 1.969 . S
Zn281 O288 1.969 . S
Zn281 O294 1.969 . S
Zn281 O295 1.965 . S
Zn281 O297 2.024 . S
C282 O283 1.229 . S
C282 O291 1.058 . S
O283 C282 1.229 . S
C284 O285 1.229 . S
C284 O297 1.058 . S
O285 C284 1.229 . S
O286 Zn280 1.969 . S
O286 C289 1.267 . S
O287 Zn280 1.965 . S
O287 C298 1.260 . S
O288 Zn281 1.969 . S
O288 C298 1.258 . S
C289 O286 1.267 . S
C289 O290 1.228 . S
O290 C289 1.228 . S
O291 Zn280 2.024 . S
O291 C282 1.058 . S
C292 O293 1.228 . S
C292 O294 1.267 . S
O293 C292 1.228 . S
O294 Zn281 1.969 . S
O294 C292 1.267 . S
O295 Zn281 1.965 . S
O295 C299 1.260 . S
O296 Zn280 1.969 . S
O296 C299 1.258 . S
O297 Zn281 2.024 . S
O297 C284 1.058 . S
C298 O287 1.260 . S
C298 O288 1.258 . S
C299 O295 1.260 . S
C299 O296 1.258 . S
Zn300 O306 1.969 . S
Zn300 O307 1.965 . S
Zn300 O311 2.024 . S
Zn300 O316 1.969 . S
Zn301 O308 1.969 . S
Zn301 O314 1.969 . S
Zn301 O315 1.965 . S
Zn301 O317 2.024 . S
C302 O303 1.229 . S
C302 O311 1.058 . S
O303 C302 1.229 . S
C304 O305 1.229 . S
C304 O317 1.058 . S
O305 C304 1.229 . S
O306 Zn300 1.969 . S
O306 C309 1.267 . S
O307 Zn300 1.965 . S
O307 C318 1.260 . S
O308 Zn301 1.969 . S
O308 C318 1.258 . S
C309 O306 1.267 . S
C309 O310 1.228 . S
O310 C309 1.228 . S
O311 Zn300 2.024 . S
O311 C302 1.058 . S
C312 O313 1.228 . S
C312 O314 1.267 . S
O313 C312 1.228 . S
O314 Zn301 1.969 . S
O314 C312 1.267 . S
O315 Zn301 1.965 . S
O315 C319 1.260 . S
O316 Zn300 1.969 . S
O316 C319 1.258 . S
O317 Zn301 2.024 . S
O317 C304 1.058 . S
C318 O307 1.260 . S
C318 O308 1.258 . S
C319 O315 1.260 . S
C319 O316 1.258 . S
H320 C328 0.950 . S
H321 C333 0.950 . S
H322 C330 0.950 . S
H323 C332 0.950 . S
H324 C334 0.950 . S
H325 C336 0.950 . S
H326 C338 0.950 . S
H327 C339 0.950 . S
C328 H320 0.950 . S
C328 C329 1.386 . S
C328 C330 1.391 . S
C329 C328 1.386 . S
C329 C333 1.393 . S
C330 H322 0.950 . S
C330 C328 1.391 . S
C330 C331 1.400 . S
C331 C330 1.400 . S
C331 C332 1.398 . S
C331 C337 1.491 . S
C332 H323 0.950 . S
C332 C331 1.398 . S
C332 C333 1.391 . S
C333 H321 0.950 . S
C333 C329 1.393 . S
C333 C332 1.391 . S
C334 H324 0.950 . S
C334 C335 1.386 . S
C334 C336 1.391 . S
C335 C334 1.386 . S
C335 C339 1.393 . S
C336 H325 0.950 . S
C336 C334 1.391 . S
C336 C337 1.400 . S
C337 C331 1.491 . S
C337 C336 1.400 . S
C337 C338 1.398 . S
C338 H326 0.950 . S
C338 C337 1.398 . S
C338 C339 1.391 . S
C339 H327 0.950 . S
C339 C335 1.393 . S
C339 C338 1.391 . S
H340 C348 0.950 . S
H341 C353 0.950 . S
H342 C350 0.950 . S
H343 C352 0.950 . S
H344 C354 0.950 . S
H345 C356 0.950 . S
H346 C358 0.950 . S
H347 C359 0.950 . S
C348 H340 0.950 . S
C348 C349 1.386 . S
C348 C350 1.391 . S
C349 C348 1.386 . S
C349 C353 1.393 . S
C350 H342 0.950 . S
C350 C348 1.391 . S
C350 C351 1.400 . S
C351 C350 1.400 . S
C351 C352 1.398 . S
C351 C357 1.491 . S
C352 H343 0.950 . S
C352 C351 1.398 . S
C352 C353 1.391 . S
C353 H341 0.950 . S
C353 C349 1.393 . S
C353 C352 1.391 . S
C354 H344 0.950 . S
C354 C355 1.386 . S
C354 C356 1.391 . S
C355 C354 1.386 . S
C355 C359 1.393 . S
C356 H345 0.950 . S
C356 C354 1.391 . S
C356 C357 1.400 . S
C357 C351 1.491 . S
C357 C356 1.400 . S
C357 C358 1.398 . S
C358 H346 0.950 . S
C358 C357 1.398 . S
C358 C359 1.391 . S
C359 H347 0.950 . S
C359 C355 1.393 . S
C359 C358 1.391 . S
H360 C368 0.950 . S
H361 C373 0.950 . S
H362 C370 0.950 . S
H363 C372 0.950 . S
H364 C374 0.950 . S
H365 C376 0.950 . S
H366 C378 0.950 . S
H367 C379 0.950 . S
C368 H360 0.950 . S
C368 C369 1.386 . S
C368 C370 1.391 . S
C369 C368 1.386 . S
C369 C373 1.393 . S
C370 H362 0.950 . S
C370 C368 1.391 . S
C370 C371 1.400 . S
C371 C370 1.400 . S
C371 C372 1.398 . S
C371 C377 1.491 . S
C372 H363 0.950 . S
C372 C371 1.398 . S
C372 C373 1.391 . S
C373 H361 0.950 . S
C373 C369 1.393 . S
C373 C372 1.391 . S
C374 H364 0.950 . S
C374 C375 1.386 . S
C374 C376 1.391 . S
C375 C374 1.386 . S
C375 C379 1.393 . S
C376 H365 0.950 . S
C376 C374 1.391 . S
C376 C377 1.400 . S
C377 C371 1.491 . S
C377 C376 1.400 . S
C377 C378 1.398 . S
C378 H366 0.950 . S
C378 C377 1.398 . S
C378 C379 1.391 . S
C379 H367 0.950 . S
C379 C375 1.393 . S
C379 C378 1.391 . S
H380 C388 0.950 . S
H381 C393 0.950 . S
H382 C390 0.950 . S
H383 C392 0.950 . S
H384 C394 0.950 . S
H385 C396 0.950 . S
H386 C398 0.950 . S
H387 C399 0.950 . S
C388 H380 0.950 . S
C388 C389 1.386 . S
C388 C390 1.391 . S
C389 C388 1.386 . S
C389 C393 1.393 . S
C390 H382 0.950 . S
C390 C388 1.391 . S
C390 C391 1.400 . S
C391 C390 1.400 . S
C391 C392 1.398 . S
C391 C397 1.491 . S
C392 H383 0.950 . S
C392 C391 1.398 . S
C392 C393 1.391 . S
C393 H381 0.950 . S
C393 C389 1.393 . S
C393 C392 1.391 . S
C394 H384 0.950 . S
C394 C395 1.386 . S
C394 C396 1.391 . S
C395 C394 1.386 . S
C395 C399 1.393 . S
C396 H385 0.950 . S
C396 C394 1.391 . S
C396 C397 1.400 . S
C397 C391 1.491 . S
C397 C396 1.400 . S
C397 C398 1.398 . S
C398 H386 0.950 . S
C398 C397 1.398 . S
C398 C399 1.391 . S
C399 H387 0.950 . S
C399 C395 1.393 . S
C399 C398 1.391 . S
H400 C408 0.950 . S
H401 C413 0.950 . S
H402 C410 0.950 . S
H403 C412 0.950 . S
H404 C414 0.950 . S
H405 C416 0.950 . S
H406 C418 0.950 . S
H407 C419 0.950 . S
C408 H400 0.950 . S
C408 C409 1.386 . S
C408 C410 1.391 . S
C409 C408 1.386 . S
C409 C413 1.393 . S
C410 H402 0.950 . S
C410 C408 1.391 . S
C410 C411 1.400 . S
C411 C410 1.400 . S
C411 C412 1.398 . S
C411 C417 1.491 . S
C412 H403 0.950 . S
C412 C411 1.398 . S
C412 C413 1.391 . S
C413 H401 0.950 . S
C413 C409 1.393 . S
C413 C412 1.391 . S
C414 H404 0.950 . S
C414 C415 1.386 . S
C414 C416 1.391 . S
C415 C414 1.386 . S
C415 C419 1.393 . S
C416 H405 0.950 . S
C416 C414 1.391 . S
C416 C417 1.400 . S
C417 C411 1.491 . S
C417 C416 1.400 . S
C417 C418 1.398 . S
C418 H406 0.950 . S
C418 C417 1.398 . S
C418 C419 1.391 . S
C419 H407 0.950 . S
C419 C415 1.393 . S
C419 C418 1.391 . S
H420 C428 0.950 . S
H421 C433 0.950 . S
H422 C430 0.950 . S
H423 C432 0.950 . S
H424 C434 0.950 . S
H425 C436 0.950 . S
H426 C438 0.950 . S
H427 C439 0.950 . S
C428 H420 0.950 . S
C428 C429 1.386 . S
C428 C430 1.391 . S
C429 C428 1.386 . S
C429 C433 1.393 . S
C430 H422 0.950 . S
C430 C428 1.391 . S
C430 C431 1.400 . S
C431 C430 1.400 . S
C431 C432 1.398 . S
C431 C437 1.491 . S
C432 H423 0.950 . S
C432 C431 1.398 . S
C432 C433 1.391 . S
C433 H421 0.950 . S
C433 C429 1.393 . S
C433 C432 1.391 . S
C434 H424 0.950 . S
C434 C435 1.386 . S
C434 C436 1.391 . S
C435 C434 1.386 . S
C435 C439 1.393 . S
C436 H425 0.950 . S
C436 C434 1.391 . S
C436 C437 1.400 . S
C437 C431 1.491 . S
C437 C436 1.400 . S
C437 C438 1.398 . S
C438 H426 0.950 . S
C438 C437 1.398 . S
C438 C439 1.391 . S
C439 H427 0.950 . S
C439 C435 1.393 . S
C439 C438 1.391 . S
H440 C448 0.950 . S
H441 C453 0.950 . S
H442 C450 0.950 . S
H443 C452 0.950 . S
H444 C454 0.950 . S
H445 C456 0.950 . S
H446 C458 0.950 . S
H447 C459 0.950 . S
C448 H440 0.950 . S
C448 C449 1.386 . S
C448 C450 1.391 . S
C449 C448 1.386 . S
C449 C453 1.393 . S
C450 H442 0.950 . S
C450 C448 1.391 . S
C450 C451 1.400 . S
C451 C450 1.400 . S
C451 C452 1.398 . S
C451 C457 1.491 . S
C452 H443 0.950 . S
C452 C451 1.398 . S
C452 C453 1.391 . S
C453 H441 0.950 . S
C453 C449 1.393 . S
C453 C452 1.391 . S
C454 H444 0.950 . S
C454 C455 1.386 . S
C454 C456 1.391 . S
C455 C454 1.386 . S
C455 C459 1.393 . S
C456 H445 0.950 . S
C456 C454 1.391 . S
C456 C457 1.400 . S
C457 C451 1.491 . S
C457 C456 1.400 . S
C457 C458 1.398 . S
C458 H446 0.950 . S
C458 C457 1.398 . S
C458 C459 1.391 . S
C459 H447 0.950 . S
C459 C455 1.393 . S
C459 C458 1.391 . S
H460 C468 0.950 . S
H461 C473 0.950 . S
H462 C470 0.950 . S
H463 C472 0.950 . S
H464 C474 0.950 . S
H465 C476 0.950 . S
H466 C478 0.950 . S
H467 C479 0.950 . S
C468 H460 0.950 . S
C468 C469 1.386 . S
C468 C470 1.391 . S
C469 C468 1.386 . S
C469 C473 1.393 . S
C470 H462 0.950 . S
C470 C468 1.391 . S
C470 C471 1.400 . S
C471 C470 1.400 . S
C471 C472 1.398 . S
C471 C477 1.491 . S
C472 H463 0.950 . S
C472 C471 1.398 . S
C472 C473 1.391 . S
C473 H461 0.950 . S
C473 C469 1.393 . S
C473 C472 1.391 . S
C474 H464 0.950 . S
C474 C475 1.386 . S
C474 C476 1.391 . S
C475 C474 1.386 . S
C475 C479 1.393 . S
C476 H465 0.950 . S
C476 C474 1.391 . S
C476 C477 1.400 . S
C477 C471 1.491 . S
C477 C476 1.400 . S
C477 C478 1.398 . S
C478 H466 0.950 . S
C478 C477 1.398 . S
C478 C479 1.391 . S
C479 H467 0.950 . S
C479 C475 1.393 . S
C479 C478 1.391 . S
H480 C488 0.950 . S
H481 C493 0.950 . S
H482 C490 0.950 . S
H483 C492 0.950 . S
H484 C494 0.950 . S
H485 C496 0.950 . S
H486 C498 0.950 . S
H487 C499 0.950 1_565 S
C488 H480 0.950 . S
C488 C489 1.386 . S
C488 C490 1.391 . S
C489 C488 1.386 . S
C489 C493 1.393 . S
C490 H482 0.950 . S
C490 C488 1.391 . S
C490 C491 1.400 . S
C491 C490 1.400 . S
C491 C492 1.398 . S
C491 C497 1.491 . S
C492 H483 0.950 . S
C492 C491 1.398 . S
C492 C493 1.391 . S
C493 H481 0.950 . S
C493 C489 1.393 . S
C493 C492 1.391 . S
C494 H484 0.950 . S
C494 C495 1.386 . S
C494 C496 1.391 . S
C495 C494 1.386 . S
C495 C499 1.393 . S
C496 H485 0.950 . S
C496 C494 1.391 . S
C496 C497 1.400 . S
C497 C491 1.491 . S
C497 C496 1.400 . S
C497 C498 1.398 . S
C498 H486 0.950 . S
C498 C497 1.398 . S
C498 C499 1.391 . S
C499 H487 0.950 1_545 S
C499 C495 1.393 . S
C499 C498 1.391 . S
H500 C508 0.950 . S
H501 C513 0.950 . S
H502 C510 0.950 . S
H503 C512 0.950 . S
H504 C514 0.950 . S
H505 C516 0.950 . S
H506 C518 0.950 . S
H507 C519 0.950 . S
C508 H500 0.950 . S
C508 C509 1.386 . S
C508 C510 1.391 . S
C509 C508 1.386 . S
C509 C513 1.393 . S
C510 H502 0.950 . S
C510 C508 1.391 . S
C510 C511 1.400 . S
C511 C510 1.400 . S
C511 C512 1.398 . S
C511 C517 1.491 . S
C512 H503 0.950 . S
C512 C511 1.398 . S
C512 C513 1.391 . S
C513 H501 0.950 . S
C513 C509 1.393 . S
C513 C512 1.391 . S
C514 H504 0.950 . S
C514 C515 1.386 . S
C514 C516 1.391 . S
C515 C514 1.386 . S
C515 C519 1.393 . S
C516 H505 0.950 . S
C516 C514 1.391 . S
C516 C517 1.400 . S
C517 C511 1.491 . S
C517 C516 1.400 . S
C517 C518 1.398 . S
C518 H506 0.950 . S
C518 C517 1.398 . S
C518 C519 1.391 . S
C519 H507 0.950 . S
C519 C515 1.393 . S
C519 C518 1.391 . S
H520 C528 0.950 . S
H521 C533 0.950 . S
H522 C530 0.950 . S
H523 C532 0.950 . S
H524 C534 0.950 . S
H525 C536 0.950 . S
H526 C538 0.950 . S
H527 C539 0.950 . S
C528 H520 0.950 . S
C528 C529 1.386 . S
C528 C530 1.391 . S
C529 C528 1.386 . S
C529 C533 1.393 . S
C530 H522 0.950 . S
C530 C528 1.391 . S
C530 C531 1.400 . S
C531 C530 1.400 . S
C531 C532 1.398 . S
C531 C537 1.491 . S
C532 H523 0.950 . S
C532 C531 1.398 . S
C532 C533 1.391 . S
C533 H521 0.950 . S
C533 C529 1.393 . S
C533 C532 1.391 . S
C534 H524 0.950 . S
C534 C535 1.386 . S
C534 C536 1.391 . S
C535 C534 1.386 . S
C535 C539 1.393 . S
C536 H525 0.950 . S
C536 C534 1.391 . S
C536 C537 1.400 . S
C537 C531 1.491 . S
C537 C536 1.400 . S
C537 C538 1.398 . S
C538 H526 0.950 . S
C538 C537 1.398 . S
C538 C539 1.391 . S
C539 H527 0.950 . S
C539 C535 1.393 . S
C539 C538 1.391 . S
H540 C548 0.950 . S
H541 C553 0.950 . S
H542 C550 0.950 . S
H543 C552 0.950 . S
H544 C554 0.950 . S
H545 C556 0.950 . S
H546 C558 0.950 . S
H547 C559 0.950 . S
C548 H540 0.950 . S
C548 C549 1.386 . S
C548 C550 1.391 . S
C549 C548 1.386 . S
C549 C553 1.393 . S
C550 H542 0.950 . S
C550 C548 1.391 . S
C550 C551 1.400 . S
C551 C550 1.400 . S
C551 C552 1.398 . S
C551 C557 1.491 . S
C552 H543 0.950 . S
C552 C551 1.398 . S
C552 C553 1.391 . S
C553 H541 0.950 . S
C553 C549 1.393 . S
C553 C552 1.391 . S
C554 H544 0.950 . S
C554 C555 1.386 . S
C554 C556 1.391 . S
C555 C554 1.386 . S
C555 C559 1.393 . S
C556 H545 0.950 . S
C556 C554 1.391 . S
C556 C557 1.400 . S
C557 C551 1.491 . S
C557 C556 1.400 . S
C557 C558 1.398 . S
C558 H546 0.950 . S
C558 C557 1.398 . S
C558 C559 1.391 . S
C559 H547 0.950 . S
C559 C555 1.393 . S
C559 C558 1.391 . S
H560 C568 0.950 . S
H561 C573 0.950 . S
H562 C570 0.950 . S
H563 C572 0.950 . S
H564 C574 0.950 . S
H565 C576 0.950 . S
H566 C578 0.950 . S
H567 C579 0.950 1_545 S
C568 H560 0.950 . S
C568 C569 1.386 . S
C568 C570 1.391 . S
C569 C568 1.386 . S
C569 C573 1.393 . S
C570 H562 0.950 . S
C570 C568 1.391 . S
C570 C571 1.400 . S
C571 C570 1.400 . S
C571 C572 1.398 . S
C571 C577 1.491 . S
C572 H563 0.950 . S
C572 C571 1.398 . S
C572 C573 1.391 . S
C573 H561 0.950 . S
C573 C569 1.393 . S
C573 C572 1.391 . S
C574 H564 0.950 . S
C574 C575 1.386 . S
C574 C576 1.391 . S
C575 C574 1.386 . S
C575 C579 1.393 . S
C576 H565 0.950 . S
C576 C574 1.391 . S
C576 C577 1.400 . S
C577 C571 1.491 . S
C577 C576 1.400 . S
C577 C578 1.398 . S
C578 H566 0.950 . S
C578 C577 1.398 . S
C578 C579 1.391 . S
C579 H567 0.950 1_565 S
C579 C575 1.393 . S
C579 C578 1.391 . S
H580 C588 0.950 . S
H581 C593 0.950 . S
H582 C590 0.950 . S
H583 C592 0.950 . S
H584 C594 0.950 . S
H585 C596 0.950 . S
H586 C598 0.950 . S
H587 C599 0.950 . S
C588 H580 0.950 . S
C588 C589 1.386 . S
C588 C590 1.391 . S
C589 C588 1.386 . S
C589 C593 1.393 . S
C590 H582 0.950 . S
C590 C588 1.391 . S
C590 C591 1.400 . S
C591 C590 1.400 . S
C591 C592 1.398 . S
C591 C597 1.491 . S
C592 H583 0.950 . S
C592 C591 1.398 . S
C592 C593 1.391 . S
C593 H581 0.950 . S
C593 C589 1.393 . S
C593 C592 1.391 . S
C594 H584 0.950 . S
C594 C595 1.386 . S
C594 C596 1.391 . S
C595 C594 1.386 . S
C595 C599 1.393 . S
C596 H585 0.950 . S
C596 C594 1.391 . S
C596 C597 1.400 . S
C597 C591 1.491 . S
C597 C596 1.400 . S
C597 C598 1.398 . S
C598 H586 0.950 . S
C598 C597 1.398 . S
C598 C599 1.391 . S
C599 H587 0.950 . S
C599 C595 1.393 . S
C599 C598 1.391 . S
H600 C608 0.950 . S
H601 C613 0.950 . S
H602 C610 0.950 . S
H603 C612 0.950 . S
H604 C614 0.950 . S
H605 C616 0.950 . S
H606 C618 0.950 . S
H607 C619 0.950 . S
C608 H600 0.950 . S
C608 C609 1.386 . S
C608 C610 1.391 . S
C609 C608 1.386 . S
C609 C613 1.393 . S
C610 H602 0.950 . S
C610 C608 1.391 . S
C610 C611 1.400 . S
C611 C610 1.400 . S
C611 C612 1.398 . S
C611 C617 1.491 . S
C612 H603 0.950 . S
C612 C611 1.398 . S
C612 C613 1.391 . S
C613 H601 0.950 . S
C613 C609 1.393 . S
C613 C612 1.391 . S
C614 H604 0.950 . S
C614 C615 1.386 . S
C614 C616 1.391 . S
C615 C614 1.386 . S
C615 C619 1.393 . S
C616 H605 0.950 . S
C616 C614 1.391 . S
C616 C617 1.400 . S
C617 C611 1.491 . S
C617 C616 1.400 . S
C617 C618 1.398 . S
C618 H606 0.950 . S
C618 C617 1.398 . S
C618 C619 1.391 . S
C619 H607 0.950 . S
C619 C615 1.393 . S
C619 C618 1.391 . S
H620 C628 0.950 . S
H621 C633 0.950 . S
H622 C630 0.950 . S
H623 C632 0.950 . S
H624 C634 0.950 . S
H625 C636 0.950 . S
H626 C638 0.950 . S
H627 C639 0.950 . S
C628 H620 0.950 . S
C628 C629 1.386 . S
C628 C630 1.391 . S
C629 C628 1.386 . S
C629 C633 1.393 . S
C630 H622 0.950 . S
C630 C628 1.391 . S
C630 C631 1.400 . S
C631 C630 1.400 . S
C631 C632 1.398 . S
C631 C637 1.491 . S
C632 H623 0.950 . S
C632 C631 1.398 . S
C632 C633 1.391 . S
C633 H621 0.950 . S
C633 C629 1.393 . S
C633 C632 1.391 . S
C634 H624 0.950 . S
C634 C635 1.386 . S
C634 C636 1.391 . S
C635 C634 1.386 . S
C635 C639 1.393 . S
C636 H625 0.950 . S
C636 C634 1.391 . S
C636 C637 1.400 . S
C637 C631 1.491 . S
C637 C636 1.400 . S
C637 C638 1.398 . S
C638 H626 0.950 . S
C638 C637 1.398 . S
C638 C639 1.391 . S
C639 H627 0.950 . S
C639 C635 1.393 . S
C639 C638 1.391 . S
H640 C648 0.950 . S
H641 C653 0.950 1_545 S
H642 C650 0.950 . S
H643 C652 0.950 . S
H644 C654 0.950 . S
H645 C656 0.950 . S
H646 C658 0.950 . S
H647 C659 0.950 . S
C648 H640 0.950 . S
C648 C649 1.386 . S
C648 C650 1.391 . S
C649 C648 1.386 . S
C649 C653 1.393 . S
C650 H642 0.950 . S
C650 C648 1.391 . S
C650 C651 1.400 . S
C651 C650 1.400 . S
C651 C652 1.398 . S
C651 C657 1.491 . S
C652 H643 0.950 . S
C652 C651 1.398 . S
C652 C653 1.391 . S
C653 H641 0.950 1_565 S
C653 C649 1.393 . S
C653 C652 1.391 . S
C654 H644 0.950 . S
C654 C655 1.386 . S
C654 C656 1.391 . S
C655 C654 1.386 . S
C655 C659 1.393 . S
C656 H645 0.950 . S
C656 C654 1.391 . S
C656 C657 1.400 . S
C657 C651 1.491 . S
C657 C656 1.400 . S
C657 C658 1.398 . S
C658 H646 0.950 . S
C658 C657 1.398 . S
C658 C659 1.391 . S
C659 H647 0.950 . S
C659 C655 1.393 . S
C659 C658 1.391 . S
H660 C668 0.950 . S
H661 C673 0.950 . S
H662 C670 0.950 . S
H663 C672 0.950 . S
H664 C674 0.950 . S
H665 C676 0.950 . S
H666 C678 0.950 . S
H667 C679 0.950 . S
C668 H660 0.950 . S
C668 C669 1.386 . S
C668 C670 1.391 . S
C669 C668 1.386 . S
C669 C673 1.393 . S
C670 H662 0.950 . S
C670 C668 1.391 . S
C670 C671 1.400 . S
C671 C670 1.400 . S
C671 C672 1.398 . S
C671 C677 1.491 . S
C672 H663 0.950 . S
C672 C671 1.398 . S
C672 C673 1.391 . S
C673 H661 0.950 . S
C673 C669 1.393 . S
C673 C672 1.391 . S
C674 H664 0.950 . S
C674 C675 1.386 . S
C674 C676 1.391 . S
C675 C674 1.386 . S
C675 C679 1.393 . S
C676 H665 0.950 . S
C676 C674 1.391 . S
C676 C677 1.400 . S
C677 C671 1.491 . S
C677 C676 1.400 . S
C677 C678 1.398 . S
C678 H666 0.950 . S
C678 C677 1.398 . S
C678 C679 1.391 . S
C679 H667 0.950 . S
C679 C675 1.393 . S
C679 C678 1.391 . S
H680 C688 0.950 . S
H681 C693 0.950 . S
H682 C690 0.950 . S
H683 C692 0.950 . S
H684 C694 0.950 . S
H685 C696 0.950 . S
H686 C698 0.950 . S
H687 C699 0.950 . S
C688 H680 0.950 . S
C688 C689 1.386 . S
C688 C690 1.391 . S
C689 C688 1.386 . S
C689 C693 1.393 . S
C690 H682 0.950 . S
C690 C688 1.391 . S
C690 C691 1.400 . S
C691 C690 1.400 . S
C691 C692 1.398 . S
C691 C697 1.491 . S
C692 H683 0.950 . S
C692 C691 1.398 . S
C692 C693 1.391 . S
C693 H681 0.950 . S
C693 C689 1.393 . S
C693 C692 1.391 . S
C694 H684 0.950 . S
C694 C695 1.386 . S
C694 C696 1.391 . S
C695 C694 1.386 . S
C695 C699 1.393 . S
C696 H685 0.950 . S
C696 C694 1.391 . S
C696 C697 1.400 . S
C697 C691 1.491 . S
C697 C696 1.400 . S
C697 C698 1.398 . S
C698 H686 0.950 . S
C698 C697 1.398 . S
C698 C699 1.391 . S
C699 H687 0.950 . S
C699 C695 1.393 . S
C699 C698 1.391 . S
H700 C708 0.950 . S
H701 C713 0.950 . S
H702 C710 0.950 . S
H703 C712 0.950 . S
H704 C714 0.950 . S
H705 C716 0.950 . S
H706 C718 0.950 . S
H707 C719 0.950 . S
C708 H700 0.950 . S
C708 C709 1.386 . S
C708 C710 1.391 . S
C709 C708 1.386 . S
C709 C713 1.393 . S
C710 H702 0.950 . S
C710 C708 1.391 . S
C710 C711 1.400 . S
C711 C710 1.400 . S
C711 C712 1.398 . S
C711 C717 1.491 . S
C712 H703 0.950 . S
C712 C711 1.398 . S
C712 C713 1.391 . S
C713 H701 0.950 . S
C713 C709 1.393 . S
C713 C712 1.391 . S
C714 H704 0.950 . S
C714 C715 1.386 . S
C714 C716 1.391 . S
C715 C714 1.386 . S
C715 C719 1.393 . S
C716 H705 0.950 . S
C716 C714 1.391 . S
C716 C717 1.400 . S
C717 C711 1.491 . S
C717 C716 1.400 . S
C717 C718 1.398 . S
C718 H706 0.950 . S
C718 C717 1.398 . S
C718 C719 1.391 . S
C719 H707 0.950 . S
C719 C715 1.393 . S
C719 C718 1.391 . S
H720 C728 0.950 . S
H721 C733 0.950 . S
H722 C730 0.950 . S
H723 C732 0.950 . S
H724 C734 0.950 . S
H725 C736 0.950 . S
H726 C738 0.950 . S
H727 C739 0.950 . S
C728 H720 0.950 . S
C728 C729 1.386 . S
C728 C730 1.391 . S
C729 C728 1.386 . S
C729 C733 1.393 . S
C730 H722 0.950 . S
C730 C728 1.391 . S
C730 C731 1.400 . S
C731 C730 1.400 . S
C731 C732 1.398 . S
C731 C737 1.491 . S
C732 H723 0.950 . S
C732 C731 1.398 . S
C732 C733 1.391 . S
C733 H721 0.950 . S
C733 C729 1.393 . S
C733 C732 1.391 . S
C734 H724 0.950 . S
C734 C735 1.386 . S
C734 C736 1.391 . S
C735 C734 1.386 . S
C735 C739 1.393 . S
C736 H725 0.950 . S
C736 C734 1.391 . S
C736 C737 1.400 . S
C737 C731 1.491 . S
C737 C736 1.400 . S
C737 C738 1.398 . S
C738 H726 0.950 . S
C738 C737 1.398 . S
C738 C739 1.391 . S
C739 H727 0.950 . S
C739 C735 1.393 . S
C739 C738 1.391 . S
H740 C748 0.950 . S
H741 C753 0.950 . S
H742 C750 0.950 . S
H743 C752 0.950 . S
H744 C754 0.950 . S
H745 C756 0.950 . S
H746 C758 0.950 . S
H747 C759 0.950 . S
C748 H740 0.950 . S
C748 C749 1.386 . S
C748 C750 1.391 . S
C749 C748 1.386 . S
C749 C753 1.393 . S
C750 H742 0.950 . S
C750 C748 1.391 . S
C750 C751 1.400 . S
C751 C750 1.400 . S
C751 C752 1.398 . S
C751 C757 1.491 . S
C752 H743 0.950 . S
C752 C751 1.398 . S
C752 C753 1.391 . S
C753 H741 0.950 . S
C753 C749 1.393 . S
C753 C752 1.391 . S
C754 H744 0.950 . S
C754 C755 1.386 . S
C754 C756 1.391 . S
C755 C754 1.386 . S
C755 C759 1.393 . S
C756 H745 0.950 . S
C756 C754 1.391 . S
C756 C757 1.400 . S
C757 C751 1.491 . S
C757 C756 1.400 . S
C757 C758 1.398 . S
C758 H746 0.950 . S
C758 C757 1.398 . S
C758 C759 1.391 . S
C759 H747 0.950 . S
C759 C755 1.393 . S
C759 C758 1.391 . S
H760 C768 0.950 . S
H761 C773 0.950 . S
H762 C770 0.950 . S
H763 C772 0.950 . S
H764 C774 0.950 . S
H765 C776 0.950 . S
H766 C778 0.950 . S
H767 C779 0.950 . S
C768 H760 0.950 . S
C768 C769 1.386 . S
C768 C770 1.391 . S
C769 C768 1.386 . S
C769 C773 1.393 . S
C770 H762 0.950 . S
C770 C768 1.391 . S
C770 C771 1.400 . S
C771 C770 1.400 . S
C771 C772 1.398 . S
C771 C777 1.491 . S
C772 H763 0.950 . S
C772 C771 1.398 . S
C772 C773 1.391 . S
C773 H761 0.950 . S
C773 C769 1.393 . S
C773 C772 1.391 . S
C774 H764 0.950 . S
C774 C775 1.386 . S
C774 C776 1.391 . S
C775 C774 1.386 . S
C775 C779 1.393 . S
C776 H765 0.950 . S
C776 C774 1.391 . S
C776 C777 1.400 . S
C777 C771 1.491 . S
C777 C776 1.400 . S
C777 C778 1.398 . S
C778 H766 0.950 . S
C778 C777 1.398 . S
C778 C779 1.391 . S
C779 H767 0.950 . S
C779 C775 1.393 . S
C779 C778 1.391 . S
H780 C788 0.950 . S
H781 C793 0.950 . S
H782 C790 0.950 . S
H783 C792 0.950 . S
H784 C794 0.950 . S
H785 C796 0.950 . S
H786 C798 0.950 . S
H787 C799 0.950 . S
C788 H780 0.950 . S
C788 C789 1.386 . S
C788 C790 1.391 . S
C789 C788 1.386 . S
C789 C793 1.393 . S
C790 H782 0.950 . S
C790 C788 1.391 . S
C790 C791 1.400 . S
C791 C790 1.400 . S
C791 C792 1.398 . S
C791 C797 1.491 . S
C792 H783 0.950 . S
C792 C791 1.398 . S
C792 C793 1.391 . S
C793 H781 0.950 . S
C793 C789 1.393 . S
C793 C792 1.391 . S
C794 H784 0.950 . S
C794 C795 1.386 . S
C794 C796 1.391 . S
C795 C794 1.386 . S
C795 C799 1.393 . S
C796 H785 0.950 . S
C796 C794 1.391 . S
C796 C797 1.400 . S
C797 C791 1.491 . S
C797 C796 1.400 . S
C797 C798 1.398 . S
C798 H786 0.950 . S
C798 C797 1.398 . S
C798 C799 1.391 . S
C799 H787 0.950 . S
C799 C795 1.393 . S
C799 C798 1.391 . S
H800 C808 0.950 . S
H801 C813 0.950 . S
H802 C810 0.950 . S
H803 C812 0.950 . S
H804 C814 0.950 . S
H805 C816 0.950 . S
H806 C818 0.950 . S
H807 C819 0.950 . S
C808 H800 0.950 . S
C808 C809 1.386 . S
C808 C810 1.391 . S
C809 C808 1.386 . S
C809 C813 1.393 . S
C810 H802 0.950 . S
C810 C808 1.391 . S
C810 C811 1.400 . S
C811 C810 1.400 . S
C811 C812 1.398 . S
C811 C817 1.491 . S
C812 H803 0.950 . S
C812 C811 1.398 . S
C812 C813 1.391 . S
C813 H801 0.950 . S
C813 C809 1.393 . S
C813 C812 1.391 . S
C814 H804 0.950 . S
C814 C815 1.386 . S
C814 C816 1.391 . S
C815 C814 1.386 . S
C815 C819 1.393 . S
C816 H805 0.950 . S
C816 C814 1.391 . S
C816 C817 1.400 . S
C817 C811 1.491 . S
C817 C816 1.400 . S
C817 C818 1.398 . S
C818 H806 0.950 . S
C818 C817 1.398 . S
C818 C819 1.391 . S
C819 H807 0.950 . S
C819 C815 1.393 . S
C819 C818 1.391 . S
H820 C828 0.950 . S
H821 C833 0.950 . S
H822 C830 0.950 . S
H823 C832 0.950 . S
H824 C834 0.950 . S
H825 C836 0.950 . S
H826 C838 0.950 . S
H827 C839 0.950 . S
C828 H820 0.950 . S
C828 C829 1.386 . S
C828 C830 1.391 . S
C829 C828 1.386 . S
C829 C833 1.393 . S
C830 H822 0.950 . S
C830 C828 1.391 . S
C830 C831 1.400 . S
C831 C830 1.400 . S
C831 C832 1.398 . S
C831 C837 1.491 . S
C832 H823 0.950 . S
C832 C831 1.398 . S
C832 C833 1.391 . S
C833 H821 0.950 . S
C833 C829 1.393 . S
C833 C832 1.391 . S
C834 H824 0.950 . S
C834 C835 1.386 . S
C834 C836 1.391 . S
C835 C834 1.386 . S
C835 C839 1.393 . S
C836 H825 0.950 . S
C836 C834 1.391 . S
C836 C837 1.400 . S
C837 C831 1.491 . S
C837 C836 1.400 . S
C837 C838 1.398 . S
C838 H826 0.950 . S
C838 C837 1.398 . S
C838 C839 1.391 . S
C839 H827 0.950 . S
C839 C835 1.393 . S
C839 C838 1.391 . S
H840 C848 0.950 . S
H841 C853 0.950 . S
H842 C850 0.950 . S
H843 C852 0.950 . S
H844 C854 0.950 . S
H845 C856 0.950 . S
H846 C858 0.950 . S
H847 C859 0.950 . S
C848 H840 0.950 . S
C848 C849 1.386 . S
C848 C850 1.391 . S
C849 C848 1.386 . S
C849 C853 1.393 . S
C850 H842 0.950 . S
C850 C848 1.391 . S
C850 C851 1.400 . S
C851 C850 1.400 . S
C851 C852 1.398 . S
C851 C857 1.491 . S
C852 H843 0.950 . S
C852 C851 1.398 . S
C852 C853 1.391 . S
C853 H841 0.950 . S
C853 C849 1.393 . S
C853 C852 1.391 . S
C854 H844 0.950 . S
C854 C855 1.386 . S
C854 C856 1.391 . S
C855 C854 1.386 . S
C855 C859 1.393 . S
C856 H845 0.950 . S
C856 C854 1.391 . S
C856 C857 1.400 . S
C857 C851 1.491 . S
C857 C856 1.400 . S
C857 C858 1.398 . S
C858 H846 0.950 . S
C858 C857 1.398 . S
C858 C859 1.391 . S
C859 H847 0.950 . S
C859 C855 1.393 . S
C859 C858 1.391 . S
H860 C868 0.950 . S
H861 C873 0.950 . S
H862 C870 0.950 . S
H863 C872 0.950 . S
H864 C874 0.950 . S
H865 C876 0.950 . S
H866 C878 0.950 . S
H867 C879 0.950 . S
C868 H860 0.950 . S
C868 C869 1.386 . S
C868 C870 1.391 . S
C869 C868 1.386 . S
C869 C873 1.393 . S
C870 H862 0.950 . S
C870 C868 1.391 . S
C870 C871 1.400 . S
C871 C870 1.400 . S
C871 C872 1.398 . S
C871 C877 1.491 . S
C872 H863 0.950 . S
C872 C871 1.398 . S
C872 C873 1.391 . S
C873 H861 0.950 . S
C873 C869 1.393 . S
C873 C872 1.391 . S
C874 H864 0.950 . S
C874 C875 1.386 . S
C874 C876 1.391 . S
C875 C874 1.386 . S
C875 C879 1.393 . S
C876 H865 0.950 . S
C876 C874 1.391 . S
C876 C877 1.400 . S
C877 C871 1.491 . S
C877 C876 1.400 . S
C877 C878 1.398 . S
C878 H866 0.950 . S
C878 C877 1.398 . S
C878 C879 1.391 . S
C879 H867 0.950 . S
C879 C875 1.393 . S
C879 C878 1.391 . S
H880 C888 0.950 . S
H881 C893 0.950 . S
H882 C890 0.950 . S
H883 C892 0.950 . S
H884 C894 0.950 . S
H885 C896 0.950 . S
H886 C898 0.950 . S
H887 C899 0.950 . S
C888 H880 0.950 . S
C888 C889 1.386 . S
C888 C890 1.391 . S
C889 C888 1.386 . S
C889 C893 1.393 . S
C890 H882 0.950 . S
C890 C888 1.391 . S
C890 C891 1.400 . S
C891 C890 1.400 . S
C891 C892 1.398 . S
C891 C897 1.491 . S
C892 H883 0.950 . S
C892 C891 1.398 . S
C892 C893 1.391 . S
C893 H881 0.950 . S
C893 C889 1.393 . S
C893 C892 1.391 . S
C894 H884 0.950 . S
C894 C895 1.386 . S
C894 C896 1.391 . S
C895 C894 1.386 . S
C895 C899 1.393 . S
C896 H885 0.950 . S
C896 C894 1.391 . S
C896 C897 1.400 . S
C897 C891 1.491 . S
C897 C896 1.400 . S
C897 C898 1.398 . S
C898 H886 0.950 . S
C898 C897 1.398 . S
C898 C899 1.391 . S
C899 H887 0.950 . S
C899 C895 1.393 . S
C899 C898 1.391 . S
H900 C908 0.950 . S
H901 C913 0.950 . S
H902 C910 0.950 . S
H903 C912 0.950 . S
H904 C914 0.950 . S
H905 C916 0.950 . S
H906 C918 0.950 . S
H907 C919 0.950 . S
C908 H900 0.950 . S
C908 C909 1.386 . S
C908 C910 1.391 . S
C909 C908 1.386 . S
C909 C913 1.393 . S
C910 H902 0.950 . S
C910 C908 1.391 . S
C910 C911 1.400 . S
C911 C910 1.400 . S
C911 C912 1.398 . S
C911 C917 1.491 . S
C912 H903 0.950 . S
C912 C911 1.398 . S
C912 C913 1.391 . S
C913 H901 0.950 . S
C913 C909 1.393 . S
C913 C912 1.391 . S
C914 H904 0.950 . S
C914 C915 1.386 . S
C914 C916 1.391 . S
C915 C914 1.386 . S
C915 C919 1.393 . S
C916 H905 0.950 . S
C916 C914 1.391 . S
C916 C917 1.400 . S
C917 C911 1.491 . S
C917 C916 1.400 . S
C917 C918 1.398 . S
C918 H906 0.950 . S
C918 C917 1.398 . S
C918 C919 1.391 . S
C919 H907 0.950 . S
C919 C915 1.393 . S
C919 C918 1.391 . S
H920 C928 0.950 . S
H921 C933 0.950 . S
H922 C930 0.950 . S
H923 C932 0.950 . S
H924 C934 0.950 . S
H925 C936 0.950 . S
H926 C938 0.950 . S
H927 C939 0.950 . S
C928 H920 0.950 . S
C928 C929 1.386 . S
C928 C930 1.391 . S
C929 C928 1.386 . S
C929 C933 1.393 . S
C930 H922 0.950 . S
C930 C928 1.391 . S
C930 C931 1.400 . S
C931 C930 1.400 . S
C931 C932 1.398 . S
C931 C937 1.491 . S
C932 H923 0.950 . S
C932 C931 1.398 . S
C932 C933 1.391 . S
C933 H921 0.950 . S
C933 C929 1.393 . S
C933 C932 1.391 . S
C934 H924 0.950 . S
C934 C935 1.386 . S
C934 C936 1.391 . S
C935 C934 1.386 . S
C935 C939 1.393 . S
C936 H925 0.950 . S
C936 C934 1.391 . S
C936 C937 1.400 . S
C937 C931 1.491 . S
C937 C936 1.400 . S
C937 C938 1.398 . S
C938 H926 0.950 . S
C938 C937 1.398 . S
C938 C939 1.391 . S
C939 H927 0.950 . S
C939 C935 1.393 . S
C939 C938 1.391 . S
H940 C948 0.950 . S
H941 C953 0.950 . S
H942 C950 0.950 . S
H943 C952 0.950 . S
H944 C954 0.950 . S
H945 C956 0.950 . S
H946 C958 0.950 . S
H947 C959 0.950 . S
C948 H940 0.950 . S
C948 C949 1.386 . S
C948 C950 1.391 . S
C949 C948 1.386 . S
C949 C953 1.393 . S
C950 H942 0.950 . S
C950 C948 1.391 . S
C950 C951 1.400 . S
C951 C950 1.400 . S
C951 C952 1.398 . S
C951 C957 1.491 . S
C952 H943 0.950 . S
C952 C951 1.398 . S
C952 C953 1.391 . S
C953 H941 0.950 . S
C953 C949 1.393 . S
C953 C952 1.391 . S
C954 H944 0.950 . S
C954 C955 1.386 . S
C954 C956 1.391 . S
C955 C954 1.386 . S
C955 C959 1.393 . S
C956 H945 0.950 . S
C956 C954 1.391 . S
C956 C957 1.400 . S
C957 C951 1.491 . S
C957 C956 1.400 . S
C957 C958 1.398 . S
C958 H946 0.950 . S
C958 C957 1.398 . S
C958 C959 1.391 . S
C959 H947 0.950 . S
C959 C955 1.393 . S
C959 C958 1.391 . S
H960 C968 0.950 . S
H961 C973 0.950 . S
H962 C970 0.950 . S
H963 C972 0.950 . S
H964 C974 0.950 . S
H965 C976 0.950 . S
H966 C978 0.950 . S
H967 C979 0.950 . S
C968 H960 0.950 . S
C968 C969 1.386 . S
C968 C970 1.391 . S
C969 C968 1.386 . S
C969 C973 1.393 . S
C970 H962 0.950 . S
C970 C968 1.391 . S
C970 C971 1.400 . S
C971 C970 1.400 . S
C971 C972 1.398 . S
C971 C977 1.491 . S
C972 H963 0.950 . S
C972 C971 1.398 . S
C972 C973 1.391 . S
C973 H961 0.950 . S
C973 C969 1.393 . S
C973 C972 1.391 . S
C974 H964 0.950 . S
C974 C975 1.386 . S
C974 C976 1.391 . S
C975 C974 1.386 . S
C975 C979 1.393 . S
C976 H965 0.950 . S
C976 C974 1.391 . S
C976 C977 1.400 . S
C977 C971 1.491 . S
C977 C976 1.400 . S
C977 C978 1.398 . S
C978 H966 0.950 . S
C978 C977 1.398 . S
C978 C979 1.391 . S
C979 H967 0.950 . S
C979 C975 1.393 . S
C979 C978 1.391 . S
H980 C988 0.950 . S
H981 C993 0.950 . S
H982 C990 0.950 . S
H983 C992 0.950 . S
H984 C994 0.950 . S
H985 C996 0.950 . S
H986 C998 0.950 . S
H987 C999 0.950 . S
C988 H980 0.950 . S
C988 C989 1.386 . S
C988 C990 1.391 . S
C989 C988 1.386 . S
C989 C993 1.393 . S
C990 H982 0.950 . S
C990 C988 1.391 . S
C990 C991 1.400 . S
C991 C990 1.400 . S
C991 C992 1.398 . S
C991 C997 1.491 . S
C992 H983 0.950 . S
C992 C991 1.398 . S
C992 C993 1.391 . S
C993 H981 0.950 . S
C993 C989 1.393 . S
C993 C992 1.391 . S
C994 H984 0.950 . S
C994 C995 1.386 . S
C994 C996 1.391 . S
C995 C994 1.386 . S
C995 C999 1.393 . S
C996 H985 0.950 . S
C996 C994 1.391 . S
C996 C997 1.400 . S
C997 C991 1.491 . S
C997 C996 1.400 . S
C997 C998 1.398 . S
C998 H986 0.950 . S
C998 C997 1.398 . S
C998 C999 1.391 . S
C999 H987 0.950 . S
C999 C995 1.393 . S
C999 C998 1.391 . S
H1000 C1008 0.950 . S
H1001 C1013 0.950 . S
H1002 C1010 0.950 . S
H1003 C1012 0.950 . S
H1004 C1014 0.950 . S
H1005 C1016 0.950 . S
H1006 C1018 0.950 . S
H1007 C1019 0.950 . S
C1008 H1000 0.950 . S
C1008 C1009 1.386 . S
C1008 C1010 1.391 . S
C1009 C1008 1.386 . S
C1009 C1013 1.393 . S
C1010 H1002 0.950 . S
C1010 C1008 1.391 . S
C1010 C1011 1.400 . S
C1011 C1010 1.400 . S
C1011 C1012 1.398 . S
C1011 C1017 1.491 . S
C1012 H1003 0.950 . S
C1012 C1011 1.398 . S
C1012 C1013 1.391 . S
C1013 H1001 0.950 . S
C1013 C1009 1.393 . S
C1013 C1012 1.391 . S
C1014 H1004 0.950 . S
C1014 C1015 1.386 . S
C1014 C1016 1.391 . S
C1015 C1014 1.386 . S
C1015 C1019 1.393 . S
C1016 H1005 0.950 . S
C1016 C1014 1.391 . S
C1016 C1017 1.400 . S
C1017 C1011 1.491 . S
C1017 C1016 1.400 . S
C1017 C1018 1.398 . S
C1018 H1006 0.950 . S
C1018 C1017 1.398 . S
C1018 C1019 1.391 . S
C1019 H1007 0.950 . S
C1019 C1015 1.393 . S
C1019 C1018 1.391 . S
H1020 C1028 0.950 . S
H1021 C1033 0.950 . S
H1022 C1030 0.950 . S
H1023 C1032 0.950 . S
H1024 C1034 0.950 . S
H1025 C1036 0.950 . S
H1026 C1038 0.950 . S
H1027 C1039 0.950 . S
C1028 H1020 0.950 . S
C1028 C1029 1.386 . S
C1028 C1030 1.391 . S
C1029 C1028 1.386 . S
C1029 C1033 1.393 . S
C1030 H1022 0.950 . S
C1030 C1028 1.391 . S
C1030 C1031 1.400 . S
C1031 C1030 1.400 . S
C1031 C1032 1.398 . S
C1031 C1037 1.491 . S
C1032 H1023 0.950 . S
C1032 C1031 1.398 . S
C1032 C1033 1.391 . S
C1033 H1021 0.950 . S
C1033 C1029 1.393 . S
C1033 C1032 1.391 . S
C1034 H1024 0.950 . S
C1034 C1035 1.386 . S
C1034 C1036 1.391 . S
C1035 C1034 1.386 . S
C1035 C1039 1.393 . S
C1036 H1025 0.950 . S
C1036 C1034 1.391 . S
C1036 C1037 1.400 . S
C1037 C1031 1.491 . S
C1037 C1036 1.400 . S
C1037 C1038 1.398 . S
C1038 H1026 0.950 . S
C1038 C1037 1.398 . S
C1038 C1039 1.391 . S
C1039 H1027 0.950 . S
C1039 C1035 1.393 . S
C1039 C1038 1.391 . S
H1040 C1048 0.950 . S
H1041 C1053 0.950 . S
H1042 C1050 0.950 . S
H1043 C1052 0.950 . S
H1044 C1054 0.950 . S
H1045 C1056 0.950 1_556 S
H1046 C1058 0.950 . S
H1047 C1059 0.950 . S
C1048 H1040 0.950 . S
C1048 C1049 1.386 . S
C1048 C1050 1.391 1_556 S
C1049 C1048 1.386 . S
C1049 C1053 1.393 . S
C1050 H1042 0.950 . S
C1050 C1048 1.391 1_554 S
C1050 C1051 1.400 1_554 S
C1051 C1050 1.400 1_556 S
C1051 C1052 1.398 . S
C1051 C1057 1.491 1_556 S
C1052 H1043 0.950 . S
C1052 C1051 1.398 . S
C1052 C1053 1.391 . S
C1053 H1041 0.950 . S
C1053 C1049 1.393 . S
C1053 C1052 1.391 . S
C1054 H1044 0.950 . S
C1054 C1055 1.386 . S
C1054 C1056 1.391 . S
C1055 C1054 1.386 . S
C1055 C1059 1.393 . S
C1056 H1045 0.950 1_554 S
C1056 C1054 1.391 . S
C1056 C1057 1.400 . S
C1057 C1051 1.491 1_554 S
C1057 C1056 1.400 . S
C1057 C1058 1.398 . S
C1058 H1046 0.950 . S
C1058 C1057 1.398 . S
C1058 C1059 1.391 . S
C1059 H1047 0.950 . S
C1059 C1055 1.393 . S
C1059 C1058 1.391 . S
H1060 C1068 0.950 . S
H1061 C1073 0.950 . S
H1062 C1070 0.950 . S
H1063 C1072 0.950 1_556 S
H1064 C1074 0.950 . S
H1065 C1076 0.950 . S
H1066 C1078 0.950 . S
H1067 C1079 0.950 . S
C1068 H1060 0.950 . S
C1068 C1069 1.386 . S
C1068 C1070 1.391 . S
C1069 C1068 1.386 . S
C1069 C1073 1.393 . S
C1070 H1062 0.950 . S
C1070 C1068 1.391 . S
C1070 C1071 1.400 . S
C1071 C1070 1.400 . S
C1071 C1072 1.398 . S
C1071 C1077 1.491 1_554 S
C1072 H1063 0.950 1_554 S
C1072 C1071 1.398 . S
C1072 C1073 1.391 . S
C1073 H1061 0.950 . S
C1073 C1069 1.393 . S
C1073 C1072 1.391 . S
C1074 H1064 0.950 . S
C1074 C1075 1.386 . S
C1074 C1076 1.391 . S
C1075 C1074 1.386 . S
C1075 C1079 1.393 . S
C1076 H1065 0.950 . S
C1076 C1074 1.391 . S
C1076 C1077 1.400 . S
C1077 C1071 1.491 1_556 S
C1077 C1076 1.400 . S
C1077 C1078 1.398 1_556 S
C1078 H1066 0.950 . S
C1078 C1077 1.398 1_554 S
C1078 C1079 1.391 1_554 S
C1079 H1067 0.950 . S
C1079 C1075 1.393 . S
C1079 C1078 1.391 1_556 S
H1080 C1088 0.950 . S
H1081 C1093 0.950 . S
H1082 C1090 0.950 . S
H1083 C1092 0.950 . S
H1084 C1094 0.950 . S
H1085 C1096 0.950 . S
H1086 C1098 0.950 . S
H1087 C1099 0.950 . S
C1088 H1080 0.950 . S
C1088 C1089 1.386 . S
C1088 C1090 1.391 . S
C1089 C1088 1.386 . S
C1089 C1093 1.393 . S
C1090 H1082 0.950 . S
C1090 C1088 1.391 . S
C1090 C1091 1.400 . S
C1091 C1090 1.400 . S
C1091 C1092 1.398 . S
C1091 C1097 1.491 1_556 S
C1092 H1083 0.950 . S
C1092 C1091 1.398 . S
C1092 C1093 1.391 . S
C1093 H1081 0.950 . S
C1093 C1089 1.393 . S
C1093 C1092 1.391 . S
C1094 H1084 0.950 . S
C1094 C1095 1.386 . S
C1094 C1096 1.391 . S
C1095 C1094 1.386 . S
C1095 C1099 1.393 . S
C1096 H1085 0.950 . S
C1096 C1094 1.391 . S
C1096 C1097 1.400 . S
C1097 C1091 1.491 1_554 S
C1097 C1096 1.400 . S
C1097 C1098 1.398 . S
C1098 H1086 0.950 . S
C1098 C1097 1.398 . S
C1098 C1099 1.391 . S
C1099 H1087 0.950 . S
C1099 C1095 1.393 . S
C1099 C1098 1.391 . S
H1100 C1108 0.950 . S
H1101 C1113 0.950 . S
H1102 C1110 0.950 . S
H1103 C1112 0.950 . S
H1104 C1114 0.950 . S
H1105 C1116 0.950 1_554 S
H1106 C1118 0.950 . S
H1107 C1119 0.950 . S
C1108 H1100 0.950 . S
C1108 C1109 1.386 . S
C1108 C1110 1.391 . S
C1109 C1108 1.386 . S
C1109 C1113 1.393 . S
C1110 H1102 0.950 . S
C1110 C1108 1.391 . S
C1110 C1111 1.400 . S
C1111 C1110 1.400 . S
C1111 C1112 1.398 . S
C1111 C1117 1.491 1_554 S
C1112 H1103 0.950 . S
C1112 C1111 1.398 . S
C1112 C1113 1.391 . S
C1113 H1101 0.950 . S
C1113 C1109 1.393 . S
C1113 C1112 1.391 . S
C1114 H1104 0.950 . S
C1114 C1115 1.386 . S
C1114 C1116 1.391 . S
C1115 C1114 1.386 . S
C1115 C1119 1.393 . S
C1116 H1105 0.950 1_556 S
C1116 C1114 1.391 . S
C1116 C1117 1.400 . S
C1117 C1111 1.491 1_556 S
C1117 C1116 1.400 . S
C1117 C1118 1.398 . S
C1118 H1106 0.950 . S
C1118 C1117 1.398 . S
C1118 C1119 1.391 . S
C1119 H1107 0.950 . S
C1119 C1115 1.393 . S
C1119 C1118 1.391 . S
H1120 C1128 0.950 . S
H1121 C1133 0.950 . S
H1122 C1130 0.950 . S
H1123 C1132 0.950 . S
H1124 C1134 0.950 . S
H1125 C1136 0.950 . S
H1126 C1138 0.950 . S
H1127 C1139 0.950 . S
C1128 H1120 0.950 . S
C1128 C1129 1.386 . S
C1128 C1130 1.391 . S
C1129 C1128 1.386 . S
C1129 C1133 1.393 . S
C1130 H1122 0.950 . S
C1130 C1128 1.391 . S
C1130 C1131 1.400 . S
C1131 C1130 1.400 . S
C1131 C1132 1.398 . S
C1131 C1137 1.491 . S
C1132 H1123 0.950 . S
C1132 C1131 1.398 . S
C1132 C1133 1.391 . S
C1133 H1121 0.950 . S
C1133 C1129 1.393 . S
C1133 C1132 1.391 . S
C1134 H1124 0.950 . S
C1134 C1135 1.386 . S
C1134 C1136 1.391 . S
C1135 C1134 1.386 . S
C1135 C1139 1.393 . S
C1136 H1125 0.950 . S
C1136 C1134 1.391 . S
C1136 C1137 1.400 . S
C1137 C1131 1.491 . S
C1137 C1136 1.400 . S
C1137 C1138 1.398 . S
C1138 H1126 0.950 . S
C1138 C1137 1.398 . S
C1138 C1139 1.391 . S
C1139 H1127 0.950 . S
C1139 C1135 1.393 . S
C1139 C1138 1.391 . S
H1140 C1148 0.950 . S
H1141 C1153 0.950 . S
H1142 C1150 0.950 . S
H1143 C1152 0.950 . S
H1144 C1154 0.950 . S
H1145 C1156 0.950 . S
H1146 C1158 0.950 . S
H1147 C1159 0.950 . S
C1148 H1140 0.950 . S
C1148 C1149 1.386 . S
C1148 C1150 1.391 . S
C1149 C1148 1.386 . S
C1149 C1153 1.393 . S
C1150 H1142 0.950 . S
C1150 C1148 1.391 . S
C1150 C1151 1.400 . S
C1151 C1150 1.400 . S
C1151 C1152 1.398 . S
C1151 C1157 1.491 . S
C1152 H1143 0.950 . S
C1152 C1151 1.398 . S
C1152 C1153 1.391 . S
C1153 H1141 0.950 . S
C1153 C1149 1.393 . S
C1153 C1152 1.391 . S
C1154 H1144 0.950 . S
C1154 C1155 1.386 . S
C1154 C1156 1.391 . S
C1155 C1154 1.386 . S
C1155 C1159 1.393 . S
C1156 H1145 0.950 . S
C1156 C1154 1.391 . S
C1156 C1157 1.400 . S
C1157 C1151 1.491 . S
C1157 C1156 1.400 . S
C1157 C1158 1.398 . S
C1158 H1146 0.950 . S
C1158 C1157 1.398 . S
C1158 C1159 1.391 . S
C1159 H1147 0.950 . S
C1159 C1155 1.393 . S
C1159 C1158 1.391 . S
H1160 C1168 0.950 . S
H1161 C1173 0.950 . S
H1162 C1170 0.950 . S
H1163 C1172 0.950 . S
H1164 C1174 0.950 . S
H1165 C1176 0.950 . S
H1166 C1178 0.950 . S
H1167 C1179 0.950 . S
C1168 H1160 0.950 . S
C1168 C1169 1.386 . S
C1168 C1170 1.391 . S
C1169 C1168 1.386 . S
C1169 C1173 1.393 . S
C1170 H1162 0.950 . S
C1170 C1168 1.391 . S
C1170 C1171 1.400 . S
C1171 C1170 1.400 . S
C1171 C1172 1.398 . S
C1171 C1177 1.491 . S
C1172 H1163 0.950 . S
C1172 C1171 1.398 . S
C1172 C1173 1.391 . S
C1173 H1161 0.950 . S
C1173 C1169 1.393 . S
C1173 C1172 1.391 . S
C1174 H1164 0.950 . S
C1174 C1175 1.386 . S
C1174 C1176 1.391 . S
C1175 C1174 1.386 . S
C1175 C1179 1.393 . S
C1176 H1165 0.950 . S
C1176 C1174 1.391 . S
C1176 C1177 1.400 . S
C1177 C1171 1.491 . S
C1177 C1176 1.400 . S
C1177 C1178 1.398 . S
C1178 H1166 0.950 . S
C1178 C1177 1.398 . S
C1178 C1179 1.391 . S
C1179 H1167 0.950 . S
C1179 C1175 1.393 . S
C1179 C1178 1.391 . S
H1180 C1188 0.950 . S
H1181 C1193 0.950 . S
H1182 C1190 0.950 . S
H1183 C1192 0.950 . S
H1184 C1194 0.950 . S
H1185 C1196 0.950 . S
H1186 C1198 0.950 . S
H1187 C1199 0.950 . S
C1188 H1180 0.950 . S
C1188 C1189 1.386 . S
C1188 C1190 1.391 . S
C1189 C1188 1.386 . S
C1189 C1193 1.393 . S
C1190 H1182 0.950 . S
C1190 C1188 1.391 . S
C1190 C1191 1.400 . S
C1191 C1190 1.400 . S
C1191 C1192 1.398 . S
C1191 C1197 1.491 . S
C1192 H1183 0.950 . S
C1192 C1191 1.398 . S
C1192 C1193 1.391 . S
C1193 H1181 0.950 . S
C1193 C1189 1.393 . S
C1193 C1192 1.391 . S
C1194 H1184 0.950 . S
C1194 C1195 1.386 . S
C1194 C1196 1.391 . S
C1195 C1194 1.386 . S
C1195 C1199 1.393 . S
C1196 H1185 0.950 . S
C1196 C1194 1.391 . S
C1196 C1197 1.400 . S
C1197 C1191 1.491 . S
C1197 C1196 1.400 . S
C1197 C1198 1.398 . S
C1198 H1186 0.950 . S
C1198 C1197 1.398 . S
C1198 C1199 1.391 . S
C1199 H1187 0.950 . S
C1199 C1195 1.393 . S
C1199 C1198 1.391 . S
H1200 C1208 0.950 . S
H1201 C1213 0.950 . S
H1202 C1210 0.950 1_554 S
H1203 C1212 0.950 . S
H1204 C1214 0.950 . S
H1205 C1216 0.950 . S
H1206 C1218 0.950 . S
H1207 C1219 0.950 . S
C1208 H1200 0.950 . S
C1208 C1209 1.386 . S
C1208 C1210 1.391 . S
C1209 C1208 1.386 . S
C1209 C1213 1.393 . S
C1210 H1202 0.950 1_556 S
C1210 C1208 1.391 . S
C1210 C1211 1.400 . S
C1211 C1210 1.400 . S
C1211 C1212 1.398 . S
C1211 C1217 1.491 1_556 S
C1212 H1203 0.950 . S
C1212 C1211 1.398 . S
C1212 C1213 1.391 . S
C1213 H1201 0.950 . S
C1213 C1209 1.393 . S
C1213 C1212 1.391 . S
C1214 H1204 0.950 . S
C1214 C1215 1.386 . S
C1214 C1216 1.391 1_554 S
C1215 C1214 1.386 . S
C1215 C1219 1.393 . S
C1216 H1205 0.950 . S
C1216 C1214 1.391 1_556 S
C1216 C1217 1.400 1_556 S
C1217 C1211 1.491 1_554 S
C1217 C1216 1.400 1_554 S
C1217 C1218 1.398 . S
C1218 H1206 0.950 . S
C1218 C1217 1.398 . S
C1218 C1219 1.391 . S
C1219 H1207 0.950 . S
C1219 C1215 1.393 . S
C1219 C1218 1.391 . S
H1220 C1228 0.950 . S
H1221 C1233 0.950 . S
H1222 C1230 0.950 1_554 S
H1223 C1232 0.950 . S
H1224 C1234 0.950 . S
H1225 C1236 0.950 . S
H1226 C1238 0.950 . S
H1227 C1239 0.950 . S
C1228 H1220 0.950 . S
C1228 C1229 1.386 . S
C1228 C1230 1.391 . S
C1229 C1228 1.386 . S
C1229 C1233 1.393 . S
C1230 H1222 0.950 1_556 S
C1230 C1228 1.391 . S
C1230 C1231 1.400 . S
C1231 C1230 1.400 . S
C1231 C1232 1.398 . S
C1231 C1237 1.491 1_556 S
C1232 H1223 0.950 . S
C1232 C1231 1.398 . S
C1232 C1233 1.391 . S
C1233 H1221 0.950 . S
C1233 C1229 1.393 . S
C1233 C1232 1.391 . S
C1234 H1224 0.950 . S
C1234 C1235 1.386 . S
C1234 C1236 1.391 1_554 S
C1235 C1234 1.386 . S
C1235 C1239 1.393 . S
C1236 H1225 0.950 . S
C1236 C1234 1.391 1_556 S
C1236 C1237 1.400 1_556 S
C1237 C1231 1.491 1_554 S
C1237 C1236 1.400 1_554 S
C1237 C1238 1.398 . S
C1238 H1226 0.950 . S
C1238 C1237 1.398 . S
C1238 C1239 1.391 . S
C1239 H1227 0.950 . S
C1239 C1235 1.393 . S
C1239 C1238 1.391 . S
H1240 C1248 0.950 . S
H1241 C1253 0.950 . S
H1242 C1250 0.950 . S
H1243 C1252 0.946 1_556 S
H1244 C1254 0.950 . S
H1245 C1256 0.950 . S
H1246 C1258 0.950 1_554 S
H1247 C1259 0.950 . S
C1248 H1240 0.950 . S
C1248 C1249 1.386 . S
C1248 C1250 1.391 . S
C1249 C1248 1.386 . S
C1249 C1253 1.393 . S
C1250 H1242 0.950 . S
C1250 C1248 1.391 . S
C1250 C1251 1.400 . S
C1251 C1250 1.400 . S
C1251 C1252 1.399 . S
C1251 C1257 1.491 1_554 S
C1252 H1243 0.946 1_554 S
C1252 C1251 1.399 . S
C1252 C1253 1.394 . S
C1253 H1241 0.950 . S
C1253 C1249 1.393 . S
C1253 C1252 1.394 . S
C1254 H1244 0.950 . S
C1254 C1255 1.386 . S
C1254 C1256 1.391 . S
C1255 C1254 1.386 . S
C1255 C1259 1.393 . S
C1256 H1245 0.950 . S
C1256 C1254 1.391 . S
C1256 C1257 1.400 . S
C1257 C1251 1.491 1_556 S
C1257 C1256 1.400 . S
C1257 C1258 1.398 . S
C1258 H1246 0.950 1_556 S
C1258 C1257 1.398 . S
C1258 C1259 1.391 . S
C1259 H1247 0.950 . S
C1259 C1255 1.393 . S
C1259 C1258 1.391 . S
H1260 C1268 0.950 . S
H1261 C1273 0.950 . S
H1262 C1270 0.950 . S
H1263 C1272 0.950 . S
H1264 C1274 0.950 . S
H1265 C1276 0.950 1_554 S
H1266 C1278 0.950 . S
H1267 C1279 0.950 . S
C1268 H1260 0.950 . S
C1268 C1269 1.386 . S
C1268 C1270 1.391 1_554 S
C1269 C1268 1.386 . S
C1269 C1273 1.393 . S
C1270 H1262 0.950 . S
C1270 C1268 1.391 1_556 S
C1270 C1271 1.400 1_556 S
C1271 C1270 1.400 1_554 S
C1271 C1272 1.398 . S
C1271 C1277 1.491 1_554 S
C1272 H1263 0.950 . S
C1272 C1271 1.398 . S
C1272 C1273 1.391 . S
C1273 H1261 0.950 . S
C1273 C1269 1.393 . S
C1273 C1272 1.391 . S
C1274 H1264 0.950 . S
C1274 C1275 1.386 . S
C1274 C1276 1.391 . S
C1275 C1274 1.386 . S
C1275 C1279 1.393 . S
C1276 H1265 0.950 1_556 S
C1276 C1274 1.391 . S
C1276 C1277 1.400 . S
C1277 C1271 1.491 1_556 S
C1277 C1276 1.400 . S
C1277 C1278 1.398 . S
C1278 H1266 0.950 . S
C1278 C1277 1.398 . S
C1278 C1279 1.391 . S
C1279 H1267 0.950 . S
C1279 C1275 1.393 . S
C1279 C1278 1.391 . S
C329 C18 1.934 . S
C335 C118 1.924 . S
C349 C138 1.926 . S
C355 C38 1.940 . S
C369 C58 1.947 . S
C375 C158 1.938 . S
C389 C78 1.926 . S
C395 C98 1.929 . S
C409 C279 1.925 . S
C415 C179 1.930 . S
C429 C299 1.947 . S
C435 C199 1.938 . S
C449 C219 1.925 . S
C455 C319 1.936 . S
C469 C239 1.925 . S
C475 C259 1.934 . S
C489 C9 1.776 . S
C495 C62 1.678 . S
C509 C29 1.773 . S
C515 C2 1.676 . S
C529 C49 1.771 . S
C535 C22 1.675 . S
C549 C69 1.766 . S
C555 C42 1.648 . S
C569 C89 1.779 . S
C575 C102 1.677 . S
C589 C122 1.646 . S
C595 C109 1.756 . S
C609 C129 1.756 . S
C615 C142 1.643 . S
C629 C82 1.678 . S
C635 C149 1.776 . S
C649 C224 1.678 . S
C655 C172 1.776 . S
C669 C192 1.759 . S
C675 C164 1.658 . S
C689 C212 1.766 . S
C695 C184 1.669 . S
C709 C232 1.772 . S
C715 C204 1.656 . S
C729 C252 1.761 . S
C735 C264 1.643 . S
C749 C272 1.780 . S
C755 C284 1.677 . S
C769 C292 1.764 . S
C775 C304 1.667 . S
C789 C312 1.763 . S
C795 C244 1.645 . S
C809 C12 0.586 . S
C815 C52 0.536 . S
C829 C32 0.584 . S
C835 C72 0.575 . S
C849 C132 0.561 . S
C855 C92 0.590 . S
C869 C152 0.531 . S
C875 C112 0.534 . S
C889 C209 0.565 . S
C895 C169 0.589 . S
C909 C229 0.539 . S
C915 C189 0.588 . S
C929 C249 0.551 . S
C935 C289 0.522 . S
C949 C269 0.570 . S
C955 C309 0.522 . S
C969 C4 1.193 . S
C975 C238 1.272 . S
C989 C178 1.286 . S
C995 C24 1.236 . S
C1009 C44 1.211 . S
C1015 C198 1.269 . S
C1029 C218 1.271 . S
C1035 C64 1.194 . S
C1049 C278 1.273 . S
C1055 C84 1.193 . S
C1069 C104 1.197 . S
C1075 C298 1.285 . S
C1089 C318 1.269 . S
C1095 C124 1.212 . S
C1109 C144 1.216 . S
C1115 C258 1.271 . S
C1129 C162 1.237 . S
C1135 C79 1.287 . S
C1149 C182 1.196 . S
C1155 C19 1.270 . S
C1169 C39 1.296 . S
C1175 C202 1.221 . S
C1189 C222 1.227 . S
C1195 C59 1.296 . S
C1209 C242 1.197 . S
C1215 C119 1.284 . S
C1229 C262 1.194 . S
C1235 C139 1.271 . S
C1249 C159 1.272 . S
C1255 C282 1.193 . S
C1269 C99 1.280 . S
C1275 C302 1.232 . S
