# Generated by pormake.
# Topology mdf, (4)-cn, num edge types: 1
# Building blocks:
#     Node 0, Type 0, BuildingBlock: KUFVIS_clean_sbu_0, # of connection points: 4
#     Node 1, Type 0, BuildingBlock: KUFVIS_clean_sbu_0, # of connection points: 4
#     Node 2, Type 0, BuildingBlock: KUFVIS_clean_sbu_0, # of connection points: 4
#     Node 3, Type 0, BuildingBlock: KUFVIS_clean_sbu_0, # of connection points: 4
#     Node 4, Type 0, BuildingBlock: KUFVIS_clean_sbu_0, # of connection points: 4
#     Node 5, Type 0, BuildingBlock: KUFVIS_clean_sbu_0, # of connection points: 4
#     Node 6, Type 0, BuildingBlock: KUFVIS_clean_sbu_0, # of connection points: 4
#     Node 7, Type 0, BuildingBlock: KUFVIS_clean_sbu_0, # of connection points: 4
#     Edge 8, Type (0, 0), BuildingBlock: MIFKUJ_clean_linker_0, # of connection points: 2
#     Edge 9, Type (0, 0), BuildingBlock: MIFKUJ_clean_linker_0, # of connection points: 2
#     Edge 10, Type (0, 0), BuildingBlock: MIFKUJ_clean_linker_0, # of connection points: 2
#     Edge 11, Type (0, 0), BuildingBlock: MIFKUJ_clean_linker_0, # of connection points: 2
#     Edge 12, Type (0, 0), BuildingBlock: MIFKUJ_clean_linker_0, # of connection points: 2
#     Edge 13, Type (0, 0), BuildingBlock: MIFKUJ_clean_linker_0, # of connection points: 2
#     Edge 14, Type (0, 0), BuildingBlock: MIFKUJ_clean_linker_0, # of connection points: 2
#     Edge 15, Type (0, 0), BuildingBlock: MIFKUJ_clean_linker_0, # of connection points: 2
#     Edge 16, Type (0, 0), BuildingBlock: MIFKUJ_clean_linker_0, # of connection points: 2
#     Edge 17, Type (0, 0), BuildingBlock: MIFKUJ_clean_linker_0, # of connection points: 2
#     Edge 18, Type (0, 0), BuildingBlock: MIFKUJ_clean_linker_0, # of connection points: 2
#     Edge 19, Type (0, 0), BuildingBlock: MIFKUJ_clean_linker_0, # of connection points: 2
#     Edge 20, Type (0, 0), BuildingBlock: MIFKUJ_clean_linker_0, # of connection points: 2
#     Edge 21, Type (0, 0), BuildingBlock: MIFKUJ_clean_linker_0, # of connection points: 2
#     Edge 22, Type (0, 0), BuildingBlock: MIFKUJ_clean_linker_0, # of connection points: 2
#     Edge 23, Type (0, 0), BuildingBlock: MIFKUJ_clean_linker_0, # of connection points: 2
# Relax obj value: 0.028
# Max RMSD: 0.052
# Mean RMSD: 0.052
data_MOF--net-mdf--node1-KUFVIS_clean_sbu_0--edge1-MIFKUJ_clean_linker_0
_symmetry_space_group_name_H-M    P1
_symmetry_Int_Tables_number       1
_symmetry_cell_setting            triclinic
loop_
_symmetry_equiv_pos_as_xyz
'x, y, z'
_cell_length_a     48.52601
_cell_length_b     48.579336
_cell_length_c     15.9565
_cell_angle_alpha  89.98457
_cell_angle_beta   90.00528
_cell_angle_gamma 93.153043
loop_
_atom_site_label
_atom_site_type_symbol
_atom_site_fract_x
_atom_site_fract_y
_atom_site_fract_z
_atom_type_partial_charge
Mn0 Mn 0.25506 0.52926 0.42293 0.0
Mn1 Mn 0.25968 0.49303 0.2426 0.0
C2 C 0.2256 0.49073 0.39833 0.0
C3 C 0.23651 0.56507 0.50046 0.0
C4 C 0.30023 0.48877 0.38658 0.0
O5 O 0.27705 0.55632 0.34591 0.0
O6 O 0.27639 0.53071 0.22809 0.0
C7 C 0.2224 0.52481 0.1375 0.0
N8 N 0.22943 0.50034 0.17077 0.0
C9 C 0.19231 0.47573 0.09783 0.0
C10 C 0.18471 0.50066 0.06259 0.0
C11 C 0.19977 0.52531 0.08273 0.0
C12 C 0.21495 0.47654 0.15232 0.0
H13 H 0.234 0.54377 0.15258 0.0
C14 C 0.28267 0.55296 0.26831 0.0
O15 O 0.25969 0.55481 0.5215 0.0
O16 O 0.22473 0.55521 0.43313 0.0
N17 N 0.24411 0.45601 0.24669 0.0
C18 C 0.2537 0.43387 0.28773 0.0
C19 C 0.24113 0.40755 0.27367 0.0
C20 C 0.21904 0.40424 0.21707 0.0
C21 C 0.20939 0.42735 0.17602 0.0
C22 C 0.22296 0.45301 0.1917 0.0
H23 H 0.27097 0.43621 0.33025 0.0
O24 O 0.23014 0.49943 0.47424 0.0
O25 O 0.23841 0.50469 0.33947 0.0
O26 O 0.28875 0.50527 0.43658 0.0
O27 O 0.29132 0.48358 0.31263 0.0
C28 C 0.18684 0.42594 0.12026 0.0
C29 C 0.17818 0.45015 0.08164 0.0
H30 H 0.16729 0.50113 0.02026 0.0
H31 H 0.19402 0.54464 0.05589 0.0
H32 H 0.24863 0.38982 0.30573 0.0
H33 H 0.20971 0.38384 0.20541 0.0
H34 H 0.17582 0.40641 0.10735 0.0
H35 H 0.1606 0.44886 0.03973 0.0
Mn36 Mn 0.47519 0.75706 0.61054 0.0
Mn37 Mn 0.49783 0.74111 0.80456 0.0
C38 C 0.51357 0.78137 0.66645 0.0
C39 C 0.44532 0.78081 0.52399 0.0
C40 C 0.50924 0.70723 0.64919 0.0
O41 O 0.44269 0.73388 0.65985 0.0
O42 O 0.45863 0.72844 0.79117 0.0
C43 C 0.46321 0.77669 0.90658 0.0
N44 N 0.48856 0.76839 0.88448 0.0
C45 C 0.51064 0.79676 0.9912 0.0
C46 C 0.48476 0.80562 0.01518 0.0
C47 C 0.46096 0.7956 0.97245 0.0
C48 C 0.51159 0.77802 0.92476 0.0
H49 H 0.44488 0.76884 0.87445 0.0
C50 C 0.43978 0.72576 0.73546 0.0
O51 O 0.45632 0.75844 0.49923 0.0
O52 O 0.45153 0.78928 0.59913 0.0
N53 N 0.53538 0.75216 0.82869 0.0
C54 C 0.55879 0.74208 0.79643 0.0
C55 C 0.58434 0.74946 0.83355 0.0
C56 C 0.58552 0.767 0.90358 0.0
C57 C 0.56127 0.77764 0.93443 0.0
C58 C 0.53636 0.76914 0.8959 0.0
H59 H 0.55795 0.72806 0.74392 0.0
O60 O 0.50883 0.78125 0.5864 0.0
O61 O 0.49519 0.76792 0.71252 0.0
O62 O 0.49771 0.72258 0.59606 0.0
O63 O 0.50913 0.71186 0.72797 0.0
C64 C 0.56082 0.79611 1.00245 0.0
C65 C 0.53553 0.80585 0.03036 0.0
H66 H 0.48294 0.82013 0.06615 0.0
H67 H 0.44091 0.8023 0.99064 0.0
H68 H 0.60299 0.74121 0.80926 0.0
H69 H 0.60508 0.77187 0.93404 0.0
H70 H 0.57981 0.80311 0.0333 0.0
H71 H 0.53546 0.82027 0.08212 0.0
Mn72 Mn 0.2595 0.98071 0.90787 0.0
Mn73 Mn 0.24618 0.00624 0.71549 0.0
C74 C 0.28623 0.01832 0.85646 0.0
C75 C 0.2816 0.94884 0.99183 0.0
C76 C 0.21152 0.01729 0.86996 0.0
O77 O 0.23487 0.95001 0.85429 0.0
O78 O 0.23185 0.96744 0.7238 0.0
C79 C 0.28175 0.97149 0.61394 0.0
N80 N 0.27368 0.99684 0.63646 0.0
C81 C 0.30349 0.01902 0.53336 0.0
C82 C 0.31197 0.99312 0.50851 0.0
C83 C 0.30117 0.96926 0.54937 0.0
C84 C 0.28425 0.01993 0.59852 0.0
H85 H 0.27341 0.95316 0.64502 0.0
C86 C 0.22755 0.94821 0.77759 0.0
O87 O 0.25973 0.96059 0.01751 0.0
O88 O 0.2904 0.95534 0.91728 0.0
N89 N 0.25891 0.04361 0.69614 0.0
C90 C 0.24968 0.06705 0.73065 0.0
C91 C 0.25799 0.09271 0.69593 0.0
C92 C 0.27563 0.09398 0.62611 0.0
C93 C 0.28561 0.0697 0.59346 0.0
C94 C 0.27611 0.0447 0.6294 0.0
H95 H 0.23558 0.06614 0.78301 0.0
O96 O 0.28534 0.01291 0.93607 0.0
O97 O 0.27194 1.00119 0.8086 0.0
O98 O 0.22603 0.00469 0.92308 0.0
O99 O 0.21681 0.01781 0.79151 0.0
C100 C 0.30439 0.0693 0.52617 0.0
C101 C 0.31355 0.04398 0.49671 0.0
H102 H 0.32688 0.99131 0.45858 0.0
H103 H 0.30771 0.9492 0.53087 0.0
H104 H 0.25035 0.11142 0.7218 0.0
H105 H 0.28108 0.11364 0.59722 0.0
H106 H 0.31217 0.08837 0.49732 0.0
H107 H 0.32835 0.04395 0.44589 0.0
Mn108 Mn 0.03382 0.75106 0.09413 0.0
Mn109 Mn 0.99572 0.75587 0.27081 0.0
C110 C 0.99564 0.72102 0.11699 0.0
C111 C 0.07093 0.73247 0.02242 0.0
C112 C 0.99175 0.79531 0.12395 0.0
O113 O 0.0595 0.77446 0.17121 0.0
O114 O 0.03273 0.77396 0.28665 0.0
C115 C 0.02805 0.72012 0.37923 0.0
N116 N 1.00347 0.72644 0.34511 0.0
C117 C 0.97932 0.6896 0.42045 0.0
C118 C 0.00437 0.68274 0.45672 0.0
C119 C 0.02886 0.69799 0.43568 0.0
C120 C 0.97987 0.71167 0.36395 0.0
H121 H 0.04686 0.7319 0.36345 0.0
C122 C 0.05507 0.78086 0.2476 0.0
O123 O 0.06052 0.75521 0.99793 0.0
O124 O 0.06048 0.72124 0.08973 0.0
N125 N 0.95908 0.73932 0.26594 0.0
C126 C 0.93678 0.74826 0.22407 0.0
C127 C 0.91053 0.73573 0.23969 0.0
C128 C 0.90744 0.71434 0.29871 0.0
C129 C 0.93071 0.70522 0.3402 0.0
C130 C 0.95627 0.71881 0.3231 0.0
H131 H 0.93894 0.76513 0.18006 0.0
O132 O 0.00507 0.72515 0.04171 0.0
O133 O 0.00873 0.73448 0.17627 0.0
O134 O 0.00919 0.78414 0.07616 0.0
O135 O 0.9859 0.78648 0.1976 0.0
C136 C 0.92954 0.68328 0.39812 0.0
C137 C 0.95388 0.6753 0.43761 0.0
H138 H 0.00507 0.66575 0.50051 0.0
H139 H 0.04828 0.69276 0.46319 0.0
H140 H 0.89266 0.7428 0.20721 0.0
H141 H 0.88706 0.70515 0.31193 0.0
H142 H 0.91008 0.67223 0.41208 0.0
H143 H 0.95279 0.65817 0.48115 0.0
Mn144 Mn 0.75132 0.02925 0.89234 0.0
Mn145 Mn 0.754 0.98778 0.72235 0.0
C146 C 0.72292 0.98923 0.88371 0.0
C147 C 0.73268 0.06686 0.96122 0.0
C148 C 0.79763 0.98999 0.85927 0.0
O149 O 0.77125 0.05407 0.80464 0.0
O150 O 0.76826 0.02548 0.6934 0.0
C151 C 0.71265 0.01366 0.61597 0.0
N152 N 0.72182 0.99095 0.65486 0.0
C153 C 0.68459 0.96215 0.59722 0.0
C154 C 0.67478 0.98522 0.5563 0.0
C155 C 0.68883 0.0111 0.56596 0.0
C156 C 0.70836 0.96599 0.64648 0.0
H157 H 0.72346 0.03356 0.62307 0.0
C158 C 0.7749 0.04885 0.72687 0.0
O159 O 0.75665 0.05826 0.98168 0.0
O160 O 0.72013 0.05434 0.89924 0.0
N161 N 0.74063 0.95049 0.74089 0.0
C162 C 0.75207 0.93057 0.78757 0.0
C163 C 0.74039 0.90349 0.78529 0.0
C164 C 0.71735 0.89709 0.73428 0.0
C165 C 0.70586 0.91793 0.68708 0.0
C166 C 0.71849 0.9445 0.69138 0.0
H167 H 0.77005 0.93527 0.82592 0.0
O168 O 0.72831 1.00058 0.95591 0.0
O169 O 0.73421 1.00158 0.81928 0.0
O170 O 0.78606 0.0069 0.90769 0.0
O171 O 0.78775 0.98249 0.78815 0.0
C172 C 0.68224 0.91344 0.63647 0.0
C173 C 0.67151 0.93557 0.59199 0.0
H174 H 0.65641 0.98333 0.5177 0.0
H175 H 0.68135 0.02901 0.53476 0.0
H176 H 0.74918 0.88754 0.82241 0.0
H177 H 0.70864 0.87609 0.73193 0.0
H178 H 0.67194 0.89315 0.63221 0.0
H179 H 0.65309 0.93195 0.55433 0.0
Mn180 Mn 0.97849 0.25926 0.09398 0.0
Mn181 Mn 0.00417 0.247 0.28639 0.0
C182 C 0.01672 0.28589 0.14211 0.0
C183 C 0.94624 0.28089 0.00989 0.0
C184 C 0.01375 0.2108 0.13424 0.0
O185 O 0.94792 0.23491 0.15026 0.0
O186 O 0.96472 0.2345 0.28182 0.0
C187 C 0.97208 0.2858 0.385 0.0
N188 N 0.99675 0.27589 0.3629 0.0
C189 C 0.0211 0.30583 0.46124 0.0
C190 C 0.99591 0.31612 0.48599 0.0
C191 C 0.97131 0.30621 0.44721 0.0
C192 C 0.02057 0.2857 0.39845 0.0
H193 H 0.9532 0.27826 0.35508 0.0
C194 C 0.94559 0.22921 0.2282 0.0
O195 O 0.95776 0.25877 0.98536 0.0
O196 O 0.95317 0.29019 0.08357 0.0
N197 N 0.04221 0.25806 0.30222 0.0
C198 C 0.06484 0.24709 0.2678 0.0
C199 C 0.09108 0.2544 0.30042 0.0
C200 C 0.09373 0.27282 0.36811 0.0
C201 C 0.07028 0.28453 0.4007 0.0
C202 C 0.04463 0.27595 0.36706 0.0
H203 H 0.06287 0.23233 0.21737 0.0
O204 O 0.01074 0.28475 0.06289 0.0
O205 O 0.99964 0.27209 0.19137 0.0
O206 O 1.00236 0.22582 0.07994 0.0
O207 O 0.01372 0.21608 0.21274 0.0
C208 C 0.07132 0.30415 0.46585 0.0
C209 C 0.04676 0.31503 0.49545 0.0
H210 H 0.99523 0.33182 0.53403 0.0
H211 H 0.95182 0.31423 0.46538 0.0
H212 H 0.10914 0.24539 0.27468 0.0
H213 H 0.11382 0.27753 0.39543 0.0
H214 H 0.09092 0.31126 0.49286 0.0
H215 H 0.04784 0.33049 0.54442 0.0
Mn216 Mn 0.75677 0.48044 0.40609 0.0
Mn217 Mn 0.74658 0.5118 0.22014 0.0
C218 C 0.78449 0.51919 0.36792 0.0
C219 C 0.77785 0.44653 0.48506 0.0
C220 C 0.70964 0.51851 0.37218 0.0
O221 O 0.73304 0.45132 0.34092 0.0
O222 O 0.73202 0.47316 0.21666 0.0
C223 C 0.78366 0.47975 0.11509 0.0
N224 N 0.77524 0.50445 0.14264 0.0
C225 C 0.80677 0.52926 0.04979 0.0
C226 C 0.81559 0.50409 0.01967 0.0
C227 C 0.80411 0.47923 0.05292 0.0
C228 C 0.78652 0.52846 0.11233 0.0
H229 H 0.77485 0.46063 0.1405 0.0
C230 C 0.72693 0.45203 0.263 0.0
O231 O 0.75546 0.4574 0.51043 0.0
O232 O 0.78759 0.45485 0.41317 0.0
N233 N 0.75979 0.54948 0.21236 0.0
C234 C 0.74995 0.57192 0.25112 0.0
C235 C 0.75874 0.59842 0.22382 0.0
C236 C 0.77744 0.60151 0.15689 0.0
C237 C 0.78805 0.57819 0.12001 0.0
C238 C 0.77803 0.55233 0.14846 0.0
H239 H 0.73493 0.56964 0.30087 0.0
O240 O 0.78226 0.51166 0.44573 0.0
O241 O 0.7708 0.50363 0.31436 0.0
O242 O 0.72319 0.50416 0.42336 0.0
O243 O 0.71615 0.52136 0.29499 0.0
C244 C 0.80786 0.57958 0.05536 0.0
C245 C 0.81747 0.55512 0.02095 0.0
H246 H 0.8313 0.50361 0.97155 0.0
H247 H 0.81094 0.45972 0.03042 0.0
H248 H 0.75063 0.6164 0.2529 0.0
H249 H 0.78311 0.62186 0.13314 0.0
H250 H 0.81608 0.59934 0.03235 0.0
H251 H 0.83305 0.55642 0.97231 0.0
Mn252 Mn 0.5371 0.24888 0.58853 0.0
Mn253 Mn 0.50084 0.24879 0.76973 0.0
C254 C 0.49828 0.21922 0.60537 0.0
C255 C 0.57316 0.23229 0.50733 0.0
C256 C 0.49767 0.29349 0.63671 0.0
O257 O 0.56379 0.26901 0.67093 0.0
O258 O 0.53924 0.26284 0.7902 0.0
C259 C 0.53003 0.20599 0.86107 0.0
N260 N 0.50612 0.21591 0.83205 0.0
C261 C 0.47913 0.17829 0.8947 0.0
C262 C 0.50344 0.1678 0.92597 0.0
C263 C 0.52901 0.18157 0.90837 0.0
C264 C 0.48146 0.20251 0.84708 0.0
H265 H 0.5497 0.21656 0.84782 0.0
C266 C 0.56123 0.27069 0.75066 0.0
O267 O 0.56286 0.25585 0.49137 0.0
O268 O 0.56323 0.21899 0.57206 0.0
N269 N 0.46314 0.23539 0.76022 0.0
C270 C 0.44184 0.24725 0.72097 0.0
C271 C 0.41483 0.2359 0.7315 0.0
C272 C 0.40997 0.21264 0.78278 0.0
C273 C 0.43223 0.2006 0.82177 0.0
C274 C 0.45865 0.21304 0.80988 0.0
H275 H 0.44535 0.26542 0.68265 0.0
O276 O 0.5074 0.22541 0.53093 0.0
O277 O 0.51215 0.23033 0.66726 0.0
O278 O 0.51317 0.28262 0.58255 0.0
O279 O 0.4932 0.2832 0.70953 0.0
C280 C 0.42927 0.17666 0.87158 0.0
C281 C 0.45273 0.16538 0.90744 0.0
H282 H 0.50276 0.14901 0.96268 0.0
H283 H 0.54789 0.1734 0.9314 0.0
H284 H 0.39776 0.24522 0.70086 0.0
H285 H 0.38905 0.20421 0.79172 0.0
H286 H 0.40912 0.16649 0.88156 0.0
H287 H 0.45026 0.14665 0.94415 0.0
H288 H 0.4004 0.75134 0.82002 0.0
H289 H 0.36405 0.72871 0.90652 0.0
H290 H 0.38433 0.64974 0.80727 0.0
H291 H 0.42086 0.67243 0.72124 0.0
H292 H 0.3263 0.65495 0.84083 0.0
H293 H 0.41691 0.67385 0.9738 0.0
H294 H 0.45493 0.70667 0.01661 0.0
H295 H 0.39876 0.75077 0.1672 0.0
H296 H 0.36028 0.71855 0.12368 0.0
H297 H 0.31006 0.54844 0.12136 0.0
H298 H 0.32781 0.58494 0.02944 0.0
H299 H 0.30385 0.64598 0.20751 0.0
H300 H 0.2858 0.60899 0.30165 0.0
H301 H 0.35453 0.65929 0.13992 0.0
H302 H 0.26614 0.6356 0.03572 0.0
H303 H 0.22582 0.60667 0.98895 0.0
H304 H 0.27268 0.57638 0.78397 0.0
H305 H 0.31368 0.60439 0.83094 0.0
C306 C 0.39633 0.72927 0.81452 0.0
C307 C 0.41314 0.71352 0.76399 0.0
C308 C 0.37568 0.71638 0.86405 0.0
C309 C 0.37178 0.68755 0.86405 0.0
C310 C 0.38699 0.67203 0.80795 0.0
C311 C 0.40773 0.68494 0.7586 0.0
C312 C 0.35498 0.6732 0.93001 0.0
C313 C 0.33239 0.65577 0.90622 0.0
C314 C 0.36229 0.6754 0.01584 0.0
C315 C 0.38568 0.69397 0.04482 0.0
C316 C 0.41265 0.69061 0.01576 0.0
C317 C 0.43427 0.70912 0.04006 0.0
C318 C 0.42925 0.73083 0.0944 0.0
C319 C 0.40261 0.73398 0.12494 0.0
C320 C 0.38088 0.71561 0.10045 0.0
C321 C 0.30852 0.56958 0.14165 0.0
C322 C 0.2962 0.57576 0.21874 0.0
C323 C 0.31859 0.59048 0.08851 0.0
C324 C 0.31648 0.61821 0.1104 0.0
C325 C 0.30536 0.62467 0.18896 0.0
C326 C 0.29521 0.60356 0.24281 0.0
C327 C 0.32646 0.63991 0.05031 0.0
C328 C 0.34786 0.65878 0.07503 0.0
C329 C 0.31767 0.6394 0.96546 0.0
C330 C 0.29314 0.62206 0.93733 0.0
C331 C 0.26801 0.62256 0.9812 0.0
C332 C 0.24497 0.60635 0.95452 0.0
C333 C 0.24664 0.58977 0.88342 0.0
C334 C 0.27141 0.58926 0.83904 0.0
C335 C 0.29459 0.60528 0.86574 0.0
H336 H 0.22872 0.57736 0.86267 0.0
H337 H 0.44599 0.74518 0.11296 0.0
H338 H 0.41322 0.8232 0.56691 0.0
H339 H 0.38358 0.84923 0.47543 0.0
H340 H 0.40613 0.79966 0.26476 0.0
H341 H 0.43563 0.77333 0.35608 0.0
H342 H 0.40994 0.85644 0.23192 0.0
H343 H 0.34444 0.78924 0.34782 0.0
H344 H 0.3206 0.76357 0.46237 0.0
H345 H 0.29032 0.83881 0.55788 0.0
H346 H 0.31448 0.86506 0.44481 0.0
H347 H 0.31664 0.90987 0.94232 0.0
H348 H 0.34223 0.87904 0.03054 0.0
H349 H 0.30682 0.9143 0.25142 0.0
H350 H 0.27993 0.94403 0.16273 0.0
H351 H 0.30948 0.86323 0.27849 0.0
H352 H 0.37608 0.93126 0.17361 0.0
H353 H 0.40194 0.95893 0.0671 0.0
H354 H 0.43168 0.88518 0.95947 0.0
H355 H 0.40568 0.85703 0.06464 0.0
C356 C 0.41179 0.81774 0.50119 0.0
C357 C 0.42681 0.79617 0.46885 0.0
C358 C 0.39475 0.83259 0.44901 0.0
C359 C 0.39249 0.82633 0.36325 0.0
C360 C 0.40751 0.80485 0.33072 0.0
C361 C 0.42432 0.78976 0.38308 0.0
C362 C 0.37508 0.84273 0.30718 0.0
C363 C 0.38788 0.85762 0.24123 0.0
C364 C 0.34647 0.84495 0.32098 0.0
C365 C 0.33158 0.82917 0.38836 0.0
C366 C 0.33292 0.80036 0.39366 0.0
C367 C 0.31932 0.7857 0.45828 0.0
C368 C 0.3041 0.79957 0.51762 0.0
C369 C 0.30223 0.82811 0.51206 0.0
C370 C 0.31588 0.84289 0.44769 0.0
C371 C 0.31422 0.91095 0.0097 0.0
C372 C 0.29638 0.92951 0.04556 0.0
C373 C 0.32906 0.89343 0.06032 0.0
C374 C 0.32716 0.89468 0.14825 0.0
C375 C 0.30885 0.91286 0.18398 0.0
C376 C 0.29349 0.92994 0.1332 0.0
C377 C 0.34432 0.87725 0.20286 0.0
C378 C 0.33151 0.86212 0.26874 0.0
C379 C 0.37308 0.87515 0.1899 0.0
C380 C 0.38868 0.89203 0.12644 0.0
C381 C 0.38796 0.92093 0.12682 0.0
C382 C 0.40266 0.9367 0.06674 0.0
C383 C 0.41837 0.92381 0.0064 0.0
C384 C 0.41945 0.89513 0.00613 0.0
C385 C 0.40475 0.87926 0.06597 0.0
H386 H 0.42975 0.93606 0.95997 0.0
H387 H 0.29376 0.78819 0.5679 0.0
H388 H 0.0463 0.8111 0.38652 0.0
H389 H 0.07989 0.83654 0.47294 0.0
H390 H 0.14525 0.81424 0.30729 0.0
H391 H 0.11126 0.7881 0.21904 0.0
H392 H 0.15663 0.80718 0.4823 0.0
H393 H 0.12779 0.87748 0.29915 0.0
H394 H 0.09425 0.90385 0.22088 0.0
H395 H 0.05784 0.92882 0.452 0.0
H396 H 0.0909 0.90225 0.53174 0.0
H397 H 0.24876 0.91003 0.67703 0.0
H398 H 0.2223 0.87707 0.58849 0.0
H399 H 0.14735 0.89802 0.71316 0.0
H400 H 0.17395 0.93136 0.80107 0.0
H401 H 0.14471 0.90574 0.54648 0.0
H402 H 0.1725 0.83384 0.7293 0.0
H403 H 0.20471 0.80578 0.80708 0.0
H404 H 0.24272 0.78298 0.57616 0.0
H405 H 0.21126 0.8115 0.49712 0.0
C406 C 0.06778 0.8115 0.36782 0.0
C407 C 0.0761 0.79747 0.29575 0.0
C408 C 0.08696 0.82622 0.41737 0.0
C409 C 0.11499 0.82744 0.39623 0.0
C410 C 0.12362 0.81355 0.32438 0.0
C411 C 0.10423 0.79882 0.27388 0.0
C412 C 0.13477 0.84316 0.45114 0.0
C413 C 0.15455 0.8289 0.49518 0.0
C414 C 0.13144 0.87129 0.4691 0.0
C415 C 0.11175 0.8877 0.42145 0.0
C416 C 0.11253 0.88845 0.33333 0.0
C417 C 0.09361 0.90345 0.28868 0.0
C418 C 0.07388 0.91795 0.33143 0.0
C419 C 0.07312 0.91756 0.41896 0.0
C420 C 0.09198 0.90257 0.46393 0.0
C421 C 0.22677 0.90679 0.68746 0.0
C422 C 0.21331 0.9229 0.74607 0.0
C423 C 0.21166 0.88798 0.63687 0.0
C424 C 0.18283 0.88513 0.644 0.0
C425 C 0.1696 0.89991 0.70667 0.0
C426 C 0.18477 0.91869 0.75747 0.0
C427 C 0.16627 0.86965 0.57955 0.0
C428 C 0.1471 0.88408 0.53334 0.0
C429 C 0.17031 0.84175 0.5596 0.0
C430 C 0.18972 0.82512 0.60733 0.0
C431 C 0.188 0.82319 0.69516 0.0
C432 C 0.20612 0.80716 0.7395 0.0
C433 C 0.22589 0.79275 0.69666 0.0
C434 C 0.22756 0.79432 0.60936 0.0
C435 C 0.20959 0.81042 0.56476 0.0
H436 H 0.23984 0.78028 0.73105 0.0
H437 H 0.05922 0.92951 0.29675 0.0
H438 H 0.08474 0.67902 0.03364 0.0
H439 H 0.11708 0.65498 0.94739 0.0
H440 H 0.13878 0.73062 0.81512 0.0
H441 H 0.10502 0.75447 0.89877 0.0
H442 H 0.13506 0.69365 0.70742 0.0
H443 H 0.18437 0.69797 0.96437 0.0
H444 H 0.19233 0.69335 0.11629 0.0
H445 H 0.17342 0.60612 0.10032 0.0
H446 H 0.16509 0.61026 0.94845 0.0
H447 H 0.25897 0.59619 0.63016 0.0
H448 H 0.23591 0.62929 0.71831 0.0
H449 H 0.16016 0.61218 0.58147 0.0
H450 H 0.1834 0.58033 0.49128 0.0
H451 H 0.19766 0.62605 0.82448 0.0
H452 H 0.11852 0.66394 0.58021 0.0
H453 H 0.11629 0.67347 0.42861 0.0
H454 H 0.20455 0.68562 0.41951 0.0
H455 H 0.2073 0.67658 0.57128 0.0
C456 C 0.09657 0.69066 0.98674 0.0
C457 C 0.09234 0.71873 0.9734 0.0
C458 C 0.11533 0.67687 0.93762 0.0
C459 C 0.13104 0.69093 0.87531 0.0
C460 C 0.12707 0.71915 0.86263 0.0
C461 C 0.10781 0.73285 0.91073 0.0
C462 C 0.15033 0.67577 0.82074 0.0
C463 C 0.14885 0.67902 0.73332 0.0
C464 C 0.16906 0.65709 0.85368 0.0
C465 C 0.17392 0.65448 0.94511 0.0
C466 C 0.18174 0.67784 0.99337 0.0
C467 C 0.18635 0.67529 0.07945 0.0
C468 C 0.18333 0.64947 0.11797 0.0
C469 C 0.17569 0.62612 0.07046 0.0
C470 C 0.17107 0.62855 0.98434 0.0
C471 C 0.23749 0.5998 0.6183 0.0
C472 C 0.22313 0.58584 0.55299 0.0
C473 C 0.22425 0.61867 0.66901 0.0
C474 C 0.19628 0.62383 0.65603 0.0
C475 C 0.1819 0.60945 0.59157 0.0
C476 C 0.19522 0.59102 0.54011 0.0
C477 C 0.18177 0.64339 0.7112 0.0
C478 C 0.18411 0.64092 0.79867 0.0
C479 C 0.16459 0.66353 0.67836 0.0
C480 C 0.16311 0.66933 0.5871 0.0
C481 C 0.13744 0.66878 0.54598 0.0
C482 C 0.13609 0.67407 0.45998 0.0
C483 C 0.16027 0.68006 0.4144 0.0
C484 C 0.18585 0.68088 0.45482 0.0
C485 C 0.18731 0.67565 0.54083 0.0
H486 H 0.15919 0.6841 0.3478 0.0
H487 H 0.18693 0.64755 0.18462 0.0
H488 H 0.78411 0.04451 0.55899 0.0
H489 H 0.80755 0.07764 0.46631 0.0
H490 H 0.81845 0.13526 0.67061 0.0
H491 H 0.79484 0.1018 0.76569 0.0
H492 H 0.80266 0.15976 0.51626 0.0
H493 H 0.8709 0.10013 0.61827 0.0
H494 H 0.89017 0.05538 0.64988 0.0
H495 H 0.88712 0.03403 0.38879 0.0
H496 H 0.86743 0.07853 0.35577 0.0
H497 H 0.91982 0.23993 0.37388 0.0
H498 H 0.88343 0.21182 0.44291 0.0
H499 H 0.87811 0.15757 0.22889 0.0
H500 H 0.91455 0.18625 0.15826 0.0
H501 H 0.88828 0.13094 0.37942 0.0
H502 H 0.82326 0.19163 0.27486 0.0
H503 H 0.80328 0.23593 0.24198 0.0
H504 H 0.79993 0.25527 0.50422 0.0
H505 H 0.82022 0.21121 0.53868 0.0
C506 C 0.79133 0.0642 0.58498 0.0
C507 C 0.78783 0.07027 0.6706 0.0
C508 C 0.80473 0.08318 0.53141 0.0
C509 C 0.81498 0.10877 0.56166 0.0
C510 C 0.81069 0.11553 0.64614 0.0
C511 C 0.79731 0.09637 0.70041 0.0
C512 C 0.83127 0.12767 0.50519 0.0
C513 C 0.82159 0.15369 0.48712 0.0
C514 C 0.85544 0.11926 0.46509 0.0
C515 C 0.86743 0.09255 0.48467 0.0
C516 C 0.87412 0.0858 0.56768 0.0
C517 C 0.88516 0.0605 0.58584 0.0
C518 C 0.8898 0.04184 0.52141 0.0
C519 C 0.88348 0.04848 0.43865 0.0
C520 C 0.8724 0.07375 0.42016 0.0
C521 C 0.91039 0.22247 0.34042 0.0
C522 C 0.92 0.21523 0.26075 0.0
C523 C 0.8895 0.20646 0.3799 0.0
C524 C 0.87801 0.18264 0.34106 0.0
C525 C 0.88664 0.17599 0.25972 0.0
C526 C 0.9073 0.1924 0.2193 0.0
C527 C 0.85978 0.16319 0.39037 0.0
C528 C 0.86921 0.13702 0.4077 0.0
C529 C 0.83541 0.1715 0.42955 0.0
C530 C 0.82355 0.19822 0.4093 0.0
C531 C 0.81856 0.20546 0.3255 0.0
C532 C 0.80708 0.23049 0.30658 0.0
C533 C 0.80041 0.24844 0.37096 0.0
C534 C 0.80514 0.24135 0.45441 0.0
C535 C 0.81659 0.21633 0.47368 0.0
H536 H 0.79151 0.2678 0.35619 0.0
H537 H 0.89835 0.02226 0.53559 0.0
H538 H 0.9123 0.3216 0.05448 0.0
H539 H 0.88156 0.34676 0.96397 0.0
H540 H 0.90572 0.29872 0.75183 0.0
H541 H 0.93626 0.2732 0.84225 0.0
H542 H 0.90801 0.35601 0.72176 0.0
H543 H 0.84402 0.28603 0.83218 0.0
H544 H 0.82003 0.25898 0.94369 0.0
H545 H 0.78785 0.33276 0.04344 0.0
H546 H 0.81201 0.36033 0.93325 0.0
H547 H 0.81404 0.4089 0.43321 0.0
H548 H 0.84016 0.37798 0.51967 0.0
H549 H 0.80242 0.4097 0.74207 0.0
H550 H 0.775 0.43939 0.65499 0.0
H551 H 0.80706 0.35901 0.7661 0.0
H552 H 0.8717 0.42984 0.66729 0.0
H553 H 0.89694 0.45909 0.56325 0.0
H554 H 0.92955 0.38734 0.45153 0.0
H555 H 0.90419 0.35762 0.5542 0.0
C556 C 0.91094 0.31624 0.98867 0.0
C557 C 0.92674 0.29536 0.95563 0.0
C558 C 0.89328 0.3306 0.93704 0.0
C559 C 0.89121 0.32457 0.8511 0.0
C560 C 0.90693 0.30371 0.81794 0.0
C561 C 0.92432 0.28908 0.86978 0.0
C562 C 0.87338 0.34067 0.79541 0.0
C563 C 0.88586 0.35636 0.73055 0.0
C564 C 0.84462 0.34185 0.80861 0.0
C565 C 0.83006 0.32529 0.87491 0.0
C566 C 0.83204 0.29653 0.87834 0.0
C567 C 0.81837 0.28109 0.94123 0.0
C568 C 0.80249 0.29415 1.00076 0.0
C569 C 0.8002 0.32267 0.99738 0.0
C570 C 0.81386 0.33821 0.93467 0.0
C571 C 0.81117 0.40911 0.50053 0.0
C572 C 0.79254 0.42669 0.53729 0.0
C573 C 0.82633 0.39156 0.55018 0.0
C574 C 0.824 0.39187 0.63813 0.0
C575 C 0.80482 0.40899 0.67463 0.0
C576 C 0.78913 0.42604 0.62476 0.0
C577 C 0.84164 0.37466 0.69203 0.0
C578 C 0.82918 0.35873 0.7568 0.0
C579 C 0.87057 0.37366 0.67979 0.0
C580 C 0.8858 0.39149 0.61787 0.0
C581 C 0.88409 0.42029 0.62013 0.0
C582 C 0.89843 0.43696 0.56146 0.0
C583 C 0.91476 0.42508 0.50065 0.0
C584 C 0.91684 0.39651 0.49854 0.0
C585 C 0.90249 0.37975 0.55697 0.0
H586 H 0.92586 0.43802 0.45531 0.0
H587 H 0.79191 0.28215 0.04938 0.0
H588 H 0.7284 0.4407 0.09712 0.0
H589 H 0.70341 0.40418 0.02112 0.0
H590 H 0.67029 0.37088 0.25288 0.0
H591 H 0.69594 0.40787 0.33132 0.0
H592 H 0.68603 0.32996 0.12738 0.0
H593 H 0.62996 0.40738 0.15173 0.0
H594 H 0.62019 0.45663 0.14742 0.0
H595 H 0.64018 0.45967 0.88533 0.0
H596 H 0.65049 0.41051 0.88835 0.0
H597 H 0.57063 0.26147 0.916 0.0
H598 H 0.60363 0.28606 0.00773 0.0
H599 H 0.6365 0.3325 0.79638 0.0
H600 H 0.60336 0.30767 0.70334 0.0
H601 H 0.61955 0.36519 0.92243 0.0
H602 H 0.67513 0.28716 0.89854 0.0
H603 H 0.68755 0.2387 0.90538 0.0
H604 H 0.6687 0.23626 0.16817 0.0
H605 H 0.65557 0.28459 0.16271 0.0
C606 C 0.71607 0.42557 0.13275 0.0
C607 C 0.71381 0.42753 0.22051 0.0
C608 C 0.70182 0.40461 0.08886 0.0
C609 C 0.68465 0.38515 0.13115 0.0
C610 C 0.68341 0.38587 0.21919 0.0
C611 C 0.69798 0.40698 0.2638 0.0
C612 C 0.66672 0.36574 0.08107 0.0
C613 C 0.67102 0.33745 0.08371 0.0
C614 C 0.64769 0.37577 0.02286 0.0
C615 C 0.64119 0.40529 0.02045 0.0
C616 C 0.63247 0.41859 0.09331 0.0
C617 C 0.62681 0.44649 0.09108 0.0
C618 C 0.62962 0.46128 0.01618 0.0
C619 C 0.63803 0.44819 0.94331 0.0
C620 C 0.64375 0.42029 0.94522 0.0
C621 C 0.58522 0.27653 0.88848 0.0
C622 C 0.58419 0.28283 0.80233 0.0
C623 C 0.60423 0.29045 0.94116 0.0
C624 C 0.62256 0.3111 0.90904 0.0
C625 C 0.62253 0.31656 0.82239 0.0
C626 C 0.60365 0.30235 0.76925 0.0
C627 C 0.63909 0.32923 0.96718 0.0
C628 C 0.63437 0.35746 0.9663 0.0
C629 C 0.65747 0.31897 0.02729 0.0
C630 C 0.6641 0.28949 0.02998 0.0
C631 C 0.67322 0.27621 0.95757 0.0
C632 C 0.68051 0.24878 0.96129 0.0
C633 C 0.67899 0.23446 0.03723 0.0
C634 C 0.66994 0.24744 0.10949 0.0
C635 C 0.66253 0.27483 0.10606 0.0
H636 H 0.68471 0.21325 0.04005 0.0
H637 H 0.62523 0.48288 0.01458 0.0
H638 H 0.7568 0.11059 0.04893 0.0
H639 H 0.73362 0.1448 0.1326 0.0
H640 H 0.65472 0.104 0.07309 0.0
H641 H 0.6777 0.07148 0.98436 0.0
H642 H 0.64629 0.15335 0.07689 0.0
H643 H 0.69639 0.09712 0.27457 0.0
H644 H 0.7382 0.07813 0.33501 0.0
H645 H 0.77352 0.16011 0.37391 0.0
H646 H 0.73208 0.17953 0.31346 0.0
H647 H 0.59765 0.18346 0.52755 0.0
H648 H 0.62794 0.16092 0.4302 0.0
H649 H 0.62579 0.23041 0.26242 0.0
H650 H 0.59502 0.253 0.35955 0.0
H651 H 0.67752 0.1719 0.36823 0.0
H652 H 0.62857 0.20366 0.05322 0.0
H653 H 0.58458 0.22018 1.00176 0.0
H654 H 0.54159 0.17942 0.20594 0.0
H655 H 0.58535 0.16251 0.25834 0.0
C656 C 0.73449 0.10917 0.05331 0.0
C657 C 0.71908 0.08832 0.01021 0.0
C658 C 0.72119 0.1286 0.10192 0.0
C659 C 0.69225 0.12684 0.11162 0.0
C660 C 0.67697 0.10614 0.06718 0.0
C661 C 0.69017 0.08738 0.01647 0.0
C662 C 0.67762 0.14584 0.16882 0.0
C663 C 0.65328 0.1574 0.14048 0.0
C664 C 0.68645 0.15151 0.25221 0.0
C665 C 0.71129 0.13974 0.28874 0.0
C666 C 0.71316 0.11105 0.29574 0.0
C667 C 0.73678 0.10023 0.33008 0.0
C668 C 0.75856 0.1179 0.35805 0.0
C669 C 0.7567 0.14643 0.35217 0.0
C670 C 0.73315 0.15736 0.31798 0.0
C671 C 0.60378 0.19413 0.47034 0.0
C672 C 0.59375 0.22002 0.45133 0.0
C673 C 0.62123 0.1812 0.41466 0.0
C674 C 0.62905 0.19374 0.33827 0.0
C675 C 0.61985 0.22008 0.32033 0.0
C676 C 0.60233 0.23305 0.37617 0.0
C677 C 0.64592 0.17853 0.27696 0.0
C678 C 0.67073 0.16795 0.30436 0.0
C679 C 0.63711 0.17318 0.1935 0.0
C680 C 0.61047 0.18251 0.16111 0.0
C681 C 0.60981 0.19838 0.08752 0.0
C682 C 0.58488 0.20778 0.05807 0.0
C683 C 0.56034 0.20115 0.10115 0.0
C684 C 0.56065 0.1848 0.17313 0.0
C685 C 0.58555 0.17535 0.20283 0.0
H686 H 0.54106 0.20851 0.07839 0.0
H687 H 0.77687 0.10952 0.38429 0.0
H688 H 0.31719 0.47901 0.54846 0.0
H689 H 0.35356 0.44918 0.59351 0.0
H690 H 0.37404 0.43407 0.3351 0.0
H691 H 0.33746 0.46306 0.28997 0.0
H692 H 0.37054 0.38757 0.41348 0.0
H693 H 0.41618 0.47592 0.47239 0.0
H694 H 0.42125 0.52219 0.53599 0.0
H695 H 0.41485 0.48638 0.78174 0.0
H696 H 0.40939 0.4399 0.71957 0.0
H697 H 0.49238 0.31692 0.48061 0.0
H698 H 0.46225 0.35353 0.44048 0.0
H699 H 0.43698 0.36178 0.69783 0.0
H700 H 0.46709 0.32547 0.73867 0.0
H701 H 0.44359 0.41211 0.62204 0.0
H702 H 0.39723 0.32434 0.56398 0.0
H703 H 0.39232 0.27785 0.50193 0.0
H704 H 0.39972 0.31275 0.25513 0.0
H705 H 0.40515 0.35946 0.31585 0.0
C706 C 0.32971 0.46965 0.50131 0.0
C707 C 0.32428 0.47346 0.41555 0.0
C708 C 0.35059 0.45259 0.52714 0.0
C709 C 0.36679 0.43934 0.4678 0.0
C710 C 0.36184 0.44383 0.38231 0.0
C711 C 0.34089 0.46057 0.35655 0.0
C712 C 0.38794 0.41971 0.49375 0.0
C713 C 0.38675 0.3932 0.45809 0.0
C714 C 0.40875 0.42654 0.5538 0.0
C715 C 0.41211 0.45446 0.59128 0.0
C716 C 0.41565 0.47793 0.53998 0.0
C717 C 0.41863 0.50419 0.57577 0.0
C718 C 0.4183 0.50723 0.66284 0.0
C719 C 0.41507 0.484 0.71431 0.0
C720 C 0.41206 0.45769 0.67883 0.0
C721 C 0.48077 0.32678 0.52898 0.0
C722 C 0.48214 0.318 0.6129 0.0
C723 C 0.46341 0.34766 0.50582 0.0
C724 C 0.44702 0.36021 0.56596 0.0
C725 C 0.44935 0.35243 0.65022 0.0
C726 C 0.46658 0.33152 0.67339 0.0
C727 C 0.42632 0.38029 0.5407 0.0
C728 C 0.42747 0.40669 0.57692 0.0
C729 C 0.40542 0.37341 0.48119 0.0
C730 C 0.40189 0.34537 0.4445 0.0
C731 C 0.39802 0.32209 0.4965 0.0
C732 C 0.39512 0.2957 0.46157 0.0
C733 C 0.39578 0.29234 0.37464 0.0
C734 C 0.39926 0.31538 0.32246 0.0
C735 C 0.40225 0.34182 0.35709 0.0
H736 H 0.39352 0.2719 0.3477 0.0
H737 H 0.42061 0.52758 0.69043 0.0
H738 H 0.67798 0.99153 0.7851 0.0
H739 H 0.64178 0.95546 0.7613 0.0
H740 H 0.67951 0.90396 0.94449 0.0
H741 H 0.7165 0.93996 0.96566 0.0
H742 H 0.66778 0.87492 0.81386 0.0
H743 H 0.61602 0.93546 0.97888 0.0
H744 H 0.59754 0.97968 0.02081 0.0
H745 H 0.55596 0.98471 0.78419 0.0
H746 H 0.5745 0.94068 0.74038 0.0
H747 H 0.51176 0.81595 0.80015 0.0
H748 H 0.54856 0.84748 0.85337 0.0
H749 H 0.60001 0.82568 0.64538 0.0
H750 H 0.56488 0.79092 0.60153 0.0
H751 H 0.56786 0.89037 0.80108 0.0
H752 H 0.65531 0.84319 0.6446 0.0
H753 H 0.67634 0.79909 0.61443 0.0
H754 H 0.64976 0.76772 0.85438 0.0
H755 H 0.62836 0.81183 0.8851 0.0
C756 C 0.67849 0.97244 0.82008 0.0
C757 C 0.70036 0.96795 0.87494 0.0
C758 C 0.65757 0.952 0.80747 0.0
C759 C 0.65773 0.92694 0.85138 0.0
C760 C 0.67899 0.92303 0.9095 0.0
C761 C 0.70004 0.94353 0.92179 0.0
C762 C 0.63676 0.90428 0.83242 0.0
C763 C 0.64595 0.87835 0.81114 0.0
C764 C 0.60814 0.90844 0.82986 0.0
C765 C 0.59681 0.93485 0.85617 0.0
C766 C 0.60307 0.94608 0.93559 0.0
C767 C 0.59257 0.9711 0.95972 0.0
C768 C 0.57562 0.98502 0.90515 0.0
C769 C 0.5691 0.97391 0.82639 0.0
C770 C 0.57957 0.9489 0.80193 0.0
C771 C 0.53168 0.81662 0.76956 0.0
C772 C 0.5362 0.79963 0.70059 0.0
C773 C 0.55256 0.83523 0.79844 0.0
C774 C 0.57789 0.83865 0.75549 0.0
C775 C 0.58175 0.82252 0.68359 0.0
C776 C 0.56134 0.80294 0.65731 0.0
C777 C 0.59887 0.86074 0.78185 0.0
C778 C 0.5897 0.88679 0.80392 0.0
C779 C 0.62758 0.85672 0.78547 0.0
C780 C 0.63942 0.83014 0.76589 0.0
C781 C 0.65372 0.82672 0.69039 0.0
C782 C 0.66567 0.8018 0.67317 0.0
C783 C 0.66398 0.78044 0.73196 0.0
C784 C 0.65055 0.78409 0.80829 0.0
C785 C 0.63828 0.80889 0.82528 0.0
H786 H 0.67332 0.76118 0.71874 0.0
H787 H 0.56752 0.0044 0.92393 0.0
H788 H 0.03123 0.19905 0.97471 0.0
H789 H 0.06174 0.16311 0.93229 0.0
H790 H 0.06297 0.13298 0.1865 0.0
H791 H 0.03313 0.16919 0.2297 0.0
H792 H 0.11315 0.13689 0.12905 0.0
H793 H 0.02722 0.09749 0.0221 0.0
H794 H 0.98399 0.09671 0.94058 0.0
H795 H 0.03025 0.11094 0.71382 0.0
H796 H 0.07374 0.11215 0.79412 0.0
H797 H 0.18894 0.01951 0.02871 0.0
H798 H 0.15224 0.04849 0.0764 0.0
H799 H 0.14558 0.08182 0.82708 0.0
H800 H 0.18125 0.05248 0.77857 0.0
H801 H 0.09648 0.07397 0.88755 0.0
H802 H 0.18173 0.11661 0.99341 0.0
H803 H 0.22535 0.11836 0.07312 0.0
H804 H 0.18069 0.09908 0.29989 0.0
H805 H 0.13683 0.09689 0.22127 0.0
C806 C 0.03764 0.18453 0.0214 0.0
C807 C 0.02963 0.18711 0.1057 0.0
C808 C 0.0551 0.16389 0.99699 0.0
C809 C 0.0646 0.14506 0.05599 0.0
C810 C 0.05606 0.14722 0.1397 0.0
C811 C 0.03885 0.16795 0.16426 0.0
C812 C 0.08449 0.12401 0.0317 0.0
C813 C 0.10924 0.12283 0.07706 0.0
C814 C 0.07986 0.10599 0.96269 0.0
C815 C 0.05372 0.10514 0.91426 0.0
C816 C 0.02816 0.10064 0.95493 0.0
C817 C 1.00361 0.10009 0.90892 0.0
C818 C 0.00437 0.10383 0.82211 0.0
C819 C 0.02969 0.10806 0.78108 0.0
C820 C 0.05429 0.10865 0.82679 0.0
C821 C 0.17952 0.03286 0.98392 0.0
C822 C 0.18826 0.03361 0.89977 0.0
C823 C 0.15861 0.04958 0.01139 0.0
C824 C 0.14631 0.06778 0.95572 0.0
C825 C 0.15461 0.06804 0.87147 0.0
C826 C 0.17519 0.05119 0.84384 0.0
C827 C 0.12521 0.087 0.98454 0.0
C828 C 0.10026 0.08788 0.93998 0.0
C829 C 0.1297 0.10486 0.05401 0.0
C830 C 0.15604 0.10629 0.10133 0.0
C831 C 0.18124 0.11256 0.06017 0.0
C832 C 0.206 0.11366 0.10516 0.0
C833 C 0.2058 0.10876 0.19147 0.0
C834 C 0.18082 0.10283 0.23301 0.0
C835 C 0.15601 0.10167 0.18829 0.0
H836 H 0.22499 0.10962 0.2262 0.0
H837 H 0.98535 0.10341 0.7866 0.0
H838 H 1.00166 0.67908 0.22523 0.0
H839 H 0.96713 0.64285 0.26464 0.0
H840 H 0.91083 0.67375 0.08198 0.0
H841 H 0.94524 0.71075 0.04509 0.0
H842 H 0.88583 0.66736 0.22203 0.0
H843 H 0.94246 0.6097 0.06198 0.0
H844 H 0.98562 0.58926 0.01858 0.0
H845 H 0.99481 0.55539 0.26495 0.0
H846 H 0.95187 0.57594 0.31017 0.0
H847 H 0.82102 0.51675 0.24028 0.0
H848 H 0.85581 0.55185 0.19637 0.0
H849 H 0.83676 0.60045 0.41318 0.0
H850 H 0.79866 0.56754 0.44759 0.0
H851 H 0.89994 0.56793 0.25684 0.0
H852 H 0.85674 0.649 0.42035 0.0
H853 H 0.81634 0.67477 0.46111 0.0
H854 H 0.78535 0.66858 0.20942 0.0
H855 H 0.82575 0.64264 0.16799 0.0
C856 C 0.98186 0.67802 0.19366 0.0
C857 C 0.97551 0.69809 0.13459 0.0
C858 C 0.96231 0.65707 0.21514 0.0
C859 C 0.93634 0.65544 0.17616 0.0
C860 C 0.93066 0.67467 0.11331 0.0
C861 C 0.95023 0.69573 0.09215 0.0
C862 C 0.91429 0.63543 0.20636 0.0
C863 C 0.8891 0.64569 0.23048 0.0
C864 C 0.9183 0.60703 0.21679 0.0
C865 C 0.94406 0.59455 0.18963 0.0
C866 C 0.95378 0.59805 0.10707 0.0
C867 C 0.97819 0.58642 0.08212 0.0
C868 C 0.99298 0.57109 0.13902 0.0
C869 C 0.98334 0.56729 0.22096 0.0
C870 C 0.95895 0.5789 0.24626 0.0
C871 C 0.82308 0.53588 0.27496 0.0
C872 C 0.80571 0.54053 0.34293 0.0
C873 C 0.84354 0.55569 0.25144 0.0
C874 C 0.84845 0.57987 0.29895 0.0
C875 C 0.83235 0.58343 0.37113 0.0
C876 C 0.81088 0.56419 0.39209 0.0
C877 C 0.8714 0.60005 0.27414 0.0
C878 C 0.89688 0.58979 0.25054 0.0
C879 C 0.86805 0.62874 0.26628 0.0
C880 C 0.843 0.6423 0.2925 0.0
C881 C 0.84086 0.65253 0.37444 0.0
C882 C 0.81814 0.66731 0.39755 0.0
C883 C 0.79794 0.67277 0.33831 0.0
C884 C 0.80065 0.66376 0.25572 0.0
C885 C 0.82327 0.64878 0.23266 0.0
H886 H 0.78043 0.68434 0.35608 0.0
H887 H 0.01187 0.56211 0.11958 0.0
H888 H 0.29996 0.06853 0.92448 0.0
H889 H 0.33685 0.10143 0.8804 0.0
H890 H 0.35425 0.04914 0.67016 0.0
H891 H 0.32088 0.01424 0.72417 0.0
H892 H 0.39834 0.0665 0.71817 0.0
H893 H 0.32269 0.13477 0.63822 0.0
H894 H 0.28108 0.15954 0.67572 0.0
H895 H 0.31545 0.17785 0.91863 0.0
H896 H 0.35699 0.15323 0.88182 0.0
H897 H 0.44719 0.21328 0.53464 0.0
H898 H 0.4115 0.17666 0.56321 0.0
H899 H 0.46722 0.13807 0.73245 0.0
H900 H 0.50303 0.17374 0.70013 0.0
H901 H 0.38606 0.16673 0.69726 0.0
H902 H 0.45018 0.07198 0.7677 0.0
H903 H 0.49226 0.05114 0.71664 0.0
H904 H 0.48302 0.08994 0.47721 0.0
H905 H 0.44071 0.11072 0.52646 0.0
C906 C 0.31155 0.06434 0.8683 0.0
C907 C 0.30635 0.03963 0.82417 0.0
C908 C 0.33232 0.08353 0.8418 0.0
C909 C 0.34769 0.07889 0.7688 0.0
C910 C 0.34262 0.0538 0.72582 0.0
C911 C 0.3229 0.03406 0.75505 0.0
C912 C 0.37034 0.09885 0.7399 0.0
C913 C 0.39553 0.08845 0.71402 0.0
C914 C 0.36737 0.12767 0.73455 0.0
C915 C 0.34199 0.141 0.75882 0.0
C916 C 0.32078 0.14343 0.7003 0.0
C917 C 0.29746 0.15769 0.72106 0.0
C918 C 0.29539 0.16981 0.80007 0.0
C919 C 0.31687 0.16812 0.85789 0.0
C920 C 0.3403 0.15409 0.83699 0.0
C921 C 0.45176 0.19665 0.5768 0.0
C922 C 0.4773 0.19664 0.6177 0.0
C923 C 0.43145 0.1758 0.59331 0.0
C924 C 0.43655 0.15449 0.65013 0.0
C925 C 0.46275 0.15386 0.68732 0.0
C926 C 0.48307 0.17452 0.6701 0.0
C927 C 0.41387 0.13446 0.67633 0.0
C928 C 0.38887 0.14484 0.70201 0.0
C929 C 0.41714 0.10575 0.68168 0.0
C930 C 0.44239 0.09307 0.65107 0.0
C931 C 0.45705 0.07595 0.70403 0.0
C932 C 0.48097 0.06418 0.67543 0.0
C933 C 0.49035 0.06927 0.59381 0.0
C934 C 0.47579 0.08608 0.54051 0.0
C935 C 0.45186 0.09789 0.56878 0.0
H936 H 0.50887 0.06016 0.57181 0.0
H937 H 0.27731 0.18079 0.8161 0.0
H938 H 0.83888 0.97177 0.76166 0.0
H939 H 0.8768 0.94382 0.80369 0.0
H940 H 0.85073 0.94835 0.06155 0.0
H941 H 0.81322 0.97739 0.01986 0.0
H942 H 0.90525 0.94892 0.05533 0.0
H943 H 0.83188 0.89183 0.93158 0.0
H944 H 0.79842 0.87772 0.82138 0.0
H945 H 0.86471 0.86744 0.64798 0.0
H946 H 0.89861 0.88173 0.75708 0.0
H947 H 0.95658 0.82616 0.2131 0.0
H948 H 0.92903 0.8631 0.16383 0.0
H949 H 0.96383 0.8562 0.91661 0.0
H950 H 0.99154 0.8185 0.96544 0.0
H951 H 0.90827 0.85871 0.91065 0.0
H952 H 0.982 0.91134 0.04347 0.0
H953 H 0.01446 0.92392 0.15791 0.0
H954 H 0.94664 0.9414 0.31857 0.0
H955 H 0.91373 0.92852 0.20554 0.0
C956 C 0.84145 0.96719 0.82756 0.0
C957 C 0.82287 0.97663 0.88737 0.0
C958 C 0.86309 0.95103 0.8515 0.0
C959 C 0.86628 0.94322 0.93558 0.0
C960 C 0.84867 0.95389 0.99618 0.0
C961 C 0.82723 0.97054 0.97235 0.0
C962 C 0.88688 0.92277 0.95925 0.0
C963 C 0.90574 0.92912 0.02416 0.0
C964 C 0.88806 0.89705 0.91755 0.0
C965 C 0.86775 0.8881 0.85222 0.0
C966 C 0.83931 0.8867 0.86982 0.0
C967 C 0.82027 0.87867 0.80756 0.0
C968 C 0.82941 0.8718 0.72762 0.0
C969 C 0.85765 0.87282 0.70989 0.0
C970 C 0.87679 0.88084 0.77193 0.0
C971 C 0.95871 0.83249 0.14823 0.0
C972 C 0.97646 0.81919 0.09334 0.0
C973 C 0.94294 0.85386 0.12026 0.0
C974 C 0.94454 0.8628 0.03674 0.0
C975 C 0.96233 0.84977 0.98153 0.0
C976 C 0.97824 0.82828 0.00961 0.0
C977 C 0.92654 0.88478 0.00703 0.0
C978 C 0.90805 0.87866 0.94116 0.0
C979 C 0.92561 0.91057 0.04833 0.0
C980 C 0.94538 0.91878 0.11609 0.0
C981 C 0.97399 0.91771 0.10334 0.0
C982 C 0.99247 0.92491 0.16796 0.0
C983 C 0.98261 0.9334 0.24549 0.0
C984 C 0.95425 0.93481 0.25848 0.0
C985 C 0.93567 0.92759 0.19411 0.0
H986 H 0.99696 0.93893 0.29546 0.0
H987 H 0.81462 0.86562 0.6795 0.0
H988 H 0.06704 0.2972 0.07126 0.0
H989 H 0.10149 0.33321 0.11101 0.0
H990 H 0.05097 0.35441 0.32183 0.0
H991 H 0.01463 0.32188 0.27188 0.0
H992 H 0.06999 0.39741 0.27212 0.0
H993 H 0.13425 0.31808 0.3454 0.0
H994 H 0.157 0.27554 0.30486 0.0
H995 H 0.17788 0.31134 0.06557 0.0
H996 H 0.15526 0.35378 0.10544 0.0
H997 H 0.21625 0.43952 0.46583 0.0
H998 H 0.17887 0.40542 0.4297 0.0
H999 H 0.14601 0.46318 0.25525 0.0
H1000 H 0.18271 0.49736 0.29375 0.0
H1001 H 0.16964 0.38113 0.2885 0.0
H1002 H 0.07822 0.44933 0.22044 0.0
H1003 H 0.05942 0.49245 0.27127 0.0
H1004 H 0.09725 0.48123 0.51126 0.0
H1005 H 0.11596 0.43788 0.46223 0.0
C1006 C 0.06356 0.30943 0.12664 0.0
C1007 C 0.03892 0.30549 0.17216 0.0
C1008 C 0.08363 0.32974 0.15064 0.0
C1009 C 0.07996 0.34595 0.22254 0.0
C1010 C 0.05493 0.34215 0.26689 0.0
C1011 C 0.03434 0.32288 0.24011 0.0
C1012 C 0.10099 0.368 0.24933 0.0
C1013 C 0.09179 0.39368 0.27533 0.0
C1014 C 0.12972 0.36399 0.25274 0.0
C1015 C 0.14194 0.33822 0.22685 0.0
C1016 C 0.14302 0.3163 0.28345 0.0
C1017 C 0.15613 0.29245 0.26096 0.0
C1018 C 0.16842 0.29055 0.18211 0.0
C1019 C 0.16804 0.31267 0.12618 0.0
C1020 C 0.15515 0.33661 0.1488 0.0
C1021 C 0.20079 0.44487 0.42058 0.0
C1022 C 0.20268 0.47054 0.38036 0.0
C1023 C 0.1795 0.42546 0.39981 0.0
C1024 C 0.15953 0.43167 0.33971 0.0
C1025 C 0.16083 0.45793 0.3026 0.0
C1026 C 0.18202 0.4773 0.32362 0.0
C1027 C 0.13861 0.4101 0.31152 0.0
C1028 C 0.14788 0.38479 0.28466 0.0
C1029 C 0.11011 0.41462 0.30684 0.0
C1030 C 0.09868 0.44049 0.33734 0.0
C1031 C 0.08242 0.45601 0.28416 0.0
C1032 C 0.07181 0.4805 0.31264 0.0
C1033 C 0.07721 0.48961 0.39436 0.0
C1034 C 0.09317 0.4742 0.44788 0.0
C1035 C 0.10381 0.44969 0.41974 0.0
H1036 H 0.06899 0.50858 0.41627 0.0
H1037 H 0.17853 0.27207 0.16476 0.0
H1038 H 0.53476 0.66912 0.74387 0.0
H1039 H 0.566 0.63474 0.69715 0.0
H1040 H 0.55314 0.65834 0.44026 0.0
H1041 H 0.52148 0.69295 0.48645 0.0
H1042 H 0.55511 0.60204 0.45775 0.0
H1043 H 0.60947 0.68246 0.54212 0.0
H1044 H 0.62464 0.7202 0.63774 0.0
H1045 H 0.64985 0.66125 0.81886 0.0
H1046 H 0.63435 0.62312 0.72499 0.0
H1047 H 0.67447 0.54848 0.27962 0.0
H1048 H 0.63853 0.57739 0.32908 0.0
H1049 H 0.65511 0.55403 0.58408 0.0
H1050 H 0.69174 0.52509 0.53501 0.0
H1051 H 0.65061 0.6093 0.57015 0.0
H1052 H 0.59686 0.52873 0.48213 0.0
H1053 H 0.58171 0.49156 0.38454 0.0
H1054 H 0.55582 0.55151 0.20753 0.0
H1055 H 0.57117 0.58908 0.30359 0.0
C1056 C 0.53823 0.66693 0.67722 0.0
C1057 C 0.52563 0.6841 0.61903 0.0
C1058 C 0.55627 0.64725 0.65066 0.0
C1059 C 0.56234 0.64424 0.56531 0.0
C1060 C 0.54887 0.66037 0.50654 0.0
C1061 C 0.53075 0.68017 0.53309 0.0
C1062 C 0.58355 0.62502 0.53822 0.0
C1063 C 0.57607 0.60381 0.48156 0.0
C1064 C 0.6108 0.62697 0.57058 0.0
C1065 C 0.62049 0.6499 0.62677 0.0
C1066 C 0.61805 0.67753 0.6026 0.0
C1067 C 0.62673 0.699 0.65645 0.0
C1068 C 0.63816 0.69313 0.73436 0.0
C1069 C 0.64097 0.66577 0.75851 0.0
C1070 C 0.63225 0.64421 0.70499 0.0
C1071 C 0.67044 0.54916 0.34632 0.0
C1072 C 0.68611 0.53423 0.40322 0.0
C1073 C 0.6497 0.56573 0.3745 0.0
C1074 C 0.64382 0.56775 0.46031 0.0
C1075 C 0.65921 0.55277 0.5175 0.0
C1076 C 0.68005 0.53609 0.48928 0.0
C1077 C 0.62218 0.58619 0.48975 0.0
C1078 C 0.62961 0.60737 0.54671 0.0
C1079 C 0.59492 0.58429 0.45735 0.0
C1080 C 0.58537 0.56173 0.39983 0.0
C1081 C 0.5881 0.534 0.42217 0.0
C1082 C 0.57945 0.51286 0.36715 0.0
C1083 C 0.56787 0.51917 0.28981 0.0
C1084 C 0.56482 0.54665 0.26744 0.0
C1085 C 0.57345 0.56787 0.32219 0.0
H1086 H 0.56121 0.50277 0.24727 0.0
H1087 H 0.64489 0.70977 0.77592 0.0
loop_
_geom_bond_atom_site_label_1
_geom_bond_atom_site_label_2
_geom_bond_distance
_geom_bond_site_symmetry_2
_ccdc_geom_bond_type
Mn0 O5 2.095 . S
Mn0 O15 2.162 . S
Mn0 O16 2.297 . S
Mn0 O24 2.385 . S
Mn0 O25 2.209 . S
Mn0 O26 2.094 . S
Mn1 O6 2.121 . S
Mn1 N8 2.257 . S
Mn1 N17 2.282 . S
Mn1 O25 2.215 . S
Mn1 O27 2.117 . S
C2 O24 1.234 . S
C2 O25 1.283 . S
C3 O15 1.281 . S
C3 O16 1.236 . S
C4 O26 1.240 . S
C4 O27 1.264 . S
O5 Mn0 2.095 . S
O5 C14 1.250 . S
O6 Mn1 2.121 . S
O6 C14 1.258 . S
C7 N8 1.326 . S
C7 C11 1.460 1_554 S
C7 H13 0.929 . S
N8 Mn1 2.257 . S
N8 C7 1.326 . S
N8 C12 1.362 . S
C9 C10 1.258 1_554 S
C9 C12 1.431 . S
C9 C29 1.449 . S
C10 C9 1.258 1_556 S
C10 C11 1.477 . S
C10 H30 0.931 . S
C11 C7 1.460 1_556 S
C11 C10 1.477 . S
C11 H31 0.930 . S
C12 N8 1.362 . S
C12 C9 1.431 . S
C12 C22 1.476 . S
H13 C7 0.929 . S
C14 O5 1.250 . S
C14 O6 1.258 . S
O15 Mn0 2.162 . S
O15 C3 1.281 . S
O16 Mn0 2.297 . S
O16 C3 1.236 . S
N17 Mn1 2.282 . S
N17 C18 1.328 . S
N17 C22 1.318 . S
C18 N17 1.328 . S
C18 C19 1.457 . S
C18 H23 0.929 . S
C19 C18 1.457 . S
C19 C20 1.291 . S
C19 H32 0.931 . S
C20 C19 1.291 . S
C20 C21 1.373 . S
C20 H33 0.929 . S
C21 C20 1.373 . S
C21 C22 1.396 . S
C21 C28 1.403 . S
C22 C12 1.476 . S
C22 N17 1.318 . S
C22 C21 1.396 . S
H23 C18 0.929 . S
O24 Mn0 2.385 . S
O24 C2 1.234 . S
O25 Mn0 2.209 . S
O25 Mn1 2.215 . S
O25 C2 1.283 . S
O26 Mn0 2.094 . S
O26 C4 1.240 . S
O27 Mn1 2.117 . S
O27 C4 1.264 . S
C28 C21 1.403 . S
C28 C29 1.399 . S
C28 H34 0.929 . S
C29 C9 1.449 . S
C29 C28 1.399 . S
C29 H35 0.930 1_554 S
H30 C10 0.931 . S
H31 C11 0.930 . S
H32 C19 0.931 . S
H33 C20 0.929 . S
H34 C28 0.929 . S
H35 C29 0.930 1_556 S
Mn36 O41 2.095 . S
Mn36 O51 2.162 . S
Mn36 O52 2.297 . S
Mn36 O60 2.385 . S
Mn36 O61 2.209 . S
Mn36 O62 2.094 . S
Mn37 O42 2.121 . S
Mn37 N44 2.257 . S
Mn37 N53 2.282 . S
Mn37 O61 2.215 . S
Mn37 O63 2.117 . S
C38 O60 1.234 . S
C38 O61 1.283 . S
C39 O51 1.281 . S
C39 O52 1.236 . S
C40 O62 1.240 . S
C40 O63 1.264 . S
O41 Mn36 2.095 . S
O41 C50 1.250 . S
O42 Mn37 2.121 . S
O42 C50 1.258 . S
C43 N44 1.326 . S
C43 C47 1.460 1_556 S
C43 H49 0.929 . S
N44 Mn37 2.257 . S
N44 C43 1.326 . S
N44 C48 1.362 . S
C45 C46 1.258 1_556 S
C45 C48 1.431 . S
C45 C65 1.449 . S
C46 C45 1.258 1_554 S
C46 C47 1.477 . S
C46 H66 0.931 . S
C47 C43 1.460 1_554 S
C47 C46 1.477 . S
C47 H67 0.930 . S
C48 N44 1.362 . S
C48 C45 1.431 . S
C48 C58 1.476 . S
H49 C43 0.929 . S
C50 O41 1.250 . S
C50 O42 1.258 . S
O51 Mn36 2.162 . S
O51 C39 1.281 . S
O52 Mn36 2.297 . S
O52 C39 1.236 . S
N53 Mn37 2.282 . S
N53 C54 1.328 . S
N53 C58 1.318 . S
C54 N53 1.328 . S
C54 C55 1.457 . S
C54 H59 0.929 . S
C55 C54 1.457 . S
C55 C56 1.291 . S
C55 H68 0.931 . S
C56 C55 1.291 . S
C56 C57 1.373 . S
C56 H69 0.929 . S
C57 C56 1.373 . S
C57 C58 1.396 . S
C57 C64 1.403 . S
C58 C48 1.476 . S
C58 N53 1.318 . S
C58 C57 1.396 . S
H59 C54 0.929 . S
O60 Mn36 2.385 . S
O60 C38 1.234 . S
O61 Mn36 2.209 . S
O61 Mn37 2.215 . S
O61 C38 1.283 . S
O62 Mn36 2.094 . S
O62 C40 1.240 . S
O63 Mn37 2.117 . S
O63 C40 1.264 . S
C64 C57 1.403 . S
C64 C65 1.399 . S
C64 H70 0.929 . S
C65 C45 1.449 . S
C65 C64 1.399 . S
C65 H71 0.930 1_556 S
H66 C46 0.931 . S
H67 C47 0.930 . S
H68 C55 0.931 . S
H69 C56 0.929 . S
H70 C64 0.929 . S
H71 C65 0.930 1_554 S
Mn72 O77 2.095 . S
Mn72 O87 2.162 1_556 S
Mn72 O88 2.297 . S
Mn72 O96 2.385 1_565 S
Mn72 O97 2.209 . S
Mn72 O98 2.094 . S
Mn73 O78 2.121 1_545 S
Mn73 N80 2.257 . S
Mn73 N89 2.282 . S
Mn73 O97 2.215 1_545 S
Mn73 O99 2.117 . S
C74 O96 1.234 . S
C74 O97 1.283 1_545 S
C75 O87 1.281 1_556 S
C75 O88 1.236 . S
C76 O98 1.240 1_545 S
C76 O99 1.264 . S
O77 Mn72 2.095 . S
O77 C86 1.250 . S
O78 Mn73 2.121 1_565 S
O78 C86 1.258 . S
C79 N80 1.326 1_565 S
C79 C83 1.460 . S
C79 H85 0.929 . S
N80 Mn73 2.257 . S
N80 C79 1.326 1_545 S
N80 C84 1.362 . S
C81 C82 1.258 . S
C81 C84 1.431 . S
C81 C101 1.449 . S
C82 C81 1.258 . S
C82 C83 1.477 1_545 S
C82 H102 0.931 . S
C83 C79 1.460 . S
C83 C82 1.477 1_565 S
C83 H103 0.930 . S
C84 N80 1.362 . S
C84 C81 1.431 . S
C84 C94 1.476 . S
H85 C79 0.929 . S
C86 O77 1.250 . S
C86 O78 1.258 . S
O87 Mn72 2.162 1_554 S
O87 C75 1.281 1_554 S
O88 Mn72 2.297 . S
O88 C75 1.236 . S
N89 Mn73 2.282 . S
N89 C90 1.328 . S
N89 C94 1.318 . S
C90 N89 1.328 . S
C90 C91 1.457 . S
C90 H95 0.929 . S
C91 C90 1.457 . S
C91 C92 1.291 . S
C91 H104 0.931 . S
C92 C91 1.291 . S
C92 C93 1.373 . S
C92 H105 0.929 . S
C93 C92 1.373 . S
C93 C94 1.396 . S
C93 C100 1.403 . S
C94 C84 1.476 . S
C94 N89 1.318 . S
C94 C93 1.396 . S
H95 C90 0.929 . S
O96 Mn72 2.385 1_545 S
O96 C74 1.234 . S
O97 Mn72 2.209 . S
O97 Mn73 2.215 1_565 S
O97 C74 1.283 1_565 S
O98 Mn72 2.094 . S
O98 C76 1.240 1_565 S
O99 Mn73 2.117 . S
O99 C76 1.264 . S
C100 C93 1.403 . S
C100 C101 1.399 . S
C100 H106 0.929 . S
C101 C81 1.449 . S
C101 C100 1.399 . S
C101 H107 0.930 . S
H102 C82 0.931 . S
H103 C83 0.930 . S
H104 C91 0.931 . S
H105 C92 0.929 . S
H106 C100 0.929 . S
H107 C101 0.930 . S
Mn108 O113 2.095 . S
Mn108 O123 2.162 1_554 S
Mn108 O124 2.297 . S
Mn108 O132 2.385 1_455 S
Mn108 O133 2.209 . S
Mn108 O134 2.094 . S
Mn109 O114 2.121 1_655 S
Mn109 N116 2.257 . S
Mn109 N125 2.282 . S
Mn109 O133 2.215 1_655 S
Mn109 O135 2.117 . S
C110 O132 1.234 . S
C110 O133 1.283 1_655 S
C111 O123 1.281 1_554 S
C111 O124 1.236 . S
C112 O134 1.240 1_655 S
C112 O135 1.264 . S
O113 Mn108 2.095 . S
O113 C122 1.250 . S
O114 Mn109 2.121 1_455 S
O114 C122 1.258 . S
C115 N116 1.326 1_455 S
C115 C119 1.460 . S
C115 H121 0.929 . S
N116 Mn109 2.257 . S
N116 C115 1.326 1_655 S
N116 C120 1.362 . S
C117 C118 1.258 . S
C117 C120 1.431 . S
C117 C137 1.449 . S
C118 C117 1.258 . S
C118 C119 1.477 1_655 S
C118 H138 0.931 . S
C119 C115 1.460 . S
C119 C118 1.477 1_455 S
C119 H139 0.930 . S
C120 N116 1.362 . S
C120 C117 1.431 . S
C120 C130 1.476 . S
H121 C115 0.929 . S
C122 O113 1.250 . S
C122 O114 1.258 . S
O123 Mn108 2.162 1_556 S
O123 C111 1.281 1_556 S
O124 Mn108 2.297 . S
O124 C111 1.236 . S
N125 Mn109 2.282 . S
N125 C126 1.328 . S
N125 C130 1.318 . S
C126 N125 1.328 . S
C126 C127 1.457 . S
C126 H131 0.929 . S
C127 C126 1.457 . S
C127 C128 1.291 . S
C127 H140 0.931 . S
C128 C127 1.291 . S
C128 C129 1.373 . S
C128 H141 0.929 . S
C129 C128 1.373 . S
C129 C130 1.396 . S
C129 C136 1.403 . S
C130 C120 1.476 . S
C130 N125 1.318 . S
C130 C129 1.396 . S
H131 C126 0.929 . S
O132 Mn108 2.385 1_655 S
O132 C110 1.234 . S
O133 Mn108 2.209 . S
O133 Mn109 2.215 1_455 S
O133 C110 1.283 1_455 S
O134 Mn108 2.094 . S
O134 C112 1.240 1_455 S
O135 Mn109 2.117 . S
O135 C112 1.264 . S
C136 C129 1.403 . S
C136 C137 1.399 . S
C136 H142 0.929 . S
C137 C117 1.449 . S
C137 C136 1.399 . S
C137 H143 0.930 . S
H138 C118 0.931 . S
H139 C119 0.930 . S
H140 C127 0.931 . S
H141 C128 0.929 . S
H142 C136 0.929 . S
H143 C137 0.930 . S
Mn144 O149 2.095 . S
Mn144 O159 2.162 1_556 S
Mn144 O160 2.297 . S
Mn144 O168 2.385 1_545 S
Mn144 O169 2.209 . S
Mn144 O170 2.094 . S
Mn145 O150 2.121 1_565 S
Mn145 N152 2.257 . S
Mn145 N161 2.282 . S
Mn145 O169 2.215 1_565 S
Mn145 O171 2.117 . S
C146 O168 1.234 . S
C146 O169 1.283 1_565 S
C147 O159 1.281 1_556 S
C147 O160 1.236 . S
C148 O170 1.240 1_565 S
C148 O171 1.264 . S
O149 Mn144 2.095 . S
O149 C158 1.250 . S
O150 Mn145 2.121 1_545 S
O150 C158 1.258 . S
C151 N152 1.326 1_545 S
C151 C155 1.460 . S
C151 H157 0.929 . S
N152 Mn145 2.257 . S
N152 C151 1.326 1_565 S
N152 C156 1.362 . S
C153 C154 1.258 . S
C153 C156 1.431 . S
C153 C173 1.449 . S
C154 C153 1.258 . S
C154 C155 1.477 1_565 S
C154 H174 0.931 . S
C155 C151 1.460 . S
C155 C154 1.477 1_545 S
C155 H175 0.930 . S
C156 N152 1.362 . S
C156 C153 1.431 . S
C156 C166 1.476 . S
H157 C151 0.929 . S
C158 O149 1.250 . S
C158 O150 1.258 . S
O159 Mn144 2.162 1_554 S
O159 C147 1.281 1_554 S
O160 Mn144 2.297 . S
O160 C147 1.236 . S
N161 Mn145 2.282 . S
N161 C162 1.328 . S
N161 C166 1.318 . S
C162 N161 1.328 . S
C162 C163 1.457 . S
C162 H167 0.929 . S
C163 C162 1.457 . S
C163 C164 1.291 . S
C163 H176 0.931 . S
C164 C163 1.291 . S
C164 C165 1.373 . S
C164 H177 0.929 . S
C165 C164 1.373 . S
C165 C166 1.396 . S
C165 C172 1.403 . S
C166 C156 1.476 . S
C166 N161 1.318 . S
C166 C165 1.396 . S
H167 C162 0.929 . S
O168 Mn144 2.385 1_565 S
O168 C146 1.234 . S
O169 Mn144 2.209 . S
O169 Mn145 2.215 1_545 S
O169 C146 1.283 1_545 S
O170 Mn144 2.094 . S
O170 C148 1.240 1_545 S
O171 Mn145 2.117 . S
O171 C148 1.264 . S
C172 C165 1.403 . S
C172 C173 1.399 . S
C172 H178 0.929 . S
C173 C153 1.449 . S
C173 C172 1.399 . S
C173 H179 0.930 . S
H174 C154 0.931 . S
H175 C155 0.930 . S
H176 C163 0.931 . S
H177 C164 0.929 . S
H178 C172 0.929 . S
H179 C173 0.930 . S
Mn180 O185 2.095 . S
Mn180 O195 2.162 1_554 S
Mn180 O196 2.297 . S
Mn180 O204 2.385 1_655 S
Mn180 O205 2.209 . S
Mn180 O206 2.094 . S
Mn181 O186 2.121 1_455 S
Mn181 N188 2.257 . S
Mn181 N197 2.282 . S
Mn181 O205 2.215 1_455 S
Mn181 O207 2.117 . S
C182 O204 1.234 . S
C182 O205 1.283 1_455 S
C183 O195 1.281 1_554 S
C183 O196 1.236 . S
C184 O206 1.240 1_455 S
C184 O207 1.264 . S
O185 Mn180 2.095 . S
O185 C194 1.250 . S
O186 Mn181 2.121 1_655 S
O186 C194 1.258 . S
C187 N188 1.326 1_655 S
C187 C191 1.460 . S
C187 H193 0.929 . S
N188 Mn181 2.257 . S
N188 C187 1.326 1_455 S
N188 C192 1.362 . S
C189 C190 1.258 . S
C189 C192 1.431 . S
C189 C209 1.449 . S
C190 C189 1.258 . S
C190 C191 1.477 1_455 S
C190 H210 0.931 . S
C191 C187 1.460 . S
C191 C190 1.477 1_655 S
C191 H211 0.930 . S
C192 N188 1.362 . S
C192 C189 1.431 . S
C192 C202 1.476 . S
H193 C187 0.929 . S
C194 O185 1.250 . S
C194 O186 1.258 . S
O195 Mn180 2.162 1_556 S
O195 C183 1.281 1_556 S
O196 Mn180 2.297 . S
O196 C183 1.236 . S
N197 Mn181 2.282 . S
N197 C198 1.328 . S
N197 C202 1.318 . S
C198 N197 1.328 . S
C198 C199 1.457 . S
C198 H203 0.929 . S
C199 C198 1.457 . S
C199 C200 1.291 . S
C199 H212 0.931 . S
C200 C199 1.291 . S
C200 C201 1.373 . S
C200 H213 0.929 . S
C201 C200 1.373 . S
C201 C202 1.396 . S
C201 C208 1.403 . S
C202 C192 1.476 . S
C202 N197 1.318 . S
C202 C201 1.396 . S
H203 C198 0.929 . S
O204 Mn180 2.385 1_455 S
O204 C182 1.234 . S
O205 Mn180 2.209 . S
O205 Mn181 2.215 1_655 S
O205 C182 1.283 1_655 S
O206 Mn180 2.094 . S
O206 C184 1.240 1_655 S
O207 Mn181 2.117 . S
O207 C184 1.264 . S
C208 C201 1.403 . S
C208 C209 1.399 . S
C208 H214 0.929 . S
C209 C189 1.449 . S
C209 C208 1.399 . S
C209 H215 0.930 . S
H210 C190 0.931 . S
H211 C191 0.930 . S
H212 C199 0.931 . S
H213 C200 0.929 . S
H214 C208 0.929 . S
H215 C209 0.930 . S
Mn216 O221 2.095 . S
Mn216 O231 2.162 . S
Mn216 O232 2.297 . S
Mn216 O240 2.385 . S
Mn216 O241 2.209 . S
Mn216 O242 2.094 . S
Mn217 O222 2.121 . S
Mn217 N224 2.257 . S
Mn217 N233 2.282 . S
Mn217 O241 2.215 . S
Mn217 O243 2.117 . S
C218 O240 1.234 . S
C218 O241 1.283 . S
C219 O231 1.281 . S
C219 O232 1.236 . S
C220 O242 1.240 . S
C220 O243 1.264 . S
O221 Mn216 2.095 . S
O221 C230 1.250 . S
O222 Mn217 2.121 . S
O222 C230 1.258 . S
C223 N224 1.326 . S
C223 C227 1.460 1_554 S
C223 H229 0.929 . S
N224 Mn217 2.257 . S
N224 C223 1.326 . S
N224 C228 1.362 . S
C225 C226 1.258 1_554 S
C225 C228 1.431 . S
C225 C245 1.449 . S
C226 C225 1.258 1_556 S
C226 C227 1.477 . S
C226 H246 0.931 . S
C227 C223 1.460 1_556 S
C227 C226 1.477 . S
C227 H247 0.930 . S
C228 N224 1.362 . S
C228 C225 1.431 . S
C228 C238 1.476 . S
H229 C223 0.929 . S
C230 O221 1.250 . S
C230 O222 1.258 . S
O231 Mn216 2.162 . S
O231 C219 1.281 . S
O232 Mn216 2.297 . S
O232 C219 1.236 . S
N233 Mn217 2.282 . S
N233 C234 1.328 . S
N233 C238 1.318 . S
C234 N233 1.328 . S
C234 C235 1.457 . S
C234 H239 0.929 . S
C235 C234 1.457 . S
C235 C236 1.291 . S
C235 H248 0.931 . S
C236 C235 1.291 . S
C236 C237 1.373 . S
C236 H249 0.929 . S
C237 C236 1.373 . S
C237 C238 1.396 . S
C237 C244 1.403 . S
C238 C228 1.476 . S
C238 N233 1.318 . S
C238 C237 1.396 . S
H239 C234 0.929 . S
O240 Mn216 2.385 . S
O240 C218 1.234 . S
O241 Mn216 2.209 . S
O241 Mn217 2.215 . S
O241 C218 1.283 . S
O242 Mn216 2.094 . S
O242 C220 1.240 . S
O243 Mn217 2.117 . S
O243 C220 1.264 . S
C244 C237 1.403 . S
C244 C245 1.399 . S
C244 H250 0.929 . S
C245 C225 1.449 . S
C245 C244 1.399 . S
C245 H251 0.930 1_554 S
H246 C226 0.931 . S
H247 C227 0.930 . S
H248 C235 0.931 . S
H249 C236 0.929 . S
H250 C244 0.929 . S
H251 C245 0.930 1_556 S
Mn252 O257 2.095 . S
Mn252 O267 2.162 . S
Mn252 O268 2.297 . S
Mn252 O276 2.385 . S
Mn252 O277 2.209 . S
Mn252 O278 2.094 . S
Mn253 O258 2.121 . S
Mn253 N260 2.257 . S
Mn253 N269 2.282 . S
Mn253 O277 2.215 . S
Mn253 O279 2.117 . S
C254 O276 1.234 . S
C254 O277 1.283 . S
C255 O267 1.281 . S
C255 O268 1.236 . S
C256 O278 1.240 . S
C256 O279 1.264 . S
O257 Mn252 2.095 . S
O257 C266 1.250 . S
O258 Mn253 2.121 . S
O258 C266 1.258 . S
C259 N260 1.326 . S
C259 C263 1.460 1_556 S
C259 H265 0.929 . S
N260 Mn253 2.257 . S
N260 C259 1.326 . S
N260 C264 1.362 . S
C261 C262 1.258 1_556 S
C261 C264 1.431 . S
C261 C281 1.449 . S
C262 C261 1.258 1_554 S
C262 C263 1.477 . S
C262 H282 0.931 . S
C263 C259 1.460 1_554 S
C263 C262 1.477 . S
C263 H283 0.930 . S
C264 N260 1.362 . S
C264 C261 1.431 . S
C264 C274 1.476 . S
H265 C259 0.929 . S
C266 O257 1.250 . S
C266 O258 1.258 . S
O267 Mn252 2.162 . S
O267 C255 1.281 . S
O268 Mn252 2.297 . S
O268 C255 1.236 . S
N269 Mn253 2.282 . S
N269 C270 1.328 . S
N269 C274 1.318 . S
C270 N269 1.328 . S
C270 C271 1.457 . S
C270 H275 0.929 . S
C271 C270 1.457 . S
C271 C272 1.291 . S
C271 H284 0.931 . S
C272 C271 1.291 . S
C272 C273 1.373 . S
C272 H285 0.929 . S
C273 C272 1.373 . S
C273 C274 1.396 . S
C273 C280 1.403 . S
C274 C264 1.476 . S
C274 N269 1.318 . S
C274 C273 1.396 . S
H275 C270 0.929 . S
O276 Mn252 2.385 . S
O276 C254 1.234 . S
O277 Mn252 2.209 . S
O277 Mn253 2.215 . S
O277 C254 1.283 . S
O278 Mn252 2.094 . S
O278 C256 1.240 . S
O279 Mn253 2.117 . S
O279 C256 1.264 . S
C280 C273 1.403 . S
C280 C281 1.399 . S
C280 H286 0.929 . S
C281 C261 1.449 . S
C281 C280 1.399 . S
C281 H287 0.930 1_556 S
H282 C262 0.931 . S
H283 C263 0.930 . S
H284 C271 0.931 . S
H285 C272 0.929 . S
H286 C280 0.929 . S
H287 C281 0.930 1_554 S
H288 C306 0.951 . S
H289 C308 0.951 . S
H290 C310 0.950 . S
H291 C311 0.950 . S
H292 C313 0.950 . S
H293 C316 0.950 . S
H294 C317 0.950 . S
H295 C319 0.950 . S
H296 C320 0.950 . S
H297 C321 0.951 . S
H298 C323 0.951 . S
H299 C325 0.950 . S
H300 C326 0.950 . S
H301 C328 0.950 . S
H302 C331 0.950 . S
H303 C332 0.950 . S
H304 C334 0.950 . S
H305 C335 0.950 . S
C306 H288 0.951 . S
C306 C307 1.366 . S
C306 C308 1.388 . S
C307 C306 1.366 . S
C307 C311 1.385 . S
C308 H289 0.951 . S
C308 C306 1.388 . S
C308 C309 1.366 . S
C309 C308 1.366 . S
C309 C310 1.414 . S
C309 C312 1.499 . S
C310 H290 0.950 . S
C310 C309 1.414 . S
C310 C311 1.374 . S
C311 H291 0.950 . S
C311 C307 1.385 . S
C311 C310 1.374 . S
C312 C309 1.499 . S
C312 C313 1.373 . S
C312 C314 1.389 1_556 S
C313 H292 0.950 . S
C313 C312 1.373 . S
C313 C329 1.377 . S
C314 C312 1.389 1_554 S
C314 C315 1.524 . S
C314 C328 1.377 . S
C315 C314 1.524 . S
C315 C316 1.397 . S
C315 C320 1.363 . S
C316 H293 0.950 . S
C316 C315 1.397 . S
C316 C317 1.334 . S
C317 H294 0.950 . S
C317 C316 1.334 . S
C317 C318 1.287 . S
C318 C317 1.287 . S
C318 C319 1.524 . S
C318 H337 0.913 . S
C319 H295 0.950 . S
C319 C318 1.524 . S
C319 C320 1.415 . S
C320 H296 0.950 . S
C320 C315 1.363 . S
C320 C319 1.415 . S
C321 H297 0.951 . S
C321 C322 1.366 . S
C321 C323 1.388 . S
C322 C321 1.366 . S
C322 C326 1.385 . S
C323 H298 0.951 . S
C323 C321 1.388 . S
C323 C324 1.366 . S
C324 C323 1.366 . S
C324 C325 1.414 . S
C324 C327 1.499 . S
C325 H299 0.950 . S
C325 C324 1.414 . S
C325 C326 1.374 . S
C326 H300 0.950 . S
C326 C322 1.385 . S
C326 C325 1.374 . S
C327 C324 1.499 . S
C327 C328 1.373 . S
C327 C329 1.389 1_554 S
C328 H301 0.950 . S
C328 C314 1.377 . S
C328 C327 1.373 . S
C329 C313 1.377 . S
C329 C327 1.389 1_556 S
C329 C330 1.524 . S
C330 C329 1.524 . S
C330 C331 1.397 . S
C330 C335 1.363 . S
C331 H302 0.950 . S
C331 C330 1.397 . S
C331 C332 1.334 . S
C332 H303 0.950 . S
C332 C331 1.334 . S
C332 C333 1.287 . S
C333 C332 1.287 . S
C333 C334 1.524 . S
C333 H336 0.999 . S
C334 H304 0.950 . S
C334 C333 1.524 . S
C334 C335 1.415 . S
C335 H305 0.950 . S
C335 C330 1.363 . S
C335 C334 1.415 . S
H336 C333 0.999 . S
H337 C318 0.913 . S
H338 C356 0.951 . S
H339 C358 0.951 . S
H340 C360 0.950 . S
H341 C361 0.950 . S
H342 C363 0.950 . S
H343 C366 0.950 . S
H344 C367 0.950 . S
H345 C369 0.950 . S
H346 C370 0.950 . S
H347 C371 0.951 1_556 S
H348 C373 0.951 . S
H349 C375 0.950 . S
H350 C376 0.950 . S
H351 C378 0.950 . S
H352 C381 0.950 . S
H353 C382 0.950 . S
H354 C384 0.950 . S
H355 C385 0.950 . S
C356 H338 0.951 . S
C356 C357 1.366 . S
C356 C358 1.388 . S
C357 C356 1.366 . S
C357 C361 1.385 . S
C358 H339 0.951 . S
C358 C356 1.388 . S
C358 C359 1.366 . S
C359 C358 1.366 . S
C359 C360 1.414 . S
C359 C362 1.499 . S
C360 H340 0.950 . S
C360 C359 1.414 . S
C360 C361 1.374 . S
C361 H341 0.950 . S
C361 C357 1.385 . S
C361 C360 1.374 . S
C362 C359 1.499 . S
C362 C363 1.373 . S
C362 C364 1.389 . S
C363 H342 0.950 . S
C363 C362 1.373 . S
C363 C379 1.377 . S
C364 C362 1.389 . S
C364 C365 1.524 . S
C364 C378 1.377 . S
C365 C364 1.524 . S
C365 C366 1.397 . S
C365 C370 1.363 . S
C366 H343 0.950 . S
C366 C365 1.397 . S
C366 C367 1.334 . S
C367 H344 0.950 . S
C367 C366 1.334 . S
C367 C368 1.287 . S
C368 C367 1.287 . S
C368 C369 1.524 . S
C368 H387 0.913 . S
C369 H345 0.950 . S
C369 C368 1.524 . S
C369 C370 1.415 . S
C370 H346 0.950 . S
C370 C365 1.363 . S
C370 C369 1.415 . S
C371 H347 0.951 1_554 S
C371 C372 1.366 . S
C371 C373 1.388 . S
C372 C371 1.366 . S
C372 C376 1.385 . S
C373 H348 0.951 . S
C373 C371 1.388 . S
C373 C374 1.366 . S
C374 C373 1.366 . S
C374 C375 1.414 . S
C374 C377 1.499 . S
C375 H349 0.950 . S
C375 C374 1.414 . S
C375 C376 1.374 . S
C376 H350 0.950 . S
C376 C372 1.385 . S
C376 C375 1.374 . S
C377 C374 1.499 . S
C377 C378 1.373 . S
C377 C379 1.389 . S
C378 H351 0.950 . S
C378 C364 1.377 . S
C378 C377 1.373 . S
C379 C363 1.377 . S
C379 C377 1.389 . S
C379 C380 1.524 . S
C380 C379 1.524 . S
C380 C381 1.397 . S
C380 C385 1.363 . S
C381 H352 0.950 . S
C381 C380 1.397 . S
C381 C382 1.334 . S
C382 H353 0.950 . S
C382 C381 1.334 . S
C382 C383 1.287 1_554 S
C383 C382 1.287 1_556 S
C383 C384 1.524 . S
C383 H386 0.999 . S
C384 H354 0.950 . S
C384 C383 1.524 . S
C384 C385 1.415 1_556 S
C385 H355 0.950 . S
C385 C380 1.363 . S
C385 C384 1.415 1_554 S
H386 C383 0.999 . S
H387 C368 0.913 . S
H388 C406 0.951 . S
H389 C408 0.951 . S
H390 C410 0.950 . S
H391 C411 0.950 . S
H392 C413 0.950 . S
H393 C416 0.950 . S
H394 C417 0.950 . S
H395 C419 0.950 . S
H396 C420 0.950 . S
H397 C421 0.951 . S
H398 C423 0.951 . S
H399 C425 0.950 . S
H400 C426 0.950 . S
H401 C428 0.950 . S
H402 C431 0.950 . S
H403 C432 0.950 . S
H404 C434 0.950 . S
H405 C435 0.950 . S
C406 H388 0.951 . S
C406 C407 1.366 . S
C406 C408 1.388 . S
C407 C406 1.366 . S
C407 C411 1.385 . S
C408 H389 0.951 . S
C408 C406 1.388 . S
C408 C409 1.366 . S
C409 C408 1.366 . S
C409 C410 1.414 . S
C409 C412 1.499 . S
C410 H390 0.950 . S
C410 C409 1.414 . S
C410 C411 1.374 . S
C411 H391 0.950 . S
C411 C407 1.385 . S
C411 C410 1.374 . S
C412 C409 1.499 . S
C412 C413 1.373 . S
C412 C414 1.389 . S
C413 H392 0.950 . S
C413 C412 1.373 . S
C413 C429 1.377 . S
C414 C412 1.389 . S
C414 C415 1.524 . S
C414 C428 1.377 . S
C415 C414 1.524 . S
C415 C416 1.397 . S
C415 C420 1.363 . S
C416 H393 0.950 . S
C416 C415 1.397 . S
C416 C417 1.334 . S
C417 H394 0.950 . S
C417 C416 1.334 . S
C417 C418 1.287 . S
C418 C417 1.287 . S
C418 C419 1.524 . S
C418 H437 0.913 . S
C419 H395 0.950 . S
C419 C418 1.524 . S
C419 C420 1.415 . S
C420 H396 0.950 . S
C420 C415 1.363 . S
C420 C419 1.415 . S
C421 H397 0.951 . S
C421 C422 1.366 . S
C421 C423 1.388 . S
C422 C421 1.366 . S
C422 C426 1.385 . S
C423 H398 0.951 . S
C423 C421 1.388 . S
C423 C424 1.366 . S
C424 C423 1.366 . S
C424 C425 1.414 . S
C424 C427 1.499 . S
C425 H399 0.950 . S
C425 C424 1.414 . S
C425 C426 1.374 . S
C426 H400 0.950 . S
C426 C422 1.385 . S
C426 C425 1.374 . S
C427 C424 1.499 . S
C427 C428 1.373 . S
C427 C429 1.389 . S
C428 H401 0.950 . S
C428 C414 1.377 . S
C428 C427 1.373 . S
C429 C413 1.377 . S
C429 C427 1.389 . S
C429 C430 1.524 . S
C430 C429 1.524 . S
C430 C431 1.397 . S
C430 C435 1.363 . S
C431 H402 0.950 . S
C431 C430 1.397 . S
C431 C432 1.334 . S
C432 H403 0.950 . S
C432 C431 1.334 . S
C432 C433 1.287 . S
C433 C432 1.287 . S
C433 C434 1.524 . S
C433 H436 0.999 . S
C434 H404 0.950 . S
C434 C433 1.524 . S
C434 C435 1.415 . S
C435 H405 0.950 . S
C435 C430 1.363 . S
C435 C434 1.415 . S
H436 C433 0.999 . S
H437 C418 0.913 . S
H438 C456 0.951 . S
H439 C458 0.951 . S
H440 C460 0.950 . S
H441 C461 0.950 . S
H442 C463 0.950 . S
H443 C466 0.950 . S
H444 C467 0.950 . S
H445 C469 0.950 . S
H446 C470 0.950 . S
H447 C471 0.951 . S
H448 C473 0.951 . S
H449 C475 0.950 . S
H450 C476 0.950 . S
H451 C478 0.950 . S
H452 C481 0.950 . S
H453 C482 0.950 . S
H454 C484 0.950 . S
H455 C485 0.950 . S
C456 H438 0.951 . S
C456 C457 1.366 . S
C456 C458 1.388 . S
C457 C456 1.366 . S
C457 C461 1.385 . S
C458 H439 0.951 . S
C458 C456 1.388 . S
C458 C459 1.366 . S
C459 C458 1.366 . S
C459 C460 1.414 . S
C459 C462 1.499 . S
C460 H440 0.950 . S
C460 C459 1.414 . S
C460 C461 1.374 . S
C461 H441 0.950 . S
C461 C457 1.385 . S
C461 C460 1.374 . S
C462 C459 1.499 . S
C462 C463 1.373 . S
C462 C464 1.389 . S
C463 H442 0.950 . S
C463 C462 1.373 . S
C463 C479 1.377 . S
C464 C462 1.389 . S
C464 C465 1.524 . S
C464 C478 1.377 . S
C465 C464 1.524 . S
C465 C466 1.397 . S
C465 C470 1.363 . S
C466 H443 0.950 . S
C466 C465 1.397 . S
C466 C467 1.334 1_556 S
C467 H444 0.950 . S
C467 C466 1.334 1_554 S
C467 C468 1.287 . S
C468 C467 1.287 . S
C468 C469 1.524 1_554 S
C468 H487 0.913 . S
C469 H445 0.950 . S
C469 C468 1.524 1_556 S
C469 C470 1.415 . S
C470 H446 0.950 . S
C470 C465 1.363 . S
C470 C469 1.415 . S
C471 H447 0.951 . S
C471 C472 1.366 . S
C471 C473 1.388 . S
C472 C471 1.366 . S
C472 C476 1.385 . S
C473 H448 0.951 . S
C473 C471 1.388 . S
C473 C474 1.366 . S
C474 C473 1.366 . S
C474 C475 1.414 . S
C474 C477 1.499 . S
C475 H449 0.950 . S
C475 C474 1.414 . S
C475 C476 1.374 . S
C476 H450 0.950 . S
C476 C472 1.385 . S
C476 C475 1.374 . S
C477 C474 1.499 . S
C477 C478 1.373 . S
C477 C479 1.389 . S
C478 H451 0.950 . S
C478 C464 1.377 . S
C478 C477 1.373 . S
C479 C463 1.377 . S
C479 C477 1.389 . S
C479 C480 1.524 . S
C480 C479 1.524 . S
C480 C481 1.397 . S
C480 C485 1.363 . S
C481 H452 0.950 . S
C481 C480 1.397 . S
C481 C482 1.334 . S
C482 H453 0.950 . S
C482 C481 1.334 . S
C482 C483 1.287 . S
C483 C482 1.287 . S
C483 C484 1.524 . S
C483 H486 0.999 . S
C484 H454 0.950 . S
C484 C483 1.524 . S
C484 C485 1.415 . S
C485 H455 0.950 . S
C485 C480 1.363 . S
C485 C484 1.415 . S
H486 C483 0.999 . S
H487 C468 0.913 . S
H488 C506 0.951 . S
H489 C508 0.951 . S
H490 C510 0.950 . S
H491 C511 0.950 . S
H492 C513 0.950 . S
H493 C516 0.950 . S
H494 C517 0.950 . S
H495 C519 0.950 . S
H496 C520 0.950 . S
H497 C521 0.951 . S
H498 C523 0.951 . S
H499 C525 0.950 . S
H500 C526 0.950 . S
H501 C528 0.950 . S
H502 C531 0.950 . S
H503 C532 0.950 . S
H504 C534 0.950 . S
H505 C535 0.950 . S
C506 H488 0.951 . S
C506 C507 1.366 . S
C506 C508 1.388 . S
C507 C506 1.366 . S
C507 C511 1.385 . S
C508 H489 0.951 . S
C508 C506 1.388 . S
C508 C509 1.366 . S
C509 C508 1.366 . S
C509 C510 1.414 . S
C509 C512 1.499 . S
C510 H490 0.950 . S
C510 C509 1.414 . S
C510 C511 1.374 . S
C511 H491 0.950 . S
C511 C507 1.385 . S
C511 C510 1.374 . S
C512 C509 1.499 . S
C512 C513 1.373 . S
C512 C514 1.389 . S
C513 H492 0.950 . S
C513 C512 1.373 . S
C513 C529 1.377 . S
C514 C512 1.389 . S
C514 C515 1.524 . S
C514 C528 1.377 . S
C515 C514 1.524 . S
C515 C516 1.397 . S
C515 C520 1.363 . S
C516 H493 0.950 . S
C516 C515 1.397 . S
C516 C517 1.334 . S
C517 H494 0.950 . S
C517 C516 1.334 . S
C517 C518 1.287 . S
C518 C517 1.287 . S
C518 C519 1.524 . S
C518 H537 0.913 . S
C519 H495 0.950 . S
C519 C518 1.524 . S
C519 C520 1.415 . S
C520 H496 0.950 . S
C520 C515 1.363 . S
C520 C519 1.415 . S
C521 H497 0.951 . S
C521 C522 1.366 . S
C521 C523 1.388 . S
C522 C521 1.366 . S
C522 C526 1.385 . S
C523 H498 0.951 . S
C523 C521 1.388 . S
C523 C524 1.366 . S
C524 C523 1.366 . S
C524 C525 1.414 . S
C524 C527 1.499 . S
C525 H499 0.950 . S
C525 C524 1.414 . S
C525 C526 1.374 . S
C526 H500 0.950 . S
C526 C522 1.385 . S
C526 C525 1.374 . S
C527 C524 1.499 . S
C527 C528 1.373 . S
C527 C529 1.389 . S
C528 H501 0.950 . S
C528 C514 1.377 . S
C528 C527 1.373 . S
C529 C513 1.377 . S
C529 C527 1.389 . S
C529 C530 1.524 . S
C530 C529 1.524 . S
C530 C531 1.397 . S
C530 C535 1.363 . S
C531 H502 0.950 . S
C531 C530 1.397 . S
C531 C532 1.334 . S
C532 H503 0.950 . S
C532 C531 1.334 . S
C532 C533 1.287 . S
C533 C532 1.287 . S
C533 C534 1.524 . S
C533 H536 0.999 . S
C534 H504 0.950 . S
C534 C533 1.524 . S
C534 C535 1.415 . S
C535 H505 0.950 . S
C535 C530 1.363 . S
C535 C534 1.415 . S
H536 C533 0.999 . S
H537 C518 0.913 . S
H538 C556 0.951 1_554 S
H539 C558 0.951 . S
H540 C560 0.950 . S
H541 C561 0.950 . S
H542 C563 0.950 . S
H543 C566 0.950 . S
H544 C567 0.950 1_554 S
H545 C569 0.950 . S
H546 C570 0.950 . S
H547 C571 0.951 . S
H548 C573 0.951 . S
H549 C575 0.950 . S
H550 C576 0.950 . S
H551 C578 0.950 . S
H552 C581 0.950 . S
H553 C582 0.950 . S
H554 C584 0.950 . S
H555 C585 0.950 . S
C556 H538 0.951 1_556 S
C556 C557 1.366 . S
C556 C558 1.388 . S
C557 C556 1.366 . S
C557 C561 1.385 . S
C558 H539 0.951 . S
C558 C556 1.388 . S
C558 C559 1.366 . S
C559 C558 1.366 . S
C559 C560 1.414 . S
C559 C562 1.499 . S
C560 H540 0.950 . S
C560 C559 1.414 . S
C560 C561 1.374 . S
C561 H541 0.950 . S
C561 C557 1.385 . S
C561 C560 1.374 . S
C562 C559 1.499 . S
C562 C563 1.373 . S
C562 C564 1.389 . S
C563 H542 0.950 . S
C563 C562 1.373 . S
C563 C579 1.377 . S
C564 C562 1.389 . S
C564 C565 1.524 . S
C564 C578 1.377 . S
C565 C564 1.524 . S
C565 C566 1.397 . S
C565 C570 1.363 . S
C566 H543 0.950 . S
C566 C565 1.397 . S
C566 C567 1.334 . S
C567 H544 0.950 1_556 S
C567 C566 1.334 . S
C567 C568 1.287 1_556 S
C568 C567 1.287 1_554 S
C568 C569 1.524 . S
C568 H587 0.913 . S
C569 H545 0.950 . S
C569 C568 1.524 . S
C569 C570 1.415 1_554 S
C570 H546 0.950 . S
C570 C565 1.363 . S
C570 C569 1.415 1_556 S
C571 H547 0.951 . S
C571 C572 1.366 . S
C571 C573 1.388 . S
C572 C571 1.366 . S
C572 C576 1.385 . S
C573 H548 0.951 . S
C573 C571 1.388 . S
C573 C574 1.366 . S
C574 C573 1.366 . S
C574 C575 1.414 . S
C574 C577 1.499 . S
C575 H549 0.950 . S
C575 C574 1.414 . S
C575 C576 1.374 . S
C576 H550 0.950 . S
C576 C572 1.385 . S
C576 C575 1.374 . S
C577 C574 1.499 . S
C577 C578 1.373 . S
C577 C579 1.389 . S
C578 H551 0.950 . S
C578 C564 1.377 . S
C578 C577 1.373 . S
C579 C563 1.377 . S
C579 C577 1.389 . S
C579 C580 1.524 . S
C580 C579 1.524 . S
C580 C581 1.397 . S
C580 C585 1.363 . S
C581 H552 0.950 . S
C581 C580 1.397 . S
C581 C582 1.334 . S
C582 H553 0.950 . S
C582 C581 1.334 . S
C582 C583 1.287 . S
C583 C582 1.287 . S
C583 C584 1.524 . S
C583 H586 0.999 . S
C584 H554 0.950 . S
C584 C583 1.524 . S
C584 C585 1.415 . S
C585 H555 0.950 . S
C585 C580 1.363 . S
C585 C584 1.415 . S
H586 C583 0.999 . S
H587 C568 0.913 . S
H588 C606 0.951 . S
H589 C608 0.951 . S
H590 C610 0.950 . S
H591 C611 0.950 . S
H592 C613 0.950 . S
H593 C616 0.950 . S
H594 C617 0.950 . S
H595 C619 0.950 . S
H596 C620 0.950 . S
H597 C621 0.951 . S
H598 C623 0.951 . S
H599 C625 0.950 . S
H600 C626 0.950 . S
H601 C628 0.950 . S
H602 C631 0.950 . S
H603 C632 0.950 . S
H604 C634 0.950 . S
H605 C635 0.950 . S
C606 H588 0.951 . S
C606 C607 1.366 . S
C606 C608 1.388 . S
C607 C606 1.366 . S
C607 C611 1.385 . S
C608 H589 0.951 . S
C608 C606 1.388 . S
C608 C609 1.366 . S
C609 C608 1.366 . S
C609 C610 1.414 . S
C609 C612 1.499 . S
C610 H590 0.950 . S
C610 C609 1.414 . S
C610 C611 1.374 . S
C611 H591 0.950 . S
C611 C607 1.385 . S
C611 C610 1.374 . S
C612 C609 1.499 . S
C612 C613 1.373 . S
C612 C614 1.389 1_554 S
C613 H592 0.950 . S
C613 C612 1.373 . S
C613 C629 1.377 . S
C614 C612 1.389 1_556 S
C614 C615 1.524 . S
C614 C628 1.377 . S
C615 C614 1.524 . S
C615 C616 1.397 1_556 S
C615 C620 1.363 . S
C616 H593 0.950 . S
C616 C615 1.397 1_554 S
C616 C617 1.334 . S
C617 H594 0.950 . S
C617 C616 1.334 . S
C617 C618 1.287 1_554 S
C618 C617 1.287 1_556 S
C618 C619 1.524 . S
C618 H637 0.913 . S
C619 H595 0.950 . S
C619 C618 1.524 . S
C619 C620 1.415 . S
C620 H596 0.950 . S
C620 C615 1.363 . S
C620 C619 1.415 . S
C621 H597 0.951 . S
C621 C622 1.366 . S
C621 C623 1.388 . S
C622 C621 1.366 . S
C622 C626 1.385 . S
C623 H598 0.951 . S
C623 C621 1.388 . S
C623 C624 1.366 . S
C624 C623 1.366 . S
C624 C625 1.414 . S
C624 C627 1.499 . S
C625 H599 0.950 . S
C625 C624 1.414 . S
C625 C626 1.374 . S
C626 H600 0.950 . S
C626 C622 1.385 . S
C626 C625 1.374 . S
C627 C624 1.499 . S
C627 C628 1.373 . S
C627 C629 1.389 1_556 S
C628 H601 0.950 . S
C628 C614 1.377 . S
C628 C627 1.373 . S
C629 C613 1.377 . S
C629 C627 1.389 1_554 S
C629 C630 1.524 . S
C630 C629 1.524 . S
C630 C631 1.397 1_554 S
C630 C635 1.363 . S
C631 H602 0.950 . S
C631 C630 1.397 1_556 S
C631 C632 1.334 . S
C632 H603 0.950 . S
C632 C631 1.334 . S
C632 C633 1.287 1_556 S
C633 C632 1.287 1_554 S
C633 C634 1.524 . S
C633 H636 0.999 . S
C634 H604 0.950 . S
C634 C633 1.524 . S
C634 C635 1.415 . S
C635 H605 0.950 . S
C635 C630 1.363 . S
C635 C634 1.415 . S
H636 C633 0.999 . S
H637 C618 0.913 . S
H638 C656 0.951 . S
H639 C658 0.951 . S
H640 C660 0.950 . S
H641 C661 0.950 . S
H642 C663 0.950 . S
H643 C666 0.950 . S
H644 C667 0.950 . S
H645 C669 0.950 . S
H646 C670 0.950 . S
H647 C671 0.951 . S
H648 C673 0.951 . S
H649 C675 0.950 . S
H650 C676 0.950 . S
H651 C678 0.950 . S
H652 C681 0.950 . S
H653 C682 0.950 . S
H654 C684 0.950 . S
H655 C685 0.950 . S
C656 H638 0.951 . S
C656 C657 1.366 . S
C656 C658 1.388 . S
C657 C656 1.366 . S
C657 C661 1.385 . S
C658 H639 0.951 . S
C658 C656 1.388 . S
C658 C659 1.366 . S
C659 C658 1.366 . S
C659 C660 1.414 . S
C659 C662 1.499 . S
C660 H640 0.950 . S
C660 C659 1.414 . S
C660 C661 1.374 . S
C661 H641 0.950 . S
C661 C657 1.385 . S
C661 C660 1.374 . S
C662 C659 1.499 . S
C662 C663 1.373 . S
C662 C664 1.389 . S
C663 H642 0.950 . S
C663 C662 1.373 . S
C663 C679 1.377 . S
C664 C662 1.389 . S
C664 C665 1.524 . S
C664 C678 1.377 . S
C665 C664 1.524 . S
C665 C666 1.397 . S
C665 C670 1.363 . S
C666 H643 0.950 . S
C666 C665 1.397 . S
C666 C667 1.334 . S
C667 H644 0.950 . S
C667 C666 1.334 . S
C667 C668 1.287 . S
C668 C667 1.287 . S
C668 C669 1.524 . S
C668 H687 0.913 . S
C669 H645 0.950 . S
C669 C668 1.524 . S
C669 C670 1.415 . S
C670 H646 0.950 . S
C670 C665 1.363 . S
C670 C669 1.415 . S
C671 H647 0.951 . S
C671 C672 1.366 . S
C671 C673 1.388 . S
C672 C671 1.366 . S
C672 C676 1.385 . S
C673 H648 0.951 . S
C673 C671 1.388 . S
C673 C674 1.366 . S
C674 C673 1.366 . S
C674 C675 1.414 . S
C674 C677 1.499 . S
C675 H649 0.950 . S
C675 C674 1.414 . S
C675 C676 1.374 . S
C676 H650 0.950 . S
C676 C672 1.385 . S
C676 C675 1.374 . S
C677 C674 1.499 . S
C677 C678 1.373 . S
C677 C679 1.389 . S
C678 H651 0.950 . S
C678 C664 1.377 . S
C678 C677 1.373 . S
C679 C663 1.377 . S
C679 C677 1.389 . S
C679 C680 1.524 . S
C680 C679 1.524 . S
C680 C681 1.397 . S
C680 C685 1.363 . S
C681 H652 0.950 . S
C681 C680 1.397 . S
C681 C682 1.334 . S
C682 H653 0.950 . S
C682 C681 1.334 . S
C682 C683 1.287 . S
C683 C682 1.287 . S
C683 C684 1.524 . S
C683 H686 0.999 . S
C684 H654 0.950 . S
C684 C683 1.524 . S
C684 C685 1.415 . S
C685 H655 0.950 . S
C685 C680 1.363 . S
C685 C684 1.415 . S
H686 C683 0.999 . S
H687 C668 0.913 . S
H688 C706 0.951 . S
H689 C708 0.951 . S
H690 C710 0.950 . S
H691 C711 0.950 . S
H692 C713 0.950 . S
H693 C716 0.950 . S
H694 C717 0.950 . S
H695 C719 0.950 . S
H696 C720 0.950 . S
H697 C721 0.951 . S
H698 C723 0.951 . S
H699 C725 0.950 . S
H700 C726 0.950 . S
H701 C728 0.950 . S
H702 C731 0.950 . S
H703 C732 0.950 . S
H704 C734 0.950 . S
H705 C735 0.950 . S
C706 H688 0.951 . S
C706 C707 1.366 . S
C706 C708 1.388 . S
C707 C706 1.366 . S
C707 C711 1.385 . S
C708 H689 0.951 . S
C708 C706 1.388 . S
C708 C709 1.366 . S
C709 C708 1.366 . S
C709 C710 1.414 . S
C709 C712 1.499 . S
C710 H690 0.950 . S
C710 C709 1.414 . S
C710 C711 1.374 . S
C711 H691 0.950 . S
C711 C707 1.385 . S
C711 C710 1.374 . S
C712 C709 1.499 . S
C712 C713 1.373 . S
C712 C714 1.389 . S
C713 H692 0.950 . S
C713 C712 1.373 . S
C713 C729 1.377 . S
C714 C712 1.389 . S
C714 C715 1.524 . S
C714 C728 1.377 . S
C715 C714 1.524 . S
C715 C716 1.397 . S
C715 C720 1.363 . S
C716 H693 0.950 . S
C716 C715 1.397 . S
C716 C717 1.334 . S
C717 H694 0.950 . S
C717 C716 1.334 . S
C717 C718 1.287 . S
C718 C717 1.287 . S
C718 C719 1.524 . S
C718 H737 0.913 . S
C719 H695 0.950 . S
C719 C718 1.524 . S
C719 C720 1.415 . S
C720 H696 0.950 . S
C720 C715 1.363 . S
C720 C719 1.415 . S
C721 H697 0.951 . S
C721 C722 1.366 . S
C721 C723 1.388 . S
C722 C721 1.366 . S
C722 C726 1.385 . S
C723 H698 0.951 . S
C723 C721 1.388 . S
C723 C724 1.366 . S
C724 C723 1.366 . S
C724 C725 1.414 . S
C724 C727 1.499 . S
C725 H699 0.950 . S
C725 C724 1.414 . S
C725 C726 1.374 . S
C726 H700 0.950 . S
C726 C722 1.385 . S
C726 C725 1.374 . S
C727 C724 1.499 . S
C727 C728 1.373 . S
C727 C729 1.389 . S
C728 H701 0.950 . S
C728 C714 1.377 . S
C728 C727 1.373 . S
C729 C713 1.377 . S
C729 C727 1.389 . S
C729 C730 1.524 . S
C730 C729 1.524 . S
C730 C731 1.397 . S
C730 C735 1.363 . S
C731 H702 0.950 . S
C731 C730 1.397 . S
C731 C732 1.334 . S
C732 H703 0.950 . S
C732 C731 1.334 . S
C732 C733 1.287 . S
C733 C732 1.287 . S
C733 C734 1.524 . S
C733 H736 0.999 . S
C734 H704 0.950 . S
C734 C733 1.524 . S
C734 C735 1.415 . S
C735 H705 0.950 . S
C735 C730 1.363 . S
C735 C734 1.415 . S
H736 C733 0.999 . S
H737 C718 0.913 . S
H738 C756 0.951 . S
H739 C758 0.951 . S
H740 C760 0.950 . S
H741 C761 0.950 . S
H742 C763 0.950 . S
H743 C766 0.950 . S
H744 C767 0.950 . S
H745 C769 0.950 . S
H746 C770 0.950 . S
H747 C771 0.951 . S
H748 C773 0.951 . S
H749 C775 0.950 . S
H750 C776 0.950 . S
H751 C778 0.950 . S
H752 C781 0.950 . S
H753 C782 0.950 . S
H754 C784 0.950 . S
H755 C785 0.950 . S
C756 H738 0.951 . S
C756 C757 1.366 . S
C756 C758 1.388 . S
C757 C756 1.366 . S
C757 C761 1.385 . S
C758 H739 0.951 . S
C758 C756 1.388 . S
C758 C759 1.366 . S
C759 C758 1.366 . S
C759 C760 1.414 . S
C759 C762 1.499 . S
C760 H740 0.950 . S
C760 C759 1.414 . S
C760 C761 1.374 . S
C761 H741 0.950 . S
C761 C757 1.385 . S
C761 C760 1.374 . S
C762 C759 1.499 . S
C762 C763 1.373 . S
C762 C764 1.389 . S
C763 H742 0.950 . S
C763 C762 1.373 . S
C763 C779 1.377 . S
C764 C762 1.389 . S
C764 C765 1.524 . S
C764 C778 1.377 . S
C765 C764 1.524 . S
C765 C766 1.397 . S
C765 C770 1.363 . S
C766 H743 0.950 . S
C766 C765 1.397 . S
C766 C767 1.334 . S
C767 H744 0.950 . S
C767 C766 1.334 . S
C767 C768 1.287 . S
C768 C767 1.287 . S
C768 C769 1.524 . S
C768 H787 0.913 . S
C769 H745 0.950 . S
C769 C768 1.524 . S
C769 C770 1.415 . S
C770 H746 0.950 . S
C770 C765 1.363 . S
C770 C769 1.415 . S
C771 H747 0.951 . S
C771 C772 1.366 . S
C771 C773 1.388 . S
C772 C771 1.366 . S
C772 C776 1.385 . S
C773 H748 0.951 . S
C773 C771 1.388 . S
C773 C774 1.366 . S
C774 C773 1.366 . S
C774 C775 1.414 . S
C774 C777 1.499 . S
C775 H749 0.950 . S
C775 C774 1.414 . S
C775 C776 1.374 . S
C776 H750 0.950 . S
C776 C772 1.385 . S
C776 C775 1.374 . S
C777 C774 1.499 . S
C777 C778 1.373 . S
C777 C779 1.389 . S
C778 H751 0.950 . S
C778 C764 1.377 . S
C778 C777 1.373 . S
C779 C763 1.377 . S
C779 C777 1.389 . S
C779 C780 1.524 . S
C780 C779 1.524 . S
C780 C781 1.397 . S
C780 C785 1.363 . S
C781 H752 0.950 . S
C781 C780 1.397 . S
C781 C782 1.334 . S
C782 H753 0.950 . S
C782 C781 1.334 . S
C782 C783 1.287 . S
C783 C782 1.287 . S
C783 C784 1.524 1_556 S
C783 H786 0.999 1_556 S
C784 H754 0.950 . S
C784 C783 1.524 1_554 S
C784 C785 1.415 1_554 S
C785 H755 0.950 . S
C785 C780 1.363 . S
C785 C784 1.415 1_556 S
H786 C783 0.999 1_554 S
H787 C768 0.913 . S
H788 C806 0.951 . S
H789 C808 0.951 1_556 S
H790 C810 0.950 . S
H791 C811 0.950 . S
H792 C813 0.950 . S
H793 C816 0.950 . S
H794 C817 0.950 . S
H795 C819 0.950 . S
H796 C820 0.950 . S
H797 C821 0.951 . S
H798 C823 0.951 1_554 S
H799 C825 0.950 . S
H800 C826 0.950 . S
H801 C828 0.950 . S
H802 C831 0.950 . S
H803 C832 0.950 . S
H804 C834 0.950 . S
H805 C835 0.950 . S
C806 H788 0.951 . S
C806 C807 1.366 . S
C806 C808 1.388 . S
C807 C806 1.366 . S
C807 C811 1.385 . S
C808 H789 0.951 1_554 S
C808 C806 1.388 . S
C808 C809 1.366 . S
C809 C808 1.366 . S
C809 C810 1.414 . S
C809 C812 1.499 . S
C810 H790 0.950 . S
C810 C809 1.414 . S
C810 C811 1.374 . S
C811 H791 0.950 . S
C811 C807 1.385 . S
C811 C810 1.374 . S
C812 C809 1.499 . S
C812 C813 1.373 . S
C812 C814 1.389 1_554 S
C813 H792 0.950 . S
C813 C812 1.373 . S
C813 C829 1.377 . S
C814 C812 1.389 1_556 S
C814 C815 1.524 . S
C814 C828 1.377 . S
C815 C814 1.524 . S
C815 C816 1.397 . S
C815 C820 1.363 . S
C816 H793 0.950 . S
C816 C815 1.397 . S
C816 C817 1.334 . S
C817 H794 0.950 . S
C817 C816 1.334 . S
C817 C818 1.287 . S
C818 C817 1.287 . S
C818 C819 1.524 . S
C818 H837 0.913 . S
C819 H795 0.950 . S
C819 C818 1.524 . S
C819 C820 1.415 . S
C820 H796 0.950 . S
C820 C815 1.363 . S
C820 C819 1.415 . S
C821 H797 0.951 . S
C821 C822 1.366 . S
C821 C823 1.388 . S
C822 C821 1.366 . S
C822 C826 1.385 . S
C823 H798 0.951 1_556 S
C823 C821 1.388 . S
C823 C824 1.366 . S
C824 C823 1.366 . S
C824 C825 1.414 . S
C824 C827 1.499 . S
C825 H799 0.950 . S
C825 C824 1.414 . S
C825 C826 1.374 . S
C826 H800 0.950 . S
C826 C822 1.385 . S
C826 C825 1.374 . S
C827 C824 1.499 . S
C827 C828 1.373 . S
C827 C829 1.389 1_556 S
C828 H801 0.950 . S
C828 C814 1.377 . S
C828 C827 1.373 . S
C829 C813 1.377 . S
C829 C827 1.389 1_554 S
C829 C830 1.524 . S
C830 C829 1.524 . S
C830 C831 1.397 . S
C830 C835 1.363 . S
C831 H802 0.950 . S
C831 C830 1.397 . S
C831 C832 1.334 . S
C832 H803 0.950 . S
C832 C831 1.334 . S
C832 C833 1.287 . S
C833 C832 1.287 . S
C833 C834 1.524 . S
C833 H836 0.999 . S
C834 H804 0.950 . S
C834 C833 1.524 . S
C834 C835 1.415 . S
C835 H805 0.950 . S
C835 C830 1.363 . S
C835 C834 1.415 . S
H836 C833 0.999 . S
H837 C818 0.913 . S
H838 C856 0.951 . S
H839 C858 0.951 . S
H840 C860 0.950 . S
H841 C861 0.950 . S
H842 C863 0.950 . S
H843 C866 0.950 . S
H844 C867 0.950 . S
H845 C869 0.950 . S
H846 C870 0.950 . S
H847 C871 0.951 . S
H848 C873 0.951 . S
H849 C875 0.950 . S
H850 C876 0.950 . S
H851 C878 0.950 . S
H852 C881 0.950 . S
H853 C882 0.950 . S
H854 C884 0.950 . S
H855 C885 0.950 . S
C856 H838 0.951 . S
C856 C857 1.366 . S
C856 C858 1.388 . S
C857 C856 1.366 . S
C857 C861 1.385 . S
C858 H839 0.951 . S
C858 C856 1.388 . S
C858 C859 1.366 . S
C859 C858 1.366 . S
C859 C860 1.414 . S
C859 C862 1.499 . S
C860 H840 0.950 . S
C860 C859 1.414 . S
C860 C861 1.374 . S
C861 H841 0.950 . S
C861 C857 1.385 . S
C861 C860 1.374 . S
C862 C859 1.499 . S
C862 C863 1.373 . S
C862 C864 1.389 . S
C863 H842 0.950 . S
C863 C862 1.373 . S
C863 C879 1.377 . S
C864 C862 1.389 . S
C864 C865 1.524 . S
C864 C878 1.377 . S
C865 C864 1.524 . S
C865 C866 1.397 . S
C865 C870 1.363 . S
C866 H843 0.950 . S
C866 C865 1.397 . S
C866 C867 1.334 . S
C867 H844 0.950 . S
C867 C866 1.334 . S
C867 C868 1.287 . S
C868 C867 1.287 . S
C868 C869 1.524 . S
C868 H887 0.913 1_655 S
C869 H845 0.950 . S
C869 C868 1.524 . S
C869 C870 1.415 . S
C870 H846 0.950 . S
C870 C865 1.363 . S
C870 C869 1.415 . S
C871 H847 0.951 . S
C871 C872 1.366 . S
C871 C873 1.388 . S
C872 C871 1.366 . S
C872 C876 1.385 . S
C873 H848 0.951 . S
C873 C871 1.388 . S
C873 C874 1.366 . S
C874 C873 1.366 . S
C874 C875 1.414 . S
C874 C877 1.499 . S
C875 H849 0.950 . S
C875 C874 1.414 . S
C875 C876 1.374 . S
C876 H850 0.950 . S
C876 C872 1.385 . S
C876 C875 1.374 . S
C877 C874 1.499 . S
C877 C878 1.373 . S
C877 C879 1.389 . S
C878 H851 0.950 . S
C878 C864 1.377 . S
C878 C877 1.373 . S
C879 C863 1.377 . S
C879 C877 1.389 . S
C879 C880 1.524 . S
C880 C879 1.524 . S
C880 C881 1.397 . S
C880 C885 1.363 . S
C881 H852 0.950 . S
C881 C880 1.397 . S
C881 C882 1.334 . S
C882 H853 0.950 . S
C882 C881 1.334 . S
C882 C883 1.287 . S
C883 C882 1.287 . S
C883 C884 1.524 . S
C883 H886 0.999 . S
C884 H854 0.950 . S
C884 C883 1.524 . S
C884 C885 1.415 . S
C885 H855 0.950 . S
C885 C880 1.363 . S
C885 C884 1.415 . S
H886 C883 0.999 . S
H887 C868 0.913 1_455 S
H888 C906 0.951 . S
H889 C908 0.951 . S
H890 C910 0.950 . S
H891 C911 0.950 . S
H892 C913 0.950 . S
H893 C916 0.950 . S
H894 C917 0.950 . S
H895 C919 0.950 . S
H896 C920 0.950 . S
H897 C921 0.951 . S
H898 C923 0.951 . S
H899 C925 0.950 . S
H900 C926 0.950 . S
H901 C928 0.950 . S
H902 C931 0.950 . S
H903 C932 0.950 . S
H904 C934 0.950 . S
H905 C935 0.950 . S
C906 H888 0.951 . S
C906 C907 1.366 . S
C906 C908 1.388 . S
C907 C906 1.366 . S
C907 C911 1.385 . S
C908 H889 0.951 . S
C908 C906 1.388 . S
C908 C909 1.366 . S
C909 C908 1.366 . S
C909 C910 1.414 . S
C909 C912 1.499 . S
C910 H890 0.950 . S
C910 C909 1.414 . S
C910 C911 1.374 . S
C911 H891 0.950 . S
C911 C907 1.385 . S
C911 C910 1.374 . S
C912 C909 1.499 . S
C912 C913 1.373 . S
C912 C914 1.389 . S
C913 H892 0.950 . S
C913 C912 1.373 . S
C913 C929 1.377 . S
C914 C912 1.389 . S
C914 C915 1.524 . S
C914 C928 1.377 . S
C915 C914 1.524 . S
C915 C916 1.397 . S
C915 C920 1.363 . S
C916 H893 0.950 . S
C916 C915 1.397 . S
C916 C917 1.334 . S
C917 H894 0.950 . S
C917 C916 1.334 . S
C917 C918 1.287 . S
C918 C917 1.287 . S
C918 C919 1.524 . S
C918 H937 0.913 . S
C919 H895 0.950 . S
C919 C918 1.524 . S
C919 C920 1.415 . S
C920 H896 0.950 . S
C920 C915 1.363 . S
C920 C919 1.415 . S
C921 H897 0.951 . S
C921 C922 1.366 . S
C921 C923 1.388 . S
C922 C921 1.366 . S
C922 C926 1.385 . S
C923 H898 0.951 . S
C923 C921 1.388 . S
C923 C924 1.366 . S
C924 C923 1.366 . S
C924 C925 1.414 . S
C924 C927 1.499 . S
C925 H899 0.950 . S
C925 C924 1.414 . S
C925 C926 1.374 . S
C926 H900 0.950 . S
C926 C922 1.385 . S
C926 C925 1.374 . S
C927 C924 1.499 . S
C927 C928 1.373 . S
C927 C929 1.389 . S
C928 H901 0.950 . S
C928 C914 1.377 . S
C928 C927 1.373 . S
C929 C913 1.377 . S
C929 C927 1.389 . S
C929 C930 1.524 . S
C930 C929 1.524 . S
C930 C931 1.397 . S
C930 C935 1.363 . S
C931 H902 0.950 . S
C931 C930 1.397 . S
C931 C932 1.334 . S
C932 H903 0.950 . S
C932 C931 1.334 . S
C932 C933 1.287 . S
C933 C932 1.287 . S
C933 C934 1.524 . S
C933 H936 0.999 . S
C934 H904 0.950 . S
C934 C933 1.524 . S
C934 C935 1.415 . S
C935 H905 0.950 . S
C935 C930 1.363 . S
C935 C934 1.415 . S
H936 C933 0.999 . S
H937 C918 0.913 . S
H938 C956 0.951 . S
H939 C958 0.951 . S
H940 C960 0.950 1_554 S
H941 C961 0.950 . S
H942 C963 0.950 . S
H943 C966 0.950 . S
H944 C967 0.950 . S
H945 C969 0.950 . S
H946 C970 0.950 . S
H947 C971 0.951 . S
H948 C973 0.951 . S
H949 C975 0.950 1_556 S
H950 C976 0.950 . S
H951 C978 0.950 . S
H952 C981 0.950 . S
H953 C982 0.950 . S
H954 C984 0.950 . S
H955 C985 0.950 . S
C956 H938 0.951 . S
C956 C957 1.366 . S
C956 C958 1.388 . S
C957 C956 1.366 . S
C957 C961 1.385 . S
C958 H939 0.951 . S
C958 C956 1.388 . S
C958 C959 1.366 . S
C959 C958 1.366 . S
C959 C960 1.414 . S
C959 C962 1.499 . S
C960 H940 0.950 1_556 S
C960 C959 1.414 . S
C960 C961 1.374 . S
C961 H941 0.950 . S
C961 C957 1.385 . S
C961 C960 1.374 . S
C962 C959 1.499 . S
C962 C963 1.373 1_556 S
C962 C964 1.389 . S
C963 H942 0.950 . S
C963 C962 1.373 1_554 S
C963 C979 1.377 . S
C964 C962 1.389 . S
C964 C965 1.524 . S
C964 C978 1.377 . S
C965 C964 1.524 . S
C965 C966 1.397 . S
C965 C970 1.363 . S
C966 H943 0.950 . S
C966 C965 1.397 . S
C966 C967 1.334 . S
C967 H944 0.950 . S
C967 C966 1.334 . S
C967 C968 1.287 . S
C968 C967 1.287 . S
C968 C969 1.524 . S
C968 H987 0.913 . S
C969 H945 0.950 . S
C969 C968 1.524 . S
C969 C970 1.415 . S
C970 H946 0.950 . S
C970 C965 1.363 . S
C970 C969 1.415 . S
C971 H947 0.951 . S
C971 C972 1.366 . S
C971 C973 1.388 . S
C972 C971 1.366 . S
C972 C976 1.385 . S
C973 H948 0.951 . S
C973 C971 1.388 . S
C973 C974 1.366 . S
C974 C973 1.366 . S
C974 C975 1.414 . S
C974 C977 1.499 . S
C975 H949 0.950 1_554 S
C975 C974 1.414 . S
C975 C976 1.374 . S
C976 H950 0.950 . S
C976 C972 1.385 . S
C976 C975 1.374 . S
C977 C974 1.499 . S
C977 C978 1.373 1_554 S
C977 C979 1.389 . S
C978 H951 0.950 . S
C978 C964 1.377 . S
C978 C977 1.373 1_556 S
C979 C963 1.377 . S
C979 C977 1.389 . S
C979 C980 1.524 . S
C980 C979 1.524 . S
C980 C981 1.397 . S
C980 C985 1.363 . S
C981 H952 0.950 . S
C981 C980 1.397 . S
C981 C982 1.334 . S
C982 H953 0.950 . S
C982 C981 1.334 . S
C982 C983 1.287 . S
C983 C982 1.287 . S
C983 C984 1.524 . S
C983 H986 0.999 . S
C984 H954 0.950 . S
C984 C983 1.524 . S
C984 C985 1.415 . S
C985 H955 0.950 . S
C985 C980 1.363 . S
C985 C984 1.415 . S
H986 C983 0.999 . S
H987 C968 0.913 . S
H988 C1006 0.951 . S
H989 C1008 0.951 . S
H990 C1010 0.950 . S
H991 C1011 0.950 . S
H992 C1013 0.950 . S
H993 C1016 0.950 . S
H994 C1017 0.950 . S
H995 C1019 0.950 . S
H996 C1020 0.950 . S
H997 C1021 0.951 . S
H998 C1023 0.951 . S
H999 C1025 0.950 . S
H1000 C1026 0.950 . S
H1001 C1028 0.950 . S
H1002 C1031 0.950 . S
H1003 C1032 0.950 . S
H1004 C1034 0.950 . S
H1005 C1035 0.950 . S
C1006 H988 0.951 . S
C1006 C1007 1.366 . S
C1006 C1008 1.388 . S
C1007 C1006 1.366 . S
C1007 C1011 1.385 . S
C1008 H989 0.951 . S
C1008 C1006 1.388 . S
C1008 C1009 1.366 . S
C1009 C1008 1.366 . S
C1009 C1010 1.414 . S
C1009 C1012 1.499 . S
C1010 H990 0.950 . S
C1010 C1009 1.414 . S
C1010 C1011 1.374 . S
C1011 H991 0.950 . S
C1011 C1007 1.385 . S
C1011 C1010 1.374 . S
C1012 C1009 1.499 . S
C1012 C1013 1.373 . S
C1012 C1014 1.389 . S
C1013 H992 0.950 . S
C1013 C1012 1.373 . S
C1013 C1029 1.377 . S
C1014 C1012 1.389 . S
C1014 C1015 1.524 . S
C1014 C1028 1.377 . S
C1015 C1014 1.524 . S
C1015 C1016 1.397 . S
C1015 C1020 1.363 . S
C1016 H993 0.950 . S
C1016 C1015 1.397 . S
C1016 C1017 1.334 . S
C1017 H994 0.950 . S
C1017 C1016 1.334 . S
C1017 C1018 1.287 1_554 S
C1018 C1017 1.287 1_556 S
C1018 C1019 1.524 . S
C1018 H1037 0.913 . S
C1019 H995 0.950 . S
C1019 C1018 1.524 . S
C1019 C1020 1.415 1_556 S
C1020 H996 0.950 . S
C1020 C1015 1.363 . S
C1020 C1019 1.415 1_554 S
C1021 H997 0.951 . S
C1021 C1022 1.366 . S
C1021 C1023 1.388 . S
C1022 C1021 1.366 . S
C1022 C1026 1.385 . S
C1023 H998 0.951 . S
C1023 C1021 1.388 . S
C1023 C1024 1.366 . S
C1024 C1023 1.366 . S
C1024 C1025 1.414 . S
C1024 C1027 1.499 . S
C1025 H999 0.950 . S
C1025 C1024 1.414 . S
C1025 C1026 1.374 . S
C1026 H1000 0.950 . S
C1026 C1022 1.385 . S
C1026 C1025 1.374 . S
C1027 C1024 1.499 . S
C1027 C1028 1.373 . S
C1027 C1029 1.389 . S
C1028 H1001 0.950 . S
C1028 C1014 1.377 . S
C1028 C1027 1.373 . S
C1029 C1013 1.377 . S
C1029 C1027 1.389 . S
C1029 C1030 1.524 . S
C1030 C1029 1.524 . S
C1030 C1031 1.397 . S
C1030 C1035 1.363 . S
C1031 H1002 0.950 . S
C1031 C1030 1.397 . S
C1031 C1032 1.334 . S
C1032 H1003 0.950 . S
C1032 C1031 1.334 . S
C1032 C1033 1.287 . S
C1033 C1032 1.287 . S
C1033 C1034 1.524 . S
C1033 H1036 0.999 . S
C1034 H1004 0.950 . S
C1034 C1033 1.524 . S
C1034 C1035 1.415 . S
C1035 H1005 0.950 . S
C1035 C1030 1.363 . S
C1035 C1034 1.415 . S
H1036 C1033 0.999 . S
H1037 C1018 0.913 . S
H1038 C1056 0.951 . S
H1039 C1058 0.951 . S
H1040 C1060 0.950 . S
H1041 C1061 0.950 . S
H1042 C1063 0.950 . S
H1043 C1066 0.950 . S
H1044 C1067 0.950 . S
H1045 C1069 0.950 . S
H1046 C1070 0.950 . S
H1047 C1071 0.951 . S
H1048 C1073 0.951 . S
H1049 C1075 0.950 . S
H1050 C1076 0.950 . S
H1051 C1078 0.950 . S
H1052 C1081 0.950 . S
H1053 C1082 0.950 . S
H1054 C1084 0.950 . S
H1055 C1085 0.950 . S
C1056 H1038 0.951 . S
C1056 C1057 1.366 . S
C1056 C1058 1.388 . S
C1057 C1056 1.366 . S
C1057 C1061 1.385 . S
C1058 H1039 0.951 . S
C1058 C1056 1.388 . S
C1058 C1059 1.366 . S
C1059 C1058 1.366 . S
C1059 C1060 1.414 . S
C1059 C1062 1.499 . S
C1060 H1040 0.950 . S
C1060 C1059 1.414 . S
C1060 C1061 1.374 . S
C1061 H1041 0.950 . S
C1061 C1057 1.385 . S
C1061 C1060 1.374 . S
C1062 C1059 1.499 . S
C1062 C1063 1.373 . S
C1062 C1064 1.389 . S
C1063 H1042 0.950 . S
C1063 C1062 1.373 . S
C1063 C1079 1.377 . S
C1064 C1062 1.389 . S
C1064 C1065 1.524 . S
C1064 C1078 1.377 . S
C1065 C1064 1.524 . S
C1065 C1066 1.397 . S
C1065 C1070 1.363 . S
C1066 H1043 0.950 . S
C1066 C1065 1.397 . S
C1066 C1067 1.334 . S
C1067 H1044 0.950 . S
C1067 C1066 1.334 . S
C1067 C1068 1.287 . S
C1068 C1067 1.287 . S
C1068 C1069 1.524 . S
C1068 H1087 0.913 . S
C1069 H1045 0.950 . S
C1069 C1068 1.524 . S
C1069 C1070 1.415 . S
C1070 H1046 0.950 . S
C1070 C1065 1.363 . S
C1070 C1069 1.415 . S
C1071 H1047 0.951 . S
C1071 C1072 1.366 . S
C1071 C1073 1.388 . S
C1072 C1071 1.366 . S
C1072 C1076 1.385 . S
C1073 H1048 0.951 . S
C1073 C1071 1.388 . S
C1073 C1074 1.366 . S
C1074 C1073 1.366 . S
C1074 C1075 1.414 . S
C1074 C1077 1.499 . S
C1075 H1049 0.950 . S
C1075 C1074 1.414 . S
C1075 C1076 1.374 . S
C1076 H1050 0.950 . S
C1076 C1072 1.385 . S
C1076 C1075 1.374 . S
C1077 C1074 1.499 . S
C1077 C1078 1.373 . S
C1077 C1079 1.389 . S
C1078 H1051 0.950 . S
C1078 C1064 1.377 . S
C1078 C1077 1.373 . S
C1079 C1063 1.377 . S
C1079 C1077 1.389 . S
C1079 C1080 1.524 . S
C1080 C1079 1.524 . S
C1080 C1081 1.397 . S
C1080 C1085 1.363 . S
C1081 H1052 0.950 . S
C1081 C1080 1.397 . S
C1081 C1082 1.334 . S
C1082 H1053 0.950 . S
C1082 C1081 1.334 . S
C1082 C1083 1.287 . S
C1083 C1082 1.287 . S
C1083 C1084 1.524 . S
C1083 H1086 0.999 . S
C1084 H1054 0.950 . S
C1084 C1083 1.524 . S
C1084 C1085 1.415 . S
C1085 H1055 0.950 . S
C1085 C1080 1.363 . S
C1085 C1084 1.415 . S
H1086 C1083 0.999 . S
H1087 C1068 0.913 . S
C307 C50 1.321 . S
C322 C14 1.321 . S
C357 C39 1.413 . S
C372 C75 1.413 1_554 S
C407 C122 1.321 . S
C422 C86 1.320 . S
C457 C111 1.413 1_556 S
C472 C3 1.413 . S
C507 C158 1.321 . S
C522 C194 1.320 . S
C557 C183 1.413 1_556 S
C572 C219 1.413 . S
C607 C230 1.321 . S
C622 C266 1.320 . S
C657 C147 1.413 1_554 S
C672 C255 1.413 . S
C707 C4 1.435 . S
C722 C256 1.435 . S
C757 C146 1.411 . S
C772 C38 1.411 . S
C807 C184 1.435 . S
C822 C76 1.435 . S
C857 C110 1.412 . S
C872 C218 1.412 . S
C907 C74 1.412 . S
C922 C254 1.411 . S
C957 C148 1.436 . S
C972 C112 1.436 . S
C1007 C182 1.412 . S
C1022 C2 1.412 . S
C1057 C40 1.436 . S
C1072 C220 1.436 . S
