# Generated by pormake.
# Topology tfs, (6)-cn, num edge types: 1
# Building blocks:
#     Node 0, Type 0, BuildingBlock: NUHQIS_clean_sbu_0, # of connection points: 6
#     Node 1, Type 0, BuildingBlock: NUHQIS_clean_sbu_0, # of connection points: 6
#     Node 2, Type 0, BuildingBlock: NUHQIS_clean_sbu_0, # of connection points: 6
#     Node 3, Type 0, BuildingBlock: NUHQIS_clean_sbu_0, # of connection points: 6
#     Node 4, Type 0, BuildingBlock: NUHQIS_clean_sbu_0, # of connection points: 6
#     Node 5, Type 0, BuildingBlock: NUHQIS_clean_sbu_0, # of connection points: 6
#     Edge 6, Type (0, 0), BuildingBlock: AJUNOK_clean_linker_0, # of connection points: 2
#     Edge 7, Type (0, 0), BuildingBlock: AJUNOK_clean_linker_0, # of connection points: 2
#     Edge 8, Type (0, 0), BuildingBlock: AJUNOK_clean_linker_0, # of connection points: 2
#     Edge 9, Type (0, 0), BuildingBlock: AJUNOK_clean_linker_0, # of connection points: 2
#     Edge 10, Type (0, 0), BuildingBlock: AJUNOK_clean_linker_0, # of connection points: 2
#     Edge 11, Type (0, 0), BuildingBlock: AJUNOK_clean_linker_0, # of connection points: 2
#     Edge 12, Type (0, 0), BuildingBlock: AJUNOK_clean_linker_0, # of connection points: 2
#     Edge 13, Type (0, 0), BuildingBlock: AJUNOK_clean_linker_0, # of connection points: 2
#     Edge 14, Type (0, 0), BuildingBlock: AJUNOK_clean_linker_0, # of connection points: 2
#     Edge 15, Type (0, 0), BuildingBlock: AJUNOK_clean_linker_0, # of connection points: 2
#     Edge 16, Type (0, 0), BuildingBlock: AJUNOK_clean_linker_0, # of connection points: 2
#     Edge 17, Type (0, 0), BuildingBlock: AJUNOK_clean_linker_0, # of connection points: 2
#     Edge 18, Type (0, 0), BuildingBlock: AJUNOK_clean_linker_0, # of connection points: 2
#     Edge 19, Type (0, 0), BuildingBlock: AJUNOK_clean_linker_0, # of connection points: 2
#     Edge 20, Type (0, 0), BuildingBlock: AJUNOK_clean_linker_0, # of connection points: 2
#     Edge 21, Type (0, 0), BuildingBlock: AJUNOK_clean_linker_0, # of connection points: 2
#     Edge 22, Type (0, 0), BuildingBlock: AJUNOK_clean_linker_0, # of connection points: 2
#     Edge 23, Type (0, 0), BuildingBlock: AJUNOK_clean_linker_0, # of connection points: 2
# Relax obj value: 0.641
# Max RMSD: 0.456
# Mean RMSD: 0.369
data_MOF--net-tfs--node1-NUHQIS_clean_sbu_0--edge1-AJUNOK_clean_linker_0
_symmetry_space_group_name_H-M    P1
_symmetry_Int_Tables_number       1
_symmetry_cell_setting            triclinic
loop_
_symmetry_equiv_pos_as_xyz
'x, y, z'
_cell_length_a     45.090736
_cell_length_b     37.190273
_cell_length_c     10.327347
_cell_angle_alpha  84.884818
_cell_angle_beta   91.044637
_cell_angle_gamma 120.2449
loop_
_atom_site_label
_atom_site_type_symbol
_atom_site_fract_x
_atom_site_fract_y
_atom_site_fract_z
_atom_type_partial_charge
Tb0 Tb 0.15014 0.41646 0.16782 0.0
Eu1 Eu 0.14178 0.49873 0.07685 0.0
C2 C 0.13348 0.43253 0.89172 0.0
C3 C 0.21629 0.50856 0.10856 0.0
C4 C 0.14511 0.31219 0.28158 0.0
C5 C 0.1502 0.25201 0.24193 0.0
C6 C 0.15345 0.29055 0.19801 0.0
C7 C 0.12996 0.2925 0.40437 0.0
C8 C 0.12702 0.25428 0.44857 0.0
C9 C 0.13907 0.23486 0.37071 0.0
C10 C 0.15957 0.35775 0.25527 0.0
O11 O 0.16935 0.46259 0.30351 0.0
O12 O 0.13012 0.48261 0.29055 0.0
O13 O 0.08981 0.4417 0.06505 0.0
O14 O 0.09634 0.39771 0.21875 0.0
C15 C 0.14781 0.46972 0.36099 0.0
O16 O 0.11843 0.53693 0.09539 0.0
O17 O 0.14978 0.54726 0.92393 0.0
O18 O 0.15183 0.47185 0.91213 0.0
O19 O 0.12598 0.40267 -0.01651 0.0
O20 O 0.20119 0.46803 0.09258 0.0
O21 O 0.19786 0.52649 0.12492 0.0
C22 C 0.07663 0.40894 0.15088 0.0
O23 O 0.16718 0.37465 0.1352 0.0
O24 O 0.14761 0.37553 0.32492 0.0
C25 C 0.14998 0.60533 -0.00055 0.0
C26 C 0.18161 0.68724 0.06945 0.0
C27 C 0.14564 0.66289 0.06882 0.0
C28 C 0.12995 0.62227 0.03302 0.0
C29 C 0.18591 0.63034 -0.00768 0.0
C30 C 0.20163 0.67123 0.02625 0.0
C31 C 0.13306 0.56048 -0.01182 0.0
H32 H 0.15945 0.23761 0.17941 0.0
H33 H 0.1653 0.30496 0.10294 0.0
H34 H 0.12345 0.3084 0.47165 0.0
H35 H 0.11889 0.24255 0.54899 0.0
H36 H 0.12959 0.67407 0.10452 0.0
H37 H 0.10218 0.6032 0.03945 0.0
H38 H 0.20187 0.61775 -0.03304 0.0
H39 H 0.22942 0.68958 0.02547 0.0
Tb40 Tb 0.68752 0.28015 0.33895 0.0
Eu41 Eu 0.77289 0.32677 0.29063 0.0
C42 C 0.72143 0.30605 0.07068 0.0
C43 C 0.72148 0.22388 0.30079 0.0
C44 C 0.61725 0.24635 0.55653 0.0
C45 C 0.58666 0.20412 0.75319 0.0
C46 C 0.59056 0.20925 0.61798 0.0
C47 C 0.63959 0.27868 0.63192 0.0
C48 C 0.63561 0.2736 0.76715 0.0
C49 C 0.60945 0.236 0.82887 0.0
C50 C 0.6267 0.24759 0.42064 0.0
O51 O 0.71576 0.29899 0.51235 0.0
O52 O 0.76129 0.29008 0.48174 0.0
O53 O 0.76068 0.37657 0.35599 0.0
O54 O 0.70426 0.34627 0.29652 0.0
C55 C 0.73671 0.2864 0.55529 0.0
O56 O 0.82589 0.36729 0.34799 0.0
O57 O 0.81591 0.34284 0.15846 0.0
O58 O 0.74532 0.33774 0.12597 0.0
O59 O 0.69504 0.27626 0.13876 0.0
O60 O 0.69695 0.22795 0.35234 0.0
O61 O 0.75099 0.25713 0.25652 0.0
C62 C 0.73228 0.37865 0.33475 0.0
O63 O 0.6417 0.22618 0.40531 0.0
O64 O 0.64287 0.28432 0.35576 0.0
C65 C 0.87042 0.36006 0.25066 0.0
C66 C 0.93407 0.3615 0.24011 0.0
C67 C 0.9306 0.39028 0.30875 0.0
C68 C 0.89926 0.38965 0.31347 0.0
C69 C 0.87331 0.32989 0.18744 0.0
C70 C 0.90472 0.33056 0.18261 0.0
C71 C 0.83926 0.36428 0.24095 0.0
H72 H 0.56573 0.17517 0.79887 0.0
H73 H 0.57361 0.18368 0.56179 0.0
H74 H 0.66098 0.30728 0.58675 0.0
H75 H 0.6533 0.29864 0.82355 0.0
H76 H 0.95262 0.41464 0.35362 0.0
H77 H 0.89793 0.41344 0.36223 0.0
H78 H 0.85162 0.30653 0.13834 0.0
H79 H 0.90626 0.30741 0.13104 0.0
Tb80 Tb 0.60727 0.83947 0.30186 0.0
Eu81 Eu 0.53205 0.74051 0.30426 0.0
C82 C 0.58673 0.78423 0.07773 0.0
C83 C 0.53221 0.8284 0.29068 0.0
C84 C 0.66544 0.95926 0.29189 0.0
C85 C 0.65366 1.01693 0.24846 0.0
C86 C 0.64363 0.97433 0.24709 0.0
C87 C 0.69746 0.98827 0.33925 0.0
C88 C 0.70758 0.03096 0.34023 0.0
C89 C 0.68606 0.04632 0.29331 0.0
C90 C 0.65704 0.91507 0.27691 0.0
O91 O 0.58044 0.82133 0.48496 0.0
O92 O 0.55111 0.74982 0.50389 0.0
O93 O 0.57534 0.72772 0.3561 0.0
O94 O 0.62598 0.79333 0.3339 0.0
C95 C 0.57154 0.78559 0.55008 0.0
O96 O 0.48307 0.69223 0.3982 0.0
O97 O 0.49685 0.68531 0.20573 0.0
O98 O 0.56577 0.74826 0.14012 0.0
O99 O 0.58987 0.81865 0.11433 0.0
O100 O 0.56399 0.84936 0.33045 0.0
O101 O 0.51961 0.79145 0.24679 0.0
C102 C 0.60938 0.75145 0.35745 0.0
O103 O 0.63623 0.89594 0.18495 0.0
O104 O 0.65134 0.88924 0.38065 0.0
C105 C 0.43631 0.65157 0.25868 0.0
C106 C 0.36525 0.60725 0.19643 0.0
C107 C 0.37623 0.62994 0.30687 0.0
C108 C 0.41119 0.65158 0.33797 0.0
C109 C 0.42539 0.62985 0.14642 0.0
C110 C 0.3905 0.60824 0.11545 0.0
C111 C 0.47302 0.67016 0.29782 0.0
H112 H 0.63617 1.02705 0.21133 0.0
H113 H 0.61897 0.95332 0.20827 0.0
H114 H 0.71509 0.97804 0.37369 0.0
H115 H 0.73229 0.05187 0.37883 0.0
H116 H 0.35762 0.62992 0.37175 0.0
H117 H 0.41838 0.6675 0.42591 0.0
H118 H 0.44383 0.62878 0.08343 0.0
H119 H 0.38329 0.59204 0.02805 0.0
Tb120 Tb 0.73436 0.62196 0.37823 0.0
Eu121 Eu 0.65136 0.54586 0.45668 0.0
C122 C 0.70945 0.58366 0.64997 0.0
C123 C 0.71147 0.52246 0.40399 0.0
C124 C 0.83095 0.69362 0.31128 0.0
C125 C 0.87831 0.68381 0.38501 0.0
C126 C 0.84282 0.66867 0.37622 0.0
C127 C 0.85494 0.73349 0.2544 0.0
C128 C 0.89022 0.74858 0.26317 0.0
C129 C 0.90249 0.7242 0.32948 0.0
C130 C 0.79401 0.68005 0.304 0.0
O131 O 0.69749 0.60938 0.22972 0.0
O132 O 0.66207 0.53956 0.25255 0.0
O133 O 0.649 0.60442 0.39722 0.0
O134 O 0.70589 0.65548 0.41867 0.0
C135 C 0.68305 0.57359 0.1802 0.0
O136 O 0.61982 0.50888 0.62552 0.0
O137 O 0.59517 0.50534 0.43859 0.0
O138 O 0.68254 0.58511 0.61006 0.0
O139 O 0.73586 0.59696 0.57199 0.0
O140 O 0.73371 0.56196 0.35964 0.0
O141 O 0.68109 0.51137 0.45672 0.0
C142 C 0.67269 0.64384 0.40706 0.0
O143 O 0.77848 0.67878 0.41139 0.0
O144 O 0.7747 0.64841 0.23716 0.0
C145 C 0.56174 0.45443 0.62012 0.0
C146 C 0.50839 0.38696 0.77552 0.0
C147 C 0.50443 0.42014 0.71951 0.0
C148 C 0.53075 0.45336 0.64238 0.0
C149 C 0.56568 0.42099 0.67259 0.0
C150 C 0.53908 0.38729 0.74849 0.0
C151 C 0.59111 0.49392 0.56378 0.0
H152 H 0.88681 0.66385 0.43466 0.0
H153 H 0.82472 0.63773 0.42056 0.0
H154 H 0.84636 0.75332 0.20418 0.0
H155 H 0.90796 0.77984 0.22008 0.0
H156 H 0.48132 0.42113 0.73849 0.0
H157 H 0.52749 0.4793 0.60518 0.0
H158 H 0.58963 0.4215 0.65798 0.0
H159 H 0.54266 0.36171 0.78661 0.0
Tb160 Tb 0.22002 0.89851 0.43913 0.0
Eu161 Eu 0.29926 0.90378 0.50052 0.0
C162 C 0.27654 0.92688 0.22756 0.0
C163 C 0.23611 0.82896 0.36952 0.0
C164 C 0.12494 0.85918 0.37681 0.0
C165 C 0.07394 0.80602 0.27594 0.0
C166 C 0.10979 0.83168 0.27921 0.0
C167 C 0.10327 0.86007 0.47126 0.0
C168 C 0.06751 0.83453 0.46784 0.0
C169 C 0.05228 0.80728 0.36981 0.0
C170 C 0.16249 0.89026 0.37281 0.0
O171 O 0.21936 0.88308 0.64552 0.0
O172 O 0.26041 0.86337 0.65993 0.0
O173 O 0.29793 0.95557 0.59182 0.0
O174 O 0.24913 0.95758 0.52416 0.0
C175 C 0.23842 0.87146 0.71395 0.0
O176 O 0.32879 0.87632 0.58631 0.0
O177 O 0.35545 0.93945 0.48945 0.0
O178 O 0.29679 0.9155 0.28668 0.0
O179 O 0.25939 0.93924 0.2939 0.0
O180 O 0.21441 0.83766 0.42221 0.0
O181 O 0.26954 0.8511 0.37883 0.0
C182 C 0.27717 0.9709 0.59243 0.0
O183 O 0.18267 0.88528 0.2966 0.0
O184 O 0.1768 0.90322 0.48284 0.0
C185 C 0.38459 0.90061 0.49508 0.0
C186 C 0.43478 0.88313 0.40501 0.0
C187 C 0.43894 0.90189 0.5216 0.0
C188 C 0.41422 0.91061 0.56566 0.0
C189 C 0.38018 0.882 0.3783 0.0
C190 C 0.40501 0.87327 0.33385 0.0
C191 C 0.35848 0.90882 0.54822 0.0
H192 H 0.06311 0.78555 0.19875 0.0
H193 H 0.12554 0.83069 0.20334 0.0
H194 H 0.11391 0.88155 0.54594 0.0
H195 H 0.05174 0.83738 0.53941 0.0
H196 H 0.4609 0.90885 0.58105 0.0
H197 H 0.41803 0.92466 0.65653 0.0
H198 H 0.35745 0.87389 0.32234 0.0
H199 H 0.40091 0.85872 0.24387 0.0
Tb200 Tb 0.31745 0.17044 0.062 0.0
Eu201 Eu 0.37462 0.14298 0.15084 0.0
C202 C 0.32938 0.14845 0.33644 0.0
C203 C 0.39612 0.24014 0.06016 0.0
C204 C 0.24143 0.17205 0.92726 0.0
C205 C 0.19075 0.17314 0.85132 0.0
C206 C 0.21362 0.17768 0.95001 0.0
C207 C 0.24496 0.15914 0.80773 0.0
C208 C 0.22199 0.1544 0.70899 0.0
C209 C 0.1953 0.1627 0.7284 0.0
C210 C 0.26812 0.18328 0.02409 0.0
O211 O 0.33936 0.16883 0.88065 0.0
O212 O 0.38674 0.16156 0.93719 0.0
O213 O 0.33765 0.08931 0.04657 0.0
O214 O 0.2951 0.10613 0.008 0.0
C215 C 0.36737 0.16798 0.85193 0.0
O216 O 0.40153 0.10811 0.16611 0.0
O217 O 0.40505 0.14596 0.32058 0.0
O218 O 0.32821 0.11879 0.27675 0.0
O219 O 0.33122 0.1794 0.26187 0.0
O220 O 0.36477 0.22931 0.02409 0.0
O221 O 0.40385 0.21386 0.12508 0.0
C222 C 0.30829 0.0818 -0.00286 0.0
O223 O 0.26607 0.15254 0.10282 0.0
O224 O 0.29944 0.20903 -0.0201 0.0
C225 C 0.45317 0.13798 0.2811 0.0
C226 C 0.52483 0.17369 0.25391 0.0
C227 C 0.50229 0.13655 0.19763 0.0
C228 C 0.46694 0.1188 0.21189 0.0
C229 C 0.47534 0.17214 0.35042 0.0
C230 C 0.51097 0.18961 0.33794 0.0
C231 C 0.41607 0.12299 0.27466 0.0
H232 H 0.17105 0.18083 0.8685 0.0
H233 H 0.21064 0.18776 0.04174 0.0
H234 H 0.26646 0.15485 0.78866 0.0
H235 H 0.2262 0.14652 0.61519 0.0
H236 H 0.51168 0.12301 0.13236 0.0
H237 H 0.45043 0.09155 0.16125 0.0
H238 H 0.46533 0.18663 0.40901 0.0
H239 H 0.52756 0.21713 0.38708 0.0
C240 C 0.1963 0.19565 0.50709 0.0
C241 C 0.17691 0.16903 0.61609 0.0
C242 C 0.1823 0.21311 0.41797 0.0
C243 C 0.14836 0.20461 0.4345 0.0
H244 H 0.22345 0.2064 0.49705 0.0
H245 H 0.1994 0.2367 0.34365 0.0
S246 S 0.08425 0.12769 0.68282 0.0
N247 N 0.12021 0.12818 0.72069 0.0
N248 N 0.09368 0.16097 0.55201 0.0
C249 C 0.12747 0.17386 0.53333 0.0
C250 C 0.1418 0.15612 0.62455 0.0
C251 C 1.0256 0.38347 0.30298 0.0
C252 C 0.03892 0.38764 0.17678 0.0
C253 C 0.99127 0.37334 0.32385 0.0
C254 C 0.96884 0.36643 0.21954 0.0
H255 H 0.04236 0.39067 0.38503 0.0
H256 H 0.98253 0.37219 0.42194 0.0
S257 S 0.99093 0.37085 0.87153 0.0
N258 N 1.02662 0.38176 0.94763 0.0
N259 N 0.96258 0.36282 -0.0141 0.0
C260 C 0.98156 0.36844 0.09392 0.0
C261 C 1.01644 0.37906 0.07288 0.0
C262 C 0.68124 0.14534 0.33483 0.0
C263 C 0.71422 0.17936 0.296 0.0
C264 C 0.6727 0.10327 0.33337 0.0
C265 C 0.69658 0.09223 0.29371 0.0
H266 H 0.66136 0.15101 0.36708 0.0
H267 H 0.647 0.07904 0.36552 0.0
S268 S 0.78639 0.16839 0.17826 0.0
N269 N 0.77088 0.1983 0.21404 0.0
N270 N 0.75494 0.11962 0.21071 0.0
C271 C 0.72973 0.12576 0.25413 0.0
C272 C 0.73844 0.16893 0.25509 0.0
C273 C 0.67659 0.71496 0.3386 0.0
C274 C 0.65995 0.67484 0.40848 0.0
C275 C 0.66136 0.74078 0.32672 0.0
C276 C 0.6288 0.72783 0.3846 0.0
H277 H 0.70083 0.72575 0.28781 0.0
H278 H 0.67453 0.77029 0.26713 0.0
S279 S 0.57716 0.62867 0.59544 0.0
N280 N 0.61066 0.62602 0.54753 0.0
N281 N 0.58283 0.67364 0.5275 0.0
C282 C 0.61316 0.68889 0.46082 0.0
C283 C 0.62842 0.6628 0.47204 0.0
C284 C 0.99851 0.78267 0.2408 0.0
C285 C 1.01396 0.78254 0.36056 0.0
C286 C 0.96262 0.76284 0.23127 0.0
C287 C 0.94044 0.74171 0.34082 0.0
H288 H 1.01432 0.79941 0.15414 0.0
H289 H 0.95213 0.76453 0.13719 0.0
S290 S 0.96763 0.72988 0.67588 0.0
N291 N 1.00403 0.75734 0.58996 0.0
N292 N 0.93677 0.72092 0.57259 0.0
C293 C 0.95548 0.74023 0.46044 0.0
C294 C 0.99209 0.76049 0.4702 0.0
C295 C 0.29998 0.99596 0.80683 0.0
C296 C 0.28291 0.9991 0.69465 0.0
C297 C 0.30488 1.01997 0.90985 0.0
C298 C 0.29361 0.04905 0.90504 0.0
H299 H 0.30954 0.97436 0.81658 0.0
H300 H 0.31893 1.01678 -0.00791 0.0
S301 S 0.24605 0.06825 0.63589 0.0
N302 N 0.25284 0.03176 0.58763 0.0
N303 N 0.26317 0.07844 0.7803 0.0
C304 C 0.27522 0.05147 0.79583 0.0
C305 C 0.26975 1.02631 0.69077 0.0
C306 C 0.23444 0.76541 0.30647 0.0
C307 C 0.22247 0.79368 0.29077 0.0
C308 C 0.22198 0.73182 0.23035 0.0
C309 C 0.19782 0.72617 0.13427 0.0
H310 H 0.25284 0.76869 0.38019 0.0
H311 H 0.23047 0.70938 0.25004 0.0
S312 S 0.16324 0.79628 0.04168 0.0
N313 N 0.18803 0.81684 0.16539 0.0
N314 N 0.16553 0.7544 0.01786 0.0
C315 C 0.1872 0.75574 0.11301 0.0
C316 C 0.19933 0.7894 0.1925 0.0
C317 C 0.57701 0.17866 0.15639 0.0
C318 C 0.56047 0.19937 0.19825 0.0
C319 C 0.59739 0.1936 0.04196 0.0
C320 C 0.60304 0.2306 -0.02923 0.0
H321 H 0.56995 0.14771 0.20027 0.0
H322 H 0.60546 0.17387 0.00151 0.0
S323 S 0.57956 0.30595 0.07365 0.0
N324 N 0.56084 0.26545 0.18387 0.0
N325 N 0.60054 0.29417 -0.02779 0.0
C326 C 0.59348 0.25611 0.02822 0.0
C327 C 0.57201 0.24048 0.14281 0.0
C328 C 0.30607 0.59912 0.17484 0.0
C329 C 0.3276 0.582 0.16773 0.0
C330 C 0.27061 0.57569 0.15171 0.0
C331 C 0.25473 0.53374 0.12131 0.0
H332 H 0.31672 0.63105 0.1984 0.0
H333 H 0.25546 0.59059 0.15999 0.0
S334 S 0.29948 0.47362 0.09357 0.0
N335 N 0.33015 0.52006 0.12971 0.0
N336 N 0.26404 0.47629 0.08581 0.0
C337 C 0.27609 0.51634 0.11298 0.0
C338 C 0.31224 0.54031 0.13615 0.0
C339 C 0.69181 0.44559 0.39724 0.0
C340 C 0.71915 0.48745 0.38849 0.0
C341 C 0.69685 0.41172 0.38101 0.0
C342 C 0.72964 0.41701 0.35651 0.0
H343 H 0.66576 0.43859 0.41507 0.0
H344 H 0.67437 0.38069 0.3883 0.0
S345 S 0.81072 0.51973 0.32785 0.0
N346 N 0.78098 0.53196 0.35484 0.0
N347 N 0.79041 0.4683 0.327 0.0
C348 C 0.75753 0.45856 0.34979 0.0
C349 C 0.7523 0.49353 0.36458 0.0
C350 C 0.44924 0.83156 0.32432 0.0
C351 C 0.46044 0.87173 0.36269 0.0
C352 C 0.47265 0.81856 0.29651 0.0
C353 C 0.50844 0.84509 0.30585 0.0
H354 H 0.42203 0.80929 0.32039 0.0
H355 H 0.46234 0.7868 0.27182 0.0
S356 S 0.5514 0.95546 0.3857 0.0
N357 N 0.51 0.93948 0.39578 0.0
N358 N 0.55387 0.91501 0.34584 0.0
C359 C 0.52006 0.88604 0.3386 0.0
C360 C 0.49616 0.89931 0.36646 0.0
C361 C 0.44582 0.33569 0.82177 0.0
C362 C 0.48009 0.35188 0.85889 0.0
C363 C 0.41869 0.30171 0.89407 0.0
C364 C 0.42457 0.28141 0.00476 0.0
H365 H 0.43984 0.34847 0.73347 0.0
H366 H 0.39301 0.29002 0.85824 0.0
S367 S 0.50856 0.31649 0.15872 0.0
N368 N 0.51777 0.34913 0.02644 0.0
N369 N 0.46678 0.28363 0.15845 0.0
C370 C 0.45844 0.29867 0.04765 0.0
C371 C 0.48615 0.33406 -0.02462 0.0
C372 C 0.14689 0.41686 0.68818 0.0
C373 C 0.12475 0.42388 0.7598 0.0
C374 C 0.15365 0.43135 0.55766 0.0
C375 C 0.13765 0.45217 0.49527 0.0
H376 H 0.16221 0.40494 0.73627 0.0
H377 H 0.17307 0.42822 0.50812 0.0
S378 S 0.07203 0.46977 0.64034 0.0
N379 N 0.08329 0.44724 0.76076 0.0
N380 N 0.09457 0.47288 0.51122 0.0
C381 C 0.11233 0.45478 0.56341 0.0
C382 C 0.10594 0.44054 0.69708 0.0
C383 C 0.70387 0.26221 0.88799 0.0
C384 C 0.72841 0.29859 0.94222 0.0
C385 C 0.70924 0.25464 0.76421 0.0
C386 C 0.73934 0.28299 0.69304 0.0
H387 H 0.67966 0.24039 0.93837 0.0
H388 H 0.68848 0.22865 0.71943 0.0
S389 S 0.81348 0.37944 0.79571 0.0
N390 N 0.78556 0.36107 0.9195 0.0
N391 N 0.79545 0.34567 0.68566 0.0
C392 C 0.76546 0.31718 0.74951 0.0
C393 C 0.75989 0.32553 0.87465 0.0
C394 C 0.57799 0.74624 0.88615 0.0
C395 C 0.59561 0.78392 0.94432 0.0
C396 C 0.57195 0.74699 0.75463 0.0
C397 C 0.58412 0.78534 0.67958 0.0
H398 H 0.56522 0.71628 0.94366 0.0
H399 H 0.55548 0.71749 0.71468 0.0
S400 S 0.64625 0.89061 0.77867 0.0
N401 N 0.6357 0.85886 0.91345 0.0
N402 N 0.62466 0.86062 0.66287 0.0
C403 C 0.60787 0.82253 0.7321 0.0
C404 C 0.61393 0.82164 0.86626 0.0
C405 C 0.72059 0.60998 -0.0145 0.0
C406 C 0.69403 0.57259 0.04929 0.0
C407 C 0.72955 0.61204 0.85617 0.0
C408 C 0.71203 0.57688 0.78766 0.0
H409 H 0.73339 0.63866 0.03285 0.0
H410 H 0.74772 0.64213 0.80651 0.0
S411 S 0.64574 0.46998 0.91387 0.0
N412 N 0.6542 0.49814 0.03887 0.0
N413 N 0.6711 0.50254 0.79262 0.0
C414 C 0.68807 0.53841 0.85239 0.0
C415 C 0.67892 0.53612 -0.01542 0.0
C416 C 0.26574 0.87181 0.92494 0.0
C417 C 0.24237 0.87927 0.85291 0.0
C418 C 0.27732 0.88856 0.04335 0.0
C419 C 0.26575 0.91314 0.09628 0.0
H420 H 0.27639 0.85429 0.88738 0.0
H421 H 0.29557 0.88194 0.09348 0.0
S422 S 0.2024 0.93957 0.95185 0.0
N423 N 0.20618 0.9109 0.84749 0.0
N424 N 0.22835 0.94261 0.07044 0.0
C425 C 0.2413 0.91954 0.02827 0.0
C426 C 0.22932 0.9023 0.90719 0.0
C427 C 0.35854 0.12877 0.66579 0.0
C428 C 0.37276 0.16791 0.71441 0.0
C429 C 0.3449 0.12291 0.54194 0.0
C430 C 0.34555 0.15622 0.46332 0.0
H431 H 0.35461 0.10168 0.72852 0.0
H432 H 0.33233 0.09168 0.5103 0.0
S433 S 0.38749 0.26687 0.53914 0.0
N434 N 0.39192 0.24148 0.67047 0.0
N435 N 0.36708 0.23135 0.4357 0.0
C436 C 0.36317 0.19651 0.50644 0.0
C437 C 0.37693 0.2022 0.63238 0.0
loop_
_geom_bond_atom_site_label_1
_geom_bond_atom_site_label_2
_geom_bond_distance
_geom_bond_site_symmetry_2
_ccdc_geom_bond_type
Tb0 C10 2.826 . S
Tb0 O11 2.348 . S
Tb0 O14 2.366 . S
Tb0 O19 2.417 1_554 S
Tb0 O20 2.384 1_554 S
Tb0 O23 2.478 1_554 S
Tb0 O24 2.472 . S
Eu1 O12 2.419 1_556 S
Eu1 O13 2.384 1_556 S
Eu1 O16 2.479 1_556 S
Eu1 O17 2.471 . S
Eu1 O18 2.347 . S
Eu1 O21 2.366 . S
Eu1 C31 2.825 . S
C2 O18 1.259 . S
C2 O19 1.265 . S
C3 O20 1.255 . S
C3 O21 1.265 . S
C4 C6 1.380 . S
C4 C7 1.374 . S
C4 C10 1.507 . S
C5 C6 1.384 . S
C5 C9 1.387 . S
C5 H32 0.930 . S
C6 C4 1.380 . S
C6 C5 1.384 . S
C6 H33 0.931 1_554 S
C7 C4 1.374 . S
C7 C8 1.390 . S
C7 H34 0.930 . S
C8 C7 1.390 . S
C8 C9 1.391 . S
C8 H35 0.930 . S
C9 C5 1.387 . S
C9 C8 1.391 . S
C10 Tb0 2.826 . S
C10 C4 1.507 . S
C10 O23 1.238 1_554 S
C10 O24 1.247 . S
O11 Tb0 2.348 . S
O11 C15 1.259 . S
O12 Eu1 2.419 1_554 S
O12 C15 1.265 . S
O13 Eu1 2.384 1_554 S
O13 C22 1.255 . S
O14 Tb0 2.366 . S
O14 C22 1.265 . S
C15 O11 1.259 . S
C15 O12 1.265 . S
O16 Eu1 2.479 1_554 S
O16 C31 1.238 1_554 S
O17 Eu1 2.471 . S
O17 C31 1.247 . S
O18 Eu1 2.347 . S
O18 C2 1.259 . S
O19 Tb0 2.417 1_556 S
O19 C2 1.265 . S
O20 Tb0 2.384 1_556 S
O20 C3 1.255 . S
O21 Eu1 2.366 . S
O21 C3 1.265 . S
C22 O13 1.255 . S
C22 O14 1.265 . S
O23 Tb0 2.478 1_556 S
O23 C10 1.238 1_556 S
O24 Tb0 2.472 . S
O24 C10 1.247 . S
C25 C28 1.380 . S
C25 C29 1.374 . S
C25 C31 1.507 . S
C26 C27 1.387 . S
C26 C30 1.391 . S
C27 C26 1.387 . S
C27 C28 1.384 . S
C27 H36 0.930 . S
C28 C25 1.380 . S
C28 C27 1.384 . S
C28 H37 0.931 1_556 S
C29 C25 1.374 . S
C29 C30 1.390 . S
C29 H38 0.930 . S
C30 C26 1.391 . S
C30 C29 1.390 . S
C30 H39 0.930 . S
C31 Eu1 2.825 . S
C31 O16 1.238 1_556 S
C31 O17 1.247 . S
C31 C25 1.507 . S
H32 C5 0.930 . S
H33 C6 0.931 1_556 S
H34 C7 0.930 . S
H35 C8 0.930 . S
H36 C27 0.930 . S
H37 C28 0.931 1_554 S
H38 C29 0.930 . S
H39 C30 0.930 . S
Tb40 C50 2.825 1_556 S
Tb40 O51 2.347 1_556 S
Tb40 O54 2.366 . S
Tb40 O59 2.418 . S
Tb40 O60 2.384 . S
Tb40 O63 2.479 . S
Tb40 O64 2.471 1_556 S
Eu41 O52 2.418 . S
Eu41 O53 2.384 . S
Eu41 O56 2.479 . S
Eu41 O57 2.471 1_554 S
Eu41 O58 2.347 1_554 S
Eu41 O61 2.366 . S
Eu41 C71 2.825 1_554 S
C42 O58 1.259 . S
C42 O59 1.265 . S
C43 O60 1.255 . S
C43 O61 1.265 1_556 S
C44 C46 1.380 . S
C44 C47 1.374 . S
C44 C50 1.507 . S
C45 C46 1.384 . S
C45 C49 1.387 . S
C45 H72 0.930 . S
C46 C44 1.380 . S
C46 C45 1.384 . S
C46 H73 0.931 1_554 S
C47 C44 1.374 . S
C47 C48 1.390 . S
C47 H74 0.930 . S
C48 C47 1.390 . S
C48 C49 1.391 . S
C48 H75 0.930 . S
C49 C45 1.387 . S
C49 C48 1.391 . S
C50 Tb40 2.825 1_554 S
C50 C44 1.507 . S
C50 O63 1.238 1_554 S
C50 O64 1.247 . S
O51 Tb40 2.347 1_554 S
O51 C55 1.259 . S
O52 Eu41 2.418 . S
O52 C55 1.265 . S
O53 Eu41 2.384 . S
O53 C62 1.255 . S
O54 Tb40 2.366 . S
O54 C62 1.265 1_556 S
C55 O51 1.259 . S
C55 O52 1.265 . S
O56 Eu41 2.479 . S
O56 C71 1.238 1_554 S
O57 Eu41 2.471 1_556 S
O57 C71 1.247 . S
O58 Eu41 2.347 1_556 S
O58 C42 1.259 . S
O59 Tb40 2.418 . S
O59 C42 1.265 . S
O60 Tb40 2.384 . S
O60 C43 1.255 . S
O61 Eu41 2.366 . S
O61 C43 1.265 1_554 S
C62 O53 1.255 . S
C62 O54 1.265 1_554 S
O63 Tb40 2.479 . S
O63 C50 1.238 1_556 S
O64 Tb40 2.471 1_554 S
O64 C50 1.247 . S
C65 C68 1.380 . S
C65 C69 1.374 . S
C65 C71 1.507 . S
C66 C67 1.387 . S
C66 C70 1.391 . S
C67 C66 1.387 . S
C67 C68 1.384 . S
C67 H76 0.930 . S
C68 C65 1.380 . S
C68 C67 1.384 . S
C68 H77 0.931 1_556 S
C69 C65 1.374 . S
C69 C70 1.390 . S
C69 H78 0.930 . S
C70 C66 1.391 . S
C70 C69 1.390 . S
C70 H79 0.930 . S
C71 Eu41 2.825 1_556 S
C71 O56 1.238 1_556 S
C71 O57 1.247 . S
C71 C65 1.507 . S
H72 C45 0.930 . S
H73 C46 0.931 1_556 S
H74 C47 0.930 . S
H75 C48 0.930 . S
H76 C67 0.930 . S
H77 C68 0.931 1_554 S
H78 C69 0.930 . S
H79 C70 0.930 . S
Tb80 C90 2.825 . S
Tb80 O91 2.347 . S
Tb80 O94 2.366 . S
Tb80 O99 2.418 1_554 S
Tb80 O100 2.384 . S
Tb80 O103 2.479 . S
Tb80 O104 2.471 . S
Eu81 O92 2.418 . S
Eu81 O93 2.384 . S
Eu81 O96 2.479 . S
Eu81 O97 2.471 1_554 S
Eu81 O98 2.347 1_554 S
Eu81 O101 2.366 . S
Eu81 C111 2.825 . S
C82 O98 1.259 . S
C82 O99 1.265 . S
C83 O100 1.255 . S
C83 O101 1.265 . S
C84 C86 1.380 . S
C84 C87 1.374 . S
C84 C90 1.507 . S
C85 C86 1.384 1_545 S
C85 C89 1.387 . S
C85 H112 0.930 . S
C86 C84 1.380 . S
C86 C85 1.384 1_565 S
C86 H113 0.931 1_554 S
C87 C84 1.374 . S
C87 C88 1.390 . S
C87 H114 0.930 . S
C88 C87 1.390 . S
C88 C89 1.391 1_565 S
C88 H115 0.930 . S
C89 C85 1.387 . S
C89 C88 1.391 1_545 S
C90 Tb80 2.825 . S
C90 C84 1.507 . S
C90 O103 1.238 . S
C90 O104 1.247 . S
O91 Tb80 2.347 . S
O91 C95 1.259 . S
O92 Eu81 2.418 . S
O92 C95 1.265 . S
O93 Eu81 2.384 . S
O93 C102 1.255 . S
O94 Tb80 2.366 . S
O94 C102 1.265 . S
C95 O91 1.259 . S
C95 O92 1.265 . S
O96 Eu81 2.479 . S
O96 C111 1.238 . S
O97 Eu81 2.471 1_556 S
O97 C111 1.247 1_556 S
O98 Eu81 2.347 1_556 S
O98 C82 1.259 . S
O99 Tb80 2.418 1_556 S
O99 C82 1.265 . S
O100 Tb80 2.384 . S
O100 C83 1.255 . S
O101 Eu81 2.366 . S
O101 C83 1.265 . S
C102 O93 1.255 . S
C102 O94 1.265 . S
O103 Tb80 2.479 . S
O103 C90 1.238 . S
O104 Tb80 2.471 . S
O104 C90 1.247 . S
C105 C108 1.380 1_556 S
C105 C109 1.374 . S
C105 C111 1.507 1_556 S
C106 C107 1.387 1_556 S
C106 C110 1.391 . S
C107 C106 1.387 1_554 S
C107 C108 1.384 . S
C107 H116 0.930 . S
C108 C105 1.380 1_554 S
C108 C107 1.384 . S
C108 H117 0.931 . S
C109 C105 1.374 . S
C109 C110 1.390 . S
C109 H118 0.930 . S
C110 C106 1.391 . S
C110 C109 1.390 . S
C110 H119 0.930 . S
C111 Eu81 2.825 . S
C111 O96 1.238 . S
C111 O97 1.247 1_554 S
C111 C105 1.507 1_554 S
H112 C85 0.930 . S
H113 C86 0.931 1_556 S
H114 C87 0.930 . S
H115 C88 0.930 . S
H116 C107 0.930 . S
H117 C108 0.931 . S
H118 C109 0.930 . S
H119 C110 0.930 . S
Tb120 C130 2.825 . S
Tb120 O131 2.347 . S
Tb120 O134 2.366 . S
Tb120 O139 2.418 1_556 S
Tb120 O140 2.384 . S
Tb120 O143 2.479 . S
Tb120 O144 2.471 . S
Eu121 O132 2.418 . S
Eu121 O133 2.384 . S
Eu121 O136 2.479 . S
Eu121 O137 2.471 1_556 S
Eu121 O138 2.347 1_556 S
Eu121 O141 2.366 . S
Eu121 C151 2.825 1_556 S
C122 O138 1.259 . S
C122 O139 1.265 . S
C123 O140 1.256 . S
C123 O141 1.265 . S
C124 C126 1.380 . S
C124 C127 1.374 . S
C124 C130 1.507 . S
C125 C126 1.384 . S
C125 C129 1.387 . S
C125 H152 0.930 . S
C126 C124 1.380 . S
C126 C125 1.384 . S
C126 H153 0.931 . S
C127 C124 1.374 . S
C127 C128 1.390 . S
C127 H154 0.930 . S
C128 C127 1.390 . S
C128 C129 1.391 . S
C128 H155 0.930 . S
C129 C125 1.387 . S
C129 C128 1.391 . S
C130 Tb120 2.825 . S
C130 C124 1.507 . S
C130 O143 1.238 . S
C130 O144 1.247 . S
O131 Tb120 2.347 . S
O131 C135 1.259 . S
O132 Eu121 2.418 . S
O132 C135 1.265 . S
O133 Eu121 2.384 . S
O133 C142 1.255 . S
O134 Tb120 2.366 . S
O134 C142 1.265 . S
C135 O131 1.259 . S
C135 O132 1.265 . S
O136 Eu121 2.479 . S
O136 C151 1.238 1_556 S
O137 Eu121 2.471 1_554 S
O137 C151 1.247 . S
O138 Eu121 2.347 1_554 S
O138 C122 1.259 . S
O139 Tb120 2.418 1_554 S
O139 C122 1.265 . S
O140 Tb120 2.384 . S
O140 C123 1.256 . S
O141 Eu121 2.366 . S
O141 C123 1.265 . S
C142 O133 1.255 . S
C142 O134 1.265 . S
O143 Tb120 2.479 . S
O143 C130 1.238 . S
O144 Tb120 2.471 . S
O144 C130 1.247 . S
C145 C148 1.380 1_554 S
C145 C149 1.374 . S
C145 C151 1.507 . S
C146 C147 1.387 . S
C146 C150 1.391 . S
C147 C146 1.387 . S
C147 C148 1.384 1_554 S
C147 H156 0.930 1_554 S
C148 C145 1.380 1_556 S
C148 C147 1.384 1_556 S
C148 H157 0.931 . S
C149 C145 1.374 . S
C149 C150 1.390 . S
C149 H158 0.930 . S
C150 C146 1.391 . S
C150 C149 1.390 . S
C150 H159 0.930 . S
C151 Eu121 2.825 1_554 S
C151 O136 1.238 1_554 S
C151 O137 1.247 . S
C151 C145 1.507 . S
H152 C125 0.930 . S
H153 C126 0.931 . S
H154 C127 0.930 . S
H155 C128 0.930 . S
H156 C147 0.930 1_556 S
H157 C148 0.931 . S
H158 C149 0.930 . S
H159 C150 0.930 . S
Tb160 C170 2.825 . S
Tb160 O171 2.347 . S
Tb160 O174 2.366 . S
Tb160 O179 2.418 1_554 S
Tb160 O180 2.384 1_554 S
Tb160 O183 2.479 1_554 S
Tb160 O184 2.471 . S
Eu161 O172 2.418 . S
Eu161 O173 2.384 . S
Eu161 O176 2.479 . S
Eu161 O177 2.471 1_554 S
Eu161 O178 2.347 1_554 S
Eu161 O181 2.366 . S
Eu161 C191 2.825 1_554 S
C162 O178 1.259 . S
C162 O179 1.265 . S
C163 O180 1.255 . S
C163 O181 1.265 1_556 S
C164 C166 1.380 . S
C164 C167 1.374 . S
C164 C170 1.507 . S
C165 C166 1.384 . S
C165 C169 1.387 . S
C165 H192 0.930 1_455 S
C166 C164 1.380 . S
C166 C165 1.384 . S
C166 H193 0.931 1_554 S
C167 C164 1.374 . S
C167 C168 1.390 . S
C167 H194 0.930 . S
C168 C167 1.390 . S
C168 C169 1.391 . S
C168 H195 0.930 . S
C169 C165 1.387 . S
C169 C168 1.391 . S
C170 Tb160 2.825 . S
C170 C164 1.507 . S
C170 O183 1.238 1_554 S
C170 O184 1.247 . S
O171 Tb160 2.347 . S
O171 C175 1.259 . S
O172 Eu161 2.418 . S
O172 C175 1.265 . S
O173 Eu161 2.384 . S
O173 C182 1.255 . S
O174 Tb160 2.366 . S
O174 C182 1.265 . S
C175 O171 1.259 . S
C175 O172 1.265 . S
O176 Eu161 2.479 . S
O176 C191 1.238 1_554 S
O177 Eu161 2.471 1_556 S
O177 C191 1.247 . S
O178 Eu161 2.347 1_556 S
O178 C162 1.259 . S
O179 Tb160 2.418 1_556 S
O179 C162 1.265 . S
O180 Tb160 2.384 1_556 S
O180 C163 1.255 . S
O181 Eu161 2.366 . S
O181 C163 1.265 1_554 S
C182 O173 1.255 . S
C182 O174 1.265 . S
O183 Tb160 2.479 1_556 S
O183 C170 1.238 1_556 S
O184 Tb160 2.471 . S
O184 C170 1.247 . S
C185 C188 1.380 . S
C185 C189 1.374 . S
C185 C191 1.507 . S
C186 C187 1.387 . S
C186 C190 1.391 . S
C187 C186 1.387 . S
C187 C188 1.384 . S
C187 H196 0.932 . S
C188 C185 1.380 . S
C188 C187 1.384 . S
C188 H197 0.931 1_556 S
C189 C185 1.374 . S
C189 C190 1.390 . S
C189 H198 0.930 . S
C190 C186 1.391 . S
C190 C189 1.390 . S
C190 H199 0.930 . S
C191 Eu161 2.825 1_556 S
C191 O176 1.238 1_556 S
C191 O177 1.247 . S
C191 C185 1.507 . S
H192 C165 0.930 1_655 S
H193 C166 0.931 1_556 S
H194 C167 0.930 . S
H195 C168 0.930 . S
H196 C187 0.932 . S
H197 C188 0.931 1_554 S
H198 C189 0.930 . S
H199 C190 0.930 . S
Tb200 C210 2.825 1_554 S
Tb200 O211 2.347 1_554 S
Tb200 O214 2.366 1_554 S
Tb200 O219 2.418 . S
Tb200 O220 2.384 . S
Tb200 O223 2.479 . S
Tb200 O224 2.471 1_554 S
Eu201 O212 2.418 . S
Eu201 O213 2.384 . S
Eu201 O216 2.479 . S
Eu201 O217 2.471 1_556 S
Eu201 O218 2.347 1_556 S
Eu201 O221 2.366 1_556 S
Eu201 C231 2.825 1_556 S
C202 O218 1.259 . S
C202 O219 1.265 . S
C203 O220 1.255 . S
C203 O221 1.267 . S
C204 C206 1.380 . S
C204 C207 1.374 . S
C204 C210 1.507 . S
C205 C206 1.384 . S
C205 C209 1.387 . S
C205 H232 0.930 . S
C206 C204 1.380 . S
C206 C205 1.384 . S
C206 H233 0.931 1_556 S
C207 C204 1.374 . S
C207 C208 1.390 . S
C207 H234 0.930 . S
C208 C207 1.390 . S
C208 C209 1.391 . S
C208 H235 0.930 . S
C209 C205 1.387 . S
C209 C208 1.391 . S
C210 Tb200 2.825 1_556 S
C210 C204 1.507 . S
C210 O223 1.238 1_556 S
C210 O224 1.247 . S
O211 Tb200 2.347 1_556 S
O211 C215 1.259 . S
O212 Eu201 2.418 . S
O212 C215 1.265 . S
O213 Eu201 2.384 . S
O213 C222 1.255 . S
O214 Tb200 2.366 1_556 S
O214 C222 1.265 . S
C215 O211 1.259 . S
C215 O212 1.265 . S
O216 Eu201 2.479 . S
O216 C231 1.238 1_556 S
O217 Eu201 2.471 1_554 S
O217 C231 1.247 . S
O218 Eu201 2.347 1_554 S
O218 C202 1.259 . S
O219 Tb200 2.418 . S
O219 C202 1.265 . S
O220 Tb200 2.384 . S
O220 C203 1.255 . S
O221 Eu201 2.366 1_554 S
O221 C203 1.267 . S
C222 O213 1.255 . S
C222 O214 1.265 . S
O223 Tb200 2.479 . S
O223 C210 1.238 1_554 S
O224 Tb200 2.471 1_556 S
O224 C210 1.247 . S
C225 C228 1.380 . S
C225 C229 1.374 . S
C225 C231 1.507 . S
C226 C227 1.387 . S
C226 C230 1.391 . S
C227 C226 1.387 . S
C227 C228 1.384 . S
C227 H236 0.930 . S
C228 C225 1.380 . S
C228 C227 1.384 . S
C228 H237 0.931 1_554 S
C229 C225 1.374 . S
C229 C230 1.390 . S
C229 H238 0.930 . S
C230 C226 1.391 . S
C230 C229 1.390 . S
C230 H239 0.930 . S
C231 Eu201 2.825 1_554 S
C231 O216 1.238 1_554 S
C231 O217 1.247 . S
C231 C225 1.507 . S
H232 C205 0.930 . S
H233 C206 0.931 1_554 S
H234 C207 0.930 . S
H235 C208 0.930 . S
H236 C227 0.930 . S
H237 C228 0.931 1_556 S
H238 C229 0.930 . S
H239 C230 0.930 . S
C240 C241 1.369 . S
C240 C242 1.419 . S
C240 H244 0.930 . S
C241 C240 1.369 . S
C241 C250 1.429 . S
C242 C240 1.419 . S
C242 C243 1.363 . S
C242 H245 0.929 . S
C243 C242 1.363 . S
C243 C249 1.428 . S
H244 C240 0.930 . S
H245 C242 0.929 . S
S246 N247 1.613 . S
S246 N248 1.610 . S
N247 S246 1.613 . S
N247 C250 1.350 . S
N248 S246 1.610 . S
N248 C249 1.351 . S
C249 C243 1.428 . S
C249 N248 1.351 . S
C249 C250 1.434 . S
C250 C241 1.429 . S
C250 N247 1.350 . S
C250 C249 1.434 . S
C251 C252 1.369 . S
C251 C253 1.419 . S
C251 H255 0.930 . S
C252 C251 1.369 . S
C252 C261 1.429 1_455 S
C253 C251 1.419 . S
C253 C254 1.363 1_455 S
C253 H256 0.929 . S
C254 C253 1.363 1_655 S
C254 C260 1.428 . S
H255 C251 0.930 . S
H256 C253 0.929 . S
S257 N258 1.613 . S
S257 N259 1.610 . S
N258 S257 1.613 . S
N258 C261 1.350 . S
N259 S257 1.610 . S
N259 C260 1.351 . S
C260 C254 1.428 . S
C260 N259 1.351 . S
C260 C261 1.434 . S
C261 C252 1.429 1_655 S
C261 N258 1.350 . S
C261 C260 1.434 . S
C262 C263 1.369 . S
C262 C264 1.419 . S
C262 H266 0.930 . S
C263 C262 1.369 . S
C263 C272 1.429 . S
C264 C262 1.419 . S
C264 C265 1.363 . S
C264 H267 0.929 . S
C265 C264 1.363 . S
C265 C271 1.428 . S
H266 C262 0.930 . S
H267 C264 0.929 . S
S268 N269 1.613 . S
S268 N270 1.610 . S
N269 S268 1.613 . S
N269 C272 1.350 . S
N270 S268 1.610 . S
N270 C271 1.351 . S
C271 C265 1.428 . S
C271 N270 1.351 . S
C271 C272 1.434 . S
C272 C263 1.429 . S
C272 N269 1.350 . S
C272 C271 1.434 . S
C273 C274 1.369 . S
C273 C275 1.419 . S
C273 H277 0.930 . S
C274 C273 1.369 . S
C274 C283 1.429 . S
C275 C273 1.419 . S
C275 C276 1.363 . S
C275 H278 0.929 . S
C276 C275 1.363 . S
C276 C282 1.428 . S
H277 C273 0.930 . S
H278 C275 0.929 . S
S279 N280 1.613 . S
S279 N281 1.610 . S
N280 S279 1.613 . S
N280 C283 1.350 . S
N281 S279 1.610 . S
N281 C282 1.351 . S
C282 C276 1.428 . S
C282 N281 1.351 . S
C282 C283 1.434 . S
C283 C274 1.429 . S
C283 N280 1.350 . S
C283 C282 1.434 . S
C284 C285 1.369 . S
C284 C286 1.419 . S
C284 H288 0.930 . S
C285 C284 1.369 . S
C285 C294 1.429 . S
C286 C284 1.419 . S
C286 C287 1.363 . S
C286 H289 0.929 . S
C287 C286 1.363 . S
C287 C293 1.428 . S
H288 C284 0.930 . S
H289 C286 0.929 . S
S290 N291 1.613 . S
S290 N292 1.610 . S
N291 S290 1.613 . S
N291 C294 1.350 . S
N292 S290 1.610 . S
N292 C293 1.351 . S
C293 C287 1.428 . S
C293 N292 1.351 . S
C293 C294 1.434 . S
C294 C285 1.429 . S
C294 N291 1.350 . S
C294 C293 1.434 . S
C295 C296 1.369 . S
C295 C297 1.419 . S
C295 H299 0.930 . S
C296 C295 1.369 . S
C296 C305 1.429 1_565 S
C297 C295 1.419 . S
C297 C298 1.363 . S
C297 H300 0.929 . S
C298 C297 1.363 . S
C298 C304 1.428 1_565 S
H299 C295 0.930 . S
H300 C297 0.929 . S
S301 N302 1.613 . S
S301 N303 1.610 . S
N302 S301 1.613 . S
N302 C305 1.350 . S
N303 S301 1.610 . S
N303 C304 1.351 . S
C304 C298 1.428 1_545 S
C304 N303 1.351 . S
C304 C305 1.434 . S
C305 C296 1.429 1_545 S
C305 N302 1.350 . S
C305 C304 1.434 . S
C306 C307 1.369 . S
C306 C308 1.419 . S
C306 H310 0.930 1_556 S
C307 C306 1.369 . S
C307 C316 1.429 . S
C308 C306 1.419 . S
C308 C309 1.363 . S
C308 H311 0.929 . S
C309 C308 1.363 . S
C309 C315 1.428 . S
H310 C306 0.930 1_554 S
H311 C308 0.929 . S
S312 N313 1.613 . S
S312 N314 1.610 . S
N313 S312 1.613 . S
N313 C316 1.350 . S
N314 S312 1.610 . S
N314 C315 1.351 . S
C315 C309 1.428 . S
C315 N314 1.351 . S
C315 C316 1.434 . S
C316 C307 1.429 . S
C316 N313 1.350 . S
C316 C315 1.434 . S
C317 C318 1.369 . S
C317 C319 1.419 . S
C317 H321 0.930 . S
C318 C317 1.369 . S
C318 C327 1.429 . S
C319 C317 1.419 . S
C319 C320 1.363 . S
C319 H322 0.929 . S
C320 C319 1.363 . S
C320 C326 1.428 . S
H321 C317 0.930 . S
H322 C319 0.929 . S
S323 N324 1.613 . S
S323 N325 1.610 . S
N324 S323 1.613 . S
N324 C327 1.350 1_556 S
N325 S323 1.610 . S
N325 C326 1.351 1_556 S
C326 C320 1.428 . S
C326 N325 1.351 1_554 S
C326 C327 1.434 . S
C327 C318 1.429 . S
C327 N324 1.350 1_554 S
C327 C326 1.434 . S
C328 C329 1.369 . S
C328 C330 1.419 . S
C328 H332 0.930 . S
C329 C328 1.369 . S
C329 C338 1.429 . S
C330 C328 1.419 . S
C330 C331 1.363 . S
C330 H333 0.929 . S
C331 C330 1.363 . S
C331 C337 1.428 . S
H332 C328 0.930 . S
H333 C330 0.929 . S
S334 N335 1.613 . S
S334 N336 1.610 . S
N335 S334 1.613 . S
N335 C338 1.350 . S
N336 S334 1.610 . S
N336 C337 1.351 . S
C337 C331 1.428 . S
C337 N336 1.351 . S
C337 C338 1.434 . S
C338 C329 1.429 . S
C338 N335 1.350 . S
C338 C337 1.434 . S
C339 C340 1.369 . S
C339 C341 1.419 . S
C339 H343 0.930 . S
C340 C339 1.369 . S
C340 C349 1.429 . S
C341 C339 1.419 . S
C341 C342 1.363 . S
C341 H344 0.929 . S
C342 C341 1.363 . S
C342 C348 1.428 . S
H343 C339 0.930 . S
H344 C341 0.929 . S
S345 N346 1.613 . S
S345 N347 1.610 . S
N346 S345 1.613 . S
N346 C349 1.350 1_556 S
N347 S345 1.610 . S
N347 C348 1.351 1_556 S
C348 C342 1.428 . S
C348 N347 1.351 1_554 S
C348 C349 1.434 . S
C349 C340 1.429 . S
C349 N346 1.350 1_554 S
C349 C348 1.434 . S
C350 C351 1.369 . S
C350 C352 1.419 . S
C350 H354 0.930 . S
C351 C350 1.369 . S
C351 C360 1.429 . S
C352 C350 1.419 . S
C352 C353 1.363 . S
C352 H355 0.929 . S
C353 C352 1.363 . S
C353 C359 1.428 . S
H354 C350 0.930 . S
H355 C352 0.929 . S
S356 N357 1.613 . S
S356 N358 1.610 . S
N357 S356 1.613 . S
N357 C360 1.350 . S
N358 S356 1.610 . S
N358 C359 1.351 . S
C359 C353 1.428 . S
C359 N358 1.351 . S
C359 C360 1.434 . S
C360 C351 1.429 . S
C360 N357 1.350 . S
C360 C359 1.434 . S
C361 C362 1.369 . S
C361 C363 1.419 1_554 S
C361 H365 0.930 1_554 S
C362 C361 1.369 . S
C362 C371 1.429 . S
C363 C361 1.419 1_556 S
C363 C364 1.363 1_556 S
C363 H366 0.929 . S
C364 C363 1.363 1_554 S
C364 C370 1.428 . S
H365 C361 0.930 1_556 S
H366 C363 0.929 . S
S367 N368 1.613 . S
S367 N369 1.610 . S
N368 S367 1.613 . S
N368 C371 1.350 . S
N369 S367 1.610 . S
N369 C370 1.351 . S
C370 C364 1.428 . S
C370 N369 1.351 . S
C370 C371 1.434 . S
C371 C362 1.429 . S
C371 N368 1.350 . S
C371 C370 1.434 . S
C372 C373 1.369 . S
C372 C374 1.419 . S
C372 H376 0.930 . S
C373 C372 1.369 . S
C373 C382 1.429 . S
C374 C372 1.419 . S
C374 C375 1.363 . S
C374 H377 0.929 . S
C375 C374 1.363 . S
C375 C381 1.428 . S
H376 C372 0.930 . S
H377 C374 0.929 . S
S378 N379 1.613 . S
S378 N380 1.610 . S
N379 S378 1.613 . S
N379 C382 1.350 . S
N380 S378 1.610 . S
N380 C381 1.351 . S
C381 C375 1.428 . S
C381 N380 1.351 . S
C381 C382 1.434 . S
C382 C373 1.429 . S
C382 N379 1.350 . S
C382 C381 1.434 . S
C383 C384 1.369 . S
C383 C385 1.419 . S
C383 H387 0.930 . S
C384 C383 1.369 . S
C384 C393 1.429 . S
C385 C383 1.419 . S
C385 C386 1.363 . S
C385 H388 0.929 . S
C386 C385 1.363 . S
C386 C392 1.428 . S
H387 C383 0.930 . S
H388 C385 0.929 . S
S389 N390 1.613 . S
S389 N391 1.610 . S
N390 S389 1.613 . S
N390 C393 1.350 . S
N391 S389 1.610 . S
N391 C392 1.351 . S
C392 C386 1.428 . S
C392 N391 1.351 . S
C392 C393 1.434 . S
C393 C384 1.429 . S
C393 N390 1.350 . S
C393 C392 1.434 . S
C394 C395 1.369 . S
C394 C396 1.419 . S
C394 H398 0.930 . S
C395 C394 1.369 . S
C395 C404 1.429 . S
C396 C394 1.419 . S
C396 C397 1.363 . S
C396 H399 0.929 . S
C397 C396 1.363 . S
C397 C403 1.428 . S
H398 C394 0.930 . S
H399 C396 0.929 . S
S400 N401 1.613 . S
S400 N402 1.610 . S
N401 S400 1.613 . S
N401 C404 1.350 . S
N402 S400 1.610 . S
N402 C403 1.351 . S
C403 C397 1.428 . S
C403 N402 1.351 . S
C403 C404 1.434 . S
C404 C395 1.429 . S
C404 N401 1.350 . S
C404 C403 1.434 . S
C405 C406 1.369 . S
C405 C407 1.419 . S
C405 H409 0.930 . S
C406 C405 1.369 . S
C406 C415 1.429 . S
C407 C405 1.419 . S
C407 C408 1.363 . S
C407 H410 0.929 . S
C408 C407 1.363 . S
C408 C414 1.428 . S
H409 C405 0.930 . S
H410 C407 0.929 . S
S411 N412 1.613 . S
S411 N413 1.610 . S
N412 S411 1.613 . S
N412 C415 1.350 . S
N413 S411 1.610 . S
N413 C414 1.351 . S
C414 C408 1.428 . S
C414 N413 1.351 . S
C414 C415 1.434 . S
C415 C406 1.429 . S
C415 N412 1.350 . S
C415 C414 1.434 . S
C416 C417 1.369 . S
C416 C418 1.419 . S
C416 H420 0.930 . S
C417 C416 1.369 . S
C417 C426 1.429 . S
C418 C416 1.419 . S
C418 C419 1.363 . S
C418 H421 0.929 . S
C419 C418 1.363 . S
C419 C425 1.428 . S
H420 C416 0.930 . S
H421 C418 0.929 . S
S422 N423 1.613 . S
S422 N424 1.610 . S
N423 S422 1.613 . S
N423 C426 1.350 . S
N424 S422 1.610 . S
N424 C425 1.351 . S
C425 C419 1.428 . S
C425 N424 1.351 . S
C425 C426 1.434 . S
C426 C417 1.429 . S
C426 N423 1.350 . S
C426 C425 1.434 . S
C427 C428 1.369 . S
C427 C429 1.419 . S
C427 H431 0.930 . S
C428 C427 1.369 . S
C428 C437 1.429 . S
C429 C427 1.419 . S
C429 C430 1.363 . S
C429 H432 0.929 . S
C430 C429 1.363 . S
C430 C436 1.428 . S
H431 C427 0.930 . S
H432 C429 0.929 . S
S433 N434 1.613 . S
S433 N435 1.610 . S
N434 S433 1.613 . S
N434 C437 1.350 . S
N435 S433 1.610 . S
N435 C436 1.351 . S
C436 C430 1.428 . S
C436 N435 1.351 . S
C436 C437 1.434 . S
C437 C428 1.429 . S
C437 N434 1.350 . S
C437 C436 1.434 . S
C241 C209 1.860 . S
C243 C9 2.129 . S
C252 C22 3.613 . S
C254 C66 3.343 . S
C263 C43 3.120 . S
C265 C89 2.761 . S
C274 C142 4.563 . S
C276 C102 4.458 . S
C285 C169 2.474 1_655 S
C287 C129 2.647 . S
C296 C182 3.155 . S
C298 C222 3.028 1_565 S
C307 C163 1.488 . S
C309 C26 1.377 . S
C318 C226 1.250 . S
C320 C49 1.212 . S
C329 C106 2.164 . S
C331 C3 2.154 . S
C340 C123 3.920 1_554 S
C342 C62 3.970 . S
C351 C186 3.006 . S
C353 C83 3.103 1_556 S
C362 C146 2.153 . S
C364 C203 2.282 . S
C373 C2 0.825 . S
C375 C15 0.814 . S
C384 C42 0.929 . S
C386 C55 0.921 . S
C395 C82 0.884 . S
C397 C95 0.883 . S
C406 C135 0.831 . S
C408 C122 0.830 . S
C417 C175 0.973 . S
C419 C162 0.968 . S
C428 C215 0.936 . S
C430 C202 0.920 . S
