# Generated by pormake.
# Topology unv, (4)-cn, num edge types: 1
# Building blocks:
#     Node 0, Type 0, BuildingBlock: GALJAG_clean_sbu_0, # of connection points: 4
#     Node 1, Type 0, BuildingBlock: GALJAG_clean_sbu_0, # of connection points: 4
#     Node 2, Type 0, BuildingBlock: GALJAG_clean_sbu_0, # of connection points: 4
#     Node 3, Type 0, BuildingBlock: GALJAG_clean_sbu_0, # of connection points: 4
#     Node 4, Type 0, BuildingBlock: GALJAG_clean_sbu_0, # of connection points: 4
#     Node 5, Type 0, BuildingBlock: GALJAG_clean_sbu_0, # of connection points: 4
#     Node 6, Type 0, BuildingBlock: GALJAG_clean_sbu_0, # of connection points: 4
#     Node 7, Type 0, BuildingBlock: GALJAG_clean_sbu_0, # of connection points: 4
#     Node 8, Type 0, BuildingBlock: GALJAG_clean_sbu_0, # of connection points: 4
#     Node 9, Type 0, BuildingBlock: GALJAG_clean_sbu_0, # of connection points: 4
#     Node 10, Type 0, BuildingBlock: GALJAG_clean_sbu_0, # of connection points: 4
#     Node 11, Type 0, BuildingBlock: GALJAG_clean_sbu_0, # of connection points: 4
#     Node 12, Type 0, BuildingBlock: GALJAG_clean_sbu_0, # of connection points: 4
#     Node 13, Type 0, BuildingBlock: GALJAG_clean_sbu_0, # of connection points: 4
#     Node 14, Type 0, BuildingBlock: GALJAG_clean_sbu_0, # of connection points: 4
#     Node 15, Type 0, BuildingBlock: GALJAG_clean_sbu_0, # of connection points: 4
#     Node 16, Type 0, BuildingBlock: GALJAG_clean_sbu_0, # of connection points: 4
#     Node 17, Type 0, BuildingBlock: GALJAG_clean_sbu_0, # of connection points: 4
#     Node 18, Type 0, BuildingBlock: GALJAG_clean_sbu_0, # of connection points: 4
#     Node 19, Type 0, BuildingBlock: GALJAG_clean_sbu_0, # of connection points: 4
#     Node 20, Type 0, BuildingBlock: GALJAG_clean_sbu_0, # of connection points: 4
#     Node 21, Type 0, BuildingBlock: GALJAG_clean_sbu_0, # of connection points: 4
#     Node 22, Type 0, BuildingBlock: GALJAG_clean_sbu_0, # of connection points: 4
#     Node 23, Type 0, BuildingBlock: GALJAG_clean_sbu_0, # of connection points: 4
#     Edge 24, Type (0, 0), BuildingBlock: ZUJKAS_clean_linker_0, # of connection points: 2
#     Edge 25, Type (0, 0), BuildingBlock: ZUJKAS_clean_linker_0, # of connection points: 2
#     Edge 26, Type (0, 0), BuildingBlock: ZUJKAS_clean_linker_0, # of connection points: 2
#     Edge 27, Type (0, 0), BuildingBlock: ZUJKAS_clean_linker_0, # of connection points: 2
#     Edge 28, Type (0, 0), BuildingBlock: ZUJKAS_clean_linker_0, # of connection points: 2
#     Edge 29, Type (0, 0), BuildingBlock: ZUJKAS_clean_linker_0, # of connection points: 2
#     Edge 30, Type (0, 0), BuildingBlock: ZUJKAS_clean_linker_0, # of connection points: 2
#     Edge 31, Type (0, 0), BuildingBlock: ZUJKAS_clean_linker_0, # of connection points: 2
#     Edge 32, Type (0, 0), BuildingBlock: ZUJKAS_clean_linker_0, # of connection points: 2
#     Edge 33, Type (0, 0), BuildingBlock: ZUJKAS_clean_linker_0, # of connection points: 2
#     Edge 34, Type (0, 0), BuildingBlock: ZUJKAS_clean_linker_0, # of connection points: 2
#     Edge 35, Type (0, 0), BuildingBlock: ZUJKAS_clean_linker_0, # of connection points: 2
#     Edge 36, Type (0, 0), BuildingBlock: ZUJKAS_clean_linker_0, # of connection points: 2
#     Edge 37, Type (0, 0), BuildingBlock: ZUJKAS_clean_linker_0, # of connection points: 2
#     Edge 38, Type (0, 0), BuildingBlock: ZUJKAS_clean_linker_0, # of connection points: 2
#     Edge 39, Type (0, 0), BuildingBlock: ZUJKAS_clean_linker_0, # of connection points: 2
#     Edge 40, Type (0, 0), BuildingBlock: ZUJKAS_clean_linker_0, # of connection points: 2
#     Edge 41, Type (0, 0), BuildingBlock: ZUJKAS_clean_linker_0, # of connection points: 2
#     Edge 42, Type (0, 0), BuildingBlock: ZUJKAS_clean_linker_0, # of connection points: 2
#     Edge 43, Type (0, 0), BuildingBlock: ZUJKAS_clean_linker_0, # of connection points: 2
#     Edge 44, Type (0, 0), BuildingBlock: ZUJKAS_clean_linker_0, # of connection points: 2
#     Edge 45, Type (0, 0), BuildingBlock: ZUJKAS_clean_linker_0, # of connection points: 2
#     Edge 46, Type (0, 0), BuildingBlock: ZUJKAS_clean_linker_0, # of connection points: 2
#     Edge 47, Type (0, 0), BuildingBlock: ZUJKAS_clean_linker_0, # of connection points: 2
#     Edge 48, Type (0, 0), BuildingBlock: ZUJKAS_clean_linker_0, # of connection points: 2
#     Edge 49, Type (0, 0), BuildingBlock: ZUJKAS_clean_linker_0, # of connection points: 2
#     Edge 50, Type (0, 0), BuildingBlock: ZUJKAS_clean_linker_0, # of connection points: 2
#     Edge 51, Type (0, 0), BuildingBlock: ZUJKAS_clean_linker_0, # of connection points: 2
#     Edge 52, Type (0, 0), BuildingBlock: ZUJKAS_clean_linker_0, # of connection points: 2
#     Edge 53, Type (0, 0), BuildingBlock: ZUJKAS_clean_linker_0, # of connection points: 2
#     Edge 54, Type (0, 0), BuildingBlock: ZUJKAS_clean_linker_0, # of connection points: 2
#     Edge 55, Type (0, 0), BuildingBlock: ZUJKAS_clean_linker_0, # of connection points: 2
#     Edge 56, Type (0, 0), BuildingBlock: ZUJKAS_clean_linker_0, # of connection points: 2
#     Edge 57, Type (0, 0), BuildingBlock: ZUJKAS_clean_linker_0, # of connection points: 2
#     Edge 58, Type (0, 0), BuildingBlock: ZUJKAS_clean_linker_0, # of connection points: 2
#     Edge 59, Type (0, 0), BuildingBlock: ZUJKAS_clean_linker_0, # of connection points: 2
#     Edge 60, Type (0, 0), BuildingBlock: ZUJKAS_clean_linker_0, # of connection points: 2
#     Edge 61, Type (0, 0), BuildingBlock: ZUJKAS_clean_linker_0, # of connection points: 2
#     Edge 62, Type (0, 0), BuildingBlock: ZUJKAS_clean_linker_0, # of connection points: 2
#     Edge 63, Type (0, 0), BuildingBlock: ZUJKAS_clean_linker_0, # of connection points: 2
#     Edge 64, Type (0, 0), BuildingBlock: ZUJKAS_clean_linker_0, # of connection points: 2
#     Edge 65, Type (0, 0), BuildingBlock: ZUJKAS_clean_linker_0, # of connection points: 2
#     Edge 66, Type (0, 0), BuildingBlock: ZUJKAS_clean_linker_0, # of connection points: 2
#     Edge 67, Type (0, 0), BuildingBlock: ZUJKAS_clean_linker_0, # of connection points: 2
#     Edge 68, Type (0, 0), BuildingBlock: ZUJKAS_clean_linker_0, # of connection points: 2
#     Edge 69, Type (0, 0), BuildingBlock: ZUJKAS_clean_linker_0, # of connection points: 2
#     Edge 70, Type (0, 0), BuildingBlock: ZUJKAS_clean_linker_0, # of connection points: 2
#     Edge 71, Type (0, 0), BuildingBlock: ZUJKAS_clean_linker_0, # of connection points: 2
# Relax obj value: 0.404
# Max RMSD: 0.239
# Mean RMSD: 0.210
data_MOF--net-unv--node1-GALJAG_clean_sbu_0--edge1-ZUJKAS_clean_linker_0
_symmetry_space_group_name_H-M    P1
_symmetry_Int_Tables_number       1
_symmetry_cell_setting            triclinic
loop_
_symmetry_equiv_pos_as_xyz
'x, y, z'
_cell_length_a     62.859485
_cell_length_b     62.875342
_cell_length_c     62.899331
_cell_angle_alpha  90.034218
_cell_angle_beta   90.020133
_cell_angle_gamma 90.04527
loop_
_atom_site_label
_atom_site_type_symbol
_atom_site_fract_x
_atom_site_fract_y
_atom_site_fract_z
_atom_type_partial_charge
In0 In 0.9956 0.09482 0.37757 0.0
O1 O 0.02136 0.07815 0.35846 0.0
O2 O 0.99017 0.07958 0.3453 0.0
C3 C 0.02525 0.09434 0.40852 0.0
C4 C 0.98805 0.13418 0.36237 0.0
C5 C 0.96365 0.07243 0.39582 0.0
O6 O 0.0217 0.07872 0.39645 0.0
O7 O 0.0139 0.1105 0.40492 0.0
O8 O 0.9728 0.08768 0.40509 0.0
O9 O 0.97 0.06912 0.37714 0.0
C10 C 0.00913 0.07325 0.3433 0.0
O11 O 0.9741 0.1237 0.37227 0.0
O12 O 0.00562 0.12484 0.36028 0.0
In13 In 0.97 0.39584 0.36067 0.0
O14 O 0.99037 0.36736 0.35184 0.0
O15 O 0.95735 0.36618 0.34439 0.0
C16 C -8e-05 0.42185 0.37717 0.0
C17 C 0.9563 0.41897 0.32736 0.0
C18 C 0.94845 0.38619 0.39642 0.0
O19 O 0.00476 0.40532 0.36686 0.0
O20 O 0.98024 0.42511 0.37899 0.0
O21 O 0.94137 0.39895 0.38264 0.0
O22 O 0.96624 0.37806 0.39201 0.0
C23 C 0.9751 0.3568 0.34415 0.0
O24 O 0.94423 0.41391 0.34256 0.0
O25 O 0.97506 0.41203 0.32883 0.0
In26 In 0.01337 0.9011 0.14435 0.0
O27 O 0.99304 0.87254 0.15387 0.0
O28 O 0.02665 0.8695 0.15552 0.0
C29 C 0.98116 0.92692 0.13285 0.0
C30 C 0.02633 0.92223 0.17915 0.0
C31 C 0.03671 0.8983 0.10841 0.0
O32 O 0.97995 0.90695 0.13085 0.0
O33 O -0.00156 0.93361 0.14051 0.0
O34 O 0.04503 0.90094 0.12645 0.0
O35 O 0.01672 0.89688 0.10853 0.0
C36 C 0.00876 0.86091 0.15832 0.0
O37 O 0.03611 0.92339 0.16164 0.0
O38 O 0.01031 0.91009 0.17912 0.0
In39 In 0.97798 0.60117 0.14375 0.0
O40 O 0.95129 0.58059 0.15716 0.0
O41 O 0.97713 0.58855 0.17755 0.0
C42 C 0.95964 0.60982 0.10595 0.0
C43 C 0.98278 0.63967 0.16172 0.0
C44 C 0.00956 0.57478 0.13165 0.0
O45 O 0.94955 0.60155 0.1212 0.0
O46 O 0.97891 0.61379 0.10981 0.0
O47 O 0.01244 0.59453 0.13378 0.0
O48 O 0.99095 0.56852 0.13567 0.0
C49 C 0.95974 0.57874 0.17528 0.0
O50 O 0.99793 0.62662 0.16009 0.0
O51 O 0.96522 0.63316 0.15451 0.0
In52 In 0.37157 -0.00082 0.08924 0.0
O53 O 0.36754 0.97888 0.11913 0.0
O54 O 0.35898 0.01148 0.12073 0.0
C55 C 0.38402 0.96446 0.06708 0.0
C56 C 0.33599 0.01498 0.0716 0.0
C57 C 0.40513 0.02541 0.08397 0.0
O58 O 0.3954 0.97276 0.08136 0.0
O59 O 0.36622 0.97325 0.06451 0.0
O60 O 0.3919 0.02152 0.0694 0.0
O61 O 0.40138 0.01618 0.10138 0.0
C62 C 0.36037 0.99394 0.13026 0.0
O63 O 0.35239 0.02621 0.07456 0.0
O64 O 0.33751 0.99596 0.07781 0.0
In65 In 0.61083 0.51733 0.1 0.0
O66 O 0.62815 0.49647 0.0759 0.0
O67 O 0.63761 0.52885 0.07878 0.0
C68 C 0.58254 0.48539 0.10331 0.0
C69 C 0.63128 0.51902 0.13769 0.0
C70 C 0.58801 0.54994 0.08346 0.0
O71 O 0.5951 0.48725 0.08774 0.0
O72 O 0.58455 0.49947 0.11751 0.0
O73 O 0.57988 0.53248 0.08882 0.0
O74 O 0.60761 0.55146 0.08733 0.0
C75 C 0.64033 0.51118 0.06967 0.0
O76 O 0.61556 0.53075 0.13355 0.0
O77 O 0.63666 0.50672 0.12287 0.0
In78 In 0.37121 0.98729 0.39463 0.0
O79 O 0.3635 0.00632 0.3648 0.0
O80 O 0.35558 0.97344 0.36523 0.0
C81 C 0.38208 0.01831 0.42211 0.0
C82 C 0.3383 0.97141 0.41684 0.0
C83 C 0.40876 0.96818 0.38648 0.0
O84 O 0.37415 0.02239 0.40411 0.0
O85 O 0.3847 -0.0012 0.42592 0.0
O86 O 0.39348 0.95872 0.39542 0.0
O87 O 0.40512 0.9873 0.3817 0.0
C88 C 0.35584 0.99061 0.35491 0.0
O89 O 0.35521 0.96101 0.41379 0.0
O90 O 0.33789 0.98956 0.40828 0.0
In91 In 0.63419 0.48419 0.38966 0.0
O92 O 0.65282 0.50738 0.41033 0.0
O93 O 0.66434 0.47565 0.40758 0.0
C94 C 0.60195 0.51042 0.37921 0.0
C95 C 0.65246 0.47971 0.35132 0.0
C96 C 0.61401 0.45514 0.41389 0.0
O97 O 0.61633 0.51564 0.39225 0.0
O98 O 0.60412 0.49217 0.37116 0.0
O99 O 0.62667 0.44965 0.39928 0.0
O100 O 0.61174 0.47492 0.41602 0.0
C101 C 0.66678 0.49392 0.41556 0.0
O102 O 0.63901 0.46654 0.35835 0.0
O103 O 0.65695 0.49473 0.36382 0.0
In104 In 0.09457 0.37128 0.99591 0.0
O105 O 0.08021 0.35399 0.02423 0.0
O106 O 0.08212 0.33735 0.99481 0.0
C107 C 0.09449 0.40565 0.02147 0.0
C108 C 0.13424 0.35678 0.98854 0.0
C109 C 0.06929 0.38597 0.96429 0.0
O110 O 0.08085 0.39099 0.02279 0.0
O111 O 0.1084 0.40297 0.00726 0.0
O112 O 0.08688 0.39447 0.96881 0.0
O113 O 0.06495 0.36971 0.9751 0.0
C114 C 0.07639 0.33711 0.01405 0.0
O115 O 0.12092 0.35933 0.97376 0.0
O116 O 0.12756 0.36166 0.00677 0.0
In117 In 0.09788 0.61448 0.52003 0.0
O118 O 0.07868 0.6378 0.50008 0.0
O119 O 0.08082 0.64332 0.53342 0.0
C120 C 0.09923 0.58509 0.48889 0.0
C121 C 0.13831 0.62863 0.52151 0.0
C122 C 0.07636 0.59431 0.55119 0.0
O123 O 0.0873 0.60122 0.48809 0.0
O124 O 0.11088 0.58405 0.5052 0.0
O125 O 0.0731 0.59125 0.53168 0.0
O126 O 0.09094 0.60753 0.55532 0.0
C127 C 0.07359 0.64935 0.5157 0.0
O128 O 0.13219 0.61271 0.53208 0.0
O129 O 0.12403 0.63748 0.51065 0.0
In130 In 0.9017 0.85449 0.53452 0.0
O131 O 0.86805 0.84739 0.54673 0.0
O132 O 0.87576 0.83931 0.51485 0.0
C133 C 0.9189 0.86682 0.57216 0.0
C134 C 0.92849 0.82315 0.52328 0.0
C135 C 0.90227 0.88871 0.50892 0.0
O136 O 0.91237 0.87974 0.55839 0.0
O137 O 0.91553 0.84763 0.56759 0.0
O138 O 0.91489 0.87324 0.50657 0.0
O139 O 0.88919 0.88676 0.52404 0.0
C140 C 0.86191 0.83952 0.52929 0.0
O141 O 0.93113 0.84212 0.5172 0.0
O142 O 0.91231 0.82011 0.53475 0.0
In143 In 0.39612 0.62269 0.47805 0.0
O144 O 0.3639 0.62592 0.46166 0.0
O145 O 0.36991 0.64484 0.48904 0.0
C146 C 0.42006 0.60343 0.44817 0.0
C147 C 0.42194 0.65554 0.4872 0.0
C148 C 0.38748 0.59037 0.50475 0.0
O149 O 0.40561 0.61649 0.44323 0.0
O150 O 0.42208 0.60018 0.46782 0.0
O151 O 0.39998 0.60535 0.50959 0.0
O152 O 0.37915 0.59188 0.48656 0.0
C153 C 0.35689 0.63936 0.47483 0.0
O154 O 0.41693 0.64168 0.50085 0.0
O155 O 0.41367 0.65294 0.46909 0.0
In156 In 0.48132 0.60056 0.84876 0.0
O157 O 0.46833 0.63218 0.83634 0.0
O158 O 0.50186 0.62804 0.83815 0.0
C159 C 0.44554 0.57854 0.85738 0.0
C160 C 0.49545 0.57751 0.81579 0.0
C161 C 0.49905 0.60258 0.8878 0.0
O162 O 0.44574 0.59864 0.85735 0.0
O163 O 0.46309 0.56995 0.85304 0.0
O164 O 0.50761 0.59275 0.87255 0.0
O165 O 0.4816 0.61137 0.88334 0.0
C166 C 0.48658 0.64011 0.83349 0.0
O167 O 0.50472 0.57763 0.83363 0.0
O168 O 0.47929 0.5894 0.8145 0.0
In169 In 0.52404 0.89961 0.85951 0.0
O170 O 0.54002 0.86693 0.85756 0.0
O171 O 0.51316 0.873 0.83796 0.0
C172 C 0.55348 0.92448 0.87817 0.0
C173 C 0.51718 0.92449 0.82552 0.0
C174 C 0.49581 0.89291 0.89095 0.0
O175 O 0.55872 0.90886 0.86665 0.0
O176 O 0.53373 0.92709 0.88036 0.0
O177 O 0.49078 0.90172 0.87363 0.0
O178 O 0.51502 0.8872 0.89226 0.0
C179 C 0.52712 0.85992 0.84384 0.0
O180 O 0.50311 0.92135 0.83951 0.0
O181 O 0.53457 0.91498 0.82868 0.0
In182 In 0.48822 0.39158 0.62655 0.0
O183 O 0.47169 0.35996 0.63345 0.0
O184 O 0.50209 0.36565 0.64724 0.0
C185 C 0.45698 0.4167 0.61153 0.0
C186 C 0.4982 0.41598 0.66004 0.0
C187 C 0.51237 0.3842 0.5918 0.0
O188 O 0.45337 0.3977 0.617 0.0
O189 O 0.47606 0.42255 0.6133 0.0
O190 O 0.51872 0.39533 0.60723 0.0
O191 O 0.49392 0.37668 0.59394 0.0
C192 C 0.48666 0.35307 0.64495 0.0
O193 O 0.51108 0.41264 0.64497 0.0
O194 O 0.48047 0.4066 0.65838 0.0
In195 In 0.51101 0.09811 0.61967 0.0
O196 O 0.5273 0.13056 0.62095 0.0
O197 O 0.50522 0.12278 0.64532 0.0
C198 C 0.53776 0.07608 0.59444 0.0
C199 C 0.50801 0.07085 0.6524 0.0
C200 C 0.4783 0.1059 0.59316 0.0
O201 O 0.54452 0.08949 0.6078 0.0
O202 O 0.51782 0.07421 0.59375 0.0
O203 O 0.47743 0.09201 0.60762 0.0
O204 O 0.49549 0.11626 0.59245 0.0
C205 C 0.51777 0.13636 0.63764 0.0
O206 O 0.49181 0.07837 0.64321 0.0
O207 O 0.52561 0.07724 0.64516 0.0
In208 In 0.85497 0.4902 0.60473 0.0
O209 O 0.83932 0.51198 0.58027 0.0
O210 O 0.82434 0.48246 0.58738 0.0
C211 C 0.88923 0.51361 0.61532 0.0
C212 C 0.83438 0.49126 0.64204 0.0
C213 C 0.87345 0.4581 0.58326 0.0
O214 O 0.87582 0.51965 0.60162 0.0
O215 O 0.88514 0.49592 0.62388 0.0
O216 O 0.87691 0.47747 0.57953 0.0
O217 O 0.86063 0.45457 0.59833 0.0
C218 C 0.82406 0.49941 0.57666 0.0
O219 O 0.84471 0.47509 0.63603 0.0
O220 O 0.83428 0.50656 0.62909 0.0
In221 In 0.15027 0.97458 0.5997 0.0
O222 O 0.15944 0.99549 0.62789 0.0
O223 O 0.165 0.96222 0.63018 0.0
C224 C 0.13781 0.00546 0.57289 0.0
C225 C 0.1832 0.96038 0.57639 0.0
C226 C 0.11378 0.95366 0.60851 0.0
O227 O 0.14282 0.00935 0.59196 0.0
O228 O 0.13895 0.98613 0.5676 0.0
O229 O 0.13092 0.94408 0.60442 0.0
O230 O 0.11505 0.97364 0.60801 0.0
C231 C 0.16608 0.98017 0.63903 0.0
O232 O 0.16577 0.95044 0.57746 0.0
O233 O 0.1841 0.97709 0.58748 0.0
In234 In 0.84729 0.51868 0.90197 0.0
O235 O 0.83609 0.53447 0.87127 0.0
O236 O 0.8381 0.5007 0.87221 0.0
C237 C 0.8601 0.55309 0.92427 0.0
C238 C 0.81083 0.50801 0.92141 0.0
C239 C 0.88306 0.49503 0.90341 0.0
O240 O 0.86365 0.55138 0.9046 0.0
O241 O 0.85007 0.53776 0.93231 0.0
O242 O 0.86661 0.49042 0.91396 0.0
O243 O 0.88138 0.51144 0.89204 0.0
C244 C 0.83352 0.51706 0.86158 0.0
O245 O 0.82732 0.49656 0.9225 0.0
O246 O 0.81274 0.52461 0.91025 0.0
In247 In 0.14167 0.01018 0.90105 0.0
O248 O 0.15213 0.0299 0.9296 0.0
O249 O 0.17612 0.01761 0.90915 0.0
C250 C 0.10745 0.03558 0.89662 0.0
C251 C 0.15637 0.00385 0.86134 0.0
C252 C 0.13059 0.97549 0.92411 0.0
O253 O 0.12398 0.04125 0.90651 0.0
O254 O 0.10834 0.0172 0.88858 0.0
O255 O 0.11725 0.98667 0.91424 0.0
O256 O 0.14958 0.98142 0.9219 0.0
C257 C 0.17174 0.0281 0.92569 0.0
O258 O 0.15104 0.98873 0.87337 0.0
O259 O 0.15425 0.0221 0.86933 0.0
In260 In 0.60322 0.85059 0.4803 0.0
O261 O 0.63434 0.83655 0.46779 0.0
O262 O 0.6309 0.84115 0.50113 0.0
C263 C 0.58333 0.86194 0.44403 0.0
C264 C 0.57999 0.81688 0.49235 0.0
C265 C 0.60411 0.88859 0.50019 0.0
O266 O 0.60327 0.86337 0.44597 0.0
O267 O 0.57385 0.85464 0.46006 0.0
O268 O 0.59271 0.87334 0.5066 0.0
O269 O 0.61499 0.88463 0.48385 0.0
C270 C 0.64259 0.83504 0.48605 0.0
O271 O 0.57967 0.8343 0.50241 0.0
O272 O 0.59241 0.81641 0.47656 0.0
In273 In 0.60699 0.15362 0.97086 0.0
O274 O 0.58986 0.17342 0.94565 0.0
O275 O 0.59257 0.18599 0.97698 0.0
C276 C 0.61729 0.118 0.94933 0.0
C277 C 0.64554 0.17037 0.97824 0.0
C278 C 0.57814 0.13735 -0.00194 0.0
O279 O 0.60588 0.13245 0.94131 0.0
O280 O 0.62368 0.12172 0.96796 0.0
O281 O 0.59631 0.14334 0.00424 0.0
O282 O 0.57481 0.13952 0.97843 0.0
C283 C 0.58559 0.18842 0.95833 0.0
O284 O 0.63398 0.16309 0.99298 0.0
O285 O 0.63748 0.16941 0.95988 0.0
In286 In 0.39259 0.36874 0.9785 0.0
O287 O 0.41681 0.35603 0.9546 0.0
O288 O 0.4109 0.33783 0.98243 0.0
C289 C 0.38127 0.40367 0.95652 0.0
C290 C 0.35466 0.34888 0.97939 0.0
C291 C 0.41447 0.38533 0.0115 0.0
O292 O 0.3934 0.38954 0.949 0.0
O293 O 0.37465 0.40007 0.97512 0.0
O294 O 0.40098 0.37066 0.01401 0.0
O295 O 0.41667 0.39153 0.99258 0.0
C296 C 0.42117 0.33964 0.9653 0.0
O297 O 0.36229 0.35828 0.99542 0.0
O298 O 0.36635 0.3492 0.96312 0.0
In299 In 0.90531 0.1441 0.0175 0.0
O300 O 0.8793 0.15806 0.99664 0.0
O301 O 0.87239 0.15334 0.02939 0.0
C302 C 0.93209 0.13165 0.98631 0.0
C303 C 0.92575 0.1783 0.0332 0.0
C304 C 0.90028 0.10738 0.03907 0.0
O305 O 0.91217 0.13157 0.98389 0.0
O306 O 0.93831 0.1379 0.00429 0.0
O307 O 0.90795 0.12393 0.04745 0.0
O308 O 0.8948 0.10945 0.01989 0.0
C309 C 0.86591 0.15963 0.01149 0.0
O310 O 0.92502 0.1608 0.043 0.0
O311 O 0.91572 0.17862 0.01582 0.0
H312 H 0.13273 0.00122 0.53032 0.0
H313 H 0.11899 0.02742 0.50535 0.0
H314 H 0.11293 0.07317 0.55611 0.0
H315 H 0.12684 0.0468 0.58143 0.0
H316 H 0.0757 0.06703 0.53146 0.0
H317 H 0.14511 0.08157 0.4797 0.0
H318 H 0.141 0.05369 0.48417 0.0
H319 H 0.14758 0.07076 0.50623 0.0
C320 C 0.12873 0.01693 0.53617 0.0
C321 C 0.1308 0.02198 0.55782 0.0
C322 C 0.12108 0.03196 0.52184 0.0
C323 C 0.11533 0.05234 0.52883 0.0
C324 C 0.11757 0.05759 0.5504 0.0
H325 H 0.03274 0.12381 0.43982 0.0
H326 H 0.05665 0.11997 0.47052 0.0
C327 C 0.12546 0.04254 0.5648 0.0
C328 C 0.10495 0.06701 0.51369 0.0
H329 H 0.1103 0.08554 0.46305 0.0
C330 C 0.08337 0.07176 0.51676 0.0
C331 C 0.11509 0.07326 0.49464 0.0
C332 C 0.13855 0.06974 0.49108 0.0
C333 C 0.07111 0.08059 0.50033 0.0
C334 C 0.08087 0.08496 0.48055 0.0
C335 C 0.10286 0.08202 0.4782 0.0
C336 C 0.06803 0.08885 0.46126 0.0
C337 C 0.0475 0.08346 0.50361 0.0
C338 C 0.06704 0.0729 0.44571 0.0
C339 C 0.05352 0.07502 0.4283 0.0
C340 C 0.04077 0.09321 0.42606 0.0
C341 C 0.04235 0.10959 0.44122 0.0
C342 C 0.05592 0.10741 0.45875 0.0
H343 H 0.04214 0.07752 0.51936 0.0
H344 H 0.04345 0.10059 0.50247 0.0
H345 H 0.03851 0.07493 0.49101 0.0
H346 H 0.07627 0.05844 0.4474 0.0
H347 H 0.05273 0.06218 0.41683 0.0
H348 H 0.91606 0.4092 0.41335 0.0
H349 H 0.90258 0.40755 0.44962 0.0
H350 H 0.94283 0.35344 0.46236 0.0
H351 H 0.95716 0.35568 0.42616 0.0
H352 H 0.88268 0.37919 0.47465 0.0
H353 H 0.96426 0.3947 0.50593 0.0
H354 H 0.95836 0.39592 0.47794 0.0
H355 H 0.96052 0.37061 0.49107 0.0
C356 C 0.92184 0.39677 0.42376 0.0
C357 C 0.9379 0.3828 0.41708 0.0
C358 C 0.91408 0.39578 0.4445 0.0
C359 C 0.92203 0.38066 0.45888 0.0
C360 C 0.93689 0.36561 0.45173 0.0
H361 H 0.86434 0.41522 0.58284 0.0
H362 H 0.87704 0.38891 0.55676 0.0
C363 C 0.94496 0.36683 0.43103 0.0
C364 C 0.91604 0.38238 0.48163 0.0
H365 H 0.93598 0.39906 0.52928 0.0
C366 C 0.89432 0.38305 0.4868 0.0
C367 C 0.93132 0.38723 0.49747 0.0
C368 C 0.95491 0.38723 0.49292 0.0
C369 C 0.88738 0.39059 0.50663 0.0
C370 C 0.90266 0.39705 0.52184 0.0
C371 C 0.92436 0.39412 0.51751 0.0
C372 C 0.8969 0.41129 0.5397 0.0
C373 C 0.86384 0.39346 0.51036 0.0
C374 C 0.90458 0.43223 0.53931 0.0
C375 C 0.89759 0.44705 0.55414 0.0
C376 C 0.88268 0.44131 0.56972 0.0
C377 C 0.87576 0.42007 0.5709 0.0
C378 C 0.88288 0.40509 0.55597 0.0
H379 H 0.85424 0.38956 0.49604 0.0
H380 H 0.85863 0.38289 0.52349 0.0
H381 H 0.86037 0.41012 0.51508 0.0
H382 H 0.91539 0.43739 0.52692 0.0
H383 H 0.90336 0.46324 0.55289 0.0
H384 H 0.07986 0.89574 0.10403 0.0
H385 H 0.10046 0.89987 0.07122 0.0
H386 H 0.04223 0.9062 0.03545 0.0
H387 H 0.0216 0.90128 0.06798 0.0
H388 H 0.07224 0.88364 0.0135 0.0
H389 H 0.1068 0.95846 0.04589 0.0
H390 H 0.11228 0.93512 0.06134 0.0
H391 H 0.08539 0.94457 0.05893 0.0
C392 C 0.07149 0.89774 0.08911 0.0
C393 C 0.04916 0.89849 0.08855 0.0
C394 C 0.08326 0.90017 0.07042 0.0
C395 C 0.07288 0.90385 0.051 0.0
C396 C 0.05057 0.90347 0.05028 0.0
H397 H 0.09073 0.9599 0.93104 0.0
H398 H 0.0793 0.93738 0.96056 0.0
C399 C 0.0388 0.90073 0.06889 0.0
C400 C 0.08499 0.90977 0.03169 0.0
H401 H 0.11652 0.94893 0.01126 0.0
C402 C 0.08212 0.89779 0.01304 0.0
C403 C 0.09782 0.92828 0.03113 0.0
C404 C 0.10066 0.94248 0.05031 0.0
C405 C 0.09133 0.90414 0.99372 0.0
C406 C 0.10361 0.92294 0.9931 0.0
C407 C 0.10721 0.93441 0.01189 0.0
C408 C 0.11105 0.93248 0.97295 0.0
C409 C 0.08757 0.89092 0.97406 0.0
C410 C 0.13272 0.93689 0.96995 0.0
C411 C 0.13929 0.94979 0.95311 0.0
C412 C 0.12423 0.9587 0.9392 0.0
C413 C 0.10268 0.95325 0.94152 0.0
C414 C 0.09614 0.94025 0.95829 0.0
H415 H 0.08334 0.87426 0.97816 0.0
H416 H 0.07415 0.89783 0.96493 0.0
H417 H 0.10184 0.89083 0.96366 0.0
H418 H 0.14442 0.93117 0.98123 0.0
H419 H 0.15601 0.95374 0.95171 0.0
H420 H 0.91942 0.59983 0.09326 0.0
H421 H 0.90464 0.60251 0.05744 0.0
H422 H 0.96296 0.63109 0.03529 0.0
H423 H 0.97806 0.6281 0.07111 0.0
H424 H 0.89858 0.63694 0.02853 0.0
H425 H 0.95713 0.57728 -0.00122 0.0
H426 H 0.95318 0.58197 0.02679 0.0
H427 H 0.96753 0.60095 0.01101 0.0
C428 C 0.92903 0.60688 0.08083 0.0
C429 C 0.94998 0.61349 0.08489 0.0
C430 C 0.92054 0.60849 0.06039 0.0
C431 C 0.93281 0.61675 0.04369 0.0
C432 C 0.95336 0.62438 0.04792 0.0
H433 H 0.89301 0.58027 0.91534 0.0
H434 H 0.91138 0.60357 0.94082 0.0
C435 C 0.96192 0.62268 0.06837 0.0
C436 C 0.92448 0.61557 0.02173 0.0
H437 H 0.929 0.58619 0.97638 0.0
C438 C 0.90545 0.6262 0.01691 0.0
C439 C 0.93363 0.60176 0.00651 0.0
C440 C 0.95392 0.5897 0.01094 0.0
C441 C 0.89458 0.62225 -0.00217 0.0
C442 C 0.9028 0.60705 0.98345 0.0
C443 C 0.92273 0.59784 0.98745 0.0
C444 C 0.88947 0.59736 0.96663 0.0
C445 C 0.87392 0.63369 0.99367 0.0
C446 C 0.87088 0.58654 0.97258 0.0
C447 C 0.86057 0.57319 0.95822 0.0
C448 C 0.86865 0.57036 0.93762 0.0
C449 C 0.88642 0.58227 0.93113 0.0
C450 C 0.8969 0.59555 0.94564 0.0
H451 H 0.87406 0.64979 0.00096 0.0
H452 H 0.87075 0.63526 0.97637 0.0
H453 H 0.86067 0.62461 0.001 0.0
H454 H 0.86513 0.58724 0.9888 0.0
H455 H 0.84687 0.56423 0.96362 0.0
H456 H 0.41499 0.04785 0.0484 0.0
H457 H 0.44655 0.06958 0.04202 0.0
H458 H 0.46909 0.05609 0.10535 0.0
H459 H 0.43744 0.03411 0.11189 0.0
H460 H 0.46175 0.10604 0.06641 0.0
H461 H 0.51866 0.03802 0.06474 0.0
H462 H 0.49035 0.03415 0.06173 0.0
H463 H 0.50122 0.0406 0.08729 0.0
C464 C 0.42661 0.04954 0.06102 0.0
C465 C 0.42381 0.03922 0.08061 0.0
C466 C 0.4446 0.06199 0.05736 0.0
C467 C 0.46018 0.06427 0.07316 0.0
C468 C 0.45732 0.05431 0.0929 0.0
H469 H 0.58228 0.12598 0.04003 0.0
H470 H 0.55473 0.11025 0.06297 0.0
C471 C 0.43923 0.04185 0.09661 0.0
C472 C 0.47948 0.07683 0.06844 0.0
H473 H 0.53161 0.07141 0.05429 0.0
C474 C 0.47714 0.09858 0.06414 0.0
C475 C 0.49954 0.06704 0.06571 0.0
C476 C 0.50276 0.04365 0.06998 0.0
C477 C 0.49409 0.11059 0.05605 0.0
C478 C 0.5137 0.10045 0.05184 0.0
C479 C 0.5165 0.07907 0.05752 0.0
C480 C 0.53025 0.11085 0.03879 0.0
C481 C 0.49063 0.13384 0.05131 0.0
C482 C 0.5256 0.11608 0.01764 0.0
C483 C 0.54119 0.12482 0.00457 0.0
C484 C 0.5618 0.12851 0.01239 0.0
C485 C 0.56649 0.12337 0.03364 0.0
C486 C 0.55082 0.11442 0.04673 0.0
H487 H 0.47781 0.14062 0.0614 0.0
H488 H 0.50544 0.14316 0.05385 0.0
H489 H 0.48577 0.13565 0.03444 0.0
H490 H 0.50994 0.11303 0.01109 0.0
H491 H 0.5371 0.12858 0.98827 0.0
H492 H 0.55031 0.48139 0.13227 0.0
H493 H 0.51857 0.45894 0.12902 0.0
H494 H 0.54363 0.43205 0.07109 0.0
H495 H 0.57534 0.45404 0.07443 0.0
H496 H 0.49117 0.46293 0.09699 0.0
H497 H 0.51867 0.37988 0.09825 0.0
H498 H 0.53483 0.4015 0.10818 0.0
H499 H 0.53481 0.39495 0.08025 0.0
C500 C 0.54928 0.47024 0.11918 0.0
C501 C 0.56523 0.46952 0.10353 0.0
C502 C 0.53116 0.45743 0.11736 0.0
C503 C 0.52883 0.44359 0.09998 0.0
C504 C 0.54528 0.44215 0.08495 0.0
H505 H 0.43943 0.42042 0.01003 0.0
H506 H 0.46337 0.43373 0.0374 0.0
C507 C 0.56334 0.45491 0.08676 0.0
C508 C 0.50816 0.43317 0.09548 0.0
H509 H 0.48761 0.38711 0.07545 0.0
C510 C 0.49021 0.44619 0.09292 0.0
C511 C 0.50666 0.41126 0.09057 0.0
C512 C 0.52476 0.39609 0.09471 0.0
C513 C 0.47159 0.43836 0.08347 0.0
C514 C 0.47109 0.41713 0.07611 0.0
C515 C 0.48816 0.40352 0.08075 0.0
C516 C 0.45484 0.40988 0.06071 0.0
C517 C 0.45302 0.45323 0.0804 0.0
C518 C 0.44224 0.39186 0.06464 0.0
C519 C 0.42845 0.38416 0.0489 0.0
C520 C 0.42742 0.39419 0.02895 0.0
C521 C 0.43985 0.41237 0.02525 0.0
C522 C 0.45342 0.42011 0.04095 0.0
H523 H 0.45262 0.46557 0.09304 0.0
H524 H 0.45471 0.46149 0.0649 0.0
H525 H 0.43767 0.44448 0.08043 0.0
H526 H 0.44332 0.38361 0.07972 0.0
H527 H 0.4191 0.37005 0.05211 0.0
H528 H 0.54378 0.85046 0.4318 0.0
H529 H 0.52049 0.86953 0.40757 0.0
H530 H 0.57192 0.91198 0.39122 0.0
H531 H 0.5955 0.89273 0.41574 0.0
H532 H 0.53761 0.93239 0.40779 0.0
H533 H 0.50941 0.87839 0.34494 0.0
H534 H 0.50832 0.86525 0.37018 0.0
H535 H 0.53366 0.87355 0.35961 0.0
C536 C 0.55035 0.86341 0.42251 0.0
C537 C 0.57135 0.87025 0.42572 0.0
C538 C 0.53706 0.87419 0.40847 0.0
C539 C 0.54451 0.89205 0.39737 0.0
C540 C 0.56595 0.89807 0.39946 0.0
H541 H 0.44389 0.98529 0.36733 0.0
H542 H 0.4791 0.96893 0.36361 0.0
C543 C 0.57938 0.88708 0.41342 0.0
C544 C 0.52876 0.90638 0.38733 0.0
H545 H 0.48313 0.9044 0.35804 0.0
C546 C 0.52607 0.92664 0.3963 0.0
C547 C 0.51378 0.89887 0.37232 0.0
C548 C 0.5166 0.87789 0.36107 0.0
C549 C 0.50761 0.93856 0.39251 0.0
C550 C 0.49165 0.93008 0.37909 0.0
C551 C 0.49529 0.91075 0.36852 0.0
C552 C 0.47002 0.93929 0.37855 0.0
C553 C 0.50449 0.9592 0.40439 0.0
C554 C 0.45313 0.92776 0.38749 0.0
C555 C 0.43306 0.93698 0.38955 0.0
C556 C 0.42952 0.95793 0.38269 0.0
C557 C 0.44623 0.96917 0.37293 0.0
C558 C 0.46633 0.95989 0.37081 0.0
H559 H 0.51723 0.9621 0.4163 0.0
H560 H 0.50454 0.97262 0.39295 0.0
H561 H 0.48891 0.95922 0.41271 0.0
H562 H 0.45567 0.91185 0.39359 0.0
H563 H 0.42048 0.92789 0.39703 0.0
H564 H 0.42439 0.61212 0.40553 0.0
H565 H 0.45087 0.59684 0.38106 0.0
H566 H 0.47467 0.55728 0.43178 0.0
H567 H 0.44845 0.57211 0.45594 0.0
H568 H 0.49451 0.59912 0.38549 0.0
H569 H 0.47002 0.51506 0.38339 0.0
H570 H 0.45234 0.53596 0.39214 0.0
H571 H 0.47107 0.52415 0.41037 0.0
C572 C 0.43506 0.59988 0.41126 0.0
C573 C 0.43438 0.59328 0.43261 0.0
C574 C 0.45014 0.5912 0.39731 0.0
C575 C 0.46445 0.57564 0.40451 0.0
C576 C 0.46343 0.56884 0.42571 0.0
H577 H 0.59069 0.54689 0.39964 0.0
H578 H 0.55637 0.56475 0.39827 0.0
C579 C 0.44853 0.57748 0.43957 0.0
C580 C 0.48193 0.56768 0.3909 0.0
H581 H 0.50832 0.52165 0.38015 0.0
C582 C 0.4973 0.58219 0.38371 0.0
C583 C 0.48534 0.54565 0.38802 0.0
C584 C 0.46865 0.52936 0.39369 0.0
C585 C 0.51696 0.57513 0.37582 0.0
C586 C 0.52143 0.55307 0.37565 0.0
C587 C 0.50516 0.5386 0.38066 0.0
C588 C 0.54338 0.5447 0.3734 0.0
C589 C 0.53299 0.59142 0.36855 0.0
C590 C 0.54763 0.52742 0.3599 0.0
C591 C 0.56719 0.5169 0.36096 0.0
C592 C 0.58282 0.5235 0.37554 0.0
C593 C 0.579 0.54151 0.38817 0.0
C594 C 0.55941 0.55189 0.38724 0.0
H595 H 0.5249 0.60535 0.36131 0.0
H596 H 0.5421 0.59727 0.3825 0.0
H597 H 0.5443 0.58466 0.3568 0.0
H598 H 0.53548 0.5215 0.3492 0.0
H599 H 0.56972 0.50308 0.351 0.0
H600 H 0.06674 0.41353 0.05356 0.0
H601 H 0.06322 0.44604 0.07442 0.0
H602 H 0.11657 0.47355 0.0412 0.0
H603 H 0.12009 0.44093 0.01996 0.0
H604 H 0.09334 0.46806 0.10104 0.0
H605 H 0.06687 0.51577 0.03108 0.0
H606 H 0.06743 0.48708 0.03041 0.0
H607 H 0.09182 0.50187 0.02935 0.0
C608 C 0.07783 0.42642 0.05076 0.0
C609 C 0.09357 0.42478 0.03502 0.0
C610 C 0.07585 0.44494 0.06275 0.0
C611 C 0.08952 0.46221 0.0592 0.0
C612 C 0.10574 0.46044 0.04398 0.0
H613 H 0.04779 0.58464 0.11319 0.0
H614 H 0.07343 0.55963 0.09749 0.0
C615 C 0.10775 0.44182 0.03194 0.0
C616 C 0.08567 0.48226 0.07084 0.0
H617 H 0.06229 0.53082 0.06476 0.0
C618 C 0.08701 0.48201 0.0931 0.0
C619 C 0.07762 0.50048 0.06041 0.0
C620 C 0.0757 0.50146 0.0365 0.0
C621 C 0.07913 0.49892 0.10529 0.0
C622 C 0.06941 0.5163 0.09491 0.0
C623 C 0.06971 0.51739 0.07263 0.0
C624 C 0.05577 0.5315 0.10654 0.0
C625 C 0.08035 0.49759 0.1292 0.0
C626 C 0.03745 0.52391 0.11675 0.0
C627 C 0.0228 0.53805 0.12545 0.0
C628 C 0.02618 0.56008 0.12412 0.0
C629 C 0.04487 0.56771 0.11449 0.0
C630 C 0.05949 0.55349 0.10556 0.0
H631 H 0.0941 0.48777 0.13434 0.0
H632 H 0.08174 0.51364 0.13646 0.0
H633 H 0.06566 0.48995 0.13532 0.0
H634 H 0.03404 0.50703 0.11725 0.0
H635 H 0.00854 0.53171 0.13278 0.0
H636 H 0.99208 0.45674 0.40124 0.0
H637 H 0.01781 0.48076 0.41751 0.0
H638 H 0.06936 0.44399 0.39124 0.0
H639 H 0.04351 0.41963 0.37471 0.0
H640 H 0.05228 0.46724 0.44694 0.0
H641 H 0.07976 0.50877 0.37359 0.0
H642 H 0.05447 0.49515 0.37451 0.0
H643 H 0.07866 0.48011 0.37407 0.0
C644 C 0.00887 0.45373 0.39883 0.0
C645 C 0.0158 0.43631 0.38668 0.0
C646 C 0.02354 0.46746 0.40817 0.0
C647 C 0.04541 0.46415 0.40548 0.0
C648 C 0.0525 0.44683 0.39333 0.0
H649 H 0.12129 0.54761 0.48864 0.0
H650 H 0.11403 0.51634 0.46648 0.0
C651 C 0.03775 0.43296 0.38398 0.0
C652 C 0.06042 0.47894 0.41588 0.0
H653 H 0.08992 0.52351 0.40642 0.0
C654 C 0.06098 0.47928 0.43815 0.0
C655 C 0.07156 0.49458 0.40423 0.0
C656 C 0.07117 0.49485 0.38026 0.0
C657 C 0.07134 0.49566 0.44918 0.0
C658 C 0.08165 0.51194 0.43754 0.0
C659 C 0.0821 0.51092 0.41524 0.0
C660 C 0.08918 0.53155 0.44817 0.0
C661 C 0.06983 0.49622 0.47314 0.0
C662 C 0.07841 0.55071 0.4444 0.0
C663 C 0.0826 0.56857 0.45688 0.0
C664 C 0.09764 0.56755 0.47337 0.0
C665 C 0.10948 0.54879 0.47615 0.0
C666 C 0.10532 0.53091 0.46357 0.0
H667 H 0.05848 0.48421 0.4794 0.0
H668 H 0.08571 0.49292 0.48008 0.0
H669 H 0.0647 0.5122 0.47867 0.0
H670 H 0.06592 0.55152 0.43255 0.0
H671 H 0.07331 0.58284 0.45429 0.0
H672 H 0.87841 0.92484 0.5125 0.0
H673 H 0.88306 0.95823 0.49298 0.0
H674 H 0.93382 0.92993 0.45658 0.0
H675 H 0.92945 0.89662 0.47614 0.0
H676 H 0.9444 0.96856 0.47635 0.0
H677 H 0.86874 0.9748 0.43092 0.0
H678 H 0.86615 0.96985 0.45896 0.0
H679 H 0.87801 0.95005 0.44216 0.0
C680 C 0.89035 0.92566 0.50012 0.0
C681 C 0.90362 0.90816 0.49586 0.0
C682 C 0.8929 0.94469 0.48892 0.0
C683 C 0.90865 0.94645 0.47323 0.0
C684 C 0.92153 0.92883 0.4686 0.0
H685 H 0.94454 0.0371 0.37954 0.0
H686 H 0.92768 0.00842 0.39962 0.0
C687 C 0.91901 0.90983 0.47977 0.0
C688 C 0.913 0.96707 0.4628 0.0
H689 H 0.89246 0.004 0.42869 0.0
C690 C 0.93302 0.97638 0.46601 0.0
C691 C 0.89809 0.97713 0.44931 0.0
C692 C 0.87658 0.96744 0.44493 0.0
C693 C 0.93873 0.99533 0.45582 0.0
C694 C 0.92383 0.00547 0.44235 0.0
C695 C 0.90369 0.9963 0.43927 0.0
C696 C 0.92982 0.02452 0.42994 0.0
C697 C 0.96095 0.00393 0.45896 0.0
C698 C 0.93563 0.04347 0.44023 0.0
C699 C 0.94537 0.05987 0.42882 0.0
C700 C 0.94932 0.05753 0.40695 0.0
C701 C 0.94182 0.03929 0.39641 0.0
C702 C 0.93214 0.0229 0.40784 0.0
H703 H 0.97167 0.99206 0.46646 0.0
H704 H 0.96798 0.00888 0.44354 0.0
H705 H 0.96031 0.0181 0.46946 0.0
H706 H 0.93366 0.0451 0.45726 0.0
H707 H 0.95086 0.07381 0.43733 0.0
H708 H 0.40761 0.58136 0.54197 0.0
H709 H 0.40648 0.54802 0.56178 0.0
H710 H 0.35915 0.52353 0.51851 0.0
H711 H 0.36061 0.55677 0.4982 0.0
H712 H 0.3749 0.52448 0.58217 0.0
H713 H 0.40761 0.48111 0.51201 0.0
H714 H 0.40663 0.50975 0.51299 0.0
H715 H 0.38273 0.49472 0.50852 0.0
C716 C 0.39676 0.569 0.53682 0.0
C717 C 0.38444 0.57152 0.51838 0.0
C718 C 0.39607 0.54997 0.54819 0.0
C719 C 0.38301 0.53317 0.54138 0.0
C720 C 0.36965 0.53614 0.52376 0.0
H721 H 0.41871 0.40715 0.59261 0.0
H722 H 0.39345 0.43267 0.57684 0.0
C723 C 0.37045 0.55515 0.51225 0.0
C724 C 0.38506 0.51218 0.55185 0.0
H725 H 0.40772 0.46341 0.54455 0.0
C726 C 0.38158 0.51092 0.57386 0.0
C727 C 0.3936 0.49442 0.54093 0.0
C728 C 0.39802 0.49495 0.51734 0.0
C729 C 0.38799 0.49302 0.58548 0.0
C730 C 0.3982 0.4761 0.57482 0.0
C731 C 0.39984 0.47646 0.55261 0.0
C732 C 0.41129 0.46049 0.5865 0.0
C733 C 0.385 0.49286 0.60926 0.0
C734 C 0.42958 0.46777 0.59697 0.0
C735 C 0.44405 0.4534 0.6055 0.0
C736 C 0.44046 0.43142 0.60388 0.0
C737 C 0.42175 0.42405 0.5941 0.0
C738 C 0.40735 0.43854 0.58516 0.0
H739 H 0.37136 0.50301 0.61407 0.0
H740 H 0.38236 0.47645 0.61523 0.0
H741 H 0.39954 0.49929 0.61696 0.0
H742 H 0.43311 0.48463 0.59779 0.0
H743 H 0.4583 0.45951 0.61305 0.0
H744 H 0.60478 0.58046 0.05763 0.0
H745 H 0.58663 0.59746 0.02781 0.0
H746 H 0.52703 0.57042 0.04849 0.0
H747 H 0.54523 0.55287 0.07796 0.0
H748 H 0.53787 0.5574 0.0096 0.0
H749 H 0.54572 0.64503 0.0132 0.0
H750 H 0.57062 0.63165 0.01709 0.0
H751 H 0.54959 0.62824 0.03619 0.0
C752 C 0.58768 0.57883 0.05629 0.0
C753 C 0.57643 0.56514 0.06991 0.0
C754 C 0.57728 0.58865 0.03927 0.0
C755 C 0.55546 0.58521 0.0359 0.0
C756 C 0.54388 0.57326 0.05079 0.0
H757 H 0.48258 0.62148 0.92324 0.0
H758 H 0.49621 0.61927 0.95969 0.0
C759 C 0.55429 0.56325 0.06762 0.0
C760 C 0.54576 0.59034 0.01506 0.0
H761 H 0.5382 0.62997 0.97869 0.0
C762 C 0.53766 0.57335 0.00302 0.0
C763 C 0.54552 0.61112 0.00644 0.0
C764 C 0.55314 0.63008 0.01899 0.0
C765 C 0.5299 0.57642 0.98242 0.0
C766 C 0.5306 0.59698 0.97341 0.0
C767 C 0.538 0.61417 0.98561 0.0
C768 C 0.5238 0.60058 0.95123 0.0
C769 C 0.52111 0.55758 0.97037 0.0
C770 C 0.53514 0.59123 0.93445 0.0
C771 C 0.52738 0.59237 0.91369 0.0
C772 C 0.50819 0.60295 0.9094 0.0
C773 C 0.49736 0.61312 0.92612 0.0
C774 C 0.50514 0.61196 0.9469 0.0
H775 H 0.51708 0.54417 0.98115 0.0
H776 H 0.50663 0.56208 0.96131 0.0
H777 H 0.53321 0.55189 0.95887 0.0
H778 H 0.5497 0.58254 0.93753 0.0
H779 H 0.53614 0.58453 0.9011 0.0
H780 H 0.42375 0.94689 0.06585 0.0
H781 H 0.43882 0.92574 0.03681 0.0
H782 H 0.37758 0.92402 0.00601 0.0
H783 H 0.36236 0.94518 0.03488 0.0
H784 H 0.42445 0.88417 0.0124 0.0
H785 H 0.42143 0.96134 0.96887 0.0
H786 H 0.42029 0.95994 0.99751 0.0
H787 H 0.39753 0.95256 0.98195 0.0
C788 C 0.41335 0.94149 0.05321 0.0
C789 C 0.39197 0.94794 0.05244 0.0
C790 C 0.42197 0.92935 0.03669 0.0
C791 C 0.4093 0.92353 0.01929 0.0
C792 C 0.38756 0.92843 0.01936 0.0
H793 H 0.45306 0.90006 0.89077 0.0
H794 H 0.42961 0.90288 0.92165 0.0
C795 C 0.37893 0.94056 0.03582 0.0
C796 C 0.41943 0.91554 -0.0003 0.0
H797 H 0.43602 0.93225 0.95095 0.0
C798 C 0.42687 0.89454 -0.00115 0.0
C799 C 0.4225 0.9292 0.98215 0.0
C800 C 0.41517 0.95207 0.98254 0.0
C801 C 0.43744 0.88683 0.98071 0.0
C802 C 0.44099 0.9007 0.96333 0.0
C803 C 0.43316 0.92158 0.96419 0.0
C804 C 0.45395 0.89469 0.94459 0.0
C805 C 0.44458 0.86394 0.98031 0.0
C806 C 0.47528 0.88861 0.94717 0.0
C807 C 0.48864 0.88679 0.92951 0.0
C808 C 0.48098 0.89141 0.90904 0.0
C809 C 0.4594 0.89651 0.90638 0.0
C810 C 0.44599 0.89808 0.924 0.0
H811 H 0.43462 0.85393 0.99093 0.0
H812 H 0.44393 0.85727 0.96397 0.0
H813 H 0.46123 0.86298 0.98607 0.0
H814 H 0.48195 0.88644 0.96289 0.0
H815 H 0.50524 0.88291 0.93204 0.0
H816 H 0.50278 0.35956 0.55729 0.0
H817 H 0.5215 0.35855 0.52316 0.0
H818 H 0.56819 0.4026 0.54762 0.0
H819 H 0.54999 0.40314 0.58179 0.0
H820 H 0.52523 0.39077 0.49766 0.0
H821 H 0.60636 0.36361 0.51543 0.0
H822 H 0.58471 0.35997 0.53396 0.0
H823 H 0.59961 0.38452 0.53353 0.0
C824 C 0.51733 0.36863 0.5555 0.0
C825 C 0.5249 0.3815 0.57214 0.0
C826 C 0.52803 0.368 0.53602 0.0
C827 C 0.54647 0.38022 0.53288 0.0
C828 C 0.5544 0.3925 0.54979 0.0
H829 H 0.58388 0.4645 0.44308 0.0
H830 H 0.56671 0.44061 0.46808 0.0
C831 C 0.54383 0.393 0.56928 0.0
C832 C 0.55569 0.3828 0.51133 0.0
H833 H 0.60328 0.38971 0.48621 0.0
C834 C 0.54225 0.38989 0.49497 0.0
C835 C 0.57781 0.38117 0.50746 0.0
C836 C 0.59286 0.37164 0.52351 0.0
C837 C 0.55056 0.39754 0.47578 0.0
C838 C 0.57287 0.39858 0.47312 0.0
C839 C 0.58618 0.38934 0.48845 0.0
C840 C 0.58254 0.41226 0.45662 0.0
C841 C 0.5354 0.40551 0.45899 0.0
C842 C 0.59755 0.40434 0.44209 0.0
C843 C 0.60757 0.41812 0.4277 0.0
C844 C 0.60289 0.43999 0.42794 0.0
C845 C 0.58779 0.44773 0.44244 0.0
C846 C 0.5778 0.43405 0.45664 0.0
H847 H 0.52013 0.39661 0.45951 0.0
H848 H 0.53178 0.42251 0.46204 0.0
H849 H 0.54231 0.40404 0.44281 0.0
H850 H 0.60161 0.3876 0.44203 0.0
H851 H 0.61924 0.41177 0.41674 0.0
H852 H 0.47695 0.13395 0.56 0.0
H853 H 0.45373 0.13199 0.5288 0.0
H854 H 0.42037 0.07906 0.55704 0.0
H855 H 0.44298 0.08137 0.58834 0.0
H856 H 0.4546 0.09914 0.50354 0.0
H857 H 0.37162 0.10838 0.52942 0.0
H858 H 0.39367 0.11678 0.54583 0.0
H859 H 0.38448 0.08957 0.54646 0.0
C860 C 0.46419 0.12236 0.55981 0.0
C861 C 0.46186 0.10769 0.57651 0.0
C862 C 0.45093 0.12127 0.54199 0.0
C863 C 0.43513 0.10553 0.54061 0.0
C864 C 0.432 0.09174 0.5579 0.0
H865 H 0.39417 0.01218 0.46299 0.0
H866 H 0.40459 0.03899 0.48904 0.0
C867 C 0.44512 0.09293 0.57575 0.0
C868 C 0.42457 0.10084 0.52005 0.0
H869 H 0.37744 0.08309 0.49972 0.0
C870 C 0.4376 0.09641 0.50244 0.0
C871 C 0.40237 0.09739 0.51847 0.0
C872 C 0.38727 0.10354 0.53604 0.0
C873 C 0.42934 0.08662 0.4842 0.0
C874 C 0.4076 0.08109 0.48365 0.0
C875 C 0.39418 0.08722 0.50036 0.0
C876 C 0.39965 0.06564 0.46792 0.0
C877 C 0.44416 0.08054 0.46636 0.0
C878 C 0.39335 0.07192 0.44748 0.0
C879 C 0.38731 0.05657 0.43248 0.0
C880 C 0.38773 0.03483 0.43778 0.0
C881 C 0.3938 0.02877 0.4584 0.0
C882 C 0.39964 0.04405 0.47332 0.0
H883 H 0.46031 0.08743 0.46845 0.0
H884 H 0.44557 0.06295 0.46561 0.0
H885 H 0.43758 0.08601 0.45092 0.0
H886 H 0.3934 0.08857 0.44309 0.0
H887 H 0.38267 0.06165 0.41669 0.0
H888 H 0.07179 0.60547 0.59319 0.0
H889 H 0.04487 0.59184 0.61811 0.0
H890 H 0.02296 0.54786 0.57016 0.0
H891 H 0.04966 0.56107 0.5456 0.0
H892 H 0.00243 0.59473 0.6119 0.0
H893 H 0.02246 0.5103 0.6218 0.0
H894 H 0.04153 0.52945 0.61201 0.0
H895 H 0.02311 0.51666 0.59406 0.0
C896 C 0.06156 0.5925 0.58826 0.0
C897 C 0.06275 0.58434 0.56748 0.0
C898 C 0.0462 0.58477 0.60246 0.0
C899 C 0.03213 0.56859 0.59613 0.0
C900 C 0.03398 0.55992 0.57565 0.0
H901 H 0.90476 0.54775 0.59376 0.0
H902 H 0.94013 0.56324 0.59669 0.0
C903 C 0.04915 0.56765 0.56152 0.0
C904 C 0.01364 0.56242 0.60937 0.0
H905 H 0.98408 0.51858 0.62113 0.0
C906 C -0.00136 0.57811 0.61458 0.0
C907 C 0.00885 0.54084 0.61351 0.0
C908 C 0.02501 0.52342 0.61026 0.0
C909 C 0.97814 0.57258 0.62147 0.0
C910 C 0.97241 0.55084 0.62258 0.0
C911 C 0.9882 0.53528 0.61979 0.0
C912 C 0.94988 0.5438 0.62343 0.0
C913 C 0.96261 0.59011 0.62661 0.0
C914 C 0.94349 0.52754 0.63734 0.0
C915 C 0.92333 0.51832 0.63536 0.0
C916 C 0.90922 0.52523 0.61946 0.0
C917 C 0.91523 0.54218 0.60625 0.0
C918 C 0.93543 0.55122 0.60808 0.0
H919 H 0.97097 0.60392 0.63382 0.0
H920 H 0.95504 0.59574 0.61169 0.0
H921 H 0.95 0.58466 0.63769 0.0
H922 H 0.95439 0.52143 0.64919 0.0
H923 H 0.91908 0.50529 0.64579 0.0
H924 H 0.94367 0.84131 0.59702 0.0
H925 H 0.9758 0.85241 0.61595 0.0
H926 H 0.96043 0.9181 0.60368 0.0
H927 H 0.92834 0.90715 0.58483 0.0
H928 H 0.00475 0.87361 0.59031 0.0
H929 H 0.98854 0.92125 0.66245 0.0
H930 H 0.96948 0.90266 0.6515 0.0
H931 H 0.97224 0.92882 0.64027 0.0
C932 C 0.94664 0.85814 0.59917 0.0
C933 C 0.93369 0.87338 0.58918 0.0
C934 C 0.96502 0.86445 0.60999 0.0
C935 C 0.9705 0.88606 0.61122 0.0
C936 C 0.95636 0.90136 0.60323 0.0
H937 H 0.07399 0.97058 0.60917 0.0
H938 H 0.04028 0.95174 0.61359 0.0
C939 C 0.93806 0.89507 0.59233 0.0
C940 C 0.99263 0.89239 0.61623 0.0
H941 H 0.02203 0.92801 0.64475 0.0
C942 C 0.00869 0.8851 0.60257 0.0
C943 C 0.9976 0.90755 0.63204 0.0
C944 C 0.98107 0.91539 0.64753 0.0
C945 C 0.02928 0.89362 0.6033 0.0
C946 C 0.03411 0.90942 0.6186 0.0
C947 C 0.01831 0.9159 0.63303 0.0
C948 C 0.05474 0.92087 0.61838 0.0
C949 C 0.04515 0.88667 0.58664 0.0
C950 C 0.07411 0.90986 0.62011 0.0
C951 C 0.0934 0.92055 0.61714 0.0
C952 C 0.09362 0.94247 0.61288 0.0
C953 C 0.07428 0.95365 0.61232 0.0
C954 C 0.05502 0.94292 0.61495 0.0
H955 H 0.03738 0.87818 0.57322 0.0
H956 H 0.05395 0.90052 0.58013 0.0
H957 H 0.05682 0.87564 0.59395 0.0
H958 H 0.07428 0.89294 0.62327 0.0
H959 H 0.10811 0.91162 0.61797 0.0
H960 H 0.07126 0.42524 0.94576 0.0
H961 H 0.04188 0.44429 0.92861 0.0
H962 H 0.00231 0.38853 0.93402 0.0
H963 H 0.03151 0.36938 0.95112 0.0
H964 H 0.99787 0.41458 0.894 0.0
H965 H 0.99108 0.45911 0.97037 0.0
H966 H 0.0167 0.45882 0.95764 0.0
H967 H 0.00589 0.43462 0.9682 0.0
C968 C 0.05649 0.41687 0.94277 0.0
C969 C 0.05355 0.39592 0.95 0.0
C970 C 0.03974 0.42778 0.93303 0.0
C971 C 0.01993 0.41784 0.93033 0.0
C972 C 0.01751 0.39643 0.936 0.0
H973 H 0.89154 0.46169 0.92974 0.0
H974 H 0.92539 0.44294 0.93402 0.0
C975 C 0.03418 0.38555 0.94582 0.0
C976 C 0.00099 0.43032 0.92424 0.0
H977 H 0.96558 0.46632 0.9441 0.0
C978 C 0.9909 0.42609 0.90478 0.0
C979 C 0.99187 0.44507 0.93856 0.0
C980 C 0.00178 0.44968 0.95994 0.0
C981 C 0.97172 0.4362 0.89935 0.0
C982 C 0.96253 0.45075 0.9138 0.0
C983 C 0.97277 0.45515 0.9331 0.0
C984 C 0.94178 0.46096 0.90974 0.0
C985 C 0.96101 0.43087 0.87856 0.0
C986 C 0.93989 0.47721 0.89462 0.0
C987 C 0.92062 0.48804 0.89223 0.0
C988 C 0.90299 0.48273 0.90494 0.0
C989 C 0.90484 0.46611 0.91973 0.0
C990 C 0.92413 0.45539 0.92218 0.0
H991 H 0.96887 0.41738 0.87028 0.0
H992 H 0.94404 0.42678 0.88131 0.0
H993 H 0.96147 0.44498 0.86798 0.0
H994 H 0.95345 0.48186 0.88507 0.0
H995 H 0.91964 0.5008 0.88071 0.0
H996 H 0.06963 0.02639 0.87721 0.0
H997 H 0.03592 0.0455 0.88127 0.0
H998 H 0.06733 0.09234 0.92044 0.0
H999 H 0.10099 0.0737 0.91602 0.0
H1000 H 0.01646 0.05004 0.91837 0.0
H1001 H 0.02986 0.13009 0.88542 0.0
H1002 H 0.04723 0.10801 0.87946 0.0
H1003 H 0.05088 0.12336 0.90342 0.0
C1004 C 0.06941 0.04107 0.88623 0.0
C1005 C 0.0879 0.04853 0.89637 0.0
C1006 C 0.05016 0.05197 0.88851 0.0
C1007 C 0.04913 0.07052 0.9009 0.0
C1008 C 0.0678 0.07842 0.9103 0.0
H1009 H 0.9751 0.13504 0.98708 0.0
H1010 H 0.00048 0.12085 0.9614 0.0
C1011 C 0.08703 0.06762 0.90794 0.0
C1012 C 0.02832 0.07998 0.90665 0.0
H1013 H 0.00383 0.12779 0.91433 0.0
C1014 C 0.01337 0.06695 0.91691 0.0
C1015 C 0.02424 0.10201 0.90464 0.0
C1016 C 0.03884 0.11659 0.89241 0.0
C1017 C 0.99539 0.07562 0.92683 0.0
C1018 C 0.99228 0.09787 0.92632 0.0
C1019 C 0.00638 0.11073 0.91478 0.0
C1020 C 0.97646 0.10818 0.94025 0.0
C1021 C 0.98067 0.06118 0.93914 0.0
C1022 C 0.95454 0.10604 0.93661 0.0
C1023 C 0.93993 0.11418 0.9513 0.0
C1024 C 0.94713 0.12443 0.96984 0.0
C1025 C 0.96909 0.1271 0.97302 0.0
C1026 C 0.9836 0.11911 0.95832 0.0
H1027 H 0.98632 0.04444 0.93934 0.0
H1028 H 0.97915 0.06685 0.95579 0.0
H1029 H 0.9646 0.06154 0.93185 0.0
H1030 H 0.94879 0.09771 0.92266 0.0
H1031 H 0.92308 0.11197 0.94845 0.0
H1032 H 0.58071 0.06969 0.5989 0.0
H1033 H 0.60226 0.04251 0.58086 0.0
H1034 H 0.54741 0.02353 0.5442 0.0
H1035 H 0.52608 0.05055 0.56179 0.0
H1036 H 0.59456 8e-05 0.5835 0.0
H1037 H 0.59305 0.02356 0.49917 0.0
H1038 H 0.5866 0.04192 0.52031 0.0
H1039 H 0.56665 0.02411 0.50988 0.0
C1040 C 0.57347 0.06005 0.5866 0.0
C1041 C 0.55174 0.06217 0.58176 0.0
C1042 C 0.58575 0.04454 0.57635 0.0
C1043 C 0.57652 0.03121 0.56096 0.0
C1044 C 0.55503 0.03397 0.5556 0.0
H1045 H 0.57945 0.90197 0.53322 0.0
H1046 H 0.57806 0.93753 0.54876 0.0
C1047 C 0.5428 0.04931 0.56583 0.0
C1048 C 0.58814 0.01267 0.55228 0.0
H1049 H 0.59528 0.98532 0.50603 0.0
C1050 C 0.59526 0.99705 0.56653 0.0
C1051 C 0.58948 0.00886 0.53016 0.0
C1052 C 0.58374 0.02565 0.51403 0.0
C1053 C 0.60188 0.97702 0.55929 0.0
C1054 C 0.60087 0.97241 0.5373 0.0
C1055 C 0.59562 0.98868 0.52295 0.0
C1056 C 0.60316 0.95047 0.52901 0.0
C1057 C 0.60926 0.96081 0.57534 0.0
C1058 C 0.6174 0.94602 0.51243 0.0
C1059 C 0.618 0.92575 0.50331 0.0
C1060 C 0.60429 0.90963 0.51058 0.0
C1061 C 0.59028 0.91403 0.52739 0.0
C1062 C 0.58963 0.9343 0.53641 0.0
H1063 H 0.6165 0.96867 0.58942 0.0
H1064 H 0.59537 0.95148 0.58098 0.0
H1065 H 0.62105 0.94968 0.56836 0.0
H1066 H 0.62784 0.9583 0.50635 0.0
H1067 H 0.62897 0.9228 0.49036 0.0
H1068 H 0.64588 0.08744 0.96061 0.0
H1069 H 0.64846 0.05128 0.94645 0.0
H1070 H 0.59892 0.06562 0.90114 0.0
H1071 H 0.59694 0.10191 0.91464 0.0
H1072 H 0.61903 0.02338 0.94962 0.0
H1073 H 0.63611 0.03055 0.86431 0.0
H1074 H 0.63989 0.05256 0.88239 0.0
H1075 H 0.6142 0.04762 0.87051 0.0
C1076 C 0.63597 0.08301 0.94723 0.0
C1077 C 0.62115 0.09742 0.93875 0.0
C1078 C 0.63747 0.06236 0.93914 0.0
C1079 C 0.62409 0.05572 0.92252 0.0
C1080 C 0.60991 0.07045 0.91349 0.0
H1081 H 0.54536 0.95461 0.90773 0.0
H1082 H 0.56876 0.98296 0.91969 0.0
C1083 C 0.60862 0.09118 0.92137 0.0
C1084 C 0.62247 0.03286 0.91681 0.0
H1085 H 0.61329 0.00018 0.87448 0.0
C1086 C 0.61842 0.0182 0.93318 0.0
C1087 C 0.62222 0.02576 0.89545 0.0
C1088 C 0.62861 0.03997 0.87724 0.0
C1089 C 0.61197 0.99735 0.92867 0.0
C1090 C 0.60893 0.99119 0.90727 0.0
C1091 C 0.61516 0.00505 0.89092 0.0
C1092 C 0.59608 0.97226 0.90166 0.0
C1093 C 0.60746 0.98245 0.94691 0.0
C1094 C 0.60357 0.95683 0.88735 0.0
C1095 C 0.59007 0.9405 0.88034 0.0
C1096 C 0.56884 0.93967 0.88734 0.0
C1097 C 0.56165 0.95481 0.90209 0.0
C1098 C 0.57509 0.97094 0.9091 0.0
H1099 H 0.61807 0.98593 0.96062 0.0
H1100 H 0.59082 0.98476 0.95233 0.0
H1101 H 0.60957 0.96557 0.94219 0.0
H1102 H 0.61966 0.95772 0.88124 0.0
H1103 H 0.59595 0.9291 0.86887 0.0
H1104 H 0.4379 0.53772 0.84655 0.0
H1105 H 0.4117 0.51386 0.86203 0.0
H1106 H 0.38548 0.56582 0.89837 0.0
H1107 H 0.41193 0.59003 0.88267 0.0
H1108 H 0.39937 0.53234 0.92285 0.0
H1109 H 0.34848 0.50097 0.85887 0.0
H1110 H 0.37579 0.50093 0.85067 0.0
H1111 H 0.36278 0.52582 0.85643 0.0
C1112 C 0.42616 0.54422 0.85736 0.0
C1113 C 0.42698 0.56565 0.86354 0.0
C1114 C 0.41102 0.5306 0.86604 0.0
C1115 C 0.39642 0.5381 0.88114 0.0
C1116 C 0.39643 0.5598 0.88652 0.0
H1117 H 0.35647 0.43694 0.9697 0.0
H1118 H 0.35254 0.47166 0.95234 0.0
C1119 C 0.4115 0.57358 0.87757 0.0
C1120 C 0.3843 0.52236 0.89378 0.0
H1121 H 0.35743 0.47567 0.8874 0.0
C1122 C 0.38951 0.52031 0.91537 0.0
C1123 C 0.37138 0.50678 0.88399 0.0
C1124 C 0.36411 0.50888 0.86125 0.0
C1125 C 0.38429 0.50184 0.92674 0.0
C1126 C 0.37322 0.48525 0.91627 0.0
C1127 C 0.36611 0.48831 0.89533 0.0
C1128 C 0.37231 0.46357 0.92537 0.0
C1129 C 0.39246 0.49941 0.94919 0.0
C1130 C 0.3839 0.44727 0.91547 0.0
C1131 C 0.38604 0.42748 0.92522 0.0
C1132 C 0.37664 0.42363 0.94509 0.0
C1133 C 0.36405 0.43956 0.95446 0.0
C1134 C 0.36183 0.45939 0.94462 0.0
H1135 H 0.40308 0.51272 0.95397 0.0
H1136 H 0.37882 0.49899 0.96037 0.0
H1137 H 0.40136 0.48426 0.9509 0.0
H1138 H 0.39212 0.45018 0.90061 0.0
H1139 H 0.39574 0.41549 0.91755 0.0
H1140 H 0.91703 0.09787 0.07781 0.0
H1141 H 0.92027 0.06276 0.09402 0.0
H1142 H 0.88474 0.03522 0.04215 0.0
H1143 H 0.88202 0.07032 0.02544 0.0
H1144 H 0.89235 0.0317 0.10752 0.0
H1145 H 0.94065 0.0034 0.0388 0.0
H1146 H 0.93374 0.031 0.04223 0.0
H1147 H 0.91423 0.01237 0.03275 0.0
C1148 C 0.90969 0.08439 0.06996 0.0
C1149 C 0.89955 0.08676 0.05021 0.0
C1150 C 0.91149 0.06434 0.07928 0.0
C1151 C 0.9031 0.04633 0.06908 0.0
C1152 C 0.89175 0.04885 0.05003 0.0
H1153 H 0.9478 0.91881 0.10598 0.0
H1154 H 0.92284 0.94498 0.0911 0.0
C1155 C 0.89013 0.0689 0.04057 0.0
C1156 C 0.90789 0.02496 0.07774 0.0
H1157 H 0.93812 0.9809 0.06819 0.0
C1158 C 0.90204 0.0204 0.09879 0.0
C1159 C 0.92045 0.01018 0.06628 0.0
C1160 C 0.92781 0.01444 0.04382 0.0
C1161 C 0.90939 0.00203 0.10907 0.0
C1162 C 0.92301 0.98799 0.09803 0.0
C1163 C 0.92761 0.99172 0.07655 0.0
C1164 C 0.93543 0.97144 0.10918 0.0
C1165 C 0.90321 -0.00182 0.13191 0.0
C1166 C 0.95062 0.9777 0.12427 0.0
C1167 C 0.96496 0.96296 0.1325 0.0
C1168 C 0.96434 0.94165 0.12585 0.0
C1169 C 0.94854 0.93514 0.11142 0.0
C1170 C 0.9343 0.95002 0.10295 0.0
H1171 H 0.88784 0.00598 0.1358 0.0
H1172 H 0.90191 0.98091 0.13535 0.0
H1173 H 0.91559 0.00503 0.14248 0.0
H1174 H 0.95206 0.99423 0.12894 0.0
H1175 H 0.97694 0.9684 0.14363 0.0
H1176 H 0.01465 0.15783 0.3378 0.0
H1177 H 0.01097 0.19542 0.32848 0.0
H1178 H 0.9504 0.1976 0.36055 0.0
H1179 H 0.95388 0.1599 0.36992 0.0
H1180 H 0.97328 0.22022 0.30762 0.0
H1181 H 0.99484 0.2401 0.39129 0.0
H1182 H 0.00106 0.21467 0.37948 0.0
H1183 H 0.97425 0.22058 0.38722 0.0
C1184 C 0.0004 0.16623 0.34261 0.0
C1185 C 0.98464 0.15606 0.35479 0.0
C1186 C -0.00171 0.18762 0.33716 0.0
C1187 C 0.98047 0.19914 0.34391 0.0
C1188 C 0.96425 0.18884 0.35523 0.0
H1189 H 0.94403 0.33029 0.32944 0.0
H1190 H 0.94626 0.29165 0.32557 0.0
C1191 C 0.96628 0.16738 0.36059 0.0
C1192 C 0.98002 0.22238 0.34112 0.0
H1193 H 0.98713 0.26862 0.36844 0.0
C1194 C 0.97625 0.23089 0.32086 0.0
C1195 C 0.98423 0.23604 0.35843 0.0
C1196 C 0.98897 0.22751 0.38035 0.0
C1197 C 0.9763 0.25298 0.31755 0.0
C1198 C 0.98022 0.26664 0.33496 0.0
C1199 C 0.98419 0.25803 0.35513 0.0
C1200 C 0.97982 0.29001 0.33303 0.0
C1201 C 0.97243 0.26159 0.29551 0.0
C1202 C -0.00194 0.30183 0.33812 0.0
C1203 C 0.99682 0.32386 0.34043 0.0
C1204 C 0.97727 0.33434 0.33786 0.0
C1205 C 0.95931 0.32261 0.33152 0.0
C1206 C 0.96057 0.30056 0.32918 0.0
H1207 H 0.97426 0.24909 0.28315 0.0
H1208 H 0.95598 0.26791 0.29456 0.0
H1209 H 0.98356 0.27485 0.29197 0.0
H1210 H 0.01302 0.29388 0.34125 0.0
H1211 H 0.01093 0.3325 0.34528 0.0
H1212 H 0.9533 0.67133 0.16302 0.0
H1213 H 0.95963 0.7089 0.17068 0.0
H1214 H 0.02503 0.695 0.18606 0.0
H1215 H 0.01894 0.65736 0.17803 0.0
H1216 H 0.97614 0.73265 0.20594 0.0
H1217 H 0.02831 0.73521 0.13442 0.0
H1218 H 0.01113 0.71294 0.14009 0.0
H1219 H 0.03562 0.71624 0.15447 0.0
C1220 C 0.96895 0.67621 0.16836 0.0
C1221 C 0.98574 0.66153 0.16959 0.0
C1222 C 0.9725 0.69765 0.17281 0.0
C1223 C 0.99287 0.70469 0.17858 0.0
C1224 C 0.00929 0.68985 0.1813 0.0
H1225 H 0.04033 0.83437 0.17131 0.0
H1226 H 0.03721 0.79677 0.18064 0.0
C1227 C 0.00578 0.66839 0.17674 0.0
C1228 C 0.99728 0.72772 0.17946 0.0
H1229 H 0.02281 0.76724 0.15256 0.0
C1230 C 0.98651 0.74026 0.19444 0.0
C1231 C 0.01073 0.7375 0.16432 0.0
C1232 C 0.02201 0.72487 0.14728 0.0
C1233 C 0.9887 0.76247 0.19455 0.0
C1234 C 0.00172 0.77226 0.17905 0.0
C1235 C 0.01292 0.75964 0.16448 0.0
C1236 C 0.00305 0.79558 0.17657 0.0
C1237 C 0.97704 0.77526 0.21115 0.0
C1238 C 0.98482 0.80737 0.17139 0.0
C1239 C 0.98655 0.82886 0.16607 0.0
C1240 C 0.00657 0.83877 0.16562 0.0
C1241 C 0.0247 0.82709 0.17142 0.0
C1242 C 0.02295 0.80566 0.17683 0.0
H1243 H 0.97333 0.76549 0.22539 0.0
H1244 H 0.98647 0.78933 0.21618 0.0
H1245 H 0.96176 0.78095 0.20439 0.0
H1246 H 0.96938 0.79975 0.17059 0.0
H1247 H 0.97232 0.8375 0.16162 0.0
H1248 H 0.36611 0.95912 0.15554 0.0
H1249 H 0.35949 0.95655 0.19385 0.0
H1250 H 0.3358 0.02091 0.19422 0.0
H1251 H 0.34228 0.0236 0.15602 0.0
H1252 H 0.37934 0.98432 0.22331 0.0
H1253 H 0.29128 0.98758 0.22958 0.0
H1254 H 0.30486 0.98034 0.20532 0.0
H1255 H 0.30284 0.00779 0.213 0.0
C1256 C 0.35919 0.97259 0.16375 0.0
C1257 C 0.35479 0.99159 0.15287 0.0
C1258 C 0.35539 0.97109 0.18557 0.0
C1259 C 0.34692 0.98845 0.19672 0.0
C1260 C 0.34195 0.00721 0.18578 0.0
H1261 H 0.36048 0.02408 0.32774 0.0
H1262 H 0.35576 0.02357 0.28908 0.0
C1263 C 0.34583 0.00877 0.16401 0.0
C1264 C 0.34541 0.98785 0.22011 0.0
H1265 H 0.31089 0.99297 0.26171 0.0
C1266 C 0.36437 0.98601 0.23172 0.0
C1267 C 0.32583 0.99006 0.23093 0.0
C1268 C 0.30499 0.99137 0.21911 0.0
C1269 C 0.36432 0.98686 0.25394 0.0
C1270 C 0.34484 0.98972 0.26473 0.0
C1271 C 0.32579 0.99102 0.25323 0.0
C1272 C 0.34428 0.99116 0.28806 0.0
C1273 C 0.38509 0.98484 0.26582 0.0
C1274 C 0.33873 0.97328 0.30011 0.0
C1275 C 0.3415 0.97347 0.32212 0.0
C1276 C 0.34979 0.99158 0.33231 0.0
C1277 C 0.3541 0.0099 0.32029 0.0
C1278 C 0.35142 0.00966 0.29826 0.0
H1279 H 0.39836 0.97987 0.25526 0.0
H1280 H 0.38925 0.00042 0.27303 0.0
H1281 H 0.38354 0.97311 0.27892 0.0
H1282 H 0.33324 0.95888 0.29239 0.0
H1283 H 0.33797 0.95916 0.33103 0.0
H1284 H 0.61593 0.53454 0.17505 0.0
H1285 H 0.63036 0.52844 0.21054 0.0
H1286 H 0.68427 0.49584 0.18326 0.0
H1287 H 0.66937 0.50113 0.14772 0.0
H1288 H 0.66799 0.47273 0.21295 0.0
H1289 H 0.6766 0.55352 0.24544 0.0
H1290 H 0.65007 0.55026 0.23561 0.0
H1291 H 0.67226 0.5488 0.21746 0.0
C1292 C 0.63108 0.52647 0.17661 0.0
C1293 C 0.64151 0.51824 0.15871 0.0
C1294 C 0.63942 0.52313 0.1969 0.0
C1295 C 0.65861 0.51198 0.19957 0.0
C1296 C 0.6695 0.50456 0.18158 0.0
H1297 H 0.68636 0.5011 0.33494 0.0
H1298 H 0.69471 0.50618 0.2973 0.0
C1299 C 0.66099 0.5076 0.16131 0.0
C1300 C 0.66581 0.50599 0.22118 0.0
H1301 H 0.66995 0.52547 0.27152 0.0
C1302 C 0.66894 0.48433 0.22569 0.0
C1303 C 0.66768 0.52108 0.23775 0.0
C1304 C 0.66672 0.54472 0.23372 0.0
C1305 C 0.67213 0.47724 0.24657 0.0
C1306 C 0.67143 0.49212 0.26341 0.0
C1307 C 0.67009 0.51393 0.25869 0.0
C1308 C 0.66957 0.48552 0.28595 0.0
C1309 C 0.67576 0.45382 0.25031 0.0
C1310 C 0.65315 0.47165 0.29211 0.0
C1311 C 0.64864 0.46841 0.31358 0.0
C1312 C 0.66012 0.47945 0.32922 0.0
C1313 C 0.67724 0.49246 0.32315 0.0
C1314 C 0.68199 0.49538 0.30167 0.0
H1315 H 0.68457 0.4466 0.2368 0.0
H1316 H 0.68483 0.45091 0.26518 0.0
H1317 H 0.66017 0.44561 0.25142 0.0
H1318 H 0.6429 0.46433 0.28036 0.0
H1319 H 0.63523 0.45846 0.31785 0.0
H1320 H 0.32632 0.34706 0.01213 0.0
H1321 H 0.28852 0.33831 0.00985 0.0
H1322 H 0.29583 0.32285 0.94343 0.0
H1323 H 0.33369 0.33169 0.94555 0.0
H1324 H 0.26577 0.35407 0.95162 0.0
H1325 H 0.25227 0.2844 0.00358 0.0
H1326 H 0.26798 0.30467 0.01617 0.0
H1327 H 0.27819 0.29116 0.9931 0.0
C1328 C 0.31999 0.34129 0.99717 0.0
C1329 C 0.33288 0.34021 0.97898 0.0
C1330 C 0.29843 0.33613 0.99593 0.0
C1331 C 0.28946 0.32972 0.97652 0.0
C1332 C 0.30253 0.3276 0.95858 0.0
H1333 H 0.15184 0.34216 0.95149 0.0
H1334 H 0.18887 0.33126 0.94573 0.0
C1335 C 0.32412 0.33269 0.95982 0.0
C1336 C 0.26609 0.32851 0.97437 0.0
H1337 H 0.22186 0.30699 0.99717 0.0
C1338 C 0.2561 0.34345 0.96117 0.0
C1339 C 0.25363 0.31464 0.98688 0.0
C1340 C 0.26357 0.29767 0.00058 0.0
C1341 C 0.23396 0.346 0.96134 0.0
C1342 C 0.22152 0.33287 0.97473 0.0
C1343 C 0.23145 0.31705 0.98696 0.0
C1344 C 0.19865 0.33709 0.97822 0.0
C1345 C 0.22427 0.36371 0.94834 0.0
C1346 C 0.19177 0.34318 -0.00147 0.0
C1347 C 0.17071 0.34916 0.00189 0.0
C1348 C 0.15613 0.34923 0.98497 0.0
C1349 C 0.16283 0.34247 0.96475 0.0
C1350 C 0.18394 0.33629 0.96144 0.0
H1351 H 0.2365 0.37485 0.94211 0.0
H1352 H 0.21567 0.3568 0.93457 0.0
H1353 H 0.21269 0.37293 0.95796 0.0
H1354 H 0.20288 0.34391 0.0117 0.0
H1355 H 0.16598 0.3542 0.01767 0.0
H1356 H 0.15382 0.66618 0.50661 0.0
H1357 H 0.19104 0.6751 0.49952 0.0
H1358 H 0.2104 0.61432 0.52479 0.0
H1359 H 0.17329 0.6057 0.5327 0.0
H1360 H 0.23753 0.64516 0.53608 0.0
H1361 H 0.2216 0.64987 0.44932 0.0
H1362 H 0.20656 0.66835 0.465 0.0
H1363 H 0.20212 0.64024 0.468 0.0
C1364 C 0.16608 0.65487 0.51093 0.0
C1365 C 0.16074 0.63516 0.52 0.0
C1366 C 0.18729 0.65992 0.50671 0.0
C1367 C 0.2034 0.64512 0.51105 0.0
C1368 C 0.19817 0.6259 0.52117 0.0
H1369 H 0.32339 0.6201 0.45529 0.0
H1370 H 0.28575 0.62538 0.46332 0.0
C1371 C 0.177 0.62099 0.5257 0.0
C1372 C 0.22559 0.64907 0.50427 0.0
H1373 H 0.25675 0.65656 0.46044 0.0
C1374 C 0.24176 0.64781 0.51957 0.0
C1375 C 0.23101 0.65229 0.48265 0.0
C1376 C 0.21446 0.65258 0.46525 0.0
C1377 C 0.26326 0.64904 0.51382 0.0
C1378 C 0.26869 0.65239 0.49222 0.0
C1379 C 0.2525 0.65426 0.47699 0.0
C1380 C 0.29104 0.65174 0.48487 0.0
C1381 C 0.27991 0.6456 0.5308 0.0
C1382 C 0.30637 0.66552 0.49346 0.0
C1383 C 0.32791 0.66231 0.48914 0.0
C1384 C 0.33435 0.6456 0.47578 0.0
C1385 C 0.31886 0.63309 0.46566 0.0
C1386 C 0.29736 0.63607 0.47027 0.0
H1387 H 0.27307 0.63828 0.54535 0.0
H1388 H 0.2929 0.63521 0.52491 0.0
H1389 H 0.2869 0.66116 0.53537 0.0
H1390 H 0.30176 0.67812 0.50425 0.0
H1391 H 0.33957 0.67233 0.49695 0.0
H1392 H 0.66395 0.83441 0.52356 0.0
H1393 H 0.70173 0.82767 0.52909 0.0
H1394 H 0.70903 0.813 0.46248 0.0
H1395 H 0.67116 0.82035 0.45666 0.0
H1396 H 0.72883 0.79381 0.52228 0.0
H1397 H 0.74939 0.86287 0.47087 0.0
H1398 H 0.72255 0.8576 0.47947 0.0
H1399 H 0.73404 0.84239 0.45816 0.0
C1400 C 0.67353 0.82954 0.5101 0.0
C1401 C 0.66472 0.82823 0.48961 0.0
C1402 C 0.69509 0.82561 0.51332 0.0
C1403 C 0.70821 0.82023 0.49613 0.0
C1404 C 0.69922 0.81758 0.47586 0.0
H1405 H 0.84639 0.82186 0.49306 0.0
H1406 H 0.80944 0.81309 0.48492 0.0
C1407 C 0.67761 0.8217 0.47258 0.0
C1408 C 0.73147 0.81914 0.49937 0.0
H1409 H 0.77769 0.8447 0.48695 0.0
C1410 C 0.73958 0.80478 0.51442 0.0
C1411 C 0.74537 0.83361 0.48918 0.0
C1412 C 0.73746 0.85013 0.47365 0.0
C1413 C 0.76125 0.80471 0.51977 0.0
C1414 C 0.77499 0.81947 0.5099 0.0
C1415 C 0.76702 0.83337 0.49441 0.0
C1416 C 0.79755 0.82171 0.51601 0.0
C1417 C 0.76928 0.78901 0.53601 0.0
C1418 C 0.80305 0.82923 0.5363 0.0
C1419 C 0.82418 0.83436 0.541 0.0
C1420 C 0.84 0.83213 0.5254 0.0
C1421 C 0.83452 0.82383 0.50538 0.0
C1422 C 0.81345 0.81874 0.5007 0.0
H1423 H 0.75811 0.77547 0.53808 0.0
H1424 H 0.78512 0.78272 0.53138 0.0
H1425 H 0.77099 0.79716 0.55158 0.0
H1426 H 0.79089 0.83199 0.54818 0.0
H1427 H 0.82799 0.84074 0.55654 0.0
H1428 H 0.50293 0.84295 0.81228 0.0
H1429 H 0.4974 0.80523 0.80464 0.0
H1430 H 0.54429 0.78871 0.85186 0.0
H1431 H 0.54994 0.82651 0.85969 0.0
H1432 H 0.52688 0.7692 0.79414 0.0
H1433 H 0.48495 0.76359 0.87187 0.0
H1434 H 0.49033 0.78869 0.85902 0.0
H1435 H 0.51126 0.77483 0.8726 0.0
C1436 C 0.51237 0.83131 0.82076 0.0
C1437 C 0.52667 0.8376 0.83677 0.0
C1438 C 0.50923 0.80981 0.81631 0.0
C1439 C 0.52026 0.79432 0.82787 0.0
C1440 C 0.53555 0.80055 0.84291 0.0
H1441 H 0.52423 0.65883 0.82356 0.0
H1442 H 0.531 0.69668 0.81831 0.0
C1443 C 0.53878 0.82209 0.84732 0.0
C1444 C 0.51413 0.7718 0.8258 0.0
H1445 H 0.4895 0.73169 0.85265 0.0
C1446 C 0.51869 0.76093 0.80687 0.0
C1447 C 0.50302 0.76135 0.84229 0.0
C1448 C 0.4969 0.77268 0.86256 0.0
C1449 C 0.51295 0.7395 0.80428 0.0
C1450 C 0.50253 0.72885 0.82111 0.0
C1451 C 0.49748 0.73995 0.83977 0.0
C1452 C 0.49791 0.70585 0.8205 0.0
C1453 C 0.51801 0.72844 0.78362 0.0
C1454 C 0.47701 0.69847 0.82328 0.0
C1455 C 0.47308 0.67682 0.82638 0.0
C1456 C 0.49006 0.66234 0.827 0.0
C1457 C 0.51084 0.66966 0.8232 0.0
C1458 C 0.51473 0.69125 0.82002 0.0
H1459 H 0.52042 0.74 0.77048 0.0
H1460 H 0.53291 0.71917 0.78551 0.0
H1461 H 0.50511 0.71724 0.77909 0.0
H1462 H 0.46385 0.70958 0.82386 0.0
H1463 H 0.45692 0.67159 0.82928 0.0
H1464 H 0.46398 0.31886 0.6312 0.0
H1465 H 0.46994 0.28173 0.64067 0.0
H1466 H 0.51648 0.30099 0.68739 0.0
H1467 H 0.51127 0.33814 0.67717 0.0
H1468 H 0.53283 0.27266 0.6633 0.0
H1469 H 0.45431 0.24235 0.68714 0.0
H1470 H 0.45191 0.25497 0.66176 0.0
H1471 H 0.45959 0.27046 0.68469 0.0
C1472 C 0.47508 0.31519 0.64385 0.0
C1473 C 0.48726 0.33127 0.65338 0.0
C1474 C 0.47837 0.29396 0.6494 0.0
C1475 C 0.49346 0.28853 0.66498 0.0
C1476 C 0.50473 0.30478 0.67538 0.0
H1477 H 0.50425 0.15033 0.67631 0.0
H1478 H 0.50183 0.18724 0.68841 0.0
C1479 C 0.50174 0.32597 0.66954 0.0
C1480 C 0.49949 0.26598 0.66816 0.0
H1481 H 0.47837 0.21617 0.67119 0.0
C1482 C 0.52096 0.26034 0.66557 0.0
C1483 C 0.4842 0.24985 0.67165 0.0
C1484 C 0.46128 0.2548 0.67672 0.0
C1485 C 0.52727 0.239 0.66469 0.0
C1486 C 0.51159 0.2229 0.66567 0.0
C1487 C 0.49039 0.2285 0.66999 0.0
C1488 C 0.5163 0.2005 0.66013 0.0
C1489 C 0.55062 0.23401 0.66229 0.0
C1490 C 0.52567 0.19565 0.64043 0.0
C1491 C 0.52737 0.17459 0.63366 0.0
C1492 C 0.51927 0.15807 0.64626 0.0
C1493 C 0.51059 0.16282 0.66629 0.0
C1494 C 0.50918 0.18387 0.6732 0.0
H1495 H 0.56054 0.24627 0.67029 0.0
H1496 H 0.55465 0.21819 0.66902 0.0
H1497 H 0.55486 0.23413 0.64516 0.0
H1498 H 0.53069 0.20819 0.62976 0.0
H1499 H 0.53394 0.17137 0.61807 0.0
H1500 H 0.82069 0.5496 0.83577 0.0
H1501 H 0.8107 0.54721 0.79816 0.0
H1502 H 0.82055 0.47932 0.7998 0.0
H1503 H 0.82997 0.4815 0.8373 0.0
H1504 H 0.83686 0.53424 0.76754 0.0
H1505 H 0.76595 0.48239 0.7667 0.0
H1506 H 0.77557 0.49492 0.7907 0.0
H1507 H 0.78719 0.47041 0.78144 0.0
C1508 C 0.82037 0.53414 0.82815 0.0
C1509 C 0.82617 0.51574 0.83939 0.0
C1510 C 0.81458 0.53279 0.80674 0.0
C1511 C 0.81448 0.51304 0.7963 0.0
C1512 C 0.81987 0.49463 0.80767 0.0
H1513 H 0.83675 0.46277 0.67469 0.0
H1514 H 0.82697 0.46914 0.71184 0.0
C1515 C 0.82551 0.49594 0.82905 0.0
C1516 C 0.81151 0.51184 0.77301 0.0
H1517 H 0.78656 0.48343 0.73399 0.0
C1518 C 0.82551 0.52353 0.76017 0.0
C1519 C 0.7967 0.49781 0.76346 0.0
C1520 C 0.78037 0.48586 0.77633 0.0
C1521 C 0.82603 0.52059 0.73813 0.0
C1522 C 0.812 0.50574 0.72871 0.0
C1523 C 0.79733 0.49472 0.74137 0.0
C1524 C 0.81378 0.50036 0.70599 0.0
C1525 C 0.84235 0.53255 0.72518 0.0
C1526 C 0.80878 0.5155 0.69045 0.0
C1527 C 0.81441 0.51196 0.6693 0.0
C1528 C 0.82509 0.4932 0.66344 0.0
C1529 C 0.82864 0.4774 0.6788 0.0
C1530 C 0.82301 0.48097 0.69997 0.0
H1531 H 0.85403 0.5411 0.73534 0.0
H1532 H 0.85113 0.52148 0.71458 0.0
H1533 H 0.83417 0.54442 0.71501 0.0
H1534 H 0.8015 0.53048 0.69486 0.0
H1535 H 0.81131 0.52434 0.65774 0.0
H1536 H 0.17975 0.94919 0.66594 0.0
H1537 H 0.18521 0.95221 0.70432 0.0
H1538 H 0.17234 0.01947 0.70109 0.0
H1539 H 0.16688 0.01665 0.66261 0.0
H1540 H 0.20827 0.00382 0.73069 0.0
H1541 H 0.12896 0.96521 0.73998 0.0
H1542 H 0.14786 0.95225 0.72284 0.0
H1543 H 0.13718 0.97765 0.71546 0.0
C1544 C 0.17848 0.9647 0.67332 0.0
C1545 C 0.17262 0.98265 0.66138 0.0
C1546 C 0.18164 0.96638 0.6952 0.0
C1547 C 0.17898 0.986 0.70541 0.0
C1548 C 0.17447 0.00421 0.69337 0.0
H1549 H 0.16605 0.03417 0.83199 0.0
H1550 H 0.17486 0.02874 0.79456 0.0
C1551 C 0.17129 0.00255 0.67146 0.0
C1552 C 0.17845 0.98708 0.72878 0.0
H1553 H 0.14716 0.97451 0.77117 0.0
C1554 C 0.19502 0.99733 0.73963 0.0
C1555 C 0.1611 0.97857 0.74023 0.0
C1556 C 0.14264 0.9679 0.72912 0.0
C1557 C 0.19465 -0.0007 0.76187 0.0
C1558 C 0.17705 0.99116 0.77328 0.0
C1559 C 0.16068 0.98062 0.76236 0.0
C1560 C 0.17445 0.99436 0.79641 0.0
C1561 C 0.21312 0.00993 0.77292 0.0
C1562 C 0.17112 0.97683 0.8098 0.0
C1563 C 0.1658 0.97989 0.83112 0.0
C1564 C 0.16367 0.00054 0.83934 0.0
C1565 C 0.16764 0.01807 0.82607 0.0
C1566 C 0.17288 0.015 0.80474 0.0
H1567 H 0.2278 0.00922 0.76312 0.0
H1568 H 0.20925 0.02693 0.77562 0.0
H1569 H 0.21636 0.00244 0.78858 0.0
H1570 H 0.17211 0.96078 0.80359 0.0
H1571 H 0.16287 0.96609 0.84101 0.0
H1572 H 0.83313 0.16002 0.03984 0.0
H1573 H 0.79605 0.16954 0.03285 0.0
H1574 H 0.81243 0.18665 0.9685 0.0
H1575 H 0.84947 0.17672 0.97521 0.0
H1576 H 0.77564 0.20698 0.01817 0.0
H1577 H 0.76792 0.13955 0.9613 0.0
H1578 H 0.79036 0.14228 0.97896 0.0
H1579 H 0.78868 0.15825 0.95533 0.0
C1580 C 0.82886 0.16598 0.02425 0.0
C1581 C 0.84407 0.16734 0.00796 0.0
C1582 C 0.80772 0.17149 0.02032 0.0
C1583 C 0.80151 0.17847 8e-05 0.0
C1584 C 0.81689 0.18092 0.98411 0.0
H1585 H 0.67326 0.18606 0.94889 0.0
H1586 H 0.71123 0.193 0.95381 0.0
C1587 C 0.83801 0.17528 0.98798 0.0
C1588 C 0.77873 0.18161 0.99534 0.0
H1589 H 0.7377 0.16072 0.96667 0.0
C1590 C 0.76732 0.19701 0.00679 0.0
C1591 C 0.768 0.16851 0.98052 0.0
C1592 C 0.77927 0.15109 0.96842 0.0
C1593 C 0.74531 0.1995 0.00394 0.0
C1594 C 0.73455 0.18606 0.98949 0.0
C1595 C 0.74607 0.17109 0.97764 0.0
C1596 C 0.71114 0.18586 0.98745 0.0
C1597 C 0.73377 0.21638 0.01646 0.0
C1598 C 0.69849 0.17996 0.00485 0.0
C1599 C 0.67681 0.17597 0.0021 0.0
C1600 C 0.66753 0.17764 0.98185 0.0
C1601 C 0.68001 0.18458 0.96467 0.0
C1602 C 0.70167 0.18859 0.96745 0.0
H1603 H 0.74475 0.22924 0.02164 0.0
H1604 H 0.72068 0.2235 0.007 0.0
H1605 H 0.72677 0.20909 0.03092 0.0
H1606 H 0.70558 0.17731 0.02033 0.0
H1607 H 0.66757 0.17062 0.01561 0.0
H1608 H 0.00567 0.9243 0.21706 0.0
H1609 H 0.01071 0.95067 0.2451 0.0
H1610 H 0.06382 0.97739 0.21085 0.0
H1611 H 0.05861 0.95122 0.18241 0.0
H1612 H 0.04473 0.96225 0.27134 0.0
H1613 H 0.02187 0.02713 0.21559 0.0
H1614 H 0.01832 -0.0006 0.20913 0.0
H1615 H 0.04432 0.0112 0.20792 0.0
C1616 C 0.01862 0.93558 0.21562 0.0
C1617 C 0.03158 0.9359 0.19744 0.0
C1618 C 0.02151 0.95061 0.23167 0.0
C1619 C 0.03739 0.96617 0.22982 0.0
C1620 C 0.05123 0.96572 0.21233 0.0
H1621 H 0.04883 0.05723 0.33588 0.0
H1622 H 0.05936 0.03254 0.3076 0.0
C1623 C 0.0483 0.95072 0.19619 0.0
C1624 C 0.03817 0.98366 0.2455 0.0
H1625 H 0.02725 0.03651 0.25126 0.0
C1626 C 0.04125 0.97857 0.26699 0.0
C1627 C 0.03337 0.00485 0.23966 0.0
C1628 C 0.02911 0.01106 0.21686 0.0
C1629 C 0.03886 0.99398 0.28294 0.0
C1630 C 0.03363 0.01506 0.27711 0.0
C1631 C 0.03138 0.02033 0.25557 0.0
C1632 C 0.02813 0.03129 0.29318 0.0
C1633 C 0.04077 0.98732 0.30591 0.0
C1634 C 0.00732 0.0393 0.29389 0.0
C1635 C 0.00132 0.05347 0.30985 0.0
C1636 C 0.01606 0.05988 0.32536 0.0
C1637 C 0.03712 0.05244 0.32418 0.0
C1638 C 0.04313 0.03828 0.30814 0.0
H1639 H 0.04104 0.96974 0.30774 0.0
H1640 H 0.05578 0.99376 0.31262 0.0
H1641 H 0.02735 0.99377 0.3154 0.0
H1642 H 0.99554 0.03411 0.28242 0.0
H1643 H 0.985 0.05898 0.31033 0.0
H1644 H 0.91798 0.43903 0.32254 0.0
H1645 H 0.90838 0.46516 0.29521 0.0
H1646 H 0.97005 0.45738 0.26618 0.0
H1647 H 0.97961 0.43122 0.29311 0.0
H1648 H 0.92872 0.50308 0.28847 0.0
H1649 H 0.93082 0.45508 0.215 0.0
H1650 H 0.92925 0.4432 0.24109 0.0
H1651 H 0.95455 0.45131 0.23035 0.0
C1652 C 0.92932 0.44264 0.31008 0.0
C1653 C 0.94954 0.4331 0.30991 0.0
C1654 C 0.92381 0.45755 0.29452 0.0
C1655 C 0.93837 0.46294 0.27849 0.0
C1656 C 0.95837 0.45306 0.27808 0.0
H1657 H 0.97573 0.57207 0.21488 0.0
H1658 H 0.96465 0.54516 0.24046 0.0
C1659 C 0.96388 0.43822 0.29359 0.0
C1660 C 0.93375 0.48031 0.26333 0.0
H1661 H 0.93771 0.49289 0.21079 0.0
C1662 C 0.93017 0.5008 0.27143 0.0
C1663 C 0.93519 0.47729 0.24111 0.0
C1664 C 0.93743 0.45547 0.23138 0.0
C1665 C 0.92978 0.51858 0.25799 0.0
C1666 C 0.93344 0.51576 0.23599 0.0
C1667 C 0.93521 0.4951 0.22771 0.0
C1668 C 0.93803 0.53389 0.2217 0.0
C1669 C 0.9261 0.54027 0.26756 0.0
C1670 C 0.92681 0.53645 0.20258 0.0
C1671 C 0.93325 0.55176 0.1878 0.0
C1672 C 0.95113 0.56458 0.19187 0.0
C1673 C 0.96185 0.56248 0.21134 0.0
C1674 C 0.95541 0.54721 0.22607 0.0
H1675 H 0.91612 0.53917 0.2821 0.0
H1676 H 0.94163 0.54726 0.27226 0.0
H1677 H 0.91828 0.55116 0.25609 0.0
H1678 H 0.91346 0.5262 0.19884 0.0
H1679 H 0.92473 0.55301 0.17288 0.0
H1680 H 0.16674 0.0542 0.96008 0.0
H1681 H 0.1936 0.06322 0.98684 0.0
H1682 H 0.24035 0.02712 0.95189 0.0
H1683 H 0.21393 0.01885 0.92483 0.0
H1684 H 0.21209 0.03665 0.01205 0.0
H1685 H 0.27564 0.07701 0.96758 0.0
H1686 H 0.24945 0.07309 0.95645 0.0
H1687 H 0.26939 0.05254 0.95444 0.0
C1688 C 0.1829 0.04866 0.95789 0.0
C1689 C 0.18829 0.03583 0.9404 0.0
C1690 C 0.19822 0.05382 0.97317 0.0
C1691 C 0.21911 0.04615 0.97124 0.0
C1692 C 0.22457 0.03383 0.95343 0.0
H1693 H 0.30152 0.99217 0.05897 0.0
H1694 H 0.27175 0.00434 0.03744 0.0
C1695 C 0.20937 0.02892 0.93804 0.0
C1696 C 0.23451 0.04854 0.98894 0.0
H1697 H 0.28727 0.05648 -0.00131 0.0
C1698 C 0.22841 0.04152 0.00924 0.0
C1699 C 0.25568 0.0554 0.98557 0.0
C1700 C 0.2628 0.06517 0.96486 0.0
C1701 C 0.24332 0.03942 0.02567 0.0
C1702 C 0.26498 0.04382 0.02147 0.0
C1703 C 0.27073 0.05264 0.0018 0.0
C1704 C 0.2821 0.0372 0.03624 0.0
C1705 C 0.23574 0.03197 0.04718 0.0
C1706 C 0.29814 0.05151 0.04238 0.0
C1707 C 0.31546 0.04445 0.05442 0.0
C1708 C 0.31698 0.02299 0.06047 0.0
C1709 C 0.30069 0.00884 0.05471 0.0
C1710 C 0.28353 0.01584 0.04255 0.0
H1711 H 0.21922 0.03745 0.05028 0.0
H1712 H 0.2356 0.01433 0.0475 0.0
H1713 H 0.2462 0.03783 0.06016 0.0
H1714 H 0.29745 0.06802 0.03751 0.0
H1715 H 0.32784 0.05569 0.05862 0.0
H1716 H 0.66815 0.54058 0.05443 0.0
H1717 H 0.69573 0.53541 0.02757 0.0
H1718 H 0.67733 0.46964 0.02096 0.0
H1719 H 0.64948 0.47471 0.0478 0.0
H1720 H 0.72975 0.50564 0.02993 0.0
H1721 H 0.67816 0.49301 0.95907 0.0
H1722 H 0.66843 0.505 0.98329 0.0
H1723 H 0.67262 0.4768 0.98197 0.0
C1724 C 0.66989 0.52502 0.04719 0.0
C1725 C 0.65668 0.50803 0.05317 0.0
C1726 C 0.68565 0.52212 0.03188 0.0
C1727 C 0.6884 0.50221 0.0222 0.0
C1728 C 0.67521 0.4852 0.02806 0.0
H1729 H 0.80399 0.47531 0.94917 0.0
H1730 H 0.77341 0.47066 0.97289 0.0
C1731 C 0.65941 0.48809 0.04344 0.0
C1732 C 0.70561 0.49932 0.0065 0.0
H1733 H 0.71527 0.49109 0.95374 0.0
C1734 C 0.72665 0.50227 0.0133 0.0
C1735 C 0.70136 0.49507 0.98484 0.0
C1736 C 0.67894 0.49242 0.97671 0.0
C1737 C 0.74363 0.5015 -0.0011 0.0
C1738 C 0.7394 0.49734 0.97721 0.0
C1739 C 0.71839 0.49404 0.97044 0.0
C1740 C 0.75649 0.49821 0.96113 0.0
C1741 C 0.76584 0.506 0.00686 0.0
C1742 C 0.75661 0.51472 0.94616 0.0
C1743 C 0.77396 0.51737 0.9326 0.0
C1744 C 0.79144 0.5035 0.93377 0.0
C1745 C 0.79078 0.4863 0.94802 0.0
C1746 C 0.77339 0.48366 0.9616 0.0
H1747 H 0.76582 0.51279 0.02317 0.0
H1748 H 0.77507 0.49096 0.00718 0.0
H1749 H 0.77417 0.51726 0.9961 0.0
H1750 H 0.74366 0.52607 0.94557 0.0
H1751 H 0.77398 0.53071 0.92171 0.0
H1752 H 0.30274 0.99292 0.42868 0.0
H1753 H 0.27635 0.98219 0.455 0.0
H1754 H 0.30816 0.92191 0.4627 0.0
H1755 H 0.33507 0.9328 0.43665 0.0
H1756 H 0.24839 0.94873 0.45777 0.0
H1757 H 0.30839 0.94584 0.52285 0.0
H1758 H 0.31425 0.95708 0.49715 0.0
H1759 H 0.31325 0.92873 0.5005 0.0
C1760 C 0.30403 0.97729 0.43581 0.0
C1761 C 0.32108 0.96378 0.4308 0.0
C1762 C 0.28892 0.97117 0.45082 0.0
C1763 C 0.29052 0.95141 0.46105 0.0
C1764 C 0.30691 0.93741 0.4553 0.0
H1765 H 0.18492 0.9257 0.55011 0.0
H1766 H 0.21165 0.91836 0.52266 0.0
C1767 C 0.32217 0.9436 0.44035 0.0
C1768 C 0.27553 0.94629 0.47845 0.0
H1769 H 0.27271 0.94081 0.53237 0.0
C1770 C 0.25365 0.94666 0.47406 0.0
C1771 C 0.28255 0.94372 0.49968 0.0
C1772 C 0.30586 0.94396 0.50547 0.0
C1773 C 0.23854 0.94565 0.49043 0.0
C1774 C 0.24557 0.94368 0.51172 0.0
C1775 C 0.26743 0.94219 0.516 0.0
C1776 C 0.23077 0.9461 0.52985 0.0
C1777 C 0.2153 0.94808 0.4849 0.0
C1778 C 0.23326 0.9635 0.5436 0.0
C1779 C 0.21825 0.96754 0.55938 0.0
C1780 C 0.20041 0.95429 0.56167 0.0
C1781 C 0.19845 0.93625 0.54859 0.0
C1782 C 0.21361 0.93212 0.53284 0.0
H1783 H 0.21294 0.95336 0.46821 0.0
H1784 H 0.20715 0.93256 0.4869 0.0
H1785 H 0.20753 0.95977 0.49563 0.0
H1786 H 0.24643 0.97445 0.5416 0.0
H1787 H 0.22022 0.98153 0.56927 0.0
H1788 H 0.82205 0.53251 0.54852 0.0
H1789 H 0.79534 0.53813 0.52061 0.0
H1790 H 0.76243 0.48133 0.54054 0.0
H1791 H 0.78887 0.47566 0.56839 0.0
H1792 H 0.78567 0.50916 0.48733 0.0
H1793 H 0.7149 0.52631 0.53693 0.0
H1794 H 0.74176 0.52824 0.54702 0.0
H1795 H 0.72886 0.50276 0.54504 0.0
C1796 C 0.80897 0.52138 0.54708 0.0
C1797 C 0.80749 0.50367 0.56063 0.0
C1798 C 0.79378 0.5246 0.53115 0.0
C1799 C 0.7768 0.5103 0.52876 0.0
C1800 C 0.7752 0.49276 0.54242 0.0
H1801 H 0.6993 0.46799 0.42753 0.0
H1802 H 0.72708 0.47541 0.45368 0.0
C1803 C 0.79038 0.48949 0.55824 0.0
C1804 C 0.76138 0.51276 0.51121 0.0
H1805 H 0.70817 0.51534 0.50096 0.0
C1806 C 0.76875 0.51088 0.49025 0.0
C1807 C 0.73938 0.51527 0.51509 0.0
C1808 C 0.73074 0.51848 0.53723 0.0
C1809 C 0.75451 0.5102 0.47308 0.0
C1810 C 0.73241 0.51122 0.47711 0.0
C1811 C 0.72513 0.51435 0.49796 0.0
C1812 C 0.71652 0.50752 0.46019 0.0
C1813 C 0.76321 0.50802 0.45084 0.0
C1814 C 0.70123 0.52304 0.45542 0.0
C1815 C 0.68528 0.51882 0.44052 0.0
C1816 C 0.68427 0.49891 0.43037 0.0
C1817 C 0.69972 0.48349 0.43505 0.0
C1818 C 0.71569 0.48775 0.44987 0.0
H1819 H 0.77988 0.51381 0.44982 0.0
H1820 H 0.76309 0.49098 0.44622 0.0
H1821 H 0.75334 0.51695 0.43924 0.0
H1822 H 0.70154 0.53832 0.46338 0.0
H1823 H 0.67353 0.53097 0.43725 0.0
H1824 H 0.06004 0.33414 0.05417 0.0
H1825 H 0.03662 0.30623 0.06803 0.0
H1826 H 0.04172 0.27241 0.00855 0.0
H1827 H 0.06529 0.29997 0.99476 0.0
H1828 H -0.00196 0.29639 0.05144 0.0
H1829 H 0.04863 0.2247 0.05116 0.0
H1830 H 0.05956 0.25124 0.04963 0.0
H1831 H 0.04993 0.2381 0.02604 0.0
C1832 C 0.05651 0.32051 0.04423 0.0
C1833 C 0.06445 0.31921 0.02338 0.0
C1834 C 0.04314 0.30462 0.05217 0.0
C1835 C 0.03768 0.28712 0.03943 0.0
C1836 C 0.04614 0.2855 0.01885 0.0
H1837 H 0.92934 0.21711 0.01457 0.0
H1838 H 0.95565 0.24451 0.02228 0.0
C1839 C 0.05949 0.30135 0.01092 0.0
C1840 C 0.02135 0.27172 0.0465 0.0
H1841 H 0.01056 0.21861 0.04747 0.0
C1842 C 0.00088 0.27937 0.05109 0.0
C1843 C 0.02513 0.24957 0.0465 0.0
C1844 C 0.04708 0.24045 0.0433 0.0
C1845 C 0.98372 0.2654 0.05388 0.0
C1846 C 0.98712 0.24329 0.05164 0.0
C1847 C 0.0079 0.2356 0.04888 0.0
C1848 C 0.96926 0.22813 0.04934 0.0
C1849 C 0.962 0.27448 0.05848 0.0
C1850 C 0.96814 0.20978 0.06199 0.0
C1851 C 0.95314 0.19396 0.05749 0.0
C1852 C 0.93923 0.1962 0.04014 0.0
C1853 C 0.93981 0.21498 0.02808 0.0
C1854 C 0.95475 0.23074 0.03259 0.0
H1855 H 0.96327 0.28975 0.0673 0.0
H1856 H 0.95375 0.27778 0.04324 0.0
H1857 H 0.95214 0.26325 0.06788 0.0
H1858 H 0.97932 0.20739 0.07488 0.0
H1859 H 0.95308 0.17961 0.06701 0.0
H1860 H 0.05817 0.6744 0.54743 0.0
H1861 H 0.03465 0.70513 0.54404 0.0
H1862 H 0.03519 0.69823 0.47579 0.0
H1863 H 0.05841 0.66712 0.47909 0.0
H1864 H 0.04056 0.74323 0.52299 0.0
H1865 H 0.97178 0.69845 0.48984 0.0
H1866 H 0.9944 0.68538 0.5017 0.0
H1867 H 0.99619 0.69593 0.47522 0.0
C1868 C 0.05328 0.67942 0.5317 0.0
C1869 C 0.05997 0.6683 0.51352 0.0
C1870 C 0.0399 0.69699 0.52979 0.0
C1871 C 0.03298 0.70376 0.50969 0.0
C1872 C 0.04003 0.69299 0.49147 0.0
H1873 H 0.96428 0.82525 0.49859 0.0
H1874 H 0.99026 0.79684 0.49231 0.0
C1875 C 0.05334 0.67531 0.49337 0.0
C1876 C 0.01822 0.72198 0.50807 0.0
H1877 H 0.96755 0.73543 0.49406 0.0
C1878 C 0.02465 0.74162 0.51652 0.0
C1879 C 0.99744 0.71969 0.49974 0.0
C1880 C 0.9894 0.69871 0.49126 0.0
C1881 C 0.01065 0.75895 0.51737 0.0
C1882 C 0.98983 0.75664 0.50913 0.0
C1883 C 0.98359 0.73715 0.50019 0.0
C1884 C 0.97367 0.77354 0.51147 0.0
C1885 C 0.01793 0.77925 0.52796 0.0
C1886 C 0.95544 0.76959 0.52369 0.0
C1887 C 0.94055 0.78563 0.5271 0.0
C1888 C 0.94363 0.80595 0.51836 0.0
C1889 C 0.96159 0.80976 0.50562 0.0
C1890 C 0.97648 0.79361 0.50212 0.0
H1891 H 0.03274 0.7769 0.53732 0.0
H1892 H 0.02117 0.79142 0.51561 0.0
H1893 H 0.00541 0.78554 0.5387 0.0
H1894 H 0.95298 0.75418 0.531 0.0
H1895 H 0.92684 0.78221 0.53695 0.0
H1896 H 0.57639 0.77917 0.4714 0.0
H1897 H 0.54927 0.75182 0.47656 0.0
H1898 H 0.52358 0.78701 0.52953 0.0
H1899 H 0.55052 0.81472 0.52424 0.0
H1900 H 0.53801 0.72615 0.51119 0.0
H1901 H 0.47305 0.78178 0.48841 0.0
H1902 H 0.50077 0.78796 0.48424 0.0
H1903 H 0.48941 0.79004 0.51036 0.0
C1904 C 0.56513 0.78098 0.48431 0.0
C1905 C 0.56542 0.79917 0.49729 0.0
C1906 C 0.54967 0.76533 0.48725 0.0
C1907 C 0.53424 0.7676 0.50319 0.0
C1908 C 0.53513 0.78519 0.51689 0.0
H1909 H 0.44199 0.66439 0.52477 0.0
H1910 H 0.46854 0.69219 0.53145 0.0
C1911 C 0.55058 0.80092 0.51392 0.0
C1912 C 0.51665 0.75203 0.50453 0.0
H1913 H 0.46328 0.74653 0.49611 0.0
C1914 C 0.52162 0.73058 0.50814 0.0
C1915 C 0.49535 0.75793 0.50029 0.0
C1916 C 0.48923 0.78063 0.49543 0.0
C1917 C 0.50591 0.71475 0.50713 0.0
C1918 C 0.48465 0.72064 0.50271 0.0
C1919 C 0.47959 0.74214 0.49963 0.0
C1920 C 0.46778 0.70459 0.49936 0.0
C1921 C 0.51235 0.69179 0.50981 0.0
C1922 C 0.45812 0.70284 0.47933 0.0
C1923 C 0.4429 0.68714 0.47553 0.0
C1924 C 0.43704 0.67293 0.49173 0.0
C1925 C 0.4463 0.67506 0.51197 0.0
C1926 C 0.46153 0.69083 0.51577 0.0
H1927 H 0.52987 0.68967 0.50891 0.0
H1928 H 0.50694 0.68603 0.52557 0.0
H1929 H 0.50479 0.68169 0.49743 0.0
H1930 H 0.4627 0.71336 0.46649 0.0
H1931 H 0.436 0.68591 0.45979 0.0
H1932 H 0.52888 0.54983 0.81526 0.0
H1933 H 0.53668 0.52289 0.78825 0.0
H1934 H 0.48356 0.54495 0.75085 0.0
H1935 H 0.47592 0.57209 0.77752 0.0
H1936 H 0.5099 0.49092 0.77731 0.0
H1937 H 0.52931 0.53851 0.70601 0.0
H1938 H 0.52906 0.54977 0.73243 0.0
H1939 H 0.50464 0.54665 0.71778 0.0
C1940 C 0.51914 0.5492 0.80106 0.0
C1941 C 0.50178 0.56304 0.79847 0.0
C1942 C 0.52361 0.53381 0.78568 0.0
C1943 C 0.51087 0.5321 0.76744 0.0
C1944 C 0.49391 0.54631 0.76455 0.0
H1945 H 0.47227 0.42694 0.69291 0.0
H1946 H 0.47869 0.454 0.72001 0.0
C1947 C 0.48947 0.56173 0.77988 0.0
C1948 C 0.51383 0.51419 0.75247 0.0
H1949 H 0.51788 0.50238 0.69971 0.0
C1950 C 0.51203 0.4934 0.76038 0.0
C1951 C 0.51691 0.51744 0.73044 0.0
C1952 C 0.52032 0.53931 0.7212 0.0
C1953 C 0.51203 0.4758 0.74669 0.0
C1954 C 0.51348 0.47917 0.72453 0.0
C1955 C 0.51651 0.49986 0.71671 0.0
C1956 C 0.51044 0.46169 0.70909 0.0
C1957 C 0.51015 0.4538 0.75608 0.0
C1958 C 0.52607 0.45724 0.69382 0.0
C1959 C 0.52237 0.44186 0.67819 0.0
C1960 C 0.50292 0.43084 0.67755 0.0
C1961 C 0.48746 0.43508 0.6931 0.0
C1962 C 0.49116 0.45045 0.70867 0.0
H1963 H 0.5161 0.4534 0.77271 0.0
H1964 H 0.49316 0.44902 0.75632 0.0
H1965 H 0.51913 0.44196 0.74655 0.0
H1966 H 0.54099 0.46587 0.69381 0.0
H1967 H 0.53454 0.43896 0.66636 0.0
H1968 H 0.48072 0.94525 0.81422 0.0
H1969 H 0.47552 0.96884 0.78363 0.0
H1970 H 0.54087 0.95921 0.76507 0.0
H1971 H 0.54607 0.93538 0.79524 0.0
H1972 H 0.49638 0.00619 0.7746 0.0
H1973 H 0.50927 0.94777 0.70997 0.0
H1974 H 0.50462 0.93988 0.73717 0.0
H1975 H 0.53073 0.94814 0.72877 0.0
C1976 C 0.49391 0.94805 0.80349 0.0
C1977 C 0.51377 0.93841 0.80701 0.0
C1978 C 0.49091 0.9615 0.78607 0.0
C1979 C 0.5077 0.96543 0.7719 0.0
C1980 C 0.52756 0.95594 0.7755 0.0
H1981 H 0.54065 0.05009 0.67174 0.0
H1982 H 0.53843 0.02438 0.70083 0.0
C1983 C 0.53054 0.94245 0.79283 0.0
C1984 C 0.50487 0.98025 0.75389 0.0
H1985 H 0.5115 0.98462 0.70023 0.0
C1986 C 0.49935 0.00143 0.75829 0.0
C1987 C 0.5087 0.97392 0.73265 0.0
C1988 C 0.51344 0.95113 0.72681 0.0
C1989 C 0.4985 0.0167 0.74207 0.0
C1990 C 0.50318 0.01051 0.72101 0.0
C1991 C 0.50805 0.98924 0.71649 0.0
C1992 C 0.50418 0.02612 0.70357 0.0
C1993 C 0.49344 0.03949 0.74759 0.0
C1994 C 0.48559 0.03543 0.69553 0.0
C1995 C 0.48678 0.05007 0.67886 0.0
C1996 C 0.5066 0.05558 0.67009 0.0
C1997 C 0.52517 0.04619 0.67824 0.0
C1998 C 0.52394 0.0315 0.69479 0.0
H1999 H 0.49277 0.04216 0.76504 0.0
H2000 H 0.50556 0.0503 0.74064 0.0
H2001 H 0.47779 0.04383 0.74068 0.0
H2002 H 0.4702 0.03128 0.70207 0.0
H2003 H 0.47223 0.05704 0.67284 0.0
H2004 H 0.43368 0.30422 0.98668 0.0
H2005 H 0.46257 0.27998 0.97749 0.0
H2006 H 0.47477 0.31575 0.92028 0.0
H2007 H 0.44596 0.34038 0.92956 0.0
H2008 H 0.46876 0.2546 0.94123 0.0
H2009 H 0.53265 0.31527 0.95103 0.0
H2010 H 0.50592 0.31947 0.9606 0.0
H2011 H 0.5116 0.32155 0.93272 0.0
C2012 C 0.44243 0.30689 0.97208 0.0
C2013 C 0.43767 0.32426 0.95889 0.0
C2014 C 0.45889 0.29301 0.96684 0.0
C2015 C 0.47093 0.29624 0.94835 0.0
C2016 C 0.46586 0.31321 0.93479 0.0
H2017 H 0.56457 0.19527 0.92077 0.0
H2018 H 0.53794 0.22287 0.91354 0.0
C2019 C 0.44936 0.32717 0.94006 0.0
C2020 C 0.4891 0.28201 0.94386 0.0
H2021 H 0.54337 0.28022 0.94404 0.0
C2022 C 0.48509 0.26019 0.94148 0.0
C2023 C 0.51034 0.28944 0.94433 0.0
C2024 C 0.51553 0.31268 0.94744 0.0
C2025 C 0.50178 0.24543 0.94054 0.0
C2026 C 0.52302 0.25279 0.94163 0.0
C2027 C 0.52705 0.2747 0.94304 0.0
C2028 C 0.54101 0.23789 0.94435 0.0
C2029 C 0.49651 0.22201 0.93972 0.0
C2030 C 0.55216 0.23785 0.96366 0.0
C2031 C 0.56738 0.22228 0.96777 0.0
C2032 C 0.57175 0.20647 0.9526 0.0
C2033 C 0.56143 0.2072 0.93278 0.0
C2034 C 0.54616 0.22286 0.92867 0.0
H2035 H 0.47932 0.21892 0.94245 0.0
H2036 H 0.50077 0.2156 0.92385 0.0
H2037 H 0.50581 0.21314 0.95184 0.0
H2038 H 0.54844 0.24935 0.97595 0.0
H2039 H 0.57515 0.22219 0.98314 0.0
loop_
_geom_bond_atom_site_label_1
_geom_bond_atom_site_label_2
_geom_bond_distance
_geom_bond_site_symmetry_2
_ccdc_geom_bond_type
In0 O1 2.294 . S
In0 O2 2.326 1_455 S
In0 O6 2.266 . S
In0 O7 2.325 . S
In0 O8 2.266 1_455 S
In0 O9 2.326 1_455 S
In0 O11 2.294 1_455 S
In0 O12 2.326 . S
O1 In0 2.294 . S
O1 C10 1.199 1_455 S
O2 In0 2.326 1_655 S
O2 C10 1.293 . S
C3 O6 1.252 . S
C3 O7 1.260 . S
C4 O11 1.240 . S
C4 O12 1.252 1_655 S
C5 O8 1.252 . S
C5 O9 1.260 . S
O6 In0 2.266 . S
O6 C3 1.252 . S
O7 In0 2.325 . S
O7 C3 1.260 . S
O8 In0 2.266 1_655 S
O8 C5 1.252 . S
O9 In0 2.326 1_655 S
O9 C5 1.260 . S
C10 O1 1.199 1_655 S
C10 O2 1.293 . S
O11 In0 2.294 1_655 S
O11 C4 1.240 . S
O12 In0 2.326 . S
O12 C4 1.252 1_455 S
In13 O14 2.294 1_655 S
In13 O15 2.326 . S
In13 O19 2.267 1_655 S
In13 O20 2.326 1_655 S
In13 O21 2.266 . S
In13 O22 2.325 . S
In13 O24 2.294 . S
In13 O25 2.326 1_655 S
O14 In13 2.294 1_455 S
O14 C23 1.240 . S
O15 In13 2.326 . S
O15 C23 1.252 1_655 S
C16 O19 1.252 . S
C16 O20 1.260 . S
C17 O24 1.229 1_455 S
C17 O25 1.263 . S
C18 O21 1.252 . S
C18 O22 1.260 . S
O19 In13 2.267 1_455 S
O19 C16 1.252 . S
O20 In13 2.326 1_455 S
O20 C16 1.260 . S
O21 In13 2.266 . S
O21 C18 1.252 . S
O22 In13 2.325 . S
O22 C18 1.260 . S
C23 O14 1.240 . S
C23 O15 1.252 1_455 S
O24 In13 2.294 . S
O24 C17 1.229 1_655 S
O25 In13 2.326 1_455 S
O25 C17 1.263 . S
In26 O27 2.294 1_455 S
In26 O28 2.326 . S
In26 O32 2.266 1_455 S
In26 O33 2.326 1_455 S
In26 O34 2.266 . S
In26 O35 2.325 . S
In26 O37 2.294 . S
In26 O38 2.326 1_455 S
O27 In26 2.294 1_655 S
O27 C36 1.240 . S
O28 In26 2.326 . S
O28 C36 1.252 1_455 S
C29 O32 1.252 . S
C29 O33 1.260 . S
C30 O37 1.255 . S
C30 O38 1.237 1_455 S
C31 O34 1.252 . S
C31 O35 1.260 . S
O32 In26 2.266 1_655 S
O32 C29 1.252 . S
O33 In26 2.326 1_655 S
O33 C29 1.260 . S
O34 In26 2.266 . S
O34 C31 1.252 . S
O35 In26 2.325 . S
O35 C31 1.260 . S
C36 O27 1.240 . S
C36 O28 1.252 1_655 S
O37 In26 2.294 . S
O37 C30 1.255 . S
O38 In26 2.326 1_655 S
O38 C30 1.237 1_655 S
In39 O40 2.294 . S
In39 O41 2.326 1_655 S
In39 O45 2.266 . S
In39 O46 2.325 . S
In39 O47 2.266 1_655 S
In39 O48 2.326 1_655 S
In39 O50 2.294 1_655 S
In39 O51 2.326 . S
O40 In39 2.294 . S
O40 C49 1.286 . S
O41 In39 2.326 1_455 S
O41 C49 1.206 1_455 S
C42 O45 1.252 . S
C42 O46 1.260 . S
C43 O50 1.240 . S
C43 O51 1.252 1_455 S
C44 O47 1.252 . S
C44 O48 1.260 . S
O45 In39 2.266 . S
O45 C42 1.252 . S
O46 In39 2.325 . S
O46 C42 1.260 . S
O47 In39 2.266 1_455 S
O47 C44 1.252 . S
O48 In39 2.326 1_455 S
O48 C44 1.260 . S
C49 O40 1.286 . S
C49 O41 1.206 1_655 S
O50 In39 2.294 1_455 S
O50 C43 1.240 . S
O51 In39 2.326 . S
O51 C43 1.252 1_655 S
In52 O53 2.294 1_545 S
In52 O54 2.326 . S
In52 O58 2.266 1_545 S
In52 O59 2.326 1_545 S
In52 O60 2.266 . S
In52 O61 2.325 . S
In52 O63 2.294 . S
In52 O64 2.326 1_545 S
O53 In52 2.294 1_565 S
O53 C62 1.240 . S
O54 In52 2.326 . S
O54 C62 1.252 1_545 S
C55 O58 1.252 . S
C55 O59 1.260 . S
C56 O63 1.199 1_565 S
C56 O64 1.293 . S
C57 O60 1.252 . S
C57 O61 1.260 . S
O58 In52 2.266 1_565 S
O58 C55 1.252 . S
O59 In52 2.326 1_565 S
O59 C55 1.260 . S
O60 In52 2.266 . S
O60 C57 1.252 . S
O61 In52 2.325 . S
O61 C57 1.260 . S
C62 O53 1.240 . S
C62 O54 1.252 1_565 S
O63 In52 2.294 . S
O63 C56 1.199 1_545 S
O64 In52 2.326 1_565 S
O64 C56 1.293 . S
In65 O66 2.294 . S
In65 O67 2.326 . S
In65 O71 2.266 . S
In65 O72 2.326 . S
In65 O73 2.266 . S
In65 O74 2.326 . S
In65 O76 2.294 . S
In65 O77 2.326 . S
O66 In65 2.294 . S
O66 C75 1.240 . S
O67 In65 2.326 . S
O67 C75 1.252 . S
C68 O71 1.252 . S
C68 O72 1.260 . S
C69 O76 1.240 . S
C69 O77 1.252 . S
C70 O73 1.252 . S
C70 O74 1.260 . S
O71 In65 2.266 . S
O71 C68 1.252 . S
O72 In65 2.326 . S
O72 C68 1.260 . S
O73 In65 2.266 . S
O73 C70 1.252 . S
O74 In65 2.326 . S
O74 C70 1.260 . S
C75 O66 1.240 . S
C75 O67 1.252 . S
O76 In65 2.294 . S
O76 C69 1.240 . S
O77 In65 2.326 . S
O77 C69 1.252 . S
In78 O79 2.294 1_565 S
In78 O80 2.326 . S
In78 O84 2.267 1_565 S
In78 O85 2.326 1_565 S
In78 O86 2.266 . S
In78 O87 2.325 . S
In78 O89 2.294 . S
In78 O90 2.326 1_565 S
O79 In78 2.294 1_545 S
O79 C88 1.240 . S
O80 In78 2.326 . S
O80 C88 1.252 1_565 S
C81 O84 1.252 . S
C81 O85 1.260 . S
C82 O89 1.229 1_545 S
C82 O90 1.263 . S
C83 O86 1.252 . S
C83 O87 1.260 . S
O84 In78 2.267 1_545 S
O84 C81 1.252 . S
O85 In78 2.326 1_545 S
O85 C81 1.260 . S
O86 In78 2.266 . S
O86 C83 1.252 . S
O87 In78 2.325 . S
O87 C83 1.260 . S
C88 O79 1.240 . S
C88 O80 1.252 1_545 S
O89 In78 2.294 . S
O89 C82 1.229 1_565 S
O90 In78 2.326 1_545 S
O90 C82 1.263 . S
In91 O92 2.294 . S
In91 O93 2.326 . S
In91 O97 2.266 . S
In91 O98 2.326 . S
In91 O99 2.266 . S
In91 O100 2.326 . S
In91 O102 2.294 . S
In91 O103 2.326 . S
O92 In91 2.294 . S
O92 C101 1.240 . S
O93 In91 2.326 . S
O93 C101 1.252 . S
C94 O97 1.252 . S
C94 O98 1.260 . S
C95 O102 1.240 . S
C95 O103 1.252 . S
C96 O99 1.252 . S
C96 O100 1.260 . S
O97 In91 2.266 . S
O97 C94 1.252 . S
O98 In91 2.326 . S
O98 C94 1.260 . S
O99 In91 2.266 . S
O99 C96 1.252 . S
O100 In91 2.326 . S
O100 C96 1.260 . S
C101 O92 1.240 . S
C101 O93 1.252 . S
O102 In91 2.294 . S
O102 C95 1.240 . S
O103 In91 2.326 . S
O103 C95 1.252 . S
In104 O105 2.294 . S
In104 O106 2.326 1_554 S
In104 O110 2.266 . S
In104 O111 2.325 . S
In104 O112 2.266 1_554 S
In104 O113 2.326 1_554 S
In104 O115 2.294 1_554 S
In104 O116 2.326 . S
O105 In104 2.294 . S
O105 C114 1.199 1_554 S
O106 In104 2.326 1_556 S
O106 C114 1.293 . S
C107 O110 1.252 . S
C107 O111 1.260 . S
C108 O115 1.240 . S
C108 O116 1.252 1_556 S
C109 O112 1.252 . S
C109 O113 1.260 . S
O110 In104 2.266 . S
O110 C107 1.252 . S
O111 In104 2.325 . S
O111 C107 1.260 . S
O112 In104 2.266 1_556 S
O112 C109 1.252 . S
O113 In104 2.326 1_556 S
O113 C109 1.260 . S
C114 O105 1.199 1_556 S
C114 O106 1.293 . S
O115 In104 2.294 1_556 S
O115 C108 1.240 . S
O116 In104 2.326 . S
O116 C108 1.252 1_554 S
In117 O118 2.294 . S
In117 O119 2.326 . S
In117 O123 2.266 . S
In117 O124 2.326 . S
In117 O125 2.266 . S
In117 O126 2.326 . S
In117 O128 2.294 . S
In117 O129 2.326 . S
O118 In117 2.294 . S
O118 C127 1.240 . S
O119 In117 2.326 . S
O119 C127 1.252 . S
C120 O123 1.252 . S
C120 O124 1.260 . S
C121 O128 1.240 . S
C121 O129 1.252 . S
C122 O125 1.252 . S
C122 O126 1.260 . S
O123 In117 2.266 . S
O123 C120 1.252 . S
O124 In117 2.326 . S
O124 C120 1.260 . S
O125 In117 2.266 . S
O125 C122 1.252 . S
O126 In117 2.326 . S
O126 C122 1.260 . S
C127 O118 1.240 . S
C127 O119 1.252 . S
O128 In117 2.294 . S
O128 C121 1.240 . S
O129 In117 2.326 . S
O129 C121 1.252 . S
In130 O131 2.294 . S
In130 O132 2.326 . S
In130 O136 2.266 . S
In130 O137 2.326 . S
In130 O138 2.266 . S
In130 O139 2.326 . S
In130 O141 2.294 . S
In130 O142 2.326 . S
O131 In130 2.294 . S
O131 C140 1.240 . S
O132 In130 2.326 . S
O132 C140 1.252 . S
C133 O136 1.252 . S
C133 O137 1.260 . S
C134 O141 1.240 . S
C134 O142 1.252 . S
C135 O138 1.252 . S
C135 O139 1.260 . S
O136 In130 2.266 . S
O136 C133 1.252 . S
O137 In130 2.326 . S
O137 C133 1.260 . S
O138 In130 2.266 . S
O138 C135 1.252 . S
O139 In130 2.326 . S
O139 C135 1.260 . S
C140 O131 1.240 . S
C140 O132 1.252 . S
O141 In130 2.294 . S
O141 C134 1.240 . S
O142 In130 2.326 . S
O142 C134 1.252 . S
In143 O144 2.294 . S
In143 O145 2.326 . S
In143 O149 2.266 . S
In143 O150 2.326 . S
In143 O151 2.266 . S
In143 O152 2.326 . S
In143 O154 2.294 . S
In143 O155 2.326 . S
O144 In143 2.294 . S
O144 C153 1.240 . S
O145 In143 2.326 . S
O145 C153 1.252 . S
C146 O149 1.252 . S
C146 O150 1.260 . S
C147 O154 1.240 . S
C147 O155 1.252 . S
C148 O151 1.252 . S
C148 O152 1.260 . S
O149 In143 2.266 . S
O149 C146 1.252 . S
O150 In143 2.326 . S
O150 C146 1.260 . S
O151 In143 2.266 . S
O151 C148 1.252 . S
O152 In143 2.326 . S
O152 C148 1.260 . S
C153 O144 1.240 . S
C153 O145 1.252 . S
O154 In143 2.294 . S
O154 C147 1.240 . S
O155 In143 2.326 . S
O155 C147 1.252 . S
In156 O157 2.294 . S
In156 O158 2.326 . S
In156 O162 2.266 . S
In156 O163 2.326 . S
In156 O164 2.266 . S
In156 O165 2.326 . S
In156 O167 2.294 . S
In156 O168 2.326 . S
O157 In156 2.294 . S
O157 C166 1.240 . S
O158 In156 2.326 . S
O158 C166 1.252 . S
C159 O162 1.252 . S
C159 O163 1.260 . S
C160 O167 1.240 . S
C160 O168 1.252 . S
C161 O164 1.252 . S
C161 O165 1.260 . S
O162 In156 2.266 . S
O162 C159 1.252 . S
O163 In156 2.326 . S
O163 C159 1.260 . S
O164 In156 2.266 . S
O164 C161 1.252 . S
O165 In156 2.326 . S
O165 C161 1.260 . S
C166 O157 1.240 . S
C166 O158 1.252 . S
O167 In156 2.294 . S
O167 C160 1.240 . S
O168 In156 2.326 . S
O168 C160 1.252 . S
In169 O170 2.294 . S
In169 O171 2.326 . S
In169 O175 2.266 . S
In169 O176 2.326 . S
In169 O177 2.266 . S
In169 O178 2.326 . S
In169 O180 2.294 . S
In169 O181 2.326 . S
O170 In169 2.294 . S
O170 C179 1.240 . S
O171 In169 2.326 . S
O171 C179 1.252 . S
C172 O175 1.252 . S
C172 O176 1.260 . S
C173 O180 1.240 . S
C173 O181 1.252 . S
C174 O177 1.252 . S
C174 O178 1.260 . S
O175 In169 2.266 . S
O175 C172 1.252 . S
O176 In169 2.326 . S
O176 C172 1.260 . S
O177 In169 2.266 . S
O177 C174 1.252 . S
O178 In169 2.326 . S
O178 C174 1.260 . S
C179 O170 1.240 . S
C179 O171 1.252 . S
O180 In169 2.294 . S
O180 C173 1.240 . S
O181 In169 2.326 . S
O181 C173 1.252 . S
In182 O183 2.294 . S
In182 O184 2.326 . S
In182 O188 2.266 . S
In182 O189 2.326 . S
In182 O190 2.266 . S
In182 O191 2.326 . S
In182 O193 2.294 . S
In182 O194 2.326 . S
O183 In182 2.294 . S
O183 C192 1.240 . S
O184 In182 2.326 . S
O184 C192 1.252 . S
C185 O188 1.252 . S
C185 O189 1.260 . S
C186 O193 1.240 . S
C186 O194 1.252 . S
C187 O190 1.252 . S
C187 O191 1.260 . S
O188 In182 2.266 . S
O188 C185 1.252 . S
O189 In182 2.326 . S
O189 C185 1.260 . S
O190 In182 2.266 . S
O190 C187 1.252 . S
O191 In182 2.326 . S
O191 C187 1.260 . S
C192 O183 1.240 . S
C192 O184 1.252 . S
O193 In182 2.294 . S
O193 C186 1.240 . S
O194 In182 2.326 . S
O194 C186 1.252 . S
In195 O196 2.294 . S
In195 O197 2.326 . S
In195 O201 2.266 . S
In195 O202 2.326 . S
In195 O203 2.266 . S
In195 O204 2.326 . S
In195 O206 2.294 . S
In195 O207 2.326 . S
O196 In195 2.294 . S
O196 C205 1.240 . S
O197 In195 2.326 . S
O197 C205 1.252 . S
C198 O201 1.252 . S
C198 O202 1.260 . S
C199 O206 1.240 . S
C199 O207 1.252 . S
C200 O203 1.252 . S
C200 O204 1.260 . S
O201 In195 2.266 . S
O201 C198 1.252 . S
O202 In195 2.326 . S
O202 C198 1.260 . S
O203 In195 2.266 . S
O203 C200 1.252 . S
O204 In195 2.326 . S
O204 C200 1.260 . S
C205 O196 1.240 . S
C205 O197 1.252 . S
O206 In195 2.294 . S
O206 C199 1.240 . S
O207 In195 2.326 . S
O207 C199 1.252 . S
In208 O209 2.294 . S
In208 O210 2.326 . S
In208 O214 2.266 . S
In208 O215 2.326 . S
In208 O216 2.266 . S
In208 O217 2.326 . S
In208 O219 2.294 . S
In208 O220 2.326 . S
O209 In208 2.294 . S
O209 C218 1.240 . S
O210 In208 2.326 . S
O210 C218 1.252 . S
C211 O214 1.252 . S
C211 O215 1.260 . S
C212 O219 1.240 . S
C212 O220 1.252 . S
C213 O216 1.252 . S
C213 O217 1.260 . S
O214 In208 2.266 . S
O214 C211 1.252 . S
O215 In208 2.326 . S
O215 C211 1.260 . S
O216 In208 2.266 . S
O216 C213 1.252 . S
O217 In208 2.326 . S
O217 C213 1.260 . S
C218 O209 1.240 . S
C218 O210 1.252 . S
O219 In208 2.294 . S
O219 C212 1.240 . S
O220 In208 2.326 . S
O220 C212 1.252 . S
In221 O222 2.294 1_565 S
In221 O223 2.326 . S
In221 O227 2.266 1_565 S
In221 O228 2.326 1_565 S
In221 O229 2.266 . S
In221 O230 2.325 . S
In221 O232 2.294 . S
In221 O233 2.326 1_565 S
O222 In221 2.294 1_545 S
O222 C231 1.240 . S
O223 In221 2.326 . S
O223 C231 1.252 1_565 S
C224 O227 1.252 . S
C224 O228 1.260 . S
C225 O232 1.286 . S
C225 O233 1.206 1_565 S
C226 O229 1.252 . S
C226 O230 1.260 . S
O227 In221 2.266 1_545 S
O227 C224 1.252 . S
O228 In221 2.326 1_545 S
O228 C224 1.260 . S
O229 In221 2.266 . S
O229 C226 1.252 . S
O230 In221 2.325 . S
O230 C226 1.260 . S
C231 O222 1.240 . S
C231 O223 1.252 1_545 S
O232 In221 2.294 . S
O232 C225 1.286 . S
O233 In221 2.326 1_545 S
O233 C225 1.206 1_545 S
In234 O235 2.294 . S
In234 O236 2.326 . S
In234 O240 2.266 . S
In234 O241 2.326 . S
In234 O242 2.266 . S
In234 O243 2.326 . S
In234 O245 2.294 . S
In234 O246 2.326 . S
O235 In234 2.294 . S
O235 C244 1.240 . S
O236 In234 2.326 . S
O236 C244 1.252 . S
C237 O240 1.252 . S
C237 O241 1.260 . S
C238 O245 1.240 . S
C238 O246 1.252 . S
C239 O242 1.252 . S
C239 O243 1.260 . S
O240 In234 2.266 . S
O240 C237 1.252 . S
O241 In234 2.326 . S
O241 C237 1.260 . S
O242 In234 2.266 . S
O242 C239 1.252 . S
O243 In234 2.326 . S
O243 C239 1.260 . S
C244 O235 1.240 . S
C244 O236 1.252 . S
O245 In234 2.294 . S
O245 C238 1.240 . S
O246 In234 2.326 . S
O246 C238 1.252 . S
In247 O248 2.294 . S
In247 O249 2.326 1_545 S
In247 O253 2.266 . S
In247 O254 2.325 . S
In247 O255 2.266 1_545 S
In247 O256 2.326 1_545 S
In247 O258 2.294 1_545 S
In247 O259 2.326 . S
O248 In247 2.294 . S
O248 C257 1.255 . S
O249 In247 2.326 1_565 S
O249 C257 1.237 1_565 S
C250 O253 1.252 . S
C250 O254 1.260 . S
C251 O258 1.240 . S
C251 O259 1.252 1_565 S
C252 O255 1.252 . S
C252 O256 1.260 . S
O253 In247 2.266 . S
O253 C250 1.252 . S
O254 In247 2.325 . S
O254 C250 1.260 . S
O255 In247 2.266 1_565 S
O255 C252 1.252 . S
O256 In247 2.326 1_565 S
O256 C252 1.260 . S
C257 O248 1.255 . S
C257 O249 1.237 1_545 S
O258 In247 2.294 1_565 S
O258 C251 1.240 . S
O259 In247 2.326 . S
O259 C251 1.252 1_545 S
In260 O261 2.294 . S
In260 O262 2.326 . S
In260 O266 2.266 . S
In260 O267 2.326 . S
In260 O268 2.266 . S
In260 O269 2.326 . S
In260 O271 2.294 . S
In260 O272 2.326 . S
O261 In260 2.294 . S
O261 C270 1.240 . S
O262 In260 2.326 . S
O262 C270 1.252 . S
C263 O266 1.252 . S
C263 O267 1.260 . S
C264 O271 1.240 . S
C264 O272 1.252 . S
C265 O268 1.252 . S
C265 O269 1.260 . S
O266 In260 2.266 . S
O266 C263 1.252 . S
O267 In260 2.326 . S
O267 C263 1.260 . S
O268 In260 2.266 . S
O268 C265 1.252 . S
O269 In260 2.326 . S
O269 C265 1.260 . S
C270 O261 1.240 . S
C270 O262 1.252 . S
O271 In260 2.294 . S
O271 C264 1.240 . S
O272 In260 2.326 . S
O272 C264 1.252 . S
In273 O274 2.294 . S
In273 O275 2.326 1_556 S
In273 O279 2.266 . S
In273 O280 2.325 . S
In273 O281 2.266 1_556 S
In273 O282 2.326 1_556 S
In273 O284 2.294 1_556 S
In273 O285 2.326 . S
O274 In273 2.294 . S
O274 C283 1.286 . S
O275 In273 2.326 1_554 S
O275 C283 1.206 1_554 S
C276 O279 1.252 . S
C276 O280 1.260 . S
C277 O284 1.240 . S
C277 O285 1.252 1_554 S
C278 O281 1.252 . S
C278 O282 1.260 . S
O279 In273 2.266 . S
O279 C276 1.252 . S
O280 In273 2.325 . S
O280 C276 1.260 . S
O281 In273 2.266 1_554 S
O281 C278 1.252 . S
O282 In273 2.326 1_554 S
O282 C278 1.260 . S
C283 O274 1.286 . S
C283 O275 1.206 1_556 S
O284 In273 2.294 1_554 S
O284 C277 1.240 . S
O285 In273 2.326 . S
O285 C277 1.252 1_556 S
In286 O287 2.294 . S
In286 O288 2.326 1_556 S
In286 O292 2.266 . S
In286 O293 2.325 . S
In286 O294 2.267 1_556 S
In286 O295 2.326 1_556 S
In286 O297 2.294 1_556 S
In286 O298 2.326 . S
O287 In286 2.294 . S
O287 C296 1.229 1_556 S
O288 In286 2.326 1_554 S
O288 C296 1.263 . S
C289 O292 1.252 . S
C289 O293 1.260 . S
C290 O297 1.240 . S
C290 O298 1.252 1_554 S
C291 O294 1.252 . S
C291 O295 1.260 . S
O292 In286 2.266 . S
O292 C289 1.252 . S
O293 In286 2.325 . S
O293 C289 1.260 . S
O294 In286 2.267 1_554 S
O294 C291 1.252 . S
O295 In286 2.326 1_554 S
O295 C291 1.260 . S
C296 O287 1.229 1_554 S
C296 O288 1.263 . S
O297 In286 2.294 1_554 S
O297 C290 1.240 . S
O298 In286 2.326 . S
O298 C290 1.252 1_556 S
In299 O300 2.294 1_554 S
In299 O301 2.326 . S
In299 O305 2.266 1_554 S
In299 O306 2.326 1_554 S
In299 O307 2.266 . S
In299 O308 2.325 . S
In299 O310 2.294 . S
In299 O311 2.326 1_554 S
O300 In299 2.294 1_556 S
O300 C309 1.240 . S
O301 In299 2.326 . S
O301 C309 1.252 1_554 S
C302 O305 1.252 . S
C302 O306 1.260 . S
C303 O310 1.255 . S
C303 O311 1.237 1_554 S
C304 O307 1.252 . S
C304 O308 1.260 . S
O305 In299 2.266 1_556 S
O305 C302 1.252 . S
O306 In299 2.326 1_556 S
O306 C302 1.260 . S
O307 In299 2.266 . S
O307 C304 1.252 . S
O308 In299 2.325 . S
O308 C304 1.260 . S
C309 O300 1.240 . S
C309 O301 1.252 1_556 S
O310 In299 2.294 . S
O310 C303 1.255 . S
O311 In299 2.326 1_556 S
O311 C303 1.237 1_556 S
H312 C320 0.929 . S
H313 C322 0.930 . S
H314 C324 0.930 . S
H315 C327 0.929 . S
H316 C330 0.930 . S
H317 C332 0.960 . S
H318 C332 0.960 . S
H319 C332 0.960 . S
C320 H312 0.929 . S
C320 C321 1.377 . S
C320 C322 1.384 . S
C321 C320 1.377 . S
C321 C327 1.390 . S
C322 H313 0.930 . S
C322 C320 1.384 . S
C322 C323 1.372 . S
C323 C322 1.372 . S
C323 C324 1.400 . S
C323 C328 1.490 . S
C324 H314 0.930 . S
C324 C323 1.400 . S
C324 C327 1.386 . S
H325 C341 0.930 . S
H326 C342 0.931 . S
C327 H315 0.929 . S
C327 C321 1.390 . S
C327 C324 1.386 . S
C328 C323 1.490 . S
C328 C330 1.395 . S
C328 C331 1.403 . S
H329 C335 0.930 . S
C330 H316 0.930 . S
C330 C328 1.395 . S
C330 C333 1.403 . S
C331 C328 1.403 . S
C331 C332 1.524 . S
C331 C335 1.400 . S
C332 H317 0.960 . S
C332 H318 0.960 . S
C332 H319 0.960 . S
C332 C331 1.524 . S
C333 C330 1.403 . S
C333 C334 1.392 . S
C333 C337 1.495 . S
C334 C333 1.392 . S
C334 C335 1.385 . S
C334 C336 1.478 . S
C335 H329 0.930 . S
C335 C331 1.400 . S
C335 C334 1.385 . S
C336 C334 1.478 . S
C336 C338 1.381 . S
C336 C342 1.383 . S
C337 C333 1.495 . S
C337 H343 0.959 . S
C337 H344 0.961 . S
C337 H345 0.960 . S
C338 C336 1.381 . S
C338 C339 1.394 . S
C338 H346 0.930 . S
C339 C338 1.394 . S
C339 C340 1.383 . S
C339 H347 0.929 . S
C340 C339 1.383 . S
C340 C341 1.377 . S
C341 H325 0.930 . S
C341 C340 1.377 . S
C341 C342 1.379 . S
C342 H326 0.931 . S
C342 C336 1.383 . S
C342 C341 1.379 . S
H343 C337 0.959 . S
H344 C337 0.961 . S
H345 C337 0.960 . S
H346 C338 0.930 . S
H347 C339 0.929 . S
H348 C356 0.929 . S
H349 C358 0.930 . S
H350 C360 0.930 . S
H351 C363 0.929 . S
H352 C366 0.930 . S
H353 C368 0.960 . S
H354 C368 0.960 . S
H355 C368 0.960 . S
C356 H348 0.929 . S
C356 C357 1.377 . S
C356 C358 1.384 . S
C357 C356 1.377 . S
C357 C363 1.390 . S
C358 H349 0.930 . S
C358 C356 1.384 . S
C358 C359 1.372 . S
C359 C358 1.372 . S
C359 C360 1.400 . S
C359 C364 1.490 . S
C360 H350 0.930 . S
C360 C359 1.400 . S
C360 C363 1.386 . S
H361 C377 0.930 . S
H362 C378 0.931 . S
C363 H351 0.929 . S
C363 C357 1.390 . S
C363 C360 1.386 . S
C364 C359 1.490 . S
C364 C366 1.395 . S
C364 C367 1.403 . S
H365 C371 0.930 . S
C366 H352 0.930 . S
C366 C364 1.395 . S
C366 C369 1.403 . S
C367 C364 1.403 . S
C367 C368 1.524 . S
C367 C371 1.400 . S
C368 H353 0.960 . S
C368 H354 0.960 . S
C368 H355 0.960 . S
C368 C367 1.524 . S
C369 C366 1.403 . S
C369 C370 1.392 . S
C369 C373 1.495 . S
C370 C369 1.392 . S
C370 C371 1.385 . S
C370 C372 1.478 . S
C371 H365 0.930 . S
C371 C367 1.400 . S
C371 C370 1.385 . S
C372 C370 1.478 . S
C372 C374 1.381 . S
C372 C378 1.383 . S
C373 C369 1.495 . S
C373 H379 0.959 . S
C373 H380 0.961 . S
C373 H381 0.960 . S
C374 C372 1.381 . S
C374 C375 1.394 . S
C374 H382 0.930 . S
C375 C374 1.394 . S
C375 C376 1.383 . S
C375 H383 0.929 . S
C376 C375 1.383 . S
C376 C377 1.377 . S
C377 H361 0.930 . S
C377 C376 1.377 . S
C377 C378 1.379 . S
C378 H362 0.931 . S
C378 C372 1.383 . S
C378 C377 1.379 . S
H379 C373 0.959 . S
H380 C373 0.961 . S
H381 C373 0.960 . S
H382 C374 0.930 . S
H383 C375 0.929 . S
H384 C392 0.929 . S
H385 C394 0.930 . S
H386 C396 0.930 . S
H387 C399 0.929 . S
H388 C402 0.930 . S
H389 C404 0.960 . S
H390 C404 0.960 . S
H391 C404 0.960 . S
C392 H384 0.929 . S
C392 C393 1.377 . S
C392 C394 1.384 . S
C393 C392 1.377 . S
C393 C399 1.390 . S
C394 H385 0.930 . S
C394 C392 1.384 . S
C394 C395 1.372 . S
C395 C394 1.372 . S
C395 C396 1.400 . S
C395 C400 1.490 . S
C396 H386 0.930 . S
C396 C395 1.400 . S
C396 C399 1.386 . S
H397 C413 0.930 . S
H398 C414 0.931 . S
C399 H387 0.929 . S
C399 C393 1.390 . S
C399 C396 1.386 . S
C400 C395 1.490 . S
C400 C402 1.395 . S
C400 C403 1.403 . S
H401 C407 0.930 . S
C402 H388 0.930 . S
C402 C400 1.395 . S
C402 C405 1.403 . S
C403 C400 1.403 . S
C403 C404 1.524 . S
C403 C407 1.400 . S
C404 H389 0.960 . S
C404 H390 0.960 . S
C404 H391 0.960 . S
C404 C403 1.524 . S
C405 C402 1.403 . S
C405 C406 1.392 . S
C405 C409 1.495 1_554 S
C406 C405 1.392 . S
C406 C407 1.385 . S
C406 C408 1.478 1_554 S
C407 H401 0.930 . S
C407 C403 1.400 . S
C407 C406 1.385 . S
C408 C406 1.478 1_556 S
C408 C410 1.381 . S
C408 C414 1.383 . S
C409 C405 1.495 1_556 S
C409 H415 0.959 . S
C409 H416 0.961 . S
C409 H417 0.960 . S
C410 C408 1.381 . S
C410 C411 1.394 . S
C410 H418 0.930 . S
C411 C410 1.394 . S
C411 C412 1.383 . S
C411 H419 0.929 . S
C412 C411 1.383 . S
C412 C413 1.377 . S
C413 H397 0.930 . S
C413 C412 1.377 . S
C413 C414 1.379 . S
C414 H398 0.931 . S
C414 C408 1.383 . S
C414 C413 1.379 . S
H415 C409 0.959 . S
H416 C409 0.961 . S
H417 C409 0.960 . S
H418 C410 0.930 . S
H419 C411 0.929 . S
H420 C428 0.929 . S
H421 C430 0.930 . S
H422 C432 0.930 . S
H423 C435 0.929 . S
H424 C438 0.930 . S
H425 C440 0.960 . S
H426 C440 0.960 . S
H427 C440 0.960 . S
C428 H420 0.929 . S
C428 C429 1.377 . S
C428 C430 1.384 . S
C429 C428 1.377 . S
C429 C435 1.390 . S
C430 H421 0.930 . S
C430 C428 1.384 . S
C430 C431 1.372 . S
C431 C430 1.372 . S
C431 C432 1.400 . S
C431 C436 1.490 . S
C432 H422 0.930 . S
C432 C431 1.400 . S
C432 C435 1.386 . S
H433 C449 0.930 . S
H434 C450 0.931 . S
C435 H423 0.929 . S
C435 C429 1.390 . S
C435 C432 1.386 . S
C436 C431 1.490 . S
C436 C438 1.395 . S
C436 C439 1.403 . S
H437 C443 0.930 . S
C438 H424 0.930 . S
C438 C436 1.395 . S
C438 C441 1.403 . S
C439 C436 1.403 . S
C439 C440 1.524 . S
C439 C443 1.400 . S
C440 H425 0.960 . S
C440 H426 0.960 . S
C440 H427 0.960 . S
C440 C439 1.524 . S
C441 C438 1.403 . S
C441 C442 1.392 . S
C441 C445 1.495 . S
C442 C441 1.392 . S
C442 C443 1.385 . S
C442 C444 1.478 1_554 S
C443 H437 0.930 . S
C443 C439 1.400 . S
C443 C442 1.385 . S
C444 C442 1.478 1_556 S
C444 C446 1.381 . S
C444 C450 1.383 . S
C445 C441 1.495 . S
C445 H451 0.959 . S
C445 H452 0.955 1_554 S
C445 H453 0.960 . S
C446 C444 1.381 . S
C446 C447 1.394 . S
C446 H454 0.930 . S
C447 C446 1.394 . S
C447 C448 1.383 . S
C447 H455 0.929 . S
C448 C447 1.383 . S
C448 C449 1.377 . S
C449 H433 0.930 . S
C449 C448 1.377 . S
C449 C450 1.379 . S
C450 H434 0.931 . S
C450 C444 1.383 . S
C450 C449 1.379 . S
H451 C445 0.959 . S
H452 C445 0.955 1_556 S
H453 C445 0.960 . S
H454 C446 0.930 . S
H455 C447 0.929 . S
H456 C464 0.929 . S
H457 C466 0.930 . S
H458 C468 0.930 . S
H459 C471 0.929 . S
H460 C474 0.930 . S
H461 C476 0.960 . S
H462 C476 0.960 . S
H463 C476 0.960 . S
C464 H456 0.929 . S
C464 C465 1.377 . S
C464 C466 1.384 . S
C465 C464 1.377 . S
C465 C471 1.390 . S
C466 H457 0.930 . S
C466 C464 1.384 . S
C466 C467 1.372 . S
C467 C466 1.372 . S
C467 C468 1.400 . S
C467 C472 1.490 . S
C468 H458 0.930 . S
C468 C467 1.400 . S
C468 C471 1.386 . S
H469 C485 0.930 . S
H470 C486 0.931 . S
C471 H459 0.929 . S
C471 C465 1.390 . S
C471 C468 1.386 . S
C472 C467 1.490 . S
C472 C474 1.395 . S
C472 C475 1.403 . S
H473 C479 0.930 . S
C474 H460 0.930 . S
C474 C472 1.395 . S
C474 C477 1.403 . S
C475 C472 1.403 . S
C475 C476 1.524 . S
C475 C479 1.400 . S
C476 H461 0.960 . S
C476 H462 0.960 . S
C476 H463 0.960 . S
C476 C475 1.524 . S
C477 C474 1.403 . S
C477 C478 1.392 . S
C477 C481 1.495 . S
C478 C477 1.392 . S
C478 C479 1.385 . S
C478 C480 1.478 . S
C479 H473 0.930 . S
C479 C475 1.400 . S
C479 C478 1.385 . S
C480 C478 1.478 . S
C480 C482 1.381 . S
C480 C486 1.383 . S
C481 C477 1.495 . S
C481 H487 0.959 . S
C481 H488 0.961 . S
C481 H489 0.960 . S
C482 C480 1.381 . S
C482 C483 1.394 . S
C482 H490 0.930 . S
C483 C482 1.394 . S
C483 C484 1.383 . S
C483 H491 0.929 1_554 S
C484 C483 1.383 . S
C484 C485 1.377 . S
C485 H469 0.930 . S
C485 C484 1.377 . S
C485 C486 1.379 . S
C486 H470 0.931 . S
C486 C480 1.383 . S
C486 C485 1.379 . S
H487 C481 0.959 . S
H488 C481 0.961 . S
H489 C481 0.960 . S
H490 C482 0.930 . S
H491 C483 0.929 1_556 S
H492 C500 0.929 . S
H493 C502 0.930 . S
H494 C504 0.930 . S
H495 C507 0.929 . S
H496 C510 0.930 . S
H497 C512 0.960 . S
H498 C512 0.960 . S
H499 C512 0.960 . S
C500 H492 0.929 . S
C500 C501 1.377 . S
C500 C502 1.384 . S
C501 C500 1.377 . S
C501 C507 1.390 . S
C502 H493 0.930 . S
C502 C500 1.384 . S
C502 C503 1.372 . S
C503 C502 1.372 . S
C503 C504 1.400 . S
C503 C508 1.490 . S
C504 H494 0.930 . S
C504 C503 1.400 . S
C504 C507 1.386 . S
H505 C521 0.930 1_556 S
H506 C522 0.931 . S
C507 H495 0.929 . S
C507 C501 1.390 . S
C507 C504 1.386 . S
C508 C503 1.490 . S
C508 C510 1.395 . S
C508 C511 1.403 . S
H509 C515 0.930 . S
C510 H496 0.930 . S
C510 C508 1.395 . S
C510 C513 1.403 . S
C511 C508 1.403 . S
C511 C512 1.524 . S
C511 C515 1.400 . S
C512 H497 0.960 . S
C512 H498 0.960 . S
C512 H499 0.960 . S
C512 C511 1.524 . S
C513 C510 1.403 . S
C513 C514 1.392 . S
C513 C517 1.495 . S
C514 C513 1.392 . S
C514 C515 1.385 . S
C514 C516 1.478 . S
C515 H509 0.930 . S
C515 C511 1.400 . S
C515 C514 1.385 . S
C516 C514 1.478 . S
C516 C518 1.381 . S
C516 C522 1.383 . S
C517 C513 1.495 . S
C517 H523 0.959 . S
C517 H524 0.961 . S
C517 H525 0.960 . S
C518 C516 1.381 . S
C518 C519 1.394 . S
C518 H526 0.930 . S
C519 C518 1.394 . S
C519 C520 1.383 . S
C519 H527 0.929 . S
C520 C519 1.383 . S
C520 C521 1.377 . S
C521 H505 0.930 1_554 S
C521 C520 1.377 . S
C521 C522 1.379 . S
C522 H506 0.931 . S
C522 C516 1.383 . S
C522 C521 1.379 . S
H523 C517 0.959 . S
H524 C517 0.961 . S
H525 C517 0.960 . S
H526 C518 0.930 . S
H527 C519 0.929 . S
H528 C536 0.929 . S
H529 C538 0.930 . S
H530 C540 0.930 . S
H531 C543 0.929 . S
H532 C546 0.930 . S
H533 C548 0.960 . S
H534 C548 0.960 . S
H535 C548 0.960 . S
C536 H528 0.929 . S
C536 C537 1.377 . S
C536 C538 1.384 . S
C537 C536 1.377 . S
C537 C543 1.390 . S
C538 H529 0.930 . S
C538 C536 1.384 . S
C538 C539 1.372 . S
C539 C538 1.372 . S
C539 C540 1.400 . S
C539 C544 1.490 . S
C540 H530 0.930 . S
C540 C539 1.400 . S
C540 C543 1.386 . S
H541 C557 0.930 . S
H542 C558 0.931 . S
C543 H531 0.929 . S
C543 C537 1.390 . S
C543 C540 1.386 . S
C544 C539 1.490 . S
C544 C546 1.395 . S
C544 C547 1.403 . S
H545 C551 0.930 . S
C546 H532 0.930 . S
C546 C544 1.395 . S
C546 C549 1.403 . S
C547 C544 1.403 . S
C547 C548 1.524 . S
C547 C551 1.400 . S
C548 H533 0.960 . S
C548 H534 0.960 . S
C548 H535 0.960 . S
C548 C547 1.524 . S
C549 C546 1.403 . S
C549 C550 1.392 . S
C549 C553 1.495 . S
C550 C549 1.392 . S
C550 C551 1.385 . S
C550 C552 1.478 . S
C551 H545 0.930 . S
C551 C547 1.400 . S
C551 C550 1.385 . S
C552 C550 1.478 . S
C552 C554 1.381 . S
C552 C558 1.383 . S
C553 C549 1.495 . S
C553 H559 0.959 . S
C553 H560 0.961 . S
C553 H561 0.960 . S
C554 C552 1.381 . S
C554 C555 1.394 . S
C554 H562 0.930 . S
C555 C554 1.394 . S
C555 C556 1.383 . S
C555 H563 0.929 . S
C556 C555 1.383 . S
C556 C557 1.377 . S
C557 H541 0.930 . S
C557 C556 1.377 . S
C557 C558 1.379 . S
C558 H542 0.931 . S
C558 C552 1.383 . S
C558 C557 1.379 . S
H559 C553 0.959 . S
H560 C553 0.961 . S
H561 C553 0.960 . S
H562 C554 0.930 . S
H563 C555 0.929 . S
H564 C572 0.929 . S
H565 C574 0.930 . S
H566 C576 0.930 . S
H567 C579 0.929 . S
H568 C582 0.930 . S
H569 C584 0.960 . S
H570 C584 0.960 . S
H571 C584 0.960 . S
C572 H564 0.929 . S
C572 C573 1.377 . S
C572 C574 1.384 . S
C573 C572 1.377 . S
C573 C579 1.390 . S
C574 H565 0.930 . S
C574 C572 1.384 . S
C574 C575 1.372 . S
C575 C574 1.372 . S
C575 C576 1.400 . S
C575 C580 1.490 . S
C576 H566 0.930 . S
C576 C575 1.400 . S
C576 C579 1.386 . S
H577 C593 0.930 . S
H578 C594 0.931 . S
C579 H567 0.929 . S
C579 C573 1.390 . S
C579 C576 1.386 . S
C580 C575 1.490 . S
C580 C582 1.395 . S
C580 C583 1.403 . S
H581 C587 0.930 . S
C582 H568 0.930 . S
C582 C580 1.395 . S
C582 C585 1.403 . S
C583 C580 1.403 . S
C583 C584 1.524 . S
C583 C587 1.400 . S
C584 H569 0.960 . S
C584 H570 0.960 . S
C584 H571 0.960 . S
C584 C583 1.524 . S
C585 C582 1.403 . S
C585 C586 1.392 . S
C585 C589 1.495 . S
C586 C585 1.392 . S
C586 C587 1.385 . S
C586 C588 1.478 . S
C587 H581 0.930 . S
C587 C583 1.400 . S
C587 C586 1.385 . S
C588 C586 1.478 . S
C588 C590 1.381 . S
C588 C594 1.383 . S
C589 C585 1.495 . S
C589 H595 0.959 . S
C589 H596 0.961 . S
C589 H597 0.960 . S
C590 C588 1.381 . S
C590 C591 1.394 . S
C590 H598 0.930 . S
C591 C590 1.394 . S
C591 C592 1.383 . S
C591 H599 0.929 . S
C592 C591 1.383 . S
C592 C593 1.377 . S
C593 H577 0.930 . S
C593 C592 1.377 . S
C593 C594 1.379 . S
C594 H578 0.931 . S
C594 C588 1.383 . S
C594 C593 1.379 . S
H595 C589 0.959 . S
H596 C589 0.961 . S
H597 C589 0.960 . S
H598 C590 0.930 . S
H599 C591 0.929 . S
H600 C608 0.929 . S
H601 C610 0.930 . S
H602 C612 0.930 . S
H603 C615 0.929 . S
H604 C618 0.930 . S
H605 C620 0.960 . S
H606 C620 0.960 . S
H607 C620 0.960 . S
C608 H600 0.929 . S
C608 C609 1.377 . S
C608 C610 1.384 . S
C609 C608 1.377 . S
C609 C615 1.390 . S
C610 H601 0.930 . S
C610 C608 1.384 . S
C610 C611 1.372 . S
C611 C610 1.372 . S
C611 C612 1.400 . S
C611 C616 1.490 . S
C612 H602 0.930 . S
C612 C611 1.400 . S
C612 C615 1.386 . S
H613 C629 0.930 . S
H614 C630 0.931 . S
C615 H603 0.929 . S
C615 C609 1.390 . S
C615 C612 1.386 . S
C616 C611 1.490 . S
C616 C618 1.395 . S
C616 C619 1.403 . S
H617 C623 0.930 . S
C618 H604 0.930 . S
C618 C616 1.395 . S
C618 C621 1.403 . S
C619 C616 1.403 . S
C619 C620 1.524 . S
C619 C623 1.400 . S
C620 H605 0.960 . S
C620 H606 0.960 . S
C620 H607 0.960 . S
C620 C619 1.524 . S
C621 C618 1.403 . S
C621 C622 1.392 . S
C621 C625 1.495 . S
C622 C621 1.392 . S
C622 C623 1.385 . S
C622 C624 1.478 . S
C623 H617 0.930 . S
C623 C619 1.400 . S
C623 C622 1.385 . S
C624 C622 1.478 . S
C624 C626 1.381 . S
C624 C630 1.383 . S
C625 C621 1.495 . S
C625 H631 0.959 . S
C625 H632 0.961 . S
C625 H633 0.960 . S
C626 C624 1.381 . S
C626 C627 1.394 . S
C626 H634 0.930 . S
C627 C626 1.394 . S
C627 C628 1.383 . S
C627 H635 0.967 . S
C628 C627 1.383 . S
C628 C629 1.377 . S
C629 H613 0.930 . S
C629 C628 1.377 . S
C629 C630 1.379 . S
C630 H614 0.931 . S
C630 C624 1.383 . S
C630 C629 1.379 . S
H631 C625 0.959 . S
H632 C625 0.961 . S
H633 C625 0.960 . S
H634 C626 0.930 . S
H635 C627 0.967 . S
H636 C644 0.929 . S
H637 C646 0.930 . S
H638 C648 0.930 . S
H639 C651 0.929 . S
H640 C654 0.930 . S
H641 C656 0.960 . S
H642 C656 0.960 . S
H643 C656 0.960 . S
C644 H636 0.929 . S
C644 C645 1.377 . S
C644 C646 1.384 . S
C645 C644 1.377 . S
C645 C651 1.390 . S
C646 H637 0.930 . S
C646 C644 1.384 . S
C646 C647 1.372 . S
C647 C646 1.372 . S
C647 C648 1.400 . S
C647 C652 1.490 . S
C648 H638 0.930 . S
C648 C647 1.400 . S
C648 C651 1.386 . S
H649 C665 0.930 . S
H650 C666 0.931 . S
C651 H639 0.929 . S
C651 C645 1.390 . S
C651 C648 1.386 . S
C652 C647 1.490 . S
C652 C654 1.395 . S
C652 C655 1.403 . S
H653 C659 0.930 . S
C654 H640 0.930 . S
C654 C652 1.395 . S
C654 C657 1.403 . S
C655 C652 1.403 . S
C655 C656 1.524 . S
C655 C659 1.400 . S
C656 H641 0.960 . S
C656 H642 0.960 . S
C656 H643 0.960 . S
C656 C655 1.524 . S
C657 C654 1.403 . S
C657 C658 1.392 . S
C657 C661 1.495 . S
C658 C657 1.392 . S
C658 C659 1.385 . S
C658 C660 1.478 . S
C659 H653 0.930 . S
C659 C655 1.400 . S
C659 C658 1.385 . S
C660 C658 1.478 . S
C660 C662 1.381 . S
C660 C666 1.383 . S
C661 C657 1.495 . S
C661 H667 0.959 . S
C661 H668 0.961 . S
C661 H669 0.960 . S
C662 C660 1.381 . S
C662 C663 1.394 . S
C662 H670 0.930 . S
C663 C662 1.394 . S
C663 C664 1.383 . S
C663 H671 0.929 . S
C664 C663 1.383 . S
C664 C665 1.377 . S
C665 H649 0.930 . S
C665 C664 1.377 . S
C665 C666 1.379 . S
C666 H650 0.931 . S
C666 C660 1.383 . S
C666 C665 1.379 . S
H667 C661 0.959 . S
H668 C661 0.961 . S
H669 C661 0.960 . S
H670 C662 0.930 . S
H671 C663 0.929 . S
H672 C680 0.929 . S
H673 C682 0.930 . S
H674 C684 0.930 . S
H675 C687 0.929 . S
H676 C690 0.930 . S
H677 C692 0.960 . S
H678 C692 0.960 . S
H679 C692 0.960 . S
C680 H672 0.929 . S
C680 C681 1.377 . S
C680 C682 1.384 . S
C681 C680 1.377 . S
C681 C687 1.390 . S
C682 H673 0.930 . S
C682 C680 1.384 . S
C682 C683 1.372 . S
C683 C682 1.372 . S
C683 C684 1.400 . S
C683 C688 1.490 . S
C684 H674 0.930 . S
C684 C683 1.400 . S
C684 C687 1.386 . S
H685 C701 0.930 . S
H686 C702 0.931 1_565 S
C687 H675 0.929 . S
C687 C681 1.390 . S
C687 C684 1.386 . S
C688 C683 1.490 . S
C688 C690 1.395 . S
C688 C691 1.403 . S
H689 C695 0.930 . S
C690 H676 0.930 . S
C690 C688 1.395 . S
C690 C693 1.403 . S
C691 C688 1.403 . S
C691 C692 1.524 . S
C691 C695 1.400 . S
C692 H677 0.960 . S
C692 H678 0.960 . S
C692 H679 0.960 . S
C692 C691 1.524 . S
C693 C690 1.403 . S
C693 C694 1.392 . S
C693 C697 1.495 . S
C694 C693 1.392 . S
C694 C695 1.385 . S
C694 C696 1.478 1_565 S
C695 H689 0.930 . S
C695 C691 1.400 . S
C695 C694 1.385 . S
C696 C694 1.478 1_545 S
C696 C698 1.381 . S
C696 C702 1.383 . S
C697 C693 1.495 . S
C697 H703 0.959 1_655 S
C697 H704 0.971 . S
C697 H705 0.960 . S
C698 C696 1.381 . S
C698 C699 1.394 . S
C698 H706 0.930 . S
C699 C698 1.394 . S
C699 C700 1.383 . S
C699 H707 0.929 . S
C700 C699 1.383 . S
C700 C701 1.377 . S
C701 H685 0.930 . S
C701 C700 1.377 . S
C701 C702 1.379 . S
C702 H686 0.931 1_545 S
C702 C696 1.383 . S
C702 C701 1.379 . S
H703 C697 0.959 1_455 S
H704 C697 0.971 . S
H705 C697 0.960 . S
H706 C698 0.930 . S
H707 C699 0.929 . S
H708 C716 0.929 . S
H709 C718 0.930 . S
H710 C720 0.930 . S
H711 C723 0.929 . S
H712 C726 0.930 . S
H713 C728 0.960 . S
H714 C728 0.960 . S
H715 C728 0.960 . S
C716 H708 0.929 . S
C716 C717 1.377 . S
C716 C718 1.384 . S
C717 C716 1.377 . S
C717 C723 1.390 . S
C718 H709 0.930 . S
C718 C716 1.384 . S
C718 C719 1.372 . S
C719 C718 1.372 . S
C719 C720 1.400 . S
C719 C724 1.490 . S
C720 H710 0.930 . S
C720 C719 1.400 . S
C720 C723 1.386 . S
H721 C737 0.930 . S
H722 C738 0.931 . S
C723 H711 0.929 . S
C723 C717 1.390 . S
C723 C720 1.386 . S
C724 C719 1.490 . S
C724 C726 1.395 . S
C724 C727 1.403 . S
H725 C731 0.930 . S
C726 H712 0.930 . S
C726 C724 1.395 . S
C726 C729 1.403 . S
C727 C724 1.403 . S
C727 C728 1.524 . S
C727 C731 1.400 . S
C728 H713 0.960 . S
C728 H714 0.960 . S
C728 H715 0.960 . S
C728 C727 1.524 . S
C729 C726 1.403 . S
C729 C730 1.392 . S
C729 C733 1.495 . S
C730 C729 1.392 . S
C730 C731 1.385 . S
C730 C732 1.478 . S
C731 H725 0.930 . S
C731 C727 1.400 . S
C731 C730 1.385 . S
C732 C730 1.478 . S
C732 C734 1.381 . S
C732 C738 1.383 . S
C733 C729 1.495 . S
C733 H739 0.959 . S
C733 H740 0.961 . S
C733 H741 0.960 . S
C734 C732 1.381 . S
C734 C735 1.394 . S
C734 H742 0.930 . S
C735 C734 1.394 . S
C735 C736 1.383 . S
C735 H743 0.929 . S
C736 C735 1.383 . S
C736 C737 1.377 . S
C737 H721 0.930 . S
C737 C736 1.377 . S
C737 C738 1.379 . S
C738 H722 0.931 . S
C738 C732 1.383 . S
C738 C737 1.379 . S
H739 C733 0.959 . S
H740 C733 0.961 . S
H741 C733 0.960 . S
H742 C734 0.930 . S
H743 C735 0.929 . S
H744 C752 0.929 . S
H745 C754 0.930 . S
H746 C756 0.930 . S
H747 C759 0.929 . S
H748 C762 0.930 . S
H749 C764 0.960 . S
H750 C764 0.960 . S
H751 C764 0.960 . S
C752 H744 0.929 . S
C752 C753 1.377 . S
C752 C754 1.384 . S
C753 C752 1.377 . S
C753 C759 1.390 . S
C754 H745 0.930 . S
C754 C752 1.384 . S
C754 C755 1.372 . S
C755 C754 1.372 . S
C755 C756 1.400 . S
C755 C760 1.490 1_554 S
C756 H746 0.930 . S
C756 C755 1.400 . S
C756 C759 1.386 . S
H757 C773 0.930 . S
H758 C774 0.931 . S
C759 H747 0.929 . S
C759 C753 1.390 . S
C759 C756 1.386 . S
C760 C755 1.490 1_556 S
C760 C762 1.395 . S
C760 C763 1.403 . S
H761 C767 0.930 . S
C762 H748 0.930 . S
C762 C760 1.395 . S
C762 C765 1.403 . S
C763 C760 1.403 . S
C763 C764 1.524 1_556 S
C763 C767 1.400 . S
C764 H749 0.960 . S
C764 H750 0.960 . S
C764 H751 0.960 . S
C764 C763 1.524 1_554 S
C765 C762 1.403 . S
C765 C766 1.392 . S
C765 C769 1.495 . S
C766 C765 1.392 . S
C766 C767 1.385 . S
C766 C768 1.478 . S
C767 H761 0.930 . S
C767 C763 1.400 . S
C767 C766 1.385 . S
C768 C766 1.478 . S
C768 C770 1.381 . S
C768 C774 1.383 . S
C769 C765 1.495 . S
C769 H775 0.959 . S
C769 H776 0.961 . S
C769 H777 0.960 . S
C770 C768 1.381 . S
C770 C771 1.394 . S
C770 H778 0.930 . S
C771 C770 1.394 . S
C771 C772 1.383 . S
C771 H779 0.929 . S
C772 C771 1.383 . S
C772 C773 1.377 . S
C773 H757 0.930 . S
C773 C772 1.377 . S
C773 C774 1.379 . S
C774 H758 0.931 . S
C774 C768 1.383 . S
C774 C773 1.379 . S
H775 C769 0.959 . S
H776 C769 0.961 . S
H777 C769 0.960 . S
H778 C770 0.930 . S
H779 C771 0.929 . S
H780 C788 0.929 . S
H781 C790 0.930 . S
H782 C792 0.965 . S
H783 C795 0.929 . S
H784 C798 0.930 1_554 S
H785 C800 0.960 . S
H786 C800 0.960 . S
H787 C800 0.960 . S
C788 H780 0.929 . S
C788 C789 1.377 . S
C788 C790 1.384 . S
C789 C788 1.377 . S
C789 C795 1.390 . S
C790 H781 0.930 . S
C790 C788 1.384 . S
C790 C791 1.372 . S
C791 C790 1.372 . S
C791 C792 1.400 . S
C791 C796 1.490 1_554 S
C792 H782 0.965 . S
C792 C791 1.400 . S
C792 C795 1.386 . S
H793 C809 0.930 . S
H794 C810 0.931 . S
C795 H783 0.929 . S
C795 C789 1.390 . S
C795 C792 1.386 . S
C796 C791 1.490 1_556 S
C796 C798 1.395 . S
C796 C799 1.403 . S
H797 C803 0.930 . S
C798 H784 0.930 1_556 S
C798 C796 1.395 . S
C798 C801 1.403 . S
C799 C796 1.403 . S
C799 C800 1.524 . S
C799 C803 1.400 . S
C800 H785 0.960 . S
C800 H786 0.960 . S
C800 H787 0.960 . S
C800 C799 1.524 . S
C801 C798 1.403 . S
C801 C802 1.392 . S
C801 C805 1.495 . S
C802 C801 1.392 . S
C802 C803 1.385 . S
C802 C804 1.478 . S
C803 H797 0.930 . S
C803 C799 1.400 . S
C803 C802 1.385 . S
C804 C802 1.478 . S
C804 C806 1.381 . S
C804 C810 1.383 . S
C805 C801 1.495 . S
C805 H811 0.959 . S
C805 H812 0.961 . S
C805 H813 0.960 . S
C806 C804 1.381 . S
C806 C807 1.394 . S
C806 H814 0.930 . S
C807 C806 1.394 . S
C807 C808 1.383 . S
C807 H815 0.929 . S
C808 C807 1.383 . S
C808 C809 1.377 . S
C809 H793 0.930 . S
C809 C808 1.377 . S
C809 C810 1.379 . S
C810 H794 0.931 . S
C810 C804 1.383 . S
C810 C809 1.379 . S
H811 C805 0.959 . S
H812 C805 0.961 . S
H813 C805 0.960 . S
H814 C806 0.930 . S
H815 C807 0.929 . S
H816 C824 0.929 . S
H817 C826 0.930 . S
H818 C828 0.930 . S
H819 C831 0.929 . S
H820 C834 0.930 . S
H821 C836 0.960 . S
H822 C836 0.960 . S
H823 C836 0.960 . S
C824 H816 0.929 . S
C824 C825 1.377 . S
C824 C826 1.384 . S
C825 C824 1.377 . S
C825 C831 1.390 . S
C826 H817 0.930 . S
C826 C824 1.384 . S
C826 C827 1.372 . S
C827 C826 1.372 . S
C827 C828 1.400 . S
C827 C832 1.490 . S
C828 H818 0.930 . S
C828 C827 1.400 . S
C828 C831 1.386 . S
H829 C845 0.930 . S
H830 C846 0.931 . S
C831 H819 0.929 . S
C831 C825 1.390 . S
C831 C828 1.386 . S
C832 C827 1.490 . S
C832 C834 1.395 . S
C832 C835 1.403 . S
H833 C839 0.930 . S
C834 H820 0.930 . S
C834 C832 1.395 . S
C834 C837 1.403 . S
C835 C832 1.403 . S
C835 C836 1.524 . S
C835 C839 1.400 . S
C836 H821 0.960 . S
C836 H822 0.960 . S
C836 H823 0.960 . S
C836 C835 1.524 . S
C837 C834 1.403 . S
C837 C838 1.392 . S
C837 C841 1.495 . S
C838 C837 1.392 . S
C838 C839 1.385 . S
C838 C840 1.478 . S
C839 H833 0.930 . S
C839 C835 1.400 . S
C839 C838 1.385 . S
C840 C838 1.478 . S
C840 C842 1.381 . S
C840 C846 1.383 . S
C841 C837 1.495 . S
C841 H847 0.959 . S
C841 H848 0.961 . S
C841 H849 0.960 . S
C842 C840 1.381 . S
C842 C843 1.394 . S
C842 H850 0.930 . S
C843 C842 1.394 . S
C843 C844 1.383 . S
C843 H851 0.929 . S
C844 C843 1.383 . S
C844 C845 1.377 . S
C845 H829 0.930 . S
C845 C844 1.377 . S
C845 C846 1.379 . S
C846 H830 0.931 . S
C846 C840 1.383 . S
C846 C845 1.379 . S
H847 C841 0.959 . S
H848 C841 0.961 . S
H849 C841 0.960 . S
H850 C842 0.930 . S
H851 C843 0.929 . S
H852 C860 0.929 . S
H853 C862 0.930 . S
H854 C864 0.930 . S
H855 C867 0.929 . S
H856 C870 0.930 . S
H857 C872 0.960 . S
H858 C872 0.960 . S
H859 C872 0.960 . S
C860 H852 0.929 . S
C860 C861 1.377 . S
C860 C862 1.384 . S
C861 C860 1.377 . S
C861 C867 1.390 . S
C862 H853 0.930 . S
C862 C860 1.384 . S
C862 C863 1.372 . S
C863 C862 1.372 . S
C863 C864 1.400 . S
C863 C868 1.490 . S
C864 H854 0.930 . S
C864 C863 1.400 . S
C864 C867 1.386 . S
H865 C881 0.930 . S
H866 C882 0.931 . S
C867 H855 0.929 . S
C867 C861 1.390 . S
C867 C864 1.386 . S
C868 C863 1.490 . S
C868 C870 1.395 . S
C868 C871 1.403 . S
H869 C875 0.930 . S
C870 H856 0.930 . S
C870 C868 1.395 . S
C870 C873 1.403 . S
C871 C868 1.403 . S
C871 C872 1.524 . S
C871 C875 1.400 . S
C872 H857 0.960 . S
C872 H858 0.960 . S
C872 H859 0.960 . S
C872 C871 1.524 . S
C873 C870 1.403 . S
C873 C874 1.392 . S
C873 C877 1.495 . S
C874 C873 1.392 . S
C874 C875 1.385 . S
C874 C876 1.478 . S
C875 H869 0.930 . S
C875 C871 1.400 . S
C875 C874 1.385 . S
C876 C874 1.478 . S
C876 C878 1.381 . S
C876 C882 1.383 . S
C877 C873 1.495 . S
C877 H883 0.959 . S
C877 H884 0.961 . S
C877 H885 0.960 . S
C878 C876 1.381 . S
C878 C879 1.394 . S
C878 H886 0.930 . S
C879 C878 1.394 . S
C879 C880 1.383 . S
C879 H887 0.929 . S
C880 C879 1.383 . S
C880 C881 1.377 . S
C881 H865 0.930 . S
C881 C880 1.377 . S
C881 C882 1.379 . S
C882 H866 0.931 . S
C882 C876 1.383 . S
C882 C881 1.379 . S
H883 C877 0.959 . S
H884 C877 0.961 . S
H885 C877 0.960 . S
H886 C878 0.930 . S
H887 C879 0.929 . S
H888 C896 0.929 . S
H889 C898 0.930 . S
H890 C900 0.930 . S
H891 C903 0.929 . S
H892 C906 0.930 . S
H893 C908 0.960 . S
H894 C908 0.960 . S
H895 C908 0.960 . S
C896 H888 0.929 . S
C896 C897 1.377 . S
C896 C898 1.384 . S
C897 C896 1.377 . S
C897 C903 1.390 . S
C898 H889 0.930 . S
C898 C896 1.384 . S
C898 C899 1.372 . S
C899 C898 1.372 . S
C899 C900 1.400 . S
C899 C904 1.490 1_455 S
C900 H890 0.930 . S
C900 C899 1.400 . S
C900 C903 1.386 . S
H901 C917 0.930 . S
H902 C918 0.931 . S
C903 H891 0.929 . S
C903 C897 1.390 . S
C903 C900 1.386 . S
C904 C899 1.490 1_655 S
C904 C906 1.395 . S
C904 C907 1.403 . S
H905 C911 0.930 . S
C906 H892 0.930 . S
C906 C904 1.395 . S
C906 C909 1.403 . S
C907 C904 1.403 . S
C907 C908 1.524 1_655 S
C907 C911 1.400 . S
C908 H893 0.960 . S
C908 H894 0.960 . S
C908 H895 0.960 . S
C908 C907 1.524 1_455 S
C909 C906 1.403 . S
C909 C910 1.392 . S
C909 C913 1.495 . S
C910 C909 1.392 . S
C910 C911 1.385 . S
C910 C912 1.478 . S
C911 H905 0.930 . S
C911 C907 1.400 . S
C911 C910 1.385 . S
C912 C910 1.478 . S
C912 C914 1.381 . S
C912 C918 1.383 . S
C913 C909 1.495 . S
C913 H919 0.959 . S
C913 H920 0.961 . S
C913 H921 0.960 . S
C914 C912 1.381 . S
C914 C915 1.394 . S
C914 H922 0.930 . S
C915 C914 1.394 . S
C915 C916 1.383 . S
C915 H923 0.929 . S
C916 C915 1.383 . S
C916 C917 1.377 . S
C917 H901 0.930 . S
C917 C916 1.377 . S
C917 C918 1.379 . S
C918 H902 0.931 . S
C918 C912 1.383 . S
C918 C917 1.379 . S
H919 C913 0.959 . S
H920 C913 0.961 . S
H921 C913 0.960 . S
H922 C914 0.930 . S
H923 C915 0.929 . S
H924 C932 0.929 . S
H925 C934 0.930 . S
H926 C936 0.930 . S
H927 C939 0.929 . S
H928 C942 0.930 . S
H929 C944 0.960 . S
H930 C944 0.960 . S
H931 C944 0.960 . S
C932 H924 0.929 . S
C932 C933 1.377 . S
C932 C934 1.384 . S
C933 C932 1.377 . S
C933 C939 1.390 . S
C934 H925 0.930 . S
C934 C932 1.384 . S
C934 C935 1.372 . S
C935 C934 1.372 . S
C935 C936 1.400 . S
C935 C940 1.490 1_655 S
C936 H926 0.930 . S
C936 C935 1.400 . S
C936 C939 1.386 . S
H937 C953 0.930 . S
H938 C954 0.931 . S
C939 H927 0.929 . S
C939 C933 1.390 . S
C939 C936 1.386 . S
C940 C935 1.490 1_455 S
C940 C942 1.395 . S
C940 C943 1.403 . S
H941 C947 0.930 . S
C942 H928 0.930 . S
C942 C940 1.395 . S
C942 C945 1.403 . S
C943 C940 1.403 . S
C943 C944 1.524 1_455 S
C943 C947 1.400 . S
C944 H929 0.960 . S
C944 H930 0.960 . S
C944 H931 0.960 . S
C944 C943 1.524 1_655 S
C945 C942 1.403 . S
C945 C946 1.392 . S
C945 C949 1.495 . S
C946 C945 1.392 . S
C946 C947 1.385 . S
C946 C948 1.478 . S
C947 H941 0.930 . S
C947 C943 1.400 . S
C947 C946 1.385 . S
C948 C946 1.478 . S
C948 C950 1.381 . S
C948 C954 1.383 . S
C949 C945 1.495 . S
C949 H955 0.959 . S
C949 H956 0.961 . S
C949 H957 0.960 . S
C950 C948 1.381 . S
C950 C951 1.394 . S
C950 H958 0.930 . S
C951 C950 1.394 . S
C951 C952 1.383 . S
C951 H959 0.929 . S
C952 C951 1.383 . S
C952 C953 1.377 . S
C953 H937 0.930 . S
C953 C952 1.377 . S
C953 C954 1.379 . S
C954 H938 0.931 . S
C954 C948 1.383 . S
C954 C953 1.379 . S
H955 C949 0.959 . S
H956 C949 0.961 . S
H957 C949 0.960 . S
H958 C950 0.930 . S
H959 C951 0.929 . S
H960 C968 0.929 . S
H961 C970 0.930 . S
H962 C972 0.930 1_655 S
H963 C975 0.929 . S
H964 C978 0.930 . S
H965 C980 0.960 . S
H966 C980 0.960 . S
H967 C980 0.960 . S
C968 H960 0.929 . S
C968 C969 1.377 . S
C968 C970 1.384 . S
C969 C968 1.377 . S
C969 C975 1.390 . S
C970 H961 0.930 . S
C970 C968 1.384 . S
C970 C971 1.372 . S
C971 C970 1.372 . S
C971 C972 1.400 . S
C971 C976 1.490 1_455 S
C972 H962 0.930 1_455 S
C972 C971 1.400 . S
C972 C975 1.386 . S
H973 C989 0.930 . S
H974 C990 0.931 . S
C975 H963 0.929 . S
C975 C969 1.390 . S
C975 C972 1.386 . S
C976 C971 1.490 1_655 S
C976 C978 1.395 . S
C976 C979 1.403 . S
H977 C983 0.930 . S
C978 H964 0.930 . S
C978 C976 1.395 . S
C978 C981 1.403 . S
C979 C976 1.403 . S
C979 C980 1.524 . S
C979 C983 1.400 . S
C980 H965 0.960 . S
C980 H966 0.960 . S
C980 H967 0.960 . S
C980 C979 1.524 . S
C981 C978 1.403 . S
C981 C982 1.392 . S
C981 C985 1.495 . S
C982 C981 1.392 . S
C982 C983 1.385 . S
C982 C984 1.478 . S
C983 H977 0.930 . S
C983 C979 1.400 . S
C983 C982 1.385 . S
C984 C982 1.478 . S
C984 C986 1.381 . S
C984 C990 1.383 . S
C985 C981 1.495 . S
C985 H991 0.959 . S
C985 H992 0.961 . S
C985 H993 0.960 . S
C986 C984 1.381 . S
C986 C987 1.394 . S
C986 H994 0.930 . S
C987 C986 1.394 . S
C987 C988 1.383 . S
C987 H995 0.929 . S
C988 C987 1.383 . S
C988 C989 1.377 . S
C989 H973 0.930 . S
C989 C988 1.377 . S
C989 C990 1.379 . S
C990 H974 0.931 . S
C990 C984 1.383 . S
C990 C989 1.379 . S
H991 C985 0.959 . S
H992 C985 0.961 . S
H993 C985 0.960 . S
H994 C986 0.930 . S
H995 C987 0.929 . S
H996 C1004 0.929 . S
H997 C1006 0.930 . S
H998 C1008 0.930 . S
H999 C1011 0.929 . S
H1000 C1014 0.930 . S
H1001 C1016 0.960 . S
H1002 C1016 0.960 . S
H1003 C1016 0.960 . S
C1004 H996 0.929 . S
C1004 C1005 1.377 . S
C1004 C1006 1.384 . S
C1005 C1004 1.377 . S
C1005 C1011 1.390 . S
C1006 H997 0.930 . S
C1006 C1004 1.384 . S
C1006 C1007 1.372 . S
C1007 C1006 1.372 . S
C1007 C1008 1.400 . S
C1007 C1012 1.490 . S
C1008 H998 0.930 . S
C1008 C1007 1.400 . S
C1008 C1011 1.386 . S
H1009 C1025 0.927 1_554 S
H1010 C1026 0.931 . S
C1011 H999 0.929 . S
C1011 C1005 1.390 . S
C1011 C1008 1.386 . S
C1012 C1007 1.490 . S
C1012 C1014 1.395 . S
C1012 C1015 1.403 . S
H1013 C1019 0.930 . S
C1014 H1000 0.930 . S
C1014 C1012 1.395 . S
C1014 C1017 1.403 . S
C1015 C1012 1.403 . S
C1015 C1016 1.524 . S
C1015 C1019 1.400 . S
C1016 H1001 0.960 . S
C1016 H1002 0.960 . S
C1016 H1003 0.960 . S
C1016 C1015 1.524 . S
C1017 C1014 1.403 . S
C1017 C1018 1.392 . S
C1017 C1021 1.495 1_455 S
C1018 C1017 1.392 . S
C1018 C1019 1.385 . S
C1018 C1020 1.478 1_455 S
C1019 H1013 0.930 . S
C1019 C1015 1.400 . S
C1019 C1018 1.385 . S
C1020 C1018 1.478 1_655 S
C1020 C1022 1.381 . S
C1020 C1026 1.383 . S
C1021 C1017 1.495 1_655 S
C1021 H1027 0.959 . S
C1021 H1028 0.961 . S
C1021 H1029 0.960 . S
C1022 C1020 1.381 . S
C1022 C1023 1.394 . S
C1022 H1030 0.930 . S
C1023 C1022 1.394 . S
C1023 C1024 1.383 . S
C1023 H1031 0.929 . S
C1024 C1023 1.383 . S
C1024 C1025 1.377 . S
C1025 H1009 0.927 1_556 S
C1025 C1024 1.377 . S
C1025 C1026 1.379 . S
C1026 H1010 0.931 . S
C1026 C1020 1.383 . S
C1026 C1025 1.379 . S
H1027 C1021 0.959 . S
H1028 C1021 0.961 . S
H1029 C1021 0.960 . S
H1030 C1022 0.930 . S
H1031 C1023 0.929 . S
H1032 C1040 0.929 . S
H1033 C1042 0.930 . S
H1034 C1044 0.930 . S
H1035 C1047 0.929 . S
H1036 C1050 0.930 . S
H1037 C1052 0.957 1_565 S
H1038 C1052 0.960 . S
H1039 C1052 0.960 . S
C1040 H1032 0.929 . S
C1040 C1041 1.377 . S
C1040 C1042 1.384 . S
C1041 C1040 1.377 . S
C1041 C1047 1.390 . S
C1042 H1033 0.930 . S
C1042 C1040 1.384 . S
C1042 C1043 1.372 . S
C1043 C1042 1.372 . S
C1043 C1044 1.400 . S
C1043 C1048 1.490 1_545 S
C1044 H1034 0.930 . S
C1044 C1043 1.400 . S
C1044 C1047 1.386 . S
H1045 C1061 0.930 . S
H1046 C1062 0.931 . S
C1047 H1035 0.929 . S
C1047 C1041 1.390 . S
C1047 C1044 1.386 . S
C1048 C1043 1.490 1_565 S
C1048 C1050 1.395 . S
C1048 C1051 1.403 . S
H1049 C1055 0.930 . S
C1050 H1036 0.930 . S
C1050 C1048 1.395 . S
C1050 C1053 1.403 . S
C1051 C1048 1.403 . S
C1051 C1052 1.524 1_565 S
C1051 C1055 1.400 . S
C1052 H1037 0.957 1_545 S
C1052 H1038 0.960 . S
C1052 H1039 0.960 . S
C1052 C1051 1.524 1_545 S
C1053 C1050 1.403 . S
C1053 C1054 1.392 . S
C1053 C1057 1.495 . S
C1054 C1053 1.392 . S
C1054 C1055 1.385 . S
C1054 C1056 1.478 . S
C1055 H1049 0.930 . S
C1055 C1051 1.400 . S
C1055 C1054 1.385 . S
C1056 C1054 1.478 . S
C1056 C1058 1.381 . S
C1056 C1062 1.383 . S
C1057 C1053 1.495 . S
C1057 H1063 0.959 . S
C1057 H1064 0.961 . S
C1057 H1065 0.960 . S
C1058 C1056 1.381 . S
C1058 C1059 1.394 . S
C1058 H1066 0.930 . S
C1059 C1058 1.394 . S
C1059 C1060 1.383 . S
C1059 H1067 0.929 . S
C1060 C1059 1.383 . S
C1060 C1061 1.377 . S
C1061 H1045 0.930 . S
C1061 C1060 1.377 . S
C1061 C1062 1.379 . S
C1062 H1046 0.931 . S
C1062 C1056 1.383 . S
C1062 C1061 1.379 . S
H1063 C1057 0.959 . S
H1064 C1057 0.961 . S
H1065 C1057 0.960 . S
H1066 C1058 0.930 . S
H1067 C1059 0.929 . S
H1068 C1076 0.929 . S
H1069 C1078 0.930 . S
H1070 C1080 0.930 . S
H1071 C1083 0.929 . S
H1072 C1086 0.930 . S
H1073 C1088 0.960 . S
H1074 C1088 0.960 . S
H1075 C1088 0.960 . S
C1076 H1068 0.929 . S
C1076 C1077 1.377 . S
C1076 C1078 1.384 . S
C1077 C1076 1.377 . S
C1077 C1083 1.390 . S
C1078 H1069 0.930 . S
C1078 C1076 1.384 . S
C1078 C1079 1.372 . S
C1079 C1078 1.372 . S
C1079 C1080 1.400 . S
C1079 C1084 1.490 . S
C1080 H1070 0.930 . S
C1080 C1079 1.400 . S
C1080 C1083 1.386 . S
H1081 C1097 0.930 . S
H1082 C1098 0.931 . S
C1083 H1071 0.929 . S
C1083 C1077 1.390 . S
C1083 C1080 1.386 . S
C1084 C1079 1.490 . S
C1084 C1086 1.395 . S
C1084 C1087 1.403 . S
H1085 C1091 0.930 . S
C1086 H1072 0.930 . S
C1086 C1084 1.395 . S
C1086 C1089 1.403 . S
C1087 C1084 1.403 . S
C1087 C1088 1.524 . S
C1087 C1091 1.400 . S
C1088 H1073 0.960 . S
C1088 H1074 0.960 . S
C1088 H1075 0.960 . S
C1088 C1087 1.524 . S
C1089 C1086 1.403 . S
C1089 C1090 1.392 . S
C1089 C1093 1.495 1_545 S
C1090 C1089 1.392 . S
C1090 C1091 1.385 . S
C1090 C1092 1.478 1_545 S
C1091 H1085 0.930 . S
C1091 C1087 1.400 . S
C1091 C1090 1.385 . S
C1092 C1090 1.478 1_565 S
C1092 C1094 1.381 . S
C1092 C1098 1.383 . S
C1093 C1089 1.495 1_565 S
C1093 H1099 0.959 . S
C1093 H1100 0.961 . S
C1093 H1101 0.960 . S
C1094 C1092 1.381 . S
C1094 C1095 1.394 . S
C1094 H1102 0.930 . S
C1095 C1094 1.394 . S
C1095 C1096 1.383 . S
C1095 H1103 0.929 . S
C1096 C1095 1.383 . S
C1096 C1097 1.377 . S
C1097 H1081 0.930 . S
C1097 C1096 1.377 . S
C1097 C1098 1.379 . S
C1098 H1082 0.931 . S
C1098 C1092 1.383 . S
C1098 C1097 1.379 . S
H1099 C1093 0.959 . S
H1100 C1093 0.961 . S
H1101 C1093 0.960 . S
H1102 C1094 0.930 . S
H1103 C1095 0.929 . S
H1104 C1112 0.929 . S
H1105 C1114 0.930 . S
H1106 C1116 0.930 . S
H1107 C1119 0.929 . S
H1108 C1122 0.930 . S
H1109 C1124 0.960 . S
H1110 C1124 0.960 . S
H1111 C1124 0.960 . S
C1112 H1104 0.929 . S
C1112 C1113 1.377 . S
C1112 C1114 1.384 . S
C1113 C1112 1.377 . S
C1113 C1119 1.390 . S
C1114 H1105 0.930 . S
C1114 C1112 1.384 . S
C1114 C1115 1.372 . S
C1115 C1114 1.372 . S
C1115 C1116 1.400 . S
C1115 C1120 1.490 . S
C1116 H1106 0.930 . S
C1116 C1115 1.400 . S
C1116 C1119 1.386 . S
H1117 C1133 0.930 . S
H1118 C1134 0.931 . S
C1119 H1107 0.929 . S
C1119 C1113 1.390 . S
C1119 C1116 1.386 . S
C1120 C1115 1.490 . S
C1120 C1122 1.395 . S
C1120 C1123 1.403 . S
H1121 C1127 0.930 . S
C1122 H1108 0.930 . S
C1122 C1120 1.395 . S
C1122 C1125 1.403 . S
C1123 C1120 1.403 . S
C1123 C1124 1.524 . S
C1123 C1127 1.400 . S
C1124 H1109 0.960 . S
C1124 H1110 0.960 . S
C1124 H1111 0.960 . S
C1124 C1123 1.524 . S
C1125 C1122 1.403 . S
C1125 C1126 1.392 . S
C1125 C1129 1.495 . S
C1126 C1125 1.392 . S
C1126 C1127 1.385 . S
C1126 C1128 1.478 . S
C1127 H1121 0.930 . S
C1127 C1123 1.400 . S
C1127 C1126 1.385 . S
C1128 C1126 1.478 . S
C1128 C1130 1.381 . S
C1128 C1134 1.383 . S
C1129 C1125 1.495 . S
C1129 H1135 0.959 . S
C1129 H1136 0.961 . S
C1129 H1137 0.960 . S
C1130 C1128 1.381 . S
C1130 C1131 1.394 . S
C1130 H1138 0.930 . S
C1131 C1130 1.394 . S
C1131 C1132 1.383 . S
C1131 H1139 0.929 . S
C1132 C1131 1.383 . S
C1132 C1133 1.377 . S
C1133 H1117 0.930 . S
C1133 C1132 1.377 . S
C1133 C1134 1.379 . S
C1134 H1118 0.931 . S
C1134 C1128 1.383 . S
C1134 C1133 1.379 . S
H1135 C1129 0.959 . S
H1136 C1129 0.961 . S
H1137 C1129 0.960 . S
H1138 C1130 0.930 . S
H1139 C1131 0.929 . S
H1140 C1148 0.929 . S
H1141 C1150 0.930 . S
H1142 C1152 0.930 . S
H1143 C1155 0.929 . S
H1144 C1158 0.930 . S
H1145 C1160 0.960 . S
H1146 C1160 0.960 . S
H1147 C1160 0.960 . S
C1148 H1140 0.929 . S
C1148 C1149 1.377 . S
C1148 C1150 1.384 . S
C1149 C1148 1.377 . S
C1149 C1155 1.390 . S
C1150 H1141 0.930 . S
C1150 C1148 1.384 . S
C1150 C1151 1.372 . S
C1151 C1150 1.372 . S
C1151 C1152 1.400 . S
C1151 C1156 1.490 . S
C1152 H1142 0.930 . S
C1152 C1151 1.400 . S
C1152 C1155 1.386 . S
H1153 C1169 0.930 . S
H1154 C1170 0.931 . S
C1155 H1143 0.929 . S
C1155 C1149 1.390 . S
C1155 C1152 1.386 . S
C1156 C1151 1.490 . S
C1156 C1158 1.395 . S
C1156 C1159 1.403 . S
H1157 C1163 0.930 . S
C1158 H1144 0.930 . S
C1158 C1156 1.395 . S
C1158 C1161 1.403 . S
C1159 C1156 1.403 . S
C1159 C1160 1.524 . S
C1159 C1163 1.400 . S
C1160 H1145 0.960 . S
C1160 H1146 0.960 . S
C1160 H1147 0.960 . S
C1160 C1159 1.524 . S
C1161 C1158 1.403 . S
C1161 C1162 1.392 . S
C1161 C1165 1.495 . S
C1162 C1161 1.392 . S
C1162 C1163 1.385 . S
C1162 C1164 1.478 1_545 S
C1163 H1157 0.930 . S
C1163 C1159 1.400 . S
C1163 C1162 1.385 . S
C1164 C1162 1.478 1_565 S
C1164 C1166 1.381 . S
C1164 C1170 1.383 . S
C1165 C1161 1.495 . S
C1165 H1171 0.959 . S
C1165 H1172 0.961 . S
C1165 H1173 0.960 . S
C1166 C1164 1.381 . S
C1166 C1167 1.394 . S
C1166 H1174 0.930 1_565 S
C1167 C1166 1.394 . S
C1167 C1168 1.383 . S
C1167 H1175 0.929 . S
C1168 C1167 1.383 . S
C1168 C1169 1.377 . S
C1169 H1153 0.930 . S
C1169 C1168 1.377 . S
C1169 C1170 1.379 . S
C1170 H1154 0.931 . S
C1170 C1164 1.383 . S
C1170 C1169 1.379 . S
H1171 C1165 0.959 . S
H1172 C1165 0.961 . S
H1173 C1165 0.960 . S
H1174 C1166 0.930 1_545 S
H1175 C1167 0.929 . S
H1176 C1184 0.929 . S
H1177 C1186 0.930 . S
H1178 C1188 0.930 . S
H1179 C1191 0.929 . S
H1180 C1194 0.930 . S
H1181 C1196 0.960 . S
H1182 C1196 0.960 1_455 S
H1183 C1196 0.960 . S
C1184 H1176 0.929 . S
C1184 C1185 1.377 1_455 S
C1184 C1186 1.384 . S
C1185 C1184 1.377 1_655 S
C1185 C1191 1.390 . S
C1186 H1177 0.930 . S
C1186 C1184 1.384 . S
C1186 C1187 1.355 1_455 S
C1187 C1186 1.355 1_655 S
C1187 C1188 1.418 . S
C1187 C1192 1.488 1_655 S
C1188 H1178 0.930 . S
C1188 C1187 1.418 . S
C1188 C1191 1.386 . S
H1189 C1205 0.930 . S
H1190 C1206 0.931 . S
C1191 H1179 0.929 . S
C1191 C1185 1.390 . S
C1191 C1188 1.386 . S
C1192 C1187 1.488 1_455 S
C1192 C1194 1.401 . S
C1192 C1195 1.400 1_455 S
H1193 C1199 0.927 1_655 S
C1194 H1180 0.930 . S
C1194 C1192 1.401 . S
C1194 C1197 1.403 . S
C1195 C1192 1.400 1_655 S
C1195 C1196 1.527 . S
C1195 C1199 1.399 1_655 S
C1196 H1181 0.960 . S
C1196 H1182 0.960 1_655 S
C1196 H1183 0.960 . S
C1196 C1195 1.527 . S
C1197 C1194 1.403 . S
C1197 C1198 1.392 . S
C1197 C1201 1.495 . S
C1198 C1197 1.392 . S
C1198 C1199 1.386 . S
C1198 C1200 1.478 . S
C1199 H1193 0.927 1_455 S
C1199 C1195 1.399 1_455 S
C1199 C1198 1.386 . S
C1200 C1198 1.478 . S
C1200 C1202 1.381 . S
C1200 C1206 1.383 1_455 S
C1201 C1197 1.495 . S
C1201 H1207 0.959 . S
C1201 H1208 0.961 1_455 S
C1201 H1209 0.960 . S
C1202 C1200 1.381 . S
C1202 C1203 1.394 . S
C1202 H1210 0.930 . S
C1203 C1202 1.394 . S
C1203 C1204 1.383 . S
C1203 H1211 0.929 . S
C1204 C1203 1.383 . S
C1204 C1205 1.377 1_455 S
C1205 H1189 0.930 . S
C1205 C1204 1.377 1_655 S
C1205 C1206 1.379 . S
C1206 H1190 0.931 . S
C1206 C1200 1.383 1_655 S
C1206 C1205 1.379 . S
H1207 C1201 0.959 . S
H1208 C1201 0.961 1_655 S
H1209 C1201 0.960 . S
H1210 C1202 0.930 . S
H1211 C1203 0.929 . S
H1212 C1220 0.929 . S
H1213 C1222 0.930 . S
H1214 C1224 0.930 . S
H1215 C1227 0.929 . S
H1216 C1230 0.930 . S
H1217 C1232 0.960 . S
H1218 C1232 0.960 . S
H1219 C1232 0.960 . S
C1220 H1212 0.929 . S
C1220 C1221 1.377 1_655 S
C1220 C1222 1.384 . S
C1221 C1220 1.377 1_455 S
C1221 C1227 1.390 . S
C1222 H1213 0.930 . S
C1222 C1220 1.384 . S
C1222 C1223 1.372 1_655 S
C1223 C1222 1.372 1_455 S
C1223 C1224 1.400 . S
C1223 C1228 1.490 . S
C1224 H1214 0.930 . S
C1224 C1223 1.400 . S
C1224 C1227 1.386 . S
H1225 C1241 0.930 . S
H1226 C1242 0.931 . S
C1227 H1215 0.929 . S
C1227 C1221 1.390 . S
C1227 C1224 1.386 . S
C1228 C1223 1.490 . S
C1228 C1230 1.393 1_455 S
C1228 C1231 1.404 . S
H1229 C1235 0.930 . S
C1230 H1216 0.930 . S
C1230 C1228 1.393 1_655 S
C1230 C1233 1.403 . S
C1231 C1228 1.404 . S
C1231 C1232 1.524 . S
C1231 C1235 1.400 . S
C1232 H1217 0.960 . S
C1232 H1218 0.960 . S
C1232 H1219 0.960 . S
C1232 C1231 1.524 . S
C1233 C1230 1.403 . S
C1233 C1234 1.392 . S
C1233 C1237 1.495 . S
C1234 C1233 1.392 . S
C1234 C1235 1.385 1_655 S
C1234 C1236 1.478 . S
C1235 H1229 0.930 . S
C1235 C1231 1.400 . S
C1235 C1234 1.385 1_455 S
C1236 C1234 1.478 . S
C1236 C1238 1.381 . S
C1236 C1242 1.383 1_655 S
C1237 C1233 1.495 . S
C1237 H1243 0.959 . S
C1237 H1244 0.961 . S
C1237 H1245 0.960 . S
C1238 C1236 1.381 . S
C1238 C1239 1.394 . S
C1238 H1246 0.930 . S
C1239 C1238 1.394 . S
C1239 C1240 1.383 . S
C1239 H1247 0.929 . S
C1240 C1239 1.383 . S
C1240 C1241 1.377 1_655 S
C1241 H1225 0.930 . S
C1241 C1240 1.377 1_455 S
C1241 C1242 1.379 . S
C1242 H1226 0.931 . S
C1242 C1236 1.383 1_455 S
C1242 C1241 1.379 . S
H1243 C1237 0.959 . S
H1244 C1237 0.961 . S
H1245 C1237 0.960 . S
H1246 C1238 0.930 . S
H1247 C1239 0.929 . S
H1248 C1256 0.929 . S
H1249 C1258 0.930 . S
H1250 C1260 0.930 . S
H1251 C1263 0.929 . S
H1252 C1266 0.933 . S
H1253 C1268 0.960 . S
H1254 C1268 0.960 . S
H1255 C1268 0.960 1_545 S
C1256 H1248 0.929 . S
C1256 C1257 1.377 . S
C1256 C1258 1.384 . S
C1257 C1256 1.377 . S
C1257 C1263 1.390 1_565 S
C1258 H1249 0.930 . S
C1258 C1256 1.384 . S
C1258 C1259 1.372 . S
C1259 C1258 1.372 . S
C1259 C1260 1.400 1_565 S
C1259 C1264 1.490 . S
C1260 H1250 0.930 . S
C1260 C1259 1.400 1_545 S
C1260 C1263 1.386 . S
H1261 C1277 0.930 . S
H1262 C1278 0.931 . S
C1263 H1251 0.929 . S
C1263 C1257 1.390 1_545 S
C1263 C1260 1.386 . S
C1264 C1259 1.490 . S
C1264 C1266 1.397 . S
C1264 C1267 1.403 . S
H1265 C1271 0.930 . S
C1266 H1252 0.933 . S
C1266 C1264 1.397 . S
C1266 C1269 1.401 1_565 S
C1267 C1264 1.403 . S
C1267 C1268 1.524 . S
C1267 C1271 1.399 1_565 S
C1268 H1253 0.960 . S
C1268 H1254 0.960 . S
C1268 H1255 0.960 1_565 S
C1268 C1267 1.524 . S
C1269 C1266 1.401 1_545 S
C1269 C1270 1.393 . S
C1269 C1273 1.497 . S
C1270 C1269 1.393 . S
C1270 C1271 1.386 . S
C1270 C1272 1.478 . S
C1271 H1265 0.930 . S
C1271 C1267 1.399 1_545 S
C1271 C1270 1.386 . S
C1272 C1270 1.478 . S
C1272 C1274 1.381 1_545 S
C1272 C1278 1.383 . S
C1273 C1269 1.497 . S
C1273 H1279 0.959 . S
C1273 H1280 0.961 . S
C1273 H1281 0.960 1_545 S
C1274 C1272 1.381 1_565 S
C1274 C1275 1.394 . S
C1274 H1282 0.930 . S
C1275 C1274 1.394 . S
C1275 C1276 1.383 1_565 S
C1275 H1283 0.929 . S
C1276 C1275 1.383 1_545 S
C1276 C1277 1.377 . S
C1277 H1261 0.930 . S
C1277 C1276 1.377 . S
C1277 C1278 1.379 . S
C1278 H1262 0.931 . S
C1278 C1272 1.383 . S
C1278 C1277 1.379 . S
H1279 C1273 0.959 . S
H1280 C1273 0.961 . S
H1281 C1273 0.960 1_565 S
H1282 C1274 0.930 . S
H1283 C1275 0.929 . S
H1284 C1292 0.929 . S
H1285 C1294 0.930 . S
H1286 C1296 0.930 . S
H1287 C1299 0.929 . S
H1288 C1302 0.930 . S
H1289 C1304 0.960 . S
H1290 C1304 0.960 . S
H1291 C1304 0.960 . S
C1292 H1284 0.929 . S
C1292 C1293 1.377 . S
C1292 C1294 1.384 . S
C1293 C1292 1.377 . S
C1293 C1299 1.390 . S
C1294 H1285 0.930 . S
C1294 C1292 1.384 . S
C1294 C1295 1.372 . S
C1295 C1294 1.372 . S
C1295 C1296 1.400 . S
C1295 C1300 1.490 . S
C1296 H1286 0.930 . S
C1296 C1295 1.400 . S
C1296 C1299 1.386 . S
H1297 C1313 0.930 . S
H1298 C1314 0.931 . S
C1299 H1287 0.929 . S
C1299 C1293 1.390 . S
C1299 C1296 1.386 . S
C1300 C1295 1.490 . S
C1300 C1302 1.395 . S
C1300 C1303 1.403 . S
H1301 C1307 0.930 . S
C1302 H1288 0.930 . S
C1302 C1300 1.395 . S
C1302 C1305 1.403 . S
C1303 C1300 1.403 . S
C1303 C1304 1.524 . S
C1303 C1307 1.400 . S
C1304 H1289 0.960 . S
C1304 H1290 0.960 . S
C1304 H1291 0.960 . S
C1304 C1303 1.524 . S
C1305 C1302 1.403 . S
C1305 C1306 1.392 . S
C1305 C1309 1.495 . S
C1306 C1305 1.392 . S
C1306 C1307 1.385 . S
C1306 C1308 1.478 . S
C1307 H1301 0.930 . S
C1307 C1303 1.400 . S
C1307 C1306 1.385 . S
C1308 C1306 1.478 . S
C1308 C1310 1.381 . S
C1308 C1314 1.383 . S
C1309 C1305 1.495 . S
C1309 H1315 0.959 . S
C1309 H1316 0.961 . S
C1309 H1317 0.960 . S
C1310 C1308 1.381 . S
C1310 C1311 1.394 . S
C1310 H1318 0.930 . S
C1311 C1310 1.394 . S
C1311 C1312 1.383 . S
C1311 H1319 0.929 . S
C1312 C1311 1.383 . S
C1312 C1313 1.377 . S
C1313 H1297 0.930 . S
C1313 C1312 1.377 . S
C1313 C1314 1.379 . S
C1314 H1298 0.931 . S
C1314 C1308 1.383 . S
C1314 C1313 1.379 . S
H1315 C1309 0.959 . S
H1316 C1309 0.961 . S
H1317 C1309 0.960 . S
H1318 C1310 0.930 . S
H1319 C1311 0.929 . S
H1320 C1328 0.929 . S
H1321 C1330 0.930 . S
H1322 C1332 0.931 . S
H1323 C1335 0.924 1_556 S
H1324 C1338 0.930 . S
H1325 C1340 0.960 . S
H1326 C1340 0.960 . S
H1327 C1340 0.960 . S
C1328 H1320 0.929 . S
C1328 C1329 1.377 . S
C1328 C1330 1.384 . S
C1329 C1328 1.377 . S
C1329 C1335 1.397 . S
C1330 H1321 0.930 . S
C1330 C1328 1.384 . S
C1330 C1331 1.372 . S
C1331 C1330 1.372 . S
C1331 C1332 1.399 1_554 S
C1331 C1336 1.490 . S
C1332 H1322 0.931 . S
C1332 C1331 1.399 1_556 S
C1332 C1335 1.385 1_556 S
H1333 C1349 0.930 . S
H1334 C1350 0.931 . S
C1335 H1323 0.924 1_554 S
C1335 C1329 1.397 . S
C1335 C1332 1.385 1_554 S
C1336 C1331 1.490 . S
C1336 C1338 1.395 1_554 S
C1336 C1339 1.403 . S
H1337 C1343 0.930 . S
C1338 H1324 0.930 . S
C1338 C1336 1.395 1_556 S
C1338 C1341 1.403 . S
C1339 C1336 1.403 . S
C1339 C1340 1.524 . S
C1339 C1343 1.400 . S
C1340 H1325 0.960 . S
C1340 H1326 0.960 . S
C1340 H1327 0.960 . S
C1340 C1339 1.524 . S
C1341 C1338 1.403 . S
C1341 C1342 1.392 . S
C1341 C1345 1.495 . S
C1342 C1341 1.392 . S
C1342 C1343 1.385 1_556 S
C1342 C1344 1.478 . S
C1343 H1337 0.930 . S
C1343 C1339 1.400 . S
C1343 C1342 1.385 1_554 S
C1344 C1342 1.478 . S
C1344 C1346 1.370 1_556 S
C1344 C1350 1.383 . S
C1345 C1341 1.495 . S
C1345 H1351 0.959 . S
C1345 H1352 0.961 . S
C1345 H1353 0.960 . S
C1346 C1344 1.370 1_554 S
C1346 C1347 1.394 . S
C1346 H1354 0.943 . S
C1347 C1346 1.394 . S
C1347 C1348 1.370 1_554 S
C1347 H1355 0.944 . S
C1348 C1347 1.370 1_556 S
C1348 C1349 1.377 . S
C1349 H1333 0.930 . S
C1349 C1348 1.377 . S
C1349 C1350 1.379 . S
C1350 H1334 0.931 . S
C1350 C1344 1.383 . S
C1350 C1349 1.379 . S
H1351 C1345 0.959 . S
H1352 C1345 0.961 . S
H1353 C1345 0.960 . S
H1354 C1346 0.943 . S
H1355 C1347 0.944 . S
H1356 C1364 0.929 . S
H1357 C1366 0.930 . S
H1358 C1368 0.930 . S
H1359 C1371 0.929 . S
H1360 C1374 0.930 . S
H1361 C1376 0.960 . S
H1362 C1376 0.960 . S
H1363 C1376 0.960 . S
C1364 H1356 0.929 . S
C1364 C1365 1.377 . S
C1364 C1366 1.384 . S
C1365 C1364 1.377 . S
C1365 C1371 1.390 . S
C1366 H1357 0.930 . S
C1366 C1364 1.384 . S
C1366 C1367 1.372 . S
C1367 C1366 1.372 . S
C1367 C1368 1.400 . S
C1367 C1372 1.490 . S
C1368 H1358 0.930 . S
C1368 C1367 1.400 . S
C1368 C1371 1.386 . S
H1369 C1385 0.930 . S
H1370 C1386 0.931 . S
C1371 H1359 0.929 . S
C1371 C1365 1.390 . S
C1371 C1368 1.386 . S
C1372 C1367 1.490 . S
C1372 C1374 1.395 . S
C1372 C1375 1.403 . S
H1373 C1379 0.930 . S
C1374 H1360 0.930 . S
C1374 C1372 1.395 . S
C1374 C1377 1.403 . S
C1375 C1372 1.403 . S
C1375 C1376 1.524 . S
C1375 C1379 1.400 . S
C1376 H1361 0.960 . S
C1376 H1362 0.960 . S
C1376 H1363 0.960 . S
C1376 C1375 1.524 . S
C1377 C1374 1.403 . S
C1377 C1378 1.392 . S
C1377 C1381 1.495 . S
C1378 C1377 1.392 . S
C1378 C1379 1.385 . S
C1378 C1380 1.478 . S
C1379 H1373 0.930 . S
C1379 C1375 1.400 . S
C1379 C1378 1.385 . S
C1380 C1378 1.478 . S
C1380 C1382 1.381 . S
C1380 C1386 1.383 . S
C1381 C1377 1.495 . S
C1381 H1387 0.959 . S
C1381 H1388 0.961 . S
C1381 H1389 0.960 . S
C1382 C1380 1.381 . S
C1382 C1383 1.394 . S
C1382 H1390 0.930 . S
C1383 C1382 1.394 . S
C1383 C1384 1.383 . S
C1383 H1391 0.929 . S
C1384 C1383 1.383 . S
C1384 C1385 1.377 . S
C1385 H1369 0.930 . S
C1385 C1384 1.377 . S
C1385 C1386 1.379 . S
C1386 H1370 0.931 . S
C1386 C1380 1.383 . S
C1386 C1385 1.379 . S
H1387 C1381 0.959 . S
H1388 C1381 0.961 . S
H1389 C1381 0.960 . S
H1390 C1382 0.930 . S
H1391 C1383 0.929 . S
H1392 C1400 0.929 . S
H1393 C1402 0.930 . S
H1394 C1404 0.930 . S
H1395 C1407 0.929 . S
H1396 C1410 0.930 . S
H1397 C1412 0.960 . S
H1398 C1412 0.960 . S
H1399 C1412 0.960 . S
C1400 H1392 0.929 . S
C1400 C1401 1.377 . S
C1400 C1402 1.384 . S
C1401 C1400 1.377 . S
C1401 C1407 1.390 . S
C1402 H1393 0.930 . S
C1402 C1400 1.384 . S
C1402 C1403 1.372 . S
C1403 C1402 1.372 . S
C1403 C1404 1.400 . S
C1403 C1408 1.490 . S
C1404 H1394 0.930 . S
C1404 C1403 1.400 . S
C1404 C1407 1.386 . S
H1405 C1421 0.930 . S
H1406 C1422 0.931 . S
C1407 H1395 0.929 . S
C1407 C1401 1.390 . S
C1407 C1404 1.386 . S
C1408 C1403 1.490 . S
C1408 C1410 1.395 . S
C1408 C1411 1.403 . S
H1409 C1415 0.930 . S
C1410 H1396 0.930 . S
C1410 C1408 1.395 . S
C1410 C1413 1.403 . S
C1411 C1408 1.403 . S
C1411 C1412 1.524 . S
C1411 C1415 1.400 . S
C1412 H1397 0.960 . S
C1412 H1398 0.960 . S
C1412 H1399 0.960 . S
C1412 C1411 1.524 . S
C1413 C1410 1.403 . S
C1413 C1414 1.392 . S
C1413 C1417 1.495 . S
C1414 C1413 1.392 . S
C1414 C1415 1.385 . S
C1414 C1416 1.478 . S
C1415 H1409 0.930 . S
C1415 C1411 1.400 . S
C1415 C1414 1.385 . S
C1416 C1414 1.478 . S
C1416 C1418 1.381 . S
C1416 C1422 1.383 . S
C1417 C1413 1.495 . S
C1417 H1423 0.959 . S
C1417 H1424 0.961 . S
C1417 H1425 0.960 . S
C1418 C1416 1.381 . S
C1418 C1419 1.394 . S
C1418 H1426 0.930 . S
C1419 C1418 1.394 . S
C1419 C1420 1.383 . S
C1419 H1427 0.929 . S
C1420 C1419 1.383 . S
C1420 C1421 1.377 . S
C1421 H1405 0.930 . S
C1421 C1420 1.377 . S
C1421 C1422 1.379 . S
C1422 H1406 0.931 . S
C1422 C1416 1.383 . S
C1422 C1421 1.379 . S
H1423 C1417 0.959 . S
H1424 C1417 0.961 . S
H1425 C1417 0.960 . S
H1426 C1418 0.930 . S
H1427 C1419 0.929 . S
H1428 C1436 0.929 . S
H1429 C1438 0.930 . S
H1430 C1440 0.930 . S
H1431 C1443 0.929 . S
H1432 C1446 0.930 . S
H1433 C1448 0.960 . S
H1434 C1448 0.960 . S
H1435 C1448 0.960 . S
C1436 H1428 0.929 . S
C1436 C1437 1.377 . S
C1436 C1438 1.384 . S
C1437 C1436 1.377 . S
C1437 C1443 1.390 . S
C1438 H1429 0.930 . S
C1438 C1436 1.384 . S
C1438 C1439 1.372 . S
C1439 C1438 1.372 . S
C1439 C1440 1.400 . S
C1439 C1444 1.490 . S
C1440 H1430 0.930 . S
C1440 C1439 1.400 . S
C1440 C1443 1.386 . S
H1441 C1457 0.930 . S
H1442 C1458 0.931 . S
C1443 H1431 0.929 . S
C1443 C1437 1.390 . S
C1443 C1440 1.386 . S
C1444 C1439 1.490 . S
C1444 C1446 1.395 . S
C1444 C1447 1.403 . S
H1445 C1451 0.930 . S
C1446 H1432 0.930 . S
C1446 C1444 1.395 . S
C1446 C1449 1.403 . S
C1447 C1444 1.403 . S
C1447 C1448 1.524 . S
C1447 C1451 1.400 . S
C1448 H1433 0.960 . S
C1448 H1434 0.960 . S
C1448 H1435 0.960 . S
C1448 C1447 1.524 . S
C1449 C1446 1.403 . S
C1449 C1450 1.392 . S
C1449 C1453 1.495 . S
C1450 C1449 1.392 . S
C1450 C1451 1.385 . S
C1450 C1452 1.478 . S
C1451 H1445 0.930 . S
C1451 C1447 1.400 . S
C1451 C1450 1.385 . S
C1452 C1450 1.478 . S
C1452 C1454 1.381 . S
C1452 C1458 1.383 . S
C1453 C1449 1.495 . S
C1453 H1459 0.959 . S
C1453 H1460 0.961 . S
C1453 H1461 0.960 . S
C1454 C1452 1.381 . S
C1454 C1455 1.394 . S
C1454 H1462 0.930 . S
C1455 C1454 1.394 . S
C1455 C1456 1.383 . S
C1455 H1463 0.929 . S
C1456 C1455 1.383 . S
C1456 C1457 1.377 . S
C1457 H1441 0.930 . S
C1457 C1456 1.377 . S
C1457 C1458 1.379 . S
C1458 H1442 0.931 . S
C1458 C1452 1.383 . S
C1458 C1457 1.379 . S
H1459 C1453 0.959 . S
H1460 C1453 0.961 . S
H1461 C1453 0.960 . S
H1462 C1454 0.930 . S
H1463 C1455 0.929 . S
H1464 C1472 0.929 . S
H1465 C1474 0.930 . S
H1466 C1476 0.930 . S
H1467 C1479 0.929 . S
H1468 C1482 0.930 . S
H1469 C1484 0.960 . S
H1470 C1484 0.960 . S
H1471 C1484 0.960 . S
C1472 H1464 0.929 . S
C1472 C1473 1.377 . S
C1472 C1474 1.384 . S
C1473 C1472 1.377 . S
C1473 C1479 1.390 . S
C1474 H1465 0.930 . S
C1474 C1472 1.384 . S
C1474 C1475 1.372 . S
C1475 C1474 1.372 . S
C1475 C1476 1.400 . S
C1475 C1480 1.490 . S
C1476 H1466 0.930 . S
C1476 C1475 1.400 . S
C1476 C1479 1.386 . S
H1477 C1493 0.930 . S
H1478 C1494 0.931 . S
C1479 H1467 0.929 . S
C1479 C1473 1.390 . S
C1479 C1476 1.386 . S
C1480 C1475 1.490 . S
C1480 C1482 1.395 . S
C1480 C1483 1.403 . S
H1481 C1487 0.930 . S
C1482 H1468 0.930 . S
C1482 C1480 1.395 . S
C1482 C1485 1.403 . S
C1483 C1480 1.403 . S
C1483 C1484 1.524 . S
C1483 C1487 1.400 . S
C1484 H1469 0.960 . S
C1484 H1470 0.960 . S
C1484 H1471 0.960 . S
C1484 C1483 1.524 . S
C1485 C1482 1.403 . S
C1485 C1486 1.392 . S
C1485 C1489 1.495 . S
C1486 C1485 1.392 . S
C1486 C1487 1.385 . S
C1486 C1488 1.478 . S
C1487 H1481 0.930 . S
C1487 C1483 1.400 . S
C1487 C1486 1.385 . S
C1488 C1486 1.478 . S
C1488 C1490 1.381 . S
C1488 C1494 1.383 . S
C1489 C1485 1.495 . S
C1489 H1495 0.959 . S
C1489 H1496 0.961 . S
C1489 H1497 0.960 . S
C1490 C1488 1.381 . S
C1490 C1491 1.394 . S
C1490 H1498 0.930 . S
C1491 C1490 1.394 . S
C1491 C1492 1.383 . S
C1491 H1499 0.929 . S
C1492 C1491 1.383 . S
C1492 C1493 1.377 . S
C1493 H1477 0.930 . S
C1493 C1492 1.377 . S
C1493 C1494 1.379 . S
C1494 H1478 0.931 . S
C1494 C1488 1.383 . S
C1494 C1493 1.379 . S
H1495 C1489 0.959 . S
H1496 C1489 0.961 . S
H1497 C1489 0.960 . S
H1498 C1490 0.930 . S
H1499 C1491 0.929 . S
H1500 C1508 0.929 . S
H1501 C1510 0.930 . S
H1502 C1512 0.930 . S
H1503 C1515 0.929 . S
H1504 C1518 0.930 . S
H1505 C1520 0.960 . S
H1506 C1520 0.960 . S
H1507 C1520 0.960 . S
C1508 H1500 0.929 . S
C1508 C1509 1.377 . S
C1508 C1510 1.384 . S
C1509 C1508 1.377 . S
C1509 C1515 1.390 . S
C1510 H1501 0.930 . S
C1510 C1508 1.384 . S
C1510 C1511 1.372 . S
C1511 C1510 1.372 . S
C1511 C1512 1.400 . S
C1511 C1516 1.490 . S
C1512 H1502 0.930 . S
C1512 C1511 1.400 . S
C1512 C1515 1.386 . S
H1513 C1529 0.930 . S
H1514 C1530 0.931 . S
C1515 H1503 0.929 . S
C1515 C1509 1.390 . S
C1515 C1512 1.386 . S
C1516 C1511 1.490 . S
C1516 C1518 1.395 . S
C1516 C1519 1.403 . S
H1517 C1523 0.930 . S
C1518 H1504 0.930 . S
C1518 C1516 1.395 . S
C1518 C1521 1.403 . S
C1519 C1516 1.403 . S
C1519 C1520 1.524 . S
C1519 C1523 1.400 . S
C1520 H1505 0.960 . S
C1520 H1506 0.960 . S
C1520 H1507 0.960 . S
C1520 C1519 1.524 . S
C1521 C1518 1.403 . S
C1521 C1522 1.392 . S
C1521 C1525 1.495 . S
C1522 C1521 1.392 . S
C1522 C1523 1.385 . S
C1522 C1524 1.478 . S
C1523 H1517 0.930 . S
C1523 C1519 1.400 . S
C1523 C1522 1.385 . S
C1524 C1522 1.478 . S
C1524 C1526 1.381 . S
C1524 C1530 1.383 . S
C1525 C1521 1.495 . S
C1525 H1531 0.959 . S
C1525 H1532 0.961 . S
C1525 H1533 0.960 . S
C1526 C1524 1.381 . S
C1526 C1527 1.394 . S
C1526 H1534 0.930 . S
C1527 C1526 1.394 . S
C1527 C1528 1.383 . S
C1527 H1535 0.929 . S
C1528 C1527 1.383 . S
C1528 C1529 1.377 . S
C1529 H1513 0.930 . S
C1529 C1528 1.377 . S
C1529 C1530 1.379 . S
C1530 H1514 0.931 . S
C1530 C1524 1.383 . S
C1530 C1529 1.379 . S
H1531 C1525 0.959 . S
H1532 C1525 0.961 . S
H1533 C1525 0.960 . S
H1534 C1526 0.930 . S
H1535 C1527 0.929 . S
H1536 C1544 0.929 . S
H1537 C1546 0.930 . S
H1538 C1548 0.930 . S
H1539 C1551 0.929 . S
H1540 C1554 0.930 . S
H1541 C1556 0.960 . S
H1542 C1556 0.960 . S
H1543 C1556 0.960 1_545 S
C1544 H1536 0.929 . S
C1544 C1545 1.377 1_565 S
C1544 C1546 1.384 . S
C1545 C1544 1.377 1_545 S
C1545 C1551 1.390 . S
C1546 H1537 0.930 . S
C1546 C1544 1.384 . S
C1546 C1547 1.372 1_565 S
C1547 C1546 1.372 1_545 S
C1547 C1548 1.400 . S
C1547 C1552 1.492 . S
C1548 H1538 0.930 . S
C1548 C1547 1.400 . S
C1548 C1551 1.386 . S
H1549 C1565 0.930 . S
H1550 C1566 0.931 . S
C1551 H1539 0.929 . S
C1551 C1545 1.390 . S
C1551 C1548 1.386 . S
C1552 C1547 1.492 . S
C1552 C1554 1.396 . S
C1552 C1555 1.400 1_545 S
H1553 C1559 0.930 . S
C1554 H1540 0.930 . S
C1554 C1552 1.396 . S
C1554 C1557 1.403 . S
C1555 C1552 1.400 1_565 S
C1555 C1556 1.524 . S
C1555 C1559 1.400 . S
C1556 H1541 0.960 . S
C1556 H1542 0.960 . S
C1556 H1543 0.960 1_565 S
C1556 C1555 1.524 . S
C1557 C1554 1.403 . S
C1557 C1558 1.392 1_545 S
C1557 C1561 1.495 . S
C1558 C1557 1.392 1_565 S
C1558 C1559 1.385 . S
C1558 C1560 1.478 . S
C1559 H1553 0.930 . S
C1559 C1555 1.400 . S
C1559 C1558 1.385 . S
C1560 C1558 1.478 . S
C1560 C1562 1.381 . S
C1560 C1566 1.383 1_565 S
C1561 C1557 1.495 . S
C1561 H1567 0.959 . S
C1561 H1568 0.961 . S
C1561 H1569 0.960 1_545 S
C1562 C1560 1.381 . S
C1562 C1563 1.394 . S
C1562 H1570 0.930 . S
C1563 C1562 1.394 . S
C1563 C1564 1.383 . S
C1563 H1571 0.929 . S
C1564 C1563 1.383 . S
C1564 C1565 1.377 1_565 S
C1565 H1549 0.930 . S
C1565 C1564 1.377 1_545 S
C1565 C1566 1.379 . S
C1566 H1550 0.931 . S
C1566 C1560 1.383 1_545 S
C1566 C1565 1.379 . S
H1567 C1561 0.959 . S
H1568 C1561 0.961 . S
H1569 C1561 0.960 1_565 S
H1570 C1562 0.930 . S
H1571 C1563 0.929 . S
H1572 C1580 0.929 . S
H1573 C1582 0.930 . S
H1574 C1584 0.930 . S
H1575 C1587 0.929 . S
H1576 C1590 0.930 . S
H1577 C1592 0.960 . S
H1578 C1592 0.960 . S
H1579 C1592 0.960 . S
C1580 H1572 0.929 . S
C1580 C1581 1.377 1_554 S
C1580 C1582 1.384 . S
C1581 C1580 1.377 1_556 S
C1581 C1587 1.390 . S
C1582 H1573 0.930 . S
C1582 C1580 1.384 . S
C1582 C1583 1.340 1_554 S
C1583 C1582 1.340 1_556 S
C1583 C1584 1.435 . S
C1583 C1588 1.487 1_556 S
C1584 H1574 0.930 . S
C1584 C1583 1.435 . S
C1584 C1587 1.386 . S
H1585 C1601 0.930 . S
H1586 C1602 0.931 . S
C1587 H1575 0.929 . S
C1587 C1581 1.390 . S
C1587 C1584 1.386 . S
C1588 C1583 1.487 1_554 S
C1588 C1590 1.395 . S
C1588 C1591 1.403 1_554 S
H1589 C1595 0.930 . S
C1590 H1576 0.930 . S
C1590 C1588 1.395 . S
C1590 C1593 1.403 . S
C1591 C1588 1.403 1_556 S
C1591 C1592 1.524 . S
C1591 C1595 1.400 . S
C1592 H1577 0.960 . S
C1592 H1578 0.960 . S
C1592 H1579 0.960 . S
C1592 C1591 1.524 . S
C1593 C1590 1.403 . S
C1593 C1594 1.392 . S
C1593 C1597 1.495 . S
C1594 C1593 1.392 . S
C1594 C1595 1.385 1_554 S
C1594 C1596 1.478 . S
C1595 H1589 0.930 . S
C1595 C1591 1.400 . S
C1595 C1594 1.385 1_556 S
C1596 C1594 1.478 . S
C1596 C1598 1.381 . S
C1596 C1602 1.383 1_554 S
C1597 C1593 1.495 . S
C1597 H1603 0.959 . S
C1597 H1604 0.961 . S
C1597 H1605 0.960 . S
C1598 C1596 1.381 . S
C1598 C1599 1.394 . S
C1598 H1606 0.930 . S
C1599 C1598 1.394 . S
C1599 C1600 1.383 . S
C1599 H1607 0.929 . S
C1600 C1599 1.383 . S
C1600 C1601 1.377 1_554 S
C1601 H1585 0.930 . S
C1601 C1600 1.377 1_556 S
C1601 C1602 1.379 . S
C1602 H1586 0.931 . S
C1602 C1596 1.383 1_556 S
C1602 C1601 1.379 . S
H1603 C1597 0.959 . S
H1604 C1597 0.961 . S
H1605 C1597 0.960 . S
H1606 C1598 0.930 . S
H1607 C1599 0.929 . S
H1608 C1616 0.929 . S
H1609 C1618 0.930 . S
H1610 C1620 0.930 . S
H1611 C1623 0.929 . S
H1612 C1626 0.930 . S
H1613 C1628 0.960 . S
H1614 C1628 0.960 1_565 S
H1615 C1628 0.960 . S
C1616 H1608 0.929 . S
C1616 C1617 1.377 1_655 S
C1616 C1618 1.384 . S
C1617 C1616 1.377 1_455 S
C1617 C1623 1.390 . S
C1618 H1609 0.930 . S
C1618 C1616 1.384 . S
C1618 C1619 1.388 . S
C1619 C1618 1.388 . S
C1619 C1620 1.384 1_655 S
C1619 C1624 1.490 . S
C1620 H1610 0.930 . S
C1620 C1619 1.384 1_455 S
C1620 C1623 1.386 . S
H1621 C1637 0.930 . S
H1622 C1638 0.931 . S
C1623 H1611 0.929 . S
C1623 C1617 1.390 . S
C1623 C1620 1.386 . S
C1624 C1619 1.490 . S
C1624 C1626 1.383 1_655 S
C1624 C1627 1.414 1_565 S
H1625 C1631 0.930 . S
C1626 H1612 0.930 . S
C1626 C1624 1.383 1_455 S
C1626 C1629 1.403 . S
C1627 C1624 1.414 1_545 S
C1627 C1628 1.524 . S
C1627 C1631 1.400 . S
C1628 H1613 0.960 . S
C1628 H1614 0.960 1_545 S
C1628 H1615 0.960 . S
C1628 C1627 1.524 . S
C1629 C1626 1.403 . S
C1629 C1630 1.392 1_565 S
C1629 C1633 1.495 . S
C1630 C1629 1.392 1_545 S
C1630 C1631 1.385 1_455 S
C1630 C1632 1.478 . S
C1631 H1625 0.930 . S
C1631 C1627 1.400 . S
C1631 C1630 1.385 1_655 S
C1632 C1630 1.478 . S
C1632 C1634 1.381 1_455 S
C1632 C1638 1.383 . S
C1633 C1629 1.495 . S
C1633 H1639 0.959 . S
C1633 H1640 0.961 . S
C1633 H1641 0.960 . S
C1634 C1632 1.381 1_655 S
C1634 C1635 1.394 . S
C1634 H1642 0.930 . S
C1635 C1634 1.394 . S
C1635 C1636 1.385 . S
C1635 H1643 0.929 . S
C1636 C1635 1.385 . S
C1636 C1637 1.375 1_655 S
C1637 H1621 0.930 . S
C1637 C1636 1.375 1_455 S
C1637 C1638 1.379 . S
C1638 H1622 0.931 . S
C1638 C1632 1.383 . S
C1638 C1637 1.379 . S
H1639 C1633 0.959 . S
H1640 C1633 0.961 . S
H1641 C1633 0.960 . S
H1642 C1634 0.930 . S
H1643 C1635 0.929 . S
H1644 C1652 0.929 . S
H1645 C1654 0.930 . S
H1646 C1656 0.933 . S
H1647 C1659 0.929 . S
H1648 C1662 0.930 . S
H1649 C1664 0.960 . S
H1650 C1664 0.960 . S
H1651 C1664 0.960 . S
C1652 H1644 0.929 . S
C1652 C1653 1.378 1_655 S
C1652 C1654 1.384 . S
C1653 C1652 1.378 1_455 S
C1653 C1659 1.389 . S
C1654 H1645 0.930 . S
C1654 C1652 1.384 . S
C1654 C1655 1.373 . S
C1655 C1654 1.373 . S
C1655 C1656 1.398 1_655 S
C1655 C1660 1.490 1_655 S
C1656 H1646 0.933 . S
C1656 C1655 1.398 1_455 S
C1656 C1659 1.387 . S
H1657 C1673 0.930 . S
H1658 C1674 0.931 . S
C1659 H1647 0.929 . S
C1659 C1653 1.389 . S
C1659 C1656 1.387 . S
C1660 C1655 1.490 1_455 S
C1660 C1662 1.394 . S
C1660 C1663 1.403 1_455 S
H1661 C1667 0.930 . S
C1662 H1648 0.930 . S
C1662 C1660 1.394 . S
C1662 C1665 1.403 . S
C1663 C1660 1.403 1_655 S
C1663 C1664 1.524 . S
C1663 C1667 1.400 . S
C1664 H1649 0.960 . S
C1664 H1650 0.960 . S
C1664 H1651 0.960 . S
C1664 C1663 1.524 . S
C1665 C1662 1.403 . S
C1665 C1666 1.392 . S
C1665 C1669 1.495 . S
C1666 C1665 1.392 . S
C1666 C1667 1.385 1_455 S
C1666 C1668 1.478 . S
C1667 H1661 0.930 . S
C1667 C1663 1.400 . S
C1667 C1666 1.385 1_655 S
C1668 C1666 1.478 . S
C1668 C1670 1.381 1_455 S
C1668 C1674 1.383 . S
C1669 C1665 1.495 . S
C1669 H1675 0.959 . S
C1669 H1676 0.961 . S
C1669 H1677 0.960 . S
C1670 C1668 1.381 1_655 S
C1670 C1671 1.394 . S
C1670 H1678 0.930 . S
C1671 C1670 1.394 . S
C1671 C1672 1.382 1_655 S
C1671 H1679 0.929 . S
C1672 C1671 1.382 1_455 S
C1672 C1673 1.379 . S
C1673 H1657 0.930 . S
C1673 C1672 1.379 . S
C1673 C1674 1.379 . S
C1674 H1658 0.931 . S
C1674 C1668 1.383 . S
C1674 C1673 1.379 . S
H1675 C1669 0.959 . S
H1676 C1669 0.961 . S
H1677 C1669 0.960 . S
H1678 C1670 0.930 . S
H1679 C1671 0.929 . S
H1680 C1688 0.929 . S
H1681 C1690 0.930 . S
H1682 C1692 0.930 . S
H1683 C1695 0.929 . S
H1684 C1698 0.930 . S
H1685 C1700 0.960 . S
H1686 C1700 0.960 1_545 S
H1687 C1700 0.960 . S
C1688 H1680 0.929 . S
C1688 C1689 1.409 . S
C1688 C1690 1.384 . S
C1689 C1688 1.409 . S
C1689 C1695 1.359 1_545 S
C1690 H1681 0.930 . S
C1690 C1688 1.384 . S
C1690 C1691 1.372 . S
C1691 C1690 1.372 . S
C1691 C1692 1.400 1_545 S
C1691 C1696 1.490 . S
C1692 H1682 0.930 . S
C1692 C1691 1.400 1_565 S
C1692 C1695 1.386 . S
H1693 C1709 0.930 . S
H1694 C1710 0.931 . S
C1695 H1683 0.929 . S
C1695 C1689 1.359 1_565 S
C1695 C1692 1.386 . S
C1696 C1691 1.490 . S
C1696 C1698 1.395 1_556 S
C1696 C1699 1.403 1_545 S
H1697 C1703 0.930 . S
C1698 H1684 0.930 . S
C1698 C1696 1.395 1_554 S
C1698 C1701 1.403 . S
C1699 C1696 1.403 1_565 S
C1699 C1700 1.524 . S
C1699 C1703 1.400 . S
C1700 H1685 0.960 . S
C1700 H1686 0.960 1_565 S
C1700 H1687 0.960 . S
C1700 C1699 1.524 . S
C1701 C1698 1.403 . S
C1701 C1702 1.398 . S
C1701 C1705 1.495 . S
C1702 C1701 1.398 . S
C1702 C1703 1.381 1_544 S
C1702 C1704 1.477 1_545 S
C1703 H1697 0.930 . S
C1703 C1699 1.400 . S
C1703 C1702 1.381 1_566 S
C1704 C1702 1.477 1_565 S
C1704 C1706 1.384 1_565 S
C1704 C1710 1.380 . S
C1705 C1701 1.495 . S
C1705 H1711 0.959 . S
C1705 H1712 0.961 1_545 S
C1705 H1713 0.960 . S
C1706 C1704 1.384 1_545 S
C1706 C1707 1.394 . S
C1706 H1714 0.930 . S
C1707 C1706 1.394 . S
C1707 C1708 1.383 1_545 S
C1707 H1715 0.929 . S
C1708 C1707 1.383 1_565 S
C1708 C1709 1.377 . S
C1709 H1693 0.930 . S
C1709 C1708 1.377 . S
C1709 C1710 1.379 . S
C1710 H1694 0.931 . S
C1710 C1704 1.380 . S
C1710 C1709 1.379 . S
H1711 C1705 0.959 . S
H1712 C1705 0.961 1_565 S
H1713 C1705 0.960 . S
H1714 C1706 0.930 . S
H1715 C1707 0.929 . S
H1716 C1724 0.929 . S
H1717 C1726 0.930 . S
H1718 C1728 0.930 . S
H1719 C1731 0.929 . S
H1720 C1734 0.930 . S
H1721 C1736 0.960 . S
H1722 C1736 0.960 . S
H1723 C1736 0.960 . S
C1724 H1716 0.929 . S
C1724 C1725 1.377 . S
C1724 C1726 1.384 . S
C1725 C1724 1.377 . S
C1725 C1731 1.390 . S
C1726 H1717 0.930 . S
C1726 C1724 1.384 . S
C1726 C1727 1.372 . S
C1727 C1726 1.372 . S
C1727 C1728 1.400 . S
C1727 C1732 1.490 . S
C1728 H1718 0.930 . S
C1728 C1727 1.400 . S
C1728 C1731 1.386 . S
H1729 C1745 0.930 . S
H1730 C1746 0.931 . S
C1731 H1719 0.929 . S
C1731 C1725 1.390 . S
C1731 C1728 1.386 . S
C1732 C1727 1.490 . S
C1732 C1734 1.395 . S
C1732 C1735 1.403 . S
H1733 C1739 0.930 . S
C1734 H1720 0.930 . S
C1734 C1732 1.395 . S
C1734 C1737 1.403 1_554 S
C1735 C1732 1.403 . S
C1735 C1736 1.524 . S
C1735 C1739 1.400 1_554 S
C1736 H1721 0.960 . S
C1736 H1722 0.960 . S
C1736 H1723 0.960 . S
C1736 C1735 1.524 . S
C1737 C1734 1.403 1_556 S
C1737 C1738 1.392 . S
C1737 C1741 1.495 . S
C1738 C1737 1.392 . S
C1738 C1739 1.385 . S
C1738 C1740 1.478 . S
C1739 H1733 0.930 . S
C1739 C1735 1.400 1_556 S
C1739 C1738 1.385 . S
C1740 C1738 1.478 . S
C1740 C1742 1.381 . S
C1740 C1746 1.383 . S
C1741 C1737 1.495 . S
C1741 H1747 0.959 . S
C1741 H1748 0.961 . S
C1741 H1749 0.960 . S
C1742 C1740 1.381 . S
C1742 C1743 1.394 . S
C1742 H1750 0.930 . S
C1743 C1742 1.394 . S
C1743 C1744 1.383 . S
C1743 H1751 0.929 . S
C1744 C1743 1.383 . S
C1744 C1745 1.377 . S
C1745 H1729 0.930 . S
C1745 C1744 1.377 . S
C1745 C1746 1.379 . S
C1746 H1730 0.931 . S
C1746 C1740 1.383 . S
C1746 C1745 1.379 . S
H1747 C1741 0.959 . S
H1748 C1741 0.961 . S
H1749 C1741 0.960 . S
H1750 C1742 0.930 . S
H1751 C1743 0.929 . S
H1752 C1760 0.929 . S
H1753 C1762 0.930 . S
H1754 C1764 0.930 . S
H1755 C1767 0.929 . S
H1756 C1770 0.930 . S
H1757 C1772 0.960 . S
H1758 C1772 0.960 . S
H1759 C1772 0.960 1_565 S
C1760 H1752 0.929 . S
C1760 C1761 1.399 . S
C1760 C1762 1.384 . S
C1761 C1760 1.399 . S
C1761 C1767 1.369 1_545 S
C1762 H1753 0.930 . S
C1762 C1760 1.384 . S
C1762 C1763 1.408 . S
C1763 C1762 1.408 . S
C1763 C1764 1.364 1_545 S
C1763 C1768 1.490 . S
C1764 H1754 0.930 . S
C1764 C1763 1.364 1_565 S
C1764 C1767 1.386 . S
H1765 C1781 0.930 . S
H1766 C1782 0.931 . S
C1767 H1755 0.929 . S
C1767 C1761 1.369 1_565 S
C1767 C1764 1.386 . S
C1768 C1763 1.490 . S
C1768 C1770 1.389 1_545 S
C1768 C1771 1.408 . S
H1769 C1775 0.930 . S
C1770 H1756 0.930 . S
C1770 C1768 1.389 1_565 S
C1770 C1773 1.403 . S
C1771 C1768 1.408 . S
C1771 C1772 1.524 . S
C1771 C1775 1.400 . S
C1772 H1757 0.960 . S
C1772 H1758 0.960 . S
C1772 H1759 0.960 1_545 S
C1772 C1771 1.524 . S
C1773 C1770 1.403 . S
C1773 C1774 1.399 . S
C1773 C1777 1.495 . S
C1774 C1773 1.399 . S
C1774 C1775 1.378 1_565 S
C1774 C1776 1.480 . S
C1775 H1769 0.930 . S
C1775 C1771 1.400 . S
C1775 C1774 1.378 1_545 S
C1776 C1774 1.480 . S
C1776 C1778 1.381 1_565 S
C1776 C1782 1.383 . S
C1777 C1773 1.495 . S
C1777 H1783 0.959 . S
C1777 H1784 0.961 . S
C1777 H1785 0.960 1_565 S
C1778 C1776 1.381 1_545 S
C1778 C1779 1.394 . S
C1778 H1786 0.930 . S
C1779 C1778 1.394 . S
C1779 C1780 1.383 1_545 S
C1779 H1787 0.929 . S
C1780 C1779 1.383 1_565 S
C1780 C1781 1.377 . S
C1781 H1765 0.930 . S
C1781 C1780 1.377 . S
C1781 C1782 1.379 . S
C1782 H1766 0.931 . S
C1782 C1776 1.383 . S
C1782 C1781 1.379 . S
H1783 C1777 0.959 . S
H1784 C1777 0.961 . S
H1785 C1777 0.960 1_545 S
H1786 C1778 0.930 . S
H1787 C1779 0.929 . S
H1788 C1796 0.929 . S
H1789 C1798 0.930 . S
H1790 C1800 0.930 . S
H1791 C1803 0.929 . S
H1792 C1806 0.930 . S
H1793 C1808 0.960 . S
H1794 C1808 0.960 . S
H1795 C1808 0.960 . S
C1796 H1788 0.929 . S
C1796 C1797 1.377 . S
C1796 C1798 1.384 . S
C1797 C1796 1.377 . S
C1797 C1803 1.390 . S
C1798 H1789 0.930 . S
C1798 C1796 1.384 . S
C1798 C1799 1.372 . S
C1799 C1798 1.372 . S
C1799 C1800 1.400 . S
C1799 C1804 1.490 . S
C1800 H1790 0.930 . S
C1800 C1799 1.400 . S
C1800 C1803 1.386 . S
H1801 C1817 0.930 . S
H1802 C1818 0.931 . S
C1803 H1791 0.929 . S
C1803 C1797 1.390 . S
C1803 C1800 1.386 . S
C1804 C1799 1.490 . S
C1804 C1806 1.395 . S
C1804 C1807 1.403 . S
H1805 C1811 0.930 . S
C1806 H1792 0.930 . S
C1806 C1804 1.395 . S
C1806 C1809 1.403 . S
C1807 C1804 1.403 . S
C1807 C1808 1.524 . S
C1807 C1811 1.400 . S
C1808 H1793 0.960 . S
C1808 H1794 0.960 . S
C1808 H1795 0.960 . S
C1808 C1807 1.524 . S
C1809 C1806 1.403 . S
C1809 C1810 1.392 . S
C1809 C1813 1.495 . S
C1810 C1809 1.392 . S
C1810 C1811 1.385 . S
C1810 C1812 1.478 . S
C1811 H1805 0.930 . S
C1811 C1807 1.400 . S
C1811 C1810 1.385 . S
C1812 C1810 1.478 . S
C1812 C1814 1.381 . S
C1812 C1818 1.383 . S
C1813 C1809 1.495 . S
C1813 H1819 0.959 . S
C1813 H1820 0.961 . S
C1813 H1821 0.960 . S
C1814 C1812 1.381 . S
C1814 C1815 1.394 . S
C1814 H1822 0.930 . S
C1815 C1814 1.394 . S
C1815 C1816 1.383 . S
C1815 H1823 0.929 . S
C1816 C1815 1.383 . S
C1816 C1817 1.377 . S
C1817 H1801 0.930 . S
C1817 C1816 1.377 . S
C1817 C1818 1.379 . S
C1818 H1802 0.931 . S
C1818 C1812 1.383 . S
C1818 C1817 1.379 . S
H1819 C1813 0.959 . S
H1820 C1813 0.961 . S
H1821 C1813 0.960 . S
H1822 C1814 0.930 . S
H1823 C1815 0.929 . S
H1824 C1832 0.929 . S
H1825 C1834 0.930 . S
H1826 C1836 0.930 . S
H1827 C1839 0.929 . S
H1828 C1842 0.930 . S
H1829 C1844 0.960 . S
H1830 C1844 0.960 . S
H1831 C1844 0.960 1_556 S
C1832 H1824 0.929 . S
C1832 C1833 1.349 1_554 S
C1832 C1834 1.384 . S
C1833 C1832 1.349 1_556 S
C1833 C1839 1.418 . S
C1834 H1825 0.930 . S
C1834 C1832 1.384 . S
C1834 C1835 1.383 . S
C1835 C1834 1.383 . S
C1835 C1836 1.389 1_554 S
C1835 C1840 1.490 . S
C1836 H1826 0.930 . S
C1836 C1835 1.389 1_556 S
C1836 C1839 1.386 . S
H1837 C1853 0.930 . S
H1838 C1854 0.931 . S
C1839 H1827 0.929 . S
C1839 C1833 1.418 . S
C1839 C1836 1.386 . S
C1840 C1835 1.490 . S
C1840 C1842 1.392 1_454 S
C1840 C1843 1.406 . S
H1841 C1847 0.933 . S
C1842 H1828 0.930 . S
C1842 C1840 1.392 1_656 S
C1842 C1845 1.403 . S
C1843 C1840 1.406 . S
C1843 C1844 1.524 . S
C1843 C1847 1.411 . S
C1844 H1829 0.960 . S
C1844 H1830 0.960 . S
C1844 H1831 0.960 1_554 S
C1844 C1843 1.524 . S
C1845 C1842 1.403 . S
C1845 C1846 1.392 . S
C1845 C1849 1.495 . S
C1846 C1845 1.392 . S
C1846 C1847 1.372 1_656 S
C1846 C1848 1.477 . S
C1847 H1841 0.933 . S
C1847 C1843 1.411 . S
C1847 C1846 1.372 1_454 S
C1848 C1846 1.477 . S
C1848 C1850 1.363 1_556 S
C1848 C1854 1.401 . S
C1849 C1845 1.495 . S
C1849 H1855 0.959 . S
C1849 H1856 0.961 . S
C1849 H1857 0.960 1_556 S
C1850 C1848 1.363 1_554 S
C1850 C1851 1.394 . S
C1850 H1858 0.930 . S
C1851 C1850 1.394 . S
C1851 C1852 1.382 . S
C1851 H1859 0.929 . S
C1852 C1851 1.382 . S
C1852 C1853 1.379 1_554 S
C1853 H1837 0.930 . S
C1853 C1852 1.379 1_556 S
C1853 C1854 1.379 . S
C1854 H1838 0.931 . S
C1854 C1848 1.401 . S
C1854 C1853 1.379 . S
H1855 C1849 0.959 . S
H1856 C1849 0.961 . S
H1857 C1849 0.960 1_554 S
H1858 C1850 0.930 . S
H1859 C1851 0.929 . S
H1860 C1868 0.929 . S
H1861 C1870 0.930 . S
H1862 C1872 0.930 . S
H1863 C1875 0.929 . S
H1864 C1878 0.930 . S
H1865 C1880 0.960 . S
H1866 C1880 0.960 . S
H1867 C1880 0.960 . S
C1868 H1860 0.929 . S
C1868 C1869 1.377 . S
C1868 C1870 1.384 . S
C1869 C1868 1.377 . S
C1869 C1875 1.390 . S
C1870 H1861 0.930 . S
C1870 C1868 1.384 . S
C1870 C1871 1.372 . S
C1871 C1870 1.372 . S
C1871 C1872 1.400 . S
C1871 C1876 1.490 . S
C1872 H1862 0.930 . S
C1872 C1871 1.400 . S
C1872 C1875 1.386 . S
H1873 C1889 0.930 . S
H1874 C1890 0.931 . S
C1875 H1863 0.929 . S
C1875 C1869 1.390 . S
C1875 C1872 1.386 . S
C1876 C1871 1.490 . S
C1876 C1878 1.395 . S
C1876 C1879 1.403 1_455 S
H1877 C1883 0.930 . S
C1878 H1864 0.930 . S
C1878 C1876 1.395 . S
C1878 C1881 1.403 . S
C1879 C1876 1.403 1_655 S
C1879 C1880 1.524 . S
C1879 C1883 1.400 . S
C1880 H1865 0.960 . S
C1880 H1866 0.960 . S
C1880 H1867 0.960 . S
C1880 C1879 1.524 . S
C1881 C1878 1.403 . S
C1881 C1882 1.392 1_455 S
C1881 C1885 1.495 . S
C1882 C1881 1.392 1_655 S
C1882 C1883 1.385 . S
C1882 C1884 1.478 . S
C1883 H1877 0.930 . S
C1883 C1879 1.400 . S
C1883 C1882 1.385 . S
C1884 C1882 1.478 . S
C1884 C1886 1.381 . S
C1884 C1890 1.383 . S
C1885 C1881 1.495 . S
C1885 H1891 0.959 . S
C1885 H1892 0.961 . S
C1885 H1893 0.960 . S
C1886 C1884 1.381 . S
C1886 C1887 1.394 . S
C1886 H1894 0.930 . S
C1887 C1886 1.394 . S
C1887 C1888 1.383 . S
C1887 H1895 0.929 . S
C1888 C1887 1.383 . S
C1888 C1889 1.377 . S
C1889 H1873 0.930 . S
C1889 C1888 1.377 . S
C1889 C1890 1.379 . S
C1890 H1874 0.931 . S
C1890 C1884 1.383 . S
C1890 C1889 1.379 . S
H1891 C1885 0.959 . S
H1892 C1885 0.961 . S
H1893 C1885 0.960 . S
H1894 C1886 0.930 . S
H1895 C1887 0.929 . S
H1896 C1904 0.929 . S
H1897 C1906 0.930 . S
H1898 C1908 0.930 . S
H1899 C1911 0.929 . S
H1900 C1914 0.930 . S
H1901 C1916 0.960 . S
H1902 C1916 0.960 . S
H1903 C1916 0.960 . S
C1904 H1896 0.929 . S
C1904 C1905 1.377 . S
C1904 C1906 1.384 . S
C1905 C1904 1.377 . S
C1905 C1911 1.390 . S
C1906 H1897 0.930 . S
C1906 C1904 1.384 . S
C1906 C1907 1.372 . S
C1907 C1906 1.372 . S
C1907 C1908 1.400 . S
C1907 C1912 1.490 . S
C1908 H1898 0.930 . S
C1908 C1907 1.400 . S
C1908 C1911 1.386 . S
H1909 C1925 0.930 . S
H1910 C1926 0.931 . S
C1911 H1899 0.929 . S
C1911 C1905 1.390 . S
C1911 C1908 1.386 . S
C1912 C1907 1.490 . S
C1912 C1914 1.395 . S
C1912 C1915 1.403 . S
H1913 C1919 0.930 . S
C1914 H1900 0.930 . S
C1914 C1912 1.395 . S
C1914 C1917 1.403 . S
C1915 C1912 1.403 . S
C1915 C1916 1.524 . S
C1915 C1919 1.400 . S
C1916 H1901 0.960 . S
C1916 H1902 0.960 . S
C1916 H1903 0.960 . S
C1916 C1915 1.524 . S
C1917 C1914 1.403 . S
C1917 C1918 1.392 . S
C1917 C1921 1.495 . S
C1918 C1917 1.392 . S
C1918 C1919 1.385 . S
C1918 C1920 1.478 . S
C1919 H1913 0.930 . S
C1919 C1915 1.400 . S
C1919 C1918 1.385 . S
C1920 C1918 1.478 . S
C1920 C1922 1.381 . S
C1920 C1926 1.383 . S
C1921 C1917 1.495 . S
C1921 H1927 0.959 . S
C1921 H1928 0.961 . S
C1921 H1929 0.960 . S
C1922 C1920 1.381 . S
C1922 C1923 1.394 . S
C1922 H1930 0.930 . S
C1923 C1922 1.394 . S
C1923 C1924 1.383 . S
C1923 H1931 0.929 . S
C1924 C1923 1.383 . S
C1924 C1925 1.377 . S
C1925 H1909 0.930 . S
C1925 C1924 1.377 . S
C1925 C1926 1.379 . S
C1926 H1910 0.931 . S
C1926 C1920 1.383 . S
C1926 C1925 1.379 . S
H1927 C1921 0.959 . S
H1928 C1921 0.961 . S
H1929 C1921 0.960 . S
H1930 C1922 0.930 . S
H1931 C1923 0.929 . S
H1932 C1940 0.929 . S
H1933 C1942 0.930 . S
H1934 C1944 0.930 . S
H1935 C1947 0.929 . S
H1936 C1950 0.930 . S
H1937 C1952 0.960 . S
H1938 C1952 0.960 . S
H1939 C1952 0.960 . S
C1940 H1932 0.929 . S
C1940 C1941 1.377 . S
C1940 C1942 1.384 . S
C1941 C1940 1.377 . S
C1941 C1947 1.390 . S
C1942 H1933 0.930 . S
C1942 C1940 1.384 . S
C1942 C1943 1.372 . S
C1943 C1942 1.372 . S
C1943 C1944 1.400 . S
C1943 C1948 1.490 . S
C1944 H1934 0.930 . S
C1944 C1943 1.400 . S
C1944 C1947 1.386 . S
H1945 C1961 0.930 . S
H1946 C1962 0.931 . S
C1947 H1935 0.929 . S
C1947 C1941 1.390 . S
C1947 C1944 1.386 . S
C1948 C1943 1.490 . S
C1948 C1950 1.395 . S
C1948 C1951 1.403 . S
H1949 C1955 0.930 . S
C1950 H1936 0.930 . S
C1950 C1948 1.395 . S
C1950 C1953 1.403 . S
C1951 C1948 1.403 . S
C1951 C1952 1.524 . S
C1951 C1955 1.400 . S
C1952 H1937 0.960 . S
C1952 H1938 0.960 . S
C1952 H1939 0.960 . S
C1952 C1951 1.524 . S
C1953 C1950 1.403 . S
C1953 C1954 1.392 . S
C1953 C1957 1.495 . S
C1954 C1953 1.392 . S
C1954 C1955 1.385 . S
C1954 C1956 1.478 . S
C1955 H1949 0.930 . S
C1955 C1951 1.400 . S
C1955 C1954 1.385 . S
C1956 C1954 1.478 . S
C1956 C1958 1.381 . S
C1956 C1962 1.383 . S
C1957 C1953 1.495 . S
C1957 H1963 0.959 . S
C1957 H1964 0.961 . S
C1957 H1965 0.960 . S
C1958 C1956 1.381 . S
C1958 C1959 1.394 . S
C1958 H1966 0.930 . S
C1959 C1958 1.394 . S
C1959 C1960 1.383 . S
C1959 H1967 0.929 . S
C1960 C1959 1.383 . S
C1960 C1961 1.377 . S
C1961 H1945 0.930 . S
C1961 C1960 1.377 . S
C1961 C1962 1.379 . S
C1962 H1946 0.931 . S
C1962 C1956 1.383 . S
C1962 C1961 1.379 . S
H1963 C1957 0.959 . S
H1964 C1957 0.961 . S
H1965 C1957 0.960 . S
H1966 C1958 0.930 . S
H1967 C1959 0.929 . S
H1968 C1976 0.929 . S
H1969 C1978 0.930 . S
H1970 C1980 0.930 . S
H1971 C1983 0.929 . S
H1972 C1986 0.930 . S
H1973 C1988 0.960 . S
H1974 C1988 0.960 . S
H1975 C1988 0.960 . S
C1976 H1968 0.929 . S
C1976 C1977 1.377 . S
C1976 C1978 1.384 . S
C1977 C1976 1.377 . S
C1977 C1983 1.390 . S
C1978 H1969 0.930 . S
C1978 C1976 1.384 . S
C1978 C1979 1.372 . S
C1979 C1978 1.372 . S
C1979 C1980 1.400 . S
C1979 C1984 1.490 . S
C1980 H1970 0.930 . S
C1980 C1979 1.400 . S
C1980 C1983 1.386 . S
H1981 C1997 0.930 . S
H1982 C1998 0.931 . S
C1983 H1971 0.929 . S
C1983 C1977 1.390 . S
C1983 C1980 1.386 . S
C1984 C1979 1.490 . S
C1984 C1986 1.395 1_565 S
C1984 C1987 1.403 . S
H1985 C1991 0.930 . S
C1986 H1972 0.930 . S
C1986 C1984 1.395 1_545 S
C1986 C1989 1.403 . S
C1987 C1984 1.403 . S
C1987 C1988 1.524 . S
C1987 C1991 1.400 . S
C1988 H1973 0.960 . S
C1988 H1974 0.960 . S
C1988 H1975 0.960 . S
C1988 C1987 1.524 . S
C1989 C1986 1.403 . S
C1989 C1990 1.392 . S
C1989 C1993 1.495 . S
C1990 C1989 1.392 . S
C1990 C1991 1.385 1_545 S
C1990 C1992 1.478 . S
C1991 H1985 0.930 . S
C1991 C1987 1.400 . S
C1991 C1990 1.385 1_565 S
C1992 C1990 1.478 . S
C1992 C1994 1.381 . S
C1992 C1998 1.383 . S
C1993 C1989 1.495 . S
C1993 H1999 0.959 . S
C1993 H2000 0.961 . S
C1993 H2001 0.960 . S
C1994 C1992 1.381 . S
C1994 C1995 1.394 . S
C1994 H2002 0.930 . S
C1995 C1994 1.394 . S
C1995 C1996 1.383 . S
C1995 H2003 0.929 . S
C1996 C1995 1.383 . S
C1996 C1997 1.377 . S
C1997 H1981 0.930 . S
C1997 C1996 1.377 . S
C1997 C1998 1.379 . S
C1998 H1982 0.931 . S
C1998 C1992 1.383 . S
C1998 C1997 1.379 . S
H1999 C1993 0.959 . S
H2000 C1993 0.961 . S
H2001 C1993 0.960 . S
H2002 C1994 0.930 . S
H2003 C1995 0.929 . S
H2004 C2012 0.929 . S
H2005 C2014 0.930 . S
H2006 C2016 0.930 . S
H2007 C2019 0.929 . S
H2008 C2022 0.930 . S
H2009 C2024 0.960 . S
H2010 C2024 0.960 . S
H2011 C2024 0.960 . S
C2012 H2004 0.929 . S
C2012 C2013 1.379 . S
C2012 C2014 1.384 . S
C2013 C2012 1.379 . S
C2013 C2019 1.388 1_554 S
C2014 H2005 0.930 . S
C2014 C2012 1.384 . S
C2014 C2015 1.377 . S
C2015 C2014 1.377 . S
C2015 C2016 1.394 1_554 S
C2015 C2020 1.489 . S
C2016 H2006 0.930 . S
C2016 C2015 1.394 1_556 S
C2016 C2019 1.386 . S
H2017 C2033 0.930 . S
H2018 C2034 0.931 . S
C2019 H2007 0.929 . S
C2019 C2013 1.388 1_556 S
C2019 C2016 1.386 . S
C2020 C2015 1.489 . S
C2020 C2022 1.439 . S
C2020 C2023 1.360 1_554 S
H2021 C2027 0.930 . S
C2022 H2008 0.930 . S
C2022 C2020 1.439 . S
C2022 C2025 1.403 . S
C2023 C2020 1.360 1_556 S
C2023 C2024 1.524 . S
C2023 C2027 1.400 . S
C2024 H2009 0.960 . S
C2024 H2010 0.960 . S
C2024 H2011 0.960 . S
C2024 C2023 1.524 . S
C2025 C2022 1.403 . S
C2025 C2026 1.392 . S
C2025 C2029 1.495 . S
C2026 C2025 1.392 . S
C2026 C2027 1.385 1_554 S
C2026 C2028 1.478 . S
C2027 H2021 0.930 . S
C2027 C2023 1.400 . S
C2027 C2026 1.385 1_556 S
C2028 C2026 1.478 . S
C2028 C2030 1.381 . S
C2028 C2034 1.383 1_554 S
C2029 C2025 1.495 . S
C2029 H2035 0.959 . S
C2029 H2036 0.961 . S
C2029 H2037 0.960 . S
C2030 C2028 1.381 . S
C2030 C2031 1.394 . S
C2030 H2038 0.930 . S
C2031 C2030 1.394 . S
C2031 C2032 1.391 . S
C2031 H2039 0.929 . S
C2032 C2031 1.391 . S
C2032 C2033 1.371 1_554 S
C2033 H2017 0.930 . S
C2033 C2032 1.371 1_556 S
C2033 C2034 1.379 . S
C2034 H2018 0.931 . S
C2034 C2028 1.383 1_556 S
C2034 C2033 1.379 . S
H2035 C2029 0.959 . S
H2036 C2029 0.961 . S
H2037 C2029 0.960 . S
H2038 C2030 0.930 . S
H2039 C2031 0.929 . S
C321 C224 0.246 . S
C340 C3 0.183 . S
C357 C18 0.212 . S
C376 C213 0.363 . S
C393 C31 0.413 . S
C412 C252 0.481 . S
C429 C42 0.412 . S
C448 C237 0.555 . S
C465 C57 0.226 . S
C484 C278 0.272 . S
C501 C68 0.356 . S
C520 C291 0.416 . S
C537 C263 0.414 . S
C556 C83 0.232 . S
C573 C146 0.447 . S
C592 C94 0.360 . S
C609 C107 0.227 . S
C628 C44 0.290 . S
C645 C16 0.375 . S
C664 C120 0.310 . S
C681 C135 0.564 . S
C700 C5 0.535 . S
C717 C148 0.344 . S
C736 C185 0.493 . S
C753 C70 0.618 . S
C772 C161 0.590 . S
C789 C55 0.567 . S
C808 C174 0.559 . S
C825 C187 0.348 . S
C844 C96 0.445 . S
C861 C200 0.353 . S
C880 C81 0.360 . S
C897 C122 0.618 . S
C916 C211 0.596 . S
C933 C133 0.499 . S
C952 C226 0.427 . S
C969 C109 0.572 . S
C988 C239 0.586 . S
C1005 C250 0.415 . S
C1024 C302 0.446 . S
C1041 C198 0.613 . S
C1060 C265 0.597 . S
C1077 C276 0.418 . S
C1096 C172 0.552 . S
C1113 C159 0.407 . S
C1132 C289 0.200 . S
C1149 C304 0.400 . S
C1168 C29 0.463 . S
C1185 C4 2.103 . S
C1204 C23 2.100 . S
C1221 C43 1.993 . S
C1240 C36 2.007 . S
C1257 C62 2.106 . S
C1276 C88 2.083 . S
C1293 C69 2.292 . S
C1312 C95 2.282 . S
C1329 C290 2.095 . S
C1348 C108 2.102 . S
C1365 C121 2.289 . S
C1384 C153 2.263 . S
C1401 C270 2.174 . S
C1420 C140 2.198 . S
C1437 C179 2.186 . S
C1456 C166 2.172 . S
C1473 C192 2.278 . S
C1492 C205 2.296 . S
C1509 C244 2.189 . S
C1528 C212 2.157 . S
C1545 C231 1.993 . S
C1564 C251 2.004 . S
C1581 C309 2.002 . S
C1600 C277 2.002 . S
C1617 C30 1.135 . S
C1636 C10 1.104 . S
C1653 C17 1.434 . S
C1672 C49 1.441 1_455 S
C1689 C257 1.138 . S
C1708 C56 1.169 . S
C1725 C75 1.327 . S
C1744 C238 1.335 . S
C1761 C82 1.436 . S
C1780 C225 1.406 . S
C1797 C218 1.638 . S
C1816 C101 1.653 . S
C1833 C114 1.137 . S
C1852 C303 1.165 . S
C1869 C127 1.331 . S
C1888 C134 1.298 . S
C1905 C264 1.629 . S
C1924 C147 1.634 . S
C1941 C160 1.632 . S
C1960 C186 1.650 . S
C1977 C173 1.335 . S
C1996 C199 1.356 . S
C2013 C296 1.432 . S
C2032 C283 1.424 1_554 S
