# Generated by pormake.
# Topology ske, (6)-cn, num edge types: 1
# Building blocks:
#     Node 0, Type 0, BuildingBlock: BETGAK_clean_sbu_0, # of connection points: 6
#     Node 1, Type 0, BuildingBlock: BETGAK_clean_sbu_0, # of connection points: 6
#     Node 2, Type 0, BuildingBlock: BETGAK_clean_sbu_0, # of connection points: 6
#     Node 3, Type 0, BuildingBlock: BETGAK_clean_sbu_0, # of connection points: 6
#     Node 4, Type 0, BuildingBlock: BETGAK_clean_sbu_0, # of connection points: 6
#     Node 5, Type 0, BuildingBlock: BETGAK_clean_sbu_0, # of connection points: 6
#     Node 6, Type 0, BuildingBlock: BETGAK_clean_sbu_0, # of connection points: 6
#     Node 7, Type 0, BuildingBlock: BETGAK_clean_sbu_0, # of connection points: 6
#     Edge 8, Type (0, 0), BuildingBlock: XIVTED_clean_linker_0, # of connection points: 2
#     Edge 9, Type (0, 0), BuildingBlock: XIVTED_clean_linker_0, # of connection points: 2
#     Edge 10, Type (0, 0), BuildingBlock: XIVTED_clean_linker_0, # of connection points: 2
#     Edge 11, Type (0, 0), BuildingBlock: XIVTED_clean_linker_0, # of connection points: 2
#     Edge 12, Type (0, 0), BuildingBlock: XIVTED_clean_linker_0, # of connection points: 2
#     Edge 13, Type (0, 0), BuildingBlock: XIVTED_clean_linker_0, # of connection points: 2
#     Edge 14, Type (0, 0), BuildingBlock: XIVTED_clean_linker_0, # of connection points: 2
#     Edge 15, Type (0, 0), BuildingBlock: XIVTED_clean_linker_0, # of connection points: 2
#     Edge 16, Type (0, 0), BuildingBlock: XIVTED_clean_linker_0, # of connection points: 2
#     Edge 17, Type (0, 0), BuildingBlock: XIVTED_clean_linker_0, # of connection points: 2
#     Edge 18, Type (0, 0), BuildingBlock: XIVTED_clean_linker_0, # of connection points: 2
#     Edge 19, Type (0, 0), BuildingBlock: XIVTED_clean_linker_0, # of connection points: 2
#     Edge 20, Type (0, 0), BuildingBlock: XIVTED_clean_linker_0, # of connection points: 2
#     Edge 21, Type (0, 0), BuildingBlock: XIVTED_clean_linker_0, # of connection points: 2
#     Edge 22, Type (0, 0), BuildingBlock: XIVTED_clean_linker_0, # of connection points: 2
#     Edge 23, Type (0, 0), BuildingBlock: XIVTED_clean_linker_0, # of connection points: 2
#     Edge 24, Type (0, 0), BuildingBlock: XIVTED_clean_linker_0, # of connection points: 2
#     Edge 25, Type (0, 0), BuildingBlock: XIVTED_clean_linker_0, # of connection points: 2
#     Edge 26, Type (0, 0), BuildingBlock: XIVTED_clean_linker_0, # of connection points: 2
#     Edge 27, Type (0, 0), BuildingBlock: XIVTED_clean_linker_0, # of connection points: 2
#     Edge 28, Type (0, 0), BuildingBlock: XIVTED_clean_linker_0, # of connection points: 2
#     Edge 29, Type (0, 0), BuildingBlock: XIVTED_clean_linker_0, # of connection points: 2
#     Edge 30, Type (0, 0), BuildingBlock: XIVTED_clean_linker_0, # of connection points: 2
#     Edge 31, Type (0, 0), BuildingBlock: XIVTED_clean_linker_0, # of connection points: 2
# Relax obj value: 0.199
# Max RMSD: 0.203
# Mean RMSD: 0.196
data_MOF--net-ske--node1-BETGAK_clean_sbu_0--edge1-XIVTED_clean_linker_0
_symmetry_space_group_name_H-M    P1
_symmetry_Int_Tables_number       1
_symmetry_cell_setting            triclinic
loop_
_symmetry_equiv_pos_as_xyz
'x, y, z'
_cell_length_a     103.63241
_cell_length_b     29.320847
_cell_length_c     15.599498
_cell_angle_alpha  89.608397
_cell_angle_beta   90.199357
_cell_angle_gamma 84.17111
loop_
_atom_site_label
_atom_site_type_symbol
_atom_site_fract_x
_atom_site_fract_y
_atom_site_fract_z
_atom_type_partial_charge
La0 La 0.16247 0.27412 0.53353 0.0
La1 La 0.13387 0.27366 0.53793 0.0
C2 C 0.1857 0.29316 0.5484 0.0
C3 C 0.19788 0.28523 0.59935 0.0
C4 C 0.20516 0.24204 0.60293 0.0
C5 C 0.21762 0.23707 0.63951 0.0
C6 C 0.22313 0.27514 0.67328 0.0
C7 C 0.21562 0.31796 0.67233 0.0
C8 C 0.20319 0.32291 0.63563 0.0
C9 C 0.1546 0.19184 0.51235 0.0
C10 C 0.148 0.26801 0.71462 0.0
C11 C 0.11009 0.26447 0.52235 0.0
C12 C 0.09591 0.26173 0.51276 0.0
C13 C 0.08755 0.30194 0.49847 0.0
C14 C 0.0741 0.30066 0.49546 0.0
C15 C 0.06859 0.2591 0.50627 0.0
C16 C 0.07697 0.21861 0.5186 0.0
C17 C 0.09048 0.21995 0.52227 0.0
C18 C 0.14236 0.35556 0.55785 0.0
C19 C 0.1482 0.27607 0.36008 0.0
O20 O 0.18214 0.25918 0.50317 0.0
O21 O 0.17576 0.31766 0.58223 0.0
O22 O 0.16475 0.20593 0.47716 0.0
O23 O 0.14972 0.22213 0.56328 0.0
O24 O 0.15877 0.27475 0.67261 0.0
O25 O 0.13708 0.26222 0.67403 0.0
O26 O 0.11529 0.3017 0.50131 0.0
O27 O 0.11846 0.23098 0.54979 0.0
O28 O 0.13262 0.34128 0.5979 0.0
O29 O 0.14675 0.32477 0.50669 0.0
O30 O 0.13867 0.25958 0.4028 0.0
O31 O 0.15769 0.29336 0.40157 0.0
H32 H 0.20141 0.21226 0.57522 0.0
H33 H 0.223 0.20343 0.64026 0.0
H34 H 0.21954 0.3482 0.69665 0.0
H35 H 0.19791 0.35673 0.63266 0.0
H36 H 0.09139 0.33475 0.49108 0.0
H37 H 0.06798 0.33239 0.48454 0.0
H38 H 0.07307 0.18603 0.5277 0.0
H39 H 0.09666 0.18842 0.53371 0.0
La40 La 0.87699 0.24765 0.53492 0.0
La41 La 0.90549 0.24907 0.5394 0.0
C42 C 0.85406 0.22587 0.55045 0.0
C43 C 0.84182 0.23414 0.59992 0.0
C44 C 0.83436 0.27704 0.59916 0.0
C45 C 0.8219 0.28207 0.63507 0.0
C46 C 0.81656 0.24433 0.67226 0.0
C47 C 0.82426 0.20192 0.67571 0.0
C48 C 0.83669 0.19691 0.63983 0.0
C49 C 0.88417 0.33144 0.51635 0.0
C50 C 0.89158 0.25389 0.71593 0.0
C51 C 0.92933 0.25722 0.52383 0.0
C52 C 0.9435 0.25984 0.51426 0.0
C53 C 0.95183 0.21972 0.50022 0.0
C54 C 0.96528 0.22104 0.49649 0.0
C55 C 0.97083 0.26261 0.50617 0.0
C56 C 0.96243 0.30295 0.51888 0.0
C57 C 0.94894 0.30154 0.52317 0.0
C58 C 0.89705 0.167 0.55961 0.0
C59 C 0.89104 0.24875 0.36158 0.0
O60 O 0.85733 0.25883 0.50069 0.0
O61 O 0.86415 0.20365 0.58809 0.0
O62 O 0.8737 0.31748 0.48534 0.0
O63 O 0.8896 0.30017 0.56437 0.0
O64 O 0.88086 0.24618 0.67397 0.0
O65 O 0.90238 0.26068 0.67521 0.0
O66 O 0.92396 0.22057 0.50192 0.0
O67 O 0.92111 0.29052 0.55239 0.0
O68 O 0.90643 0.18176 0.60278 0.0
O69 O 0.8928 0.19773 0.50705 0.0
O70 O 0.90053 0.26525 0.40472 0.0
O71 O 0.88168 0.23053 0.40266 0.0
H72 H 0.83795 0.30642 0.56831 0.0
H73 H 0.81627 0.31518 0.63047 0.0
H74 H 0.82061 0.17226 0.70514 0.0
H75 H 0.84216 0.16338 0.64086 0.0
H76 H 0.94798 0.18691 0.49397 0.0
H77 H 0.97134 0.18907 0.48821 0.0
H78 H 0.96626 0.33576 0.52534 0.0
H79 H 0.94277 0.33305 0.53402 0.0
La80 La 0.13476 0.77385 0.50439 0.0
La81 La 0.16346 0.7739 0.50873 0.0
C82 C 0.11083 0.76682 0.51983 0.0
C83 C 0.09659 0.76499 0.52935 0.0
C84 C 0.08843 0.80551 0.54386 0.0
C85 C 0.07493 0.80508 0.54683 0.0
C86 C 0.06917 0.76406 0.53588 0.0
C87 C 0.07736 0.72325 0.52336 0.0
C88 C 0.09091 0.72376 0.51966 0.0
C89 C 0.1435 0.85532 0.48365 0.0
C90 C 0.14931 0.77385 0.68209 0.0
C91 C 0.18661 0.79404 0.49337 0.0
C92 C 0.19896 0.78532 0.44478 0.0
C93 C 0.20639 0.74237 0.44695 0.0
C94 C 0.21894 0.73692 0.41208 0.0
C95 C 0.22443 0.77428 0.37448 0.0
C96 C 0.21678 0.8168 0.36992 0.0
C97 C 0.20425 0.82221 0.40474 0.0
C98 C 0.15576 0.69081 0.52802 0.0
C99 C 0.14875 0.76835 0.32789 0.0
O100 O 0.11637 0.80302 0.54227 0.0
O101 O 0.11892 0.73327 0.49091 0.0
O102 O 0.13399 0.84101 0.44113 0.0
O103 O 0.14775 0.82449 0.53608 0.0
O104 O 0.13973 0.75779 0.63911 0.0
O105 O 0.15878 0.79146 0.64091 0.0
O106 O 0.18312 0.76131 0.54284 0.0
O107 O 0.17662 0.81685 0.45553 0.0
O108 O 0.16636 0.70399 0.55878 0.0
O109 O 0.15055 0.72236 0.4798 0.0
O110 O 0.15952 0.77555 0.36978 0.0
O111 O 0.1379 0.76204 0.36861 0.0
H112 H 0.09246 0.83793 0.55141 0.0
H113 H 0.06899 0.83705 0.55786 0.0
H114 H 0.07328 0.69106 0.51412 0.0
H115 H 0.09691 0.69199 0.50809 0.0
H116 H 0.20271 0.71323 0.47808 0.0
H117 H 0.22451 0.70374 0.41772 0.0
H118 H 0.22051 0.84622 0.34026 0.0
H119 H 0.19884 0.85582 0.40273 0.0
La120 La 0.90591 0.74881 0.50461 0.0
La121 La 0.87726 0.74867 0.51133 0.0
C122 C 0.92975 0.75788 0.5195 0.0
C123 C 0.94397 0.76061 0.52872 0.0
C124 C 0.95235 0.72045 0.5429 0.0
C125 C 0.9658 0.72184 0.54733 0.0
C126 C 0.97134 0.76353 0.53822 0.0
C127 C 0.9629 0.80389 0.52492 0.0
C128 C 0.94939 0.80241 0.52001 0.0
C129 C 0.89742 0.66695 0.48504 0.0
C130 C 0.89184 0.74639 0.68363 0.0
C131 C 0.85388 0.73069 0.49796 0.0
C132 C 0.8416 0.73857 0.44764 0.0
C133 C 0.83486 0.78249 0.4382 0.0
C134 C 0.82233 0.78802 0.40244 0.0
C135 C 0.81617 0.74982 0.37535 0.0
C136 C 0.82315 0.70612 0.38227 0.0
C137 C 0.83565 0.70063 0.41808 0.0
C138 C 0.8854 0.83072 0.53213 0.0
C139 C 0.89146 0.75445 0.32911 0.0
O140 O 0.92455 0.72063 0.54035 0.0
O141 O 0.92136 0.79138 0.49231 0.0
O142 O 0.90708 0.68148 0.44443 0.0
O143 O 0.89301 0.69761 0.53661 0.0
O144 O 0.90132 0.7627 0.64003 0.0
O145 O 0.88221 0.72939 0.64309 0.0
O146 O 0.85762 0.76492 0.54159 0.0
O147 O 0.86371 0.70539 0.46465 0.0
O148 O 0.87531 0.81679 0.56849 0.0
O149 O 0.89003 0.80039 0.48054 0.0
O150 O 0.88077 0.74781 0.3721 0.0
O151 O 0.90246 0.76027 0.36867 0.0
H152 H 0.94853 0.68754 0.54902 0.0
H153 H 0.97187 0.68984 0.55592 0.0
H154 H 0.96671 0.83679 0.51874 0.0
H155 H 0.94321 0.83397 0.50901 0.0
H156 H 0.8391 0.81253 0.46061 0.0
H157 H 0.8174 0.8223 0.39698 0.0
H158 H 0.81876 0.67577 0.3633 0.0
H159 H 0.84051 0.66631 0.42565 0.0
La160 La 0.66223 0.77356 0.02847 0.0
La161 La 0.6337 0.76738 0.03372 0.0
C162 C 0.68512 0.79619 0.04443 0.0
C163 C 0.69742 0.78839 0.09452 0.0
C164 C 0.70408 0.74442 0.10494 0.0
C165 C 0.7166 0.73887 0.14088 0.0
C166 C 0.7228 0.77709 0.16725 0.0
C167 C 0.71589 0.82086 0.15941 0.0
C168 C 0.7034 0.82638 0.12339 0.0
C169 C 0.65559 0.68914 1.01018 0.0
C170 C 0.64768 0.76683 0.21015 0.0
C171 C 0.61075 0.74762 1.00739 0.0
C172 C 0.59701 0.74923 0.03538 0.0
C173 C 0.5902 0.78901 0.06889 0.0
C174 C 0.57673 0.79114 0.08254 0.0
C175 C 0.56972 0.75369 0.06232 0.0
C176 C 0.57674 0.71358 0.031 0.0
C177 C 0.59016 0.71143 1.01796 0.0
C178 C 0.64077 0.8514 0.05141 0.0
C179 C 0.64821 0.77228 0.8559 0.0
O180 O 0.68193 0.76283 0.99615 0.0
O181 O 0.67497 0.81832 0.08058 0.0
O182 O 0.66553 0.70464 0.97476 0.0
O183 O 0.65033 0.71937 0.05965 0.0
O184 O 0.65831 0.77455 0.1673 0.0
O185 O 0.63681 0.75915 0.17062 0.0
O186 O 0.61513 0.78583 0.9826 0.0
O187 O 0.61961 0.72039 0.0476 0.0
O188 O 0.63113 0.83585 0.09102 0.0
O189 O 0.64567 0.82097 1.00101 0.0
O190 O 0.63925 0.75307 0.89964 0.0
O191 O 0.65727 0.79226 0.89662 0.0
H192 H 0.69978 0.71436 0.08322 0.0
H193 H 0.72148 0.70455 0.14708 0.0
H194 H 0.72032 0.85122 0.17787 0.0
H195 H 0.69858 0.8607 0.11518 0.0
H196 H 0.5952 0.81883 0.08254 0.0
H197 H 0.57181 0.8224 0.10812 0.0
H198 H 0.57181 0.68421 1.01309 0.0
H199 H 0.59513 0.68058 0.99086 0.0
La200 La 0.3786 0.74813 0.03974 0.0
La201 La 0.40724 0.75405 0.0431 0.0
C202 C 0.3559 0.72402 0.05699 0.0
C203 C 0.34349 0.7328 0.10497 0.0
C204 C 0.33612 0.77586 0.10312 0.0
C205 C 0.32357 0.78143 0.13785 0.0
C206 C 0.31802 0.74408 0.17508 0.0
C207 C 0.32563 0.70146 0.17941 0.0
C208 C 0.33816 0.69593 0.14469 0.0
C209 C 0.3849 0.83342 1.02369 0.0
C210 C 0.39362 0.75336 0.22039 0.0
C211 C 0.43017 0.77317 1.01368 0.0
C212 C 0.44414 0.77135 0.03604 0.0
C213 C 0.45065 0.73604 0.08583 0.0
C214 C 0.46417 0.734 0.09829 0.0
C215 C 0.47148 0.76704 0.0607 0.0
C216 C 0.46477 0.80245 1.01168 0.0
C217 C 0.45133 0.8046 0.99993 0.0
C218 C 0.40007 0.67003 0.0606 0.0
C219 C 0.3923 0.7519 0.86651 0.0
O220 O 0.35898 0.7557 1.00362 0.0
O221 O 0.36609 0.70412 0.09727 0.0
O222 O 0.37449 0.81863 0.99339 0.0
O223 O 0.39068 0.802 0.0697 0.0
O224 O 0.38293 0.74562 0.17804 0.0
O225 O 0.40441 0.7615 0.18036 0.0
O226 O 0.42555 0.73561 0.98842 0.0
O227 O 0.42173 0.79924 0.0583 0.0
O228 O 0.40984 0.68498 0.09985 0.0
O229 O 0.3951 0.70106 1.01074 0.0
O230 O 0.40128 0.77091 0.91024 0.0
O231 O 0.38335 0.73134 0.90727 0.0
H232 H 0.33986 0.805 0.07241 0.0
H233 H 0.31804 0.8147 0.13244 0.0
H234 H 0.32185 0.67205 0.20886 0.0
H235 H 0.34355 0.66228 0.1466 0.0
H236 H 0.44532 0.70981 0.11404 0.0
H237 H 0.46888 0.70648 0.13732 0.0
H238 H 0.46992 0.82802 0.97986 0.0
H239 H 0.44656 0.83183 0.96029 0.0
La240 La 0.6345 0.27205 1.00691 0.0
La241 La 0.66291 0.26849 1.01707 0.0
C242 C 0.61051 0.26634 1.0193 0.0
C243 C 0.59625 0.26515 0.02678 0.0
C244 C 0.58812 0.30626 0.03514 0.0
C245 C 0.57463 0.30607 0.03788 0.0
C246 C 0.56889 0.26473 0.03274 0.0
C247 C 0.57704 0.22344 0.0259 0.0
C248 C 0.59058 0.22368 1.02254 0.0
C249 C 0.64394 0.35232 0.98645 0.0
C250 C 0.64831 0.27261 0.18804 0.0
C251 C 0.6865 0.28377 1.00542 0.0
C252 C 0.69852 0.27676 0.95321 0.0
C253 C 0.70613 0.23419 0.9518 0.0
C254 C 0.71847 0.23005 0.91421 0.0
C255 C 0.72357 0.26838 0.87747 0.0
C256 C 0.71573 0.31055 0.87632 0.0
C257 C 0.70341 0.31467 0.9139 0.0
C258 C 0.65396 0.18746 0.03808 0.0
C259 C 0.64897 0.26416 0.83328 0.0
O260 O 0.61596 0.30367 0.03482 0.0
O261 O 0.61869 0.23115 0.9986 0.0
O262 O 0.63457 0.33847 0.94184 0.0
O263 O 0.6477 0.32163 0.0406 0.0
O264 O 0.63861 0.25816 0.14376 0.0
O265 O 0.65825 0.28774 0.14812 0.0
O266 O 0.68251 0.24827 0.0446 0.0
O267 O 0.67681 0.31175 0.97618 0.0
O268 O 0.66397 0.20056 0.07698 0.0
O269 O 0.64977 0.21824 0.985 0.0
O270 O 0.65963 0.27041 0.87715 0.0
O271 O 0.63792 0.25896 0.87219 0.0
H272 H 0.59216 0.33885 0.0385 0.0
H273 H 0.56869 0.33843 0.04446 0.0
H274 H 0.57295 0.191 1.02117 0.0
H275 H 0.59658 0.19146 1.01583 0.0
H276 H 0.70278 0.20434 0.98246 0.0
H277 H 0.72422 0.19712 0.91727 0.0
H278 H 0.7192 0.34068 0.84748 0.0
H279 H 0.69786 0.34805 0.91474 0.0
La280 La 0.40599 0.25156 1.00888 0.0
La281 La 0.37742 0.25336 1.01292 0.0
C282 C 0.42981 0.26005 1.02469 0.0
C283 C 0.44397 0.26284 0.03456 0.0
C284 C 0.4523 0.22288 0.05134 0.0
C285 C 0.46575 0.22426 0.05538 0.0
C286 C 0.47128 0.26571 0.04315 0.0
C287 C 0.46289 0.3059 0.02756 0.0
C288 C 0.4494 0.30445 1.02313 0.0
C289 C 0.39719 0.17012 0.98981 0.0
C290 C 0.39159 0.25045 0.18664 0.0
C291 C 0.35402 0.23618 0.9983 0.0
C292 C 0.34188 0.24357 0.94675 0.0
C293 C 0.3345 0.28656 0.94266 0.0
C294 C 0.32205 0.29103 0.90599 0.0
C295 C 0.31663 0.25265 0.87272 0.0
C296 C 0.32424 0.21004 0.87407 0.0
C297 C 0.33667 0.20558 0.91083 0.0
C298 C 0.38594 0.33508 0.03267 0.0
C299 C 0.39197 0.25728 0.83193 0.0
O300 O 0.42455 0.2229 0.04546 0.0
O301 O 0.42149 0.29369 0.99721 0.0
O302 O 0.40703 0.18384 0.95003 0.0
O303 O 0.3928 0.2013 0.04045 0.0
O304 O 0.40127 0.26599 0.14397 0.0
O305 O 0.38194 0.23419 0.14514 0.0
O306 O 0.35774 0.27082 0.04086 0.0
O307 O 0.36386 0.21022 0.96669 0.0
O308 O 0.37573 0.32195 0.06887 0.0
O309 O 0.39049 0.30407 0.98215 0.0
O310 O 0.38113 0.25159 0.87393 0.0
O311 O 0.40292 0.26243 0.87255 0.0
H312 H 0.44846 0.19013 0.05962 0.0
H313 H 0.47181 0.19242 0.06592 0.0
H314 H 0.46673 0.33861 1.01898 0.0
H315 H 0.44323 0.33582 1.01005 0.0
H316 H 0.33816 0.31656 0.97014 0.0
H317 H 0.31658 0.32453 0.9049 0.0
H318 H 0.32039 0.17958 0.85012 0.0
H319 H 0.34202 0.17189 0.91425 0.0
H320 H 0.23319 0.31736 0.81236 0.0
H321 H 0.30658 0.20961 0.73445 0.0
H322 H 0.24448 0.22348 0.60775 0.0
H323 H 0.29523 0.30392 0.93829 0.0
H324 H 0.28393 0.21392 0.68754 0.0
H325 H 0.25582 0.3126 0.85957 0.0
C326 C 0.24041 0.29578 0.77715 0.0
C327 C 0.23683 0.27083 0.70571 0.0
C328 C 0.2864 0.23376 0.74244 0.0
C329 C 0.2629 0.26503 0.76006 0.0
C330 C 0.29935 0.23119 0.76955 0.0
C331 C 0.30292 0.25645 0.84061 0.0
C332 C 0.27684 0.26173 0.78663 0.0
C333 C 0.29305 0.2843 0.8825 0.0
C334 C 0.25335 0.29295 0.80443 0.0
C335 C 0.24667 0.2429 0.66376 0.0
N336 N 0.28052 0.28608 0.85508 0.0
N337 N 0.25921 0.24088 0.69134 0.0
H338 H 0.73682 0.19745 0.78838 0.0
H339 H 0.8032 0.31637 0.75808 0.0
H340 H 0.74153 0.33111 0.89104 0.0
H341 H 0.79848 0.1822 0.65787 0.0
H342 H 0.78061 0.32287 0.8057 0.0
H343 H 0.75932 0.19154 0.7395 0.0
C344 C 0.74256 0.22556 0.8009 0.0
C345 C 0.73717 0.26487 0.84408 0.0
C346 C 0.78452 0.29196 0.77342 0.0
C347 C 0.76307 0.2584 0.78742 0.0
C348 C 0.79743 0.28829 0.7458 0.0
C349 C 0.80286 0.24859 0.70392 0.0
C350 C 0.77688 0.25575 0.75902 0.0
C351 C 0.79487 0.21317 0.69102 0.0
C352 C 0.75543 0.22223 0.77256 0.0
C353 C 0.74513 0.3004 0.85704 0.0
N354 N 0.78233 0.21762 0.71827 0.0
N355 N 0.75763 0.29626 0.82909 0.0
H356 H 0.30463 0.81748 0.25749 0.0
H357 H 0.23783 0.70096 0.29214 0.0
H358 H 0.29974 0.68221 0.16338 0.0
H359 H 0.24266 0.83637 0.38579 0.0
H360 H 0.26045 0.6934 0.24524 0.0
H361 H 0.282 0.82514 0.30428 0.0
C362 C 0.29883 0.78938 0.24629 0.0
C363 C 0.30424 0.74905 0.20628 0.0
C364 C 0.25656 0.72482 0.27592 0.0
C365 C 0.27816 0.75757 0.26072 0.0
C366 C 0.24362 0.72911 0.3032 0.0
C367 C 0.2382 0.76943 0.34315 0.0
C368 C 0.26427 0.76104 0.28859 0.0
C369 C 0.24625 0.80488 0.35425 0.0
C370 C 0.28588 0.79373 0.27351 0.0
C371 C 0.29616 0.71369 0.195 0.0
N372 N 0.25882 0.79982 0.32737 0.0
N373 N 0.2836 0.7188 0.22184 0.0
H374 H 0.74332 0.7176 0.11116 0.0
H375 H 0.79561 0.80883 0.43246 0.0
H376 H 0.73392 0.82455 0.29605 0.0
H377 H 0.80507 0.70269 0.24605 0.0
H378 H 0.77309 0.81538 0.38285 0.0
H379 H 0.76583 0.71098 0.16096 0.0
C380 C 0.74592 0.73945 0.1628 0.0
C381 C 0.73657 0.77168 0.19931 0.0
C382 C 0.78009 0.79069 0.35264 0.0
C383 C 0.76259 0.76466 0.2561 0.0
C384 C 0.79303 0.78714 0.38053 0.0
C385 C 0.8024 0.75517 0.34351 0.0
C386 C 0.77636 0.7621 0.28697 0.0
C387 C 0.79825 0.72746 0.27752 0.0
C388 C 0.75885 0.73587 0.19079 0.0
C389 C 0.74072 0.79957 0.26498 0.0
N390 N 0.78561 0.73158 0.25153 0.0
N391 N 0.75336 0.79541 0.29111 0.0
H392 H 0.15205 0.90206 0.62166 0.0
H393 H 0.15728 0.1362 0.37481 0.0
H394 H 0.13947 0.92063 0.35899 0.0
H395 H 0.14575 0.13717 0.63994 0.0
H396 H 0.15447 0.05425 0.3682 0.0
H397 H 0.15377 0.98517 0.63089 0.0
C398 C 0.14979 0.92354 0.56574 0.0
C399 C 0.14564 0.9045 0.48929 0.0
C400 C 0.15248 0.07242 0.42768 0.0
C401 C 0.14769 0.99912 0.49929 0.0
C402 C 0.15406 0.11912 0.43151 0.0
C403 C 0.15165 0.14348 0.50782 0.0
C404 C 0.14883 0.04936 0.50148 0.0
C405 C 0.14757 0.11967 0.57963 0.0
C406 C 0.15066 0.9709 0.57134 0.0
C407 C 0.14271 0.93394 0.41905 0.0
N408 N 0.14646 0.07369 0.57512 0.0
N409 N 0.14391 0.97963 0.42543 0.0
H410 H 0.8658 0.40442 0.50417 0.0
H411 H 0.914 0.59354 0.43597 0.0
H412 H 0.90704 0.37131 0.5349 0.0
H413 H 0.87659 0.62756 0.55206 0.0
H414 H 0.91111 0.51192 0.45109 0.0
H415 H 0.86898 0.48608 0.50209 0.0
C416 C 0.87555 0.41433 0.51075 0.0
C417 C 0.88619 0.38089 0.51993 0.0
C418 C 0.90355 0.53724 0.47338 0.0
C419 C 0.88988 0.47454 0.51559 0.0
C420 C 0.90513 0.58387 0.46429 0.0
C421 C 0.89549 0.61751 0.49257 0.0
C422 C 0.89209 0.52394 0.509 0.0
C423 C 0.88425 0.60282 0.52922 0.0
C424 C 0.87732 0.46098 0.50984 0.0
C425 C 0.89858 0.39586 0.52824 0.0
N426 N 0.88279 0.55715 0.53549 0.0
N427 N 0.90011 0.44157 0.52467 0.0
H428 H 0.88317 0.88627 0.67002 0.0
H429 H 0.88833 0.12021 0.42223 0.0
H430 H 0.89411 0.88526 0.40378 0.0
H431 H 0.90129 0.10157 0.68412 0.0
H432 H 0.88651 0.03717 0.41335 0.0
H433 H 0.88619 0.96807 0.67642 0.0
C434 C 0.8863 0.9033 0.61302 0.0
C435 C 0.88848 0.87897 0.53645 0.0
C436 C 0.88974 0.05139 0.47265 0.0
C437 C 0.89154 0.97295 0.5426 0.0
C438 C 0.89067 0.09872 0.47804 0.0
C439 C 0.89495 0.11774 0.55416 0.0
C440 C 0.89278 0.02315 0.54459 0.0
C441 C 0.89796 0.08828 0.62429 0.0
C442 C 0.88801 0.94993 0.61673 0.0
C443 C 0.89246 0.90272 0.46428 0.0
N444 N 0.8967 0.04262 0.61813 0.0
N445 N 0.89369 0.94863 0.46873 0.0
H446 H 0.13262 0.65329 0.50575 0.0
H447 H 0.16353 0.39297 0.49237 0.0
H448 H 0.17353 0.61637 0.54516 0.0
H449 H 0.12607 0.43017 0.6055 0.0
H450 H 0.16669 0.4749 0.48078 0.0
H451 H 0.12921 0.57128 0.51085 0.0
C452 C 0.14087 0.62802 0.51457 0.0
C453 C 0.15335 0.64172 0.5253 0.0
C454 C 0.15779 0.46499 0.50806 0.0
C455 C 0.1496 0.54813 0.52968 0.0
C456 C 0.15599 0.41833 0.51477 0.0
C457 C 0.14459 0.40472 0.55074 0.0
C458 C 0.14795 0.4983 0.53519 0.0
C459 C 0.13507 0.43911 0.57805 0.0
C460 C 0.13893 0.58132 0.51792 0.0
C461 C 0.16373 0.60739 0.53703 0.0
N462 N 0.13691 0.48426 0.56908 0.0
N463 N 0.16164 0.5623 0.53825 0.0
H464 H 0.66005 0.63134 0.87636 0.0
H465 H 0.65156 0.40001 0.12616 0.0
H466 H 0.64566 0.63551 0.1353 0.0
H467 H 0.64148 0.4164 0.8587 0.0
H468 H 0.65368 0.48294 0.13382 0.0
H469 H 0.65729 0.54927 0.8709 0.0
C470 C 0.65626 0.61493 0.93201 0.0
C471 C 0.65301 0.64028 1.00621 0.0
C472 C 0.65104 0.46823 0.07354 0.0
C473 C 0.65021 0.546 1.00125 0.0
C474 C 0.64995 0.42094 0.0689 0.0
C475 C 0.64637 0.40133 0.99155 0.0
C476 C 0.64889 0.4958 0.99976 0.0
C477 C 0.64426 0.43014 0.91953 0.0
C478 C 0.65469 0.56815 0.9288 0.0
C479 C 0.64818 0.61727 0.07661 0.0
N480 N 0.64567 0.47573 0.92512 0.0
N481 N 0.64708 0.57125 0.07287 0.0
H482 H 0.40725 0.87367 0.06038 0.0
H483 H 0.37555 0.13256 0.04883 0.0
H484 H 0.3671 0.90658 0.99087 0.0
H485 H 0.41401 0.09535 0.951 0.0
H486 H 0.37246 0.05044 0.06073 0.0
H487 H 0.41025 0.95584 0.05405 0.0
C488 C 0.39907 0.89803 0.04424 0.0
C489 C 0.38696 0.88301 1.02533 0.0
C490 C 0.38157 0.06044 0.03677 0.0
C491 C 0.3902 0.97715 1.02035 0.0
C492 C 0.38333 0.1072 0.02994 0.0
C493 C 0.395 0.12087 0.99805 0.0
C494 C 0.3917 0.02713 1.01419 0.0
C495 C 0.40481 0.08643 0.97518 0.0
C496 C 0.40078 0.9449 0.04052 0.0
C497 C 0.37664 0.91647 1.00536 0.0
N498 N 0.40299 0.04127 0.98444 0.0
N499 N 0.37846 0.96186 1.00404 0.0
H500 H 0.39589 0.38634 0.90401 0.0
H501 H 0.40425 0.60571 0.18727 0.0
H502 H 0.38313 0.39374 0.16659 0.0
H503 H 0.39103 0.62203 0.92561 0.0
H504 H 0.40133 0.5236 0.17997 0.0
H505 H 0.39917 0.46863 0.90908 0.0
C506 C 0.39395 0.4051 0.96293 0.0
C507 C 0.38923 0.38327 0.03504 0.0
C508 C 0.39907 0.5452 0.1242 0.0
C509 C 0.39312 0.47678 0.04159 0.0
C510 C 0.40073 0.59197 0.12831 0.0
C511 C 0.39779 0.62077 0.05718 0.0
C512 C 0.39485 0.52661 0.0475 0.0
C513 C 0.3933 0.6011 0.98219 0.0
C514 C 0.39572 0.45201 0.96556 0.0
C515 C 0.38676 0.4093 0.10955 0.0
N516 N 0.3921 0.55515 0.97891 0.0
N517 N 0.38884 0.45444 0.11119 0.0
H518 H 0.65533 0.12968 0.17486 0.0
H519 H 0.65073 0.89956 0.91928 0.0
H520 H 0.64581 0.13499 0.9057 0.0
H521 H 0.63556 0.91578 0.17533 0.0
H522 H 0.653 0.98246 0.91371 0.0
H523 H 0.65187 0.04807 0.17779 0.0
C524 C 0.65243 0.11365 0.11645 0.0
C525 C 0.65076 0.13919 0.0401 0.0
C526 C 0.64918 0.96775 0.971 0.0
C527 C 0.64721 0.04538 0.04239 0.0
C528 C 0.64798 0.92048 0.97452 0.0
C529 C 0.64295 0.90077 0.04797 0.0
C530 C 0.64567 0.99527 0.04233 0.0
C531 C 0.63946 0.92957 0.11746 0.0
C532 C 0.65046 0.06713 0.1182 0.0
C533 C 0.64707 0.11664 0.96609 0.0
N534 N 0.64101 0.97516 0.11334 0.0
N535 N 0.64559 0.07083 0.96873 0.0
H536 H 0.16701 0.30144 0.25143 0.0
H537 H 0.12859 0.24754 0.82319 0.0
H538 H 0.12973 0.24774 0.25142 0.0
H539 H 0.16765 0.28664 0.82382 0.0
H540 H 0.12867 0.24892 0.97965 0.0
H541 H 0.16718 0.2982 0.09495 0.0
C542 C 0.15883 0.28906 0.21863 0.0
C543 C 0.14832 0.27493 0.26493 0.0
C544 C 0.13725 0.25707 0.94564 0.0
C545 C 0.14848 0.27108 0.08518 0.0
C546 C 0.13722 0.25631 0.85608 0.0
C547 C 0.14814 0.26702 0.80988 0.0
C548 C 0.14825 0.2689 0.98981 0.0
C549 C 0.15902 0.27806 0.85647 0.0
C550 C 0.15896 0.2871 0.12912 0.0
C551 C 0.13804 0.25904 0.21862 0.0
N552 N 0.15877 0.27887 0.94371 0.0
N553 N 0.13837 0.25764 0.13145 0.0
H554 H 0.87236 0.22288 0.25255 0.0
H555 H 0.91092 0.27541 0.82461 0.0
H556 H 0.90947 0.27772 0.25325 0.0
H557 H 0.87202 0.2348 0.82489 0.0
H558 H 0.91076 0.27504 0.9812 0.0
H559 H 0.87231 0.22533 0.09604 0.0
C560 C 0.88052 0.23541 0.21989 0.0
C561 C 0.89095 0.25005 0.26641 0.0
C562 C 0.90225 0.26632 0.94704 0.0
C563 C 0.89095 0.25293 0.08653 0.0
C564 C 0.90232 0.26649 0.85744 0.0
C565 C 0.89146 0.25509 0.81113 0.0
C566 C 0.89126 0.25442 0.9911 0.0
C567 C 0.88061 0.24389 0.85761 0.0
C568 C 0.88046 0.23688 0.13035 0.0
C569 C 0.90122 0.26606 0.22025 0.0
N570 N 0.88081 0.2437 0.94486 0.0
N571 N 0.90097 0.26697 0.13299 0.0
H572 H 0.12931 0.74781 0.21909 0.0
H573 H 0.1681 0.79891 0.79124 0.0
H574 H 0.16839 0.7867 0.21898 0.0
H575 H 0.13074 0.74585 0.79043 0.0
H576 H 0.16813 0.79643 0.94778 0.0
H577 H 0.12946 0.74837 0.06248 0.0
C578 C 0.13794 0.75638 0.18629 0.0
C579 C 0.14886 0.76724 0.23266 0.0
C580 C 0.15993 0.78528 0.91344 0.0
C581 C 0.14905 0.76814 0.05267 0.0
C582 C 0.15989 0.78677 0.82387 0.0
C583 C 0.14939 0.77263 0.7773 0.0
C584 C 0.14938 0.7697 0.95722 0.0
C585 C 0.13905 0.75711 0.82344 0.0
C586 C 0.13802 0.75667 0.09668 0.0
C587 C 0.15975 0.77802 0.18622 0.0
N588 N 0.13929 0.75616 0.91071 0.0
N589 N 0.15955 0.77833 0.09897 0.0
H590 H 0.91066 0.7743 0.7897 0.0
H591 H 0.87143 0.73665 0.22254 0.0
H592 H 0.8732 0.72206 0.79488 0.0
H593 H 0.91073 0.77335 0.21794 0.0
H594 H 0.87142 0.73506 0.06583 0.0
H595 H 0.91044 0.77759 0.94621 0.0
C596 C 0.90239 0.76343 0.82363 0.0
C597 C 0.89195 0.74775 0.77879 0.0
C598 C 0.88004 0.74352 0.09912 0.0
C599 C 0.8916 0.75169 0.95853 0.0
C600 C 0.88004 0.74458 0.18874 0.0
C601 C 0.8911 0.75511 0.23386 0.0
C602 C 0.89116 0.75323 0.05392 0.0
C603 C 0.90198 0.76497 0.1862 0.0
C604 C 0.90227 0.76534 0.91315 0.0
C605 C 0.88149 0.73424 0.82654 0.0
N606 N 0.90173 0.76378 0.09904 0.0
N607 N 0.88158 0.73659 0.91365 0.0
H608 H 0.66737 0.78872 0.31571 0.0
H609 H 0.62999 0.73996 0.75069 0.0
H610 H 0.62884 0.74496 0.32239 0.0
H611 H 0.66604 0.80185 0.74378 0.0
H612 H 0.62993 0.73791 0.59413 0.0
H613 H 0.6676 0.78986 0.47234 0.0
C614 C 0.65896 0.7792 0.34994 0.0
C615 C 0.64806 0.76672 0.30541 0.0
C616 C 0.63785 0.752 0.62679 0.0
C617 C 0.64827 0.76801 0.48539 0.0
C618 C 0.63791 0.75315 0.71635 0.0
C619 C 0.64803 0.77119 0.76074 0.0
C620 C 0.64803 0.76875 0.58086 0.0
C621 C 0.65801 0.78774 0.71247 0.0
C622 C 0.65909 0.78 0.43955 0.0
C623 C 0.63745 0.75488 0.35367 0.0
N624 N 0.65777 0.78604 0.62528 0.0
N625 N 0.63784 0.75576 0.44086 0.0
H626 H 0.41069 0.78354 0.76173 0.0
H627 H 0.37395 0.7317 0.32561 0.0
H628 H 0.37454 0.72239 0.7538 0.0
H629 H 0.41252 0.77506 0.33317 0.0
H630 H 0.37355 0.73163 0.48204 0.0
H631 H 0.41106 0.78424 0.60508 0.0
C632 C 0.4028 0.77031 0.72716 0.0
C633 C 0.39256 0.75285 0.7713 0.0
C634 C 0.38211 0.74114 0.44956 0.0
C635 C 0.39293 0.75364 0.5913 0.0
C636 C 0.38235 0.74129 0.35999 0.0
C637 C 0.3933 0.75343 0.3157 0.0
C638 C 0.39287 0.75344 0.49575 0.0
C639 C 0.40388 0.76541 0.36427 0.0
C640 C 0.40304 0.77065 0.63755 0.0
C641 C 0.38264 0.73611 0.72271 0.0
N642 N 0.40339 0.76519 0.45151 0.0
N643 N 0.38307 0.737 0.63549 0.0
H644 H 0.62921 0.24663 0.29412 0.0
H645 H 0.66907 0.28104 0.72692 0.0
H646 H 0.6672 0.29493 0.29909 0.0
H647 H 0.6296 0.24598 0.72228 0.0
H648 H 0.66898 0.28269 0.57008 0.0
H649 H 0.62952 0.24316 0.45084 0.0
C650 C 0.63761 0.2566 0.32805 0.0
C651 C 0.64818 0.2712 0.28314 0.0
C652 C 0.66035 0.27456 0.60342 0.0
C653 C 0.64863 0.26706 0.4629 0.0
C654 C 0.6604 0.27347 0.69308 0.0
C655 C 0.64932 0.2634 0.73815 0.0
C656 C 0.64914 0.26539 0.55826 0.0
C657 C 0.63837 0.254 0.69053 0.0
C658 C 0.63778 0.25458 0.41764 0.0
C659 C 0.6588 0.28358 0.3308 0.0
N660 N 0.63856 0.25525 0.6034 0.0
N661 N 0.65876 0.28117 0.4179 0.0
H662 H 0.37263 0.22624 0.29514 0.0
H663 H 0.41156 0.27601 0.72345 0.0
H664 H 0.41031 0.27694 0.29536 0.0
H665 H 0.37219 0.23993 0.7228 0.0
H666 H 0.41146 0.27475 0.56702 0.0
H667 H 0.37254 0.22887 0.45165 0.0
C668 C 0.38091 0.23785 0.328 0.0
C669 C 0.39151 0.25133 0.28176 0.0
C670 C 0.40283 0.26722 0.60102 0.0
C671 C 0.39145 0.25447 0.46151 0.0
C672 C 0.40287 0.26791 0.69055 0.0
C673 C 0.39186 0.25805 0.73672 0.0
C674 C 0.39172 0.25634 0.55685 0.0
C675 C 0.38089 0.24785 0.69014 0.0
C676 C 0.38083 0.23945 0.41751 0.0
C677 C 0.40193 0.26619 0.32812 0.0
N678 N 0.38112 0.24712 0.60291 0.0
N679 N 0.40164 0.26728 0.41531 0.0
H680 H 0.05397 0.19708 0.4299 0.0
H681 H 0.98589 0.31638 0.60102 0.0
H682 H 0.05028 0.31977 0.58263 0.0
H683 H 0.98898 0.21048 0.40901 0.0
H684 H 1.00947 0.31566 0.60053 0.0
H685 H 0.03028 0.19802 0.42901 0.0
C686 C 0.0482 0.22408 0.46361 0.0
C687 C 0.05418 0.2585 0.5061 0.0
C688 C 1.00498 0.29262 0.55838 0.0
C689 C 0.02698 0.25988 0.50515 0.0
C690 C 0.99146 0.29323 0.55811 0.0
C691 C 0.98528 0.26345 0.50495 0.0
C692 C 1.01252 0.26183 0.50554 0.0
C693 C 0.99321 0.23359 0.45224 0.0
C694 C 0.03465 0.22478 0.46261 0.0
C695 C 0.04614 0.29288 0.54799 0.0
N696 N 1.00635 0.23347 0.45408 0.0
N697 N 0.03301 0.29261 0.54662 0.0
H698 H 0.9894 0.71042 0.63677 0.0
H699 H 0.05098 0.82672 0.46056 0.0
H700 H 0.9866 0.8186 0.44638 0.0
H701 H 0.05424 0.70208 0.61102 0.0
H702 H 0.02736 0.82752 0.46281 0.0
H703 H 1.01297 0.70998 0.63564 0.0
C704 C 0.99368 0.73399 0.5943 0.0
C705 C 0.98582 0.76442 0.54113 0.0
C706 C 0.03323 0.79995 0.49534 0.0
C707 C 1.01306 0.76452 0.54087 0.0
C708 C 0.04675 0.79959 0.49453 0.0
C709 C 0.0547 0.76433 0.53593 0.0
C710 C 0.02748 0.765 0.53844 0.0
C711 C 0.04857 0.72976 0.57762 0.0
C712 C 1.0072 0.73382 0.5941 0.0
C713 C 0.9921 0.79484 0.48933 0.0
N714 N 0.03537 0.73108 0.57813 0.0
N715 N 1.00529 0.79407 0.49051 0.0
H716 H 0.55174 0.82897 0.03617 0.0
H717 H 0.48932 0.69003 0.0715 0.0
H718 H 0.55418 0.68545 0.10511 0.0
H719 H 0.48714 0.8379 0.07037 0.0
H720 H 0.51298 0.68698 0.07839 0.0
H721 H 0.52812 0.83233 0.04253 0.0
C722 C 0.5474 0.7982 0.05366 0.0
C723 C 0.55517 0.75681 0.07005 0.0
C724 C 0.50731 0.72008 0.07692 0.0
C725 C 0.52784 0.76035 0.07545 0.0
C726 C 0.49373 0.72192 0.07357 0.0
C727 C 0.48602 0.76432 0.06981 0.0
C728 C 0.51336 0.76089 0.07585 0.0
C729 C 0.49252 0.8043 0.0712 0.0
C730 C 0.53383 0.80014 0.05665 0.0
C731 C 0.54873 0.71802 0.09038 0.0
N732 N 0.50573 0.80157 0.07354 0.0
N733 N 0.53552 0.7207 0.09203 0.0
H734 H 0.4893 0.21546 0.14586 0.0
H735 H 0.55077 0.32416 0.94933 0.0
H736 H 0.4864 0.31763 0.94417 0.0
H737 H 0.55402 0.20616 0.11764 0.0
H738 H 0.52715 0.32542 0.95345 0.0
H739 H 0.51288 0.2146 0.14272 0.0
C740 C 0.49358 0.23763 0.10057 0.0
C741 C 0.48572 0.26651 0.04484 0.0
C742 C 0.53302 0.2992 0.98946 0.0
C743 C 0.5129 0.26611 0.042 0.0
C744 C 0.54652 0.2986 0.98754 0.0
C745 C 0.55445 0.26507 0.03347 0.0
C746 C 0.52729 0.26623 0.03814 0.0
C747 C 0.54834 0.23241 0.08064 0.0
C748 C 0.50709 0.23723 0.09916 0.0
C749 C 0.49194 0.29516 0.98915 0.0
N750 N 0.53516 0.23393 0.08205 0.0
N751 N 0.50512 0.29419 0.98914 0.0
loop_
_geom_bond_atom_site_label_1
_geom_bond_atom_site_label_2
_geom_bond_distance
_geom_bond_site_symmetry_2
_ccdc_geom_bond_type
La0 C2 2.928 . S
La0 O20 2.521 . S
La0 O21 2.628 . S
La0 O22 2.554 . S
La0 O23 2.757 . S
La0 O24 2.470 . S
La0 O29 2.482 . S
La0 O31 2.503 . S
La1 C11 2.928 . S
La1 O23 2.482 . S
La1 O25 2.503 . S
La1 O26 2.521 . S
La1 O27 2.628 . S
La1 O28 2.554 . S
La1 O29 2.757 . S
La1 O30 2.470 . S
C2 La0 2.928 . S
C2 C3 1.503 . S
C2 O20 1.261 . S
C2 O21 1.243 . S
C3 C2 1.503 . S
C3 C4 1.394 . S
C3 C8 1.373 . S
C4 C3 1.394 . S
C4 C5 1.380 . S
C4 H32 0.930 . S
C5 C4 1.380 . S
C5 C6 1.376 . S
C5 H33 0.930 . S
C6 C5 1.376 . S
C6 C7 1.370 . S
C7 C6 1.370 . S
C7 C8 1.396 . S
C7 H34 0.929 . S
C8 C3 1.373 . S
C8 C7 1.396 . S
C8 H35 0.929 . S
C9 O22 1.240 . S
C9 O23 1.289 . S
C10 O24 1.258 . S
C10 O25 1.256 . S
C11 La1 2.928 . S
C11 C12 1.503 . S
C11 O26 1.261 . S
C11 O27 1.243 . S
C12 C11 1.503 . S
C12 C13 1.394 . S
C12 C17 1.373 . S
C13 C12 1.394 . S
C13 C14 1.380 . S
C13 H36 0.930 . S
C14 C13 1.380 . S
C14 C15 1.376 . S
C14 H37 0.930 . S
C15 C14 1.376 . S
C15 C16 1.370 . S
C16 C15 1.370 . S
C16 C17 1.396 . S
C16 H38 0.929 . S
C17 C12 1.373 . S
C17 C16 1.396 . S
C17 H39 0.929 . S
C18 O28 1.240 . S
C18 O29 1.289 . S
C19 O30 1.258 . S
C19 O31 1.256 . S
O20 La0 2.521 . S
O20 C2 1.261 . S
O21 La0 2.628 . S
O21 C2 1.243 . S
O22 La0 2.554 . S
O22 C9 1.240 . S
O23 La0 2.757 . S
O23 La1 2.482 . S
O23 C9 1.289 . S
O24 La0 2.470 . S
O24 C10 1.258 . S
O25 La1 2.503 . S
O25 C10 1.256 . S
O26 La1 2.521 . S
O26 C11 1.261 . S
O27 La1 2.628 . S
O27 C11 1.243 . S
O28 La1 2.554 . S
O28 C18 1.240 . S
O29 La0 2.482 . S
O29 La1 2.757 . S
O29 C18 1.289 . S
O30 La1 2.470 . S
O30 C19 1.258 . S
O31 La0 2.503 . S
O31 C19 1.256 . S
H32 C4 0.930 . S
H33 C5 0.930 . S
H34 C7 0.929 . S
H35 C8 0.929 . S
H36 C13 0.930 . S
H37 C14 0.930 . S
H38 C16 0.929 . S
H39 C17 0.929 . S
La40 C42 2.928 . S
La40 O60 2.521 . S
La40 O61 2.628 . S
La40 O62 2.554 . S
La40 O63 2.757 . S
La40 O64 2.470 . S
La40 O69 2.482 . S
La40 O71 2.503 . S
La41 C51 2.928 . S
La41 O63 2.482 . S
La41 O65 2.503 . S
La41 O66 2.521 . S
La41 O67 2.628 . S
La41 O68 2.554 . S
La41 O69 2.757 . S
La41 O70 2.470 . S
C42 La40 2.928 . S
C42 C43 1.503 . S
C42 O60 1.261 . S
C42 O61 1.243 . S
C43 C42 1.503 . S
C43 C44 1.394 . S
C43 C48 1.373 . S
C44 C43 1.394 . S
C44 C45 1.380 . S
C44 H72 0.930 . S
C45 C44 1.380 . S
C45 C46 1.376 . S
C45 H73 0.930 . S
C46 C45 1.376 . S
C46 C47 1.370 . S
C47 C46 1.370 . S
C47 C48 1.396 . S
C47 H74 0.929 . S
C48 C43 1.373 . S
C48 C47 1.396 . S
C48 H75 0.929 . S
C49 O62 1.240 . S
C49 O63 1.289 . S
C50 O64 1.258 . S
C50 O65 1.256 . S
C51 La41 2.928 . S
C51 C52 1.503 . S
C51 O66 1.261 . S
C51 O67 1.243 . S
C52 C51 1.503 . S
C52 C53 1.394 . S
C52 C57 1.373 . S
C53 C52 1.394 . S
C53 C54 1.380 . S
C53 H76 0.930 . S
C54 C53 1.380 . S
C54 C55 1.376 . S
C54 H77 0.930 . S
C55 C54 1.376 . S
C55 C56 1.370 . S
C56 C55 1.370 . S
C56 C57 1.396 . S
C56 H78 0.929 . S
C57 C52 1.373 . S
C57 C56 1.396 . S
C57 H79 0.929 . S
C58 O68 1.240 . S
C58 O69 1.289 . S
C59 O70 1.258 . S
C59 O71 1.256 . S
O60 La40 2.521 . S
O60 C42 1.261 . S
O61 La40 2.628 . S
O61 C42 1.243 . S
O62 La40 2.554 . S
O62 C49 1.240 . S
O63 La40 2.757 . S
O63 La41 2.482 . S
O63 C49 1.289 . S
O64 La40 2.470 . S
O64 C50 1.258 . S
O65 La41 2.503 . S
O65 C50 1.256 . S
O66 La41 2.521 . S
O66 C51 1.261 . S
O67 La41 2.628 . S
O67 C51 1.243 . S
O68 La41 2.554 . S
O68 C58 1.240 . S
O69 La40 2.482 . S
O69 La41 2.757 . S
O69 C58 1.289 . S
O70 La41 2.470 . S
O70 C59 1.258 . S
O71 La40 2.503 . S
O71 C59 1.256 . S
H72 C44 0.930 . S
H73 C45 0.930 . S
H74 C47 0.929 . S
H75 C48 0.929 . S
H76 C53 0.930 . S
H77 C54 0.930 . S
H78 C56 0.929 . S
H79 C57 0.929 . S
La80 C82 2.928 . S
La80 O100 2.521 . S
La80 O101 2.628 . S
La80 O102 2.554 . S
La80 O103 2.757 . S
La80 O104 2.470 . S
La80 O109 2.482 . S
La80 O111 2.503 . S
La81 C91 2.928 . S
La81 O103 2.482 . S
La81 O105 2.503 . S
La81 O106 2.521 . S
La81 O107 2.628 . S
La81 O108 2.554 . S
La81 O109 2.757 . S
La81 O110 2.470 . S
C82 La80 2.928 . S
C82 C83 1.503 . S
C82 O100 1.261 . S
C82 O101 1.243 . S
C83 C82 1.503 . S
C83 C84 1.394 . S
C83 C88 1.373 . S
C84 C83 1.394 . S
C84 C85 1.380 . S
C84 H112 0.930 . S
C85 C84 1.380 . S
C85 C86 1.376 . S
C85 H113 0.930 . S
C86 C85 1.376 . S
C86 C87 1.370 . S
C87 C86 1.370 . S
C87 C88 1.396 . S
C87 H114 0.929 . S
C88 C83 1.373 . S
C88 C87 1.396 . S
C88 H115 0.929 . S
C89 O102 1.240 . S
C89 O103 1.289 . S
C90 O104 1.258 . S
C90 O105 1.256 . S
C91 La81 2.928 . S
C91 C92 1.503 . S
C91 O106 1.261 . S
C91 O107 1.243 . S
C92 C91 1.503 . S
C92 C93 1.394 . S
C92 C97 1.373 . S
C93 C92 1.394 . S
C93 C94 1.380 . S
C93 H116 0.930 . S
C94 C93 1.380 . S
C94 C95 1.376 . S
C94 H117 0.930 . S
C95 C94 1.376 . S
C95 C96 1.370 . S
C96 C95 1.370 . S
C96 C97 1.396 . S
C96 H118 0.929 . S
C97 C92 1.373 . S
C97 C96 1.396 . S
C97 H119 0.929 . S
C98 O108 1.240 . S
C98 O109 1.289 . S
C99 O110 1.258 . S
C99 O111 1.256 . S
O100 La80 2.521 . S
O100 C82 1.261 . S
O101 La80 2.628 . S
O101 C82 1.243 . S
O102 La80 2.554 . S
O102 C89 1.240 . S
O103 La80 2.757 . S
O103 La81 2.482 . S
O103 C89 1.289 . S
O104 La80 2.470 . S
O104 C90 1.258 . S
O105 La81 2.503 . S
O105 C90 1.256 . S
O106 La81 2.521 . S
O106 C91 1.261 . S
O107 La81 2.628 . S
O107 C91 1.243 . S
O108 La81 2.554 . S
O108 C98 1.240 . S
O109 La80 2.482 . S
O109 La81 2.757 . S
O109 C98 1.289 . S
O110 La81 2.470 . S
O110 C99 1.258 . S
O111 La80 2.503 . S
O111 C99 1.256 . S
H112 C84 0.930 . S
H113 C85 0.930 . S
H114 C87 0.929 . S
H115 C88 0.929 . S
H116 C93 0.930 . S
H117 C94 0.930 . S
H118 C96 0.929 . S
H119 C97 0.929 . S
La120 C122 2.928 . S
La120 O140 2.521 . S
La120 O141 2.628 . S
La120 O142 2.554 . S
La120 O143 2.757 . S
La120 O144 2.470 . S
La120 O149 2.482 . S
La120 O151 2.503 . S
La121 C131 2.928 . S
La121 O143 2.482 . S
La121 O145 2.503 . S
La121 O146 2.521 . S
La121 O147 2.628 . S
La121 O148 2.554 . S
La121 O149 2.757 . S
La121 O150 2.470 . S
C122 La120 2.928 . S
C122 C123 1.503 . S
C122 O140 1.261 . S
C122 O141 1.243 . S
C123 C122 1.503 . S
C123 C124 1.394 . S
C123 C128 1.373 . S
C124 C123 1.394 . S
C124 C125 1.380 . S
C124 H152 0.930 . S
C125 C124 1.380 . S
C125 C126 1.376 . S
C125 H153 0.930 . S
C126 C125 1.376 . S
C126 C127 1.370 . S
C127 C126 1.370 . S
C127 C128 1.396 . S
C127 H154 0.929 . S
C128 C123 1.373 . S
C128 C127 1.396 . S
C128 H155 0.929 . S
C129 O142 1.240 . S
C129 O143 1.289 . S
C130 O144 1.258 . S
C130 O145 1.256 . S
C131 La121 2.928 . S
C131 C132 1.503 . S
C131 O146 1.261 . S
C131 O147 1.243 . S
C132 C131 1.503 . S
C132 C133 1.394 . S
C132 C137 1.373 . S
C133 C132 1.394 . S
C133 C134 1.380 . S
C133 H156 0.930 . S
C134 C133 1.380 . S
C134 C135 1.376 . S
C134 H157 0.930 . S
C135 C134 1.376 . S
C135 C136 1.370 . S
C136 C135 1.370 . S
C136 C137 1.396 . S
C136 H158 0.929 . S
C137 C132 1.373 . S
C137 C136 1.396 . S
C137 H159 0.929 . S
C138 O148 1.240 . S
C138 O149 1.289 . S
C139 O150 1.258 . S
C139 O151 1.256 . S
O140 La120 2.521 . S
O140 C122 1.261 . S
O141 La120 2.628 . S
O141 C122 1.243 . S
O142 La120 2.554 . S
O142 C129 1.240 . S
O143 La120 2.757 . S
O143 La121 2.482 . S
O143 C129 1.289 . S
O144 La120 2.470 . S
O144 C130 1.258 . S
O145 La121 2.503 . S
O145 C130 1.256 . S
O146 La121 2.521 . S
O146 C131 1.261 . S
O147 La121 2.628 . S
O147 C131 1.243 . S
O148 La121 2.554 . S
O148 C138 1.240 . S
O149 La120 2.482 . S
O149 La121 2.757 . S
O149 C138 1.289 . S
O150 La121 2.470 . S
O150 C139 1.258 . S
O151 La120 2.503 . S
O151 C139 1.256 . S
H152 C124 0.930 . S
H153 C125 0.930 . S
H154 C127 0.929 . S
H155 C128 0.929 . S
H156 C133 0.930 . S
H157 C134 0.930 . S
H158 C136 0.929 . S
H159 C137 0.929 . S
La160 C162 2.928 1_556 S
La160 O180 2.521 1_556 S
La160 O181 2.628 1_556 S
La160 O182 2.554 . S
La160 O183 2.757 . S
La160 O184 2.470 1_556 S
La160 O189 2.482 1_556 S
La160 O191 2.503 . S
La161 C171 2.928 1_554 S
La161 O183 2.482 1_554 S
La161 O185 2.503 . S
La161 O186 2.521 1_554 S
La161 O187 2.628 1_554 S
La161 O188 2.554 . S
La161 O189 2.757 . S
La161 O190 2.470 1_554 S
C162 La160 2.928 1_554 S
C162 C163 1.503 . S
C162 O180 1.261 . S
C162 O181 1.243 . S
C163 C162 1.503 . S
C163 C164 1.394 . S
C163 C168 1.373 . S
C164 C163 1.394 . S
C164 C165 1.380 . S
C164 H192 0.930 . S
C165 C164 1.380 . S
C165 C166 1.376 . S
C165 H193 0.930 . S
C166 C165 1.376 . S
C166 C167 1.370 . S
C167 C166 1.370 . S
C167 C168 1.396 . S
C167 H194 0.929 . S
C168 C163 1.373 . S
C168 C167 1.396 . S
C168 H195 0.929 . S
C169 O182 1.240 . S
C169 O183 1.289 . S
C170 O184 1.258 . S
C170 O185 1.256 . S
C171 La161 2.928 1_556 S
C171 C172 1.503 . S
C171 O186 1.261 . S
C171 O187 1.243 . S
C172 C171 1.503 . S
C172 C173 1.394 . S
C172 C177 1.373 . S
C173 C172 1.394 . S
C173 C174 1.380 . S
C173 H196 0.930 . S
C174 C173 1.380 . S
C174 C175 1.376 . S
C174 H197 0.930 . S
C175 C174 1.376 . S
C175 C176 1.370 . S
C176 C175 1.370 . S
C176 C177 1.396 . S
C176 H198 0.929 . S
C177 C172 1.373 . S
C177 C176 1.396 . S
C177 H199 0.929 . S
C178 O188 1.240 . S
C178 O189 1.289 . S
C179 O190 1.258 . S
C179 O191 1.256 . S
O180 La160 2.521 1_554 S
O180 C162 1.261 . S
O181 La160 2.628 1_554 S
O181 C162 1.243 . S
O182 La160 2.554 . S
O182 C169 1.240 . S
O183 La160 2.757 . S
O183 La161 2.482 1_556 S
O183 C169 1.289 . S
O184 La160 2.470 1_554 S
O184 C170 1.258 . S
O185 La161 2.503 . S
O185 C170 1.256 . S
O186 La161 2.521 1_556 S
O186 C171 1.261 . S
O187 La161 2.628 1_556 S
O187 C171 1.243 . S
O188 La161 2.554 . S
O188 C178 1.240 . S
O189 La160 2.482 1_554 S
O189 La161 2.757 . S
O189 C178 1.289 . S
O190 La161 2.470 1_556 S
O190 C179 1.258 . S
O191 La160 2.503 . S
O191 C179 1.256 . S
H192 C164 0.930 . S
H193 C165 0.930 . S
H194 C167 0.929 . S
H195 C168 0.929 . S
H196 C173 0.930 . S
H197 C174 0.930 . S
H198 C176 0.929 . S
H199 C177 0.929 . S
La200 C202 2.928 1_556 S
La200 O220 2.521 1_556 S
La200 O221 2.628 1_556 S
La200 O222 2.554 . S
La200 O223 2.757 . S
La200 O224 2.470 1_556 S
La200 O229 2.482 1_556 S
La200 O231 2.503 . S
La201 C211 2.928 1_554 S
La201 O223 2.482 1_554 S
La201 O225 2.503 . S
La201 O226 2.521 1_554 S
La201 O227 2.628 1_554 S
La201 O228 2.554 . S
La201 O229 2.757 . S
La201 O230 2.470 1_554 S
C202 La200 2.928 1_554 S
C202 C203 1.503 . S
C202 O220 1.261 . S
C202 O221 1.243 . S
C203 C202 1.503 . S
C203 C204 1.394 . S
C203 C208 1.373 . S
C204 C203 1.394 . S
C204 C205 1.380 . S
C204 H232 0.930 . S
C205 C204 1.380 . S
C205 C206 1.376 . S
C205 H233 0.930 . S
C206 C205 1.376 . S
C206 C207 1.370 . S
C207 C206 1.370 . S
C207 C208 1.396 . S
C207 H234 0.929 . S
C208 C203 1.373 . S
C208 C207 1.396 . S
C208 H235 0.929 . S
C209 O222 1.240 . S
C209 O223 1.289 . S
C210 O224 1.258 . S
C210 O225 1.256 . S
C211 La201 2.928 1_556 S
C211 C212 1.503 . S
C211 O226 1.261 . S
C211 O227 1.243 . S
C212 C211 1.503 . S
C212 C213 1.394 . S
C212 C217 1.373 . S
C213 C212 1.394 . S
C213 C214 1.380 . S
C213 H236 0.930 . S
C214 C213 1.380 . S
C214 C215 1.376 . S
C214 H237 0.930 . S
C215 C214 1.376 . S
C215 C216 1.370 . S
C216 C215 1.370 . S
C216 C217 1.396 . S
C216 H238 0.929 . S
C217 C212 1.373 . S
C217 C216 1.396 . S
C217 H239 0.929 . S
C218 O228 1.240 . S
C218 O229 1.289 . S
C219 O230 1.258 . S
C219 O231 1.256 . S
O220 La200 2.521 1_554 S
O220 C202 1.261 . S
O221 La200 2.628 1_554 S
O221 C202 1.243 . S
O222 La200 2.554 . S
O222 C209 1.240 . S
O223 La200 2.757 . S
O223 La201 2.482 1_556 S
O223 C209 1.289 . S
O224 La200 2.470 1_554 S
O224 C210 1.258 . S
O225 La201 2.503 . S
O225 C210 1.256 . S
O226 La201 2.521 1_556 S
O226 C211 1.261 . S
O227 La201 2.628 1_556 S
O227 C211 1.243 . S
O228 La201 2.554 . S
O228 C218 1.240 . S
O229 La200 2.482 1_554 S
O229 La201 2.757 . S
O229 C218 1.289 . S
O230 La201 2.470 1_556 S
O230 C219 1.258 . S
O231 La200 2.503 . S
O231 C219 1.256 . S
H232 C204 0.930 . S
H233 C205 0.930 . S
H234 C207 0.929 . S
H235 C208 0.929 . S
H236 C213 0.930 . S
H237 C214 0.930 . S
H238 C216 0.929 . S
H239 C217 0.929 . S
La240 C242 2.928 1_556 S
La240 O260 2.521 1_556 S
La240 O261 2.628 1_556 S
La240 O262 2.554 . S
La240 O263 2.757 . S
La240 O264 2.470 1_556 S
La240 O269 2.482 1_556 S
La240 O271 2.503 . S
La241 C251 2.928 1_554 S
La241 O263 2.482 1_554 S
La241 O265 2.503 . S
La241 O266 2.521 1_554 S
La241 O267 2.628 1_554 S
La241 O268 2.554 . S
La241 O269 2.757 . S
La241 O270 2.470 1_554 S
C242 La240 2.928 1_554 S
C242 C243 1.503 . S
C242 O260 1.261 . S
C242 O261 1.243 . S
C243 C242 1.503 . S
C243 C244 1.394 . S
C243 C248 1.373 . S
C244 C243 1.394 . S
C244 C245 1.380 . S
C244 H272 0.930 . S
C245 C244 1.380 . S
C245 C246 1.376 . S
C245 H273 0.930 . S
C246 C245 1.376 . S
C246 C247 1.370 . S
C247 C246 1.370 . S
C247 C248 1.396 . S
C247 H274 0.929 . S
C248 C243 1.373 . S
C248 C247 1.396 . S
C248 H275 0.929 . S
C249 O262 1.240 . S
C249 O263 1.289 . S
C250 O264 1.258 . S
C250 O265 1.256 . S
C251 La241 2.928 1_556 S
C251 C252 1.503 . S
C251 O266 1.261 . S
C251 O267 1.243 . S
C252 C251 1.503 . S
C252 C253 1.394 . S
C252 C257 1.373 . S
C253 C252 1.394 . S
C253 C254 1.380 . S
C253 H276 0.930 . S
C254 C253 1.380 . S
C254 C255 1.376 . S
C254 H277 0.930 . S
C255 C254 1.376 . S
C255 C256 1.370 . S
C256 C255 1.370 . S
C256 C257 1.396 . S
C256 H278 0.929 . S
C257 C252 1.373 . S
C257 C256 1.396 . S
C257 H279 0.929 . S
C258 O268 1.240 . S
C258 O269 1.289 . S
C259 O270 1.258 . S
C259 O271 1.256 . S
O260 La240 2.521 1_554 S
O260 C242 1.261 . S
O261 La240 2.628 1_554 S
O261 C242 1.243 . S
O262 La240 2.554 . S
O262 C249 1.240 . S
O263 La240 2.757 . S
O263 La241 2.482 1_556 S
O263 C249 1.289 . S
O264 La240 2.470 1_554 S
O264 C250 1.258 . S
O265 La241 2.503 . S
O265 C250 1.256 . S
O266 La241 2.521 1_556 S
O266 C251 1.261 . S
O267 La241 2.628 1_556 S
O267 C251 1.243 . S
O268 La241 2.554 . S
O268 C258 1.240 . S
O269 La240 2.482 1_554 S
O269 La241 2.757 . S
O269 C258 1.289 . S
O270 La241 2.470 1_556 S
O270 C259 1.258 . S
O271 La240 2.503 . S
O271 C259 1.256 . S
H272 C244 0.930 . S
H273 C245 0.930 . S
H274 C247 0.929 . S
H275 C248 0.929 . S
H276 C253 0.930 . S
H277 C254 0.930 . S
H278 C256 0.929 . S
H279 C257 0.929 . S
La280 C282 2.928 1_556 S
La280 O300 2.521 1_556 S
La280 O301 2.628 1_556 S
La280 O302 2.554 . S
La280 O303 2.757 . S
La280 O304 2.470 1_556 S
La280 O309 2.482 1_556 S
La280 O311 2.503 . S
La281 C291 2.928 1_554 S
La281 O303 2.482 1_554 S
La281 O305 2.503 . S
La281 O306 2.521 1_554 S
La281 O307 2.628 1_554 S
La281 O308 2.554 . S
La281 O309 2.757 . S
La281 O310 2.470 1_554 S
C282 La280 2.928 1_554 S
C282 C283 1.503 . S
C282 O300 1.261 . S
C282 O301 1.243 . S
C283 C282 1.503 . S
C283 C284 1.394 . S
C283 C288 1.373 . S
C284 C283 1.394 . S
C284 C285 1.380 . S
C284 H312 0.930 . S
C285 C284 1.380 . S
C285 C286 1.376 . S
C285 H313 0.930 . S
C286 C285 1.376 . S
C286 C287 1.370 . S
C287 C286 1.370 . S
C287 C288 1.396 . S
C287 H314 0.929 . S
C288 C283 1.373 . S
C288 C287 1.396 . S
C288 H315 0.929 . S
C289 O302 1.240 . S
C289 O303 1.289 . S
C290 O304 1.258 . S
C290 O305 1.256 . S
C291 La281 2.928 1_556 S
C291 C292 1.503 . S
C291 O306 1.261 . S
C291 O307 1.243 . S
C292 C291 1.503 . S
C292 C293 1.394 . S
C292 C297 1.373 . S
C293 C292 1.394 . S
C293 C294 1.380 . S
C293 H316 0.930 . S
C294 C293 1.380 . S
C294 C295 1.376 . S
C294 H317 0.930 . S
C295 C294 1.376 . S
C295 C296 1.370 . S
C296 C295 1.370 . S
C296 C297 1.396 . S
C296 H318 0.929 . S
C297 C292 1.373 . S
C297 C296 1.396 . S
C297 H319 0.929 . S
C298 O308 1.240 . S
C298 O309 1.289 . S
C299 O310 1.258 . S
C299 O311 1.256 . S
O300 La280 2.521 1_554 S
O300 C282 1.261 . S
O301 La280 2.628 1_554 S
O301 C282 1.243 . S
O302 La280 2.554 . S
O302 C289 1.240 . S
O303 La280 2.757 . S
O303 La281 2.482 1_556 S
O303 C289 1.289 . S
O304 La280 2.470 1_554 S
O304 C290 1.258 . S
O305 La281 2.503 . S
O305 C290 1.256 . S
O306 La281 2.521 1_556 S
O306 C291 1.261 . S
O307 La281 2.628 1_556 S
O307 C291 1.243 . S
O308 La281 2.554 . S
O308 C298 1.240 . S
O309 La280 2.482 1_554 S
O309 La281 2.757 . S
O309 C298 1.289 . S
O310 La281 2.470 1_556 S
O310 C299 1.258 . S
O311 La280 2.503 . S
O311 C299 1.256 . S
H312 C284 0.930 . S
H313 C285 0.930 . S
H314 C287 0.929 . S
H315 C288 0.929 . S
H316 C293 0.930 . S
H317 C294 0.930 . S
H318 C296 0.929 . S
H319 C297 0.929 . S
H320 C326 0.930 . S
H321 C330 0.930 . S
H322 C335 0.929 . S
H323 C333 0.929 . S
H324 C328 0.929 . S
H325 C334 0.929 . S
C326 H320 0.930 . S
C326 C327 1.367 . S
C326 C334 1.378 . S
C327 C326 1.367 . S
C327 C335 1.433 . S
C328 H324 0.929 . S
C328 C330 1.378 . S
C328 C332 1.350 . S
C329 C332 1.463 . S
C329 C334 1.350 . S
C329 N337 1.427 . S
C330 H321 0.930 . S
C330 C328 1.378 . S
C330 C331 1.367 . S
C331 C330 1.367 . S
C331 C333 1.433 . S
C332 C328 1.350 . S
C332 C329 1.463 . S
C332 N336 1.427 . S
C333 H323 0.929 . S
C333 C331 1.433 . S
C333 N336 1.384 . S
C334 H325 0.929 . S
C334 C326 1.378 . S
C334 C329 1.350 . S
C335 H322 0.929 . S
C335 C327 1.433 . S
C335 N337 1.384 . S
N336 C332 1.427 . S
N336 C333 1.384 . S
N337 C329 1.427 . S
N337 C335 1.384 . S
H338 C344 0.930 . S
H339 C348 0.930 . S
H340 C353 0.929 . S
H341 C351 0.929 . S
H342 C346 0.929 . S
H343 C352 0.929 . S
C344 H338 0.930 . S
C344 C345 1.367 . S
C344 C352 1.378 . S
C345 C344 1.367 . S
C345 C353 1.433 . S
C346 H342 0.929 . S
C346 C348 1.378 . S
C346 C350 1.350 . S
C347 C350 1.463 . S
C347 C352 1.350 . S
C347 N355 1.427 . S
C348 H339 0.930 . S
C348 C346 1.378 . S
C348 C349 1.367 . S
C349 C348 1.367 . S
C349 C351 1.433 . S
C350 C346 1.350 . S
C350 C347 1.463 . S
C350 N354 1.427 . S
C351 H341 0.929 . S
C351 C349 1.433 . S
C351 N354 1.384 . S
C352 H343 0.929 . S
C352 C344 1.378 . S
C352 C347 1.350 . S
C353 H340 0.929 . S
C353 C345 1.433 . S
C353 N355 1.384 . S
N354 C350 1.427 . S
N354 C351 1.384 . S
N355 C347 1.427 . S
N355 C353 1.384 . S
H356 C362 0.930 . S
H357 C366 0.930 . S
H358 C371 0.929 . S
H359 C369 0.929 . S
H360 C364 0.929 . S
H361 C370 0.929 . S
C362 H356 0.930 . S
C362 C363 1.367 . S
C362 C370 1.378 . S
C363 C362 1.367 . S
C363 C371 1.433 . S
C364 H360 0.929 . S
C364 C366 1.378 . S
C364 C368 1.350 . S
C365 C368 1.463 . S
C365 C370 1.350 . S
C365 N373 1.427 . S
C366 H357 0.930 . S
C366 C364 1.378 . S
C366 C367 1.367 . S
C367 C366 1.367 . S
C367 C369 1.433 . S
C368 C364 1.350 . S
C368 C365 1.463 . S
C368 N372 1.427 . S
C369 H359 0.929 . S
C369 C367 1.433 . S
C369 N372 1.384 . S
C370 H361 0.929 . S
C370 C362 1.378 . S
C370 C365 1.350 . S
C371 H358 0.929 . S
C371 C363 1.433 . S
C371 N373 1.384 . S
N372 C368 1.427 . S
N372 C369 1.384 . S
N373 C365 1.427 . S
N373 C371 1.384 . S
H374 C380 0.930 . S
H375 C384 0.930 . S
H376 C389 0.929 . S
H377 C387 0.929 . S
H378 C382 0.929 . S
H379 C388 0.929 . S
C380 H374 0.930 . S
C380 C381 1.367 . S
C380 C388 1.378 . S
C381 C380 1.367 . S
C381 C389 1.433 . S
C382 H378 0.929 . S
C382 C384 1.378 . S
C382 C386 1.350 . S
C383 C386 1.463 . S
C383 C388 1.350 . S
C383 N391 1.427 . S
C384 H375 0.930 . S
C384 C382 1.378 . S
C384 C385 1.367 . S
C385 C384 1.367 . S
C385 C387 1.433 . S
C386 C382 1.350 . S
C386 C383 1.463 . S
C386 N390 1.427 . S
C387 H377 0.929 . S
C387 C385 1.433 . S
C387 N390 1.384 . S
C388 H379 0.929 . S
C388 C380 1.378 . S
C388 C383 1.350 . S
C389 H376 0.929 . S
C389 C381 1.433 . S
C389 N391 1.384 . S
N390 C386 1.427 . S
N390 C387 1.384 . S
N391 C383 1.427 . S
N391 C389 1.384 . S
H392 C398 0.930 . S
H393 C402 0.930 . S
H394 C407 0.929 . S
H395 C405 0.929 . S
H396 C400 0.929 . S
H397 C406 0.929 . S
C398 H392 0.930 . S
C398 C399 1.367 . S
C398 C406 1.378 . S
C399 C398 1.367 . S
C399 C407 1.433 . S
C400 H396 0.929 . S
C400 C402 1.378 . S
C400 C404 1.350 . S
C401 C404 1.463 1_565 S
C401 C406 1.350 . S
C401 N409 1.427 . S
C402 H393 0.930 . S
C402 C400 1.378 . S
C402 C403 1.367 . S
C403 C402 1.367 . S
C403 C405 1.433 . S
C404 C400 1.350 . S
C404 C401 1.463 1_545 S
C404 N408 1.427 . S
C405 H395 0.929 . S
C405 C403 1.433 . S
C405 N408 1.384 . S
C406 H397 0.929 . S
C406 C398 1.378 . S
C406 C401 1.350 . S
C407 H394 0.929 . S
C407 C399 1.433 . S
C407 N409 1.384 . S
N408 C404 1.427 . S
N408 C405 1.384 . S
N409 C401 1.427 . S
N409 C407 1.384 . S
H410 C416 0.930 . S
H411 C420 0.930 . S
H412 C425 0.929 . S
H413 C423 0.929 . S
H414 C418 0.929 . S
H415 C424 0.929 . S
C416 H410 0.930 . S
C416 C417 1.367 . S
C416 C424 1.378 . S
C417 C416 1.367 . S
C417 C425 1.433 . S
C418 H414 0.929 . S
C418 C420 1.378 . S
C418 C422 1.350 . S
C419 C422 1.463 . S
C419 C424 1.350 . S
C419 N427 1.427 . S
C420 H411 0.930 . S
C420 C418 1.378 . S
C420 C421 1.367 . S
C421 C420 1.367 . S
C421 C423 1.433 . S
C422 C418 1.350 . S
C422 C419 1.463 . S
C422 N426 1.427 . S
C423 H413 0.929 . S
C423 C421 1.433 . S
C423 N426 1.384 . S
C424 H415 0.929 . S
C424 C416 1.378 . S
C424 C419 1.350 . S
C425 H412 0.929 . S
C425 C417 1.433 . S
C425 N427 1.384 . S
N426 C422 1.427 . S
N426 C423 1.384 . S
N427 C419 1.427 . S
N427 C425 1.384 . S
H428 C434 0.930 . S
H429 C438 0.930 . S
H430 C443 0.929 . S
H431 C441 0.929 . S
H432 C436 0.929 . S
H433 C442 0.929 . S
C434 H428 0.930 . S
C434 C435 1.367 . S
C434 C442 1.378 . S
C435 C434 1.367 . S
C435 C443 1.433 . S
C436 H432 0.929 . S
C436 C438 1.378 . S
C436 C440 1.350 . S
C437 C440 1.463 1_565 S
C437 C442 1.350 . S
C437 N445 1.427 . S
C438 H429 0.930 . S
C438 C436 1.378 . S
C438 C439 1.367 . S
C439 C438 1.367 . S
C439 C441 1.433 . S
C440 C436 1.350 . S
C440 C437 1.463 1_545 S
C440 N444 1.427 . S
C441 H431 0.929 . S
C441 C439 1.433 . S
C441 N444 1.384 . S
C442 H433 0.929 . S
C442 C434 1.378 . S
C442 C437 1.350 . S
C443 H430 0.929 . S
C443 C435 1.433 . S
C443 N445 1.384 . S
N444 C440 1.427 . S
N444 C441 1.384 . S
N445 C437 1.427 . S
N445 C443 1.384 . S
H446 C452 0.930 . S
H447 C456 0.930 . S
H448 C461 0.929 . S
H449 C459 0.929 . S
H450 C454 0.929 . S
H451 C460 0.929 . S
C452 H446 0.930 . S
C452 C453 1.367 . S
C452 C460 1.378 . S
C453 C452 1.367 . S
C453 C461 1.433 . S
C454 H450 0.929 . S
C454 C456 1.378 . S
C454 C458 1.350 . S
C455 C458 1.463 . S
C455 C460 1.350 . S
C455 N463 1.427 . S
C456 H447 0.930 . S
C456 C454 1.378 . S
C456 C457 1.367 . S
C457 C456 1.367 . S
C457 C459 1.433 . S
C458 C454 1.350 . S
C458 C455 1.463 . S
C458 N462 1.427 . S
C459 H449 0.929 . S
C459 C457 1.433 . S
C459 N462 1.384 . S
C460 H451 0.929 . S
C460 C452 1.378 . S
C460 C455 1.350 . S
C461 H448 0.929 . S
C461 C453 1.433 . S
C461 N463 1.384 . S
N462 C458 1.427 . S
N462 C459 1.384 . S
N463 C455 1.427 . S
N463 C461 1.384 . S
H464 C470 0.930 . S
H465 C474 0.930 . S
H466 C479 0.929 . S
H467 C477 0.929 . S
H468 C472 0.929 . S
H469 C478 0.929 . S
C470 H464 0.930 . S
C470 C471 1.367 . S
C470 C478 1.378 . S
C471 C470 1.367 . S
C471 C479 1.433 1_556 S
C472 H468 0.929 . S
C472 C474 1.378 . S
C472 C476 1.350 1_554 S
C473 C476 1.463 . S
C473 C478 1.350 . S
C473 N481 1.427 1_556 S
C474 H465 0.930 . S
C474 C472 1.378 . S
C474 C475 1.367 1_554 S
C475 C474 1.367 1_556 S
C475 C477 1.433 . S
C476 C472 1.350 1_556 S
C476 C473 1.463 . S
C476 N480 1.427 . S
C477 H467 0.929 . S
C477 C475 1.433 . S
C477 N480 1.384 . S
C478 H469 0.929 . S
C478 C470 1.378 . S
C478 C473 1.350 . S
C479 H466 0.929 . S
C479 C471 1.433 1_554 S
C479 N481 1.384 . S
N480 C476 1.427 . S
N480 C477 1.384 . S
N481 C473 1.427 1_554 S
N481 C479 1.384 . S
H482 C488 0.930 . S
H483 C492 0.930 . S
H484 C497 0.929 . S
H485 C495 0.929 . S
H486 C490 0.929 . S
H487 C496 0.929 . S
C488 H482 0.930 . S
C488 C489 1.367 . S
C488 C496 1.378 . S
C489 C488 1.367 . S
C489 C497 1.433 1_556 S
C490 H486 0.929 . S
C490 C492 1.378 . S
C490 C494 1.350 1_554 S
C491 C494 1.463 1_565 S
C491 C496 1.350 . S
C491 N499 1.427 1_556 S
C492 H483 0.930 . S
C492 C490 1.378 . S
C492 C493 1.367 1_554 S
C493 C492 1.367 1_556 S
C493 C495 1.433 . S
C494 C490 1.350 1_556 S
C494 C491 1.463 1_545 S
C494 N498 1.427 . S
C495 H485 0.929 . S
C495 C493 1.433 . S
C495 N498 1.384 . S
C496 H487 0.929 . S
C496 C488 1.378 . S
C496 C491 1.350 . S
C497 H484 0.929 . S
C497 C489 1.433 1_554 S
C497 N499 1.384 . S
N498 C494 1.427 . S
N498 C495 1.384 . S
N499 C491 1.427 1_554 S
N499 C497 1.384 . S
H500 C506 0.930 . S
H501 C510 0.930 . S
H502 C515 0.929 . S
H503 C513 0.929 . S
H504 C508 0.929 . S
H505 C514 0.929 . S
C506 H500 0.930 . S
C506 C507 1.367 1_556 S
C506 C514 1.378 . S
C507 C506 1.367 1_554 S
C507 C515 1.433 . S
C508 H504 0.929 . S
C508 C510 1.378 . S
C508 C512 1.350 . S
C509 C512 1.463 . S
C509 C514 1.350 1_554 S
C509 N517 1.427 . S
C510 H501 0.930 . S
C510 C508 1.378 . S
C510 C511 1.367 . S
C511 C510 1.367 . S
C511 C513 1.433 1_554 S
C512 C508 1.350 . S
C512 C509 1.463 . S
C512 N516 1.427 1_554 S
C513 H503 0.929 . S
C513 C511 1.433 1_556 S
C513 N516 1.384 . S
C514 H505 0.929 . S
C514 C506 1.378 . S
C514 C509 1.350 1_556 S
C515 H502 0.929 . S
C515 C507 1.433 . S
C515 N517 1.384 . S
N516 C512 1.427 1_556 S
N516 C513 1.384 . S
N517 C509 1.427 . S
N517 C515 1.384 . S
H518 C524 0.930 . S
H519 C528 0.930 . S
H520 C533 0.929 . S
H521 C531 0.929 . S
H522 C526 0.929 . S
H523 C532 0.929 . S
C524 H518 0.930 . S
C524 C525 1.367 . S
C524 C532 1.378 . S
C525 C524 1.367 . S
C525 C533 1.433 1_554 S
C526 H522 0.929 . S
C526 C528 1.378 . S
C526 C530 1.350 1_556 S
C527 C530 1.463 1_545 S
C527 C532 1.350 . S
C527 N535 1.427 1_554 S
C528 H519 0.930 . S
C528 C526 1.378 . S
C528 C529 1.367 1_556 S
C529 C528 1.367 1_554 S
C529 C531 1.433 . S
C530 C526 1.350 1_554 S
C530 C527 1.463 1_565 S
C530 N534 1.427 . S
C531 H521 0.929 . S
C531 C529 1.433 . S
C531 N534 1.384 . S
C532 H523 0.929 . S
C532 C524 1.378 . S
C532 C527 1.350 . S
C533 H520 0.929 . S
C533 C525 1.433 1_556 S
C533 N535 1.384 . S
N534 C530 1.427 . S
N534 C531 1.384 . S
N535 C527 1.427 1_556 S
N535 C533 1.384 . S
H536 C542 0.930 . S
H537 C546 0.930 . S
H538 C551 0.929 . S
H539 C549 0.929 . S
H540 C544 0.929 . S
H541 C550 0.929 1_556 S
C542 H536 0.930 . S
C542 C543 1.367 . S
C542 C550 1.378 . S
C543 C542 1.367 . S
C543 C551 1.433 . S
C544 H540 0.929 . S
C544 C546 1.378 . S
C544 C548 1.350 . S
C545 C548 1.463 . S
C545 C550 1.350 1_556 S
C545 N553 1.427 1_556 S
C546 H537 0.930 . S
C546 C544 1.378 . S
C546 C547 1.367 . S
C547 C546 1.367 . S
C547 C549 1.433 . S
C548 C544 1.350 . S
C548 C545 1.463 . S
C548 N552 1.427 . S
C549 H539 0.929 . S
C549 C547 1.433 . S
C549 N552 1.384 . S
C550 H541 0.929 1_554 S
C550 C542 1.378 . S
C550 C545 1.350 1_554 S
C551 H538 0.929 . S
C551 C543 1.433 . S
C551 N553 1.384 . S
N552 C548 1.427 . S
N552 C549 1.384 . S
N553 C545 1.427 1_554 S
N553 C551 1.384 . S
H554 C560 0.930 . S
H555 C564 0.930 . S
H556 C569 0.929 . S
H557 C567 0.929 . S
H558 C562 0.929 . S
H559 C568 0.929 . S
C560 H554 0.930 . S
C560 C561 1.367 . S
C560 C568 1.378 . S
C561 C560 1.367 . S
C561 C569 1.433 . S
C562 H558 0.929 . S
C562 C564 1.378 . S
C562 C566 1.350 . S
C563 C566 1.463 . S
C563 C568 1.350 1_556 S
C563 N571 1.427 1_556 S
C564 H555 0.930 . S
C564 C562 1.378 . S
C564 C565 1.367 . S
C565 C564 1.367 . S
C565 C567 1.433 . S
C566 C562 1.350 . S
C566 C563 1.463 . S
C566 N570 1.427 . S
C567 H557 0.929 . S
C567 C565 1.433 . S
C567 N570 1.384 . S
C568 H559 0.929 . S
C568 C560 1.378 . S
C568 C563 1.350 1_554 S
C569 H556 0.929 . S
C569 C561 1.433 . S
C569 N571 1.384 . S
N570 C566 1.427 . S
N570 C567 1.384 . S
N571 C563 1.427 1_554 S
N571 C569 1.384 . S
H572 C578 0.930 . S
H573 C582 0.930 . S
H574 C587 0.929 . S
H575 C585 0.929 . S
H576 C580 0.929 . S
H577 C586 0.929 . S
C578 H572 0.930 . S
C578 C579 1.367 . S
C578 C586 1.378 . S
C579 C578 1.367 . S
C579 C587 1.433 . S
C580 H576 0.929 . S
C580 C582 1.378 . S
C580 C584 1.350 1_556 S
C581 C584 1.463 . S
C581 C586 1.350 . S
C581 N589 1.427 . S
C582 H573 0.930 . S
C582 C580 1.378 . S
C582 C583 1.367 . S
C583 C582 1.367 . S
C583 C585 1.433 . S
C584 C580 1.350 1_554 S
C584 C581 1.463 . S
C584 N588 1.427 1_554 S
C585 H575 0.929 . S
C585 C583 1.433 . S
C585 N588 1.384 . S
C586 H577 0.929 . S
C586 C578 1.378 . S
C586 C581 1.350 . S
C587 H574 0.929 . S
C587 C579 1.433 . S
C587 N589 1.384 . S
N588 C584 1.427 1_556 S
N588 C585 1.384 . S
N589 C581 1.427 . S
N589 C587 1.384 . S
H590 C596 0.930 . S
H591 C600 0.930 . S
H592 C605 0.929 . S
H593 C603 0.929 . S
H594 C598 0.929 . S
H595 C604 0.929 1_554 S
C596 H590 0.930 . S
C596 C597 1.367 . S
C596 C604 1.378 . S
C597 C596 1.367 . S
C597 C605 1.433 . S
C598 H594 0.929 . S
C598 C600 1.378 . S
C598 C602 1.350 . S
C599 C602 1.463 . S
C599 C604 1.350 1_554 S
C599 N607 1.427 1_554 S
C600 H591 0.930 . S
C600 C598 1.378 . S
C600 C601 1.367 . S
C601 C600 1.367 . S
C601 C603 1.433 . S
C602 C598 1.350 . S
C602 C599 1.463 . S
C602 N606 1.427 . S
C603 H593 0.929 . S
C603 C601 1.433 . S
C603 N606 1.384 . S
C604 H595 0.929 1_556 S
C604 C596 1.378 . S
C604 C599 1.350 1_556 S
C605 H592 0.929 . S
C605 C597 1.433 . S
C605 N607 1.384 . S
N606 C602 1.427 . S
N606 C603 1.384 . S
N607 C599 1.427 1_556 S
N607 C605 1.384 . S
H608 C614 0.930 . S
H609 C618 0.930 . S
H610 C623 0.929 . S
H611 C621 0.929 . S
H612 C616 0.929 . S
H613 C622 0.929 . S
C614 H608 0.930 . S
C614 C615 1.367 . S
C614 C622 1.378 . S
C615 C614 1.367 . S
C615 C623 1.433 . S
C616 H612 0.929 . S
C616 C618 1.378 . S
C616 C620 1.350 . S
C617 C620 1.463 . S
C617 C622 1.350 . S
C617 N625 1.427 . S
C618 H609 0.930 . S
C618 C616 1.378 . S
C618 C619 1.367 . S
C619 C618 1.367 . S
C619 C621 1.433 . S
C620 C616 1.350 . S
C620 C617 1.463 . S
C620 N624 1.427 . S
C621 H611 0.929 . S
C621 C619 1.433 . S
C621 N624 1.384 . S
C622 H613 0.929 . S
C622 C614 1.378 . S
C622 C617 1.350 . S
C623 H610 0.929 . S
C623 C615 1.433 . S
C623 N625 1.384 . S
N624 C620 1.427 . S
N624 C621 1.384 . S
N625 C617 1.427 . S
N625 C623 1.384 . S
H626 C632 0.930 . S
H627 C636 0.930 . S
H628 C641 0.929 . S
H629 C639 0.929 . S
H630 C634 0.929 . S
H631 C640 0.929 . S
C632 H626 0.930 . S
C632 C633 1.367 . S
C632 C640 1.378 . S
C633 C632 1.367 . S
C633 C641 1.433 . S
C634 H630 0.929 . S
C634 C636 1.378 . S
C634 C638 1.350 . S
C635 C638 1.463 . S
C635 C640 1.350 . S
C635 N643 1.427 . S
C636 H627 0.930 . S
C636 C634 1.378 . S
C636 C637 1.367 . S
C637 C636 1.367 . S
C637 C639 1.433 . S
C638 C634 1.350 . S
C638 C635 1.463 . S
C638 N642 1.427 . S
C639 H629 0.929 . S
C639 C637 1.433 . S
C639 N642 1.384 . S
C640 H631 0.929 . S
C640 C632 1.378 . S
C640 C635 1.350 . S
C641 H628 0.929 . S
C641 C633 1.433 . S
C641 N643 1.384 . S
N642 C638 1.427 . S
N642 C639 1.384 . S
N643 C635 1.427 . S
N643 C641 1.384 . S
H644 C650 0.930 . S
H645 C654 0.930 . S
H646 C659 0.929 . S
H647 C657 0.929 . S
H648 C652 0.929 . S
H649 C658 0.929 . S
C650 H644 0.930 . S
C650 C651 1.367 . S
C650 C658 1.378 . S
C651 C650 1.367 . S
C651 C659 1.433 . S
C652 H648 0.929 . S
C652 C654 1.378 . S
C652 C656 1.350 . S
C653 C656 1.463 . S
C653 C658 1.350 . S
C653 N661 1.427 . S
C654 H645 0.930 . S
C654 C652 1.378 . S
C654 C655 1.367 . S
C655 C654 1.367 . S
C655 C657 1.433 . S
C656 C652 1.350 . S
C656 C653 1.463 . S
C656 N660 1.427 . S
C657 H647 0.929 . S
C657 C655 1.433 . S
C657 N660 1.384 . S
C658 H649 0.929 . S
C658 C650 1.378 . S
C658 C653 1.350 . S
C659 H646 0.929 . S
C659 C651 1.433 . S
C659 N661 1.384 . S
N660 C656 1.427 . S
N660 C657 1.384 . S
N661 C653 1.427 . S
N661 C659 1.384 . S
H662 C668 0.930 . S
H663 C672 0.930 . S
H664 C677 0.929 . S
H665 C675 0.929 . S
H666 C670 0.929 . S
H667 C676 0.929 . S
C668 H662 0.930 . S
C668 C669 1.367 . S
C668 C676 1.378 . S
C669 C668 1.367 . S
C669 C677 1.433 . S
C670 H666 0.929 . S
C670 C672 1.378 . S
C670 C674 1.350 . S
C671 C674 1.463 . S
C671 C676 1.350 . S
C671 N679 1.427 . S
C672 H663 0.930 . S
C672 C670 1.378 . S
C672 C673 1.367 . S
C673 C672 1.367 . S
C673 C675 1.433 . S
C674 C670 1.350 . S
C674 C671 1.463 . S
C674 N678 1.427 . S
C675 H665 0.929 . S
C675 C673 1.433 . S
C675 N678 1.384 . S
C676 H667 0.929 . S
C676 C668 1.378 . S
C676 C671 1.350 . S
C677 H664 0.929 . S
C677 C669 1.433 . S
C677 N679 1.384 . S
N678 C674 1.427 . S
N678 C675 1.384 . S
N679 C671 1.427 . S
N679 C677 1.384 . S
H680 C686 0.930 . S
H681 C690 0.930 . S
H682 C695 0.929 . S
H683 C693 0.929 . S
H684 C688 0.929 . S
H685 C694 0.929 . S
C686 H680 0.930 . S
C686 C687 1.367 . S
C686 C694 1.378 . S
C687 C686 1.367 . S
C687 C695 1.433 . S
C688 H684 0.929 . S
C688 C690 1.378 . S
C688 C692 1.350 . S
C689 C692 1.463 1_455 S
C689 C694 1.350 . S
C689 N697 1.427 . S
C690 H681 0.930 . S
C690 C688 1.378 . S
C690 C691 1.367 . S
C691 C690 1.367 . S
C691 C693 1.433 . S
C692 C688 1.350 . S
C692 C689 1.463 1_655 S
C692 N696 1.427 . S
C693 H683 0.929 . S
C693 C691 1.433 . S
C693 N696 1.384 . S
C694 H685 0.929 . S
C694 C686 1.378 . S
C694 C689 1.350 . S
C695 H682 0.929 . S
C695 C687 1.433 . S
C695 N697 1.384 . S
N696 C692 1.427 . S
N696 C693 1.384 . S
N697 C689 1.427 . S
N697 C695 1.384 . S
H698 C704 0.930 . S
H699 C708 0.930 . S
H700 C713 0.929 . S
H701 C711 0.929 . S
H702 C706 0.929 . S
H703 C712 0.929 . S
C704 H698 0.930 . S
C704 C705 1.367 . S
C704 C712 1.378 . S
C705 C704 1.367 . S
C705 C713 1.433 . S
C706 H702 0.929 . S
C706 C708 1.378 . S
C706 C710 1.350 . S
C707 C710 1.463 1_655 S
C707 C712 1.350 . S
C707 N715 1.427 . S
C708 H699 0.930 . S
C708 C706 1.378 . S
C708 C709 1.367 . S
C709 C708 1.367 . S
C709 C711 1.433 . S
C710 C706 1.350 . S
C710 C707 1.463 1_455 S
C710 N714 1.427 . S
C711 H701 0.929 . S
C711 C709 1.433 . S
C711 N714 1.384 . S
C712 H703 0.929 . S
C712 C704 1.378 . S
C712 C707 1.350 . S
C713 H700 0.929 . S
C713 C705 1.433 . S
C713 N715 1.384 . S
N714 C710 1.427 . S
N714 C711 1.384 . S
N715 C707 1.427 . S
N715 C713 1.384 . S
H716 C722 0.930 . S
H717 C726 0.930 . S
H718 C731 0.929 . S
H719 C729 0.929 . S
H720 C724 0.929 . S
H721 C730 0.929 . S
C722 H716 0.930 . S
C722 C723 1.367 . S
C722 C730 1.378 . S
C723 C722 1.367 . S
C723 C731 1.433 . S
C724 H720 0.929 . S
C724 C726 1.378 . S
C724 C728 1.350 . S
C725 C728 1.463 . S
C725 C730 1.350 . S
C725 N733 1.427 . S
C726 H717 0.930 . S
C726 C724 1.378 . S
C726 C727 1.367 . S
C727 C726 1.367 . S
C727 C729 1.433 . S
C728 C724 1.350 . S
C728 C725 1.463 . S
C728 N732 1.427 . S
C729 H719 0.929 . S
C729 C727 1.433 . S
C729 N732 1.384 . S
C730 H721 0.929 . S
C730 C722 1.378 . S
C730 C725 1.350 . S
C731 H718 0.929 . S
C731 C723 1.433 . S
C731 N733 1.384 . S
N732 C728 1.427 . S
N732 C729 1.384 . S
N733 C725 1.427 . S
N733 C731 1.384 . S
H734 C740 0.930 . S
H735 C744 0.930 . S
H736 C749 0.929 . S
H737 C747 0.929 . S
H738 C742 0.929 . S
H739 C748 0.929 . S
C740 H734 0.930 . S
C740 C741 1.367 . S
C740 C748 1.378 . S
C741 C740 1.367 . S
C741 C749 1.433 . S
C742 H738 0.929 . S
C742 C744 1.378 . S
C742 C746 1.350 . S
C743 C746 1.463 . S
C743 C748 1.350 . S
C743 N751 1.427 . S
C744 H735 0.930 . S
C744 C742 1.378 . S
C744 C745 1.367 . S
C745 C744 1.367 . S
C745 C747 1.433 . S
C746 C742 1.350 . S
C746 C743 1.463 . S
C746 N750 1.427 . S
C747 H737 0.929 . S
C747 C745 1.433 . S
C747 N750 1.384 . S
C748 H739 0.929 . S
C748 C740 1.378 . S
C748 C743 1.350 . S
C749 H736 0.929 . S
C749 C741 1.433 . S
C749 N751 1.384 . S
N750 C746 1.427 . S
N750 C747 1.384 . S
N751 C743 1.427 . S
N751 C749 1.384 . S
C327 C6 1.675 . S
C331 C295 1.674 . S
C345 C255 1.673 . S
C349 C46 1.673 . S
C363 C206 1.674 . S
C367 C95 1.673 . S
C381 C166 1.670 . S
C385 C135 1.669 . S
C399 C89 1.557 . S
C403 C9 1.573 . S
C417 C49 1.563 . S
C421 C129 1.545 . S
C435 C138 1.573 . S
C439 C58 1.557 . S
C453 C98 1.575 . S
C457 C18 1.558 . S
C471 C169 1.436 . S
C475 C249 1.438 . S
C489 C209 1.446 . S
C493 C289 1.446 . S
C507 C298 1.442 . S
C511 C218 1.439 . S
C525 C258 1.442 . S
C529 C178 1.444 . S
C543 C19 2.035 . S
C547 C10 2.035 . S
C561 C59 2.035 . S
C565 C50 2.035 . S
C579 C99 2.035 . S
C583 C90 2.035 . S
C597 C130 2.043 . S
C601 C139 2.043 . S
C615 C170 2.042 . S
C619 C179 2.042 . S
C633 C219 2.045 . S
C637 C210 2.045 . S
C651 C250 2.038 . S
C655 C259 2.038 . S
C669 C290 2.039 . S
C673 C299 2.039 . S
C687 C15 2.303 . S
C691 C55 2.297 . S
C705 C126 2.304 . S
C709 C86 2.296 . S
C723 C175 2.303 . S
C727 C215 2.300 . S
C741 C286 2.304 . S
C745 C246 2.299 . S
