# Generated by pormake.
# Topology wkj, (6)-cn, num edge types: 1
# Building blocks:
#     Node 0, Type 0, BuildingBlock: FUNLAD_clean_sbu_0, # of connection points: 6
#     Node 1, Type 0, BuildingBlock: FUNLAD_clean_sbu_0, # of connection points: 6
#     Node 2, Type 0, BuildingBlock: FUNLAD_clean_sbu_0, # of connection points: 6
#     Node 3, Type 0, BuildingBlock: FUNLAD_clean_sbu_0, # of connection points: 6
#     Node 4, Type 0, BuildingBlock: FUNLAD_clean_sbu_0, # of connection points: 6
#     Node 5, Type 0, BuildingBlock: FUNLAD_clean_sbu_0, # of connection points: 6
#     Node 6, Type 0, BuildingBlock: FUNLAD_clean_sbu_0, # of connection points: 6
#     Node 7, Type 0, BuildingBlock: FUNLAD_clean_sbu_0, # of connection points: 6
#     Node 8, Type 0, BuildingBlock: FUNLAD_clean_sbu_0, # of connection points: 6
#     Node 9, Type 0, BuildingBlock: FUNLAD_clean_sbu_0, # of connection points: 6
#     Node 10, Type 0, BuildingBlock: FUNLAD_clean_sbu_0, # of connection points: 6
#     Node 11, Type 0, BuildingBlock: FUNLAD_clean_sbu_0, # of connection points: 6
#     Edge 12, Type (0, 0), BuildingBlock: TEMPAE_clean_linker_10, # of connection points: 2
#     Edge 13, Type (0, 0), BuildingBlock: TEMPAE_clean_linker_10, # of connection points: 2
#     Edge 14, Type (0, 0), BuildingBlock: TEMPAE_clean_linker_10, # of connection points: 2
#     Edge 15, Type (0, 0), BuildingBlock: TEMPAE_clean_linker_10, # of connection points: 2
#     Edge 16, Type (0, 0), BuildingBlock: TEMPAE_clean_linker_10, # of connection points: 2
#     Edge 17, Type (0, 0), BuildingBlock: TEMPAE_clean_linker_10, # of connection points: 2
#     Edge 18, Type (0, 0), BuildingBlock: TEMPAE_clean_linker_10, # of connection points: 2
#     Edge 19, Type (0, 0), BuildingBlock: TEMPAE_clean_linker_10, # of connection points: 2
#     Edge 20, Type (0, 0), BuildingBlock: TEMPAE_clean_linker_10, # of connection points: 2
#     Edge 21, Type (0, 0), BuildingBlock: TEMPAE_clean_linker_10, # of connection points: 2
#     Edge 22, Type (0, 0), BuildingBlock: TEMPAE_clean_linker_10, # of connection points: 2
#     Edge 23, Type (0, 0), BuildingBlock: TEMPAE_clean_linker_10, # of connection points: 2
#     Edge 24, Type (0, 0), BuildingBlock: TEMPAE_clean_linker_10, # of connection points: 2
#     Edge 25, Type (0, 0), BuildingBlock: TEMPAE_clean_linker_10, # of connection points: 2
#     Edge 26, Type (0, 0), BuildingBlock: TEMPAE_clean_linker_10, # of connection points: 2
#     Edge 27, Type (0, 0), BuildingBlock: TEMPAE_clean_linker_10, # of connection points: 2
#     Edge 28, Type (0, 0), BuildingBlock: TEMPAE_clean_linker_10, # of connection points: 2
#     Edge 29, Type (0, 0), BuildingBlock: TEMPAE_clean_linker_10, # of connection points: 2
#     Edge 30, Type (0, 0), BuildingBlock: TEMPAE_clean_linker_10, # of connection points: 2
#     Edge 31, Type (0, 0), BuildingBlock: TEMPAE_clean_linker_10, # of connection points: 2
#     Edge 32, Type (0, 0), BuildingBlock: TEMPAE_clean_linker_10, # of connection points: 2
#     Edge 33, Type (0, 0), BuildingBlock: TEMPAE_clean_linker_10, # of connection points: 2
#     Edge 34, Type (0, 0), BuildingBlock: TEMPAE_clean_linker_10, # of connection points: 2
#     Edge 35, Type (0, 0), BuildingBlock: TEMPAE_clean_linker_10, # of connection points: 2
#     Edge 36, Type (0, 0), BuildingBlock: TEMPAE_clean_linker_10, # of connection points: 2
#     Edge 37, Type (0, 0), BuildingBlock: TEMPAE_clean_linker_10, # of connection points: 2
#     Edge 38, Type (0, 0), BuildingBlock: TEMPAE_clean_linker_10, # of connection points: 2
#     Edge 39, Type (0, 0), BuildingBlock: TEMPAE_clean_linker_10, # of connection points: 2
#     Edge 40, Type (0, 0), BuildingBlock: TEMPAE_clean_linker_10, # of connection points: 2
#     Edge 41, Type (0, 0), BuildingBlock: TEMPAE_clean_linker_10, # of connection points: 2
#     Edge 42, Type (0, 0), BuildingBlock: TEMPAE_clean_linker_10, # of connection points: 2
#     Edge 43, Type (0, 0), BuildingBlock: TEMPAE_clean_linker_10, # of connection points: 2
#     Edge 44, Type (0, 0), BuildingBlock: TEMPAE_clean_linker_10, # of connection points: 2
#     Edge 45, Type (0, 0), BuildingBlock: TEMPAE_clean_linker_10, # of connection points: 2
#     Edge 46, Type (0, 0), BuildingBlock: TEMPAE_clean_linker_10, # of connection points: 2
#     Edge 47, Type (0, 0), BuildingBlock: TEMPAE_clean_linker_10, # of connection points: 2
# Relax obj value: 1.253
# Max RMSD: 0.250
# Mean RMSD: 0.250
data_MOF--net-wkj--node1-FUNLAD_clean_sbu_0--edge1-TEMPAE_clean_linker_10
_symmetry_space_group_name_H-M    P1
_symmetry_Int_Tables_number       1
_symmetry_cell_setting            triclinic
loop_
_symmetry_equiv_pos_as_xyz
'x, y, z'
_cell_length_a     69.960507
_cell_length_b     70.163854
_cell_length_c     21.708194
_cell_angle_alpha  90.132825
_cell_angle_beta   89.869024
_cell_angle_gamma 119.95098
loop_
_atom_site_label
_atom_site_type_symbol
_atom_site_fract_x
_atom_site_fract_y
_atom_site_fract_z
_atom_type_partial_charge
C0 C 0.50365 0.09344 0.17816 0.0
N1 N 0.4689 0.12512 0.25164 0.0
C2 C 0.48825 0.14471 0.25192 0.0
C3 C 0.48861 0.16472 0.24089 0.0
C4 C 0.46891 0.1649 0.2285 0.0
C5 C 0.44918 0.14443 0.22938 0.0
C6 C 0.44953 0.12485 0.2412 0.0
Zn7 Zn 0.4689 0.09468 0.25943 0.0
C8 C 0.43892 0.06095 0.16706 0.0
N9 N 0.46733 0.03321 0.26803 0.0
C10 C 0.46993 0.02522 0.21356 0.0
C11 C 0.46072 0.02049 0.31948 0.0
C12 C 0.45813 0.99946 0.31831 0.0
C13 C 0.4637 0.99188 0.26461 0.0
C14 C 0.46794 1.00454 0.21054 0.0
Zn15 Zn 0.46933 0.06305 0.26634 0.0
O16 O 0.49469 0.10526 0.18752 0.0
C17 C 0.50067 0.09494 0.35756 0.0
O18 O 0.49641 0.07548 0.20723 0.0
H19 H 0.45779 0.02673 0.36191 0.0
H20 H 0.50361 0.14487 0.25936 0.0
H21 H 0.47404 0.0351 0.17229 0.0
O22 O 0.49523 0.10782 0.33078 0.0
O23 O 0.49119 0.07477 0.3419 0.0
H24 H 0.43422 0.10931 0.24086 0.0
O25 O 0.44279 0.05052 0.32466 0.0
O26 O 0.4429 0.0817 0.33401 0.0
O27 O 0.44819 0.05145 0.19187 0.0
O28 O 0.44325 0.07985 0.18679 0.0
C29 C 0.43505 0.06148 0.34939 0.0
H30 H 0.50433 0.17986 0.24026 0.0
H31 H 0.43348 0.14349 0.22107 0.0
H32 H 0.45352 0.99011 0.36064 0.0
H33 H 0.47159 0.99963 0.16684 0.0
C34 C 0.41764 0.49651 0.49219 0.0
N35 N 0.35295 0.46983 0.58148 0.0
C36 C 0.35431 0.48941 0.56715 0.0
C37 C 0.33509 0.49083 0.55674 0.0
C38 C 0.31391 0.47196 0.56087 0.0
C39 C 0.31312 0.45211 0.57706 0.0
C40 C 0.33269 0.4514 0.58689 0.0
Zn41 Zn 0.38166 0.46605 0.58459 0.0
C42 C 0.37833 0.43274 0.49529 0.0
N43 N 0.43799 0.45487 0.57885 0.0
C44 C 0.44575 0.45278 0.50675 0.0
C45 C 0.44421 0.44733 0.64556 0.0
C46 C 0.4621 0.43524 0.64854 0.0
C47 C 0.47212 0.43003 0.56844 0.0
C48 C 0.46454 0.44056 0.49336 0.0
Zn49 Zn 0.4132 0.46371 0.58383 0.0
O50 O 0.39788 0.49042 0.50969 0.0
C51 C 0.41894 0.49854 0.67178 0.0
O52 O 0.42792 0.48771 0.51614 0.0
H53 H 0.43619 0.44789 0.68756 0.0
H54 H 0.37035 0.50397 0.56217 0.0
H55 H 0.43734 0.45854 0.47061 0.0
O56 O 0.39931 0.49265 0.6532 0.0
O57 O 0.42865 0.48846 0.6512 0.0
H58 H 0.33161 0.4358 0.59694 0.0
O59 O 0.39875 0.44066 0.65265 0.0
O60 O 0.36786 0.44128 0.66114 0.0
O61 O 0.3975 0.44038 0.51666 0.0
O62 O 0.3661 0.44003 0.51531 0.0
C63 C 0.38029 0.4337 0.67835 0.0
H64 H 0.33691 0.50665 0.54529 0.0
H65 H 0.29749 0.43693 0.58009 0.0
H66 H 0.46454 0.42868 0.69091 0.0
H67 H 0.45522 0.44748 0.48795 0.0
C68 C 0.9262 0.41007 0.83043 0.0
N69 N 0.89122 0.34649 0.92002 0.0
C70 C 0.87225 0.34702 0.90975 0.0
C71 C 0.85214 0.32754 0.89827 0.0
C72 C 0.85115 0.30696 0.89738 0.0
C73 C 0.87094 0.30692 0.90939 0.0
C74 C 0.89073 0.3268 0.92029 0.0
Zn75 Zn 0.92197 0.37645 0.92785 0.0
C76 C 0.95681 0.37692 0.84395 0.0
N77 N 0.98452 0.43573 0.93431 0.0
C78 C 0.98749 0.4563 0.9296 0.0
C79 C 1.00121 0.43248 0.95389 0.0
C80 C 0.01973 0.44949 0.9823 0.0
C81 C 0.02107 0.46994 0.98901 0.0
C82 C 1.00624 0.47398 0.95524 0.0
Zn83 Zn 0.95391 0.4084 0.92816 0.0
O84 O 0.91209 0.39181 0.8551 0.0
C85 C 0.92034 0.41042 0.01189 0.0
O86 O 0.94578 0.42028 0.85097 0.0
H87 H 0.99905 0.41612 0.95453 0.0
H88 H 0.87272 0.36266 0.90933 0.0
H89 H 0.97427 0.45864 0.91266 0.0
O90 O 0.90915 0.38987 0.99898 0.0
O91 O 0.93913 0.42208 0.9865 0.0
H92 H 0.90586 0.32648 0.92761 0.0
O93 O 0.96213 0.39695 0.00533 0.0
O94 O 0.93427 0.36323 1.00239 0.0
O95 O 0.96798 0.39512 0.87121 0.0
O96 O 0.93628 0.36507 0.85598 0.0
C97 C 0.95245 0.37772 0.02682 0.0
H98 H 0.83747 0.32865 0.89025 0.0
H99 H 0.87135 0.2917 0.90861 0.0
H100 H 0.03111 0.44587 0.0062 0.0
H101 H 1.00676 0.48959 0.95836 0.0
C102 C 0.52226 0.92466 0.16182 0.0
N103 N 0.54821 0.88761 0.25474 0.0
C104 C 0.52848 0.8689 0.24508 0.0
C105 C 0.52739 0.84846 0.23523 0.0
C106 C 0.54675 0.84689 0.23501 0.0
C107 C 0.56678 0.86646 0.24649 0.0
C108 C 0.56714 0.88651 0.25604 0.0
Zn109 Zn 0.55112 0.91949 0.25659 0.0
C110 C 0.58673 0.95039 0.17302 0.0
N111 N 0.56162 0.98552 0.2531 0.0
C112 C 0.56051 0.99701 0.31755 0.0
C113 C 0.57573 0.9982 0.19101 0.0
C114 C 0.59275 0.02728 0.19091 0.0
C115 C 0.59096 0.04234 0.25739 0.0
C116 C 0.57605 0.02659 0.32433 0.0
Zn117 Zn 0.55382 0.95286 0.25844 0.0
O118 O 0.52559 0.90989 0.1857 0.0
C119 C 0.51766 0.9232 0.3436 0.0
O120 O 0.53298 0.94429 0.18182 0.0
H121 H 0.57512 0.98897 0.15047 0.0
H122 H 0.51351 0.86983 0.24338 0.0
H123 H 0.55258 0.98694 0.35743 0.0
O124 O 0.5253 0.91051 0.32874 0.0
O125 O 0.52611 0.94225 0.31873 0.0
H126 H 0.5828 0.90142 0.26249 0.0
O127 O 0.57409 0.96162 0.33309 0.0
O128 O 0.57726 0.93202 0.33 0.0
O129 O 0.58096 0.96224 0.20193 0.0
O130 O 0.57629 0.92976 0.18285 0.0
C131 C 0.58267 0.95083 0.35361 0.0
H132 H 0.51143 0.83402 0.22756 0.0
H133 H 0.5823 0.86655 0.24599 0.0
H134 H 0.60124 0.03597 0.14957 0.0
H135 H 0.57559 0.03468 0.36632 0.0
C136 C 0.60051 0.51374 0.5081 0.0
N137 N 0.66594 0.54542 0.58827 0.0
C138 C 0.66541 0.52596 0.57778 0.0
C139 C 0.68494 0.52529 0.56587 0.0
C140 C 0.70565 0.54478 0.56481 0.0
C141 C 0.70572 0.56457 0.57745 0.0
C142 C 0.68578 0.56453 0.58862 0.0
Zn143 Zn 0.63559 0.54629 0.59359 0.0
C144 C 0.63508 0.57876 0.50299 0.0
N145 N 0.57595 0.55012 0.59453 0.0
C146 C 0.5667 0.54815 0.53825 0.0
C147 C 0.56663 0.55319 0.64581 0.0
C148 C 0.54585 0.55147 0.64246 0.0
C149 C 0.53407 0.54545 0.58633 0.0
C150 C 0.54591 0.54597 0.53293 0.0
Zn151 Zn 0.60426 0.54839 0.5971 0.0
O152 O 0.6204 0.51995 0.52357 0.0
C153 C 0.60173 0.51468 0.68662 0.0
O154 O 0.59105 0.5234 0.53164 0.0
H155 H 0.5748 0.55596 0.68986 0.0
H156 H 0.64972 0.51081 0.57713 0.0
H157 H 0.57488 0.54696 0.49732 0.0
O158 O 0.62129 0.52079 0.66698 0.0
O159 O 0.59162 0.52416 0.66572 0.0
H160 H 0.68618 0.57999 0.59588 0.0
O161 O 0.61679 0.57264 0.66221 0.0
O162 O 0.64846 0.57306 0.66587 0.0
O163 O 0.61668 0.57209 0.52916 0.0
O164 O 0.64733 0.57095 0.51926 0.0
C165 C 0.63591 0.58046 0.68447 0.0
H166 H 0.68373 0.50951 0.55743 0.0
H167 H 0.721 0.58014 0.57668 0.0
H168 H 0.53864 0.55321 0.68461 0.0
H169 H 0.53871 0.54251 0.48747 0.0
C170 C 0.0896 0.59886 0.84932 0.0
N171 N 0.12582 0.66518 0.92225 0.0
C172 C 0.14516 0.66484 0.92123 0.0
C173 C 0.1654 0.6841 0.90874 0.0
C174 C 0.16604 0.70414 0.8963 0.0
C175 C 0.14582 0.70398 0.89842 0.0
C176 C 0.12601 0.68444 0.91163 0.0
Zn177 Zn 0.09484 0.63572 0.93395 0.0
C178 C 0.05994 0.63367 0.84599 0.0
N179 N 0.03069 0.57755 0.95061 0.0
C180 C 0.0282 0.55727 0.94189 0.0
C181 C 0.01366 0.57986 0.97266 0.0
C182 C 0.99516 0.56191 0.99843 0.0
C183 C 0.99396 0.54143 0.99885 0.0
C184 C 0.0094 0.53877 0.96366 0.0
Zn185 Zn 0.06139 0.60487 0.94146 0.0
O186 O 0.10363 0.61872 0.86377 0.0
C187 C 0.09402 0.60436 0.0313 0.0
O188 O 0.07081 0.58961 0.87517 0.0
H189 H 0.01511 0.5959 0.9756 0.0
H190 H 0.14492 0.64949 0.92902 0.0
H191 H 0.0416 0.55547 0.92366 0.0
O192 O 0.10748 0.62287 0.00649 0.0
O193 O 0.07418 0.59378 0.01238 0.0
H194 H 0.11067 0.68465 0.91248 0.0
O195 O 0.05265 0.62002 0.00683 0.0
O196 O 0.08422 0.65096 0.00711 0.0
O197 O 0.04864 0.61554 0.87343 0.0
O198 O 0.08015 0.64621 0.86075 0.0
C199 C 0.06462 0.63909 0.02807 0.0
H200 H 0.18035 0.68311 0.90722 0.0
H201 H 0.14526 0.7189 0.89017 0.0
H202 H 0.98311 0.5644 0.02294 0.0
H203 H 0.0091 0.52323 0.96222 0.0
C204 C 0.92369 0.51437 0.52412 0.0
N205 N 0.88964 0.54398 0.43525 0.0
C206 C 0.87065 0.52464 0.44651 0.0
C207 C 0.85052 0.52416 0.45811 0.0
C208 C 0.84944 0.54372 0.45806 0.0
C209 C 0.86921 0.56335 0.44461 0.0
C210 C 0.88904 0.56313 0.43377 0.0
Zn211 Zn 0.92094 0.54496 0.43101 0.0
C212 C 0.95392 0.57884 0.52031 0.0
N213 N 0.98484 0.54926 0.43482 0.0
C214 C 0.99537 0.55231 0.48963 0.0
C215 C 0.99443 0.54814 0.38152 0.0
C216 C 0.01407 0.5475 0.38278 0.0
C217 C 0.02384 0.54747 0.43977 0.0
C218 C 0.01515 0.55203 0.49297 0.0
Zn219 Zn 0.95441 0.54699 0.43305 0.0
O220 O 0.90996 0.51938 0.5013 0.0
C221 C 0.92334 0.51214 0.34371 0.0
O222 O 0.94345 0.52393 0.50487 0.0
H223 H 0.98626 0.54664 0.3381 0.0
H224 H 0.87112 0.50947 0.44812 0.0
H225 H 0.98796 0.55402 0.53152 0.0
O226 O 0.91002 0.51899 0.35881 0.0
O227 O 0.94235 0.52112 0.36854 0.0
H228 H 0.90413 0.5785 0.42597 0.0
O229 O 0.9653 0.56969 0.36293 0.0
O230 O 0.93447 0.57093 0.35866 0.0
O231 O 0.96596 0.57223 0.49585 0.0
O232 O 0.93373 0.57027 0.50415 0.0
C233 C 0.95422 0.57764 0.33983 0.0
H234 H 0.8359 0.50848 0.46724 0.0
H235 H 0.86962 0.57898 0.44453 0.0
H236 H 0.02009 0.54493 0.33953 0.0
H237 H 0.02236 0.55363 0.53797 0.0
C238 C 0.41309 0.92102 0.85819 0.0
N239 N 0.3497 0.88657 0.76705 0.0
C240 C 0.34974 0.86714 0.76843 0.0
C241 C 0.33015 0.84707 0.77966 0.0
C242 C 0.31008 0.8467 0.7905 0.0
C243 C 0.31053 0.86699 0.78769 0.0
C244 C 0.3304 0.88663 0.77576 0.0
Zn245 Zn 0.37978 0.91725 0.76012 0.0
C246 C 0.37979 0.95202 0.84305 0.0
N247 N 0.43851 0.97908 0.75499 0.0
C248 C 0.45905 0.98204 0.76134 0.0
C249 C 0.43524 0.99558 0.73408 0.0
C250 C 0.45248 0.01413 0.70674 0.0
C251 C 0.47325 0.0159 0.70379 0.0
C252 C 0.47693 1.00091 0.73764 0.0
Zn253 Zn 0.41167 0.94873 0.7606 0.0
O254 O 0.39491 0.90711 0.83263 0.0
C255 C 0.41484 0.91599 0.67804 0.0
O256 O 0.42333 0.94074 0.8392 0.0
H257 H 0.4188 0.99331 0.73187 0.0
H258 H 0.36512 0.86719 0.76231 0.0
H259 H 0.46131 0.96888 0.77892 0.0
O260 O 0.39403 0.90484 0.68898 0.0
O261 O 0.42625 0.93455 0.70446 0.0
H262 H 0.33043 0.90205 0.77477 0.0
O263 O 0.40076 0.95666 0.68186 0.0
O264 O 0.36664 0.92964 0.68522 0.0
O265 O 0.39796 0.9629 0.81541 0.0
O266 O 0.368 0.93143 0.83232 0.0
C267 C 0.38154 0.9474 0.66006 0.0
H268 H 0.33092 0.83205 0.78177 0.0
H269 H 0.2956 0.86775 0.79471 0.0
H270 H 0.44909 0.02557 0.68235 0.0
H271 H 0.4927 1.00176 0.73736 0.0
C272 C 0.49729 0.41287 0.18506 0.0
N273 N 0.46703 0.3473 0.1029 0.0
C274 C 0.48665 0.34753 0.10479 0.0
C275 C 0.48742 0.32812 0.1163 0.0
C276 C 0.46785 0.30799 0.1269 0.0
C277 C 0.44785 0.30825 0.12387 0.0
C278 C 0.44781 0.32796 0.11166 0.0
Zn279 Zn 0.46603 0.37718 0.09343 0.0
C280 C 0.4323 0.37833 0.17808 0.0
N281 N 0.46179 0.43636 0.08329 0.0
C282 C 0.47878 0.45739 0.08525 0.0
C283 C 0.44131 0.43192 0.06497 0.0
C284 C 0.43878 0.44762 0.0325 0.0
C285 C 0.45747 0.46798 0.02067 0.0
C286 C 0.47664 0.47394 0.05574 0.0
Zn287 Zn 0.46603 0.40943 0.09054 0.0
O288 O 0.49137 0.39334 0.16637 0.0
C289 C 0.5011 0.41073 0.00675 0.0
O290 O 0.48817 0.42302 0.16236 0.0
H291 H 0.42742 0.41539 0.0679 0.0
H292 H 0.50188 0.36292 0.09857 0.0
H293 H 0.49471 0.46085 0.10235 0.0
O294 O 0.49251 0.39055 0.02312 0.0
O295 O 0.4932 0.42228 0.02832 0.0
H296 H 0.43227 0.3278 0.11021 0.0
O297 O 0.44461 0.39633 0.01693 0.0
O298 O 0.44055 0.36331 0.01824 0.0
O299 O 0.43999 0.39684 0.15228 0.0
O300 O 0.44012 0.36588 0.16432 0.0
C301 C 0.43567 0.37715 0.99514 0.0
H302 H 0.50333 0.32905 0.1186 0.0
H303 H 0.43224 0.29328 0.13072 0.0
H304 H 0.42339 0.44276 0.00902 0.0
H305 H 0.49138 0.48982 0.04979 0.0
C306 C 0.09094 0.49844 0.52276 0.0
N307 N 0.12837 0.4703 0.43939 0.0
C308 C 0.14686 0.48993 0.45191 0.0
C309 C 0.1674 0.49119 0.46273 0.0
C310 C 0.16936 0.4721 0.46088 0.0
C311 C 0.15002 0.45216 0.44671 0.0
C312 C 0.12984 0.45163 0.43638 0.0
Zn313 Zn 0.09618 0.46716 0.43377 0.0
C314 C 0.06472 0.4343 0.52142 0.0
N315 N 0.02949 0.45813 0.43216 0.0
C316 C 0.01799 0.45407 0.50253 0.0
C317 C 0.01712 0.45289 0.36335 0.0
C318 C 0.98727 0.44152 0.35658 0.0
C319 C 0.97071 0.43439 0.43503 0.0
C320 C 0.98794 0.44263 0.51182 0.0
Zn321 Zn 0.06275 0.46584 0.4305 0.0
O322 O 0.10437 0.49189 0.50686 0.0
C323 C 0.0929 0.4996 0.34384 0.0
O324 O 0.07191 0.48981 0.49823 0.0
H325 H 0.02653 0.4546 0.32211 0.0
H326 H 0.14568 0.50471 0.45486 0.0
H327 H 0.02804 0.45653 0.54278 0.0
O328 O 0.10621 0.49351 0.3645 0.0
O329 O 0.07303 0.49031 0.36307 0.0
H330 H 0.11513 0.43601 0.42759 0.0
O331 O 0.05459 0.44314 0.36103 0.0
O332 O 0.08534 0.44205 0.35831 0.0
O333 O 0.05366 0.44212 0.49786 0.0
O334 O 0.0845 0.44141 0.50378 0.0
C335 C 0.06582 0.43541 0.33801 0.0
H336 H 0.18162 0.50709 0.47253 0.0
H337 H 0.1502 0.43683 0.44549 0.0
H338 H 0.97899 0.43648 0.31264 0.0
H339 H 0.98012 0.43784 0.55654 0.0
C340 C 0.60082 0.08837 0.84489 0.0
N341 N 0.66784 0.12343 0.77221 0.0
C342 C 0.66717 0.1422 0.78414 0.0
C343 C 0.68663 0.16222 0.79661 0.0
C344 C 0.70733 0.16334 0.79669 0.0
C345 C 0.7075 0.14374 0.78335 0.0
C346 C 0.68765 0.12404 0.77155 0.0
Zn347 Zn 0.63804 0.09283 0.75962 0.0
C348 C 0.63437 0.05723 0.84578 0.0
N349 N 0.57903 0.02996 0.74197 0.0
C350 C 0.55821 0.02648 0.74662 0.0
C351 C 0.58266 0.01331 0.72438 0.0
C352 C 0.56591 0.99456 0.69604 0.0
C353 C 0.54536 0.99297 0.68791 0.0
C354 C 0.54082 0.00746 0.72136 0.0
Zn355 Zn 0.60594 0.06081 0.75062 0.0
O356 O 0.62116 0.10142 0.83182 0.0
C357 C 0.60672 0.09436 0.66284 0.0
O358 O 0.59055 0.07004 0.81696 0.0
H359 H 0.59905 0.01545 0.72596 0.0
H360 H 0.65145 0.14166 0.78469 0.0
H361 H 0.55539 0.03947 0.76277 0.0
O362 O 0.62547 0.10671 0.68846 0.0
O363 O 0.5953 0.07436 0.6798 0.0
H364 H 0.68809 0.10908 0.76278 0.0
O365 O 0.6209 0.05195 0.68422 0.0
O366 O 0.65294 0.08226 0.68501 0.0
O367 O 0.61602 0.0476 0.81851 0.0
O368 O 0.64838 0.07707 0.83119 0.0
C369 C 0.64015 0.06304 0.66315 0.0
H370 H 0.68541 0.17676 0.80573 0.0
H371 H 0.72282 0.14344 0.78348 0.0
H372 H 0.56984 0.98322 0.67319 0.0
H373 H 0.52515 0.0067 0.717 0.0
C374 C 0.51796 0.5951 0.15825 0.0
N375 N 0.54878 0.66464 0.10256 0.0
C376 C 0.54701 0.66953 0.16246 0.0
C377 C 0.54634 0.68874 0.17808 0.0
C378 C 0.54759 0.70348 0.13197 0.0
C379 C 0.54934 0.69791 0.07053 0.0
C380 C 0.54987 0.67849 0.05691 0.0
Zn381 Zn 0.55035 0.63571 0.07969 0.0
C382 C 0.58245 0.62959 0.16463 0.0
N383 N 0.55562 0.57887 0.03458 0.0
C384 C 0.55788 0.57979 0.9722 0.0
C385 C 0.55737 0.56333 0.06744 0.0
C386 C 0.55983 0.54702 0.03656 0.0
C387 C 0.56075 0.54693 0.97132 0.0
C388 C 0.56135 0.56476 0.94035 0.0
Zn389 Zn 0.55216 0.6046 0.0671 0.0
O390 O 0.52441 0.61545 0.14778 0.0
C391 C 0.51833 0.60725 0.984 0.0
O392 O 0.527 0.58585 0.1292 0.0
H393 H 0.55626 0.5632 0.11717 0.0
H394 H 0.54625 0.65858 0.19859 0.0
H395 H 0.55645 0.59201 0.94567 0.0
O396 O 0.52453 0.626 0.00865 0.0
O397 O 0.52773 0.59659 0.99976 0.0
H398 H 0.55117 0.67454 0.00946 0.0
O399 O 0.5775 0.62341 0.00779 0.0
O400 O 0.57642 0.65391 0.00851 0.0
O401 O 0.57517 0.61177 0.1348 0.0
O402 O 0.57561 0.64302 0.15184 0.0
C403 C 0.5848 0.6426 0.98807 0.0
H404 H 0.54525 0.69216 0.2262 0.0
H405 H 0.55004 0.70831 0.03285 0.0
H406 H 0.55996 0.53417 0.06363 0.0
H407 H 0.56202 0.56623 0.89077 0.0
C408 C 0.48301 0.20587 0.2448 0.0
C409 C 0.46895 0.18608 0.21375 0.0
C410 C 0.4831 0.22569 0.23148 0.0
C411 C 0.46899 0.22616 0.18525 0.0
C412 C 0.45489 0.2063 0.15342 0.0
C413 C 0.45496 0.18667 0.16814 0.0
C414 C 0.49825 0.24618 0.26743 0.0
C415 C 0.43974 0.2058 0.10331 0.0
C416 C 0.45382 0.27206 0.18608 0.0
C417 C 0.46825 0.28705 0.14188 0.0
C418 C 0.45402 0.25249 0.20083 0.0
C419 C 0.46885 0.24729 0.17048 0.0
C420 C 0.48342 0.26229 0.12572 0.0
C421 C 0.48304 0.28188 0.11234 0.0
C422 C 0.43834 0.23738 0.24938 0.0
C423 C 0.49936 0.25755 0.09137 0.0
H424 H 0.49376 0.20581 0.28056 0.0
H425 H 0.44422 0.17175 0.14289 0.0
H426 H 0.50966 0.25932 0.23559 0.0
H427 H 0.48844 0.2524 0.29156 0.0
H428 H 0.50816 0.24324 0.30204 0.0
H429 H 0.42999 0.18924 0.08213 0.0
H430 H 0.42816 0.2108 0.12232 0.0
H431 H 0.4495 0.21777 0.0667 0.0
H432 H 0.44251 0.2758 0.21017 0.0
H433 H 0.49415 0.293 0.07767 0.0
H434 H 0.44775 0.23512 0.28695 0.0
H435 H 0.42729 0.22093 0.2292 0.0
H436 H 0.42804 0.24379 0.26956 0.0
H437 H 0.51048 0.25582 0.12438 0.0
H438 H 0.50958 0.27069 0.05782 0.0
H439 H 0.49016 0.24171 0.06624 0.0
C440 C 0.27307 0.45921 0.57884 0.0
C441 C 0.29294 0.47274 0.54708 0.0
C442 C 0.25329 0.45933 0.56539 0.0
C443 C 0.2529 0.4733 0.5187 0.0
C444 C 0.27288 0.4871 0.48672 0.0
C445 C 0.29245 0.48668 0.50116 0.0
C446 C 0.23268 0.44437 0.60131 0.0
C447 C 0.27355 0.50224 0.43646 0.0
C448 C 0.19693 0.4586 0.44463 0.0
C449 C 0.19107 0.47279 0.47473 0.0
C450 C 0.21681 0.45869 0.4581 0.0
C451 C 0.23165 0.4733 0.50309 0.0
C452 C 0.22595 0.48777 0.5334 0.0
C453 C 0.20597 0.48736 0.51899 0.0
C454 C 0.22194 0.443 0.424 0.0
C455 C 0.24094 0.50362 0.5818 0.0
H456 H 0.27295 0.44856 0.61505 0.0
H457 H 0.30734 0.49704 0.47525 0.0
H458 H 0.22638 0.45422 0.62473 0.0
H459 H 0.21957 0.43287 0.56946 0.0
H460 H 0.23555 0.43461 0.63649 0.0
H461 H 0.29031 0.51224 0.41641 0.0
H462 H 0.26196 0.49248 0.3991 0.0
H463 H 0.26809 0.51352 0.45489 0.0
H464 H 0.18603 0.44745 0.4097 0.0
H465 H 0.20182 0.49825 0.54362 0.0
H466 H 0.22366 0.43195 0.45719 0.0
H467 H 0.23791 0.45233 0.3994 0.0
H468 H 0.20895 0.43277 0.39004 0.0
H469 H 0.24295 0.49438 0.62027 0.0
H470 H 0.23452 0.51407 0.60067 0.0
H471 H 0.25757 0.51446 0.56204 0.0
C472 C 0.82431 0.266 0.91316 0.0
C473 C 0.82986 0.28586 0.883 0.0
C474 C 0.80456 0.24618 0.89982 0.0
C475 C 0.78971 0.24583 0.8547 0.0
C476 C 0.7952 0.26578 0.824 0.0
C477 C 0.81499 0.28539 0.83851 0.0
C478 C 0.79953 0.22555 0.93437 0.0
C479 C 0.78019 0.2664 0.77523 0.0
C480 C 0.74829 0.19037 0.7801 0.0
C481 C 0.72844 0.18459 0.81123 0.0
C482 C 0.76813 0.2101 0.79347 0.0
C483 C 0.76852 0.22467 0.83963 0.0
C484 C 0.74858 0.21894 0.87131 0.0
C485 C 0.72894 0.19919 0.85672 0.0
C486 C 0.78874 0.2154 0.75781 0.0
C487 C 0.74801 0.23366 0.92118 0.0
H488 H 0.83531 0.26596 0.94813 0.0
H489 H 0.81901 0.30035 0.81394 0.0
H490 H 0.78358 0.21905 0.95909 0.0
H491 H 0.7978 0.21266 0.9015 0.0
H492 H 0.81257 0.22843 0.96831 0.0
H493 H 0.78667 0.2831 0.7554 0.0
H494 H 0.77803 0.25482 0.73745 0.0
H495 H 0.76362 0.26096 0.79504 0.0
H496 H 0.7483 0.17958 0.74434 0.0
H497 H 0.71398 0.19499 0.88198 0.0
H498 H 0.80183 0.21711 0.78987 0.0
H499 H 0.79506 0.23137 0.73377 0.0
H500 H 0.78583 0.20255 0.72316 0.0
H501 H 0.7598 0.23578 0.95826 0.0
H502 H 0.73132 0.227 0.94176 0.0
H503 H 0.75326 0.25022 0.90216 0.0
C504 C 0.55989 0.74399 0.11412 0.0
C505 C 0.54718 0.72443 0.14765 0.0
C506 C 0.55972 0.76364 0.12824 0.0
C507 C 0.54648 0.76414 0.17724 0.0
C508 C 0.53359 0.74449 0.21123 0.0
C509 C 0.53412 0.72507 0.19625 0.0
C510 C 0.5739 0.78401 0.0907 0.0
C511 C 0.51907 0.74392 0.26353 0.0
C512 C 0.5612 0.82014 0.24978 0.0
C513 C 0.54625 0.82534 0.22143 0.0
C514 C 0.56137 0.80046 0.23618 0.0
C515 C 0.54622 0.78516 0.19301 0.0
C516 C 0.53097 0.79015 0.16461 0.0
C517 C 0.53117 0.80998 0.17898 0.0
C518 C 0.57793 0.79607 0.26807 0.0
C519 C 0.51449 0.77459 0.11828 0.0
H520 H 0.57036 0.7441 0.07711 0.0
H521 H 0.52393 0.71021 0.22229 0.0
H522 H 0.56348 0.78996 0.06914 0.0
H523 H 0.58587 0.79735 0.12115 0.0
H524 H 0.58317 0.78106 0.05387 0.0
H525 H 0.51003 0.72749 0.28569 0.0
H526 H 0.52921 0.75626 0.29898 0.0
H527 H 0.5069 0.74838 0.24635 0.0
H528 H 0.57276 0.83143 0.28335 0.0
H529 H 0.5197 0.81364 0.15569 0.0
H530 H 0.58858 0.79424 0.23339 0.0
H531 H 0.56924 0.78038 0.29399 0.0
H532 H 0.5886 0.80944 0.30053 0.0
H533 H 0.52329 0.77259 0.07841 0.0
H534 H 0.50337 0.78044 0.10115 0.0
H535 H 0.5043 0.7581 0.13924 0.0
C536 C 0.74692 0.55881 0.57895 0.0
C537 C 0.72681 0.54453 0.54944 0.0
C538 C 0.76672 0.55876 0.56479 0.0
C539 C 0.7669 0.54424 0.51926 0.0
C540 C 0.7467 0.52986 0.48911 0.0
C541 C 0.7271 0.53011 0.50459 0.0
C542 C 0.78754 0.57426 0.59901 0.0
C543 C 0.7458 0.51423 0.43985 0.0
C544 C 0.82241 0.55793 0.44301 0.0
C545 C 0.82815 0.54372 0.47323 0.0
C546 C 0.80271 0.55818 0.45713 0.0
C547 C 0.78808 0.54407 0.50331 0.0
C548 C 0.79378 0.52975 0.53413 0.0
C549 C 0.81348 0.52968 0.5187 0.0
C550 C 0.79749 0.57359 0.42217 0.0
C551 C 0.7791 0.51453 0.58408 0.0
H552 H 0.74717 0.5699 0.61415 0.0
H553 H 0.71198 0.51917 0.48041 0.0
H554 H 0.79406 0.56477 0.62314 0.0
H555 H 0.80041 0.58537 0.56599 0.0
H556 H 0.78483 0.58442 0.63339 0.0
H557 H 0.72899 0.50417 0.42024 0.0
H558 H 0.75738 0.5236 0.40201 0.0
H559 H 0.75114 0.50301 0.45912 0.0
H560 H 0.83322 0.56872 0.40733 0.0
H561 H 0.8176 0.51882 0.54342 0.0
H562 H 0.79603 0.58502 0.45466 0.0
H563 H 0.78137 0.56406 0.39852 0.0
H564 H 0.8103 0.58342 0.3873 0.0
H565 H 0.77716 0.52423 0.62151 0.0
H566 H 0.78574 0.50446 0.60412 0.0
H567 H 0.76242 0.50332 0.56532 0.0
C568 C 0.28356 0.80559 0.77613 0.0
C569 C 0.28901 0.82553 0.80582 0.0
C570 C 0.26385 0.78578 0.78996 0.0
C571 C 0.24905 0.78552 0.83532 0.0
C572 C 0.25454 0.80554 0.86581 0.0
C573 C 0.27422 0.82515 0.85062 0.0
C574 C 0.25877 0.76508 0.75547 0.0
C575 C 0.23963 0.80626 0.91496 0.0
C576 C 0.18807 0.73946 0.83482 0.0
C577 C 0.18742 0.7249 0.88044 0.0
C578 C 0.20786 0.75893 0.81943 0.0
C579 C 0.2278 0.76444 0.85056 0.0
C580 C 0.22728 0.74985 0.89667 0.0
C581 C 0.2073 0.73036 0.9107 0.0
C582 C 0.20741 0.77362 0.76947 0.0
C583 C 0.24789 0.75496 0.93183 0.0
H584 H 0.29455 0.80551 0.74103 0.0
H585 H 0.27821 0.8402 0.87482 0.0
H586 H 0.25698 0.75221 0.78834 0.0
H587 H 0.24284 0.75861 0.73082 0.0
H588 H 0.27181 0.76787 0.72148 0.0
H589 H 0.24627 0.82294 0.93518 0.0
H590 H 0.2231 0.80102 0.89534 0.0
H591 H 0.23734 0.79456 0.95242 0.0
H592 H 0.17307 0.73547 0.81019 0.0
H593 H 0.20718 0.71955 0.94644 0.0
H594 H 0.21929 0.77572 0.73253 0.0
H595 H 0.21262 0.79019 0.78852 0.0
H596 H 0.19078 0.76695 0.74871 0.0
H597 H 0.26091 0.75659 0.89945 0.0
H598 H 0.24491 0.74206 0.96622 0.0
H599 H 0.25434 0.77094 0.95612 0.0
C600 C 0.59918 0.11235 0.93036 0.0
C601 C 0.58861 0.09376 0.89208 0.0
C602 C 0.58739 0.11633 0.97685 0.0
C603 C 0.5645 0.10142 0.98527 0.0
C604 C 0.55371 0.08307 0.94538 0.0
C605 C 0.56581 0.07951 0.89963 0.0
C606 C 0.59955 0.13606 0.01836 0.0
C607 C 0.52941 0.06663 0.95238 0.0
C608 C 0.53548 0.09007 0.14007 0.0
C609 C 0.52185 0.09934 0.133 0.0
C610 C 0.55053 0.09203 0.09422 0.0
C611 C 0.55204 0.1034 0.03902 0.0
C612 C 0.53934 0.114 0.03305 0.0
C613 C 0.52443 0.11191 0.08024 0.0
C614 C 0.56366 0.0805 0.10343 0.0
C615 C 0.54049 0.12641 0.97524 0.0
H616 H 0.61673 0.12351 0.92493 0.0
H617 H 0.55729 0.06519 0.87019 0.0
H618 H 0.59059 0.14536 0.02135 0.0
H619 H 0.60035 0.13051 0.06561 0.0
H620 H 0.61664 0.14731 1.00208 0.0
H621 H 0.52313 0.05412 0.91502 0.0
H622 H 0.52647 0.058 0.99717 0.0
H623 H 0.51968 0.07517 0.95243 0.0
H624 H 0.53384 0.08051 0.18098 0.0
H625 H 0.51398 0.11911 0.07429 0.0
H626 H 0.58094 0.09091 0.0877 0.0
H627 H 0.55619 0.06512 0.07583 0.0
H628 H 0.56382 0.07616 0.15246 0.0
H629 H 0.5579 0.13736 0.96122 0.0
H630 H 0.53237 0.13644 0.9812 0.0
H631 H 0.53216 0.11455 0.93713 0.0
C632 C 0.49084 0.59148 0.24155 0.0
C633 C 0.50039 0.58198 0.20459 0.0
C634 C 0.47517 0.57911 0.28749 0.0
C635 C 0.4689 0.55672 0.29694 0.0
C636 C 0.47802 0.54694 0.2585 0.0
C637 C 0.49351 0.5596 0.21304 0.0
C638 C 0.46599 0.59024 0.32762 0.0
C639 C 0.47205 0.52322 0.26688 0.0
C640 C 0.45216 0.5286 0.45294 0.0
C641 C 0.42946 0.5141 0.4456 0.0
C642 C 0.46478 0.54369 0.40675 0.0
C643 C 0.45468 0.54394 0.35054 0.0
C644 C 0.43151 0.53007 0.34395 0.0
C645 C 0.41911 0.51543 0.39186 0.0
C646 C 0.48923 0.55843 0.4171 0.0
C647 C 0.42002 0.52985 0.28504 0.0
H648 H 0.49594 0.6087 0.23551 0.0
H649 H 0.50057 0.55192 0.18474 0.0
H650 H 0.44775 0.58016 0.33004 0.0
H651 H 0.47236 0.5918 0.37523 0.0
H652 H 0.47061 0.60691 0.31054 0.0
H653 H 0.47922 0.51757 0.23031 0.0
H654 H 0.47816 0.52123 0.31219 0.0
H655 H 0.45386 0.51237 0.2667 0.0
H656 H 0.4602 0.52787 0.49476 0.0
H657 H 0.40159 0.50423 0.38587 0.0
H658 H 0.49334 0.56057 0.46694 0.0
H659 H 0.4953 0.57494 0.39666 0.0
H660 H 0.49823 0.55099 0.3947 0.0
H661 H 0.42518 0.54688 0.27031 0.0
H662 H 0.40178 0.52049 0.28992 0.0
H663 H 0.42482 0.52216 0.24789 0.0
C664 C 0.93581 0.43098 0.7321 0.0
C665 C 0.92043 0.4203 0.77941 0.0
C666 C 0.93295 0.44417 0.68873 0.0
C667 C 0.91448 0.44729 0.69357 0.0
C668 C 0.89838 0.43577 0.73973 0.0
C669 C 0.90143 0.4222 0.7818 0.0
C670 C 0.95026 0.45556 0.63937 0.0
C671 C 0.87862 0.43882 0.74703 0.0
C672 C 0.92693 0.5028 0.62975 0.0
C673 C 0.91719 0.49711 0.57139 0.0
C674 C 0.92484 0.48658 0.67152 0.0
C675 C 0.91332 0.46411 0.65374 0.0
C676 C 0.9028 0.45827 0.59542 0.0
C677 C 0.90474 0.47487 0.55505 0.0
C678 C 0.93608 0.49363 0.73337 0.0
C679 C 0.8908 0.43467 0.57386 0.0
H680 H 0.95049 0.42947 0.73003 0.0
H681 H 0.88966 0.41418 0.81879 0.0
H682 H 0.94241 0.45209 0.59325 0.0
H683 H 0.95879 0.47363 0.6464 0.0
H684 H 0.96284 0.45031 0.63954 0.0
H685 H 0.86651 0.42709 0.78076 0.0
H686 H 0.88417 0.45582 0.76307 0.0
H687 H 0.87024 0.43667 0.70213 0.0
H688 H 0.93687 0.52005 0.64186 0.0
H689 H 0.8977 0.47054 0.50923 0.0
H690 H 0.95041 0.49093 0.73462 0.0
H691 H 0.92462 0.4836 0.7707 0.0
H692 H 0.94207 0.51129 0.74303 0.0
H693 H 0.90299 0.42935 0.56365 0.0
H694 H 0.88098 0.43246 0.53159 0.0
H695 H 0.87966 0.42369 0.61038 0.0
C696 C 0.42657 0.92344 0.96561 0.0
C697 C 0.4237 0.91456 0.90627 0.0
C698 C 0.44085 0.92177 0.00807 0.0
C699 C 0.45321 0.91166 0.99002 0.0
C700 C 0.4497 0.90195 0.93067 0.0
C701 C 0.43485 0.90338 0.8897 0.0
C702 C 0.44374 0.93211 0.07092 0.0
C703 C 0.46287 0.89156 0.90864 0.0
C704 C 0.5091 0.93565 0.06916 0.0
C705 C 0.50548 0.91955 0.11309 0.0
C706 C 0.49256 0.93282 0.02742 0.0
C707 C 0.47151 0.91359 0.03037 0.0
C708 C 0.46788 0.89698 0.07371 0.0
C709 C 0.48501 0.90004 0.1141 0.0
C710 C 0.49748 0.95081 0.98136 0.0
C711 C 0.4456 0.87649 0.07948 0.0
H712 H 0.41827 0.93247 0.97799 0.0
H713 H 0.43309 0.89704 0.84318 0.0
H714 H 0.44372 0.92099 0.10724 0.0
H715 H 0.45989 0.94754 0.07292 0.0
H716 H 0.43059 0.93611 0.0814 0.0
H717 H 0.45656 0.88266 0.86432 0.0
H718 H 0.48034 0.90455 0.9021 0.0
H719 H 0.46263 0.87991 0.9435 0.0
H720 H 0.52491 0.95077 0.06811 0.0
H721 H 0.48201 0.88769 0.14855 0.0
H722 H 0.48756 0.95872 0.99245 0.0
H723 H 0.49281 0.9438 0.93429 0.0
H724 H 0.51519 0.96371 0.98118 0.0
H725 H 0.43332 0.88102 0.09556 0.0
H726 H 0.4458 0.86449 0.11241 0.0
H727 H 0.43996 0.86839 0.03396 0.0
C728 C 0.52001 0.41423 0.27765 0.0
C729 C 0.51549 0.4249 0.23011 0.0
C730 C 0.53576 0.42646 0.3236 0.0
C731 C 0.54744 0.44982 0.32126 0.0
C732 C 0.54379 0.46047 0.27112 0.0
C733 C 0.52786 0.44795 0.22671 0.0
C734 C 0.53907 0.41444 0.37627 0.0
C735 C 0.5558 0.48526 0.2661 0.0
C736 C 0.56436 0.4856 0.46442 0.0
C737 C 0.58748 0.49532 0.46429 0.0
C738 C 0.55117 0.46985 0.42048 0.0
C739 C 0.56118 0.46344 0.37441 0.0
C740 C 0.58442 0.47231 0.37559 0.0
C741 C 0.59733 0.48812 0.42072 0.0
C742 C 0.52652 0.46088 0.4217 0.0
C743 C 0.59576 0.46595 0.32734 0.0
H744 H 0.51058 0.39644 0.28051 0.0
H745 H 0.52477 0.45636 0.18954 0.0
H746 H 0.5569 0.42131 0.38574 0.0
H747 H 0.53145 0.41664 0.41858 0.0
H748 H 0.53148 0.39654 0.36688 0.0
H749 H 0.55283 0.4909 0.2212 0.0
H750 H 0.5502 0.49217 0.30344 0.0
H751 H 0.57381 0.49212 0.27183 0.0
H752 H 0.55646 0.49075 0.49833 0.0
H753 H 0.61512 0.49544 0.42029 0.0
H754 H 0.51769 0.44266 0.42394 0.0
H755 H 0.52125 0.4655 0.37879 0.0
H756 H 0.52128 0.46718 0.46143 0.0
H757 H 0.58699 0.44783 0.32112 0.0
H758 H 0.61324 0.47172 0.33934 0.0
H759 H 0.59535 0.47329 0.28249 0.0
C760 C 0.11379 0.59544 0.76769 0.0
C761 C 0.09436 0.586 0.80301 0.0
C762 C 0.11729 0.58306 0.72214 0.0
C763 C 0.101 0.56076 0.71169 0.0
C764 C 0.08172 0.55107 0.74851 0.0
C765 C 0.07868 0.56372 0.7934 0.0
C766 C 0.13806 0.59401 0.68389 0.0
C767 C 0.06381 0.52743 0.73913 0.0
C768 C 0.08966 0.53156 0.55774 0.0
C769 C 0.09711 0.51659 0.56758 0.0
C770 C 0.09262 0.54733 0.60228 0.0
C771 C 0.10274 0.54783 0.65914 0.0
C772 C 0.1114 0.53354 0.66801 0.0
C773 C 0.10867 0.51819 0.62175 0.0
C774 C 0.08366 0.56257 0.58986 0.0
C775 C 0.12227 0.53348 0.72785 0.0
H776 H 0.12604 0.61257 0.77479 0.0
H777 H 0.06366 0.55606 0.82053 0.0
H778 H 0.14592 0.58366 0.68227 0.0
H779 H 0.1339 0.5959 0.63585 0.0
H780 H 0.15018 0.61052 0.70204 0.0
H781 H 0.05056 0.5219 0.77438 0.0
H782 H 0.05626 0.52554 0.69298 0.0
H783 H 0.07089 0.51639 0.74078 0.0
H784 H 0.08105 0.53062 0.51538 0.0
H785 H 0.11446 0.50666 0.62947 0.0
H786 H 0.09562 0.57961 0.60435 0.0
H787 H 0.06835 0.55713 0.61706 0.0
H788 H 0.0798 0.56279 0.54034 0.0
H789 H 0.13412 0.55052 0.74267 0.0
H790 H 0.1311 0.52403 0.72421 0.0
H791 H 0.10952 0.52589 0.76435 0.0
C792 C 0.37984 0.96004 0.95419 0.0
C793 C 0.37546 0.96354 0.89359 0.0
C794 C 0.38596 0.97652 0.9995 0.0
C795 C 0.38742 0.99687 0.98403 0.0
C796 C 0.38059 0.99939 0.92468 0.0
C797 C 0.37505 0.98287 0.87996 0.0
C798 C 0.39327 0.97304 0.06177 0.0
C799 C 0.38129 0.02045 0.9063 0.0
C800 C 0.402 0.0378 0.11745 0.0
C801 C 0.42506 0.04994 0.11259 0.0
C802 C 0.38923 0.02127 0.0739 0.0
C803 C 0.39984 0.01652 0.0253 0.0
C804 C 0.42304 0.02971 0.01856 0.0
C805 C 0.43527 0.04618 0.06212 0.0
C806 C 0.36457 0.00796 0.08234 0.0
C807 C 0.43526 0.02538 0.96792 0.0
H808 H 0.38085 0.94545 0.96448 0.0
H809 H 0.37219 0.98587 0.83281 0.0
H810 H 0.41151 0.98312 0.06509 0.0
H811 H 0.3862 0.97845 0.09908 0.0
H812 H 0.38838 0.95554 0.06956 0.0
H813 H 0.37133 0.01821 0.8643 0.0
H814 H 0.37514 0.02662 0.94418 0.0
H815 H 0.39861 0.03325 0.8966 0.0
H816 H 0.3941 0.04016 0.15745 0.0
H817 H 0.45314 0.05514 0.05923 0.0
H818 H 0.36006 0.99154 0.1011 0.0
H819 H 0.356 0.00533 0.03752 0.0
H820 H 0.35848 0.01604 0.11469 0.0
H821 H 0.43347 0.00888 0.97438 0.0
H822 H 0.45313 0.0378 0.96719 0.0
H823 H 0.42813 0.02541 0.92236 0.0
C824 C 0.39509 0.36861 0.21667 0.0
C825 C 0.4168 0.37382 0.22942 0.0
C826 C 0.38264 0.37278 0.26019 0.0
C827 C 0.39251 0.38325 0.31659 0.0
C828 C 0.41386 0.38694 0.33136 0.0
C829 C 0.42564 0.38199 0.28772 0.0
C830 C 0.35966 0.36773 0.24355 0.0
C831 C 0.42515 0.3981 0.39077 0.0
C832 C 0.38258 0.42723 0.38593 0.0
C833 C 0.37276 0.41776 0.44236 0.0
C834 C 0.38768 0.41557 0.3425 0.0
C835 C 0.38245 0.39366 0.35535 0.0
C836 C 0.37035 0.38326 0.40945 0.0
C837 C 0.36595 0.39556 0.45285 0.0
C838 C 0.40092 0.42761 0.28622 0.0
C839 C 0.36381 0.35981 0.42445 0.0
H840 H 0.38842 0.36279 0.17103 0.0
H841 H 0.44264 0.38658 0.29692 0.0
H842 H 0.34849 0.36112 0.28396 0.0
H843 H 0.36006 0.38306 0.22896 0.0
H844 H 0.35273 0.35567 0.20516 0.0
H845 H 0.44154 0.39937 0.39592 0.0
H846 H 0.42742 0.41493 0.39253 0.0
H847 H 0.41475 0.38887 0.43067 0.0
H848 H 0.3885 0.4446 0.3787 0.0
H849 H 0.359 0.38839 0.49729 0.0
H850 H 0.39346 0.41773 0.24405 0.0
H851 H 0.41788 0.4302 0.29029 0.0
H852 H 0.40211 0.4439 0.28045 0.0
H853 H 0.3595 0.34956 0.38218 0.0
H854 H 0.34955 0.35236 0.45666 0.0
H855 H 0.37784 0.35946 0.44704 0.0
C856 C 0.05396 0.42877 0.63034 0.0
C857 C 0.05452 0.41934 0.57397 0.0
C858 C 0.03734 0.41687 0.67393 0.0
C859 C 0.02098 0.3948 0.66121 0.0
C860 C 0.02271 0.38459 0.60667 0.0
C861 C 0.03926 0.39712 0.56315 0.0
C862 C 0.03607 0.42868 0.73071 0.0
C863 C 1.00605 0.36102 0.59174 0.0
C864 C 0.98476 0.36846 0.80173 0.0
C865 C 0.96758 0.37285 0.79111 0.0
C866 C 1.00117 0.37336 0.75689 0.0
C867 C 1.00087 0.38377 0.70131 0.0
C868 C 0.98261 0.3867 0.68867 0.0
C869 C 0.96608 0.38098 0.73353 0.0
C870 C 0.01984 0.3692 0.77142 0.0
C871 C 0.98168 0.39807 0.63063 0.0
H872 H 0.06527 0.44617 0.63775 0.0
H873 H 0.03919 0.39001 0.51867 0.0
H874 H 0.02129 0.43062 0.72786 0.0
H875 H 0.03433 0.41895 0.77265 0.0
H876 H 0.05087 0.44525 0.73599 0.0
H877 H 0.01246 0.3541 0.55653 0.0
H878 H 1.00141 0.35061 0.63366 0.0
H879 H 0.99088 0.36017 0.57324 0.0
H880 H 0.98628 0.36272 0.84681 0.0
H881 H 0.9532 0.38505 0.72605 0.0
H882 H 0.03457 0.38484 0.78554 0.0
H883 H 0.02442 0.36298 0.73015 0.0
H884 H 0.01548 0.35715 0.80948 0.0
H885 H 0.99508 0.41552 0.63142 0.0
H886 H 0.96568 0.39765 0.62556 0.0
H887 H 0.98433 0.39029 0.58945 0.0
C888 C 0.59651 0.95585 0.06136 0.0
C889 C 0.60303 0.96138 0.12285 0.0
C890 C 0.60675 0.97148 0.01384 0.0
C891 C 0.6239 0.99311 0.02822 0.0
C892 C 0.63221 0.99774 0.08918 0.0
C893 C 0.62164 0.98189 0.13561 0.0
C894 C 0.59743 0.96559 0.94959 0.0
C895 C 0.65026 0.02042 0.10736 0.0
C896 C 0.65002 0.03601 0.8985 0.0
C897 C 0.63654 0.04556 0.89968 0.0
C898 C 0.64671 0.01934 0.94112 0.0
C899 C 0.62924 0.01181 0.98472 0.0
C900 C 0.61615 0.02202 0.98667 0.0
C901 C 0.62009 0.03876 0.94481 0.0
C902 C 0.66101 0.00894 0.9371 0.0
C903 C 0.5969 0.01432 0.03031 0.0
H904 H 0.58187 0.94025 0.05123 0.0
H905 H 0.62653 0.98641 0.18322 0.0
H906 H 0.58632 0.97238 0.94156 0.0
H907 H 0.61077 0.97283 0.91464 0.0
H908 H 0.58777 0.94749 0.94275 0.0
H909 H 0.65791 0.02022 0.15197 0.0
H910 H 0.66329 0.02753 0.07149 0.0
H911 H 0.64316 0.03139 0.11227 0.0
H912 H 0.66221 0.0406 0.86224 0.0
H913 H 0.6092 0.04562 0.94464 0.0
H914 H 0.65118 0.99203 0.91833 0.0
H915 H 0.6668 0.00756 0.98355 0.0
H916 H 0.67556 0.01842 0.90681 0.0
H917 H 0.58309 0.99839 0.01391 0.0
H918 H 0.59088 0.02625 0.03394 0.0
H919 H 0.60157 0.0116 0.07664 0.0
C920 C 0.63361 0.58377 0.391 0.0
C921 C 0.63979 0.59335 0.44948 0.0
C922 C 0.6284 0.59408 0.34363 0.0
C923 C 0.62971 0.61464 0.35485 0.0
C924 C 0.63819 0.62539 0.41193 0.0
C925 C 0.64275 0.61444 0.45893 0.0
C926 C 0.61921 0.5818 0.28396 0.0
C927 C 0.64048 0.64753 0.4255 0.0
C928 C 0.61865 0.63992 0.21323 0.0
C929 C 0.59599 0.63213 0.21934 0.0
C930 C 0.63035 0.63579 0.25918 0.0
C931 C 0.61891 0.62289 0.31119 0.0
C932 C 0.59621 0.61597 0.31872 0.0
C933 C 0.58511 0.62079 0.27288 0.0
C934 C 0.65461 0.644 0.25 0.0
C935 C 0.58315 0.60194 0.37278 0.0
H936 H 0.63063 0.56718 0.38423 0.0
H937 H 0.64699 0.62164 0.50462 0.0
H938 H 0.60126 0.57594 0.28174 0.0
H939 H 0.62709 0.59279 0.24397 0.0
H940 H 0.6216 0.56735 0.27961 0.0
H941 H 0.65132 0.65555 0.46588 0.0
H942 H 0.64729 0.65858 0.38506 0.0
H943 H 0.62399 0.64543 0.43565 0.0
H944 H 0.62694 0.64814 0.17099 0.0
H945 H 0.56744 0.61418 0.27664 0.0
H946 H 0.65696 0.63013 0.23557 0.0
H947 H 0.66378 0.65067 0.2937 0.0
H948 H 0.66186 0.65696 0.21406 0.0
H949 H 0.58258 0.58585 0.3707 0.0
H950 H 0.56595 0.59884 0.37348 0.0
H951 H 0.59124 0.60996 0.41673 0.0
C952 C 0.03343 0.6437 0.802 0.0
C953 C 0.04951 0.63764 0.79244 0.0
C954 C 0.01707 0.63914 0.75744 0.0
C955 C 0.01632 0.6275 0.7032 0.0
C956 C 0.0335 0.62276 0.69165 0.0
C957 C 0.04995 0.62806 0.73624 0.0
C958 C 0.99956 0.64514 0.77088 0.0
C959 C 0.03332 0.6101 0.63505 0.0
C960 C 0.96247 0.58458 0.63072 0.0
C961 C 0.96353 0.59391 0.57301 0.0
C962 C 0.97874 0.59603 0.67556 0.0
C963 C 0.99632 0.61753 0.6627 0.0
C964 C 0.99607 0.62787 0.60693 0.0
C965 C 0.97989 0.61577 0.56221 0.0
C966 C 0.97838 0.58413 0.73383 0.0
C967 C 0.01399 0.65096 0.59201 0.0
H968 H 0.03268 0.65055 0.84619 0.0
H969 H 0.06195 0.62272 0.7297 0.0
H970 H 0.99535 0.65116 0.72868 0.0
H971 H 0.98434 0.63034 0.78698 0.0
H972 H 1.00492 0.65796 0.80724 0.0
H973 H 0.04866 0.60919 0.63056 0.0
H974 H 0.01908 0.59308 0.63741 0.0
H975 H 0.03131 0.61781 0.59288 0.0
H976 H 0.95027 0.56744 0.63833 0.0
H977 H 0.98111 0.62281 0.51695 0.0
H978 H 0.98081 0.59457 0.77477 0.0
H979 H 0.99214 0.58054 0.73274 0.0
H980 H 0.96265 0.56835 0.73943 0.0
H981 H 0.01832 0.66172 0.63321 0.0
H982 H 0.00898 0.65821 0.55425 0.0
H983 H 0.02905 0.65072 0.57715 0.0
C984 C 0.48145 0.97253 0.21656 0.0
C985 C 0.47167 0.97564 0.26925 0.0
C986 C 0.50461 0.98301 0.21424 0.0
C987 C 0.51662 0.99312 0.26898 0.0
C988 C 0.50505 0.98629 0.32573 0.0
C989 C 0.48202 0.97611 0.32477 0.0
C990 C 0.51555 0.9857 0.15249 0.0
C991 C 0.51646 0.99191 0.38711 0.0
C992 C 0.56165 0.03376 0.19591 0.0
C993 C 0.57636 0.05109 0.23342 0.0
C994 C 0.55716 0.01452 0.2316 0.0
C995 C 0.53834 0.0139 0.26551 0.0
C996 C 0.54161 0.03486 0.291 0.0
C997 C 0.56248 0.05398 0.27612 0.0
C998 C 0.59573 0.01232 0.28055 0.0
C999 C 0.52439 0.0378 0.32429 0.0
H1000 H 0.47211 0.96736 0.17408 0.0
H1001 H 0.47345 0.97406 0.36775 0.0
H1002 H 0.52232 1.00287 0.13626 0.0
H1003 H 0.52921 0.98207 0.15609 0.0
H1004 H 0.50374 0.97457 0.11722 0.0
H1005 H 0.51766 0.97775 0.4047 0.0
H1006 H 0.53325 0.00603 0.38395 0.0
H1007 H 0.50713 0.9957 0.42144 0.0
H1008 H 0.56402 0.0345 0.14631 0.0
H1009 H 0.56749 0.06997 0.29591 0.0
H1010 H 0.59968 0.99937 0.26446 0.0
H1011 H 0.59749 0.00936 0.33094 0.0
H1012 H 0.61308 0.02675 0.27621 0.0
H1013 H 0.52681 0.05448 0.3159 0.0
H1014 H 0.52614 0.03636 0.37446 0.0
H1015 H 0.50752 0.02549 0.30968 0.0
C1016 C 0.44977 0.40785 0.56285 0.0
C1017 C 0.47557 0.41607 0.56494 0.0
C1018 C 0.43847 0.42314 0.56745 0.0
C1019 C 0.47361 0.4629 0.5781 0.0
C1020 C 0.4971 0.466 0.58063 0.0
C1021 C 0.49496 0.44197 0.57291 0.0
C1022 C 0.41344 0.41125 0.55973 0.0
C1023 C 0.51918 0.48654 0.58837 0.0
C1024 C 0.49838 0.52367 0.53046 0.0
C1025 C 0.50917 0.53275 0.58564 0.0
C1026 C 0.4856 0.5007 0.5247 0.0
C1027 C 0.478 0.48713 0.5796 0.0
C1028 C 0.48303 0.49893 0.6374 0.0
C1029 C 0.49807 0.52166 0.63868 0.0
C1030 C 0.48556 0.49238 0.46009 0.0
C1031 C 0.47693 0.48816 0.69995 0.0
H1032 H 0.43878 0.39022 0.55714 0.0
H1033 H 0.51143 0.44352 0.57373 0.0
H1034 H 0.40936 0.41264 0.51133 0.0
H1035 H 0.40524 0.41708 0.59132 0.0
H1036 H 0.40636 0.39341 0.56877 0.0
H1037 H 0.53249 0.48237 0.5914 0.0
H1038 H 0.52264 0.4976 0.54846 0.0
H1039 H 0.51952 0.49536 0.63106 0.0
H1040 H 0.50432 0.53363 0.48937 0.0
H1041 H 0.50377 0.52972 0.68254 0.0
H1042 H 0.46944 0.48674 0.43762 0.0
H1043 H 0.4902 0.47951 0.4601 0.0
H1044 H 0.49781 0.50543 0.42928 0.0
H1045 H 0.45945 0.48267 0.71001 0.0
H1046 H 0.48605 0.49955 0.73826 0.0
H1047 H 0.48047 0.47454 0.70245 0.0
C1048 C 0.02146 0.47147 0.10237 0.0
C1049 C 0.03027 0.48267 0.0465 0.0
C1050 C 0.01299 0.48031 0.14554 0.0
C1051 C 0.01473 0.50083 0.13263 0.0
C1052 C 0.03182 0.5149 0.09156 0.0
C1053 C 0.03837 0.50533 0.04553 0.0
C1054 C 0.9982 0.46568 0.19581 0.0
C1055 C 0.04121 0.53939 0.09123 0.0
C1056 C 0.97473 0.50349 0.03912 0.0
C1057 C 0.98292 0.52584 0.05013 0.0
C1058 C 0.97943 0.49114 0.08064 0.0
C1059 C 0.99405 0.50224 0.13038 0.0
C1060 C 0.99496 0.52169 0.15163 0.0
C1061 C 0.98945 0.53367 0.11058 0.0
C1062 C 0.97011 0.467 0.06808 0.0
C1063 C 1.00452 0.53132 0.21345 0.0
H1064 H 0.01647 0.45422 0.10619 0.0
H1065 H 0.04733 0.51489 0.00556 0.0
H1066 H 0.99181 0.47425 0.22492 0.0
H1067 H 0.98415 0.45065 0.1758 0.0
H1068 H 1.0076 0.46022 0.22478 0.0
H1069 H 0.04344 0.5456 0.13896 0.0
H1070 H 0.05724 0.54789 0.06648 0.0
H1071 H 0.02998 0.54377 0.0682 0.0
H1072 H 0.96747 0.49658 0.99472 0.0
H1073 H 0.99414 0.55046 0.12215 0.0
H1074 H 0.95955 0.45729 0.10719 0.0
H1075 H 0.98286 0.46243 0.06238 0.0
H1076 H 0.9603 0.46198 0.0252 0.0
H1077 H 0.00977 0.52104 0.23892 0.0
H1078 H 0.99175 0.53246 0.24098 0.0
H1079 H 0.01861 0.54831 0.20835 0.0
C1080 C 0.97014 0.41173 0.43558 0.0
C1081 C 0.95312 0.42055 0.43487 0.0
C1082 C 0.99679 0.42654 0.43488 0.0
C1083 C 1.00257 0.46709 0.4329 0.0
C1084 C 0.98253 0.4707 0.42951 0.0
C1085 C 0.96026 0.44674 0.43208 0.0
C1086 C 0.00911 0.41391 0.44423 0.0
C1087 C 0.9816 0.49157 0.42373 0.0
C1088 C 0.03631 0.5255 0.49945 0.0
C1089 C 0.03784 0.53667 0.44516 0.0
C1090 C 0.02631 0.50247 0.49867 0.0
C1091 C 0.02267 0.49105 0.44026 0.0
C1092 C 0.03238 0.50496 0.38686 0.0
C1093 C 0.04186 0.52793 0.39243 0.0
C1094 C 0.01557 0.49167 0.55936 0.0
C1095 C 0.02888 0.4967 0.32142 0.0
H1096 H 0.96303 0.39396 0.43782 0.0
H1097 H 0.94555 0.44865 0.43069 0.0
H1098 H 0.02417 0.42027 0.41709 0.0
H1099 H 0.99846 0.39647 0.43042 0.0
H1100 H 0.01283 0.41376 0.49378 0.0
H1101 H 0.96432 0.48782 0.41792 0.0
H1102 H 0.98835 0.50177 0.46566 0.0
H1103 H 0.99125 0.50099 0.38309 0.0
H1104 H 0.03789 0.53375 0.54281 0.0
H1105 H 0.04763 0.53815 0.35164 0.0
H1106 H 0.0244 0.48408 0.58113 0.0
H1107 H 0.99787 0.47977 0.55335 0.0
H1108 H 0.01613 0.50358 0.59416 0.0
H1109 H 0.04063 0.49106 0.30985 0.0
H1110 H 0.03208 0.50964 0.28703 0.0
H1111 H 0.01164 0.48358 0.31485 0.0
C1112 C 0.51085 0.03649 0.66031 0.0
C1113 C 0.48822 0.02748 0.65187 0.0
C1114 C 0.52352 0.03477 0.6132 0.0
C1115 C 0.51285 0.02225 0.55983 0.0
C1116 C 0.49266 0.02091 0.54399 0.0
C1117 C 0.47987 0.02269 0.59133 0.0
C1118 C 0.54812 0.04718 0.61902 0.0
C1119 C 0.4841 0.01601 0.47901 0.0
C1120 C 0.54553 0.99617 0.57597 0.0
C1121 C 0.53367 0.98477 0.62864 0.0
C1122 C 0.53682 0.00596 0.53734 0.0
C1123 C 0.51541 1.00246 0.55 0.0
C1124 C 0.50121 0.98343 0.58538 0.0
C1125 C 0.51081 0.97571 0.62784 0.0
C1126 C 0.55236 0.02333 0.4932 0.0
C1127 C 0.47658 0.97378 0.5883 0.0
H1128 H 0.51812 0.04273 0.70516 0.0
H1129 H 0.46273 0.01744 0.58244 0.0
H1130 H 0.55366 0.05955 0.65662 0.0
H1131 H 0.55476 0.0361 0.62724 0.0
H1132 H 0.55509 0.05566 0.57513 0.0
H1133 H 0.4976 0.02634 0.4466 0.0
H1134 H 0.4782 0.99863 0.46687 0.0
H1135 H 0.47032 0.01936 0.47232 0.0
H1136 H 0.56304 1.00192 0.57313 0.0
H1137 H 0.50102 0.96546 0.66586 0.0
H1138 H 0.56718 0.03601 0.51778 0.0
H1139 H 0.54434 0.03124 0.46822 0.0
H1140 H 0.55867 0.01569 0.4602 0.0
H1141 H 0.47219 0.98154 0.62574 0.0
H1142 H 0.46841 0.95603 0.59903 0.0
H1143 H 0.46975 0.97565 0.54449 0.0
C1144 C 0.55386 0.52695 0.87006 0.0
C1145 C 0.55456 0.52639 0.93508 0.0
C1146 C 0.53433 0.51204 0.83945 0.0
C1147 C 0.51695 0.49559 0.87431 0.0
C1148 C 0.52281 0.48974 0.93051 0.0
C1149 C 0.54107 0.50589 0.96276 0.0
C1150 C 0.53134 0.51559 0.77298 0.0
C1151 C 0.50928 0.46719 0.95757 0.0
C1152 C 0.47435 0.5003 0.95182 0.0
C1153 C 0.46054 0.47769 0.95824 0.0
C1154 C 0.4911 0.50838 0.90726 0.0
C1155 C 0.4944 0.4931 0.87199 0.0
C1156 C 0.47609 0.47174 0.86474 0.0
C1157 C 0.45887 0.46419 0.90804 0.0
C1158 C 0.50754 0.53255 0.90944 0.0
C1159 C 0.47675 0.45535 0.8215 0.0
H1160 H 0.56644 0.54093 0.84488 0.0
H1161 H 0.54319 0.50307 0.01057 0.0
H1162 H 0.52491 0.52713 0.76963 0.0
H1163 H 0.54732 0.52281 0.74815 0.0
H1164 H 0.51952 0.49988 0.75055 0.0
H1165 H 0.51548 0.46595 1.00345 0.0
H1166 H 0.49185 0.46235 0.96188 0.0
H1167 H 0.50958 0.455 0.92576 0.0
H1168 H 0.47469 0.51119 0.9879 0.0
H1169 H 0.44728 0.44668 0.90989 0.0
H1170 H 0.49884 0.54209 0.91251 0.0
H1171 H 0.51852 0.53831 0.86875 0.0
H1172 H 0.51727 0.53603 0.95229 0.0
H1173 H 0.49109 0.46315 0.79014 0.0
H1174 H 0.46145 0.44762 0.79361 0.0
H1175 H 0.4773 0.44212 0.84804 0.0
C1176 C 0.36866 0.9718 0.61399 0.0
C1177 C 0.37833 0.95858 0.60621 0.0
C1178 C 0.37343 0.98936 0.57307 0.0
C1179 C 0.38859 0.99414 0.52383 0.0
C1180 C 0.39732 0.97996 0.51392 0.0
C1181 C 0.39205 0.96246 0.55488 0.0
C1182 C 0.36345 1.00371 0.58532 0.0
C1183 C 0.41371 0.9843 0.46285 0.0
C1184 C 0.39869 0.0315 0.38505 0.0
C1185 C 0.41901 0.05007 0.39998 0.0
C1186 C 0.38745 0.014 0.42707 0.0
C1187 C 0.39692 0.01473 0.48535 0.0
C1188 C 0.41648 0.03428 0.50255 0.0
C1189 C 0.42721 0.05168 0.45985 0.0
C1190 C 0.36652 0.99383 0.40666 0.0
C1191 C 0.42723 0.03601 0.56408 0.0
H1192 H 0.35876 0.96956 0.65474 0.0
H1193 H 0.4002 0.95285 0.54972 0.0
H1194 H 0.37598 0.01929 0.60713 0.0
H1195 H 0.35825 0.00799 0.54168 0.0
H1196 H 0.34899 0.99559 0.61668 0.0
H1197 H 0.41845 0.97138 0.45989 0.0
H1198 H 0.40676 0.98527 0.41786 0.0
H1199 H 0.42886 1.00038 0.47068 0.0
H1200 H 0.39257 0.02973 0.33831 0.0
H1201 H 0.44325 0.06554 0.47115 0.0
H1202 H 0.35418 0.98756 0.44447 0.0
H1203 H 0.3702 0.98063 0.39442 0.0
H1204 H 0.35915 0.99722 0.36579 0.0
H1205 H 0.41543 0.0333 0.60181 0.0
H1206 H 0.44232 0.05226 0.57094 0.0
H1207 H 0.43174 0.02299 0.5679 0.0
C1208 C 0.39866 0.36761 0.95403 0.0
C1209 C 0.42051 0.37285 0.94234 0.0
C1210 C 0.38667 0.37281 0.91133 0.0
C1211 C 0.39693 0.3842 0.85613 0.0
C1212 C 0.41849 0.38817 0.84241 0.0
C1213 C 0.42988 0.3824 0.88538 0.0
C1214 C 0.36358 0.3675 0.9275 0.0
C1215 C 0.43021 0.39973 0.78392 0.0
C1216 C 0.37165 0.39681 0.71635 0.0
C1217 C 0.37552 0.41804 0.72994 0.0
C1218 C 0.37653 0.38469 0.75915 0.0
C1219 C 0.38651 0.3943 0.81641 0.0
C1220 C 0.38895 0.41514 0.83194 0.0
C1221 C 0.38328 0.42657 0.78884 0.0
C1222 C 0.37221 0.36214 0.74072 0.0
C1223 C 0.39853 0.42628 0.89273 0.0
H1224 H 0.3915 0.361 0.99875 0.0
H1225 H 0.44697 0.38716 0.87671 0.0
H1226 H 0.36398 0.38253 0.94531 0.0
H1227 H 0.35282 0.36191 0.88613 0.0
H1228 H 0.3562 0.35458 0.96354 0.0
H1229 H 0.44815 0.40551 0.78588 0.0
H1230 H 0.42317 0.38818 0.74459 0.0
H1231 H 0.42793 0.41399 0.7743 0.0
H1232 H 0.36627 0.39027 0.67035 0.0
H1233 H 0.3869 0.44317 0.79931 0.0
H1234 H 0.36985 0.35161 0.78134 0.0
H1235 H 0.38637 0.36378 0.71344 0.0
H1236 H 0.35733 0.35376 0.71104 0.0
H1237 H 0.40854 0.42011 0.91541 0.0
H1238 H 0.38481 0.42336 0.9242 0.0
H1239 H 0.40891 0.44436 0.88671 0.0
C1240 C 0.97879 0.36697 0.06994 0.0
C1241 C 0.96345 0.37401 0.08017 0.0
C1242 C 0.99635 0.37238 0.11153 0.0
C1243 C 0.999 0.38558 0.16404 0.0
C1244 C 0.98269 0.39149 0.17635 0.0
C1245 C 0.9652 0.38558 0.13461 0.0
C1246 C 0.01301 0.3654 0.0966 0.0
C1247 C 0.98484 0.40592 0.23059 0.0
C1248 C 0.03777 0.39833 0.30135 0.0
C1249 C 0.05506 0.4195 0.28694 0.0
C1250 C 0.02041 0.38615 0.25949 0.0
C1251 C 0.01984 0.39555 0.20222 0.0
C1252 C 0.03818 0.41623 0.1856 0.0
C1253 C 0.05553 0.42782 0.22794 0.0
C1254 C 1.0018 0.36394 0.27885 0.0
C1255 C 0.03907 0.42687 0.12447 0.0
H1256 H 0.97816 0.35882 0.02687 0.0
H1257 H 0.95396 0.39183 0.14166 0.0
H1258 H 0.02799 0.37956 0.07684 0.0
H1259 H 0.01799 0.36013 0.13888 0.0
H1260 H 1.00648 0.35174 0.06255 0.0
H1261 H 0.97072 0.40893 0.23393 0.0
H1262 H 0.98588 0.39825 0.27411 0.0
H1263 H 1.0003 0.42198 0.22628 0.0
H1264 H 0.03682 0.39205 0.34754 0.0
H1265 H 0.06845 0.4444 0.21702 0.0
H1266 H 0.99606 0.35228 0.23947 0.0
H1267 H 0.98766 0.36563 0.29493 0.0
H1268 H 1.00681 0.35687 0.31705 0.0
H1269 H 0.045 0.41975 0.08867 0.0
H1270 H 0.05056 0.44493 0.12562 0.0
H1271 H 0.02257 0.4238 0.11009 0.0
C1272 C 0.63375 0.0518 0.5545 0.0
C1273 C 0.64504 0.05321 0.60919 0.0
C1274 C 0.62779 0.03442 0.5124 0.0
C1275 C 0.63374 0.01816 0.52414 0.0
C1276 C 0.64706 0.02075 0.57625 0.0
C1277 C 0.65221 0.03799 0.61865 0.0
C1278 C 0.61329 0.03238 0.45842 0.0
C1279 C 0.65437 1.00432 0.59011 0.0
C1280 C 0.59083 0.9617 0.46287 0.0
C1281 C 0.59891 0.96167 0.40376 0.0
C1282 C 0.60276 0.97923 0.50427 0.0
C1283 C 0.62347 0.99727 0.48648 0.0
C1284 C 0.63262 0.99625 0.42904 0.0
C1285 C 0.62014 0.97864 0.38818 0.0
C1286 C 0.59236 0.97916 0.5653 0.0
C1287 C 0.65481 0.0146 0.4084 0.0
H1288 H 0.62744 0.06299 0.54798 0.0
H1289 H 0.66021 0.03842 0.66177 0.0
H1290 H 0.62149 0.03223 0.41483 0.0
H1291 H 0.59743 0.01662 0.46122 0.0
H1292 H 0.60964 0.04607 0.45648 0.0
H1293 H 0.6686 0.01122 0.62231 0.0
H1294 H 0.64057 0.98956 0.61187 0.0
H1295 H 0.65902 0.99898 0.54722 0.0
H1296 H 0.57418 0.94904 0.47452 0.0
H1297 H 0.62621 0.97921 0.3418 0.0
H1298 H 0.59309 0.99512 0.57331 0.0
H1299 H 0.60169 0.97689 0.603 0.0
H1300 H 0.57487 0.9658 0.56832 0.0
H1301 H 0.65303 0.02852 0.39127 0.0
H1302 H 0.66177 0.00922 0.37058 0.0
H1303 H 0.66666 0.02075 0.44733 0.0
C1304 C 0.62196 0.65376 0.94643 0.0
C1305 C 0.60008 0.64842 0.93502 0.0
C1306 C 0.63359 0.64765 0.90489 0.0
C1307 C 0.62288 0.63522 0.85148 0.0
C1308 C 0.60141 0.63135 0.83746 0.0
C1309 C 0.59054 0.63837 0.87866 0.0
C1310 C 0.65656 0.65269 0.92142 0.0
C1311 C 0.58873 0.61735 0.78294 0.0
C1312 C 0.64751 0.61863 0.71817 0.0
C1313 C 0.64156 0.59698 0.73413 0.0
C1314 C 0.64343 0.63209 0.75835 0.0
C1315 C 0.63238 0.62349 0.81513 0.0
C1316 C 0.62791 0.60219 0.83333 0.0
C1317 C 0.63269 0.58935 0.79287 0.0
C1318 C 0.64946 0.65495 0.73792 0.0
C1319 C 0.61698 0.59229 0.89419 0.0
H1320 H 0.62925 0.66078 0.9907 0.0
H1321 H 0.57336 0.63333 0.87056 0.0
H1322 H 0.65573 0.63799 0.9431 0.0
H1323 H 0.6671 0.65678 0.87972 0.0
H1324 H 0.66446 0.66657 0.95461 0.0
H1325 H 0.57306 0.61741 0.77523 0.0
H1326 H 0.59882 0.62316 0.7404 0.0
H1327 H 0.58472 0.60012 0.791 0.0
H1328 H 0.65376 0.62446 0.67219 0.0
H1329 H 0.62754 0.57247 0.80496 0.0
H1330 H 0.65655 0.66674 0.77682 0.0
H1331 H 0.63441 0.65503 0.7223 0.0
H1332 H 0.6615 0.66074 0.69929 0.0
H1333 H 0.60886 0.57405 0.89364 0.0
H1334 H 0.60453 0.59697 0.90687 0.0
H1335 H 0.62971 0.5985 0.93082 0.0
C1336 C 0.03904 0.65011 0.0734 0.0
C1337 C 0.0555 0.64453 0.08245 0.0
C1338 C 0.02199 0.64435 0.11694 0.0
C1339 C 0.02093 0.63203 0.16985 0.0
C1340 C 0.0386 0.62807 0.18162 0.0
C1341 C 0.05575 0.63462 0.13824 0.0
C1342 C 1.00403 0.64963 0.10311 0.0
C1343 C 0.03812 0.61455 0.23629 0.0
C1344 C 0.98061 0.61566 0.30501 0.0
C1345 C 0.96513 0.59383 0.28981 0.0
C1346 C 0.99788 0.62909 0.2642 0.0
C1347 C 1.00011 0.62029 0.20752 0.0
C1348 C 0.98353 0.59878 0.1903 0.0
C1349 C 0.96628 0.58588 0.23151 0.0
C1350 C 0.01472 0.65206 0.28401 0.0
C1351 C 0.98503 0.58862 0.13049 0.0
H1352 H 0.03829 0.65711 0.02959 0.0
H1353 H 0.06792 0.62951 0.14452 0.0
H1354 H 0.98978 0.63504 0.0821 0.0
H1355 H 0.99817 0.6538 0.14586 0.0
H1356 H 0.00978 0.66355 0.07023 0.0
H1357 H 0.05406 0.61493 0.24263 0.0
H1358 H 0.0342 0.62054 0.27913 0.0
H1359 H 0.02498 0.59718 0.22947 0.0
H1360 H 0.98025 0.62167 0.35083 0.0
H1361 H 0.95481 0.56881 0.22038 0.0
H1362 H 0.01926 0.66371 0.24493 0.0
H1363 H 0.02994 0.65226 0.29935 0.0
H1364 H 1.00857 0.65793 0.32269 0.0
H1365 H 0.98534 0.59882 0.09115 0.0
H1366 H 0.97097 0.57165 0.1242 0.0
H1367 H 1.00063 0.58812 0.12898 0.0
C1368 C 0.51331 0.09083 0.46122 0.0
C1369 C 0.51804 0.10265 0.40616 0.0
C1370 C 0.53004 0.09445 0.50343 0.0
C1371 C 0.55247 0.10961 0.48978 0.0
C1372 C 0.55721 0.12265 0.43575 0.0
C1373 C 0.53996 0.11905 0.39463 0.0
C1374 C 0.52378 0.08023 0.55966 0.0
C1375 C 0.58059 0.13968 0.41978 0.0
C1376 C 0.59091 0.11793 0.6266 0.0
C1377 C 0.59761 0.10252 0.61354 0.0
C1378 C 0.57767 0.12179 0.58467 0.0
C1379 C 0.57057 0.10971 0.52861 0.0
C1380 C 0.57873 0.09536 0.51354 0.0
C1381 C 0.59221 0.09211 0.55579 0.0
C1382 C 0.57027 0.13791 0.60211 0.0
C1383 C 0.57172 0.08194 0.45495 0.0
H1384 H 0.49647 0.07802 0.47026 0.0
H1385 H 0.54383 0.12816 0.3518 0.0
H1386 H 0.52915 0.06816 0.55119 0.0
H1387 H 0.53243 0.08983 0.60124 0.0
H1388 H 0.50572 0.07135 0.56837 0.0
H1389 H 0.58116 0.15157 0.3851 0.0
H1390 H 0.58973 0.14883 0.46151 0.0
H1391 H 0.58926 0.13141 0.40038 0.0
H1392 H 0.59496 0.12607 0.67105 0.0
H1393 H 0.59728 0.08016 0.54536 0.0
H1394 H 0.55281 0.1288 0.61741 0.0
H1395 H 0.57123 0.14807 0.56183 0.0
H1396 H 0.58036 0.14895 0.64015 0.0
H1397 H 0.55364 0.07044 0.45599 0.0
H1398 H 0.58019 0.07226 0.44838 0.0
H1399 H 0.57523 0.09281 0.41448 0.0
C1400 C 0.42081 0.52741 0.74718 0.0
C1401 C 0.43109 0.51738 0.71579 0.0
C1402 C 0.43268 0.5448 0.78957 0.0
C1403 C 0.4553 0.55222 0.80158 0.0
C1404 C 0.46582 0.54263 0.76824 0.0
C1405 C 0.45368 0.52564 0.72596 0.0
C1406 C 0.42096 0.5551 0.82189 0.0
C1407 C 0.48995 0.54984 0.77627 0.0
C1408 C 0.49807 0.60443 0.88482 0.0
C1409 C 0.49895 0.59584 0.94228 0.0
C1410 C 0.48256 0.59089 0.83974 0.0
C1411 C 0.46762 0.56832 0.85254 0.0
C1412 C 0.46753 0.56019 0.91226 0.0
C1413 C 0.48315 0.57397 0.95601 0.0
C1414 C 0.48344 0.60022 0.77668 0.0
C1415 C 0.45223 0.53634 0.92833 0.0
H1416 H 0.40347 0.52155 0.73918 0.0
H1417 H 0.46209 0.51876 0.70076 0.0
H1418 H 0.41849 0.55023 0.87109 0.0
H1419 H 0.43113 0.57331 0.82025 0.0
H1420 H 0.4046 0.54997 0.80111 0.0
H1421 H 0.49898 0.55831 0.73368 0.0
H1422 H 0.498 0.5611 0.81558 0.0
H1423 H 0.49187 0.53519 0.78245 0.0
H1424 H 0.51043 0.62118 0.87352 0.0
H1425 H 0.48384 0.56721 1.00031 0.0
H1426 H 0.46653 0.59447 0.75907 0.0
H1427 H 0.49167 0.59431 0.74433 0.0
H1428 H 0.49278 0.61849 0.77687 0.0
H1429 H 0.43486 0.53193 0.92025 0.0
H1430 H 0.45392 0.53264 0.97707 0.0
H1431 H 0.45571 0.52568 0.89801 0.0
C1432 C 0.91668 0.44258 0.0472 0.0
C1433 C 0.91259 0.42112 0.05781 0.0
C1434 C 0.91456 0.45523 0.09453 0.0
C1435 C 0.90741 0.44607 0.15401 0.0
C1436 C 0.9008 0.42352 0.1629 0.0
C1437 C 0.90371 0.4114 0.11506 0.0
C1438 C 0.92123 0.47888 0.08171 0.0
C1439 C 0.89181 0.41257 0.22414 0.0
C1440 C 0.93278 0.48661 0.28778 0.0
C1441 C 0.91761 0.4939 0.29805 0.0
C1442 C 0.92899 0.47028 0.24413 0.0
C1443 C 0.90957 0.46083 0.20776 0.0
C1444 C 0.89353 0.46721 0.21997 0.0
C1445 C 0.89779 0.48374 0.26449 0.0
C1446 C 0.94685 0.46446 0.23525 0.0
C1447 C 0.8719 0.45696 0.18578 0.0
H1448 H 0.92279 0.44997 1.00243 0.0
H1449 H 0.90015 0.39473 0.12365 0.0
H1450 H 0.90712 0.48152 0.09054 0.0
H1451 H 0.93476 0.48991 0.11326 0.0
H1452 H 0.92674 0.48369 0.03338 0.0
H1453 H 0.88373 0.39437 0.22072 0.0
H1454 H 0.90546 0.41836 0.25798 0.0
H1455 H 0.87971 0.41705 0.24219 0.0
H1456 H 0.94813 0.49399 0.31338 0.0
H1457 H 0.8857 0.48885 0.27231 0.0
H1458 H 0.95861 0.47592 0.20093 0.0
H1459 H 0.94056 0.44748 0.21833 0.0
H1460 H 0.95609 0.46656 0.2787 0.0
H1461 H 0.87338 0.4675 0.14597 0.0
H1462 H 0.85853 0.45589 0.21589 0.0
H1463 H 0.86702 0.44025 0.16846 0.0
C1464 C 0.48932 0.92921 0.39882 0.0
C1465 C 0.49942 0.9164 0.3905 0.0
C1466 C 0.47375 0.92482 0.44594 0.0
C1467 C 0.46702 0.90643 0.48531 0.0
C1468 C 0.47597 0.89241 0.47446 0.0
C1469 C 0.49222 0.89772 0.42806 0.0
C1470 C 0.46498 0.94047 0.45277 0.0
C1471 C 0.46883 0.87181 0.51165 0.0
C1472 C 0.44844 0.91455 0.64394 0.0
C1473 C 0.42629 0.90855 0.6336 0.0
C1474 C 0.46132 0.912 0.59803 0.0
C1475 C 0.45202 0.90327 0.53959 0.0
C1476 C 0.42906 0.89514 0.5311 0.0
C1477 C 0.41649 0.89793 0.57798 0.0
C1478 C 0.48532 0.91994 0.61086 0.0
C1479 C 0.41809 0.88485 0.47084 0.0
H1480 H 0.49374 0.94299 0.36848 0.0
H1481 H 0.49941 0.88728 0.42181 0.0
H1482 H 0.45466 0.93775 0.49407 0.0
H1483 H 0.47897 0.95758 0.45486 0.0
H1484 H 0.45489 0.93892 0.41169 0.0
H1485 H 0.46634 0.85809 0.48084 0.0
H1486 H 0.48215 0.87458 0.54435 0.0
H1487 H 0.45339 0.86666 0.5379 0.0
H1488 H 0.4561 0.92236 0.6872 0.0
H1489 H 0.39938 0.893 0.5695 0.0
H1490 H 0.49586 0.93278 0.57703 0.0
H1491 H 0.48862 0.90613 0.60553 0.0
H1492 H 0.49024 0.92666 0.65818 0.0
H1493 H 0.42204 0.89801 0.43653 0.0
H1494 H 0.39987 0.87497 0.47569 0.0
H1495 H 0.42432 0.87415 0.45268 0.0
C1496 C 0.60014 0.48758 0.76792 0.0
C1497 C 0.58962 0.49601 0.73099 0.0
C1498 C 0.5881 0.47061 0.81132 0.0
C1499 C 0.56494 0.46186 0.81843 0.0
C1500 C 0.55424 0.46943 0.77813 0.0
C1501 C 0.5666 0.48634 0.73587 0.0
C1502 C 0.60054 0.46231 0.84889 0.0
C1503 C 0.5296 0.45994 0.77975 0.0
C1504 C 0.52046 0.41179 0.90678 0.0
C1505 C 0.52028 0.42138 0.96338 0.0
C1506 C 0.53633 0.42403 0.8609 0.0
C1507 C 0.55197 0.44666 0.87097 0.0
C1508 C 0.55303 0.45558 0.93045 0.0
C1509 C 0.53754 0.44271 0.97599 0.0
C1510 C 0.5356 0.41253 0.80146 0.0
C1511 C 0.56979 0.47916 0.94538 0.0
H1512 H 0.61782 0.49445 0.76381 0.0
H1513 H 0.55803 0.49208 0.70637 0.0
H1514 H 0.61172 0.47538 0.88134 0.0
H1515 H 0.58957 0.4472 0.87529 0.0
H1516 H 0.61114 0.45882 0.81811 0.0
H1517 H 0.52403 0.46824 0.74685 0.0
H1518 H 0.52116 0.44228 0.76738 0.0
H1519 H 0.52432 0.46129 0.82681 0.0
H1520 H 0.50762 0.39507 0.89705 0.0
H1521 H 0.5381 0.44989 0.02071 0.0
H1522 H 0.54962 0.42272 0.77027 0.0
H1523 H 0.51986 0.40765 0.77721 0.0
H1524 H 0.53575 0.39711 0.81182 0.0
H1525 H 0.58653 0.48115 0.9455 0.0
H1526 H 0.56689 0.48429 0.99127 0.0
H1527 H 0.56955 0.49039 0.90987 0.0
C1528 C 0.09014 0.51161 0.23818 0.0
C1529 C 0.09985 0.51705 0.29652 0.0
C1530 C 0.09348 0.52799 0.19522 0.0
C1531 C 0.10638 0.55057 0.21143 0.0
C1532 C 0.11724 0.5561 0.26938 0.0
C1533 C 0.11382 0.53927 0.3113 0.0
C1534 C 0.08311 0.52075 0.13256 0.0
C1535 C 0.13193 0.57979 0.28793 0.0
C1536 C 0.11777 0.59009 0.07617 0.0
C1537 C 0.10051 0.59467 0.08265 0.0
C1538 C 0.12079 0.57678 0.11955 0.0
C1539 C 0.1063 0.56794 0.17079 0.0
C1540 C 0.0898 0.57383 0.17942 0.0
C1541 C 0.08707 0.58697 0.13525 0.0
C1542 C 0.1387 0.57118 0.10856 0.0
C1543 C 0.07405 0.56506 0.23338 0.0
H1544 H 0.07949 0.49441 0.2265 0.0
H1545 H 0.12129 0.54353 0.35662 0.0
H1546 H 0.06809 0.50426 0.13479 0.0
H1547 H 0.07886 0.53255 0.11191 0.0
H1548 H 0.09501 0.51948 0.10137 0.0
H1549 H 0.14211 0.58135 0.3289 0.0
H1550 H 0.14303 0.58931 0.24936 0.0
H1551 H 0.12168 0.58731 0.29911 0.0
H1552 H 0.12809 0.59583 0.03541 0.0
H1553 H 0.07369 0.59045 0.14047 0.0
H1554 H 0.13121 0.55414 0.09052 0.0
H1555 H 0.14724 0.57189 0.15226 0.0
H1556 H 0.15107 0.58244 0.0746 0.0
H1557 H 0.06457 0.54681 0.23171 0.0
H1558 H 0.06222 0.57127 0.23388 0.0
H1559 H 0.08334 0.5698 0.27731 0.0
loop_
_geom_bond_atom_site_label_1
_geom_bond_atom_site_label_2
_geom_bond_distance
_geom_bond_site_symmetry_2
_ccdc_geom_bond_type
C0 O16 1.251 . S
C0 O18 1.254 . S
N1 C2 1.333 . S
N1 C6 1.307 . S
N1 Zn7 2.020 . S
C2 N1 1.333 . S
C2 C3 1.379 . S
C2 H20 0.952 . S
C3 C2 1.379 . S
C3 C4 1.390 . S
C3 H30 0.949 . S
C4 C3 1.390 . S
C4 C5 1.357 . S
C5 C4 1.357 . S
C5 C6 1.370 . S
C5 H31 0.950 . S
C6 N1 1.307 . S
C6 C5 1.370 . S
C6 H24 0.948 . S
Zn7 N1 2.020 . S
Zn7 O16 2.039 . S
Zn7 O22 2.034 . S
Zn7 O26 2.025 . S
Zn7 O28 2.024 . S
C8 O27 1.246 . S
C8 O28 1.249 . S
N9 C10 1.307 . S
N9 C11 1.333 . S
N9 Zn15 2.020 . S
C10 N9 1.307 . S
C10 C14 1.370 . S
C10 H21 0.948 . S
C11 N9 1.333 . S
C11 C12 1.379 . S
C11 H19 0.952 . S
C12 C11 1.379 . S
C12 C13 1.390 . S
C12 H32 0.949 1_545 S
C13 C12 1.390 . S
C13 C14 1.357 . S
C14 C10 1.370 . S
C14 C13 1.357 . S
C14 H33 0.950 . S
Zn15 N9 2.020 . S
Zn15 O18 2.025 . S
Zn15 O23 2.024 . S
Zn15 O25 2.039 . S
Zn15 O27 2.034 . S
O16 C0 1.251 . S
O16 Zn7 2.039 . S
C17 O22 1.246 . S
C17 O23 1.249 . S
O18 C0 1.254 . S
O18 Zn15 2.025 . S
H19 C11 0.952 . S
H20 C2 0.952 . S
H21 C10 0.948 . S
O22 Zn7 2.034 . S
O22 C17 1.246 . S
O23 Zn15 2.024 . S
O23 C17 1.249 . S
H24 C6 0.948 . S
O25 Zn15 2.039 . S
O25 C29 1.251 . S
O26 Zn7 2.025 . S
O26 C29 1.254 . S
O27 C8 1.246 . S
O27 Zn15 2.034 . S
O28 Zn7 2.024 . S
O28 C8 1.249 . S
C29 O25 1.251 . S
C29 O26 1.254 . S
H30 C3 0.949 . S
H31 C5 0.950 . S
H32 C12 0.949 1_565 S
H33 C14 0.950 . S
C34 O50 1.251 . S
C34 O52 1.254 . S
N35 C36 1.333 . S
N35 C40 1.307 . S
N35 Zn41 2.020 . S
C36 N35 1.333 . S
C36 C37 1.379 . S
C36 H54 0.952 . S
C37 C36 1.379 . S
C37 C38 1.390 . S
C37 H64 0.949 . S
C38 C37 1.390 . S
C38 C39 1.357 . S
C39 C38 1.357 . S
C39 C40 1.370 . S
C39 H65 0.950 . S
C40 N35 1.307 . S
C40 C39 1.370 . S
C40 H58 0.948 . S
Zn41 N35 2.020 . S
Zn41 O50 2.039 . S
Zn41 O56 2.034 . S
Zn41 O60 2.025 . S
Zn41 O62 2.024 . S
C42 O61 1.246 . S
C42 O62 1.249 . S
N43 C44 1.307 . S
N43 C45 1.333 . S
N43 Zn49 2.020 . S
C44 N43 1.307 . S
C44 C48 1.370 . S
C44 H55 0.948 . S
C45 N43 1.333 . S
C45 C46 1.379 . S
C45 H53 0.952 . S
C46 C45 1.379 . S
C46 C47 1.390 . S
C46 H66 0.949 . S
C47 C46 1.390 . S
C47 C48 1.357 . S
C48 C44 1.370 . S
C48 C47 1.357 . S
C48 H67 0.950 . S
Zn49 N43 2.020 . S
Zn49 O52 2.025 . S
Zn49 O57 2.024 . S
Zn49 O59 2.039 . S
Zn49 O61 2.034 . S
O50 C34 1.251 . S
O50 Zn41 2.039 . S
C51 O56 1.246 . S
C51 O57 1.249 . S
O52 C34 1.254 . S
O52 Zn49 2.025 . S
H53 C45 0.952 . S
H54 C36 0.952 . S
H55 C44 0.948 . S
O56 Zn41 2.034 . S
O56 C51 1.246 . S
O57 Zn49 2.024 . S
O57 C51 1.249 . S
H58 C40 0.948 . S
O59 Zn49 2.039 . S
O59 C63 1.251 . S
O60 Zn41 2.025 . S
O60 C63 1.254 . S
O61 C42 1.246 . S
O61 Zn49 2.034 . S
O62 Zn41 2.024 . S
O62 C42 1.249 . S
C63 O59 1.251 . S
C63 O60 1.254 . S
H64 C37 0.949 . S
H65 C39 0.950 . S
H66 C46 0.949 . S
H67 C48 0.950 . S
C68 O84 1.251 . S
C68 O86 1.254 . S
N69 C70 1.333 . S
N69 C74 1.307 . S
N69 Zn75 2.020 . S
C70 N69 1.333 . S
C70 C71 1.379 . S
C70 H88 0.952 . S
C71 C70 1.379 . S
C71 C72 1.390 . S
C71 H98 0.949 . S
C72 C71 1.390 . S
C72 C73 1.357 . S
C73 C72 1.357 . S
C73 C74 1.370 . S
C73 H99 0.950 . S
C74 N69 1.307 . S
C74 C73 1.370 . S
C74 H92 0.948 . S
Zn75 N69 2.020 . S
Zn75 O84 2.039 . S
Zn75 O90 2.034 . S
Zn75 O94 2.025 . S
Zn75 O96 2.024 . S
C76 O95 1.246 . S
C76 O96 1.249 . S
N77 C78 1.307 . S
N77 C79 1.333 . S
N77 Zn83 2.020 . S
C78 N77 1.307 . S
C78 C82 1.370 . S
C78 H89 0.948 . S
C79 N77 1.333 . S
C79 C80 1.379 . S
C79 H87 0.952 . S
C80 C79 1.379 . S
C80 C81 1.390 . S
C80 H100 0.949 1_655 S
C81 C80 1.390 . S
C81 C82 1.357 . S
C82 C78 1.370 . S
C82 C81 1.357 . S
C82 H101 0.950 . S
Zn83 N77 2.020 . S
Zn83 O86 2.025 . S
Zn83 O91 2.024 . S
Zn83 O93 2.039 . S
Zn83 O95 2.034 . S
O84 C68 1.251 . S
O84 Zn75 2.039 . S
C85 O90 1.246 1_554 S
C85 O91 1.249 1_554 S
O86 C68 1.254 . S
O86 Zn83 2.025 . S
H87 C79 0.952 . S
H88 C70 0.952 . S
H89 C78 0.948 . S
O90 Zn75 2.034 . S
O90 C85 1.246 1_556 S
O91 Zn83 2.024 . S
O91 C85 1.249 1_556 S
H92 C74 0.948 . S
O93 Zn83 2.039 . S
O93 C97 1.251 1_556 S
O94 Zn75 2.025 . S
O94 C97 1.254 1_556 S
O95 C76 1.246 . S
O95 Zn83 2.034 . S
O96 Zn75 2.024 . S
O96 C76 1.249 . S
C97 O93 1.251 1_554 S
C97 O94 1.254 1_554 S
H98 C71 0.949 . S
H99 C73 0.950 . S
H100 C80 0.949 1_455 S
H101 C82 0.950 . S
C102 O118 1.251 . S
C102 O120 1.254 . S
N103 C104 1.333 . S
N103 C108 1.307 . S
N103 Zn109 2.020 . S
C104 N103 1.333 . S
C104 C105 1.379 . S
C104 H122 0.952 . S
C105 C104 1.379 . S
C105 C106 1.390 . S
C105 H132 0.949 . S
C106 C105 1.390 . S
C106 C107 1.357 . S
C107 C106 1.357 . S
C107 C108 1.370 . S
C107 H133 0.950 . S
C108 N103 1.307 . S
C108 C107 1.370 . S
C108 H126 0.948 . S
Zn109 N103 2.020 . S
Zn109 O118 2.039 . S
Zn109 O124 2.034 . S
Zn109 O128 2.025 . S
Zn109 O130 2.024 . S
C110 O129 1.246 . S
C110 O130 1.249 . S
N111 C112 1.307 . S
N111 C113 1.333 . S
N111 Zn117 2.020 . S
C112 N111 1.307 . S
C112 C116 1.370 . S
C112 H123 0.948 . S
C113 N111 1.333 . S
C113 C114 1.379 . S
C113 H121 0.952 . S
C114 C113 1.379 . S
C114 C115 1.390 . S
C114 H134 0.949 1_565 S
C115 C114 1.390 . S
C115 C116 1.357 . S
C116 C112 1.370 . S
C116 C115 1.357 . S
C116 H135 0.950 . S
Zn117 N111 2.020 . S
Zn117 O120 2.025 . S
Zn117 O125 2.024 . S
Zn117 O127 2.039 . S
Zn117 O129 2.034 . S
O118 C102 1.251 . S
O118 Zn109 2.039 . S
C119 O124 1.246 . S
C119 O125 1.249 . S
O120 C102 1.254 . S
O120 Zn117 2.025 . S
H121 C113 0.952 . S
H122 C104 0.952 . S
H123 C112 0.948 . S
O124 Zn109 2.034 . S
O124 C119 1.246 . S
O125 Zn117 2.024 . S
O125 C119 1.249 . S
H126 C108 0.948 . S
O127 Zn117 2.039 . S
O127 C131 1.251 . S
O128 Zn109 2.025 . S
O128 C131 1.254 . S
O129 C110 1.246 . S
O129 Zn117 2.034 . S
O130 Zn109 2.024 . S
O130 C110 1.249 . S
C131 O127 1.251 . S
C131 O128 1.254 . S
H132 C105 0.949 . S
H133 C107 0.950 . S
H134 C114 0.949 1_545 S
H135 C116 0.950 . S
C136 O152 1.251 . S
C136 O154 1.254 . S
N137 C138 1.333 . S
N137 C142 1.307 . S
N137 Zn143 2.020 . S
C138 N137 1.333 . S
C138 C139 1.379 . S
C138 H156 0.952 . S
C139 C138 1.379 . S
C139 C140 1.390 . S
C139 H166 0.949 . S
C140 C139 1.390 . S
C140 C141 1.357 . S
C141 C140 1.357 . S
C141 C142 1.370 . S
C141 H167 0.950 . S
C142 N137 1.307 . S
C142 C141 1.370 . S
C142 H160 0.948 . S
Zn143 N137 2.020 . S
Zn143 O152 2.039 . S
Zn143 O158 2.034 . S
Zn143 O162 2.025 . S
Zn143 O164 2.024 . S
C144 O163 1.246 . S
C144 O164 1.249 . S
N145 C146 1.307 . S
N145 C147 1.333 . S
N145 Zn151 2.020 . S
C146 N145 1.307 . S
C146 C150 1.370 . S
C146 H157 0.948 . S
C147 N145 1.333 . S
C147 C148 1.379 . S
C147 H155 0.952 . S
C148 C147 1.379 . S
C148 C149 1.390 . S
C148 H168 0.949 . S
C149 C148 1.390 . S
C149 C150 1.357 . S
C150 C146 1.370 . S
C150 C149 1.357 . S
C150 H169 0.950 . S
Zn151 N145 2.020 . S
Zn151 O154 2.025 . S
Zn151 O159 2.024 . S
Zn151 O161 2.039 . S
Zn151 O163 2.034 . S
O152 C136 1.251 . S
O152 Zn143 2.039 . S
C153 O158 1.246 . S
C153 O159 1.249 . S
O154 C136 1.254 . S
O154 Zn151 2.025 . S
H155 C147 0.952 . S
H156 C138 0.952 . S
H157 C146 0.948 . S
O158 Zn143 2.034 . S
O158 C153 1.246 . S
O159 Zn151 2.024 . S
O159 C153 1.249 . S
H160 C142 0.948 . S
O161 Zn151 2.039 . S
O161 C165 1.251 . S
O162 Zn143 2.025 . S
O162 C165 1.254 . S
O163 C144 1.246 . S
O163 Zn151 2.034 . S
O164 Zn143 2.024 . S
O164 C144 1.249 . S
C165 O161 1.251 . S
C165 O162 1.254 . S
H166 C139 0.949 . S
H167 C141 0.950 . S
H168 C148 0.949 . S
H169 C150 0.950 . S
C170 O186 1.251 . S
C170 O188 1.254 . S
N171 C172 1.333 . S
N171 C176 1.307 . S
N171 Zn177 2.020 . S
C172 N171 1.333 . S
C172 C173 1.379 . S
C172 H190 0.952 . S
C173 C172 1.379 . S
C173 C174 1.390 . S
C173 H200 0.949 . S
C174 C173 1.390 . S
C174 C175 1.357 . S
C175 C174 1.357 . S
C175 C176 1.370 . S
C175 H201 0.950 . S
C176 N171 1.307 . S
C176 C175 1.370 . S
C176 H194 0.948 . S
Zn177 N171 2.020 . S
Zn177 O186 2.039 . S
Zn177 O192 2.034 . S
Zn177 O196 2.025 . S
Zn177 O198 2.024 . S
C178 O197 1.246 . S
C178 O198 1.249 . S
N179 C180 1.307 . S
N179 C181 1.333 . S
N179 Zn185 2.020 . S
C180 N179 1.307 . S
C180 C184 1.370 . S
C180 H191 0.948 . S
C181 N179 1.333 . S
C181 C182 1.379 . S
C181 H189 0.952 . S
C182 C181 1.379 . S
C182 C183 1.390 . S
C182 H202 0.949 1_455 S
C183 C182 1.390 . S
C183 C184 1.357 . S
C184 C180 1.370 . S
C184 C183 1.357 . S
C184 H203 0.950 . S
Zn185 N179 2.020 . S
Zn185 O188 2.025 . S
Zn185 O193 2.024 . S
Zn185 O195 2.039 . S
Zn185 O197 2.034 . S
O186 C170 1.251 . S
O186 Zn177 2.039 . S
C187 O192 1.246 1_554 S
C187 O193 1.249 1_554 S
O188 C170 1.254 . S
O188 Zn185 2.025 . S
H189 C181 0.952 . S
H190 C172 0.952 . S
H191 C180 0.948 . S
O192 Zn177 2.034 . S
O192 C187 1.246 1_556 S
O193 Zn185 2.024 . S
O193 C187 1.249 1_556 S
H194 C176 0.948 . S
O195 Zn185 2.039 . S
O195 C199 1.251 1_556 S
O196 Zn177 2.025 . S
O196 C199 1.254 1_556 S
O197 C178 1.246 . S
O197 Zn185 2.034 . S
O198 Zn177 2.024 . S
O198 C178 1.249 . S
C199 O195 1.251 1_554 S
C199 O196 1.254 1_554 S
H200 C173 0.949 . S
H201 C175 0.950 . S
H202 C182 0.949 1_655 S
H203 C184 0.950 . S
C204 O220 1.251 . S
C204 O222 1.254 . S
N205 C206 1.333 . S
N205 C210 1.307 . S
N205 Zn211 2.020 . S
C206 N205 1.333 . S
C206 C207 1.379 . S
C206 H224 0.952 . S
C207 C206 1.379 . S
C207 C208 1.390 . S
C207 H234 0.949 . S
C208 C207 1.390 . S
C208 C209 1.357 . S
C209 C208 1.357 . S
C209 C210 1.370 . S
C209 H235 0.950 . S
C210 N205 1.307 . S
C210 C209 1.370 . S
C210 H228 0.948 . S
Zn211 N205 2.020 . S
Zn211 O220 2.039 . S
Zn211 O226 2.034 . S
Zn211 O230 2.025 . S
Zn211 O232 2.024 . S
C212 O231 1.246 . S
C212 O232 1.249 . S
N213 C214 1.307 . S
N213 C215 1.333 . S
N213 Zn219 2.020 . S
C214 N213 1.307 . S
C214 C218 1.370 . S
C214 H225 0.948 . S
C215 N213 1.333 . S
C215 C216 1.379 . S
C215 H223 0.952 . S
C216 C215 1.379 . S
C216 C217 1.390 . S
C216 H236 0.949 1_655 S
C217 C216 1.390 . S
C217 C218 1.357 . S
C218 C214 1.370 . S
C218 C217 1.357 . S
C218 H237 0.950 . S
Zn219 N213 2.020 . S
Zn219 O222 2.025 . S
Zn219 O227 2.024 . S
Zn219 O229 2.039 . S
Zn219 O231 2.034 . S
O220 C204 1.251 . S
O220 Zn211 2.039 . S
C221 O226 1.246 . S
C221 O227 1.249 . S
O222 C204 1.254 . S
O222 Zn219 2.025 . S
H223 C215 0.952 . S
H224 C206 0.952 . S
H225 C214 0.948 . S
O226 Zn211 2.034 . S
O226 C221 1.246 . S
O227 Zn219 2.024 . S
O227 C221 1.249 . S
H228 C210 0.948 . S
O229 Zn219 2.039 . S
O229 C233 1.251 . S
O230 Zn211 2.025 . S
O230 C233 1.254 . S
O231 C212 1.246 . S
O231 Zn219 2.034 . S
O232 Zn211 2.024 . S
O232 C212 1.249 . S
C233 O229 1.251 . S
C233 O230 1.254 . S
H234 C207 0.949 . S
H235 C209 0.950 . S
H236 C216 0.949 1_455 S
H237 C218 0.950 . S
C238 O254 1.251 . S
C238 O256 1.254 . S
N239 C240 1.333 . S
N239 C244 1.307 . S
N239 Zn245 2.020 . S
C240 N239 1.333 . S
C240 C241 1.379 . S
C240 H258 0.952 . S
C241 C240 1.379 . S
C241 C242 1.390 . S
C241 H268 0.949 . S
C242 C241 1.390 . S
C242 C243 1.357 . S
C243 C242 1.357 . S
C243 C244 1.370 . S
C243 H269 0.950 . S
C244 N239 1.307 . S
C244 C243 1.370 . S
C244 H262 0.948 . S
Zn245 N239 2.020 . S
Zn245 O254 2.039 . S
Zn245 O260 2.034 . S
Zn245 O264 2.025 . S
Zn245 O266 2.024 . S
C246 O265 1.246 . S
C246 O266 1.249 . S
N247 C248 1.307 . S
N247 C249 1.333 . S
N247 Zn253 2.020 . S
C248 N247 1.307 . S
C248 C252 1.370 . S
C248 H259 0.948 . S
C249 N247 1.333 . S
C249 C250 1.379 . S
C249 H257 0.952 . S
C250 C249 1.379 . S
C250 C251 1.390 . S
C250 H270 0.949 1_565 S
C251 C250 1.390 . S
C251 C252 1.357 . S
C252 C248 1.370 . S
C252 C251 1.357 . S
C252 H271 0.950 . S
Zn253 N247 2.020 . S
Zn253 O256 2.025 . S
Zn253 O261 2.024 . S
Zn253 O263 2.039 . S
Zn253 O265 2.034 . S
O254 C238 1.251 . S
O254 Zn245 2.039 . S
C255 O260 1.246 . S
C255 O261 1.249 . S
O256 C238 1.254 . S
O256 Zn253 2.025 . S
H257 C249 0.952 . S
H258 C240 0.952 . S
H259 C248 0.948 . S
O260 Zn245 2.034 . S
O260 C255 1.246 . S
O261 Zn253 2.024 . S
O261 C255 1.249 . S
H262 C244 0.948 . S
O263 Zn253 2.039 . S
O263 C267 1.251 . S
O264 Zn245 2.025 . S
O264 C267 1.254 . S
O265 C246 1.246 . S
O265 Zn253 2.034 . S
O266 Zn245 2.024 . S
O266 C246 1.249 . S
C267 O263 1.251 . S
C267 O264 1.254 . S
H268 C241 0.949 . S
H269 C243 0.950 . S
H270 C250 0.949 1_545 S
H271 C252 0.950 . S
C272 O288 1.251 . S
C272 O290 1.254 . S
N273 C274 1.333 . S
N273 C278 1.307 . S
N273 Zn279 2.020 . S
C274 N273 1.333 . S
C274 C275 1.379 . S
C274 H292 0.952 . S
C275 C274 1.379 . S
C275 C276 1.390 . S
C275 H302 0.949 . S
C276 C275 1.390 . S
C276 C277 1.357 . S
C277 C276 1.357 . S
C277 C278 1.370 . S
C277 H303 0.950 . S
C278 N273 1.307 . S
C278 C277 1.370 . S
C278 H296 0.948 . S
Zn279 N273 2.020 . S
Zn279 O288 2.039 . S
Zn279 O294 2.034 . S
Zn279 O298 2.025 . S
Zn279 O300 2.024 . S
C280 O299 1.246 . S
C280 O300 1.249 . S
N281 C282 1.307 . S
N281 C283 1.333 . S
N281 Zn287 2.020 . S
C282 N281 1.307 . S
C282 C286 1.370 . S
C282 H293 0.948 . S
C283 N281 1.333 . S
C283 C284 1.379 . S
C283 H291 0.952 . S
C284 C283 1.379 . S
C284 C285 1.390 . S
C284 H304 0.949 . S
C285 C284 1.390 . S
C285 C286 1.357 . S
C286 C282 1.370 . S
C286 C285 1.357 . S
C286 H305 0.950 . S
Zn287 N281 2.020 . S
Zn287 O290 2.025 . S
Zn287 O295 2.024 . S
Zn287 O297 2.039 . S
Zn287 O299 2.034 . S
O288 C272 1.251 . S
O288 Zn279 2.039 . S
C289 O294 1.246 1_556 S
C289 O295 1.249 1_556 S
O290 C272 1.254 . S
O290 Zn287 2.025 . S
H291 C283 0.952 . S
H292 C274 0.952 . S
H293 C282 0.948 . S
O294 Zn279 2.034 . S
O294 C289 1.246 1_554 S
O295 Zn287 2.024 . S
O295 C289 1.249 1_554 S
H296 C278 0.948 . S
O297 Zn287 2.039 . S
O297 C301 1.251 1_554 S
O298 Zn279 2.025 . S
O298 C301 1.254 1_554 S
O299 C280 1.246 . S
O299 Zn287 2.034 . S
O300 Zn279 2.024 . S
O300 C280 1.249 . S
C301 O297 1.251 1_556 S
C301 O298 1.254 1_556 S
H302 C275 0.949 . S
H303 C277 0.950 . S
H304 C284 0.949 . S
H305 C286 0.950 . S
C306 O322 1.251 . S
C306 O324 1.254 . S
N307 C308 1.333 . S
N307 C312 1.307 . S
N307 Zn313 2.020 . S
C308 N307 1.333 . S
C308 C309 1.379 . S
C308 H326 0.952 . S
C309 C308 1.379 . S
C309 C310 1.390 . S
C309 H336 0.949 . S
C310 C309 1.390 . S
C310 C311 1.357 . S
C311 C310 1.357 . S
C311 C312 1.370 . S
C311 H337 0.950 . S
C312 N307 1.307 . S
C312 C311 1.370 . S
C312 H330 0.948 . S
Zn313 N307 2.020 . S
Zn313 O322 2.039 . S
Zn313 O328 2.034 . S
Zn313 O332 2.025 . S
Zn313 O334 2.024 . S
C314 O333 1.246 . S
C314 O334 1.249 . S
N315 C316 1.307 . S
N315 C317 1.333 . S
N315 Zn321 2.020 . S
C316 N315 1.307 . S
C316 C320 1.370 . S
C316 H327 0.948 . S
C317 N315 1.333 . S
C317 C318 1.379 . S
C317 H325 0.952 . S
C318 C317 1.379 . S
C318 C319 1.390 . S
C318 H338 0.949 1_455 S
C319 C318 1.390 . S
C319 C320 1.357 . S
C320 C316 1.370 . S
C320 C319 1.357 . S
C320 H339 0.950 . S
Zn321 N315 2.020 . S
Zn321 O324 2.025 . S
Zn321 O329 2.024 . S
Zn321 O331 2.039 . S
Zn321 O333 2.034 . S
O322 C306 1.251 . S
O322 Zn313 2.039 . S
C323 O328 1.246 . S
C323 O329 1.249 . S
O324 C306 1.254 . S
O324 Zn321 2.025 . S
H325 C317 0.952 . S
H326 C308 0.952 . S
H327 C316 0.948 . S
O328 Zn313 2.034 . S
O328 C323 1.246 . S
O329 Zn321 2.024 . S
O329 C323 1.249 . S
H330 C312 0.948 . S
O331 Zn321 2.039 . S
O331 C335 1.251 . S
O332 Zn313 2.025 . S
O332 C335 1.254 . S
O333 C314 1.246 . S
O333 Zn321 2.034 . S
O334 Zn313 2.024 . S
O334 C314 1.249 . S
C335 O331 1.251 . S
C335 O332 1.254 . S
H336 C309 0.949 . S
H337 C311 0.950 . S
H338 C318 0.949 1_655 S
H339 C320 0.950 . S
C340 O356 1.251 . S
C340 O358 1.254 . S
N341 C342 1.333 . S
N341 C346 1.307 . S
N341 Zn347 2.020 . S
C342 N341 1.333 . S
C342 C343 1.379 . S
C342 H360 0.952 . S
C343 C342 1.379 . S
C343 C344 1.390 . S
C343 H370 0.949 . S
C344 C343 1.390 . S
C344 C345 1.357 . S
C345 C344 1.357 . S
C345 C346 1.370 . S
C345 H371 0.950 . S
C346 N341 1.307 . S
C346 C345 1.370 . S
C346 H364 0.948 . S
Zn347 N341 2.020 . S
Zn347 O356 2.039 . S
Zn347 O362 2.034 . S
Zn347 O366 2.025 . S
Zn347 O368 2.024 . S
C348 O367 1.246 . S
C348 O368 1.249 . S
N349 C350 1.307 . S
N349 C351 1.333 . S
N349 Zn355 2.020 . S
C350 N349 1.307 . S
C350 C354 1.370 . S
C350 H361 0.948 . S
C351 N349 1.333 . S
C351 C352 1.379 . S
C351 H359 0.952 . S
C352 C351 1.379 . S
C352 C353 1.390 . S
C352 H372 0.949 1_545 S
C353 C352 1.390 . S
C353 C354 1.357 . S
C354 C350 1.370 . S
C354 C353 1.357 . S
C354 H373 0.950 . S
Zn355 N349 2.020 . S
Zn355 O358 2.025 . S
Zn355 O363 2.024 . S
Zn355 O365 2.039 . S
Zn355 O367 2.034 . S
O356 C340 1.251 . S
O356 Zn347 2.039 . S
C357 O362 1.246 . S
C357 O363 1.249 . S
O358 C340 1.254 . S
O358 Zn355 2.025 . S
H359 C351 0.952 . S
H360 C342 0.952 . S
H361 C350 0.948 . S
O362 Zn347 2.034 . S
O362 C357 1.246 . S
O363 Zn355 2.024 . S
O363 C357 1.249 . S
H364 C346 0.948 . S
O365 Zn355 2.039 . S
O365 C369 1.251 . S
O366 Zn347 2.025 . S
O366 C369 1.254 . S
O367 C348 1.246 . S
O367 Zn355 2.034 . S
O368 Zn347 2.024 . S
O368 C348 1.249 . S
C369 O365 1.251 . S
C369 O366 1.254 . S
H370 C343 0.949 . S
H371 C345 0.950 . S
H372 C352 0.949 1_565 S
H373 C354 0.950 . S
C374 O390 1.251 . S
C374 O392 1.254 . S
N375 C376 1.333 . S
N375 C380 1.307 . S
N375 Zn381 2.020 . S
C376 N375 1.333 . S
C376 C377 1.379 . S
C376 H394 0.952 . S
C377 C376 1.379 . S
C377 C378 1.390 . S
C377 H404 0.949 . S
C378 C377 1.390 . S
C378 C379 1.357 . S
C379 C378 1.357 . S
C379 C380 1.370 . S
C379 H405 0.950 . S
C380 N375 1.307 . S
C380 C379 1.370 . S
C380 H398 0.948 . S
Zn381 N375 2.020 . S
Zn381 O390 2.039 . S
Zn381 O396 2.034 . S
Zn381 O400 2.025 . S
Zn381 O402 2.024 . S
C382 O401 1.246 . S
C382 O402 1.249 . S
N383 C384 1.307 . S
N383 C385 1.333 . S
N383 Zn389 2.020 . S
C384 N383 1.307 . S
C384 C388 1.370 . S
C384 H395 0.948 . S
C385 N383 1.333 . S
C385 C386 1.379 . S
C385 H393 0.952 . S
C386 C385 1.379 . S
C386 C387 1.390 . S
C386 H406 0.949 . S
C387 C386 1.390 . S
C387 C388 1.357 . S
C388 C384 1.370 . S
C388 C387 1.357 . S
C388 H407 0.950 . S
Zn389 N383 2.020 . S
Zn389 O392 2.025 . S
Zn389 O397 2.024 . S
Zn389 O399 2.039 . S
Zn389 O401 2.034 . S
O390 C374 1.251 . S
O390 Zn381 2.039 . S
C391 O396 1.246 1_556 S
C391 O397 1.249 1_556 S
O392 C374 1.254 . S
O392 Zn389 2.025 . S
H393 C385 0.952 . S
H394 C376 0.952 . S
H395 C384 0.948 . S
O396 Zn381 2.034 . S
O396 C391 1.246 1_554 S
O397 Zn389 2.024 . S
O397 C391 1.249 1_554 S
H398 C380 0.948 . S
O399 Zn389 2.039 . S
O399 C403 1.251 1_554 S
O400 Zn381 2.025 . S
O400 C403 1.254 1_554 S
O401 C382 1.246 . S
O401 Zn389 2.034 . S
O402 Zn381 2.024 . S
O402 C382 1.249 . S
C403 O399 1.251 1_556 S
C403 O400 1.254 1_556 S
H404 C377 0.949 . S
H405 C379 0.950 . S
H406 C386 0.949 . S
H407 C388 0.950 . S
C408 C409 1.391 . S
C408 C410 1.394 . S
C408 H424 0.931 . S
C409 C408 1.391 . S
C409 C413 1.376 . S
C410 C408 1.394 . S
C410 C411 1.369 . S
C410 C414 1.531 . S
C411 C410 1.369 . S
C411 C412 1.410 . S
C411 C419 1.503 . S
C412 C411 1.410 . S
C412 C413 1.392 . S
C412 C415 1.511 . S
C413 C409 1.376 . S
C413 C412 1.392 . S
C413 H425 0.929 . S
C414 C410 1.531 . S
C414 H426 0.960 . S
C414 H427 0.962 . S
C414 H428 0.960 . S
C415 C412 1.511 . S
C415 H429 0.961 . S
C415 H430 0.961 . S
C415 H431 0.961 . S
C416 C417 1.370 . S
C416 C418 1.363 . S
C416 H432 0.931 . S
C417 C416 1.370 . S
C417 C421 1.408 . S
C418 C416 1.363 . S
C418 C419 1.370 . S
C418 C422 1.524 . S
C419 C411 1.503 . S
C419 C418 1.370 . S
C419 C420 1.403 . S
C420 C419 1.403 . S
C420 C421 1.404 . S
C420 C423 1.539 . S
C421 C417 1.408 . S
C421 C420 1.404 . S
C421 H433 0.930 . S
C422 C418 1.524 . S
C422 H434 0.956 . S
C422 H435 0.961 . S
C422 H436 0.961 . S
C423 C420 1.539 . S
C423 H437 0.958 . S
C423 H438 0.961 . S
C423 H439 0.960 . S
H424 C408 0.931 . S
H425 C413 0.929 . S
H426 C414 0.960 . S
H427 C414 0.962 . S
H428 C414 0.960 . S
H429 C415 0.961 . S
H430 C415 0.961 . S
H431 C415 0.961 . S
H432 C416 0.931 . S
H433 C421 0.930 . S
H434 C422 0.956 . S
H435 C422 0.961 . S
H436 C422 0.961 . S
H437 C423 0.958 . S
H438 C423 0.961 . S
H439 C423 0.960 . S
C440 C441 1.391 . S
C440 C442 1.394 . S
C440 H456 0.931 . S
C441 C440 1.391 . S
C441 C445 1.376 . S
C442 C440 1.394 . S
C442 C443 1.369 . S
C442 C446 1.531 . S
C443 C442 1.369 . S
C443 C444 1.410 . S
C443 C451 1.503 . S
C444 C443 1.410 . S
C444 C445 1.392 . S
C444 C447 1.511 . S
C445 C441 1.376 . S
C445 C444 1.392 . S
C445 H457 0.929 . S
C446 C442 1.531 . S
C446 H458 0.960 . S
C446 H459 0.962 . S
C446 H460 0.960 . S
C447 C444 1.511 . S
C447 H461 0.961 . S
C447 H462 0.961 . S
C447 H463 0.961 . S
C448 C449 1.370 . S
C448 C450 1.363 . S
C448 H464 0.931 . S
C449 C448 1.370 . S
C449 C453 1.408 . S
C450 C448 1.363 . S
C450 C451 1.370 . S
C450 C454 1.524 . S
C451 C443 1.503 . S
C451 C450 1.370 . S
C451 C452 1.403 . S
C452 C451 1.403 . S
C452 C453 1.404 . S
C452 C455 1.539 . S
C453 C449 1.408 . S
C453 C452 1.404 . S
C453 H465 0.930 . S
C454 C450 1.524 . S
C454 H466 0.956 . S
C454 H467 0.961 . S
C454 H468 0.961 . S
C455 C452 1.539 . S
C455 H469 0.958 . S
C455 H470 0.961 . S
C455 H471 0.960 . S
H456 C440 0.931 . S
H457 C445 0.929 . S
H458 C446 0.960 . S
H459 C446 0.962 . S
H460 C446 0.960 . S
H461 C447 0.961 . S
H462 C447 0.961 . S
H463 C447 0.961 . S
H464 C448 0.931 . S
H465 C453 0.930 . S
H466 C454 0.956 . S
H467 C454 0.961 . S
H468 C454 0.961 . S
H469 C455 0.958 . S
H470 C455 0.961 . S
H471 C455 0.960 . S
C472 C473 1.391 . S
C472 C474 1.394 . S
C472 H488 0.931 . S
C473 C472 1.391 . S
C473 C477 1.376 . S
C474 C472 1.394 . S
C474 C475 1.369 . S
C474 C478 1.531 . S
C475 C474 1.369 . S
C475 C476 1.410 . S
C475 C483 1.503 . S
C476 C475 1.410 . S
C476 C477 1.392 . S
C476 C479 1.511 . S
C477 C473 1.376 . S
C477 C476 1.392 . S
C477 H489 0.929 . S
C478 C474 1.531 . S
C478 H490 0.960 . S
C478 H491 0.962 . S
C478 H492 0.960 . S
C479 C476 1.511 . S
C479 H493 0.961 . S
C479 H494 0.961 . S
C479 H495 0.961 . S
C480 C481 1.370 . S
C480 C482 1.363 . S
C480 H496 0.931 . S
C481 C480 1.370 . S
C481 C485 1.408 . S
C482 C480 1.363 . S
C482 C483 1.370 . S
C482 C486 1.524 . S
C483 C475 1.503 . S
C483 C482 1.370 . S
C483 C484 1.403 . S
C484 C483 1.403 . S
C484 C485 1.404 . S
C484 C487 1.539 . S
C485 C481 1.408 . S
C485 C484 1.404 . S
C485 H497 0.930 . S
C486 C482 1.524 . S
C486 H498 0.956 . S
C486 H499 0.961 . S
C486 H500 0.961 . S
C487 C484 1.539 . S
C487 H501 0.958 . S
C487 H502 0.961 . S
C487 H503 0.960 . S
H488 C472 0.931 . S
H489 C477 0.929 . S
H490 C478 0.960 . S
H491 C478 0.962 . S
H492 C478 0.960 . S
H493 C479 0.961 . S
H494 C479 0.961 . S
H495 C479 0.961 . S
H496 C480 0.931 . S
H497 C485 0.930 . S
H498 C486 0.956 . S
H499 C486 0.961 . S
H500 C486 0.961 . S
H501 C487 0.958 . S
H502 C487 0.961 . S
H503 C487 0.960 . S
C504 C505 1.391 . S
C504 C506 1.394 . S
C504 H520 0.931 . S
C505 C504 1.391 . S
C505 C509 1.376 . S
C506 C504 1.394 . S
C506 C507 1.369 . S
C506 C510 1.531 . S
C507 C506 1.369 . S
C507 C508 1.410 . S
C507 C515 1.503 . S
C508 C507 1.410 . S
C508 C509 1.392 . S
C508 C511 1.511 . S
C509 C505 1.376 . S
C509 C508 1.392 . S
C509 H521 0.929 . S
C510 C506 1.531 . S
C510 H522 0.960 . S
C510 H523 0.962 . S
C510 H524 0.960 . S
C511 C508 1.511 . S
C511 H525 0.961 . S
C511 H526 0.961 . S
C511 H527 0.961 . S
C512 C513 1.370 . S
C512 C514 1.363 . S
C512 H528 0.931 . S
C513 C512 1.370 . S
C513 C517 1.408 . S
C514 C512 1.363 . S
C514 C515 1.370 . S
C514 C518 1.524 . S
C515 C507 1.503 . S
C515 C514 1.370 . S
C515 C516 1.403 . S
C516 C515 1.403 . S
C516 C517 1.404 . S
C516 C519 1.539 . S
C517 C513 1.408 . S
C517 C516 1.404 . S
C517 H529 0.930 . S
C518 C514 1.524 . S
C518 H530 0.956 . S
C518 H531 0.961 . S
C518 H532 0.961 . S
C519 C516 1.539 . S
C519 H533 0.958 . S
C519 H534 0.961 . S
C519 H535 0.960 . S
H520 C504 0.931 . S
H521 C509 0.929 . S
H522 C510 0.960 . S
H523 C510 0.962 . S
H524 C510 0.960 . S
H525 C511 0.961 . S
H526 C511 0.961 . S
H527 C511 0.961 . S
H528 C512 0.931 . S
H529 C517 0.930 . S
H530 C518 0.956 . S
H531 C518 0.961 . S
H532 C518 0.961 . S
H533 C519 0.958 . S
H534 C519 0.961 . S
H535 C519 0.960 . S
C536 C537 1.391 . S
C536 C538 1.394 . S
C536 H552 0.931 . S
C537 C536 1.391 . S
C537 C541 1.376 . S
C538 C536 1.394 . S
C538 C539 1.369 . S
C538 C542 1.531 . S
C539 C538 1.369 . S
C539 C540 1.410 . S
C539 C547 1.503 . S
C540 C539 1.410 . S
C540 C541 1.392 . S
C540 C543 1.511 . S
C541 C537 1.376 . S
C541 C540 1.392 . S
C541 H553 0.929 . S
C542 C538 1.531 . S
C542 H554 0.960 . S
C542 H555 0.962 . S
C542 H556 0.960 . S
C543 C540 1.511 . S
C543 H557 0.961 . S
C543 H558 0.961 . S
C543 H559 0.961 . S
C544 C545 1.370 . S
C544 C546 1.363 . S
C544 H560 0.931 . S
C545 C544 1.370 . S
C545 C549 1.408 . S
C546 C544 1.363 . S
C546 C547 1.370 . S
C546 C550 1.524 . S
C547 C539 1.503 . S
C547 C546 1.370 . S
C547 C548 1.403 . S
C548 C547 1.403 . S
C548 C549 1.404 . S
C548 C551 1.539 . S
C549 C545 1.408 . S
C549 C548 1.404 . S
C549 H561 0.930 . S
C550 C546 1.524 . S
C550 H562 0.956 . S
C550 H563 0.961 . S
C550 H564 0.961 . S
C551 C548 1.539 . S
C551 H565 0.958 . S
C551 H566 0.961 . S
C551 H567 0.960 . S
H552 C536 0.931 . S
H553 C541 0.929 . S
H554 C542 0.960 . S
H555 C542 0.962 . S
H556 C542 0.960 . S
H557 C543 0.961 . S
H558 C543 0.961 . S
H559 C543 0.961 . S
H560 C544 0.931 . S
H561 C549 0.930 . S
H562 C550 0.956 . S
H563 C550 0.961 . S
H564 C550 0.961 . S
H565 C551 0.958 . S
H566 C551 0.961 . S
H567 C551 0.960 . S
C568 C569 1.391 . S
C568 C570 1.394 . S
C568 H584 0.931 . S
C569 C568 1.391 . S
C569 C573 1.376 . S
C570 C568 1.394 . S
C570 C571 1.369 . S
C570 C574 1.531 . S
C571 C570 1.369 . S
C571 C572 1.410 . S
C571 C579 1.503 . S
C572 C571 1.410 . S
C572 C573 1.392 . S
C572 C575 1.511 . S
C573 C569 1.376 . S
C573 C572 1.392 . S
C573 H585 0.929 . S
C574 C570 1.531 . S
C574 H586 0.960 . S
C574 H587 0.962 . S
C574 H588 0.960 . S
C575 C572 1.511 . S
C575 H589 0.961 . S
C575 H590 0.961 . S
C575 H591 0.961 . S
C576 C577 1.370 . S
C576 C578 1.363 . S
C576 H592 0.931 . S
C577 C576 1.370 . S
C577 C581 1.408 . S
C578 C576 1.363 . S
C578 C579 1.370 . S
C578 C582 1.524 . S
C579 C571 1.503 . S
C579 C578 1.370 . S
C579 C580 1.403 . S
C580 C579 1.403 . S
C580 C581 1.404 . S
C580 C583 1.539 . S
C581 C577 1.408 . S
C581 C580 1.404 . S
C581 H593 0.930 . S
C582 C578 1.524 . S
C582 H594 0.956 . S
C582 H595 0.961 . S
C582 H596 0.961 . S
C583 C580 1.539 . S
C583 H597 0.958 . S
C583 H598 0.961 . S
C583 H599 0.960 . S
H584 C568 0.931 . S
H585 C573 0.929 . S
H586 C574 0.960 . S
H587 C574 0.962 . S
H588 C574 0.960 . S
H589 C575 0.961 . S
H590 C575 0.961 . S
H591 C575 0.961 . S
H592 C576 0.931 . S
H593 C581 0.930 . S
H594 C582 0.956 . S
H595 C582 0.961 . S
H596 C582 0.961 . S
H597 C583 0.958 . S
H598 C583 0.961 . S
H599 C583 0.960 . S
C600 C601 1.391 . S
C600 C602 1.394 . S
C600 H616 0.931 . S
C601 C600 1.391 . S
C601 C605 1.376 . S
C602 C600 1.394 . S
C602 C603 1.369 . S
C602 C606 1.531 1_556 S
C603 C602 1.369 . S
C603 C604 1.410 . S
C603 C611 1.503 1_556 S
C604 C603 1.410 . S
C604 C605 1.392 . S
C604 C607 1.511 . S
C605 C601 1.376 . S
C605 C604 1.392 . S
C605 H617 0.929 . S
C606 C602 1.531 1_554 S
C606 H618 0.960 . S
C606 H619 0.962 . S
C606 H620 0.960 . S
C607 C604 1.511 . S
C607 H621 0.961 . S
C607 H622 0.961 . S
C607 H623 0.961 . S
C608 C609 1.370 . S
C608 C610 1.363 . S
C608 H624 0.931 . S
C609 C608 1.370 . S
C609 C613 1.408 . S
C610 C608 1.363 . S
C610 C611 1.370 . S
C610 C614 1.524 . S
C611 C603 1.503 1_554 S
C611 C610 1.370 . S
C611 C612 1.403 . S
C612 C611 1.403 . S
C612 C613 1.404 . S
C612 C615 1.539 1_554 S
C613 C609 1.408 . S
C613 C612 1.404 . S
C613 H625 0.930 . S
C614 C610 1.524 . S
C614 H626 0.956 . S
C614 H627 0.961 . S
C614 H628 0.961 . S
C615 C612 1.539 1_556 S
C615 H629 0.961 . S
C615 H630 0.961 . S
C615 H631 0.960 . S
H616 C600 0.931 . S
H617 C605 0.929 . S
H618 C606 0.960 . S
H619 C606 0.962 . S
H620 C606 0.960 . S
H621 C607 0.961 . S
H622 C607 0.961 . S
H623 C607 0.961 . S
H624 C608 0.931 . S
H625 C613 0.930 . S
H626 C614 0.956 . S
H627 C614 0.961 . S
H628 C614 0.961 . S
H629 C615 0.961 . S
H630 C615 0.961 . S
H631 C615 0.960 . S
C632 C633 1.391 . S
C632 C634 1.394 . S
C632 H648 0.931 . S
C633 C632 1.391 . S
C633 C637 1.376 . S
C634 C632 1.394 . S
C634 C635 1.369 . S
C634 C638 1.531 . S
C635 C634 1.369 . S
C635 C636 1.410 . S
C635 C643 1.503 . S
C636 C635 1.410 . S
C636 C637 1.392 . S
C636 C639 1.511 . S
C637 C633 1.376 . S
C637 C636 1.392 . S
C637 H649 0.929 . S
C638 C634 1.531 . S
C638 H650 0.960 . S
C638 H651 0.962 . S
C638 H652 0.960 . S
C639 C636 1.511 . S
C639 H653 0.961 . S
C639 H654 0.961 . S
C639 H655 0.961 . S
C640 C641 1.370 . S
C640 C642 1.363 . S
C640 H656 0.931 . S
C641 C640 1.370 . S
C641 C645 1.408 . S
C642 C640 1.363 . S
C642 C643 1.370 . S
C642 C646 1.524 . S
C643 C635 1.503 . S
C643 C642 1.370 . S
C643 C644 1.403 . S
C644 C643 1.403 . S
C644 C645 1.404 . S
C644 C647 1.539 . S
C645 C641 1.408 . S
C645 C644 1.404 . S
C645 H657 0.930 . S
C646 C642 1.524 . S
C646 H658 0.956 . S
C646 H659 0.961 . S
C646 H660 0.961 . S
C647 C644 1.539 . S
C647 H661 0.958 . S
C647 H662 0.961 . S
C647 H663 0.960 . S
H648 C632 0.931 . S
H649 C637 0.929 . S
H650 C638 0.960 . S
H651 C638 0.962 . S
H652 C638 0.960 . S
H653 C639 0.961 . S
H654 C639 0.961 . S
H655 C639 0.961 . S
H656 C640 0.931 . S
H657 C645 0.930 . S
H658 C646 0.956 . S
H659 C646 0.961 . S
H660 C646 0.961 . S
H661 C647 0.958 . S
H662 C647 0.961 . S
H663 C647 0.960 . S
C664 C665 1.391 . S
C664 C666 1.394 . S
C664 H680 0.931 . S
C665 C664 1.391 . S
C665 C669 1.376 . S
C666 C664 1.394 . S
C666 C667 1.369 . S
C666 C670 1.531 . S
C667 C666 1.369 . S
C667 C668 1.410 . S
C667 C675 1.503 . S
C668 C667 1.410 . S
C668 C669 1.392 . S
C668 C671 1.511 . S
C669 C665 1.376 . S
C669 C668 1.392 . S
C669 H681 0.929 . S
C670 C666 1.531 . S
C670 H682 0.960 . S
C670 H683 0.962 . S
C670 H684 0.960 . S
C671 C668 1.511 . S
C671 H685 0.961 . S
C671 H686 0.961 . S
C671 H687 0.961 . S
C672 C673 1.370 . S
C672 C674 1.363 . S
C672 H688 0.931 . S
C673 C672 1.370 . S
C673 C677 1.408 . S
C674 C672 1.363 . S
C674 C675 1.370 . S
C674 C678 1.524 . S
C675 C667 1.503 . S
C675 C674 1.370 . S
C675 C676 1.403 . S
C676 C675 1.403 . S
C676 C677 1.404 . S
C676 C679 1.539 . S
C677 C673 1.408 . S
C677 C676 1.404 . S
C677 H689 0.930 . S
C678 C674 1.524 . S
C678 H690 0.956 . S
C678 H691 0.961 . S
C678 H692 0.961 . S
C679 C676 1.539 . S
C679 H693 0.958 . S
C679 H694 0.961 . S
C679 H695 0.960 . S
H680 C664 0.931 . S
H681 C669 0.929 . S
H682 C670 0.960 . S
H683 C670 0.962 . S
H684 C670 0.960 . S
H685 C671 0.961 . S
H686 C671 0.961 . S
H687 C671 0.961 . S
H688 C672 0.931 . S
H689 C677 0.930 . S
H690 C678 0.956 . S
H691 C678 0.961 . S
H692 C678 0.961 . S
H693 C679 0.958 . S
H694 C679 0.961 . S
H695 C679 0.960 . S
C696 C697 1.391 . S
C696 C698 1.394 . S
C696 H712 0.931 . S
C697 C696 1.391 . S
C697 C701 1.376 . S
C698 C696 1.394 . S
C698 C699 1.369 . S
C698 C702 1.531 1_556 S
C699 C698 1.369 . S
C699 C700 1.410 . S
C699 C707 1.503 1_556 S
C700 C699 1.410 . S
C700 C701 1.392 . S
C700 C703 1.511 . S
C701 C697 1.376 . S
C701 C700 1.392 . S
C701 H713 0.929 . S
C702 C698 1.531 1_554 S
C702 H714 0.960 . S
C702 H715 0.962 . S
C702 H716 0.960 . S
C703 C700 1.511 . S
C703 H717 0.961 . S
C703 H718 0.961 . S
C703 H719 0.961 . S
C704 C705 1.370 . S
C704 C706 1.363 . S
C704 H720 0.931 . S
C705 C704 1.370 . S
C705 C709 1.408 . S
C706 C704 1.363 . S
C706 C707 1.370 . S
C706 C710 1.524 1_554 S
C707 C699 1.503 1_554 S
C707 C706 1.370 . S
C707 C708 1.403 . S
C708 C707 1.403 . S
C708 C709 1.404 . S
C708 C711 1.539 . S
C709 C705 1.408 . S
C709 C708 1.404 . S
C709 H721 0.930 . S
C710 C706 1.524 1_556 S
C710 H722 0.956 . S
C710 H723 0.961 . S
C710 H724 0.961 . S
C711 C708 1.539 . S
C711 H725 0.958 . S
C711 H726 0.961 . S
C711 H727 0.960 . S
H712 C696 0.931 . S
H713 C701 0.929 . S
H714 C702 0.960 . S
H715 C702 0.962 . S
H716 C702 0.960 . S
H717 C703 0.961 . S
H718 C703 0.961 . S
H719 C703 0.961 . S
H720 C704 0.931 . S
H721 C709 0.930 . S
H722 C710 0.956 . S
H723 C710 0.961 . S
H724 C710 0.961 . S
H725 C711 0.958 . S
H726 C711 0.961 . S
H727 C711 0.960 . S
C728 C729 1.391 . S
C728 C730 1.394 . S
C728 H744 0.931 . S
C729 C728 1.391 . S
C729 C733 1.376 . S
C730 C728 1.394 . S
C730 C731 1.369 . S
C730 C734 1.531 . S
C731 C730 1.369 . S
C731 C732 1.410 . S
C731 C739 1.503 . S
C732 C731 1.410 . S
C732 C733 1.392 . S
C732 C735 1.511 . S
C733 C729 1.376 . S
C733 C732 1.392 . S
C733 H745 0.929 . S
C734 C730 1.531 . S
C734 H746 0.960 . S
C734 H747 0.962 . S
C734 H748 0.960 . S
C735 C732 1.511 . S
C735 H749 0.961 . S
C735 H750 0.961 . S
C735 H751 0.961 . S
C736 C737 1.370 . S
C736 C738 1.363 . S
C736 H752 0.931 . S
C737 C736 1.370 . S
C737 C741 1.408 . S
C738 C736 1.363 . S
C738 C739 1.370 . S
C738 C742 1.524 . S
C739 C731 1.503 . S
C739 C738 1.370 . S
C739 C740 1.403 . S
C740 C739 1.403 . S
C740 C741 1.404 . S
C740 C743 1.539 . S
C741 C737 1.408 . S
C741 C740 1.404 . S
C741 H753 0.930 . S
C742 C738 1.524 . S
C742 H754 0.956 . S
C742 H755 0.961 . S
C742 H756 0.961 . S
C743 C740 1.539 . S
C743 H757 0.958 . S
C743 H758 0.961 . S
C743 H759 0.960 . S
H744 C728 0.931 . S
H745 C733 0.929 . S
H746 C734 0.960 . S
H747 C734 0.962 . S
H748 C734 0.960 . S
H749 C735 0.961 . S
H750 C735 0.961 . S
H751 C735 0.961 . S
H752 C736 0.931 . S
H753 C741 0.930 . S
H754 C742 0.956 . S
H755 C742 0.961 . S
H756 C742 0.961 . S
H757 C743 0.958 . S
H758 C743 0.961 . S
H759 C743 0.960 . S
C760 C761 1.391 . S
C760 C762 1.394 . S
C760 H776 0.931 . S
C761 C760 1.391 . S
C761 C765 1.376 . S
C762 C760 1.394 . S
C762 C763 1.369 . S
C762 C766 1.531 . S
C763 C762 1.369 . S
C763 C764 1.410 . S
C763 C771 1.503 . S
C764 C763 1.410 . S
C764 C765 1.392 . S
C764 C767 1.511 . S
C765 C761 1.376 . S
C765 C764 1.392 . S
C765 H777 0.929 . S
C766 C762 1.531 . S
C766 H778 0.960 . S
C766 H779 0.962 . S
C766 H780 0.960 . S
C767 C764 1.511 . S
C767 H781 0.961 . S
C767 H782 0.961 . S
C767 H783 0.961 . S
C768 C769 1.370 . S
C768 C770 1.363 . S
C768 H784 0.931 . S
C769 C768 1.370 . S
C769 C773 1.408 . S
C770 C768 1.363 . S
C770 C771 1.370 . S
C770 C774 1.524 . S
C771 C763 1.503 . S
C771 C770 1.370 . S
C771 C772 1.403 . S
C772 C771 1.403 . S
C772 C773 1.404 . S
C772 C775 1.539 . S
C773 C769 1.408 . S
C773 C772 1.404 . S
C773 H785 0.930 . S
C774 C770 1.524 . S
C774 H786 0.956 . S
C774 H787 0.961 . S
C774 H788 0.961 . S
C775 C772 1.539 . S
C775 H789 0.958 . S
C775 H790 0.961 . S
C775 H791 0.960 . S
H776 C760 0.931 . S
H777 C765 0.929 . S
H778 C766 0.960 . S
H779 C766 0.962 . S
H780 C766 0.960 . S
H781 C767 0.961 . S
H782 C767 0.961 . S
H783 C767 0.961 . S
H784 C768 0.931 . S
H785 C773 0.930 . S
H786 C774 0.956 . S
H787 C774 0.961 . S
H788 C774 0.961 . S
H789 C775 0.958 . S
H790 C775 0.961 . S
H791 C775 0.960 . S
C792 C793 1.391 . S
C792 C794 1.394 . S
C792 H808 0.931 . S
C793 C792 1.391 . S
C793 C797 1.376 . S
C794 C792 1.394 . S
C794 C795 1.369 . S
C794 C798 1.531 1_556 S
C795 C794 1.369 . S
C795 C796 1.410 . S
C795 C803 1.503 1_566 S
C796 C795 1.410 . S
C796 C797 1.392 . S
C796 C799 1.511 1_565 S
C797 C793 1.376 . S
C797 C796 1.392 . S
C797 H809 0.929 . S
C798 C794 1.531 1_554 S
C798 H810 0.960 . S
C798 H811 0.962 . S
C798 H812 0.960 . S
C799 C796 1.511 1_545 S
C799 H813 0.961 . S
C799 H814 0.961 . S
C799 H815 0.961 . S
C800 C801 1.370 . S
C800 C802 1.363 . S
C800 H816 0.931 . S
C801 C800 1.370 . S
C801 C805 1.408 . S
C802 C800 1.363 . S
C802 C803 1.370 . S
C802 C806 1.524 1_545 S
C803 C795 1.503 1_544 S
C803 C802 1.370 . S
C803 C804 1.403 . S
C804 C803 1.403 . S
C804 C805 1.404 . S
C804 C807 1.539 1_554 S
C805 C801 1.408 . S
C805 C804 1.404 . S
C805 H817 0.930 . S
C806 C802 1.524 1_565 S
C806 H818 0.956 . S
C806 H819 0.961 . S
C806 H820 0.961 . S
C807 C804 1.539 1_556 S
C807 H821 0.958 . S
C807 H822 0.961 . S
C807 H823 0.960 . S
H808 C792 0.931 . S
H809 C797 0.929 . S
H810 C798 0.960 . S
H811 C798 0.962 . S
H812 C798 0.960 . S
H813 C799 0.961 . S
H814 C799 0.961 . S
H815 C799 0.961 . S
H816 C800 0.931 . S
H817 C805 0.930 . S
H818 C806 0.956 . S
H819 C806 0.961 . S
H820 C806 0.961 . S
H821 C807 0.958 . S
H822 C807 0.961 . S
H823 C807 0.960 . S
C824 C825 1.391 . S
C824 C826 1.394 . S
C824 H840 0.931 . S
C825 C824 1.391 . S
C825 C829 1.376 . S
C826 C824 1.394 . S
C826 C827 1.369 . S
C826 C830 1.531 . S
C827 C826 1.369 . S
C827 C828 1.410 . S
C827 C835 1.503 . S
C828 C827 1.410 . S
C828 C829 1.392 . S
C828 C831 1.511 . S
C829 C825 1.376 . S
C829 C828 1.392 . S
C829 H841 0.929 . S
C830 C826 1.531 . S
C830 H842 0.960 . S
C830 H843 0.962 . S
C830 H844 0.960 . S
C831 C828 1.511 . S
C831 H845 0.961 . S
C831 H846 0.961 . S
C831 H847 0.961 . S
C832 C833 1.370 . S
C832 C834 1.363 . S
C832 H848 0.931 . S
C833 C832 1.370 . S
C833 C837 1.408 . S
C834 C832 1.363 . S
C834 C835 1.370 . S
C834 C838 1.524 . S
C835 C827 1.503 . S
C835 C834 1.370 . S
C835 C836 1.403 . S
C836 C835 1.403 . S
C836 C837 1.404 . S
C836 C839 1.539 . S
C837 C833 1.408 . S
C837 C836 1.404 . S
C837 H849 0.930 . S
C838 C834 1.524 . S
C838 H850 0.956 . S
C838 H851 0.961 . S
C838 H852 0.961 . S
C839 C836 1.539 . S
C839 H853 0.958 . S
C839 H854 0.961 . S
C839 H855 0.960 . S
H840 C824 0.931 . S
H841 C829 0.929 . S
H842 C830 0.960 . S
H843 C830 0.962 . S
H844 C830 0.960 . S
H845 C831 0.961 . S
H846 C831 0.961 . S
H847 C831 0.961 . S
H848 C832 0.931 . S
H849 C837 0.930 . S
H850 C838 0.956 . S
H851 C838 0.961 . S
H852 C838 0.961 . S
H853 C839 0.958 . S
H854 C839 0.961 . S
H855 C839 0.960 . S
C856 C857 1.391 . S
C856 C858 1.394 . S
C856 H872 0.931 . S
C857 C856 1.391 . S
C857 C861 1.376 . S
C858 C856 1.394 . S
C858 C859 1.369 . S
C858 C862 1.531 . S
C859 C858 1.369 . S
C859 C860 1.410 . S
C859 C867 1.503 1_455 S
C860 C859 1.410 . S
C860 C861 1.392 . S
C860 C863 1.511 1_455 S
C861 C857 1.376 . S
C861 C860 1.392 . S
C861 H873 0.929 . S
C862 C858 1.531 . S
C862 H874 0.960 . S
C862 H875 0.962 . S
C862 H876 0.960 . S
C863 C860 1.511 1_655 S
C863 H877 0.961 . S
C863 H878 0.961 . S
C863 H879 0.961 . S
C864 C865 1.370 . S
C864 C866 1.363 . S
C864 H880 0.931 . S
C865 C864 1.370 . S
C865 C869 1.408 . S
C866 C864 1.363 . S
C866 C867 1.370 . S
C866 C870 1.524 . S
C867 C859 1.503 1_655 S
C867 C866 1.370 . S
C867 C868 1.403 . S
C868 C867 1.403 . S
C868 C869 1.404 . S
C868 C871 1.539 1_655 S
C869 C865 1.408 . S
C869 C868 1.404 . S
C869 H881 0.930 . S
C870 C866 1.524 . S
C870 H882 0.956 . S
C870 H883 0.961 . S
C870 H884 0.961 . S
C871 C868 1.539 1_455 S
C871 H885 0.958 . S
C871 H886 0.961 1_455 S
C871 H887 0.960 . S
H872 C856 0.931 . S
H873 C861 0.929 . S
H874 C862 0.960 . S
H875 C862 0.962 . S
H876 C862 0.960 . S
H877 C863 0.961 . S
H878 C863 0.961 . S
H879 C863 0.961 . S
H880 C864 0.931 . S
H881 C869 0.930 . S
H882 C870 0.956 . S
H883 C870 0.961 . S
H884 C870 0.961 . S
H885 C871 0.958 . S
H886 C871 0.961 1_655 S
H887 C871 0.960 . S
C888 C889 1.391 . S
C888 C890 1.394 . S
C888 H904 0.931 . S
C889 C888 1.391 . S
C889 C893 1.376 . S
C890 C888 1.394 . S
C890 C891 1.369 . S
C890 C894 1.531 1_565 S
C891 C890 1.369 . S
C891 C892 1.410 . S
C891 C899 1.503 1_564 S
C892 C891 1.410 . S
C892 C893 1.392 . S
C892 C895 1.511 1_554 S
C893 C889 1.376 . S
C893 C892 1.392 . S
C893 H905 0.929 . S
C894 C890 1.531 1_545 S
C894 H906 0.960 . S
C894 H907 0.962 . S
C894 H908 0.960 . S
C895 C892 1.511 1_556 S
C895 H909 0.961 . S
C895 H910 0.961 . S
C895 H911 0.961 1_556 S
C896 C897 1.370 . S
C896 C898 1.363 . S
C896 H912 0.931 . S
C897 C896 1.370 . S
C897 C901 1.408 . S
C898 C896 1.363 . S
C898 C899 1.370 . S
C898 C902 1.524 1_545 S
C899 C891 1.503 1_546 S
C899 C898 1.370 . S
C899 C900 1.403 . S
C900 C899 1.403 . S
C900 C901 1.404 . S
C900 C903 1.539 1_556 S
C901 C897 1.408 . S
C901 C900 1.404 . S
C901 H913 0.930 . S
C902 C898 1.524 1_565 S
C902 H914 0.956 . S
C902 H915 0.961 . S
C902 H916 0.961 . S
C903 C900 1.539 1_554 S
C903 H917 0.958 . S
C903 H918 0.961 . S
C903 H919 0.960 . S
H904 C888 0.931 . S
H905 C893 0.929 . S
H906 C894 0.960 . S
H907 C894 0.962 . S
H908 C894 0.960 . S
H909 C895 0.961 . S
H910 C895 0.961 . S
H911 C895 0.961 1_554 S
H912 C896 0.931 . S
H913 C901 0.930 . S
H914 C902 0.956 . S
H915 C902 0.961 . S
H916 C902 0.961 . S
H917 C903 0.958 . S
H918 C903 0.961 . S
H919 C903 0.960 . S
C920 C921 1.391 . S
C920 C922 1.394 . S
C920 H936 0.931 . S
C921 C920 1.391 . S
C921 C925 1.376 . S
C922 C920 1.394 . S
C922 C923 1.369 . S
C922 C926 1.531 . S
C923 C922 1.369 . S
C923 C924 1.410 . S
C923 C931 1.503 . S
C924 C923 1.410 . S
C924 C925 1.392 . S
C924 C927 1.511 . S
C925 C921 1.376 . S
C925 C924 1.392 . S
C925 H937 0.929 . S
C926 C922 1.531 . S
C926 H938 0.960 . S
C926 H939 0.962 . S
C926 H940 0.960 . S
C927 C924 1.511 . S
C927 H941 0.961 . S
C927 H942 0.961 . S
C927 H943 0.961 . S
C928 C929 1.370 . S
C928 C930 1.363 . S
C928 H944 0.931 . S
C929 C928 1.370 . S
C929 C933 1.408 . S
C930 C928 1.363 . S
C930 C931 1.370 . S
C930 C934 1.524 . S
C931 C923 1.503 . S
C931 C930 1.370 . S
C931 C932 1.403 . S
C932 C931 1.403 . S
C932 C933 1.404 . S
C932 C935 1.539 . S
C933 C929 1.408 . S
C933 C932 1.404 . S
C933 H945 0.930 . S
C934 C930 1.524 . S
C934 H946 0.956 . S
C934 H947 0.961 . S
C934 H948 0.961 . S
C935 C932 1.539 . S
C935 H949 0.958 . S
C935 H950 0.961 . S
C935 H951 0.960 . S
H936 C920 0.931 . S
H937 C925 0.929 . S
H938 C926 0.960 . S
H939 C926 0.962 . S
H940 C926 0.960 . S
H941 C927 0.961 . S
H942 C927 0.961 . S
H943 C927 0.961 . S
H944 C928 0.931 . S
H945 C933 0.930 . S
H946 C934 0.956 . S
H947 C934 0.961 . S
H948 C934 0.961 . S
H949 C935 0.958 . S
H950 C935 0.961 . S
H951 C935 0.960 . S
C952 C953 1.391 . S
C952 C954 1.394 . S
C952 H968 0.931 . S
C953 C952 1.391 . S
C953 C957 1.376 . S
C954 C952 1.394 . S
C954 C955 1.369 . S
C954 C958 1.531 1_455 S
C955 C954 1.369 . S
C955 C956 1.410 . S
C955 C963 1.503 1_455 S
C956 C955 1.410 . S
C956 C957 1.392 . S
C956 C959 1.511 . S
C957 C953 1.376 . S
C957 C956 1.392 . S
C957 H969 0.929 . S
C958 C954 1.531 1_655 S
C958 H970 0.960 . S
C958 H971 0.962 . S
C958 H972 0.960 . S
C959 C956 1.511 . S
C959 H973 0.961 . S
C959 H974 0.961 . S
C959 H975 0.961 . S
C960 C961 1.370 . S
C960 C962 1.363 . S
C960 H976 0.931 . S
C961 C960 1.370 . S
C961 C965 1.408 . S
C962 C960 1.363 . S
C962 C963 1.370 . S
C962 C966 1.524 . S
C963 C955 1.503 1_655 S
C963 C962 1.370 . S
C963 C964 1.403 . S
C964 C963 1.403 . S
C964 C965 1.404 . S
C964 C967 1.539 1_655 S
C965 C961 1.408 . S
C965 C964 1.404 . S
C965 H977 0.930 . S
C966 C962 1.524 . S
C966 H978 0.956 . S
C966 H979 0.961 . S
C966 H980 0.961 . S
C967 C964 1.539 1_455 S
C967 H981 0.958 . S
C967 H982 0.961 . S
C967 H983 0.960 . S
H968 C952 0.931 . S
H969 C957 0.929 . S
H970 C958 0.960 . S
H971 C958 0.962 . S
H972 C958 0.960 . S
H973 C959 0.961 . S
H974 C959 0.961 . S
H975 C959 0.961 . S
H976 C960 0.931 . S
H977 C965 0.930 . S
H978 C966 0.956 . S
H979 C966 0.961 . S
H980 C966 0.961 . S
H981 C967 0.958 . S
H982 C967 0.961 . S
H983 C967 0.960 . S
C984 C985 1.391 . S
C984 C986 1.394 . S
C984 H1000 0.931 . S
C985 C984 1.391 . S
C985 C989 1.376 . S
C986 C984 1.394 . S
C986 C987 1.369 . S
C986 C990 1.531 1_565 S
C987 C986 1.369 . S
C987 C988 1.410 . S
C987 C995 1.504 1_565 S
C988 C987 1.410 . S
C988 C989 1.392 . S
C988 C991 1.511 . S
C989 C985 1.376 . S
C989 C988 1.392 . S
C989 H1001 0.929 . S
C990 C986 1.531 1_545 S
C990 H1002 0.960 . S
C990 H1003 0.962 1_545 S
C990 H1004 0.960 . S
C991 C988 1.511 . S
C991 H1005 0.961 . S
C991 H1006 0.961 . S
C991 H1007 0.961 1_565 S
C992 C993 1.370 . S
C992 C994 1.363 1_545 S
C992 H1008 0.931 1_545 S
C993 C992 1.370 . S
C993 C997 1.408 . S
C994 C992 1.363 1_565 S
C994 C995 1.370 1_565 S
C994 C998 1.524 . S
C995 C987 1.504 1_545 S
C995 C994 1.370 1_545 S
C995 C996 1.403 . S
C996 C995 1.403 . S
C996 C997 1.404 . S
C996 C999 1.539 . S
C997 C993 1.408 . S
C997 C996 1.404 . S
C997 H1009 0.930 . S
C998 C994 1.524 . S
C998 H1010 0.956 . S
C998 H1011 0.961 . S
C998 H1012 0.961 . S
C999 C996 1.539 . S
C999 H1013 0.958 . S
C999 H1014 0.961 . S
C999 H1015 0.960 . S
H1000 C984 0.931 . S
H1001 C989 0.929 . S
H1002 C990 0.960 . S
H1003 C990 0.962 1_565 S
H1004 C990 0.960 . S
H1005 C991 0.961 . S
H1006 C991 0.961 . S
H1007 C991 0.961 1_545 S
H1008 C992 0.931 1_565 S
H1009 C997 0.930 . S
H1010 C998 0.956 . S
H1011 C998 0.961 . S
H1012 C998 0.961 . S
H1013 C999 0.958 . S
H1014 C999 0.961 . S
H1015 C999 0.960 . S
C1016 C1017 1.391 . S
C1016 C1018 1.394 . S
C1016 H1032 0.931 . S
C1017 C1016 1.391 . S
C1017 C1021 1.376 . S
C1018 C1016 1.394 . S
C1018 C1019 1.369 . S
C1018 C1022 1.531 . S
C1019 C1018 1.369 . S
C1019 C1020 1.410 . S
C1019 C1027 1.503 . S
C1020 C1019 1.410 . S
C1020 C1021 1.392 . S
C1020 C1023 1.511 . S
C1021 C1017 1.376 . S
C1021 C1020 1.392 . S
C1021 H1033 0.929 . S
C1022 C1018 1.531 . S
C1022 H1034 0.960 . S
C1022 H1035 0.962 . S
C1022 H1036 0.960 . S
C1023 C1020 1.511 . S
C1023 H1037 0.961 . S
C1023 H1038 0.961 . S
C1023 H1039 0.961 . S
C1024 C1025 1.370 . S
C1024 C1026 1.363 . S
C1024 H1040 0.931 . S
C1025 C1024 1.370 . S
C1025 C1029 1.408 . S
C1026 C1024 1.363 . S
C1026 C1027 1.370 . S
C1026 C1030 1.524 . S
C1027 C1019 1.503 . S
C1027 C1026 1.370 . S
C1027 C1028 1.403 . S
C1028 C1027 1.403 . S
C1028 C1029 1.404 . S
C1028 C1031 1.539 . S
C1029 C1025 1.408 . S
C1029 C1028 1.404 . S
C1029 H1041 0.930 . S
C1030 C1026 1.524 . S
C1030 H1042 0.956 . S
C1030 H1043 0.961 . S
C1030 H1044 0.961 . S
C1031 C1028 1.539 . S
C1031 H1045 0.958 . S
C1031 H1046 0.961 . S
C1031 H1047 0.960 . S
H1032 C1016 0.931 . S
H1033 C1021 0.929 . S
H1034 C1022 0.960 . S
H1035 C1022 0.962 . S
H1036 C1022 0.960 . S
H1037 C1023 0.961 . S
H1038 C1023 0.961 . S
H1039 C1023 0.961 . S
H1040 C1024 0.931 . S
H1041 C1029 0.930 . S
H1042 C1030 0.956 . S
H1043 C1030 0.961 . S
H1044 C1030 0.961 . S
H1045 C1031 0.958 . S
H1046 C1031 0.961 . S
H1047 C1031 0.960 . S
C1048 C1049 1.391 . S
C1048 C1050 1.400 . S
C1048 H1064 0.931 1_556 S
C1049 C1048 1.391 . S
C1049 C1053 1.376 . S
C1050 C1048 1.400 . S
C1050 C1051 1.368 . S
C1050 C1054 1.525 1_456 S
C1051 C1050 1.368 . S
C1051 C1052 1.410 . S
C1051 C1059 1.503 1_455 S
C1052 C1051 1.410 . S
C1052 C1053 1.392 . S
C1052 C1055 1.511 . S
C1053 C1049 1.376 . S
C1053 C1052 1.392 . S
C1053 H1065 0.929 . S
C1054 C1050 1.525 1_654 S
C1054 H1066 0.960 . S
C1054 H1067 0.962 . S
C1054 H1068 0.960 . S
C1055 C1052 1.511 . S
C1055 H1069 0.961 . S
C1055 H1070 0.961 . S
C1055 H1071 0.961 . S
C1056 C1057 1.370 . S
C1056 C1058 1.363 . S
C1056 H1072 0.931 . S
C1057 C1056 1.370 . S
C1057 C1061 1.408 . S
C1058 C1056 1.363 . S
C1058 C1059 1.370 . S
C1058 C1062 1.524 . S
C1059 C1051 1.503 1_655 S
C1059 C1058 1.370 . S
C1059 C1060 1.403 1_655 S
C1060 C1059 1.403 1_455 S
C1060 C1061 1.404 1_455 S
C1060 C1063 1.539 1_556 S
C1061 C1057 1.408 . S
C1061 C1060 1.404 1_655 S
C1061 H1073 0.930 1_656 S
C1062 C1058 1.524 . S
C1062 H1074 0.956 . S
C1062 H1075 0.961 . S
C1062 H1076 0.961 . S
C1063 C1060 1.539 1_554 S
C1063 H1077 0.958 . S
C1063 H1078 0.961 . S
C1063 H1079 0.960 . S
H1064 C1048 0.931 1_554 S
H1065 C1053 0.929 . S
H1066 C1054 0.960 . S
H1067 C1054 0.962 . S
H1068 C1054 0.960 . S
H1069 C1055 0.961 . S
H1070 C1055 0.961 . S
H1071 C1055 0.961 . S
H1072 C1056 0.931 . S
H1073 C1061 0.930 1_454 S
H1074 C1062 0.956 . S
H1075 C1062 0.961 . S
H1076 C1062 0.961 . S
H1077 C1063 0.958 . S
H1078 C1063 0.961 . S
H1079 C1063 0.960 . S
C1080 C1081 1.409 . S
C1080 C1082 1.396 1_655 S
C1080 H1096 0.911 1_655 S
C1081 C1080 1.409 . S
C1081 C1085 1.376 . S
C1082 C1080 1.396 1_455 S
C1082 C1083 1.369 1_455 S
C1082 C1086 1.531 . S
C1083 C1082 1.369 1_655 S
C1083 C1084 1.410 . S
C1083 C1091 1.503 1_655 S
C1084 C1083 1.410 . S
C1084 C1085 1.392 . S
C1084 C1087 1.511 . S
C1085 C1081 1.376 . S
C1085 C1084 1.392 . S
C1085 H1097 0.929 . S
C1086 C1082 1.531 . S
C1086 H1098 0.960 . S
C1086 H1099 0.962 . S
C1086 H1100 0.960 . S
C1087 C1084 1.511 . S
C1087 H1101 0.961 . S
C1087 H1102 0.961 . S
C1087 H1103 0.961 . S
C1088 C1089 1.370 . S
C1088 C1090 1.363 . S
C1088 H1104 0.931 . S
C1089 C1088 1.370 . S
C1089 C1093 1.408 . S
C1090 C1088 1.363 . S
C1090 C1091 1.370 . S
C1090 C1094 1.524 1_455 S
C1091 C1083 1.503 1_455 S
C1091 C1090 1.370 . S
C1091 C1092 1.403 . S
C1092 C1091 1.403 . S
C1092 C1093 1.404 . S
C1092 C1095 1.539 . S
C1093 C1089 1.408 . S
C1093 C1092 1.404 . S
C1093 H1105 0.930 . S
C1094 C1090 1.524 1_655 S
C1094 H1106 0.956 . S
C1094 H1107 0.961 . S
C1094 H1108 0.961 . S
C1095 C1092 1.539 . S
C1095 H1109 0.958 . S
C1095 H1110 0.961 . S
C1095 H1111 0.960 . S
H1096 C1080 0.911 1_455 S
H1097 C1085 0.929 . S
H1098 C1086 0.960 . S
H1099 C1086 0.962 . S
H1100 C1086 0.960 . S
H1101 C1087 0.961 . S
H1102 C1087 0.961 . S
H1103 C1087 0.961 . S
H1104 C1088 0.931 . S
H1105 C1093 0.930 . S
H1106 C1094 0.956 . S
H1107 C1094 0.961 . S
H1108 C1094 0.961 . S
H1109 C1095 0.958 . S
H1110 C1095 0.961 . S
H1111 C1095 0.960 . S
C1112 C1113 1.391 . S
C1112 C1114 1.394 . S
C1112 H1128 0.931 . S
C1113 C1112 1.391 . S
C1113 C1117 1.376 . S
C1114 C1112 1.394 . S
C1114 C1115 1.387 . S
C1114 C1118 1.531 . S
C1115 C1114 1.387 . S
C1115 C1116 1.416 1_545 S
C1115 C1123 1.481 1_545 S
C1116 C1115 1.416 1_565 S
C1116 C1117 1.392 1_565 S
C1116 C1119 1.511 . S
C1117 C1113 1.376 . S
C1117 C1116 1.392 1_545 S
C1117 H1129 0.929 . S
C1118 C1114 1.531 . S
C1118 H1130 0.984 . S
C1118 H1131 0.962 . S
C1118 H1132 0.960 . S
C1119 C1116 1.511 . S
C1119 H1133 0.961 . S
C1119 H1134 0.961 . S
C1119 H1135 0.961 . S
C1120 C1121 1.370 . S
C1120 C1122 1.363 1_565 S
C1120 H1136 0.931 1_565 S
C1121 C1120 1.370 . S
C1121 C1125 1.408 . S
C1122 C1120 1.363 1_545 S
C1122 C1123 1.370 1_545 S
C1122 C1126 1.524 . S
C1123 C1115 1.481 1_565 S
C1123 C1122 1.370 1_565 S
C1123 C1124 1.403 . S
C1124 C1123 1.403 . S
C1124 C1125 1.404 . S
C1124 C1127 1.539 . S
C1125 C1121 1.408 . S
C1125 C1124 1.404 . S
C1125 H1137 0.930 . S
C1126 C1122 1.524 . S
C1126 H1138 0.956 . S
C1126 H1139 0.961 . S
C1126 H1140 0.961 . S
C1127 C1124 1.539 . S
C1127 H1141 0.958 . S
C1127 H1142 0.961 . S
C1127 H1143 0.960 . S
H1128 C1112 0.931 . S
H1129 C1117 0.929 . S
H1130 C1118 0.984 . S
H1131 C1118 0.962 . S
H1132 C1118 0.960 . S
H1133 C1119 0.961 . S
H1134 C1119 0.961 . S
H1135 C1119 0.961 . S
H1136 C1120 0.931 1_545 S
H1137 C1125 0.930 . S
H1138 C1126 0.956 . S
H1139 C1126 0.961 . S
H1140 C1126 0.961 . S
H1141 C1127 0.958 . S
H1142 C1127 0.961 . S
H1143 C1127 0.960 . S
C1144 C1145 1.391 . S
C1144 C1146 1.394 . S
C1144 H1160 0.931 1_554 S
C1145 C1144 1.391 . S
C1145 C1149 1.376 . S
C1146 C1144 1.394 . S
C1146 C1147 1.369 . S
C1146 C1150 1.531 1_554 S
C1147 C1146 1.369 . S
C1147 C1148 1.410 . S
C1147 C1155 1.503 . S
C1148 C1147 1.410 . S
C1148 C1149 1.392 . S
C1148 C1151 1.511 . S
C1149 C1145 1.376 . S
C1149 C1148 1.392 . S
C1149 H1161 0.929 . S
C1150 C1146 1.531 1_556 S
C1150 H1162 0.960 . S
C1150 H1163 0.962 . S
C1150 H1164 0.960 . S
C1151 C1148 1.511 . S
C1151 H1165 0.961 . S
C1151 H1166 0.961 . S
C1151 H1167 0.961 . S
C1152 C1153 1.370 . S
C1152 C1154 1.363 . S
C1152 H1168 0.931 . S
C1153 C1152 1.370 . S
C1153 C1157 1.408 . S
C1154 C1152 1.363 . S
C1154 C1155 1.370 . S
C1154 C1158 1.524 . S
C1155 C1147 1.503 . S
C1155 C1154 1.370 . S
C1155 C1156 1.403 . S
C1156 C1155 1.403 . S
C1156 C1157 1.404 . S
C1156 C1159 1.539 1_554 S
C1157 C1153 1.408 . S
C1157 C1156 1.404 . S
C1157 H1169 0.930 1_554 S
C1158 C1154 1.524 . S
C1158 H1170 0.956 . S
C1158 H1171 0.961 . S
C1158 H1172 0.961 . S
C1159 C1156 1.539 1_556 S
C1159 H1173 0.958 . S
C1159 H1174 0.961 . S
C1159 H1175 0.960 . S
H1160 C1144 0.931 1_556 S
H1161 C1149 0.929 . S
H1162 C1150 0.960 . S
H1163 C1150 0.962 . S
H1164 C1150 0.960 . S
H1165 C1151 0.961 . S
H1166 C1151 0.961 . S
H1167 C1151 0.961 . S
H1168 C1152 0.931 . S
H1169 C1157 0.930 1_556 S
H1170 C1158 0.956 . S
H1171 C1158 0.961 . S
H1172 C1158 0.961 . S
H1173 C1159 0.958 . S
H1174 C1159 0.961 . S
H1175 C1159 0.960 . S
C1176 C1177 1.391 . S
C1176 C1178 1.394 . S
C1176 H1192 0.931 . S
C1177 C1176 1.391 . S
C1177 C1181 1.376 . S
C1178 C1176 1.394 . S
C1178 C1179 1.369 . S
C1178 C1182 1.531 1_565 S
C1179 C1178 1.369 . S
C1179 C1180 1.410 . S
C1179 C1187 1.503 1_565 S
C1180 C1179 1.410 . S
C1180 C1181 1.392 . S
C1180 C1183 1.511 . S
C1181 C1177 1.376 . S
C1181 C1180 1.392 . S
C1181 H1193 0.929 . S
C1182 C1178 1.531 1_545 S
C1182 H1194 0.960 . S
C1182 H1195 0.962 . S
C1182 H1196 0.960 . S
C1183 C1180 1.511 . S
C1183 H1197 0.961 . S
C1183 H1198 0.961 . S
C1183 H1199 0.961 . S
C1184 C1185 1.370 . S
C1184 C1186 1.363 . S
C1184 H1200 0.931 . S
C1185 C1184 1.370 . S
C1185 C1189 1.408 . S
C1186 C1184 1.363 . S
C1186 C1187 1.370 . S
C1186 C1190 1.524 1_545 S
C1187 C1179 1.503 1_545 S
C1187 C1186 1.370 . S
C1187 C1188 1.403 . S
C1188 C1187 1.403 . S
C1188 C1189 1.404 . S
C1188 C1191 1.539 . S
C1189 C1185 1.408 . S
C1189 C1188 1.404 . S
C1189 H1201 0.930 . S
C1190 C1186 1.524 1_565 S
C1190 H1202 0.956 . S
C1190 H1203 0.961 . S
C1190 H1204 0.961 . S
C1191 C1188 1.539 . S
C1191 H1205 0.958 . S
C1191 H1206 0.961 . S
C1191 H1207 0.960 . S
H1192 C1176 0.931 . S
H1193 C1181 0.929 . S
H1194 C1182 0.960 . S
H1195 C1182 0.962 . S
H1196 C1182 0.960 . S
H1197 C1183 0.961 . S
H1198 C1183 0.961 . S
H1199 C1183 0.961 . S
H1200 C1184 0.931 . S
H1201 C1189 0.930 . S
H1202 C1190 0.956 . S
H1203 C1190 0.961 . S
H1204 C1190 0.961 . S
H1205 C1191 0.958 . S
H1206 C1191 0.961 . S
H1207 C1191 0.960 . S
C1208 C1209 1.391 . S
C1208 C1210 1.394 . S
C1208 H1224 0.931 . S
C1209 C1208 1.391 . S
C1209 C1213 1.376 . S
C1210 C1208 1.394 . S
C1210 C1211 1.369 . S
C1210 C1214 1.531 . S
C1211 C1210 1.369 . S
C1211 C1212 1.410 . S
C1211 C1219 1.503 . S
C1212 C1211 1.410 . S
C1212 C1213 1.392 . S
C1212 C1215 1.511 . S
C1213 C1209 1.376 . S
C1213 C1212 1.392 . S
C1213 H1225 0.929 . S
C1214 C1210 1.531 . S
C1214 H1226 0.960 . S
C1214 H1227 0.962 . S
C1214 H1228 0.960 . S
C1215 C1212 1.511 . S
C1215 H1229 0.961 . S
C1215 H1230 0.961 . S
C1215 H1231 0.961 . S
C1216 C1217 1.370 . S
C1216 C1218 1.363 . S
C1216 H1232 0.931 . S
C1217 C1216 1.370 . S
C1217 C1221 1.408 . S
C1218 C1216 1.363 . S
C1218 C1219 1.370 . S
C1218 C1222 1.524 . S
C1219 C1211 1.503 . S
C1219 C1218 1.370 . S
C1219 C1220 1.403 . S
C1220 C1219 1.403 . S
C1220 C1221 1.404 . S
C1220 C1223 1.539 . S
C1221 C1217 1.408 . S
C1221 C1220 1.404 . S
C1221 H1233 0.930 . S
C1222 C1218 1.524 . S
C1222 H1234 0.956 . S
C1222 H1235 0.961 . S
C1222 H1236 0.961 . S
C1223 C1220 1.539 . S
C1223 H1237 0.958 . S
C1223 H1238 0.961 . S
C1223 H1239 0.960 . S
H1224 C1208 0.931 . S
H1225 C1213 0.929 . S
H1226 C1214 0.960 . S
H1227 C1214 0.962 . S
H1228 C1214 0.960 . S
H1229 C1215 0.961 . S
H1230 C1215 0.961 . S
H1231 C1215 0.961 . S
H1232 C1216 0.931 . S
H1233 C1221 0.930 . S
H1234 C1222 0.956 . S
H1235 C1222 0.961 . S
H1236 C1222 0.961 . S
H1237 C1223 0.958 . S
H1238 C1223 0.961 . S
H1239 C1223 0.960 . S
C1240 C1241 1.391 . S
C1240 C1242 1.394 . S
C1240 H1256 0.931 . S
C1241 C1240 1.391 . S
C1241 C1245 1.376 . S
C1242 C1240 1.394 . S
C1242 C1243 1.369 . S
C1242 C1246 1.531 1_655 S
C1243 C1242 1.369 . S
C1243 C1244 1.410 . S
C1243 C1251 1.503 1_655 S
C1244 C1243 1.410 . S
C1244 C1245 1.392 . S
C1244 C1247 1.511 . S
C1245 C1241 1.376 . S
C1245 C1244 1.392 . S
C1245 H1257 0.929 . S
C1246 C1242 1.531 1_455 S
C1246 H1258 0.960 . S
C1246 H1259 0.962 . S
C1246 H1260 0.960 . S
C1247 C1244 1.511 . S
C1247 H1261 0.961 . S
C1247 H1262 0.961 . S
C1247 H1263 0.961 . S
C1248 C1249 1.370 . S
C1248 C1250 1.363 . S
C1248 H1264 0.931 . S
C1249 C1248 1.370 . S
C1249 C1253 1.408 . S
C1250 C1248 1.363 . S
C1250 C1251 1.370 . S
C1250 C1254 1.524 1_455 S
C1251 C1243 1.503 1_455 S
C1251 C1250 1.370 . S
C1251 C1252 1.403 . S
C1252 C1251 1.403 . S
C1252 C1253 1.404 . S
C1252 C1255 1.539 . S
C1253 C1249 1.408 . S
C1253 C1252 1.404 . S
C1253 H1265 0.930 . S
C1254 C1250 1.524 1_655 S
C1254 H1266 0.956 . S
C1254 H1267 0.961 . S
C1254 H1268 0.961 1_655 S
C1255 C1252 1.539 . S
C1255 H1269 0.958 . S
C1255 H1270 0.961 . S
C1255 H1271 0.960 . S
H1256 C1240 0.931 . S
H1257 C1245 0.929 . S
H1258 C1246 0.960 . S
H1259 C1246 0.962 . S
H1260 C1246 0.960 . S
H1261 C1247 0.961 . S
H1262 C1247 0.961 . S
H1263 C1247 0.961 . S
H1264 C1248 0.931 . S
H1265 C1253 0.930 . S
H1266 C1254 0.956 . S
H1267 C1254 0.961 . S
H1268 C1254 0.961 1_455 S
H1269 C1255 0.958 . S
H1270 C1255 0.961 . S
H1271 C1255 0.960 . S
C1272 C1273 1.391 . S
C1272 C1274 1.394 . S
C1272 H1288 0.931 . S
C1273 C1272 1.391 . S
C1273 C1277 1.376 . S
C1274 C1272 1.394 . S
C1274 C1275 1.369 . S
C1274 C1278 1.531 . S
C1275 C1274 1.369 . S
C1275 C1276 1.410 . S
C1275 C1283 1.503 1_545 S
C1276 C1275 1.410 . S
C1276 C1277 1.392 . S
C1276 C1279 1.533 . S
C1277 C1273 1.376 . S
C1277 C1276 1.392 . S
C1277 H1289 0.929 . S
C1278 C1274 1.531 . S
C1278 H1290 0.960 . S
C1278 H1291 0.962 . S
C1278 H1292 0.960 . S
C1279 C1276 1.533 . S
C1279 H1293 0.957 1_545 S
C1279 H1294 0.945 1_545 S
C1279 H1295 0.960 . S
C1280 C1281 1.370 . S
C1280 C1282 1.363 . S
C1280 H1296 0.931 . S
C1281 C1280 1.370 . S
C1281 C1285 1.408 . S
C1282 C1280 1.363 . S
C1282 C1283 1.370 . S
C1282 C1286 1.524 . S
C1283 C1275 1.503 1_565 S
C1283 C1282 1.370 . S
C1283 C1284 1.403 . S
C1284 C1283 1.403 . S
C1284 C1285 1.404 . S
C1284 C1287 1.539 1_565 S
C1285 C1281 1.408 . S
C1285 C1284 1.404 . S
C1285 H1297 0.930 . S
C1286 C1282 1.524 . S
C1286 H1298 0.956 . S
C1286 H1299 0.961 . S
C1286 H1300 0.961 . S
C1287 C1284 1.539 1_545 S
C1287 H1301 0.958 . S
C1287 H1302 0.961 . S
C1287 H1303 0.960 . S
H1288 C1272 0.931 . S
H1289 C1277 0.929 . S
H1290 C1278 0.960 . S
H1291 C1278 0.962 . S
H1292 C1278 0.960 . S
H1293 C1279 0.957 1_565 S
H1294 C1279 0.945 1_565 S
H1295 C1279 0.960 . S
H1296 C1280 0.931 . S
H1297 C1285 0.930 . S
H1298 C1286 0.956 . S
H1299 C1286 0.961 . S
H1300 C1286 0.961 . S
H1301 C1287 0.958 . S
H1302 C1287 0.961 . S
H1303 C1287 0.960 . S
C1304 C1305 1.391 . S
C1304 C1306 1.394 . S
C1304 H1320 0.931 . S
C1305 C1304 1.391 . S
C1305 C1309 1.376 . S
C1306 C1304 1.394 . S
C1306 C1307 1.369 . S
C1306 C1310 1.531 . S
C1307 C1306 1.369 . S
C1307 C1308 1.410 . S
C1307 C1315 1.503 . S
C1308 C1307 1.410 . S
C1308 C1309 1.392 . S
C1308 C1311 1.511 . S
C1309 C1305 1.376 . S
C1309 C1308 1.392 . S
C1309 H1321 0.929 . S
C1310 C1306 1.531 . S
C1310 H1322 0.960 . S
C1310 H1323 0.962 . S
C1310 H1324 0.960 . S
C1311 C1308 1.511 . S
C1311 H1325 0.961 . S
C1311 H1326 0.961 . S
C1311 H1327 0.961 . S
C1312 C1313 1.370 . S
C1312 C1314 1.363 . S
C1312 H1328 0.931 . S
C1313 C1312 1.370 . S
C1313 C1317 1.408 . S
C1314 C1312 1.363 . S
C1314 C1315 1.370 . S
C1314 C1318 1.524 . S
C1315 C1307 1.503 . S
C1315 C1314 1.370 . S
C1315 C1316 1.403 . S
C1316 C1315 1.403 . S
C1316 C1317 1.404 . S
C1316 C1319 1.539 . S
C1317 C1313 1.408 . S
C1317 C1316 1.404 . S
C1317 H1329 0.930 . S
C1318 C1314 1.524 . S
C1318 H1330 0.956 . S
C1318 H1331 0.961 . S
C1318 H1332 0.961 . S
C1319 C1316 1.539 . S
C1319 H1333 0.958 . S
C1319 H1334 0.961 . S
C1319 H1335 0.960 . S
H1320 C1304 0.931 . S
H1321 C1309 0.929 . S
H1322 C1310 0.960 . S
H1323 C1310 0.962 . S
H1324 C1310 0.960 . S
H1325 C1311 0.961 . S
H1326 C1311 0.961 . S
H1327 C1311 0.961 . S
H1328 C1312 0.931 . S
H1329 C1317 0.930 . S
H1330 C1318 0.956 . S
H1331 C1318 0.961 . S
H1332 C1318 0.961 . S
H1333 C1319 0.958 . S
H1334 C1319 0.961 . S
H1335 C1319 0.960 . S
C1336 C1337 1.391 . S
C1336 C1338 1.394 . S
C1336 H1352 0.931 . S
C1337 C1336 1.391 . S
C1337 C1341 1.376 . S
C1338 C1336 1.394 . S
C1338 C1339 1.369 . S
C1338 C1342 1.531 1_455 S
C1339 C1338 1.369 . S
C1339 C1340 1.410 . S
C1339 C1347 1.503 1_455 S
C1340 C1339 1.410 . S
C1340 C1341 1.392 . S
C1340 C1343 1.511 . S
C1341 C1337 1.376 . S
C1341 C1340 1.392 . S
C1341 H1353 0.929 . S
C1342 C1338 1.531 1_655 S
C1342 H1354 0.960 . S
C1342 H1355 0.962 . S
C1342 H1356 0.960 . S
C1343 C1340 1.511 . S
C1343 H1357 0.961 . S
C1343 H1358 0.961 . S
C1343 H1359 0.961 . S
C1344 C1345 1.370 . S
C1344 C1346 1.363 . S
C1344 H1360 0.931 . S
C1345 C1344 1.370 . S
C1345 C1349 1.408 . S
C1346 C1344 1.363 . S
C1346 C1347 1.370 . S
C1346 C1350 1.524 1_655 S
C1347 C1339 1.503 1_655 S
C1347 C1346 1.370 . S
C1347 C1348 1.403 . S
C1348 C1347 1.403 . S
C1348 C1349 1.404 . S
C1348 C1351 1.539 . S
C1349 C1345 1.408 . S
C1349 C1348 1.404 . S
C1349 H1361 0.930 . S
C1350 C1346 1.524 1_455 S
C1350 H1362 0.956 . S
C1350 H1363 0.961 . S
C1350 H1364 0.961 . S
C1351 C1348 1.539 . S
C1351 H1365 0.958 . S
C1351 H1366 0.961 . S
C1351 H1367 0.960 . S
H1352 C1336 0.931 . S
H1353 C1341 0.929 . S
H1354 C1342 0.960 . S
H1355 C1342 0.962 . S
H1356 C1342 0.960 . S
H1357 C1343 0.961 . S
H1358 C1343 0.961 . S
H1359 C1343 0.961 . S
H1360 C1344 0.931 . S
H1361 C1349 0.930 . S
H1362 C1350 0.956 . S
H1363 C1350 0.961 . S
H1364 C1350 0.961 . S
H1365 C1351 0.958 . S
H1366 C1351 0.961 . S
H1367 C1351 0.960 . S
C1368 C1369 1.391 . S
C1368 C1370 1.394 . S
C1368 H1384 0.931 . S
C1369 C1368 1.391 . S
C1369 C1373 1.376 . S
C1370 C1368 1.394 . S
C1370 C1371 1.369 . S
C1370 C1374 1.531 . S
C1371 C1370 1.369 . S
C1371 C1372 1.410 . S
C1371 C1379 1.503 . S
C1372 C1371 1.410 . S
C1372 C1373 1.392 . S
C1372 C1375 1.511 . S
C1373 C1369 1.376 . S
C1373 C1372 1.392 . S
C1373 H1385 0.929 . S
C1374 C1370 1.531 . S
C1374 H1386 0.960 . S
C1374 H1387 0.962 . S
C1374 H1388 0.960 . S
C1375 C1372 1.511 . S
C1375 H1389 0.961 . S
C1375 H1390 0.961 . S
C1375 H1391 0.961 . S
C1376 C1377 1.370 . S
C1376 C1378 1.363 . S
C1376 H1392 0.931 . S
C1377 C1376 1.370 . S
C1377 C1381 1.408 . S
C1378 C1376 1.363 . S
C1378 C1379 1.370 . S
C1378 C1382 1.524 . S
C1379 C1371 1.503 . S
C1379 C1378 1.370 . S
C1379 C1380 1.403 . S
C1380 C1379 1.403 . S
C1380 C1381 1.404 . S
C1380 C1383 1.539 . S
C1381 C1377 1.408 . S
C1381 C1380 1.404 . S
C1381 H1393 0.930 . S
C1382 C1378 1.524 . S
C1382 H1394 0.956 . S
C1382 H1395 0.961 . S
C1382 H1396 0.961 . S
C1383 C1380 1.539 . S
C1383 H1397 0.958 . S
C1383 H1398 0.961 . S
C1383 H1399 0.960 . S
H1384 C1368 0.931 . S
H1385 C1373 0.929 . S
H1386 C1374 0.960 . S
H1387 C1374 0.962 . S
H1388 C1374 0.960 . S
H1389 C1375 0.961 . S
H1390 C1375 0.961 . S
H1391 C1375 0.961 . S
H1392 C1376 0.931 . S
H1393 C1381 0.930 . S
H1394 C1382 0.956 . S
H1395 C1382 0.961 . S
H1396 C1382 0.961 . S
H1397 C1383 0.958 . S
H1398 C1383 0.961 . S
H1399 C1383 0.960 . S
C1400 C1401 1.391 . S
C1400 C1402 1.394 . S
C1400 H1416 0.931 . S
C1401 C1400 1.391 . S
C1401 C1405 1.376 . S
C1402 C1400 1.394 . S
C1402 C1403 1.369 . S
C1402 C1406 1.531 . S
C1403 C1402 1.369 . S
C1403 C1404 1.410 . S
C1403 C1411 1.503 . S
C1404 C1403 1.410 . S
C1404 C1405 1.392 . S
C1404 C1407 1.511 . S
C1405 C1401 1.376 . S
C1405 C1404 1.392 . S
C1405 H1417 0.929 . S
C1406 C1402 1.531 . S
C1406 H1418 0.960 . S
C1406 H1419 0.962 . S
C1406 H1420 0.960 . S
C1407 C1404 1.511 . S
C1407 H1421 0.961 . S
C1407 H1422 0.961 . S
C1407 H1423 0.961 . S
C1408 C1409 1.370 . S
C1408 C1410 1.363 . S
C1408 H1424 0.931 . S
C1409 C1408 1.370 . S
C1409 C1413 1.408 . S
C1410 C1408 1.363 . S
C1410 C1411 1.370 . S
C1410 C1414 1.524 . S
C1411 C1403 1.503 . S
C1411 C1410 1.370 . S
C1411 C1412 1.403 . S
C1412 C1411 1.403 . S
C1412 C1413 1.404 . S
C1412 C1415 1.539 . S
C1413 C1409 1.408 . S
C1413 C1412 1.404 . S
C1413 H1425 0.930 . S
C1414 C1410 1.524 . S
C1414 H1426 0.956 . S
C1414 H1427 0.961 . S
C1414 H1428 0.961 . S
C1415 C1412 1.539 . S
C1415 H1429 0.958 . S
C1415 H1430 0.961 . S
C1415 H1431 0.960 . S
H1416 C1400 0.931 . S
H1417 C1405 0.929 . S
H1418 C1406 0.960 . S
H1419 C1406 0.962 . S
H1420 C1406 0.960 . S
H1421 C1407 0.961 . S
H1422 C1407 0.961 . S
H1423 C1407 0.961 . S
H1424 C1408 0.931 . S
H1425 C1413 0.930 . S
H1426 C1414 0.956 . S
H1427 C1414 0.961 . S
H1428 C1414 0.961 . S
H1429 C1415 0.958 . S
H1430 C1415 0.961 . S
H1431 C1415 0.960 . S
C1432 C1433 1.391 . S
C1432 C1434 1.394 . S
C1432 H1448 0.931 . S
C1433 C1432 1.391 . S
C1433 C1437 1.376 . S
C1434 C1432 1.394 . S
C1434 C1435 1.369 . S
C1434 C1438 1.531 . S
C1435 C1434 1.369 . S
C1435 C1436 1.410 . S
C1435 C1443 1.503 . S
C1436 C1435 1.410 . S
C1436 C1437 1.392 . S
C1436 C1439 1.511 . S
C1437 C1433 1.376 . S
C1437 C1436 1.392 . S
C1437 H1449 0.929 . S
C1438 C1434 1.531 . S
C1438 H1450 0.960 . S
C1438 H1451 0.962 . S
C1438 H1452 0.960 . S
C1439 C1436 1.511 . S
C1439 H1453 0.961 . S
C1439 H1454 0.961 . S
C1439 H1455 0.961 . S
C1440 C1441 1.370 . S
C1440 C1442 1.363 . S
C1440 H1456 0.931 . S
C1441 C1440 1.370 . S
C1441 C1445 1.408 . S
C1442 C1440 1.363 . S
C1442 C1443 1.370 . S
C1442 C1446 1.524 . S
C1443 C1435 1.503 . S
C1443 C1442 1.370 . S
C1443 C1444 1.403 . S
C1444 C1443 1.403 . S
C1444 C1445 1.404 . S
C1444 C1447 1.539 . S
C1445 C1441 1.408 . S
C1445 C1444 1.404 . S
C1445 H1457 0.930 . S
C1446 C1442 1.524 . S
C1446 H1458 0.956 . S
C1446 H1459 0.961 . S
C1446 H1460 0.961 . S
C1447 C1444 1.539 . S
C1447 H1461 0.958 . S
C1447 H1462 0.961 . S
C1447 H1463 0.960 . S
H1448 C1432 0.931 . S
H1449 C1437 0.929 . S
H1450 C1438 0.960 . S
H1451 C1438 0.962 . S
H1452 C1438 0.960 . S
H1453 C1439 0.961 . S
H1454 C1439 0.961 . S
H1455 C1439 0.961 . S
H1456 C1440 0.931 . S
H1457 C1445 0.930 . S
H1458 C1446 0.956 . S
H1459 C1446 0.961 . S
H1460 C1446 0.961 . S
H1461 C1447 0.958 . S
H1462 C1447 0.961 . S
H1463 C1447 0.960 . S
C1464 C1465 1.391 . S
C1464 C1466 1.394 . S
C1464 H1480 0.931 . S
C1465 C1464 1.391 . S
C1465 C1469 1.376 . S
C1466 C1464 1.394 . S
C1466 C1467 1.369 . S
C1466 C1470 1.531 . S
C1467 C1466 1.369 . S
C1467 C1468 1.410 . S
C1467 C1475 1.503 . S
C1468 C1467 1.410 . S
C1468 C1469 1.392 . S
C1468 C1471 1.511 . S
C1469 C1465 1.376 . S
C1469 C1468 1.392 . S
C1469 H1481 0.929 . S
C1470 C1466 1.531 . S
C1470 H1482 0.960 . S
C1470 H1483 0.962 . S
C1470 H1484 0.960 . S
C1471 C1468 1.511 . S
C1471 H1485 0.961 . S
C1471 H1486 0.961 . S
C1471 H1487 0.961 . S
C1472 C1473 1.370 . S
C1472 C1474 1.363 . S
C1472 H1488 0.931 . S
C1473 C1472 1.370 . S
C1473 C1477 1.408 . S
C1474 C1472 1.363 . S
C1474 C1475 1.370 . S
C1474 C1478 1.524 . S
C1475 C1467 1.503 . S
C1475 C1474 1.370 . S
C1475 C1476 1.403 . S
C1476 C1475 1.403 . S
C1476 C1477 1.404 . S
C1476 C1479 1.539 . S
C1477 C1473 1.408 . S
C1477 C1476 1.404 . S
C1477 H1489 0.930 . S
C1478 C1474 1.524 . S
C1478 H1490 0.956 . S
C1478 H1491 0.961 . S
C1478 H1492 0.961 . S
C1479 C1476 1.539 . S
C1479 H1493 0.958 . S
C1479 H1494 0.961 . S
C1479 H1495 0.960 . S
H1480 C1464 0.931 . S
H1481 C1469 0.929 . S
H1482 C1470 0.960 . S
H1483 C1470 0.962 . S
H1484 C1470 0.960 . S
H1485 C1471 0.961 . S
H1486 C1471 0.961 . S
H1487 C1471 0.961 . S
H1488 C1472 0.931 . S
H1489 C1477 0.930 . S
H1490 C1478 0.956 . S
H1491 C1478 0.961 . S
H1492 C1478 0.961 . S
H1493 C1479 0.958 . S
H1494 C1479 0.961 . S
H1495 C1479 0.960 . S
C1496 C1497 1.391 . S
C1496 C1498 1.394 . S
C1496 H1512 0.931 . S
C1497 C1496 1.391 . S
C1497 C1501 1.376 . S
C1498 C1496 1.394 . S
C1498 C1499 1.369 . S
C1498 C1502 1.531 . S
C1499 C1498 1.369 . S
C1499 C1500 1.410 . S
C1499 C1507 1.503 . S
C1500 C1499 1.410 . S
C1500 C1501 1.392 . S
C1500 C1503 1.511 . S
C1501 C1497 1.376 . S
C1501 C1500 1.392 . S
C1501 H1513 0.929 . S
C1502 C1498 1.531 . S
C1502 H1514 0.960 . S
C1502 H1515 0.962 . S
C1502 H1516 0.960 . S
C1503 C1500 1.511 . S
C1503 H1517 0.961 . S
C1503 H1518 0.961 . S
C1503 H1519 0.961 . S
C1504 C1505 1.370 . S
C1504 C1506 1.363 . S
C1504 H1520 0.931 . S
C1505 C1504 1.370 . S
C1505 C1509 1.408 . S
C1506 C1504 1.363 . S
C1506 C1507 1.370 . S
C1506 C1510 1.524 . S
C1507 C1499 1.503 . S
C1507 C1506 1.370 . S
C1507 C1508 1.403 . S
C1508 C1507 1.403 . S
C1508 C1509 1.404 . S
C1508 C1511 1.539 . S
C1509 C1505 1.408 . S
C1509 C1508 1.404 . S
C1509 H1521 0.930 . S
C1510 C1506 1.524 . S
C1510 H1522 0.956 . S
C1510 H1523 0.961 . S
C1510 H1524 0.961 . S
C1511 C1508 1.539 . S
C1511 H1525 0.958 . S
C1511 H1526 0.961 . S
C1511 H1527 0.960 . S
H1512 C1496 0.931 . S
H1513 C1501 0.929 . S
H1514 C1502 0.960 . S
H1515 C1502 0.962 . S
H1516 C1502 0.960 . S
H1517 C1503 0.961 . S
H1518 C1503 0.961 . S
H1519 C1503 0.961 . S
H1520 C1504 0.931 . S
H1521 C1509 0.930 . S
H1522 C1510 0.956 . S
H1523 C1510 0.961 . S
H1524 C1510 0.961 . S
H1525 C1511 0.958 . S
H1526 C1511 0.961 . S
H1527 C1511 0.960 . S
C1528 C1529 1.391 . S
C1528 C1530 1.394 . S
C1528 H1544 0.931 . S
C1529 C1528 1.391 . S
C1529 C1533 1.376 . S
C1530 C1528 1.394 . S
C1530 C1531 1.369 . S
C1530 C1534 1.531 . S
C1531 C1530 1.369 . S
C1531 C1532 1.410 . S
C1531 C1539 1.503 . S
C1532 C1531 1.410 . S
C1532 C1533 1.392 . S
C1532 C1535 1.511 . S
C1533 C1529 1.376 . S
C1533 C1532 1.392 . S
C1533 H1545 0.929 . S
C1534 C1530 1.531 . S
C1534 H1546 0.960 . S
C1534 H1547 0.962 . S
C1534 H1548 0.960 . S
C1535 C1532 1.511 . S
C1535 H1549 0.961 . S
C1535 H1550 0.961 . S
C1535 H1551 0.961 . S
C1536 C1537 1.370 . S
C1536 C1538 1.363 . S
C1536 H1552 0.931 . S
C1537 C1536 1.370 . S
C1537 C1541 1.408 . S
C1538 C1536 1.363 . S
C1538 C1539 1.370 . S
C1538 C1542 1.524 . S
C1539 C1531 1.503 . S
C1539 C1538 1.370 . S
C1539 C1540 1.403 . S
C1540 C1539 1.403 . S
C1540 C1541 1.404 . S
C1540 C1543 1.539 . S
C1541 C1537 1.408 . S
C1541 C1540 1.404 . S
C1541 H1553 0.930 . S
C1542 C1538 1.524 . S
C1542 H1554 0.956 . S
C1542 H1555 0.961 . S
C1542 H1556 0.961 . S
C1543 C1540 1.539 . S
C1543 H1557 0.958 . S
C1543 H1558 0.961 . S
C1543 H1559 0.960 . S
H1544 C1528 0.931 . S
H1545 C1533 0.929 . S
H1546 C1534 0.960 . S
H1547 C1534 0.962 . S
H1548 C1534 0.960 . S
H1549 C1535 0.961 . S
H1550 C1535 0.961 . S
H1551 C1535 0.961 . S
H1552 C1536 0.931 . S
H1553 C1541 0.930 . S
H1554 C1542 0.956 . S
H1555 C1542 0.961 . S
H1556 C1542 0.961 . S
H1557 C1543 0.958 . S
H1558 C1543 0.961 . S
H1559 C1543 0.960 . S
C409 C4 1.291 . S
C417 C276 1.308 . S
C441 C38 1.311 . S
C449 C310 1.300 . S
C473 C72 1.310 . S
C481 C344 1.300 . S
C505 C378 1.317 . S
C513 C106 1.299 . S
C537 C140 1.303 . S
C545 C208 1.303 . S
C569 C242 1.297 . S
C577 C174 1.305 . S
C601 C340 1.965 . S
C609 C0 1.966 . S
C633 C374 1.965 . S
C641 C34 1.966 . S
C665 C68 1.972 . S
C673 C204 1.959 . S
C697 C238 1.974 . S
C705 C102 1.963 . S
C729 C272 1.973 . S
C737 C136 1.965 . S
C761 C170 1.936 . S
C769 C306 1.957 . S
C793 C246 1.910 . S
C801 C8 1.935 . S
C825 C280 1.951 . S
C833 C42 1.933 . S
C857 C314 1.924 . S
C865 C76 1.928 . S
C889 C110 1.930 . S
C897 C348 1.946 . S
C921 C144 1.919 . S
C929 C382 1.929 . S
C953 C178 1.954 . S
C961 C212 1.936 . S
C985 C13 2.428 1_565 S
C993 C115 2.466 1_545 S
C1017 C47 2.453 . S
C1025 C149 2.457 . S
C1049 C81 2.490 1_455 S
C1057 C183 2.440 1_655 S
C1081 C319 2.452 1_655 S
C1089 C217 2.457 1_455 S
C1113 C251 2.426 1_545 S
C1121 C353 2.465 1_565 S
C1145 C387 2.492 . S
C1153 C285 2.440 . S
C1177 C267 1.745 . S
C1185 C29 1.775 . S
C1209 C301 1.752 . S
C1217 C63 1.780 . S
C1241 C97 1.744 . S
C1249 C335 1.769 . S
C1273 C369 1.800 . S
C1281 C131 1.779 . S
C1305 C403 1.746 . S
C1313 C165 1.768 . S
C1337 C199 1.747 . S
C1345 C233 1.777 . S
C1369 C17 1.787 . S
C1377 C357 1.822 . S
C1401 C51 1.819 . S
C1409 C391 1.809 . S
C1433 C85 1.821 . S
C1441 C221 1.834 . S
C1465 C119 1.807 . S
C1473 C255 1.833 . S
C1497 C153 1.812 . S
C1505 C289 1.809 . S
C1529 C323 1.787 . S
C1537 C187 1.822 . S
