# Generated by pormake.
# Topology uoq, (4)-cn, num edge types: 1
# Building blocks:
#     Node 0, Type 0, BuildingBlock: TATPOV_clean_sbu_0, # of connection points: 4
#     Node 1, Type 0, BuildingBlock: TATPOV_clean_sbu_0, # of connection points: 4
#     Node 2, Type 0, BuildingBlock: TATPOV_clean_sbu_0, # of connection points: 4
#     Node 3, Type 0, BuildingBlock: TATPOV_clean_sbu_0, # of connection points: 4
#     Node 4, Type 0, BuildingBlock: TATPOV_clean_sbu_0, # of connection points: 4
#     Node 5, Type 0, BuildingBlock: TATPOV_clean_sbu_0, # of connection points: 4
#     Node 6, Type 0, BuildingBlock: TATPOV_clean_sbu_0, # of connection points: 4
#     Node 7, Type 0, BuildingBlock: TATPOV_clean_sbu_0, # of connection points: 4
#     Node 8, Type 0, BuildingBlock: TATPOV_clean_sbu_0, # of connection points: 4
#     Node 9, Type 0, BuildingBlock: TATPOV_clean_sbu_0, # of connection points: 4
#     Node 10, Type 0, BuildingBlock: TATPOV_clean_sbu_0, # of connection points: 4
#     Node 11, Type 0, BuildingBlock: TATPOV_clean_sbu_0, # of connection points: 4
#     Edge 12, Type (0, 0), BuildingBlock: OJICUG_clean_linker_0, # of connection points: 2
#     Edge 13, Type (0, 0), BuildingBlock: OJICUG_clean_linker_0, # of connection points: 2
#     Edge 14, Type (0, 0), BuildingBlock: OJICUG_clean_linker_0, # of connection points: 2
#     Edge 15, Type (0, 0), BuildingBlock: OJICUG_clean_linker_0, # of connection points: 2
#     Edge 16, Type (0, 0), BuildingBlock: OJICUG_clean_linker_0, # of connection points: 2
#     Edge 17, Type (0, 0), BuildingBlock: OJICUG_clean_linker_0, # of connection points: 2
#     Edge 18, Type (0, 0), BuildingBlock: OJICUG_clean_linker_0, # of connection points: 2
#     Edge 19, Type (0, 0), BuildingBlock: OJICUG_clean_linker_0, # of connection points: 2
#     Edge 20, Type (0, 0), BuildingBlock: OJICUG_clean_linker_0, # of connection points: 2
#     Edge 21, Type (0, 0), BuildingBlock: OJICUG_clean_linker_0, # of connection points: 2
#     Edge 22, Type (0, 0), BuildingBlock: OJICUG_clean_linker_0, # of connection points: 2
#     Edge 23, Type (0, 0), BuildingBlock: OJICUG_clean_linker_0, # of connection points: 2
#     Edge 24, Type (0, 0), BuildingBlock: OJICUG_clean_linker_0, # of connection points: 2
#     Edge 25, Type (0, 0), BuildingBlock: OJICUG_clean_linker_0, # of connection points: 2
#     Edge 26, Type (0, 0), BuildingBlock: OJICUG_clean_linker_0, # of connection points: 2
#     Edge 27, Type (0, 0), BuildingBlock: OJICUG_clean_linker_0, # of connection points: 2
#     Edge 28, Type (0, 0), BuildingBlock: OJICUG_clean_linker_0, # of connection points: 2
#     Edge 29, Type (0, 0), BuildingBlock: OJICUG_clean_linker_0, # of connection points: 2
#     Edge 30, Type (0, 0), BuildingBlock: OJICUG_clean_linker_0, # of connection points: 2
#     Edge 31, Type (0, 0), BuildingBlock: OJICUG_clean_linker_0, # of connection points: 2
#     Edge 32, Type (0, 0), BuildingBlock: OJICUG_clean_linker_0, # of connection points: 2
#     Edge 33, Type (0, 0), BuildingBlock: OJICUG_clean_linker_0, # of connection points: 2
#     Edge 34, Type (0, 0), BuildingBlock: OJICUG_clean_linker_0, # of connection points: 2
#     Edge 35, Type (0, 0), BuildingBlock: OJICUG_clean_linker_0, # of connection points: 2
# Relax obj value: 0.070
# Max RMSD: 0.061
# Mean RMSD: 0.061
data_MOF--net-uoq--node1-TATPOV_clean_sbu_0--edge1-OJICUG_clean_linker_0
_symmetry_space_group_name_H-M    P1
_symmetry_Int_Tables_number       1
_symmetry_cell_setting            triclinic
loop_
_symmetry_equiv_pos_as_xyz
'x, y, z'
_cell_length_a     44.22395
_cell_length_b     44.565923
_cell_length_c     16.284878
_cell_angle_alpha  90.566653
_cell_angle_beta   89.445411
_cell_angle_gamma 120.59226
loop_
_atom_site_label
_atom_site_type_symbol
_atom_site_fract_x
_atom_site_fract_y
_atom_site_fract_z
_atom_type_partial_charge
Zn0 Zn 0.27592 0.42846 0.47246 0.0
Zn1 Zn 0.25824 0.42045 0.31931 0.0
O2 O 0.28911 0.39722 0.32031 0.0
O3 O 0.3071 0.4101 0.44893 0.0
O4 O 0.23631 0.41863 0.20626 0.0
O5 O 0.22941 0.39425 0.51497 0.0
O6 O 0.21308 0.39149 0.38695 0.0
C7 C 0.30709 0.39638 0.38068 0.0
C8 C 0.30038 0.49329 0.40676 0.0
O9 O 0.28879 0.47366 0.34326 0.0
O10 O 0.2951 0.47974 0.47712 0.0
C11 C 0.2181 0.43355 0.20915 0.0
O12 O 0.217 0.44809 0.27887 0.0
C13 C 0.2056 0.38186 0.46139 0.0
Zn14 Zn 0.82528 0.30989 0.76951 0.0
Zn15 Zn 0.81461 0.28795 0.63025 0.0
O16 O 0.86914 0.32031 0.63586 0.0
O17 O 0.87048 0.35216 0.74155 0.0
O18 O 0.79813 0.26594 0.51481 0.0
O19 O 0.8279 0.27068 0.81811 0.0
O20 O 0.80112 0.24567 0.70326 0.0
C21 C 0.88624 0.3464 0.6841 0.0
C22 C 0.77533 0.32098 0.71614 0.0
O23 O 0.78784 0.31486 0.65119 0.0
O24 O 0.78285 0.31394 0.78519 0.0
C25 C 0.76798 0.23819 0.50918 0.0
O26 O 0.74948 0.22507 0.57662 0.0
C27 C 0.81157 0.24355 0.77454 0.0
Zn28 Zn 0.49727 0.83974 0.14465 0.0
Zn29 Zn 0.50583 0.82609 0.99441 0.0
O30 O 0.52886 0.88028 0.99385 0.0
O31 O 0.51464 0.88876 0.11882 0.0
O32 O 0.5101 0.80796 0.87946 0.0
O33 O 0.5318 0.83 0.19233 0.0
O34 O 0.5341 0.81181 0.06783 0.0
C35 C 0.52922 0.90072 1.05027 0.0
C36 C 0.43224 0.79391 0.07868 0.0
O37 O 0.45183 0.80098 1.01507 0.0
O38 O 0.44605 0.80533 0.14813 0.0
C39 C 0.50689 0.7778 0.87417 0.0
O40 O 0.5013 0.75985 0.94184 0.0
C41 C 0.54366 0.81651 0.14279 0.0
Zn42 Zn 0.63656 0.51026 0.51526 0.0
Zn43 Zn 0.66059 0.52174 0.36248 0.0
O44 O 0.629 0.54382 0.3615 0.0
O45 O 0.60688 0.52986 0.48713 0.0
O46 O 0.68608 0.52776 0.2515 0.0
O47 O 0.68215 0.54328 0.56411 0.0
O48 O 0.70287 0.54982 0.43822 0.0
C49 C 0.60912 0.54413 0.41889 0.0
C50 C 0.61616 0.4471 0.43766 0.0
O51 O 0.63066 0.46815 0.37793 0.0
O52 O 0.61751 0.45895 0.50926 0.0
C53 C 0.67422 0.50498 0.19421 0.0
O54 O 0.64241 0.47781 0.20168 0.0
C55 C 0.70763 0.5575 0.51439 0.0
Zn56 Zn 0.09947 0.63859 0.81861 0.0
Zn57 Zn 0.10856 0.66172 0.67551 0.0
O58 O 0.05419 0.6293 0.68345 0.0
O59 O 0.05194 0.59927 0.79265 0.0
O60 O 0.12424 0.68433 0.56114 0.0
O61 O 0.10215 0.68028 0.87067 0.0
O62 O 0.12264 0.70388 0.75026 0.0
C63 C 0.03669 0.60439 0.73396 0.0
C64 C 0.14756 0.62621 0.74866 0.0
O65 O 0.13566 0.63506 0.68809 0.0
O66 O 0.13968 0.63038 0.82094 0.0
C67 C 0.15455 0.7119 0.55609 0.0
O68 O 0.17333 0.72412 0.6232 0.0
C69 C 0.11559 0.70673 0.82492 0.0
Zn70 Zn 0.4278 0.10752 0.11352 0.0
Zn71 Zn 0.41285 0.11684 0.97236 0.0
O72 O 0.38924 0.06271 0.97735 0.0
O73 O 0.41804 0.06026 0.08463 0.0
O74 O 0.40557 0.13348 0.86004 0.0
O75 O 0.38987 0.11088 0.17035 0.0
O76 O 0.38667 0.13177 0.05151 0.0
C77 C 0.39689 0.04527 1.02626 0.0
C78 C 0.48896 0.15406 1.04231 0.0
O79 O 0.46741 0.14241 0.9824 0.0
O80 O 0.4773 0.14679 0.11492 0.0
C81 C 0.4086 0.16359 0.85748 0.0
O82 O 0.41538 0.18169 0.92593 0.0
C83 C 0.37738 0.12514 0.12654 0.0
Zn84 Zn 0.49329 0.63722 0.29274 0.0
Zn85 Zn 0.50369 0.66171 0.44207 0.0
O86 O 0.52768 0.6318 0.44259 0.0
O87 O 0.51253 0.60735 0.31964 0.0
O88 O 0.50885 0.68521 0.55587 0.0
O89 O 0.52651 0.6816 0.24114 0.0
O90 O 0.53128 0.7036 0.365 0.0
C91 C 0.52812 0.61146 0.38702 0.0
C92 C 0.42903 0.61737 0.36506 0.0
O93 O 0.44946 0.63135 0.42639 0.0
O94 O 0.44189 0.61889 0.29454 0.0
C95 C 0.50636 0.71255 0.56088 0.0
O96 O 0.50109 0.72502 0.49323 0.0
C97 C 0.53959 0.70757 0.28899 0.0
Zn98 Zn 0.82971 0.50995 0.66797 0.0
Zn99 Zn 0.81458 0.51732 0.80858 0.0
O100 O 0.86894 0.53937 0.81384 0.0
O101 O 0.87413 0.51351 0.70298 0.0
O102 O 0.79309 0.52045 0.91931 0.0
O103 O 0.83257 0.55235 0.62175 0.0
O104 O 0.8035 0.54751 0.73535 0.0
C105 C 0.88752 0.53207 0.76621 0.0
C106 C 0.77808 0.44677 0.71402 0.0
O107 O 0.78832 0.46398 0.78137 0.0
O108 O 0.78824 0.46291 0.64679 0.0
C109 C 0.75975 0.50685 0.91711 0.0
O110 O 0.74353 0.49218 0.84813 0.0
C111 C 0.81503 0.56164 0.66554 0.0
Zn112 Zn 0.28825 0.83496 0.98016 0.0
Zn113 Zn 0.26677 0.82587 0.1246 0.0
O114 O 0.29765 0.88009 0.11771 0.0
O115 O 0.32692 0.88264 1.00485 0.0
O116 O 0.24504 0.8094 0.23995 0.0
O117 O 0.2452 0.83044 0.93177 0.0
O118 O 0.22321 0.80942 0.05315 0.0
C119 C 0.32207 0.89763 0.06539 0.0
C120 C 0.30483 0.78997 1.04461 0.0
O121 O 0.29592 0.80141 0.10704 0.0
O122 O 0.29877 0.79657 0.97342 0.0
C123 C 0.21863 0.77841 0.24495 0.0
O124 O 0.20716 0.75965 0.17743 0.0
C125 C 0.219 0.81573 0.97936 0.0
Zn126 Zn 0.4281 0.30425 0.28271 0.0
Zn127 Zn 0.41297 0.2805 0.43459 0.0
O128 O 0.389 0.31032 0.42761 0.0
O129 O 0.40709 0.33339 0.30445 0.0
O130 O 0.40548 0.25723 0.54815 0.0
O131 O 0.39627 0.25847 0.23312 0.0
O132 O 0.38705 0.23799 0.35883 0.0
C133 C 0.38978 0.3299 0.36945 0.0
C134 C 0.48984 0.32446 0.36738 0.0
O135 O 0.46731 0.31036 0.42522 0.0
O136 O 0.47955 0.32321 0.29461 0.0
C137 C 0.41013 0.23118 0.55167 0.0
O138 O 0.41893 0.2211 0.48406 0.0
C139 C 0.38117 0.23318 0.28208 0.0
Zn140 Zn 0.09461 0.44334 0.63606 0.0
Zn141 Zn 0.10567 0.42778 0.77223 0.0
O142 O 0.05155 0.40747 0.774 0.0
O143 O 0.05018 0.43975 0.67405 0.0
O144 O 0.12433 0.41887 0.87995 0.0
O145 O 0.09056 0.40235 0.57696 0.0
O146 O 0.11542 0.39884 0.68947 0.0
C147 C 0.0347 0.41787 0.73059 0.0
C148 C 0.1463 0.5026 0.69775 0.0
O149 O 0.13414 0.48197 0.75901 0.0
O150 O 0.13743 0.49028 0.62608 0.0
C151 C 0.13766 0.44166 0.93705 0.0
O152 O 0.136 0.47016 0.93116 0.0
C153 C 0.10474 0.38858 0.61645 0.0
Zn154 Zn 0.63504 0.11153 0.92211 0.0
Zn155 Zn 0.65653 0.12469 0.07428 0.0
O156 O 0.62479 0.07051 0.07336 0.0
O157 O 0.60353 0.06201 0.94752 0.0
O158 O 0.67795 0.14256 0.18952 0.0
O159 O 0.68104 0.12354 0.87665 0.0
O160 O 0.70048 0.13998 1.00232 0.0
C161 C 0.60525 0.05003 1.01616 0.0
C162 C 0.61467 0.15547 0.99215 0.0
O163 O 0.62752 0.14881 0.05459 0.0
O164 O 0.61717 0.14452 0.92198 0.0
C165 C 0.70484 0.17325 0.19521 0.0
O166 O 0.71749 0.19166 0.12791 0.0
C167 C 0.70611 0.13629 0.92701 0.0
C168 C 0.3341 0.36602 0.44856 0.0
C169 C 0.32713 0.37828 0.37575 0.0
H170 H 0.35921 0.34099 0.50391 0.0
C171 C 0.34051 0.37414 0.30115 0.0
H172 H 0.3238 0.36859 0.50716 0.0
C173 C 0.36126 0.35878 0.29976 0.0
C174 C 0.36846 0.34676 0.37278 0.0
H175 H 0.3356 0.3834 0.24442 0.0
H176 H 0.37145 0.3561 0.24113 0.0
C177 C 0.35435 0.35019 0.44702 0.0
C178 C 0.94321 0.40109 0.70465 0.0
C179 C 0.92468 0.36514 0.68817 0.0
H180 H -0.00688 0.44615 0.73238 0.0
C181 C 0.94211 0.34627 0.69324 0.0
H182 H 0.92999 0.41594 0.70316 0.0
C183 C -0.0224 0.36316 0.71462 0.0
C184 C -0.00375 0.39923 0.72952 0.0
H185 H 0.928 0.31831 0.68339 0.0
H186 H -0.00919 0.34831 0.71617 0.0
C187 C -0.02109 0.41813 0.72348 0.0
C188 C 0.55914 0.96049 0.1108 0.0
C189 C 0.54858 0.93885 1.04043 0.0
H190 H 0.58573 0.01268 0.15856 0.0
C191 C 0.55705 0.95406 0.96263 0.0
H192 H 0.55327 0.94946 0.1719 0.0
C193 C 0.57525 -0.00973 0.95533 0.0
C194 C 0.58584 0.01189 1.02572 0.0
H195 H 0.54934 0.93805 0.90762 0.0
H196 H 0.58136 0.00132 0.89427 0.0
C197 C 0.57786 -0.00332 0.10351 0.0
C198 C 0.57972 0.56768 0.33217 0.0
C199 C 0.58922 0.56212 0.40966 0.0
H200 H 0.55239 0.58724 0.26464 0.0
C201 C 0.57887 0.57329 0.48027 0.0
H202 H 0.58733 0.55933 0.277 0.0
C203 C 0.5592 0.5896 0.47352 0.0
C204 C 0.549 0.59445 0.39612 0.0
H205 H 0.58615 0.56959 0.54105 0.0
H206 H 0.55164 0.59798 0.52871 0.0
C207 C 0.55951 0.58343 0.32548 0.0
C208 C 0.94444 0.58687 0.75425 0.0
C209 C 0.92584 0.55099 0.77041 0.0
H210 H -0.0056 0.63175 0.72527 0.0
C211 C 0.94359 0.53239 0.76929 0.0
H212 H 0.93088 0.60138 0.75183 0.0
C213 C -0.0203 0.54964 0.75415 0.0
C214 C -0.00179 0.5854 0.73629 0.0
H215 H 0.92939 0.50446 0.77882 0.0
H216 H -0.00682 0.53506 0.75606 0.0
C217 C -0.01962 0.60393 0.7365 0.0
C218 C 0.32292 0.95362 0.05856 0.0
C219 C 0.34134 0.93576 0.06438 0.0
H220 H 0.32633 0.00271 1.03678 0.0
C221 C 0.37777 0.95376 1.05094 0.0
H222 H 0.29463 0.93989 0.0661 0.0
C223 C 0.39572 -0.01066 1.03403 0.0
C224 C 0.37731 0.00714 1.02698 0.0
H225 H 0.39226 0.94017 0.05299 0.0
H226 H 0.42404 0.00307 1.02707 0.0
C227 C 0.3408 -0.01089 1.03924 0.0
C228 C 0.16952 0.41426 1.00398 0.0
C229 C 0.15715 0.43786 1.00681 0.0
H230 H 0.19908 0.39463 0.0646 0.0
C231 C 0.16534 0.45971 0.0759 0.0
H232 H 0.16397 0.39723 0.95134 0.0
C233 C 0.18514 0.45812 0.14031 0.0
C234 C 0.19789 0.43491 0.13766 0.0
H235 H 0.15642 0.47826 0.08045 0.0
H236 H 0.19065 0.47546 0.19231 0.0
C237 C 0.1899 0.41297 0.0685 0.0
C238 C 0.76891 0.23698 0.35388 0.0
C239 C 0.75287 0.22101 0.42852 0.0
H240 H 0.76641 0.23461 0.22249 0.0
C241 C 0.72131 0.18849 0.42566 0.0
H242 H 0.79314 0.26195 0.3535 0.0
C243 C 0.70598 0.17261 0.35041 0.0
C244 C 0.72163 0.18893 0.2758 0.0
H245 H 0.70818 0.17525 0.48181 0.0
H246 H 0.68157 0.14781 0.35081 0.0
C247 C 0.75343 0.22124 0.27864 0.0
C248 C 0.50831 0.73042 0.79121 0.0
C249 C 0.50838 0.76213 0.79366 0.0
H250 H 0.50791 0.69011 0.71693 0.0
C251 C 0.50896 0.7778 0.71877 0.0
H252 H 0.50801 0.71755 0.84754 0.0
C253 C 0.50872 0.76186 0.6437 0.0
C254 C 0.50816 0.72991 0.64127 0.0
H255 H 0.50903 0.80214 0.71803 0.0
H256 H 0.50873 0.77457 0.58736 0.0
C257 C 0.50833 0.71461 0.71616 0.0
C258 C 0.68126 0.48555 0.05391 0.0
C259 C 0.69666 0.50718 0.12272 0.0
H260 H 0.68882 0.46859 0.93637 0.0
C261 C 0.73351 0.52908 0.12376 0.0
H262 H 0.65306 0.46829 1.05077 0.0
C263 C 0.75435 0.52889 0.05793 0.0
C264 C 0.73873 0.50716 0.98915 0.0
H265 H 0.74631 0.54589 0.17608 0.0
H266 H 0.78259 0.54589 0.06066 0.0
C267 C 0.7019 0.4857 0.98808 0.0
C268 C 0.15386 0.7141 0.40121 0.0
C269 C 0.16964 0.72972 0.4763 0.0
H270 H 0.15689 0.7171 0.26995 0.0
C271 C 0.20106 0.76237 0.47468 0.0
H272 H 0.12973 0.68904 0.39996 0.0
C273 C 0.21661 0.77867 0.40005 0.0
C274 C 0.20133 0.7626 0.32493 0.0
H275 H 0.21395 0.77532 0.5313 0.0
H276 H 0.24098 0.8035 0.40127 0.0
C277 C 0.16958 0.73024 0.32658 0.0
C278 C 0.40542 0.21054 0.77984 0.0
C279 C 0.40643 0.17939 0.77893 0.0
H280 H 0.4054 0.25112 0.70967 0.0
C281 C 0.40689 0.1647 0.70257 0.0
H282 H 0.40488 0.22258 0.8375 0.0
C283 C 0.40745 0.18129 0.62926 0.0
C284 C 0.40721 0.21283 0.63018 0.0
H285 H 0.40767 0.14082 0.69935 0.0
H286 H 0.40847 0.16947 0.57165 0.0
C287 C 0.40563 0.22695 0.70648 0.0
C288 C 0.13573 0.35546 0.61381 0.0
C289 C 0.11636 0.36742 0.57195 0.0
H290 H 0.18026 0.34904 0.60769 0.0
C291 C 0.11726 0.3681 0.48562 0.0
H292 H 0.13426 0.35305 0.68008 0.0
C293 C 0.14383 0.36606 0.44413 0.0
C294 C 0.169 0.36319 0.48955 0.0
H295 H 0.10135 0.37567 0.4513 0.0
H296 H 0.1478 0.37243 0.3794 0.0
C297 C 0.16204 0.35311 0.57224 0.0
C298 C 0.77446 0.1793 0.76909 0.0
C299 C 0.79706 0.20944 0.8139 0.0
H300 H 0.72694 0.13014 0.77274 0.0
C301 C 0.79722 0.20783 0.9001 0.0
H302 H 0.77482 0.17931 0.70254 0.0
C303 C 0.76945 0.17984 0.94044 0.0
C304 C 0.74204 0.15356 0.89414 0.0
H305 H 0.81545 0.23023 0.93637 0.0
H306 H 0.767 0.18155 1.00635 0.0
C307 C 0.74698 0.15116 0.80944 0.0
C308 C 0.56396 0.77421 0.12891 0.0
C309 C 0.56139 0.79916 0.17662 0.0
H310 H 0.55995 0.72453 0.12928 0.0
C311 C 0.56612 0.79993 0.26208 0.0
H312 H 0.5619 0.77384 0.06261 0.0
C313 C 0.5644 0.77137 0.3005 0.0
C314 C 0.55854 0.74251 0.25308 0.0
H315 H 0.56594 0.81991 0.30016 0.0
H316 H 0.5629 0.77009 0.36694 0.0
C317 C 0.56266 0.74585 0.1673 0.0
C318 C 0.74753 0.58447 0.63247 0.0
C319 C 0.74326 0.57737 0.54776 0.0
H320 H 0.77612 0.58625 0.73888 0.0
C321 C 0.77167 0.58086 0.50109 0.0
H322 H 0.72663 0.58368 0.6694 0.0
C323 C 0.80032 0.58281 0.54099 0.0
C324 C 0.79995 0.5807 0.62713 0.0
H325 H 0.76966 0.57698 0.43513 0.0
H326 H 0.81951 0.58028 0.50443 0.0
C327 C 0.776 0.58614 0.67233 0.0
C328 C 0.15352 0.77094 0.81759 0.0
C329 C 0.13015 0.74134 0.8628 0.0
H330 H 0.201 0.82016 0.8218 0.0
C331 C 0.12851 0.74404 0.94859 0.0
H332 H 0.15432 0.77013 0.75111 0.0
C333 C 0.15543 0.77265 0.98922 0.0
C334 C 0.1837 0.79836 0.94366 0.0
H335 H 0.10958 0.72212 0.98489 0.0
H336 H 0.1566 0.77186 0.05554 0.0
C337 C 0.1803 0.79965 0.85824 0.0
C338 C 0.35412 0.16514 0.12263 0.0
C339 C 0.35966 0.14158 0.16703 0.0
H340 H 0.35601 0.21387 0.1268 0.0
C341 C 0.35788 0.14172 0.25328 0.0
H342 H 0.35382 0.1647 0.05609 0.0
C343 C 0.35937 0.17005 0.29386 0.0
C344 C 0.36231 0.19783 0.24782 0.0
H345 H 0.36052 0.12285 0.28919 0.0
H346 H 0.36317 0.17227 0.35975 0.0
C347 C 0.3555 0.19338 0.16317 0.0
C348 C 0.33742 0.54527 0.31922 0.0
C349 C 0.32631 0.5309 0.39773 0.0
H350 H 0.37877 0.58501 0.24728 0.0
C351 C 0.34522 0.5507 0.46662 0.0
H352 H 0.3231 0.53107 0.26498 0.0
C353 C 0.37735 0.58163 0.4565 0.0
C354 C 0.39093 0.59324 0.37738 0.0
H355 H 0.337 0.54073 0.52822 0.0
H356 H 0.39295 0.59445 0.51041 0.0
C357 C 0.36945 0.57625 0.30915 0.0
C358 C 0.76078 0.3913 0.63877 0.0
C359 C 0.76268 0.4085 0.71328 0.0
H360 H 0.7628 0.34906 0.58089 0.0
C361 C 0.75758 0.39058 0.78721 0.0
H362 H 0.76369 0.40398 0.5804 0.0
C363 C 0.75653 0.35873 0.78728 0.0
C364 C 0.76106 0.34465 0.7135 0.0
H365 H 0.75805 0.40271 0.84554 0.0
H366 H 0.75618 0.3473 0.84594 0.0
C367 C 0.76018 0.35966 0.63889 0.0
C368 C 0.37904 0.77531 0.99243 0.0
C369 C 0.39396 0.7794 0.07039 0.0
H370 H 0.33785 0.77434 0.92296 0.0
C371 C 0.37376 0.77672 0.14029 0.0
H372 H 0.39357 0.77653 0.9374 0.0
C373 C 0.3419 0.77579 0.13211 0.0
C374 C 0.32966 0.77723 0.05391 0.0
H375 H 0.38409 0.77887 0.20148 0.0
H376 H 0.32875 0.7774 0.18703 0.0
C377 C 0.347 0.77408 0.98426 0.0
C378 C 0.56985 0.38811 0.48548 0.0
C379 C 0.59109 0.40974 0.42132 0.0
H380 H 0.52078 0.34335 0.51867 0.0
C381 C 0.58283 0.39752 0.34011 0.0
H382 H 0.57586 0.39637 0.54897 0.0
C383 C 0.55122 0.36697 0.3228 0.0
C384 C 0.5274 0.34825 0.38643 0.0
H385 H 0.59899 0.41314 0.28932 0.0
H386 H 0.5441 0.35995 0.25908 0.0
C387 C 0.53818 0.35762 0.46815 0.0
C388 C 0.16505 0.59271 0.65546 0.0
C389 C 0.16227 0.60323 0.73534 0.0
H390 H 0.16351 0.55243 0.5805 0.0
C391 C 0.16561 0.58541 0.80238 0.0
H392 H 0.16345 0.60635 0.60249 0.0
C393 C 0.16521 0.55417 0.78988 0.0
C394 C 0.16185 0.54058 0.71017 0.0
H395 H 0.16451 0.59334 0.8649 0.0
H396 H 0.1637 0.53899 0.84294 0.0
C397 C 0.16507 0.56168 0.64295 0.0
C398 C 0.58042 0.17333 0.08239 0.0
C399 C 0.59022 0.16869 1.00316 0.0
H400 H 0.54055 0.17344 0.15708 0.0
C401 C 0.57098 0.16943 0.93559 0.0
H402 H 0.59507 0.17363 0.13565 0.0
C403 C 0.53947 0.169 0.94784 0.0
C404 C 0.52691 0.1681 1.02779 0.0
H405 H 0.57828 0.16676 0.87343 0.0
H406 H 0.52343 0.16591 0.89495 0.0
C407 C 0.54905 0.17319 0.0946 0.0
loop_
_geom_bond_atom_site_label_1
_geom_bond_atom_site_label_2
_geom_bond_distance
_geom_bond_site_symmetry_2
_ccdc_geom_bond_type
Zn0 O3 2.031 . S
Zn0 O5 2.049 . S
Zn0 O10 2.067 . S
Zn1 O2 1.962 . S
Zn1 O4 1.986 . S
Zn1 O6 1.996 . S
Zn1 O9 1.943 . S
O2 Zn1 1.962 . S
O2 C7 1.254 . S
O3 Zn0 2.031 . S
O3 C7 1.269 . S
O4 Zn1 1.986 . S
O4 C11 1.262 . S
O5 Zn0 2.049 . S
O5 C13 1.260 . S
O6 Zn1 1.996 . S
O6 C13 1.257 . S
C7 O2 1.254 . S
C7 O3 1.269 . S
C8 O9 1.249 . S
C8 O10 1.270 . S
O9 Zn1 1.943 . S
O9 C8 1.249 . S
O10 Zn0 2.067 . S
O10 C8 1.270 . S
C11 O4 1.262 . S
C11 O12 1.232 . S
O12 C11 1.232 . S
C13 O5 1.260 . S
C13 O6 1.257 . S
Zn14 O17 2.031 . S
Zn14 O19 2.049 . S
Zn14 O24 2.067 . S
Zn15 O16 1.962 . S
Zn15 O18 1.986 . S
Zn15 O20 1.996 . S
Zn15 O23 1.943 . S
O16 Zn15 1.962 . S
O16 C21 1.254 . S
O17 Zn14 2.031 . S
O17 C21 1.269 . S
O18 Zn15 1.986 . S
O18 C25 1.262 . S
O19 Zn14 2.049 . S
O19 C27 1.260 . S
O20 Zn15 1.996 . S
O20 C27 1.257 . S
C21 O16 1.254 . S
C21 O17 1.269 . S
C22 O23 1.249 . S
C22 O24 1.270 . S
O23 Zn15 1.943 . S
O23 C22 1.249 . S
O24 Zn14 2.067 . S
O24 C22 1.270 . S
C25 O18 1.262 . S
C25 O26 1.232 . S
O26 C25 1.232 . S
C27 O19 1.260 . S
C27 O20 1.257 . S
Zn28 O31 2.031 . S
Zn28 O33 2.049 . S
Zn28 O38 2.067 . S
Zn29 O30 1.962 . S
Zn29 O32 1.986 . S
Zn29 O34 1.996 1_556 S
Zn29 O37 1.943 . S
O30 Zn29 1.962 . S
O30 C35 1.254 . S
O31 Zn28 2.031 . S
O31 C35 1.269 1_554 S
O32 Zn29 1.986 . S
O32 C39 1.262 . S
O33 Zn28 2.049 . S
O33 C41 1.260 . S
O34 Zn29 1.996 1_554 S
O34 C41 1.257 . S
C35 O30 1.254 . S
C35 O31 1.269 1_556 S
C36 O37 1.249 . S
C36 O38 1.270 1_556 S
O37 Zn29 1.943 . S
O37 C36 1.249 . S
O38 Zn28 2.067 . S
O38 C36 1.270 1_554 S
C39 O32 1.262 . S
C39 O40 1.232 . S
O40 C39 1.232 . S
C41 O33 1.260 . S
C41 O34 1.257 . S
Zn42 O45 2.031 . S
Zn42 O47 2.049 . S
Zn42 O52 2.067 . S
Zn43 O44 1.962 . S
Zn43 O46 1.986 . S
Zn43 O48 1.996 . S
Zn43 O51 1.943 . S
O44 Zn43 1.962 . S
O44 C49 1.254 . S
O45 Zn42 2.031 . S
O45 C49 1.269 . S
O46 Zn43 1.986 . S
O46 C53 1.262 . S
O47 Zn42 2.049 . S
O47 C55 1.260 . S
O48 Zn43 1.996 . S
O48 C55 1.257 . S
C49 O44 1.254 . S
C49 O45 1.269 . S
C50 O51 1.249 . S
C50 O52 1.270 . S
O51 Zn43 1.943 . S
O51 C50 1.249 . S
O52 Zn42 2.067 . S
O52 C50 1.270 . S
C53 O46 1.262 . S
C53 O54 1.232 . S
O54 C53 1.232 . S
C55 O47 1.260 . S
C55 O48 1.257 . S
Zn56 O59 2.031 . S
Zn56 O61 2.049 . S
Zn56 O66 2.067 . S
Zn57 O58 1.962 . S
Zn57 O60 1.986 . S
Zn57 O62 1.996 . S
Zn57 O65 1.943 . S
O58 Zn57 1.962 . S
O58 C63 1.254 . S
O59 Zn56 2.031 . S
O59 C63 1.269 . S
O60 Zn57 1.986 . S
O60 C67 1.262 . S
O61 Zn56 2.049 . S
O61 C69 1.260 . S
O62 Zn57 1.996 . S
O62 C69 1.257 . S
C63 O58 1.254 . S
C63 O59 1.269 . S
C64 O65 1.249 . S
C64 O66 1.270 . S
O65 Zn57 1.943 . S
O65 C64 1.249 . S
O66 Zn56 2.067 . S
O66 C64 1.270 . S
C67 O60 1.262 . S
C67 O68 1.232 . S
O68 C67 1.232 . S
C69 O61 1.260 . S
C69 O62 1.257 . S
Zn70 O73 2.031 . S
Zn70 O75 2.049 . S
Zn70 O80 2.067 . S
Zn71 O72 1.962 . S
Zn71 O74 1.986 . S
Zn71 O76 1.996 1_556 S
Zn71 O79 1.943 . S
O72 Zn71 1.962 . S
O72 C77 1.254 . S
O73 Zn70 2.031 . S
O73 C77 1.269 1_554 S
O74 Zn71 1.986 . S
O74 C81 1.262 . S
O75 Zn70 2.049 . S
O75 C83 1.260 . S
O76 Zn71 1.996 1_554 S
O76 C83 1.257 . S
C77 O72 1.254 . S
C77 O73 1.269 1_556 S
C78 O79 1.249 . S
C78 O80 1.270 1_556 S
O79 Zn71 1.943 . S
O79 C78 1.249 . S
O80 Zn70 2.067 . S
O80 C78 1.270 1_554 S
C81 O74 1.262 . S
C81 O82 1.232 . S
O82 C81 1.232 . S
C83 O75 1.260 . S
C83 O76 1.257 . S
Zn84 O87 2.031 . S
Zn84 O89 2.049 . S
Zn84 O94 2.067 . S
Zn85 O86 1.962 . S
Zn85 O88 1.986 . S
Zn85 O90 1.996 . S
Zn85 O93 1.943 . S
O86 Zn85 1.962 . S
O86 C91 1.254 . S
O87 Zn84 2.031 . S
O87 C91 1.269 . S
O88 Zn85 1.986 . S
O88 C95 1.262 . S
O89 Zn84 2.049 . S
O89 C97 1.260 . S
O90 Zn85 1.996 . S
O90 C97 1.257 . S
C91 O86 1.254 . S
C91 O87 1.269 . S
C92 O93 1.249 . S
C92 O94 1.270 . S
O93 Zn85 1.943 . S
O93 C92 1.249 . S
O94 Zn84 2.067 . S
O94 C92 1.270 . S
C95 O88 1.262 . S
C95 O96 1.232 . S
O96 C95 1.232 . S
C97 O89 1.260 . S
C97 O90 1.257 . S
Zn98 O101 2.031 . S
Zn98 O103 2.049 . S
Zn98 O108 2.067 . S
Zn99 O100 1.962 . S
Zn99 O102 1.986 . S
Zn99 O104 1.996 . S
Zn99 O107 1.943 . S
O100 Zn99 1.962 . S
O100 C105 1.254 . S
O101 Zn98 2.031 . S
O101 C105 1.269 . S
O102 Zn99 1.986 . S
O102 C109 1.262 . S
O103 Zn98 2.049 . S
O103 C111 1.260 . S
O104 Zn99 1.996 . S
O104 C111 1.257 . S
C105 O100 1.254 . S
C105 O101 1.269 . S
C106 O107 1.249 . S
C106 O108 1.270 . S
O107 Zn99 1.943 . S
O107 C106 1.249 . S
O108 Zn98 2.067 . S
O108 C106 1.270 . S
C109 O102 1.262 . S
C109 O110 1.232 . S
O110 C109 1.232 . S
C111 O103 1.260 . S
C111 O104 1.257 . S
Zn112 O115 2.031 . S
Zn112 O117 2.049 . S
Zn112 O122 2.067 . S
Zn113 O114 1.962 . S
Zn113 O116 1.986 . S
Zn113 O118 1.996 1_554 S
Zn113 O121 1.943 . S
O114 Zn113 1.962 . S
O114 C119 1.254 . S
O115 Zn112 2.031 . S
O115 C119 1.269 1_556 S
O116 Zn113 1.986 . S
O116 C123 1.262 . S
O117 Zn112 2.049 . S
O117 C125 1.260 . S
O118 Zn113 1.996 1_556 S
O118 C125 1.257 . S
C119 O114 1.254 . S
C119 O115 1.269 1_554 S
C120 O121 1.249 . S
C120 O122 1.270 1_554 S
O121 Zn113 1.943 . S
O121 C120 1.249 . S
O122 Zn112 2.067 . S
O122 C120 1.270 1_556 S
C123 O116 1.262 . S
C123 O124 1.232 . S
O124 C123 1.232 . S
C125 O117 1.260 . S
C125 O118 1.257 . S
Zn126 O129 2.031 . S
Zn126 O131 2.049 . S
Zn126 O136 2.067 . S
Zn127 O128 1.962 . S
Zn127 O130 1.986 . S
Zn127 O132 1.996 . S
Zn127 O135 1.943 . S
O128 Zn127 1.962 . S
O128 C133 1.254 . S
O129 Zn126 2.031 . S
O129 C133 1.269 . S
O130 Zn127 1.986 . S
O130 C137 1.262 . S
O131 Zn126 2.049 . S
O131 C139 1.260 . S
O132 Zn127 1.996 . S
O132 C139 1.257 . S
C133 O128 1.254 . S
C133 O129 1.269 . S
C134 O135 1.249 . S
C134 O136 1.270 . S
O135 Zn127 1.943 . S
O135 C134 1.249 . S
O136 Zn126 2.067 . S
O136 C134 1.270 . S
C137 O130 1.262 . S
C137 O138 1.232 . S
O138 C137 1.232 . S
C139 O131 1.260 . S
C139 O132 1.257 . S
Zn140 O143 2.031 . S
Zn140 O145 2.049 . S
Zn140 O150 2.067 . S
Zn141 O142 1.962 . S
Zn141 O144 1.986 . S
Zn141 O146 1.996 . S
Zn141 O149 1.943 . S
O142 Zn141 1.962 . S
O142 C147 1.254 . S
O143 Zn140 2.031 . S
O143 C147 1.269 . S
O144 Zn141 1.986 . S
O144 C151 1.262 . S
O145 Zn140 2.049 . S
O145 C153 1.260 . S
O146 Zn141 1.996 . S
O146 C153 1.257 . S
C147 O142 1.254 . S
C147 O143 1.269 . S
C148 O149 1.249 . S
C148 O150 1.270 . S
O149 Zn141 1.943 . S
O149 C148 1.249 . S
O150 Zn140 2.067 . S
O150 C148 1.270 . S
C151 O144 1.262 . S
C151 O152 1.232 . S
O152 C151 1.232 . S
C153 O145 1.260 . S
C153 O146 1.257 . S
Zn154 O157 2.031 . S
Zn154 O159 2.049 . S
Zn154 O164 2.067 . S
Zn155 O156 1.962 . S
Zn155 O158 1.986 . S
Zn155 O160 1.996 1_554 S
Zn155 O163 1.943 . S
O156 Zn155 1.962 . S
O156 C161 1.254 . S
O157 Zn154 2.031 . S
O157 C161 1.269 1_556 S
O158 Zn155 1.986 . S
O158 C165 1.262 . S
O159 Zn154 2.049 . S
O159 C167 1.260 . S
O160 Zn155 1.996 1_556 S
O160 C167 1.257 . S
C161 O156 1.254 . S
C161 O157 1.269 1_554 S
C162 O163 1.249 . S
C162 O164 1.270 1_554 S
O163 Zn155 1.943 . S
O163 C162 1.249 . S
O164 Zn154 2.067 . S
O164 C162 1.270 1_556 S
C165 O158 1.262 . S
C165 O166 1.232 . S
O166 C165 1.232 . S
C167 O159 1.260 . S
C167 O160 1.257 . S
C168 C169 1.387 . S
C168 H172 0.950 . S
C168 C177 1.390 . S
C169 C168 1.387 . S
C169 C171 1.387 . S
H170 C177 0.950 . S
C171 C169 1.387 . S
C171 C173 1.390 . S
C171 H175 0.950 . S
H172 C168 0.950 . S
C173 C171 1.390 . S
C173 C174 1.387 . S
C173 H176 0.950 . S
C174 C173 1.387 . S
C174 C177 1.387 . S
H175 C171 0.950 . S
H176 C173 0.950 . S
C177 C168 1.390 . S
C177 H170 0.950 . S
C177 C174 1.387 . S
C178 C179 1.387 . S
C178 H182 0.950 . S
C178 C187 1.390 1_655 S
C179 C178 1.387 . S
C179 C181 1.387 . S
H180 C187 0.950 . S
C181 C179 1.387 . S
C181 C183 1.390 1_655 S
C181 H185 0.950 . S
H182 C178 0.950 . S
C183 C181 1.390 1_455 S
C183 C184 1.387 . S
C183 H186 0.950 . S
C184 C183 1.387 . S
C184 C187 1.387 . S
H185 C181 0.950 . S
H186 C183 0.950 . S
C187 C178 1.390 1_455 S
C187 H180 0.950 . S
C187 C184 1.387 . S
C188 C189 1.387 . S
C188 H192 0.950 . S
C188 C197 1.390 1_566 S
C189 C188 1.387 . S
C189 C191 1.387 . S
H190 C197 0.950 . S
C191 C189 1.387 . S
C191 C193 1.390 1_566 S
C191 H195 0.950 . S
H192 C188 0.950 . S
C193 C191 1.390 1_544 S
C193 C194 1.387 . S
C193 H196 0.950 . S
C194 C193 1.387 . S
C194 C197 1.387 . S
H195 C191 0.950 . S
H196 C193 0.950 . S
C197 C188 1.390 1_544 S
C197 H190 0.950 . S
C197 C194 1.387 . S
C198 C199 1.387 . S
C198 H202 0.950 . S
C198 C207 1.390 . S
C199 C198 1.387 . S
C199 C201 1.387 . S
H200 C207 0.950 . S
C201 C199 1.387 . S
C201 C203 1.390 . S
C201 H205 0.950 . S
H202 C198 0.950 . S
C203 C201 1.390 . S
C203 C204 1.387 . S
C203 H206 0.950 . S
C204 C203 1.387 . S
C204 C207 1.387 . S
H205 C201 0.950 . S
H206 C203 0.950 . S
C207 C198 1.390 . S
C207 H200 0.950 . S
C207 C204 1.387 . S
C208 C209 1.387 . S
C208 H212 0.950 . S
C208 C217 1.390 1_655 S
C209 C208 1.387 . S
C209 C211 1.387 . S
H210 C217 0.950 . S
C211 C209 1.387 . S
C211 C213 1.390 1_655 S
C211 H215 0.950 . S
H212 C208 0.950 . S
C213 C211 1.390 1_455 S
C213 C214 1.387 . S
C213 H216 0.950 . S
C214 C213 1.387 . S
C214 C217 1.387 . S
H215 C211 0.950 . S
H216 C213 0.950 . S
C217 C208 1.390 1_455 S
C217 H210 0.950 . S
C217 C214 1.387 . S
C218 C219 1.387 . S
C218 H222 0.950 . S
C218 C227 1.390 1_564 S
C219 C218 1.387 . S
C219 C221 1.387 . S
H220 C227 0.950 . S
C221 C219 1.387 . S
C221 C223 1.390 1_564 S
C221 H225 0.950 . S
H222 C218 0.950 . S
C223 C221 1.390 1_546 S
C223 C224 1.387 . S
C223 H226 0.950 . S
C224 C223 1.387 . S
C224 C227 1.387 . S
H225 C221 0.950 . S
H226 C223 0.950 . S
C227 C218 1.390 1_546 S
C227 H220 0.950 . S
C227 C224 1.387 . S
C228 C229 1.387 . S
C228 H232 0.950 . S
C228 C237 1.390 1_556 S
C229 C228 1.387 . S
C229 C231 1.387 . S
H230 C237 0.950 . S
C231 C229 1.387 . S
C231 C233 1.390 1_556 S
C231 H235 0.950 . S
H232 C228 0.950 . S
C233 C231 1.390 1_554 S
C233 C234 1.387 . S
C233 H236 0.950 . S
C234 C233 1.387 . S
C234 C237 1.387 . S
H235 C231 0.950 . S
H236 C233 0.950 . S
C237 C228 1.390 1_554 S
C237 H230 0.950 . S
C237 C234 1.387 . S
C238 C239 1.387 . S
C238 H242 0.950 . S
C238 C247 1.390 . S
C239 C238 1.387 . S
C239 C241 1.387 . S
H240 C247 0.950 . S
C241 C239 1.387 . S
C241 C243 1.390 . S
C241 H245 0.950 . S
H242 C238 0.950 . S
C243 C241 1.390 . S
C243 C244 1.387 . S
C243 H246 0.950 . S
C244 C243 1.387 . S
C244 C247 1.387 . S
H245 C241 0.950 . S
H246 C243 0.950 . S
C247 C238 1.390 . S
C247 H240 0.950 . S
C247 C244 1.387 . S
C248 C249 1.387 . S
C248 H252 0.950 . S
C248 C257 1.390 . S
C249 C248 1.387 . S
C249 C251 1.387 . S
H250 C257 0.950 . S
C251 C249 1.387 . S
C251 C253 1.390 . S
C251 H255 0.950 . S
H252 C248 0.950 . S
C253 C251 1.390 . S
C253 C254 1.387 . S
C253 H256 0.950 . S
C254 C253 1.387 . S
C254 C257 1.387 . S
H255 C251 0.950 . S
H256 C253 0.950 . S
C257 C248 1.390 . S
C257 H250 0.950 . S
C257 C254 1.387 . S
C258 C259 1.387 . S
C258 H262 0.950 . S
C258 C267 1.390 1_554 S
C259 C258 1.387 . S
C259 C261 1.387 . S
H260 C267 0.950 . S
C261 C259 1.387 . S
C261 C263 1.390 1_554 S
C261 H265 0.950 . S
H262 C258 0.950 . S
C263 C261 1.390 1_556 S
C263 C264 1.387 . S
C263 H266 0.950 . S
C264 C263 1.387 . S
C264 C267 1.387 . S
H265 C261 0.950 . S
H266 C263 0.950 . S
C267 C258 1.390 1_556 S
C267 H260 0.950 . S
C267 C264 1.387 . S
C268 C269 1.387 . S
C268 H272 0.950 . S
C268 C277 1.390 . S
C269 C268 1.387 . S
C269 C271 1.387 . S
H270 C277 0.950 . S
C271 C269 1.387 . S
C271 C273 1.390 . S
C271 H275 0.950 . S
H272 C268 0.950 . S
C273 C271 1.390 . S
C273 C274 1.387 . S
C273 H276 0.950 . S
C274 C273 1.387 . S
C274 C277 1.387 . S
H275 C271 0.950 . S
H276 C273 0.950 . S
C277 C268 1.390 . S
C277 H270 0.950 . S
C277 C274 1.387 . S
C278 C279 1.387 . S
C278 H282 0.950 . S
C278 C287 1.390 . S
C279 C278 1.387 . S
C279 C281 1.387 . S
H280 C287 0.950 . S
C281 C279 1.387 . S
C281 C283 1.390 . S
C281 H285 0.950 . S
H282 C278 0.950 . S
C283 C281 1.390 . S
C283 C284 1.387 . S
C283 H286 0.950 . S
C284 C283 1.387 . S
C284 C287 1.387 . S
H285 C281 0.950 . S
H286 C283 0.950 . S
C287 C278 1.390 . S
C287 H280 0.950 . S
C287 C284 1.387 . S
C288 C289 1.387 . S
C288 H292 0.950 . S
C288 C297 1.390 . S
C289 C288 1.387 . S
C289 C291 1.387 . S
H290 C297 0.950 . S
C291 C289 1.387 . S
C291 C293 1.390 . S
C291 H295 0.950 . S
H292 C288 0.950 . S
C293 C291 1.390 . S
C293 C294 1.387 . S
C293 H296 0.950 . S
C294 C293 1.387 . S
C294 C297 1.387 . S
H295 C291 0.950 . S
H296 C293 0.950 . S
C297 C288 1.390 . S
C297 H290 0.950 . S
C297 C294 1.387 . S
C298 C299 1.387 . S
C298 H302 0.950 . S
C298 C307 1.390 . S
C299 C298 1.387 . S
C299 C301 1.387 . S
H300 C307 0.950 . S
C301 C299 1.387 . S
C301 C303 1.390 . S
C301 H305 0.950 . S
H302 C298 0.950 . S
C303 C301 1.390 . S
C303 C304 1.387 . S
C303 H306 0.950 . S
C304 C303 1.387 . S
C304 C307 1.387 . S
H305 C301 0.950 . S
H306 C303 0.950 . S
C307 C298 1.390 . S
C307 H300 0.950 . S
C307 C304 1.387 . S
C308 C309 1.387 . S
C308 H312 0.950 . S
C308 C317 1.390 . S
C309 C308 1.387 . S
C309 C311 1.387 . S
H310 C317 0.950 . S
C311 C309 1.387 . S
C311 C313 1.390 . S
C311 H315 0.950 . S
H312 C308 0.950 . S
C313 C311 1.390 . S
C313 C314 1.387 . S
C313 H316 0.950 . S
C314 C313 1.387 . S
C314 C317 1.387 . S
H315 C311 0.950 . S
H316 C313 0.950 . S
C317 C308 1.390 . S
C317 H310 0.950 . S
C317 C314 1.387 . S
C318 C319 1.387 . S
C318 H322 0.950 . S
C318 C327 1.390 . S
C319 C318 1.387 . S
C319 C321 1.387 . S
H320 C327 0.950 . S
C321 C319 1.387 . S
C321 C323 1.390 . S
C321 H325 0.950 . S
H322 C318 0.950 . S
C323 C321 1.390 . S
C323 C324 1.387 . S
C323 H326 0.950 . S
C324 C323 1.387 . S
C324 C327 1.387 . S
H325 C321 0.950 . S
H326 C323 0.950 . S
C327 C318 1.390 . S
C327 H320 0.950 . S
C327 C324 1.387 . S
C328 C329 1.387 . S
C328 H332 0.950 . S
C328 C337 1.390 . S
C329 C328 1.387 . S
C329 C331 1.387 . S
H330 C337 0.950 . S
C331 C329 1.387 . S
C331 C333 1.390 . S
C331 H335 0.950 . S
H332 C328 0.950 . S
C333 C331 1.390 . S
C333 C334 1.387 . S
C333 H336 0.950 . S
C334 C333 1.387 . S
C334 C337 1.387 . S
H335 C331 0.950 . S
H336 C333 0.950 . S
C337 C328 1.390 . S
C337 H330 0.950 . S
C337 C334 1.387 . S
C338 C339 1.387 . S
C338 H342 0.950 . S
C338 C347 1.390 . S
C339 C338 1.387 . S
C339 C341 1.387 . S
H340 C347 0.950 . S
C341 C339 1.387 . S
C341 C343 1.390 . S
C341 H345 0.950 . S
H342 C338 0.950 . S
C343 C341 1.390 . S
C343 C344 1.387 . S
C343 H346 0.950 . S
C344 C343 1.387 . S
C344 C347 1.387 . S
H345 C341 0.950 . S
H346 C343 0.950 . S
C347 C338 1.390 . S
C347 H340 0.950 . S
C347 C344 1.387 . S
C348 C349 1.387 . S
C348 H352 0.950 . S
C348 C357 1.390 . S
C349 C348 1.387 . S
C349 C351 1.387 . S
H350 C357 0.950 . S
C351 C349 1.387 . S
C351 C353 1.390 . S
C351 H355 0.950 . S
H352 C348 0.950 . S
C353 C351 1.390 . S
C353 C354 1.387 . S
C353 H356 0.950 . S
C354 C353 1.387 . S
C354 C357 1.387 . S
H355 C351 0.950 . S
H356 C353 0.950 . S
C357 C348 1.390 . S
C357 H350 0.950 . S
C357 C354 1.387 . S
C358 C359 1.387 . S
C358 H362 0.950 . S
C358 C367 1.390 . S
C359 C358 1.387 . S
C359 C361 1.387 . S
H360 C367 0.950 . S
C361 C359 1.387 . S
C361 C363 1.390 . S
C361 H365 0.950 . S
H362 C358 0.950 . S
C363 C361 1.390 . S
C363 C364 1.387 . S
C363 H366 0.950 . S
C364 C363 1.387 . S
C364 C367 1.387 . S
H365 C361 0.950 . S
H366 C363 0.950 . S
C367 C358 1.390 . S
C367 H360 0.950 . S
C367 C364 1.387 . S
C368 C369 1.387 . S
C368 H372 0.950 . S
C368 C377 1.390 1_556 S
C369 C368 1.387 . S
C369 C371 1.387 . S
H370 C377 0.950 . S
C371 C369 1.387 . S
C371 C373 1.390 1_556 S
C371 H375 0.950 . S
H372 C368 0.950 . S
C373 C371 1.390 1_554 S
C373 C374 1.387 . S
C373 H376 0.950 . S
C374 C373 1.387 . S
C374 C377 1.387 . S
H375 C371 0.950 . S
H376 C373 0.950 . S
C377 C368 1.390 1_554 S
C377 H370 0.950 . S
C377 C374 1.387 . S
C378 C379 1.387 . S
C378 H382 0.950 . S
C378 C387 1.390 . S
C379 C378 1.387 . S
C379 C381 1.387 . S
H380 C387 0.950 . S
C381 C379 1.387 . S
C381 C383 1.390 . S
C381 H385 0.950 . S
H382 C378 0.950 . S
C383 C381 1.390 . S
C383 C384 1.387 . S
C383 H386 0.950 . S
C384 C383 1.387 . S
C384 C387 1.387 . S
H385 C381 0.950 . S
H386 C383 0.950 . S
C387 C378 1.390 . S
C387 H380 0.950 . S
C387 C384 1.387 . S
C388 C389 1.387 . S
C388 H392 0.950 . S
C388 C397 1.390 . S
C389 C388 1.387 . S
C389 C391 1.387 . S
H390 C397 0.950 . S
C391 C389 1.387 . S
C391 C393 1.390 . S
C391 H395 0.950 . S
H392 C388 0.950 . S
C393 C391 1.390 . S
C393 C394 1.387 . S
C393 H396 0.950 . S
C394 C393 1.387 . S
C394 C397 1.387 . S
H395 C391 0.950 . S
H396 C393 0.950 . S
C397 C388 1.390 . S
C397 H390 0.950 . S
C397 C394 1.387 . S
C398 C399 1.387 . S
C398 H402 0.950 . S
C398 C407 1.390 1_554 S
C399 C398 1.387 . S
C399 C401 1.387 . S
H400 C407 0.950 . S
C401 C399 1.387 . S
C401 C403 1.390 1_554 S
C401 H405 0.950 . S
H402 C398 0.950 . S
C403 C401 1.390 1_556 S
C403 C404 1.387 . S
C403 H406 0.950 . S
C404 C403 1.387 . S
C404 C407 1.387 . S
H405 C401 0.950 . S
H406 C403 0.950 . S
C407 C398 1.390 1_556 S
C407 H400 0.950 . S
C407 C404 1.387 . S
C169 C7 1.404 . S
C174 C133 1.405 . S
C179 C21 1.406 . S
C184 C147 1.405 . S
C189 C35 1.403 . S
C194 C161 1.403 . S
C199 C49 1.404 . S
C204 C91 1.403 . S
C209 C105 1.404 . S
C214 C63 1.403 . S
C219 C119 1.403 . S
C224 C77 1.403 . S
C229 C151 1.704 . S
C234 C11 1.704 . S
C239 C25 1.704 . S
C244 C165 1.704 . S
C249 C39 1.704 . S
C254 C95 1.704 . S
C259 C53 1.704 . S
C264 C109 1.704 . S
C269 C67 1.704 . S
C274 C123 1.704 . S
C279 C81 1.704 . S
C284 C137 1.704 . S
C289 C153 0.934 . S
C294 C13 0.934 . S
C299 C27 0.940 . S
C304 C167 0.940 . S
C309 C41 0.934 . S
C314 C97 0.934 . S
C319 C55 0.941 . S
C324 C111 0.941 . S
C329 C69 0.940 . S
C334 C125 0.940 . S
C339 C83 0.940 . S
C344 C139 0.940 . S
C349 C8 1.505 . S
C354 C92 1.504 . S
C359 C106 1.503 . S
C364 C22 1.504 . S
C369 C36 1.505 . S
C374 C120 1.505 . S
C379 C50 1.504 . S
C384 C134 1.504 . S
C389 C64 1.504 . S
C394 C148 1.503 . S
C399 C162 1.505 . S
C404 C78 1.505 . S
