# Generated by pormake.
# Topology pcb, (4)-cn, num edge types: 1
# Building blocks:
#     Node 0, Type 0, BuildingBlock: QUQFOY_clean_sbu_3, # of connection points: 4
#     Node 1, Type 0, BuildingBlock: QUQFOY_clean_sbu_3, # of connection points: 4
#     Node 2, Type 0, BuildingBlock: QUQFOY_clean_sbu_3, # of connection points: 4
#     Node 3, Type 0, BuildingBlock: QUQFOY_clean_sbu_3, # of connection points: 4
#     Node 4, Type 0, BuildingBlock: QUQFOY_clean_sbu_3, # of connection points: 4
#     Node 5, Type 0, BuildingBlock: QUQFOY_clean_sbu_3, # of connection points: 4
#     Node 6, Type 0, BuildingBlock: QUQFOY_clean_sbu_3, # of connection points: 4
#     Node 7, Type 0, BuildingBlock: QUQFOY_clean_sbu_3, # of connection points: 4
#     Node 8, Type 0, BuildingBlock: QUQFOY_clean_sbu_3, # of connection points: 4
#     Node 9, Type 0, BuildingBlock: QUQFOY_clean_sbu_3, # of connection points: 4
#     Node 10, Type 0, BuildingBlock: QUQFOY_clean_sbu_3, # of connection points: 4
#     Node 11, Type 0, BuildingBlock: QUQFOY_clean_sbu_3, # of connection points: 4
#     Node 12, Type 0, BuildingBlock: QUQFOY_clean_sbu_3, # of connection points: 4
#     Node 13, Type 0, BuildingBlock: QUQFOY_clean_sbu_3, # of connection points: 4
#     Node 14, Type 0, BuildingBlock: QUQFOY_clean_sbu_3, # of connection points: 4
#     Node 15, Type 0, BuildingBlock: QUQFOY_clean_sbu_3, # of connection points: 4
#     Edge 16, Type (0, 0), BuildingBlock: UVAHIK_clean_linker_0, # of connection points: 2
#     Edge 17, Type (0, 0), BuildingBlock: UVAHIK_clean_linker_0, # of connection points: 2
#     Edge 18, Type (0, 0), BuildingBlock: UVAHIK_clean_linker_0, # of connection points: 2
#     Edge 19, Type (0, 0), BuildingBlock: UVAHIK_clean_linker_0, # of connection points: 2
#     Edge 20, Type (0, 0), BuildingBlock: UVAHIK_clean_linker_0, # of connection points: 2
#     Edge 21, Type (0, 0), BuildingBlock: UVAHIK_clean_linker_0, # of connection points: 2
#     Edge 22, Type (0, 0), BuildingBlock: UVAHIK_clean_linker_0, # of connection points: 2
#     Edge 23, Type (0, 0), BuildingBlock: UVAHIK_clean_linker_0, # of connection points: 2
#     Edge 24, Type (0, 0), BuildingBlock: UVAHIK_clean_linker_0, # of connection points: 2
#     Edge 25, Type (0, 0), BuildingBlock: UVAHIK_clean_linker_0, # of connection points: 2
#     Edge 26, Type (0, 0), BuildingBlock: UVAHIK_clean_linker_0, # of connection points: 2
#     Edge 27, Type (0, 0), BuildingBlock: UVAHIK_clean_linker_0, # of connection points: 2
#     Edge 28, Type (0, 0), BuildingBlock: UVAHIK_clean_linker_0, # of connection points: 2
#     Edge 29, Type (0, 0), BuildingBlock: UVAHIK_clean_linker_0, # of connection points: 2
#     Edge 30, Type (0, 0), BuildingBlock: UVAHIK_clean_linker_0, # of connection points: 2
#     Edge 31, Type (0, 0), BuildingBlock: UVAHIK_clean_linker_0, # of connection points: 2
#     Edge 32, Type (0, 0), BuildingBlock: UVAHIK_clean_linker_0, # of connection points: 2
#     Edge 33, Type (0, 0), BuildingBlock: UVAHIK_clean_linker_0, # of connection points: 2
#     Edge 34, Type (0, 0), BuildingBlock: UVAHIK_clean_linker_0, # of connection points: 2
#     Edge 35, Type (0, 0), BuildingBlock: UVAHIK_clean_linker_0, # of connection points: 2
#     Edge 36, Type (0, 0), BuildingBlock: UVAHIK_clean_linker_0, # of connection points: 2
#     Edge 37, Type (0, 0), BuildingBlock: UVAHIK_clean_linker_0, # of connection points: 2
#     Edge 38, Type (0, 0), BuildingBlock: UVAHIK_clean_linker_0, # of connection points: 2
#     Edge 39, Type (0, 0), BuildingBlock: UVAHIK_clean_linker_0, # of connection points: 2
#     Edge 40, Type (0, 0), BuildingBlock: UVAHIK_clean_linker_0, # of connection points: 2
#     Edge 41, Type (0, 0), BuildingBlock: UVAHIK_clean_linker_0, # of connection points: 2
#     Edge 42, Type (0, 0), BuildingBlock: UVAHIK_clean_linker_0, # of connection points: 2
#     Edge 43, Type (0, 0), BuildingBlock: UVAHIK_clean_linker_0, # of connection points: 2
#     Edge 44, Type (0, 0), BuildingBlock: UVAHIK_clean_linker_0, # of connection points: 2
#     Edge 45, Type (0, 0), BuildingBlock: UVAHIK_clean_linker_0, # of connection points: 2
#     Edge 46, Type (0, 0), BuildingBlock: UVAHIK_clean_linker_0, # of connection points: 2
#     Edge 47, Type (0, 0), BuildingBlock: UVAHIK_clean_linker_0, # of connection points: 2
# Relax obj value: 0.314
# Max RMSD: 0.169
# Mean RMSD: 0.169
data_MOF--net-pcb--node1-QUQFOY_clean_sbu_3--edge1-UVAHIK_clean_linker_0
_symmetry_space_group_name_H-M    P1
_symmetry_Int_Tables_number       1
_symmetry_cell_setting            triclinic
loop_
_symmetry_equiv_pos_as_xyz
'x, y, z'
_cell_length_a     53.207722
_cell_length_b     64.884765
_cell_length_c     64.838324
_cell_angle_alpha  89.916301
_cell_angle_beta   89.996233
_cell_angle_gamma 89.790923
loop_
_atom_site_label
_atom_site_type_symbol
_atom_site_fract_x
_atom_site_fract_y
_atom_site_fract_z
_atom_type_partial_charge
C0 C 0.11393 0.09116 0.15384 0.0
O1 O 0.12004 0.07404 0.14575 0.0
Cd2 Cd 0.16202 0.06215 0.1399 0.0
O3 O 0.13072 0.10347 0.16045 0.0
Cd4 Cd 0.17753 0.10307 0.16299 0.0
C5 C 0.18461 0.10246 0.11126 0.0
O6 O 0.18418 0.06718 0.17139 0.0
O7 O 0.21691 0.08276 0.1601 0.0
O8 O 0.18011 0.11758 0.19766 0.0
C9 C 0.20745 0.06644 0.1675 0.0
O10 O 0.17965 0.08327 0.11193 0.0
C11 C 0.19149 0.13381 0.19201 0.0
O12 O 0.18321 0.11353 0.1274 0.0
O13 O 0.19603 0.13576 0.17289 0.0
C14 C 0.8625 0.14175 0.09545 0.0
O15 O 0.85769 0.13394 0.07795 0.0
Cd16 Cd 0.81734 0.13218 0.06205 0.0
O17 O 0.84514 0.15021 0.10609 0.0
Cd18 Cd 0.79919 0.15709 0.10126 0.0
C19 C 0.78608 0.10613 0.10005 0.0
O20 O 0.80015 0.16603 0.06512 0.0
O21 O 0.76346 0.15891 0.07664 0.0
O22 O 0.80175 0.19073 0.11822 0.0
C23 C 0.77683 0.16498 0.06165 0.0
O24 O 0.79359 0.10607 0.08139 0.0
C25 C 0.78474 0.18675 0.13138 0.0
O26 O 0.7879 0.12228 0.11104 0.0
O27 O 0.77471 0.16906 0.13044 0.0
C28 C 0.8657 0.88007 0.15128 0.0
O29 O 0.85934 0.89738 0.14371 0.0
Cd30 Cd 0.81727 0.9096 0.1392 0.0
O31 O 0.84912 0.86758 0.15798 0.0
Cd32 Cd 0.8024 0.86796 0.16136 0.0
C33 C 0.79363 0.87031 0.10985 0.0
O34 O 0.79648 0.90343 0.17126 0.0
O35 O 0.76328 0.88883 0.15958 0.0
O36 O 0.80022 0.85228 0.19561 0.0
C37 C 0.77311 0.90452 0.16788 0.0
O38 O 0.79873 0.88946 0.11091 0.0
C39 C 0.78863 0.8363 0.18958 0.0
O40 O 0.79545 0.8588 0.12568 0.0
O41 O 0.78383 0.835 0.17046 0.0
C42 C 0.11943 0.82993 0.09698 0.0
O43 O 0.12482 0.83632 0.07899 0.0
Cd44 Cd 0.16574 0.83652 0.06382 0.0
O45 O 0.13642 0.82231 0.10862 0.0
Cd46 Cd 0.18241 0.81505 0.1054 0.0
C47 C 0.19623 0.86542 0.10022 0.0
O48 O 0.18281 0.80311 0.07014 0.0
O49 O 0.21884 0.81214 0.08186 0.0
O50 O 0.17855 0.78236 0.12374 0.0
C51 C 0.20628 0.80416 0.06734 0.0
O52 O 0.18964 0.8637 0.0814 0.0
C53 C 0.19541 0.78642 0.13698 0.0
O54 O 0.19342 0.85053 0.1128 0.0
O55 O 0.20584 0.80394 0.13566 0.0
C56 C 0.11237 0.86895 0.82332 0.0
O57 O 0.11594 0.88613 0.8322 0.0
Cd58 Cd 0.15579 0.90247 0.83677 0.0
O59 O 0.13071 0.85896 0.81548 0.0
Cd60 Cd 0.17689 0.86406 0.8115 0.0
C61 C 0.18703 0.8645 0.8631 0.0
O62 O 0.17554 0.90033 0.80385 0.0
O63 O 0.21244 0.88886 0.81087 0.0
O64 O 0.17866 0.84974 0.7767 0.0
C65 C 0.1988 0.90392 0.80524 0.0
O66 O 0.17858 0.88289 0.86333 0.0
C67 C 0.19294 0.83479 0.78162 0.0
O68 O 0.18677 0.85392 0.84661 0.0
O69 O 0.19961 0.83352 0.80037 0.0
C70 C 0.11759 0.14607 0.87188 0.0
O71 O 0.12147 0.13959 0.89009 0.0
Cd72 Cd 0.16125 0.13691 0.90654 0.0
O73 O 0.1357 0.15287 0.86092 0.0
Cd74 Cd 0.18184 0.15877 0.86648 0.0
C75 C 0.19243 0.10763 0.87047 0.0
O76 O 0.18028 0.16982 0.90199 0.0
O77 O 0.21675 0.15998 0.89185 0.0
O78 O 0.18078 0.19199 0.84866 0.0
C79 C 0.20342 0.16787 0.90597 0.0
O80 O 0.18341 0.10884 0.88864 0.0
C81 C 0.19819 0.18744 0.83604 0.0
O82 O 0.19268 0.12332 0.85869 0.0
O83 O 0.20766 0.16951 0.8375 0.0
C84 C 0.86863 0.08986 0.81459 0.0
O85 O 0.86337 0.07242 0.82235 0.0
Cd86 Cd 0.82217 0.0588 0.82778 0.0
O87 O 0.85122 0.10187 0.80827 0.0
Cd88 Cd 0.80445 0.10033 0.80607 0.0
C89 C 0.79714 0.09728 0.8577 0.0
O90 O 0.79955 0.06454 0.79671 0.0
O91 O 0.76614 0.07889 0.80849 0.0
O92 O 0.80104 0.11553 0.77175 0.0
C93 C 0.77639 0.06299 0.80079 0.0
O94 O 0.80285 0.07825 0.85616 0.0
C95 C 0.78886 0.13131 0.77768 0.0
O96 O 0.79843 0.10926 0.84217 0.0
O97 O 0.78429 0.13278 0.79684 0.0
C98 C 0.86313 0.81725 0.87302 0.0
O99 O 0.85968 0.82469 0.89091 0.0
Cd100 Cd 0.81956 0.82984 0.90684 0.0
O101 O 0.84455 0.81123 0.8622 0.0
Cd102 Cd 0.79817 0.80888 0.86656 0.0
C103 C 0.79107 0.86036 0.87041 0.0
O104 O 0.79681 0.79861 0.90228 0.0
O105 O 0.76207 0.81089 0.89063 0.0
O106 O 0.79439 0.77472 0.85135 0.0
C107 C 0.77382 0.80245 0.90544 0.0
O108 O 0.79865 0.85862 0.88898 0.0
C109 C 0.78104 0.78059 0.8362 0.0
O110 O 0.79109 0.84494 0.85832 0.0
O111 O 0.77575 0.79965 0.83514 0.0
C112 C 0.61637 0.59794 0.64501 0.0
O113 O 0.62042 0.58036 0.63705 0.0
Cd114 Cd 0.66103 0.56501 0.63271 0.0
O115 O 0.63448 0.60862 0.6521 0.0
Cd116 Cd 0.68082 0.60455 0.65613 0.0
C117 C 0.68996 0.60303 0.60464 0.0
O118 O 0.68164 0.56855 0.66522 0.0
O119 O 0.71718 0.58065 0.65519 0.0
O120 O 0.68226 0.61905 0.69079 0.0
C121 C 0.70496 0.56568 0.66272 0.0
O122 O 0.68231 0.58444 0.60517 0.0
C123 C 0.69579 0.63435 0.6858 0.0
O124 O 0.68957 0.61416 0.62077 0.0
O125 O 0.70232 0.63574 0.66702 0.0
C126 C 0.36533 0.64947 0.59567 0.0
O127 O 0.36121 0.64199 0.5779 0.0
Cd128 Cd 0.32056 0.63772 0.56264 0.0
O129 O 0.34722 0.65603 0.60677 0.0
Cd130 Cd 0.3008 0.65941 0.60326 0.0
C131 C 0.29236 0.60809 0.59983 0.0
O132 O 0.29866 0.66942 0.56745 0.0
O133 O 0.26402 0.65793 0.58003 0.0
O134 O 0.29807 0.6938 0.61815 0.0
C135 C 0.27544 0.6661 0.56493 0.0
O136 O 0.29939 0.60958 0.58109 0.0
C137 C 0.28494 0.68835 0.63355 0.0
O138 O 0.29318 0.62355 0.61187 0.0
O139 O 0.27941 0.66939 0.63496 0.0
C140 C 0.36505 0.37537 0.64626 0.0
O141 O 0.35945 0.39285 0.63869 0.0
Cd142 Cd 0.31813 0.407 0.63584 0.0
O143 O 0.34807 0.36386 0.65399 0.0
Cd144 Cd 0.30169 0.36672 0.65974 0.0
C145 C 0.29068 0.36804 0.60845 0.0
O146 O 0.29949 0.40272 0.669 0.0
O147 O 0.26419 0.38957 0.66028 0.0
O148 O 0.30392 0.34976 0.69345 0.0
C149 C 0.27604 0.40508 0.66701 0.0
O150 O 0.29683 0.387 0.60884 0.0
C151 C 0.28799 0.33594 0.68892 0.0
O152 O 0.29264 0.35688 0.62451 0.0
O153 O 0.27878 0.33647 0.67088 0.0
C154 C 0.61693 0.32063 0.59126 0.0
O155 O 0.62269 0.32836 0.57389 0.0
Cd156 Cd 0.66436 0.33231 0.56071 0.0
O157 O 0.63391 0.31342 0.60316 0.0
Cd158 Cd 0.68051 0.30904 0.60166 0.0
C159 C 0.69028 0.36047 0.59996 0.0
O160 O 0.68489 0.30001 0.56574 0.0
O161 O 0.71907 0.30979 0.58022 0.0
O162 O 0.68143 0.27448 0.6166 0.0
C163 C 0.70834 0.30274 0.56427 0.0
O164 O 0.68427 0.35978 0.58095 0.0
C165 C 0.69386 0.2797 0.63247 0.0
O166 O 0.68871 0.34451 0.6113 0.0
O167 O 0.69976 0.29857 0.63405 0.0
C168 C 0.62071 0.37171 0.32254 0.0
O169 O 0.6248 0.38958 0.32973 0.0
Cd170 Cd 0.66522 0.40536 0.33269 0.0
O171 O 0.63873 0.36076 0.31552 0.0
Cd172 Cd 0.68492 0.36496 0.31049 0.0
C173 C 0.69543 0.36859 0.36162 0.0
O174 O 0.68528 0.4008 0.3002 0.0
O175 O 0.72112 0.38881 0.30954 0.0
O176 O 0.68342 0.34785 0.27702 0.0
C177 C 0.70858 0.40385 0.30238 0.0
O178 O 0.68811 0.38726 0.36022 0.0
C179 C 0.70002 0.33445 0.28147 0.0
O180 O 0.69406 0.35647 0.34625 0.0
O181 O 0.70932 0.33517 0.29948 0.0
C182 C 0.6125 0.64653 0.37261 0.0
O183 O 0.61826 0.63951 0.39029 0.0
Cd184 Cd 0.65967 0.63691 0.40441 0.0
O185 O 0.62941 0.65359 0.3606 0.0
Cd186 Cd 0.67586 0.65842 0.36263 0.0
C187 C 0.68732 0.60751 0.36673 0.0
O188 O 0.6792 0.66922 0.39813 0.0
O189 O 0.71361 0.65796 0.38489 0.0
O190 O 0.67664 0.69257 0.34696 0.0
C191 C 0.70261 0.66638 0.40006 0.0
O192 O 0.68147 0.60917 0.38572 0.0
C193 C 0.68991 0.68719 0.33159 0.0
O194 O 0.68479 0.62265 0.35441 0.0
O195 O 0.69618 0.66833 0.33047 0.0
C196 C 0.36024 0.59192 0.32033 0.0
O197 O 0.35488 0.57442 0.32792 0.0
Cd198 Cd 0.31365 0.56058 0.3318 0.0
O199 O 0.343 0.60367 0.31323 0.0
Cd200 Cd 0.2964 0.60137 0.30883 0.0
C201 C 0.28744 0.59941 0.36039 0.0
O202 O 0.29376 0.56554 0.29921 0.0
O203 O 0.25877 0.57884 0.30882 0.0
O204 O 0.29742 0.61896 0.27543 0.0
C205 C 0.27038 0.5633 0.30171 0.0
O206 O 0.29348 0.5804 0.35963 0.0
C207 C 0.28173 0.63283 0.28064 0.0
O208 O 0.28882 0.61074 0.34441 0.0
O209 O 0.27317 0.63198 0.29889 0.0
C210 C 0.36945 0.32117 0.37324 0.0
O211 O 0.36509 0.32863 0.39099 0.0
Cd212 Cd 0.3244 0.33228 0.40643 0.0
O213 O 0.35155 0.31434 0.36213 0.0
Cd214 Cd 0.30519 0.31044 0.36577 0.0
C215 C 0.29497 0.36157 0.36948 0.0
O216 O 0.30349 0.30025 0.40159 0.0
O217 O 0.26852 0.31133 0.38909 0.0
O218 O 0.30312 0.27613 0.35064 0.0
C219 C 0.28017 0.3032 0.40411 0.0
O220 O 0.30208 0.36011 0.3882 0.0
C221 C 0.2895 0.28153 0.33548 0.0
O222 O 0.29637 0.34621 0.35735 0.0
O223 O 0.28351 0.30045 0.33427 0.0
C224 C 0.28033 0.24532 0.32508 0.0
C225 C 0.28035 0.26642 0.32032 0.0
C226 C 0.27049 0.23107 0.31117 0.0
C227 C 0.2291 0.22772 0.26504 0.0
H228 H 0.2581 0.17295 0.26095 0.0
C229 C 0.20648 0.16926 0.20028 0.0
C230 C 0.19988 0.1494 0.20698 0.0
C231 C 0.21546 0.18378 0.2143 0.0
C232 C 0.24976 0.18816 0.26208 0.0
H233 H 0.27081 0.28918 0.29709 0.0
H234 H 0.25467 0.2643 0.27238 0.0
H235 H 0.2766 0.19795 0.28445 0.0
H236 H 0.19736 0.12914 0.23353 0.0
H237 H 0.21369 0.15448 0.25799 0.0
H238 H 0.20283 0.21794 0.242 0.0
C239 C 0.26141 0.25872 0.28713 0.0
C240 C 0.26025 0.20248 0.27559 0.0
C241 C 0.27085 0.273 0.30121 0.0
C242 C 0.20224 0.14436 0.22797 0.0
C243 C 0.21168 0.15877 0.24192 0.0
C244 C 0.21892 0.2135 0.25127 0.0
C245 C 0.26085 0.23758 0.29201 0.0
C246 C 0.24998 0.22243 0.27733 0.0
C247 C 0.21842 0.17856 0.23517 0.0
C248 C 0.22909 0.19359 0.24977 0.0
H249 H 0.28735 0.23984 0.33979 0.0
H250 H 0.26998 0.215 0.31566 0.0
H251 H 0.22035 0.24276 0.26623 0.0
H252 H 0.20479 0.17356 0.18418 0.0
H253 H 0.22066 0.19894 0.20876 0.0
C254 C 0.69846 0.31877 0.24626 0.0
C255 C 0.70851 0.31897 0.26629 0.0
C256 C 0.70697 0.30444 0.23177 0.0
C257 C 0.73954 0.28104 0.20118 0.0
H258 H 0.75094 0.22426 0.21756 0.0
C259 C 0.78759 0.22164 0.1477 0.0
C260 C 0.77676 0.20194 0.14702 0.0
C261 C 0.7797 0.236 0.16241 0.0
C262 C 0.74772 0.24004 0.21272 0.0
H263 H 0.73526 0.30428 0.2869 0.0
H264 H 0.75021 0.27936 0.26158 0.0
H265 H 0.73553 0.24905 0.24284 0.0
H266 H 0.74922 0.18181 0.16123 0.0
H267 H 0.73537 0.20688 0.18673 0.0
H268 H 0.75128 0.27193 0.17095 0.0
C269 C 0.73558 0.29014 0.25713 0.0
C270 C 0.73914 0.25428 0.22725 0.0
C271 C 0.72709 0.30447 0.2716 0.0
C272 C 0.75799 0.19685 0.16138 0.0
C273 C 0.75015 0.21117 0.17608 0.0
C274 C 0.74817 0.26681 0.18665 0.0
C275 C 0.72568 0.29001 0.23704 0.0
C276 C 0.73489 0.27492 0.22162 0.0
C277 C 0.76088 0.23091 0.17674 0.0
C278 C 0.75227 0.24614 0.19226 0.0
H279 H 0.68407 0.32972 0.24172 0.0
H280 H 0.69874 0.30454 0.21649 0.0
H281 H 0.73671 0.29689 0.19643 0.0
H282 H 0.80213 0.22598 0.13686 0.0
H283 H 0.78851 0.25101 0.16269 0.0
C284 C 0.77353 0.80068 0.19699 0.0
C285 C 0.78029 0.82029 0.20417 0.0
C286 C 0.76448 0.7858 0.21063 0.0
C287 C 0.75906 0.77353 0.26665 0.0
H288 H 0.70647 0.73693 0.24759 0.0
C289 C 0.69878 0.72343 0.321 0.0
C290 C 0.69867 0.70232 0.31625 0.0
C291 C 0.70871 0.73766 0.30707 0.0
C292 C 0.72123 0.74702 0.25303 0.0
H293 H 0.78296 0.83977 0.23118 0.0
H294 H 0.7662 0.81418 0.2549 0.0
H295 H 0.72429 0.7622 0.22391 0.0
H296 H 0.7081 0.67955 0.29301 0.0
H297 H 0.72483 0.70461 0.26836 0.0
H298 H 0.75514 0.7587 0.29602 0.0
C299 C 0.76858 0.80996 0.23887 0.0
C300 C 0.7316 0.7614 0.23947 0.0
C301 C 0.77807 0.82471 0.22526 0.0
C302 C 0.708 0.69574 0.29707 0.0
C303 C 0.71749 0.71003 0.28298 0.0
C304 C 0.74835 0.7594 0.28028 0.0
C305 C 0.76153 0.79033 0.23172 0.0
C306 C 0.7507 0.77484 0.24609 0.0
C307 C 0.71823 0.73105 0.288 0.0
C308 C 0.7294 0.74603 0.27356 0.0
H309 H 0.77526 0.79682 0.1808 0.0
H310 H 0.75982 0.77074 0.20461 0.0
H311 H 0.77405 0.78328 0.27222 0.0
H312 H 0.69178 0.72891 0.3357 0.0
H313 H 0.70896 0.75383 0.31117 0.0
C314 C 0.25587 0.66397 0.27247 0.0
C315 C 0.27347 0.64906 0.26616 0.0
C316 C 0.24757 0.67912 0.25875 0.0
C317 C 0.24158 0.69029 0.20335 0.0
H318 H 0.23259 0.74662 0.22199 0.0
C319 C 0.22255 0.77589 0.16666 0.0
C320 C 0.20319 0.77123 0.15271 0.0
C321 C 0.23079 0.76119 0.18089 0.0
C322 C 0.23515 0.73098 0.21652 0.0
H323 H 0.29637 0.63843 0.2406 0.0
H324 H 0.28201 0.66505 0.21665 0.0
H325 H 0.24876 0.72067 0.24583 0.0
H326 H 0.17693 0.74767 0.14299 0.0
H327 H 0.19115 0.72206 0.16801 0.0
H328 H 0.22841 0.70068 0.17394 0.0
C329 C 0.27442 0.66485 0.23215 0.0
C330 C 0.24417 0.71608 0.23023 0.0
C331 C 0.28274 0.64969 0.24589 0.0
C332 C 0.19195 0.75169 0.1535 0.0
C333 C 0.2002 0.73698 0.16773 0.0
C334 C 0.23254 0.70518 0.18965 0.0
C335 C 0.25669 0.67969 0.23842 0.0
C336 C 0.24747 0.69557 0.22379 0.0
C337 C 0.21985 0.74152 0.18147 0.0
C338 C 0.22921 0.72568 0.1961 0.0
H339 H 0.24832 0.66387 0.28798 0.0
H340 H 0.23367 0.69017 0.26397 0.0
H341 H 0.24367 0.67457 0.198 0.0
H342 H 0.23162 0.79081 0.1664 0.0
H343 H 0.24614 0.76508 0.19113 0.0
C344 C 0.27502 0.72448 0.64401 0.0
C345 C 0.2761 0.70343 0.64893 0.0
C346 C 0.26582 0.7387 0.6583 0.0
C347 C 0.22856 0.74185 0.70686 0.0
H348 H 0.25605 0.79711 0.7087 0.0
C349 C 0.21068 0.8003 0.77267 0.0
C350 C 0.20164 0.81965 0.76627 0.0
C351 C 0.21922 0.78601 0.75819 0.0
C352 C 0.24816 0.78174 0.70823 0.0
H353 H 0.26909 0.68073 0.67276 0.0
H354 H 0.25417 0.70558 0.6981 0.0
H355 H 0.27302 0.77221 0.68419 0.0
H356 H 0.19455 0.83932 0.73982 0.0
H357 H 0.21024 0.81441 0.71449 0.0
H358 H 0.20441 0.75139 0.73157 0.0
C359 C 0.25951 0.71113 0.68297 0.0
C360 C 0.25774 0.76749 0.69413 0.0
C361 C 0.26825 0.69687 0.66852 0.0
C362 C 0.20136 0.82449 0.74514 0.0
C363 C 0.21039 0.81033 0.7307 0.0
C364 C 0.21935 0.75601 0.72121 0.0
C365 C 0.25795 0.73222 0.678 0.0
C366 C 0.24799 0.74736 0.6932 0.0
C367 C 0.21933 0.79099 0.73713 0.0
C368 C 0.22901 0.77606 0.72193 0.0
H369 H 0.28076 0.72993 0.62893 0.0
H370 H 0.26447 0.75471 0.65372 0.0
H371 H 0.22018 0.72669 0.70635 0.0
H372 H 0.21104 0.79617 0.78886 0.0
H373 H 0.22615 0.77118 0.76346 0.0
C374 C 0.19708 0.2223 0.81949 0.0
C375 C 0.20743 0.20239 0.82064 0.0
C376 C 0.20629 0.23656 0.80524 0.0
C377 C 0.23975 0.26697 0.78261 0.0
H378 H 0.25535 0.24945 0.72689 0.0
C379 C 0.28979 0.32004 0.72413 0.0
C380 C 0.28008 0.32015 0.70398 0.0
C381 C 0.28167 0.30539 0.73845 0.0
C382 C 0.25097 0.2546 0.74236 0.0
H383 H 0.23547 0.18176 0.80773 0.0
H384 H 0.25166 0.20669 0.78298 0.0
H385 H 0.23883 0.22457 0.75157 0.0
H386 H 0.25442 0.30492 0.68297 0.0
H387 H 0.24014 0.27951 0.70797 0.0
H388 H 0.25138 0.29711 0.77326 0.0
C389 C 0.23625 0.21122 0.79293 0.0
C390 C 0.24175 0.24031 0.75655 0.0
C391 C 0.22705 0.19697 0.80717 0.0
C392 C 0.2623 0.30521 0.69837 0.0
C393 C 0.25422 0.29057 0.71266 0.0
C394 C 0.249 0.28127 0.76842 0.0
C395 C 0.22602 0.23119 0.79184 0.0
C396 C 0.23596 0.24635 0.77681 0.0
C397 C 0.26373 0.29054 0.73287 0.0
C398 C 0.25461 0.27525 0.74812 0.0
H399 H 0.1819 0.22692 0.82964 0.0
H400 H 0.1978 0.25175 0.80458 0.0
H401 H 0.23573 0.27204 0.79818 0.0
H402 H 0.30356 0.33133 0.72888 0.0
H403 H 0.28955 0.30559 0.75384 0.0
C404 C 0.77203 0.16647 0.7699 0.0
C405 C 0.77974 0.14695 0.76293 0.0
C406 C 0.76268 0.18107 0.75601 0.0
C407 C 0.72997 0.18594 0.70733 0.0
H408 H 0.75818 0.24089 0.70473 0.0
C409 C 0.70236 0.24339 0.64329 0.0
C410 C 0.70182 0.26448 0.64806 0.0
C411 C 0.7113 0.22909 0.65766 0.0
C412 C 0.74972 0.22575 0.70548 0.0
H413 H 0.78369 0.12734 0.73606 0.0
H414 H 0.76676 0.15277 0.71183 0.0
H415 H 0.77501 0.21597 0.72933 0.0
H416 H 0.70932 0.28713 0.67179 0.0
H417 H 0.72386 0.26216 0.69721 0.0
H418 H 0.70415 0.1957 0.68404 0.0
C419 C 0.76817 0.15675 0.72801 0.0
C420 C 0.75952 0.21148 0.71949 0.0
C421 C 0.77797 0.14229 0.74183 0.0
C422 C 0.70974 0.27096 0.66764 0.0
C423 C 0.71827 0.25664 0.68215 0.0
C424 C 0.71986 0.20031 0.69357 0.0
C425 C 0.76044 0.17623 0.735 0.0
C426 C 0.74984 0.19143 0.72041 0.0
C427 C 0.71948 0.23553 0.67726 0.0
C428 C 0.72972 0.22038 0.69235 0.0
H429 H 0.77324 0.17047 0.78608 0.0
H430 H 0.75673 0.19599 0.76173 0.0
H431 H 0.72202 0.1706 0.70798 0.0
H432 H 0.69652 0.23799 0.62824 0.0
H433 H 0.71233 0.21305 0.65317 0.0
C434 C 0.76406 0.77291 0.80114 0.0
C435 C 0.77197 0.7659 0.8206 0.0
C436 C 0.75558 0.75895 0.78633 0.0
C437 C 0.72563 0.70953 0.78021 0.0
H438 H 0.75739 0.70749 0.72643 0.0
C439 C 0.70336 0.645 0.72224 0.0
C440 C 0.70371 0.64975 0.70113 0.0
C441 C 0.71141 0.65943 0.73674 0.0
C442 C 0.74795 0.70807 0.74121 0.0
H443 H 0.77697 0.73892 0.83998 0.0
H444 H 0.76145 0.71457 0.81421 0.0
H445 H 0.77153 0.7326 0.7518 0.0
H446 H 0.71212 0.67341 0.67857 0.0
H447 H 0.72507 0.69896 0.70384 0.0
H448 H 0.70146 0.68559 0.76962 0.0
C449 C 0.76209 0.73083 0.81042 0.0
C450 C 0.7562 0.72238 0.75575 0.0
C451 C 0.77105 0.74473 0.82507 0.0
C452 C 0.71188 0.66929 0.69476 0.0
C453 C 0.71947 0.68387 0.70927 0.0
C454 C 0.71703 0.69548 0.76556 0.0
C455 C 0.7544 0.73783 0.79093 0.0
C456 C 0.74523 0.72309 0.77539 0.0
C457 C 0.71952 0.67909 0.73045 0.0
C458 C 0.72822 0.69444 0.7459 0.0
H459 H 0.76464 0.78915 0.79728 0.0
H460 H 0.74964 0.76465 0.77139 0.0
H461 H 0.71675 0.70999 0.79524 0.0
H462 H 0.69732 0.62997 0.72755 0.0
H463 H 0.71164 0.65499 0.75283 0.0
C464 C 0.22665 0.15139 0.935 0.0
C465 C 0.21162 0.1676 0.92764 0.0
C466 C 0.2291 0.14803 0.9562 0.0
C467 C 0.19301 0.15919 0.00376 0.0
H468 H 0.24651 0.12753 0.02942 0.0
C469 C 0.18975 0.13358 0.08887 0.0
C470 C 0.1919 0.11213 0.09151 0.0
C471 C 0.19579 0.14271 0.07001 0.0
C472 C 0.23152 0.13645 0.02241 0.0
H473 H 0.18947 0.19423 0.93631 0.0
H474 H 0.19515 0.18934 0.97329 0.0
H475 H 0.25231 0.14116 -0.00543 0.0
H476 H 0.20295 0.08353 0.07671 0.0
H477 H 0.21392 0.09964 0.04377 0.0
H478 H 0.17241 0.15457 0.03172 0.0
C479 C 0.20402 0.17852 0.96288 0.0
C480 C 0.23473 0.14419 0.00243 0.0
C481 C 0.20102 0.18152 0.9417 0.0
C482 C 0.20093 0.10007 0.07509 0.0
C483 C 0.20741 0.10928 0.05633 0.0
C484 C 0.19004 0.15182 0.02382 0.0
C485 C 0.21696 0.1611 0.97043 0.0
C486 C 0.21527 0.15527 -0.00736 0.0
C487 C 0.20456 0.13063 0.05357 0.0
C488 C 0.20902 0.14004 0.03314 0.0
H489 H 0.23483 0.14031 0.92443 0.0
H490 H 0.23905 0.13436 0.96128 0.0
H491 H 0.17729 0.16716 -0.00327 0.0
H492 H 0.18285 0.14328 0.10124 0.0
H493 H 0.19346 0.15921 0.06821 0.0
C494 C 0.77669 0.09278 0.89209 0.0
C495 C 0.78874 0.10557 0.87773 0.0
C496 C 0.76879 0.10062 0.91108 0.0
C497 C 0.76023 0.15008 0.94037 0.0
H498 H 0.76729 0.11379 -0.01242 0.0
C499 C 0.78093 0.17383 0.02447 0.0
C500 C 0.76787 0.16354 0.0402 0.0
C501 C 0.77656 0.16896 0.00382 0.0
C502 C 0.76478 0.124 0.97449 0.0
H503 H 0.802 0.13656 0.87188 0.0
H504 H 0.78969 0.14998 0.90539 0.0
H505 H 0.7743 0.10029 0.95317 0.0
H506 H 0.73886 0.14106 0.04674 0.0
H507 H 0.73176 0.13212 0.01054 0.0
H508 H 0.75264 0.17413 0.96225 0.0
C509 C 0.78531 0.1341 0.90184 0.0
C510 C 0.76872 0.11627 0.95469 0.0
C511 C 0.79265 0.12637 0.88265 0.0
C512 C 0.74909 0.14932 0.0349 0.0
C513 C 0.74511 0.14413 0.01425 0.0
C514 C 0.75683 0.15791 0.96027 0.0
C515 C 0.77335 0.12132 0.91639 0.0
C516 C 0.76689 0.12926 0.93733 0.0
C517 C 0.75941 0.15343 -0.00138 0.0
C518 C 0.75938 0.14496 0.97748 0.0
H519 H 0.77309 0.07675 0.88855 0.0
H520 H 0.75912 0.09037 0.92159 0.0
H521 H 0.75803 0.16048 0.92742 0.0
H522 H 0.79551 0.18483 0.02819 0.0
H523 H 0.78794 0.17623 -0.00797 0.0
C524 C 0.77289 0.78972 0.94154 0.0
C525 C 0.76472 0.80405 0.92679 0.0
C526 C 0.76954 0.79363 0.96252 0.0
C527 C 0.74223 0.83152 0.00029 0.0
H528 H 0.80222 0.81693 0.03108 0.0
C529 C 0.77788 0.87369 0.07352 0.0
C530 C 0.78575 0.86115 0.09002 0.0
C531 C 0.77098 0.86489 0.05468 0.0
C532 C 0.7852 0.82089 0.02277 0.0
H533 H 0.7454 0.83311 0.92211 0.0
H534 H 0.7406 0.84052 0.95865 0.0
H535 H 0.79685 0.804 -0.00367 0.0
H536 H 0.79215 0.82955 0.0998 0.0
H537 H 0.78068 0.81431 0.06676 0.0
H538 H 0.73162 0.84954 0.02667 0.0
C539 C 0.74887 0.82592 0.95425 0.0
C540 C 0.78195 0.81334 0.00285 0.0
C541 C 0.75164 0.82171 0.93323 0.0
C542 C 0.78622 0.83965 0.08739 0.0
C543 C 0.77969 0.8309 0.0685 0.0
C544 C 0.74574 0.83938 0.02016 0.0
C545 C 0.75874 0.81232 0.96918 0.0
C546 C 0.76054 0.81869 -0.00879 0.0
C547 C 0.77219 0.84344 0.05194 0.0
C548 C 0.76738 0.83426 0.03147 0.0
H549 H 0.78291 0.77592 0.93687 0.0
H550 H 0.77659 0.78244 0.97351 0.0
H551 H 0.72533 0.83574 -0.00803 0.0
H552 H 0.77716 0.8903 0.07511 0.0
H553 H 0.76546 0.87488 0.04206 0.0
C554 C 0.2306 0.8199 0.03868 0.0
C555 C 0.2161 0.80352 0.04618 0.0
C556 C 0.23423 0.82234 0.01748 0.0
C557 C 0.20162 0.80766 0.96924 0.0
H558 H 0.25293 0.84208 0.94457 0.0
C559 C 0.19768 0.83347 0.88431 0.0
C560 C 0.19658 0.85504 0.88232 0.0
C561 C 0.20506 0.82444 0.90292 0.0
C562 C 0.23862 0.83232 0.95129 0.0
H563 H 0.19623 0.77571 0.03795 0.0
H564 H 0.20417 0.77897 0.00107 0.0
H565 H 0.25866 0.82918 0.97971 0.0
H566 H 0.20351 0.88403 0.89787 0.0
H567 H 0.21687 0.86814 0.93035 0.0
H568 H 0.18177 0.81077 0.94071 0.0
C569 C 0.21164 0.79062 0.01128 0.0
C570 C 0.24175 0.82502 0.97144 0.0
C571 C 0.20736 0.78854 0.03242 0.0
C572 C 0.204 0.86738 0.89902 0.0
C573 C 0.21185 0.85832 0.9175 0.0
C574 C 0.1988 0.81457 0.94901 0.0
C575 C 0.22388 0.80817 0.00341 0.0
C576 C 0.22291 0.81309 0.98093 0.0
C577 C 0.21197 0.83679 0.91971 0.0
C578 C 0.21692 0.82739 0.94006 0.0
H579 H 0.23729 0.83178 0.04902 0.0
H580 H 0.24356 0.83617 0.0122 0.0
H581 H 0.18634 0.79897 0.97596 0.0
H582 H 0.19207 0.82355 0.87172 0.0
H583 H 0.20498 0.80779 0.90432 0.0
C584 C 0.07997 0.11811 0.15437 0.0
C585 C 0.08712 0.09723 0.15405 0.0
C586 C 0.05482 0.12377 0.15132 0.0
C587 C -0.00182 0.10306 0.1263 0.0
H588 H 0.9651 0.15093 0.14978 0.0
C589 C 0.89344 0.14254 0.12481 0.0
C590 C 0.88838 0.14001 0.10368 0.0
C591 C 0.91758 0.13866 0.13261 0.0
C592 C 0.97403 0.13742 0.14322 0.0
H593 H 0.07331 0.0659 0.15208 0.0
H594 H 0.02952 0.07569 0.14747 0.0
H595 H 0.0068 0.14071 0.16222 0.0
H596 H 0.90503 0.13276 0.07399 0.0
H597 H 0.94693 0.1265 0.08743 0.0
H598 H 0.96555 0.09945 0.10759 0.0
C599 C 0.04335 0.08776 0.1493 0.0
C600 C -0.00201 0.13167 0.15021 0.0
C601 C 0.06845 0.08213 0.15206 0.0
C602 C 0.90817 0.13453 0.0904 0.0
C603 C 0.9322 0.13083 0.09813 0.0
C604 C 0.97436 0.10874 0.1194 0.0
C605 C 0.03634 0.10865 0.14811 0.0
C606 C 0.01039 0.11446 0.14174 0.0
C607 C 0.93707 0.13229 0.11938 0.0
C608 C 0.96209 0.12612 0.12756 0.0
H609 H 0.09397 0.1301 0.15586 0.0
H610 H 0.05011 0.14 0.15041 0.0
H611 H 0.00726 0.08993 0.11914 0.0
H612 H 0.87858 0.14675 0.13543 0.0
H613 H 0.92072 0.13988 0.14906 0.0
C614 C 0.74881 0.9308 0.14828 0.0
C615 C 0.76121 0.92492 0.16646 0.0
C616 C 0.74376 0.9516 0.14439 0.0
C617 C 0.77014 0.00192 0.15973 0.0
H618 H 0.7223 0.02264 0.11957 0.0
C619 C 0.77338 0.08548 0.13093 0.0
C620 C 0.776 0.08706 0.1094 0.0
C621 C 0.76581 0.06699 0.13998 0.0
C622 C 0.73565 0.01703 0.1309 0.0
H623 H 0.77564 0.93546 0.19577 0.0
H624 H 0.76513 0.97157 0.18977 0.0
H625 H 0.71746 -0.01223 0.13336 0.0
H626 H 0.77141 0.07079 0.08043 0.0
H627 H 0.75796 0.03846 0.09634 0.0
H628 H 0.78828 0.03115 0.15721 0.0
C629 C 0.76046 0.96045 0.17797 0.0
C630 C 0.73299 -0.00295 0.13875 0.0
C631 C 0.76618 0.93975 0.18156 0.0
C632 C 0.76975 0.07002 0.09706 0.0
C633 C 0.76185 0.05159 0.10614 0.0
C634 C 0.77248 0.02194 0.15219 0.0
C635 C 0.75056 0.96681 0.15883 0.0
C636 C 0.75062 -0.01098 0.15288 0.0
C637 C 0.76036 0.04979 0.12769 0.0
C638 C 0.75565 0.02951 0.13735 0.0
H639 H 0.74506 0.91963 0.13631 0.0
H640 H 0.7363 0.95576 0.12942 0.0
H641 H 0.78453 -0.00368 0.17014 0.0
H642 H 0.77795 0.09832 0.14088 0.0
H643 H 0.76471 0.06598 0.15664 0.0
C644 C 0.89989 0.85327 0.15167 0.0
C645 C 0.89256 0.87409 0.151 0.0
C646 C 0.92506 0.84769 0.14857 0.0
C647 C 0.98201 0.84034 0.14818 0.0
H648 H 0.01482 0.87176 0.10505 0.0
C649 C 0.08742 0.83027 0.12556 0.0
C650 C 0.09327 0.83215 0.10448 0.0
C651 C 0.06296 0.83416 0.13259 0.0
C652 C 0.00591 0.86269 0.11701 0.0
H653 H 0.90609 0.90546 0.14818 0.0
H654 H 0.94988 0.89583 0.14341 0.0
H655 H 0.97259 0.88096 0.11558 0.0
H656 H 0.07772 0.83844 0.07417 0.0
H657 H 0.03525 0.84474 0.08631 0.0
H658 H 0.01535 0.82164 0.149 0.0
C659 C 0.93617 0.88372 0.14559 0.0
C660 C 0.98177 0.86819 0.1233 0.0
C661 C 0.91107 0.88926 0.14844 0.0
C662 C 0.07397 0.83714 0.09054 0.0
C663 C 0.04961 0.84087 0.09752 0.0
C664 C 0.00628 0.83478 0.14181 0.0
C665 C 0.94338 0.86287 0.14494 0.0
C666 C 0.96947 0.8571 0.13895 0.0
C667 C 0.04389 0.83991 0.11866 0.0
C668 C 0.0184 0.84581 0.12601 0.0
H669 H 0.88603 0.84123 0.1536 0.0
H670 H 0.92993 0.83148 0.14807 0.0
H671 H 0.97313 0.83156 0.16037 0.0
H672 H 0.10188 0.82644 0.13669 0.0
H673 H 0.0592 0.83337 0.14899 0.0
C674 C 0.21117 0.0292 0.17612 0.0
C675 C 0.21981 0.04626 0.16487 0.0
C676 C 0.21838 0.00927 0.17054 0.0
C677 C 0.22924 0.98188 0.12392 0.0
H678 H 0.24382 0.93531 0.15952 0.0
C679 C 0.21762 0.89917 0.09395 0.0
C680 C 0.20668 0.88509 0.10771 0.0
C681 C 0.22655 0.91813 0.10101 0.0
C682 C 0.23956 0.94812 0.14937 0.0
H683 H 0.24416 0.05606 0.13991 0.0
H684 H 0.25626 0.02107 0.12981 0.0
H685 H 0.24751 0.97032 0.17297 0.0
H686 H 0.19686 0.87963 0.1397 0.0
H687 H 0.21113 0.91295 0.15186 0.0
H688 H 0.21929 0.96007 0.10083 0.0
C689 C 0.24412 0.02319 0.14306 0.0
C690 C 0.24195 0.96814 0.15705 0.0
C691 C 0.23728 0.04317 0.14891 0.0
C692 C 0.2053 0.89015 0.12873 0.0
C693 C 0.21375 0.90924 0.13573 0.0
C694 C 0.22639 0.96191 0.11635 0.0
C695 C 0.23401 0.00607 0.15339 0.0
C696 C 0.23625 -0.01484 0.14452 0.0
C697 C 0.22425 0.92361 0.12194 0.0
C698 C 0.23085 0.94473 0.12913 0.0
H699 H 0.19771 0.0312 0.18851 0.0
H700 H 0.21017 -0.00367 0.17866 0.0
H701 H 0.22435 -0.00524 0.11403 0.0
H702 H 0.21926 0.89555 0.0777 0.0
H703 H 0.235 0.92855 0.08998 0.0
C704 C 0.89293 0.81534 0.84308 0.0
C705 C 0.88889 0.81653 0.86448 0.0
C706 C 0.91726 0.81683 0.83502 0.0
C707 C 0.98456 0.81319 0.84846 0.0
H708 H -0.00648 0.8568 0.80818 0.0
C709 C 0.06584 0.87326 0.82595 0.0
C710 C 0.0867 0.86031 0.82278 0.0
C711 C 0.04165 0.86511 0.82698 0.0
C712 C -0.00874 0.84443 0.81925 0.0
H713 H 0.90724 0.81911 0.89423 0.0
H714 H 0.94959 0.82146 0.88019 0.0
H715 H 0.95111 0.84633 0.81807 0.0
H716 H 0.09851 0.8287 0.8177 0.0
H717 H 0.05603 0.81436 0.81997 0.0
H718 H 0.02475 0.81184 0.85021 0.0
C719 C 0.934 0.81944 0.86965 0.0
C720 C 0.96703 0.83834 0.8248 0.0
C721 C 0.90972 0.81826 0.87767 0.0
C722 C 0.08278 0.83906 0.82013 0.0
C723 C 0.05854 0.83085 0.8215 0.0
C724 C 0.00881 0.81911 0.84272 0.0
C725 C 0.93798 0.81917 0.84824 0.0
C726 C 0.96346 0.82309 0.83992 0.0
C727 C 0.03779 0.8438 0.82513 0.0
C728 C 0.01237 0.83522 0.82854 0.0
H729 H 0.87725 0.81402 0.83252 0.0
H730 H 0.91985 0.81651 0.81845 0.0
H731 H 0.98231 0.8013 0.86005 0.0
H732 H 0.06822 0.88971 0.82795 0.0
H733 H 0.02603 0.87544 0.83002 0.0
C734 C 0.19203 0.94136 0.79908 0.0
C735 C 0.20788 0.92538 0.80584 0.0
C736 C 0.19818 0.96187 0.80284 0.0
C737 C 0.21732 0.00514 0.80811 0.0
H738 H 0.23598 0.01444 0.86514 0.0
C739 C 0.21386 0.08642 0.84333 0.0
C740 C 0.20197 0.08765 0.86267 0.0
C741 C 0.22134 0.06738 0.83533 0.0
C742 C 0.23082 0.01212 0.84916 0.0
H743 H 0.24351 0.91835 0.82053 0.0
H744 H 0.25437 0.95438 0.82707 0.0
H745 H 0.23711 0.97962 0.85121 0.0
H746 H 0.18941 0.06987 0.88906 0.0
H747 H 0.20187 0.03668 0.87494 0.0
H748 H 0.20935 0.03738 0.80643 0.0
C749 C 0.23701 0.95096 0.81907 0.0
C750 C 0.23182 -0.00782 0.84107 0.0
C751 C 0.23088 0.93036 0.81521 0.0
C752 C 0.1985 0.06949 0.87412 0.0
C753 C 0.20586 0.05045 0.86608 0.0
C754 C 0.21621 0.02505 0.81622 0.0
C755 C 0.22033 0.9669 0.81348 0.0
C756 C 0.22423 -0.01163 0.82066 0.0
C757 C 0.21701 0.04912 0.84644 0.0
C758 C 0.22214 0.02866 0.83703 0.0
H759 H 0.17424 0.938 0.79171 0.0
H760 H 0.18475 0.97368 0.79851 0.0
H761 H 0.21172 0.00275 0.79224 0.0
H762 H 0.21707 0.10015 0.83418 0.0
H763 H 0.23021 0.06695 0.8203 0.0
C764 C 0.07155 0.14104 0.87667 0.0
C765 C 0.09187 0.14456 0.86331 0.0
C766 C 0.04768 0.13705 0.86888 0.0
C767 C 0.00676 0.11254 0.849 0.0
H768 H 0.97422 0.14079 0.80347 0.0
C769 C 0.90141 0.11762 0.81301 0.0
C770 C 0.89517 0.09661 0.81431 0.0
C771 C 0.9263 0.124 0.81578 0.0
C772 C 0.9831 0.1328 0.81623 0.0
H773 H 0.10276 0.14777 0.83123 0.0
H774 H 0.06077 0.14048 0.81752 0.0
H775 H 0.01563 0.15231 0.8154 0.0
H776 H 0.91038 0.06574 0.81777 0.0
H777 H 0.95366 0.07678 0.82209 0.0
H778 H 0.97434 0.0934 0.85038 0.0
C779 C 0.06345 0.14094 0.83408 0.0
C780 C 0.00684 0.13929 0.82294 0.0
C781 C 0.08747 0.14507 0.84192 0.0
C782 C 0.9145 0.08206 0.81704 0.0
C783 C 0.93931 0.0884 0.8196 0.0
C784 C 0.98322 0.10607 0.84233 0.0
C785 C 0.04349 0.13631 0.84751 0.0
C786 C 0.01876 0.12935 0.83958 0.0
C787 C 0.94539 0.10947 0.81974 0.0
C788 C 0.97101 0.11613 0.82592 0.0
H789 H 0.07417 0.14087 0.89324 0.0
H790 H 0.03255 0.13406 0.87965 0.0
H791 H 0.0156 0.10432 0.86164 0.0
H792 H 0.88691 0.1292 0.8109 0.0
H793 H 0.93035 0.14034 0.81587 0.0
C794 C 0.78338 0.88519 0.84161 0.0
C795 C 0.7822 0.88054 0.86273 0.0
C796 C 0.77579 0.90451 0.83436 0.0
C797 C 0.76474 0.95794 0.85281 0.0
H798 H 0.74132 0.96567 0.79666 0.0
C799 C 0.74852 0.0387 0.81994 0.0
C800 C 0.76537 0.04238 0.80366 0.0
C801 C 0.74316 0.01852 0.82603 0.0
C802 C 0.74757 0.96367 0.81244 0.0
H803 H 0.77107 0.89203 0.89274 0.0
H804 H 0.75672 0.9254 0.88006 0.0
H805 H 0.74601 0.93082 0.81049 0.0
H806 H 0.78787 0.02807 0.77977 0.0
H807 H 0.77789 -0.00721 0.79004 0.0
H808 H 0.76622 -0.00917 0.85467 0.0
C809 C 0.76441 0.9145 0.8691 0.0
C810 C 0.75055 0.94374 0.82033 0.0
C811 C 0.77254 0.89533 0.8764 0.0
C812 C 0.77485 0.02562 0.79238 0.0
C813 C 0.76909 0.00546 0.79821 0.0
C814 C 0.76127 0.97781 0.84506 0.0
C815 C 0.76631 0.9195 0.84801 0.0
C816 C 0.75992 0.94059 0.84044 0.0
C817 C 0.75411 0.00177 0.81564 0.0
C818 C 0.7533 0.98085 0.82465 0.0
H819 H 0.79086 0.8741 0.83072 0.0
H820 H 0.7781 0.90782 0.81811 0.0
H821 H 0.7724 0.9563 0.86819 0.0
H822 H 0.74104 0.05134 0.82898 0.0
H823 H 0.73151 0.016 0.8395 0.0
C824 C 0.72667 0.64804 0.4274 0.0
C825 C 0.71346 0.66562 0.42088 0.0
C826 C 0.73101 0.64464 0.44839 0.0
C827 C 0.70196 0.65977 0.498 0.0
H828 H 0.75182 0.62217 0.52037 0.0
C829 C 0.70027 0.63357 0.5827 0.0
C830 C 0.69875 0.61206 0.58499 0.0
C831 C 0.70704 0.64225 0.5638 0.0
C832 C 0.73789 0.63278 0.51429 0.0
H833 H 0.69668 0.6944 0.4306 0.0
H834 H 0.70587 0.68934 0.46709 0.0
H835 H 0.75666 0.63529 0.48521 0.0
H836 H 0.70427 0.58276 0.56952 0.0
H837 H 0.71645 0.59803 0.53648 0.0
H838 H 0.68335 0.65729 0.52712 0.0
C839 C 0.71177 0.67758 0.45628 0.0
C840 C 0.74054 0.64023 0.49414 0.0
C841 C 0.70679 0.68067 0.43536 0.0
C842 C 0.70511 0.59939 0.56819 0.0
C843 C 0.71228 0.60809 0.54936 0.0
C844 C 0.69963 0.65266 0.5182 0.0
C845 C 0.72264 0.65899 0.4632 0.0
C846 C 0.72225 0.65344 0.48553 0.0
C847 C 0.71284 0.62959 0.54692 0.0
C848 C 0.71723 0.63875 0.52636 0.0
H849 H 0.73174 0.63609 0.41649 0.0
H850 H 0.73924 0.63006 0.45297 0.0
H851 H 0.68709 0.66946 0.49195 0.0
H852 H 0.69553 0.64376 0.59535 0.0
H853 H 0.70739 0.65888 0.56227 0.0
C854 C 0.25187 0.64742 0.53761 0.0
C855 C 0.26543 0.66484 0.54384 0.0
C856 C 0.24798 0.64354 0.51666 0.0
C857 C 0.27845 0.65655 0.46705 0.0
H858 H 0.22706 0.62067 0.4448 0.0
C859 C 0.27917 0.63022 0.38251 0.0
C860 C 0.27934 0.60868 0.38014 0.0
C861 C 0.27297 0.63908 0.40145 0.0
C862 C 0.24144 0.63077 0.45085 0.0
H863 H 0.28335 0.69288 0.53352 0.0
H864 H 0.27502 0.68697 0.49705 0.0
H865 H 0.22251 0.6343 0.47975 0.0
H866 H 0.27205 0.57958 0.3955 0.0
H867 H 0.2609 0.59518 0.42862 0.0
H868 H 0.29723 0.65307 0.43811 0.0
C869 C 0.26849 0.6757 0.50811 0.0
C870 C 0.23894 0.63852 0.47088 0.0
C871 C 0.27299 0.67926 0.52901 0.0
C872 C 0.27226 0.59622 0.39689 0.0
C873 C 0.26568 0.60512 0.41577 0.0
C874 C 0.28067 0.64914 0.44698 0.0
C875 C 0.25715 0.65724 0.50158 0.0
C876 C 0.25771 0.65118 0.47942 0.0
C877 C 0.26642 0.6266 0.41829 0.0
C878 C 0.26247 0.63587 0.43884 0.0
H879 H 0.24607 0.63593 0.5488 0.0
H880 H 0.23936 0.6291 0.51237 0.0
H881 H 0.29368 0.66576 0.47309 0.0
H882 H 0.28449 0.64027 0.3699 0.0
H883 H 0.2736 0.65569 0.40303 0.0
C884 C 0.27778 0.28933 0.43976 0.0
C885 C 0.26996 0.30393 0.42516 0.0
C886 C 0.27287 0.29239 0.46068 0.0
C887 C 0.24176 0.32852 0.49834 0.0
H888 H 0.30008 0.31419 0.53132 0.0
C889 C 0.27453 0.37096 0.57221 0.0
C890 C 0.28202 0.35861 0.58897 0.0
C891 C 0.26776 0.36193 0.55346 0.0
C892 C 0.28349 0.31804 0.5224 0.0
H893 H 0.24973 0.33259 0.42059 0.0
H894 H 0.24231 0.33862 0.45708 0.0
H895 H 0.29716 0.30185 0.49619 0.0
H896 H 0.28756 0.32709 0.59938 0.0
H897 H 0.27636 0.31145 0.56645 0.0
H898 H 0.22926 0.34603 0.52452 0.0
C899 C 0.25145 0.32439 0.45258 0.0
C900 C 0.28164 0.31082 0.50223 0.0
C901 C 0.25575 0.32099 0.4316 0.0
C902 C 0.28193 0.33705 0.58676 0.0
C903 C 0.27554 0.32807 0.56795 0.0
C904 C 0.2439 0.33609 0.51846 0.0
C905 C 0.26085 0.31053 0.46748 0.0
C906 C 0.26093 0.31618 0.48977 0.0
C907 C 0.26872 0.34043 0.55107 0.0
C908 C 0.26495 0.33109 0.53054 0.0
H909 H 0.28863 0.27597 0.43507 0.0
H910 H 0.27962 0.28098 0.47157 0.0
H911 H 0.22532 0.33269 0.48941 0.0
H912 H 0.27424 0.3876 0.57348 0.0
H913 H 0.26276 0.37178 0.54059 0.0
C914 C 0.71645 0.37428 0.39561 0.0
C915 C 0.7053 0.36079 0.38143 0.0
C916 C 0.72507 0.36699 0.41463 0.0
C917 C 0.73661 0.31832 0.44479 0.0
H918 H 0.72383 0.35435 0.49129 0.0
C919 C 0.7098 0.29351 0.52708 0.0
C920 C 0.71988 0.30459 0.5437 0.0
C921 C 0.71636 0.29854 0.50686 0.0
C922 C 0.72801 0.34424 0.47844 0.0
H923 H 0.69471 0.32909 0.37582 0.0
H924 H 0.70831 0.31654 0.40935 0.0
H925 H 0.71831 0.36741 0.45653 0.0
H926 H 0.74605 0.32861 0.55239 0.0
H927 H 0.75699 0.3378 0.51688 0.0
H928 H 0.74426 0.29469 0.46716 0.0
C929 C 0.71139 0.3326 0.40566 0.0
C930 C 0.72491 0.35173 0.45842 0.0
C931 C 0.70331 0.33982 0.38646 0.0
C932 C 0.73807 0.31976 0.53985 0.0
C933 C 0.74425 0.32508 0.51958 0.0
C934 C 0.7392 0.31072 0.46487 0.0
C935 C 0.72216 0.34612 0.42012 0.0
C936 C 0.7286 0.33876 0.44129 0.0
C937 C 0.73276 0.31498 0.50293 0.0
C938 C 0.73446 0.32353 0.48184 0.0
H939 H 0.71857 0.39049 0.39198 0.0
H940 H 0.7338 0.37781 0.42508 0.0
H941 H 0.74026 0.30798 0.43204 0.0
H942 H 0.69576 0.28173 0.52968 0.0
H943 H 0.70711 0.29063 0.49428 0.0
C944 C 0.56993 0.59298 0.64246 0.0
C945 C 0.59046 0.60626 0.64522 0.0
C946 C 0.54554 0.60083 0.64108 0.0
C947 C 0.51167 0.64611 0.62388 0.0
H948 H 0.45449 0.61951 0.64965 0.0
C949 C 0.41175 0.64723 0.59025 0.0
C950 C 0.39131 0.64964 0.60376 0.0
C951 C 0.43621 0.64568 0.59788 0.0
C952 C 0.47027 0.62731 0.64258 0.0
H953 H 0.60144 0.63817 0.64919 0.0
H954 H 0.55866 0.65195 0.64635 0.0
H955 H 0.49712 0.60927 0.65946 0.0
H956 H 0.38054 0.65288 0.63587 0.0
H957 H 0.42343 0.64976 0.64925 0.0
H958 H 0.48481 0.66353 0.60636 0.0
C959 C 0.56157 0.63545 0.64539 0.0
C960 C 0.49463 0.62135 0.64808 0.0
C961 C 0.586 0.62755 0.64709 0.0
C962 C 0.39592 0.65105 0.62507 0.0
C963 C 0.4204 0.64919 0.63274 0.0
C964 C 0.4873 0.65189 0.61819 0.0
C965 C 0.54116 0.62216 0.64217 0.0
C966 C 0.51554 0.63039 0.63847 0.0
C967 C 0.44073 0.64625 0.61921 0.0
C968 C 0.46639 0.64224 0.62718 0.0
H969 H 0.57273 0.5765 0.64105 0.0
H970 H 0.53019 0.59025 0.63838 0.0
H971 H 0.52745 0.65323 0.61613 0.0
H972 H 0.40884 0.64618 0.57375 0.0
H973 H 0.45149 0.64321 0.58711 0.0
C974 C 0.28575 0.58325 0.62875 0.0
C975 C 0.28325 0.58816 0.60776 0.0
C976 C 0.278 0.56409 0.63618 0.0
C977 C 0.26363 0.51124 0.61768 0.0
H978 H 0.24479 0.50333 0.67494 0.0
C979 C 0.24715 0.43054 0.65037 0.0
C980 C 0.26556 0.42606 0.66527 0.0
C981 C 0.24195 0.45098 0.64498 0.0
C982 C 0.24973 0.5054 0.65886 0.0
H983 H 0.26957 0.57737 0.57825 0.0
H984 H 0.25487 0.54433 0.59129 0.0
H985 H 0.2495 0.53824 0.66133 0.0
H986 H 0.29116 0.43922 0.68758 0.0
H987 H 0.28147 0.47497 0.67861 0.0
H988 H 0.26373 0.47835 0.61531 0.0
C989 C 0.26376 0.55485 0.60196 0.0
C990 C 0.25273 0.52535 0.65107 0.0
C991 C 0.27207 0.57383 0.59445 0.0
C992 C 0.2769 0.44231 0.67604 0.0
C993 C 0.27131 0.46273 0.67096 0.0
C994 C 0.26008 0.49136 0.62535 0.0
C995 C 0.26702 0.54954 0.62287 0.0
C996 C 0.2605 0.52853 0.63052 0.0
C997 C 0.25465 0.46719 0.65476 0.0
C998 C 0.25377 0.48826 0.64612 0.0
H999 H 0.29441 0.594 0.63934 0.0
H1000 H 0.28139 0.56053 0.65225 0.0
H1001 H 0.27004 0.51287 0.60192 0.0
H1002 H 0.23821 0.41829 0.64174 0.0
H1003 H 0.229 0.45411 0.63246 0.0
C1004 C 0.57125 0.32492 0.58352 0.0
C1005 C 0.59037 0.32132 0.59803 0.0
C1006 C 0.54651 0.32807 0.5899 0.0
C1007 C 0.50255 0.32434 0.63433 0.0
H1008 H 0.46934 0.36926 0.60562 0.0
C1009 C 0.41065 0.38223 0.64069 0.0
C1010 C 0.39139 0.36809 0.64488 0.0
C1011 C 0.43511 0.37543 0.63699 0.0
C1012 C 0.47838 0.35682 0.61397 0.0
H1013 H 0.59833 0.31723 0.63058 0.0
H1014 H 0.55508 0.32325 0.64181 0.0
H1015 H 0.51108 0.35868 0.59507 0.0
H1016 H 0.38294 0.33573 0.64943 0.0
H1017 H 0.42576 0.32375 0.6425 0.0
H1018 H 0.46982 0.32301 0.65364 0.0
C1019 C 0.55919 0.32335 0.62546 0.0
C1020 C 0.50222 0.3505 0.60769 0.0
C1021 C 0.584 0.31997 0.61903 0.0
C1022 C 0.39739 0.34701 0.64623 0.0
C1023 C 0.42194 0.34015 0.64232 0.0
C1024 C 0.47858 0.33073 0.64069 0.0
C1025 C 0.54029 0.32798 0.61098 0.0
C1026 C 0.51463 0.33417 0.61773 0.0
C1027 C 0.44092 0.35428 0.63714 0.0
C1028 C 0.4663 0.34715 0.63063 0.0
H1029 H 0.57547 0.32574 0.5672 0.0
H1030 H 0.53231 0.33104 0.57829 0.0
H1031 H 0.51153 0.31163 0.64232 0.0
H1032 H 0.40675 0.39861 0.63985 0.0
H1033 H 0.44941 0.38678 0.6336 0.0
C1034 C 0.72848 0.53767 0.64491 0.0
C1035 C 0.71472 0.54449 0.66205 0.0
C1036 C 0.73211 0.51658 0.64158 0.0
C1037 C 0.7007 0.46772 0.65564 0.0
H1038 H 0.75221 0.44395 0.6206 0.0
C1039 C 0.69853 0.38276 0.63065 0.0
C1040 C 0.69868 0.38013 0.60913 0.0
C1041 C 0.70504 0.40168 0.63934 0.0
C1042 C 0.7378 0.45042 0.63048 0.0
H1043 H 0.69616 0.53513 0.6902 0.0
H1044 H 0.70404 0.49845 0.6853 0.0
H1045 H 0.75713 0.47913 0.63345 0.0
H1046 H 0.70687 0.39497 0.5799 0.0
H1047 H 0.71855 0.42802 0.59518 0.0
H1048 H 0.68149 0.43898 0.6527 0.0
C1049 C 0.71094 0.50912 0.67379 0.0
C1050 C 0.74051 0.47058 0.63777 0.0
C1051 C 0.70669 0.53014 0.67679 0.0
C1052 C 0.70639 0.39658 0.59652 0.0
C1053 C 0.71329 0.41541 0.60525 0.0
C1054 C 0.69827 0.44751 0.64869 0.0
C1055 C 0.72248 0.50198 0.65559 0.0
C1056 C 0.72169 0.47968 0.65009 0.0
C1057 C 0.71223 0.41822 0.6267 0.0
C1058 C 0.7165 0.43883 0.6357 0.0
H1059 H 0.73461 0.54849 0.63321 0.0
H1060 H 0.74091 0.51181 0.62731 0.0
H1061 H 0.68543 0.47417 0.6646 0.0
H1062 H 0.69272 0.37038 0.64079 0.0
H1063 H 0.70413 0.40349 0.65593 0.0
C1064 C 0.40032 0.31958 0.34398 0.0
C1065 C 0.3955 0.32121 0.36524 0.0
C1066 C 0.42485 0.32146 0.33642 0.0
C1067 C 0.49165 0.319 0.35142 0.0
H1068 H 0.50152 0.36066 0.30925 0.0
C1069 C 0.59038 0.34215 0.32181 0.0
C1070 C 0.59482 0.36346 0.32298 0.0
C1071 C 0.56597 0.33443 0.32391 0.0
C1072 C 0.49902 0.34886 0.3209 0.0
H1073 H 0.41275 0.32516 0.3953 0.0
H1074 H 0.45545 0.32817 0.38213 0.0
H1075 H 0.45888 0.35079 0.31914 0.0
H1076 H 0.57707 0.39343 0.3264 0.0
H1077 H 0.53459 0.37998 0.32978 0.0
H1078 H 0.5318 0.31755 0.35362 0.0
C1079 C 0.4403 0.32551 0.37131 0.0
C1080 C 0.47465 0.34311 0.32645 0.0
C1081 C 0.4158 0.32393 0.37883 0.0
C1082 C 0.5743 0.37692 0.32552 0.0
C1083 C 0.54993 0.36924 0.32731 0.0
C1084 C 0.51603 0.32457 0.34568 0.0
C1085 C 0.44503 0.32465 0.35002 0.0
C1086 C 0.47074 0.32852 0.34214 0.0
C1087 C 0.54556 0.34792 0.32684 0.0
C1088 C 0.51992 0.33995 0.33075 0.0
H1089 H 0.38507 0.31751 0.33312 0.0
H1090 H 0.42802 0.32066 0.31994 0.0
H1091 H 0.48914 0.30761 0.36347 0.0
H1092 H 0.60581 0.33139 0.31989 0.0
H1093 H 0.56306 0.31792 0.32344 0.0
C1094 C 0.70568 0.44097 0.29292 0.0
C1095 C 0.71811 0.42511 0.30363 0.0
C1096 C 0.71066 0.46157 0.2975 0.0
C1097 C 0.72304 0.49118 0.34224 0.0
H1098 H 0.72992 0.53759 0.30501 0.0
C1099 C 0.70955 0.57389 0.37194 0.0
C1100 C 0.69697 0.58769 0.35881 0.0
C1101 C 0.71828 0.55498 0.36449 0.0
C1102 C 0.72773 0.52483 0.31562 0.0
H1103 H 0.74672 0.41827 0.32649 0.0
H1104 H 0.7549 0.45438 0.3349 0.0
H1105 H 0.73521 0.50255 0.29192 0.0
H1106 H 0.68376 0.59269 0.3276 0.0
H1107 H 0.69755 0.55933 0.31484 0.0
H1108 H 0.71358 0.5129 0.36559 0.0
C1109 C 0.74154 0.4508 0.32282 0.0
C1110 C 0.73106 0.50481 0.30812 0.0
C1111 C 0.73692 0.43019 0.31794 0.0
C1112 C 0.69351 0.58236 0.33804 0.0
C1113 C 0.70169 0.56326 0.33069 0.0
C1114 C 0.71919 0.5111 0.34965 0.0
C1115 C 0.72783 0.4666 0.31312 0.0
C1116 C 0.72835 0.48782 0.32132 0.0
C1117 C 0.71404 0.54922 0.34384 0.0
C1118 C 0.72097 0.52822 0.33637 0.0
H1119 H 0.69112 0.43743 0.2818 0.0
H1120 H 0.69973 0.47348 0.28992 0.0
H1121 H 0.72043 0.47828 0.35266 0.0
H1122 H 0.71281 0.57776 0.38797 0.0
H1123 H 0.72821 0.54486 0.375 0.0
C1124 C 0.56693 0.64157 0.3802 0.0
C1125 C 0.58602 0.64533 0.36572 0.0
C1126 C 0.54231 0.63812 0.37378 0.0
C1127 C 0.49818 0.64182 0.32959 0.0
H1128 H 0.46584 0.59659 0.3582 0.0
C1129 C 0.40602 0.58456 0.32441 0.0
C1130 C 0.38666 0.59893 0.32097 0.0
C1131 C 0.43066 0.5911 0.32749 0.0
C1132 C 0.47464 0.60911 0.34986 0.0
H1133 H 0.594 0.64938 0.33317 0.0
H1134 H 0.55088 0.6429 0.32187 0.0
H1135 H 0.50769 0.60704 0.36835 0.0
H1136 H 0.37818 0.63142 0.31706 0.0
H1137 H 0.42133 0.64293 0.32292 0.0
H1138 H 0.46505 0.64345 0.31077 0.0
C1139 C 0.55498 0.64286 0.33823 0.0
C1140 C 0.49854 0.61534 0.35592 0.0
C1141 C 0.57969 0.6465 0.34469 0.0
C1142 C 0.39271 0.61997 0.31969 0.0
C1143 C 0.41744 0.62656 0.32297 0.0
C1144 C 0.47413 0.63554 0.32347 0.0
C1145 C 0.53615 0.63811 0.35269 0.0
C1146 C 0.5106 0.63182 0.34596 0.0
C1147 C 0.43655 0.6122 0.32746 0.0
C1148 C 0.46214 0.61905 0.33352 0.0
H1149 H 0.57109 0.64087 0.39654 0.0
H1150 H 0.52814 0.63505 0.38536 0.0
H1151 H 0.50692 0.65463 0.32167 0.0
H1152 H 0.40207 0.56821 0.32517 0.0
H1153 H 0.44504 0.57959 0.33035 0.0
C1154 C 0.28662 0.38622 0.34065 0.0
C1155 C 0.28489 0.38132 0.36169 0.0
C1156 C 0.27778 0.40515 0.33332 0.0
C1157 C 0.26161 0.45768 0.35186 0.0
H1158 H 0.24066 0.4648 0.29498 0.0
C1159 C 0.24228 0.53791 0.31908 0.0
C1160 C 0.26002 0.54237 0.30367 0.0
C1161 C 0.23755 0.51748 0.32468 0.0
C1162 C 0.24617 0.46295 0.31096 0.0
H1163 H 0.27152 0.39186 0.39142 0.0
H1164 H 0.25501 0.42449 0.37856 0.0
H1165 H 0.24716 0.4301 0.30871 0.0
H1166 H 0.28479 0.52917 0.28067 0.0
H1167 H 0.27594 0.49345 0.29004 0.0
H1168 H 0.26058 0.49057 0.35401 0.0
C1169 C 0.26407 0.41415 0.36776 0.0
C1170 C 0.2502 0.44312 0.31881 0.0
C1171 C 0.27344 0.39541 0.37517 0.0
C1172 C 0.27105 0.5261 0.29261 0.0
C1173 C 0.26593 0.50569 0.29792 0.0
C1174 C 0.25707 0.47742 0.34414 0.0
C1175 C 0.26649 0.41946 0.34678 0.0
C1176 C 0.25877 0.44025 0.33919 0.0
C1177 C 0.25006 0.50126 0.31463 0.0
C1178 C 0.25001 0.48026 0.32349 0.0
H1179 H 0.29546 0.37566 0.32992 0.0
H1180 H 0.28054 0.40874 0.31717 0.0
H1181 H 0.26859 0.45628 0.36748 0.0
H1182 H 0.2336 0.55017 0.32794 0.0
H1183 H 0.2252 0.51438 0.3376 0.0
loop_
_geom_bond_atom_site_label_1
_geom_bond_atom_site_label_2
_geom_bond_distance
_geom_bond_site_symmetry_2
_ccdc_geom_bond_type
C0 O1 1.306 . S
C0 O3 1.160 . S
O1 C0 1.306 . S
O1 Cd2 2.228 . S
Cd2 O1 2.228 . S
Cd2 O6 2.273 . S
Cd2 O10 2.277 . S
O3 C0 1.160 . S
O3 Cd4 2.203 . S
Cd4 O3 2.203 . S
Cd4 O6 2.411 . S
Cd4 O7 2.333 . S
Cd4 O8 2.352 . S
Cd4 O12 2.277 . S
Cd4 O13 2.356 . S
C5 O10 1.209 . S
C5 O12 1.226 . S
O6 Cd2 2.273 . S
O6 Cd4 2.411 . S
O6 C9 1.320 . S
O7 Cd4 2.333 . S
O7 C9 1.214 . S
O8 Cd4 2.352 . S
O8 C11 1.258 . S
C9 O6 1.320 . S
C9 O7 1.214 . S
O10 Cd2 2.277 . S
O10 C5 1.209 . S
C11 O8 1.258 . S
C11 O13 1.282 . S
O12 Cd4 2.277 . S
O12 C5 1.226 . S
O13 Cd4 2.356 . S
O13 C11 1.282 . S
C14 O15 1.306 . S
C14 O17 1.160 . S
O15 C14 1.306 . S
O15 Cd16 2.228 . S
Cd16 O15 2.228 . S
Cd16 O20 2.273 . S
Cd16 O24 2.277 . S
O17 C14 1.160 . S
O17 Cd18 2.203 . S
Cd18 O17 2.203 . S
Cd18 O20 2.411 . S
Cd18 O21 2.333 . S
Cd18 O22 2.352 . S
Cd18 O26 2.277 . S
Cd18 O27 2.356 . S
C19 O24 1.209 . S
C19 O26 1.226 . S
O20 Cd16 2.273 . S
O20 Cd18 2.411 . S
O20 C23 1.320 . S
O21 Cd18 2.333 . S
O21 C23 1.214 . S
O22 Cd18 2.352 . S
O22 C25 1.258 . S
C23 O20 1.320 . S
C23 O21 1.214 . S
O24 Cd16 2.277 . S
O24 C19 1.209 . S
C25 O22 1.258 . S
C25 O27 1.282 . S
O26 Cd18 2.277 . S
O26 C19 1.226 . S
O27 Cd18 2.356 . S
O27 C25 1.282 . S
C28 O29 1.306 . S
C28 O31 1.160 . S
O29 C28 1.306 . S
O29 Cd30 2.228 . S
Cd30 O29 2.228 . S
Cd30 O34 2.273 . S
Cd30 O38 2.277 . S
O31 C28 1.160 . S
O31 Cd32 2.203 . S
Cd32 O31 2.203 . S
Cd32 O34 2.411 . S
Cd32 O35 2.333 . S
Cd32 O36 2.352 . S
Cd32 O40 2.277 . S
Cd32 O41 2.356 . S
C33 O38 1.209 . S
C33 O40 1.226 . S
O34 Cd30 2.273 . S
O34 Cd32 2.411 . S
O34 C37 1.320 . S
O35 Cd32 2.333 . S
O35 C37 1.214 . S
O36 Cd32 2.352 . S
O36 C39 1.258 . S
C37 O34 1.320 . S
C37 O35 1.214 . S
O38 Cd30 2.277 . S
O38 C33 1.209 . S
C39 O36 1.258 . S
C39 O41 1.282 . S
O40 Cd32 2.277 . S
O40 C33 1.226 . S
O41 Cd32 2.356 . S
O41 C39 1.282 . S
C42 O43 1.306 . S
C42 O45 1.160 . S
O43 C42 1.306 . S
O43 Cd44 2.228 . S
Cd44 O43 2.228 . S
Cd44 O48 2.273 . S
Cd44 O52 2.277 . S
O45 C42 1.160 . S
O45 Cd46 2.203 . S
Cd46 O45 2.203 . S
Cd46 O48 2.411 . S
Cd46 O49 2.333 . S
Cd46 O50 2.352 . S
Cd46 O54 2.277 . S
Cd46 O55 2.356 . S
C47 O52 1.209 . S
C47 O54 1.226 . S
O48 Cd44 2.273 . S
O48 Cd46 2.411 . S
O48 C51 1.320 . S
O49 Cd46 2.333 . S
O49 C51 1.214 . S
O50 Cd46 2.352 . S
O50 C53 1.258 . S
C51 O48 1.320 . S
C51 O49 1.214 . S
O52 Cd44 2.277 . S
O52 C47 1.209 . S
C53 O50 1.258 . S
C53 O55 1.282 . S
O54 Cd46 2.277 . S
O54 C47 1.226 . S
O55 Cd46 2.356 . S
O55 C53 1.282 . S
C56 O57 1.306 . S
C56 O59 1.160 . S
O57 C56 1.306 . S
O57 Cd58 2.228 . S
Cd58 O57 2.228 . S
Cd58 O62 2.273 . S
Cd58 O66 2.277 . S
O59 C56 1.160 . S
O59 Cd60 2.203 . S
Cd60 O59 2.203 . S
Cd60 O62 2.411 . S
Cd60 O63 2.333 . S
Cd60 O64 2.352 . S
Cd60 O68 2.277 . S
Cd60 O69 2.356 . S
C61 O66 1.209 . S
C61 O68 1.226 . S
O62 Cd58 2.273 . S
O62 Cd60 2.411 . S
O62 C65 1.320 . S
O63 Cd60 2.333 . S
O63 C65 1.214 . S
O64 Cd60 2.352 . S
O64 C67 1.258 . S
C65 O62 1.320 . S
C65 O63 1.214 . S
O66 Cd58 2.277 . S
O66 C61 1.209 . S
C67 O64 1.258 . S
C67 O69 1.282 . S
O68 Cd60 2.277 . S
O68 C61 1.226 . S
O69 Cd60 2.356 . S
O69 C67 1.282 . S
C70 O71 1.306 . S
C70 O73 1.160 . S
O71 C70 1.306 . S
O71 Cd72 2.228 . S
Cd72 O71 2.228 . S
Cd72 O76 2.273 . S
Cd72 O80 2.277 . S
O73 C70 1.160 . S
O73 Cd74 2.203 . S
Cd74 O73 2.203 . S
Cd74 O76 2.411 . S
Cd74 O77 2.333 . S
Cd74 O78 2.352 . S
Cd74 O82 2.277 . S
Cd74 O83 2.356 . S
C75 O80 1.209 . S
C75 O82 1.226 . S
O76 Cd72 2.273 . S
O76 Cd74 2.411 . S
O76 C79 1.320 . S
O77 Cd74 2.333 . S
O77 C79 1.214 . S
O78 Cd74 2.352 . S
O78 C81 1.258 . S
C79 O76 1.320 . S
C79 O77 1.214 . S
O80 Cd72 2.277 . S
O80 C75 1.209 . S
C81 O78 1.258 . S
C81 O83 1.282 . S
O82 Cd74 2.277 . S
O82 C75 1.226 . S
O83 Cd74 2.356 . S
O83 C81 1.282 . S
C84 O85 1.306 . S
C84 O87 1.160 . S
O85 C84 1.306 . S
O85 Cd86 2.228 . S
Cd86 O85 2.228 . S
Cd86 O90 2.273 . S
Cd86 O94 2.277 . S
O87 C84 1.160 . S
O87 Cd88 2.203 . S
Cd88 O87 2.203 . S
Cd88 O90 2.411 . S
Cd88 O91 2.333 . S
Cd88 O92 2.352 . S
Cd88 O96 2.277 . S
Cd88 O97 2.356 . S
C89 O94 1.209 . S
C89 O96 1.226 . S
O90 Cd86 2.273 . S
O90 Cd88 2.411 . S
O90 C93 1.320 . S
O91 Cd88 2.333 . S
O91 C93 1.214 . S
O92 Cd88 2.352 . S
O92 C95 1.258 . S
C93 O90 1.320 . S
C93 O91 1.214 . S
O94 Cd86 2.277 . S
O94 C89 1.209 . S
C95 O92 1.258 . S
C95 O97 1.282 . S
O96 Cd88 2.277 . S
O96 C89 1.226 . S
O97 Cd88 2.356 . S
O97 C95 1.282 . S
C98 O99 1.306 . S
C98 O101 1.160 . S
O99 C98 1.306 . S
O99 Cd100 2.228 . S
Cd100 O99 2.228 . S
Cd100 O104 2.273 . S
Cd100 O108 2.277 . S
O101 C98 1.160 . S
O101 Cd102 2.203 . S
Cd102 O101 2.203 . S
Cd102 O104 2.411 . S
Cd102 O105 2.333 . S
Cd102 O106 2.352 . S
Cd102 O110 2.277 . S
Cd102 O111 2.356 . S
C103 O108 1.209 . S
C103 O110 1.226 . S
O104 Cd100 2.273 . S
O104 Cd102 2.411 . S
O104 C107 1.320 . S
O105 Cd102 2.333 . S
O105 C107 1.214 . S
O106 Cd102 2.352 . S
O106 C109 1.258 . S
C107 O104 1.320 . S
C107 O105 1.214 . S
O108 Cd100 2.277 . S
O108 C103 1.209 . S
C109 O106 1.258 . S
C109 O111 1.282 . S
O110 Cd102 2.277 . S
O110 C103 1.226 . S
O111 Cd102 2.356 . S
O111 C109 1.282 . S
C112 O113 1.306 . S
C112 O115 1.160 . S
O113 C112 1.306 . S
O113 Cd114 2.228 . S
Cd114 O113 2.228 . S
Cd114 O118 2.273 . S
Cd114 O122 2.277 . S
O115 C112 1.160 . S
O115 Cd116 2.203 . S
Cd116 O115 2.203 . S
Cd116 O118 2.411 . S
Cd116 O119 2.333 . S
Cd116 O120 2.352 . S
Cd116 O124 2.277 . S
Cd116 O125 2.356 . S
C117 O122 1.209 . S
C117 O124 1.226 . S
O118 Cd114 2.273 . S
O118 Cd116 2.411 . S
O118 C121 1.320 . S
O119 Cd116 2.333 . S
O119 C121 1.214 . S
O120 Cd116 2.352 . S
O120 C123 1.258 . S
C121 O118 1.320 . S
C121 O119 1.214 . S
O122 Cd114 2.277 . S
O122 C117 1.209 . S
C123 O120 1.258 . S
C123 O125 1.282 . S
O124 Cd116 2.277 . S
O124 C117 1.226 . S
O125 Cd116 2.356 . S
O125 C123 1.282 . S
C126 O127 1.306 . S
C126 O129 1.160 . S
O127 C126 1.306 . S
O127 Cd128 2.228 . S
Cd128 O127 2.228 . S
Cd128 O132 2.273 . S
Cd128 O136 2.277 . S
O129 C126 1.160 . S
O129 Cd130 2.203 . S
Cd130 O129 2.203 . S
Cd130 O132 2.411 . S
Cd130 O133 2.333 . S
Cd130 O134 2.352 . S
Cd130 O138 2.277 . S
Cd130 O139 2.356 . S
C131 O136 1.209 . S
C131 O138 1.226 . S
O132 Cd128 2.273 . S
O132 Cd130 2.411 . S
O132 C135 1.320 . S
O133 Cd130 2.333 . S
O133 C135 1.214 . S
O134 Cd130 2.352 . S
O134 C137 1.258 . S
C135 O132 1.320 . S
C135 O133 1.214 . S
O136 Cd128 2.277 . S
O136 C131 1.209 . S
C137 O134 1.258 . S
C137 O139 1.282 . S
O138 Cd130 2.277 . S
O138 C131 1.226 . S
O139 Cd130 2.356 . S
O139 C137 1.282 . S
C140 O141 1.306 . S
C140 O143 1.160 . S
O141 C140 1.306 . S
O141 Cd142 2.228 . S
Cd142 O141 2.228 . S
Cd142 O146 2.273 . S
Cd142 O150 2.277 . S
O143 C140 1.160 . S
O143 Cd144 2.203 . S
Cd144 O143 2.203 . S
Cd144 O146 2.411 . S
Cd144 O147 2.333 . S
Cd144 O148 2.352 . S
Cd144 O152 2.277 . S
Cd144 O153 2.356 . S
C145 O150 1.209 . S
C145 O152 1.226 . S
O146 Cd142 2.273 . S
O146 Cd144 2.411 . S
O146 C149 1.320 . S
O147 Cd144 2.333 . S
O147 C149 1.214 . S
O148 Cd144 2.352 . S
O148 C151 1.258 . S
C149 O146 1.320 . S
C149 O147 1.214 . S
O150 Cd142 2.277 . S
O150 C145 1.209 . S
C151 O148 1.258 . S
C151 O153 1.282 . S
O152 Cd144 2.277 . S
O152 C145 1.226 . S
O153 Cd144 2.356 . S
O153 C151 1.282 . S
C154 O155 1.306 . S
C154 O157 1.160 . S
O155 C154 1.306 . S
O155 Cd156 2.228 . S
Cd156 O155 2.228 . S
Cd156 O160 2.273 . S
Cd156 O164 2.277 . S
O157 C154 1.160 . S
O157 Cd158 2.203 . S
Cd158 O157 2.203 . S
Cd158 O160 2.411 . S
Cd158 O161 2.333 . S
Cd158 O162 2.352 . S
Cd158 O166 2.277 . S
Cd158 O167 2.356 . S
C159 O164 1.209 . S
C159 O166 1.226 . S
O160 Cd156 2.273 . S
O160 Cd158 2.411 . S
O160 C163 1.320 . S
O161 Cd158 2.333 . S
O161 C163 1.214 . S
O162 Cd158 2.352 . S
O162 C165 1.258 . S
C163 O160 1.320 . S
C163 O161 1.214 . S
O164 Cd156 2.277 . S
O164 C159 1.209 . S
C165 O162 1.258 . S
C165 O167 1.282 . S
O166 Cd158 2.277 . S
O166 C159 1.226 . S
O167 Cd158 2.356 . S
O167 C165 1.282 . S
C168 O169 1.306 . S
C168 O171 1.160 . S
O169 C168 1.306 . S
O169 Cd170 2.228 . S
Cd170 O169 2.228 . S
Cd170 O174 2.273 . S
Cd170 O178 2.277 . S
O171 C168 1.160 . S
O171 Cd172 2.203 . S
Cd172 O171 2.203 . S
Cd172 O174 2.411 . S
Cd172 O175 2.333 . S
Cd172 O176 2.352 . S
Cd172 O180 2.277 . S
Cd172 O181 2.356 . S
C173 O178 1.209 . S
C173 O180 1.226 . S
O174 Cd170 2.273 . S
O174 Cd172 2.411 . S
O174 C177 1.320 . S
O175 Cd172 2.333 . S
O175 C177 1.214 . S
O176 Cd172 2.352 . S
O176 C179 1.258 . S
C177 O174 1.320 . S
C177 O175 1.214 . S
O178 Cd170 2.277 . S
O178 C173 1.209 . S
C179 O176 1.258 . S
C179 O181 1.282 . S
O180 Cd172 2.277 . S
O180 C173 1.226 . S
O181 Cd172 2.356 . S
O181 C179 1.282 . S
C182 O183 1.306 . S
C182 O185 1.160 . S
O183 C182 1.306 . S
O183 Cd184 2.228 . S
Cd184 O183 2.228 . S
Cd184 O188 2.273 . S
Cd184 O192 2.277 . S
O185 C182 1.160 . S
O185 Cd186 2.203 . S
Cd186 O185 2.203 . S
Cd186 O188 2.411 . S
Cd186 O189 2.333 . S
Cd186 O190 2.352 . S
Cd186 O194 2.277 . S
Cd186 O195 2.356 . S
C187 O192 1.209 . S
C187 O194 1.226 . S
O188 Cd184 2.273 . S
O188 Cd186 2.411 . S
O188 C191 1.320 . S
O189 Cd186 2.333 . S
O189 C191 1.214 . S
O190 Cd186 2.352 . S
O190 C193 1.258 . S
C191 O188 1.320 . S
C191 O189 1.214 . S
O192 Cd184 2.277 . S
O192 C187 1.209 . S
C193 O190 1.258 . S
C193 O195 1.282 . S
O194 Cd186 2.277 . S
O194 C187 1.226 . S
O195 Cd186 2.356 . S
O195 C193 1.282 . S
C196 O197 1.306 . S
C196 O199 1.160 . S
O197 C196 1.306 . S
O197 Cd198 2.228 . S
Cd198 O197 2.228 . S
Cd198 O202 2.273 . S
Cd198 O206 2.277 . S
O199 C196 1.160 . S
O199 Cd200 2.203 . S
Cd200 O199 2.203 . S
Cd200 O202 2.411 . S
Cd200 O203 2.333 . S
Cd200 O204 2.352 . S
Cd200 O208 2.277 . S
Cd200 O209 2.356 . S
C201 O206 1.209 . S
C201 O208 1.226 . S
O202 Cd198 2.273 . S
O202 Cd200 2.411 . S
O202 C205 1.320 . S
O203 Cd200 2.333 . S
O203 C205 1.214 . S
O204 Cd200 2.352 . S
O204 C207 1.258 . S
C205 O202 1.320 . S
C205 O203 1.214 . S
O206 Cd198 2.277 . S
O206 C201 1.209 . S
C207 O204 1.258 . S
C207 O209 1.282 . S
O208 Cd200 2.277 . S
O208 C201 1.226 . S
O209 Cd200 2.356 . S
O209 C207 1.282 . S
C210 O211 1.306 . S
C210 O213 1.160 . S
O211 C210 1.306 . S
O211 Cd212 2.228 . S
Cd212 O211 2.228 . S
Cd212 O216 2.273 . S
Cd212 O220 2.277 . S
O213 C210 1.160 . S
O213 Cd214 2.203 . S
Cd214 O213 2.203 . S
Cd214 O216 2.411 . S
Cd214 O217 2.333 . S
Cd214 O218 2.352 . S
Cd214 O222 2.277 . S
Cd214 O223 2.356 . S
C215 O220 1.209 . S
C215 O222 1.226 . S
O216 Cd212 2.273 . S
O216 Cd214 2.411 . S
O216 C219 1.320 . S
O217 Cd214 2.333 . S
O217 C219 1.214 . S
O218 Cd214 2.352 . S
O218 C221 1.258 . S
C219 O216 1.320 . S
C219 O217 1.214 . S
O220 Cd212 2.277 . S
O220 C215 1.209 . S
C221 O218 1.258 . S
C221 O223 1.282 . S
O222 Cd214 2.277 . S
O222 C215 1.226 . S
O223 Cd214 2.356 . S
O223 C221 1.282 . S
C224 C225 1.349 . S
C224 C226 1.327 . S
C224 H249 0.950 . S
C225 C224 1.349 . S
C225 C241 1.349 . S
C226 C224 1.327 . S
C226 C245 1.429 . S
C226 H250 0.950 . S
C227 C244 1.574 . S
C227 C246 1.368 . S
C227 H251 0.949 . S
H228 C232 0.949 . S
C229 C230 1.349 . S
C229 C231 1.327 . S
C229 H252 0.950 . S
C230 C229 1.349 . S
C230 C242 1.349 . S
C231 C229 1.327 . S
C231 C247 1.429 . S
C231 H253 0.950 . S
C232 H228 0.949 . S
C232 C240 1.574 . S
C232 C248 1.368 . S
H233 C241 0.950 . S
H234 C239 0.950 . S
H235 C240 0.949 . S
H236 C242 0.950 . S
H237 C243 0.950 . S
H238 C244 0.949 . S
C239 H234 0.950 . S
C239 C241 1.327 . S
C239 C245 1.429 . S
C240 C232 1.574 . S
C240 H235 0.949 . S
C240 C246 1.368 . S
C241 C225 1.349 . S
C241 H233 0.950 . S
C241 C239 1.327 . S
C242 C230 1.349 . S
C242 H236 0.950 . S
C242 C243 1.327 . S
C243 H237 0.950 . S
C243 C242 1.327 . S
C243 C247 1.429 . S
C244 C227 1.574 . S
C244 H238 0.949 . S
C244 C248 1.368 . S
C245 C226 1.429 . S
C245 C239 1.429 . S
C245 C246 1.523 . S
C246 C227 1.368 . S
C246 C240 1.368 . S
C246 C245 1.523 . S
C247 C231 1.429 . S
C247 C243 1.429 . S
C247 C248 1.523 . S
C248 C232 1.368 . S
C248 C244 1.368 . S
C248 C247 1.523 . S
H249 C224 0.950 . S
H250 C226 0.950 . S
H251 C227 0.949 . S
H252 C229 0.950 . S
H253 C231 0.950 . S
C254 C255 1.349 . S
C254 C256 1.327 . S
C254 H279 0.950 . S
C255 C254 1.349 . S
C255 C271 1.349 . S
C256 C254 1.327 . S
C256 C275 1.429 . S
C256 H280 0.950 . S
C257 C274 1.574 . S
C257 C276 1.368 . S
C257 H281 0.949 . S
H258 C262 0.949 . S
C259 C260 1.349 . S
C259 C261 1.327 . S
C259 H282 0.950 . S
C260 C259 1.349 . S
C260 C272 1.349 . S
C261 C259 1.327 . S
C261 C277 1.429 . S
C261 H283 0.950 . S
C262 H258 0.949 . S
C262 C270 1.574 . S
C262 C278 1.368 . S
H263 C271 0.950 . S
H264 C269 0.950 . S
H265 C270 0.949 . S
H266 C272 0.950 . S
H267 C273 0.950 . S
H268 C274 0.949 . S
C269 H264 0.950 . S
C269 C271 1.327 . S
C269 C275 1.429 . S
C270 C262 1.574 . S
C270 H265 0.949 . S
C270 C276 1.368 . S
C271 C255 1.349 . S
C271 H263 0.950 . S
C271 C269 1.327 . S
C272 C260 1.349 . S
C272 H266 0.950 . S
C272 C273 1.327 . S
C273 H267 0.950 . S
C273 C272 1.327 . S
C273 C277 1.429 . S
C274 C257 1.574 . S
C274 H268 0.949 . S
C274 C278 1.368 . S
C275 C256 1.429 . S
C275 C269 1.429 . S
C275 C276 1.523 . S
C276 C257 1.368 . S
C276 C270 1.368 . S
C276 C275 1.523 . S
C277 C261 1.429 . S
C277 C273 1.429 . S
C277 C278 1.523 . S
C278 C262 1.368 . S
C278 C274 1.368 . S
C278 C277 1.523 . S
H279 C254 0.950 . S
H280 C256 0.950 . S
H281 C257 0.949 . S
H282 C259 0.950 . S
H283 C261 0.950 . S
C284 C285 1.349 . S
C284 C286 1.327 . S
C284 H309 0.950 . S
C285 C284 1.349 . S
C285 C301 1.349 . S
C286 C284 1.327 . S
C286 C305 1.429 . S
C286 H310 0.950 . S
C287 C304 1.574 . S
C287 C306 1.368 . S
C287 H311 0.949 . S
H288 C292 0.949 . S
C289 C290 1.349 . S
C289 C291 1.327 . S
C289 H312 0.950 . S
C290 C289 1.349 . S
C290 C302 1.349 . S
C291 C289 1.327 . S
C291 C307 1.429 . S
C291 H313 0.950 . S
C292 H288 0.949 . S
C292 C300 1.574 . S
C292 C308 1.368 . S
H293 C301 0.950 . S
H294 C299 0.950 . S
H295 C300 0.949 . S
H296 C302 0.950 . S
H297 C303 0.950 . S
H298 C304 0.949 . S
C299 H294 0.950 . S
C299 C301 1.327 . S
C299 C305 1.429 . S
C300 C292 1.574 . S
C300 H295 0.949 . S
C300 C306 1.368 . S
C301 C285 1.349 . S
C301 H293 0.950 . S
C301 C299 1.327 . S
C302 C290 1.349 . S
C302 H296 0.950 . S
C302 C303 1.327 . S
C303 H297 0.950 . S
C303 C302 1.327 . S
C303 C307 1.429 . S
C304 C287 1.574 . S
C304 H298 0.949 . S
C304 C308 1.368 . S
C305 C286 1.429 . S
C305 C299 1.429 . S
C305 C306 1.523 . S
C306 C287 1.368 . S
C306 C300 1.368 . S
C306 C305 1.523 . S
C307 C291 1.429 . S
C307 C303 1.429 . S
C307 C308 1.523 . S
C308 C292 1.368 . S
C308 C304 1.368 . S
C308 C307 1.523 . S
H309 C284 0.950 . S
H310 C286 0.950 . S
H311 C287 0.949 . S
H312 C289 0.950 . S
H313 C291 0.950 . S
C314 C315 1.349 . S
C314 C316 1.327 . S
C314 H339 0.950 . S
C315 C314 1.349 . S
C315 C331 1.349 . S
C316 C314 1.327 . S
C316 C335 1.429 . S
C316 H340 0.950 . S
C317 C334 1.574 . S
C317 C336 1.368 . S
C317 H341 0.949 . S
H318 C322 0.949 . S
C319 C320 1.349 . S
C319 C321 1.327 . S
C319 H342 0.950 . S
C320 C319 1.349 . S
C320 C332 1.349 . S
C321 C319 1.327 . S
C321 C337 1.429 . S
C321 H343 0.950 . S
C322 H318 0.949 . S
C322 C330 1.574 . S
C322 C338 1.368 . S
H323 C331 0.950 . S
H324 C329 0.950 . S
H325 C330 0.949 . S
H326 C332 0.950 . S
H327 C333 0.950 . S
H328 C334 0.949 . S
C329 H324 0.950 . S
C329 C331 1.327 . S
C329 C335 1.429 . S
C330 C322 1.574 . S
C330 H325 0.949 . S
C330 C336 1.368 . S
C331 C315 1.349 . S
C331 H323 0.950 . S
C331 C329 1.327 . S
C332 C320 1.349 . S
C332 H326 0.950 . S
C332 C333 1.327 . S
C333 H327 0.950 . S
C333 C332 1.327 . S
C333 C337 1.429 . S
C334 C317 1.574 . S
C334 H328 0.949 . S
C334 C338 1.368 . S
C335 C316 1.429 . S
C335 C329 1.429 . S
C335 C336 1.523 . S
C336 C317 1.368 . S
C336 C330 1.368 . S
C336 C335 1.523 . S
C337 C321 1.429 . S
C337 C333 1.429 . S
C337 C338 1.523 . S
C338 C322 1.368 . S
C338 C334 1.368 . S
C338 C337 1.523 . S
H339 C314 0.950 . S
H340 C316 0.950 . S
H341 C317 0.949 . S
H342 C319 0.950 . S
H343 C321 0.950 . S
C344 C345 1.349 . S
C344 C346 1.327 . S
C344 H369 0.950 . S
C345 C344 1.349 . S
C345 C361 1.349 . S
C346 C344 1.327 . S
C346 C365 1.429 . S
C346 H370 0.950 . S
C347 C364 1.574 . S
C347 C366 1.368 . S
C347 H371 0.949 . S
H348 C352 0.949 . S
C349 C350 1.349 . S
C349 C351 1.327 . S
C349 H372 0.950 . S
C350 C349 1.349 . S
C350 C362 1.349 . S
C351 C349 1.327 . S
C351 C367 1.429 . S
C351 H373 0.950 . S
C352 H348 0.949 . S
C352 C360 1.574 . S
C352 C368 1.368 . S
H353 C361 0.950 . S
H354 C359 0.950 . S
H355 C360 0.949 . S
H356 C362 0.950 . S
H357 C363 0.950 . S
H358 C364 0.949 . S
C359 H354 0.950 . S
C359 C361 1.327 . S
C359 C365 1.429 . S
C360 C352 1.574 . S
C360 H355 0.949 . S
C360 C366 1.368 . S
C361 C345 1.349 . S
C361 H353 0.950 . S
C361 C359 1.327 . S
C362 C350 1.349 . S
C362 H356 0.950 . S
C362 C363 1.327 . S
C363 H357 0.950 . S
C363 C362 1.327 . S
C363 C367 1.429 . S
C364 C347 1.574 . S
C364 H358 0.949 . S
C364 C368 1.368 . S
C365 C346 1.429 . S
C365 C359 1.429 . S
C365 C366 1.523 . S
C366 C347 1.368 . S
C366 C360 1.368 . S
C366 C365 1.523 . S
C367 C351 1.429 . S
C367 C363 1.429 . S
C367 C368 1.523 . S
C368 C352 1.368 . S
C368 C364 1.368 . S
C368 C367 1.523 . S
H369 C344 0.950 . S
H370 C346 0.950 . S
H371 C347 0.949 . S
H372 C349 0.950 . S
H373 C351 0.950 . S
C374 C375 1.349 . S
C374 C376 1.327 . S
C374 H399 0.950 . S
C375 C374 1.349 . S
C375 C391 1.349 . S
C376 C374 1.327 . S
C376 C395 1.429 . S
C376 H400 0.950 . S
C377 C394 1.574 . S
C377 C396 1.368 . S
C377 H401 0.949 . S
H378 C382 0.949 . S
C379 C380 1.349 . S
C379 C381 1.327 . S
C379 H402 0.950 . S
C380 C379 1.349 . S
C380 C392 1.349 . S
C381 C379 1.327 . S
C381 C397 1.429 . S
C381 H403 0.950 . S
C382 H378 0.949 . S
C382 C390 1.574 . S
C382 C398 1.368 . S
H383 C391 0.950 . S
H384 C389 0.950 . S
H385 C390 0.949 . S
H386 C392 0.950 . S
H387 C393 0.950 . S
H388 C394 0.949 . S
C389 H384 0.950 . S
C389 C391 1.327 . S
C389 C395 1.429 . S
C390 C382 1.574 . S
C390 H385 0.949 . S
C390 C396 1.368 . S
C391 C375 1.349 . S
C391 H383 0.950 . S
C391 C389 1.327 . S
C392 C380 1.349 . S
C392 H386 0.950 . S
C392 C393 1.327 . S
C393 H387 0.950 . S
C393 C392 1.327 . S
C393 C397 1.429 . S
C394 C377 1.574 . S
C394 H388 0.949 . S
C394 C398 1.368 . S
C395 C376 1.429 . S
C395 C389 1.429 . S
C395 C396 1.523 . S
C396 C377 1.368 . S
C396 C390 1.368 . S
C396 C395 1.523 . S
C397 C381 1.429 . S
C397 C393 1.429 . S
C397 C398 1.523 . S
C398 C382 1.368 . S
C398 C394 1.368 . S
C398 C397 1.523 . S
H399 C374 0.950 . S
H400 C376 0.950 . S
H401 C377 0.949 . S
H402 C379 0.950 . S
H403 C381 0.950 . S
C404 C405 1.349 . S
C404 C406 1.327 . S
C404 H429 0.950 . S
C405 C404 1.349 . S
C405 C421 1.349 . S
C406 C404 1.327 . S
C406 C425 1.429 . S
C406 H430 0.950 . S
C407 C424 1.574 . S
C407 C426 1.368 . S
C407 H431 0.949 . S
H408 C412 0.949 . S
C409 C410 1.349 . S
C409 C411 1.327 . S
C409 H432 0.950 . S
C410 C409 1.349 . S
C410 C422 1.349 . S
C411 C409 1.327 . S
C411 C427 1.429 . S
C411 H433 0.950 . S
C412 H408 0.949 . S
C412 C420 1.574 . S
C412 C428 1.368 . S
H413 C421 0.950 . S
H414 C419 0.950 . S
H415 C420 0.949 . S
H416 C422 0.950 . S
H417 C423 0.950 . S
H418 C424 0.949 . S
C419 H414 0.950 . S
C419 C421 1.327 . S
C419 C425 1.429 . S
C420 C412 1.574 . S
C420 H415 0.949 . S
C420 C426 1.368 . S
C421 C405 1.349 . S
C421 H413 0.950 . S
C421 C419 1.327 . S
C422 C410 1.349 . S
C422 H416 0.950 . S
C422 C423 1.327 . S
C423 H417 0.950 . S
C423 C422 1.327 . S
C423 C427 1.429 . S
C424 C407 1.574 . S
C424 H418 0.949 . S
C424 C428 1.368 . S
C425 C406 1.429 . S
C425 C419 1.429 . S
C425 C426 1.523 . S
C426 C407 1.368 . S
C426 C420 1.368 . S
C426 C425 1.523 . S
C427 C411 1.429 . S
C427 C423 1.429 . S
C427 C428 1.523 . S
C428 C412 1.368 . S
C428 C424 1.368 . S
C428 C427 1.523 . S
H429 C404 0.950 . S
H430 C406 0.950 . S
H431 C407 0.949 . S
H432 C409 0.950 . S
H433 C411 0.950 . S
C434 C435 1.349 . S
C434 C436 1.327 . S
C434 H459 0.950 . S
C435 C434 1.349 . S
C435 C451 1.349 . S
C436 C434 1.327 . S
C436 C455 1.429 . S
C436 H460 0.950 . S
C437 C454 1.574 . S
C437 C456 1.368 . S
C437 H461 0.949 . S
H438 C442 0.949 . S
C439 C440 1.349 . S
C439 C441 1.327 . S
C439 H462 0.950 . S
C440 C439 1.349 . S
C440 C452 1.349 . S
C441 C439 1.327 . S
C441 C457 1.429 . S
C441 H463 0.950 . S
C442 H438 0.949 . S
C442 C450 1.574 . S
C442 C458 1.368 . S
H443 C451 0.950 . S
H444 C449 0.950 . S
H445 C450 0.949 . S
H446 C452 0.950 . S
H447 C453 0.950 . S
H448 C454 0.949 . S
C449 H444 0.950 . S
C449 C451 1.327 . S
C449 C455 1.429 . S
C450 C442 1.574 . S
C450 H445 0.949 . S
C450 C456 1.368 . S
C451 C435 1.349 . S
C451 H443 0.950 . S
C451 C449 1.327 . S
C452 C440 1.349 . S
C452 H446 0.950 . S
C452 C453 1.327 . S
C453 H447 0.950 . S
C453 C452 1.327 . S
C453 C457 1.429 . S
C454 C437 1.574 . S
C454 H448 0.949 . S
C454 C458 1.368 . S
C455 C436 1.429 . S
C455 C449 1.429 . S
C455 C456 1.523 . S
C456 C437 1.368 . S
C456 C450 1.368 . S
C456 C455 1.523 . S
C457 C441 1.429 . S
C457 C453 1.429 . S
C457 C458 1.523 . S
C458 C442 1.368 . S
C458 C454 1.368 . S
C458 C457 1.523 . S
H459 C434 0.950 . S
H460 C436 0.950 . S
H461 C437 0.949 . S
H462 C439 0.950 . S
H463 C441 0.950 . S
C464 C465 1.349 . S
C464 C466 1.327 . S
C464 H489 0.950 . S
C465 C464 1.349 . S
C465 C481 1.349 . S
C466 C464 1.327 . S
C466 C485 1.429 . S
C466 H490 0.950 . S
C467 C484 1.574 1_556 S
C467 C486 1.368 . S
C467 H491 0.949 . S
H468 C472 0.949 . S
C469 C470 1.349 . S
C469 C471 1.327 . S
C469 H492 0.950 . S
C470 C469 1.349 . S
C470 C482 1.349 . S
C471 C469 1.327 . S
C471 C487 1.429 . S
C471 H493 0.950 . S
C472 H468 0.949 . S
C472 C480 1.574 1_554 S
C472 C488 1.368 . S
H473 C481 0.950 . S
H474 C479 0.950 . S
H475 C480 0.949 . S
H476 C482 0.950 . S
H477 C483 0.950 . S
H478 C484 0.949 . S
C479 H474 0.950 . S
C479 C481 1.327 . S
C479 C485 1.429 . S
C480 C472 1.574 1_556 S
C480 H475 0.949 . S
C480 C486 1.368 . S
C481 C465 1.349 . S
C481 H473 0.950 . S
C481 C479 1.327 . S
C482 C470 1.349 . S
C482 H476 0.950 . S
C482 C483 1.327 . S
C483 H477 0.950 . S
C483 C482 1.327 . S
C483 C487 1.429 . S
C484 C467 1.574 1_554 S
C484 H478 0.949 . S
C484 C488 1.368 . S
C485 C466 1.429 . S
C485 C479 1.429 . S
C485 C486 1.523 . S
C486 C467 1.368 . S
C486 C480 1.368 . S
C486 C485 1.523 . S
C487 C471 1.429 . S
C487 C483 1.429 . S
C487 C488 1.523 . S
C488 C472 1.368 . S
C488 C484 1.368 . S
C488 C487 1.523 . S
H489 C464 0.950 . S
H490 C466 0.950 . S
H491 C467 0.949 . S
H492 C469 0.950 . S
H493 C471 0.950 . S
C494 C495 1.349 . S
C494 C496 1.327 . S
C494 H519 0.950 . S
C495 C494 1.349 . S
C495 C511 1.349 . S
C496 C494 1.327 . S
C496 C515 1.429 . S
C496 H520 0.950 . S
C497 C514 1.574 1_556 S
C497 C516 1.368 . S
C497 H521 0.949 . S
H498 C502 0.949 . S
C499 C500 1.349 . S
C499 C501 1.327 . S
C499 H522 0.950 . S
C500 C499 1.349 . S
C500 C512 1.349 . S
C501 C499 1.327 . S
C501 C517 1.429 . S
C501 H523 0.950 . S
C502 H498 0.949 . S
C502 C510 1.574 1_554 S
C502 C518 1.368 . S
H503 C511 0.950 . S
H504 C509 0.950 . S
H505 C510 0.949 . S
H506 C512 0.950 . S
H507 C513 0.950 . S
H508 C514 0.949 . S
C509 H504 0.950 . S
C509 C511 1.327 . S
C509 C515 1.429 . S
C510 C502 1.574 1_556 S
C510 H505 0.949 . S
C510 C516 1.368 . S
C511 C495 1.349 . S
C511 H503 0.950 . S
C511 C509 1.327 . S
C512 C500 1.349 . S
C512 H506 0.950 . S
C512 C513 1.327 . S
C513 H507 0.950 . S
C513 C512 1.327 . S
C513 C517 1.429 . S
C514 C497 1.574 1_554 S
C514 H508 0.949 . S
C514 C518 1.368 . S
C515 C496 1.429 . S
C515 C509 1.429 . S
C515 C516 1.523 . S
C516 C497 1.368 . S
C516 C510 1.368 . S
C516 C515 1.523 . S
C517 C501 1.429 . S
C517 C513 1.429 . S
C517 C518 1.523 . S
C518 C502 1.368 . S
C518 C514 1.368 . S
C518 C517 1.523 . S
H519 C494 0.950 . S
H520 C496 0.950 . S
H521 C497 0.949 . S
H522 C499 0.950 . S
H523 C501 0.950 . S
C524 C525 1.349 . S
C524 C526 1.327 . S
C524 H549 0.950 . S
C525 C524 1.349 . S
C525 C541 1.349 . S
C526 C524 1.327 . S
C526 C545 1.429 . S
C526 H550 0.950 . S
C527 C544 1.574 1_556 S
C527 C546 1.368 . S
C527 H551 0.949 . S
H528 C532 0.949 . S
C529 C530 1.349 . S
C529 C531 1.327 . S
C529 H552 0.950 . S
C530 C529 1.349 . S
C530 C542 1.349 . S
C531 C529 1.327 . S
C531 C547 1.429 . S
C531 H553 0.950 . S
C532 H528 0.949 . S
C532 C540 1.574 1_554 S
C532 C548 1.368 . S
H533 C541 0.950 . S
H534 C539 0.950 . S
H535 C540 0.949 . S
H536 C542 0.950 . S
H537 C543 0.950 . S
H538 C544 0.949 . S
C539 H534 0.950 . S
C539 C541 1.327 . S
C539 C545 1.429 . S
C540 C532 1.574 1_556 S
C540 H535 0.949 . S
C540 C546 1.368 . S
C541 C525 1.349 . S
C541 H533 0.950 . S
C541 C539 1.327 . S
C542 C530 1.349 . S
C542 H536 0.950 . S
C542 C543 1.327 . S
C543 H537 0.950 . S
C543 C542 1.327 . S
C543 C547 1.429 . S
C544 C527 1.574 1_554 S
C544 H538 0.949 . S
C544 C548 1.368 . S
C545 C526 1.429 . S
C545 C539 1.429 . S
C545 C546 1.523 . S
C546 C527 1.368 . S
C546 C540 1.368 . S
C546 C545 1.523 . S
C547 C531 1.429 . S
C547 C543 1.429 . S
C547 C548 1.523 . S
C548 C532 1.368 . S
C548 C544 1.368 . S
C548 C547 1.523 . S
H549 C524 0.950 . S
H550 C526 0.950 . S
H551 C527 0.949 . S
H552 C529 0.950 . S
H553 C531 0.950 . S
C554 C555 1.349 . S
C554 C556 1.327 . S
C554 H579 0.950 . S
C555 C554 1.349 . S
C555 C571 1.349 . S
C556 C554 1.327 . S
C556 C575 1.429 . S
C556 H580 0.950 . S
C557 C574 1.574 1_554 S
C557 C576 1.368 . S
C557 H581 0.949 . S
H558 C562 0.949 . S
C559 C560 1.349 . S
C559 C561 1.327 . S
C559 H582 0.950 . S
C560 C559 1.349 . S
C560 C572 1.349 . S
C561 C559 1.327 . S
C561 C577 1.429 . S
C561 H583 0.950 . S
C562 H558 0.949 . S
C562 C570 1.574 1_556 S
C562 C578 1.368 . S
H563 C571 0.950 . S
H564 C569 0.950 . S
H565 C570 0.949 . S
H566 C572 0.950 . S
H567 C573 0.950 . S
H568 C574 0.949 . S
C569 H564 0.950 . S
C569 C571 1.327 . S
C569 C575 1.429 . S
C570 C562 1.574 1_554 S
C570 H565 0.949 . S
C570 C576 1.368 . S
C571 C555 1.349 . S
C571 H563 0.950 . S
C571 C569 1.327 . S
C572 C560 1.349 . S
C572 H566 0.950 . S
C572 C573 1.327 . S
C573 H567 0.950 . S
C573 C572 1.327 . S
C573 C577 1.429 . S
C574 C557 1.574 1_556 S
C574 H568 0.949 . S
C574 C578 1.368 . S
C575 C556 1.429 . S
C575 C569 1.429 . S
C575 C576 1.523 . S
C576 C557 1.368 . S
C576 C570 1.368 . S
C576 C575 1.523 . S
C577 C561 1.429 . S
C577 C573 1.429 . S
C577 C578 1.523 . S
C578 C562 1.368 . S
C578 C574 1.368 . S
C578 C577 1.523 . S
H579 C554 0.950 . S
H580 C556 0.950 . S
H581 C557 0.949 . S
H582 C559 0.950 . S
H583 C561 0.950 . S
C584 C585 1.349 . S
C584 C586 1.327 . S
C584 H609 0.950 . S
C585 C584 1.349 . S
C585 C601 1.349 . S
C586 C584 1.327 . S
C586 C605 1.429 . S
C586 H610 0.950 . S
C587 C604 1.574 1_455 S
C587 C606 1.368 . S
C587 H611 0.949 . S
H588 C592 0.949 . S
C589 C590 1.349 . S
C589 C591 1.327 . S
C589 H612 0.950 . S
C590 C589 1.349 . S
C590 C602 1.349 . S
C591 C589 1.327 . S
C591 C607 1.429 . S
C591 H613 0.950 . S
C592 H588 0.949 . S
C592 C600 1.574 1_655 S
C592 C608 1.368 . S
H593 C601 0.950 . S
H594 C599 0.950 . S
H595 C600 0.949 . S
H596 C602 0.950 . S
H597 C603 0.950 . S
H598 C604 0.949 . S
C599 H594 0.950 . S
C599 C601 1.327 . S
C599 C605 1.429 . S
C600 C592 1.574 1_455 S
C600 H595 0.949 . S
C600 C606 1.368 . S
C601 C585 1.349 . S
C601 H593 0.950 . S
C601 C599 1.327 . S
C602 C590 1.349 . S
C602 H596 0.950 . S
C602 C603 1.327 . S
C603 H597 0.950 . S
C603 C602 1.327 . S
C603 C607 1.429 . S
C604 C587 1.574 1_655 S
C604 H598 0.949 . S
C604 C608 1.368 . S
C605 C586 1.429 . S
C605 C599 1.429 . S
C605 C606 1.523 . S
C606 C587 1.368 . S
C606 C600 1.368 . S
C606 C605 1.523 . S
C607 C591 1.429 . S
C607 C603 1.429 . S
C607 C608 1.523 . S
C608 C592 1.368 . S
C608 C604 1.368 . S
C608 C607 1.523 . S
H609 C584 0.950 . S
H610 C586 0.950 . S
H611 C587 0.949 . S
H612 C589 0.950 . S
H613 C591 0.950 . S
C614 C615 1.349 . S
C614 C616 1.327 . S
C614 H639 0.950 . S
C615 C614 1.349 . S
C615 C631 1.349 . S
C616 C614 1.327 . S
C616 C635 1.429 . S
C616 H640 0.950 . S
C617 C634 1.574 1_565 S
C617 C636 1.368 . S
C617 H641 0.949 . S
H618 C622 0.949 . S
C619 C620 1.349 . S
C619 C621 1.327 . S
C619 H642 0.950 . S
C620 C619 1.349 . S
C620 C632 1.349 . S
C621 C619 1.327 . S
C621 C637 1.429 . S
C621 H643 0.950 . S
C622 H618 0.949 . S
C622 C630 1.574 1_545 S
C622 C638 1.368 . S
H623 C631 0.950 . S
H624 C629 0.950 . S
H625 C630 0.949 . S
H626 C632 0.950 . S
H627 C633 0.950 . S
H628 C634 0.949 . S
C629 H624 0.950 . S
C629 C631 1.327 . S
C629 C635 1.429 . S
C630 C622 1.574 1_565 S
C630 H625 0.949 . S
C630 C636 1.368 . S
C631 C615 1.349 . S
C631 H623 0.950 . S
C631 C629 1.327 . S
C632 C620 1.349 . S
C632 H626 0.950 . S
C632 C633 1.327 . S
C633 H627 0.950 . S
C633 C632 1.327 . S
C633 C637 1.429 . S
C634 C617 1.574 1_545 S
C634 H628 0.949 . S
C634 C638 1.368 . S
C635 C616 1.429 . S
C635 C629 1.429 . S
C635 C636 1.523 . S
C636 C617 1.368 . S
C636 C630 1.368 . S
C636 C635 1.523 . S
C637 C621 1.429 . S
C637 C633 1.429 . S
C637 C638 1.523 . S
C638 C622 1.368 . S
C638 C634 1.368 . S
C638 C637 1.523 . S
H639 C614 0.950 . S
H640 C616 0.950 . S
H641 C617 0.949 . S
H642 C619 0.950 . S
H643 C621 0.950 . S
C644 C645 1.349 . S
C644 C646 1.327 . S
C644 H669 0.950 . S
C645 C644 1.349 . S
C645 C661 1.349 . S
C646 C644 1.327 . S
C646 C665 1.429 . S
C646 H670 0.950 . S
C647 C664 1.574 1_655 S
C647 C666 1.368 . S
C647 H671 0.949 . S
H648 C652 0.949 . S
C649 C650 1.349 . S
C649 C651 1.327 . S
C649 H672 0.950 . S
C650 C649 1.349 . S
C650 C662 1.349 . S
C651 C649 1.327 . S
C651 C667 1.429 . S
C651 H673 0.950 . S
C652 H648 0.949 . S
C652 C660 1.574 1_455 S
C652 C668 1.368 . S
H653 C661 0.950 . S
H654 C659 0.950 . S
H655 C660 0.949 . S
H656 C662 0.950 . S
H657 C663 0.950 . S
H658 C664 0.949 . S
C659 H654 0.950 . S
C659 C661 1.327 . S
C659 C665 1.429 . S
C660 C652 1.574 1_655 S
C660 H655 0.949 . S
C660 C666 1.368 . S
C661 C645 1.349 . S
C661 H653 0.950 . S
C661 C659 1.327 . S
C662 C650 1.349 . S
C662 H656 0.950 . S
C662 C663 1.327 . S
C663 H657 0.950 . S
C663 C662 1.327 . S
C663 C667 1.429 . S
C664 C647 1.574 1_455 S
C664 H658 0.949 . S
C664 C668 1.368 . S
C665 C646 1.429 . S
C665 C659 1.429 . S
C665 C666 1.523 . S
C666 C647 1.368 . S
C666 C660 1.368 . S
C666 C665 1.523 . S
C667 C651 1.429 . S
C667 C663 1.429 . S
C667 C668 1.523 . S
C668 C652 1.368 . S
C668 C664 1.368 . S
C668 C667 1.523 . S
H669 C644 0.950 . S
H670 C646 0.950 . S
H671 C647 0.949 . S
H672 C649 0.950 . S
H673 C651 0.950 . S
C674 C675 1.349 . S
C674 C676 1.327 . S
C674 H699 0.950 . S
C675 C674 1.349 . S
C675 C691 1.349 . S
C676 C674 1.327 . S
C676 C695 1.429 . S
C676 H700 0.950 . S
C677 C694 1.574 1_545 S
C677 C696 1.368 . S
C677 H701 0.949 . S
H678 C682 0.949 . S
C679 C680 1.349 . S
C679 C681 1.327 . S
C679 H702 0.950 . S
C680 C679 1.349 . S
C680 C692 1.349 . S
C681 C679 1.327 . S
C681 C697 1.429 . S
C681 H703 0.950 . S
C682 H678 0.949 . S
C682 C690 1.574 1_565 S
C682 C698 1.368 . S
H683 C691 0.950 . S
H684 C689 0.950 . S
H685 C690 0.949 . S
H686 C692 0.950 . S
H687 C693 0.950 . S
H688 C694 0.949 . S
C689 H684 0.950 . S
C689 C691 1.327 . S
C689 C695 1.429 . S
C690 C682 1.574 1_545 S
C690 H685 0.949 . S
C690 C696 1.368 . S
C691 C675 1.349 . S
C691 H683 0.950 . S
C691 C689 1.327 . S
C692 C680 1.349 . S
C692 H686 0.950 . S
C692 C693 1.327 . S
C693 H687 0.950 . S
C693 C692 1.327 . S
C693 C697 1.429 . S
C694 C677 1.574 1_565 S
C694 H688 0.949 . S
C694 C698 1.368 . S
C695 C676 1.429 . S
C695 C689 1.429 . S
C695 C696 1.523 . S
C696 C677 1.368 . S
C696 C690 1.368 . S
C696 C695 1.523 . S
C697 C681 1.429 . S
C697 C693 1.429 . S
C697 C698 1.523 . S
C698 C682 1.368 . S
C698 C694 1.368 . S
C698 C697 1.523 . S
H699 C674 0.950 . S
H700 C676 0.950 . S
H701 C677 0.949 . S
H702 C679 0.950 . S
H703 C681 0.950 . S
C704 C705 1.349 . S
C704 C706 1.327 . S
C704 H729 0.950 . S
C705 C704 1.349 . S
C705 C721 1.349 . S
C706 C704 1.327 . S
C706 C725 1.429 . S
C706 H730 0.950 . S
C707 C724 1.574 1_655 S
C707 C726 1.368 . S
C707 H731 0.949 . S
H708 C712 0.949 . S
C709 C710 1.349 . S
C709 C711 1.327 . S
C709 H732 0.950 . S
C710 C709 1.349 . S
C710 C722 1.349 . S
C711 C709 1.327 . S
C711 C727 1.429 . S
C711 H733 0.950 . S
C712 H708 0.949 . S
C712 C720 1.574 1_455 S
C712 C728 1.368 . S
H713 C721 0.950 . S
H714 C719 0.950 . S
H715 C720 0.949 . S
H716 C722 0.950 . S
H717 C723 0.950 . S
H718 C724 0.949 . S
C719 H714 0.950 . S
C719 C721 1.327 . S
C719 C725 1.429 . S
C720 C712 1.574 1_655 S
C720 H715 0.949 . S
C720 C726 1.368 . S
C721 C705 1.349 . S
C721 H713 0.950 . S
C721 C719 1.327 . S
C722 C710 1.349 . S
C722 H716 0.950 . S
C722 C723 1.327 . S
C723 H717 0.950 . S
C723 C722 1.327 . S
C723 C727 1.429 . S
C724 C707 1.574 1_455 S
C724 H718 0.949 . S
C724 C728 1.368 . S
C725 C706 1.429 . S
C725 C719 1.429 . S
C725 C726 1.523 . S
C726 C707 1.368 . S
C726 C720 1.368 . S
C726 C725 1.523 . S
C727 C711 1.429 . S
C727 C723 1.429 . S
C727 C728 1.523 . S
C728 C712 1.368 . S
C728 C724 1.368 . S
C728 C727 1.523 . S
H729 C704 0.950 . S
H730 C706 0.950 . S
H731 C707 0.949 . S
H732 C709 0.950 . S
H733 C711 0.950 . S
C734 C735 1.349 . S
C734 C736 1.327 . S
C734 H759 0.950 . S
C735 C734 1.349 . S
C735 C751 1.349 . S
C736 C734 1.327 . S
C736 C755 1.429 . S
C736 H760 0.950 . S
C737 C754 1.574 1_565 S
C737 C756 1.368 . S
C737 H761 0.949 . S
H738 C742 0.949 . S
C739 C740 1.349 . S
C739 C741 1.327 . S
C739 H762 0.950 . S
C740 C739 1.349 . S
C740 C752 1.349 . S
C741 C739 1.327 . S
C741 C757 1.429 . S
C741 H763 0.950 . S
C742 H738 0.949 . S
C742 C750 1.574 1_545 S
C742 C758 1.368 . S
H743 C751 0.950 . S
H744 C749 0.950 . S
H745 C750 0.949 . S
H746 C752 0.950 . S
H747 C753 0.950 . S
H748 C754 0.949 . S
C749 H744 0.950 . S
C749 C751 1.327 . S
C749 C755 1.429 . S
C750 C742 1.574 1_565 S
C750 H745 0.949 . S
C750 C756 1.368 . S
C751 C735 1.349 . S
C751 H743 0.950 . S
C751 C749 1.327 . S
C752 C740 1.349 . S
C752 H746 0.950 . S
C752 C753 1.327 . S
C753 H747 0.950 . S
C753 C752 1.327 . S
C753 C757 1.429 . S
C754 C737 1.574 1_545 S
C754 H748 0.949 . S
C754 C758 1.368 . S
C755 C736 1.429 . S
C755 C749 1.429 . S
C755 C756 1.523 . S
C756 C737 1.368 . S
C756 C750 1.368 . S
C756 C755 1.523 . S
C757 C741 1.429 . S
C757 C753 1.429 . S
C757 C758 1.523 . S
C758 C742 1.368 . S
C758 C754 1.368 . S
C758 C757 1.523 . S
H759 C734 0.950 . S
H760 C736 0.950 . S
H761 C737 0.949 . S
H762 C739 0.950 . S
H763 C741 0.950 . S
C764 C765 1.349 . S
C764 C766 1.327 . S
C764 H789 0.950 . S
C765 C764 1.349 . S
C765 C781 1.349 . S
C766 C764 1.327 . S
C766 C785 1.429 . S
C766 H790 0.950 . S
C767 C784 1.574 1_455 S
C767 C786 1.368 . S
C767 H791 0.949 . S
H768 C772 0.949 . S
C769 C770 1.349 . S
C769 C771 1.327 . S
C769 H792 0.950 . S
C770 C769 1.349 . S
C770 C782 1.349 . S
C771 C769 1.327 . S
C771 C787 1.429 . S
C771 H793 0.950 . S
C772 H768 0.949 . S
C772 C780 1.574 1_655 S
C772 C788 1.368 . S
H773 C781 0.950 . S
H774 C779 0.950 . S
H775 C780 0.949 . S
H776 C782 0.950 . S
H777 C783 0.950 . S
H778 C784 0.949 . S
C779 H774 0.950 . S
C779 C781 1.327 . S
C779 C785 1.429 . S
C780 C772 1.574 1_455 S
C780 H775 0.949 . S
C780 C786 1.368 . S
C781 C765 1.349 . S
C781 H773 0.950 . S
C781 C779 1.327 . S
C782 C770 1.349 . S
C782 H776 0.950 . S
C782 C783 1.327 . S
C783 H777 0.950 . S
C783 C782 1.327 . S
C783 C787 1.429 . S
C784 C767 1.574 1_655 S
C784 H778 0.949 . S
C784 C788 1.368 . S
C785 C766 1.429 . S
C785 C779 1.429 . S
C785 C786 1.523 . S
C786 C767 1.368 . S
C786 C780 1.368 . S
C786 C785 1.523 . S
C787 C771 1.429 . S
C787 C783 1.429 . S
C787 C788 1.523 . S
C788 C772 1.368 . S
C788 C784 1.368 . S
C788 C787 1.523 . S
H789 C764 0.950 . S
H790 C766 0.950 . S
H791 C767 0.949 . S
H792 C769 0.950 . S
H793 C771 0.950 . S
C794 C795 1.349 . S
C794 C796 1.327 . S
C794 H819 0.950 . S
C795 C794 1.349 . S
C795 C811 1.349 . S
C796 C794 1.327 . S
C796 C815 1.429 . S
C796 H820 0.950 . S
C797 C814 1.574 1_565 S
C797 C816 1.368 . S
C797 H821 0.949 . S
H798 C802 0.949 . S
C799 C800 1.349 . S
C799 C801 1.327 . S
C799 H822 0.950 . S
C800 C799 1.349 . S
C800 C812 1.349 . S
C801 C799 1.327 . S
C801 C817 1.429 . S
C801 H823 0.950 . S
C802 H798 0.949 . S
C802 C810 1.574 1_545 S
C802 C818 1.368 . S
H803 C811 0.950 . S
H804 C809 0.950 . S
H805 C810 0.949 . S
H806 C812 0.950 . S
H807 C813 0.950 . S
H808 C814 0.949 . S
C809 H804 0.950 . S
C809 C811 1.327 . S
C809 C815 1.429 . S
C810 C802 1.574 1_565 S
C810 H805 0.949 . S
C810 C816 1.368 . S
C811 C795 1.349 . S
C811 H803 0.950 . S
C811 C809 1.327 . S
C812 C800 1.349 . S
C812 H806 0.950 . S
C812 C813 1.327 . S
C813 H807 0.950 . S
C813 C812 1.327 . S
C813 C817 1.429 . S
C814 C797 1.574 1_545 S
C814 H808 0.949 . S
C814 C818 1.368 . S
C815 C796 1.429 . S
C815 C809 1.429 . S
C815 C816 1.523 . S
C816 C797 1.368 . S
C816 C810 1.368 . S
C816 C815 1.523 . S
C817 C801 1.429 . S
C817 C813 1.429 . S
C817 C818 1.523 . S
C818 C802 1.368 . S
C818 C814 1.368 . S
C818 C817 1.523 . S
H819 C794 0.950 . S
H820 C796 0.950 . S
H821 C797 0.949 . S
H822 C799 0.950 . S
H823 C801 0.950 . S
C824 C825 1.349 . S
C824 C826 1.327 . S
C824 H849 0.950 . S
C825 C824 1.349 . S
C825 C841 1.349 . S
C826 C824 1.327 . S
C826 C845 1.429 . S
C826 H850 0.950 . S
C827 C844 1.574 . S
C827 C846 1.368 . S
C827 H851 0.949 . S
H828 C832 0.949 . S
C829 C830 1.349 . S
C829 C831 1.327 . S
C829 H852 0.950 . S
C830 C829 1.349 . S
C830 C842 1.349 . S
C831 C829 1.327 . S
C831 C847 1.429 . S
C831 H853 0.950 . S
C832 H828 0.949 . S
C832 C840 1.574 . S
C832 C848 1.368 . S
H833 C841 0.950 . S
H834 C839 0.950 . S
H835 C840 0.949 . S
H836 C842 0.950 . S
H837 C843 0.950 . S
H838 C844 0.949 . S
C839 H834 0.950 . S
C839 C841 1.327 . S
C839 C845 1.429 . S
C840 C832 1.574 . S
C840 H835 0.949 . S
C840 C846 1.368 . S
C841 C825 1.349 . S
C841 H833 0.950 . S
C841 C839 1.327 . S
C842 C830 1.349 . S
C842 H836 0.950 . S
C842 C843 1.327 . S
C843 H837 0.950 . S
C843 C842 1.327 . S
C843 C847 1.429 . S
C844 C827 1.574 . S
C844 H838 0.949 . S
C844 C848 1.368 . S
C845 C826 1.429 . S
C845 C839 1.429 . S
C845 C846 1.523 . S
C846 C827 1.368 . S
C846 C840 1.368 . S
C846 C845 1.523 . S
C847 C831 1.429 . S
C847 C843 1.429 . S
C847 C848 1.523 . S
C848 C832 1.368 . S
C848 C844 1.368 . S
C848 C847 1.523 . S
H849 C824 0.950 . S
H850 C826 0.950 . S
H851 C827 0.949 . S
H852 C829 0.950 . S
H853 C831 0.950 . S
C854 C855 1.349 . S
C854 C856 1.327 . S
C854 H879 0.950 . S
C855 C854 1.349 . S
C855 C871 1.349 . S
C856 C854 1.327 . S
C856 C875 1.429 . S
C856 H880 0.950 . S
C857 C874 1.574 . S
C857 C876 1.368 . S
C857 H881 0.949 . S
H858 C862 0.949 . S
C859 C860 1.349 . S
C859 C861 1.327 . S
C859 H882 0.950 . S
C860 C859 1.349 . S
C860 C872 1.349 . S
C861 C859 1.327 . S
C861 C877 1.429 . S
C861 H883 0.950 . S
C862 H858 0.949 . S
C862 C870 1.574 . S
C862 C878 1.368 . S
H863 C871 0.950 . S
H864 C869 0.950 . S
H865 C870 0.949 . S
H866 C872 0.950 . S
H867 C873 0.950 . S
H868 C874 0.949 . S
C869 H864 0.950 . S
C869 C871 1.327 . S
C869 C875 1.429 . S
C870 C862 1.574 . S
C870 H865 0.949 . S
C870 C876 1.368 . S
C871 C855 1.349 . S
C871 H863 0.950 . S
C871 C869 1.327 . S
C872 C860 1.349 . S
C872 H866 0.950 . S
C872 C873 1.327 . S
C873 H867 0.950 . S
C873 C872 1.327 . S
C873 C877 1.429 . S
C874 C857 1.574 . S
C874 H868 0.949 . S
C874 C878 1.368 . S
C875 C856 1.429 . S
C875 C869 1.429 . S
C875 C876 1.523 . S
C876 C857 1.368 . S
C876 C870 1.368 . S
C876 C875 1.523 . S
C877 C861 1.429 . S
C877 C873 1.429 . S
C877 C878 1.523 . S
C878 C862 1.368 . S
C878 C874 1.368 . S
C878 C877 1.523 . S
H879 C854 0.950 . S
H880 C856 0.950 . S
H881 C857 0.949 . S
H882 C859 0.950 . S
H883 C861 0.950 . S
C884 C885 1.349 . S
C884 C886 1.327 . S
C884 H909 0.950 . S
C885 C884 1.349 . S
C885 C901 1.349 . S
C886 C884 1.327 . S
C886 C905 1.429 . S
C886 H910 0.950 . S
C887 C904 1.574 . S
C887 C906 1.368 . S
C887 H911 0.949 . S
H888 C892 0.949 . S
C889 C890 1.349 . S
C889 C891 1.327 . S
C889 H912 0.950 . S
C890 C889 1.349 . S
C890 C902 1.349 . S
C891 C889 1.327 . S
C891 C907 1.429 . S
C891 H913 0.950 . S
C892 H888 0.949 . S
C892 C900 1.574 . S
C892 C908 1.368 . S
H893 C901 0.950 . S
H894 C899 0.950 . S
H895 C900 0.949 . S
H896 C902 0.950 . S
H897 C903 0.950 . S
H898 C904 0.949 . S
C899 H894 0.950 . S
C899 C901 1.327 . S
C899 C905 1.429 . S
C900 C892 1.574 . S
C900 H895 0.949 . S
C900 C906 1.368 . S
C901 C885 1.349 . S
C901 H893 0.950 . S
C901 C899 1.327 . S
C902 C890 1.349 . S
C902 H896 0.950 . S
C902 C903 1.327 . S
C903 H897 0.950 . S
C903 C902 1.327 . S
C903 C907 1.429 . S
C904 C887 1.574 . S
C904 H898 0.949 . S
C904 C908 1.368 . S
C905 C886 1.429 . S
C905 C899 1.429 . S
C905 C906 1.523 . S
C906 C887 1.368 . S
C906 C900 1.368 . S
C906 C905 1.523 . S
C907 C891 1.429 . S
C907 C903 1.429 . S
C907 C908 1.523 . S
C908 C892 1.368 . S
C908 C904 1.368 . S
C908 C907 1.523 . S
H909 C884 0.950 . S
H910 C886 0.950 . S
H911 C887 0.949 . S
H912 C889 0.950 . S
H913 C891 0.950 . S
C914 C915 1.349 . S
C914 C916 1.327 . S
C914 H939 0.950 . S
C915 C914 1.349 . S
C915 C931 1.349 . S
C916 C914 1.327 . S
C916 C935 1.429 . S
C916 H940 0.950 . S
C917 C934 1.574 . S
C917 C936 1.368 . S
C917 H941 0.949 . S
H918 C922 0.949 . S
C919 C920 1.349 . S
C919 C921 1.327 . S
C919 H942 0.950 . S
C920 C919 1.349 . S
C920 C932 1.349 . S
C921 C919 1.327 . S
C921 C937 1.429 . S
C921 H943 0.950 . S
C922 H918 0.949 . S
C922 C930 1.574 . S
C922 C938 1.368 . S
H923 C931 0.950 . S
H924 C929 0.950 . S
H925 C930 0.949 . S
H926 C932 0.950 . S
H927 C933 0.950 . S
H928 C934 0.949 . S
C929 H924 0.950 . S
C929 C931 1.327 . S
C929 C935 1.429 . S
C930 C922 1.574 . S
C930 H925 0.949 . S
C930 C936 1.368 . S
C931 C915 1.349 . S
C931 H923 0.950 . S
C931 C929 1.327 . S
C932 C920 1.349 . S
C932 H926 0.950 . S
C932 C933 1.327 . S
C933 H927 0.950 . S
C933 C932 1.327 . S
C933 C937 1.429 . S
C934 C917 1.574 . S
C934 H928 0.949 . S
C934 C938 1.368 . S
C935 C916 1.429 . S
C935 C929 1.429 . S
C935 C936 1.523 . S
C936 C917 1.368 . S
C936 C930 1.368 . S
C936 C935 1.523 . S
C937 C921 1.429 . S
C937 C933 1.429 . S
C937 C938 1.523 . S
C938 C922 1.368 . S
C938 C934 1.368 . S
C938 C937 1.523 . S
H939 C914 0.950 . S
H940 C916 0.950 . S
H941 C917 0.949 . S
H942 C919 0.950 . S
H943 C921 0.950 . S
C944 C945 1.349 . S
C944 C946 1.327 . S
C944 H969 0.950 . S
C945 C944 1.349 . S
C945 C961 1.349 . S
C946 C944 1.327 . S
C946 C965 1.429 . S
C946 H970 0.950 . S
C947 C964 1.574 . S
C947 C966 1.368 . S
C947 H971 0.949 . S
H948 C952 0.949 . S
C949 C950 1.349 . S
C949 C951 1.327 . S
C949 H972 0.950 . S
C950 C949 1.349 . S
C950 C962 1.349 . S
C951 C949 1.327 . S
C951 C967 1.429 . S
C951 H973 0.950 . S
C952 H948 0.949 . S
C952 C960 1.574 . S
C952 C968 1.368 . S
H953 C961 0.950 . S
H954 C959 0.950 . S
H955 C960 0.949 . S
H956 C962 0.950 . S
H957 C963 0.950 . S
H958 C964 0.949 . S
C959 H954 0.950 . S
C959 C961 1.327 . S
C959 C965 1.429 . S
C960 C952 1.574 . S
C960 H955 0.949 . S
C960 C966 1.368 . S
C961 C945 1.349 . S
C961 H953 0.950 . S
C961 C959 1.327 . S
C962 C950 1.349 . S
C962 H956 0.950 . S
C962 C963 1.327 . S
C963 H957 0.950 . S
C963 C962 1.327 . S
C963 C967 1.429 . S
C964 C947 1.574 . S
C964 H958 0.949 . S
C964 C968 1.368 . S
C965 C946 1.429 . S
C965 C959 1.429 . S
C965 C966 1.523 . S
C966 C947 1.368 . S
C966 C960 1.368 . S
C966 C965 1.523 . S
C967 C951 1.429 . S
C967 C963 1.429 . S
C967 C968 1.523 . S
C968 C952 1.368 . S
C968 C964 1.368 . S
C968 C967 1.523 . S
H969 C944 0.950 . S
H970 C946 0.950 . S
H971 C947 0.949 . S
H972 C949 0.950 . S
H973 C951 0.950 . S
C974 C975 1.349 . S
C974 C976 1.327 . S
C974 H999 0.950 . S
C975 C974 1.349 . S
C975 C991 1.349 . S
C976 C974 1.327 . S
C976 C995 1.429 . S
C976 H1000 0.950 . S
C977 C994 1.574 . S
C977 C996 1.368 . S
C977 H1001 0.949 . S
H978 C982 0.949 . S
C979 C980 1.349 . S
C979 C981 1.327 . S
C979 H1002 0.950 . S
C980 C979 1.349 . S
C980 C992 1.349 . S
C981 C979 1.327 . S
C981 C997 1.429 . S
C981 H1003 0.950 . S
C982 H978 0.949 . S
C982 C990 1.574 . S
C982 C998 1.368 . S
H983 C991 0.950 . S
H984 C989 0.950 . S
H985 C990 0.949 . S
H986 C992 0.950 . S
H987 C993 0.950 . S
H988 C994 0.949 . S
C989 H984 0.950 . S
C989 C991 1.327 . S
C989 C995 1.429 . S
C990 C982 1.574 . S
C990 H985 0.949 . S
C990 C996 1.368 . S
C991 C975 1.349 . S
C991 H983 0.950 . S
C991 C989 1.327 . S
C992 C980 1.349 . S
C992 H986 0.950 . S
C992 C993 1.327 . S
C993 H987 0.950 . S
C993 C992 1.327 . S
C993 C997 1.429 . S
C994 C977 1.574 . S
C994 H988 0.949 . S
C994 C998 1.368 . S
C995 C976 1.429 . S
C995 C989 1.429 . S
C995 C996 1.523 . S
C996 C977 1.368 . S
C996 C990 1.368 . S
C996 C995 1.523 . S
C997 C981 1.429 . S
C997 C993 1.429 . S
C997 C998 1.523 . S
C998 C982 1.368 . S
C998 C994 1.368 . S
C998 C997 1.523 . S
H999 C974 0.950 . S
H1000 C976 0.950 . S
H1001 C977 0.949 . S
H1002 C979 0.950 . S
H1003 C981 0.950 . S
C1004 C1005 1.349 . S
C1004 C1006 1.327 . S
C1004 H1029 0.950 . S
C1005 C1004 1.349 . S
C1005 C1021 1.349 . S
C1006 C1004 1.327 . S
C1006 C1025 1.429 . S
C1006 H1030 0.950 . S
C1007 C1024 1.574 . S
C1007 C1026 1.368 . S
C1007 H1031 0.949 . S
H1008 C1012 0.949 . S
C1009 C1010 1.349 . S
C1009 C1011 1.327 . S
C1009 H1032 0.950 . S
C1010 C1009 1.349 . S
C1010 C1022 1.349 . S
C1011 C1009 1.327 . S
C1011 C1027 1.429 . S
C1011 H1033 0.950 . S
C1012 H1008 0.949 . S
C1012 C1020 1.574 . S
C1012 C1028 1.368 . S
H1013 C1021 0.950 . S
H1014 C1019 0.950 . S
H1015 C1020 0.949 . S
H1016 C1022 0.950 . S
H1017 C1023 0.950 . S
H1018 C1024 0.949 . S
C1019 H1014 0.950 . S
C1019 C1021 1.327 . S
C1019 C1025 1.429 . S
C1020 C1012 1.574 . S
C1020 H1015 0.949 . S
C1020 C1026 1.368 . S
C1021 C1005 1.349 . S
C1021 H1013 0.950 . S
C1021 C1019 1.327 . S
C1022 C1010 1.349 . S
C1022 H1016 0.950 . S
C1022 C1023 1.327 . S
C1023 H1017 0.950 . S
C1023 C1022 1.327 . S
C1023 C1027 1.429 . S
C1024 C1007 1.574 . S
C1024 H1018 0.949 . S
C1024 C1028 1.368 . S
C1025 C1006 1.429 . S
C1025 C1019 1.429 . S
C1025 C1026 1.523 . S
C1026 C1007 1.368 . S
C1026 C1020 1.368 . S
C1026 C1025 1.523 . S
C1027 C1011 1.429 . S
C1027 C1023 1.429 . S
C1027 C1028 1.523 . S
C1028 C1012 1.368 . S
C1028 C1024 1.368 . S
C1028 C1027 1.523 . S
H1029 C1004 0.950 . S
H1030 C1006 0.950 . S
H1031 C1007 0.949 . S
H1032 C1009 0.950 . S
H1033 C1011 0.950 . S
C1034 C1035 1.349 . S
C1034 C1036 1.327 . S
C1034 H1059 0.950 . S
C1035 C1034 1.349 . S
C1035 C1051 1.349 . S
C1036 C1034 1.327 . S
C1036 C1055 1.429 . S
C1036 H1060 0.950 . S
C1037 C1054 1.574 . S
C1037 C1056 1.368 . S
C1037 H1061 0.949 . S
H1038 C1042 0.949 . S
C1039 C1040 1.349 . S
C1039 C1041 1.327 . S
C1039 H1062 0.950 . S
C1040 C1039 1.349 . S
C1040 C1052 1.349 . S
C1041 C1039 1.327 . S
C1041 C1057 1.429 . S
C1041 H1063 0.950 . S
C1042 H1038 0.949 . S
C1042 C1050 1.574 . S
C1042 C1058 1.368 . S
H1043 C1051 0.950 . S
H1044 C1049 0.950 . S
H1045 C1050 0.949 . S
H1046 C1052 0.950 . S
H1047 C1053 0.950 . S
H1048 C1054 0.949 . S
C1049 H1044 0.950 . S
C1049 C1051 1.327 . S
C1049 C1055 1.429 . S
C1050 C1042 1.574 . S
C1050 H1045 0.949 . S
C1050 C1056 1.368 . S
C1051 C1035 1.349 . S
C1051 H1043 0.950 . S
C1051 C1049 1.327 . S
C1052 C1040 1.349 . S
C1052 H1046 0.950 . S
C1052 C1053 1.327 . S
C1053 H1047 0.950 . S
C1053 C1052 1.327 . S
C1053 C1057 1.429 . S
C1054 C1037 1.574 . S
C1054 H1048 0.949 . S
C1054 C1058 1.368 . S
C1055 C1036 1.429 . S
C1055 C1049 1.429 . S
C1055 C1056 1.523 . S
C1056 C1037 1.368 . S
C1056 C1050 1.368 . S
C1056 C1055 1.523 . S
C1057 C1041 1.429 . S
C1057 C1053 1.429 . S
C1057 C1058 1.523 . S
C1058 C1042 1.368 . S
C1058 C1054 1.368 . S
C1058 C1057 1.523 . S
H1059 C1034 0.950 . S
H1060 C1036 0.950 . S
H1061 C1037 0.949 . S
H1062 C1039 0.950 . S
H1063 C1041 0.950 . S
C1064 C1065 1.349 . S
C1064 C1066 1.327 . S
C1064 H1089 0.950 . S
C1065 C1064 1.349 . S
C1065 C1081 1.349 . S
C1066 C1064 1.327 . S
C1066 C1085 1.429 . S
C1066 H1090 0.950 . S
C1067 C1084 1.574 . S
C1067 C1086 1.368 . S
C1067 H1091 0.949 . S
H1068 C1072 0.949 . S
C1069 C1070 1.349 . S
C1069 C1071 1.327 . S
C1069 H1092 0.950 . S
C1070 C1069 1.349 . S
C1070 C1082 1.349 . S
C1071 C1069 1.327 . S
C1071 C1087 1.429 . S
C1071 H1093 0.950 . S
C1072 H1068 0.949 . S
C1072 C1080 1.574 . S
C1072 C1088 1.368 . S
H1073 C1081 0.950 . S
H1074 C1079 0.950 . S
H1075 C1080 0.949 . S
H1076 C1082 0.950 . S
H1077 C1083 0.950 . S
H1078 C1084 0.949 . S
C1079 H1074 0.950 . S
C1079 C1081 1.327 . S
C1079 C1085 1.429 . S
C1080 C1072 1.574 . S
C1080 H1075 0.949 . S
C1080 C1086 1.368 . S
C1081 C1065 1.349 . S
C1081 H1073 0.950 . S
C1081 C1079 1.327 . S
C1082 C1070 1.349 . S
C1082 H1076 0.950 . S
C1082 C1083 1.327 . S
C1083 H1077 0.950 . S
C1083 C1082 1.327 . S
C1083 C1087 1.429 . S
C1084 C1067 1.574 . S
C1084 H1078 0.949 . S
C1084 C1088 1.368 . S
C1085 C1066 1.429 . S
C1085 C1079 1.429 . S
C1085 C1086 1.523 . S
C1086 C1067 1.368 . S
C1086 C1080 1.368 . S
C1086 C1085 1.523 . S
C1087 C1071 1.429 . S
C1087 C1083 1.429 . S
C1087 C1088 1.523 . S
C1088 C1072 1.368 . S
C1088 C1084 1.368 . S
C1088 C1087 1.523 . S
H1089 C1064 0.950 . S
H1090 C1066 0.950 . S
H1091 C1067 0.949 . S
H1092 C1069 0.950 . S
H1093 C1071 0.950 . S
C1094 C1095 1.349 . S
C1094 C1096 1.327 . S
C1094 H1119 0.950 . S
C1095 C1094 1.349 . S
C1095 C1111 1.349 . S
C1096 C1094 1.327 . S
C1096 C1115 1.429 . S
C1096 H1120 0.950 . S
C1097 C1114 1.574 . S
C1097 C1116 1.368 . S
C1097 H1121 0.949 . S
H1098 C1102 0.949 . S
C1099 C1100 1.349 . S
C1099 C1101 1.327 . S
C1099 H1122 0.950 . S
C1100 C1099 1.349 . S
C1100 C1112 1.349 . S
C1101 C1099 1.327 . S
C1101 C1117 1.429 . S
C1101 H1123 0.950 . S
C1102 H1098 0.949 . S
C1102 C1110 1.574 . S
C1102 C1118 1.368 . S
H1103 C1111 0.950 . S
H1104 C1109 0.950 . S
H1105 C1110 0.949 . S
H1106 C1112 0.950 . S
H1107 C1113 0.950 . S
H1108 C1114 0.949 . S
C1109 H1104 0.950 . S
C1109 C1111 1.327 . S
C1109 C1115 1.429 . S
C1110 C1102 1.574 . S
C1110 H1105 0.949 . S
C1110 C1116 1.368 . S
C1111 C1095 1.349 . S
C1111 H1103 0.950 . S
C1111 C1109 1.327 . S
C1112 C1100 1.349 . S
C1112 H1106 0.950 . S
C1112 C1113 1.327 . S
C1113 H1107 0.950 . S
C1113 C1112 1.327 . S
C1113 C1117 1.429 . S
C1114 C1097 1.574 . S
C1114 H1108 0.949 . S
C1114 C1118 1.368 . S
C1115 C1096 1.429 . S
C1115 C1109 1.429 . S
C1115 C1116 1.523 . S
C1116 C1097 1.368 . S
C1116 C1110 1.368 . S
C1116 C1115 1.523 . S
C1117 C1101 1.429 . S
C1117 C1113 1.429 . S
C1117 C1118 1.523 . S
C1118 C1102 1.368 . S
C1118 C1114 1.368 . S
C1118 C1117 1.523 . S
H1119 C1094 0.950 . S
H1120 C1096 0.950 . S
H1121 C1097 0.949 . S
H1122 C1099 0.950 . S
H1123 C1101 0.950 . S
C1124 C1125 1.349 . S
C1124 C1126 1.327 . S
C1124 H1149 0.950 . S
C1125 C1124 1.349 . S
C1125 C1141 1.349 . S
C1126 C1124 1.327 . S
C1126 C1145 1.429 . S
C1126 H1150 0.950 . S
C1127 C1144 1.574 . S
C1127 C1146 1.368 . S
C1127 H1151 0.949 . S
H1128 C1132 0.949 . S
C1129 C1130 1.349 . S
C1129 C1131 1.327 . S
C1129 H1152 0.950 . S
C1130 C1129 1.349 . S
C1130 C1142 1.349 . S
C1131 C1129 1.327 . S
C1131 C1147 1.429 . S
C1131 H1153 0.950 . S
C1132 H1128 0.949 . S
C1132 C1140 1.574 . S
C1132 C1148 1.368 . S
H1133 C1141 0.950 . S
H1134 C1139 0.950 . S
H1135 C1140 0.949 . S
H1136 C1142 0.950 . S
H1137 C1143 0.950 . S
H1138 C1144 0.949 . S
C1139 H1134 0.950 . S
C1139 C1141 1.327 . S
C1139 C1145 1.429 . S
C1140 C1132 1.574 . S
C1140 H1135 0.949 . S
C1140 C1146 1.368 . S
C1141 C1125 1.349 . S
C1141 H1133 0.950 . S
C1141 C1139 1.327 . S
C1142 C1130 1.349 . S
C1142 H1136 0.950 . S
C1142 C1143 1.327 . S
C1143 H1137 0.950 . S
C1143 C1142 1.327 . S
C1143 C1147 1.429 . S
C1144 C1127 1.574 . S
C1144 H1138 0.949 . S
C1144 C1148 1.368 . S
C1145 C1126 1.429 . S
C1145 C1139 1.429 . S
C1145 C1146 1.523 . S
C1146 C1127 1.368 . S
C1146 C1140 1.368 . S
C1146 C1145 1.523 . S
C1147 C1131 1.429 . S
C1147 C1143 1.429 . S
C1147 C1148 1.523 . S
C1148 C1132 1.368 . S
C1148 C1144 1.368 . S
C1148 C1147 1.523 . S
H1149 C1124 0.950 . S
H1150 C1126 0.950 . S
H1151 C1127 0.949 . S
H1152 C1129 0.950 . S
H1153 C1131 0.950 . S
C1154 C1155 1.349 . S
C1154 C1156 1.327 . S
C1154 H1179 0.950 . S
C1155 C1154 1.349 . S
C1155 C1171 1.349 . S
C1156 C1154 1.327 . S
C1156 C1175 1.429 . S
C1156 H1180 0.950 . S
C1157 C1174 1.574 . S
C1157 C1176 1.368 . S
C1157 H1181 0.949 . S
H1158 C1162 0.949 . S
C1159 C1160 1.349 . S
C1159 C1161 1.327 . S
C1159 H1182 0.950 . S
C1160 C1159 1.349 . S
C1160 C1172 1.349 . S
C1161 C1159 1.327 . S
C1161 C1177 1.429 . S
C1161 H1183 0.950 . S
C1162 H1158 0.949 . S
C1162 C1170 1.574 . S
C1162 C1178 1.368 . S
H1163 C1171 0.950 . S
H1164 C1169 0.950 . S
H1165 C1170 0.949 . S
H1166 C1172 0.950 . S
H1167 C1173 0.950 . S
H1168 C1174 0.949 . S
C1169 H1164 0.950 . S
C1169 C1171 1.327 . S
C1169 C1175 1.429 . S
C1170 C1162 1.574 . S
C1170 H1165 0.949 . S
C1170 C1176 1.368 . S
C1171 C1155 1.349 . S
C1171 H1163 0.950 . S
C1171 C1169 1.327 . S
C1172 C1160 1.349 . S
C1172 H1166 0.950 . S
C1172 C1173 1.327 . S
C1173 H1167 0.950 . S
C1173 C1172 1.327 . S
C1173 C1177 1.429 . S
C1174 C1157 1.574 . S
C1174 H1168 0.949 . S
C1174 C1178 1.368 . S
C1175 C1156 1.429 . S
C1175 C1169 1.429 . S
C1175 C1176 1.523 . S
C1176 C1157 1.368 . S
C1176 C1170 1.368 . S
C1176 C1175 1.523 . S
C1177 C1161 1.429 . S
C1177 C1173 1.429 . S
C1177 C1178 1.523 . S
C1178 C1162 1.368 . S
C1178 C1174 1.368 . S
C1178 C1177 1.523 . S
H1179 C1154 0.950 . S
H1180 C1156 0.950 . S
H1181 C1157 0.949 . S
H1182 C1159 0.950 . S
H1183 C1161 0.950 . S
C225 C221 0.880 . S
C230 C11 0.880 . S
C255 C179 0.880 . S
C260 C25 0.880 . S
C285 C39 0.880 . S
C290 C193 0.880 . S
C315 C207 0.880 . S
C320 C53 0.880 . S
C345 C137 0.880 . S
C350 C67 0.880 . S
C375 C81 0.880 . S
C380 C151 0.880 . S
C405 C95 0.880 . S
C410 C165 0.880 . S
C435 C109 0.880 . S
C440 C123 0.880 . S
C465 C79 1.397 . S
C470 C5 1.419 . S
C495 C89 1.419 . S
C500 C23 1.397 . S
C525 C107 1.397 . S
C530 C33 1.419 . S
C555 C51 1.397 . S
C560 C61 1.419 . S
C585 C0 1.509 . S
C590 C14 1.509 . S
C615 C37 1.397 . S
C620 C19 1.419 . S
C645 C28 1.508 . S
C650 C42 1.508 . S
C675 C9 1.397 . S
C680 C47 1.419 . S
C705 C98 1.508 . S
C710 C56 1.509 . S
C735 C65 1.397 . S
C740 C75 1.419 . S
C765 C70 1.508 . S
C770 C84 1.508 . S
C795 C103 1.419 . S
C800 C93 1.397 . S
C825 C191 1.397 . S
C830 C117 1.419 . S
C855 C135 1.397 . S
C860 C201 1.419 . S
C885 C219 1.397 . S
C890 C145 1.419 . S
C915 C173 1.419 . S
C920 C163 1.397 . S
C945 C112 1.509 . S
C950 C126 1.509 . S
C975 C131 1.419 . S
C980 C149 1.397 . S
C1005 C154 1.508 . S
C1010 C140 1.508 . S
C1035 C121 1.397 . S
C1040 C159 1.419 . S
C1065 C210 1.508 . S
C1070 C168 1.509 . S
C1095 C177 1.397 . S
C1100 C187 1.419 . S
C1125 C182 1.508 . S
C1130 C196 1.508 . S
C1155 C215 1.419 . S
C1160 C205 1.397 . S
