# Generated by pormake.
# Topology sxb, (6)-cn, num edge types: 1
# Building blocks:
#     Node 0, Type 0, BuildingBlock: KUMBUR_clean_sbu_0, # of connection points: 6
#     Node 1, Type 0, BuildingBlock: KUMBUR_clean_sbu_0, # of connection points: 6
#     Node 2, Type 0, BuildingBlock: KUMBUR_clean_sbu_0, # of connection points: 6
#     Node 3, Type 0, BuildingBlock: KUMBUR_clean_sbu_0, # of connection points: 6
#     Edge 4, Type (0, 0), BuildingBlock: TEMPAE_clean_linker_10, # of connection points: 2
#     Edge 5, Type (0, 0), BuildingBlock: TEMPAE_clean_linker_10, # of connection points: 2
#     Edge 6, Type (0, 0), BuildingBlock: TEMPAE_clean_linker_10, # of connection points: 2
#     Edge 7, Type (0, 0), BuildingBlock: TEMPAE_clean_linker_10, # of connection points: 2
#     Edge 8, Type (0, 0), BuildingBlock: TEMPAE_clean_linker_10, # of connection points: 2
#     Edge 9, Type (0, 0), BuildingBlock: TEMPAE_clean_linker_10, # of connection points: 2
#     Edge 10, Type (0, 0), BuildingBlock: TEMPAE_clean_linker_10, # of connection points: 2
#     Edge 11, Type (0, 0), BuildingBlock: TEMPAE_clean_linker_10, # of connection points: 2
#     Edge 12, Type (0, 0), BuildingBlock: TEMPAE_clean_linker_10, # of connection points: 2
#     Edge 13, Type (0, 0), BuildingBlock: TEMPAE_clean_linker_10, # of connection points: 2
#     Edge 14, Type (0, 0), BuildingBlock: TEMPAE_clean_linker_10, # of connection points: 2
#     Edge 15, Type (0, 0), BuildingBlock: TEMPAE_clean_linker_10, # of connection points: 2
# Relax obj value: 0.286
# Max RMSD: 0.116
# Mean RMSD: 0.115
data_MOF--net-sxb--node1-KUMBUR_clean_sbu_0--edge1-TEMPAE_clean_linker_10
_symmetry_space_group_name_H-M    P1
_symmetry_Int_Tables_number       1
_symmetry_cell_setting            triclinic
loop_
_symmetry_equiv_pos_as_xyz
'x, y, z'
_cell_length_a     16.889825
_cell_length_b     33.136972
_cell_length_c     31.112053
_cell_angle_alpha  102.31113
_cell_angle_beta   113.08263
_cell_angle_gamma 71.189503
loop_
_atom_site_label
_atom_site_type_symbol
_atom_site_fract_x
_atom_site_fract_y
_atom_site_fract_z
_atom_type_partial_charge
Tb0 Tb 0.96058 1.03096 0.95157 0.0
C1 C 0.18944 0.13597 -0.0209 0.0
C2 C 0.29396 0.11004 0.93753 0.0
C3 C 0.23102 0.18655 0.95112 0.0
C4 C 0.24437 0.10228 0.96089 0.0
C5 C 0.18773 0.17849 0.97756 0.0
C6 C 0.28313 0.15227 0.93049 0.0
C7 C 0.11441 0.20095 0.03473 0.0
N8 N 0.14807 0.12689 0.00407 0.0
C9 C 0.11522 0.15841 0.03381 0.0
C10 C 0.14853 0.21122 0.00547 0.0
Tb11 Tb 0.1597 1.05586 0.00309 0.0
N12 N 0.25602 0.06221 0.97045 0.0
C13 C 0.32358 1.0291 0.96179 0.0
C14 C 0.3574 0.07557 0.92496 0.0
C15 C 0.37378 1.03517 0.93821 0.0
H16 H 0.08886 0.15134 0.05689 0.0
H17 H 0.42503 1.00859 0.93018 0.0
H18 H 0.31966 0.15887 0.91208 0.0
H19 H 0.08651 0.22583 0.05762 0.0
H20 H 0.33728 0.99748 0.97122 0.0
H21 H 0.11034 0.92628 0.09413 0.0
H22 H 0.39711 0.08022 0.90717 0.0
H23 H 0.91542 1.00172 0.83482 0.0
H24 H 0.08505 0.9905 0.06011 0.0
H25 H 0.89296 0.93836 0.78076 0.0
H26 H 0.22849 0.21906 0.94849 0.0
H27 H 0.06185 0.86407 0.04375 0.0
H28 H 0.99916 0.82939 0.96313 0.0
H29 H 0.14754 0.2442 0.00614 0.0
H30 H 0.94343 0.83212 0.87788 0.0
N31 N 1.00913 0.96952 -0.00991 0.0
C32 C 0.05646 0.9658 0.03716 0.0
C33 C 1.047 0.89327 0.02838 0.0
C34 C 1.0065 0.89535 -0.02001 0.0
C35 C 0.07411 0.92833 0.0569 0.0
C36 C 0.98941 0.9341 0.96157 0.0
H37 H 0.90821 0.87167 0.81004 0.0
N38 N 0.95364 0.97155 0.89712 0.0
C39 C 0.91279 0.93682 0.81807 0.0
C40 C 0.96053 0.93523 0.91355 0.0
C41 C 0.92828 0.97275 0.84962 0.0
C42 C 0.9205 0.89944 0.83465 0.0
C43 C 0.94452 0.89821 0.88279 0.0
O44 O 0.8458 1.04973 0.89268 0.0
O45 O 1.01554 0.08751 0.96554 0.0
O46 O 0.08363 0.07999 0.05163 0.0
O47 O 0.96639 1.0485 0.0245 0.0
O48 O 0.89843 0.098 0.97456 0.0
O49 O 0.84006 1.0223 0.94782 0.0
O50 O 0.21069 1.03142 0.06878 0.0
O51 O 0.10488 0.99981 0.97454 0.0
O52 O 0.99513 1.04374 0.8956 0.0
O53 O 0.1458 1.04015 0.9287 0.0
O54 O 0.2377 0.98743 0.00085 0.0
O55 O 0.26792 0.07506 0.0556 0.0
C56 C 0.9516 0.11885 0.97522 0.0
C57 C 0.71609 0.07852 0.91192 0.0
C58 C 0.63191 0.13108 0.9571 0.0
C59 C 0.70446 0.09604 0.95489 0.0
C60 C 0.5702 0.14883 0.9157 0.0
C61 C 0.65454 0.09691 0.87078 0.0
C62 C 0.58212 0.13196 0.87276 0.0
C63 C 1.02009 0.06946 0.05812 0.0
C64 C 0.794 1.04235 0.91015 0.0
C65 C 0.95573 0.86067 0.901 0.0
C66 C 0.98715 0.85916 0.94952 0.0
C67 C 0.17689 0.9671 -0.01865 0.0
C68 C 0.36367 1.02866 0.11423 0.0
C69 C 0.43038 1.05026 0.1309 0.0
C70 C 0.51859 1.03025 0.15702 0.0
C71 C 0.53962 0.98828 0.16803 0.0
C72 C 0.38463 0.98705 0.12648 0.0
C73 C 0.47232 0.9671 0.15346 0.0
C74 C 0.07205 1.04081 0.89181 0.0
C75 C 0.27309 1.05147 0.08569 0.0
H76 H 0.75091 0.08177 -0.01317 0.0
H77 H 0.51285 0.17535 0.91661 0.0
H78 H 0.66261 0.08421 0.83721 0.0
H79 H 0.5347 0.14583 0.84086 0.0
H80 H 0.41444 0.08231 0.12128 0.0
H81 H 0.60789 0.97176 0.18689 0.0
H82 H 0.33387 0.96992 0.11506 0.0
H83 H 0.48852 0.93479 0.16219 0.0
Tb84 Tb 0.0778 1.01978 0.46541 0.0
C85 C 0.81456 0.17397 0.47089 0.0
C86 C 0.72959 0.17076 0.38789 0.0
C87 C 0.66596 0.22235 0.44162 0.0
C88 C 0.80948 0.15753 0.42591 0.0
C89 C 0.74155 0.20556 0.47954 0.0
C90 C 0.65987 0.20485 0.3957 0.0
C91 C 0.81733 0.19703 0.56191 0.0
N92 N 0.88689 0.15527 0.50624 0.0
C93 C 0.88752 0.16561 0.5515 0.0
C94 C 0.74471 0.21772 0.52587 0.0
Tb95 Tb 1.00961 0.11285 0.48688 0.0
N96 N 0.87694 0.12355 0.42059 0.0
C97 C 0.85889 0.09625 0.37999 0.0
C98 C 0.71885 0.14679 0.34423 0.0
C99 C 0.78234 0.1083 0.3408 0.0
H100 H 0.94279 0.1508 0.58053 0.0
H101 H 0.77162 0.08743 0.30831 0.0
H102 H 0.59885 0.21601 0.36687 0.0
H103 H 0.8196 0.20539 0.59788 0.0
H104 H 0.90378 0.06522 0.37708 0.0
H105 H 0.33143 1.04156 0.63964 0.0
H106 H 0.6586 0.15569 0.31418 0.0
H107 H 0.12799 0.97646 0.36758 0.0
H108 H 0.19434 0.06506 0.57393 0.0
H109 H 0.24527 0.92013 0.3469 0.0
H110 H 0.60992 0.2471 0.44755 0.0
H111 H 0.44023 0.97262 0.63043 0.0
H112 H 0.49075 0.91166 0.57569 0.0
H113 H 0.69011 0.24183 0.53401 0.0
H114 H 0.469 0.87958 0.49438 0.0
N115 N 0.21431 1.00681 0.52906 0.0
C116 C 0.23715 1.03361 0.56974 0.0
C117 C 0.37776 0.98207 0.60178 0.0
C118 C 0.3614 0.95821 0.55793 0.0
C119 C 0.31663 1.02089 0.60712 0.0
C120 C 0.27886 0.97211 0.5217 0.0
H121 H 0.37973 0.88399 0.40876 0.0
N122 N 0.19289 0.97373 0.44198 0.0
C123 C 0.25243 0.92942 0.38349 0.0
C124 C 0.26763 0.95488 0.47618 0.0
C125 C 0.18577 0.96188 0.39581 0.0
C126 C 0.32784 0.90891 0.41842 0.0
C127 C 0.33714 0.9221 0.46546 0.0
O128 O 1.01346 0.99218 0.39945 0.0
O129 O 0.94839 1.05814 0.47079 0.0
O130 O 1.02746 0.0849 0.55041 0.0
O131 O 0.08174 1.012 0.53463 0.0
O132 O 0.94475 1.05883 0.47101 0.0
O133 O 0.06449 0.95739 0.46021 0.0
O134 O 0.06237 0.14254 0.5534 0.0
O135 O 0.14022 0.07497 0.48297 0.0
O136 O 0.07003 1.04749 0.40366 0.0
O137 O 1.01084 0.12026 0.41852 0.0
O138 O 0.14418 0.07457 0.48296 0.0
O139 O 1.02253 0.17551 0.49259 0.0
C140 C 0.88426 1.04128 0.47046 0.0
C141 C 0.93219 0.9466 0.39858 0.0
C142 C 0.8535 0.89401 0.38906 0.0
C143 C 0.93336 0.90575 0.40429 0.0
C144 C 0.77195 0.923 0.36747 0.0
C145 C 0.85016 0.97526 0.37589 0.0
C146 C 0.77056 0.96344 0.36055 0.0
C147 C 0.05535 1.04534 0.56279 0.0
C148 C 1.017 0.9583 0.41548 0.0
C149 C 0.41556 0.90513 0.50189 0.0
C150 C 0.42777 0.92324 0.54819 0.0
C151 C 0.20576 0.09348 0.48853 0.0
C152 C 0.14641 0.18844 0.55976 0.0
C153 C 0.1493 0.22722 0.55068 0.0
C154 C 0.22831 0.23998 0.57127 0.0
C155 C 0.30496 0.21425 0.60149 0.0
C156 C 0.22334 0.16286 0.5908 0.0
C157 C 0.30209 0.17583 0.6115 0.0
C158 C 1.04247 0.08721 0.39156 0.0
C159 C 0.06215 0.17598 0.5381 0.0
H160 H 0.99606 0.88353 0.42191 0.0
H161 H 0.70965 0.91444 0.35651 0.0
H162 H 0.84702 1.00689 0.37029 0.0
H163 H 0.70772 0.98583 0.34379 0.0
H164 H 0.09088 0.24697 0.52653 0.0
H165 H 0.36709 0.22346 0.61634 0.0
H166 H 0.22313 0.13288 0.59918 0.0
H167 H 0.36117 0.1558 0.63476 0.0
Tb168 Tb 0.44878 0.5333 0.94424 0.0
C169 C 0.65541 0.64567 0.00054 0.0
C170 C 0.73339 0.6479 0.95069 0.0
C171 C 0.67234 0.71361 -0.00739 0.0
C172 C 0.7003 0.62484 0.96992 0.0
C173 C 0.64433 0.69006 0.01379 0.0
C174 C 0.71611 0.69259 0.96078 0.0
C175 C 0.58705 0.6838 0.07127 0.0
N176 N 0.62942 0.62186 0.02039 0.0
C177 C 0.59867 0.63999 0.05667 0.0
C178 C 0.60837 0.70914 0.04913 0.0
Tb179 Tb 0.65869 0.5499 -0.00323 0.0
N180 N 0.71939 0.58147 0.96282 0.0
C181 C 0.78028 0.55901 0.94146 0.0
C182 C 0.78692 0.62511 0.92403 0.0
C183 C 0.81229 0.58043 0.92035 0.0
H184 H 0.58243 0.62097 0.07439 0.0
H185 H 0.8573 0.5625 0.90179 0.0
H186 H 0.73956 0.71095 0.94577 0.0
H187 H 0.56112 0.698 0.09941 0.0
H188 H 0.8016 0.52441 0.93959 0.0
H189 H 0.20909 0.57706 0.03378 0.0
H190 H 0.81301 0.64158 0.90837 0.0
H191 H 0.49712 0.44025 0.88154 0.0
H192 H 0.28575 0.58979 -0.01308 0.0
H193 H 0.51002 0.36449 0.8839 0.0
H194 H 0.66288 0.74785 0.00164 0.0
H195 H 0.24359 0.50464 0.0566 0.0
H196 H 0.32141 0.42608 0.04854 0.0
H197 H 0.59905 0.74308 0.06038 0.0
H198 H 0.40726 0.36705 0.00809 0.0
N199 N 0.36443 0.52506 -0.01659 0.0
C200 C 0.29981 0.55772 -0.00456 0.0
C201 C 0.27741 0.50996 0.0359 0.0
C202 C 0.33746 0.47603 0.02006 0.0
C203 C 0.25708 0.55081 0.02266 0.0
C204 C 0.37993 0.48478 -0.0066 0.0
H205 H 0.47546 0.34359 0.94487 0.0
N206 N 0.45993 0.46219 0.9422 0.0
C207 C 0.48955 0.38865 0.90971 0.0
C208 C 0.42979 0.45188 0.97179 0.0
C209 C 0.48271 0.43176 0.90874 0.0
C210 C 0.47012 0.37695 0.94423 0.0
C211 C 0.43623 0.40896 0.97465 0.0
O212 O 0.3982 0.55094 0.87584 0.0
O213 O 0.51586 0.58546 0.96986 0.0
O214 O 0.61837 0.53494 0.04914 0.0
O215 O 0.46602 0.55693 0.01809 0.0
O216 O 0.3826 0.60325 0.94958 0.0
O217 O 0.31938 0.52819 0.8997 0.0
O218 O 0.79901 0.52778 0.02548 0.0
O219 O 0.59369 0.49665 0.9771 0.0
O220 O 0.51903 0.51021 0.89353 0.0
O221 O 0.62217 0.54962 0.92053 0.0
O222 O 0.71425 0.4835 0.96973 0.0
O223 O 0.72218 0.55738 0.07008 0.0
C224 C 0.44815 0.62027 0.96362 0.0
C225 C 0.24608 0.58306 0.84763 0.0
C226 C 0.14363 0.65054 0.86369 0.0
C227 C 0.20027 0.61006 0.87628 0.0
C228 C 0.12674 0.66247 0.81965 0.0
C229 C 0.22965 0.59547 0.80384 0.0
C230 C 0.1692 0.63473 0.78968 0.0
C231 C 0.54025 0.54846 0.05442 0.0
C232 C 0.32028 0.54567 0.86618 0.0
C233 C 0.40132 0.39986 0.00463 0.0
C234 C 0.35214 0.43346 0.02751 0.0
C235 C 0.65403 0.46487 0.96446 0.0
C236 C 0.8567 0.57497 0.0916 0.0
C237 C 0.88517 0.59324 0.06567 0.0
C238 C 0.92556 0.62699 0.08546 0.0
C239 C 0.94065 0.64154 0.13311 0.0
C240 C 0.87257 0.58961 0.13923 0.0
C241 C 0.91506 0.62252 0.15992 0.0
C242 C 0.57414 0.52663 0.88658 0.0
C243 C 0.8015 0.54456 0.06772 0.0
H244 H 0.21065 0.60002 0.90933 0.0
H245 H 0.08211 0.69324 0.80881 0.0
H246 H 0.26515 0.57533 0.78119 0.0
H247 H 0.15701 0.64414 0.75592 0.0
H248 H 0.87311 0.58207 0.02921 0.0
H249 H 0.97277 0.66717 0.14967 0.0
H250 H 0.85043 0.57627 0.16006 0.0
H251 H 0.92688 0.63379 0.19664 0.0
Tb252 Tb 0.60076 0.50724 0.46518 0.0
C253 C 0.33783 0.66294 0.46815 0.0
C254 C 0.25214 0.65828 0.38533 0.0
C255 C 0.19271 0.71362 0.43801 0.0
C256 C 0.33151 0.64487 0.42344 0.0
C257 C 0.26696 0.6965 0.47632 0.0
C258 C 0.18516 0.69436 0.39242 0.0
C259 C 0.34379 0.69052 0.55918 0.0
N260 N 0.40977 0.6446 0.50388 0.0
C261 C 0.41249 0.65751 0.54921 0.0
C262 C 0.27139 0.71068 0.52261 0.0
Tb263 Tb 0.53054 0.60009 0.48455 0.0
N264 N 0.39701 0.60957 0.41875 0.0
C265 C 0.37654 0.58118 0.37925 0.0
C266 C 0.23916 0.63286 0.34243 0.0
C267 C 0.3 0.59314 0.34003 0.0
H268 H 0.46888 0.64381 0.57838 0.0
H269 H 0.28731 0.57135 0.3083 0.0
H270 H 0.12527 0.70599 0.36331 0.0
H271 H 0.34749 0.7008 0.59519 0.0
H272 H 0.41937 0.5493 0.37723 0.0
H273 H 0.84257 0.53372 0.64236 0.0
H274 H 0.17902 0.64182 0.31236 0.0
H275 H 0.6622 0.46752 0.37005 0.0
H276 H 0.70958 0.5564 0.57401 0.0
H277 H 0.78509 0.41291 0.35226 0.0
H278 H 0.13905 0.74036 0.4434 0.0
H279 H 0.95359 0.46467 0.63618 0.0
H280 H 1.00912 0.40264 0.5835 0.0
H281 H 0.21832 0.73628 0.53041 0.0
H282 H 0.99686 0.37144 0.5026 0.0
N283 N 0.73436 0.49751 0.53071 0.0
C284 C 0.75351 0.52497 0.57112 0.0
C285 C 0.89313 0.47386 0.60634 0.0
C286 C 0.88108 0.44975 0.56269 0.0
C287 C 0.83066 0.51274 0.60997 0.0
C288 C 0.80125 0.46342 0.52495 0.0
H289 H 0.91591 0.37705 0.416 0.0
N290 N 0.72205 0.46518 0.44463 0.0
C291 C 0.78883 0.42204 0.38841 0.0
C292 C 0.79507 0.44675 0.47985 0.0
C293 C 0.71913 0.45367 0.39906 0.0
C294 C 0.8623 0.40171 0.4244 0.0
C295 C 0.86689 0.41445 0.47089 0.0
O296 O 0.54224 0.47681 0.39943 0.0
O297 O 0.46974 0.54504 0.46937 0.0
O298 O 0.54422 0.57328 0.54848 0.0
O299 O 0.6003 0.50027 0.53365 0.0
O300 O 0.46609 0.54558 0.46952 0.0
O301 O 0.59852 0.44335 0.46133 0.0
O302 O 0.59158 0.63044 0.55005 0.0
O303 O 0.6612 0.56229 0.48023 0.0
O304 O 0.58402 0.5338 0.40122 0.0
O305 O 0.52923 0.60677 0.41537 0.0
O306 O 0.66504 0.56174 0.48025 0.0
O307 O 0.53391 0.66362 0.48779 0.0
C308 C 0.40553 0.52773 0.4682 0.0
C309 C 0.47255 0.42717 0.39896 0.0
C310 C 0.34979 0.41581 0.41272 0.0
C311 C 0.42762 0.42956 0.42897 0.0
C312 C 0.31477 0.40142 0.36482 0.0
C313 C 0.43732 0.41279 0.35137 0.0
C314 C 0.35814 0.40031 0.33432 0.0
C315 C 0.57174 0.53368 0.56116 0.0
C316 C 0.55313 0.44208 0.41627 0.0
C317 C 0.94206 0.39705 0.50867 0.0
C318 C 0.94903 0.4147 0.55468 0.0
C319 C 0.72916 0.57942 0.48692 0.0
C320 C 0.6604 0.68046 0.54909 0.0
C321 C 0.704 0.67882 0.51852 0.0
C322 C 0.77921 0.69476 0.53382 0.0
C323 C 0.81242 0.71068 0.58144 0.0
C324 C 0.69452 0.69616 0.59625 0.0
C325 C 0.77082 0.71084 0.61241 0.0
C326 C 0.55629 0.57293 0.38792 0.0
C327 C 0.58047 0.66499 0.53267 0.0
H328 H 0.45443 0.44164 0.46539 0.0
H329 H 0.25605 0.38948 0.35114 0.0
H330 H 0.47074 0.4115 0.32745 0.0
H331 H 0.33125 0.38899 0.29761 0.0
H332 H 0.67812 0.66544 0.48259 0.0
H333 H 0.86831 0.72463 0.59475 0.0
H334 H 0.66202 0.69711 0.6205 0.0
H335 H 0.7966 0.72332 0.64879 0.0
C336 C 0.37504 0.69537 -6e-05 0.0
C337 C 0.4282 0.6715 0.97221 0.0
C338 C 0.3327 0.74124 0.0003 0.0
C339 C 0.34167 0.76796 0.97255 0.0
C340 C 0.39801 0.7444 0.9454 0.0
C341 C 0.43667 0.69792 0.94441 0.0
C342 C 0.27244 0.76026 0.02878 0.0
C343 C 0.41823 0.76775 0.91608 0.0
C344 C 0.17614 0.88607 0.93854 0.0
C345 C 0.20653 0.91553 0.97796 0.0
C346 C 0.21609 0.83956 0.93666 0.0
C347 C 0.29497 0.81919 0.97339 0.0
C348 C 0.3287 0.84915 0.01175 0.0
C349 C 0.28486 0.89478 0.01371 0.0
C350 C 0.17341 0.81187 0.89435 0.0
C351 C 0.41506 0.83319 0.05089 0.0
H352 H 0.36369 0.67727 0.02105 0.0
H353 H 0.47305 0.6822 0.92078 0.0
H354 H 0.27091 0.79408 0.04247 0.0
H355 H 0.20324 0.75965 0.00586 0.0
H356 H 0.29282 0.74166 0.05889 0.0
H357 H 0.48858 0.75416 0.91772 0.0
H358 H 0.37504 0.76312 0.87885 0.0
H359 H 0.40702 0.8026 0.92737 0.0
H360 H 0.12277 0.89925 0.90785 0.0
H361 H 0.31513 0.91508 0.04392 0.0
H362 H 0.22119 0.79492 0.87593 0.0
H363 H 0.11205 0.83071 0.86916 0.0
H364 H 0.15634 0.78714 0.90567 0.0
H365 H 0.405 0.81375 0.07228 0.0
H366 H 0.44115 0.85985 0.07448 0.0
H367 H 0.46635 0.81221 0.0361 0.0
C368 C 0.68745 0.38475 0.92508 0.0
C369 C 0.68438 0.4138 0.96587 0.0
C370 C 0.72703 0.33859 0.92515 0.0
C371 C 0.77725 0.31767 0.96775 0.0
C372 C 0.77893 0.34744 0.00948 0.0
C373 C 0.73289 0.39314 0.00796 0.0
C374 C 0.7123 0.31282 0.8779 0.0
C375 C 0.83246 0.33211 0.0574 0.0
C376 C 0.84483 0.19325 -0.00912 0.0
C377 C 0.91488 0.17007 0.97321 0.0
C378 C 0.79996 0.23861 -0.01181 0.0
C379 C 0.82506 0.26632 0.96882 0.0
C380 C 0.89591 0.24315 0.95025 0.0
C381 C 0.93648 0.19673 0.95132 0.0
C382 C 0.72225 0.25568 0.00543 0.0
C383 C 0.93023 0.26691 0.92816 0.0
H384 H 0.65662 0.39819 0.89166 0.0
H385 H 0.73889 0.41333 0.04083 0.0
H386 H 0.72551 0.27813 0.87992 0.0
H387 H 0.64244 0.32465 0.85413 0.0
H388 H 0.75613 0.3175 0.8616 0.0
H389 H 0.86713 0.35619 0.08107 0.0
H390 H 0.7864 0.32872 0.07303 0.0
H391 H 0.88312 0.30107 0.0565 0.0
H392 H 0.82235 0.17512 0.00666 0.0
H393 H 0.98621 0.18152 0.93494 0.0
H394 H 0.67727 0.28647 -0.00817 0.0
H395 H 0.74809 0.26011 0.04437 0.0
H396 H 0.68217 0.23208 -0.00509 0.0
H397 H 0.89517 0.26412 0.88961 0.0
H398 H 1.00228 0.25244 0.93421 0.0
H399 H 0.91986 0.30132 0.94161 0.0
C400 C 0.20667 0.31825 0.57451 0.0
C401 C 0.23384 0.27644 0.55472 0.0
C402 C 0.21033 0.35295 0.55693 0.0
C403 C 0.2399 0.3449 0.5185 0.0
C404 C 0.26459 0.30251 0.49773 0.0
C405 C 0.26173 0.26871 0.51646 0.0
C406 C 0.18451 0.39781 0.57971 0.0
C407 C 0.29637 0.29256 0.45647 0.0
C408 C 0.22219 0.41401 0.43386 0.0
C409 C 0.31314 0.41109 0.44692 0.0
C410 C 0.19264 0.3976 0.46103 0.0
C411 C 0.25557 0.3792 0.50234 0.0
C412 C 0.34368 0.38313 0.51964 0.0
C413 C 0.37198 0.39817 0.49124 0.0
C414 C 0.09651 0.3963 0.44346 0.0
C415 C 0.41224 0.36525 0.56453 0.0
H416 H 0.1836 0.32358 0.60374 0.0
H417 H 0.28111 0.23605 0.50118 0.0
H418 H 0.23924 0.41345 0.59022 0.0
H419 H 0.1256 0.4174 0.55408 0.0
H420 H 0.16863 0.39824 0.61125 0.0
H421 H 0.30832 0.25803 0.44324 0.0
H422 H 0.24627 0.31138 0.42722 0.0
H423 H 0.35964 0.30163 0.4669 0.0
H424 H 0.17546 0.42617 0.4009 0.0
H425 H 0.44252 0.39565 0.50231 0.0
H426 H 0.06478 0.4157 0.46908 0.0
H427 H 0.09234 0.36298 0.4403 0.0
H428 H 0.05769 0.40902 0.40878 0.0
H429 H 0.38224 0.36972 0.59171 0.0
H430 H 0.46823 0.38062 0.57894 0.0
H431 H 0.44016 0.33035 0.55714 0.0
C432 C 0.81939 0.85494 0.43525 0.0
C433 C 0.85488 0.85356 0.40125 0.0
C434 C 0.82433 0.81726 0.45034 0.0
C435 C 0.86413 0.77723 0.4299 0.0
C436 C 0.89968 0.77567 0.39514 0.0
C437 C 0.89585 0.81423 0.38162 0.0
C438 C 0.78602 0.82056 0.48792 0.0
C439 C 0.94018 0.73356 0.37197 0.0
C440 C 0.90282 0.70338 0.51365 0.0
C441 C 0.81526 0.69987 0.49919 0.0
C442 C 0.92732 0.72242 0.48646 0.0
C443 C 0.86257 0.73784 0.44401 0.0
C444 C 0.78139 0.72614 0.42482 0.0
C445 C 0.75783 0.70795 0.453 0.0
C446 C 1.01682 0.73228 0.50722 0.0
C447 C 0.7119 0.74014 0.37845 0.0
H448 H 0.78916 0.88572 0.45064 0.0
H449 H 0.92381 0.81379 0.35549 0.0
H450 H 0.7291 0.80593 0.47355 0.0
H451 H 0.83725 0.80296 0.51786 0.0
H452 H 0.76184 0.85428 0.50156 0.0
H453 H 0.96551 0.73809 0.34584 0.0
H454 H 0.99563 0.71378 0.39881 0.0
H455 H 0.8898 0.71509 0.35391 0.0
H456 H 0.94988 0.69521 0.54808 0.0
H457 H 0.69022 0.70508 0.44013 0.0
H458 H 1.01172 0.76243 0.53101 0.0
H459 H 1.03893 0.73656 0.47978 0.0
H460 H 0.06834 0.70635 0.52826 0.0
H461 H 0.66744 0.71839 0.36236 0.0
H462 H 0.74284 0.74113 0.35333 0.0
H463 H 0.66997 0.77283 0.38446 0.0
C464 C 0.57737 0.09436 0.18048 0.0
C465 C 0.58773 1.05104 0.16271 0.0
C466 C 0.60246 0.12168 0.16234 0.0
C467 C 0.6363 0.10494 0.12541 0.0
C468 C 0.66385 1.05991 0.115 0.0
C469 C 0.63983 1.03325 0.13436 0.0
C470 C 0.57995 0.16905 0.17728 0.0
C471 C 0.70484 1.04032 0.07749 0.0
C472 C 0.54021 0.14061 0.00596 0.0
C473 C 0.6173 0.14446 0.00235 0.0
C474 C 0.54019 0.13493 0.0493 0.0
C475 C 0.61969 0.13243 0.08917 0.0
C476 C 0.69083 0.14445 0.08698 0.0
C477 C 0.68893 0.15024 0.04332 0.0
C478 C 0.45952 0.12534 0.05036 0.0
C479 C 0.77177 0.14779 0.12969 0.0
H480 H 0.53883 0.1079 0.20346 0.0
H481 H 0.64934 0.99959 0.12132 0.0
H482 H 0.63201 0.18312 0.17815 0.0
H483 H 0.51558 0.18511 0.15156 0.0
H484 H 0.5734 0.17574 0.21246 0.0
H485 H 0.73702 1.00547 0.07984 0.0
H486 H 0.65192 1.04461 0.04235 0.0
H487 H 0.75539 1.05627 0.08026 0.0
H488 H 0.48395 0.13696 0.97437 0.0
H489 H 0.74735 0.15477 0.04067 0.0
H490 H 0.39766 0.14368 0.02523 0.0
H491 H 0.45341 0.13374 0.08552 0.0
H492 H 0.46434 0.09066 0.04011 0.0
H493 H 0.75502 0.17885 0.1505 0.0
H494 H 0.82962 0.14678 0.12042 0.0
H495 H 0.79137 0.12198 0.15218 0.0
C496 C 0.35247 0.112 0.49776 0.0
C497 C 0.3065 0.07885 0.48445 0.0
C498 C 0.44032 0.10844 0.49587 0.0
C499 C 0.49482 0.06984 0.47909 0.0
C500 C 0.44956 1.03544 0.46517 0.0
C501 C 0.36018 1.04008 0.46768 0.0
C502 C 0.47438 0.14788 0.51249 0.0
C503 C 0.4948 0.99215 0.44665 0.0
C504 C 0.70282 0.08206 0.44501 0.0
C505 C 0.78662 1.06046 0.47777 0.0
C506 C 0.61244 0.08573 0.44509 0.0
C507 C 0.59556 0.06633 0.47769 0.0
C508 C 0.67981 1.04439 0.51037 0.0
C509 C 0.76841 1.04136 0.50932 0.0
C510 C 0.53411 0.11033 0.40788 0.0
C511 C 0.6778 1.02224 0.54728 0.0
H512 H 0.3177 0.14303 0.51037 0.0
H513 H 0.3327 1.01276 0.4555 0.0
H514 H 0.54797 0.13955 0.53035 0.0
H515 H 0.45758 0.16494 0.48172 0.0
H516 H 0.44302 0.17033 0.53698 0.0
H517 H 0.44522 0.97805 0.41696 0.0
H518 H 0.54786 0.99346 0.43481 0.0
H519 H 0.52511 0.97037 0.47484 0.0
H520 H 0.70663 0.09518 0.4171 0.0
H521 H 0.82624 1.02175 0.53379 0.0
H522 H 0.52651 0.14513 0.41867 0.0
H523 H 0.47082 0.10304 0.40211 0.0
H524 H 0.5462 0.10335 0.3741 0.0
H525 H 0.62295 1.04078 0.5606 0.0
H526 H 0.74198 1.01729 0.57739 0.0
H527 H 0.66623 0.99036 0.53157 0.0
C528 C 0.93509 0.69117 0.05816 0.0
C529 C 0.94927 0.64665 0.05506 0.0
C530 C 0.95305 0.70941 0.02718 0.0
C531 C 0.98336 0.68251 -0.00827 0.0
C532 C 0.99498 0.63772 -0.01229 0.0
C533 C 0.98084 0.62041 0.02029 0.0
C534 C 0.94259 0.75702 0.03355 0.0
C535 C 1.02552 0.60751 0.94989 0.0
C536 C 1.00933 0.69526 0.88321 0.0
C537 C 0.102 0.67856 0.89724 0.0
C538 C 0.96699 0.70593 0.91649 0.0
C539 C 1.01906 0.69832 0.96387 0.0
C540 C 0.11284 0.68993 -0.02101 0.0
C541 C 0.15328 0.68039 0.94523 0.0
C542 C 0.86668 0.71964 0.89936 0.0
C543 C 0.17055 0.68363 0.02972 0.0
H544 H 0.90977 0.71177 0.0846 0.0
H545 H 0.99458 0.58592 0.01832 0.0
H546 H 1.00863 0.76326 0.05428 0.0
H547 H 0.91799 0.77018 -0.00067 0.0
H548 H 0.89618 0.77447 0.05278 0.0
H549 H 1.0239 0.57418 0.94948 0.0
H550 H 0.98236 0.61861 0.91484 0.0
H551 H 0.09484 0.60689 0.95543 0.0
H552 H 0.96927 0.69546 0.84616 0.0
H553 H 0.22508 0.66881 0.95596 0.0
H554 H 0.84034 0.69219 0.87853 0.0
H555 H 0.84148 0.74514 0.8755 0.0
H556 H 0.84065 0.73193 0.92856 0.0
H557 H 0.15218 0.71305 0.05246 0.0
H558 H 0.24264 0.67587 0.03571 0.0
H559 H 0.15967 0.65699 0.04115 0.0
C560 C 0.28899 0.52111 0.50241 0.0
C561 C 0.30828 0.54564 0.47631 0.0
C562 C 0.20069 0.52389 0.50354 0.0
C563 C 0.11775 0.55225 0.47728 0.0
C564 C 0.13544 0.57782 0.45079 0.0
C565 C 0.22548 0.57363 0.44962 0.0
C566 C 0.19692 0.49466 0.53328 0.0
C567 C 0.05717 0.61024 0.42228 0.0
C568 C 0.8626 0.53769 0.44762 0.0
C569 C 0.83147 0.56147 0.48515 0.0
C570 C 0.95129 0.53384 0.44489 0.0
C571 C 1.01763 0.5553 0.47899 0.0
C572 C 0.9856 0.57939 0.51622 0.0
C573 C 0.89827 0.58198 0.51838 0.0
C574 C 0.97231 0.50701 0.40331 0.0
C575 C 1.04372 0.60454 0.55456 0.0
H576 H 0.34568 0.49727 0.52209 0.0
H577 H 0.22945 0.59185 0.42594 0.0
H578 H 0.18509 0.5134 0.56522 0.0
H579 H 0.14092 0.4797 0.51389 0.0
H580 H 0.26015 0.46919 0.54482 0.0
H581 H 0.07823 0.63111 0.4076 0.0
H582 H 1.01245 0.59338 0.39291 0.0
H583 H 1.01796 0.63062 0.4443 0.0
H584 H 0.81635 0.52277 0.4187 0.0
H585 H 0.88051 0.60241 0.5472 0.0
H586 H 0.9341 0.48249 0.3885 0.0
H587 H 1.04472 0.49083 0.41286 0.0
H588 H 0.95355 0.52809 0.37561 0.0
H589 H 0.10432 0.58234 0.57612 0.0
H590 H 1.009 0.62573 0.57825 0.0
H591 H 0.066 0.62423 0.53909 0.0
C592 C 0.97816 0.12528 0.31833 0.0
C593 C 1.04221 0.09264 0.34519 0.0
C594 C 0.97096 0.1267 0.27187 0.0
C595 C 1.02899 0.09448 0.25148 0.0
C596 C 0.09728 0.06302 0.27975 0.0
C597 C 0.10263 0.06238 0.32589 0.0
C598 C 0.89864 0.16218 0.24501 0.0
C599 C 0.16434 1.02949 0.2611 0.0
C600 C 0.9665 1.05932 0.11945 0.0
C601 C 1.01254 0.08005 0.10593 0.0
C602 C 0.96914 0.06474 0.16625 0.0
C603 C 1.01774 0.0921 0.20056 0.0
C604 C 0.06159 0.11426 0.18671 0.0
C605 C 0.05873 0.1079 0.13987 0.0
C606 C 0.92223 1.04005 0.17943 0.0
C607 C 0.11449 0.14353 0.2219 0.0
H608 H 0.93124 0.14889 0.33291 0.0
H609 H 0.15407 1.03771 0.34685 0.0
H610 H 0.91015 0.16728 0.21412 0.0
H611 H 0.83379 0.15431 0.23331 0.0
H612 H 0.89322 0.19274 0.26819 0.0
H613 H 0.21714 1.0093 0.28856 0.0
H614 H 0.13005 1.00831 0.23194 0.0
H615 H 0.19655 1.04507 0.24675 0.0
H616 H 0.9311 1.03749 0.09388 0.0
H617 H 0.0947 0.12413 0.13015 0.0
H618 H 0.87697 0.06215 0.19738 0.0
H619 H 0.97195 1.01688 0.20451 0.0
H620 H 0.88326 1.02195 0.14851 0.0
H621 H 0.07132 0.16858 0.23906 0.0
H622 H 0.14285 0.1594 0.20551 0.0
H623 H 0.17003 0.12493 0.24984 0.0
C624 C 0.99418 1.05182 0.80608 0.0
C625 C 0.07396 1.03918 0.84382 0.0
C626 C 0.99384 1.04964 0.76033 0.0
C627 C 0.07542 1.03485 0.75172 0.0
C628 C 0.15632 1.02212 0.78964 0.0
C629 C 0.15458 1.02433 0.83507 0.0
C630 C 0.90599 0.06394 0.72127 0.0
C631 C 0.24493 1.00654 0.78232 0.0
C632 C 0.06283 1.0027 0.62356 0.0
C633 C 0.06509 1.04057 0.61134 0.0
C634 C 0.06751 0.99998 0.66929 0.0
C635 C 0.07602 1.03571 0.70377 0.0
C636 C 0.08111 0.07344 0.69178 0.0
C637 C 0.07527 0.07542 0.64596 0.0
C638 C 0.06116 0.95926 0.68045 0.0
C639 C 0.09113 0.11221 0.72719 0.0
H640 H 0.93146 0.06394 0.8123 0.0
H641 H 0.21646 1.01402 0.86365 0.0
H642 H 0.90511 0.09243 0.70758 0.0
H643 H 0.89785 1.03829 0.69168 0.0
H644 H 0.848 0.07225 0.73307 0.0
H645 H 0.30165 0.99701 0.81512 0.0
H646 H 0.24452 0.97871 0.75519 0.0
H647 H 0.25618 1.03213 0.76927 0.0
H648 H 0.05505 0.97565 0.5971 0.0
H649 H 0.07899 0.10459 0.6373 0.0
H650 H 1.00023 0.96589 0.68924 0.0
H651 H 0.11923 0.94721 0.71167 0.0
H652 H 0.05862 0.93375 0.65065 0.0
H653 H 1.03183 0.12476 0.73814 0.0
H654 H 0.09845 0.13834 0.71301 0.0
H655 H 0.15031 0.1032 0.75913 0.0
C656 C 0.52482 0.54164 0.30471 0.0
C657 C 0.54424 0.57605 0.33854 0.0
C658 C 0.51842 0.54097 0.25825 0.0
C659 C 0.53272 0.57543 0.24472 0.0
C660 C 0.5497 0.61107 0.27827 0.0
C661 C 0.5546 0.61112 0.32479 0.0
C662 C 0.49875 0.50259 0.22391 0.0
C663 C 0.56602 0.64835 0.26554 0.0
C664 C 0.61595 0.54303 0.14139 0.0
C665 C 0.53765 0.55637 0.1031 0.0
C666 C 0.61588 0.55083 0.18767 0.0
C667 C 0.53535 0.5722 0.19635 0.0
C668 C 0.45636 0.58652 0.15801 0.0
C669 C 0.45868 0.5788 0.11207 0.0
C670 C 0.70191 0.53515 0.22726 0.0
C671 C 0.36884 0.60923 0.16535 0.0
H672 H 0.51478 0.51473 0.31464 0.0
H673 H 0.5696 0.6378 0.35068 0.0
H674 H 0.4413 0.51307 0.19179 0.0
H675 H 0.55718 0.48532 0.21303 0.0
H676 H 0.48341 0.47979 0.23907 0.0
H677 H 0.56694 0.67574 0.2933 0.0
H678 H 0.63126 0.63799 0.26032 0.0
H679 H 0.51395 0.65941 0.23203 0.0
H680 H 0.67779 0.52609 0.13528 0.0
H681 H 0.39851 0.59065 0.08325 0.0
H682 H 0.69633 0.50938 0.2427 0.0
H683 H 0.71469 0.56153 0.25557 0.0
H684 H 0.76018 0.52241 0.21537 0.0
H685 H 0.3482 0.58716 0.17859 0.0
H686 H 0.31468 0.62068 0.13247 0.0
H687 H 0.37665 0.63701 0.1923 0.0
C688 C 0.58761 0.48784 0.62127 0.0
C689 C 0.57489 0.5282 0.60835 0.0
C690 C 0.58971 0.48336 0.66595 0.0
C691 C 0.57853 0.52008 0.6985 0.0
C692 C 0.56609 0.56074 0.68556 0.0
C693 C 0.56516 0.56418 0.64111 0.0
C694 C 0.6037 0.43935 0.67828 0.0
C695 C 0.55345 0.60089 0.71871 0.0
C696 C 0.49918 0.52181 0.79852 0.0
C697 C 0.57726 0.52095 0.83816 0.0
C698 C 0.49901 0.52032 0.75285 0.0
C699 C 0.57946 0.51665 0.74613 0.0
C700 C 0.6594 0.51335 0.78573 0.0
C701 C 0.65716 0.51568 0.83104 0.0
C702 C 0.41175 0.52468 0.712 0.0
C703 C 0.74722 0.50839 0.78039 0.0
H704 H 0.5954 0.45978 0.59641 0.0
H705 H 0.55758 0.59539 0.63233 0.0
H706 H 0.66212 0.43241 0.71107 0.0
H707 H 0.54467 0.43811 0.68493 0.0
H708 H 0.61464 0.41385 0.64995 0.0
H709 H 0.54211 0.63024 0.70289 0.0
H710 H 0.49559 0.60436 0.72908 0.0
H711 H 0.61319 0.5986 0.75123 0.0
H712 H 0.43705 0.52515 0.80306 0.0
H713 H 0.71846 0.5128 0.86077 0.0
H714 H 0.4184 0.49849 0.6837 0.0
H715 H 0.39368 0.55535 0.69708 0.0
H716 H 0.35629 0.52417 0.72244 0.0
H717 H 0.75907 0.4813 0.75372 0.0
H718 H 0.80442 0.50274 0.81396 0.0
H719 H 0.74507 0.53776 0.7678 0.0
loop_
_geom_bond_atom_site_label_1
_geom_bond_atom_site_label_2
_geom_bond_distance
_geom_bond_site_symmetry_2
_ccdc_geom_bond_type
Tb0 N31 2.660 . S
Tb0 N38 2.600 . S
Tb0 O44 2.546 . S
Tb0 O45 2.610 1_566 S
Tb0 O47 2.320 1_556 S
Tb0 O48 2.552 1_565 S
Tb0 O49 2.413 . S
Tb0 O51 2.362 1_655 S
Tb0 O52 2.421 . S
Tb0 C64 2.833 . S
C1 C4 1.432 . S
C1 C5 1.414 . S
C1 N8 1.359 . S
C2 C4 1.417 . S
C2 C6 1.432 . S
C2 C14 1.410 1_554 S
C3 C5 1.444 . S
C3 C6 1.317 . S
C3 H26 0.929 . S
C4 C1 1.432 . S
C4 C2 1.417 . S
C4 N12 1.360 . S
C5 C1 1.414 . S
C5 C3 1.444 . S
C5 C10 1.385 . S
C6 C2 1.432 . S
C6 C3 1.317 . S
C6 H18 0.930 . S
C7 C9 1.392 . S
C7 C10 1.370 . S
C7 H19 0.931 . S
N8 C1 1.359 . S
N8 C9 1.327 . S
N8 Tb11 2.600 . S
C9 C7 1.392 . S
C9 N8 1.327 . S
C9 H16 0.930 . S
C10 C5 1.385 . S
C10 C7 1.370 . S
C10 H29 0.930 . S
Tb11 N8 2.600 . S
Tb11 N12 2.660 . S
Tb11 O45 2.362 1_455 S
Tb11 O46 2.421 . S
Tb11 O50 2.546 . S
Tb11 O51 2.610 1_544 S
Tb11 O53 2.320 1_554 S
Tb11 O54 2.552 1_545 S
Tb11 O55 2.413 . S
Tb11 C75 2.833 . S
N12 C4 1.360 . S
N12 Tb11 2.660 . S
N12 C13 1.305 1_554 S
C13 N12 1.305 1_556 S
C13 C15 1.407 . S
C13 H20 0.930 . S
C14 C2 1.410 1_556 S
C14 C15 1.345 . S
C14 H22 0.930 . S
C15 C13 1.407 . S
C15 C14 1.345 . S
C15 H17 0.930 1_455 S
H16 C9 0.930 . S
H17 C15 0.930 1_655 S
H18 C6 0.930 . S
H19 C7 0.931 . S
H20 C13 0.930 . S
H21 C35 0.930 1_455 S
H22 C14 0.930 . S
H23 C41 0.930 . S
H24 C32 0.930 . S
H25 C39 0.931 . S
H26 C3 0.929 . S
H27 C33 0.930 . S
H28 C66 0.930 . S
H29 C10 0.930 . S
H30 C65 0.929 . S
N31 Tb0 2.660 . S
N31 C32 1.305 1_556 S
N31 C36 1.360 . S
C32 H24 0.930 . S
C32 N31 1.305 1_554 S
C32 C35 1.407 . S
C33 H27 0.930 . S
C33 C34 1.410 1_554 S
C33 C35 1.345 . S
C34 C33 1.410 1_556 S
C34 C36 1.417 . S
C34 C66 1.432 . S
C35 H21 0.930 1_655 S
C35 C32 1.407 . S
C35 C33 1.345 . S
C36 N31 1.360 . S
C36 C34 1.417 . S
C36 C40 1.432 . S
H37 C42 0.930 . S
N38 Tb0 2.600 . S
N38 C40 1.359 . S
N38 C41 1.327 . S
C39 H25 0.931 . S
C39 C41 1.392 . S
C39 C42 1.370 . S
C40 C36 1.432 . S
C40 N38 1.359 . S
C40 C43 1.414 . S
C41 H23 0.930 . S
C41 N38 1.327 . S
C41 C39 1.392 . S
C42 H37 0.930 . S
C42 C39 1.370 . S
C42 C43 1.385 . S
C43 C40 1.414 . S
C43 C42 1.385 . S
C43 C65 1.444 . S
O44 Tb0 2.546 . S
O44 C64 1.251 . S
O45 Tb0 2.610 1_544 S
O45 Tb11 2.362 1_655 S
O45 C56 1.282 . S
O46 Tb11 2.421 . S
O46 C63 1.262 . S
O47 Tb0 2.320 1_554 S
O47 C63 1.260 1_665 S
O48 Tb0 2.552 1_545 S
O48 C56 1.242 1_556 S
O49 Tb0 2.413 . S
O49 C64 1.256 . S
O50 Tb11 2.546 . S
O50 C75 1.251 . S
O51 Tb0 2.362 1_455 S
O51 Tb11 2.610 1_566 S
O51 C67 1.283 1_556 S
O52 Tb0 2.421 . S
O52 C74 1.260 1_565 S
O53 Tb11 2.320 1_556 S
O53 C74 1.262 1_455 S
O54 Tb11 2.552 1_565 S
O54 C67 1.243 . S
O55 Tb11 2.413 . S
O55 C75 1.256 . S
C56 O45 1.282 . S
C56 O48 1.242 1_554 S
C57 C59 1.382 1_565 S
C57 C61 1.393 . S
C57 C64 1.500 . S
C58 C59 1.400 . S
C58 C60 1.384 . S
C59 C57 1.382 1_545 S
C59 C58 1.400 . S
C59 H76 0.930 1_556 S
C60 C58 1.384 . S
C60 C62 1.392 1_545 S
C60 H77 0.931 . S
C61 C57 1.393 . S
C61 C62 1.401 . S
C61 H78 0.930 . S
C62 C60 1.392 1_565 S
C62 C61 1.401 . S
C62 H79 0.930 . S
C63 O46 1.262 . S
C63 O47 1.260 1_445 S
C64 Tb0 2.833 . S
C64 O44 1.251 . S
C64 O49 1.256 . S
C64 C57 1.500 . S
C65 H30 0.929 . S
C65 C43 1.444 . S
C65 C66 1.317 . S
C66 H28 0.930 . S
C66 C34 1.432 . S
C66 C65 1.317 . S
C67 O51 1.283 1_554 S
C67 O54 1.243 . S
C68 C69 1.382 1_545 S
C68 C72 1.393 . S
C68 C75 1.500 . S
C69 C68 1.382 1_565 S
C69 C70 1.400 . S
C69 H80 0.930 1_554 S
C70 C69 1.400 . S
C70 C71 1.384 . S
C71 C70 1.384 . S
C71 C73 1.391 1_565 S
C71 H81 0.931 . S
C72 C68 1.393 . S
C72 C73 1.401 . S
C72 H82 0.930 . S
C73 C71 1.391 1_545 S
C73 C72 1.401 . S
C73 H83 0.930 . S
C74 O52 1.260 1_545 S
C74 O53 1.262 1_655 S
C75 Tb11 2.833 . S
C75 O50 1.251 . S
C75 O55 1.256 . S
C75 C68 1.500 . S
H76 C59 0.930 1_554 S
H77 C60 0.931 . S
H78 C61 0.930 . S
H79 C62 0.930 . S
H80 C69 0.930 1_556 S
H81 C71 0.931 . S
H82 C72 0.930 . S
H83 C73 0.930 . S
Tb84 N115 2.660 . S
Tb84 N122 2.600 . S
Tb84 O128 2.546 1_455 S
Tb84 O129 2.610 1_465 S
Tb84 O131 2.320 . S
Tb84 O132 2.552 1_455 S
Tb84 O133 2.413 1_455 S
Tb84 O135 2.362 . S
Tb84 O136 2.421 1_455 S
Tb84 C148 2.833 1_455 S
C85 C88 1.432 . S
C85 C89 1.414 . S
C85 N92 1.359 . S
C86 C88 1.417 . S
C86 C90 1.432 . S
C86 C98 1.410 . S
C87 C89 1.444 . S
C87 C90 1.317 . S
C87 H110 0.929 . S
C88 C85 1.432 . S
C88 C86 1.417 . S
C88 N96 1.360 . S
C89 C85 1.414 . S
C89 C87 1.444 . S
C89 C94 1.385 . S
C90 C86 1.432 . S
C90 C87 1.317 . S
C90 H102 0.930 . S
C91 C93 1.392 . S
C91 C94 1.370 . S
C91 H103 0.931 . S
N92 C85 1.359 . S
N92 C93 1.327 . S
N92 Tb95 2.600 . S
C93 C91 1.392 . S
C93 N92 1.327 . S
C93 H100 0.930 1_655 S
C94 C89 1.385 . S
C94 C91 1.370 . S
C94 H113 0.930 . S
Tb95 N92 2.600 . S
Tb95 N96 2.660 . S
Tb95 O129 2.362 . S
Tb95 O130 2.421 1_655 S
Tb95 O134 2.546 1_655 S
Tb95 O135 2.610 1_645 S
Tb95 O137 2.320 . S
Tb95 O138 2.552 1_655 S
Tb95 O139 2.413 1_655 S
Tb95 C159 2.833 1_655 S
N96 C88 1.360 . S
N96 Tb95 2.660 . S
N96 C97 1.305 . S
C97 N96 1.305 . S
C97 C99 1.407 . S
C97 H104 0.930 . S
C98 C86 1.410 . S
C98 C99 1.345 . S
C98 H106 0.930 . S
C99 C97 1.407 . S
C99 C98 1.345 . S
C99 H101 0.930 . S
H100 C93 0.930 1_455 S
H101 C99 0.930 . S
H102 C90 0.930 . S
H103 C91 0.931 . S
H104 C97 0.930 . S
H105 C119 0.930 . S
H106 C98 0.930 . S
H107 C125 0.930 1_655 S
H108 C116 0.930 . S
H109 C123 0.931 . S
H110 C87 0.929 . S
H111 C117 0.930 . S
H112 C150 0.930 . S
H113 C94 0.930 . S
H114 C149 0.929 . S
N115 Tb84 2.660 . S
N115 C116 1.305 . S
N115 C120 1.360 . S
C116 H108 0.930 . S
C116 N115 1.305 . S
C116 C119 1.407 . S
C117 H111 0.930 . S
C117 C118 1.410 . S
C117 C119 1.345 . S
C118 C117 1.410 . S
C118 C120 1.417 . S
C118 C150 1.432 . S
C119 H105 0.930 . S
C119 C116 1.407 . S
C119 C117 1.345 . S
C120 N115 1.360 . S
C120 C118 1.417 . S
C120 C124 1.432 . S
H121 C126 0.930 . S
N122 Tb84 2.600 . S
N122 C124 1.359 . S
N122 C125 1.327 . S
C123 H109 0.931 . S
C123 C125 1.392 . S
C123 C126 1.370 . S
C124 C120 1.432 . S
C124 N122 1.359 . S
C124 C127 1.414 . S
C125 H107 0.930 1_455 S
C125 N122 1.327 . S
C125 C123 1.392 . S
C126 H121 0.930 . S
C126 C123 1.370 . S
C126 C127 1.385 . S
C127 C124 1.414 . S
C127 C126 1.385 . S
C127 C149 1.444 . S
O128 Tb84 2.546 1_655 S
O128 C148 1.251 . S
O129 Tb84 2.610 1_645 S
O129 Tb95 2.362 . S
O129 C140 1.283 1_545 S
O130 Tb95 2.421 1_455 S
O130 C147 1.262 1_545 S
O131 Tb84 2.320 . S
O131 C147 1.260 . S
O132 Tb84 2.552 1_655 S
O132 C140 1.243 . S
O133 Tb84 2.413 1_655 S
O133 C148 1.256 . S
O134 Tb95 2.546 1_455 S
O134 C159 1.251 . S
O135 Tb84 2.362 . S
O135 Tb95 2.610 1_465 S
O135 C151 1.283 1_565 S
O136 Tb84 2.421 1_655 S
O136 C158 1.262 1_565 S
O137 Tb95 2.320 . S
O137 C158 1.260 . S
O138 Tb95 2.552 1_455 S
O138 C151 1.243 . S
O139 Tb95 2.413 1_455 S
O139 C159 1.256 . S
C140 O129 1.283 1_565 S
C140 O132 1.243 . S
C141 C143 1.382 . S
C141 C145 1.393 . S
C141 C148 1.500 . S
C142 C143 1.400 . S
C142 C144 1.384 . S
C143 C141 1.382 . S
C143 C142 1.400 . S
C143 H160 0.930 . S
C144 C142 1.384 . S
C144 C146 1.392 . S
C144 H161 0.931 . S
C145 C141 1.393 . S
C145 C146 1.401 . S
C145 H162 0.930 . S
C146 C144 1.392 . S
C146 C145 1.401 . S
C146 H163 0.930 . S
C147 O130 1.262 1_565 S
C147 O131 1.260 . S
C148 Tb84 2.833 1_655 S
C148 O128 1.251 . S
C148 O133 1.256 . S
C148 C141 1.500 . S
C149 H114 0.929 . S
C149 C127 1.444 . S
C149 C150 1.317 . S
C150 H112 0.930 . S
C150 C118 1.432 . S
C150 C149 1.317 . S
C151 O135 1.283 1_545 S
C151 O138 1.243 . S
C152 C153 1.382 . S
C152 C156 1.393 . S
C152 C159 1.500 . S
C153 C152 1.382 . S
C153 C154 1.400 . S
C153 H164 0.930 . S
C154 C153 1.400 . S
C154 C155 1.384 . S
C155 C154 1.384 . S
C155 C157 1.392 . S
C155 H165 0.931 . S
C156 C152 1.393 . S
C156 C157 1.401 . S
C156 H166 0.930 . S
C157 C155 1.392 . S
C157 C156 1.401 . S
C157 H167 0.930 . S
C158 O136 1.262 1_545 S
C158 O137 1.260 . S
C159 Tb95 2.833 1_455 S
C159 O134 1.251 . S
C159 O139 1.256 . S
C159 C152 1.500 . S
H160 C143 0.930 . S
H161 C144 0.931 . S
H162 C145 0.930 . S
H163 C146 0.930 . S
H164 C153 0.930 . S
H165 C155 0.931 . S
H166 C156 0.930 . S
H167 C157 0.930 . S
Tb168 N199 2.660 . S
Tb168 N206 2.600 . S
Tb168 O212 2.546 . S
Tb168 O213 2.610 1_556 S
Tb168 O215 2.320 1_556 S
Tb168 O216 2.552 . S
Tb168 O217 2.413 . S
Tb168 O219 2.362 . S
Tb168 O220 2.421 . S
Tb168 C232 2.833 . S
C169 C172 1.432 . S
C169 C173 1.414 . S
C169 N176 1.359 . S
C170 C172 1.417 . S
C170 C174 1.432 . S
C170 C182 1.410 1_554 S
C171 C173 1.444 . S
C171 C174 1.317 . S
C171 H194 0.929 . S
C172 C169 1.432 . S
C172 C170 1.417 . S
C172 N180 1.360 . S
C173 C169 1.414 . S
C173 C171 1.444 . S
C173 C178 1.385 . S
C174 C170 1.432 . S
C174 C171 1.317 . S
C174 H186 0.930 . S
C175 C177 1.392 . S
C175 C178 1.370 . S
C175 H187 0.931 . S
N176 C169 1.359 . S
N176 C177 1.327 . S
N176 Tb179 2.600 . S
C177 C175 1.392 . S
C177 N176 1.327 . S
C177 H184 0.930 . S
C178 C173 1.385 . S
C178 C175 1.370 . S
C178 H197 0.930 . S
Tb179 N176 2.600 . S
Tb179 N180 2.660 . S
Tb179 O213 2.362 . S
Tb179 O214 2.421 . S
Tb179 O218 2.546 . S
Tb179 O219 2.610 1_554 S
Tb179 O221 2.320 1_554 S
Tb179 O222 2.552 . S
Tb179 O223 2.413 . S
Tb179 C243 2.833 . S
N180 C172 1.360 . S
N180 Tb179 2.660 . S
N180 C181 1.305 1_554 S
C181 N180 1.305 1_556 S
C181 C183 1.407 . S
C181 H188 0.930 . S
C182 C170 1.410 1_556 S
C182 C183 1.345 . S
C182 H190 0.930 . S
C183 C181 1.407 . S
C183 C182 1.345 . S
C183 H185 0.930 . S
H184 C177 0.930 . S
H185 C183 0.930 . S
H186 C174 0.930 . S
H187 C175 0.931 . S
H188 C181 0.930 . S
H189 C203 0.930 . S
H190 C182 0.930 . S
H191 C209 0.930 . S
H192 C200 0.930 . S
H193 C207 0.931 . S
H194 C171 0.929 . S
H195 C201 0.930 . S
H196 C234 0.930 . S
H197 C178 0.930 . S
H198 C233 0.929 . S
N199 Tb168 2.660 . S
N199 C200 1.305 1_556 S
N199 C204 1.360 . S
C200 H192 0.930 . S
C200 N199 1.305 1_554 S
C200 C203 1.407 . S
C201 H195 0.930 . S
C201 C202 1.410 1_554 S
C201 C203 1.345 . S
C202 C201 1.410 1_556 S
C202 C204 1.417 . S
C202 C234 1.432 . S
C203 H189 0.930 . S
C203 C200 1.407 . S
C203 C201 1.345 . S
C204 N199 1.360 . S
C204 C202 1.417 . S
C204 C208 1.432 . S
H205 C210 0.930 . S
N206 Tb168 2.600 . S
N206 C208 1.359 . S
N206 C209 1.327 . S
C207 H193 0.931 . S
C207 C209 1.392 . S
C207 C210 1.370 . S
C208 C204 1.432 . S
C208 N206 1.359 . S
C208 C211 1.414 . S
C209 H191 0.930 . S
C209 N206 1.327 . S
C209 C207 1.392 . S
C210 H205 0.930 . S
C210 C207 1.370 . S
C210 C211 1.385 . S
C211 C208 1.414 . S
C211 C210 1.385 . S
C211 C233 1.444 . S
O212 Tb168 2.546 . S
O212 C232 1.251 . S
O213 Tb168 2.610 1_554 S
O213 Tb179 2.362 . S
O213 C224 1.282 . S
O214 Tb179 2.421 . S
O214 C231 1.262 . S
O215 Tb168 2.320 1_554 S
O215 C231 1.260 . S
O216 Tb168 2.552 . S
O216 C224 1.242 1_556 S
O217 Tb168 2.413 . S
O217 C232 1.256 . S
O218 Tb179 2.546 . S
O218 C243 1.251 . S
O219 Tb168 2.362 . S
O219 Tb179 2.610 1_556 S
O219 C235 1.283 1_556 S
O220 Tb168 2.421 . S
O220 C242 1.262 . S
O221 Tb179 2.320 1_556 S
O221 C242 1.260 . S
O222 Tb179 2.552 . S
O222 C235 1.243 . S
O223 Tb179 2.413 . S
O223 C243 1.256 . S
C224 O213 1.282 . S
C224 O216 1.242 1_554 S
C225 C227 1.382 . S
C225 C229 1.393 . S
C225 C232 1.500 . S
C226 C227 1.400 . S
C226 C228 1.384 . S
C227 C225 1.382 . S
C227 C226 1.400 . S
C227 H244 0.930 1_556 S
C228 C226 1.384 . S
C228 C230 1.392 . S
C228 H245 0.931 1_455 S
C229 C225 1.393 . S
C229 C230 1.401 . S
C229 H246 0.930 . S
C230 C228 1.392 . S
C230 C229 1.401 . S
C230 H247 0.930 . S
C231 O214 1.262 . S
C231 O215 1.260 . S
C232 Tb168 2.833 . S
C232 O212 1.251 . S
C232 O217 1.256 . S
C232 C225 1.500 . S
C233 H198 0.929 . S
C233 C211 1.444 . S
C233 C234 1.317 . S
C234 H196 0.930 . S
C234 C202 1.432 . S
C234 C233 1.317 . S
C235 O219 1.283 1_554 S
C235 O222 1.243 . S
C236 C237 1.382 . S
C236 C240 1.393 . S
C236 C243 1.500 . S
C237 C236 1.382 . S
C237 C238 1.400 . S
C237 H248 0.930 1_554 S
C238 C237 1.400 . S
C238 C239 1.384 . S
C239 C238 1.384 . S
C239 C241 1.392 . S
C239 H249 0.931 1_655 S
C240 C236 1.393 . S
C240 C241 1.401 . S
C240 H250 0.930 . S
C241 C239 1.392 . S
C241 C240 1.401 . S
C241 H251 0.930 . S
C242 O220 1.262 . S
C242 O221 1.260 . S
C243 Tb179 2.833 . S
C243 O218 1.251 . S
C243 O223 1.256 . S
C243 C236 1.500 . S
H244 C227 0.930 1_554 S
H245 C228 0.931 1_655 S
H246 C229 0.930 . S
H247 C230 0.930 . S
H248 C237 0.930 1_556 S
H249 C239 0.931 1_455 S
H250 C240 0.930 . S
H251 C241 0.930 . S
Tb252 N283 2.660 . S
Tb252 N290 2.600 . S
Tb252 O296 2.546 . S
Tb252 O297 2.610 . S
Tb252 O299 2.320 . S
Tb252 O300 2.552 . S
Tb252 O301 2.413 . S
Tb252 O303 2.362 . S
Tb252 O304 2.421 . S
Tb252 C316 2.833 . S
C253 C256 1.432 . S
C253 C257 1.414 . S
C253 N260 1.359 . S
C254 C256 1.417 . S
C254 C258 1.432 . S
C254 C266 1.410 . S
C255 C257 1.444 . S
C255 C258 1.317 . S
C255 H278 0.929 . S
C256 C253 1.432 . S
C256 C254 1.417 . S
C256 N264 1.360 . S
C257 C253 1.414 . S
C257 C255 1.444 . S
C257 C262 1.385 . S
C258 C254 1.432 . S
C258 C255 1.317 . S
C258 H270 0.930 . S
C259 C261 1.392 . S
C259 C262 1.370 . S
C259 H271 0.931 . S
N260 C253 1.359 . S
N260 C261 1.327 . S
N260 Tb263 2.600 . S
C261 C259 1.392 . S
C261 N260 1.327 . S
C261 H268 0.930 . S
C262 C257 1.385 . S
C262 C259 1.370 . S
C262 H281 0.930 . S
Tb263 N260 2.600 . S
Tb263 N264 2.660 . S
Tb263 O297 2.362 . S
Tb263 O298 2.421 . S
Tb263 O302 2.546 . S
Tb263 O303 2.610 . S
Tb263 O305 2.320 . S
Tb263 O306 2.552 . S
Tb263 O307 2.413 . S
Tb263 C327 2.833 . S
N264 C256 1.360 . S
N264 Tb263 2.660 . S
N264 C265 1.305 . S
C265 N264 1.305 . S
C265 C267 1.407 . S
C265 H272 0.930 . S
C266 C254 1.410 . S
C266 C267 1.345 . S
C266 H274 0.930 . S
C267 C265 1.407 . S
C267 C266 1.345 . S
C267 H269 0.930 . S
H268 C261 0.930 . S
H269 C267 0.930 . S
H270 C258 0.930 . S
H271 C259 0.931 . S
H272 C265 0.930 . S
H273 C287 0.930 . S
H274 C266 0.930 . S
H275 C293 0.930 . S
H276 C284 0.930 . S
H277 C291 0.931 . S
H278 C255 0.929 . S
H279 C285 0.930 . S
H280 C318 0.930 . S
H281 C262 0.930 . S
H282 C317 0.929 . S
N283 Tb252 2.660 . S
N283 C284 1.305 . S
N283 C288 1.360 . S
C284 H276 0.930 . S
C284 N283 1.305 . S
C284 C287 1.407 . S
C285 H279 0.930 . S
C285 C286 1.410 . S
C285 C287 1.345 . S
C286 C285 1.410 . S
C286 C288 1.417 . S
C286 C318 1.432 . S
C287 H273 0.930 . S
C287 C284 1.407 . S
C287 C285 1.345 . S
C288 N283 1.360 . S
C288 C286 1.417 . S
C288 C292 1.432 . S
H289 C294 0.930 . S
N290 Tb252 2.600 . S
N290 C292 1.359 . S
N290 C293 1.327 . S
C291 H277 0.931 . S
C291 C293 1.392 . S
C291 C294 1.370 . S
C292 C288 1.432 . S
C292 N290 1.359 . S
C292 C295 1.414 . S
C293 H275 0.930 . S
C293 N290 1.327 . S
C293 C291 1.392 . S
C294 H289 0.930 . S
C294 C291 1.370 . S
C294 C295 1.385 . S
C295 C292 1.414 . S
C295 C294 1.385 . S
C295 C317 1.444 . S
O296 Tb252 2.546 . S
O296 C316 1.251 . S
O297 Tb252 2.610 . S
O297 Tb263 2.362 . S
O297 C308 1.283 . S
O298 Tb263 2.421 . S
O298 C315 1.262 . S
O299 Tb252 2.320 . S
O299 C315 1.260 . S
O300 Tb252 2.552 . S
O300 C308 1.243 . S
O301 Tb252 2.413 . S
O301 C316 1.256 . S
O302 Tb263 2.546 . S
O302 C327 1.251 . S
O303 Tb252 2.362 . S
O303 Tb263 2.610 . S
O303 C319 1.283 . S
O304 Tb252 2.421 . S
O304 C326 1.262 . S
O305 Tb263 2.320 . S
O305 C326 1.260 . S
O306 Tb263 2.552 . S
O306 C319 1.243 . S
O307 Tb263 2.413 . S
O307 C327 1.256 . S
C308 O297 1.283 . S
C308 O300 1.243 . S
C309 C311 1.382 . S
C309 C313 1.393 . S
C309 C316 1.500 . S
C310 C311 1.400 . S
C310 C312 1.384 . S
C311 C309 1.382 . S
C311 C310 1.400 . S
C311 H328 0.930 . S
C312 C310 1.384 . S
C312 C314 1.392 . S
C312 H329 0.931 . S
C313 C309 1.393 . S
C313 C314 1.401 . S
C313 H330 0.930 . S
C314 C312 1.392 . S
C314 C313 1.401 . S
C314 H331 0.930 . S
C315 O298 1.262 . S
C315 O299 1.260 . S
C316 Tb252 2.833 . S
C316 O296 1.251 . S
C316 O301 1.256 . S
C316 C309 1.500 . S
C317 H282 0.929 . S
C317 C295 1.444 . S
C317 C318 1.317 . S
C318 H280 0.930 . S
C318 C286 1.432 . S
C318 C317 1.317 . S
C319 O303 1.283 . S
C319 O306 1.243 . S
C320 C321 1.382 . S
C320 C324 1.393 . S
C320 C327 1.500 . S
C321 C320 1.382 . S
C321 C322 1.400 . S
C321 H332 0.930 . S
C322 C321 1.400 . S
C322 C323 1.384 . S
C323 C322 1.384 . S
C323 C325 1.392 . S
C323 H333 0.931 . S
C324 C320 1.393 . S
C324 C325 1.401 . S
C324 H334 0.930 . S
C325 C323 1.392 . S
C325 C324 1.401 . S
C325 H335 0.930 . S
C326 O304 1.262 . S
C326 O305 1.260 . S
C327 Tb263 2.833 . S
C327 O302 1.251 . S
C327 O307 1.256 . S
C327 C320 1.500 . S
H328 C311 0.930 . S
H329 C312 0.931 . S
H330 C313 0.930 . S
H331 C314 0.930 . S
H332 C321 0.930 . S
H333 C323 0.931 . S
H334 C324 0.930 . S
H335 C325 0.930 . S
C336 C337 1.391 . S
C336 C338 1.394 . S
C336 H352 0.931 . S
C337 C336 1.391 . S
C337 C341 1.376 1_554 S
C338 C336 1.394 . S
C338 C339 1.369 . S
C338 C342 1.531 . S
C339 C338 1.369 . S
C339 C340 1.410 1_554 S
C339 C347 1.503 . S
C340 C339 1.410 1_556 S
C340 C341 1.392 . S
C340 C343 1.511 . S
C341 C337 1.376 1_556 S
C341 C340 1.392 . S
C341 H353 0.929 . S
C342 C338 1.531 . S
C342 H354 0.960 . S
C342 H355 0.962 . S
C342 H356 0.960 . S
C343 C340 1.511 . S
C343 H357 0.961 . S
C343 H358 0.961 . S
C343 H359 0.961 . S
C344 C345 1.370 . S
C344 C346 1.363 . S
C344 H360 0.931 . S
C345 C344 1.370 . S
C345 C349 1.408 1_556 S
C346 C344 1.363 . S
C346 C347 1.370 1_556 S
C346 C350 1.524 . S
C347 C339 1.503 . S
C347 C346 1.370 1_554 S
C347 C348 1.403 . S
C348 C347 1.403 . S
C348 C349 1.404 . S
C348 C351 1.539 . S
C349 C345 1.408 1_554 S
C349 C348 1.404 . S
C349 H361 0.930 . S
C350 C346 1.524 . S
C350 H362 0.956 1_556 S
C350 H363 0.961 . S
C350 H364 0.961 . S
C351 C348 1.539 . S
C351 H365 0.958 . S
C351 H366 0.961 . S
C351 H367 0.960 . S
H352 C336 0.931 . S
H353 C341 0.929 . S
H354 C342 0.960 . S
H355 C342 0.962 . S
H356 C342 0.960 . S
H357 C343 0.961 . S
H358 C343 0.961 . S
H359 C343 0.961 . S
H360 C344 0.931 . S
H361 C349 0.930 . S
H362 C350 0.956 1_554 S
H363 C350 0.961 . S
H364 C350 0.961 . S
H365 C351 0.958 . S
H366 C351 0.961 . S
H367 C351 0.960 . S
C368 C369 1.391 . S
C368 C370 1.394 . S
C368 H384 0.931 . S
C369 C368 1.391 . S
C369 C373 1.376 1_556 S
C370 C368 1.394 . S
C370 C371 1.369 . S
C370 C374 1.531 . S
C371 C370 1.369 . S
C371 C372 1.410 1_556 S
C371 C379 1.503 . S
C372 C371 1.410 1_554 S
C372 C373 1.392 . S
C372 C375 1.511 . S
C373 C369 1.376 1_554 S
C373 C372 1.392 . S
C373 H385 0.929 . S
C374 C370 1.531 . S
C374 H386 0.960 . S
C374 H387 0.962 . S
C374 H388 0.960 . S
C375 C372 1.511 . S
C375 H389 0.961 . S
C375 H390 0.961 . S
C375 H391 0.961 . S
C376 C377 1.370 . S
C376 C378 1.363 . S
C376 H392 0.931 . S
C377 C376 1.370 . S
C377 C381 1.408 1_554 S
C378 C376 1.363 . S
C378 C379 1.370 1_554 S
C378 C382 1.524 . S
C379 C371 1.503 . S
C379 C378 1.370 1_556 S
C379 C380 1.403 . S
C380 C379 1.403 . S
C380 C381 1.404 . S
C380 C383 1.539 . S
C381 C377 1.408 1_556 S
C381 C380 1.404 . S
C381 H393 0.930 . S
C382 C378 1.524 . S
C382 H394 0.956 . S
C382 H395 0.961 . S
C382 H396 0.961 . S
C383 C380 1.539 . S
C383 H397 0.958 . S
C383 H398 0.961 . S
C383 H399 0.960 . S
H384 C368 0.931 . S
H385 C373 0.929 . S
H386 C374 0.960 . S
H387 C374 0.962 . S
H388 C374 0.960 . S
H389 C375 0.961 . S
H390 C375 0.961 . S
H391 C375 0.961 . S
H392 C376 0.931 . S
H393 C381 0.930 . S
H394 C382 0.956 . S
H395 C382 0.961 . S
H396 C382 0.961 . S
H397 C383 0.958 . S
H398 C383 0.961 . S
H399 C383 0.960 . S
C400 C401 1.391 . S
C400 C402 1.394 . S
C400 H416 0.931 . S
C401 C400 1.391 . S
C401 C405 1.376 . S
C402 C400 1.394 . S
C402 C403 1.369 . S
C402 C406 1.531 . S
C403 C402 1.369 . S
C403 C404 1.410 . S
C403 C411 1.503 . S
C404 C403 1.410 . S
C404 C405 1.392 . S
C404 C407 1.511 . S
C405 C401 1.376 . S
C405 C404 1.392 . S
C405 H417 0.929 . S
C406 C402 1.531 . S
C406 H418 0.960 . S
C406 H419 0.962 . S
C406 H420 0.960 . S
C407 C404 1.511 . S
C407 H421 0.961 . S
C407 H422 0.961 . S
C407 H423 0.961 . S
C408 C409 1.370 . S
C408 C410 1.363 . S
C408 H424 0.931 . S
C409 C408 1.370 . S
C409 C413 1.408 . S
C410 C408 1.363 . S
C410 C411 1.370 . S
C410 C414 1.524 . S
C411 C403 1.503 . S
C411 C410 1.370 . S
C411 C412 1.403 . S
C412 C411 1.403 . S
C412 C413 1.404 . S
C412 C415 1.539 . S
C413 C409 1.408 . S
C413 C412 1.404 . S
C413 H425 0.930 . S
C414 C410 1.524 . S
C414 H426 0.956 . S
C414 H427 0.961 . S
C414 H428 0.961 . S
C415 C412 1.539 . S
C415 H429 0.958 . S
C415 H430 0.961 . S
C415 H431 0.960 . S
H416 C400 0.931 . S
H417 C405 0.929 . S
H418 C406 0.960 . S
H419 C406 0.962 . S
H420 C406 0.960 . S
H421 C407 0.961 . S
H422 C407 0.961 . S
H423 C407 0.961 . S
H424 C408 0.931 . S
H425 C413 0.930 . S
H426 C414 0.956 . S
H427 C414 0.961 . S
H428 C414 0.961 . S
H429 C415 0.958 . S
H430 C415 0.961 . S
H431 C415 0.960 . S
C432 C433 1.391 . S
C432 C434 1.394 . S
C432 H448 0.931 . S
C433 C432 1.391 . S
C433 C437 1.376 . S
C434 C432 1.394 . S
C434 C435 1.369 . S
C434 C438 1.531 . S
C435 C434 1.369 . S
C435 C436 1.410 . S
C435 C443 1.503 . S
C436 C435 1.410 . S
C436 C437 1.392 . S
C436 C439 1.511 . S
C437 C433 1.376 . S
C437 C436 1.392 . S
C437 H449 0.929 . S
C438 C434 1.531 . S
C438 H450 0.960 . S
C438 H451 0.962 . S
C438 H452 0.960 . S
C439 C436 1.511 . S
C439 H453 0.961 . S
C439 H454 0.961 . S
C439 H455 0.961 . S
C440 C441 1.370 . S
C440 C442 1.363 . S
C440 H456 0.931 . S
C441 C440 1.370 . S
C441 C445 1.408 . S
C442 C440 1.363 . S
C442 C443 1.370 . S
C442 C446 1.524 . S
C443 C435 1.503 . S
C443 C442 1.370 . S
C443 C444 1.403 . S
C444 C443 1.403 . S
C444 C445 1.404 . S
C444 C447 1.539 . S
C445 C441 1.408 . S
C445 C444 1.404 . S
C445 H457 0.930 . S
C446 C442 1.524 . S
C446 H458 0.956 . S
C446 H459 0.961 . S
C446 H460 0.961 . S
C447 C444 1.539 . S
C447 H461 0.958 . S
C447 H462 0.961 . S
C447 H463 0.960 . S
H448 C432 0.931 . S
H449 C437 0.929 . S
H450 C438 0.960 . S
H451 C438 0.962 . S
H452 C438 0.960 . S
H453 C439 0.961 . S
H454 C439 0.961 . S
H455 C439 0.961 . S
H456 C440 0.931 . S
H457 C445 0.930 . S
H458 C446 0.956 . S
H459 C446 0.961 . S
H460 C446 0.961 . S
H461 C447 0.958 . S
H462 C447 0.961 . S
H463 C447 0.960 . S
C464 C465 1.391 1_545 S
C464 C466 1.394 . S
C464 H480 0.931 . S
C465 C464 1.391 1_565 S
C465 C469 1.376 . S
C466 C464 1.394 . S
C466 C467 1.369 1_545 S
C466 C470 1.531 . S
C467 C466 1.369 1_565 S
C467 C468 1.410 . S
C467 C475 1.503 1_565 S
C468 C467 1.410 . S
C468 C469 1.392 . S
C468 C471 1.511 . S
C469 C465 1.376 . S
C469 C468 1.392 . S
C469 H481 0.929 . S
C470 C466 1.531 . S
C470 H482 0.960 . S
C470 H483 0.962 1_554 S
C470 H484 0.960 . S
C471 C468 1.511 . S
C471 H485 0.961 . S
C471 H486 0.960 1_554 S
C471 H487 0.961 . S
C472 C473 1.370 . S
C472 C474 1.363 . S
C472 H488 0.931 . S
C473 C472 1.370 . S
C473 C477 1.408 1_556 S
C474 C472 1.363 . S
C474 C475 1.370 1_556 S
C474 C478 1.524 1_545 S
C475 C467 1.503 1_545 S
C475 C474 1.370 1_554 S
C475 C476 1.403 . S
C476 C475 1.403 . S
C476 C477 1.404 . S
C476 C479 1.539 . S
C477 C473 1.408 1_554 S
C477 C476 1.404 . S
C477 H489 0.930 . S
C478 C474 1.524 1_565 S
C478 H490 0.956 1_565 S
C478 H491 0.961 . S
C478 H492 0.961 . S
C479 C476 1.539 . S
C479 H493 0.958 . S
C479 H494 0.961 . S
C479 H495 0.960 1_545 S
H480 C464 0.931 . S
H481 C469 0.929 . S
H482 C470 0.960 . S
H483 C470 0.962 1_556 S
H484 C470 0.960 . S
H485 C471 0.961 . S
H486 C471 0.960 1_556 S
H487 C471 0.961 . S
H488 C472 0.931 . S
H489 C477 0.930 . S
H490 C478 0.956 1_545 S
H491 C478 0.961 . S
H492 C478 0.961 . S
H493 C479 0.958 . S
H494 C479 0.961 . S
H495 C479 0.960 1_565 S
C496 C497 1.391 1_545 S
C496 C498 1.394 . S
C496 H512 0.931 . S
C497 C496 1.391 1_565 S
C497 C501 1.376 . S
C498 C496 1.394 . S
C498 C499 1.369 1_545 S
C498 C502 1.531 . S
C499 C498 1.369 1_565 S
C499 C500 1.410 . S
C499 C507 1.503 . S
C500 C499 1.410 . S
C500 C501 1.392 . S
C500 C503 1.511 . S
C501 C497 1.376 . S
C501 C500 1.392 . S
C501 H513 0.929 . S
C502 C498 1.531 . S
C502 H514 0.960 . S
C502 H515 0.962 . S
C502 H516 0.960 . S
C503 C500 1.511 . S
C503 H517 0.961 . S
C503 H518 0.961 . S
C503 H519 0.961 . S
C504 C505 1.370 . S
C504 C506 1.363 . S
C504 H520 0.931 . S
C505 C504 1.370 . S
C505 C509 1.408 1_545 S
C506 C504 1.363 . S
C506 C507 1.370 1_545 S
C506 C510 1.524 . S
C507 C499 1.503 . S
C507 C506 1.370 1_565 S
C507 C508 1.403 . S
C508 C507 1.403 . S
C508 C509 1.404 . S
C508 C511 1.539 . S
C509 C505 1.408 1_565 S
C509 C508 1.404 . S
C509 H521 0.930 . S
C510 C506 1.524 . S
C510 H522 0.956 . S
C510 H523 0.961 . S
C510 H524 0.961 . S
C511 C508 1.539 . S
C511 H525 0.958 . S
C511 H526 0.961 . S
C511 H527 0.960 . S
H512 C496 0.931 . S
H513 C501 0.929 . S
H514 C502 0.960 . S
H515 C502 0.962 . S
H516 C502 0.960 . S
H517 C503 0.961 . S
H518 C503 0.961 . S
H519 C503 0.961 . S
H520 C504 0.931 . S
H521 C509 0.930 . S
H522 C510 0.956 . S
H523 C510 0.961 . S
H524 C510 0.961 . S
H525 C511 0.958 . S
H526 C511 0.961 . S
H527 C511 0.960 . S
C528 C529 1.391 . S
C528 C530 1.394 . S
C528 H544 0.931 . S
C529 C528 1.391 . S
C529 C533 1.376 . S
C530 C528 1.394 . S
C530 C531 1.369 . S
C530 C534 1.531 . S
C531 C530 1.369 . S
C531 C532 1.410 . S
C531 C539 1.503 1_655 S
C532 C531 1.410 . S
C532 C533 1.392 . S
C532 C535 1.521 1_655 S
C533 C529 1.376 . S
C533 C532 1.392 . S
C533 H545 0.929 . S
C534 C530 1.531 . S
C534 H546 0.960 . S
C534 H547 0.970 . S
C534 H548 0.960 . S
C535 C532 1.521 1_455 S
C535 H549 0.955 1_554 S
C535 H550 0.941 1_554 S
C535 H551 0.976 . S
C536 C537 1.370 . S
C536 C538 1.363 . S
C536 H552 0.931 . S
C537 C536 1.370 . S
C537 C541 1.408 1_556 S
C538 C536 1.363 . S
C538 C539 1.370 1_556 S
C538 C542 1.524 1_455 S
C539 C531 1.503 1_455 S
C539 C538 1.370 1_554 S
C539 C540 1.403 . S
C540 C539 1.403 . S
C540 C541 1.404 . S
C540 C543 1.539 . S
C541 C537 1.408 1_554 S
C541 C540 1.404 . S
C541 H553 0.930 . S
C542 C538 1.524 1_655 S
C542 H554 0.956 . S
C542 H555 0.961 . S
C542 H556 0.961 . S
C543 C540 1.539 . S
C543 H557 0.958 . S
C543 H558 0.961 . S
C543 H559 0.960 . S
H544 C528 0.931 . S
H545 C533 0.929 . S
H546 C534 0.960 . S
H547 C534 0.970 . S
H548 C534 0.960 . S
H549 C535 0.955 1_556 S
H550 C535 0.941 1_556 S
H551 C535 0.976 . S
H552 C536 0.931 . S
H553 C541 0.930 . S
H554 C542 0.956 . S
H555 C542 0.961 . S
H556 C542 0.961 . S
H557 C543 0.958 . S
H558 C543 0.961 . S
H559 C543 0.960 . S
C560 C561 1.391 . S
C560 C562 1.394 . S
C560 H576 0.931 . S
C561 C560 1.391 . S
C561 C565 1.376 . S
C562 C560 1.394 . S
C562 C563 1.369 . S
C562 C566 1.531 . S
C563 C562 1.369 . S
C563 C564 1.410 . S
C563 C571 1.503 1_455 S
C564 C563 1.410 . S
C564 C565 1.392 . S
C564 C567 1.511 1_455 S
C565 C561 1.376 . S
C565 C564 1.392 . S
C565 H577 0.929 . S
C566 C562 1.531 . S
C566 H578 0.960 . S
C566 H579 0.962 . S
C566 H580 0.960 . S
C567 C564 1.511 1_655 S
C567 H581 0.961 . S
C567 H582 0.961 . S
C567 H583 0.961 . S
C568 C569 1.370 . S
C568 C570 1.363 . S
C568 H584 0.931 . S
C569 C568 1.370 . S
C569 C573 1.408 . S
C570 C568 1.363 . S
C570 C571 1.370 . S
C570 C574 1.524 . S
C571 C563 1.503 1_655 S
C571 C570 1.370 . S
C571 C572 1.403 . S
C572 C571 1.403 . S
C572 C573 1.404 . S
C572 C575 1.539 . S
C573 C569 1.408 . S
C573 C572 1.404 . S
C573 H585 0.930 . S
C574 C570 1.524 . S
C574 H586 0.956 . S
C574 H587 0.961 . S
C574 H588 0.961 . S
C575 C572 1.539 . S
C575 H589 0.958 1_655 S
C575 H590 0.961 . S
C575 H591 0.960 1_655 S
H576 C560 0.931 . S
H577 C565 0.929 . S
H578 C566 0.960 . S
H579 C566 0.962 . S
H580 C566 0.960 . S
H581 C567 0.961 . S
H582 C567 0.961 . S
H583 C567 0.961 . S
H584 C568 0.931 . S
H585 C573 0.930 . S
H586 C574 0.956 . S
H587 C574 0.961 . S
H588 C574 0.961 . S
H589 C575 0.958 1_455 S
H590 C575 0.961 . S
H591 C575 0.960 1_455 S
C592 C593 1.391 . S
C592 C594 1.394 . S
C592 H608 0.931 . S
C593 C592 1.391 . S
C593 C597 1.376 1_645 S
C594 C592 1.394 . S
C594 C595 1.369 1_655 S
C594 C598 1.531 . S
C595 C594 1.369 1_455 S
C595 C596 1.410 1_545 S
C595 C603 1.497 . S
C596 C595 1.410 1_565 S
C596 C597 1.392 . S
C596 C599 1.511 . S
C597 C593 1.376 1_465 S
C597 C596 1.392 . S
C597 H609 0.929 . S
C598 C594 1.531 . S
C598 H610 0.960 . S
C598 H611 0.962 . S
C598 H612 0.960 . S
C599 C596 1.511 . S
C599 H613 0.961 . S
C599 H614 0.961 . S
C599 H615 0.961 . S
C600 C601 1.370 1_565 S
C600 C602 1.363 . S
C600 H616 0.931 . S
C601 C600 1.370 1_545 S
C601 C605 1.408 1_655 S
C602 C600 1.363 . S
C602 C603 1.364 1_665 S
C602 C606 1.524 . S
C603 C595 1.497 . S
C603 C602 1.364 1_445 S
C603 C604 1.415 . S
C604 C603 1.415 . S
C604 C605 1.404 . S
C604 C607 1.539 . S
C605 C601 1.408 1_455 S
C605 C604 1.404 . S
C605 H617 0.930 . S
C606 C602 1.524 . S
C606 H618 0.956 . S
C606 H619 0.961 . S
C606 H620 0.961 . S
C607 C604 1.539 . S
C607 H621 0.958 . S
C607 H622 0.961 . S
C607 H623 0.960 . S
H608 C592 0.931 . S
H609 C597 0.929 . S
H610 C598 0.960 . S
H611 C598 0.962 . S
H612 C598 0.960 . S
H613 C599 0.961 . S
H614 C599 0.961 . S
H615 C599 0.961 . S
H616 C600 0.931 . S
H617 C605 0.930 . S
H618 C606 0.956 . S
H619 C606 0.961 . S
H620 C606 0.961 . S
H621 C607 0.958 . S
H622 C607 0.961 . S
H623 C607 0.960 . S
C624 C625 1.391 1_645 S
C624 C626 1.394 . S
C624 H640 0.931 . S
C625 C624 1.391 1_465 S
C625 C629 1.376 . S
C626 C624 1.394 . S
C626 C627 1.369 1_655 S
C626 C630 1.531 . S
C627 C626 1.369 1_455 S
C627 C628 1.410 1_545 S
C627 C635 1.507 1_545 S
C628 C627 1.410 1_565 S
C628 C629 1.392 . S
C628 C631 1.511 . S
C629 C625 1.376 . S
C629 C628 1.392 . S
C629 H641 0.929 . S
C630 C626 1.531 . S
C630 H642 0.960 . S
C630 H643 0.962 . S
C630 H644 0.960 . S
C631 C628 1.511 . S
C631 H645 0.961 . S
C631 H646 0.961 . S
C631 H647 0.946 1_565 S
C632 C633 1.374 . S
C632 C634 1.367 . S
C632 H648 0.930 1_455 S
C633 C632 1.374 . S
C633 C637 1.408 1_565 S
C634 C632 1.367 . S
C634 C635 1.393 . S
C634 C638 1.516 1_455 S
C635 C627 1.507 1_565 S
C635 C634 1.393 . S
C635 C636 1.378 1_565 S
C636 C635 1.378 1_545 S
C636 C637 1.404 . S
C636 C639 1.539 . S
C637 C633 1.408 1_545 S
C637 C636 1.404 . S
C637 H649 0.930 . S
C638 C634 1.516 1_655 S
C638 H650 0.956 . S
C638 H651 0.961 1_655 S
C638 H652 0.961 . S
C639 C636 1.539 . S
C639 H653 0.958 1_455 S
C639 H654 0.961 . S
C639 H655 0.960 . S
H640 C624 0.931 . S
H641 C629 0.929 . S
H642 C630 0.960 . S
H643 C630 0.962 . S
H644 C630 0.960 . S
H645 C631 0.961 . S
H646 C631 0.961 . S
H647 C631 0.946 1_545 S
H648 C632 0.930 1_655 S
H649 C637 0.930 . S
H650 C638 0.956 . S
H651 C638 0.961 1_455 S
H652 C638 0.961 . S
H653 C639 0.958 1_655 S
H654 C639 0.961 . S
H655 C639 0.960 . S
C656 C657 1.391 . S
C656 C658 1.394 . S
C656 H672 0.931 . S
C657 C656 1.391 . S
C657 C661 1.376 . S
C658 C656 1.394 . S
C658 C659 1.369 . S
C658 C662 1.531 . S
C659 C658 1.369 . S
C659 C660 1.410 . S
C659 C667 1.503 . S
C660 C659 1.410 . S
C660 C661 1.392 . S
C660 C663 1.511 . S
C661 C657 1.376 . S
C661 C660 1.392 . S
C661 H673 0.929 . S
C662 C658 1.531 . S
C662 H674 0.960 . S
C662 H675 0.962 . S
C662 H676 0.960 . S
C663 C660 1.511 . S
C663 H677 0.961 . S
C663 H678 0.961 . S
C663 H679 0.961 . S
C664 C665 1.370 . S
C664 C666 1.363 . S
C664 H680 0.931 . S
C665 C664 1.370 . S
C665 C669 1.408 . S
C666 C664 1.363 . S
C666 C667 1.370 . S
C666 C670 1.524 . S
C667 C659 1.503 . S
C667 C666 1.370 . S
C667 C668 1.403 . S
C668 C667 1.403 . S
C668 C669 1.404 . S
C668 C671 1.539 . S
C669 C665 1.408 . S
C669 C668 1.404 . S
C669 H681 0.930 . S
C670 C666 1.524 . S
C670 H682 0.956 . S
C670 H683 0.961 . S
C670 H684 0.961 . S
C671 C668 1.539 . S
C671 H685 0.958 . S
C671 H686 0.961 . S
C671 H687 0.960 . S
H672 C656 0.931 . S
H673 C661 0.929 . S
H674 C662 0.960 . S
H675 C662 0.962 . S
H676 C662 0.960 . S
H677 C663 0.961 . S
H678 C663 0.961 . S
H679 C663 0.961 . S
H680 C664 0.931 . S
H681 C669 0.930 . S
H682 C670 0.956 . S
H683 C670 0.961 . S
H684 C670 0.961 . S
H685 C671 0.958 . S
H686 C671 0.961 . S
H687 C671 0.960 . S
C688 C689 1.391 . S
C688 C690 1.394 . S
C688 H704 0.931 . S
C689 C688 1.391 . S
C689 C693 1.376 . S
C690 C688 1.394 . S
C690 C691 1.369 . S
C690 C694 1.531 . S
C691 C690 1.369 . S
C691 C692 1.410 . S
C691 C699 1.503 . S
C692 C691 1.410 . S
C692 C693 1.392 . S
C692 C695 1.511 . S
C693 C689 1.376 . S
C693 C692 1.392 . S
C693 H705 0.929 . S
C694 C690 1.531 . S
C694 H706 0.960 . S
C694 H707 0.962 . S
C694 H708 0.960 . S
C695 C692 1.511 . S
C695 H709 0.961 . S
C695 H710 0.961 . S
C695 H711 0.961 . S
C696 C697 1.370 . S
C696 C698 1.363 . S
C696 H712 0.931 . S
C697 C696 1.370 . S
C697 C701 1.408 . S
C698 C696 1.363 . S
C698 C699 1.370 . S
C698 C702 1.524 . S
C699 C691 1.503 . S
C699 C698 1.370 . S
C699 C700 1.403 . S
C700 C699 1.403 . S
C700 C701 1.404 . S
C700 C703 1.539 . S
C701 C697 1.408 . S
C701 C700 1.404 . S
C701 H713 0.930 . S
C702 C698 1.524 . S
C702 H714 0.956 . S
C702 H715 0.961 . S
C702 H716 0.961 . S
C703 C700 1.539 . S
C703 H717 0.958 . S
C703 H718 0.961 . S
C703 H719 0.960 . S
H704 C688 0.931 . S
H705 C693 0.929 . S
H706 C694 0.960 . S
H707 C694 0.962 . S
H708 C694 0.960 . S
H709 C695 0.961 . S
H710 C695 0.961 . S
H711 C695 0.961 . S
H712 C696 0.931 . S
H713 C701 0.930 . S
H714 C702 0.956 . S
H715 C702 0.961 . S
H716 C702 0.961 . S
H717 C703 0.958 . S
H718 C703 0.961 . S
H719 C703 0.960 . S
C337 C224 3.314 . S
C345 C67 3.306 1_556 S
C369 C235 3.304 1_556 S
C377 C56 3.311 . S
C401 C154 0.576 . S
C409 C310 0.717 . S
C433 C142 0.622 . S
C441 C322 0.711 . S
C465 C70 1.377 . S
C473 C58 1.428 . S
C497 C151 4.236 1_565 S
C505 C140 4.233 1_545 S
C529 C238 1.384 . S
C537 C226 1.424 . S
C561 C308 4.238 . S
C569 C319 4.232 . S
C593 C158 1.508 . S
C601 C63 1.472 1_655 S
C625 C74 1.449 1_465 S
C633 C147 1.488 . S
C657 C326 1.495 . S
C665 C231 1.482 . S
C689 C315 1.473 . S
C697 C242 1.477 . S
