# Generated by pormake.
# Topology can, (4)-cn, num edge types: 1
# Building blocks:
#     Node 0, Type 0, BuildingBlock: QUQFOY_clean_sbu_1, # of connection points: 4
#     Node 1, Type 0, BuildingBlock: QUQFOY_clean_sbu_1, # of connection points: 4
#     Node 2, Type 0, BuildingBlock: QUQFOY_clean_sbu_1, # of connection points: 4
#     Node 3, Type 0, BuildingBlock: QUQFOY_clean_sbu_1, # of connection points: 4
#     Node 4, Type 0, BuildingBlock: QUQFOY_clean_sbu_1, # of connection points: 4
#     Node 5, Type 0, BuildingBlock: QUQFOY_clean_sbu_1, # of connection points: 4
#     Node 6, Type 0, BuildingBlock: QUQFOY_clean_sbu_1, # of connection points: 4
#     Node 7, Type 0, BuildingBlock: QUQFOY_clean_sbu_1, # of connection points: 4
#     Node 8, Type 0, BuildingBlock: QUQFOY_clean_sbu_1, # of connection points: 4
#     Node 9, Type 0, BuildingBlock: QUQFOY_clean_sbu_1, # of connection points: 4
#     Node 10, Type 0, BuildingBlock: QUQFOY_clean_sbu_1, # of connection points: 4
#     Node 11, Type 0, BuildingBlock: QUQFOY_clean_sbu_1, # of connection points: 4
#     Edge 12, Type (0, 0), BuildingBlock: UVAHIK_clean_linker_0, # of connection points: 2
#     Edge 13, Type (0, 0), BuildingBlock: UVAHIK_clean_linker_0, # of connection points: 2
#     Edge 14, Type (0, 0), BuildingBlock: UVAHIK_clean_linker_0, # of connection points: 2
#     Edge 15, Type (0, 0), BuildingBlock: UVAHIK_clean_linker_0, # of connection points: 2
#     Edge 16, Type (0, 0), BuildingBlock: UVAHIK_clean_linker_0, # of connection points: 2
#     Edge 17, Type (0, 0), BuildingBlock: UVAHIK_clean_linker_0, # of connection points: 2
#     Edge 18, Type (0, 0), BuildingBlock: UVAHIK_clean_linker_0, # of connection points: 2
#     Edge 19, Type (0, 0), BuildingBlock: UVAHIK_clean_linker_0, # of connection points: 2
#     Edge 20, Type (0, 0), BuildingBlock: UVAHIK_clean_linker_0, # of connection points: 2
#     Edge 21, Type (0, 0), BuildingBlock: UVAHIK_clean_linker_0, # of connection points: 2
#     Edge 22, Type (0, 0), BuildingBlock: UVAHIK_clean_linker_0, # of connection points: 2
#     Edge 23, Type (0, 0), BuildingBlock: UVAHIK_clean_linker_0, # of connection points: 2
#     Edge 24, Type (0, 0), BuildingBlock: UVAHIK_clean_linker_0, # of connection points: 2
#     Edge 25, Type (0, 0), BuildingBlock: UVAHIK_clean_linker_0, # of connection points: 2
#     Edge 26, Type (0, 0), BuildingBlock: UVAHIK_clean_linker_0, # of connection points: 2
#     Edge 27, Type (0, 0), BuildingBlock: UVAHIK_clean_linker_0, # of connection points: 2
#     Edge 28, Type (0, 0), BuildingBlock: UVAHIK_clean_linker_0, # of connection points: 2
#     Edge 29, Type (0, 0), BuildingBlock: UVAHIK_clean_linker_0, # of connection points: 2
#     Edge 30, Type (0, 0), BuildingBlock: UVAHIK_clean_linker_0, # of connection points: 2
#     Edge 31, Type (0, 0), BuildingBlock: UVAHIK_clean_linker_0, # of connection points: 2
#     Edge 32, Type (0, 0), BuildingBlock: UVAHIK_clean_linker_0, # of connection points: 2
#     Edge 33, Type (0, 0), BuildingBlock: UVAHIK_clean_linker_0, # of connection points: 2
#     Edge 34, Type (0, 0), BuildingBlock: UVAHIK_clean_linker_0, # of connection points: 2
#     Edge 35, Type (0, 0), BuildingBlock: UVAHIK_clean_linker_0, # of connection points: 2
# Relax obj value: 0.067
# Max RMSD: 0.098
# Mean RMSD: 0.098
data_MOF--net-can--node1-QUQFOY_clean_sbu_1--edge1-UVAHIK_clean_linker_0
_symmetry_space_group_name_H-M    P1
_symmetry_Int_Tables_number       1
_symmetry_cell_setting            triclinic
loop_
_symmetry_equiv_pos_as_xyz
'x, y, z'
_cell_length_a     73.359111
_cell_length_b     73.328862
_cell_length_c     37.071196
_cell_angle_alpha  89.97519
_cell_angle_beta   89.993505
_cell_angle_gamma 119.97205
loop_
_atom_site_label
_atom_site_type_symbol
_atom_site_fract_x
_atom_site_fract_y
_atom_site_fract_z
_atom_type_partial_charge
O0 O 0.05561 0.38304 0.19281 0.0
Cd1 Cd 0.07173 0.40113 0.23673 0.0
Cd2 Cd 0.03155 0.38148 0.26268 0.0
O3 O 0.02354 0.36459 0.21492 0.0
O4 O 0.10122 0.41205 0.22044 0.0
O5 O 0.08808 0.39216 0.26895 0.0
C6 C 0.10366 0.40218 0.24702 0.0
C7 C 0.02418 0.36586 0.31965 0.0
C8 C 0.03646 0.36891 0.18905 0.0
C9 C 0.05331 0.42848 0.25502 0.0
O10 O 0.03602 0.41157 0.26056 0.0
O11 O 0.06985 0.42782 0.24718 0.0
O12 O 0.00959 0.36576 0.30001 0.0
O13 O 0.0429 0.37405 0.30611 0.0
O14 O 0.67275 0.05476 0.69395 0.0
Cd15 Cd 0.67035 0.07057 0.73796 0.0
Cd16 Cd 0.64985 0.03035 0.76314 0.0
O17 O 0.65918 0.02259 0.71563 0.0
O18 O 0.68891 0.10017 0.72215 0.0
O19 O 0.69545 0.08683 0.77061 0.0
C20 C 0.70109 0.10251 0.74885 0.0
C21 C 0.65821 0.02332 0.82023 0.0
C22 C 0.6679 0.03565 0.69 0.0
C23 C 0.62444 0.05187 0.75522 0.0
O24 O 0.6241 0.03456 0.7605 0.0
O25 O 0.64167 0.06851 0.74796 0.0
O26 O 0.64384 0.00856 0.80069 0.0
O27 O 0.66854 0.04202 0.80654 0.0
O28 O 0.61713 0.67193 0.1925 0.0
Cd29 Cd 0.5992 0.67057 0.23626 0.0
Cd30 Cd 0.61936 0.651 0.26434 0.0
O31 O 0.63644 0.65985 0.21677 0.0
O32 O 0.58818 0.68893 0.2192 0.0
O33 O 0.60831 0.69627 0.26749 0.0
C34 C 0.59819 0.70157 0.2453 0.0
C35 C 0.6354 0.65868 0.32099 0.0
C36 C 0.63174 0.66748 0.18989 0.0
C37 C 0.57237 0.62513 0.2563 0.0
O38 O 0.58943 0.62511 0.26226 0.0
O39 O 0.57272 0.64209 0.24773 0.0
O40 O 0.63528 0.64436 0.3006 0.0
O41 O 0.62707 0.66933 0.30851 0.0
O42 O 0.94632 0.61848 0.69278 0.0
Cd43 Cd 0.92876 0.59991 0.73532 0.0
Cd44 Cd 0.96832 0.61865 0.76472 0.0
O45 O 0.97772 0.63619 0.71772 0.0
O46 O 0.89975 0.59034 0.71779 0.0
O47 O 0.91263 0.60912 0.76751 0.0
C48 C 0.89731 0.59992 0.74483 0.0
C49 C 0.97801 0.63404 0.8218 0.0
C50 C 0.96565 0.63245 0.69074 0.0
C51 C 0.94556 0.57149 0.75434 0.0
O52 O 0.96271 0.58816 0.7617 0.0
O53 O 0.92942 0.57252 0.74508 0.0
O54 O 0.99125 0.63242 0.80107 0.0
O55 O 0.95933 0.62778 0.80937 0.0
O56 O 0.32983 0.94527 0.19327 0.0
Cd57 Cd 0.33136 0.93013 0.23903 0.0
Cd58 Cd 0.35108 0.97035 0.26296 0.0
O59 O 0.3419 0.97734 0.21453 0.0
O60 O 0.3135 0.90008 0.22509 0.0
O61 O 0.30528 0.91454 0.26979 0.0
C62 C 0.30044 0.89828 0.24992 0.0
C63 C 0.34192 0.97736 0.31933 0.0
C64 C 0.33414 0.96419 0.18879 0.0
C65 C 0.377 0.94938 0.25872 0.0
O66 O 0.37722 0.96674 0.262 0.0
O67 O 0.35987 0.93252 0.25208 0.0
O68 O 0.35624 0.99221 0.29982 0.0
O69 O 0.33203 0.95858 0.3059 0.0
O70 O 0.38358 0.32878 0.69253 0.0
Cd71 Cd 0.4016 0.33021 0.73621 0.0
Cd72 Cd 0.38138 0.34975 0.76433 0.0
O73 O 0.36421 0.34076 0.71686 0.0
O74 O 0.41267 0.31191 0.71913 0.0
O75 O 0.39259 0.30455 0.76753 0.0
C76 C 0.40272 0.29927 0.74531 0.0
C77 C 0.36549 0.34221 0.82113 0.0
C78 C 0.36892 0.33314 0.68998 0.0
C79 C 0.42836 0.37569 0.75603 0.0
O80 O 0.41128 0.37567 0.76201 0.0
O81 O 0.42805 0.35873 0.74753 0.0
O82 O 0.36552 0.35645 0.80061 0.0
O83 O 0.3738 0.33155 0.80869 0.0
O84 O 0.61804 0.94594 0.32558 0.0
Cd85 Cd 0.59986 0.92959 0.28193 0.0
Cd86 Cd 0.6198 0.96924 0.25417 0.0
O87 O 0.63717 0.97738 0.30142 0.0
O88 O 0.58913 0.90008 0.29802 0.0
O89 O 0.60893 0.91346 0.24946 0.0
C90 C 0.59901 0.89779 0.2713 0.0
C91 C 0.63546 0.97747 0.19719 0.0
C92 C 0.63264 0.96499 0.32817 0.0
C93 C 0.57289 0.94823 0.26329 0.0
O94 O 0.58992 0.96529 0.25702 0.0
O95 O 0.57328 0.93161 0.27158 0.0
O96 O 0.63554 0.99173 0.21769 0.0
O97 O 0.62715 0.95851 0.20973 0.0
O98 O 0.67196 0.61755 0.82377 0.0
Cd99 Cd 0.66996 0.59963 0.77955 0.0
Cd100 Cd 0.64977 0.61969 0.75415 0.0
O101 O 0.6588 0.63649 0.80196 0.0
O102 O 0.68811 0.58824 0.796 0.0
O103 O 0.69551 0.60858 0.74794 0.0
C104 C 0.70074 0.59828 0.76988 0.0
C105 C 0.65848 0.63543 0.69734 0.0
C106 C 0.66721 0.63187 0.82774 0.0
C107 C 0.62418 0.57273 0.7611 0.0
O108 O 0.62394 0.58977 0.75611 0.0
O109 O 0.64132 0.57318 0.76857 0.0
O110 O 0.64402 0.63573 0.71676 0.0
O111 O 0.66871 0.62694 0.71101 0.0
O112 O 0.05749 0.67253 0.32507 0.0
Cd113 Cd 0.073 0.67112 0.27973 0.0
Cd114 Cd 0.03246 0.65076 0.25555 0.0
O115 O 0.02533 0.65991 0.30384 0.0
O116 O 0.10288 0.68932 0.29422 0.0
O117 O 0.08856 0.69716 0.24878 0.0
C118 C 0.10472 0.70223 0.26906 0.0
C119 C 0.0223 0.65702 0.19938 0.0
C120 C 0.03849 0.66795 0.32951 0.0
C121 C 0.05446 0.62558 0.26087 0.0
O122 O 0.03708 0.62524 0.25717 0.0
O123 O 0.07122 0.64279 0.2675 0.0
O124 O 0.00897 0.64261 0.22073 0.0
O125 O 0.04135 0.66876 0.21084 0.0
O126 O 0.38356 0.05473 0.82414 0.0
Cd127 Cd 0.40154 0.0714 0.78047 0.0
Cd128 Cd 0.38161 0.03188 0.75199 0.0
O129 O 0.36457 0.0234 0.79957 0.0
O130 O 0.41217 0.10082 0.79689 0.0
O131 O 0.39219 0.0875 0.74853 0.0
C132 C 0.40213 0.10311 0.77042 0.0
C133 C 0.36546 0.02353 0.69544 0.0
C134 C 0.36908 0.03562 0.82655 0.0
C135 C 0.42861 0.0531 0.76014 0.0
O136 O 0.41159 0.03605 0.7538 0.0
O137 O 0.42817 0.0696 0.76918 0.0
O138 O 0.36573 0.00935 0.7157 0.0
O139 O 0.3737 0.04247 0.70798 0.0
O140 O 0.32844 0.38317 0.32434 0.0
Cd141 Cd 0.33056 0.40137 0.28044 0.0
Cd142 Cd 0.35079 0.38129 0.25462 0.0
O143 O 0.34169 0.36435 0.30232 0.0
O144 O 0.31252 0.4128 0.29733 0.0
O145 O 0.30505 0.39276 0.2489 0.0
C146 C 0.2999 0.403 0.27111 0.0
C147 C 0.34233 0.3657 0.19769 0.0
C148 C 0.3332 0.36884 0.32814 0.0
C149 C 0.37638 0.42825 0.26201 0.0
O150 O 0.3766 0.41122 0.25676 0.0
O151 O 0.35926 0.42781 0.26964 0.0
O152 O 0.35674 0.36539 0.21726 0.0
O153 O 0.332 0.3741 0.21128 0.0
O154 O 0.94498 0.32917 0.82474 0.0
Cd155 Cd 0.92812 0.33001 0.78099 0.0
Cd156 Cd 0.96791 0.35006 0.75267 0.0
O157 O 0.97636 0.3415 0.80036 0.0
O158 O 0.89889 0.31155 0.79857 0.0
O159 O 0.91161 0.30406 0.75032 0.0
C160 C 0.89627 0.29878 0.77268 0.0
C161 C 0.97656 0.34261 0.69603 0.0
C162 C 0.9641 0.33385 0.82731 0.0
C163 C 0.94601 0.37527 0.76021 0.0
O164 O 0.96327 0.37561 0.75448 0.0
O165 O 0.92958 0.35819 0.76891 0.0
O166 O 0.99059 0.35705 0.71645 0.0
O167 O 0.95762 0.3317 0.70848 0.0
C168 C 0.04402 0.36247 0.12604 0.0
C169 C 0.02919 0.35898 0.15314 0.0
C170 C 0.03758 0.35584 0.09071 0.0
C171 C 0.99161 0.32233 0.03273 0.0
H172 H 0.02293 0.36546 0.96119 0.0
C173 C 0.95838 0.32347 0.89243 0.0
C174 C 0.97217 0.33175 0.86286 0.0
C175 C 0.96604 0.32363 0.92697 0.0
C176 C 0.01424 0.35303 0.98058 0.0
H177 H 0.99586 0.3447 0.16467 0.0
H178 H 0.98458 0.33324 0.1027 0.0
H179 H 0.03472 0.37117 0.0235 0.0
H180 H 0.00478 0.34571 0.84622 0.0
H181 H 0.01815 0.34573 0.90659 0.0
H182 H 0.97087 0.30437 0.98974 0.0
C183 C 0.00122 0.34102 0.10894 0.0
C184 C 0.02099 0.35633 0.01642 0.0
C185 C 0.00767 0.34764 0.14445 0.0
C186 C 0.99373 0.33931 0.86841 0.0
C187 C 0.00141 0.33945 0.90307 0.0
C188 C 0.98488 0.31899 0.99677 0.0
C189 C 0.01615 0.34558 0.08149 0.0
C190 C 0.00962 0.34115 0.04302 0.0
C191 C 0.98769 0.33203 0.9329 0.0
C192 C 0.99594 0.33445 0.97035 0.0
H193 H 0.06073 0.37093 0.13184 0.0
H194 H 0.04946 0.3592 0.07037 0.0
H195 H 0.98266 0.31023 0.05249 0.0
H196 H 0.94166 0.31745 0.88921 0.0
H197 H 0.95502 0.318 0.94927 0.0
C198 C 0.63757 0.95898 0.39301 0.0
C199 C 0.64302 0.97288 0.3636 0.0
C200 C 0.64509 0.96652 0.42758 0.0
C201 C 0.66356 0.01455 0.48148 0.0
H202 H 0.67449 0.98277 0.55345 0.0
C203 C 0.68252 0.04363 0.62742 0.0
C204 C 0.67098 0.02863 0.65416 0.0
C205 C 0.68313 0.0374 0.59209 0.0
C206 C 0.67143 0.99178 0.53366 0.0
H207 H 0.6617 0.00555 0.34722 0.0
H208 H 0.67511 0.01872 0.40763 0.0
H209 H 0.66902 0.97124 0.49055 0.0
H210 H 0.65199 0.9952 0.66512 0.0
H211 H 0.65288 0.98429 0.60315 0.0
H212 H 0.66551 0.03481 0.5245 0.0
C213 C 0.66465 0.00198 0.40396 0.0
C214 C 0.6683 0.98519 0.49763 0.0
C215 C 0.65708 0.99442 0.36929 0.0
C216 C 0.66102 0.00715 0.64517 0.0
C217 C 0.66159 0.0009 0.60967 0.0
C218 C 0.66675 0.02115 0.51739 0.0
C219 C 0.65833 0.98817 0.43367 0.0
C220 C 0.664 0.99632 0.47119 0.0
C221 C 0.67217 0.01602 0.58253 0.0
C222 C 0.67044 0.0097 0.54401 0.0
H223 H 0.62683 0.94227 0.38966 0.0
H224 H 0.63969 0.95543 0.44978 0.0
H225 H 0.65989 0.02328 0.46207 0.0
H226 H 0.69062 0.06031 0.63347 0.0
H227 H 0.69179 0.04941 0.57201 0.0
C228 C 0.65589 0.6621 0.14863 0.0
C229 C 0.64196 0.66973 0.15436 0.0
C230 C 0.66335 0.66196 0.11392 0.0
C231 C 0.66206 0.64816 0.03641 0.0
H232 H 0.67346 0.691 0.96447 0.0
C233 C 0.68135 0.63807 0.89061 0.0
C234 C 0.67008 0.64178 0.8637 0.0
C235 C 0.6818 0.64478 0.92597 0.0
C236 C 0.67025 0.67888 0.98424 0.0
H237 H 0.62584 0.68424 0.1283 0.0
H238 H 0.63852 0.68368 0.06811 0.0
H239 H 0.66794 0.69709 0.02733 0.0
H240 H 0.65138 0.65652 0.85251 0.0
H241 H 0.652 0.66812 0.91454 0.0
H242 H 0.6639 0.62976 0.99341 0.0
C243 C 0.6439 0.67799 0.09032 0.0
C244 C 0.6671 0.68236 0.02026 0.0
C245 C 0.63649 0.67815 0.12492 0.0
C246 C 0.66021 0.6534 0.87259 0.0
C247 C 0.66062 0.6601 0.90813 0.0
C248 C 0.66525 0.64472 1.00052 0.0
C249 C 0.65704 0.66945 0.08421 0.0
C250 C 0.66265 0.66689 0.04669 0.0
C251 C 0.67095 0.65535 0.9354 0.0
C252 C 0.66912 0.65991 0.9739 0.0
H253 H 0.66051 0.65561 0.17072 0.0
H254 H 0.67372 0.65557 0.11023 0.0
H255 H 0.65826 0.63572 0.05583 0.0
H256 H 0.68937 0.62939 0.88464 0.0
H257 H 0.69027 0.64126 0.94616 0.0
C258 C 0.04675 0.68116 0.39295 0.0
C259 C 0.03168 0.67072 0.36577 0.0
C260 C 0.04055 0.68166 0.42835 0.0
C261 C 0.99545 0.67225 0.48622 0.0
H262 H 0.02443 0.65743 0.55778 0.0
C263 C 0.99594 0.65601 0.6503 0.0
C264 C 0.97419 0.64294 0.65558 0.0
C265 C 0.00397 0.66355 0.61581 0.0
C266 C 0.01643 0.66203 0.53838 0.0
H267 H 0.99824 0.65351 0.35422 0.0
H268 H 0.98738 0.65422 0.41629 0.0
H269 H 0.03632 0.6629 0.49551 0.0
H270 H 0.94374 0.62853 0.62902 0.0
H271 H 0.9577 0.64134 0.56923 0.0
H272 H 0.97527 0.67093 0.52915 0.0
C273 C 0.00402 0.66215 0.41006 0.0
C274 C 0.02323 0.66512 0.50257 0.0
C275 C 0.01024 0.66168 0.3745 0.0
C276 C 0.9606 0.63848 0.62598 0.0
C277 C 0.96861 0.64598 0.59161 0.0
C278 C 0.98867 0.66921 0.52214 0.0
C279 C 0.01913 0.6717 0.43753 0.0
C280 C 0.01266 0.66999 0.47596 0.0
C281 C 0.99041 0.65819 0.5859 0.0
C282 C 0.99889 0.66374 0.54856 0.0
H283 H 0.06342 0.68852 0.38714 0.0
H284 H 0.05258 0.68951 0.44872 0.0
H285 H 0.98715 0.67625 0.46644 0.0
H286 H 0.00684 0.65984 0.67253 0.0
H287 H 0.02084 0.67321 0.61245 0.0
C288 C 0.34527 0.00577 0.86755 0.0
C289 C 0.35882 0.02743 0.86198 0.0
C290 C 0.33786 0.99798 0.90219 0.0
C291 C 0.33326 0.01393 0.99583 0.0
H292 H 0.33845 0.96562 0.02259 0.0
C293 C 0.34051 0.99238 0.14359 0.0
C294 C 0.33137 0.97094 0.15248 0.0
C295 C 0.34005 0.99853 0.10798 0.0
C296 C 0.33653 0.9789 0.01551 0.0
H297 H 0.37424 0.05799 0.88821 0.0
H298 H 0.36159 0.04443 0.94831 0.0
H299 H 0.34386 0.97734 0.96023 0.0
H300 H 0.31336 0.93915 0.13139 0.0
H301 H 0.31231 0.94988 0.06973 0.0
H302 H 0.32651 0.01577 0.05156 0.0
C303 C 0.35651 0.03343 0.92602 0.0
C304 C 0.3396 0.9856 0.97965 0.0
C305 C 0.36391 0.0412 0.89149 0.0
C306 C 0.32081 0.95582 0.12543 0.0
C307 C 0.32028 0.96196 0.08999 0.0
C308 C 0.3302 0.00722 0.0318 0.0
C309 C 0.3438 0.01169 0.93197 0.0
C310 C 0.3383 0.00337 0.96942 0.0
C311 C 0.33037 0.98337 0.08062 0.0
C312 C 0.33206 0.98977 0.04212 0.0
H313 H 0.34096 0.99474 0.84541 0.0
H314 H 0.32782 0.98117 0.90578 0.0
H315 H 0.33188 0.02752 0.98877 0.0
H316 H 0.34878 0.00442 0.16377 0.0
H317 H 0.34809 0.01518 0.10164 0.0
C318 C 0.34027 0.34728 0.37286 0.0
C319 C 0.33028 0.35878 0.36401 0.0
C320 C 0.33984 0.3405 0.40836 0.0
C321 C 0.33489 0.35558 0.50078 0.0
H322 H 0.33276 0.30343 0.52746 0.0
C323 C 0.34456 0.33828 0.64883 0.0
C324 C 0.35864 0.33082 0.65449 0.0
C325 C 0.33704 0.33836 0.61415 0.0
C326 C 0.33344 0.3181 0.52043 0.0
H327 H 0.31072 0.37086 0.38496 0.0
H328 H 0.30977 0.35885 0.4464 0.0
H329 H 0.32718 0.30951 0.46462 0.0
H330 H 0.37493 0.31653 0.62834 0.0
H331 H 0.36214 0.31698 0.56821 0.0
H332 H 0.3418 0.36453 0.55611 0.0
C333 C 0.31836 0.35548 0.42622 0.0
C334 C 0.33026 0.32157 0.48442 0.0
C335 C 0.31884 0.36228 0.3909 0.0
C336 C 0.36418 0.32249 0.62502 0.0
C337 C 0.3567 0.3226 0.59044 0.0
C338 C 0.33813 0.35214 0.53667 0.0
C339 C 0.32936 0.34505 0.43563 0.0
C340 C 0.33119 0.34047 0.47413 0.0
C341 C 0.34342 0.33097 0.5844 0.0
C342 C 0.33774 0.3335 0.5469 0.0
H343 H 0.34922 0.34433 0.3528 0.0
H344 H 0.34857 0.33259 0.41476 0.0
H345 H 0.3361 0.37047 0.49372 0.0
H346 H 0.33988 0.3447 0.67095 0.0
H347 H 0.32655 0.34462 0.61052 0.0
C348 C 0.97067 0.64571 0.88128 0.0
C349 C 0.98369 0.64122 0.85962 0.0
C350 C 0.9752 0.65041 0.918 0.0
C351 C 0.99716 0.63679 0.99273 0.0
H352 H 0.00416 0.68642 0.04258 0.0
C353 C 0.99758 0.64207 0.14723 0.0
C354 C 0.01628 0.65855 0.16179 0.0
C355 C 0.99303 0.64182 0.1106 0.0
C356 C 0.00219 0.6725 0.02889 0.0
H357 H 0.01195 0.63872 0.85933 0.0
H358 H 0.01941 0.64633 0.92339 0.0
H359 H 0.99766 0.68285 0.97703 0.0
H360 H 0.0443 0.68829 0.14965 0.0
H361 H 0.03594 0.68807 0.08545 0.0
H362 H 0.00121 0.62616 0.04434 0.0
C363 C 0.00587 0.64642 0.91187 0.0
C364 C 0.99841 0.67043 0.9916 0.0
C365 C 0.00161 0.64213 0.87518 0.0
C366 C 0.02979 0.67536 0.13923 0.0
C367 C 0.025 0.67528 0.10258 0.0
C368 C 1.00045 0.63863 0.02995 0.0
C369 C 0.99256 0.6503 0.93373 0.0
C370 C 0.99605 0.65261 0.97322 0.0
C371 C 0.00685 0.65822 0.08781 0.0
C372 C 0.00309 0.65652 0.04837 0.0
H373 H 0.95677 0.64516 0.87007 0.0
H374 H 0.96466 0.65328 0.93441 0.0
H375 H 0.99528 0.62286 0.97918 0.0
H376 H 0.98684 0.62885 0.16378 0.0
H377 H 0.97889 0.62854 0.09985 0.0
C378 C 0.34829 0.00227 0.37037 0.0
C379 C 0.3383 0.98155 0.35702 0.0
C380 C 0.34713 0.00614 0.407 0.0
C381 C 0.34106 0.98098 0.49474 0.0
H382 H 0.33599 0.02778 0.5313 0.0
C383 C 0.3455 0.99724 0.64704 0.0
C384 C 0.35729 0.01835 0.65806 0.0
C385 C 0.33983 0.99217 0.61088 0.0
C386 C 0.33761 0.01475 0.52155 0.0
H387 H 0.31849 0.9487 0.3715 0.0
H388 H 0.31653 0.95549 0.43551 0.0
H389 H 0.33196 0.01998 0.46675 0.0
H390 H 0.37175 0.05073 0.63994 0.0
H391 H 0.36238 0.04194 0.57666 0.0
H392 H 0.3475 0.97611 0.54894 0.0
C393 C 0.32538 0.96872 0.4176 0.0
C394 C 0.33522 0.01024 0.48456 0.0
C395 C 0.32639 0.96484 0.38089 0.0
C396 C 0.36259 0.0343 0.63233 0.0
C397 C 0.35712 0.02923 0.59601 0.0
C398 C 0.34362 0.98557 0.5316 0.0
C399 C 0.33609 0.98938 0.4312 0.0
C400 C 0.33707 0.99339 0.47071 0.0
C401 C 0.34604 0.00808 0.58466 0.0
C402 C 0.34208 0.0026 0.54555 0.0
H403 H 0.35758 0.0155 0.35271 0.0
H404 H 0.35569 0.02223 0.41663 0.0
H405 H 0.34297 0.96812 0.48489 0.0
H406 H 0.34098 0.98456 0.66627 0.0
H407 H 0.33085 0.97572 0.60342 0.0
C408 C 0.36306 0.32903 0.88448 0.0
C409 C 0.35754 0.33945 0.85866 0.0
C410 C 0.35779 0.32884 0.92087 0.0
C411 C 0.34429 0.35914 0.98511 0.0
H412 H 0.33318 0.31345 0.05049 0.0
C413 C 0.32705 0.36278 0.13593 0.0
C414 C 0.33902 0.35811 0.15987 0.0
C415 C 0.32617 0.35795 0.0992 0.0
C416 C 0.33629 0.32634 0.03254 0.0
H417 H 0.34107 0.35677 0.85041 0.0
H418 H 0.33127 0.35584 0.91338 0.0
H419 H 0.33706 0.30945 0.98597 0.0
H420 H 0.3586 0.34377 0.16427 0.0
H421 H 0.35693 0.33523 0.10035 0.0
H422 H 0.34361 0.37604 0.03165 0.0
C423 C 0.34027 0.34839 0.90592 0.0
C424 C 0.3386 0.3241 0.99555 0.0
C425 C 0.34575 0.34878 0.86969 0.0
C426 C 0.34926 0.34762 0.14656 0.0
C427 C 0.34823 0.34263 0.10992 0.0
C428 C 0.34181 0.36129 0.02196 0.0
C429 C 0.34669 0.3389 0.93221 0.0
C430 C 0.34286 0.34057 0.97135 0.0
C431 C 0.33707 0.34816 0.08567 0.0
C432 C 0.33802 0.34503 0.04618 0.0
H433 H 0.37224 0.32178 0.87687 0.0
H434 H 0.36321 0.32155 0.94025 0.0
H435 H 0.34801 0.37237 0.96759 0.0
H436 H 0.31896 0.37085 0.1453 0.0
H437 H 0.31724 0.3622 0.08126 0.0
C438 C 0.00302 0.34939 0.64764 0.0
C439 C 0.98189 0.33989 0.65857 0.0
C440 C 0.0082 0.349 0.61146 0.0
C441 C 0.98587 0.32448 0.52184 0.0
H442 H 0.03271 0.37645 0.48567 0.0
C443 C 0.99905 0.34788 0.37069 0.0
C444 C 0.0198 0.3583 0.35751 0.0
C445 C 0.99499 0.34293 0.40734 0.0
C446 C 0.01979 0.3617 0.49538 0.0
H447 H 0.94958 0.32193 0.64023 0.0
H448 H 0.95855 0.32173 0.57694 0.0
H449 H 0.02449 0.37286 0.54966 0.0
H450 H 0.05253 0.371 0.37234 0.0
H451 H 0.04545 0.36245 0.4364 0.0
H452 H 0.9808 0.31376 0.46696 0.0
C453 C 0.9712 0.32914 0.59637 0.0
C454 C 0.01506 0.35959 0.53221 0.0
C455 C 0.96603 0.32931 0.6327 0.0
C456 C 0.03637 0.36297 0.3816 0.0
C457 C 0.03232 0.3582 0.41834 0.0
C458 C 0.9905 0.32669 0.48488 0.0
C459 C 0.99238 0.33935 0.58512 0.0
C460 C 0.99796 0.341 0.546 0.0
C461 C 0.01162 0.34847 0.43173 0.0
C462 C 0.00744 0.34539 0.47121 0.0
H463 H 0.01563 0.3575 0.66697 0.0
H464 H 0.02468 0.35657 0.6041 0.0
H465 H 0.9728 0.30981 0.53143 0.0
H466 H 0.98591 0.34403 0.35286 0.0
H467 H 0.97889 0.33557 0.41681 0.0
C468 C 0.65126 0.99841 0.87157 0.0
C469 C 0.66151 0.01911 0.85811 0.0
C470 C 0.65232 0.99453 0.90824 0.0
C471 C 0.6588 0.01978 0.99601 0.0
H472 H 0.66362 0.97278 0.03238 0.0
C473 C 0.65507 0.00367 0.1484 0.0
C474 C 0.6433 0.98258 0.1596 0.0
C475 C 0.66049 0.00867 0.11213 0.0
C476 C 0.66206 0.98587 0.02269 0.0
H477 H 0.68159 0.05193 0.87245 0.0
H478 H 0.68334 0.04514 0.93656 0.0
H479 H 0.66743 0.98051 0.96781 0.0
H480 H 0.62857 0.95017 0.14162 0.0
H481 H 0.6375 0.95883 0.07817 0.0
H482 H 0.65265 0.02477 0.05033 0.0
C483 C 0.67439 0.03192 0.9187 0.0
C484 C 0.66433 0.99034 0.98568 0.0
C485 C 0.67349 0.0358 0.88194 0.0
C486 C 0.63773 0.96658 0.13389 0.0
C487 C 0.64294 0.97158 0.09746 0.0
C488 C 0.65636 0.01523 0.03289 0.0
C489 C 0.6635 0.01127 0.93238 0.0
C490 C 0.66258 0.00727 0.97189 0.0
C491 C 0.65404 0.99272 0.08597 0.0
C492 C 0.65781 0.99812 0.04679 0.0
H493 H 0.64191 0.98519 0.85395 0.0
H494 H 0.64362 0.97846 0.91794 0.0
H495 H 0.65698 0.03271 0.98621 0.0
H496 H 0.65979 0.01638 0.1676 0.0
H497 H 0.66948 0.02511 0.10455 0.0
C498 C 0.65533 0.6523 0.36943 0.0
C499 C 0.64348 0.66156 0.35843 0.0
C500 C 0.66091 0.6528 0.40562 0.0
C501 C 0.66273 0.67722 0.49514 0.0
H502 H 0.65769 0.6253 0.53147 0.0
C503 C 0.65179 0.65366 0.64614 0.0
C504 C 0.66196 0.64312 0.65956 0.0
C505 C 0.65296 0.65872 0.60951 0.0
C506 C 0.65951 0.64004 0.52172 0.0
H507 H 0.6288 0.67927 0.37662 0.0
H508 H 0.63803 0.67967 0.43994 0.0
H509 H 0.6533 0.62892 0.46741 0.0
H510 H 0.68204 0.63037 0.6452 0.0
H511 H 0.68399 0.63912 0.58117 0.0
H512 H 0.66814 0.68792 0.55003 0.0
C513 C 0.6434 0.67235 0.42056 0.0
C514 C 0.65702 0.64217 0.48485 0.0
C515 C 0.63802 0.67205 0.38422 0.0
C516 C 0.674 0.63847 0.63575 0.0
C517 C 0.67501 0.64337 0.59903 0.0
C518 C 0.66504 0.67501 0.53213 0.0
C519 C 0.65455 0.66233 0.43189 0.0
C520 C 0.65845 0.66072 0.47101 0.0
C521 C 0.66417 0.65319 0.58537 0.0
C522 C 0.66329 0.65632 0.54587 0.0
H523 H 0.65996 0.64426 0.35017 0.0
H524 H 0.66995 0.64538 0.41306 0.0
H525 H 0.66427 0.69186 0.48549 0.0
H526 H 0.6424 0.6575 0.66375 0.0
H527 H 0.6443 0.66614 0.59984 0.0
C528 C 0.07424 0.60581 0.25956 0.0
C529 C 0.055 0.60567 0.25873 0.0
C530 C 0.0746 0.58692 0.25897 0.0
C531 C 0.04206 0.53083 0.28097 0.0
H532 H 0.08052 0.52361 0.21889 0.0
C533 C 0.03542 0.44987 0.26024 0.0
C534 C 0.05407 0.44903 0.25691 0.0
C535 C 0.03602 0.46921 0.26099 0.0
C536 C 0.06989 0.52545 0.2368 0.0
H537 H 0.02107 0.58553 0.25618 0.0
H538 H 0.02176 0.55266 0.25528 0.0
H539 H 0.0808 0.55703 0.21879 0.0
H540 H 0.08804 0.46792 0.25231 0.0
H541 H 0.08912 0.50166 0.25443 0.0
H542 H 0.03127 0.49944 0.29937 0.0
C543 C 0.03654 0.56738 0.25661 0.0
C544 C 0.07003 0.54459 0.23663 0.0
C545 C 0.03617 0.58624 0.2569 0.0
C546 C 0.07336 0.46799 0.25472 0.0
C547 C 0.07397 0.48735 0.25571 0.0
C548 C 0.04202 0.51177 0.28135 0.0
C549 C 0.05574 0.56751 0.25787 0.0
C550 C 0.056 0.54741 0.25852 0.0
C551 C 0.05529 0.48821 0.25869 0.0
C552 C 0.05582 0.50877 0.25907 0.0
H553 H 0.08904 0.62051 0.26095 0.0
H554 H 0.08963 0.58749 0.26018 0.0
H555 H 0.03131 0.53268 0.29859 0.0
H556 H 0.02027 0.43558 0.26177 0.0
H557 H 0.02129 0.46923 0.26271 0.0
C558 C 0.44955 0.03479 0.75399 0.0
C559 C 0.449 0.05357 0.7579 0.0
C560 C 0.46874 0.03509 0.75311 0.0
C561 C 0.52497 0.06825 0.7779 0.0
H562 H 0.53178 0.02951 0.71581 0.0
C563 C 0.60489 0.07183 0.75537 0.0
C564 C 0.60459 0.05251 0.75656 0.0
C565 C 0.58609 0.07235 0.75563 0.0
C566 C 0.53004 0.04031 0.73349 0.0
H567 H 0.46824 0.08747 0.76324 0.0
H568 H 0.50173 0.08806 0.7608 0.0
H569 H 0.49879 0.02997 0.71491 0.0
H570 H 0.58427 0.0186 0.75918 0.0
H571 H 0.55152 0.01956 0.75942 0.0
H572 H 0.55642 0.07874 0.79603 0.0
C573 C 0.48731 0.07302 0.75925 0.0
C574 C 0.51113 0.04055 0.73306 0.0
C575 C 0.4681 0.0727 0.76042 0.0
C576 C 0.58508 0.03375 0.75823 0.0
C577 C 0.56631 0.03428 0.75815 0.0
C578 C 0.54397 0.06813 0.77808 0.0
C579 C 0.48788 0.0542 0.7558 0.0
C580 C 0.50828 0.05442 0.75545 0.0
C581 C 0.56661 0.05357 0.75672 0.0
C582 C 0.54664 0.05405 0.75607 0.0
H583 H 0.43514 0.01975 0.75221 0.0
H584 H 0.46853 0.02026 0.75102 0.0
H585 H 0.52325 0.07891 0.79592 0.0
H586 H 0.61964 0.08657 0.7541 0.0
H587 H 0.58679 0.08745 0.75428 0.0
C588 C 0.53287 0.60514 0.25597 0.0
C589 C 0.55201 0.60515 0.25825 0.0
C590 C 0.5137 0.5862 0.25659 0.0
C591 C 0.49057 0.5299 0.23713 0.0
H592 H 0.44428 0.52344 0.29676 0.0
C593 C 0.4157 0.44932 0.25766 0.0
C594 C 0.39627 0.44868 0.26006 0.0
C595 C 0.43452 0.46856 0.25697 0.0
C596 C 0.45693 0.52506 0.27953 0.0
H597 H 0.56598 0.58523 0.26326 0.0
H598 H 0.53252 0.55223 0.26413 0.0
H599 H 0.47742 0.5568 0.29682 0.0
H600 H 0.38139 0.46784 0.26294 0.0
H601 H 0.41419 0.5014 0.26083 0.0
H602 H 0.47013 0.49836 0.21937 0.0
C603 C 0.53238 0.56688 0.26172 0.0
C604 C 0.47593 0.54416 0.27968 0.0
C605 C 0.55154 0.58581 0.26145 0.0
C606 C 0.39609 0.46776 0.26129 0.0
C607 C 0.41492 0.48702 0.26032 0.0
C608 C 0.47154 0.51087 0.23674 0.0
C609 C 0.51327 0.56688 0.25913 0.0
C610 C 0.49299 0.54673 0.25865 0.0
C611 C 0.43439 0.48767 0.25835 0.0
C612 C 0.4545 0.50815 0.25809 0.0
H613 H 0.53267 0.61976 0.25352 0.0
H614 H 0.49921 0.58666 0.25431 0.0
H615 H 0.50335 0.53155 0.22021 0.0
H616 H 0.41643 0.43493 0.25689 0.0
H617 H 0.44921 0.46843 0.25603 0.0
C618 C 0.92538 0.53196 0.75235 0.0
C619 C 0.94467 0.55087 0.75548 0.0
C620 C 0.92476 0.51258 0.75239 0.0
C621 C 0.95733 0.48883 0.7326 0.0
H622 H 0.91762 0.44265 0.79257 0.0
C623 C 0.96379 0.41452 0.7546 0.0
C624 C 0.94517 0.395 0.7576 0.0
C625 C 0.9631 0.43321 0.75333 0.0
C626 C 0.9286 0.45525 0.77521 0.0
H627 H 0.97842 0.5642 0.76132 0.0
H628 H 0.97729 0.53042 0.7611 0.0
H629 H 0.91735 0.4758 0.79237 0.0
H630 H 0.91114 0.37978 0.76091 0.0
H631 H 0.9099 0.41233 0.75774 0.0
H632 H 0.96845 0.46837 0.71498 0.0
C633 C 0.96268 0.53062 0.75851 0.0
C634 C 0.92846 0.47426 0.77522 0.0
C635 C 0.96329 0.54995 0.75886 0.0
C636 C 0.9258 0.39457 0.75881 0.0
C637 C 0.9251 0.41326 0.75723 0.0
C638 C 0.95734 0.46979 0.73231 0.0
C639 C 0.94344 0.51174 0.75513 0.0
C640 C 0.94298 0.4913 0.75419 0.0
C641 C 0.94375 0.43283 0.75467 0.0
C642 C 0.94312 0.45282 0.75389 0.0
H643 H 0.91075 0.53212 0.74974 0.0
H644 H 0.90972 0.49826 0.74957 0.0
H645 H 0.96848 0.50161 0.71568 0.0
H646 H 0.97899 0.41544 0.75384 0.0
H647 H 0.97781 0.44798 0.752 0.0
C648 C 0.3967 0.92961 0.26156 0.0
C649 C 0.3969 0.94888 0.26149 0.0
C650 C 0.41552 0.92917 0.26281 0.0
C651 C 0.47234 0.96219 0.28454 0.0
H652 H 0.47758 0.92126 0.22589 0.0
C653 C 0.55206 0.96676 0.25857 0.0
C654 C 0.55254 0.94791 0.262 0.0
C655 C 0.53292 0.96658 0.25879 0.0
C656 C 0.47628 0.93266 0.24265 0.0
H657 H 0.41708 0.98282 0.26289 0.0
H658 H 0.44986 0.98207 0.26431 0.0
H659 H 0.44448 0.92153 0.22635 0.0
H660 H 0.5332 0.91402 0.26776 0.0
H661 H 0.49978 0.91373 0.26787 0.0
H662 H 0.50431 0.97352 0.3003 0.0
C663 C 0.43516 0.96726 0.26409 0.0
C664 C 0.45729 0.93279 0.24303 0.0
C665 C 0.41634 0.96769 0.26309 0.0
C666 C 0.53341 0.92883 0.26509 0.0
C667 C 0.51425 0.92864 0.265 0.0
C668 C 0.49136 0.96216 0.28394 0.0
C669 C 0.435 0.948 0.26379 0.0
C670 C 0.45509 0.94759 0.26394 0.0
C671 C 0.51383 0.94753 0.26214 0.0
C672 C 0.49355 0.94742 0.26294 0.0
H673 H 0.38199 0.91481 0.26056 0.0
H674 H 0.41478 0.91405 0.26317 0.0
H675 H 0.47111 0.97356 0.30146 0.0
H676 H 0.56649 0.98174 0.25614 0.0
H677 H 0.53306 0.98136 0.25611 0.0
C678 C 0.60449 0.53322 0.76047 0.0
C679 C 0.60429 0.5523 0.75928 0.0
C680 C 0.58565 0.51396 0.75992 0.0
C681 C 0.52953 0.49019 0.78139 0.0
H682 H 0.5229 0.44459 0.71968 0.0
C683 C 0.44915 0.41499 0.76143 0.0
C684 C 0.4487 0.39568 0.75803 0.0
C685 C 0.46829 0.43392 0.76207 0.0
C686 C 0.52458 0.45704 0.73749 0.0
H687 H 0.5841 0.56603 0.75625 0.0
H688 H 0.55127 0.53241 0.75548 0.0
H689 H 0.55607 0.47792 0.71947 0.0
H690 H 0.46808 0.38112 0.75331 0.0
H691 H 0.50147 0.4141 0.75531 0.0
H692 H 0.49823 0.46934 0.79987 0.0
C693 C 0.56601 0.5324 0.75701 0.0
C694 C 0.54357 0.47615 0.73725 0.0
C695 C 0.58483 0.55165 0.75722 0.0
C696 C 0.46785 0.39573 0.75575 0.0
C697 C 0.48701 0.41467 0.75666 0.0
C698 C 0.51061 0.47104 0.78186 0.0
C699 C 0.56622 0.51336 0.75851 0.0
C700 C 0.54619 0.49296 0.75905 0.0
C701 C 0.48747 0.43402 0.75962 0.0
C702 C 0.50783 0.45424 0.75977 0.0
H703 H 0.61919 0.53315 0.76203 0.0
H704 H 0.58627 0.49953 0.76135 0.0
H705 H 0.53122 0.50276 0.79891 0.0
H706 H 0.43469 0.41555 0.76302 0.0
H707 H 0.468 0.44852 0.76379 0.0
C708 C 0.12958 0.39737 0.28418 0.0
C709 C 0.12347 0.40174 0.25085 0.0
C710 C 0.14847 0.39707 0.28714 0.0
C711 C 0.18489 0.38708 0.23719 0.0
H712 H 0.2283 0.42598 0.30217 0.0
C713 C 0.26866 0.39808 0.23541 0.0
C714 C 0.27971 0.40277 0.26813 0.0
C715 C 0.24945 0.39779 0.23334 0.0
C716 C 0.21627 0.41468 0.28436 0.0
H717 H 0.13199 0.40874 0.19442 0.0
H718 H 0.16457 0.40757 0.1995 0.0
H719 H 0.19447 0.42466 0.30014 0.0
H720 H 0.27912 0.41024 0.32454 0.0
H721 H 0.24539 0.40872 0.3215 0.0
H722 H 0.20616 0.37647 0.2221 0.0
C723 C 0.15493 0.40468 0.2233 0.0
C724 C 0.19693 0.41405 0.28315 0.0
C725 C 0.13637 0.40547 0.22052 0.0
C726 C 0.2711 0.40688 0.29878 0.0
C727 C 0.25176 0.40614 0.29694 0.0
C728 C 0.20406 0.38735 0.23892 0.0
C729 C 0.16119 0.40059 0.25663 0.0
C730 C 0.18116 0.40037 0.25937 0.0
C731 C 0.24068 0.40174 0.26416 0.0
C732 C 0.22011 0.40127 0.26237 0.0
H733 H 0.11992 0.39444 0.30796 0.0
H734 H 0.15305 0.39386 0.31311 0.0
H735 H 0.17286 0.37633 0.21872 0.0
H736 H 0.27499 0.39491 0.21134 0.0
H737 H 0.24165 0.3947 0.20745 0.0
C738 C 0.8701 0.26727 0.73745 0.0
C739 C 0.87653 0.27838 0.7701 0.0
C740 C 0.85128 0.24797 0.73564 0.0
C741 C 0.80149 0.21474 0.78724 0.0
H742 H 0.79613 0.17143 0.72102 0.0
C743 C 0.73179 0.12819 0.78629 0.0
C744 C 0.72133 0.12229 0.75294 0.0
C745 C 0.75102 0.14701 0.78944 0.0
C746 C 0.7975 0.18343 0.73966 0.0
H747 H 0.86877 0.27778 0.82667 0.0
H748 H 0.83673 0.24388 0.82407 0.0
H749 H 0.82934 0.20464 0.72443 0.0
H750 H 0.72294 0.13112 0.69664 0.0
H751 H 0.75676 0.16356 0.70205 0.0
H752 H 0.76973 0.19301 0.80311 0.0
C753 C 0.84554 0.25027 0.79938 0.0
C754 C 0.81643 0.20255 0.74142 0.0
C755 C 0.86404 0.26971 0.80096 0.0
C756 C 0.73056 0.13533 0.72277 0.0
C757 C 0.74995 0.15381 0.72574 0.0
C758 C 0.78274 0.19545 0.786 0.0
C759 C 0.83874 0.23916 0.76664 0.0
C760 C 0.81866 0.21858 0.76503 0.0
C761 C 0.76028 0.15985 0.75908 0.0
C762 C 0.78055 0.17973 0.76199 0.0
H763 H 0.87942 0.27365 0.71322 0.0
H764 H 0.84647 0.24014 0.70977 0.0
H765 H 0.80231 0.22676 0.80519 0.0
H766 H 0.72501 0.11842 0.80995 0.0
H767 H 0.75878 0.15141 0.81543 0.0
C768 C 0.59473 0.73063 0.21763 0.0
C769 C 0.59869 0.72189 0.24828 0.0
C770 C 0.5956 0.75005 0.21954 0.0
C771 C 0.61434 0.79762 0.27793 0.0
H772 H 0.57708 0.80737 0.21688 0.0
C773 C 0.59593 0.86505 0.29737 0.0
C774 C 0.59958 0.87806 0.26719 0.0
C775 C 0.59683 0.84656 0.2943 0.0
C776 C 0.58767 0.80487 0.23381 0.0
H777 H 0.60645 0.72647 0.30511 0.0
H778 H 0.60689 0.75993 0.30912 0.0
H779 H 0.57584 0.77358 0.21442 0.0
H780 H 0.60686 0.88186 0.21008 0.0
H781 H 0.60764 0.84885 0.20444 0.0
H782 H 0.62526 0.82873 0.29852 0.0
C783 C 0.60382 0.75218 0.28318 0.0
C784 C 0.58709 0.78555 0.23236 0.0
C785 C 0.6034 0.7329 0.28104 0.0
C786 C 0.60399 0.87211 0.23374 0.0
C787 C 0.60441 0.85329 0.2305 0.0
C788 C 0.61456 0.81677 0.27991 0.0
C789 C 0.59998 0.76106 0.25238 0.0
C790 C 0.60047 0.78165 0.25431 0.0
C791 C 0.60096 0.84047 0.26085 0.0
C792 C 0.60128 0.82055 0.25779 0.0
H793 H 0.59135 0.72265 0.19184 0.0
H794 H 0.5931 0.7565 0.195 0.0
H795 H 0.62519 0.79548 0.29472 0.0
H796 H 0.59263 0.8693 0.32356 0.0
H797 H 0.594 0.83684 0.31799 0.0
C798 C 0.86525 0.59797 0.71802 0.0
C799 C 0.87772 0.60078 0.74859 0.0
C800 C 0.84674 0.59884 0.7209 0.0
C801 C 0.80416 0.58799 0.78062 0.0
H802 H 0.79496 0.62631 0.72152 0.0
C803 C 0.72955 0.59428 0.79715 0.0
C804 C 0.72101 0.5987 0.76674 0.0
C805 C 0.74899 0.59522 0.7952 0.0
C806 C 0.79706 0.61524 0.73778 0.0
H807 H 0.8806 0.60661 0.80618 0.0
H808 H 0.84757 0.60735 0.81144 0.0
H809 H 0.82843 0.62681 0.71794 0.0
H810 H 0.72598 0.60736 0.71027 0.0
H811 H 0.75951 0.60797 0.70616 0.0
H812 H 0.77264 0.57555 0.79925 0.0
C813 C 0.85243 0.60479 0.78523 0.0
C814 C 0.81632 0.61571 0.73594 0.0
C815 C 0.87127 0.60441 0.78221 0.0
C816 C 0.73224 0.60393 0.73415 0.0
C817 C 0.75155 0.60445 0.73196 0.0
C818 C 0.78474 0.58718 0.78193 0.0
C819 C 0.84009 0.60209 0.75453 0.0
C820 C 0.82003 0.60214 0.75743 0.0
C821 C 0.76025 0.60017 0.76255 0.0
C822 C 0.78091 0.60086 0.76064 0.0
H823 H 0.8699 0.59528 0.69171 0.0
H824 H 0.83739 0.59659 0.69693 0.0
H825 H 0.8066 0.57717 0.79705 0.0
H826 H 0.7214 0.59049 0.82282 0.0
H827 H 0.75528 0.59237 0.8196 0.0
C828 C 0.26493 0.87664 0.27886 0.0
C829 C 0.28016 0.87843 0.25388 0.0
C830 C 0.2453 0.85819 0.28059 0.0
C831 C 0.20942 0.81153 0.2263 0.0
H832 H 0.18423 0.78697 0.31855 0.0
C833 C 0.12638 0.73763 0.23971 0.0
C834 C 0.1245 0.72257 0.26515 0.0
C835 C 0.1448 0.75729 0.23793 0.0
C836 C 0.19109 0.79361 0.29256 0.0
H837 H 0.28687 0.86212 0.21165 0.0
H838 H 0.2529 0.83003 0.21501 0.0
H839 H 0.21763 0.82004 0.3168 0.0
H840 H 0.14063 0.7162 0.30818 0.0
H841 H 0.17264 0.75021 0.30476 0.0
H842 H 0.18316 0.78481 0.20208 0.0
C843 C 0.25592 0.84295 0.23282 0.0
C844 C 0.21012 0.81267 0.29158 0.0
C845 C 0.27548 0.86131 0.23114 0.0
C846 C 0.1415 0.72745 0.28833 0.0
C847 C 0.15982 0.74704 0.28661 0.0
C848 C 0.19036 0.7925 0.22728 0.0
C849 C 0.24052 0.84123 0.2573 0.0
C850 C 0.21965 0.82169 0.25844 0.0
C851 C 0.16163 0.76227 0.26164 0.0
C852 C 0.18114 0.78317 0.26044 0.0
H853 H 0.26804 0.88959 0.29665 0.0
H854 H 0.23372 0.85737 0.29964 0.0
H855 H 0.21621 0.81824 0.20031 0.0
H856 H 0.11353 0.73436 0.22156 0.0
H857 H 0.1457 0.76875 0.2185 0.0
C858 C 0.40621 0.27024 0.71765 0.0
C859 C 0.40229 0.27898 0.74831 0.0
C860 C 0.40539 0.25085 0.71958 0.0
C861 C 0.38683 0.20332 0.7781 0.0
H862 H 0.42395 0.19357 0.71665 0.0
C863 C 0.4052 0.13576 0.79684 0.0
C864 C 0.40149 0.12283 0.76657 0.0
C865 C 0.40429 0.15426 0.79397 0.0
C866 C 0.4134 0.19607 0.73371 0.0
H867 H 0.39463 0.27443 0.8052 0.0
H868 H 0.39428 0.24102 0.80924 0.0
H869 H 0.42519 0.22737 0.71431 0.0
H870 H 0.39409 0.11915 0.70951 0.0
H871 H 0.39331 0.15216 0.70422 0.0
H872 H 0.37595 0.17219 0.79867 0.0
C873 C 0.39729 0.24875 0.78328 0.0
C874 C 0.41398 0.21539 0.73232 0.0
C875 C 0.39766 0.268 0.78111 0.0
C876 C 0.397 0.12883 0.73324 0.0
C877 C 0.39659 0.14766 0.7302 0.0
C878 C 0.38661 0.18416 0.78001 0.0
C879 C 0.4011 0.23986 0.75246 0.0
C880 C 0.40064 0.21929 0.75439 0.0
C881 C 0.40011 0.16043 0.76063 0.0
C882 C 0.39983 0.18038 0.75774 0.0
H883 H 0.40952 0.2782 0.69183 0.0
H884 H 0.40785 0.24439 0.69502 0.0
H885 H 0.37602 0.20546 0.79501 0.0
H886 H 0.40856 0.13146 0.82293 0.0
H887 H 0.40718 0.16394 0.81772 0.0
loop_
_geom_bond_atom_site_label_1
_geom_bond_atom_site_label_2
_geom_bond_distance
_geom_bond_site_symmetry_2
_ccdc_geom_bond_type
O0 Cd1 2.223 . S
O0 C8 1.315 . S
Cd1 O0 2.223 . S
Cd1 O4 2.297 . S
Cd1 O5 2.439 . S
Cd1 O11 2.240 . S
Cd2 O3 2.240 . S
Cd2 O10 2.223 . S
Cd2 O12 2.297 . S
Cd2 O13 2.439 . S
O3 Cd2 2.240 . S
O3 C8 1.279 . S
O4 Cd1 2.297 . S
O4 C6 1.247 . S
O5 Cd1 2.439 . S
O5 C6 1.208 . S
C6 O4 1.247 . S
C6 O5 1.208 . S
C7 O12 1.247 . S
C7 O13 1.208 . S
C8 O0 1.315 . S
C8 O3 1.279 . S
C9 O10 1.315 . S
C9 O11 1.279 . S
O10 Cd2 2.223 . S
O10 C9 1.315 . S
O11 Cd1 2.240 . S
O11 C9 1.279 . S
O12 Cd2 2.297 . S
O12 C7 1.247 . S
O13 Cd2 2.439 . S
O13 C7 1.208 . S
O14 Cd15 2.223 . S
O14 C22 1.315 . S
Cd15 O14 2.223 . S
Cd15 O18 2.297 . S
Cd15 O19 2.439 . S
Cd15 O25 2.240 . S
Cd16 O17 2.240 . S
Cd16 O24 2.223 . S
Cd16 O26 2.297 . S
Cd16 O27 2.439 . S
O17 Cd16 2.240 . S
O17 C22 1.279 . S
O18 Cd15 2.297 . S
O18 C20 1.247 . S
O19 Cd15 2.439 . S
O19 C20 1.208 . S
C20 O18 1.247 . S
C20 O19 1.208 . S
C21 O26 1.247 . S
C21 O27 1.208 . S
C22 O14 1.315 . S
C22 O17 1.279 . S
C23 O24 1.315 . S
C23 O25 1.279 . S
O24 Cd16 2.223 . S
O24 C23 1.315 . S
O25 Cd15 2.240 . S
O25 C23 1.279 . S
O26 Cd16 2.297 . S
O26 C21 1.247 . S
O27 Cd16 2.439 . S
O27 C21 1.208 . S
O28 Cd29 2.223 . S
O28 C36 1.315 . S
Cd29 O28 2.223 . S
Cd29 O32 2.297 . S
Cd29 O33 2.439 . S
Cd29 O39 2.240 . S
Cd30 O31 2.240 . S
Cd30 O38 2.223 . S
Cd30 O40 2.297 . S
Cd30 O41 2.439 . S
O31 Cd30 2.240 . S
O31 C36 1.279 . S
O32 Cd29 2.297 . S
O32 C34 1.247 . S
O33 Cd29 2.439 . S
O33 C34 1.208 . S
C34 O32 1.247 . S
C34 O33 1.208 . S
C35 O40 1.247 . S
C35 O41 1.208 . S
C36 O28 1.315 . S
C36 O31 1.279 . S
C37 O38 1.315 . S
C37 O39 1.279 . S
O38 Cd30 2.223 . S
O38 C37 1.315 . S
O39 Cd29 2.240 . S
O39 C37 1.279 . S
O40 Cd30 2.297 . S
O40 C35 1.247 . S
O41 Cd30 2.439 . S
O41 C35 1.208 . S
O42 Cd43 2.223 . S
O42 C50 1.315 . S
Cd43 O42 2.223 . S
Cd43 O46 2.297 . S
Cd43 O47 2.439 . S
Cd43 O53 2.240 . S
Cd44 O45 2.240 . S
Cd44 O52 2.223 . S
Cd44 O54 2.297 . S
Cd44 O55 2.439 . S
O45 Cd44 2.240 . S
O45 C50 1.279 . S
O46 Cd43 2.297 . S
O46 C48 1.247 . S
O47 Cd43 2.439 . S
O47 C48 1.208 . S
C48 O46 1.247 . S
C48 O47 1.208 . S
C49 O54 1.247 . S
C49 O55 1.208 . S
C50 O42 1.315 . S
C50 O45 1.279 . S
C51 O52 1.315 . S
C51 O53 1.279 . S
O52 Cd44 2.223 . S
O52 C51 1.315 . S
O53 Cd43 2.240 . S
O53 C51 1.279 . S
O54 Cd44 2.297 . S
O54 C49 1.247 . S
O55 Cd44 2.439 . S
O55 C49 1.208 . S
O56 Cd57 2.223 . S
O56 C64 1.315 . S
Cd57 O56 2.223 . S
Cd57 O60 2.297 . S
Cd57 O61 2.439 . S
Cd57 O67 2.240 . S
Cd58 O59 2.240 . S
Cd58 O66 2.223 . S
Cd58 O68 2.297 . S
Cd58 O69 2.439 . S
O59 Cd58 2.240 . S
O59 C64 1.279 . S
O60 Cd57 2.297 . S
O60 C62 1.247 . S
O61 Cd57 2.439 . S
O61 C62 1.208 . S
C62 O60 1.247 . S
C62 O61 1.208 . S
C63 O68 1.247 . S
C63 O69 1.208 . S
C64 O56 1.315 . S
C64 O59 1.279 . S
C65 O66 1.315 . S
C65 O67 1.279 . S
O66 Cd58 2.223 . S
O66 C65 1.315 . S
O67 Cd57 2.240 . S
O67 C65 1.279 . S
O68 Cd58 2.297 . S
O68 C63 1.247 . S
O69 Cd58 2.439 . S
O69 C63 1.208 . S
O70 Cd71 2.223 . S
O70 C78 1.315 . S
Cd71 O70 2.223 . S
Cd71 O74 2.297 . S
Cd71 O75 2.439 . S
Cd71 O81 2.240 . S
Cd72 O73 2.240 . S
Cd72 O80 2.223 . S
Cd72 O82 2.297 . S
Cd72 O83 2.439 . S
O73 Cd72 2.240 . S
O73 C78 1.279 . S
O74 Cd71 2.297 . S
O74 C76 1.247 . S
O75 Cd71 2.439 . S
O75 C76 1.208 . S
C76 O74 1.247 . S
C76 O75 1.208 . S
C77 O82 1.247 . S
C77 O83 1.208 . S
C78 O70 1.315 . S
C78 O73 1.279 . S
C79 O80 1.315 . S
C79 O81 1.279 . S
O80 Cd72 2.223 . S
O80 C79 1.315 . S
O81 Cd71 2.240 . S
O81 C79 1.279 . S
O82 Cd72 2.297 . S
O82 C77 1.247 . S
O83 Cd72 2.439 . S
O83 C77 1.208 . S
O84 Cd85 2.223 . S
O84 C92 1.315 . S
Cd85 O84 2.223 . S
Cd85 O88 2.297 . S
Cd85 O89 2.439 . S
Cd85 O95 2.240 . S
Cd86 O87 2.240 . S
Cd86 O94 2.223 . S
Cd86 O96 2.297 . S
Cd86 O97 2.439 . S
O87 Cd86 2.240 . S
O87 C92 1.279 . S
O88 Cd85 2.297 . S
O88 C90 1.247 . S
O89 Cd85 2.439 . S
O89 C90 1.208 . S
C90 O88 1.247 . S
C90 O89 1.208 . S
C91 O96 1.247 . S
C91 O97 1.208 . S
C92 O84 1.315 . S
C92 O87 1.279 . S
C93 O94 1.315 . S
C93 O95 1.279 . S
O94 Cd86 2.223 . S
O94 C93 1.315 . S
O95 Cd85 2.240 . S
O95 C93 1.279 . S
O96 Cd86 2.297 . S
O96 C91 1.247 . S
O97 Cd86 2.439 . S
O97 C91 1.208 . S
O98 Cd99 2.223 . S
O98 C106 1.315 . S
Cd99 O98 2.223 . S
Cd99 O102 2.297 . S
Cd99 O103 2.439 . S
Cd99 O109 2.240 . S
Cd100 O101 2.240 . S
Cd100 O108 2.223 . S
Cd100 O110 2.297 . S
Cd100 O111 2.439 . S
O101 Cd100 2.240 . S
O101 C106 1.279 . S
O102 Cd99 2.297 . S
O102 C104 1.247 . S
O103 Cd99 2.439 . S
O103 C104 1.208 . S
C104 O102 1.247 . S
C104 O103 1.208 . S
C105 O110 1.247 . S
C105 O111 1.208 . S
C106 O98 1.315 . S
C106 O101 1.279 . S
C107 O108 1.315 . S
C107 O109 1.279 . S
O108 Cd100 2.223 . S
O108 C107 1.315 . S
O109 Cd99 2.240 . S
O109 C107 1.279 . S
O110 Cd100 2.297 . S
O110 C105 1.247 . S
O111 Cd100 2.439 . S
O111 C105 1.208 . S
O112 Cd113 2.223 . S
O112 C120 1.315 . S
Cd113 O112 2.223 . S
Cd113 O116 2.297 . S
Cd113 O117 2.439 . S
Cd113 O123 2.240 . S
Cd114 O115 2.240 . S
Cd114 O122 2.223 . S
Cd114 O124 2.297 . S
Cd114 O125 2.439 . S
O115 Cd114 2.240 . S
O115 C120 1.279 . S
O116 Cd113 2.297 . S
O116 C118 1.247 . S
O117 Cd113 2.439 . S
O117 C118 1.208 . S
C118 O116 1.247 . S
C118 O117 1.208 . S
C119 O124 1.247 . S
C119 O125 1.208 . S
C120 O112 1.315 . S
C120 O115 1.279 . S
C121 O122 1.315 . S
C121 O123 1.279 . S
O122 Cd114 2.223 . S
O122 C121 1.315 . S
O123 Cd113 2.240 . S
O123 C121 1.279 . S
O124 Cd114 2.297 . S
O124 C119 1.247 . S
O125 Cd114 2.439 . S
O125 C119 1.208 . S
O126 Cd127 2.223 . S
O126 C134 1.315 . S
Cd127 O126 2.223 . S
Cd127 O130 2.297 . S
Cd127 O131 2.439 . S
Cd127 O137 2.240 . S
Cd128 O129 2.240 . S
Cd128 O136 2.223 . S
Cd128 O138 2.297 . S
Cd128 O139 2.439 . S
O129 Cd128 2.240 . S
O129 C134 1.279 . S
O130 Cd127 2.297 . S
O130 C132 1.247 . S
O131 Cd127 2.439 . S
O131 C132 1.208 . S
C132 O130 1.247 . S
C132 O131 1.208 . S
C133 O138 1.247 . S
C133 O139 1.208 . S
C134 O126 1.315 . S
C134 O129 1.279 . S
C135 O136 1.315 . S
C135 O137 1.279 . S
O136 Cd128 2.223 . S
O136 C135 1.315 . S
O137 Cd127 2.240 . S
O137 C135 1.279 . S
O138 Cd128 2.297 . S
O138 C133 1.247 . S
O139 Cd128 2.439 . S
O139 C133 1.208 . S
O140 Cd141 2.223 . S
O140 C148 1.315 . S
Cd141 O140 2.223 . S
Cd141 O144 2.297 . S
Cd141 O145 2.439 . S
Cd141 O151 2.240 . S
Cd142 O143 2.240 . S
Cd142 O150 2.223 . S
Cd142 O152 2.297 . S
Cd142 O153 2.439 . S
O143 Cd142 2.240 . S
O143 C148 1.279 . S
O144 Cd141 2.297 . S
O144 C146 1.247 . S
O145 Cd141 2.439 . S
O145 C146 1.208 . S
C146 O144 1.247 . S
C146 O145 1.208 . S
C147 O152 1.247 . S
C147 O153 1.208 . S
C148 O140 1.315 . S
C148 O143 1.279 . S
C149 O150 1.315 . S
C149 O151 1.279 . S
O150 Cd142 2.223 . S
O150 C149 1.315 . S
O151 Cd141 2.240 . S
O151 C149 1.279 . S
O152 Cd142 2.297 . S
O152 C147 1.247 . S
O153 Cd142 2.439 . S
O153 C147 1.208 . S
O154 Cd155 2.223 . S
O154 C162 1.315 . S
Cd155 O154 2.223 . S
Cd155 O158 2.297 . S
Cd155 O159 2.439 . S
Cd155 O165 2.240 . S
Cd156 O157 2.240 . S
Cd156 O164 2.223 . S
Cd156 O166 2.297 . S
Cd156 O167 2.439 . S
O157 Cd156 2.240 . S
O157 C162 1.279 . S
O158 Cd155 2.297 . S
O158 C160 1.247 . S
O159 Cd155 2.439 . S
O159 C160 1.208 . S
C160 O158 1.247 . S
C160 O159 1.208 . S
C161 O166 1.247 . S
C161 O167 1.208 . S
C162 O154 1.315 . S
C162 O157 1.279 . S
C163 O164 1.315 . S
C163 O165 1.279 . S
O164 Cd156 2.223 . S
O164 C163 1.315 . S
O165 Cd155 2.240 . S
O165 C163 1.279 . S
O166 Cd156 2.297 . S
O166 C161 1.247 . S
O167 Cd156 2.439 . S
O167 C161 1.208 . S
C168 C169 1.349 . S
C168 C170 1.327 . S
C168 H193 0.950 . S
C169 C168 1.349 . S
C169 C185 1.349 . S
C170 C168 1.327 . S
C170 C189 1.429 . S
C170 H194 0.950 . S
C171 C188 1.574 1_554 S
C171 C190 1.368 1_655 S
C171 H195 0.949 . S
H172 C176 0.949 . S
C173 C174 1.349 . S
C173 C175 1.327 . S
C173 H196 0.950 . S
C174 C173 1.349 . S
C174 C186 1.349 . S
C175 C173 1.327 . S
C175 C191 1.429 . S
C175 H197 0.950 . S
C176 H172 0.949 . S
C176 C184 1.574 1_556 S
C176 C192 1.368 1_455 S
H177 C185 0.952 . S
H178 C183 0.950 1_655 S
H179 C184 0.949 . S
H180 C186 0.952 . S
H181 C187 0.950 1_455 S
H182 C188 0.949 . S
C183 H178 0.950 1_455 S
C183 C185 1.327 . S
C183 C189 1.429 . S
C184 C176 1.574 1_554 S
C184 H179 0.949 . S
C184 C190 1.368 . S
C185 C169 1.349 . S
C185 H177 0.952 . S
C185 C183 1.327 . S
C186 C174 1.349 . S
C186 H180 0.952 . S
C186 C187 1.327 . S
C187 H181 0.950 1_655 S
C187 C186 1.327 . S
C187 C191 1.429 . S
C188 C171 1.574 1_556 S
C188 H182 0.949 . S
C188 C192 1.368 . S
C189 C170 1.429 . S
C189 C183 1.429 . S
C189 C190 1.523 . S
C190 C171 1.368 1_455 S
C190 C184 1.368 . S
C190 C189 1.523 . S
C191 C175 1.429 . S
C191 C187 1.429 . S
C191 C192 1.523 . S
C192 C176 1.368 1_655 S
C192 C188 1.368 . S
C192 C191 1.523 . S
H193 C168 0.950 . S
H194 C170 0.950 . S
H195 C171 0.949 . S
H196 C173 0.950 . S
H197 C175 0.950 . S
C198 C199 1.349 . S
C198 C200 1.327 . S
C198 H223 0.950 . S
C199 C198 1.349 . S
C199 C215 1.349 . S
C200 C198 1.327 . S
C200 C219 1.429 . S
C200 H224 0.950 . S
C201 C218 1.574 . S
C201 C220 1.368 1_545 S
C201 H225 0.949 . S
H202 C206 0.949 . S
C203 C204 1.349 . S
C203 C205 1.327 . S
C203 H226 0.950 . S
C204 C203 1.349 . S
C204 C216 1.349 . S
C205 C203 1.327 . S
C205 C221 1.429 . S
C205 H227 0.950 . S
C206 H202 0.949 . S
C206 C214 1.574 . S
C206 C222 1.368 1_565 S
H207 C215 0.950 . S
H208 C213 0.950 1_545 S
H209 C214 0.949 . S
H210 C216 0.950 . S
H211 C217 0.950 1_565 S
H212 C218 0.949 . S
C213 H208 0.950 1_565 S
C213 C215 1.327 . S
C213 C219 1.429 . S
C214 C206 1.574 . S
C214 H209 0.949 . S
C214 C220 1.368 . S
C215 C199 1.349 . S
C215 H207 0.950 . S
C215 C213 1.327 . S
C216 C204 1.349 . S
C216 H210 0.950 . S
C216 C217 1.327 . S
C217 H211 0.950 1_545 S
C217 C216 1.327 . S
C217 C221 1.429 . S
C218 C201 1.574 . S
C218 H212 0.949 . S
C218 C222 1.368 . S
C219 C200 1.429 . S
C219 C213 1.429 . S
C219 C220 1.523 . S
C220 C201 1.368 1_565 S
C220 C214 1.368 . S
C220 C219 1.523 . S
C221 C205 1.429 . S
C221 C217 1.429 . S
C221 C222 1.523 . S
C222 C206 1.368 1_545 S
C222 C218 1.368 . S
C222 C221 1.523 . S
H223 C198 0.950 . S
H224 C200 0.950 . S
H225 C201 0.949 . S
H226 C203 0.950 . S
H227 C205 0.950 . S
C228 C229 1.349 . S
C228 C230 1.327 . S
C228 H253 0.950 . S
C229 C228 1.349 . S
C229 C245 1.349 . S
C230 C228 1.327 . S
C230 C249 1.429 . S
C230 H254 0.950 . S
C231 C248 1.574 1_554 S
C231 C250 1.368 . S
C231 H255 0.949 . S
H232 C236 0.949 . S
C233 C234 1.349 . S
C233 C235 1.327 . S
C233 H256 0.950 . S
C234 C233 1.349 . S
C234 C246 1.349 . S
C235 C233 1.327 . S
C235 C251 1.429 . S
C235 H257 0.950 . S
C236 H232 0.949 . S
C236 C244 1.574 1_556 S
C236 C252 1.368 . S
H237 C245 0.950 . S
H238 C243 0.950 . S
H239 C244 0.949 . S
H240 C246 0.950 . S
H241 C247 0.950 . S
H242 C248 0.949 . S
C243 H238 0.950 . S
C243 C245 1.327 . S
C243 C249 1.429 . S
C244 C236 1.574 1_554 S
C244 H239 0.949 . S
C244 C250 1.368 . S
C245 C229 1.349 . S
C245 H237 0.950 . S
C245 C243 1.327 . S
C246 C234 1.349 . S
C246 H240 0.950 . S
C246 C247 1.327 . S
C247 H241 0.950 . S
C247 C246 1.327 . S
C247 C251 1.429 . S
C248 C231 1.574 1_556 S
C248 H242 0.949 . S
C248 C252 1.368 . S
C249 C230 1.429 . S
C249 C243 1.429 . S
C249 C250 1.523 . S
C250 C231 1.368 . S
C250 C244 1.368 . S
C250 C249 1.523 . S
C251 C235 1.429 . S
C251 C247 1.429 . S
C251 C252 1.523 . S
C252 C236 1.368 . S
C252 C248 1.368 . S
C252 C251 1.523 . S
H253 C228 0.950 . S
H254 C230 0.950 . S
H255 C231 0.949 . S
H256 C233 0.950 . S
H257 C235 0.950 . S
C258 C259 1.349 . S
C258 C260 1.327 . S
C258 H283 0.950 . S
C259 C258 1.349 . S
C259 C275 1.349 . S
C260 C258 1.327 . S
C260 C279 1.429 . S
C260 H284 0.950 . S
C261 C278 1.574 1_455 S
C261 C280 1.368 . S
C261 H285 0.949 . S
H262 C266 0.949 . S
C263 C264 1.349 . S
C263 C265 1.327 . S
C263 H286 0.950 . S
C264 C263 1.349 . S
C264 C276 1.349 . S
C265 C263 1.327 . S
C265 C281 1.429 . S
C265 H287 0.950 . S
C266 H262 0.949 . S
C266 C274 1.574 1_655 S
C266 C282 1.368 . S
H267 C275 0.950 . S
H268 C273 0.950 . S
H269 C274 0.949 . S
H270 C276 0.950 . S
H271 C277 0.950 . S
H272 C278 0.949 . S
C273 H268 0.950 . S
C273 C275 1.327 . S
C273 C279 1.429 . S
C274 C266 1.574 1_455 S
C274 H269 0.949 . S
C274 C280 1.368 . S
C275 C259 1.349 . S
C275 H267 0.950 . S
C275 C273 1.327 . S
C276 C264 1.349 . S
C276 H270 0.950 . S
C276 C277 1.327 . S
C277 H271 0.950 . S
C277 C276 1.327 . S
C277 C281 1.429 . S
C278 C261 1.574 1_655 S
C278 H272 0.949 . S
C278 C282 1.368 . S
C279 C260 1.429 . S
C279 C273 1.429 . S
C279 C280 1.523 . S
C280 C261 1.368 . S
C280 C274 1.368 . S
C280 C279 1.523 . S
C281 C265 1.429 . S
C281 C277 1.429 . S
C281 C282 1.523 . S
C282 C266 1.368 . S
C282 C278 1.368 . S
C282 C281 1.523 . S
H283 C258 0.950 . S
H284 C260 0.950 . S
H285 C261 0.949 . S
H286 C263 0.950 . S
H287 C265 0.950 . S
C288 C289 1.349 . S
C288 C290 1.327 . S
C288 H313 0.950 . S
C289 C288 1.349 . S
C289 C305 1.349 . S
C290 C288 1.327 . S
C290 C309 1.429 . S
C290 H314 0.950 1_545 S
C291 C308 1.574 1_556 S
C291 C310 1.368 . S
C291 H315 0.949 . S
H292 C296 0.949 . S
C293 C294 1.349 . S
C293 C295 1.327 . S
C293 H316 0.950 . S
C294 C293 1.349 . S
C294 C306 1.349 . S
C295 C293 1.327 . S
C295 C311 1.429 . S
C295 H317 0.950 1_565 S
C296 H292 0.949 . S
C296 C304 1.574 1_554 S
C296 C312 1.368 . S
H297 C305 0.950 . S
H298 C303 0.950 . S
H299 C304 0.949 . S
H300 C306 0.950 . S
H301 C307 0.950 . S
H302 C308 0.949 . S
C303 H298 0.950 . S
C303 C305 1.327 . S
C303 C309 1.429 . S
C304 C296 1.574 1_556 S
C304 H299 0.949 . S
C304 C310 1.368 1_565 S
C305 C289 1.349 . S
C305 H297 0.950 . S
C305 C303 1.327 . S
C306 C294 1.349 . S
C306 H300 0.950 . S
C306 C307 1.327 . S
C307 H301 0.950 . S
C307 C306 1.327 . S
C307 C311 1.429 . S
C308 C291 1.574 1_554 S
C308 H302 0.949 . S
C308 C312 1.368 1_545 S
C309 C290 1.429 . S
C309 C303 1.429 . S
C309 C310 1.523 . S
C310 C291 1.368 . S
C310 C304 1.368 1_545 S
C310 C309 1.523 . S
C311 C295 1.429 . S
C311 C307 1.429 . S
C311 C312 1.523 . S
C312 C296 1.368 . S
C312 C308 1.368 1_565 S
C312 C311 1.523 . S
H313 C288 0.950 . S
H314 C290 0.950 1_565 S
H315 C291 0.949 . S
H316 C293 0.950 . S
H317 C295 0.950 1_545 S
C318 C319 1.349 . S
C318 C320 1.327 . S
C318 H343 0.950 . S
C319 C318 1.349 . S
C319 C335 1.349 . S
C320 C318 1.327 . S
C320 C339 1.429 . S
C320 H344 0.950 . S
C321 C338 1.574 . S
C321 C340 1.368 . S
C321 H345 0.949 . S
H322 C326 0.949 . S
C323 C324 1.349 . S
C323 C325 1.327 . S
C323 H346 0.950 . S
C324 C323 1.349 . S
C324 C336 1.349 . S
C325 C323 1.327 . S
C325 C341 1.429 . S
C325 H347 0.950 . S
C326 H322 0.949 . S
C326 C334 1.574 . S
C326 C342 1.368 . S
H327 C335 0.950 . S
H328 C333 0.950 . S
H329 C334 0.949 . S
H330 C336 0.950 . S
H331 C337 0.950 . S
H332 C338 0.949 . S
C333 H328 0.950 . S
C333 C335 1.327 . S
C333 C339 1.429 . S
C334 C326 1.574 . S
C334 H329 0.949 . S
C334 C340 1.368 . S
C335 C319 1.349 . S
C335 H327 0.950 . S
C335 C333 1.327 . S
C336 C324 1.349 . S
C336 H330 0.950 . S
C336 C337 1.327 . S
C337 H331 0.950 . S
C337 C336 1.327 . S
C337 C341 1.429 . S
C338 C321 1.574 . S
C338 H332 0.949 . S
C338 C342 1.368 . S
C339 C320 1.429 . S
C339 C333 1.429 . S
C339 C340 1.523 . S
C340 C321 1.368 . S
C340 C334 1.368 . S
C340 C339 1.523 . S
C341 C325 1.429 . S
C341 C337 1.429 . S
C341 C342 1.523 . S
C342 C326 1.368 . S
C342 C338 1.368 . S
C342 C341 1.523 . S
H343 C318 0.950 . S
H344 C320 0.950 . S
H345 C321 0.949 . S
H346 C323 0.950 . S
H347 C325 0.950 . S
C348 C349 1.349 . S
C348 C350 1.327 . S
C348 H373 0.950 . S
C349 C348 1.349 . S
C349 C365 1.349 . S
C350 C348 1.327 . S
C350 C369 1.429 . S
C350 H374 0.950 . S
C351 C368 1.574 1_656 S
C351 C370 1.368 . S
C351 H375 0.949 . S
H352 C356 0.949 . S
C353 C354 1.349 . S
C353 C355 1.327 . S
C353 H376 0.950 . S
C354 C353 1.349 . S
C354 C366 1.349 . S
C355 C353 1.327 . S
C355 C371 1.429 . S
C355 H377 0.950 . S
C356 H352 0.949 . S
C356 C364 1.574 1_454 S
C356 C372 1.368 . S
H357 C365 0.950 . S
H358 C363 0.950 . S
H359 C364 0.949 . S
H360 C366 0.950 . S
H361 C367 0.950 . S
H362 C368 0.949 . S
C363 H358 0.950 . S
C363 C365 1.327 . S
C363 C369 1.429 . S
C364 C356 1.574 1_656 S
C364 H359 0.949 . S
C364 C370 1.368 . S
C365 C349 1.349 . S
C365 H357 0.950 . S
C365 C363 1.327 . S
C366 C354 1.349 . S
C366 H360 0.950 . S
C366 C367 1.327 . S
C367 H361 0.950 . S
C367 C366 1.327 . S
C367 C371 1.429 . S
C368 C351 1.574 1_454 S
C368 H362 0.949 . S
C368 C372 1.368 . S
C369 C350 1.429 . S
C369 C363 1.429 . S
C369 C370 1.523 . S
C370 C351 1.368 . S
C370 C364 1.368 . S
C370 C369 1.523 . S
C371 C355 1.429 . S
C371 C367 1.429 . S
C371 C372 1.523 . S
C372 C356 1.368 . S
C372 C368 1.368 . S
C372 C371 1.523 . S
H373 C348 0.950 . S
H374 C350 0.950 . S
H375 C351 0.949 . S
H376 C353 0.950 . S
H377 C355 0.950 . S
C378 C379 1.349 . S
C378 C380 1.327 . S
C378 H403 0.967 . S
C379 C378 1.349 . S
C379 C395 1.349 . S
C380 C378 1.327 . S
C380 C399 1.429 . S
C380 H404 0.950 1_565 S
C381 C398 1.574 . S
C381 C400 1.368 . S
C381 H405 0.949 . S
H382 C386 0.949 . S
C383 C384 1.349 . S
C383 C385 1.327 . S
C383 H406 0.967 . S
C384 C383 1.349 . S
C384 C396 1.349 . S
C385 C383 1.327 . S
C385 C401 1.429 . S
C385 H407 0.950 1_545 S
C386 H382 0.949 . S
C386 C394 1.574 . S
C386 C402 1.368 . S
H387 C395 0.950 . S
H388 C393 0.950 . S
H389 C394 0.949 . S
H390 C396 0.950 . S
H391 C397 0.950 . S
H392 C398 0.949 . S
C393 H388 0.950 . S
C393 C395 1.327 . S
C393 C399 1.429 . S
C394 C386 1.574 . S
C394 H389 0.949 . S
C394 C400 1.368 1_545 S
C395 C379 1.349 . S
C395 H387 0.950 . S
C395 C393 1.327 . S
C396 C384 1.349 . S
C396 H390 0.950 . S
C396 C397 1.327 . S
C397 H391 0.950 . S
C397 C396 1.327 . S
C397 C401 1.429 . S
C398 C381 1.574 . S
C398 H392 0.949 . S
C398 C402 1.368 1_565 S
C399 C380 1.429 . S
C399 C393 1.429 . S
C399 C400 1.523 . S
C400 C381 1.368 . S
C400 C394 1.368 1_565 S
C400 C399 1.523 . S
C401 C385 1.429 . S
C401 C397 1.429 . S
C401 C402 1.523 . S
C402 C386 1.368 . S
C402 C398 1.368 1_545 S
C402 C401 1.523 . S
H403 C378 0.967 . S
H404 C380 0.950 1_545 S
H405 C381 0.949 . S
H406 C383 0.967 . S
H407 C385 0.950 1_565 S
C408 C409 1.349 . S
C408 C410 1.327 . S
C408 H433 0.950 . S
C409 C408 1.349 . S
C409 C425 1.349 . S
C410 C408 1.327 . S
C410 C429 1.429 . S
C410 H434 0.950 . S
C411 C428 1.574 1_556 S
C411 C430 1.368 . S
C411 H435 0.949 . S
H412 C416 0.949 . S
C413 C414 1.349 . S
C413 C415 1.327 . S
C413 H436 0.950 . S
C414 C413 1.349 . S
C414 C426 1.349 . S
C415 C413 1.327 . S
C415 C431 1.429 . S
C415 H437 0.950 . S
C416 H412 0.949 . S
C416 C424 1.574 1_554 S
C416 C432 1.368 . S
H417 C425 0.950 . S
H418 C423 0.950 . S
H419 C424 0.949 . S
H420 C426 0.950 . S
H421 C427 0.950 . S
H422 C428 0.949 . S
C423 H418 0.950 . S
C423 C425 1.327 . S
C423 C429 1.429 . S
C424 C416 1.574 1_556 S
C424 H419 0.949 . S
C424 C430 1.368 . S
C425 C409 1.349 . S
C425 H417 0.950 . S
C425 C423 1.327 . S
C426 C414 1.349 . S
C426 H420 0.950 . S
C426 C427 1.327 . S
C427 H421 0.950 . S
C427 C426 1.327 . S
C427 C431 1.429 . S
C428 C411 1.574 1_554 S
C428 H422 0.949 . S
C428 C432 1.368 . S
C429 C410 1.429 . S
C429 C423 1.429 . S
C429 C430 1.523 . S
C430 C411 1.368 . S
C430 C424 1.368 . S
C430 C429 1.523 . S
C431 C415 1.429 . S
C431 C427 1.429 . S
C431 C432 1.523 . S
C432 C416 1.368 . S
C432 C428 1.368 . S
C432 C431 1.523 . S
H433 C408 0.950 . S
H434 C410 0.950 . S
H435 C411 0.949 . S
H436 C413 0.950 . S
H437 C415 0.950 . S
C438 C439 1.349 . S
C438 C440 1.327 1_655 S
C438 H463 0.950 1_655 S
C439 C438 1.349 . S
C439 C455 1.349 . S
C440 C438 1.327 1_455 S
C440 C459 1.429 1_455 S
C440 H464 0.950 . S
C441 C458 1.574 . S
C441 C460 1.368 . S
C441 H465 0.949 . S
H442 C446 0.949 . S
C443 C444 1.349 . S
C443 C445 1.327 1_455 S
C443 H466 0.950 1_455 S
C444 C443 1.349 . S
C444 C456 1.349 . S
C445 C443 1.327 1_655 S
C445 C461 1.429 1_655 S
C445 H467 0.950 . S
C446 H442 0.949 . S
C446 C454 1.574 . S
C446 C462 1.368 . S
H447 C455 0.950 . S
H448 C453 0.950 . S
H449 C454 0.949 . S
H450 C456 0.950 . S
H451 C457 0.950 . S
H452 C458 0.949 . S
C453 H448 0.950 . S
C453 C455 1.327 . S
C453 C459 1.429 . S
C454 C446 1.574 . S
C454 H449 0.949 . S
C454 C460 1.368 1_455 S
C455 C439 1.349 . S
C455 H447 0.950 . S
C455 C453 1.327 . S
C456 C444 1.349 . S
C456 H450 0.950 . S
C456 C457 1.327 . S
C457 H451 0.950 . S
C457 C456 1.327 . S
C457 C461 1.429 . S
C458 C441 1.574 . S
C458 H452 0.949 . S
C458 C462 1.368 1_655 S
C459 C440 1.429 1_655 S
C459 C453 1.429 . S
C459 C460 1.523 . S
C460 C441 1.368 . S
C460 C454 1.368 1_655 S
C460 C459 1.523 . S
C461 C445 1.429 1_455 S
C461 C457 1.429 . S
C461 C462 1.523 . S
C462 C446 1.368 . S
C462 C458 1.368 1_455 S
C462 C461 1.523 . S
H463 C438 0.950 1_455 S
H464 C440 0.950 . S
H465 C441 0.949 . S
H466 C443 0.950 1_655 S
H467 C445 0.950 . S
C468 C469 1.349 . S
C468 C470 1.324 1_545 S
C468 H493 0.950 1_545 S
C469 C468 1.349 . S
C469 C485 1.349 . S
C470 C468 1.324 1_565 S
C470 C489 1.419 1_565 S
C470 H494 0.962 . S
C471 C488 1.574 1_556 S
C471 C490 1.368 . S
C471 H495 0.949 . S
H472 C476 0.949 . S
C473 C474 1.349 . S
C473 C475 1.324 1_565 S
C473 H496 0.950 1_565 S
C474 C473 1.349 . S
C474 C486 1.349 . S
C475 C473 1.324 1_545 S
C475 C491 1.420 1_545 S
C475 H497 0.961 . S
C476 H472 0.949 . S
C476 C484 1.574 1_554 S
C476 C492 1.368 . S
H477 C485 0.950 . S
H478 C483 0.950 . S
H479 C484 0.949 . S
H480 C486 0.950 . S
H481 C487 0.950 . S
H482 C488 0.949 . S
C483 H478 0.950 . S
C483 C485 1.327 . S
C483 C489 1.429 . S
C484 C476 1.574 1_556 S
C484 H479 0.949 . S
C484 C490 1.368 1_565 S
C485 C469 1.349 . S
C485 H477 0.950 . S
C485 C483 1.327 . S
C486 C474 1.349 . S
C486 H480 0.950 . S
C486 C487 1.327 . S
C487 H481 0.950 . S
C487 C486 1.327 . S
C487 C491 1.429 . S
C488 C471 1.574 1_554 S
C488 H482 0.949 . S
C488 C492 1.368 1_545 S
C489 C470 1.419 1_545 S
C489 C483 1.429 . S
C489 C490 1.523 . S
C490 C471 1.368 . S
C490 C484 1.368 1_545 S
C490 C489 1.523 . S
C491 C475 1.420 1_565 S
C491 C487 1.429 . S
C491 C492 1.523 . S
C492 C476 1.368 . S
C492 C488 1.368 1_565 S
C492 C491 1.523 . S
H493 C468 0.950 1_565 S
H494 C470 0.962 . S
H495 C471 0.949 . S
H496 C473 0.950 1_545 S
H497 C475 0.961 . S
C498 C499 1.349 . S
C498 C500 1.327 . S
C498 H523 0.950 . S
C499 C498 1.349 . S
C499 C515 1.349 . S
C500 C498 1.327 . S
C500 C519 1.429 . S
C500 H524 0.950 . S
C501 C518 1.574 . S
C501 C520 1.368 . S
C501 H525 0.949 . S
H502 C506 0.949 . S
C503 C504 1.349 . S
C503 C505 1.327 . S
C503 H526 0.950 . S
C504 C503 1.349 . S
C504 C516 1.349 . S
C505 C503 1.327 . S
C505 C521 1.429 . S
C505 H527 0.950 . S
C506 H502 0.949 . S
C506 C514 1.574 . S
C506 C522 1.368 . S
H507 C515 0.950 . S
H508 C513 0.950 . S
H509 C514 0.949 . S
H510 C516 0.950 . S
H511 C517 0.950 . S
H512 C518 0.949 . S
C513 H508 0.950 . S
C513 C515 1.327 . S
C513 C519 1.429 . S
C514 C506 1.574 . S
C514 H509 0.949 . S
C514 C520 1.368 . S
C515 C499 1.349 . S
C515 H507 0.950 . S
C515 C513 1.327 . S
C516 C504 1.349 . S
C516 H510 0.950 . S
C516 C517 1.327 . S
C517 H511 0.950 . S
C517 C516 1.327 . S
C517 C521 1.429 . S
C518 C501 1.574 . S
C518 H512 0.949 . S
C518 C522 1.368 . S
C519 C500 1.429 . S
C519 C513 1.429 . S
C519 C520 1.523 . S
C520 C501 1.368 . S
C520 C514 1.368 . S
C520 C519 1.523 . S
C521 C505 1.429 . S
C521 C517 1.429 . S
C521 C522 1.523 . S
C522 C506 1.368 . S
C522 C518 1.368 . S
C522 C521 1.523 . S
H523 C498 0.950 . S
H524 C500 0.950 . S
H525 C501 0.949 . S
H526 C503 0.950 . S
H527 C505 0.950 . S
C528 C529 1.349 . S
C528 C530 1.327 . S
C528 H553 0.950 . S
C529 C528 1.349 . S
C529 C545 1.349 . S
C530 C528 1.327 . S
C530 C549 1.429 . S
C530 H554 0.950 . S
C531 C548 1.574 . S
C531 C550 1.368 . S
C531 H555 0.949 . S
H532 C536 0.949 . S
C533 C534 1.349 . S
C533 C535 1.327 . S
C533 H556 0.950 . S
C534 C533 1.349 . S
C534 C546 1.349 . S
C535 C533 1.327 . S
C535 C551 1.429 . S
C535 H557 0.950 . S
C536 H532 0.949 . S
C536 C544 1.574 . S
C536 C552 1.368 . S
H537 C545 0.950 . S
H538 C543 0.950 . S
H539 C544 0.949 . S
H540 C546 0.950 . S
H541 C547 0.950 . S
H542 C548 0.949 . S
C543 H538 0.950 . S
C543 C545 1.327 . S
C543 C549 1.429 . S
C544 C536 1.574 . S
C544 H539 0.949 . S
C544 C550 1.368 . S
C545 C529 1.349 . S
C545 H537 0.950 . S
C545 C543 1.327 . S
C546 C534 1.349 . S
C546 H540 0.950 . S
C546 C547 1.327 . S
C547 H541 0.950 . S
C547 C546 1.327 . S
C547 C551 1.429 . S
C548 C531 1.574 . S
C548 H542 0.949 . S
C548 C552 1.368 . S
C549 C530 1.429 . S
C549 C543 1.429 . S
C549 C550 1.523 . S
C550 C531 1.368 . S
C550 C544 1.368 . S
C550 C549 1.523 . S
C551 C535 1.429 . S
C551 C547 1.429 . S
C551 C552 1.523 . S
C552 C536 1.368 . S
C552 C548 1.368 . S
C552 C551 1.523 . S
H553 C528 0.950 . S
H554 C530 0.950 . S
H555 C531 0.949 . S
H556 C533 0.950 . S
H557 C535 0.950 . S
C558 C559 1.349 . S
C558 C560 1.327 . S
C558 H583 0.950 . S
C559 C558 1.349 . S
C559 C575 1.349 . S
C560 C558 1.327 . S
C560 C579 1.429 . S
C560 H584 0.950 . S
C561 C578 1.574 . S
C561 C580 1.368 . S
C561 H585 0.949 . S
H562 C566 0.949 . S
C563 C564 1.349 . S
C563 C565 1.327 . S
C563 H586 0.950 . S
C564 C563 1.349 . S
C564 C576 1.349 . S
C565 C563 1.327 . S
C565 C581 1.429 . S
C565 H587 0.950 . S
C566 H562 0.949 . S
C566 C574 1.574 . S
C566 C582 1.368 . S
H567 C575 0.950 . S
H568 C573 0.950 . S
H569 C574 0.949 . S
H570 C576 0.950 . S
H571 C577 0.950 . S
H572 C578 0.949 . S
C573 H568 0.950 . S
C573 C575 1.327 . S
C573 C579 1.429 . S
C574 C566 1.574 . S
C574 H569 0.949 . S
C574 C580 1.368 . S
C575 C559 1.349 . S
C575 H567 0.950 . S
C575 C573 1.327 . S
C576 C564 1.349 . S
C576 H570 0.950 . S
C576 C577 1.327 . S
C577 H571 0.950 . S
C577 C576 1.327 . S
C577 C581 1.429 . S
C578 C561 1.574 . S
C578 H572 0.949 . S
C578 C582 1.368 . S
C579 C560 1.429 . S
C579 C573 1.429 . S
C579 C580 1.523 . S
C580 C561 1.368 . S
C580 C574 1.368 . S
C580 C579 1.523 . S
C581 C565 1.429 . S
C581 C577 1.429 . S
C581 C582 1.523 . S
C582 C566 1.368 . S
C582 C578 1.368 . S
C582 C581 1.523 . S
H583 C558 0.950 . S
H584 C560 0.950 . S
H585 C561 0.949 . S
H586 C563 0.950 . S
H587 C565 0.950 . S
C588 C589 1.349 . S
C588 C590 1.327 . S
C588 H613 0.950 . S
C589 C588 1.349 . S
C589 C605 1.349 . S
C590 C588 1.327 . S
C590 C609 1.429 . S
C590 H614 0.950 . S
C591 C608 1.574 . S
C591 C610 1.368 . S
C591 H615 0.949 . S
H592 C596 0.949 . S
C593 C594 1.349 . S
C593 C595 1.327 . S
C593 H616 0.950 . S
C594 C593 1.349 . S
C594 C606 1.349 . S
C595 C593 1.327 . S
C595 C611 1.429 . S
C595 H617 0.950 . S
C596 H592 0.949 . S
C596 C604 1.574 . S
C596 C612 1.368 . S
H597 C605 0.950 . S
H598 C603 0.950 . S
H599 C604 0.949 . S
H600 C606 0.950 . S
H601 C607 0.950 . S
H602 C608 0.949 . S
C603 H598 0.950 . S
C603 C605 1.327 . S
C603 C609 1.429 . S
C604 C596 1.574 . S
C604 H599 0.949 . S
C604 C610 1.368 . S
C605 C589 1.349 . S
C605 H597 0.950 . S
C605 C603 1.327 . S
C606 C594 1.349 . S
C606 H600 0.950 . S
C606 C607 1.327 . S
C607 H601 0.950 . S
C607 C606 1.327 . S
C607 C611 1.429 . S
C608 C591 1.574 . S
C608 H602 0.949 . S
C608 C612 1.368 . S
C609 C590 1.429 . S
C609 C603 1.429 . S
C609 C610 1.523 . S
C610 C591 1.368 . S
C610 C604 1.368 . S
C610 C609 1.523 . S
C611 C595 1.429 . S
C611 C607 1.429 . S
C611 C612 1.523 . S
C612 C596 1.368 . S
C612 C608 1.368 . S
C612 C611 1.523 . S
H613 C588 0.950 . S
H614 C590 0.950 . S
H615 C591 0.949 . S
H616 C593 0.950 . S
H617 C595 0.950 . S
C618 C619 1.349 . S
C618 C620 1.327 . S
C618 H643 0.950 . S
C619 C618 1.349 . S
C619 C635 1.349 . S
C620 C618 1.327 . S
C620 C639 1.429 . S
C620 H644 0.950 . S
C621 C638 1.574 . S
C621 C640 1.368 . S
C621 H645 0.949 . S
H622 C626 0.949 . S
C623 C624 1.349 . S
C623 C625 1.327 . S
C623 H646 0.950 . S
C624 C623 1.349 . S
C624 C636 1.349 . S
C625 C623 1.327 . S
C625 C641 1.429 . S
C625 H647 0.950 . S
C626 H622 0.949 . S
C626 C634 1.574 . S
C626 C642 1.368 . S
H627 C635 0.950 . S
H628 C633 0.950 . S
H629 C634 0.949 . S
H630 C636 0.950 . S
H631 C637 0.950 . S
H632 C638 0.949 . S
C633 H628 0.950 . S
C633 C635 1.327 . S
C633 C639 1.429 . S
C634 C626 1.574 . S
C634 H629 0.949 . S
C634 C640 1.368 . S
C635 C619 1.349 . S
C635 H627 0.950 . S
C635 C633 1.327 . S
C636 C624 1.349 . S
C636 H630 0.950 . S
C636 C637 1.327 . S
C637 H631 0.950 . S
C637 C636 1.327 . S
C637 C641 1.429 . S
C638 C621 1.574 . S
C638 H632 0.949 . S
C638 C642 1.368 . S
C639 C620 1.429 . S
C639 C633 1.429 . S
C639 C640 1.523 . S
C640 C621 1.368 . S
C640 C634 1.368 . S
C640 C639 1.523 . S
C641 C625 1.429 . S
C641 C637 1.429 . S
C641 C642 1.523 . S
C642 C626 1.368 . S
C642 C638 1.368 . S
C642 C641 1.523 . S
H643 C618 0.950 . S
H644 C620 0.950 . S
H645 C621 0.949 . S
H646 C623 0.950 . S
H647 C625 0.950 . S
C648 C649 1.349 . S
C648 C650 1.327 . S
C648 H673 0.950 . S
C649 C648 1.349 . S
C649 C665 1.349 . S
C650 C648 1.327 . S
C650 C669 1.429 . S
C650 H674 0.950 . S
C651 C668 1.574 . S
C651 C670 1.368 . S
C651 H675 0.949 . S
H652 C656 0.949 . S
C653 C654 1.349 . S
C653 C655 1.327 . S
C653 H676 0.950 . S
C654 C653 1.349 . S
C654 C666 1.349 . S
C655 C653 1.327 . S
C655 C671 1.429 . S
C655 H677 0.950 . S
C656 H652 0.949 . S
C656 C664 1.574 . S
C656 C672 1.368 . S
H657 C665 0.950 . S
H658 C663 0.950 . S
H659 C664 0.949 . S
H660 C666 0.950 . S
H661 C667 0.950 . S
H662 C668 0.949 . S
C663 H658 0.950 . S
C663 C665 1.327 . S
C663 C669 1.429 . S
C664 C656 1.574 . S
C664 H659 0.949 . S
C664 C670 1.368 . S
C665 C649 1.349 . S
C665 H657 0.950 . S
C665 C663 1.327 . S
C666 C654 1.349 . S
C666 H660 0.950 . S
C666 C667 1.327 . S
C667 H661 0.950 . S
C667 C666 1.327 . S
C667 C671 1.429 . S
C668 C651 1.574 . S
C668 H662 0.949 . S
C668 C672 1.368 . S
C669 C650 1.429 . S
C669 C663 1.429 . S
C669 C670 1.523 . S
C670 C651 1.368 . S
C670 C664 1.368 . S
C670 C669 1.523 . S
C671 C655 1.429 . S
C671 C667 1.429 . S
C671 C672 1.523 . S
C672 C656 1.368 . S
C672 C668 1.368 . S
C672 C671 1.523 . S
H673 C648 0.950 . S
H674 C650 0.950 . S
H675 C651 0.949 . S
H676 C653 0.950 . S
H677 C655 0.950 . S
C678 C679 1.349 . S
C678 C680 1.327 . S
C678 H703 0.950 . S
C679 C678 1.349 . S
C679 C695 1.349 . S
C680 C678 1.327 . S
C680 C699 1.429 . S
C680 H704 0.950 . S
C681 C698 1.574 . S
C681 C700 1.368 . S
C681 H705 0.949 . S
H682 C686 0.949 . S
C683 C684 1.349 . S
C683 C685 1.327 . S
C683 H706 0.950 . S
C684 C683 1.349 . S
C684 C696 1.349 . S
C685 C683 1.327 . S
C685 C701 1.429 . S
C685 H707 0.950 . S
C686 H682 0.949 . S
C686 C694 1.574 . S
C686 C702 1.368 . S
H687 C695 0.950 . S
H688 C693 0.950 . S
H689 C694 0.949 . S
H690 C696 0.950 . S
H691 C697 0.950 . S
H692 C698 0.949 . S
C693 H688 0.950 . S
C693 C695 1.327 . S
C693 C699 1.429 . S
C694 C686 1.574 . S
C694 H689 0.949 . S
C694 C700 1.368 . S
C695 C679 1.349 . S
C695 H687 0.950 . S
C695 C693 1.327 . S
C696 C684 1.349 . S
C696 H690 0.950 . S
C696 C697 1.327 . S
C697 H691 0.950 . S
C697 C696 1.327 . S
C697 C701 1.429 . S
C698 C681 1.574 . S
C698 H692 0.949 . S
C698 C702 1.368 . S
C699 C680 1.429 . S
C699 C693 1.429 . S
C699 C700 1.523 . S
C700 C681 1.368 . S
C700 C694 1.368 . S
C700 C699 1.523 . S
C701 C685 1.429 . S
C701 C697 1.429 . S
C701 C702 1.523 . S
C702 C686 1.368 . S
C702 C698 1.368 . S
C702 C701 1.523 . S
H703 C678 0.950 . S
H704 C680 0.950 . S
H705 C681 0.949 . S
H706 C683 0.950 . S
H707 C685 0.950 . S
C708 C709 1.349 . S
C708 C710 1.327 . S
C708 H733 0.950 . S
C709 C708 1.349 . S
C709 C725 1.349 . S
C710 C708 1.327 . S
C710 C729 1.429 . S
C710 H734 0.950 . S
C711 C728 1.574 . S
C711 C730 1.368 . S
C711 H735 0.949 . S
H712 C716 0.949 . S
C713 C714 1.349 . S
C713 C715 1.327 . S
C713 H736 0.950 . S
C714 C713 1.349 . S
C714 C726 1.349 . S
C715 C713 1.327 . S
C715 C731 1.429 . S
C715 H737 0.950 . S
C716 H712 0.949 . S
C716 C724 1.574 . S
C716 C732 1.368 . S
H717 C725 0.950 . S
H718 C723 0.950 . S
H719 C724 0.949 . S
H720 C726 0.950 . S
H721 C727 0.950 . S
H722 C728 0.949 . S
C723 H718 0.950 . S
C723 C725 1.327 . S
C723 C729 1.429 . S
C724 C716 1.574 . S
C724 H719 0.949 . S
C724 C730 1.368 . S
C725 C709 1.349 . S
C725 H717 0.950 . S
C725 C723 1.327 . S
C726 C714 1.349 . S
C726 H720 0.950 . S
C726 C727 1.327 . S
C727 H721 0.950 . S
C727 C726 1.327 . S
C727 C731 1.429 . S
C728 C711 1.574 . S
C728 H722 0.949 . S
C728 C732 1.368 . S
C729 C710 1.429 . S
C729 C723 1.429 . S
C729 C730 1.523 . S
C730 C711 1.368 . S
C730 C724 1.368 . S
C730 C729 1.523 . S
C731 C715 1.429 . S
C731 C727 1.429 . S
C731 C732 1.523 . S
C732 C716 1.368 . S
C732 C728 1.368 . S
C732 C731 1.523 . S
H733 C708 0.950 . S
H734 C710 0.950 . S
H735 C711 0.949 . S
H736 C713 0.950 . S
H737 C715 0.950 . S
C738 C739 1.349 . S
C738 C740 1.327 . S
C738 H763 0.950 . S
C739 C738 1.349 . S
C739 C755 1.349 . S
C740 C738 1.327 . S
C740 C759 1.429 . S
C740 H764 0.950 . S
C741 C758 1.574 . S
C741 C760 1.368 . S
C741 H765 0.949 . S
H742 C746 0.949 . S
C743 C744 1.349 . S
C743 C745 1.327 . S
C743 H766 0.950 . S
C744 C743 1.349 . S
C744 C756 1.349 . S
C745 C743 1.327 . S
C745 C761 1.429 . S
C745 H767 0.950 . S
C746 H742 0.949 . S
C746 C754 1.574 . S
C746 C762 1.368 . S
H747 C755 0.950 . S
H748 C753 0.950 . S
H749 C754 0.949 . S
H750 C756 0.950 . S
H751 C757 0.950 . S
H752 C758 0.949 . S
C753 H748 0.950 . S
C753 C755 1.327 . S
C753 C759 1.429 . S
C754 C746 1.574 . S
C754 H749 0.949 . S
C754 C760 1.368 . S
C755 C739 1.349 . S
C755 H747 0.950 . S
C755 C753 1.327 . S
C756 C744 1.349 . S
C756 H750 0.950 . S
C756 C757 1.327 . S
C757 H751 0.950 . S
C757 C756 1.327 . S
C757 C761 1.429 . S
C758 C741 1.574 . S
C758 H752 0.949 . S
C758 C762 1.368 . S
C759 C740 1.429 . S
C759 C753 1.429 . S
C759 C760 1.523 . S
C760 C741 1.368 . S
C760 C754 1.368 . S
C760 C759 1.523 . S
C761 C745 1.429 . S
C761 C757 1.429 . S
C761 C762 1.523 . S
C762 C746 1.368 . S
C762 C758 1.368 . S
C762 C761 1.523 . S
H763 C738 0.950 . S
H764 C740 0.950 . S
H765 C741 0.949 . S
H766 C743 0.950 . S
H767 C745 0.950 . S
C768 C769 1.349 . S
C768 C770 1.327 . S
C768 H793 0.950 . S
C769 C768 1.349 . S
C769 C785 1.349 . S
C770 C768 1.327 . S
C770 C789 1.429 . S
C770 H794 0.950 . S
C771 C788 1.574 . S
C771 C790 1.368 . S
C771 H795 0.949 . S
H772 C776 0.949 . S
C773 C774 1.349 . S
C773 C775 1.327 . S
C773 H796 0.950 . S
C774 C773 1.349 . S
C774 C786 1.349 . S
C775 C773 1.327 . S
C775 C791 1.429 . S
C775 H797 0.950 . S
C776 H772 0.949 . S
C776 C784 1.574 . S
C776 C792 1.368 . S
H777 C785 0.950 . S
H778 C783 0.950 . S
H779 C784 0.949 . S
H780 C786 0.950 . S
H781 C787 0.950 . S
H782 C788 0.949 . S
C783 H778 0.950 . S
C783 C785 1.327 . S
C783 C789 1.429 . S
C784 C776 1.574 . S
C784 H779 0.949 . S
C784 C790 1.368 . S
C785 C769 1.349 . S
C785 H777 0.950 . S
C785 C783 1.327 . S
C786 C774 1.349 . S
C786 H780 0.950 . S
C786 C787 1.327 . S
C787 H781 0.950 . S
C787 C786 1.327 . S
C787 C791 1.429 . S
C788 C771 1.574 . S
C788 H782 0.949 . S
C788 C792 1.368 . S
C789 C770 1.429 . S
C789 C783 1.429 . S
C789 C790 1.523 . S
C790 C771 1.368 . S
C790 C784 1.368 . S
C790 C789 1.523 . S
C791 C775 1.429 . S
C791 C787 1.429 . S
C791 C792 1.523 . S
C792 C776 1.368 . S
C792 C788 1.368 . S
C792 C791 1.523 . S
H793 C768 0.950 . S
H794 C770 0.950 . S
H795 C771 0.949 . S
H796 C773 0.950 . S
H797 C775 0.950 . S
C798 C799 1.349 . S
C798 C800 1.327 . S
C798 H823 0.950 . S
C799 C798 1.349 . S
C799 C815 1.349 . S
C800 C798 1.327 . S
C800 C819 1.429 . S
C800 H824 0.950 . S
C801 C818 1.574 . S
C801 C820 1.368 . S
C801 H825 0.949 . S
H802 C806 0.949 . S
C803 C804 1.349 . S
C803 C805 1.327 . S
C803 H826 0.950 . S
C804 C803 1.349 . S
C804 C816 1.349 . S
C805 C803 1.327 . S
C805 C821 1.429 . S
C805 H827 0.950 . S
C806 H802 0.949 . S
C806 C814 1.574 . S
C806 C822 1.368 . S
H807 C815 0.950 . S
H808 C813 0.950 . S
H809 C814 0.949 . S
H810 C816 0.950 . S
H811 C817 0.950 . S
H812 C818 0.949 . S
C813 H808 0.950 . S
C813 C815 1.327 . S
C813 C819 1.429 . S
C814 C806 1.574 . S
C814 H809 0.949 . S
C814 C820 1.368 . S
C815 C799 1.349 . S
C815 H807 0.950 . S
C815 C813 1.327 . S
C816 C804 1.349 . S
C816 H810 0.950 . S
C816 C817 1.327 . S
C817 H811 0.950 . S
C817 C816 1.327 . S
C817 C821 1.429 . S
C818 C801 1.574 . S
C818 H812 0.949 . S
C818 C822 1.368 . S
C819 C800 1.429 . S
C819 C813 1.429 . S
C819 C820 1.523 . S
C820 C801 1.368 . S
C820 C814 1.368 . S
C820 C819 1.523 . S
C821 C805 1.429 . S
C821 C817 1.429 . S
C821 C822 1.523 . S
C822 C806 1.368 . S
C822 C818 1.368 . S
C822 C821 1.523 . S
H823 C798 0.950 . S
H824 C800 0.950 . S
H825 C801 0.949 . S
H826 C803 0.950 . S
H827 C805 0.950 . S
C828 C829 1.349 . S
C828 C830 1.327 . S
C828 H853 0.950 . S
C829 C828 1.349 . S
C829 C845 1.349 . S
C830 C828 1.327 . S
C830 C849 1.429 . S
C830 H854 0.950 . S
C831 C848 1.574 . S
C831 C850 1.368 . S
C831 H855 0.949 . S
H832 C836 0.949 . S
C833 C834 1.349 . S
C833 C835 1.327 . S
C833 H856 0.950 . S
C834 C833 1.349 . S
C834 C846 1.349 . S
C835 C833 1.327 . S
C835 C851 1.429 . S
C835 H857 0.950 . S
C836 H832 0.949 . S
C836 C844 1.574 . S
C836 C852 1.368 . S
H837 C845 0.950 . S
H838 C843 0.950 . S
H839 C844 0.949 . S
H840 C846 0.950 . S
H841 C847 0.950 . S
H842 C848 0.949 . S
C843 H838 0.950 . S
C843 C845 1.327 . S
C843 C849 1.429 . S
C844 C836 1.574 . S
C844 H839 0.949 . S
C844 C850 1.368 . S
C845 C829 1.349 . S
C845 H837 0.950 . S
C845 C843 1.327 . S
C846 C834 1.349 . S
C846 H840 0.950 . S
C846 C847 1.327 . S
C847 H841 0.950 . S
C847 C846 1.327 . S
C847 C851 1.429 . S
C848 C831 1.574 . S
C848 H842 0.949 . S
C848 C852 1.368 . S
C849 C830 1.429 . S
C849 C843 1.429 . S
C849 C850 1.523 . S
C850 C831 1.368 . S
C850 C844 1.368 . S
C850 C849 1.523 . S
C851 C835 1.429 . S
C851 C847 1.429 . S
C851 C852 1.523 . S
C852 C836 1.368 . S
C852 C848 1.368 . S
C852 C851 1.523 . S
H853 C828 0.950 . S
H854 C830 0.950 . S
H855 C831 0.949 . S
H856 C833 0.950 . S
H857 C835 0.950 . S
C858 C859 1.349 . S
C858 C860 1.327 . S
C858 H883 0.950 . S
C859 C858 1.349 . S
C859 C875 1.349 . S
C860 C858 1.327 . S
C860 C879 1.429 . S
C860 H884 0.950 . S
C861 C878 1.574 . S
C861 C880 1.368 . S
C861 H885 0.949 . S
H862 C866 0.949 . S
C863 C864 1.349 . S
C863 C865 1.327 . S
C863 H886 0.950 . S
C864 C863 1.349 . S
C864 C876 1.349 . S
C865 C863 1.327 . S
C865 C881 1.429 . S
C865 H887 0.950 . S
C866 H862 0.949 . S
C866 C874 1.574 . S
C866 C882 1.368 . S
H867 C875 0.950 . S
H868 C873 0.950 . S
H869 C874 0.949 . S
H870 C876 0.950 . S
H871 C877 0.950 . S
H872 C878 0.949 . S
C873 H868 0.950 . S
C873 C875 1.327 . S
C873 C879 1.429 . S
C874 C866 1.574 . S
C874 H869 0.949 . S
C874 C880 1.368 . S
C875 C859 1.349 . S
C875 H867 0.950 . S
C875 C873 1.327 . S
C876 C864 1.349 . S
C876 H870 0.950 . S
C876 C877 1.327 . S
C877 H871 0.950 . S
C877 C876 1.327 . S
C877 C881 1.429 . S
C878 C861 1.574 . S
C878 H872 0.949 . S
C878 C882 1.368 . S
C879 C860 1.429 . S
C879 C873 1.429 . S
C879 C880 1.523 . S
C880 C861 1.368 . S
C880 C874 1.368 . S
C880 C879 1.523 . S
C881 C865 1.429 . S
C881 C877 1.429 . S
C881 C882 1.523 . S
C882 C866 1.368 . S
C882 C878 1.368 . S
C882 C881 1.523 . S
H883 C858 0.950 . S
H884 C860 0.950 . S
H885 C861 0.949 . S
H886 C863 0.950 . S
H887 C865 0.950 . S
C169 C8 1.910 . S
C174 C162 1.910 . S
C199 C92 1.910 . S
C204 C22 1.909 . S
C229 C36 1.910 . S
C234 C106 1.910 . S
C259 C120 1.909 . S
C264 C50 1.909 . S
C289 C134 1.909 . S
C294 C64 1.909 . S
C319 C148 1.910 . S
C324 C78 1.910 . S
C349 C49 0.852 . S
C354 C119 0.852 . S
C379 C63 0.852 . S
C384 C133 0.852 . S
C409 C77 0.852 . S
C414 C147 0.852 . S
C439 C161 0.852 . S
C444 C7 0.852 . S
C469 C21 0.852 . S
C474 C91 0.852 . S
C499 C35 0.852 . S
C504 C105 0.852 . S
C529 C121 1.825 . S
C534 C9 1.825 . S
C559 C135 1.825 . S
C564 C23 1.825 . S
C589 C37 1.825 . S
C594 C149 1.825 . S
C619 C51 1.825 . S
C624 C163 1.825 . S
C649 C65 1.825 . S
C654 C93 1.825 . S
C679 C107 1.825 . S
C684 C79 1.825 . S
C709 C6 1.738 . S
C714 C146 1.738 . S
C739 C160 1.739 . S
C744 C20 1.739 . S
C769 C34 1.738 . S
C774 C90 1.738 . S
C799 C48 1.738 . S
C804 C104 1.738 . S
C829 C62 1.738 . S
C834 C118 1.738 . S
C859 C76 1.738 . S
C864 C132 1.738 . S
