# Generated by pormake.
# Topology whh, (6)-cn, num edge types: 1
# Building blocks:
#     Node 0, Type 0, BuildingBlock: VOLQOD_clean_sbu_1, # of connection points: 6
#     Node 1, Type 0, BuildingBlock: VOLQOD_clean_sbu_1, # of connection points: 6
#     Node 2, Type 0, BuildingBlock: VOLQOD_clean_sbu_1, # of connection points: 6
#     Node 3, Type 0, BuildingBlock: VOLQOD_clean_sbu_1, # of connection points: 6
#     Node 4, Type 0, BuildingBlock: VOLQOD_clean_sbu_1, # of connection points: 6
#     Node 5, Type 0, BuildingBlock: VOLQOD_clean_sbu_1, # of connection points: 6
#     Node 6, Type 0, BuildingBlock: VOLQOD_clean_sbu_1, # of connection points: 6
#     Node 7, Type 0, BuildingBlock: VOLQOD_clean_sbu_1, # of connection points: 6
#     Node 8, Type 0, BuildingBlock: VOLQOD_clean_sbu_1, # of connection points: 6
#     Node 9, Type 0, BuildingBlock: VOLQOD_clean_sbu_1, # of connection points: 6
#     Node 10, Type 0, BuildingBlock: VOLQOD_clean_sbu_1, # of connection points: 6
#     Node 11, Type 0, BuildingBlock: VOLQOD_clean_sbu_1, # of connection points: 6
#     Node 12, Type 0, BuildingBlock: VOLQOD_clean_sbu_1, # of connection points: 6
#     Node 13, Type 0, BuildingBlock: VOLQOD_clean_sbu_1, # of connection points: 6
#     Node 14, Type 0, BuildingBlock: VOLQOD_clean_sbu_1, # of connection points: 6
#     Node 15, Type 0, BuildingBlock: VOLQOD_clean_sbu_1, # of connection points: 6
#     Edge 16, Type (0, 0), BuildingBlock: XIVTED_clean_linker_0, # of connection points: 2
#     Edge 17, Type (0, 0), BuildingBlock: XIVTED_clean_linker_0, # of connection points: 2
#     Edge 18, Type (0, 0), BuildingBlock: XIVTED_clean_linker_0, # of connection points: 2
#     Edge 19, Type (0, 0), BuildingBlock: XIVTED_clean_linker_0, # of connection points: 2
#     Edge 20, Type (0, 0), BuildingBlock: XIVTED_clean_linker_0, # of connection points: 2
#     Edge 21, Type (0, 0), BuildingBlock: XIVTED_clean_linker_0, # of connection points: 2
#     Edge 22, Type (0, 0), BuildingBlock: XIVTED_clean_linker_0, # of connection points: 2
#     Edge 23, Type (0, 0), BuildingBlock: XIVTED_clean_linker_0, # of connection points: 2
#     Edge 24, Type (0, 0), BuildingBlock: XIVTED_clean_linker_0, # of connection points: 2
#     Edge 25, Type (0, 0), BuildingBlock: XIVTED_clean_linker_0, # of connection points: 2
#     Edge 26, Type (0, 0), BuildingBlock: XIVTED_clean_linker_0, # of connection points: 2
#     Edge 27, Type (0, 0), BuildingBlock: XIVTED_clean_linker_0, # of connection points: 2
#     Edge 28, Type (0, 0), BuildingBlock: XIVTED_clean_linker_0, # of connection points: 2
#     Edge 29, Type (0, 0), BuildingBlock: XIVTED_clean_linker_0, # of connection points: 2
#     Edge 30, Type (0, 0), BuildingBlock: XIVTED_clean_linker_0, # of connection points: 2
#     Edge 31, Type (0, 0), BuildingBlock: XIVTED_clean_linker_0, # of connection points: 2
#     Edge 32, Type (0, 0), BuildingBlock: XIVTED_clean_linker_0, # of connection points: 2
#     Edge 33, Type (0, 0), BuildingBlock: XIVTED_clean_linker_0, # of connection points: 2
#     Edge 34, Type (0, 0), BuildingBlock: XIVTED_clean_linker_0, # of connection points: 2
#     Edge 35, Type (0, 0), BuildingBlock: XIVTED_clean_linker_0, # of connection points: 2
#     Edge 36, Type (0, 0), BuildingBlock: XIVTED_clean_linker_0, # of connection points: 2
#     Edge 37, Type (0, 0), BuildingBlock: XIVTED_clean_linker_0, # of connection points: 2
#     Edge 38, Type (0, 0), BuildingBlock: XIVTED_clean_linker_0, # of connection points: 2
#     Edge 39, Type (0, 0), BuildingBlock: XIVTED_clean_linker_0, # of connection points: 2
#     Edge 40, Type (0, 0), BuildingBlock: XIVTED_clean_linker_0, # of connection points: 2
#     Edge 41, Type (0, 0), BuildingBlock: XIVTED_clean_linker_0, # of connection points: 2
#     Edge 42, Type (0, 0), BuildingBlock: XIVTED_clean_linker_0, # of connection points: 2
#     Edge 43, Type (0, 0), BuildingBlock: XIVTED_clean_linker_0, # of connection points: 2
#     Edge 44, Type (0, 0), BuildingBlock: XIVTED_clean_linker_0, # of connection points: 2
#     Edge 45, Type (0, 0), BuildingBlock: XIVTED_clean_linker_0, # of connection points: 2
#     Edge 46, Type (0, 0), BuildingBlock: XIVTED_clean_linker_0, # of connection points: 2
#     Edge 47, Type (0, 0), BuildingBlock: XIVTED_clean_linker_0, # of connection points: 2
#     Edge 48, Type (0, 0), BuildingBlock: XIVTED_clean_linker_0, # of connection points: 2
#     Edge 49, Type (0, 0), BuildingBlock: XIVTED_clean_linker_0, # of connection points: 2
#     Edge 50, Type (0, 0), BuildingBlock: XIVTED_clean_linker_0, # of connection points: 2
#     Edge 51, Type (0, 0), BuildingBlock: XIVTED_clean_linker_0, # of connection points: 2
#     Edge 52, Type (0, 0), BuildingBlock: XIVTED_clean_linker_0, # of connection points: 2
#     Edge 53, Type (0, 0), BuildingBlock: XIVTED_clean_linker_0, # of connection points: 2
#     Edge 54, Type (0, 0), BuildingBlock: XIVTED_clean_linker_0, # of connection points: 2
#     Edge 55, Type (0, 0), BuildingBlock: XIVTED_clean_linker_0, # of connection points: 2
#     Edge 56, Type (0, 0), BuildingBlock: XIVTED_clean_linker_0, # of connection points: 2
#     Edge 57, Type (0, 0), BuildingBlock: XIVTED_clean_linker_0, # of connection points: 2
#     Edge 58, Type (0, 0), BuildingBlock: XIVTED_clean_linker_0, # of connection points: 2
#     Edge 59, Type (0, 0), BuildingBlock: XIVTED_clean_linker_0, # of connection points: 2
#     Edge 60, Type (0, 0), BuildingBlock: XIVTED_clean_linker_0, # of connection points: 2
#     Edge 61, Type (0, 0), BuildingBlock: XIVTED_clean_linker_0, # of connection points: 2
#     Edge 62, Type (0, 0), BuildingBlock: XIVTED_clean_linker_0, # of connection points: 2
#     Edge 63, Type (0, 0), BuildingBlock: XIVTED_clean_linker_0, # of connection points: 2
# Relax obj value: 0.571
# Max RMSD: 0.276
# Mean RMSD: 0.276
data_MOF--net-whh--node1-VOLQOD_clean_sbu_1--edge1-XIVTED_clean_linker_0
_symmetry_space_group_name_H-M    P1
_symmetry_Int_Tables_number       1
_symmetry_cell_setting            triclinic
loop_
_symmetry_equiv_pos_as_xyz
'x, y, z'
_cell_length_a     34.42908
_cell_length_b     34.4462
_cell_length_c     51.892577
_cell_angle_alpha  90.074058
_cell_angle_beta   90.049332
_cell_angle_gamma 89.971405
loop_
_atom_site_label
_atom_site_type_symbol
_atom_site_fract_x
_atom_site_fract_y
_atom_site_fract_z
_atom_type_partial_charge
O0 O 0.07852 0.55313 0.10618 0.0
Zn1 Zn 0.07922 0.58769 0.13918 0.0
O2 O 0.03068 0.61727 0.13603 0.0
Zn3 Zn 0.99044 0.59357 0.15598 0.0
Zn4 Zn 0.01719 0.61621 0.09976 0.0
Zn5 Zn 0.03597 0.67046 0.14483 0.0
O6 O 0.96414 0.63267 0.1797 0.0
O7 O 0.0052 0.68244 0.17649 0.0
O8 O 0.07696 0.55264 0.172 0.0
O9 O 0.01336 0.55443 0.17948 0.0
O10 O 0.95552 0.56306 0.13263 0.0
O11 O 0.97812 0.57464 0.09315 0.0
O12 O -0.00437 0.66611 0.0863 0.0
O13 O 0.12466 0.62779 0.14134 0.0
O14 O 0.01548 0.70559 0.11736 0.0
O15 O 0.0917 0.6825 0.14875 0.0
C16 C 0.07271 0.56646 0.08348 0.0
C17 C 0.97604 0.66607 0.18697 0.0
C18 C 0.9556 0.55668 0.10842 0.0
C19 C 0.04701 0.54148 0.18463 0.0
C20 C -0.0006 0.69997 0.09562 0.0
C21 C 0.12368 0.66447 0.14591 0.0
O22 O 0.0653 0.60229 0.08098 0.0
O23 O 0.93073 0.06417 0.10632 0.0
Zn24 Zn 0.89544 0.07291 0.13806 0.0
O25 O 0.85481 0.03451 0.13472 0.0
Zn26 Zn 0.86906 0.98785 0.15293 0.0
Zn27 Zn 0.84866 0.02556 0.09794 0.0
Zn28 Zn 0.80743 0.05447 0.14833 0.0
O29 O 0.82803 0.97229 0.17886 0.0
O30 O 0.78624 0.02128 0.17662 0.0
O31 O 0.92678 0.06108 0.1711 0.0
O32 O 0.91744 -0.00281 0.1739 0.0
O33 O 0.87686 0.94451 0.12761 0.0
O34 O 0.86464 0.97114 0.08927 0.0
O35 O 0.79428 0.03385 0.08553 0.0
O36 O 0.86811 0.12683 0.13973 0.0
O37 O 0.76687 0.05732 0.12091 0.0
O38 O 0.81459 0.10831 0.16052 0.0
C39 C 0.91944 0.06153 0.0829 0.0
C40 C 0.79708 0.98916 0.18632 0.0
C41 C 0.87437 0.94232 0.10315 0.0
C42 C 0.9346 0.02809 0.18123 0.0
C43 C 0.76517 0.04819 0.09718 0.0
C44 C 0.83683 0.13481 0.15208 0.0
O45 O 0.88344 0.06011 0.07776 0.0
O46 O 0.41083 0.94282 0.11343 0.0
Zn47 Zn 0.40901 0.90803 0.14604 0.0
O48 O 0.45561 0.87592 0.14199 0.0
Zn49 Zn 0.49819 0.89882 0.16031 0.0
Zn50 Zn 0.46621 0.8741 0.10517 0.0
Zn51 Zn 0.44753 0.82411 0.1526 0.0
O52 O 0.52534 0.85915 0.18335 0.0
O53 O 0.48186 0.81122 0.18232 0.0
O54 O 0.41434 0.94238 0.17903 0.0
O55 O 0.47837 0.93915 0.18444 0.0
O56 O 0.53178 0.92743 0.13507 0.0
O57 O 0.50808 0.91175 0.09642 0.0
O58 O 0.48065 0.8216 0.09149 0.0
O59 O 0.36167 0.87042 0.14832 0.0
O60 O 0.46085 0.78649 0.12473 0.0
O61 O 0.39185 0.81588 0.15997 0.0
C62 C 0.41469 0.92905 0.09067 0.0
C63 C 0.51282 0.82635 0.19127 0.0
C64 C 0.53131 0.93091 0.11059 0.0
C65 C 0.44543 0.95284 0.19072 0.0
C66 C 0.47429 0.78897 0.10199 0.0
C67 C 0.36077 0.83477 0.15558 0.0
O68 O 0.41814 0.89262 0.08809 0.0
O69 O 0.55369 0.41752 0.10821 0.0
Zn70 Zn 0.58761 0.41 0.14079 0.0
O71 O 0.62491 0.4519 0.13913 0.0
Zn72 Zn 0.60666 0.49587 0.15815 0.0
Zn73 Zn 0.63241 0.46448 0.103 0.0
Zn74 Zn 0.67268 0.43444 0.15316 0.0
O75 O 0.64845 0.5181 0.18158 0.0
O76 O 0.69298 0.47146 0.17961 0.0
O77 O 0.55364 0.41691 0.17356 0.0
O78 O 0.56265 0.48007 0.18078 0.0
O79 O 0.58721 0.5352 0.13327 0.0
O80 O 0.61024 0.51734 0.09491 0.0
O81 O 0.6878 0.4606 0.0918 0.0
O82 O 0.62031 0.35917 0.14181 0.0
O83 O 0.71315 0.43076 0.12571 0.0
O84 O 0.66689 0.38151 0.16762 0.0
C85 C 0.56635 0.42263 0.08528 0.0
C86 C 0.68104 0.50382 0.18843 0.0
C87 C 0.59119 0.54069 0.10915 0.0
C88 C 0.54574 0.44818 0.1859 0.0
C89 C 0.716 0.44346 0.10279 0.0
C90 C 0.64996 0.35345 0.15632 0.0
O91 O 0.60244 0.42723 0.08144 0.0
O92 O 0.06854 0.93482 0.4228 0.0
Zn93 Zn 0.07515 0.89856 0.39133 0.0
O94 O 0.03422 0.86078 0.39575 0.0
Zn95 Zn 0.98778 0.87881 0.37895 0.0
Zn96 Zn 0.02743 0.85573 0.43275 0.0
Zn97 Zn 0.05024 0.81223 0.38211 0.0
O98 O 0.96561 0.83726 0.3552 0.0
O99 O 0.01343 0.79377 0.355 0.0
O100 O 0.06491 0.92904 0.3577 0.0
O101 O 0.00052 0.92346 0.35556 0.0
O102 O 0.94947 0.89602 0.40591 0.0
O103 O 0.97634 0.87846 0.44331 0.0
O104 O 0.03089 0.80108 0.44529 0.0
O105 O 0.1268 0.8674 0.38971 0.0
O106 O 0.05142 0.77184 0.40972 0.0
O107 O 0.10411 0.81553 0.3688 0.0
C108 C 0.06748 0.9229 0.44611 0.0
C109 C 0.98056 0.80567 0.34699 0.0
C110 C 0.94889 0.89371 0.43043 0.0
C111 C 0.03225 0.93806 0.3475 0.0
C112 C 0.04276 0.77097 0.43354 0.0
C113 C 0.13234 0.83565 0.37726 0.0
O114 O 0.06821 0.8867 0.45047 0.0
O115 O 0.55027 0.08005 0.43183 0.0
Zn116 Zn 0.58467 0.0826 0.39894 0.0
O117 O 0.61616 0.03526 0.40213 0.0
Zn118 Zn 0.59304 -0.00597 0.38268 0.0
Zn119 Zn 0.61787 0.02217 0.43863 0.0
Zn120 Zn 0.6682 0.04279 0.39167 0.0
O121 O 0.63173 0.96912 0.35808 0.0
O122 O 0.67997 0.01214 0.36005 0.0
O123 O 0.5497 0.07884 0.36609 0.0
O124 O 0.55183 0.01499 0.35983 0.0
O125 O 0.56592 0.95786 0.40678 0.0
O126 O 0.58016 0.97946 0.44619 0.0
O127 O 0.67055 0.00639 0.45171 0.0
O128 O 0.62285 0.12981 0.397 0.0
O129 O 0.70577 0.02568 0.4184 0.0
O130 O 0.67786 0.09861 0.38751 0.0
C131 C 0.56372 0.07467 0.45455 0.0
C132 C 0.66422 0.98226 0.35005 0.0
C133 C 0.56198 0.95657 0.4312 0.0
C134 C 0.53843 0.04825 0.35416 0.0
C135 C 0.70322 0.01165 0.44094 0.0
C136 C 0.65923 0.12992 0.39146 0.0
O137 O 0.59991 0.06919 0.45726 0.0
O138 O 0.41693 0.55305 0.42459 0.0
Zn139 Zn 0.41041 0.58796 0.39258 0.0
O140 O 0.45222 0.62529 0.39612 0.0
Zn141 Zn 0.49755 0.60651 0.37853 0.0
Zn142 Zn 0.4616 0.63108 0.43295 0.0
Zn143 Zn 0.43652 0.67402 0.38265 0.0
O144 O 0.52042 0.64792 0.35502 0.0
O145 O 0.47342 0.69229 0.35556 0.0
O146 O 0.41924 0.55477 0.35976 0.0
O147 O 0.48317 0.5621 0.35554 0.0
O148 O 0.53558 0.58703 0.40474 0.0
O149 O 0.51248 0.6068 0.44273 0.0
O150 O 0.46007 0.6861 0.44514 0.0
O151 O 0.35922 0.6198 0.39058 0.0
O152 O 0.43614 0.71455 0.41026 0.0
O153 O 0.38243 0.6713 0.36957 0.0
C154 C 0.41993 0.56539 0.44774 0.0
C155 C 0.50599 0.67999 0.34728 0.0
C156 C 0.53793 0.58949 0.4292 0.0
C157 C 0.45144 0.54602 0.34888 0.0
C158 C 0.44686 0.71589 0.43371 0.0
C159 C 0.35403 0.65144 0.378 0.0
O160 O 0.42097 0.60167 0.45188 0.0
O161 O 0.94095 0.4136 0.4242 0.0
Zn162 Zn 0.90691 0.41108 0.39123 0.0
O163 O 0.87443 0.45739 0.39469 0.0
Zn164 Zn 0.89777 0.49991 0.37669 0.0
Zn165 Zn 0.87106 0.46819 0.43147 0.0
Zn166 Zn 0.82324 0.44876 0.38284 0.0
O167 O 0.85884 0.52712 0.35313 0.0
O168 O 0.81098 0.48355 0.35336 0.0
O169 O 0.942 0.4162 0.35862 0.0
O170 O 0.93893 0.48019 0.35323 0.0
O171 O 0.92513 0.53369 0.40238 0.0
O172 O 0.90726 0.51124 0.4409 0.0
O173 O 0.8175 0.48089 0.44407 0.0
O174 O 0.86943 0.36365 0.3888 0.0
O175 O 0.78418 0.46078 0.41002 0.0
O176 O 0.8159 0.39325 0.37462 0.0
C177 C 0.92682 0.41744 0.44686 0.0
C178 C 0.82622 0.51462 0.3448 0.0
C179 C 0.9271 0.5341 0.42693 0.0
C180 C 0.95281 0.44726 0.3471 0.0
C181 C 0.78543 0.47392 0.4329 0.0
C182 C 0.83445 0.36241 0.38017 0.0
O183 O 0.89034 0.42096 0.44921 0.0
O184 O 0.91525 0.44032 0.92474 0.0
Zn185 Zn 0.90815 0.40615 0.89218 0.0
O186 O 0.95173 0.37044 0.89453 0.0
Zn187 Zn -0.00461 0.39127 0.87629 0.0
Zn188 Zn 0.96323 0.36468 0.93113 0.0
Zn189 Zn 0.93802 0.32108 0.88125 0.0
O190 O 0.01976 0.35094 0.85248 0.0
O191 O 0.97375 0.30552 0.85278 0.0
O192 O 0.91426 0.44047 0.85928 0.0
O193 O 0.978 0.43427 0.85335 0.0
O194 O 0.03214 0.41443 0.90195 0.0
O195 O 0.01172 0.39357 0.9403 0.0
O196 O 0.96746 0.30949 0.94278 0.0
O197 O 0.85828 0.37173 0.89122 0.0
O198 O 0.94292 0.28022 0.90835 0.0
O199 O 0.88275 0.32044 0.87047 0.0
C200 C 0.9195 0.42695 0.94756 0.0
C201 C 0.00578 0.31886 0.84433 0.0
C202 C 0.03503 0.41304 0.92642 0.0
C203 C 0.94564 0.44977 0.84753 0.0
C204 C 0.9557 0.27908 0.93133 0.0
C205 C 0.85389 0.33925 0.87937 0.0
O206 O 0.92087 0.39046 0.95072 0.0
O207 O 0.05098 0.9129 0.92373 0.0
Zn208 Zn 0.08518 0.90809 0.89113 0.0
O209 O 0.11999 0.95249 0.89379 0.0
Zn210 Zn 0.0992 -0.00452 0.87485 0.0
Zn211 Zn 0.12374 0.96476 0.93031 0.0
Zn212 Zn 0.1705 0.93995 0.88191 0.0
O213 O 0.14 0.02028 0.85178 0.0
O214 O 0.18651 0.97542 0.85347 0.0
O215 O 0.05069 0.91368 0.85843 0.0
O216 O 0.05724 0.97708 0.8514 0.0
O217 O 0.07437 0.03229 0.89962 0.0
O218 O 0.0915 0.01165 0.93872 0.0
O219 O 0.17811 0.97262 0.94281 0.0
O220 O 0.11983 0.85875 0.88934 0.0
O221 O 0.20992 0.94688 0.90983 0.0
O222 O 0.17301 0.88456 0.87165 0.0
C223 C 0.06461 0.91685 0.94651 0.0
C224 C 0.17282 0.00697 0.84449 0.0
C225 C 0.07311 0.03492 0.92411 0.0
C226 C 0.04171 0.94458 0.84608 0.0
C227 C 0.20949 0.96119 0.93243 0.0
C228 C 0.15324 0.8552 0.87864 0.0
O229 O 0.10098 0.92041 0.94946 0.0
O230 O 0.57807 0.04676 0.93191 0.0
Zn231 Zn 0.58457 0.08015 0.89895 0.0
O232 O 0.54082 0.11586 0.9012 0.0
Zn233 Zn 0.49735 0.09475 0.88272 0.0
Zn234 Zn 0.52861 0.12176 0.93771 0.0
Zn235 Zn 0.55417 0.16539 0.88804 0.0
O236 O 0.47385 0.13435 0.85819 0.0
O237 O 0.51998 0.17965 0.8585 0.0
O238 O 0.57833 0.04543 0.86618 0.0
O239 O 0.51462 0.05132 0.86012 0.0
O240 O 0.45971 0.07244 0.90798 0.0
O241 O 0.48023 0.09227 0.94659 0.0
O242 O 0.52277 0.17711 0.94912 0.0
O243 O 0.63477 0.11399 0.89717 0.0
O244 O 0.54678 0.2065 0.91465 0.0
O245 O 0.60991 0.16711 0.87877 0.0
C246 C 0.57371 0.0606 0.95462 0.0
C247 C 0.48827 0.16598 0.84972 0.0
C248 C 0.45666 0.07346 0.93244 0.0
C249 C 0.54702 0.03592 0.85437 0.0
C250 C 0.53358 0.20768 0.9375 0.0
C251 C 0.63888 0.14714 0.88621 0.0
O252 O 0.57147 0.09711 0.95751 0.0
O253 O 0.43862 0.57155 0.92431 0.0
Zn254 Zn 0.4036 0.57801 0.89217 0.0
O255 O 0.3672 0.53499 0.89511 0.0
Zn256 Zn 0.38618 0.49122 0.87604 0.0
Zn257 Zn 0.36374 0.52299 0.93164 0.0
Zn258 Zn 0.31702 0.54938 0.88354 0.0
O259 O 0.34418 0.46809 0.85315 0.0
O260 O 0.29971 0.51501 0.85475 0.0
O261 O 0.43634 0.57137 0.85886 0.0
O262 O 0.42797 0.50811 0.85201 0.0
O263 O 0.41018 0.45349 0.90061 0.0
O264 O 0.3941 0.47481 0.93975 0.0
O265 O 0.30937 0.51738 0.9446 0.0
O266 O 0.37096 0.62866 0.89091 0.0
O267 O 0.2778 0.54322 0.91156 0.0
O268 O 0.31616 0.60501 0.87392 0.0
C269 C 0.42544 0.56796 0.94721 0.0
C270 C 0.31208 0.4829 0.84573 0.0
C271 C 0.41147 0.45083 0.92509 0.0
C272 C 0.44398 0.54022 0.84636 0.0
C273 C 0.27816 0.52937 0.93426 0.0
C274 C 0.33739 0.63349 0.88064 0.0
O275 O 0.389 0.5663 0.95053 0.0
O276 O 0.91599 0.05044 0.60632 0.0
Zn277 Zn 0.90933 0.08369 0.63924 0.0
O278 O 0.95237 0.11982 0.63756 0.0
Zn279 Zn -0.00377 0.09941 0.65587 0.0
Zn280 Zn 0.96418 0.12726 0.60121 0.0
Zn281 Zn 0.93708 0.16808 0.65189 0.0
O282 O 0.01967 0.13947 0.68027 0.0
O283 O 0.97379 0.18496 0.67948 0.0
O284 O 0.91571 0.04871 0.67159 0.0
O285 O 0.97936 0.05523 0.67795 0.0
O286 O 0.0343 0.07875 0.63025 0.0
O287 O 0.01483 0.10148 0.59212 0.0
O288 O 0.96454 0.18304 0.59048 0.0
O289 O 0.85916 0.11741 0.6408 0.0
O290 O 0.93755 0.20955 0.62507 0.0
O291 O 0.88294 0.16562 0.66476 0.0
C292 C 0.92026 0.06396 0.58355 0.0
C293 C 0.00578 0.17175 0.6881 0.0
C294 C 0.03834 0.08204 0.60595 0.0
C295 C 0.94707 0.0393 0.68334 0.0
C296 C 0.9501 0.21215 0.6021 0.0
C297 C 0.85433 0.14806 0.65453 0.0
O298 O 0.92376 0.10029 0.58037 0.0
O299 O 0.44331 0.91165 0.6121 0.0
Zn300 Zn 0.40864 0.90653 0.64452 0.0
O301 O 0.37414 0.95112 0.6414 0.0
Zn302 Zn 0.39572 -0.00563 0.65974 0.0
Zn303 Zn 0.3705 0.96227 0.60472 0.0
Zn304 Zn 0.32349 0.93952 0.6533 0.0
O305 O 0.35494 0.02051 0.68233 0.0
O306 O 0.30908 0.97483 0.68223 0.0
O307 O 0.44223 0.91225 0.67782 0.0
O308 O 0.43666 0.97595 0.68401 0.0
O309 O 0.42237 0.02924 0.6344 0.0
O310 O 0.40399 0.00758 0.59576 0.0
O311 O 0.31634 0.97188 0.59223 0.0
O312 O 0.3734 0.85754 0.64568 0.0
O313 O 0.28387 0.94901 0.62581 0.0
O314 O 0.31957 0.88365 0.66243 0.0
C315 C 0.42968 0.91539 0.5893 0.0
C316 C 0.32268 0.00693 0.69046 0.0
C317 C 0.42353 0.03061 0.60985 0.0
C318 C 0.45138 0.94334 0.69 0.0
C319 C 0.28458 0.96281 0.6031 0.0
C320 C 0.33942 0.8542 0.65561 0.0
O321 O 0.39312 0.91698 0.58642 0.0
O322 O 0.56909 0.43297 0.60742 0.0
Zn323 Zn 0.5764 0.39785 0.63936 0.0
O324 O 0.53629 0.35856 0.63583 0.0
Zn325 Zn 0.49015 0.37398 0.65423 0.0
Zn326 Zn 0.52657 0.35396 0.59899 0.0
Zn327 Zn 0.55399 0.30973 0.64838 0.0
O328 O 0.47342 0.33322 0.6801 0.0
O329 O 0.52148 0.29033 0.67753 0.0
O330 O 0.56526 0.43064 0.67198 0.0
O331 O 0.50131 0.42179 0.67518 0.0
O332 O 0.44722 0.38495 0.62909 0.0
O333 O 0.4743 0.37602 0.59049 0.0
O334 O 0.52864 0.29918 0.58608 0.0
O335 O 0.62953 0.3689 0.64142 0.0
O336 O 0.55181 0.26958 0.62075 0.0
O337 O 0.60912 0.31307 0.65851 0.0
C338 C 0.56648 0.42121 0.5841 0.0
C339 C 0.4898 0.30198 0.68751 0.0
C340 C 0.44566 0.38568 0.60456 0.0
C341 C 0.53237 0.43902 0.6821 0.0
C342 C 0.54107 0.26887 0.59731 0.0
C343 C 0.63635 0.33585 0.6519 0.0
O344 O 0.5652 0.38508 0.57948 0.0
O345 O 0.04877 0.57763 0.60562 0.0
Zn346 Zn 0.08261 0.58196 0.63874 0.0
O347 O 0.11657 0.53658 0.63649 0.0
Zn348 Zn 0.09579 0.49462 0.6564 0.0
Zn349 Zn 0.1178 0.52262 0.60031 0.0
Zn350 Zn 0.1687 0.54726 0.64642 0.0
O351 O 0.13676 0.4705 0.6796 0.0
O352 O 0.18347 0.51505 0.6769 0.0
O353 O 0.04758 0.57737 0.6715 0.0
O354 O 0.05505 0.5145 0.68006 0.0
O355 O 0.06859 0.4574 0.63295 0.0
O356 O 0.08103 0.47894 0.59335 0.0
O357 O 0.17033 0.50701 0.58792 0.0
O358 O 0.11844 0.63067 0.64061 0.0
O359 O 0.20676 0.53274 0.61875 0.0
O360 O 0.17445 0.60362 0.65318 0.0
C361 C 0.06271 0.57297 0.58296 0.0
C362 C 0.16945 0.48425 0.68677 0.0
C363 C 0.06395 0.45571 0.6086 0.0
C364 C 0.03923 0.54707 0.6847 0.0
C365 C 0.20339 0.51545 0.5972 0.0
C366 C 0.15374 0.63337 0.64844 0.0
O367 O 0.09901 0.56812 0.58049 0.0
H368 H 0.74165 0.48765 0.06233 0.0
H369 H 0.93733 0.48805 0.13041 0.0
H370 H 0.77816 0.39809 0.11516 0.0
H371 H 0.916 0.55726 0.0627 0.0
H372 H 0.88637 0.44355 0.11704 0.0
H373 H 0.80959 0.50132 0.05271 0.0
C374 C 0.76392 0.47003 0.07131 0.0
C375 C 0.75451 0.44304 0.09052 0.0
C376 C 0.89311 0.468 0.10473 0.0
C377 C 0.83196 0.45882 0.07993 0.0
C378 C 0.92195 0.49358 0.11255 0.0
C379 C 0.9295 0.52696 0.09811 0.0
C380 C 0.87064 0.47681 0.08288 0.0
C381 C 0.91002 0.53224 0.07467 0.0
C382 C 0.80278 0.47783 0.0658 0.0
C383 C 0.78435 0.42038 0.10105 0.0
N384 N 0.88047 0.50803 0.06813 0.0
N385 N 0.82186 0.42949 0.09614 0.0
H386 H 0.92838 0.70223 0.07259 0.0
H387 H 0.84401 0.87122 0.11214 0.0
H388 H 0.02803 0.77296 0.09081 0.0
H389 H 0.93008 0.93117 0.06694 0.0
H390 H 0.87066 0.80913 0.09742 0.0
H391 H 0.89126 0.76148 0.06304 0.0
C392 C 0.94278 0.73014 0.07364 0.0
C393 C 0.9809 0.73313 0.08293 0.0
C394 C 0.88282 0.83585 0.08996 0.0
C395 C 0.93915 0.80009 0.07207 0.0
C396 C 0.8679 0.8711 0.09855 0.0
C397 C 0.88514 0.90585 0.0907 0.0
C398 C 0.91598 0.83565 0.07423 0.0
C399 C 0.91614 0.90465 0.07326 0.0
C400 C 0.92162 0.76375 0.06834 0.0
C401 C -0.0016 0.76977 0.0841 0.0
N402 N 0.93152 0.8699 0.06622 0.0
N403 N 0.97719 0.80203 0.07902 0.0
H404 H 0.54728 0.00263 0.12864 0.0
H405 H 0.74005 0.0033 0.0569 0.0
H406 H 0.57051 0.92588 0.06483 0.0
H407 H 0.7031 0.09393 0.10883 0.0
H408 H 0.67217 0.98762 0.04838 0.0
H409 H 0.59523 0.0479 0.11205 0.0
C410 C 0.5626 -0.00452 0.11103 0.0
C411 C 0.55654 0.95993 0.09866 0.0
C412 C 0.6788 0.01183 0.06096 0.0
C413 C 0.61196 0.01104 0.07973 0.0
C414 C 0.71763 0.02086 0.06578 0.0
C415 C 0.72695 0.04864 0.08457 0.0
C416 C 0.64965 0.03047 0.07534 0.0
C417 C 0.69695 0.0711 0.09505 0.0
C418 C 0.58966 0.02149 0.10133 0.0
C419 C 0.57558 0.9526 0.07531 0.0
N420 N 0.65954 0.06082 0.09084 0.0
N421 N 0.6035 0.97745 0.06697 0.0
H422 H 0.53937 0.77471 0.07332 0.0
H423 H 0.61456 0.58805 0.06933 0.0
H424 H 0.43489 0.72122 0.10202 0.0
H425 H 0.52051 0.56715 0.12235 0.0
H426 H 0.58158 0.6476 0.05489 0.0
H427 H 0.5658 0.71033 0.06395 0.0
C428 C 0.52143 0.74938 0.07662 0.0
C429 C 0.48541 0.75287 0.08898 0.0
C430 C 0.56815 0.62991 0.0696 0.0
C431 C 0.51498 0.67946 0.07827 0.0
C432 C 0.58684 0.59592 0.0777 0.0
C433 C 0.57068 0.57367 0.0976 0.0
C434 C 0.53307 0.64096 0.08144 0.0
C435 C 0.53448 0.58431 0.10754 0.0
C436 C 0.53647 0.71253 0.07124 0.0
C437 C 0.4632 0.71947 0.093 0.0
N438 N 0.51707 0.61728 0.09947 0.0
N439 N 0.47865 0.68411 0.0881 0.0
H440 H 0.94178 0.96947 0.44234 0.0
H441 H 0.71611 0.94498 0.46815 0.0
H442 H 0.88385 0.8592 0.44921 0.0
H443 H 0.77201 0.04933 0.44133 0.0
H444 H 0.78027 0.91714 0.47759 0.0
H445 H 0.8833 0.00194 0.45839 0.0
C446 C 0.91681 0.95218 0.44777 0.0
C447 C 0.91686 0.91198 0.4442 0.0
C448 C 0.77836 0.94656 0.47035 0.0
C449 C 0.85011 0.94848 0.46193 0.0
C450 C 0.74186 0.96246 0.46512 0.0
C451 C 0.7392 -0.00097 0.45348 0.0
C452 C 0.81193 0.96769 0.464 0.0
C453 C 0.77314 0.02066 0.44984 0.0
C454 C 0.88356 0.97057 0.45691 0.0
C455 C 0.88431 0.89044 0.45153 0.0
N456 N 0.8082 0.00444 0.45473 0.0
N457 N 0.85176 0.90908 0.45966 0.0
H458 H 0.56761 0.9151 0.47614 0.0
H459 H 0.40129 0.7787 0.42405 0.0
H460 H 0.49267 0.9363 0.41103 0.0
H461 H 0.49575 0.73973 0.47221 0.0
H462 H 0.41681 0.84565 0.43531 0.0
H463 H 0.52524 0.86097 0.48903 0.0
C464 C 0.54182 0.90879 0.46492 0.0
C465 C 0.5342 0.92883 0.44198 0.0
C466 C 0.43354 0.82242 0.44396 0.0
C467 C 0.48568 0.86839 0.45677 0.0
C468 C 0.42473 0.78426 0.43751 0.0
C469 C 0.4483 0.75397 0.44644 0.0
C470 C 0.46673 0.83019 0.45882 0.0
C471 C 0.47753 0.7625 0.46441 0.0
C472 C 0.51767 0.87818 0.47231 0.0
C473 C 0.50019 0.92042 0.42833 0.0
N474 N 0.4868 0.80008 0.46942 0.0
N475 N 0.47742 0.89049 0.43576 0.0
H476 H 0.54713 0.51212 0.43124 0.0
H477 H 0.76986 0.53505 0.46504 0.0
H478 H 0.59925 0.61959 0.45587 0.0
H479 H 0.71724 0.43543 0.4287 0.0
H480 H 0.70487 0.55929 0.47602 0.0
H481 H 0.60534 0.47725 0.44498 0.0
C482 C 0.57082 0.52815 0.43998 0.0
C483 C 0.56925 0.56856 0.44203 0.0
C484 C 0.70766 0.53162 0.46626 0.0
C485 C 0.63602 0.52946 0.45707 0.0
C486 C 0.74466 0.51775 0.4601 0.0
C487 C 0.74854 0.48379 0.44542 0.0
C488 C 0.67478 0.51109 0.45773 0.0
C489 C 0.71523 0.46227 0.43952 0.0
C490 C 0.60394 0.50837 0.44785 0.0
C491 C 0.60001 0.58832 0.45378 0.0
N492 N 0.67969 0.47657 0.44536 0.0
N493 N 0.63276 0.56861 0.46036 0.0
H494 H -0.00248 0.74877 0.47431 0.0
H495 H 0.00161 0.5449 0.4129 0.0
H496 H 0.0857 0.70694 0.42219 0.0
H497 H 0.91682 0.58051 0.4692 0.0
H498 H 0.04535 0.59537 0.42825 0.0
H499 H 0.98148 0.68171 0.48524 0.0
C500 C 0.01438 0.72548 0.46582 0.0
C501 C 0.04176 0.73309 0.44648 0.0
C502 C 0.01747 0.59199 0.43763 0.0
C503 C 0.02333 0.65675 0.45857 0.0
C504 C 0.99245 0.56339 0.42869 0.0
C505 C 0.95521 0.56002 0.43915 0.0
C506 C 0.00437 0.61841 0.45637 0.0
C507 C 0.94505 0.5833 0.4602 0.0
C508 C 0.00517 0.68718 0.47203 0.0
C509 C 0.06328 0.70209 0.43645 0.0
N510 N 0.96909 0.61252 0.46765 0.0
N511 N 0.05298 0.66517 0.44216 0.0
H512 H 0.04676 0.48926 0.91851 0.0
H513 H 0.25912 0.47293 0.96913 0.0
H514 H 0.08829 0.39223 0.96302 0.0
H515 H 0.21206 0.57142 0.92842 0.0
H516 H 0.19301 0.45204 0.9794 0.0
H517 H 0.10111 0.52807 0.93395 0.0
C518 C 0.06741 0.47634 0.93175 0.0
C519 C 0.06423 0.43739 0.93889 0.0
C520 C 0.19716 0.47884 0.96887 0.0
C521 C 0.1269 0.48097 0.95615 0.0
C522 C 0.23489 0.49081 0.96308 0.0
C523 C 0.24073 0.5231 0.94713 0.0
C524 C 0.16552 0.49934 0.95847 0.0
C525 C 0.20858 0.54557 0.94005 0.0
C526 C 0.09828 0.49848 0.94072 0.0
C527 C 0.09062 0.42208 0.9567 0.0
N528 N 0.17228 0.53282 0.94532 0.0
N529 N 0.1217 0.44365 0.96421 0.0
H530 H 0.91151 0.21481 0.924 0.0
H531 H 0.08641 0.08032 0.9667 0.0
H532 H 0.01161 0.25648 0.9657 0.0
H533 H 0.00192 0.05562 0.90754 0.0
H534 H 0.04691 0.1363 0.98042 0.0
H535 H 0.93077 0.14832 0.93372 0.0
C536 C 0.9371 0.20989 0.93573 0.0
C537 C 0.96078 0.24087 0.94337 0.0
C538 C 0.03671 0.118 0.96484 0.0
C539 C 0.98351 0.16517 0.95391 0.0
C540 C 0.05919 0.08631 0.957 0.0
C541 C 0.0478 0.06449 0.93548 0.0
C542 C 0.00258 0.12706 0.95124 0.0
C543 C 0.01218 0.07268 0.92371 0.0
C544 C 0.94809 0.172 0.94127 0.0
C545 C 0.99305 0.23316 0.95906 0.0
N546 N 0.99102 0.10358 0.93158 0.0
N547 N 0.00422 0.19584 0.96321 0.0
H548 H 0.22764 0.01738 0.96786 0.0
H549 H 0.44545 -0.00316 0.92605 0.0
H550 H 0.27627 0.92035 0.92628 0.0
H551 H 0.40005 0.09675 0.96594 0.0
H552 H 0.38844 0.95973 0.93892 0.0
H553 H 0.29338 0.0376 0.97993 0.0
C554 C 0.2521 -0.00026 0.9619 0.0
C555 C 0.24684 0.96793 0.94537 0.0
C556 C 0.39102 0.98956 0.94529 0.0
C557 C 0.32163 0.99083 0.95889 0.0
C558 C 0.42347 0.01068 0.93786 0.0
C559 C 0.42645 0.04991 0.94442 0.0
C560 C 0.36079 0.00836 0.95854 0.0
C561 C 0.39808 0.06658 0.96022 0.0
C562 C 0.28959 0.01132 0.96874 0.0
C563 C 0.27928 0.94578 0.93841 0.0
N564 N 0.36568 0.04594 0.96621 0.0
N565 N 0.31536 0.95805 0.94482 0.0
H566 H 0.57665 0.27272 0.93086 0.0
H567 H 0.39764 0.40652 0.96804 0.0
H568 H 0.47475 0.2298 0.9698 0.0
H569 H 0.48181 0.42795 0.90824 0.0
H570 H 0.437 0.35098 0.98277 0.0
H571 H 0.55473 0.339 0.93869 0.0
C572 C 0.55011 0.27736 0.94166 0.0
C573 C 0.52679 0.24601 0.94903 0.0
C574 C 0.44709 0.36844 0.96678 0.0
C575 C 0.5011 0.32139 0.95737 0.0
C576 C 0.42469 0.39985 0.95835 0.0
C577 C 0.43613 0.42072 0.93646 0.0
C578 C 0.48128 0.35884 0.95345 0.0
C579 C 0.47153 0.41166 0.92472 0.0
C580 C 0.53759 0.31512 0.94609 0.0
C581 C 0.49314 0.25339 0.96344 0.0
N582 N 0.4927 0.38119 0.93324 0.0
N583 N 0.48059 0.29053 0.96653 0.0
H584 H 0.04742 0.0047 0.60781 0.0
H585 H 0.26847 0.02199 0.56957 0.0
H586 H 0.0985 0.10846 0.57637 0.0
H587 H 0.21606 0.925 0.60887 0.0
H588 H 0.20348 0.04613 0.55874 0.0
H589 H 0.10461 0.9679 0.59465 0.0
C590 C 0.07069 0.01949 0.59776 0.0
C591 C 0.06911 0.05954 0.59363 0.0
C592 C 0.20627 0.01903 0.56914 0.0
C593 C 0.13489 0.01821 0.5792 0.0
C594 C 0.2433 0.00518 0.57522 0.0
C595 C 0.24736 0.97207 0.59069 0.0
C596 C 0.17347 -0.00061 0.57856 0.0
C597 C 0.21402 0.95121 0.59745 0.0
C598 C 0.10324 -0.00142 0.5902 0.0
C599 C 0.09926 0.07755 0.58013 0.0
N600 N 0.17845 0.96556 0.59168 0.0
N601 N 0.13159 0.05687 0.57391 0.0
H602 H 0.48974 0.24628 0.55988 0.0
H603 H 0.49718 0.04567 0.62433 0.0
H604 H 0.58542 0.20498 0.60603 0.0
H605 H 0.41153 0.07541 0.56706 0.0
H606 H 0.53941 0.09642 0.60784 0.0
H607 H 0.47123 0.17908 0.55107 0.0
C608 C 0.50768 0.22304 0.56738 0.0
C609 C 0.53812 0.2309 0.58457 0.0
C610 C 0.51166 0.09173 0.59852 0.0
C611 C 0.5169 0.15444 0.575 0.0
C612 C 0.48744 0.06302 0.60816 0.0
C613 C 0.45043 0.05776 0.59764 0.0
C614 C 0.49804 0.11637 0.57892 0.0
C615 C 0.43959 0.07962 0.57608 0.0
C616 C 0.49705 0.18465 0.56242 0.0
C617 C 0.56081 0.19995 0.59345 0.0
N618 N 0.46287 0.10895 0.56785 0.0
N619 N 0.54917 0.16299 0.58908 0.0
H620 H 0.27534 0.54823 0.59566 0.0
H621 H 0.37284 0.35748 0.60987 0.0
H622 H 0.21134 0.44645 0.57229 0.0
H623 H 0.43889 0.44759 0.5726 0.0
H624 H 0.31273 0.38903 0.59566 0.0
H625 H 0.33606 0.51423 0.58582 0.0
C626 C 0.27413 0.51913 0.58775 0.0
C627 C 0.23856 0.4998 0.58507 0.0
C628 C 0.34039 0.40129 0.58996 0.0
C629 C 0.30734 0.46075 0.57458 0.0
C630 C 0.37448 0.3835 0.5982 0.0
C631 C 0.41035 0.40029 0.59239 0.0
C632 C 0.34247 0.43681 0.57683 0.0
C633 C 0.41145 0.43401 0.57734 0.0
C634 C 0.30865 0.49986 0.58204 0.0
C635 C 0.23832 0.46219 0.5747 0.0
N636 N 0.37778 0.45197 0.57065 0.0
N637 N 0.27237 0.44331 0.57061 0.0
H638 H 0.06854 0.41606 0.56285 0.0
H639 H 0.90438 0.2745 0.61272 0.0
H640 H -0.00292 0.43131 0.63034 0.0
H641 H 0.00018 0.23799 0.56489 0.0
H642 H 0.92025 0.34198 0.60336 0.0
H643 H 0.02711 0.36128 0.54965 0.0
C644 C 0.04373 0.40828 0.57458 0.0
C645 C 0.03682 0.42697 0.59815 0.0
C646 C 0.93718 0.31918 0.59436 0.0
C647 C 0.98927 0.36587 0.58297 0.0
C648 C 0.92821 0.28072 0.59973 0.0
C649 C 0.95203 0.25089 0.59036 0.0
C650 C 0.97064 0.32768 0.58003 0.0
C651 C 0.98174 0.26033 0.57301 0.0
C652 C 0.02012 0.37732 0.567 0.0
C653 C 0.00405 0.4166 0.61248 0.0
N654 N 0.99104 0.29816 0.56898 0.0
N655 N 0.98171 0.38644 0.6048 0.0
H656 H 0.94785 0.63209 0.23074 0.0
H657 H 0.93996 0.8346 0.30596 0.0
H658 H 0.96584 0.74349 0.19484 0.0
H659 H 0.98017 0.72745 0.33963 0.0
H660 H 0.92338 0.79909 0.26636 0.0
H661 H 0.93362 0.66533 0.27159 0.0
C662 C 0.94758 0.66353 0.23127 0.0
C663 C 0.95851 0.68517 0.20959 0.0
C664 C 0.93488 0.78329 0.28271 0.0
C665 C 0.94215 0.72308 0.25589 0.0
C666 C 0.94411 0.80344 0.3053 0.0
C667 C 0.9619 0.78391 0.32587 0.0
C668 C 0.94293 0.74338 0.28098 0.0
C669 C 0.96696 0.74358 0.32401 0.0
C670 C 0.9397 0.68241 0.25455 0.0
C671 C 0.95803 0.72581 0.21129 0.0
N672 N 0.95786 0.72466 0.30185 0.0
N673 N 0.95036 0.74349 0.23412 0.0
H674 H 0.74125 0.97099 0.34176 0.0
H675 H 0.71942 -0.00378 0.1953 0.0
H676 H 0.62916 0.95767 0.30574 0.0
H677 H 0.8241 0.94663 0.22704 0.0
H678 H 0.68496 0.97952 0.23496 0.0
H679 H 0.77237 0.95851 0.30023 0.0
C680 C 0.72327 0.96442 0.32517 0.0
C681 C 0.68268 0.96552 0.32702 0.0
C682 C 0.71524 0.9715 0.23303 0.0
C683 C 0.7179 0.95248 0.27944 0.0
C684 C 0.73495 0.98121 0.21049 0.0
C685 C 0.77472 0.97316 0.20808 0.0
C686 C 0.73574 0.95466 0.25356 0.0
C687 C 0.79344 0.95343 0.2282 0.0
C688 C 0.741 0.95726 0.30151 0.0
C689 C 0.66058 0.95694 0.30504 0.0
N690 N 0.77399 0.94566 0.2504 0.0
N691 N 0.67849 0.95177 0.28192 0.0
H692 H 0.54182 0.85848 0.23546 0.0
H693 H 0.54701 0.65235 0.30597 0.0
H694 H 0.52486 0.74891 0.19684 0.0
H695 H 0.50753 0.75846 0.34155 0.0
H696 H 0.56528 0.6895 0.26743 0.0
H697 H 0.55601 0.82326 0.27557 0.0
C698 C 0.54249 0.82704 0.23523 0.0
C699 C 0.53177 0.80644 0.21302 0.0
C700 C 0.55355 0.70468 0.28398 0.0
C701 C 0.54787 0.76628 0.25846 0.0
C702 C 0.54331 0.68358 0.30596 0.0
C703 C 0.52524 0.70239 0.32672 0.0
C704 C 0.5462 0.74479 0.28308 0.0
C705 C 0.52087 0.74286 0.32573 0.0
C706 C 0.55029 0.80701 0.25809 0.0
C707 C 0.53261 0.76574 0.21371 0.0
N708 N 0.53093 0.7627 0.30416 0.0
N709 N 0.54008 0.74695 0.23616 0.0
H710 H 0.75973 0.50343 0.19327 0.0
H711 H 0.74937 0.53011 0.3401 0.0
H712 H 0.65576 0.54695 0.22951 0.0
H713 H 0.85824 0.5401 0.29977 0.0
H714 H 0.71483 0.54397 0.30001 0.0
H715 H 0.79729 0.52346 0.23094 0.0
C716 C 0.74496 0.51793 0.209 0.0
C717 C 0.70455 0.52306 0.2085 0.0
C718 C 0.74628 0.54431 0.3 0.0
C719 C 0.74717 0.54534 0.25186 0.0
C720 C 0.76597 0.53643 0.32288 0.0
C721 C 0.80659 0.53377 0.32307 0.0
C722 C 0.76739 0.54821 0.27702 0.0
C723 C 0.82686 0.542 0.30033 0.0
C724 C 0.76643 0.52954 0.23045 0.0
C725 C 0.68686 0.54231 0.22923 0.0
N726 N 0.80699 0.54782 0.27798 0.0
N727 N 0.70815 0.55189 0.2504 0.0
H728 H 0.0416 0.14231 0.73091 0.0
H729 H 0.04058 0.34884 0.80138 0.0
H730 H 0.01136 0.25 0.69366 0.0
H731 H 0.01242 0.24073 0.83873 0.0
H732 H 0.05668 0.31262 0.76194 0.0
H733 H 0.05774 0.17877 0.77024 0.0
C734 C 0.03961 0.17369 0.73076 0.0
C735 C 0.02468 0.19325 0.70924 0.0
C736 C 0.04801 0.29685 0.77904 0.0
C737 C 0.04315 0.23483 0.75379 0.0
C738 C 0.03906 0.31743 0.80152 0.0
C739 C 0.02473 0.29765 0.8231 0.0
C740 C 0.04316 0.25635 0.77845 0.0
C741 C 0.02294 0.25698 0.8223 0.0
C742 C 0.04859 0.1944 0.75319 0.0
C743 C 0.02233 0.23389 0.71004 0.0
N744 N 0.03167 0.23765 0.80024 0.0
N745 N 0.03108 0.25336 0.73206 0.0
H746 H 0.35227 0.04162 0.73365 0.0
H747 H 0.14405 0.04293 0.80152 0.0
H748 H 0.24461 0.01529 0.69492 0.0
H749 H 0.25116 0.01338 0.83994 0.0
H750 H 0.18135 0.05988 0.76277 0.0
H751 H 0.31531 0.05842 0.77264 0.0
C752 C 0.32082 0.04068 0.73311 0.0
C753 C 0.30134 0.02659 0.7113 0.0
C754 C 0.19666 0.0507 0.77997 0.0
C755 C 0.25922 0.04574 0.75542 0.0
C756 C 0.17546 0.04123 0.80205 0.0
C757 C 0.19464 0.0262 0.82369 0.0
C758 C 0.23716 0.04561 0.77983 0.0
C759 C 0.23534 0.02432 0.82342 0.0
C760 C 0.29982 0.05003 0.75533 0.0
C761 C 0.26062 0.02557 0.71155 0.0
N762 N 0.25527 0.0335 0.80171 0.0
N763 N 0.24088 0.03459 0.73338 0.0
H764 H 0.48052 0.24364 0.84255 0.0
H765 H 0.49313 0.22397 0.69551 0.0
H766 H 0.45786 0.13336 0.80618 0.0
H767 H 0.45118 0.33027 0.72958 0.0
H768 H 0.4773 0.18953 0.73532 0.0
H769 H 0.46612 0.27637 0.80185 0.0
C770 C 0.47151 0.22646 0.8261 0.0
C771 C 0.47054 0.18584 0.82755 0.0
C772 C 0.4707 0.2202 0.73389 0.0
C773 C 0.45529 0.22283 0.78087 0.0
C774 C 0.47992 0.23988 0.71125 0.0
C775 C 0.47381 0.28003 0.70944 0.0
C776 C 0.4564 0.24108 0.7551 0.0
C777 C 0.4564 0.29929 0.73028 0.0
C778 C 0.46325 0.2451 0.80291 0.0
C779 C 0.45881 0.16478 0.80577 0.0
N780 N 0.44917 0.2798 0.75254 0.0
N781 N 0.45262 0.18347 0.78305 0.0
H782 H 0.24765 0.47825 0.69264 0.0
H783 H 0.23365 0.47985 0.84025 0.0
H784 H 0.13943 0.45118 0.7303 0.0
H785 H 0.34036 0.44694 0.80267 0.0
H786 H 0.19795 0.46424 0.80085 0.0
H787 H 0.28248 0.46177 0.7322 0.0
C788 C 0.23134 0.46801 0.70914 0.0
C789 C 0.19066 0.46644 0.7084 0.0
C790 C 0.22903 0.45942 0.80139 0.0
C791 C 0.23013 0.44848 0.75382 0.0
C792 C 0.2494 0.46843 0.82383 0.0
C793 C 0.28996 0.465 0.82452 0.0
C794 C 0.24957 0.44812 0.77927 0.0
C795 C 0.30906 0.44999 0.80284 0.0
C796 C 0.25121 0.45846 0.73166 0.0
C797 C 0.17084 0.45282 0.73017 0.0
N798 N 0.28879 0.44305 0.7808 0.0
N799 N 0.19072 0.4453 0.75228 0.0
H800 H 0.19991 0.64127 0.15399 0.0
H801 H 0.28669 0.85685 0.14049 0.0
H802 H 0.12917 0.74274 0.14033 0.0
H803 H 0.35089 0.76042 0.17241 0.0
H804 H 0.22905 0.81498 0.13795 0.0
H805 H 0.25713 0.68376 0.15748 0.0
C806 C 0.19641 0.67231 0.15162 0.0
C807 C 0.15961 0.68835 0.14707 0.0
C808 C 0.2558 0.80317 0.14564 0.0
C809 C 0.2247 0.7371 0.15095 0.0
C810 C 0.28863 0.82717 0.14723 0.0
C811 C 0.32386 0.81231 0.15659 0.0
C812 C 0.25834 0.76399 0.15326 0.0
C813 C 0.32456 0.77334 0.16489 0.0
C814 C 0.22897 0.6966 0.15374 0.0
C815 C 0.15683 0.72894 0.14416 0.0
N816 N 0.29253 0.75059 0.16285 0.0
N817 N 0.1888 0.75178 0.1461 0.0
H818 H 0.82027 0.18259 0.11168 0.0
H819 H 0.682 0.31773 0.19765 0.0
H820 H 0.81142 0.17349 0.19423 0.0
H821 H 0.6696 0.30736 0.11531 0.0
H822 H 0.73262 0.26803 0.19673 0.0
H823 H 0.77144 0.23474 0.11245 0.0
C824 C 0.80933 0.1928 0.13006 0.0
C825 C 0.82039 0.17431 0.15299 0.0
C826 C 0.71848 0.27606 0.17887 0.0
C827 C 0.76346 0.2325 0.15395 0.0
C828 C 0.68917 0.30403 0.17945 0.0
C829 C 0.67109 0.31611 0.1566 0.0
C830 C 0.73051 0.2605 0.15515 0.0
C831 C 0.68218 0.29817 0.13344 0.0
C832 C 0.78081 0.22188 0.13044 0.0
C833 C 0.80416 0.18753 0.17619 0.0
N834 N 0.71154 0.27156 0.13325 0.0
N835 N 0.77641 0.21559 0.17606 0.0
H836 H 0.31857 0.67989 0.33541 0.0
H837 H 0.18332 0.82311 0.41679 0.0
H838 H 0.30583 0.67054 0.41772 0.0
H839 H 0.16586 0.8014 0.33582 0.0
H840 H 0.23547 0.77423 0.41702 0.0
H841 H 0.2667 0.72852 0.33466 0.0
C842 C 0.30384 0.68719 0.35322 0.0
C843 C 0.31576 0.67055 0.37657 0.0
C844 C 0.22062 0.78068 0.39913 0.0
C845 C 0.25801 0.72783 0.37613 0.0
C846 C 0.19149 0.80914 0.39888 0.0
C847 C 0.17075 0.81668 0.37615 0.0
C848 C 0.22919 0.76002 0.37643 0.0
C849 C 0.18155 0.79677 0.35365 0.0
C850 C 0.27467 0.71534 0.35285 0.0
C851 C 0.2967 0.68194 0.39924 0.0
N852 N 0.20992 0.76935 0.35436 0.0
N853 N 0.2691 0.71031 0.39853 0.0
H854 H 0.85213 0.29106 0.40169 0.0
H855 H 0.63831 0.20455 0.37668 0.0
H856 H 0.76401 0.35038 0.35742 0.0
H857 H 0.73431 0.13695 0.40576 0.0
H858 H 0.6823 0.26073 0.37281 0.0
H859 H 0.80839 0.23507 0.40536 0.0
C860 C 0.82396 0.29214 0.39241 0.0
C861 C 0.81185 0.32562 0.37932 0.0
C862 C 0.69358 0.23354 0.3801 0.0
C863 C 0.76122 0.26212 0.38396 0.0
C864 C 0.66839 0.20168 0.3825 0.0
C865 C 0.68271 0.166 0.39131 0.0
C866 C 0.73309 0.22963 0.3869 0.0
C867 C 0.72209 0.16378 0.39852 0.0
C868 C 0.79881 0.26032 0.39469 0.0
C869 C 0.77467 0.32539 0.36789 0.0
N870 N 0.74579 0.195 0.39614 0.0
N871 N 0.75068 0.2944 0.37065 0.0
H872 H 0.67633 0.17059 0.84312 0.0
H873 H 0.80341 0.32777 0.91946 0.0
H874 H 0.68372 0.17311 0.92592 0.0
H875 H 0.82194 0.29958 0.83949 0.0
H876 H 0.75323 0.27697 0.92155 0.0
H877 H 0.72654 0.22078 0.84088 0.0
C878 C 0.68966 0.18078 0.8608 0.0
C879 C 0.67679 0.16691 0.8847 0.0
C880 C 0.7679 0.28236 0.90345 0.0
C881 C 0.73252 0.22613 0.88243 0.0
C882 C 0.79591 0.31187 0.90212 0.0
C883 C 0.81643 0.31823 0.87916 0.0
C884 C 0.76021 0.25937 0.88159 0.0
C885 C 0.80647 0.2959 0.85748 0.0
C886 C 0.71784 0.20987 0.85956 0.0
C887 C 0.69379 0.1822 0.90711 0.0
N888 N 0.77923 0.26748 0.85923 0.0
N889 N 0.72046 0.21136 0.90546 0.0
H890 H 0.31323 0.6715 0.83789 0.0
H891 H 0.16192 0.80094 0.91668 0.0
H892 H 0.31487 0.67908 0.92071 0.0
H893 H 0.19364 0.82623 0.83817 0.0
H894 H 0.21084 0.7488 0.91734 0.0
H895 H 0.26506 0.72389 0.83658 0.0
C896 C 0.30439 0.68526 0.85574 0.0
C897 C 0.31878 0.67189 0.87939 0.0
C898 C 0.20663 0.76544 0.89986 0.0
C899 C 0.26195 0.72998 0.87821 0.0
C900 C 0.17822 0.79459 0.89933 0.0
C901 C 0.17347 0.81748 0.87722 0.0
C902 C 0.22998 0.75898 0.87803 0.0
C903 C 0.19618 0.80891 0.85549 0.0
C904 C 0.2765 0.71468 0.85503 0.0
C905 C 0.30529 0.68949 0.90207 0.0
N906 N 0.22344 0.78041 0.85644 0.0
N907 N 0.2772 0.71732 0.90097 0.0
H908 H 0.81966 0.17992 0.69635 0.0
H909 H 0.68529 0.32064 0.61191 0.0
H910 H 0.80725 0.16778 0.61413 0.0
H911 H 0.67324 0.30794 0.69405 0.0
H912 H 0.73712 0.27145 0.61241 0.0
H913 H 0.76987 0.23057 0.69605 0.0
C914 C 0.80547 0.18713 0.67833 0.0
C915 C 0.81696 0.16909 0.65531 0.0
C916 C 0.72368 0.28005 0.63039 0.0
C917 C 0.76138 0.22858 0.65457 0.0
C918 C 0.69479 0.30876 0.63018 0.0
C919 C 0.67563 0.31892 0.65307 0.0
C920 C 0.73345 0.26159 0.65368 0.0
C921 C 0.68788 0.30145 0.67609 0.0
C922 C 0.77747 0.21644 0.6781 0.0
C923 C 0.79849 0.18029 0.63237 0.0
N924 N 0.71584 0.27357 0.67581 0.0
N925 N 0.77193 0.2097 0.63251 0.0
H926 H 0.30342 0.82162 0.69664 0.0
H927 H 0.17079 0.68405 0.60971 0.0
H928 H 0.32528 0.80438 0.61573 0.0
H929 H 0.18583 0.66522 0.69113 0.0
H930 H 0.21979 0.73607 0.61164 0.0
H931 H 0.25502 0.76951 0.69535 0.0
C932 C 0.29879 0.80597 0.67877 0.0
C933 C 0.31896 0.8166 0.6564 0.0
C934 C 0.21185 0.72095 0.62914 0.0
C935 C 0.26211 0.75852 0.6544 0.0
C936 C 0.18339 0.69189 0.62813 0.0
C937 C 0.17373 0.67108 0.65042 0.0
C938 C 0.2304 0.72933 0.65267 0.0
C939 C 0.19198 0.68122 0.67365 0.0
C940 C 0.27087 0.77661 0.67796 0.0
C941 C 0.31105 0.79631 0.63353 0.0
N942 N 0.21935 0.70965 0.6742 0.0
N943 N 0.28281 0.76856 0.63301 0.0
H944 H 0.95801 0.49663 0.94253 0.0
H945 H 0.03827 0.49458 0.08805 0.0
H946 H 0.92465 0.41121 0.99906 0.0
H947 H 0.0697 0.5813 0.03194 0.0
H948 H -0.00098 0.46179 0.05519 0.0
H949 H -0.00097 0.52808 0.97496 0.0
C950 C 0.95845 0.48505 0.96192 0.0
C951 C 0.93749 0.45132 0.96806 0.0
C952 C 0.01501 0.48765 0.04994 0.0
C953 C 0.98536 0.4867 1.00525 0.0
C954 C 0.03797 0.50607 0.06863 0.0
C955 C 0.05762 0.54068 0.06274 0.0
C956 C 0.01172 0.50381 0.02512 0.0
C957 C 0.05519 0.55464 0.03733 0.0
C958 C 0.98236 0.50273 0.98038 0.0
C959 C 0.94012 0.43721 0.99344 0.0
N960 N 0.03252 0.53638 0.01957 0.0
N961 N 0.96367 0.45481 1.011 0.0
H962 H 0.0797 0.91664 0.99809 0.0
H963 H 0.90938 0.06725 0.03089 0.0
H964 H -0.00505 0.95555 0.94256 0.0
H965 H 0.98889 0.02278 0.08797 0.0
H966 H 0.94347 0.03012 0.99778 0.0
H967 H 0.0475 0.95564 0.03117 0.0
C968 C 0.05376 0.93272 0.99298 0.0
C969 C 0.03986 0.9325 0.96751 0.0
C970 C 0.95379 0.02877 0.01748 0.0
C971 C 0.00351 0.97836 1.00521 0.0
C972 C 0.93462 0.05037 0.03638 0.0
C973 C 0.94626 0.04821 0.06231 0.0
C974 C 0.98478 0.00447 0.02448 0.0
C975 C 0.97907 0.02567 0.06824 0.0
C976 C 0.03565 0.95535 1.01183 0.0
C977 C 0.00639 0.95429 0.96198 0.0
N978 N -0.00311 0.00434 0.04953 0.0
N979 N 0.9896 0.97659 0.9806 0.0
H980 H 0.53437 0.99137 0.95007 0.0
H981 H 0.45401 -0.00152 0.09536 0.0
H982 H 0.57081 0.07638 1.0062 0.0
H983 H 0.41859 0.91297 0.03927 0.0
H984 H 0.49583 0.02838 0.0628 0.0
H985 H 0.4932 0.96118 0.98283 0.0
C986 C 0.53462 0.00305 0.96946 0.0
C987 C 0.55635 0.03641 0.97537 0.0
C988 C 0.47846 0.00341 0.0575 0.0
C989 C 0.50829 0.00254 1.01291 0.0
C990 C 0.45407 0.98666 0.07601 0.0
C991 C 0.43243 0.95324 0.07005 0.0
C992 C 0.48116 0.98681 0.03276 0.0
C993 C 0.43461 0.93874 0.04474 0.0
C994 C 0.51062 0.98612 0.9881 0.0
C995 C 0.55466 0.05069 1.00076 0.0
N996 N 0.45863 0.95542 0.02714 0.0
N997 N 0.53093 0.03387 0.01849 0.0
H998 H 0.49365 0.45521 0.08919 0.0
H999 H 0.4952 0.52942 0.94249 0.0
H1000 H 0.58061 0.42194 0.03357 0.0
H1001 H 0.40994 0.56485 0.99871 0.0
H1002 H 0.52663 0.48935 0.97541 0.0
H1003 H 0.46002 0.49198 0.05551 0.0
C1004 C 0.50506 0.45463 0.06975 0.0
C1005 C 0.54005 0.43541 0.06424 0.0
C1006 C 0.50129 0.50624 0.98063 0.0
C1007 C 0.50236 0.4785 0.02573 0.0
C1008 C 0.48366 0.52962 0.9619 0.0
C1009 C 0.44999 0.55084 0.96784 0.0
C1010 C 0.48522 0.50406 1.00552 0.0
C1011 C 0.43591 0.54912 0.99325 0.0
C1012 C 0.48617 0.47617 0.05058 0.0
C1013 C 0.55377 0.43638 0.03872 0.0
N1014 N 0.45342 0.52605 1.01106 0.0
N1015 N 0.53515 0.45784 0.02053 0.0
H1016 H 0.91747 0.0782 0.53186 0.0
H1017 H 0.07045 0.91044 0.49797 0.0
H1018 H 0.9587 -0.00575 0.58709 0.0
H1019 H 0.02568 0.99081 0.44158 0.0
H1020 H 0.03141 0.94235 0.53105 0.0
H1021 H 0.95539 0.04577 0.49831 0.0
C1022 C 0.9338 0.05237 0.53681 0.0
C1023 C 0.93465 0.03883 0.56234 0.0
C1024 C 0.03033 0.95329 0.51151 0.0
C1025 C 0.97938 0.00229 0.52412 0.0
C1026 C 0.053 0.93535 0.49263 0.0
C1027 C 0.05153 0.94798 0.46689 0.0
C1028 C 0.00568 0.9841 0.50472 0.0
C1029 C 0.02816 0.98029 0.46116 0.0
C1030 C 0.95583 0.03413 0.51769 0.0
C1031 C 0.95668 0.00544 0.56765 0.0
N1032 N 0.00592 -0.00301 0.47986 0.0
N1033 N 0.97847 0.98862 0.54879 0.0
H1034 H 0.49821 0.95595 0.59459 0.0
H1035 H 0.49374 0.03671 0.44939 0.0
H1036 H 0.41386 0.92018 0.53781 0.0
H1037 H 0.57807 0.07229 0.50621 0.0
H1038 H 0.46243 -0.00409 0.48192 0.0
H1039 H 0.52819 -0.00172 0.56242 0.0
C1040 C 0.48662 0.95611 0.57518 0.0
C1041 C 0.45357 0.93412 0.5689 0.0
C1042 C 0.48742 0.01312 0.4874 0.0
C1043 C 0.48727 0.98345 0.53202 0.0
C1044 C 0.50497 0.03695 0.4689 0.0
C1045 C 0.5385 0.05824 0.47508 0.0
C1046 C 0.50338 0.01061 0.51233 0.0
C1047 C 0.55223 0.05648 0.50059 0.0
C1048 C 0.50344 0.98078 0.55687 0.0
C1049 C 0.43936 0.93645 0.54352 0.0
N1050 N 0.53483 0.03295 0.51817 0.0
N1051 N 0.45613 0.96072 0.52611 0.0
H1052 H 0.53109 0.49248 0.58928 0.0
H1053 H 0.45753 0.49533 0.44237 0.0
H1054 H 0.566 0.4083 0.53216 0.0
H1055 H 0.42191 0.57906 0.49958 0.0
H1056 H 0.49677 0.46252 0.47511 0.0
H1057 H 0.49318 0.52628 0.55627 0.0
C1058 C 0.53168 0.48166 0.56968 0.0
C1059 C 0.55185 0.44744 0.56355 0.0
C1060 C 0.47999 0.4878 0.48059 0.0
C1061 C 0.50751 0.48541 0.52574 0.0
C1062 C 0.45708 0.50624 0.46195 0.0
C1063 C 0.43614 0.53995 0.46821 0.0
C1064 C 0.48197 0.50308 0.50572 0.0
C1065 C 0.43748 0.55314 0.49386 0.0
C1066 C 0.50954 0.50068 0.55088 0.0
C1067 C 0.55088 0.43452 0.53782 0.0
N1068 N 0.46013 0.53486 0.51158 0.0
N1069 N 0.52887 0.45328 0.51998 0.0
H1070 H 0.0776 0.57352 0.53135 0.0
H1071 H 0.91083 0.41881 0.49829 0.0
H1072 H 0.99347 0.53348 0.58678 0.0
H1073 H -0.00428 0.45779 0.44301 0.0
H1074 H 0.94139 0.4597 0.53107 0.0
H1075 H 0.04626 0.53365 0.49829 0.0
C1076 C 0.05196 0.55701 0.53643 0.0
C1077 C 0.03804 0.55714 0.56189 0.0
C1078 C 0.95362 0.45907 0.51185 0.0
C1079 C 0.00279 0.5101 0.52426 0.0
C1080 C 0.93645 0.43534 0.49318 0.0
C1081 C 0.95083 0.43453 0.46784 0.0
C1082 C 0.98531 0.48266 0.5052 0.0
C1083 C 0.98391 0.45693 0.46233 0.0
C1084 C 0.03436 0.53384 0.5176 0.0
C1085 C 0.00492 0.53482 0.56738 0.0
N1086 N -0.00024 0.48032 0.48076 0.0
N1087 N 0.98873 0.51191 0.54882 0.0
H1088 H 0.95244 0.40025 0.30413 0.0
H1089 H 0.09181 0.54769 0.22829 0.0
H1090 H 0.01408 0.4952 0.33952 0.0
H1091 H 0.00523 0.47588 0.19195 0.0
H1092 H 0.07927 0.51421 0.26932 0.0
H1093 H 0.98703 0.41334 0.26352 0.0
C1094 C 0.97425 0.42289 0.30361 0.0
C1095 C 0.98038 0.44673 0.32515 0.0
C1096 C 0.0638 0.50503 0.25219 0.0
C1097 C 0.0196 0.46225 0.27885 0.0
C1098 C 0.07134 0.52383 0.22872 0.0
C1099 C 0.04961 0.51442 0.20673 0.0
C1100 C 0.03445 0.47658 0.25356 0.0
C1101 C 0.02267 0.4839 0.2085 0.0
C1102 C -0.0063 0.43065 0.28039 0.0
C1103 C 0.00845 0.47621 0.32329 0.0
N1104 N 0.01556 0.46638 0.23151 0.0
N1105 N 0.02669 0.48337 0.30054 0.0
H1106 H 0.07668 0.9332 0.30384 0.0
H1107 H 0.94022 0.07717 0.22274 0.0
H1108 H 0.98127 -0.0035 0.33737 0.0
H1109 H 0.98698 0.97087 0.1917 0.0
H1110 H 0.97301 0.06325 0.26391 0.0
H1111 H 0.06156 0.96279 0.26181 0.0
C1112 C 0.05345 0.95434 0.30254 0.0
C1113 C 0.03018 0.96248 0.32406 0.0
C1114 C 0.97676 0.04351 0.24784 0.0
C1115 C 0.01284 -0.00368 0.27628 0.0
C1116 C 0.95836 0.05158 0.22432 0.0
C1117 C 0.96082 0.02505 0.20384 0.0
C1118 C -0.00158 0.00914 0.25064 0.0
C1119 C 0.98422 0.99198 0.20707 0.0
C1120 C 0.04463 0.97089 0.27856 0.0
C1121 C -0.00011 0.98948 0.32121 0.0
N1122 N 0.00199 0.98488 0.23003 0.0
N1123 N 0.99199 0.00533 0.29777 0.0
H1124 H 0.54288 0.09348 0.31067 0.0
H1125 H 0.3987 0.95125 0.23376 0.0
H1126 H 0.47463 0.00369 0.34637 0.0
H1127 H 0.49309 0.01421 0.19893 0.0
H1128 H 0.4115 0.98542 0.27464 0.0
H1129 H 0.50987 0.08004 0.26951 0.0
C1130 C 0.51988 0.07205 0.31008 0.0
C1131 C 0.51139 0.04973 0.33193 0.0
C1132 C 0.42874 0.99245 0.25784 0.0
C1133 C 0.47404 0.03365 0.28496 0.0
C1134 C 0.42115 0.97324 0.23447 0.0
C1135 C 0.4449 0.97991 0.21298 0.0
C1136 C 0.46003 0.01871 0.25958 0.0
C1137 C 0.47416 0.00818 0.2151 0.0
C1138 C 0.50137 0.06402 0.28654 0.0
C1139 C 0.48196 0.0216 0.32994 0.0
N1140 N 0.48111 0.02625 0.23797 0.0
N1141 N 0.46465 0.0141 0.30688 0.0
H1142 H 0.50314 0.48759 0.34176 0.0
H1143 H 0.48359 0.49544 0.19242 0.0
H1144 H 0.40555 0.54375 0.30554 0.0
H1145 H 0.54811 0.40454 0.22998 0.0
H1146 H 0.45032 0.50944 0.23305 0.0
H1147 H 0.51631 0.45268 0.30164 0.0
C1148 C 0.48387 0.49178 0.32547 0.0
C1149 C 0.45318 0.51852 0.32695 0.0
C1150 C 0.47091 0.48569 0.23233 0.0
C1151 C 0.46889 0.47964 0.28059 0.0
C1152 C 0.48978 0.47758 0.2091 0.0
C1153 C 0.51838 0.4486 0.20784 0.0
C1154 C 0.48165 0.46554 0.25474 0.0
C1155 C 0.52588 0.42678 0.23009 0.0
C1156 C 0.49142 0.47187 0.30255 0.0
C1157 C 0.4293 0.52313 0.30525 0.0
N1158 N 0.50827 0.43627 0.25278 0.0
N1159 N 0.43818 0.50456 0.28276 0.0
H1160 H 0.97388 0.50439 0.69065 0.0
H1161 H -0.0062 0.51116 0.84133 0.0
H1162 H 0.04501 0.58883 0.7296 0.0
H1163 H 0.90088 0.44976 0.80353 0.0
H1164 H 0.00705 0.54614 0.80135 0.0
H1165 H 0.94069 0.49045 0.73127 0.0
C1166 C 0.98151 0.52101 0.70766 0.0
C1167 C 0.0119 0.54814 0.70672 0.0
C1168 C 0.98312 0.52578 0.80183 0.0
C1169 C 0.97522 0.53106 0.7537 0.0
C1170 C 0.97542 0.5059 0.82473 0.0
C1171 C 0.94606 0.47767 0.82578 0.0
C1172 C 0.96204 0.51664 0.77945 0.0
C1173 C 0.92348 0.47161 0.80363 0.0
C1174 C 0.96275 0.51283 0.73092 0.0
C1175 C 0.02131 0.56818 0.72941 0.0
N1176 N 0.93245 0.49032 0.78122 0.0
N1177 N 0.00359 0.55869 0.75207 0.0
H1178 H -0.00466 0.97794 0.68976 0.0
H1179 H 0.97852 0.99031 0.83953 0.0
H1180 H 0.90164 0.03916 0.72681 0.0
H1181 H 0.0446 0.90033 0.80209 0.0
H1182 H 0.94445 0.00299 0.79903 0.0
H1183 H 0.00843 0.94342 0.72998 0.0
C1184 C 0.97673 0.9832 0.70623 0.0
C1185 C 0.94726 0.0113 0.70496 0.0
C1186 C 0.96559 0.97973 0.79972 0.0
C1187 C 0.96305 0.97299 0.75148 0.0
C1188 C 0.98494 0.97237 0.82289 0.0
C1189 C 0.01422 0.94408 0.82415 0.0
C1190 C 0.97645 0.95949 0.77735 0.0
C1191 C 0.02189 0.92208 0.80198 0.0
C1192 C 0.98431 0.96359 0.72925 0.0
C1193 C 0.92436 0.01742 0.72693 0.0
N1194 N 0.00373 0.93083 0.77933 0.0
N1195 N 0.93329 -0.00093 0.74946 0.0
H1196 H 0.44861 0.89698 0.73308 0.0
H1197 H 0.59338 0.0373 0.8113 0.0
H1198 H 0.51253 0.99114 0.69882 0.0
H1199 H 0.49814 0.97543 0.84595 0.0
H1200 H 0.57922 0.00471 0.77008 0.0
H1201 H 0.48178 0.90987 0.77432 0.0
C1202 C 0.47063 0.91939 0.734 0.0
C1203 C 0.47792 0.94299 0.71254 0.0
C1204 C 0.56211 -0.00249 0.78691 0.0
C1205 C 0.51563 0.95816 0.75953 0.0
C1206 C 0.57049 0.01577 0.81048 0.0
C1207 C 0.54696 0.00896 0.83205 0.0
C1208 C 0.53025 0.97199 0.78503 0.0
C1209 C 0.51702 0.98142 0.82975 0.0
C1210 C 0.48925 0.92703 0.75757 0.0
C1211 C 0.50612 0.97226 0.71494 0.0
N1212 N 0.50934 0.96421 0.80668 0.0
N1213 N 0.52371 0.97919 0.73798 0.0
H1214 H 0.50864 0.49677 0.83881 0.0
H1215 H 0.47537 0.49217 0.69043 0.0
H1216 H 0.4349 0.58049 0.80137 0.0
H1217 H 0.58108 0.44775 0.72374 0.0
H1218 H 0.46261 0.52814 0.7302 0.0
H1219 H 0.53904 0.48197 0.79728 0.0
C1220 C 0.49984 0.51301 0.82191 0.0
C1221 C 0.46959 0.54022 0.82352 0.0
C1222 C 0.48906 0.51126 0.72869 0.0
C1223 C 0.50292 0.52216 0.77569 0.0
C1224 C 0.49635 0.4907 0.70598 0.0
C1225 C 0.52932 0.46691 0.70381 0.0
C1226 C 0.51429 0.50717 0.74978 0.0
C1227 C 0.55546 0.46593 0.72457 0.0
C1228 C 0.51703 0.50441 0.79818 0.0
C1229 C 0.45857 0.55979 0.80099 0.0
N1230 N 0.54695 0.48505 0.74692 0.0
N1231 N 0.47463 0.54977 0.7779 0.0
loop_
_geom_bond_atom_site_label_1
_geom_bond_atom_site_label_2
_geom_bond_distance
_geom_bond_site_symmetry_2
_ccdc_geom_bond_type
O0 Zn1 1.953 . S
O0 C16 1.225 . S
Zn1 O0 1.953 . S
Zn1 O2 1.949 . S
Zn1 O8 1.919 . S
Zn1 O13 1.924 . S
O2 Zn1 1.949 . S
O2 Zn3 1.923 1_455 S
O2 Zn4 1.950 . S
O2 Zn5 1.945 . S
Zn3 O2 1.923 1_655 S
Zn3 O6 1.933 1_655 S
Zn3 O9 1.941 1_655 S
Zn3 O10 1.965 . S
Zn4 O2 1.950 . S
Zn4 O11 1.938 1_455 S
Zn4 O12 1.906 1_455 S
Zn4 O22 1.953 . S
Zn5 O2 1.945 . S
Zn5 O7 1.932 . S
Zn5 O14 1.977 . S
Zn5 O15 1.910 . S
O6 Zn3 1.933 1_455 S
O6 C17 1.226 . S
O7 Zn5 1.932 . S
O7 C17 1.307 . S
O8 Zn1 1.919 . S
O8 C19 1.253 . S
O9 Zn3 1.941 1_455 S
O9 C19 1.283 . S
O10 Zn3 1.965 . S
O10 C18 1.303 . S
O11 Zn4 1.938 1_655 S
O11 C18 1.247 . S
O12 Zn4 1.906 1_655 S
O12 C20 1.304 1_655 S
O13 Zn1 1.924 . S
O13 C21 1.311 . S
O14 Zn5 1.977 . S
O14 C20 1.272 . S
O15 Zn5 1.910 . S
O15 C21 1.231 . S
C16 O0 1.225 . S
C16 O22 1.298 . S
C17 O6 1.226 . S
C17 O7 1.307 . S
C18 O10 1.303 . S
C18 O11 1.247 . S
C19 O8 1.253 . S
C19 O9 1.283 . S
C20 O12 1.304 1_455 S
C20 O14 1.272 . S
C21 O13 1.311 . S
C21 O15 1.231 . S
O22 Zn4 1.953 . S
O22 C16 1.298 . S
O23 Zn24 1.953 . S
O23 C39 1.225 . S
Zn24 O23 1.953 . S
Zn24 O25 1.949 . S
Zn24 O31 1.919 . S
Zn24 O36 1.924 . S
O25 Zn24 1.949 . S
O25 Zn26 1.923 1_545 S
O25 Zn27 1.950 . S
O25 Zn28 1.945 . S
Zn26 O25 1.923 1_565 S
Zn26 O29 1.933 1_565 S
Zn26 O32 1.941 1_565 S
Zn26 O33 1.965 . S
Zn27 O25 1.950 . S
Zn27 O34 1.938 1_545 S
Zn27 O35 1.906 1_545 S
Zn27 O45 1.953 . S
Zn28 O25 1.945 . S
Zn28 O30 1.932 . S
Zn28 O37 1.977 . S
Zn28 O38 1.910 . S
O29 Zn26 1.933 1_545 S
O29 C40 1.226 . S
O30 Zn28 1.932 . S
O30 C40 1.307 . S
O31 Zn24 1.919 . S
O31 C42 1.253 . S
O32 Zn26 1.941 1_545 S
O32 C42 1.283 . S
O33 Zn26 1.965 . S
O33 C41 1.303 . S
O34 Zn27 1.938 1_565 S
O34 C41 1.247 . S
O35 Zn27 1.906 1_565 S
O35 C43 1.304 1_565 S
O36 Zn24 1.924 . S
O36 C44 1.311 . S
O37 Zn28 1.977 . S
O37 C43 1.272 . S
O38 Zn28 1.910 . S
O38 C44 1.231 . S
C39 O23 1.225 . S
C39 O45 1.298 . S
C40 O29 1.226 . S
C40 O30 1.307 . S
C41 O33 1.303 . S
C41 O34 1.247 . S
C42 O31 1.253 . S
C42 O32 1.283 . S
C43 O35 1.304 1_545 S
C43 O37 1.272 . S
C44 O36 1.311 . S
C44 O38 1.231 . S
O45 Zn27 1.953 . S
O45 C39 1.298 . S
O46 Zn47 1.953 . S
O46 C62 1.225 . S
Zn47 O46 1.953 . S
Zn47 O48 1.949 . S
Zn47 O54 1.919 . S
Zn47 O59 1.924 . S
O48 Zn47 1.949 . S
O48 Zn49 1.923 . S
O48 Zn50 1.950 . S
O48 Zn51 1.945 . S
Zn49 O48 1.923 . S
Zn49 O52 1.933 . S
Zn49 O55 1.941 . S
Zn49 O56 1.965 . S
Zn50 O48 1.950 . S
Zn50 O57 1.938 . S
Zn50 O58 1.906 . S
Zn50 O68 1.953 . S
Zn51 O48 1.945 . S
Zn51 O53 1.932 . S
Zn51 O60 1.977 . S
Zn51 O61 1.910 . S
O52 Zn49 1.933 . S
O52 C63 1.226 . S
O53 Zn51 1.932 . S
O53 C63 1.307 . S
O54 Zn47 1.919 . S
O54 C65 1.253 . S
O55 Zn49 1.941 . S
O55 C65 1.283 . S
O56 Zn49 1.965 . S
O56 C64 1.303 . S
O57 Zn50 1.938 . S
O57 C64 1.247 . S
O58 Zn50 1.906 . S
O58 C66 1.304 . S
O59 Zn47 1.924 . S
O59 C67 1.311 . S
O60 Zn51 1.977 . S
O60 C66 1.272 . S
O61 Zn51 1.910 . S
O61 C67 1.231 . S
C62 O46 1.225 . S
C62 O68 1.298 . S
C63 O52 1.226 . S
C63 O53 1.307 . S
C64 O56 1.303 . S
C64 O57 1.247 . S
C65 O54 1.253 . S
C65 O55 1.283 . S
C66 O58 1.304 . S
C66 O60 1.272 . S
C67 O59 1.311 . S
C67 O61 1.231 . S
O68 Zn50 1.953 . S
O68 C62 1.298 . S
O69 Zn70 1.953 . S
O69 C85 1.225 . S
Zn70 O69 1.953 . S
Zn70 O71 1.949 . S
Zn70 O77 1.919 . S
Zn70 O82 1.924 . S
O71 Zn70 1.949 . S
O71 Zn72 1.923 . S
O71 Zn73 1.950 . S
O71 Zn74 1.945 . S
Zn72 O71 1.923 . S
Zn72 O75 1.933 . S
Zn72 O78 1.941 . S
Zn72 O79 1.965 . S
Zn73 O71 1.950 . S
Zn73 O80 1.938 . S
Zn73 O81 1.906 . S
Zn73 O91 1.953 . S
Zn74 O71 1.945 . S
Zn74 O76 1.932 . S
Zn74 O83 1.977 . S
Zn74 O84 1.910 . S
O75 Zn72 1.933 . S
O75 C86 1.226 . S
O76 Zn74 1.932 . S
O76 C86 1.307 . S
O77 Zn70 1.919 . S
O77 C88 1.253 . S
O78 Zn72 1.941 . S
O78 C88 1.283 . S
O79 Zn72 1.965 . S
O79 C87 1.303 . S
O80 Zn73 1.938 . S
O80 C87 1.247 . S
O81 Zn73 1.906 . S
O81 C89 1.304 . S
O82 Zn70 1.924 . S
O82 C90 1.311 . S
O83 Zn74 1.977 . S
O83 C89 1.272 . S
O84 Zn74 1.910 . S
O84 C90 1.231 . S
C85 O69 1.225 . S
C85 O91 1.298 . S
C86 O75 1.226 . S
C86 O76 1.307 . S
C87 O79 1.303 . S
C87 O80 1.247 . S
C88 O77 1.253 . S
C88 O78 1.283 . S
C89 O81 1.304 . S
C89 O83 1.272 . S
C90 O82 1.311 . S
C90 O84 1.231 . S
O91 Zn73 1.953 . S
O91 C85 1.298 . S
O92 Zn93 1.953 . S
O92 C108 1.225 . S
Zn93 O92 1.953 . S
Zn93 O94 1.949 . S
Zn93 O100 1.919 . S
Zn93 O105 1.924 . S
O94 Zn93 1.949 . S
O94 Zn95 1.923 1_455 S
O94 Zn96 1.950 . S
O94 Zn97 1.945 . S
Zn95 O94 1.923 1_655 S
Zn95 O98 1.933 1_655 S
Zn95 O101 1.941 1_655 S
Zn95 O102 1.965 . S
Zn96 O94 1.950 . S
Zn96 O103 1.938 1_455 S
Zn96 O104 1.906 1_455 S
Zn96 O114 1.953 . S
Zn97 O94 1.945 . S
Zn97 O99 1.932 . S
Zn97 O106 1.977 . S
Zn97 O107 1.910 . S
O98 Zn95 1.933 1_455 S
O98 C109 1.226 . S
O99 Zn97 1.932 . S
O99 C109 1.307 . S
O100 Zn93 1.919 . S
O100 C111 1.253 . S
O101 Zn95 1.941 1_455 S
O101 C111 1.283 . S
O102 Zn95 1.965 . S
O102 C110 1.303 . S
O103 Zn96 1.938 1_655 S
O103 C110 1.247 . S
O104 Zn96 1.906 1_655 S
O104 C112 1.304 1_655 S
O105 Zn93 1.924 . S
O105 C113 1.311 . S
O106 Zn97 1.977 . S
O106 C112 1.272 . S
O107 Zn97 1.910 . S
O107 C113 1.231 . S
C108 O92 1.225 . S
C108 O114 1.298 . S
C109 O98 1.226 . S
C109 O99 1.307 . S
C110 O102 1.303 . S
C110 O103 1.247 . S
C111 O100 1.253 . S
C111 O101 1.283 . S
C112 O104 1.304 1_455 S
C112 O106 1.272 . S
C113 O105 1.311 . S
C113 O107 1.231 . S
O114 Zn96 1.953 . S
O114 C108 1.298 . S
O115 Zn116 1.953 . S
O115 C131 1.225 . S
Zn116 O115 1.953 . S
Zn116 O117 1.949 . S
Zn116 O123 1.919 . S
Zn116 O128 1.924 . S
O117 Zn116 1.949 . S
O117 Zn118 1.923 1_545 S
O117 Zn119 1.950 . S
O117 Zn120 1.945 . S
Zn118 O117 1.923 1_565 S
Zn118 O121 1.933 1_565 S
Zn118 O124 1.941 1_565 S
Zn118 O125 1.965 . S
Zn119 O117 1.950 . S
Zn119 O126 1.938 1_545 S
Zn119 O127 1.906 1_545 S
Zn119 O137 1.953 . S
Zn120 O117 1.945 . S
Zn120 O122 1.932 . S
Zn120 O129 1.977 . S
Zn120 O130 1.910 . S
O121 Zn118 1.933 1_545 S
O121 C132 1.226 . S
O122 Zn120 1.932 . S
O122 C132 1.307 . S
O123 Zn116 1.919 . S
O123 C134 1.253 . S
O124 Zn118 1.941 1_545 S
O124 C134 1.283 . S
O125 Zn118 1.965 . S
O125 C133 1.303 . S
O126 Zn119 1.938 1_565 S
O126 C133 1.247 . S
O127 Zn119 1.906 1_565 S
O127 C135 1.304 1_565 S
O128 Zn116 1.924 . S
O128 C136 1.311 . S
O129 Zn120 1.977 . S
O129 C135 1.272 . S
O130 Zn120 1.910 . S
O130 C136 1.231 . S
C131 O115 1.225 . S
C131 O137 1.298 . S
C132 O121 1.226 . S
C132 O122 1.307 . S
C133 O125 1.303 . S
C133 O126 1.247 . S
C134 O123 1.253 . S
C134 O124 1.283 . S
C135 O127 1.304 1_545 S
C135 O129 1.272 . S
C136 O128 1.311 . S
C136 O130 1.231 . S
O137 Zn119 1.953 . S
O137 C131 1.298 . S
O138 Zn139 1.953 . S
O138 C154 1.225 . S
Zn139 O138 1.953 . S
Zn139 O140 1.949 . S
Zn139 O146 1.919 . S
Zn139 O151 1.924 . S
O140 Zn139 1.949 . S
O140 Zn141 1.923 . S
O140 Zn142 1.950 . S
O140 Zn143 1.945 . S
Zn141 O140 1.923 . S
Zn141 O144 1.933 . S
Zn141 O147 1.941 . S
Zn141 O148 1.965 . S
Zn142 O140 1.950 . S
Zn142 O149 1.938 . S
Zn142 O150 1.906 . S
Zn142 O160 1.953 . S
Zn143 O140 1.945 . S
Zn143 O145 1.932 . S
Zn143 O152 1.977 . S
Zn143 O153 1.910 . S
O144 Zn141 1.933 . S
O144 C155 1.226 . S
O145 Zn143 1.932 . S
O145 C155 1.307 . S
O146 Zn139 1.919 . S
O146 C157 1.253 . S
O147 Zn141 1.941 . S
O147 C157 1.283 . S
O148 Zn141 1.965 . S
O148 C156 1.303 . S
O149 Zn142 1.938 . S
O149 C156 1.247 . S
O150 Zn142 1.906 . S
O150 C158 1.304 . S
O151 Zn139 1.924 . S
O151 C159 1.311 . S
O152 Zn143 1.977 . S
O152 C158 1.272 . S
O153 Zn143 1.910 . S
O153 C159 1.231 . S
C154 O138 1.225 . S
C154 O160 1.298 . S
C155 O144 1.226 . S
C155 O145 1.307 . S
C156 O148 1.303 . S
C156 O149 1.247 . S
C157 O146 1.253 . S
C157 O147 1.283 . S
C158 O150 1.304 . S
C158 O152 1.272 . S
C159 O151 1.311 . S
C159 O153 1.231 . S
O160 Zn142 1.953 . S
O160 C154 1.298 . S
O161 Zn162 1.953 . S
O161 C177 1.225 . S
Zn162 O161 1.953 . S
Zn162 O163 1.949 . S
Zn162 O169 1.919 . S
Zn162 O174 1.924 . S
O163 Zn162 1.949 . S
O163 Zn164 1.923 . S
O163 Zn165 1.950 . S
O163 Zn166 1.945 . S
Zn164 O163 1.923 . S
Zn164 O167 1.933 . S
Zn164 O170 1.941 . S
Zn164 O171 1.965 . S
Zn165 O163 1.950 . S
Zn165 O172 1.938 . S
Zn165 O173 1.906 . S
Zn165 O183 1.953 . S
Zn166 O163 1.945 . S
Zn166 O168 1.932 . S
Zn166 O175 1.977 . S
Zn166 O176 1.910 . S
O167 Zn164 1.933 . S
O167 C178 1.226 . S
O168 Zn166 1.932 . S
O168 C178 1.307 . S
O169 Zn162 1.919 . S
O169 C180 1.253 . S
O170 Zn164 1.941 . S
O170 C180 1.283 . S
O171 Zn164 1.965 . S
O171 C179 1.303 . S
O172 Zn165 1.938 . S
O172 C179 1.247 . S
O173 Zn165 1.906 . S
O173 C181 1.304 . S
O174 Zn162 1.924 . S
O174 C182 1.311 . S
O175 Zn166 1.977 . S
O175 C181 1.272 . S
O176 Zn166 1.910 . S
O176 C182 1.231 . S
C177 O161 1.225 . S
C177 O183 1.298 . S
C178 O167 1.226 . S
C178 O168 1.307 . S
C179 O171 1.303 . S
C179 O172 1.247 . S
C180 O169 1.253 . S
C180 O170 1.283 . S
C181 O173 1.304 . S
C181 O175 1.272 . S
C182 O174 1.311 . S
C182 O176 1.231 . S
O183 Zn165 1.953 . S
O183 C177 1.298 . S
O184 Zn185 1.953 . S
O184 C200 1.225 . S
Zn185 O184 1.953 . S
Zn185 O186 1.949 . S
Zn185 O192 1.919 . S
Zn185 O197 1.924 . S
O186 Zn185 1.949 . S
O186 Zn187 1.923 1_655 S
O186 Zn188 1.950 . S
O186 Zn189 1.945 . S
Zn187 O186 1.923 1_455 S
Zn187 O190 1.933 1_455 S
Zn187 O193 1.941 1_455 S
Zn187 O194 1.965 . S
Zn188 O186 1.950 . S
Zn188 O195 1.938 1_655 S
Zn188 O196 1.906 1_655 S
Zn188 O206 1.953 . S
Zn189 O186 1.945 . S
Zn189 O191 1.932 . S
Zn189 O198 1.977 . S
Zn189 O199 1.910 . S
O190 Zn187 1.933 1_655 S
O190 C201 1.226 . S
O191 Zn189 1.932 . S
O191 C201 1.307 . S
O192 Zn185 1.919 . S
O192 C203 1.253 . S
O193 Zn187 1.941 1_655 S
O193 C203 1.283 . S
O194 Zn187 1.965 . S
O194 C202 1.303 . S
O195 Zn188 1.938 1_455 S
O195 C202 1.247 . S
O196 Zn188 1.906 1_455 S
O196 C204 1.304 1_455 S
O197 Zn185 1.924 . S
O197 C205 1.311 . S
O198 Zn189 1.977 . S
O198 C204 1.272 . S
O199 Zn189 1.910 . S
O199 C205 1.231 . S
C200 O184 1.225 . S
C200 O206 1.298 . S
C201 O190 1.226 . S
C201 O191 1.307 . S
C202 O194 1.303 . S
C202 O195 1.247 . S
C203 O192 1.253 . S
C203 O193 1.283 . S
C204 O196 1.304 1_655 S
C204 O198 1.272 . S
C205 O197 1.311 . S
C205 O199 1.231 . S
O206 Zn188 1.953 . S
O206 C200 1.298 . S
O207 Zn208 1.953 . S
O207 C223 1.225 . S
Zn208 O207 1.953 . S
Zn208 O209 1.949 . S
Zn208 O215 1.919 . S
Zn208 O220 1.924 . S
O209 Zn208 1.949 . S
O209 Zn210 1.923 1_565 S
O209 Zn211 1.950 . S
O209 Zn212 1.945 . S
Zn210 O209 1.923 1_545 S
Zn210 O213 1.933 1_545 S
Zn210 O216 1.941 1_545 S
Zn210 O217 1.965 . S
Zn211 O209 1.950 . S
Zn211 O218 1.938 1_565 S
Zn211 O219 1.906 1_565 S
Zn211 O229 1.953 . S
Zn212 O209 1.945 . S
Zn212 O214 1.932 . S
Zn212 O221 1.977 . S
Zn212 O222 1.910 . S
O213 Zn210 1.933 1_565 S
O213 C224 1.226 . S
O214 Zn212 1.932 . S
O214 C224 1.307 . S
O215 Zn208 1.919 . S
O215 C226 1.253 . S
O216 Zn210 1.941 1_565 S
O216 C226 1.283 . S
O217 Zn210 1.965 . S
O217 C225 1.303 . S
O218 Zn211 1.938 1_545 S
O218 C225 1.247 . S
O219 Zn211 1.906 1_545 S
O219 C227 1.304 1_545 S
O220 Zn208 1.924 . S
O220 C228 1.311 . S
O221 Zn212 1.977 . S
O221 C227 1.272 . S
O222 Zn212 1.910 . S
O222 C228 1.231 . S
C223 O207 1.225 . S
C223 O229 1.298 . S
C224 O213 1.226 . S
C224 O214 1.307 . S
C225 O217 1.303 . S
C225 O218 1.247 . S
C226 O215 1.253 . S
C226 O216 1.283 . S
C227 O219 1.304 1_565 S
C227 O221 1.272 . S
C228 O220 1.311 . S
C228 O222 1.231 . S
O229 Zn211 1.953 . S
O229 C223 1.298 . S
O230 Zn231 1.953 . S
O230 C246 1.225 . S
Zn231 O230 1.953 . S
Zn231 O232 1.949 . S
Zn231 O238 1.919 . S
Zn231 O243 1.924 . S
O232 Zn231 1.949 . S
O232 Zn233 1.923 . S
O232 Zn234 1.950 . S
O232 Zn235 1.945 . S
Zn233 O232 1.923 . S
Zn233 O236 1.933 . S
Zn233 O239 1.941 . S
Zn233 O240 1.965 . S
Zn234 O232 1.950 . S
Zn234 O241 1.938 . S
Zn234 O242 1.906 . S
Zn234 O252 1.953 . S
Zn235 O232 1.945 . S
Zn235 O237 1.932 . S
Zn235 O244 1.977 . S
Zn235 O245 1.910 . S
O236 Zn233 1.933 . S
O236 C247 1.226 . S
O237 Zn235 1.932 . S
O237 C247 1.307 . S
O238 Zn231 1.919 . S
O238 C249 1.253 . S
O239 Zn233 1.941 . S
O239 C249 1.283 . S
O240 Zn233 1.965 . S
O240 C248 1.303 . S
O241 Zn234 1.938 . S
O241 C248 1.247 . S
O242 Zn234 1.906 . S
O242 C250 1.304 . S
O243 Zn231 1.924 . S
O243 C251 1.311 . S
O244 Zn235 1.977 . S
O244 C250 1.272 . S
O245 Zn235 1.910 . S
O245 C251 1.231 . S
C246 O230 1.225 . S
C246 O252 1.298 . S
C247 O236 1.226 . S
C247 O237 1.307 . S
C248 O240 1.303 . S
C248 O241 1.247 . S
C249 O238 1.253 . S
C249 O239 1.283 . S
C250 O242 1.304 . S
C250 O244 1.272 . S
C251 O243 1.311 . S
C251 O245 1.231 . S
O252 Zn234 1.953 . S
O252 C246 1.298 . S
O253 Zn254 1.953 . S
O253 C269 1.225 . S
Zn254 O253 1.953 . S
Zn254 O255 1.949 . S
Zn254 O261 1.919 . S
Zn254 O266 1.924 . S
O255 Zn254 1.949 . S
O255 Zn256 1.923 . S
O255 Zn257 1.950 . S
O255 Zn258 1.945 . S
Zn256 O255 1.923 . S
Zn256 O259 1.933 . S
Zn256 O262 1.941 . S
Zn256 O263 1.965 . S
Zn257 O255 1.950 . S
Zn257 O264 1.938 . S
Zn257 O265 1.906 . S
Zn257 O275 1.953 . S
Zn258 O255 1.945 . S
Zn258 O260 1.932 . S
Zn258 O267 1.977 . S
Zn258 O268 1.910 . S
O259 Zn256 1.933 . S
O259 C270 1.226 . S
O260 Zn258 1.932 . S
O260 C270 1.307 . S
O261 Zn254 1.919 . S
O261 C272 1.253 . S
O262 Zn256 1.941 . S
O262 C272 1.283 . S
O263 Zn256 1.965 . S
O263 C271 1.303 . S
O264 Zn257 1.938 . S
O264 C271 1.247 . S
O265 Zn257 1.906 . S
O265 C273 1.304 . S
O266 Zn254 1.924 . S
O266 C274 1.311 . S
O267 Zn258 1.977 . S
O267 C273 1.272 . S
O268 Zn258 1.910 . S
O268 C274 1.231 . S
C269 O253 1.225 . S
C269 O275 1.298 . S
C270 O259 1.226 . S
C270 O260 1.307 . S
C271 O263 1.303 . S
C271 O264 1.247 . S
C272 O261 1.253 . S
C272 O262 1.283 . S
C273 O265 1.304 . S
C273 O267 1.272 . S
C274 O266 1.311 . S
C274 O268 1.231 . S
O275 Zn257 1.953 . S
O275 C269 1.298 . S
O276 Zn277 1.953 . S
O276 C292 1.225 . S
Zn277 O276 1.953 . S
Zn277 O278 1.949 . S
Zn277 O284 1.919 . S
Zn277 O289 1.924 . S
O278 Zn277 1.949 . S
O278 Zn279 1.923 1_655 S
O278 Zn280 1.950 . S
O278 Zn281 1.945 . S
Zn279 O278 1.923 1_455 S
Zn279 O282 1.933 1_455 S
Zn279 O285 1.941 1_455 S
Zn279 O286 1.965 . S
Zn280 O278 1.950 . S
Zn280 O287 1.938 1_655 S
Zn280 O288 1.906 1_655 S
Zn280 O298 1.953 . S
Zn281 O278 1.945 . S
Zn281 O283 1.932 . S
Zn281 O290 1.977 . S
Zn281 O291 1.910 . S
O282 Zn279 1.933 1_655 S
O282 C293 1.226 . S
O283 Zn281 1.932 . S
O283 C293 1.307 . S
O284 Zn277 1.919 . S
O284 C295 1.253 . S
O285 Zn279 1.941 1_655 S
O285 C295 1.283 . S
O286 Zn279 1.965 . S
O286 C294 1.303 . S
O287 Zn280 1.938 1_455 S
O287 C294 1.247 . S
O288 Zn280 1.906 1_455 S
O288 C296 1.304 1_455 S
O289 Zn277 1.924 . S
O289 C297 1.311 . S
O290 Zn281 1.977 . S
O290 C296 1.272 . S
O291 Zn281 1.910 . S
O291 C297 1.231 . S
C292 O276 1.225 . S
C292 O298 1.298 . S
C293 O282 1.226 . S
C293 O283 1.307 . S
C294 O286 1.303 . S
C294 O287 1.247 . S
C295 O284 1.253 . S
C295 O285 1.283 . S
C296 O288 1.304 1_655 S
C296 O290 1.272 . S
C297 O289 1.311 . S
C297 O291 1.231 . S
O298 Zn280 1.953 . S
O298 C292 1.298 . S
O299 Zn300 1.953 . S
O299 C315 1.225 . S
Zn300 O299 1.953 . S
Zn300 O301 1.949 . S
Zn300 O307 1.919 . S
Zn300 O312 1.924 . S
O301 Zn300 1.949 . S
O301 Zn302 1.923 1_565 S
O301 Zn303 1.950 . S
O301 Zn304 1.945 . S
Zn302 O301 1.923 1_545 S
Zn302 O305 1.933 1_545 S
Zn302 O308 1.941 1_545 S
Zn302 O309 1.965 . S
Zn303 O301 1.950 . S
Zn303 O310 1.938 1_565 S
Zn303 O311 1.906 1_565 S
Zn303 O321 1.953 . S
Zn304 O301 1.945 . S
Zn304 O306 1.932 . S
Zn304 O313 1.977 . S
Zn304 O314 1.910 . S
O305 Zn302 1.933 1_565 S
O305 C316 1.226 . S
O306 Zn304 1.932 . S
O306 C316 1.307 . S
O307 Zn300 1.919 . S
O307 C318 1.253 . S
O308 Zn302 1.941 1_565 S
O308 C318 1.283 . S
O309 Zn302 1.965 . S
O309 C317 1.303 . S
O310 Zn303 1.938 1_545 S
O310 C317 1.247 . S
O311 Zn303 1.906 1_545 S
O311 C319 1.304 1_545 S
O312 Zn300 1.924 . S
O312 C320 1.311 . S
O313 Zn304 1.977 . S
O313 C319 1.272 . S
O314 Zn304 1.910 . S
O314 C320 1.231 . S
C315 O299 1.225 . S
C315 O321 1.298 . S
C316 O305 1.226 . S
C316 O306 1.307 . S
C317 O309 1.303 . S
C317 O310 1.247 . S
C318 O307 1.253 . S
C318 O308 1.283 . S
C319 O311 1.304 1_565 S
C319 O313 1.272 . S
C320 O312 1.311 . S
C320 O314 1.231 . S
O321 Zn303 1.953 . S
O321 C315 1.298 . S
O322 Zn323 1.953 . S
O322 C338 1.225 . S
Zn323 O322 1.953 . S
Zn323 O324 1.949 . S
Zn323 O330 1.919 . S
Zn323 O335 1.924 . S
O324 Zn323 1.949 . S
O324 Zn325 1.923 . S
O324 Zn326 1.950 . S
O324 Zn327 1.945 . S
Zn325 O324 1.923 . S
Zn325 O328 1.933 . S
Zn325 O331 1.941 . S
Zn325 O332 1.965 . S
Zn326 O324 1.950 . S
Zn326 O333 1.938 . S
Zn326 O334 1.906 . S
Zn326 O344 1.953 . S
Zn327 O324 1.945 . S
Zn327 O329 1.932 . S
Zn327 O336 1.977 . S
Zn327 O337 1.910 . S
O328 Zn325 1.933 . S
O328 C339 1.226 . S
O329 Zn327 1.932 . S
O329 C339 1.307 . S
O330 Zn323 1.919 . S
O330 C341 1.253 . S
O331 Zn325 1.941 . S
O331 C341 1.283 . S
O332 Zn325 1.965 . S
O332 C340 1.303 . S
O333 Zn326 1.938 . S
O333 C340 1.247 . S
O334 Zn326 1.906 . S
O334 C342 1.304 . S
O335 Zn323 1.924 . S
O335 C343 1.311 . S
O336 Zn327 1.977 . S
O336 C342 1.272 . S
O337 Zn327 1.910 . S
O337 C343 1.231 . S
C338 O322 1.225 . S
C338 O344 1.298 . S
C339 O328 1.226 . S
C339 O329 1.307 . S
C340 O332 1.303 . S
C340 O333 1.247 . S
C341 O330 1.253 . S
C341 O331 1.283 . S
C342 O334 1.304 . S
C342 O336 1.272 . S
C343 O335 1.311 . S
C343 O337 1.231 . S
O344 Zn326 1.953 . S
O344 C338 1.298 . S
O345 Zn346 1.953 . S
O345 C361 1.225 . S
Zn346 O345 1.953 . S
Zn346 O347 1.949 . S
Zn346 O353 1.919 . S
Zn346 O358 1.924 . S
O347 Zn346 1.949 . S
O347 Zn348 1.923 . S
O347 Zn349 1.950 . S
O347 Zn350 1.945 . S
Zn348 O347 1.923 . S
Zn348 O351 1.933 . S
Zn348 O354 1.941 . S
Zn348 O355 1.965 . S
Zn349 O347 1.950 . S
Zn349 O356 1.938 . S
Zn349 O357 1.906 . S
Zn349 O367 1.953 . S
Zn350 O347 1.945 . S
Zn350 O352 1.932 . S
Zn350 O359 1.977 . S
Zn350 O360 1.910 . S
O351 Zn348 1.933 . S
O351 C362 1.226 . S
O352 Zn350 1.932 . S
O352 C362 1.307 . S
O353 Zn346 1.919 . S
O353 C364 1.253 . S
O354 Zn348 1.941 . S
O354 C364 1.283 . S
O355 Zn348 1.965 . S
O355 C363 1.303 . S
O356 Zn349 1.938 . S
O356 C363 1.247 . S
O357 Zn349 1.906 . S
O357 C365 1.304 . S
O358 Zn346 1.924 . S
O358 C366 1.311 . S
O359 Zn350 1.977 . S
O359 C365 1.272 . S
O360 Zn350 1.910 . S
O360 C366 1.231 . S
C361 O345 1.225 . S
C361 O367 1.298 . S
C362 O351 1.226 . S
C362 O352 1.307 . S
C363 O355 1.303 . S
C363 O356 1.247 . S
C364 O353 1.253 . S
C364 O354 1.283 . S
C365 O357 1.304 . S
C365 O359 1.272 . S
C366 O358 1.311 . S
C366 O360 1.231 . S
O367 Zn349 1.953 . S
O367 C361 1.298 . S
H368 C374 0.930 . S
H369 C378 0.930 . S
H370 C383 0.929 . S
H371 C381 0.929 . S
H372 C376 0.929 . S
H373 C382 0.929 . S
C374 H368 0.930 . S
C374 C375 1.367 . S
C374 C382 1.378 . S
C375 C374 1.367 . S
C375 C383 1.433 . S
C376 H372 0.929 . S
C376 C378 1.378 . S
C376 C380 1.350 . S
C377 C380 1.463 . S
C377 C382 1.350 . S
C377 N385 1.427 . S
C378 H369 0.930 . S
C378 C376 1.378 . S
C378 C379 1.367 . S
C379 C378 1.367 . S
C379 C381 1.433 . S
C380 C376 1.350 . S
C380 C377 1.463 . S
C380 N384 1.427 . S
C381 H371 0.929 . S
C381 C379 1.433 . S
C381 N384 1.384 . S
C382 H373 0.929 . S
C382 C374 1.378 . S
C382 C377 1.350 . S
C383 H370 0.929 . S
C383 C375 1.433 . S
C383 N385 1.384 . S
N384 C380 1.427 . S
N384 C381 1.384 . S
N385 C377 1.427 . S
N385 C383 1.384 . S
H386 C392 0.930 . S
H387 C396 0.930 . S
H388 C401 0.929 . S
H389 C399 0.929 . S
H390 C394 0.929 . S
H391 C400 0.929 . S
C392 H386 0.930 . S
C392 C393 1.367 1_655 S
C392 C400 1.378 . S
C393 C392 1.367 1_455 S
C393 C401 1.433 . S
C394 H390 0.929 . S
C394 C396 1.378 . S
C394 C398 1.350 . S
C395 C398 1.463 . S
C395 C400 1.350 . S
C395 N403 1.427 . S
C396 H387 0.930 . S
C396 C394 1.378 . S
C396 C397 1.367 . S
C397 C396 1.367 . S
C397 C399 1.433 . S
C398 C394 1.350 . S
C398 C395 1.463 . S
C398 N402 1.427 . S
C399 H389 0.929 . S
C399 C397 1.433 . S
C399 N402 1.384 . S
C400 H391 0.929 . S
C400 C392 1.378 . S
C400 C395 1.350 . S
C401 H388 0.929 . S
C401 C393 1.433 . S
C401 N403 1.384 1_455 S
N402 C398 1.427 . S
N402 C399 1.384 . S
N403 C395 1.427 . S
N403 C401 1.384 1_655 S
H404 C410 0.930 . S
H405 C414 0.930 . S
H406 C419 0.929 . S
H407 C417 0.929 . S
H408 C412 0.929 . S
H409 C418 0.929 . S
C410 H404 0.930 . S
C410 C411 1.367 . S
C410 C418 1.378 . S
C411 C410 1.367 . S
C411 C419 1.433 . S
C412 H408 0.929 . S
C412 C414 1.378 . S
C412 C416 1.350 . S
C413 C416 1.463 . S
C413 C418 1.350 . S
C413 N421 1.427 . S
C414 H405 0.930 . S
C414 C412 1.378 . S
C414 C415 1.367 1_565 S
C415 C414 1.367 1_545 S
C415 C417 1.433 . S
C416 C412 1.350 . S
C416 C413 1.463 . S
C416 N420 1.427 . S
C417 H407 0.929 . S
C417 C415 1.433 . S
C417 N420 1.384 1_545 S
C418 H409 0.929 . S
C418 C410 1.378 . S
C418 C413 1.350 . S
C419 H406 0.929 . S
C419 C411 1.433 . S
C419 N421 1.384 . S
N420 C416 1.427 . S
N420 C417 1.384 1_565 S
N421 C413 1.427 . S
N421 C419 1.384 . S
H422 C428 0.930 . S
H423 C432 0.930 . S
H424 C437 0.929 . S
H425 C435 0.929 . S
H426 C430 0.929 . S
H427 C436 0.929 . S
C428 H422 0.930 . S
C428 C429 1.367 . S
C428 C436 1.378 . S
C429 C428 1.367 . S
C429 C437 1.433 . S
C430 H426 0.929 . S
C430 C432 1.378 . S
C430 C434 1.350 . S
C431 C434 1.463 . S
C431 C436 1.350 . S
C431 N439 1.427 . S
C432 H423 0.930 . S
C432 C430 1.378 . S
C432 C433 1.367 . S
C433 C432 1.367 . S
C433 C435 1.433 . S
C434 C430 1.350 . S
C434 C431 1.463 . S
C434 N438 1.427 . S
C435 H425 0.929 . S
C435 C433 1.433 . S
C435 N438 1.384 . S
C436 H427 0.929 . S
C436 C428 1.378 . S
C436 C431 1.350 . S
C437 H424 0.929 . S
C437 C429 1.433 . S
C437 N439 1.384 . S
N438 C434 1.427 . S
N438 C435 1.384 . S
N439 C431 1.427 . S
N439 C437 1.384 . S
H440 C446 0.930 . S
H441 C450 0.930 . S
H442 C455 0.929 . S
H443 C453 0.929 . S
H444 C448 0.929 . S
H445 C454 0.929 . S
C446 H440 0.930 . S
C446 C447 1.367 . S
C446 C454 1.378 . S
C447 C446 1.367 . S
C447 C455 1.433 . S
C448 H444 0.929 . S
C448 C450 1.378 . S
C448 C452 1.350 . S
C449 C452 1.463 . S
C449 C454 1.350 . S
C449 N457 1.427 . S
C450 H441 0.930 . S
C450 C448 1.378 . S
C450 C451 1.367 1_565 S
C451 C450 1.367 1_545 S
C451 C453 1.433 . S
C452 C448 1.350 . S
C452 C449 1.463 . S
C452 N456 1.427 1_565 S
C453 H443 0.929 . S
C453 C451 1.433 . S
C453 N456 1.384 . S
C454 H445 0.929 . S
C454 C446 1.378 . S
C454 C449 1.350 . S
C455 H442 0.929 . S
C455 C447 1.433 . S
C455 N457 1.384 . S
N456 C452 1.427 1_545 S
N456 C453 1.384 . S
N457 C449 1.427 . S
N457 C455 1.384 . S
H458 C464 0.930 . S
H459 C468 0.930 . S
H460 C473 0.929 . S
H461 C471 0.929 . S
H462 C466 0.929 . S
H463 C472 0.929 . S
C464 H458 0.930 . S
C464 C465 1.367 . S
C464 C472 1.378 . S
C465 C464 1.367 . S
C465 C473 1.433 . S
C466 H462 0.929 . S
C466 C468 1.378 . S
C466 C470 1.350 . S
C467 C470 1.463 . S
C467 C472 1.350 . S
C467 N475 1.427 . S
C468 H459 0.930 . S
C468 C466 1.378 . S
C468 C469 1.367 . S
C469 C468 1.367 . S
C469 C471 1.433 . S
C470 C466 1.350 . S
C470 C467 1.463 . S
C470 N474 1.427 . S
C471 H461 0.929 . S
C471 C469 1.433 . S
C471 N474 1.384 . S
C472 H463 0.929 . S
C472 C464 1.378 . S
C472 C467 1.350 . S
C473 H460 0.929 . S
C473 C465 1.433 . S
C473 N475 1.384 . S
N474 C470 1.427 . S
N474 C471 1.384 . S
N475 C467 1.427 . S
N475 C473 1.384 . S
H476 C482 0.930 . S
H477 C486 0.930 . S
H478 C491 0.929 . S
H479 C489 0.929 . S
H480 C484 0.929 . S
H481 C490 0.929 . S
C482 H476 0.930 . S
C482 C483 1.367 . S
C482 C490 1.378 . S
C483 C482 1.367 . S
C483 C491 1.433 . S
C484 H480 0.929 . S
C484 C486 1.378 . S
C484 C488 1.350 . S
C485 C488 1.463 . S
C485 C490 1.350 . S
C485 N493 1.427 . S
C486 H477 0.930 . S
C486 C484 1.378 . S
C486 C487 1.367 . S
C487 C486 1.367 . S
C487 C489 1.433 . S
C488 C484 1.350 . S
C488 C485 1.463 . S
C488 N492 1.427 . S
C489 H479 0.929 . S
C489 C487 1.433 . S
C489 N492 1.384 . S
C490 H481 0.929 . S
C490 C482 1.378 . S
C490 C485 1.350 . S
C491 H478 0.929 . S
C491 C483 1.433 . S
C491 N493 1.384 . S
N492 C488 1.427 . S
N492 C489 1.384 . S
N493 C485 1.427 . S
N493 C491 1.384 . S
H494 C500 0.930 . S
H495 C504 0.930 . S
H496 C509 0.929 . S
H497 C507 0.929 . S
H498 C502 0.929 . S
H499 C508 0.929 . S
C500 H494 0.930 . S
C500 C501 1.367 1_655 S
C500 C508 1.378 . S
C501 C500 1.367 1_455 S
C501 C509 1.433 . S
C502 H498 0.929 . S
C502 C504 1.378 . S
C502 C506 1.350 . S
C503 C506 1.463 . S
C503 C508 1.350 . S
C503 N511 1.427 1_655 S
C504 H495 0.930 . S
C504 C502 1.378 . S
C504 C505 1.367 . S
C505 C504 1.367 . S
C505 C507 1.433 . S
C506 C502 1.350 . S
C506 C503 1.463 . S
C506 N510 1.427 . S
C507 H497 0.929 . S
C507 C505 1.433 . S
C507 N510 1.384 . S
C508 H499 0.929 . S
C508 C500 1.378 . S
C508 C503 1.350 . S
C509 H496 0.929 . S
C509 C501 1.433 . S
C509 N511 1.384 . S
N510 C506 1.427 . S
N510 C507 1.384 . S
N511 C503 1.427 1_455 S
N511 C509 1.384 . S
H512 C518 0.930 . S
H513 C522 0.930 . S
H514 C527 0.929 . S
H515 C525 0.929 . S
H516 C520 0.929 . S
H517 C526 0.929 . S
C518 H512 0.930 . S
C518 C519 1.367 . S
C518 C526 1.378 . S
C519 C518 1.367 . S
C519 C527 1.433 . S
C520 H516 0.929 . S
C520 C522 1.378 . S
C520 C524 1.350 . S
C521 C524 1.463 . S
C521 C526 1.350 . S
C521 N529 1.427 . S
C522 H513 0.930 . S
C522 C520 1.378 . S
C522 C523 1.367 . S
C523 C522 1.367 . S
C523 C525 1.433 . S
C524 C520 1.350 . S
C524 C521 1.463 . S
C524 N528 1.427 . S
C525 H515 0.929 . S
C525 C523 1.433 . S
C525 N528 1.384 . S
C526 H517 0.929 . S
C526 C518 1.378 . S
C526 C521 1.350 . S
C527 H514 0.929 . S
C527 C519 1.433 . S
C527 N529 1.384 . S
N528 C524 1.427 . S
N528 C525 1.384 . S
N529 C521 1.427 . S
N529 C527 1.384 . S
H530 C536 0.930 . S
H531 C540 0.930 . S
H532 C545 0.929 . S
H533 C543 0.929 . S
H534 C538 0.929 . S
H535 C544 0.929 . S
C536 H530 0.930 . S
C536 C537 1.367 . S
C536 C544 1.378 . S
C537 C536 1.367 . S
C537 C545 1.433 1_655 S
C538 H534 0.929 . S
C538 C540 1.378 . S
C538 C542 1.350 . S
C539 C542 1.463 . S
C539 C544 1.350 1_455 S
C539 N547 1.427 . S
C540 H531 0.930 . S
C540 C538 1.378 . S
C540 C541 1.367 . S
C541 C540 1.367 . S
C541 C543 1.433 . S
C542 C538 1.350 . S
C542 C539 1.463 . S
C542 N546 1.427 . S
C543 H533 0.929 . S
C543 C541 1.433 . S
C543 N546 1.384 . S
C544 H535 0.929 . S
C544 C536 1.378 . S
C544 C539 1.350 1_655 S
C545 H532 0.929 . S
C545 C537 1.433 1_455 S
C545 N547 1.384 . S
N546 C542 1.427 . S
N546 C543 1.384 . S
N547 C539 1.427 . S
N547 C545 1.384 . S
H548 C554 0.930 . S
H549 C558 0.930 . S
H550 C563 0.929 . S
H551 C561 0.929 . S
H552 C556 0.929 . S
H553 C562 0.929 . S
C554 H548 0.930 . S
C554 C555 1.367 1_545 S
C554 C562 1.378 . S
C555 C554 1.367 1_565 S
C555 C563 1.433 . S
C556 H552 0.929 . S
C556 C558 1.378 . S
C556 C560 1.350 . S
C557 C560 1.463 . S
C557 C562 1.350 . S
C557 N565 1.427 . S
C558 H549 0.930 . S
C558 C556 1.378 . S
C558 C559 1.367 . S
C559 C558 1.367 . S
C559 C561 1.433 . S
C560 C556 1.350 . S
C560 C557 1.463 . S
C560 N564 1.427 . S
C561 H551 0.929 . S
C561 C559 1.433 . S
C561 N564 1.384 . S
C562 H553 0.929 . S
C562 C554 1.378 . S
C562 C557 1.350 . S
C563 H550 0.929 . S
C563 C555 1.433 . S
C563 N565 1.384 1_565 S
N564 C560 1.427 . S
N564 C561 1.384 . S
N565 C557 1.427 . S
N565 C563 1.384 1_545 S
H566 C572 0.930 . S
H567 C576 0.930 . S
H568 C581 0.929 . S
H569 C579 0.929 . S
H570 C574 0.929 . S
H571 C580 0.929 . S
C572 H566 0.930 . S
C572 C573 1.367 . S
C572 C580 1.378 . S
C573 C572 1.367 . S
C573 C581 1.433 . S
C574 H570 0.929 . S
C574 C576 1.378 . S
C574 C578 1.350 . S
C575 C578 1.463 . S
C575 C580 1.350 . S
C575 N583 1.427 . S
C576 H567 0.930 . S
C576 C574 1.378 . S
C576 C577 1.367 . S
C577 C576 1.367 . S
C577 C579 1.433 . S
C578 C574 1.350 . S
C578 C575 1.463 . S
C578 N582 1.427 . S
C579 H569 0.929 . S
C579 C577 1.433 . S
C579 N582 1.384 . S
C580 H571 0.929 . S
C580 C572 1.378 . S
C580 C575 1.350 . S
C581 H568 0.929 . S
C581 C573 1.433 . S
C581 N583 1.384 . S
N582 C578 1.427 . S
N582 C579 1.384 . S
N583 C575 1.427 . S
N583 C581 1.384 . S
H584 C590 0.930 . S
H585 C594 0.930 . S
H586 C599 0.929 . S
H587 C597 0.929 . S
H588 C592 0.929 . S
H589 C598 0.929 . S
C590 H584 0.930 . S
C590 C591 1.367 . S
C590 C598 1.378 . S
C591 C590 1.367 . S
C591 C599 1.433 . S
C592 H588 0.929 . S
C592 C594 1.378 . S
C592 C596 1.350 . S
C593 C596 1.463 . S
C593 C598 1.350 . S
C593 N601 1.427 . S
C594 H585 0.930 . S
C594 C592 1.378 . S
C594 C595 1.367 1_545 S
C595 C594 1.367 1_565 S
C595 C597 1.433 . S
C596 C592 1.350 . S
C596 C593 1.463 . S
C596 N600 1.427 . S
C597 H587 0.929 . S
C597 C595 1.433 . S
C597 N600 1.384 1_565 S
C598 H589 0.929 . S
C598 C590 1.378 . S
C598 C593 1.350 . S
C599 H586 0.929 . S
C599 C591 1.433 . S
C599 N601 1.384 . S
N600 C596 1.427 . S
N600 C597 1.384 1_545 S
N601 C593 1.427 . S
N601 C599 1.384 . S
H602 C608 0.930 . S
H603 C612 0.930 . S
H604 C617 0.929 . S
H605 C615 0.929 . S
H606 C610 0.929 . S
H607 C616 0.929 . S
C608 H602 0.930 . S
C608 C609 1.367 . S
C608 C616 1.378 . S
C609 C608 1.367 . S
C609 C617 1.433 . S
C610 H606 0.929 . S
C610 C612 1.378 . S
C610 C614 1.350 . S
C611 C614 1.463 . S
C611 C616 1.350 . S
C611 N619 1.427 . S
C612 H603 0.930 . S
C612 C610 1.378 . S
C612 C613 1.367 . S
C613 C612 1.367 . S
C613 C615 1.433 . S
C614 C610 1.350 . S
C614 C611 1.463 . S
C614 N618 1.427 . S
C615 H605 0.929 . S
C615 C613 1.433 . S
C615 N618 1.384 . S
C616 H607 0.929 . S
C616 C608 1.378 . S
C616 C611 1.350 . S
C617 H604 0.929 . S
C617 C609 1.433 . S
C617 N619 1.384 . S
N618 C614 1.427 . S
N618 C615 1.384 . S
N619 C611 1.427 . S
N619 C617 1.384 . S
H620 C626 0.930 . S
H621 C630 0.930 . S
H622 C635 0.929 . S
H623 C633 0.929 . S
H624 C628 0.929 . S
H625 C634 0.929 . S
C626 H620 0.930 . S
C626 C627 1.367 . S
C626 C634 1.378 . S
C627 C626 1.367 . S
C627 C635 1.433 . S
C628 H624 0.929 . S
C628 C630 1.378 . S
C628 C632 1.350 . S
C629 C632 1.463 . S
C629 C634 1.350 . S
C629 N637 1.427 . S
C630 H621 0.930 . S
C630 C628 1.378 . S
C630 C631 1.367 . S
C631 C630 1.367 . S
C631 C633 1.433 . S
C632 C628 1.350 . S
C632 C629 1.463 . S
C632 N636 1.427 . S
C633 H623 0.929 . S
C633 C631 1.433 . S
C633 N636 1.384 . S
C634 H625 0.929 . S
C634 C626 1.378 . S
C634 C629 1.350 . S
C635 H622 0.929 . S
C635 C627 1.433 . S
C635 N637 1.384 . S
N636 C632 1.427 . S
N636 C633 1.384 . S
N637 C629 1.427 . S
N637 C635 1.384 . S
H638 C644 0.930 . S
H639 C648 0.930 . S
H640 C653 0.929 . S
H641 C651 0.929 . S
H642 C646 0.925 1_655 S
H643 C652 0.929 . S
C644 H638 0.930 . S
C644 C645 1.367 . S
C644 C652 1.378 . S
C645 C644 1.367 . S
C645 C653 1.433 . S
C646 H642 0.925 1_455 S
C646 C648 1.378 1_455 S
C646 C650 1.350 . S
C647 C650 1.463 . S
C647 C652 1.350 . S
C647 N655 1.427 . S
C648 H639 0.930 . S
C648 C646 1.378 1_655 S
C648 C649 1.367 . S
C649 C648 1.367 . S
C649 C651 1.433 1_655 S
C650 C646 1.350 . S
C650 C647 1.463 . S
C650 N654 1.427 . S
C651 H641 0.929 . S
C651 C649 1.433 1_455 S
C651 N654 1.384 . S
C652 H643 0.929 . S
C652 C644 1.378 . S
C652 C647 1.350 . S
C653 H640 0.929 . S
C653 C645 1.433 . S
C653 N655 1.384 . S
N654 C650 1.427 . S
N654 C651 1.384 . S
N655 C647 1.427 . S
N655 C653 1.384 . S
H656 C662 0.930 . S
H657 C666 0.930 . S
H658 C671 0.929 . S
H659 C669 0.929 . S
H660 C664 0.929 . S
H661 C670 0.929 . S
C662 H656 0.930 . S
C662 C663 1.367 . S
C662 C670 1.378 . S
C663 C662 1.367 . S
C663 C671 1.433 1_455 S
C664 H660 0.929 . S
C664 C666 1.378 . S
C664 C668 1.350 1_655 S
C665 C668 1.463 . S
C665 C670 1.350 . S
C665 N673 1.427 1_455 S
C666 H657 0.930 . S
C666 C664 1.378 . S
C666 C667 1.367 1_655 S
C667 C666 1.367 1_455 S
C667 C669 1.433 . S
C668 C664 1.350 1_455 S
C668 C665 1.463 . S
C668 N672 1.427 . S
C669 H659 0.929 . S
C669 C667 1.433 . S
C669 N672 1.384 . S
C670 H661 0.929 . S
C670 C662 1.378 . S
C670 C665 1.350 . S
C671 H658 0.929 . S
C671 C663 1.433 1_655 S
C671 N673 1.384 . S
N672 C668 1.427 . S
N672 C669 1.384 . S
N673 C665 1.427 1_655 S
N673 C671 1.384 . S
H674 C680 0.930 . S
H675 C684 0.930 . S
H676 C689 0.929 . S
H677 C687 0.929 . S
H678 C682 0.929 . S
H679 C688 0.929 . S
C680 H674 0.930 . S
C680 C681 1.367 . S
C680 C688 1.378 . S
C681 C680 1.367 . S
C681 C689 1.433 . S
C682 H678 0.929 . S
C682 C684 1.378 . S
C682 C686 1.350 . S
C683 C686 1.463 . S
C683 C688 1.350 . S
C683 N691 1.427 . S
C684 H675 0.930 . S
C684 C682 1.378 . S
C684 C685 1.367 . S
C685 C684 1.367 . S
C685 C687 1.433 . S
C686 C682 1.350 . S
C686 C683 1.463 . S
C686 N690 1.427 . S
C687 H677 0.929 . S
C687 C685 1.433 . S
C687 N690 1.384 . S
C688 H679 0.929 . S
C688 C680 1.378 . S
C688 C683 1.350 . S
C689 H676 0.929 . S
C689 C681 1.433 . S
C689 N691 1.384 . S
N690 C686 1.427 . S
N690 C687 1.384 . S
N691 C683 1.427 . S
N691 C689 1.384 . S
H692 C698 0.930 . S
H693 C702 0.930 . S
H694 C707 0.929 . S
H695 C705 0.929 . S
H696 C700 0.929 . S
H697 C706 0.929 . S
C698 H692 0.930 . S
C698 C699 1.367 . S
C698 C706 1.378 . S
C699 C698 1.367 . S
C699 C707 1.433 . S
C700 H696 0.929 . S
C700 C702 1.378 . S
C700 C704 1.350 . S
C701 C704 1.463 . S
C701 C706 1.350 . S
C701 N709 1.427 . S
C702 H693 0.930 . S
C702 C700 1.378 . S
C702 C703 1.367 . S
C703 C702 1.367 . S
C703 C705 1.433 . S
C704 C700 1.350 . S
C704 C701 1.463 . S
C704 N708 1.427 . S
C705 H695 0.929 . S
C705 C703 1.433 . S
C705 N708 1.384 . S
C706 H697 0.929 . S
C706 C698 1.378 . S
C706 C701 1.350 . S
C707 H694 0.929 . S
C707 C699 1.433 . S
C707 N709 1.384 . S
N708 C704 1.427 . S
N708 C705 1.384 . S
N709 C701 1.427 . S
N709 C707 1.384 . S
H710 C716 0.930 . S
H711 C720 0.930 . S
H712 C725 0.929 . S
H713 C723 0.929 . S
H714 C718 0.929 . S
H715 C724 0.929 . S
C716 H710 0.930 . S
C716 C717 1.367 . S
C716 C724 1.378 . S
C717 C716 1.367 . S
C717 C725 1.433 . S
C718 H714 0.929 . S
C718 C720 1.378 . S
C718 C722 1.350 . S
C719 C722 1.463 . S
C719 C724 1.350 . S
C719 N727 1.427 . S
C720 H711 0.930 . S
C720 C718 1.378 . S
C720 C721 1.367 . S
C721 C720 1.367 . S
C721 C723 1.433 . S
C722 C718 1.350 . S
C722 C719 1.463 . S
C722 N726 1.427 . S
C723 H713 0.929 . S
C723 C721 1.433 . S
C723 N726 1.384 . S
C724 H715 0.929 . S
C724 C716 1.378 . S
C724 C719 1.350 . S
C725 H712 0.929 . S
C725 C717 1.433 . S
C725 N727 1.384 . S
N726 C722 1.427 . S
N726 C723 1.384 . S
N727 C719 1.427 . S
N727 C725 1.384 . S
H728 C734 0.930 . S
H729 C738 0.930 . S
H730 C743 0.929 . S
H731 C741 0.929 . S
H732 C736 0.929 . S
H733 C742 0.929 . S
C734 H728 0.930 . S
C734 C735 1.367 . S
C734 C742 1.378 . S
C735 C734 1.367 . S
C735 C743 1.433 . S
C736 H732 0.929 . S
C736 C738 1.378 . S
C736 C740 1.350 . S
C737 C740 1.463 . S
C737 C742 1.350 . S
C737 N745 1.427 . S
C738 H729 0.930 . S
C738 C736 1.378 . S
C738 C739 1.367 . S
C739 C738 1.367 . S
C739 C741 1.433 . S
C740 C736 1.350 . S
C740 C737 1.463 . S
C740 N744 1.427 . S
C741 H731 0.929 . S
C741 C739 1.433 . S
C741 N744 1.384 . S
C742 H733 0.929 . S
C742 C734 1.378 . S
C742 C737 1.350 . S
C743 H730 0.929 . S
C743 C735 1.433 . S
C743 N745 1.384 . S
N744 C740 1.427 . S
N744 C741 1.384 . S
N745 C737 1.427 . S
N745 C743 1.384 . S
H746 C752 0.930 . S
H747 C756 0.930 . S
H748 C761 0.929 . S
H749 C759 0.929 . S
H750 C754 0.929 . S
H751 C760 0.929 . S
C752 H746 0.930 . S
C752 C753 1.367 1_545 S
C752 C760 1.378 . S
C753 C752 1.367 1_565 S
C753 C761 1.433 . S
C754 H750 0.929 . S
C754 C756 1.378 . S
C754 C758 1.350 . S
C755 C758 1.463 . S
C755 C760 1.350 1_565 S
C755 N763 1.427 . S
C756 H747 0.930 . S
C756 C754 1.378 . S
C756 C757 1.367 . S
C757 C756 1.367 . S
C757 C759 1.433 1_565 S
C758 C754 1.350 . S
C758 C755 1.463 . S
C758 N762 1.427 1_565 S
C759 H749 0.929 . S
C759 C757 1.433 1_545 S
C759 N762 1.384 . S
C760 H751 0.929 . S
C760 C752 1.378 . S
C760 C755 1.350 1_545 S
C761 H748 0.929 . S
C761 C753 1.433 . S
C761 N763 1.384 . S
N762 C758 1.427 1_545 S
N762 C759 1.384 . S
N763 C755 1.427 . S
N763 C761 1.384 . S
H764 C770 0.930 . S
H765 C774 0.930 . S
H766 C779 0.929 . S
H767 C777 0.929 . S
H768 C772 0.929 . S
H769 C778 0.929 . S
C770 H764 0.930 . S
C770 C771 1.367 . S
C770 C778 1.378 . S
C771 C770 1.367 . S
C771 C779 1.433 . S
C772 H768 0.929 . S
C772 C774 1.378 . S
C772 C776 1.350 . S
C773 C776 1.463 . S
C773 C778 1.350 . S
C773 N781 1.427 . S
C774 H765 0.930 . S
C774 C772 1.378 . S
C774 C775 1.367 . S
C775 C774 1.367 . S
C775 C777 1.433 . S
C776 C772 1.350 . S
C776 C773 1.463 . S
C776 N780 1.427 . S
C777 H767 0.929 . S
C777 C775 1.433 . S
C777 N780 1.384 . S
C778 H769 0.929 . S
C778 C770 1.378 . S
C778 C773 1.350 . S
C779 H766 0.929 . S
C779 C771 1.433 . S
C779 N781 1.384 . S
N780 C776 1.427 . S
N780 C777 1.384 . S
N781 C773 1.427 . S
N781 C779 1.384 . S
H782 C788 0.930 . S
H783 C792 0.930 . S
H784 C797 0.929 . S
H785 C795 0.929 . S
H786 C790 0.929 . S
H787 C796 0.929 . S
C788 H782 0.930 . S
C788 C789 1.367 . S
C788 C796 1.378 . S
C789 C788 1.367 . S
C789 C797 1.433 . S
C790 H786 0.929 . S
C790 C792 1.378 . S
C790 C794 1.350 . S
C791 C794 1.463 . S
C791 C796 1.350 . S
C791 N799 1.427 . S
C792 H783 0.930 . S
C792 C790 1.378 . S
C792 C793 1.367 . S
C793 C792 1.367 . S
C793 C795 1.433 . S
C794 C790 1.350 . S
C794 C791 1.463 . S
C794 N798 1.427 . S
C795 H785 0.929 . S
C795 C793 1.433 . S
C795 N798 1.384 . S
C796 H787 0.929 . S
C796 C788 1.378 . S
C796 C791 1.350 . S
C797 H784 0.929 . S
C797 C789 1.433 . S
C797 N799 1.384 . S
N798 C794 1.427 . S
N798 C795 1.384 . S
N799 C791 1.427 . S
N799 C797 1.384 . S
H800 C806 0.930 . S
H801 C810 0.930 . S
H802 C815 0.929 . S
H803 C813 0.929 . S
H804 C808 0.929 . S
H805 C814 0.929 . S
C806 H800 0.930 . S
C806 C807 1.367 . S
C806 C814 1.378 . S
C807 C806 1.367 . S
C807 C815 1.433 . S
C808 H804 0.929 . S
C808 C810 1.378 . S
C808 C812 1.350 . S
C809 C812 1.463 . S
C809 C814 1.350 . S
C809 N817 1.427 . S
C810 H801 0.930 . S
C810 C808 1.378 . S
C810 C811 1.367 . S
C811 C810 1.367 . S
C811 C813 1.433 . S
C812 C808 1.350 . S
C812 C809 1.463 . S
C812 N816 1.427 . S
C813 H803 0.929 . S
C813 C811 1.433 . S
C813 N816 1.384 . S
C814 H805 0.929 . S
C814 C806 1.378 . S
C814 C809 1.350 . S
C815 H802 0.929 . S
C815 C807 1.433 . S
C815 N817 1.384 . S
N816 C812 1.427 . S
N816 C813 1.384 . S
N817 C809 1.427 . S
N817 C815 1.384 . S
H818 C824 0.930 . S
H819 C828 0.930 . S
H820 C833 0.929 . S
H821 C831 0.929 . S
H822 C826 0.929 . S
H823 C832 0.929 . S
C824 H818 0.930 . S
C824 C825 1.367 . S
C824 C832 1.378 . S
C825 C824 1.367 . S
C825 C833 1.433 . S
C826 H822 0.929 . S
C826 C828 1.378 . S
C826 C830 1.350 . S
C827 C830 1.463 . S
C827 C832 1.350 . S
C827 N835 1.427 . S
C828 H819 0.930 . S
C828 C826 1.378 . S
C828 C829 1.367 . S
C829 C828 1.367 . S
C829 C831 1.433 . S
C830 C826 1.350 . S
C830 C827 1.463 . S
C830 N834 1.427 . S
C831 H821 0.929 . S
C831 C829 1.433 . S
C831 N834 1.384 . S
C832 H823 0.929 . S
C832 C824 1.378 . S
C832 C827 1.350 . S
C833 H820 0.929 . S
C833 C825 1.433 . S
C833 N835 1.384 . S
N834 C830 1.427 . S
N834 C831 1.384 . S
N835 C827 1.427 . S
N835 C833 1.384 . S
H836 C842 0.930 . S
H837 C846 0.930 . S
H838 C851 0.929 . S
H839 C849 0.929 . S
H840 C844 0.929 . S
H841 C850 0.929 . S
C842 H836 0.930 . S
C842 C843 1.367 . S
C842 C850 1.378 . S
C843 C842 1.367 . S
C843 C851 1.433 . S
C844 H840 0.929 . S
C844 C846 1.378 . S
C844 C848 1.350 . S
C845 C848 1.463 . S
C845 C850 1.350 . S
C845 N853 1.427 . S
C846 H837 0.930 . S
C846 C844 1.378 . S
C846 C847 1.367 . S
C847 C846 1.367 . S
C847 C849 1.433 . S
C848 C844 1.350 . S
C848 C845 1.463 . S
C848 N852 1.427 . S
C849 H839 0.929 . S
C849 C847 1.433 . S
C849 N852 1.384 . S
C850 H841 0.929 . S
C850 C842 1.378 . S
C850 C845 1.350 . S
C851 H838 0.929 . S
C851 C843 1.433 . S
C851 N853 1.384 . S
N852 C848 1.427 . S
N852 C849 1.384 . S
N853 C845 1.427 . S
N853 C851 1.384 . S
H854 C860 0.930 . S
H855 C864 0.930 . S
H856 C869 0.929 . S
H857 C867 0.929 . S
H858 C862 0.929 . S
H859 C868 0.929 . S
C860 H854 0.930 . S
C860 C861 1.367 . S
C860 C868 1.378 . S
C861 C860 1.367 . S
C861 C869 1.433 . S
C862 H858 0.929 . S
C862 C864 1.378 . S
C862 C866 1.350 . S
C863 C866 1.463 . S
C863 C868 1.350 . S
C863 N871 1.427 . S
C864 H855 0.930 . S
C864 C862 1.378 . S
C864 C865 1.367 . S
C865 C864 1.367 . S
C865 C867 1.433 . S
C866 C862 1.350 . S
C866 C863 1.463 . S
C866 N870 1.427 . S
C867 H857 0.929 . S
C867 C865 1.433 . S
C867 N870 1.384 . S
C868 H859 0.929 . S
C868 C860 1.378 . S
C868 C863 1.350 . S
C869 H856 0.929 . S
C869 C861 1.433 . S
C869 N871 1.384 . S
N870 C866 1.427 . S
N870 C867 1.384 . S
N871 C863 1.427 . S
N871 C869 1.384 . S
H872 C878 0.930 . S
H873 C882 0.930 . S
H874 C887 0.929 . S
H875 C885 0.929 . S
H876 C880 0.929 . S
H877 C886 0.929 . S
C878 H872 0.930 . S
C878 C879 1.367 . S
C878 C886 1.378 . S
C879 C878 1.367 . S
C879 C887 1.433 . S
C880 H876 0.929 . S
C880 C882 1.378 . S
C880 C884 1.350 . S
C881 C884 1.463 . S
C881 C886 1.350 . S
C881 N889 1.427 . S
C882 H873 0.930 . S
C882 C880 1.378 . S
C882 C883 1.367 . S
C883 C882 1.367 . S
C883 C885 1.433 . S
C884 C880 1.350 . S
C884 C881 1.463 . S
C884 N888 1.427 . S
C885 H875 0.929 . S
C885 C883 1.433 . S
C885 N888 1.384 . S
C886 H877 0.929 . S
C886 C878 1.378 . S
C886 C881 1.350 . S
C887 H874 0.929 . S
C887 C879 1.433 . S
C887 N889 1.384 . S
N888 C884 1.427 . S
N888 C885 1.384 . S
N889 C881 1.427 . S
N889 C887 1.384 . S
H890 C896 0.930 . S
H891 C900 0.930 . S
H892 C905 0.929 . S
H893 C903 0.929 . S
H894 C898 0.929 . S
H895 C904 0.929 . S
C896 H890 0.930 . S
C896 C897 1.367 . S
C896 C904 1.378 . S
C897 C896 1.367 . S
C897 C905 1.433 . S
C898 H894 0.929 . S
C898 C900 1.378 . S
C898 C902 1.350 . S
C899 C902 1.463 . S
C899 C904 1.350 . S
C899 N907 1.427 . S
C900 H891 0.930 . S
C900 C898 1.378 . S
C900 C901 1.367 . S
C901 C900 1.367 . S
C901 C903 1.433 . S
C902 C898 1.350 . S
C902 C899 1.463 . S
C902 N906 1.427 . S
C903 H893 0.929 . S
C903 C901 1.433 . S
C903 N906 1.384 . S
C904 H895 0.929 . S
C904 C896 1.378 . S
C904 C899 1.350 . S
C905 H892 0.929 . S
C905 C897 1.433 . S
C905 N907 1.384 . S
N906 C902 1.427 . S
N906 C903 1.384 . S
N907 C899 1.427 . S
N907 C905 1.384 . S
H908 C914 0.930 . S
H909 C918 0.930 . S
H910 C923 0.929 . S
H911 C921 0.929 . S
H912 C916 0.929 . S
H913 C922 0.929 . S
C914 H908 0.930 . S
C914 C915 1.367 . S
C914 C922 1.378 . S
C915 C914 1.367 . S
C915 C923 1.433 . S
C916 H912 0.929 . S
C916 C918 1.378 . S
C916 C920 1.350 . S
C917 C920 1.463 . S
C917 C922 1.350 . S
C917 N925 1.427 . S
C918 H909 0.930 . S
C918 C916 1.378 . S
C918 C919 1.367 . S
C919 C918 1.367 . S
C919 C921 1.433 . S
C920 C916 1.350 . S
C920 C917 1.463 . S
C920 N924 1.427 . S
C921 H911 0.929 . S
C921 C919 1.433 . S
C921 N924 1.384 . S
C922 H913 0.929 . S
C922 C914 1.378 . S
C922 C917 1.350 . S
C923 H910 0.929 . S
C923 C915 1.433 . S
C923 N925 1.384 . S
N924 C920 1.427 . S
N924 C921 1.384 . S
N925 C917 1.427 . S
N925 C923 1.384 . S
H926 C932 0.930 . S
H927 C936 0.930 . S
H928 C941 0.929 . S
H929 C939 0.929 . S
H930 C934 0.929 . S
H931 C940 0.929 . S
C932 H926 0.930 . S
C932 C933 1.367 . S
C932 C940 1.378 . S
C933 C932 1.367 . S
C933 C941 1.433 . S
C934 H930 0.929 . S
C934 C936 1.378 . S
C934 C938 1.350 . S
C935 C938 1.463 . S
C935 C940 1.350 . S
C935 N943 1.427 . S
C936 H927 0.930 . S
C936 C934 1.378 . S
C936 C937 1.367 . S
C937 C936 1.367 . S
C937 C939 1.433 . S
C938 C934 1.350 . S
C938 C935 1.463 . S
C938 N942 1.427 . S
C939 H929 0.929 . S
C939 C937 1.433 . S
C939 N942 1.384 . S
C940 H931 0.929 . S
C940 C932 1.378 . S
C940 C935 1.350 . S
C941 H928 0.929 . S
C941 C933 1.433 . S
C941 N943 1.384 . S
N942 C938 1.427 . S
N942 C939 1.384 . S
N943 C935 1.427 . S
N943 C941 1.384 . S
H944 C950 0.941 . S
H945 C954 0.941 . S
H946 C959 0.929 . S
H947 C957 0.929 . S
H948 C952 0.929 . S
H949 C958 0.929 . S
C950 H944 0.941 . S
C950 C951 1.350 1_455 S
C950 C958 1.385 . S
C951 C950 1.350 1_655 S
C951 C959 1.433 . S
C952 H948 0.929 . S
C952 C954 1.385 . S
C952 C956 1.350 1_655 S
C953 C956 1.463 1_656 S
C953 C958 1.350 1_655 S
C953 N961 1.427 . S
C954 H945 0.941 . S
C954 C952 1.385 . S
C954 C955 1.350 1_655 S
C955 C954 1.350 1_455 S
C955 C957 1.433 . S
C956 C952 1.350 1_455 S
C956 C953 1.463 1_454 S
C956 N960 1.427 . S
C957 H947 0.929 . S
C957 C955 1.433 . S
C957 N960 1.384 . S
C958 H949 0.929 . S
C958 C950 1.385 . S
C958 C953 1.350 1_455 S
C959 H946 0.929 . S
C959 C951 1.433 . S
C959 N961 1.384 . S
N960 C956 1.427 . S
N960 C957 1.384 . S
N961 C953 1.427 . S
N961 C959 1.384 . S
H962 C968 0.930 . S
H963 C972 0.930 . S
H964 C977 0.927 1_545 S
H965 C975 0.927 1_565 S
H966 C970 0.929 1_556 S
H967 C976 0.929 1_554 S
C968 H962 0.930 . S
C968 C969 1.367 . S
C968 C976 1.378 . S
C969 C968 1.367 . S
C969 C977 1.433 . S
C970 H966 0.929 1_554 S
C970 C972 1.378 . S
C970 C974 1.350 . S
C971 C974 1.463 1_466 S
C971 C976 1.350 . S
C971 N979 1.427 1_565 S
C972 H963 0.930 . S
C972 C970 1.378 . S
C972 C973 1.367 . S
C973 C972 1.367 . S
C973 C975 1.433 . S
C974 C970 1.350 . S
C974 C971 1.463 1_644 S
C974 N978 1.427 1_545 S
C975 H965 0.927 1_545 S
C975 C973 1.433 . S
C975 N978 1.384 1_545 S
C976 H967 0.929 1_556 S
C976 C968 1.378 . S
C976 C971 1.350 . S
C977 H964 0.927 1_565 S
C977 C969 1.433 . S
C977 N979 1.384 1_565 S
N978 C974 1.427 1_565 S
N978 C975 1.384 1_565 S
N979 C971 1.427 1_545 S
N979 C977 1.384 1_545 S
H980 C986 0.930 . S
H981 C990 0.930 . S
H982 C995 0.929 . S
H983 C993 0.929 . S
H984 C988 0.929 . S
H985 C994 0.929 . S
C986 H980 0.930 . S
C986 C987 1.367 . S
C986 C994 1.378 1_545 S
C987 C986 1.367 . S
C987 C995 1.433 . S
C988 H984 0.929 . S
C988 C990 1.378 1_545 S
C988 C992 1.350 1_545 S
C989 C992 1.463 1_546 S
C989 C994 1.350 1_545 S
C989 N997 1.427 . S
C990 H981 0.930 . S
C990 C988 1.378 1_565 S
C990 C991 1.367 . S
C991 C990 1.367 . S
C991 C993 1.433 . S
C992 C988 1.350 1_565 S
C992 C989 1.463 1_564 S
C992 N996 1.427 . S
C993 H983 0.929 . S
C993 C991 1.433 . S
C993 N996 1.384 . S
C994 H985 0.929 . S
C994 C986 1.378 1_565 S
C994 C989 1.350 1_565 S
C995 H982 0.929 . S
C995 C987 1.433 . S
C995 N997 1.384 . S
N996 C992 1.427 . S
N996 C993 1.384 . S
N997 C989 1.427 . S
N997 C995 1.384 . S
H998 C1004 0.930 . S
H999 C1008 0.930 . S
H1000 C1013 0.929 . S
H1001 C1011 0.929 . S
H1002 C1006 0.929 . S
H1003 C1012 0.929 . S
C1004 H998 0.930 . S
C1004 C1005 1.367 . S
C1004 C1012 1.378 . S
C1005 C1004 1.367 . S
C1005 C1013 1.433 . S
C1006 H1002 0.929 . S
C1006 C1008 1.378 . S
C1006 C1010 1.350 . S
C1007 C1010 1.463 1_554 S
C1007 C1012 1.350 . S
C1007 N1015 1.427 . S
C1008 H999 0.930 . S
C1008 C1006 1.378 . S
C1008 C1009 1.367 . S
C1009 C1008 1.367 . S
C1009 C1011 1.433 . S
C1010 C1006 1.350 . S
C1010 C1007 1.463 1_556 S
C1010 N1014 1.427 . S
C1011 H1001 0.929 . S
C1011 C1009 1.433 . S
C1011 N1014 1.384 . S
C1012 H1003 0.929 . S
C1012 C1004 1.378 . S
C1012 C1007 1.350 . S
C1013 H1000 0.929 . S
C1013 C1005 1.433 . S
C1013 N1015 1.384 . S
N1014 C1010 1.427 . S
N1014 C1011 1.384 . S
N1015 C1007 1.427 . S
N1015 C1013 1.384 . S
H1016 C1022 0.930 1_455 S
H1017 C1026 0.930 1_655 S
H1018 C1031 0.929 . S
H1019 C1029 0.929 . S
H1020 C1024 0.929 . S
H1021 C1030 0.929 . S
C1022 H1016 0.930 1_655 S
C1022 C1023 1.367 . S
C1022 C1030 1.378 1_655 S
C1023 C1022 1.367 . S
C1023 C1031 1.433 . S
C1024 H1020 0.929 . S
C1024 C1026 1.378 1_655 S
C1024 C1028 1.350 1_655 S
C1025 C1028 1.463 1_645 S
C1025 C1030 1.350 1_655 S
C1025 N1033 1.428 . S
C1026 H1017 0.930 1_455 S
C1026 C1024 1.378 1_455 S
C1026 C1027 1.367 . S
C1027 C1026 1.367 . S
C1027 C1029 1.433 . S
C1028 C1024 1.350 1_455 S
C1028 C1025 1.463 1_465 S
C1028 N1032 1.428 . S
C1029 H1019 0.929 . S
C1029 C1027 1.433 . S
C1029 N1032 1.385 . S
C1030 H1021 0.929 . S
C1030 C1022 1.378 1_455 S
C1030 C1025 1.350 1_455 S
C1031 H1018 0.929 . S
C1031 C1023 1.433 . S
C1031 N1033 1.385 . S
N1032 C1028 1.428 . S
N1032 C1029 1.385 . S
N1033 C1025 1.428 . S
N1033 C1031 1.385 . S
H1034 C1040 0.930 . S
H1035 C1044 0.930 . S
H1036 C1049 0.929 . S
H1037 C1047 0.929 . S
H1038 C1042 0.929 . S
H1039 C1048 0.929 . S
C1040 H1034 0.930 . S
C1040 C1041 1.367 1_545 S
C1040 C1048 1.378 . S
C1041 C1040 1.367 1_565 S
C1041 C1049 1.433 . S
C1042 H1038 0.929 . S
C1042 C1044 1.378 . S
C1042 C1046 1.350 1_565 S
C1043 C1046 1.463 1_565 S
C1043 C1048 1.350 1_565 S
C1043 N1051 1.427 . S
C1044 H1035 0.930 . S
C1044 C1042 1.378 . S
C1044 C1045 1.367 1_565 S
C1045 C1044 1.367 1_545 S
C1045 C1047 1.433 . S
C1046 C1042 1.350 1_545 S
C1046 C1043 1.463 1_545 S
C1046 N1050 1.427 . S
C1047 H1037 0.929 . S
C1047 C1045 1.433 . S
C1047 N1050 1.384 . S
C1048 H1039 0.929 . S
C1048 C1040 1.378 . S
C1048 C1043 1.350 1_545 S
C1049 H1036 0.929 . S
C1049 C1041 1.433 . S
C1049 N1051 1.384 . S
N1050 C1046 1.427 . S
N1050 C1047 1.384 . S
N1051 C1043 1.427 . S
N1051 C1049 1.384 . S
H1052 C1058 0.930 . S
H1053 C1062 0.930 . S
H1054 C1067 0.929 . S
H1055 C1065 0.929 . S
H1056 C1060 0.929 . S
H1057 C1066 0.929 . S
C1058 H1052 0.930 . S
C1058 C1059 1.367 . S
C1058 C1066 1.378 . S
C1059 C1058 1.367 . S
C1059 C1067 1.433 . S
C1060 H1056 0.929 . S
C1060 C1062 1.378 . S
C1060 C1064 1.350 . S
C1061 C1064 1.463 . S
C1061 C1066 1.350 . S
C1061 N1069 1.427 . S
C1062 H1053 0.930 . S
C1062 C1060 1.378 . S
C1062 C1063 1.367 . S
C1063 C1062 1.367 . S
C1063 C1065 1.433 . S
C1064 C1060 1.350 . S
C1064 C1061 1.463 . S
C1064 N1068 1.427 . S
C1065 H1055 0.929 . S
C1065 C1063 1.433 . S
C1065 N1068 1.384 . S
C1066 H1057 0.929 . S
C1066 C1058 1.378 . S
C1066 C1061 1.350 . S
C1067 H1054 0.929 . S
C1067 C1059 1.433 . S
C1067 N1069 1.384 . S
N1068 C1064 1.427 . S
N1068 C1065 1.384 . S
N1069 C1061 1.427 . S
N1069 C1067 1.384 . S
H1070 C1076 0.930 . S
H1071 C1080 0.930 . S
H1072 C1085 0.929 . S
H1073 C1083 0.929 . S
H1074 C1078 0.929 . S
H1075 C1084 0.929 . S
C1076 H1070 0.930 . S
C1076 C1077 1.367 . S
C1076 C1084 1.378 . S
C1077 C1076 1.367 . S
C1077 C1085 1.433 . S
C1078 H1074 0.929 . S
C1078 C1080 1.378 . S
C1078 C1082 1.350 . S
C1079 C1082 1.463 1_455 S
C1079 C1084 1.350 . S
C1079 N1087 1.427 . S
C1080 H1071 0.930 . S
C1080 C1078 1.378 . S
C1080 C1081 1.367 . S
C1081 C1080 1.367 . S
C1081 C1083 1.433 . S
C1082 C1078 1.350 . S
C1082 C1079 1.463 1_655 S
C1082 N1086 1.427 . S
C1083 H1073 0.929 . S
C1083 C1081 1.433 . S
C1083 N1086 1.384 . S
C1084 H1075 0.929 . S
C1084 C1076 1.378 . S
C1084 C1079 1.350 . S
C1085 H1072 0.929 . S
C1085 C1077 1.433 . S
C1085 N1087 1.384 . S
N1086 C1082 1.427 . S
N1086 C1083 1.384 . S
N1087 C1079 1.427 . S
N1087 C1085 1.384 . S
H1088 C1094 0.930 . S
H1089 C1098 0.930 . S
H1090 C1103 0.929 1_455 S
H1091 C1101 0.929 1_655 S
H1092 C1096 0.929 . S
H1093 C1102 0.929 . S
C1094 H1088 0.930 . S
C1094 C1095 1.367 . S
C1094 C1102 1.378 . S
C1095 C1094 1.367 . S
C1095 C1103 1.433 . S
C1096 H1092 0.929 . S
C1096 C1098 1.378 . S
C1096 C1100 1.350 . S
C1097 C1100 1.463 1_655 S
C1097 C1102 1.350 . S
C1097 N1105 1.427 1_655 S
C1098 H1089 0.930 . S
C1098 C1096 1.378 . S
C1098 C1099 1.367 . S
C1099 C1098 1.367 . S
C1099 C1101 1.433 . S
C1100 C1096 1.350 . S
C1100 C1097 1.463 1_455 S
C1100 N1104 1.427 1_455 S
C1101 H1091 0.929 1_455 S
C1101 C1099 1.433 . S
C1101 N1104 1.384 1_455 S
C1102 H1093 0.929 . S
C1102 C1094 1.378 . S
C1102 C1097 1.350 . S
C1103 H1090 0.929 1_655 S
C1103 C1095 1.433 . S
C1103 N1105 1.384 1_655 S
N1104 C1100 1.427 1_655 S
N1104 C1101 1.384 1_655 S
N1105 C1097 1.427 1_455 S
N1105 C1103 1.384 1_455 S
H1106 C1112 0.929 1_545 S
H1107 C1116 0.930 . S
H1108 C1121 0.929 1_655 S
H1109 C1119 0.929 . S
H1110 C1114 0.927 . S
H1111 C1120 0.929 . S
C1112 H1106 0.929 1_565 S
C1112 C1113 1.367 . S
C1112 C1120 1.378 1_565 S
C1113 C1112 1.367 . S
C1113 C1121 1.433 . S
C1114 H1110 0.927 . S
C1114 C1116 1.379 1_565 S
C1114 C1118 1.351 1_565 S
C1115 C1118 1.463 1_465 S
C1115 C1120 1.350 1_565 S
C1115 N1123 1.427 1_455 S
C1116 H1107 0.930 . S
C1116 C1114 1.379 1_545 S
C1116 C1117 1.367 . S
C1117 C1116 1.367 . S
C1117 C1119 1.433 1_655 S
C1118 C1114 1.351 1_545 S
C1118 C1115 1.463 1_645 S
C1118 N1122 1.427 1_655 S
C1119 H1109 0.929 . S
C1119 C1117 1.433 1_455 S
C1119 N1122 1.384 . S
C1120 H1111 0.929 . S
C1120 C1112 1.378 1_545 S
C1120 C1115 1.350 1_545 S
C1121 H1108 0.929 1_455 S
C1121 C1113 1.433 . S
C1121 N1123 1.384 1_455 S
N1122 C1118 1.427 1_455 S
N1122 C1119 1.384 . S
N1123 C1115 1.427 1_655 S
N1123 C1121 1.384 1_655 S
H1124 C1130 0.930 . S
H1125 C1134 0.930 . S
H1126 C1139 0.929 1_565 S
H1127 C1137 0.929 . S
H1128 C1132 0.929 . S
H1129 C1138 0.929 . S
C1130 H1124 0.930 . S
C1130 C1131 1.367 . S
C1130 C1138 1.378 . S
C1131 C1130 1.367 . S
C1131 C1139 1.433 . S
C1132 H1128 0.929 . S
C1132 C1134 1.378 . S
C1132 C1136 1.350 . S
C1133 C1136 1.463 1_545 S
C1133 C1138 1.350 . S
C1133 N1141 1.427 1_545 S
C1134 H1125 0.930 . S
C1134 C1132 1.378 . S
C1134 C1135 1.367 . S
C1135 C1134 1.367 . S
C1135 C1137 1.433 1_565 S
C1136 C1132 1.350 . S
C1136 C1133 1.463 1_565 S
C1136 N1140 1.427 1_565 S
C1137 H1127 0.929 . S
C1137 C1135 1.433 1_545 S
C1137 N1140 1.384 . S
C1138 H1129 0.929 . S
C1138 C1130 1.378 . S
C1138 C1133 1.350 . S
C1139 H1126 0.929 1_545 S
C1139 C1131 1.433 . S
C1139 N1141 1.384 1_545 S
N1140 C1136 1.427 1_545 S
N1140 C1137 1.384 . S
N1141 C1133 1.427 1_565 S
N1141 C1139 1.384 1_565 S
H1142 C1148 0.930 . S
H1143 C1152 0.930 . S
H1144 C1157 0.929 . S
H1145 C1155 0.929 . S
H1146 C1150 0.929 . S
H1147 C1156 0.929 . S
C1148 H1142 0.930 . S
C1148 C1149 1.367 . S
C1148 C1156 1.378 . S
C1149 C1148 1.367 . S
C1149 C1157 1.433 . S
C1150 H1146 0.929 . S
C1150 C1152 1.378 . S
C1150 C1154 1.350 . S
C1151 C1154 1.463 . S
C1151 C1156 1.350 . S
C1151 N1159 1.427 . S
C1152 H1143 0.930 . S
C1152 C1150 1.378 . S
C1152 C1153 1.367 . S
C1153 C1152 1.367 . S
C1153 C1155 1.433 . S
C1154 C1150 1.350 . S
C1154 C1151 1.463 . S
C1154 N1158 1.427 . S
C1155 H1145 0.929 . S
C1155 C1153 1.433 . S
C1155 N1158 1.384 . S
C1156 H1147 0.929 . S
C1156 C1148 1.378 . S
C1156 C1151 1.350 . S
C1157 H1144 0.929 . S
C1157 C1149 1.433 . S
C1157 N1159 1.384 . S
N1158 C1154 1.427 . S
N1158 C1155 1.384 . S
N1159 C1151 1.427 . S
N1159 C1157 1.384 . S
H1160 C1166 0.943 . S
H1161 C1170 0.930 1_455 S
H1162 C1175 0.929 . S
H1163 C1173 0.929 . S
H1164 C1168 0.929 . S
H1165 C1174 0.929 . S
C1166 H1160 0.943 . S
C1166 C1167 1.345 1_655 S
C1166 C1174 1.388 . S
C1167 C1166 1.345 1_455 S
C1167 C1175 1.433 . S
C1168 H1164 0.929 . S
C1168 C1170 1.378 1_455 S
C1168 C1172 1.350 1_455 S
C1169 C1172 1.463 1_455 S
C1169 C1174 1.350 1_455 S
C1169 N1177 1.427 . S
C1170 H1161 0.930 1_655 S
C1170 C1168 1.378 1_655 S
C1170 C1171 1.367 . S
C1171 C1170 1.367 . S
C1171 C1173 1.433 . S
C1172 C1168 1.350 1_655 S
C1172 C1169 1.463 1_655 S
C1172 N1176 1.427 . S
C1173 H1163 0.929 . S
C1173 C1171 1.433 . S
C1173 N1176 1.384 . S
C1174 H1165 0.929 . S
C1174 C1166 1.388 . S
C1174 C1169 1.350 1_655 S
C1175 H1162 0.929 . S
C1175 C1167 1.433 . S
C1175 N1177 1.384 . S
N1176 C1172 1.427 . S
N1176 C1173 1.384 . S
N1177 C1169 1.427 . S
N1177 C1175 1.384 . S
H1178 C1184 0.930 1_565 S
H1179 C1188 0.930 . S
H1180 C1193 0.929 1_455 S
H1181 C1191 0.929 . S
H1182 C1186 0.929 . S
H1183 C1192 0.929 . S
C1184 H1178 0.930 1_545 S
C1184 C1185 1.367 . S
C1184 C1192 1.378 1_545 S
C1185 C1184 1.367 . S
C1185 C1193 1.433 . S
C1186 H1182 0.929 . S
C1186 C1188 1.378 1_545 S
C1186 C1190 1.350 1_545 S
C1187 C1190 1.463 1_645 S
C1187 C1192 1.350 1_545 S
C1187 N1195 1.427 1_655 S
C1188 H1179 0.930 . S
C1188 C1186 1.378 1_565 S
C1188 C1189 1.367 . S
C1189 C1188 1.367 . S
C1189 C1191 1.433 1_455 S
C1190 C1186 1.350 1_565 S
C1190 C1187 1.463 1_465 S
C1190 N1194 1.427 1_455 S
C1191 H1181 0.929 . S
C1191 C1189 1.433 1_655 S
C1191 N1194 1.384 . S
C1192 H1183 0.929 . S
C1192 C1184 1.378 1_565 S
C1192 C1187 1.350 1_565 S
C1193 H1180 0.929 1_655 S
C1193 C1185 1.433 . S
C1193 N1195 1.384 1_655 S
N1194 C1190 1.427 1_655 S
N1194 C1191 1.384 . S
N1195 C1187 1.427 1_455 S
N1195 C1193 1.384 1_455 S
H1196 C1202 0.930 . S
H1197 C1206 0.930 . S
H1198 C1211 0.929 . S
H1199 C1209 0.929 . S
H1200 C1204 0.929 . S
H1201 C1210 0.929 1_545 S
C1202 H1196 0.930 . S
C1202 C1203 1.367 . S
C1202 C1210 1.378 . S
C1203 C1202 1.367 . S
C1203 C1211 1.433 . S
C1204 H1200 0.929 . S
C1204 C1206 1.378 1_565 S
C1204 C1208 1.350 1_565 S
C1205 C1208 1.463 1_565 S
C1205 C1210 1.350 . S
C1205 N1213 1.427 . S
C1206 H1197 0.930 . S
C1206 C1204 1.378 1_545 S
C1206 C1207 1.367 . S
C1207 C1206 1.367 . S
C1207 C1209 1.433 . S
C1208 C1204 1.350 1_545 S
C1208 C1205 1.463 1_545 S
C1208 N1212 1.427 . S
C1209 H1199 0.929 . S
C1209 C1207 1.433 . S
C1209 N1212 1.384 . S
C1210 H1201 0.929 1_565 S
C1210 C1202 1.378 . S
C1210 C1205 1.350 . S
C1211 H1198 0.929 . S
C1211 C1203 1.433 . S
C1211 N1213 1.384 . S
N1212 C1208 1.427 . S
N1212 C1209 1.384 . S
N1213 C1205 1.427 . S
N1213 C1211 1.384 . S
H1214 C1220 0.930 . S
H1215 C1224 0.930 . S
H1216 C1229 0.929 . S
H1217 C1227 0.929 . S
H1218 C1222 0.929 . S
H1219 C1228 0.929 . S
C1220 H1214 0.930 . S
C1220 C1221 1.367 . S
C1220 C1228 1.378 . S
C1221 C1220 1.367 . S
C1221 C1229 1.433 . S
C1222 H1218 0.929 . S
C1222 C1224 1.378 . S
C1222 C1226 1.350 . S
C1223 C1226 1.463 . S
C1223 C1228 1.350 . S
C1223 N1231 1.427 . S
C1224 H1215 0.930 . S
C1224 C1222 1.378 . S
C1224 C1225 1.367 . S
C1225 C1224 1.367 . S
C1225 C1227 1.433 . S
C1226 C1222 1.350 . S
C1226 C1223 1.463 . S
C1226 N1230 1.427 . S
C1227 H1217 0.929 . S
C1227 C1225 1.433 . S
C1227 N1230 1.384 . S
C1228 H1219 0.929 . S
C1228 C1220 1.378 . S
C1228 C1223 1.350 . S
C1229 H1216 0.929 . S
C1229 C1221 1.433 . S
C1229 N1231 1.384 . S
N1230 C1226 1.427 . S
N1230 C1227 1.384 . S
N1231 C1223 1.427 . S
N1231 C1229 1.384 . S
C375 C89 0.729 . S
C379 C18 0.722 . S
C393 C20 0.729 . S
C397 C41 0.721 . S
C411 C64 0.722 . S
C415 C43 0.712 . S
C429 C66 0.730 . S
C433 C87 0.721 . S
C447 C110 0.724 . S
C451 C135 0.717 . S
C465 C133 0.716 . S
C469 C158 0.711 . S
C483 C156 0.724 . S
C487 C181 0.719 . S
C501 C112 0.723 . S
C505 C179 0.724 . S
C519 C202 0.723 . S
C523 C273 0.728 . S
C537 C204 0.725 . S
C541 C225 0.713 . S
C555 C227 0.710 . S
C559 C248 0.721 . S
C573 C250 0.723 . S
C577 C271 0.713 . S
C591 C294 0.722 . S
C595 C319 0.728 . S
C609 C342 0.731 . S
C613 C317 0.718 . S
C627 C365 0.730 . S
C631 C340 0.717 . S
C645 C363 0.715 . S
C649 C296 0.713 . S
C663 C17 0.671 . S
C667 C109 0.673 . S
C681 C132 0.672 . S
C685 C40 0.673 . S
C699 C63 0.672 . S
C703 C155 0.673 . S
C717 C86 0.671 . S
C721 C178 0.673 . S
C735 C293 0.672 . S
C739 C201 0.672 . S
C753 C316 0.673 . S
C757 C224 0.671 . S
C771 C247 0.671 . S
C775 C339 0.673 . S
C789 C362 0.672 . S
C793 C270 0.672 . S
C807 C21 1.789 . S
C811 C67 1.799 . S
C825 C44 1.787 . S
C829 C90 1.783 . S
C843 C159 1.795 . S
C847 C113 1.799 . S
C861 C182 1.798 . S
C865 C136 1.798 . S
C879 C251 1.784 . S
C883 C205 1.794 . S
C897 C274 1.787 . S
C901 C228 1.797 . S
C915 C297 1.796 . S
C919 C343 1.799 . S
C933 C320 1.783 . S
C937 C366 1.788 . S
C951 C200 1.495 . S
C955 C16 1.495 . S
C969 C223 1.506 . S
C973 C39 1.506 . S
C987 C246 1.505 . S
C991 C62 1.505 . S
C1005 C85 1.507 . S
C1009 C269 1.507 . S
C1023 C292 1.496 . S
C1027 C108 1.496 . S
C1041 C315 1.495 . S
C1045 C131 1.495 . S
C1059 C338 1.507 . S
C1063 C154 1.507 . S
C1077 C361 1.506 . S
C1081 C177 1.506 . S
C1095 C180 1.695 . S
C1099 C19 1.697 . S
C1113 C111 1.699 . S
C1117 C42 1.687 . S
C1131 C134 1.700 . S
C1135 C65 1.688 . S
C1149 C157 1.697 . S
C1153 C88 1.685 . S
C1167 C364 1.698 . S
C1171 C203 1.685 . S
C1185 C295 1.699 . S
C1189 C226 1.687 . S
C1203 C318 1.687 . S
C1207 C249 1.700 . S
C1221 C272 1.694 . S
C1225 C341 1.685 . S
