# Generated by pormake.
# Topology uou, (4)-cn, num edge types: 1
# Building blocks:
#     Node 0, Type 0, BuildingBlock: QUQFOY_clean_sbu_1, # of connection points: 4
#     Node 1, Type 0, BuildingBlock: QUQFOY_clean_sbu_1, # of connection points: 4
#     Node 2, Type 0, BuildingBlock: QUQFOY_clean_sbu_1, # of connection points: 4
#     Node 3, Type 0, BuildingBlock: QUQFOY_clean_sbu_1, # of connection points: 4
#     Node 4, Type 0, BuildingBlock: QUQFOY_clean_sbu_1, # of connection points: 4
#     Node 5, Type 0, BuildingBlock: QUQFOY_clean_sbu_1, # of connection points: 4
#     Node 6, Type 0, BuildingBlock: QUQFOY_clean_sbu_1, # of connection points: 4
#     Node 7, Type 0, BuildingBlock: QUQFOY_clean_sbu_1, # of connection points: 4
#     Node 8, Type 0, BuildingBlock: QUQFOY_clean_sbu_1, # of connection points: 4
#     Node 9, Type 0, BuildingBlock: QUQFOY_clean_sbu_1, # of connection points: 4
#     Node 10, Type 0, BuildingBlock: QUQFOY_clean_sbu_1, # of connection points: 4
#     Node 11, Type 0, BuildingBlock: QUQFOY_clean_sbu_1, # of connection points: 4
#     Node 12, Type 0, BuildingBlock: QUQFOY_clean_sbu_1, # of connection points: 4
#     Node 13, Type 0, BuildingBlock: QUQFOY_clean_sbu_1, # of connection points: 4
#     Node 14, Type 0, BuildingBlock: QUQFOY_clean_sbu_1, # of connection points: 4
#     Node 15, Type 0, BuildingBlock: QUQFOY_clean_sbu_1, # of connection points: 4
#     Edge 16, Type (0, 0), BuildingBlock: UVAHIK_clean_linker_0, # of connection points: 2
#     Edge 17, Type (0, 0), BuildingBlock: UVAHIK_clean_linker_0, # of connection points: 2
#     Edge 18, Type (0, 0), BuildingBlock: UVAHIK_clean_linker_0, # of connection points: 2
#     Edge 19, Type (0, 0), BuildingBlock: UVAHIK_clean_linker_0, # of connection points: 2
#     Edge 20, Type (0, 0), BuildingBlock: UVAHIK_clean_linker_0, # of connection points: 2
#     Edge 21, Type (0, 0), BuildingBlock: UVAHIK_clean_linker_0, # of connection points: 2
#     Edge 22, Type (0, 0), BuildingBlock: UVAHIK_clean_linker_0, # of connection points: 2
#     Edge 23, Type (0, 0), BuildingBlock: UVAHIK_clean_linker_0, # of connection points: 2
#     Edge 24, Type (0, 0), BuildingBlock: UVAHIK_clean_linker_0, # of connection points: 2
#     Edge 25, Type (0, 0), BuildingBlock: UVAHIK_clean_linker_0, # of connection points: 2
#     Edge 26, Type (0, 0), BuildingBlock: UVAHIK_clean_linker_0, # of connection points: 2
#     Edge 27, Type (0, 0), BuildingBlock: UVAHIK_clean_linker_0, # of connection points: 2
#     Edge 28, Type (0, 0), BuildingBlock: UVAHIK_clean_linker_0, # of connection points: 2
#     Edge 29, Type (0, 0), BuildingBlock: UVAHIK_clean_linker_0, # of connection points: 2
#     Edge 30, Type (0, 0), BuildingBlock: UVAHIK_clean_linker_0, # of connection points: 2
#     Edge 31, Type (0, 0), BuildingBlock: UVAHIK_clean_linker_0, # of connection points: 2
#     Edge 32, Type (0, 0), BuildingBlock: UVAHIK_clean_linker_0, # of connection points: 2
#     Edge 33, Type (0, 0), BuildingBlock: UVAHIK_clean_linker_0, # of connection points: 2
#     Edge 34, Type (0, 0), BuildingBlock: UVAHIK_clean_linker_0, # of connection points: 2
#     Edge 35, Type (0, 0), BuildingBlock: UVAHIK_clean_linker_0, # of connection points: 2
#     Edge 36, Type (0, 0), BuildingBlock: UVAHIK_clean_linker_0, # of connection points: 2
#     Edge 37, Type (0, 0), BuildingBlock: UVAHIK_clean_linker_0, # of connection points: 2
#     Edge 38, Type (0, 0), BuildingBlock: UVAHIK_clean_linker_0, # of connection points: 2
#     Edge 39, Type (0, 0), BuildingBlock: UVAHIK_clean_linker_0, # of connection points: 2
#     Edge 40, Type (0, 0), BuildingBlock: UVAHIK_clean_linker_0, # of connection points: 2
#     Edge 41, Type (0, 0), BuildingBlock: UVAHIK_clean_linker_0, # of connection points: 2
#     Edge 42, Type (0, 0), BuildingBlock: UVAHIK_clean_linker_0, # of connection points: 2
#     Edge 43, Type (0, 0), BuildingBlock: UVAHIK_clean_linker_0, # of connection points: 2
#     Edge 44, Type (0, 0), BuildingBlock: UVAHIK_clean_linker_0, # of connection points: 2
#     Edge 45, Type (0, 0), BuildingBlock: UVAHIK_clean_linker_0, # of connection points: 2
#     Edge 46, Type (0, 0), BuildingBlock: UVAHIK_clean_linker_0, # of connection points: 2
#     Edge 47, Type (0, 0), BuildingBlock: UVAHIK_clean_linker_0, # of connection points: 2
# Relax obj value: 0.062
# Max RMSD: 0.104
# Mean RMSD: 0.104
data_MOF--net-uou--node1-QUQFOY_clean_sbu_1--edge1-UVAHIK_clean_linker_0
_symmetry_space_group_name_H-M    P1
_symmetry_Int_Tables_number       1
_symmetry_cell_setting            triclinic
loop_
_symmetry_equiv_pos_as_xyz
'x, y, z'
_cell_length_a     53.034726
_cell_length_b     48.19125
_cell_length_c     72.90412
_cell_angle_alpha  89.967956
_cell_angle_beta   89.996895
_cell_angle_gamma 90.008182
loop_
_atom_site_label
_atom_site_type_symbol
_atom_site_fract_x
_atom_site_fract_y
_atom_site_fract_z
_atom_type_partial_charge
O0 O 0.04305 0.08787 0.13316 0.0
Cd1 Cd 0.05106 0.04612 0.13243 0.0
Cd2 Cd 0.09427 0.065 0.1179 0.0
O3 O 0.08071 0.10349 0.12566 0.0
O4 O 0.02588 0.02953 0.14946 0.0
O5 O 0.06696 0.02858 0.15464 0.0
C6 C 0.04433 0.02313 0.16016 0.0
C7 C 0.13523 0.05147 0.1256 0.0
C8 C 0.05811 0.10801 0.13064 0.0
C9 C 0.05974 0.03196 0.09331 0.0
O10 O 0.07898 0.04763 0.09447 0.0
O11 O 0.04663 0.02668 0.10749 0.0
O12 O 0.131 0.06942 0.11284 0.0
O13 O 0.11605 0.04154 0.13437 0.0
O14 O 0.47962 0.90854 0.13321 0.0
Cd15 Cd 0.47174 0.95034 0.13261 0.0
Cd16 Cd 0.42825 0.93145 0.11826 0.0
O17 O 0.44181 0.89298 0.12607 0.0
O18 O 0.49815 0.96666 0.14871 0.0
O19 O 0.45752 0.968 0.15542 0.0
C20 C 0.48054 0.97325 0.16008 0.0
C21 C 0.38732 0.94503 0.12599 0.0
C22 C 0.46449 0.88843 0.13085 0.0
C23 C 0.46249 0.96442 0.09347 0.0
O24 O 0.44336 0.94862 0.0947 0.0
O25 O 0.47562 0.96983 0.10761 0.0
O26 O 0.39152 0.92697 0.1133 0.0
O27 O 0.40652 0.95502 0.13469 0.0
O28 O 0.54297 0.90721 0.37503 0.0
Cd29 Cd 0.55061 0.94904 0.37567 0.0
Cd30 Cd 0.59417 0.93081 0.3901 0.0
O31 O 0.58085 0.89217 0.38245 0.0
O32 O 0.52535 0.96536 0.35861 0.0
O33 O 0.56643 0.96664 0.35344 0.0
C34 C 0.54377 0.97189 0.34791 0.0
C35 C 0.63516 0.94434 0.38244 0.0
C36 C 0.55828 0.8873 0.37755 0.0
C37 C 0.55945 0.9636 0.41471 0.0
O38 O 0.57886 0.94821 0.41351 0.0
O39 O 0.54613 0.96856 0.40058 0.0
O40 O 0.63088 0.92648 0.39524 0.0
O41 O 0.61601 0.9542 0.37361 0.0
O42 O 0.97968 0.08773 0.37472 0.0
Cd43 Cd 0.97224 0.04583 0.37537 0.0
Cd44 Cd 0.92836 0.06403 0.38954 0.0
O45 O 0.9416 0.10263 0.38173 0.0
O46 O 0.99874 0.0297 0.35927 0.0
O47 O 0.9581 0.02794 0.35261 0.0
C48 C 0.98116 0.02287 0.34794 0.0
C49 C 0.88743 0.05032 0.38189 0.0
C50 C 0.96424 0.10758 0.37701 0.0
C51 C 0.96284 0.03157 0.41446 0.0
O52 O 0.94349 0.04703 0.41314 0.0
O53 O 0.97619 0.02643 0.40038 0.0
O54 O 0.89164 0.06839 0.39457 0.0
O55 O 0.90662 0.04036 0.37316 0.0
O56 O 0.94304 0.94799 0.91355 0.0
Cd57 Cd 0.92797 0.93084 0.88999 0.0
Cd58 Cd 0.97148 0.94978 0.87565 0.0
O59 O 0.97537 0.96915 0.90067 0.0
O60 O 0.89124 0.92636 0.89491 0.0
O61 O 0.90628 0.95445 0.87354 0.0
C62 C 0.88706 0.94444 0.88222 0.0
C63 C 0.98029 0.97287 0.84822 0.0
C64 C 0.9622 0.96375 0.91479 0.0
C65 C 0.96422 0.88786 0.87734 0.0
O66 O 0.97934 0.90798 0.87497 0.0
O67 O 0.94155 0.8924 0.88217 0.0
O68 O 0.9979 0.96619 0.85957 0.0
O69 O 0.95727 0.96759 0.85287 0.0
O70 O 0.57892 0.04717 0.91346 0.0
Cd71 Cd 0.59405 0.06446 0.88994 0.0
Cd72 Cd 0.55055 0.04562 0.87554 0.0
O73 O 0.54664 0.02605 0.9005 0.0
O74 O 0.63077 0.06892 0.89493 0.0
O75 O 0.6158 0.04098 0.87346 0.0
C76 C 0.63499 0.05094 0.8822 0.0
C77 C 0.5417 0.02279 0.84804 0.0
C78 C 0.55977 0.03139 0.91465 0.0
C79 C 0.55782 0.10753 0.87741 0.0
O80 O 0.54269 0.08743 0.87499 0.0
O81 O 0.58049 0.10297 0.88221 0.0
O82 O 0.52411 0.02938 0.85942 0.0
O83 O 0.56473 0.028 0.85269 0.0
O84 O 0.44339 0.04779 0.5946 0.0
Cd85 Cd 0.42808 0.06513 0.61804 0.0
Cd86 Cd 0.47165 0.04689 0.63244 0.0
O87 O 0.47611 0.0274 0.60752 0.0
O88 O 0.39138 0.06949 0.61289 0.0
O89 O 0.40622 0.04169 0.63449 0.0
C90 C 0.38709 0.05158 0.62567 0.0
C91 C 0.47846 0.02402 0.6602 0.0
C92 C 0.4628 0.03239 0.59339 0.0
C93 C 0.46398 0.10862 0.63062 0.0
O94 O 0.4793 0.08872 0.63309 0.0
O95 O 0.44139 0.10375 0.62574 0.0
O96 O 0.4969 0.03054 0.6495 0.0
O97 O 0.45581 0.0293 0.65466 0.0
O98 O 0.07839 0.94931 0.59483 0.0
Cd99 Cd 0.09378 0.93207 0.61828 0.0
Cd100 Cd 0.0502 0.9502 0.63267 0.0
O101 O 0.04568 0.96969 0.60775 0.0
O102 O 0.13048 0.9278 0.6131 0.0
O103 O 0.11562 0.9556 0.63467 0.0
C104 C 0.13476 0.94574 0.62584 0.0
C105 C 0.04338 0.97303 0.66042 0.0
C106 C 0.05897 0.96468 0.59362 0.0
C107 C 0.058 0.88848 0.63091 0.0
O108 O 0.04262 0.90834 0.63336 0.0
O109 O 0.08058 0.89341 0.62603 0.0
O110 O 0.02494 0.96649 0.64975 0.0
O111 O 0.06604 0.96781 0.65487 0.0
O112 O 0.54275 0.58839 0.13311 0.0
Cd113 Cd 0.55024 0.5465 0.1325 0.0
Cd114 Cd 0.59401 0.56477 0.11816 0.0
O115 O 0.58075 0.60338 0.12592 0.0
O116 O 0.52377 0.53037 0.14864 0.0
O117 O 0.56442 0.52863 0.15527 0.0
C118 C 0.54137 0.52355 0.15996 0.0
C119 C 0.63493 0.55109 0.12586 0.0
C120 C 0.55814 0.60827 0.13072 0.0
C121 C 0.55947 0.53218 0.0934 0.0
O122 O 0.57882 0.54766 0.09463 0.0
O123 O 0.54619 0.52707 0.10751 0.0
O124 O 0.63074 0.5691 0.11313 0.0
O125 O 0.61573 0.54117 0.13461 0.0
O126 O 0.97938 0.40786 0.13353 0.0
Cd127 Cd 0.97176 0.44971 0.13287 0.0
Cd128 Cd 0.92817 0.4315 0.1185 0.0
O129 O 0.94144 0.39286 0.12622 0.0
O130 O 0.99703 0.46602 0.14992 0.0
O131 O 0.95595 0.4673 0.15507 0.0
C132 C 0.9786 0.47255 0.16061 0.0
C133 C 0.88717 0.44507 0.12608 0.0
C134 C 0.96403 0.38797 0.13108 0.0
C135 C 0.96291 0.4642 0.09382 0.0
O136 O 0.9435 0.44881 0.09505 0.0
O137 O 0.97623 0.46921 0.10794 0.0
O138 O 0.89148 0.42716 0.11333 0.0
O139 O 0.9063 0.45496 0.13491 0.0
O140 O 0.04245 0.40799 0.37518 0.0
Cd141 Cd 0.05033 0.44979 0.37586 0.0
Cd142 Cd 0.0938 0.43087 0.39023 0.0
O143 O 0.08023 0.39242 0.3824 0.0
O144 O 0.02396 0.46621 0.35976 0.0
O145 O 0.06461 0.46757 0.35309 0.0
C146 C 0.0416 0.47286 0.34842 0.0
C147 C 0.13471 0.44448 0.38246 0.0
C148 C 0.05758 0.38787 0.37756 0.0
C149 C 0.05956 0.46379 0.41501 0.0
O150 O 0.07871 0.44802 0.41379 0.0
O151 O 0.04642 0.46918 0.40087 0.0
O152 O 0.13054 0.4264 0.39515 0.0
O153 O 0.11549 0.45449 0.37378 0.0
O154 O 0.47915 0.58723 0.37493 0.0
Cd155 Cd 0.47116 0.54547 0.37556 0.0
Cd156 Cd 0.42787 0.56426 0.39003 0.0
O157 O 0.44143 0.60279 0.38231 0.0
O158 O 0.49641 0.52902 0.35855 0.0
O159 O 0.45535 0.52806 0.35328 0.0
C160 C 0.478 0.52268 0.34779 0.0
C161 C 0.38687 0.5508 0.38237 0.0
C162 C 0.46407 0.60734 0.37742 0.0
C163 C 0.46236 0.53116 0.41464 0.0
O164 O 0.44313 0.54683 0.41346 0.0
O165 O 0.47551 0.5259 0.40048 0.0
O166 O 0.39117 0.56871 0.39513 0.0
O167 O 0.40601 0.54087 0.37357 0.0
O168 O 0.44289 0.4482 0.91362 0.0
Cd169 Cd 0.42777 0.43097 0.89009 0.0
Cd170 Cd 0.47151 0.44935 0.87577 0.0
O171 O 0.47549 0.46885 0.90073 0.0
O172 O 0.39105 0.42655 0.89511 0.0
O173 O 0.40601 0.45448 0.87361 0.0
C174 C 0.38682 0.44452 0.88236 0.0
C175 C 0.48031 0.47229 0.84829 0.0
C176 C 0.4622 0.46374 0.91485 0.0
C177 C 0.46378 0.38756 0.8776 0.0
O178 O 0.47911 0.40748 0.8752 0.0
O179 O 0.44115 0.3924 0.88238 0.0
O180 O 0.49794 0.46556 0.85961 0.0
O181 O 0.45728 0.46713 0.85298 0.0
O182 O 0.07829 0.54689 0.91341 0.0
Cd183 Cd 0.09361 0.56412 0.88993 0.0
Cd184 Cd 0.04999 0.54598 0.87561 0.0
O185 O 0.04552 0.52652 0.90055 0.0
O186 O 0.13032 0.5684 0.89507 0.0
O187 O 0.11541 0.54058 0.87352 0.0
C188 C 0.13457 0.55045 0.88232 0.0
C189 C 0.04312 0.52311 0.84788 0.0
C190 C 0.05886 0.53153 0.91466 0.0
C191 C 0.0578 0.60769 0.87733 0.0
O192 O 0.04242 0.58783 0.87491 0.0
O193 O 0.08039 0.60277 0.88218 0.0
O194 O 0.0247 0.52967 0.85857 0.0
O195 O 0.06578 0.52835 0.85341 0.0
O196 O 0.94298 0.54818 0.5947 0.0
Cd197 Cd 0.92791 0.56542 0.61824 0.0
Cd198 Cd 0.97136 0.54643 0.63263 0.0
O199 O 0.97525 0.527 0.60763 0.0
O200 O 0.89119 0.56996 0.6133 0.0
O201 O 0.90617 0.5419 0.63471 0.0
C202 C 0.88697 0.55192 0.62601 0.0
C203 C 0.98009 0.52337 0.66008 0.0
C204 C 0.96211 0.53239 0.59349 0.0
C205 C 0.96421 0.60836 0.63087 0.0
O206 O 0.9793 0.58822 0.63327 0.0
O207 O 0.94155 0.60386 0.62602 0.0
O208 O 0.99772 0.53 0.64873 0.0
O209 O 0.95708 0.52869 0.65541 0.0
O210 O 0.57862 0.44917 0.59483 0.0
Cd211 Cd 0.59391 0.43187 0.61829 0.0
Cd212 Cd 0.55058 0.45058 0.63272 0.0
O213 O 0.54619 0.47005 0.60777 0.0
O214 O 0.63063 0.42751 0.61322 0.0
O215 O 0.61568 0.45538 0.63473 0.0
C216 C 0.63486 0.44548 0.62596 0.0
C217 C 0.54367 0.47341 0.66046 0.0
C218 C 0.55936 0.46478 0.59362 0.0
C219 C 0.55781 0.38872 0.63094 0.0
O220 O 0.54269 0.4088 0.6334 0.0
O221 O 0.58044 0.39332 0.62605 0.0
O222 O 0.52528 0.467 0.64971 0.0
O223 O 0.56634 0.46809 0.65498 0.0
C224 C 0.35667 0.9765 0.1421 0.0
C225 C 0.36129 0.95466 0.12977 0.0
C226 C 0.33217 0.98671 0.14458 0.0
C227 C 0.26466 0.96958 0.13683 0.0
H228 H 0.25573 0.04943 0.13652 0.0
C229 C 0.18173 0.05361 0.11994 0.0
C230 C 0.16126 0.04188 0.12943 0.0
C231 C 0.20617 0.04354 0.12253 0.0
C232 C 0.2579 0.02708 0.13662 0.0
H233 H 0.34369 0.92597 0.11075 0.0
H234 H 0.3012 0.9438 0.11499 0.0
H235 H 0.29817 0.02997 0.13628 0.0
H236 H 0.15054 0.01075 0.14945 0.0
H237 H 0.19334 0.9932 0.15405 0.0
H238 H 0.22439 0.96669 0.13648 0.0
C239 C 0.31638 0.95292 0.12288 0.0
C240 C 0.28224 0.01592 0.13669 0.0
C241 C 0.34082 0.9428 0.12036 0.0
C242 C 0.16589 0.02021 0.1419 0.0
C243 C 0.19039 0.01005 0.14446 0.0
C244 C 0.24032 0.98074 0.1368 0.0
C245 C 0.31177 0.9752 0.13486 0.0
C246 C 0.28593 0.98703 0.13649 0.0
C247 C 0.21079 0.02143 0.13466 0.0
C248 C 0.23663 0.00963 0.13638 0.0
H249 H 0.37202 0.98607 0.14958 0.0
H250 H 0.32922 0.0037 0.15406 0.0
H251 H 0.26683 0.94724 0.1369 0.0
H252 H 0.17886 0.07031 0.11021 0.0
H253 H 0.22135 0.05255 0.11457 0.0
C254 C 0.6659 0.97541 0.36606 0.0
C255 C 0.66121 0.95387 0.37862 0.0
C256 C 0.69043 0.98549 0.36349 0.0
C257 C 0.75788 0.96838 0.37146 0.0
H258 H 0.76699 0.0482 0.37089 0.0
C259 C 0.84093 0.05259 0.38751 0.0
C260 C 0.8614 0.04066 0.37813 0.0
C261 C 0.81649 0.04249 0.385 0.0
C262 C 0.76478 0.02585 0.37103 0.0
H263 H 0.67871 0.92558 0.39797 0.0
H264 H 0.72125 0.94321 0.39358 0.0
H265 H 0.72451 0.02885 0.37133 0.0
H266 H 0.87212 0.00911 0.35843 0.0
H267 H 0.82929 0.99149 0.35398 0.0
H268 H 0.79816 0.9654 0.37184 0.0
C269 C 0.7061 0.95218 0.38557 0.0
C270 C 0.74041 0.01475 0.37108 0.0
C271 C 0.68164 0.94219 0.38818 0.0
C272 C 0.85677 0.01874 0.36587 0.0
C273 C 0.83226 0.00854 0.36341 0.0
C274 C 0.78226 0.97948 0.37136 0.0
C275 C 0.71079 0.97416 0.37335 0.0
C276 C 0.73666 0.98588 0.3716 0.0
C277 C 0.81186 0.02015 0.37308 0.0
C278 C 0.786 0.00836 0.37146 0.0
H279 H 0.65059 0.98483 0.35846 0.0
H280 H 0.69343 0.00225 0.35383 0.0
H281 H 0.75567 0.94603 0.37164 0.0
H282 H 0.84381 0.06949 0.39707 0.0
H283 H 0.80131 0.05168 0.39286 0.0
C284 C 0.85646 0.97593 0.86606 0.0
C285 C 0.86104 0.95408 0.87839 0.0
C286 C 0.83197 0.98614 0.86354 0.0
C287 C 0.78201 0.01534 0.87132 0.0
H288 H 0.72415 0.96611 0.8715 0.0
C289 C 0.68148 0.05308 0.88788 0.0
C290 C 0.66102 0.04134 0.87839 0.0
C291 C 0.70592 0.04299 0.88533 0.0
C292 C 0.74009 0.98017 0.87119 0.0
H293 H 0.84339 0.92538 0.89741 0.0
H294 H 0.80092 0.94321 0.89311 0.0
H295 H 0.7666 0.94666 0.87116 0.0
H296 H 0.65032 0.01016 0.85842 0.0
H297 H 0.69313 0.99259 0.85388 0.0
H298 H 0.7555 0.04885 0.87141 0.0
C299 C 0.81612 0.95233 0.88523 0.0
C300 C 0.76443 0.969 0.8712 0.0
C301 C 0.84055 0.94222 0.88778 0.0
C302 C 0.66566 0.01964 0.86596 0.0
C303 C 0.69016 0.00947 0.86344 0.0
C304 C 0.75767 0.0265 0.87134 0.0
C305 C 0.81153 0.97462 0.87323 0.0
C306 C 0.7857 0.98645 0.87156 0.0
C307 C 0.71055 0.02086 0.87324 0.0
C308 C 0.7364 0.00905 0.87156 0.0
H309 H 0.87183 0.9855 0.85859 0.0
H310 H 0.82904 0.00313 0.85405 0.0
H311 H 0.79794 0.02939 0.87174 0.0
H312 H 0.6786 0.0698 0.89758 0.0
H313 H 0.72109 0.05202 0.89328 0.0
C314 C 0.16548 0.97711 0.64197 0.0
C315 C 0.1608 0.95535 0.62959 0.0
C316 C 0.18999 0.98726 0.64446 0.0
C317 C 0.23999 0.0164 0.63661 0.0
H318 H 0.29771 0.96701 0.63635 0.0
C319 C 0.34061 0.05383 0.61994 0.0
C320 C 0.36103 0.04204 0.62945 0.0
C321 C 0.31614 0.04382 0.62251 0.0
C322 C 0.28182 0.9811 0.63668 0.0
H323 H 0.17832 0.92678 0.61045 0.0
H324 H 0.22085 0.9445 0.61471 0.0
H325 H 0.25522 0.94767 0.63669 0.0
H326 H 0.37165 0.01087 0.64947 0.0
H327 H 0.32879 0.99341 0.65403 0.0
H328 H 0.26659 0.04983 0.63651 0.0
C329 C 0.20569 0.9536 0.62264 0.0
C330 C 0.25744 0.97001 0.63667 0.0
C331 C 0.18123 0.94354 0.62011 0.0
C332 C 0.35633 0.02037 0.64191 0.0
C333 C 0.33181 0.01027 0.64444 0.0
C334 C 0.26436 0.02749 0.63657 0.0
C335 C 0.21036 0.97577 0.63469 0.0
C336 C 0.23623 0.98752 0.63635 0.0
C337 C 0.31145 0.02172 0.63463 0.0
C338 C 0.28558 0.00998 0.63632 0.0
H339 H 0.15015 0.98663 0.6495 0.0
H340 H 0.19299 0.00417 0.65399 0.0
H341 H 0.22409 0.0305 0.63622 0.0
H342 H 0.34354 0.07053 0.61023 0.0
H343 H 0.30099 0.05288 0.61455 0.0
C344 C 0.85641 0.47631 0.14228 0.0
C345 C 0.86112 0.45465 0.12983 0.0
C346 C 0.83189 0.48643 0.14477 0.0
C347 C 0.76444 0.46926 0.13681 0.0
H348 H 0.75536 0.54908 0.13697 0.0
C349 C 0.68144 0.55332 0.12027 0.0
C350 C 0.66095 0.54146 0.12968 0.0
C351 C 0.70588 0.54325 0.12284 0.0
C352 C 0.75757 0.52674 0.13694 0.0
H353 H 0.84364 0.4262 0.11058 0.0
H354 H 0.80111 0.44389 0.11484 0.0
H355 H 0.79784 0.52973 0.13667 0.0
H356 H 0.6502 0.51009 0.14952 0.0
H357 H 0.69302 0.49253 0.15409 0.0
H358 H 0.72417 0.46628 0.13639 0.0
C359 C 0.81624 0.45293 0.12283 0.0
C360 C 0.78194 0.51564 0.13697 0.0
C361 C 0.84071 0.44289 0.1203 0.0
C362 C 0.66557 0.51965 0.14204 0.0
C363 C 0.69007 0.50949 0.14458 0.0
C364 C 0.74008 0.48036 0.13682 0.0
C365 C 0.81154 0.47501 0.13494 0.0
C366 C 0.78568 0.48676 0.1366 0.0
C367 C 0.71049 0.52102 0.13487 0.0
C368 C 0.73634 0.50925 0.13657 0.0
H369 H 0.87172 0.48578 0.14986 0.0
H370 H 0.82887 0.50327 0.15435 0.0
H371 H 0.76666 0.44692 0.13674 0.0
H372 H 0.67857 0.57012 0.11062 0.0
H373 H 0.72107 0.55237 0.11495 0.0
C374 C 0.35613 0.51961 0.36612 0.0
C375 C 0.36082 0.54124 0.37859 0.0
C376 C 0.33161 0.50947 0.36361 0.0
C377 C 0.26415 0.52651 0.37163 0.0
H378 H 0.25516 0.44667 0.3713 0.0
C379 C 0.18123 0.44222 0.388 0.0
C380 C 0.16073 0.45412 0.37864 0.0
C381 C 0.20566 0.45234 0.38544 0.0
C382 C 0.25734 0.46902 0.37138 0.0
H383 H 0.34333 0.56961 0.39788 0.0
H384 H 0.3008 0.55189 0.3936 0.0
H385 H 0.29761 0.4661 0.37163 0.0
H386 H 0.14994 0.4856 0.35888 0.0
H387 H 0.19274 0.50322 0.35432 0.0
H388 H 0.22387 0.52942 0.37206 0.0
C389 C 0.31594 0.54289 0.3856 0.0
C390 C 0.28169 0.48016 0.37136 0.0
C391 C 0.3404 0.55294 0.38814 0.0
C392 C 0.16532 0.476 0.36632 0.0
C393 C 0.18981 0.4862 0.36379 0.0
C394 C 0.23979 0.51536 0.3716 0.0
C395 C 0.31126 0.52083 0.37346 0.0
C396 C 0.2854 0.50905 0.37179 0.0
C397 C 0.21025 0.47465 0.37346 0.0
C398 C 0.23609 0.48647 0.37179 0.0
H399 H 0.37144 0.51017 0.35852 0.0
H400 H 0.3286 0.49265 0.35401 0.0
H401 H 0.26633 0.54886 0.37174 0.0
H402 H 0.17839 0.42536 0.39761 0.0
H403 H 0.22087 0.44318 0.39329 0.0
C404 C 0.16526 0.51912 0.86613 0.0
C405 C 0.16061 0.54084 0.87855 0.0
C406 C 0.18977 0.50898 0.86361 0.0
C407 C 0.23976 0.47979 0.87137 0.0
H408 H 0.29752 0.52916 0.87174 0.0
C409 C 0.34033 0.44223 0.88799 0.0
C410 C 0.36078 0.45408 0.87854 0.0
C411 C 0.31587 0.45226 0.88542 0.0
C412 C 0.28161 0.51507 0.87137 0.0
H413 H 0.17816 0.56935 0.89771 0.0
H414 H 0.22068 0.55163 0.8934 0.0
H415 H 0.25503 0.54851 0.87143 0.0
H416 H 0.37146 0.48537 0.85862 0.0
H417 H 0.32863 0.50285 0.85405 0.0
H418 H 0.26634 0.44635 0.87139 0.0
C419 C 0.20551 0.54256 0.88547 0.0
C420 C 0.25725 0.52617 0.8714 0.0
C421 C 0.18106 0.55262 0.88803 0.0
C422 C 0.35612 0.47582 0.86613 0.0
C423 C 0.33161 0.48594 0.8636 0.0
C424 C 0.26413 0.46869 0.87138 0.0
C425 C 0.21016 0.52043 0.87338 0.0
C426 C 0.23602 0.50867 0.87169 0.0
C427 C 0.31122 0.47444 0.87335 0.0
C428 C 0.28536 0.48619 0.87167 0.0
H429 H 0.14993 0.50962 0.8586 0.0
H430 H 0.19275 0.49209 0.85406 0.0
H431 H 0.22385 0.4657 0.87173 0.0
H432 H 0.34322 0.42547 0.89767 0.0
H433 H 0.3007 0.44315 0.89334 0.0
C434 C 0.68135 0.44338 0.62027 0.0
C435 C 0.66089 0.45512 0.62975 0.0
C436 C 0.70579 0.45348 0.62283 0.0
C437 C 0.75751 0.47 0.63688 0.0
H438 H 0.76646 0.54984 0.63696 0.0
C439 C 0.8563 0.52055 0.64221 0.0
C440 C 0.86093 0.54234 0.62984 0.0
C441 C 0.83179 0.51038 0.64473 0.0
C442 C 0.76429 0.5275 0.63695 0.0
H443 H 0.65016 0.48632 0.6497 0.0
H444 H 0.69295 0.50393 0.65424 0.0
H445 H 0.72401 0.53039 0.63659 0.0
H446 H 0.84335 0.57097 0.61075 0.0
H447 H 0.80085 0.5532 0.61505 0.0
H448 H 0.79778 0.46711 0.63655 0.0
C449 C 0.69 0.48704 0.64469 0.0
C450 C 0.73994 0.51634 0.63695 0.0
C451 C 0.66551 0.47684 0.64217 0.0
C452 C 0.84047 0.55418 0.62041 0.0
C453 C 0.81602 0.5441 0.62296 0.0
C454 C 0.78185 0.48116 0.63693 0.0
C455 C 0.71041 0.47563 0.63492 0.0
C456 C 0.73625 0.48745 0.6366 0.0
C457 C 0.8114 0.52187 0.635 0.0
C458 C 0.78555 0.51005 0.63665 0.0
H459 H 0.67848 0.42664 0.61058 0.0
H460 H 0.72097 0.44445 0.61489 0.0
H461 H 0.75533 0.44765 0.63684 0.0
H462 H 0.87165 0.511 0.64971 0.0
H463 H 0.82883 0.49343 0.65425 0.0
C464 C 0.01294 0.00618 0.32518 0.0
C465 C 0.98768 0.01204 0.32954 0.0
C466 C 0.01997 0.00016 0.30716 0.0
C467 C 0.99596 0.98209 0.26084 0.0
H468 H 0.05361 0.02499 0.24449 0.0
C469 C 0.01437 0.00908 0.18497 0.0
C470 C 0.03933 0.01238 0.17885 0.0
C471 C 1.00928 0.003 0.20333 0.0
C472 C 0.03781 0.01235 0.24883 0.0
H473 H 0.94975 0.0146 0.31857 0.0
H474 H 0.96208 0.00429 0.28701 0.0
H475 H 0.04216 0.02503 0.27672 0.0
H476 H 0.0786 0.01014 0.18698 0.0
H477 H 0.06974 -0.001 0.21902 0.0
H478 H 0.99135 0.96991 0.23278 0.0
C479 C 0.97643 0.00417 0.29758 0.0
C480 C 0.03119 0.01242 0.26736 0.0
C481 C 0.96937 0.01016 0.31566 0.0
C482 C 0.05915 0.0079 0.19128 0.0
C483 C 0.05406 0.00172 0.20967 0.0
C484 C 1.00264 0.98193 0.24226 0.0
C485 C 1.00193 -9e-05 0.29305 0.0
C486 C 1.00999 0.99763 0.27357 0.0
C487 C 0.02903 -4e-05 0.21603 0.0
C488 C 0.02343 0.99743 0.23598 0.0
H489 H 0.0275 0.00719 0.33558 0.0
H490 H 0.0397 0.99644 0.30419 0.0
H491 H 0.97969 0.97022 0.26523 0.0
H492 H 0.99863 0.01237 0.17575 0.0
H493 H 0.98979 0.0021 0.20772 0.0
C494 C 0.51227 0.98991 0.18289 0.0
C495 C 0.48703 0.98396 0.17852 0.0
C496 C 0.51929 0.99578 0.20093 0.0
C497 C 0.49523 0.0133 0.24733 0.0
H498 H 0.55303 0.97051 0.26351 0.0
C499 C 0.51376 0.98582 0.32311 0.0
C500 C 0.53873 0.98263 0.32923 0.0
C501 C 0.50864 0.99196 0.30476 0.0
C502 C 0.53719 0.98311 0.25922 0.0
H503 H 0.44912 0.9811 0.18949 0.0
H504 H 0.46142 0.99117 0.22108 0.0
H505 H 0.54158 0.97071 0.23127 0.0
H506 H 0.57799 0.98511 0.32109 0.0
H507 H 0.56908 0.99636 0.28908 0.0
H508 H 0.49059 0.02521 0.27544 0.0
C509 C 0.47577 0.99146 0.21051 0.0
C510 C 0.53057 0.98318 0.24068 0.0
C511 C 0.46872 0.98561 0.19241 0.0
C512 C 0.55853 0.98726 0.31679 0.0
C513 C 0.55341 0.99351 0.29842 0.0
C514 C 0.50193 0.01332 0.26591 0.0
C515 C 0.50126 0.9958 0.21505 0.0
C516 C 0.50932 0.99794 0.23454 0.0
C517 C 0.52838 0.99518 0.29207 0.0
C518 C 0.52276 0.99785 0.27213 0.0
H519 H 0.52683 0.98907 0.17249 0.0
H520 H 0.53901 -0.00043 0.20391 0.0
H521 H 0.47893 0.02514 0.243 0.0
H522 H 0.49803 0.98242 0.33233 0.0
H523 H 0.48915 0.9928 0.30038 0.0
C524 C 0.01339 0.98688 0.68525 0.0
C525 C 0.03836 0.98373 0.67911 0.0
C526 C 1.0083 0.99292 0.70361 0.0
C527 C 0.03691 0.98373 0.7491 0.0
H528 H 0.97863 0.02555 0.76549 0.0
C529 C 0.01201 0.98974 0.82546 0.0
C530 C 0.98677 0.98374 0.82981 0.0
C531 C 0.01903 0.9958 0.80744 0.0
C532 C 0.99494 0.01377 0.76111 0.0
H533 H 0.07763 0.98619 0.68722 0.0
H534 H 0.06876 0.99726 0.71926 0.0
H535 H 0.99027 0.02594 0.73304 0.0
H536 H 0.94886 0.98097 0.81884 0.0
H537 H 0.96116 0.99136 0.78728 0.0
H538 H 0.04133 0.97107 0.777 0.0
C539 C 0.05308 0.99446 0.70993 0.0
C540 C 1.00162 0.01397 0.74253 0.0
C541 C 0.05818 0.98831 0.69153 0.0
C542 C 0.96846 0.98552 0.81593 0.0
C543 C 0.97551 0.99156 0.79785 0.0
C544 C 0.03031 0.98362 0.76764 0.0
C545 C 0.02806 0.99607 0.7163 0.0
C546 C 0.02246 -0.00143 0.73625 0.0
C547 C 1.00099 0.99596 0.79332 0.0
C548 C 1.00904 -0.0017 0.77384 0.0
H549 H 0.99766 0.98351 0.67604 0.0
H550 H 0.98881 0.99371 0.70801 0.0
H551 H 0.05276 0.97118 0.74477 0.0
H552 H 0.02657 0.98881 0.83586 0.0
H553 H 0.03874 -0.00037 0.80447 0.0
C554 C 0.50846 0.01007 0.68499 0.0
C555 C 0.48349 0.01329 0.67888 0.0
C556 C 0.51357 0.00395 0.70335 0.0
C557 C 0.48504 0.01296 0.74889 0.0
H558 H 0.54323 0.97085 0.76515 0.0
C559 C 0.50994 0.00622 0.82522 0.0
C560 C 0.53519 0.01211 0.8296 0.0
C561 C 0.50291 0.00036 0.80718 0.0
C562 C 0.52694 0.98271 0.7608 0.0
H563 H 0.44423 0.01091 0.68702 0.0
H564 H 0.45312 -0.0003 0.71904 0.0
H565 H 0.53156 0.97073 0.73271 0.0
H566 H 0.57311 0.01488 0.81863 0.0
H567 H 0.56079 0.00482 0.78703 0.0
H568 H 0.48067 0.02543 0.77682 0.0
C569 C 0.46879 0.0025 0.7097 0.0
C570 C 0.52025 0.98266 0.74222 0.0
C571 C 0.46368 0.00872 0.69132 0.0
C572 C 0.5535 0.01042 0.8157 0.0
C573 C 0.54644 0.00457 0.7976 0.0
C574 C 0.49166 0.01292 0.76742 0.0
C575 C 0.49382 0.0008 0.71605 0.0
C576 C 0.49944 -0.00184 0.73599 0.0
C577 C 0.52094 0.00028 0.79306 0.0
C578 C 0.51289 -0.00187 0.77357 0.0
H579 H 0.52419 0.01343 0.67578 0.0
H580 H 0.53306 0.00309 0.70773 0.0
H581 H 0.46922 0.02559 0.74459 0.0
H582 H 0.49538 0.0071 0.83563 0.0
H583 H 0.48319 0.99661 0.8042 0.0
C584 C 0.50964 0.50678 0.18274 0.0
C585 C 0.53489 0.5127 0.17837 0.0
C586 C 0.50263 0.50071 0.20076 0.0
C587 C 0.5267 0.48255 0.24705 0.0
H588 H 0.46894 0.52519 0.26345 0.0
C589 C 0.50806 0.50893 0.32299 0.0
C590 C 0.48308 0.5121 0.32908 0.0
C591 C 0.51322 0.50302 0.30461 0.0
C592 C 0.48477 0.51262 0.2591 0.0
H593 H 0.57282 0.51533 0.18932 0.0
H594 H 0.56054 0.50494 0.22088 0.0
H595 H 0.48042 0.52544 0.23123 0.0
H596 H 0.44384 0.5098 0.32088 0.0
H597 H 0.45281 0.49895 0.28883 0.0
H598 H 0.53131 0.47022 0.27509 0.0
C599 C 0.54618 0.50481 0.21032 0.0
C600 C 0.49141 0.51281 0.24057 0.0
C601 C 0.55322 0.51085 0.19224 0.0
C602 C 0.4633 0.50766 0.3166 0.0
C603 C 0.46846 0.50164 0.2982 0.0
C604 C 0.52 0.48226 0.26563 0.0
C605 C 0.52068 0.50048 0.21486 0.0
C606 C 0.51265 0.49811 0.23435 0.0
C607 C 0.49351 0.50002 0.29188 0.0
C608 C 0.49917 0.49766 0.27192 0.0
H609 H 0.49507 0.50777 0.17235 0.0
H610 H 0.48291 0.49694 0.20374 0.0
H611 H 0.543 0.47075 0.24266 0.0
H612 H 0.52377 0.51218 0.33224 0.0
H613 H 0.53272 0.50221 0.30025 0.0
C614 C 0.05349 0.48541 0.31612 0.0
C615 C 0.03516 0.48371 0.33 0.0
C616 C 0.04647 0.49141 0.29803 0.0
C617 C 0.99168 0.48346 0.26782 0.0
H618 H 0.03181 0.52556 0.23316 0.0
C619 C 0.96383 0.48791 0.19171 0.0
C620 C 0.98364 0.48327 0.17929 0.0
C621 C 0.96894 0.49411 0.21009 0.0
C622 C 0.02043 0.51365 0.24266 0.0
H623 H 0.99537 0.4889 0.33602 0.0
H624 H 0.98325 0.49965 0.30462 0.0
H625 H 0.04343 0.52528 0.26561 0.0
H626 H 0.02434 0.48298 0.17621 0.0
H627 H 0.03321 0.49326 0.20817 0.0
H628 H 0.96921 0.47096 0.24497 0.0
C629 C 1.00295 0.49579 0.3076 0.0
C630 C 0.0271 0.51351 0.26124 0.0
C631 C 1.00994 0.48977 0.32563 0.0
C632 C 1.00862 0.4864 0.18542 0.0
C633 C 0.01372 0.49248 0.20377 0.0
C634 C 0.98508 0.4835 0.24928 0.0
C635 C 0.021 0.49585 0.29349 0.0
C636 C 0.01297 0.49812 0.274 0.0
C637 C 0.99397 0.4957 0.21646 0.0
C638 C 0.99956 0.49827 0.23641 0.0
H639 H 0.07307 0.48083 0.31905 0.0
H640 H 0.06083 0.49114 0.28747 0.0
H641 H 0.98063 0.47097 0.2772 0.0
H642 H 0.94438 0.48581 0.1874 0.0
H643 H 0.95327 0.49697 0.21942 0.0
C644 C 0.55833 0.48852 0.69164 0.0
C645 C 0.53857 0.48401 0.67916 0.0
C646 C 0.55315 0.49452 0.71004 0.0
C647 C 0.50156 0.51369 0.74262 0.0
H648 H 0.54126 0.47064 0.77701 0.0
C649 C 0.46843 0.48494 0.816 0.0
C650 C 0.48677 0.48315 0.82987 0.0
C651 C 0.47545 0.49101 0.79792 0.0
C652 C 0.53024 0.48323 0.76767 0.0
H653 H 0.49788 0.48378 0.676 0.0
H654 H 0.48889 0.49373 0.70799 0.0
H655 H 0.55274 0.47096 0.74479 0.0
H656 H 0.52657 0.48823 0.83589 0.0
H657 H 0.53869 0.49911 0.80451 0.0
H658 H 0.47852 0.5251 0.7656 0.0
C659 C 0.5084 0.49299 0.70363 0.0
C660 C 0.53687 0.48346 0.74914 0.0
C661 C 0.51357 0.4871 0.68525 0.0
C662 C 0.512 0.48917 0.8255 0.0
C663 C 0.51899 0.49526 0.80748 0.0
C664 C 0.49485 0.51337 0.7612 0.0
C665 C 0.5281 0.49605 0.71637 0.0
C666 C 0.52244 0.49838 0.73632 0.0
C667 C 0.50093 0.49544 0.79338 0.0
C668 C 0.50896 0.49785 0.7739 0.0
H669 H 0.5778 0.48644 0.68736 0.0
H670 H 0.56879 0.49727 0.71941 0.0
H671 H 0.49021 0.5257 0.73316 0.0
H672 H 0.44884 0.48039 0.81893 0.0
H673 H 0.46109 0.49083 0.78736 0.0
C674 C 0.05787 0.50778 0.81677 0.0
C675 C 0.03807 0.51242 0.82919 0.0
C676 C 0.05275 0.50164 0.79838 0.0
C677 C 1.00124 0.48226 0.76578 0.0
H678 H 0.04106 0.52505 0.73131 0.0
C679 C 0.96819 0.51078 0.69237 0.0
C680 C 0.98652 0.5125 0.67849 0.0
C681 C 0.97521 0.50473 0.71045 0.0
C682 C 0.03001 0.51253 0.74067 0.0
H683 H 0.99737 0.51272 0.83228 0.0
H684 H 0.98849 0.50253 0.80031 0.0
H685 H 0.05249 0.52491 0.76354 0.0
H686 H 0.02631 0.5073 0.67246 0.0
H687 H 0.03842 0.49646 0.70385 0.0
H688 H 0.97823 0.47074 0.74282 0.0
C689 C 1.00798 0.50328 0.8047 0.0
C690 C 0.03661 0.5124 0.75921 0.0
C691 C 0.01309 0.50932 0.82307 0.0
C692 C 0.01174 0.50642 0.68285 0.0
C693 C 0.01873 0.50035 0.70088 0.0
C694 C 0.99457 0.48248 0.7472 0.0
C695 C 0.02772 0.50009 0.79201 0.0
C696 C 0.02212 0.4976 0.77206 0.0
C697 C 1.00068 0.50026 0.71499 0.0
C698 C 1.00871 0.4979 0.73447 0.0
H699 H 0.07733 0.50986 0.82108 0.0
H700 H 0.06842 0.4988 0.78904 0.0
H701 H 0.98986 0.47033 0.77527 0.0
H702 H 0.94861 0.51538 0.68945 0.0
H703 H 0.96085 0.50498 0.72101 0.0
C704 C 0.02277 0.14171 0.13502 0.0
C705 C 0.04872 0.13677 0.13273 0.0
C706 C 0.01348 0.16876 0.13599 0.0
C707 C 0.031 0.24057 0.14629 0.0
H708 H 0.97375 0.25925 0.11558 0.0
C709 C 0.99892 0.35358 0.13509 0.0
C710 C 0.97302 0.35905 0.13313 0.0
C711 C 1.00777 0.32635 0.13605 0.0
C712 C 0.98946 0.25433 0.12449 0.0
H713 H 0.08533 0.15645 0.1301 0.0
H714 H 0.06904 0.20386 0.132 0.0
H715 H 0.99013 0.21203 0.11553 0.0
H716 H 0.93603 0.34013 0.13112 0.0
H717 H 0.9514 0.29254 0.1333 0.0
H718 H 0.03019 0.28269 0.15547 0.0
C719 C 0.05595 0.18666 0.13301 0.0
C720 C 0.9989 0.22728 0.12438 0.0
C721 C 0.06525 0.15954 0.13185 0.0
C722 C 0.95611 0.33663 0.13252 0.0
C723 C 0.96496 0.30934 0.13365 0.0
C724 C 0.02139 0.26757 0.14655 0.0
C725 C 0.02994 0.1915 0.13487 0.0
C726 C 0.01983 0.22016 0.13522 0.0
C727 C 0.99094 0.30385 0.13524 0.0
C728 C 1.00058 0.27485 0.13556 0.0
H729 H 1.00947 0.12467 0.13576 0.0
H730 H 0.99338 0.17189 0.13763 0.0
H731 H 0.04697 0.23554 0.15494 0.0
H732 H 0.01252 0.37035 0.13549 0.0
H733 H 0.02792 0.32298 0.13696 0.0
C734 C 0.45728 0.8369 0.13208 0.0
C735 C 0.47386 0.85964 0.1329 0.0
C736 C 0.46655 0.80976 0.13318 0.0
C737 C 0.5235 0.76908 0.12432 0.0
H738 H 0.49221 0.71354 0.15535 0.0
C739 C 0.56614 0.65959 0.13222 0.0
C740 C 0.54918 0.6372 0.1328 0.0
C741 C 0.55733 0.6869 0.1334 0.0
C742 C 0.50101 0.7287 0.14644 0.0
H743 H 0.51314 0.87166 0.13578 0.0
H744 H 0.52917 0.8244 0.13755 0.0
H745 H 0.47553 0.76074 0.15495 0.0
H746 H 0.50967 0.62596 0.13516 0.0
H747 H 0.49435 0.67336 0.13671 0.0
H748 H 0.54857 0.7371 0.1154 0.0
C749 C 0.50906 0.82758 0.13599 0.0
C750 C 0.49146 0.75573 0.14626 0.0
C751 C 0.49981 0.85465 0.13508 0.0
C752 C 0.52329 0.64271 0.13478 0.0
C753 C 0.51449 0.66995 0.13579 0.0
C754 C 0.5329 0.74201 0.12435 0.0
C755 C 0.49256 0.80486 0.13492 0.0
C756 C 0.50263 0.77618 0.1352 0.0
C757 C 0.53136 0.69242 0.13501 0.0
C758 C 0.52177 0.72145 0.1354 0.0
H759 H 0.43719 0.84004 0.13041 0.0
H760 H 0.45342 0.7926 0.13221 0.0
H761 H 0.53228 0.78436 0.11547 0.0
H762 H 0.5862 0.65606 0.13081 0.0
H763 H 0.57092 0.70367 0.13307 0.0
C764 C 0.49943 0.64109 0.3732 0.0
C765 C 0.47347 0.63612 0.37541 0.0
C766 C 0.50871 0.66814 0.37232 0.0
C767 C 0.49125 0.74 0.36211 0.0
H768 H 0.54836 0.75851 0.39301 0.0
C769 C 0.52336 0.85295 0.3735 0.0
C770 C 0.54926 0.85839 0.37551 0.0
C771 C 0.51448 0.82573 0.37253 0.0
C772 C 0.53269 0.75364 0.38405 0.0
H773 H 0.43684 0.65577 0.37798 0.0
H774 H 0.45313 0.70319 0.37623 0.0
H775 H 0.53196 0.71129 0.39294 0.0
H776 H 0.58622 0.83943 0.37759 0.0
H777 H 0.57082 0.79186 0.37537 0.0
H778 H 0.49212 0.78218 0.353 0.0
C779 C 0.46623 0.68601 0.37522 0.0
C780 C 0.52323 0.72659 0.38408 0.0
C781 C 0.45692 0.65888 0.37629 0.0
C782 C 0.56615 0.83595 0.37615 0.0
C783 C 0.55728 0.80867 0.375 0.0
C784 C 0.50087 0.76701 0.36193 0.0
C785 C 0.49225 0.69087 0.37345 0.0
C786 C 0.50236 0.71954 0.37318 0.0
C787 C 0.5313 0.80321 0.37335 0.0
C788 C 0.52163 0.77422 0.37298 0.0
H789 H 0.51273 0.62406 0.37246 0.0
H790 H 0.52882 0.6713 0.37075 0.0
H791 H 0.47532 0.73503 0.35341 0.0
H792 H 0.50978 0.86974 0.37308 0.0
H793 H 0.49434 0.82238 0.37158 0.0
C794 C 0.02228 0.35408 0.37319 0.0
C795 C 0.04823 0.35909 0.37544 0.0
C796 C 0.01306 0.32701 0.37219 0.0
C797 C 0.03079 0.25525 0.36179 0.0
H798 H 0.97353 0.23632 0.39245 0.0
C799 C 0.99905 0.1421 0.37302 0.0
C800 C 0.97316 0.13653 0.37494 0.0
C801 C 1.00782 0.16936 0.37206 0.0
C802 C 0.98924 0.24132 0.38355 0.0
H803 H 0.0849 0.33951 0.37797 0.0
H804 H 0.06871 0.29207 0.37602 0.0
H805 H 0.98977 0.2836 0.39252 0.0
H806 H 0.9361 0.15531 0.37684 0.0
H807 H 0.95133 0.20295 0.37465 0.0
H808 H 0.03014 0.21312 0.35261 0.0
C809 C 0.05558 0.30923 0.37506 0.0
C810 C 0.99861 0.2684 0.38367 0.0
C811 C 0.06482 0.33637 0.37625 0.0
C812 C 0.95617 0.15888 0.37547 0.0
C813 C 0.96494 0.18621 0.37434 0.0
C814 C 0.02127 0.2282 0.36153 0.0
C815 C 0.02958 0.3043 0.37324 0.0
C816 C 0.01954 0.27561 0.37286 0.0
C817 C 0.99091 0.1918 0.37281 0.0
C818 C 1.00046 0.22084 0.3725 0.0
H819 H 1.00895 0.37108 0.37249 0.0
H820 H 0.99297 0.32382 0.37057 0.0
H821 H 0.04676 0.26034 0.35316 0.0
H822 H 0.0127 0.12538 0.37268 0.0
H823 H 0.02796 0.17282 0.37119 0.0
C824 C 0.02298 0.64215 0.87326 0.0
C825 C 0.04887 0.63663 0.87525 0.0
C826 C 0.01419 0.6694 0.87225 0.0
C827 C 0.03263 0.74143 0.8837 0.0
H828 H 0.97522 0.76024 0.85314 0.0
C829 C 0.99953 0.85409 0.87304 0.0
C830 C 0.97358 0.85908 0.87526 0.0
C831 C 1.00878 0.82703 0.8721 0.0
C832 C 0.99116 0.75521 0.86182 0.0
H833 H 0.0859 0.65547 0.87723 0.0
H834 H 0.07063 0.70308 0.87497 0.0
H835 H 0.9919 0.71304 0.85271 0.0
H836 H 0.93692 0.83947 0.87779 0.0
H837 H 0.95315 0.79203 0.87595 0.0
H838 H 0.03202 0.78375 0.89259 0.0
C839 C 0.05704 0.68632 0.87464 0.0
C840 C 1.00071 0.72818 0.86162 0.0
C841 C 0.06583 0.65901 0.87582 0.0
C842 C 0.95701 0.83634 0.8761 0.0
C843 C 0.96627 0.8092 0.87497 0.0
C844 C 0.02324 0.7685 0.88374 0.0
C845 C 0.03107 0.69187 0.87303 0.0
C846 C 0.02148 0.72089 0.87265 0.0
C847 C 0.99228 0.80431 0.87318 0.0
C848 C 1.00235 0.77563 0.87288 0.0
H849 H 1.00935 0.62542 0.87289 0.0
H850 H 0.99405 0.67282 0.87133 0.0
H851 H 0.04831 0.7365 0.89263 0.0
H852 H 0.01285 0.8711 0.87233 0.0
H853 H 0.02888 0.82386 0.87051 0.0
C854 C 0.49872 0.35322 0.87363 0.0
C855 C 0.47281 0.35866 0.87556 0.0
C856 C 0.5076 0.326 0.87265 0.0
C857 C 0.4893 0.25389 0.88405 0.0
H858 H 0.54678 0.2353 0.85352 0.0
C859 C 0.52249 0.14132 0.8732 0.0
C860 C 0.54844 0.13632 0.87541 0.0
C861 C 0.51323 0.16839 0.87233 0.0
C862 C 0.53082 0.24027 0.86219 0.0
H863 H 0.43583 0.33969 0.87749 0.0
H864 H 0.45124 0.29213 0.87528 0.0
H865 H 0.53004 0.28247 0.85313 0.0
H866 H 0.58509 0.15594 0.87798 0.0
H867 H 0.56885 0.20338 0.87625 0.0
H868 H 0.48995 0.21152 0.89289 0.0
C869 C 0.46479 0.30894 0.87497 0.0
C870 C 0.52124 0.26729 0.86202 0.0
C871 C 0.45591 0.33622 0.87611 0.0
C872 C 0.56501 0.15907 0.8763 0.0
C873 C 0.55574 0.18621 0.87524 0.0
C874 C 0.49873 0.22684 0.88408 0.0
C875 C 0.49077 0.30348 0.8734 0.0
C876 C 0.50043 0.27449 0.87303 0.0
C877 C 0.52972 0.1911 0.87346 0.0
C878 C 0.51964 0.21978 0.87321 0.0
H879 H 0.51231 0.37001 0.87327 0.0
H880 H 0.52774 0.32265 0.87176 0.0
H881 H 0.4736 0.25875 0.89297 0.0
H882 H 0.50917 0.1243 0.87246 0.0
H883 H 0.49313 0.17156 0.87075 0.0
C884 C 0.49887 0.143 0.63466 0.0
C885 C 0.47297 0.13754 0.63268 0.0
C886 C 0.50772 0.17023 0.63567 0.0
C887 C 0.4894 0.24234 0.6243 0.0
H888 H 0.54683 0.26093 0.65487 0.0
C889 C 0.52253 0.3549 0.63523 0.0
C890 C 0.54847 0.35992 0.63298 0.0
C891 C 0.51329 0.32782 0.63611 0.0
C892 C 0.53089 0.25596 0.64619 0.0
H893 H 0.43598 0.15646 0.6307 0.0
H894 H 0.45134 0.20403 0.63298 0.0
H895 H 0.5301 0.21375 0.65524 0.0
H896 H 0.58513 0.34035 0.63034 0.0
H897 H 0.56891 0.29289 0.63209 0.0
H898 H 0.49005 0.28471 0.61548 0.0
C899 C 0.46491 0.18724 0.6333 0.0
C900 C 0.52131 0.22893 0.64635 0.0
C901 C 0.45605 0.15996 0.63212 0.0
C902 C 0.56505 0.33719 0.63206 0.0
C903 C 0.55579 0.31005 0.63313 0.0
C904 C 0.49882 0.26939 0.62429 0.0
C905 C 0.49089 0.19273 0.63491 0.0
C906 C 0.50052 0.22173 0.63532 0.0
C907 C 0.52979 0.30513 0.63494 0.0
C908 C 0.51972 0.27644 0.63517 0.0
H909 H 0.51247 0.12623 0.63503 0.0
H910 H 0.52787 0.1736 0.6366 0.0
H911 H 0.47371 0.23747 0.61536 0.0
H912 H 0.5092 0.3719 0.636 0.0
H913 H 0.49319 0.32463 0.63771 0.0
C914 C 0.06601 0.83716 0.63239 0.0
C915 C 0.04905 0.85954 0.63299 0.0
C916 C 0.05721 0.80985 0.63356 0.0
C917 C 1.00089 0.76799 0.64661 0.0
H918 H 0.03212 0.71244 0.61559 0.0
C919 C 0.95707 0.65989 0.63211 0.0
C920 C 0.97362 0.63713 0.63293 0.0
C921 C 0.96636 0.68701 0.63324 0.0
C922 C 0.02336 0.72769 0.62445 0.0
H923 H 1.00955 0.87076 0.63539 0.0
H924 H 0.99423 0.82335 0.63694 0.0
H925 H 0.04844 0.75968 0.61555 0.0
H926 H 0.01288 0.62506 0.63583 0.0
H927 H 0.02896 0.6723 0.63765 0.0
H928 H 0.97539 0.73593 0.65509 0.0
C929 C 0.01437 0.82677 0.636 0.0
C930 C 0.03277 0.75475 0.6245 0.0
C931 C 0.02317 0.85402 0.63499 0.0
C932 C 0.99958 0.64209 0.63514 0.0
C933 C 1.00885 0.66915 0.63608 0.0
C934 C 0.99132 0.74096 0.6464 0.0
C935 C 0.03124 0.80431 0.63519 0.0
C936 C 0.02165 0.77528 0.63557 0.0
C937 C 0.99238 0.69188 0.63501 0.0
C938 C 1.00247 0.72055 0.63533 0.0
H939 H 0.08608 0.8407 0.63095 0.0
H940 H 0.07079 0.79309 0.63321 0.0
H941 H 0.9921 0.78311 0.65553 0.0
H942 H 0.93698 0.65678 0.63043 0.0
H943 H 0.95326 0.7042 0.63227 0.0
C944 C 0.99304 0.98888 0.9349 0.0
C945 C 0.97051 0.97376 0.93304 0.0
C946 C 1.00234 0.99564 0.95227 0.0
C947 C 0.99914 0.97246 1.00039 0.0
H948 H 0.03098 0.04322 0.01051 0.0
C949 C 0.02874 0.00687 0.0733 0.0
C950 C 0.05133 0.02191 0.0751 0.0
C951 C 0.01935 9e-05 0.05595 0.0
C952 C 0.02244 0.02322 0.00783 0.0
H953 H 0.93955 0.95492 0.94802 0.0
H954 H 0.95562 0.96705 0.97828 0.0
H955 H 0.01266 0.03468 0.98036 0.0
H956 H 0.0823 0.04058 0.06004 0.0
H957 H 0.06608 0.02843 0.02983 0.0
H958 H 1.00891 0.961 0.02786 0.0
C959 C 0.96633 0.97322 0.9663 0.0
C960 C 0.01189 0.01835 0.99057 0.0
C961 C 0.95702 0.96646 0.94893 0.0
C962 C 0.06478 0.02911 0.05917 0.0
C963 C 0.05539 0.02234 0.04183 0.0
C964 C 1.00969 0.97732 0.01766 0.0
C965 C 0.98932 0.98746 0.96818 0.0
C966 C 1.00011 0.99292 0.98664 0.0
C967 C 0.03234 0.00819 0.04001 0.0
C968 C 0.02148 0.00275 0.02157 0.0
H969 H 1.00395 0.99481 0.92296 0.0
H970 H 0.0202 0.00645 0.95323 0.0
H971 H 0.99061 0.95245 0.99771 0.0
H972 H 0.01786 0.00103 0.08527 0.0
H973 H 1.00146 0.98935 0.05503 0.0
C974 C 0.52897 0.00602 0.93468 0.0
C975 C 0.55141 0.02132 0.93288 0.0
C976 C 0.51956 -0.00072 0.95203 0.0
C977 C 0.53694 0.99408 1.0011 0.0
H978 H 0.46528 0.00484 0.009 0.0
C979 C 0.49328 0.98972 0.0734 0.0
C980 C 0.47084 0.97443 0.07523 0.0
C981 C 0.50269 0.9964 0.05604 0.0
C982 C 0.48528 0.0015 0.00698 0.0
H983 H 0.58205 0.0406 0.94795 0.0
H984 H 0.56558 0.02896 0.97816 0.0
H985 H 0.48315 0.01274 0.97862 0.0
H986 H 0.44021 0.95508 0.06019 0.0
H987 H 0.45666 0.96663 0.02997 0.0
H988 H 0.53907 0.98284 0.02945 0.0
C989 C 0.55531 0.02203 0.96616 0.0
C990 C 0.49552 0.00594 0.98956 0.0
C991 C 0.56472 0.02879 0.94882 0.0
C992 C 0.45753 0.96689 0.05931 0.0
C993 C 0.46693 0.9736 0.04195 0.0
C994 C 0.5267 0.98963 0.01851 0.0
C995 C 0.53239 0.00765 0.96797 0.0
C996 C 0.52147 0.00228 0.98641 0.0
C997 C 0.48985 0.98799 0.04011 0.0
C998 C 0.50075 0.99331 0.02166 0.0
H999 H 0.51827 -0.00018 0.9227 0.0
H1000 H 0.50208 0.98775 0.95296 0.0
H1001 H 0.55694 0.99074 0.99908 0.0
H1002 H 0.50398 0.99596 0.08537 0.0
H1003 H 0.52016 0.00794 0.05509 0.0
C1004 C 0.4574 0.02913 0.5593 0.0
C1005 C 0.47114 0.02231 0.57517 0.0
C1006 C 0.46666 0.02231 0.54193 0.0
C1007 C 0.51263 0.9777 0.5177 0.0
H1008 H 0.50842 0.03447 0.48008 0.0
C1009 C 0.56482 0.9669 0.4488 0.0
C1010 C 0.55109 0.97369 0.43292 0.0
C1011 C 0.55554 0.97372 0.46616 0.0
C1012 C 0.50954 0.01831 0.49038 0.0
H1013 H 0.505 0.00208 0.58522 0.0
H1014 H 0.52116 0.99032 0.55493 0.0
H1015 H 0.49034 0.04313 0.51029 0.0
H1016 H 0.51723 0.9939 0.42285 0.0
H1017 H 0.50103 0.00567 0.45314 0.0
H1018 H 0.53183 0.95288 0.49779 0.0
C1019 C 0.50315 0.00079 0.55592 0.0
C1020 C 0.49913 0.02323 0.50768 0.0
C1021 C 0.4939 0.00762 0.57329 0.0
C1022 C 0.52832 0.98838 0.43479 0.0
C1023 C 0.51905 0.99521 0.45216 0.0
C1024 C 0.52304 0.97277 0.5004 0.0
C1025 C 0.48985 0.0085 0.54003 0.0
C1026 C 0.50054 0.00298 0.52154 0.0
C1027 C 0.53234 0.98752 0.46805 0.0
C1028 C 0.52164 0.99303 0.48654 0.0
H1029 H 0.43975 0.04033 0.56023 0.0
H1030 H 0.45574 0.02809 0.52997 0.0
H1031 H 0.51376 0.96153 0.528 0.0
H1032 H 0.58248 0.95571 0.44788 0.0
H1033 H 0.56646 0.96796 0.47813 0.0
C1034 C 0.02792 0.98959 0.57353 0.0
C1035 C 0.05057 0.9747 0.57539 0.0
C1036 C 0.01859 0.99633 0.55616 0.0
C1037 C 0.0365 0.00242 0.50723 0.0
H1038 H 0.96509 0.99057 0.4988 0.0
C1039 C 0.99372 0.00667 0.43466 0.0
C1040 C 0.97111 0.02162 0.43273 0.0
C1041 C 1.00299 2e-05 0.45206 0.0
C1042 C 0.98502 0.99422 0.50097 0.0
H1043 H 0.08164 0.95613 0.5604 0.0
H1044 H 0.06532 0.96777 0.53016 0.0
H1045 H 0.98268 0.98263 0.52926 0.0
H1046 H 0.94004 0.04038 0.44762 0.0
H1047 H 0.95626 0.02887 0.47792 0.0
H1048 H 0.03884 0.01399 0.47894 0.0
C1049 C 0.05482 0.97439 0.54213 0.0
C1050 C 0.9951 0.98976 0.51844 0.0
C1051 C 0.06415 0.96762 0.55949 0.0
C1052 C 0.95751 0.02884 0.44858 0.0
C1053 C 0.96677 0.02215 0.46598 0.0
C1054 C 0.02642 0.00688 0.48977 0.0
C1055 C 0.03172 0.98839 0.54025 0.0
C1056 C 0.02095 0.9938 0.52177 0.0
C1057 C 0.98984 0.00811 0.46793 0.0
C1058 C 1.00057 0.00281 0.48643 0.0
H1059 H 0.01701 0.99547 0.58548 0.0
H1060 H 1.00095 0.00756 0.55519 0.0
H1061 H 0.05643 0.00607 0.5094 0.0
H1062 H 1.00465 0.00068 0.42275 0.0
H1063 H 0.0206 0.98875 0.4531 0.0
C1064 C 0.56466 0.52926 0.05926 0.0
C1065 C 0.55111 0.52214 0.07517 0.0
C1066 C 0.55532 0.5225 0.04191 0.0
C1067 C 0.50955 0.47758 0.0177 0.0
H1068 H 0.51286 0.53476 0.98031 0.0
C1069 C 0.45694 0.46672 0.94897 0.0
C1070 C 0.47051 0.47383 0.93307 0.0
C1071 C 0.46625 0.47353 0.96632 0.0
C1072 C 0.51199 0.51849 0.99054 0.0
H1073 H 0.51753 0.50141 0.08528 0.0
H1074 H 0.50123 0.48974 0.05502 0.0
H1075 H 0.53114 0.54334 0.01047 0.0
H1076 H 0.50409 0.49459 0.92297 0.0
H1077 H 0.52033 0.50632 0.95324 0.0
H1078 H 0.4904 0.45272 0.99778 0.0
C1079 C 0.51916 0.50042 0.05597 0.0
C1080 C 0.52252 0.52337 0.00781 0.0
C1081 C 0.52848 0.50719 0.07333 0.0
C1082 C 0.49312 0.48881 0.93492 0.0
C1083 C 0.50242 0.49563 0.95228 0.0
C1084 C 0.49902 0.4727 1.00043 0.0
C1085 C 0.53224 0.50843 0.04005 0.0
C1086 C 0.52144 0.50296 0.02159 0.0
C1087 C 0.48932 0.48762 0.96819 0.0
C1088 C 0.5001 0.4931 0.98665 0.0
H1089 H 0.58221 0.54067 0.06016 0.0
H1090 H 0.56609 0.52852 0.02992 0.0
H1091 H 0.50868 0.4613 0.02794 0.0
H1092 H 0.43941 0.45529 0.94806 0.0
H1093 H 0.45548 0.46751 0.97831 0.0
C1094 C 0.95761 0.46725 0.05971 0.0
C1095 C 0.97126 0.47425 0.07559 0.0
C1096 C 0.96689 0.47403 0.04234 0.0
C1097 C 0.02657 0.48924 0.01855 0.0
H1098 H 0.9828 0.51386 0.97918 0.0
C1099 C 0.06417 0.52855 0.94877 0.0
C1100 C 0.05051 0.52152 0.9329 0.0
C1101 C 0.0549 0.5218 0.96615 0.0
C1102 C 0.99523 0.50664 0.98997 0.0
H1103 H 1.00492 0.49489 0.08564 0.0
H1104 H 0.0209 0.50701 0.05532 0.0
H1105 H 0.96528 0.50586 0.00965 0.0
H1106 H 0.01685 0.50087 0.92288 0.0
H1107 H 1.00088 0.48881 0.95321 0.0
H1108 H 0.05652 0.49001 0.99886 0.0
C1109 C 1.00324 0.49583 0.05632 0.0
C1110 C 0.98519 0.50214 0.00744 0.0
C1111 C 0.99395 0.48907 0.0737 0.0
C1112 C 0.02782 0.50671 0.93481 0.0
C1113 C 0.01854 0.49998 0.9522 0.0
C1114 C 0.03661 0.49374 1.00107 0.0
C1115 C 0.99003 0.48797 0.04043 0.0
C1116 C 1.00075 0.49339 0.02194 0.0
C1117 C 0.03176 0.50787 0.96808 0.0
C1118 C 0.02105 0.50248 0.98658 0.0
H1119 H 0.94009 0.45581 0.06064 0.0
H1120 H 0.95634 0.46748 0.03038 0.0
H1121 H 0.039 0.48201 0.02933 0.0
H1122 H 0.0817 0.53998 0.94783 0.0
H1123 H 0.06546 0.52836 0.9781 0.0
C1124 C 0.9929 0.50708 0.57344 0.0
C1125 C 0.97043 0.52231 0.57526 0.0
C1126 C 1.00223 0.50027 0.55609 0.0
C1127 C 0.99931 0.52351 0.50798 0.0
H1128 H 0.03079 0.45255 0.49785 0.0
C1129 C 0.02875 0.48905 0.43507 0.0
C1130 C 0.05123 0.47383 0.43324 0.0
C1131 C 0.01943 0.49586 0.45243 0.0
C1132 C 0.02235 0.47261 0.50053 0.0
H1133 H 0.93959 0.54129 0.56023 0.0
H1134 H 0.95571 0.52907 0.53 0.0
H1135 H 0.01245 0.46117 0.52798 0.0
H1136 H 0.08207 0.45484 0.44827 0.0
H1137 H 0.06595 0.46704 0.4785 0.0
H1138 H 1.00922 0.53494 0.48053 0.0
C1139 C 0.96636 0.52286 0.542 0.0
C1140 C 0.01179 0.47751 0.51779 0.0
C1141 C 0.95702 0.52967 0.55934 0.0
C1142 C 0.06464 0.46646 0.44916 0.0
C1143 C 0.0553 0.47325 0.46651 0.0
C1144 C 1.00988 0.5186 0.49072 0.0
C1145 C 0.9893 0.50851 0.54016 0.0
C1146 C 1.00013 0.50302 0.52171 0.0
C1147 C 0.03236 0.4876 0.46835 0.0
C1148 C 0.02154 0.4931 0.4868 0.0
H1149 H 1.00374 0.50111 0.5854 0.0
H1150 H 0.02004 0.48937 0.55515 0.0
H1151 H 0.99088 0.54356 0.51066 0.0
H1152 H 0.01791 0.49504 0.42311 0.0
H1153 H 1.00161 0.50675 0.45336 0.0
C1154 C 0.52835 0.48971 0.57352 0.0
C1155 C 0.55096 0.47474 0.57538 0.0
C1156 C 0.51896 0.49633 0.55614 0.0
C1157 C 0.53661 0.5019 0.50714 0.0
H1158 H 0.46513 0.49014 0.49898 0.0
C1159 C 0.49333 0.5061 0.43471 0.0
C1160 C 0.47074 0.52112 0.43287 0.0
C1161 C 0.50271 0.49941 0.45207 0.0
C1162 C 0.48508 0.49376 0.50107 0.0
H1163 H 0.5819 0.45591 0.56038 0.0
H1164 H 0.56547 0.46735 0.53014 0.0
H1165 H 0.48289 0.48239 0.5294 0.0
H1166 H 0.43982 0.53993 0.44789 0.0
H1167 H 0.45623 0.52837 0.47811 0.0
H1168 H 0.5388 0.51328 0.47881 0.0
C1169 C 0.55506 0.47412 0.54211 0.0
C1170 C 0.49525 0.4894 0.51852 0.0
C1171 C 0.56444 0.46747 0.55947 0.0
C1172 C 0.45726 0.52834 0.44878 0.0
C1173 C 0.46664 0.52163 0.46613 0.0
C1174 C 0.52644 0.50626 0.4897 0.0
C1175 C 0.53199 0.48818 0.54023 0.0
C1176 C 0.52114 0.49343 0.52176 0.0
C1177 C 0.4897 0.50753 0.46799 0.0
C1178 C 0.50055 0.50223 0.48645 0.0
H1179 H 0.51751 0.49573 0.58547 0.0
H1180 H 0.50135 0.50762 0.55516 0.0
H1181 H 0.55656 0.50552 0.50923 0.0
H1182 H 0.50416 0.50011 0.42274 0.0
H1183 H 0.52031 0.48811 0.45303 0.0
loop_
_geom_bond_atom_site_label_1
_geom_bond_atom_site_label_2
_geom_bond_distance
_geom_bond_site_symmetry_2
_ccdc_geom_bond_type
O0 Cd1 2.223 . S
O0 C8 1.315 . S
Cd1 O0 2.223 . S
Cd1 O4 2.297 . S
Cd1 O5 2.439 . S
Cd1 O11 2.240 . S
Cd2 O3 2.240 . S
Cd2 O10 2.223 . S
Cd2 O12 2.297 . S
Cd2 O13 2.439 . S
O3 Cd2 2.240 . S
O3 C8 1.279 . S
O4 Cd1 2.297 . S
O4 C6 1.247 . S
O5 Cd1 2.439 . S
O5 C6 1.208 . S
C6 O4 1.247 . S
C6 O5 1.208 . S
C7 O12 1.247 . S
C7 O13 1.208 . S
C8 O0 1.315 . S
C8 O3 1.279 . S
C9 O10 1.315 . S
C9 O11 1.279 . S
O10 Cd2 2.223 . S
O10 C9 1.315 . S
O11 Cd1 2.240 . S
O11 C9 1.279 . S
O12 Cd2 2.297 . S
O12 C7 1.247 . S
O13 Cd2 2.439 . S
O13 C7 1.208 . S
O14 Cd15 2.223 . S
O14 C22 1.315 . S
Cd15 O14 2.223 . S
Cd15 O18 2.297 . S
Cd15 O19 2.439 . S
Cd15 O25 2.240 . S
Cd16 O17 2.240 . S
Cd16 O24 2.223 . S
Cd16 O26 2.297 . S
Cd16 O27 2.439 . S
O17 Cd16 2.240 . S
O17 C22 1.279 . S
O18 Cd15 2.297 . S
O18 C20 1.247 . S
O19 Cd15 2.439 . S
O19 C20 1.208 . S
C20 O18 1.247 . S
C20 O19 1.208 . S
C21 O26 1.247 . S
C21 O27 1.208 . S
C22 O14 1.315 . S
C22 O17 1.279 . S
C23 O24 1.315 . S
C23 O25 1.279 . S
O24 Cd16 2.223 . S
O24 C23 1.315 . S
O25 Cd15 2.240 . S
O25 C23 1.279 . S
O26 Cd16 2.297 . S
O26 C21 1.247 . S
O27 Cd16 2.439 . S
O27 C21 1.208 . S
O28 Cd29 2.223 . S
O28 C36 1.315 . S
Cd29 O28 2.223 . S
Cd29 O32 2.297 . S
Cd29 O33 2.439 . S
Cd29 O39 2.240 . S
Cd30 O31 2.240 . S
Cd30 O38 2.223 . S
Cd30 O40 2.297 . S
Cd30 O41 2.439 . S
O31 Cd30 2.240 . S
O31 C36 1.279 . S
O32 Cd29 2.297 . S
O32 C34 1.247 . S
O33 Cd29 2.439 . S
O33 C34 1.208 . S
C34 O32 1.247 . S
C34 O33 1.208 . S
C35 O40 1.247 . S
C35 O41 1.208 . S
C36 O28 1.315 . S
C36 O31 1.279 . S
C37 O38 1.315 . S
C37 O39 1.279 . S
O38 Cd30 2.223 . S
O38 C37 1.315 . S
O39 Cd29 2.240 . S
O39 C37 1.279 . S
O40 Cd30 2.297 . S
O40 C35 1.247 . S
O41 Cd30 2.439 . S
O41 C35 1.208 . S
O42 Cd43 2.223 . S
O42 C50 1.315 . S
Cd43 O42 2.223 . S
Cd43 O46 2.297 . S
Cd43 O47 2.439 . S
Cd43 O53 2.240 . S
Cd44 O45 2.240 . S
Cd44 O52 2.223 . S
Cd44 O54 2.297 . S
Cd44 O55 2.439 . S
O45 Cd44 2.240 . S
O45 C50 1.279 . S
O46 Cd43 2.297 . S
O46 C48 1.247 . S
O47 Cd43 2.439 . S
O47 C48 1.208 . S
C48 O46 1.247 . S
C48 O47 1.208 . S
C49 O54 1.247 . S
C49 O55 1.208 . S
C50 O42 1.315 . S
C50 O45 1.279 . S
C51 O52 1.315 . S
C51 O53 1.279 . S
O52 Cd44 2.223 . S
O52 C51 1.315 . S
O53 Cd43 2.240 . S
O53 C51 1.279 . S
O54 Cd44 2.297 . S
O54 C49 1.247 . S
O55 Cd44 2.439 . S
O55 C49 1.208 . S
O56 Cd57 2.223 . S
O56 C64 1.315 . S
Cd57 O56 2.223 . S
Cd57 O60 2.297 . S
Cd57 O61 2.439 . S
Cd57 O67 2.240 . S
Cd58 O59 2.240 . S
Cd58 O66 2.223 . S
Cd58 O68 2.297 . S
Cd58 O69 2.439 . S
O59 Cd58 2.240 . S
O59 C64 1.279 . S
O60 Cd57 2.297 . S
O60 C62 1.247 . S
O61 Cd57 2.439 . S
O61 C62 1.208 . S
C62 O60 1.247 . S
C62 O61 1.208 . S
C63 O68 1.247 . S
C63 O69 1.208 . S
C64 O56 1.315 . S
C64 O59 1.279 . S
C65 O66 1.315 . S
C65 O67 1.279 . S
O66 Cd58 2.223 . S
O66 C65 1.315 . S
O67 Cd57 2.240 . S
O67 C65 1.279 . S
O68 Cd58 2.297 . S
O68 C63 1.247 . S
O69 Cd58 2.439 . S
O69 C63 1.208 . S
O70 Cd71 2.223 . S
O70 C78 1.315 . S
Cd71 O70 2.223 . S
Cd71 O74 2.297 . S
Cd71 O75 2.439 . S
Cd71 O81 2.240 . S
Cd72 O73 2.240 . S
Cd72 O80 2.223 . S
Cd72 O82 2.297 . S
Cd72 O83 2.439 . S
O73 Cd72 2.240 . S
O73 C78 1.279 . S
O74 Cd71 2.297 . S
O74 C76 1.247 . S
O75 Cd71 2.439 . S
O75 C76 1.208 . S
C76 O74 1.247 . S
C76 O75 1.208 . S
C77 O82 1.247 . S
C77 O83 1.208 . S
C78 O70 1.315 . S
C78 O73 1.279 . S
C79 O80 1.315 . S
C79 O81 1.279 . S
O80 Cd72 2.223 . S
O80 C79 1.315 . S
O81 Cd71 2.240 . S
O81 C79 1.279 . S
O82 Cd72 2.297 . S
O82 C77 1.247 . S
O83 Cd72 2.439 . S
O83 C77 1.208 . S
O84 Cd85 2.223 . S
O84 C92 1.315 . S
Cd85 O84 2.223 . S
Cd85 O88 2.297 . S
Cd85 O89 2.439 . S
Cd85 O95 2.240 . S
Cd86 O87 2.240 . S
Cd86 O94 2.223 . S
Cd86 O96 2.297 . S
Cd86 O97 2.439 . S
O87 Cd86 2.240 . S
O87 C92 1.279 . S
O88 Cd85 2.297 . S
O88 C90 1.247 . S
O89 Cd85 2.439 . S
O89 C90 1.208 . S
C90 O88 1.247 . S
C90 O89 1.208 . S
C91 O96 1.247 . S
C91 O97 1.208 . S
C92 O84 1.315 . S
C92 O87 1.279 . S
C93 O94 1.315 . S
C93 O95 1.279 . S
O94 Cd86 2.223 . S
O94 C93 1.315 . S
O95 Cd85 2.240 . S
O95 C93 1.279 . S
O96 Cd86 2.297 . S
O96 C91 1.247 . S
O97 Cd86 2.439 . S
O97 C91 1.208 . S
O98 Cd99 2.223 . S
O98 C106 1.315 . S
Cd99 O98 2.223 . S
Cd99 O102 2.297 . S
Cd99 O103 2.439 . S
Cd99 O109 2.240 . S
Cd100 O101 2.240 . S
Cd100 O108 2.223 . S
Cd100 O110 2.297 . S
Cd100 O111 2.439 . S
O101 Cd100 2.240 . S
O101 C106 1.279 . S
O102 Cd99 2.297 . S
O102 C104 1.247 . S
O103 Cd99 2.439 . S
O103 C104 1.208 . S
C104 O102 1.247 . S
C104 O103 1.208 . S
C105 O110 1.247 . S
C105 O111 1.208 . S
C106 O98 1.315 . S
C106 O101 1.279 . S
C107 O108 1.315 . S
C107 O109 1.279 . S
O108 Cd100 2.223 . S
O108 C107 1.315 . S
O109 Cd99 2.240 . S
O109 C107 1.279 . S
O110 Cd100 2.297 . S
O110 C105 1.247 . S
O111 Cd100 2.439 . S
O111 C105 1.208 . S
O112 Cd113 2.223 . S
O112 C120 1.315 . S
Cd113 O112 2.223 . S
Cd113 O116 2.297 . S
Cd113 O117 2.439 . S
Cd113 O123 2.240 . S
Cd114 O115 2.240 . S
Cd114 O122 2.223 . S
Cd114 O124 2.297 . S
Cd114 O125 2.439 . S
O115 Cd114 2.240 . S
O115 C120 1.279 . S
O116 Cd113 2.297 . S
O116 C118 1.247 . S
O117 Cd113 2.439 . S
O117 C118 1.208 . S
C118 O116 1.247 . S
C118 O117 1.208 . S
C119 O124 1.247 . S
C119 O125 1.208 . S
C120 O112 1.315 . S
C120 O115 1.279 . S
C121 O122 1.315 . S
C121 O123 1.279 . S
O122 Cd114 2.223 . S
O122 C121 1.315 . S
O123 Cd113 2.240 . S
O123 C121 1.279 . S
O124 Cd114 2.297 . S
O124 C119 1.247 . S
O125 Cd114 2.439 . S
O125 C119 1.208 . S
O126 Cd127 2.223 . S
O126 C134 1.315 . S
Cd127 O126 2.223 . S
Cd127 O130 2.297 . S
Cd127 O131 2.439 . S
Cd127 O137 2.240 . S
Cd128 O129 2.240 . S
Cd128 O136 2.223 . S
Cd128 O138 2.297 . S
Cd128 O139 2.439 . S
O129 Cd128 2.240 . S
O129 C134 1.279 . S
O130 Cd127 2.297 . S
O130 C132 1.247 . S
O131 Cd127 2.439 . S
O131 C132 1.208 . S
C132 O130 1.247 . S
C132 O131 1.208 . S
C133 O138 1.247 . S
C133 O139 1.208 . S
C134 O126 1.315 . S
C134 O129 1.279 . S
C135 O136 1.315 . S
C135 O137 1.279 . S
O136 Cd128 2.223 . S
O136 C135 1.315 . S
O137 Cd127 2.240 . S
O137 C135 1.279 . S
O138 Cd128 2.297 . S
O138 C133 1.247 . S
O139 Cd128 2.439 . S
O139 C133 1.208 . S
O140 Cd141 2.223 . S
O140 C148 1.315 . S
Cd141 O140 2.223 . S
Cd141 O144 2.297 . S
Cd141 O145 2.439 . S
Cd141 O151 2.240 . S
Cd142 O143 2.240 . S
Cd142 O150 2.223 . S
Cd142 O152 2.297 . S
Cd142 O153 2.439 . S
O143 Cd142 2.240 . S
O143 C148 1.279 . S
O144 Cd141 2.297 . S
O144 C146 1.247 . S
O145 Cd141 2.439 . S
O145 C146 1.208 . S
C146 O144 1.247 . S
C146 O145 1.208 . S
C147 O152 1.247 . S
C147 O153 1.208 . S
C148 O140 1.315 . S
C148 O143 1.279 . S
C149 O150 1.315 . S
C149 O151 1.279 . S
O150 Cd142 2.223 . S
O150 C149 1.315 . S
O151 Cd141 2.240 . S
O151 C149 1.279 . S
O152 Cd142 2.297 . S
O152 C147 1.247 . S
O153 Cd142 2.439 . S
O153 C147 1.208 . S
O154 Cd155 2.223 . S
O154 C162 1.315 . S
Cd155 O154 2.223 . S
Cd155 O158 2.297 . S
Cd155 O159 2.439 . S
Cd155 O165 2.240 . S
Cd156 O157 2.240 . S
Cd156 O164 2.223 . S
Cd156 O166 2.297 . S
Cd156 O167 2.439 . S
O157 Cd156 2.240 . S
O157 C162 1.279 . S
O158 Cd155 2.297 . S
O158 C160 1.247 . S
O159 Cd155 2.439 . S
O159 C160 1.208 . S
C160 O158 1.247 . S
C160 O159 1.208 . S
C161 O166 1.247 . S
C161 O167 1.208 . S
C162 O154 1.315 . S
C162 O157 1.279 . S
C163 O164 1.315 . S
C163 O165 1.279 . S
O164 Cd156 2.223 . S
O164 C163 1.315 . S
O165 Cd155 2.240 . S
O165 C163 1.279 . S
O166 Cd156 2.297 . S
O166 C161 1.247 . S
O167 Cd156 2.439 . S
O167 C161 1.208 . S
O168 Cd169 2.223 . S
O168 C176 1.315 . S
Cd169 O168 2.223 . S
Cd169 O172 2.297 . S
Cd169 O173 2.439 . S
Cd169 O179 2.240 . S
Cd170 O171 2.240 . S
Cd170 O178 2.223 . S
Cd170 O180 2.297 . S
Cd170 O181 2.439 . S
O171 Cd170 2.240 . S
O171 C176 1.279 . S
O172 Cd169 2.297 . S
O172 C174 1.247 . S
O173 Cd169 2.439 . S
O173 C174 1.208 . S
C174 O172 1.247 . S
C174 O173 1.208 . S
C175 O180 1.247 . S
C175 O181 1.208 . S
C176 O168 1.315 . S
C176 O171 1.279 . S
C177 O178 1.315 . S
C177 O179 1.279 . S
O178 Cd170 2.223 . S
O178 C177 1.315 . S
O179 Cd169 2.240 . S
O179 C177 1.279 . S
O180 Cd170 2.297 . S
O180 C175 1.247 . S
O181 Cd170 2.439 . S
O181 C175 1.208 . S
O182 Cd183 2.223 . S
O182 C190 1.315 . S
Cd183 O182 2.223 . S
Cd183 O186 2.297 . S
Cd183 O187 2.439 . S
Cd183 O193 2.240 . S
Cd184 O185 2.240 . S
Cd184 O192 2.223 . S
Cd184 O194 2.297 . S
Cd184 O195 2.439 . S
O185 Cd184 2.240 . S
O185 C190 1.279 . S
O186 Cd183 2.297 . S
O186 C188 1.247 . S
O187 Cd183 2.439 . S
O187 C188 1.208 . S
C188 O186 1.247 . S
C188 O187 1.208 . S
C189 O194 1.247 . S
C189 O195 1.208 . S
C190 O182 1.315 . S
C190 O185 1.279 . S
C191 O192 1.315 . S
C191 O193 1.279 . S
O192 Cd184 2.223 . S
O192 C191 1.315 . S
O193 Cd183 2.240 . S
O193 C191 1.279 . S
O194 Cd184 2.297 . S
O194 C189 1.247 . S
O195 Cd184 2.439 . S
O195 C189 1.208 . S
O196 Cd197 2.223 . S
O196 C204 1.315 . S
Cd197 O196 2.223 . S
Cd197 O200 2.297 . S
Cd197 O201 2.439 . S
Cd197 O207 2.240 . S
Cd198 O199 2.240 . S
Cd198 O206 2.223 . S
Cd198 O208 2.297 . S
Cd198 O209 2.439 . S
O199 Cd198 2.240 . S
O199 C204 1.279 . S
O200 Cd197 2.297 . S
O200 C202 1.247 . S
O201 Cd197 2.439 . S
O201 C202 1.208 . S
C202 O200 1.247 . S
C202 O201 1.208 . S
C203 O208 1.247 . S
C203 O209 1.208 . S
C204 O196 1.315 . S
C204 O199 1.279 . S
C205 O206 1.315 . S
C205 O207 1.279 . S
O206 Cd198 2.223 . S
O206 C205 1.315 . S
O207 Cd197 2.240 . S
O207 C205 1.279 . S
O208 Cd198 2.297 . S
O208 C203 1.247 . S
O209 Cd198 2.439 . S
O209 C203 1.208 . S
O210 Cd211 2.223 . S
O210 C218 1.315 . S
Cd211 O210 2.223 . S
Cd211 O214 2.297 . S
Cd211 O215 2.439 . S
Cd211 O221 2.240 . S
Cd212 O213 2.240 . S
Cd212 O220 2.223 . S
Cd212 O222 2.297 . S
Cd212 O223 2.439 . S
O213 Cd212 2.240 . S
O213 C218 1.279 . S
O214 Cd211 2.297 . S
O214 C216 1.247 . S
O215 Cd211 2.439 . S
O215 C216 1.208 . S
C216 O214 1.247 . S
C216 O215 1.208 . S
C217 O222 1.247 . S
C217 O223 1.208 . S
C218 O210 1.315 . S
C218 O213 1.279 . S
C219 O220 1.315 . S
C219 O221 1.279 . S
O220 Cd212 2.223 . S
O220 C219 1.315 . S
O221 Cd211 2.240 . S
O221 C219 1.279 . S
O222 Cd212 2.297 . S
O222 C217 1.247 . S
O223 Cd212 2.439 . S
O223 C217 1.208 . S
C224 C225 1.349 . S
C224 C226 1.327 . S
C224 H249 0.950 . S
C225 C224 1.349 . S
C225 C241 1.349 . S
C226 C224 1.327 . S
C226 C245 1.429 . S
C226 H250 0.950 1_565 S
C227 C244 1.574 . S
C227 C246 1.368 . S
C227 H251 0.949 . S
H228 C232 0.949 . S
C229 C230 1.349 . S
C229 C231 1.327 . S
C229 H252 0.950 . S
C230 C229 1.349 . S
C230 C242 1.349 . S
C231 C229 1.327 . S
C231 C247 1.429 . S
C231 H253 0.950 1_545 S
C232 H228 0.949 . S
C232 C240 1.574 . S
C232 C248 1.368 . S
H233 C241 0.950 . S
H234 C239 0.950 . S
H235 C240 0.949 . S
H236 C242 0.950 . S
H237 C243 0.950 . S
H238 C244 0.949 . S
C239 H234 0.950 . S
C239 C241 1.327 . S
C239 C245 1.429 . S
C240 C232 1.574 . S
C240 H235 0.949 . S
C240 C246 1.368 1_545 S
C241 C225 1.349 . S
C241 H233 0.950 . S
C241 C239 1.327 . S
C242 C230 1.349 . S
C242 H236 0.950 . S
C242 C243 1.327 . S
C243 H237 0.950 . S
C243 C242 1.327 . S
C243 C247 1.429 . S
C244 C227 1.574 . S
C244 H238 0.949 . S
C244 C248 1.368 1_565 S
C245 C226 1.429 . S
C245 C239 1.429 . S
C245 C246 1.523 . S
C246 C227 1.368 . S
C246 C240 1.368 1_565 S
C246 C245 1.523 . S
C247 C231 1.429 . S
C247 C243 1.429 . S
C247 C248 1.523 . S
C248 C232 1.368 . S
C248 C244 1.368 1_545 S
C248 C247 1.523 . S
H249 C224 0.950 . S
H250 C226 0.950 1_545 S
H251 C227 0.949 . S
H252 C229 0.950 . S
H253 C231 0.950 1_565 S
C254 C255 1.349 . S
C254 C256 1.327 . S
C254 H279 0.950 . S
C255 C254 1.349 . S
C255 C271 1.349 . S
C256 C254 1.327 . S
C256 C275 1.429 . S
C256 H280 0.950 1_565 S
C257 C274 1.574 . S
C257 C276 1.368 . S
C257 H281 0.949 . S
H258 C262 0.949 . S
C259 C260 1.349 . S
C259 C261 1.327 . S
C259 H282 0.950 . S
C260 C259 1.349 . S
C260 C272 1.349 . S
C261 C259 1.327 . S
C261 C277 1.429 . S
C261 H283 0.950 1_545 S
C262 H258 0.949 . S
C262 C270 1.574 . S
C262 C278 1.368 . S
H263 C271 0.950 . S
H264 C269 0.950 . S
H265 C270 0.949 . S
H266 C272 0.950 . S
H267 C273 0.950 . S
H268 C274 0.949 . S
C269 H264 0.950 . S
C269 C271 1.327 . S
C269 C275 1.429 . S
C270 C262 1.574 . S
C270 H265 0.949 . S
C270 C276 1.368 1_545 S
C271 C255 1.349 . S
C271 H263 0.950 . S
C271 C269 1.327 . S
C272 C260 1.349 . S
C272 H266 0.950 . S
C272 C273 1.327 . S
C273 H267 0.950 . S
C273 C272 1.327 . S
C273 C277 1.429 . S
C274 C257 1.574 . S
C274 H268 0.949 . S
C274 C278 1.368 1_565 S
C275 C256 1.429 . S
C275 C269 1.429 . S
C275 C276 1.523 . S
C276 C257 1.368 . S
C276 C270 1.368 1_565 S
C276 C275 1.523 . S
C277 C261 1.429 . S
C277 C273 1.429 . S
C277 C278 1.523 . S
C278 C262 1.368 . S
C278 C274 1.368 1_545 S
C278 C277 1.523 . S
H279 C254 0.950 . S
H280 C256 0.950 1_545 S
H281 C257 0.949 . S
H282 C259 0.950 . S
H283 C261 0.950 1_565 S
C284 C285 1.349 . S
C284 C286 1.327 . S
C284 H309 0.950 . S
C285 C284 1.349 . S
C285 C301 1.349 . S
C286 C284 1.327 . S
C286 C305 1.429 . S
C286 H310 0.950 . S
C287 C304 1.574 . S
C287 C306 1.368 1_545 S
C287 H311 0.949 . S
H288 C292 0.949 . S
C289 C290 1.349 . S
C289 C291 1.327 . S
C289 H312 0.950 . S
C290 C289 1.349 . S
C290 C302 1.349 . S
C291 C289 1.327 . S
C291 C307 1.429 . S
C291 H313 0.950 . S
C292 H288 0.949 . S
C292 C300 1.574 . S
C292 C308 1.368 1_565 S
H293 C301 0.950 . S
H294 C299 0.950 1_545 S
H295 C300 0.949 . S
H296 C302 0.950 . S
H297 C303 0.950 1_565 S
H298 C304 0.949 . S
C299 H294 0.950 1_565 S
C299 C301 1.327 . S
C299 C305 1.429 . S
C300 C292 1.574 . S
C300 H295 0.949 . S
C300 C306 1.368 . S
C301 C285 1.349 . S
C301 H293 0.950 . S
C301 C299 1.327 . S
C302 C290 1.349 . S
C302 H296 0.950 . S
C302 C303 1.327 . S
C303 H297 0.950 1_545 S
C303 C302 1.327 . S
C303 C307 1.429 . S
C304 C287 1.574 . S
C304 H298 0.949 . S
C304 C308 1.368 . S
C305 C286 1.429 . S
C305 C299 1.429 . S
C305 C306 1.523 . S
C306 C287 1.368 1_565 S
C306 C300 1.368 . S
C306 C305 1.523 . S
C307 C291 1.429 . S
C307 C303 1.429 . S
C307 C308 1.523 . S
C308 C292 1.368 1_545 S
C308 C304 1.368 . S
C308 C307 1.523 . S
H309 C284 0.950 . S
H310 C286 0.950 . S
H311 C287 0.949 . S
H312 C289 0.950 . S
H313 C291 0.950 . S
C314 C315 1.349 . S
C314 C316 1.327 . S
C314 H339 0.950 . S
C315 C314 1.349 . S
C315 C331 1.349 . S
C316 C314 1.327 . S
C316 C335 1.429 . S
C316 H340 0.950 . S
C317 C334 1.574 . S
C317 C336 1.368 1_545 S
C317 H341 0.949 . S
H318 C322 0.949 . S
C319 C320 1.349 . S
C319 C321 1.327 . S
C319 H342 0.950 . S
C320 C319 1.349 . S
C320 C332 1.349 . S
C321 C319 1.327 . S
C321 C337 1.429 . S
C321 H343 0.950 . S
C322 H318 0.949 . S
C322 C330 1.574 . S
C322 C338 1.368 1_565 S
H323 C331 0.950 . S
H324 C329 0.950 1_545 S
H325 C330 0.949 . S
H326 C332 0.950 . S
H327 C333 0.950 1_565 S
H328 C334 0.949 . S
C329 H324 0.950 1_565 S
C329 C331 1.327 . S
C329 C335 1.429 . S
C330 C322 1.574 . S
C330 H325 0.949 . S
C330 C336 1.368 . S
C331 C315 1.349 . S
C331 H323 0.950 . S
C331 C329 1.327 . S
C332 C320 1.349 . S
C332 H326 0.950 . S
C332 C333 1.327 . S
C333 H327 0.950 1_545 S
C333 C332 1.327 . S
C333 C337 1.429 . S
C334 C317 1.574 . S
C334 H328 0.949 . S
C334 C338 1.368 . S
C335 C316 1.429 . S
C335 C329 1.429 . S
C335 C336 1.523 . S
C336 C317 1.368 1_565 S
C336 C330 1.368 . S
C336 C335 1.523 . S
C337 C321 1.429 . S
C337 C333 1.429 . S
C337 C338 1.523 . S
C338 C322 1.368 1_545 S
C338 C334 1.368 . S
C338 C337 1.523 . S
H339 C314 0.950 . S
H340 C316 0.950 . S
H341 C317 0.949 . S
H342 C319 0.950 . S
H343 C321 0.950 . S
C344 C345 1.349 . S
C344 C346 1.327 . S
C344 H369 0.950 . S
C345 C344 1.349 . S
C345 C361 1.349 . S
C346 C344 1.327 . S
C346 C365 1.429 . S
C346 H370 0.950 . S
C347 C364 1.574 . S
C347 C366 1.368 . S
C347 H371 0.949 . S
H348 C352 0.949 . S
C349 C350 1.349 . S
C349 C351 1.327 . S
C349 H372 0.950 . S
C350 C349 1.349 . S
C350 C362 1.349 . S
C351 C349 1.327 . S
C351 C367 1.429 . S
C351 H373 0.950 . S
C352 H348 0.949 . S
C352 C360 1.574 . S
C352 C368 1.368 . S
H353 C361 0.950 . S
H354 C359 0.950 . S
H355 C360 0.949 . S
H356 C362 0.950 . S
H357 C363 0.950 . S
H358 C364 0.949 . S
C359 H354 0.950 . S
C359 C361 1.327 . S
C359 C365 1.429 . S
C360 C352 1.574 . S
C360 H355 0.949 . S
C360 C366 1.368 . S
C361 C345 1.349 . S
C361 H353 0.950 . S
C361 C359 1.327 . S
C362 C350 1.349 . S
C362 H356 0.950 . S
C362 C363 1.327 . S
C363 H357 0.950 . S
C363 C362 1.327 . S
C363 C367 1.429 . S
C364 C347 1.574 . S
C364 H358 0.949 . S
C364 C368 1.368 . S
C365 C346 1.429 . S
C365 C359 1.429 . S
C365 C366 1.523 . S
C366 C347 1.368 . S
C366 C360 1.368 . S
C366 C365 1.523 . S
C367 C351 1.429 . S
C367 C363 1.429 . S
C367 C368 1.523 . S
C368 C352 1.368 . S
C368 C364 1.368 . S
C368 C367 1.523 . S
H369 C344 0.950 . S
H370 C346 0.950 . S
H371 C347 0.949 . S
H372 C349 0.950 . S
H373 C351 0.950 . S
C374 C375 1.349 . S
C374 C376 1.327 . S
C374 H399 0.950 . S
C375 C374 1.349 . S
C375 C391 1.349 . S
C376 C374 1.327 . S
C376 C395 1.429 . S
C376 H400 0.950 . S
C377 C394 1.574 . S
C377 C396 1.368 . S
C377 H401 0.949 . S
H378 C382 0.949 . S
C379 C380 1.349 . S
C379 C381 1.327 . S
C379 H402 0.950 . S
C380 C379 1.349 . S
C380 C392 1.349 . S
C381 C379 1.327 . S
C381 C397 1.429 . S
C381 H403 0.950 . S
C382 H378 0.949 . S
C382 C390 1.574 . S
C382 C398 1.368 . S
H383 C391 0.950 . S
H384 C389 0.950 . S
H385 C390 0.949 . S
H386 C392 0.950 . S
H387 C393 0.950 . S
H388 C394 0.949 . S
C389 H384 0.950 . S
C389 C391 1.327 . S
C389 C395 1.429 . S
C390 C382 1.574 . S
C390 H385 0.949 . S
C390 C396 1.368 . S
C391 C375 1.349 . S
C391 H383 0.950 . S
C391 C389 1.327 . S
C392 C380 1.349 . S
C392 H386 0.950 . S
C392 C393 1.327 . S
C393 H387 0.950 . S
C393 C392 1.327 . S
C393 C397 1.429 . S
C394 C377 1.574 . S
C394 H388 0.949 . S
C394 C398 1.368 . S
C395 C376 1.429 . S
C395 C389 1.429 . S
C395 C396 1.523 . S
C396 C377 1.368 . S
C396 C390 1.368 . S
C396 C395 1.523 . S
C397 C381 1.429 . S
C397 C393 1.429 . S
C397 C398 1.523 . S
C398 C382 1.368 . S
C398 C394 1.368 . S
C398 C397 1.523 . S
H399 C374 0.950 . S
H400 C376 0.950 . S
H401 C377 0.949 . S
H402 C379 0.950 . S
H403 C381 0.950 . S
C404 C405 1.349 . S
C404 C406 1.327 . S
C404 H429 0.950 . S
C405 C404 1.349 . S
C405 C421 1.349 . S
C406 C404 1.327 . S
C406 C425 1.429 . S
C406 H430 0.950 . S
C407 C424 1.574 . S
C407 C426 1.368 . S
C407 H431 0.949 . S
H408 C412 0.949 . S
C409 C410 1.349 . S
C409 C411 1.327 . S
C409 H432 0.950 . S
C410 C409 1.349 . S
C410 C422 1.349 . S
C411 C409 1.327 . S
C411 C427 1.429 . S
C411 H433 0.950 . S
C412 H408 0.949 . S
C412 C420 1.574 . S
C412 C428 1.368 . S
H413 C421 0.950 . S
H414 C419 0.950 . S
H415 C420 0.949 . S
H416 C422 0.950 . S
H417 C423 0.950 . S
H418 C424 0.949 . S
C419 H414 0.950 . S
C419 C421 1.327 . S
C419 C425 1.429 . S
C420 C412 1.574 . S
C420 H415 0.949 . S
C420 C426 1.368 . S
C421 C405 1.349 . S
C421 H413 0.950 . S
C421 C419 1.327 . S
C422 C410 1.349 . S
C422 H416 0.950 . S
C422 C423 1.327 . S
C423 H417 0.950 . S
C423 C422 1.327 . S
C423 C427 1.429 . S
C424 C407 1.574 . S
C424 H418 0.949 . S
C424 C428 1.368 . S
C425 C406 1.429 . S
C425 C419 1.429 . S
C425 C426 1.523 . S
C426 C407 1.368 . S
C426 C420 1.368 . S
C426 C425 1.523 . S
C427 C411 1.429 . S
C427 C423 1.429 . S
C427 C428 1.523 . S
C428 C412 1.368 . S
C428 C424 1.368 . S
C428 C427 1.523 . S
H429 C404 0.950 . S
H430 C406 0.950 . S
H431 C407 0.949 . S
H432 C409 0.950 . S
H433 C411 0.950 . S
C434 C435 1.349 . S
C434 C436 1.327 . S
C434 H459 0.950 . S
C435 C434 1.349 . S
C435 C451 1.349 . S
C436 C434 1.327 . S
C436 C455 1.429 . S
C436 H460 0.950 . S
C437 C454 1.574 . S
C437 C456 1.368 . S
C437 H461 0.949 . S
H438 C442 0.949 . S
C439 C440 1.349 . S
C439 C441 1.327 . S
C439 H462 0.950 . S
C440 C439 1.349 . S
C440 C452 1.349 . S
C441 C439 1.327 . S
C441 C457 1.429 . S
C441 H463 0.950 . S
C442 H438 0.949 . S
C442 C450 1.574 . S
C442 C458 1.368 . S
H443 C451 0.950 . S
H444 C449 0.950 . S
H445 C450 0.949 . S
H446 C452 0.950 . S
H447 C453 0.950 . S
H448 C454 0.949 . S
C449 H444 0.950 . S
C449 C451 1.327 . S
C449 C455 1.429 . S
C450 C442 1.574 . S
C450 H445 0.949 . S
C450 C456 1.368 . S
C451 C435 1.349 . S
C451 H443 0.950 . S
C451 C449 1.327 . S
C452 C440 1.349 . S
C452 H446 0.950 . S
C452 C453 1.327 . S
C453 H447 0.950 . S
C453 C452 1.327 . S
C453 C457 1.429 . S
C454 C437 1.574 . S
C454 H448 0.949 . S
C454 C458 1.368 . S
C455 C436 1.429 . S
C455 C449 1.429 . S
C455 C456 1.523 . S
C456 C437 1.368 . S
C456 C450 1.368 . S
C456 C455 1.523 . S
C457 C441 1.429 . S
C457 C453 1.429 . S
C457 C458 1.523 . S
C458 C442 1.368 . S
C458 C454 1.368 . S
C458 C457 1.523 . S
H459 C434 0.950 . S
H460 C436 0.950 . S
H461 C437 0.949 . S
H462 C439 0.950 . S
H463 C441 0.950 . S
C464 C465 1.349 . S
C464 C466 1.327 . S
C464 H489 0.950 . S
C465 C464 1.349 . S
C465 C481 1.349 . S
C466 C464 1.327 . S
C466 C485 1.429 . S
C466 H490 0.950 1_655 S
C467 C484 1.574 . S
C467 C486 1.368 . S
C467 H491 0.949 . S
H468 C472 0.949 . S
C469 C470 1.349 . S
C469 C471 1.327 . S
C469 H492 0.950 . S
C470 C469 1.349 . S
C470 C482 1.349 . S
C471 C469 1.327 . S
C471 C487 1.429 . S
C471 H493 0.950 1_455 S
C472 H468 0.949 . S
C472 C480 1.574 . S
C472 C488 1.368 . S
H473 C481 0.950 . S
H474 C479 0.950 . S
H475 C480 0.949 . S
H476 C482 0.950 . S
H477 C483 0.950 . S
H478 C484 0.949 . S
C479 H474 0.950 . S
C479 C481 1.327 . S
C479 C485 1.429 . S
C480 C472 1.574 . S
C480 H475 0.949 . S
C480 C486 1.368 1_455 S
C481 C465 1.349 . S
C481 H473 0.950 . S
C481 C479 1.327 . S
C482 C470 1.349 . S
C482 H476 0.950 . S
C482 C483 1.327 . S
C483 H477 0.950 . S
C483 C482 1.327 . S
C483 C487 1.429 . S
C484 C467 1.574 . S
C484 H478 0.949 . S
C484 C488 1.368 1_655 S
C485 C466 1.429 . S
C485 C479 1.429 . S
C485 C486 1.523 . S
C486 C467 1.368 . S
C486 C480 1.368 1_655 S
C486 C485 1.523 . S
C487 C471 1.429 . S
C487 C483 1.429 . S
C487 C488 1.523 . S
C488 C472 1.368 . S
C488 C484 1.368 1_455 S
C488 C487 1.523 . S
H489 C464 0.950 . S
H490 C466 0.950 1_455 S
H491 C467 0.949 . S
H492 C469 0.950 . S
H493 C471 0.950 1_655 S
C494 C495 1.349 . S
C494 C496 1.327 . S
C494 H519 0.950 . S
C495 C494 1.349 . S
C495 C511 1.349 . S
C496 C494 1.327 . S
C496 C515 1.429 . S
C496 H520 0.950 . S
C497 C514 1.574 . S
C497 C516 1.368 . S
C497 H521 0.949 . S
H498 C502 0.949 . S
C499 C500 1.349 . S
C499 C501 1.327 . S
C499 H522 0.950 . S
C500 C499 1.349 . S
C500 C512 1.349 . S
C501 C499 1.327 . S
C501 C517 1.429 . S
C501 H523 0.950 . S
C502 H498 0.949 . S
C502 C510 1.574 . S
C502 C518 1.368 . S
H503 C511 0.950 . S
H504 C509 0.950 . S
H505 C510 0.949 . S
H506 C512 0.950 . S
H507 C513 0.950 . S
H508 C514 0.949 . S
C509 H504 0.950 . S
C509 C511 1.327 . S
C509 C515 1.429 . S
C510 C502 1.574 . S
C510 H505 0.949 . S
C510 C516 1.368 . S
C511 C495 1.349 . S
C511 H503 0.950 . S
C511 C509 1.327 . S
C512 C500 1.349 . S
C512 H506 0.950 . S
C512 C513 1.327 . S
C513 H507 0.950 . S
C513 C512 1.327 . S
C513 C517 1.429 . S
C514 C497 1.574 . S
C514 H508 0.949 . S
C514 C518 1.368 . S
C515 C496 1.429 . S
C515 C509 1.429 . S
C515 C516 1.523 . S
C516 C497 1.368 . S
C516 C510 1.368 . S
C516 C515 1.523 . S
C517 C501 1.429 . S
C517 C513 1.429 . S
C517 C518 1.523 . S
C518 C502 1.368 . S
C518 C514 1.368 . S
C518 C517 1.523 . S
H519 C494 0.950 . S
H520 C496 0.950 . S
H521 C497 0.949 . S
H522 C499 0.950 . S
H523 C501 0.950 . S
C524 C525 1.349 . S
C524 C526 1.327 . S
C524 H549 0.950 . S
C525 C524 1.349 . S
C525 C541 1.349 . S
C526 C524 1.327 . S
C526 C545 1.429 . S
C526 H550 0.950 1_455 S
C527 C544 1.574 . S
C527 C546 1.368 . S
C527 H551 0.949 . S
H528 C532 0.949 . S
C529 C530 1.349 . S
C529 C531 1.327 . S
C529 H552 0.950 . S
C530 C529 1.349 . S
C530 C542 1.349 . S
C531 C529 1.327 . S
C531 C547 1.429 . S
C531 H553 0.950 1_655 S
C532 H528 0.949 . S
C532 C540 1.574 . S
C532 C548 1.368 . S
H533 C541 0.950 . S
H534 C539 0.950 . S
H535 C540 0.949 . S
H536 C542 0.950 . S
H537 C543 0.950 . S
H538 C544 0.949 . S
C539 H534 0.950 . S
C539 C541 1.327 . S
C539 C545 1.429 . S
C540 C532 1.574 . S
C540 H535 0.949 . S
C540 C546 1.368 1_655 S
C541 C525 1.349 . S
C541 H533 0.950 . S
C541 C539 1.327 . S
C542 C530 1.349 . S
C542 H536 0.950 . S
C542 C543 1.327 . S
C543 H537 0.950 . S
C543 C542 1.327 . S
C543 C547 1.429 . S
C544 C527 1.574 . S
C544 H538 0.949 . S
C544 C548 1.368 1_455 S
C545 C526 1.429 . S
C545 C539 1.429 . S
C545 C546 1.523 . S
C546 C527 1.368 . S
C546 C540 1.368 1_455 S
C546 C545 1.523 . S
C547 C531 1.429 . S
C547 C543 1.429 . S
C547 C548 1.523 . S
C548 C532 1.368 . S
C548 C544 1.368 1_655 S
C548 C547 1.523 . S
H549 C524 0.950 . S
H550 C526 0.950 1_655 S
H551 C527 0.949 . S
H552 C529 0.950 . S
H553 C531 0.950 1_455 S
C554 C555 1.349 . S
C554 C556 1.327 . S
C554 H579 0.950 . S
C555 C554 1.349 . S
C555 C571 1.349 . S
C556 C554 1.327 . S
C556 C575 1.429 . S
C556 H580 0.950 . S
C557 C574 1.574 . S
C557 C576 1.368 . S
C557 H581 0.949 . S
H558 C562 0.949 . S
C559 C560 1.349 . S
C559 C561 1.327 . S
C559 H582 0.950 . S
C560 C559 1.349 . S
C560 C572 1.349 . S
C561 C559 1.327 . S
C561 C577 1.429 . S
C561 H583 0.950 . S
C562 H558 0.949 . S
C562 C570 1.574 . S
C562 C578 1.368 . S
H563 C571 0.950 . S
H564 C569 0.950 . S
H565 C570 0.949 . S
H566 C572 0.950 . S
H567 C573 0.950 . S
H568 C574 0.949 . S
C569 H564 0.950 . S
C569 C571 1.327 . S
C569 C575 1.429 . S
C570 C562 1.574 . S
C570 H565 0.949 . S
C570 C576 1.368 . S
C571 C555 1.349 . S
C571 H563 0.950 . S
C571 C569 1.327 . S
C572 C560 1.349 . S
C572 H566 0.950 . S
C572 C573 1.327 . S
C573 H567 0.950 . S
C573 C572 1.327 . S
C573 C577 1.429 . S
C574 C557 1.574 . S
C574 H568 0.949 . S
C574 C578 1.368 . S
C575 C556 1.429 . S
C575 C569 1.429 . S
C575 C576 1.523 . S
C576 C557 1.368 . S
C576 C570 1.368 . S
C576 C575 1.523 . S
C577 C561 1.429 . S
C577 C573 1.429 . S
C577 C578 1.523 . S
C578 C562 1.368 . S
C578 C574 1.368 . S
C578 C577 1.523 . S
H579 C554 0.950 . S
H580 C556 0.950 . S
H581 C557 0.949 . S
H582 C559 0.950 . S
H583 C561 0.950 . S
C584 C585 1.349 . S
C584 C586 1.327 . S
C584 H609 0.950 . S
C585 C584 1.349 . S
C585 C601 1.349 . S
C586 C584 1.327 . S
C586 C605 1.429 . S
C586 H610 0.950 . S
C587 C604 1.574 . S
C587 C606 1.368 . S
C587 H611 0.949 . S
H588 C592 0.949 . S
C589 C590 1.349 . S
C589 C591 1.327 . S
C589 H612 0.950 . S
C590 C589 1.349 . S
C590 C602 1.349 . S
C591 C589 1.327 . S
C591 C607 1.429 . S
C591 H613 0.950 . S
C592 H588 0.949 . S
C592 C600 1.574 . S
C592 C608 1.368 . S
H593 C601 0.950 . S
H594 C599 0.950 . S
H595 C600 0.949 . S
H596 C602 0.950 . S
H597 C603 0.950 . S
H598 C604 0.949 . S
C599 H594 0.950 . S
C599 C601 1.327 . S
C599 C605 1.429 . S
C600 C592 1.574 . S
C600 H595 0.949 . S
C600 C606 1.368 . S
C601 C585 1.349 . S
C601 H593 0.950 . S
C601 C599 1.327 . S
C602 C590 1.349 . S
C602 H596 0.950 . S
C602 C603 1.327 . S
C603 H597 0.950 . S
C603 C602 1.327 . S
C603 C607 1.429 . S
C604 C587 1.574 . S
C604 H598 0.949 . S
C604 C608 1.368 . S
C605 C586 1.429 . S
C605 C599 1.429 . S
C605 C606 1.523 . S
C606 C587 1.368 . S
C606 C600 1.368 . S
C606 C605 1.523 . S
C607 C591 1.429 . S
C607 C603 1.429 . S
C607 C608 1.523 . S
C608 C592 1.368 . S
C608 C604 1.368 . S
C608 C607 1.523 . S
H609 C584 0.950 . S
H610 C586 0.950 . S
H611 C587 0.949 . S
H612 C589 0.950 . S
H613 C591 0.950 . S
C614 C615 1.349 . S
C614 C616 1.327 . S
C614 H639 0.950 . S
C615 C614 1.349 . S
C615 C631 1.349 . S
C616 C614 1.327 . S
C616 C635 1.429 . S
C616 H640 0.950 . S
C617 C634 1.574 . S
C617 C636 1.368 1_655 S
C617 H641 0.949 . S
H618 C622 0.949 . S
C619 C620 1.349 . S
C619 C621 1.327 . S
C619 H642 0.950 . S
C620 C619 1.349 . S
C620 C632 1.349 . S
C621 C619 1.327 . S
C621 C637 1.429 . S
C621 H643 0.950 . S
C622 H618 0.949 . S
C622 C630 1.574 . S
C622 C638 1.368 1_455 S
H623 C631 0.950 . S
H624 C629 0.950 1_655 S
H625 C630 0.949 . S
H626 C632 0.950 . S
H627 C633 0.950 1_455 S
H628 C634 0.949 . S
C629 H624 0.950 1_455 S
C629 C631 1.327 . S
C629 C635 1.429 . S
C630 C622 1.574 . S
C630 H625 0.949 . S
C630 C636 1.368 . S
C631 C615 1.349 . S
C631 H623 0.950 . S
C631 C629 1.327 . S
C632 C620 1.349 . S
C632 H626 0.950 . S
C632 C633 1.327 . S
C633 H627 0.950 1_655 S
C633 C632 1.327 . S
C633 C637 1.429 . S
C634 C617 1.574 . S
C634 H628 0.949 . S
C634 C638 1.368 . S
C635 C616 1.429 . S
C635 C629 1.429 . S
C635 C636 1.523 . S
C636 C617 1.368 1_455 S
C636 C630 1.368 . S
C636 C635 1.523 . S
C637 C621 1.429 . S
C637 C633 1.429 . S
C637 C638 1.523 . S
C638 C622 1.368 1_655 S
C638 C634 1.368 . S
C638 C637 1.523 . S
H639 C614 0.950 . S
H640 C616 0.950 . S
H641 C617 0.949 . S
H642 C619 0.950 . S
H643 C621 0.950 . S
C644 C645 1.349 . S
C644 C646 1.327 . S
C644 H669 0.950 . S
C645 C644 1.349 . S
C645 C661 1.349 . S
C646 C644 1.327 . S
C646 C665 1.429 . S
C646 H670 0.950 . S
C647 C664 1.574 . S
C647 C666 1.368 . S
C647 H671 0.949 . S
H648 C652 0.949 . S
C649 C650 1.349 . S
C649 C651 1.327 . S
C649 H672 0.950 . S
C650 C649 1.349 . S
C650 C662 1.349 . S
C651 C649 1.327 . S
C651 C667 1.429 . S
C651 H673 0.950 . S
C652 H648 0.949 . S
C652 C660 1.574 . S
C652 C668 1.368 . S
H653 C661 0.950 . S
H654 C659 0.950 . S
H655 C660 0.949 . S
H656 C662 0.950 . S
H657 C663 0.950 . S
H658 C664 0.949 . S
C659 H654 0.950 . S
C659 C661 1.327 . S
C659 C665 1.429 . S
C660 C652 1.574 . S
C660 H655 0.949 . S
C660 C666 1.368 . S
C661 C645 1.349 . S
C661 H653 0.950 . S
C661 C659 1.327 . S
C662 C650 1.349 . S
C662 H656 0.950 . S
C662 C663 1.327 . S
C663 H657 0.950 . S
C663 C662 1.327 . S
C663 C667 1.429 . S
C664 C647 1.574 . S
C664 H658 0.949 . S
C664 C668 1.368 . S
C665 C646 1.429 . S
C665 C659 1.429 . S
C665 C666 1.523 . S
C666 C647 1.368 . S
C666 C660 1.368 . S
C666 C665 1.523 . S
C667 C651 1.429 . S
C667 C663 1.429 . S
C667 C668 1.523 . S
C668 C652 1.368 . S
C668 C664 1.368 . S
C668 C667 1.523 . S
H669 C644 0.950 . S
H670 C646 0.950 . S
H671 C647 0.949 . S
H672 C649 0.950 . S
H673 C651 0.950 . S
C674 C675 1.349 . S
C674 C676 1.327 . S
C674 H699 0.950 . S
C675 C674 1.349 . S
C675 C691 1.349 . S
C676 C674 1.327 . S
C676 C695 1.429 . S
C676 H700 0.950 . S
C677 C694 1.574 . S
C677 C696 1.368 1_655 S
C677 H701 0.949 . S
H678 C682 0.949 . S
C679 C680 1.349 . S
C679 C681 1.327 . S
C679 H702 0.950 . S
C680 C679 1.349 . S
C680 C692 1.349 . S
C681 C679 1.327 . S
C681 C697 1.429 . S
C681 H703 0.950 . S
C682 H678 0.949 . S
C682 C690 1.574 . S
C682 C698 1.368 1_455 S
H683 C691 0.950 . S
H684 C689 0.950 1_655 S
H685 C690 0.949 . S
H686 C692 0.950 . S
H687 C693 0.950 1_455 S
H688 C694 0.949 . S
C689 H684 0.950 1_455 S
C689 C691 1.327 . S
C689 C695 1.429 . S
C690 C682 1.574 . S
C690 H685 0.949 . S
C690 C696 1.368 . S
C691 C675 1.349 . S
C691 H683 0.950 . S
C691 C689 1.327 . S
C692 C680 1.349 . S
C692 H686 0.950 . S
C692 C693 1.327 . S
C693 H687 0.950 1_655 S
C693 C692 1.327 . S
C693 C697 1.429 . S
C694 C677 1.574 . S
C694 H688 0.949 . S
C694 C698 1.368 . S
C695 C676 1.429 . S
C695 C689 1.429 . S
C695 C696 1.523 . S
C696 C677 1.368 1_455 S
C696 C690 1.368 . S
C696 C695 1.523 . S
C697 C681 1.429 . S
C697 C693 1.429 . S
C697 C698 1.523 . S
C698 C682 1.368 1_655 S
C698 C694 1.368 . S
C698 C697 1.523 . S
H699 C674 0.950 . S
H700 C676 0.950 . S
H701 C677 0.949 . S
H702 C679 0.950 . S
H703 C681 0.950 . S
C704 C705 1.349 . S
C704 C706 1.327 . S
C704 H729 0.950 . S
C705 C704 1.349 . S
C705 C721 1.349 . S
C706 C704 1.327 . S
C706 C725 1.429 . S
C706 H730 0.950 1_455 S
C707 C724 1.574 . S
C707 C726 1.368 . S
C707 H731 0.949 . S
H708 C712 0.949 . S
C709 C710 1.349 . S
C709 C711 1.327 . S
C709 H732 0.950 . S
C710 C709 1.349 . S
C710 C722 1.349 . S
C711 C709 1.327 . S
C711 C727 1.429 . S
C711 H733 0.950 1_655 S
C712 H708 0.949 . S
C712 C720 1.574 . S
C712 C728 1.368 . S
H713 C721 0.950 . S
H714 C719 0.950 . S
H715 C720 0.949 . S
H716 C722 0.950 . S
H717 C723 0.950 . S
H718 C724 0.949 . S
C719 H714 0.950 . S
C719 C721 1.327 . S
C719 C725 1.429 . S
C720 C712 1.574 . S
C720 H715 0.949 . S
C720 C726 1.368 1_655 S
C721 C705 1.349 . S
C721 H713 0.950 . S
C721 C719 1.327 . S
C722 C710 1.349 . S
C722 H716 0.950 . S
C722 C723 1.327 . S
C723 H717 0.950 . S
C723 C722 1.327 . S
C723 C727 1.429 . S
C724 C707 1.574 . S
C724 H718 0.949 . S
C724 C728 1.368 1_455 S
C725 C706 1.429 . S
C725 C719 1.429 . S
C725 C726 1.523 . S
C726 C707 1.368 . S
C726 C720 1.368 1_455 S
C726 C725 1.523 . S
C727 C711 1.429 . S
C727 C723 1.429 . S
C727 C728 1.523 . S
C728 C712 1.368 . S
C728 C724 1.368 1_655 S
C728 C727 1.523 . S
H729 C704 0.950 . S
H730 C706 0.950 1_655 S
H731 C707 0.949 . S
H732 C709 0.950 . S
H733 C711 0.950 1_455 S
C734 C735 1.349 . S
C734 C736 1.327 . S
C734 H759 0.950 . S
C735 C734 1.349 . S
C735 C751 1.349 . S
C736 C734 1.327 . S
C736 C755 1.429 . S
C736 H760 0.950 . S
C737 C754 1.574 . S
C737 C756 1.368 . S
C737 H761 0.949 . S
H738 C742 0.949 . S
C739 C740 1.349 . S
C739 C741 1.327 . S
C739 H762 0.950 . S
C740 C739 1.349 . S
C740 C752 1.349 . S
C741 C739 1.327 . S
C741 C757 1.429 . S
C741 H763 0.950 . S
C742 H738 0.949 . S
C742 C750 1.574 . S
C742 C758 1.368 . S
H743 C751 0.950 . S
H744 C749 0.950 . S
H745 C750 0.949 . S
H746 C752 0.950 . S
H747 C753 0.950 . S
H748 C754 0.949 . S
C749 H744 0.950 . S
C749 C751 1.327 . S
C749 C755 1.429 . S
C750 C742 1.574 . S
C750 H745 0.949 . S
C750 C756 1.368 . S
C751 C735 1.349 . S
C751 H743 0.950 . S
C751 C749 1.327 . S
C752 C740 1.349 . S
C752 H746 0.950 . S
C752 C753 1.327 . S
C753 H747 0.950 . S
C753 C752 1.327 . S
C753 C757 1.429 . S
C754 C737 1.574 . S
C754 H748 0.949 . S
C754 C758 1.368 . S
C755 C736 1.429 . S
C755 C749 1.429 . S
C755 C756 1.523 . S
C756 C737 1.368 . S
C756 C750 1.368 . S
C756 C755 1.523 . S
C757 C741 1.429 . S
C757 C753 1.429 . S
C757 C758 1.523 . S
C758 C742 1.368 . S
C758 C754 1.368 . S
C758 C757 1.523 . S
H759 C734 0.950 . S
H760 C736 0.950 . S
H761 C737 0.949 . S
H762 C739 0.950 . S
H763 C741 0.950 . S
C764 C765 1.349 . S
C764 C766 1.327 . S
C764 H789 0.950 . S
C765 C764 1.349 . S
C765 C781 1.349 . S
C766 C764 1.327 . S
C766 C785 1.429 . S
C766 H790 0.950 . S
C767 C784 1.574 . S
C767 C786 1.368 . S
C767 H791 0.949 . S
H768 C772 0.949 . S
C769 C770 1.349 . S
C769 C771 1.327 . S
C769 H792 0.950 . S
C770 C769 1.349 . S
C770 C782 1.349 . S
C771 C769 1.327 . S
C771 C787 1.429 . S
C771 H793 0.950 . S
C772 H768 0.949 . S
C772 C780 1.574 . S
C772 C788 1.368 . S
H773 C781 0.950 . S
H774 C779 0.950 . S
H775 C780 0.949 . S
H776 C782 0.950 . S
H777 C783 0.950 . S
H778 C784 0.949 . S
C779 H774 0.950 . S
C779 C781 1.327 . S
C779 C785 1.429 . S
C780 C772 1.574 . S
C780 H775 0.949 . S
C780 C786 1.368 . S
C781 C765 1.349 . S
C781 H773 0.950 . S
C781 C779 1.327 . S
C782 C770 1.349 . S
C782 H776 0.950 . S
C782 C783 1.327 . S
C783 H777 0.950 . S
C783 C782 1.327 . S
C783 C787 1.429 . S
C784 C767 1.574 . S
C784 H778 0.949 . S
C784 C788 1.368 . S
C785 C766 1.429 . S
C785 C779 1.429 . S
C785 C786 1.523 . S
C786 C767 1.368 . S
C786 C780 1.368 . S
C786 C785 1.523 . S
C787 C771 1.429 . S
C787 C783 1.429 . S
C787 C788 1.523 . S
C788 C772 1.368 . S
C788 C784 1.368 . S
C788 C787 1.523 . S
H789 C764 0.950 . S
H790 C766 0.950 . S
H791 C767 0.949 . S
H792 C769 0.950 . S
H793 C771 0.950 . S
C794 C795 1.349 . S
C794 C796 1.327 . S
C794 H819 0.950 . S
C795 C794 1.349 . S
C795 C811 1.349 . S
C796 C794 1.327 . S
C796 C815 1.429 . S
C796 H820 0.950 1_455 S
C797 C814 1.574 . S
C797 C816 1.368 . S
C797 H821 0.949 . S
H798 C802 0.949 . S
C799 C800 1.349 . S
C799 C801 1.327 . S
C799 H822 0.950 . S
C800 C799 1.349 . S
C800 C812 1.349 . S
C801 C799 1.327 . S
C801 C817 1.429 . S
C801 H823 0.950 1_655 S
C802 H798 0.949 . S
C802 C810 1.574 . S
C802 C818 1.368 . S
H803 C811 0.950 . S
H804 C809 0.950 . S
H805 C810 0.949 . S
H806 C812 0.950 . S
H807 C813 0.950 . S
H808 C814 0.949 . S
C809 H804 0.950 . S
C809 C811 1.327 . S
C809 C815 1.429 . S
C810 C802 1.574 . S
C810 H805 0.949 . S
C810 C816 1.368 1_655 S
C811 C795 1.349 . S
C811 H803 0.950 . S
C811 C809 1.327 . S
C812 C800 1.349 . S
C812 H806 0.950 . S
C812 C813 1.327 . S
C813 H807 0.950 . S
C813 C812 1.327 . S
C813 C817 1.429 . S
C814 C797 1.574 . S
C814 H808 0.949 . S
C814 C818 1.368 1_455 S
C815 C796 1.429 . S
C815 C809 1.429 . S
C815 C816 1.523 . S
C816 C797 1.368 . S
C816 C810 1.368 1_455 S
C816 C815 1.523 . S
C817 C801 1.429 . S
C817 C813 1.429 . S
C817 C818 1.523 . S
C818 C802 1.368 . S
C818 C814 1.368 1_655 S
C818 C817 1.523 . S
H819 C794 0.950 . S
H820 C796 0.950 1_655 S
H821 C797 0.949 . S
H822 C799 0.950 . S
H823 C801 0.950 1_455 S
C824 C825 1.349 . S
C824 C826 1.327 . S
C824 H849 0.950 . S
C825 C824 1.349 . S
C825 C841 1.349 . S
C826 C824 1.327 . S
C826 C845 1.429 . S
C826 H850 0.950 1_455 S
C827 C844 1.574 . S
C827 C846 1.368 . S
C827 H851 0.949 . S
H828 C832 0.949 . S
C829 C830 1.349 . S
C829 C831 1.327 . S
C829 H852 0.950 . S
C830 C829 1.349 . S
C830 C842 1.349 . S
C831 C829 1.327 . S
C831 C847 1.429 . S
C831 H853 0.950 1_655 S
C832 H828 0.949 . S
C832 C840 1.574 . S
C832 C848 1.368 . S
H833 C841 0.950 . S
H834 C839 0.950 . S
H835 C840 0.949 . S
H836 C842 0.950 . S
H837 C843 0.950 . S
H838 C844 0.949 . S
C839 H834 0.950 . S
C839 C841 1.327 . S
C839 C845 1.429 . S
C840 C832 1.574 . S
C840 H835 0.949 . S
C840 C846 1.368 1_655 S
C841 C825 1.349 . S
C841 H833 0.950 . S
C841 C839 1.327 . S
C842 C830 1.349 . S
C842 H836 0.950 . S
C842 C843 1.327 . S
C843 H837 0.950 . S
C843 C842 1.327 . S
C843 C847 1.429 . S
C844 C827 1.574 . S
C844 H838 0.949 . S
C844 C848 1.368 1_455 S
C845 C826 1.429 . S
C845 C839 1.429 . S
C845 C846 1.523 . S
C846 C827 1.368 . S
C846 C840 1.368 1_455 S
C846 C845 1.523 . S
C847 C831 1.429 . S
C847 C843 1.429 . S
C847 C848 1.523 . S
C848 C832 1.368 . S
C848 C844 1.368 1_655 S
C848 C847 1.523 . S
H849 C824 0.950 . S
H850 C826 0.950 1_655 S
H851 C827 0.949 . S
H852 C829 0.950 . S
H853 C831 0.950 1_455 S
C854 C855 1.349 . S
C854 C856 1.327 . S
C854 H879 0.950 . S
C855 C854 1.349 . S
C855 C871 1.349 . S
C856 C854 1.327 . S
C856 C875 1.429 . S
C856 H880 0.950 . S
C857 C874 1.574 . S
C857 C876 1.368 . S
C857 H881 0.949 . S
H858 C862 0.949 . S
C859 C860 1.349 . S
C859 C861 1.327 . S
C859 H882 0.950 . S
C860 C859 1.349 . S
C860 C872 1.349 . S
C861 C859 1.327 . S
C861 C877 1.429 . S
C861 H883 0.950 . S
C862 H858 0.949 . S
C862 C870 1.574 . S
C862 C878 1.368 . S
H863 C871 0.950 . S
H864 C869 0.950 . S
H865 C870 0.949 . S
H866 C872 0.950 . S
H867 C873 0.950 . S
H868 C874 0.949 . S
C869 H864 0.950 . S
C869 C871 1.327 . S
C869 C875 1.429 . S
C870 C862 1.574 . S
C870 H865 0.949 . S
C870 C876 1.368 . S
C871 C855 1.349 . S
C871 H863 0.950 . S
C871 C869 1.327 . S
C872 C860 1.349 . S
C872 H866 0.950 . S
C872 C873 1.327 . S
C873 H867 0.950 . S
C873 C872 1.327 . S
C873 C877 1.429 . S
C874 C857 1.574 . S
C874 H868 0.949 . S
C874 C878 1.368 . S
C875 C856 1.429 . S
C875 C869 1.429 . S
C875 C876 1.523 . S
C876 C857 1.368 . S
C876 C870 1.368 . S
C876 C875 1.523 . S
C877 C861 1.429 . S
C877 C873 1.429 . S
C877 C878 1.523 . S
C878 C862 1.368 . S
C878 C874 1.368 . S
C878 C877 1.523 . S
H879 C854 0.950 . S
H880 C856 0.950 . S
H881 C857 0.949 . S
H882 C859 0.950 . S
H883 C861 0.950 . S
C884 C885 1.349 . S
C884 C886 1.327 . S
C884 H909 0.950 . S
C885 C884 1.349 . S
C885 C901 1.349 . S
C886 C884 1.327 . S
C886 C905 1.429 . S
C886 H910 0.950 . S
C887 C904 1.574 . S
C887 C906 1.368 . S
C887 H911 0.949 . S
H888 C892 0.949 . S
C889 C890 1.349 . S
C889 C891 1.327 . S
C889 H912 0.950 . S
C890 C889 1.349 . S
C890 C902 1.349 . S
C891 C889 1.327 . S
C891 C907 1.429 . S
C891 H913 0.950 . S
C892 H888 0.949 . S
C892 C900 1.574 . S
C892 C908 1.368 . S
H893 C901 0.950 . S
H894 C899 0.950 . S
H895 C900 0.949 . S
H896 C902 0.950 . S
H897 C903 0.950 . S
H898 C904 0.949 . S
C899 H894 0.950 . S
C899 C901 1.327 . S
C899 C905 1.429 . S
C900 C892 1.574 . S
C900 H895 0.949 . S
C900 C906 1.368 . S
C901 C885 1.349 . S
C901 H893 0.950 . S
C901 C899 1.327 . S
C902 C890 1.349 . S
C902 H896 0.950 . S
C902 C903 1.327 . S
C903 H897 0.950 . S
C903 C902 1.327 . S
C903 C907 1.429 . S
C904 C887 1.574 . S
C904 H898 0.949 . S
C904 C908 1.368 . S
C905 C886 1.429 . S
C905 C899 1.429 . S
C905 C906 1.523 . S
C906 C887 1.368 . S
C906 C900 1.368 . S
C906 C905 1.523 . S
C907 C891 1.429 . S
C907 C903 1.429 . S
C907 C908 1.523 . S
C908 C892 1.368 . S
C908 C904 1.368 . S
C908 C907 1.523 . S
H909 C884 0.950 . S
H910 C886 0.950 . S
H911 C887 0.949 . S
H912 C889 0.950 . S
H913 C891 0.950 . S
C914 C915 1.349 . S
C914 C916 1.327 . S
C914 H939 0.950 . S
C915 C914 1.349 . S
C915 C931 1.349 . S
C916 C914 1.327 . S
C916 C935 1.429 . S
C916 H940 0.950 . S
C917 C934 1.574 . S
C917 C936 1.368 1_655 S
C917 H941 0.949 . S
H918 C922 0.949 . S
C919 C920 1.349 . S
C919 C921 1.327 . S
C919 H942 0.950 . S
C920 C919 1.349 . S
C920 C932 1.349 . S
C921 C919 1.327 . S
C921 C937 1.429 . S
C921 H943 0.950 . S
C922 H918 0.949 . S
C922 C930 1.574 . S
C922 C938 1.368 1_455 S
H923 C931 0.950 . S
H924 C929 0.950 1_655 S
H925 C930 0.949 . S
H926 C932 0.950 . S
H927 C933 0.950 1_455 S
H928 C934 0.949 . S
C929 H924 0.950 1_455 S
C929 C931 1.327 . S
C929 C935 1.429 . S
C930 C922 1.574 . S
C930 H925 0.949 . S
C930 C936 1.368 . S
C931 C915 1.349 . S
C931 H923 0.950 . S
C931 C929 1.327 . S
C932 C920 1.349 . S
C932 H926 0.950 . S
C932 C933 1.327 . S
C933 H927 0.950 1_655 S
C933 C932 1.327 . S
C933 C937 1.429 . S
C934 C917 1.574 . S
C934 H928 0.949 . S
C934 C938 1.368 . S
C935 C916 1.429 . S
C935 C929 1.429 . S
C935 C936 1.523 . S
C936 C917 1.368 1_455 S
C936 C930 1.368 . S
C936 C935 1.523 . S
C937 C921 1.429 . S
C937 C933 1.429 . S
C937 C938 1.523 . S
C938 C922 1.368 1_655 S
C938 C934 1.368 . S
C938 C937 1.523 . S
H939 C914 0.950 . S
H940 C916 0.950 . S
H941 C917 0.949 . S
H942 C919 0.950 . S
H943 C921 0.950 . S
C944 C945 1.349 . S
C944 C946 1.327 . S
C944 H969 0.950 . S
C945 C944 1.349 . S
C945 C961 1.349 . S
C946 C944 1.327 . S
C946 C965 1.429 . S
C946 H970 0.950 1_565 S
C947 C964 1.574 1_656 S
C947 C966 1.368 . S
C947 H971 0.949 . S
H948 C952 0.949 . S
C949 C950 1.349 . S
C949 C951 1.327 . S
C949 H972 0.950 . S
C950 C949 1.349 . S
C950 C962 1.349 . S
C951 C949 1.327 . S
C951 C967 1.429 . S
C951 H973 0.950 1_545 S
C952 H948 0.949 . S
C952 C960 1.574 1_454 S
C952 C968 1.368 . S
H953 C961 0.950 . S
H954 C959 0.950 . S
H955 C960 0.949 . S
H956 C962 0.950 . S
H957 C963 0.950 . S
H958 C964 0.949 . S
C959 H954 0.950 . S
C959 C961 1.327 . S
C959 C965 1.429 . S
C960 C952 1.574 1_656 S
C960 H955 0.949 . S
C960 C966 1.368 1_545 S
C961 C945 1.349 . S
C961 H953 0.950 . S
C961 C959 1.327 . S
C962 C950 1.349 . S
C962 H956 0.950 . S
C962 C963 1.327 . S
C963 H957 0.950 . S
C963 C962 1.327 . S
C963 C967 1.429 . S
C964 C947 1.574 1_454 S
C964 H958 0.949 . S
C964 C968 1.368 1_565 S
C965 C946 1.429 . S
C965 C959 1.429 . S
C965 C966 1.523 . S
C966 C947 1.368 . S
C966 C960 1.368 1_565 S
C966 C965 1.523 . S
C967 C951 1.429 . S
C967 C963 1.429 . S
C967 C968 1.523 . S
C968 C952 1.368 . S
C968 C964 1.368 1_545 S
C968 C967 1.523 . S
H969 C944 0.950 . S
H970 C946 0.950 1_545 S
H971 C947 0.949 . S
H972 C949 0.950 . S
H973 C951 0.950 1_565 S
C974 C975 1.349 . S
C974 C976 1.327 . S
C974 H999 0.950 . S
C975 C974 1.349 . S
C975 C991 1.349 . S
C976 C974 1.327 . S
C976 C995 1.429 . S
C976 H1000 0.950 . S
C977 C994 1.574 1_556 S
C977 C996 1.368 1_565 S
C977 H1001 0.949 . S
H978 C982 0.949 . S
C979 C980 1.349 . S
C979 C981 1.327 . S
C979 H1002 0.950 . S
C980 C979 1.349 . S
C980 C992 1.349 . S
C981 C979 1.327 . S
C981 C997 1.429 . S
C981 H1003 0.950 . S
C982 H978 0.949 . S
C982 C990 1.574 1_554 S
C982 C998 1.368 1_545 S
H983 C991 0.950 . S
H984 C989 0.950 . S
H985 C990 0.949 . S
H986 C992 0.950 . S
H987 C993 0.950 . S
H988 C994 0.949 . S
C989 H984 0.950 . S
C989 C991 1.327 . S
C989 C995 1.429 . S
C990 C982 1.574 1_556 S
C990 H985 0.949 . S
C990 C996 1.368 . S
C991 C975 1.349 . S
C991 H983 0.950 . S
C991 C989 1.327 . S
C992 C980 1.349 . S
C992 H986 0.950 . S
C992 C993 1.327 . S
C993 H987 0.950 . S
C993 C992 1.327 . S
C993 C997 1.429 . S
C994 C977 1.574 1_554 S
C994 H988 0.949 . S
C994 C998 1.368 . S
C995 C976 1.429 . S
C995 C989 1.429 . S
C995 C996 1.523 . S
C996 C977 1.368 1_545 S
C996 C990 1.368 . S
C996 C995 1.523 . S
C997 C981 1.429 . S
C997 C993 1.429 . S
C997 C998 1.523 . S
C998 C982 1.368 1_565 S
C998 C994 1.368 . S
C998 C997 1.523 . S
H999 C974 0.950 . S
H1000 C976 0.950 . S
H1001 C977 0.949 . S
H1002 C979 0.950 . S
H1003 C981 0.950 . S
C1004 C1005 1.349 . S
C1004 C1006 1.327 . S
C1004 H1029 0.950 . S
C1005 C1004 1.349 . S
C1005 C1021 1.349 . S
C1006 C1004 1.327 . S
C1006 C1025 1.429 . S
C1006 H1030 0.950 . S
C1007 C1024 1.574 . S
C1007 C1026 1.368 1_565 S
C1007 H1031 0.949 . S
H1008 C1012 0.949 . S
C1009 C1010 1.349 . S
C1009 C1011 1.327 . S
C1009 H1032 0.950 . S
C1010 C1009 1.349 . S
C1010 C1022 1.349 . S
C1011 C1009 1.327 . S
C1011 C1027 1.429 . S
C1011 H1033 0.950 . S
C1012 H1008 0.949 . S
C1012 C1020 1.574 . S
C1012 C1028 1.368 1_545 S
H1013 C1021 0.950 . S
H1014 C1019 0.950 1_565 S
H1015 C1020 0.949 . S
H1016 C1022 0.950 . S
H1017 C1023 0.950 1_545 S
H1018 C1024 0.949 . S
C1019 H1014 0.950 1_545 S
C1019 C1021 1.327 . S
C1019 C1025 1.429 . S
C1020 C1012 1.574 . S
C1020 H1015 0.949 . S
C1020 C1026 1.368 . S
C1021 C1005 1.349 . S
C1021 H1013 0.950 . S
C1021 C1019 1.327 . S
C1022 C1010 1.349 . S
C1022 H1016 0.950 . S
C1022 C1023 1.327 . S
C1023 H1017 0.950 1_565 S
C1023 C1022 1.327 . S
C1023 C1027 1.429 . S
C1024 C1007 1.574 . S
C1024 H1018 0.949 . S
C1024 C1028 1.368 . S
C1025 C1006 1.429 . S
C1025 C1019 1.429 . S
C1025 C1026 1.523 . S
C1026 C1007 1.368 1_545 S
C1026 C1020 1.368 . S
C1026 C1025 1.523 . S
C1027 C1011 1.429 . S
C1027 C1023 1.429 . S
C1027 C1028 1.523 . S
C1028 C1012 1.368 1_565 S
C1028 C1024 1.368 . S
C1028 C1027 1.523 . S
H1029 C1004 0.950 . S
H1030 C1006 0.950 . S
H1031 C1007 0.949 . S
H1032 C1009 0.950 . S
H1033 C1011 0.950 . S
C1034 C1035 1.349 . S
C1034 C1036 1.327 . S
C1034 H1059 0.950 . S
C1035 C1034 1.349 . S
C1035 C1051 1.349 . S
C1036 C1034 1.327 . S
C1036 C1055 1.429 . S
C1036 H1060 0.950 1_455 S
C1037 C1054 1.574 . S
C1037 C1056 1.368 1_545 S
C1037 H1061 0.949 . S
H1038 C1042 0.949 . S
C1039 C1040 1.349 . S
C1039 C1041 1.327 . S
C1039 H1062 0.950 . S
C1040 C1039 1.349 . S
C1040 C1052 1.349 . S
C1041 C1039 1.327 . S
C1041 C1057 1.429 . S
C1041 H1063 0.950 1_655 S
C1042 H1038 0.949 . S
C1042 C1050 1.574 . S
C1042 C1058 1.368 1_565 S
H1043 C1051 0.950 . S
H1044 C1049 0.950 . S
H1045 C1050 0.949 . S
H1046 C1052 0.950 . S
H1047 C1053 0.950 . S
H1048 C1054 0.949 . S
C1049 H1044 0.950 . S
C1049 C1051 1.327 . S
C1049 C1055 1.429 . S
C1050 C1042 1.574 . S
C1050 H1045 0.949 . S
C1050 C1056 1.368 1_655 S
C1051 C1035 1.349 . S
C1051 H1043 0.950 . S
C1051 C1049 1.327 . S
C1052 C1040 1.349 . S
C1052 H1046 0.950 . S
C1052 C1053 1.327 . S
C1053 H1047 0.950 . S
C1053 C1052 1.327 . S
C1053 C1057 1.429 . S
C1054 C1037 1.574 . S
C1054 H1048 0.949 . S
C1054 C1058 1.368 1_455 S
C1055 C1036 1.429 . S
C1055 C1049 1.429 . S
C1055 C1056 1.523 . S
C1056 C1037 1.368 1_565 S
C1056 C1050 1.368 1_455 S
C1056 C1055 1.523 . S
C1057 C1041 1.429 . S
C1057 C1053 1.429 . S
C1057 C1058 1.523 . S
C1058 C1042 1.368 1_545 S
C1058 C1054 1.368 1_655 S
C1058 C1057 1.523 . S
H1059 C1034 0.950 . S
H1060 C1036 0.950 1_655 S
H1061 C1037 0.949 . S
H1062 C1039 0.950 . S
H1063 C1041 0.950 1_455 S
C1064 C1065 1.349 . S
C1064 C1066 1.327 . S
C1064 H1089 0.950 . S
C1065 C1064 1.349 . S
C1065 C1081 1.349 . S
C1066 C1064 1.327 . S
C1066 C1085 1.429 . S
C1066 H1090 0.950 . S
C1067 C1084 1.574 1_554 S
C1067 C1086 1.368 . S
C1067 H1091 0.949 . S
H1068 C1072 0.949 . S
C1069 C1070 1.349 . S
C1069 C1071 1.327 . S
C1069 H1092 0.950 . S
C1070 C1069 1.349 . S
C1070 C1082 1.349 . S
C1071 C1069 1.327 . S
C1071 C1087 1.429 . S
C1071 H1093 0.950 . S
C1072 H1068 0.949 . S
C1072 C1080 1.574 1_556 S
C1072 C1088 1.368 . S
H1073 C1081 0.950 . S
H1074 C1079 0.950 . S
H1075 C1080 0.949 . S
H1076 C1082 0.950 . S
H1077 C1083 0.950 . S
H1078 C1084 0.949 . S
C1079 H1074 0.950 . S
C1079 C1081 1.327 . S
C1079 C1085 1.429 . S
C1080 C1072 1.574 1_554 S
C1080 H1075 0.949 . S
C1080 C1086 1.368 . S
C1081 C1065 1.349 . S
C1081 H1073 0.950 . S
C1081 C1079 1.327 . S
C1082 C1070 1.349 . S
C1082 H1076 0.950 . S
C1082 C1083 1.327 . S
C1083 H1077 0.950 . S
C1083 C1082 1.327 . S
C1083 C1087 1.429 . S
C1084 C1067 1.574 1_556 S
C1084 H1078 0.949 . S
C1084 C1088 1.368 . S
C1085 C1066 1.429 . S
C1085 C1079 1.429 . S
C1085 C1086 1.523 . S
C1086 C1067 1.368 . S
C1086 C1080 1.368 . S
C1086 C1085 1.523 . S
C1087 C1071 1.429 . S
C1087 C1083 1.429 . S
C1087 C1088 1.523 . S
C1088 C1072 1.368 . S
C1088 C1084 1.368 . S
C1088 C1087 1.523 . S
H1089 C1064 0.950 . S
H1090 C1066 0.950 . S
H1091 C1067 0.949 . S
H1092 C1069 0.950 . S
H1093 C1071 0.950 . S
C1094 C1095 1.349 . S
C1094 C1096 1.327 . S
C1094 H1119 0.950 . S
C1095 C1094 1.349 . S
C1095 C1111 1.349 . S
C1096 C1094 1.327 . S
C1096 C1115 1.429 . S
C1096 H1120 0.950 . S
C1097 C1114 1.574 1_554 S
C1097 C1116 1.368 1_455 S
C1097 H1121 0.949 . S
H1098 C1102 0.949 . S
C1099 C1100 1.349 . S
C1099 C1101 1.327 . S
C1099 H1122 0.950 . S
C1100 C1099 1.349 . S
C1100 C1112 1.349 . S
C1101 C1099 1.327 . S
C1101 C1117 1.429 . S
C1101 H1123 0.950 . S
C1102 H1098 0.949 . S
C1102 C1110 1.574 1_556 S
C1102 C1118 1.368 1_655 S
H1103 C1111 0.950 . S
H1104 C1109 0.950 1_455 S
H1105 C1110 0.949 . S
H1106 C1112 0.950 . S
H1107 C1113 0.950 1_655 S
H1108 C1114 0.949 . S
C1109 H1104 0.950 1_655 S
C1109 C1111 1.327 . S
C1109 C1115 1.429 . S
C1110 C1102 1.574 1_554 S
C1110 H1105 0.949 . S
C1110 C1116 1.368 . S
C1111 C1095 1.349 . S
C1111 H1103 0.950 . S
C1111 C1109 1.327 . S
C1112 C1100 1.349 . S
C1112 H1106 0.950 . S
C1112 C1113 1.327 . S
C1113 H1107 0.950 1_455 S
C1113 C1112 1.327 . S
C1113 C1117 1.429 . S
C1114 C1097 1.574 1_556 S
C1114 H1108 0.949 . S
C1114 C1118 1.368 . S
C1115 C1096 1.429 . S
C1115 C1109 1.429 . S
C1115 C1116 1.523 . S
C1116 C1097 1.368 1_655 S
C1116 C1110 1.368 . S
C1116 C1115 1.523 . S
C1117 C1101 1.429 . S
C1117 C1113 1.429 . S
C1117 C1118 1.523 . S
C1118 C1102 1.368 1_455 S
C1118 C1114 1.368 . S
C1118 C1117 1.523 . S
H1119 C1094 0.950 . S
H1120 C1096 0.950 . S
H1121 C1097 0.949 . S
H1122 C1099 0.950 . S
H1123 C1101 0.950 . S
C1124 C1125 1.349 . S
C1124 C1126 1.327 . S
C1124 H1149 0.950 . S
C1125 C1124 1.349 . S
C1125 C1141 1.349 . S
C1126 C1124 1.327 . S
C1126 C1145 1.429 . S
C1126 H1150 0.950 . S
C1127 C1144 1.573 . S
C1127 C1146 1.369 1_455 S
C1127 H1151 0.949 1_455 S
H1128 C1132 0.949 1_455 S
C1129 C1130 1.349 . S
C1129 C1131 1.327 . S
C1129 H1152 0.950 . S
C1130 C1129 1.349 . S
C1130 C1142 1.349 . S
C1131 C1129 1.327 . S
C1131 C1147 1.429 . S
C1131 H1153 0.950 . S
C1132 H1128 0.949 1_655 S
C1132 C1140 1.573 . S
C1132 C1148 1.369 1_655 S
H1133 C1141 0.950 . S
H1134 C1139 0.950 . S
H1135 C1140 0.949 . S
H1136 C1142 0.950 . S
H1137 C1143 0.950 . S
H1138 C1144 0.949 . S
C1139 H1134 0.950 . S
C1139 C1141 1.327 . S
C1139 C1145 1.429 . S
C1140 C1132 1.573 . S
C1140 H1135 0.949 . S
C1140 C1146 1.368 . S
C1141 C1125 1.349 . S
C1141 H1133 0.950 . S
C1141 C1139 1.327 . S
C1142 C1130 1.349 . S
C1142 H1136 0.950 . S
C1142 C1143 1.327 . S
C1143 H1137 0.950 . S
C1143 C1142 1.327 . S
C1143 C1147 1.429 . S
C1144 C1127 1.573 . S
C1144 H1138 0.949 . S
C1144 C1148 1.368 . S
C1145 C1126 1.429 . S
C1145 C1139 1.429 . S
C1145 C1146 1.523 . S
C1146 C1127 1.369 1_655 S
C1146 C1140 1.368 . S
C1146 C1145 1.523 . S
C1147 C1131 1.429 . S
C1147 C1143 1.429 . S
C1147 C1148 1.523 . S
C1148 C1132 1.369 1_455 S
C1148 C1144 1.368 . S
C1148 C1147 1.523 . S
H1149 C1124 0.950 . S
H1150 C1126 0.950 . S
H1151 C1127 0.949 1_655 S
H1152 C1129 0.950 . S
H1153 C1131 0.950 . S
C1154 C1155 1.349 . S
C1154 C1156 1.327 . S
C1154 H1179 0.950 . S
C1155 C1154 1.349 . S
C1155 C1171 1.349 . S
C1156 C1154 1.327 . S
C1156 C1175 1.429 . S
C1156 H1180 0.950 . S
C1157 C1174 1.574 . S
C1157 C1176 1.368 . S
C1157 H1181 0.949 . S
H1158 C1162 0.949 . S
C1159 C1160 1.349 . S
C1159 C1161 1.327 . S
C1159 H1182 0.950 . S
C1160 C1159 1.349 . S
C1160 C1172 1.349 . S
C1161 C1159 1.327 . S
C1161 C1177 1.429 . S
C1161 H1183 0.950 . S
C1162 H1158 0.949 . S
C1162 C1170 1.574 . S
C1162 C1178 1.368 . S
H1163 C1171 0.950 . S
H1164 C1169 0.950 . S
H1165 C1170 0.949 . S
H1166 C1172 0.950 . S
H1167 C1173 0.950 . S
H1168 C1174 0.949 . S
C1169 H1164 0.950 . S
C1169 C1171 1.327 . S
C1169 C1175 1.429 . S
C1170 C1162 1.574 . S
C1170 H1165 0.949 . S
C1170 C1176 1.368 . S
C1171 C1155 1.349 . S
C1171 H1163 0.950 . S
C1171 C1169 1.327 . S
C1172 C1160 1.349 . S
C1172 H1166 0.950 . S
C1172 C1173 1.327 . S
C1173 H1167 0.950 . S
C1173 C1172 1.327 . S
C1173 C1177 1.429 . S
C1174 C1157 1.574 . S
C1174 H1168 0.949 . S
C1174 C1178 1.368 . S
C1175 C1156 1.429 . S
C1175 C1169 1.429 . S
C1175 C1176 1.523 . S
C1176 C1157 1.368 . S
C1176 C1170 1.368 . S
C1176 C1175 1.523 . S
C1177 C1161 1.429 . S
C1177 C1173 1.429 . S
C1177 C1178 1.523 . S
C1178 C1162 1.368 . S
C1178 C1174 1.368 . S
C1178 C1177 1.523 . S
H1179 C1154 0.950 . S
H1180 C1156 0.950 . S
H1181 C1157 0.949 . S
H1182 C1159 0.950 . S
H1183 C1161 0.950 . S
C225 C21 1.523 . S
C230 C7 1.523 . S
C255 C35 1.523 . S
C260 C49 1.523 . S
C285 C62 1.523 . S
C290 C76 1.523 . S
C315 C104 1.523 . S
C320 C90 1.523 . S
C345 C133 1.523 . S
C350 C119 1.523 . S
C375 C161 1.523 . S
C380 C147 1.523 . S
C405 C188 1.523 . S
C410 C174 1.523 . S
C435 C216 1.523 . S
C440 C202 1.523 . S
C465 C48 1.525 . S
C470 C6 1.525 . S
C495 C20 1.525 . S
C500 C34 1.525 . S
C525 C105 1.525 . S
C530 C63 1.525 . S
C555 C91 1.525 . S
C560 C77 1.525 . S
C585 C118 1.525 . S
C590 C160 1.525 . S
C615 C146 1.525 . S
C620 C132 1.525 . S
C645 C217 1.525 . S
C650 C175 1.525 . S
C675 C189 1.525 . S
C680 C203 1.525 . S
C705 C8 1.435 . S
C710 C134 1.435 . S
C735 C22 1.435 . S
C740 C120 1.435 . S
C765 C162 1.435 . S
C770 C36 1.435 . S
C795 C148 1.435 . S
C800 C50 1.435 . S
C825 C191 1.435 . S
C830 C65 1.435 . S
C855 C177 1.435 . S
C860 C79 1.435 . S
C885 C93 1.435 . S
C890 C219 1.435 . S
C915 C107 1.435 . S
C920 C205 1.435 . S
C945 C64 1.571 . S
C950 C9 1.571 . S
C975 C78 1.570 . S
C980 C23 1.570 . S
C1005 C92 1.570 . S
C1010 C37 1.570 . S
C1035 C106 1.571 . S
C1040 C51 1.571 . S
C1065 C121 1.571 . S
C1070 C176 1.571 . S
C1095 C135 1.570 . S
C1100 C190 1.570 . S
C1125 C204 1.570 . S
C1130 C149 1.570 . S
C1155 C218 1.571 . S
C1160 C163 1.571 . S
