# Generated by pormake.
# Topology wls, (5)-cn, num edge types: 1
# Building blocks:
#     Node 0, Type 0, BuildingBlock: BEQFEK_clean_sbu_0, # of connection points: 5
#     Node 1, Type 0, BuildingBlock: BEQFEK_clean_sbu_0, # of connection points: 5
#     Node 2, Type 0, BuildingBlock: BEQFEK_clean_sbu_0, # of connection points: 5
#     Node 3, Type 0, BuildingBlock: BEQFEK_clean_sbu_0, # of connection points: 5
#     Node 4, Type 0, BuildingBlock: BEQFEK_clean_sbu_0, # of connection points: 5
#     Node 5, Type 0, BuildingBlock: BEQFEK_clean_sbu_0, # of connection points: 5
#     Node 6, Type 0, BuildingBlock: BEQFEK_clean_sbu_0, # of connection points: 5
#     Node 7, Type 0, BuildingBlock: BEQFEK_clean_sbu_0, # of connection points: 5
#     Node 8, Type 0, BuildingBlock: BEQFEK_clean_sbu_0, # of connection points: 5
#     Node 9, Type 0, BuildingBlock: BEQFEK_clean_sbu_0, # of connection points: 5
#     Node 10, Type 0, BuildingBlock: BEQFEK_clean_sbu_0, # of connection points: 5
#     Node 11, Type 0, BuildingBlock: BEQFEK_clean_sbu_0, # of connection points: 5
#     Node 12, Type 0, BuildingBlock: BEQFEK_clean_sbu_0, # of connection points: 5
#     Node 13, Type 0, BuildingBlock: BEQFEK_clean_sbu_0, # of connection points: 5
#     Node 14, Type 0, BuildingBlock: BEQFEK_clean_sbu_0, # of connection points: 5
#     Node 15, Type 0, BuildingBlock: BEQFEK_clean_sbu_0, # of connection points: 5
#     Node 16, Type 0, BuildingBlock: BEQFEK_clean_sbu_0, # of connection points: 5
#     Node 17, Type 0, BuildingBlock: BEQFEK_clean_sbu_0, # of connection points: 5
#     Node 18, Type 0, BuildingBlock: BEQFEK_clean_sbu_0, # of connection points: 5
#     Node 19, Type 0, BuildingBlock: BEQFEK_clean_sbu_0, # of connection points: 5
#     Node 20, Type 0, BuildingBlock: BEQFEK_clean_sbu_0, # of connection points: 5
#     Node 21, Type 0, BuildingBlock: BEQFEK_clean_sbu_0, # of connection points: 5
#     Node 22, Type 0, BuildingBlock: BEQFEK_clean_sbu_0, # of connection points: 5
#     Node 23, Type 0, BuildingBlock: BEQFEK_clean_sbu_0, # of connection points: 5
#     Node 24, Type 0, BuildingBlock: BEQFEK_clean_sbu_0, # of connection points: 5
#     Node 25, Type 0, BuildingBlock: BEQFEK_clean_sbu_0, # of connection points: 5
#     Node 26, Type 0, BuildingBlock: BEQFEK_clean_sbu_0, # of connection points: 5
#     Node 27, Type 0, BuildingBlock: BEQFEK_clean_sbu_0, # of connection points: 5
#     Node 28, Type 0, BuildingBlock: BEQFEK_clean_sbu_0, # of connection points: 5
#     Node 29, Type 0, BuildingBlock: BEQFEK_clean_sbu_0, # of connection points: 5
#     Node 30, Type 0, BuildingBlock: BEQFEK_clean_sbu_0, # of connection points: 5
#     Node 31, Type 0, BuildingBlock: BEQFEK_clean_sbu_0, # of connection points: 5
#     Node 32, Type 0, BuildingBlock: BEQFEK_clean_sbu_0, # of connection points: 5
#     Node 33, Type 0, BuildingBlock: BEQFEK_clean_sbu_0, # of connection points: 5
#     Node 34, Type 0, BuildingBlock: BEQFEK_clean_sbu_0, # of connection points: 5
#     Node 35, Type 0, BuildingBlock: BEQFEK_clean_sbu_0, # of connection points: 5
#     Edge 36, Type (0, 0), BuildingBlock: AJUNOK_clean_linker_0, # of connection points: 2
#     Edge 37, Type (0, 0), BuildingBlock: AJUNOK_clean_linker_0, # of connection points: 2
#     Edge 38, Type (0, 0), BuildingBlock: AJUNOK_clean_linker_0, # of connection points: 2
#     Edge 39, Type (0, 0), BuildingBlock: AJUNOK_clean_linker_0, # of connection points: 2
#     Edge 40, Type (0, 0), BuildingBlock: AJUNOK_clean_linker_0, # of connection points: 2
#     Edge 41, Type (0, 0), BuildingBlock: AJUNOK_clean_linker_0, # of connection points: 2
#     Edge 42, Type (0, 0), BuildingBlock: AJUNOK_clean_linker_0, # of connection points: 2
#     Edge 43, Type (0, 0), BuildingBlock: AJUNOK_clean_linker_0, # of connection points: 2
#     Edge 44, Type (0, 0), BuildingBlock: AJUNOK_clean_linker_0, # of connection points: 2
#     Edge 45, Type (0, 0), BuildingBlock: AJUNOK_clean_linker_0, # of connection points: 2
#     Edge 46, Type (0, 0), BuildingBlock: AJUNOK_clean_linker_0, # of connection points: 2
#     Edge 47, Type (0, 0), BuildingBlock: AJUNOK_clean_linker_0, # of connection points: 2
#     Edge 48, Type (0, 0), BuildingBlock: AJUNOK_clean_linker_0, # of connection points: 2
#     Edge 49, Type (0, 0), BuildingBlock: AJUNOK_clean_linker_0, # of connection points: 2
#     Edge 50, Type (0, 0), BuildingBlock: AJUNOK_clean_linker_0, # of connection points: 2
#     Edge 51, Type (0, 0), BuildingBlock: AJUNOK_clean_linker_0, # of connection points: 2
#     Edge 52, Type (0, 0), BuildingBlock: AJUNOK_clean_linker_0, # of connection points: 2
#     Edge 53, Type (0, 0), BuildingBlock: AJUNOK_clean_linker_0, # of connection points: 2
#     Edge 54, Type (0, 0), BuildingBlock: AJUNOK_clean_linker_0, # of connection points: 2
#     Edge 55, Type (0, 0), BuildingBlock: AJUNOK_clean_linker_0, # of connection points: 2
#     Edge 56, Type (0, 0), BuildingBlock: AJUNOK_clean_linker_0, # of connection points: 2
#     Edge 57, Type (0, 0), BuildingBlock: AJUNOK_clean_linker_0, # of connection points: 2
#     Edge 58, Type (0, 0), BuildingBlock: AJUNOK_clean_linker_0, # of connection points: 2
#     Edge 59, Type (0, 0), BuildingBlock: AJUNOK_clean_linker_0, # of connection points: 2
#     Edge 60, Type (0, 0), BuildingBlock: AJUNOK_clean_linker_0, # of connection points: 2
#     Edge 61, Type (0, 0), BuildingBlock: AJUNOK_clean_linker_0, # of connection points: 2
#     Edge 62, Type (0, 0), BuildingBlock: AJUNOK_clean_linker_0, # of connection points: 2
#     Edge 63, Type (0, 0), BuildingBlock: AJUNOK_clean_linker_0, # of connection points: 2
#     Edge 64, Type (0, 0), BuildingBlock: AJUNOK_clean_linker_0, # of connection points: 2
#     Edge 65, Type (0, 0), BuildingBlock: AJUNOK_clean_linker_0, # of connection points: 2
#     Edge 66, Type (0, 0), BuildingBlock: AJUNOK_clean_linker_0, # of connection points: 2
#     Edge 67, Type (0, 0), BuildingBlock: AJUNOK_clean_linker_0, # of connection points: 2
#     Edge 68, Type (0, 0), BuildingBlock: AJUNOK_clean_linker_0, # of connection points: 2
#     Edge 69, Type (0, 0), BuildingBlock: AJUNOK_clean_linker_0, # of connection points: 2
#     Edge 70, Type (0, 0), BuildingBlock: AJUNOK_clean_linker_0, # of connection points: 2
#     Edge 71, Type (0, 0), BuildingBlock: AJUNOK_clean_linker_0, # of connection points: 2
#     Edge 72, Type (0, 0), BuildingBlock: AJUNOK_clean_linker_0, # of connection points: 2
#     Edge 73, Type (0, 0), BuildingBlock: AJUNOK_clean_linker_0, # of connection points: 2
#     Edge 74, Type (0, 0), BuildingBlock: AJUNOK_clean_linker_0, # of connection points: 2
#     Edge 75, Type (0, 0), BuildingBlock: AJUNOK_clean_linker_0, # of connection points: 2
#     Edge 76, Type (0, 0), BuildingBlock: AJUNOK_clean_linker_0, # of connection points: 2
#     Edge 77, Type (0, 0), BuildingBlock: AJUNOK_clean_linker_0, # of connection points: 2
#     Edge 78, Type (0, 0), BuildingBlock: AJUNOK_clean_linker_0, # of connection points: 2
#     Edge 79, Type (0, 0), BuildingBlock: AJUNOK_clean_linker_0, # of connection points: 2
#     Edge 80, Type (0, 0), BuildingBlock: AJUNOK_clean_linker_0, # of connection points: 2
#     Edge 81, Type (0, 0), BuildingBlock: AJUNOK_clean_linker_0, # of connection points: 2
#     Edge 82, Type (0, 0), BuildingBlock: AJUNOK_clean_linker_0, # of connection points: 2
#     Edge 83, Type (0, 0), BuildingBlock: AJUNOK_clean_linker_0, # of connection points: 2
#     Edge 84, Type (0, 0), BuildingBlock: AJUNOK_clean_linker_0, # of connection points: 2
#     Edge 85, Type (0, 0), BuildingBlock: AJUNOK_clean_linker_0, # of connection points: 2
#     Edge 86, Type (0, 0), BuildingBlock: AJUNOK_clean_linker_0, # of connection points: 2
#     Edge 87, Type (0, 0), BuildingBlock: AJUNOK_clean_linker_0, # of connection points: 2
#     Edge 88, Type (0, 0), BuildingBlock: AJUNOK_clean_linker_0, # of connection points: 2
#     Edge 89, Type (0, 0), BuildingBlock: AJUNOK_clean_linker_0, # of connection points: 2
#     Edge 90, Type (0, 0), BuildingBlock: AJUNOK_clean_linker_0, # of connection points: 2
#     Edge 91, Type (0, 0), BuildingBlock: AJUNOK_clean_linker_0, # of connection points: 2
#     Edge 92, Type (0, 0), BuildingBlock: AJUNOK_clean_linker_0, # of connection points: 2
#     Edge 93, Type (0, 0), BuildingBlock: AJUNOK_clean_linker_0, # of connection points: 2
#     Edge 94, Type (0, 0), BuildingBlock: AJUNOK_clean_linker_0, # of connection points: 2
#     Edge 95, Type (0, 0), BuildingBlock: AJUNOK_clean_linker_0, # of connection points: 2
#     Edge 96, Type (0, 0), BuildingBlock: AJUNOK_clean_linker_0, # of connection points: 2
#     Edge 97, Type (0, 0), BuildingBlock: AJUNOK_clean_linker_0, # of connection points: 2
#     Edge 98, Type (0, 0), BuildingBlock: AJUNOK_clean_linker_0, # of connection points: 2
#     Edge 99, Type (0, 0), BuildingBlock: AJUNOK_clean_linker_0, # of connection points: 2
#     Edge 100, Type (0, 0), BuildingBlock: AJUNOK_clean_linker_0, # of connection points: 2
#     Edge 101, Type (0, 0), BuildingBlock: AJUNOK_clean_linker_0, # of connection points: 2
#     Edge 102, Type (0, 0), BuildingBlock: AJUNOK_clean_linker_0, # of connection points: 2
#     Edge 103, Type (0, 0), BuildingBlock: AJUNOK_clean_linker_0, # of connection points: 2
#     Edge 104, Type (0, 0), BuildingBlock: AJUNOK_clean_linker_0, # of connection points: 2
#     Edge 105, Type (0, 0), BuildingBlock: AJUNOK_clean_linker_0, # of connection points: 2
#     Edge 106, Type (0, 0), BuildingBlock: AJUNOK_clean_linker_0, # of connection points: 2
#     Edge 107, Type (0, 0), BuildingBlock: AJUNOK_clean_linker_0, # of connection points: 2
#     Edge 108, Type (0, 0), BuildingBlock: AJUNOK_clean_linker_0, # of connection points: 2
#     Edge 109, Type (0, 0), BuildingBlock: AJUNOK_clean_linker_0, # of connection points: 2
#     Edge 110, Type (0, 0), BuildingBlock: AJUNOK_clean_linker_0, # of connection points: 2
#     Edge 111, Type (0, 0), BuildingBlock: AJUNOK_clean_linker_0, # of connection points: 2
#     Edge 112, Type (0, 0), BuildingBlock: AJUNOK_clean_linker_0, # of connection points: 2
#     Edge 113, Type (0, 0), BuildingBlock: AJUNOK_clean_linker_0, # of connection points: 2
#     Edge 114, Type (0, 0), BuildingBlock: AJUNOK_clean_linker_0, # of connection points: 2
#     Edge 115, Type (0, 0), BuildingBlock: AJUNOK_clean_linker_0, # of connection points: 2
#     Edge 116, Type (0, 0), BuildingBlock: AJUNOK_clean_linker_0, # of connection points: 2
#     Edge 117, Type (0, 0), BuildingBlock: AJUNOK_clean_linker_0, # of connection points: 2
#     Edge 118, Type (0, 0), BuildingBlock: AJUNOK_clean_linker_0, # of connection points: 2
#     Edge 119, Type (0, 0), BuildingBlock: AJUNOK_clean_linker_0, # of connection points: 2
#     Edge 120, Type (0, 0), BuildingBlock: AJUNOK_clean_linker_0, # of connection points: 2
#     Edge 121, Type (0, 0), BuildingBlock: AJUNOK_clean_linker_0, # of connection points: 2
#     Edge 122, Type (0, 0), BuildingBlock: AJUNOK_clean_linker_0, # of connection points: 2
#     Edge 123, Type (0, 0), BuildingBlock: AJUNOK_clean_linker_0, # of connection points: 2
#     Edge 124, Type (0, 0), BuildingBlock: AJUNOK_clean_linker_0, # of connection points: 2
#     Edge 125, Type (0, 0), BuildingBlock: AJUNOK_clean_linker_0, # of connection points: 2
# Relax obj value: 0.144
# Max RMSD: 0.107
# Mean RMSD: 0.107
data_MOF--net-wls--node1-BEQFEK_clean_sbu_0--edge1-AJUNOK_clean_linker_0
_symmetry_space_group_name_H-M    P1
_symmetry_Int_Tables_number       1
_symmetry_cell_setting            triclinic
loop_
_symmetry_equiv_pos_as_xyz
'x, y, z'
_cell_length_a     61.484804
_cell_length_b     61.527335
_cell_length_c     26.11357
_cell_angle_alpha  90.04525
_cell_angle_beta   90.140254
_cell_angle_gamma 120.03027
loop_
_atom_site_label
_atom_site_type_symbol
_atom_site_fract_x
_atom_site_fract_y
_atom_site_fract_z
_atom_type_partial_charge
Co0 Co 0.2489 0.23823 0.07698 0.0
Co1 Co 0.22604 0.18092 0.07471 0.0
C2 C 0.22689 0.20663 0.17219 0.0
O3 O 0.23603 0.22694 0.147 0.0
O4 O 0.22348 0.18636 0.1512 0.0
C5 C 0.28215 0.28456 0.11947 0.0
O6 O 0.28255 0.2705 0.15686 0.0
C7 C 0.21838 0.1292 0.08275 0.0
C8 C 0.1944 0.11168 1.01472 0.0
C9 C 0.20625 0.10694 0.05469 0.0
N10 N 0.21406 0.14627 0.05975 0.0
N11 N 0.19953 0.13553 1.01944 0.0
C12 C 0.23259 0.13389 0.13196 0.0
H13 H 0.22713 0.14432 0.15876 0.0
H14 H 0.25299 0.14583 0.12462 0.0
H15 H 0.22892 0.11603 0.14992 0.0
C16 C 0.29211 0.23774 1.02873 0.0
N17 N 0.26918 0.22579 0.05058 0.0
N18 N 0.25981 0.20139 0.04727 0.0
C19 C 0.27669 0.19714 1.02216 0.0
C20 C 0.29794 0.22014 1.01028 0.0
C21 C 0.30734 0.2656 1.02161 0.0
H22 H 0.29525 0.27264 1.00594 0.0
H23 H 0.31474 0.27466 0.05929 0.0
H24 H 0.3234 0.271 0.99533 0.0
O25 O 0.21987 0.22978 0.03365 0.0
O26 O 0.20109 0.18847 0.03981 0.0
H27 H 0.25341 0.16053 0.99016 0.0
H28 H 0.28684 0.17298 0.98117 0.0
C29 C 0.27225 0.17169 1.00796 0.0
H30 H 0.27266 0.16181 0.04307 0.0
H31 H 0.19346 0.14467 0.9945 0.0
O32 O 0.26869 0.27439 0.08023 0.0
C33 C 0.20102 0.20823 1.02514 0.0
Co34 Co 0.77407 0.01207 0.07695 0.0
Co35 Co 0.83149 0.04845 0.07869 0.0
C36 C 0.80536 0.02299 0.17449 0.0
O37 O 0.78543 0.01156 0.14777 0.0
O38 O 0.82575 0.04024 0.15472 0.0
C39 C 0.72749 1.00393 0.10914 0.0
O40 O 0.74151 0.02541 0.13274 0.0
C41 C 0.88404 0.0922 0.08799 0.0
C42 C 0.89995 0.08729 1.01602 0.0
C43 C 0.90586 0.10269 0.05852 0.0
N44 N 0.86612 0.07172 0.0634 0.0
N45 N 0.87593 0.0689 1.02067 0.0
C46 C 0.88058 0.10042 0.1398 0.0
H47 H 0.86977 0.08378 0.16456 0.0
H48 H 0.86953 0.11008 0.13613 0.0
H49 H 0.89896 0.11332 0.15804 0.0
C50 C 0.77416 0.05492 1.02449 0.0
N51 N 0.78608 0.04456 0.04906 0.0
N52 N 0.81034 0.06071 0.05037 0.0
C53 C 0.81445 0.08219 1.02709 0.0
C54 C 0.7915 0.0793 1.01066 0.0
C55 C 0.74703 0.041 1.00906 0.0
H56 H 0.74046 0.02077 1.00368 0.0
H57 H 0.73569 0.04328 0.03923 0.0
H58 H 0.74404 0.04865 0.97291 0.0
O59 O 0.7836 0.99206 0.03494 0.0
O60 O 0.82473 0.01621 0.04376 0.0
H61 H 0.85163 0.09949 0.99668 0.0
H62 H 0.83855 0.1201 1.00015 0.0
C63 C 0.83983 0.10476 1.0197 0.0
H64 H 0.84906 0.1115 0.05746 0.0
H65 H 0.86607 0.05452 0.9942 0.0
O66 O 0.7377 0.99455 0.08163 0.0
C67 C 0.80569 0.99596 1.02789 0.0
Co68 Co 0.99908 0.76517 0.07932 0.0
Co69 Co 0.96606 0.78989 0.08045 0.0
C70 C 0.98823 0.78348 0.17819 0.0
O71 O 0.9977 0.77286 0.15205 0.0
O72 O 0.9746 0.79121 0.15678 0.0
C73 C 1.00752 0.72531 0.10245 0.0
O74 O 0.98612 0.71593 0.12714 0.0
C75 C 0.92212 0.79814 0.09027 0.0
C76 C 0.9316 0.82655 1.0298 0.0
C77 C 0.91359 0.81272 0.06616 0.0
N78 N 0.9441 0.80322 0.06882 0.0
N79 N 0.94963 0.82036 0.03299 0.0
C80 C 0.9103 0.78065 0.1344 0.0
H81 H 0.92441 0.77758 0.15467 0.0
H82 H 0.89512 0.76227 0.12029 0.0
H83 H 0.90181 0.78832 0.16122 0.0
C84 C 0.95617 0.72528 1.02094 0.0
N85 N 0.96717 0.74704 0.04757 0.0
N86 N 0.95209 0.75646 0.04886 0.0
C87 C 0.93062 0.74035 1.02331 0.0
C88 C 0.93246 0.71988 1.00558 0.0
C89 C 0.96867 0.7106 1.0065 0.0
H90 H 0.96518 0.69663 0.0368 0.0
H91 H 0.96083 0.70011 0.97022 0.0
H92 H 0.98914 0.72324 1.00172 0.0
O93 O 0.02119 0.7963 0.04326 0.0
O94 O 0.99851 0.81497 0.04598 0.0
H95 H 0.89695 0.73255 0.98235 0.0
H96 H 0.89785 0.74047 0.04897 0.0
C97 C 0.90921 0.7448 1.01367 0.0
H98 H 0.91639 0.76475 1.00367 0.0
H99 H 0.9656 0.8276 1.01002 0.0
O100 O 0.01602 0.74588 0.07864 0.0
C101 C 0.01864 0.8151 0.03362 0.0
Co102 Co 0.24178 0.24421 0.48237 0.0
Co103 Co 0.18448 0.22311 0.48065 0.0
C104 C 0.21074 0.22421 0.38456 0.0
O105 O 0.23064 0.23261 0.41129 0.0
O106 O 0.19036 0.221 0.40449 0.0
C107 C 0.28797 0.28295 0.45023 0.0
O108 O 0.27368 0.29007 0.4267 0.0
C109 C 0.13237 0.21553 0.47234 0.0
C110 C 0.11434 0.18911 0.5364 0.0
C111 C 0.10963 0.20173 0.49806 0.0
N112 N 0.14958 0.21108 0.49461 0.0
N113 N 0.13853 0.1952 0.53272 0.0
C114 C 0.13731 0.23159 0.42598 0.0
H115 H 0.15484 0.23508 0.40679 0.0
H116 H 0.1394 0.24989 0.43736 0.0
H117 H 0.12119 0.22243 0.39902 0.0
C118 C 0.24168 0.28675 0.53606 0.0
N119 N 0.2297 0.26454 0.51112 0.0
N120 N 0.20544 0.25644 0.51003 0.0
C121 C 0.20141 0.27375 0.53395 0.0
C122 C 0.22441 0.2938 0.5504 0.0
C123 C 0.26882 0.29988 0.5514 0.0
H124 H 0.27535 0.28618 0.55652 0.0
H125 H 0.28017 0.31355 0.52134 0.0
H126 H 0.27186 0.31046 0.58769 0.0
O127 O 0.23249 0.2145 0.52364 0.0
O128 O 0.19136 0.1975 0.51493 0.0
H129 H 0.16304 0.25223 0.55757 0.0
H130 H 0.17708 0.28579 0.56769 0.0
C131 C 0.1761 0.27105 0.54166 0.0
H132 H 0.16862 0.27265 0.50411 0.0
H133 H 0.14759 0.18867 0.55673 0.0
O134 O 0.27806 0.26335 0.47767 0.0
C135 C 0.21041 0.19623 0.53047 0.0
Co136 Co 0.7682 0.99951 0.48271 0.0
Co137 Co 0.79021 0.96418 0.48333 0.0
C138 C 0.78905 0.98888 0.38646 0.0
O139 O 0.78013 1.00012 0.41217 0.0
O140 O 0.79261 0.97206 0.40708 0.0
C141 C 0.72953 0.00695 0.4495 0.0
O142 O 0.72227 0.98549 0.42604 0.0
C143 C 0.79837 0.9203 0.4741 0.0
C144 C 0.82021 0.9254 0.5449 0.0
C145 C 0.80979 0.90971 0.50302 0.0
N146 N 0.80174 0.94111 0.4984 0.0
N147 N 0.81499 0.94407 0.5404 0.0
C148 C 0.78581 0.91181 0.42301 0.0
H149 H 0.79206 0.92824 0.39742 0.0
H150 H 0.7652 0.90311 0.42764 0.0
H151 H 0.79015 0.89806 0.40509 0.0
C152 C 0.72569 0.9566 0.53553 0.0
N153 N 0.74803 0.96713 0.51122 0.0
N154 N 0.75662 0.95139 0.51126 0.0
C155 C 0.73953 0.93 0.53526 0.0
C156 C 0.71912 0.9325 0.55062 0.0
C157 C 0.71206 0.9702 0.54978 0.0
H158 H 0.72547 0.99051 0.55496 0.0
H159 H 0.69847 0.96754 0.51909 0.0
H160 H 0.70131 0.96259 0.58576 0.0
O161 O 0.79765 0.02002 0.52461 0.0
O162 O 0.81557 0.99667 0.51831 0.0
H163 H 0.76069 0.91405 0.56585 0.0
H164 H 0.72698 0.89306 0.56655 0.0
C165 C 0.74291 0.90791 0.54456 0.0
H166 H 0.74437 0.90009 0.50733 0.0
H167 H 0.82014 0.95869 0.56656 0.0
O168 O 0.74906 0.01654 0.47736 0.0
C169 C 0.81615 0.01678 0.53304 0.0
Co170 Co 0.01351 0.77469 0.49528 0.0
Co171 Co 0.04976 0.83135 0.48418 0.0
C172 C 0.02312 0.80078 0.39169 0.0
O173 O 0.01261 0.78203 0.42161 0.0
O174 O 0.03952 0.82236 0.40897 0.0
C175 C 0.99907 0.72618 0.46869 0.0
O176 O 0.01762 0.73809 0.43626 0.0
C177 C 0.09464 0.8824 0.46776 0.0
C178 C 0.08982 0.90233 0.53334 0.0
C179 C 0.10554 0.90556 0.4927 0.0
N180 N 0.0736 0.86629 0.49316 0.0
N181 N 0.07083 0.87849 0.53197 0.0
C182 C 0.10305 0.87598 0.4192 0.0
H183 H 0.08652 0.86418 0.39458 0.0
H184 H 0.11221 0.86483 0.42817 0.0
H185 H 0.11649 0.89319 0.39821 0.0
C186 C 0.05681 0.77558 0.54683 0.0
N187 N 0.04622 0.78702 0.52133 0.0
N188 N 0.06251 0.81111 0.51679 0.0
C189 C 0.08433 0.81561 0.53954 0.0
C190 C 0.08142 0.7931 0.55891 0.0
C191 C 0.04333 0.74836 0.56111 0.0
H192 H 0.04214 0.73704 0.52706 0.0
H193 H 0.05333 0.74438 0.59185 0.0
H194 H 0.02402 0.74254 0.57409 0.0
O195 O 0.99464 0.78673 0.53357 0.0
O196 O 0.01871 0.82732 0.51975 0.0
H197 H 0.10176 0.85463 0.55874 0.0
H198 H 0.12107 0.84058 0.57133 0.0
C199 C 0.10718 0.84099 0.54471 0.0
H200 H 0.11598 0.84733 0.50661 0.0
H201 H 0.05614 0.87038 0.55825 0.0
O202 O 0.99443 0.73869 0.50083 0.0
C203 C 0.99866 0.80896 0.53773 0.0
Co204 Co 0.76918 0.77447 0.98662 0.0
Co205 Co 0.79055 0.83164 0.98457 0.0
C206 C 0.78906 0.80492 0.8888 0.0
O207 O 0.78069 0.7851 0.91546 0.0
O208 O 0.79229 0.82535 0.90853 0.0
C209 C 0.73123 0.72777 0.954 0.0
O210 O 0.72338 0.74136 0.93004 0.0
C211 C 0.79804 0.88348 0.97511 0.0
C212 C 0.8254 0.90231 0.03775 0.0
C213 C 0.8122 0.90651 0.99979 0.0
N214 N 0.80283 0.86659 0.9976 0.0
N215 N 0.81928 0.87811 0.03483 0.0
C216 C 0.78125 0.87791 0.92956 0.0
H217 H 0.77854 0.86083 0.90946 0.0
H218 H 0.76262 0.87455 0.94214 0.0
H219 H 0.78928 0.89416 0.90302 0.0
C220 C 0.72679 0.775 0.04028 0.0
N221 N 0.74884 0.78669 1.01485 0.0
N222 N 0.75731 0.81102 1.01427 0.0
C223 C 0.74049 0.8154 0.03927 0.0
C224 C 0.7204 0.79259 0.05588 0.0
C225 C 0.71291 0.74765 0.05355 0.0
H226 H 0.72627 0.74076 0.05967 0.0
H227 H 0.69997 0.73696 1.02171 0.0
H228 H 0.70144 0.7441 0.08859 0.0
O229 O 0.79896 0.78392 1.02822 0.0
O230 O 0.81624 0.82497 1.01897 0.0
H231 H 0.73044 0.84007 0.07834 0.0
H232 H 0.74141 0.84868 1.01352 0.0
C233 C 0.74412 0.84089 0.04963 0.0
H234 H 0.76352 0.85358 0.06349 0.0
H235 H 0.82617 0.86936 0.05877 0.0
O236 O 0.75046 0.73828 0.9826 0.0
C237 C 0.81737 0.80594 0.03486 0.0
Co238 Co 0.24131 0.9974 0.97716 0.0
Co239 Co 0.18358 0.96383 0.97869 0.0
C240 C 0.21044 0.98601 0.88004 0.0
O241 O 0.23075 0.99575 0.90561 0.0
O242 O 0.18934 0.97189 0.90189 0.0
C243 C 0.28784 1.00466 0.94698 0.0
O244 O 0.27405 0.9832 0.92313 0.0
C245 C 0.13119 0.92003 0.97135 0.0
C246 C 0.11479 0.92686 0.0405 0.0
C247 C 0.10929 0.91014 1.00045 0.0
N248 N 0.14879 0.9414 0.99389 0.0
N249 N 0.13868 0.9454 0.03485 0.0
C250 C 0.13503 0.91032 0.92164 0.0
H251 H 0.14551 0.92617 0.89484 0.0
H252 H 0.14659 0.90136 0.92811 0.0
H253 H 0.1168 0.89643 0.90418 0.0
C254 C 0.23975 0.95513 0.03393 0.0
N255 N 0.22836 0.96575 1.00838 0.0
N256 N 0.20388 0.95053 1.00856 0.0
C257 C 0.19909 0.92937 0.03432 0.0
C258 C 0.22182 0.93152 0.05043 0.0
C259 C 0.26711 0.96825 0.04755 0.0
H260 H 0.27457 0.98868 0.05199 0.0
H261 H 0.27755 0.96493 1.01689 0.0
H262 H 0.27028 0.96082 0.08382 0.0
O263 O 0.2327 0.01935 1.01495 0.0
O264 O 0.19128 0.99641 1.013 0.0
H265 H 0.16201 0.91488 0.06408 0.0
H266 H 0.17408 0.89344 0.06898 0.0
C267 C 0.17337 0.90788 0.04475 0.0
H268 H 0.16404 0.89921 1.00798 0.0
H269 H 0.14831 0.96058 0.05973 0.0
O270 O 0.27746 0.01408 0.97375 0.0
C271 C 0.21132 0.01663 1.02514 0.0
Co272 Co 0.01587 0.24501 0.98143 0.0
Co273 Co 0.05033 0.22202 0.98289 0.0
C274 C 0.02593 0.22376 0.88545 0.0
O275 O 0.01499 0.23313 0.91073 0.0
O276 O 0.04229 0.21964 0.90661 0.0
C277 C 1.00703 0.28266 0.94696 0.0
O278 O 0.02809 0.28999 0.92195 0.0
C279 C 0.09441 0.21438 0.97257 0.0
C280 C 0.08919 0.19127 0.04117 0.0
C281 C 0.1051 0.20266 1.00015 0.0
N282 N 0.07337 0.21029 0.99683 0.0
N283 N 0.07032 0.19627 0.03748 0.0
C284 C 0.10305 0.22796 0.92267 0.0
H285 H 0.08674 0.22189 0.89661 0.0
H286 H 0.11131 0.2484 0.92919 0.0
H287 H 0.11719 0.22435 0.90422 0.0
C288 C 0.05934 0.2874 0.03415 0.0
N289 N 0.04843 0.26498 1.00987 0.0
N290 N 0.06365 0.25576 1.01097 0.0
C291 C 0.08501 0.27243 0.03595 0.0
C292 C 0.08306 0.29321 0.05081 0.0
C293 C 0.04661 0.30222 0.04528 0.0
H294 H 0.02633 0.28945 0.05238 0.0
H295 H 0.04884 0.31429 1.01192 0.0
H296 H 0.05508 0.31462 0.07909 0.0
O297 O 0.99513 0.2156 1.02309 0.0
O298 O 0.01779 0.1969 1.01791 0.0
H299 H 0.09893 0.24957 0.06714 0.0
H300 H 0.12043 0.28305 0.07311 0.0
C301 C 0.10626 0.26802 0.04804 0.0
H302 H 0.11541 0.26749 1.01194 0.0
H303 H 0.05552 0.19046 0.06333 0.0
O304 O 0.99871 0.264 0.97681 0.0
C305 C 0.99788 0.19686 0.0321 0.0
Co306 Co 0.77542 0.76633 0.57909 0.0
Co307 Co 0.83285 0.78981 0.5804 0.0
C308 C 0.80596 0.78758 0.67662 0.0
O309 O 0.78593 0.77826 0.65013 0.0
O310 O 0.82667 0.79181 0.65651 0.0
C311 C 0.72884 0.72802 0.61179 0.0
O312 O 0.7425 0.72076 0.63738 0.0
C313 C 0.88578 0.80008 0.59015 0.0
C314 C 0.9028 0.82541 0.5241 0.0
C315 C 0.90833 0.8141 0.56388 0.0
N316 N 0.86791 0.8031 0.56672 0.0
N317 N 0.87836 0.8184 0.52751 0.0
C318 C 0.8815 0.78504 0.63788 0.0
H319 H 0.86537 0.78364 0.65958 0.0
H320 H 0.8771 0.76578 0.62762 0.0
H321 H 0.89865 0.79365 0.66221 0.0
C322 C 0.77726 0.72409 0.52819 0.0
N323 N 0.78852 0.7467 0.55165 0.0
N324 N 0.81301 0.75607 0.5517 0.0
C325 C 0.81796 0.73929 0.52819 0.0
C326 C 0.79534 0.71822 0.51336 0.0
C327 C 0.74985 0.70926 0.5152 0.0
H328 H 0.74232 0.72199 0.50784 0.0
H329 H 0.73954 0.69669 0.54761 0.0
H330 H 0.74655 0.69736 0.48082 0.0
O331 O 0.78369 0.79552 0.53713 0.0
O332 O 0.82494 0.81452 0.54545 0.0
H333 H 0.85589 0.76244 0.50304 0.0
H334 H 0.84338 0.72908 0.49296 0.0
C335 C 0.84376 0.74346 0.51923 0.0
H336 H 0.85197 0.74245 0.55634 0.0
H337 H 0.86871 0.82387 0.50257 0.0
O338 O 0.7393 0.74689 0.58251 0.0
C339 C 0.80523 0.81449 0.52978 0.0
Co340 Co 0.25017 0.01411 0.56972 0.0
Co341 Co 0.2248 0.04667 0.57161 0.0
C342 C 0.22889 0.02178 0.66786 0.0
O343 O 0.23991 0.01282 0.64148 0.0
O344 O 0.22227 0.03649 0.64735 0.0
C345 C 0.28481 1.00079 0.60479 0.0
O346 O 0.28598 0.01461 0.64422 0.0
C347 C 0.21738 0.09093 0.58294 0.0
C348 C 0.18694 0.08089 0.5266 0.0
C349 C 0.20224 0.0994 0.56111 0.0
N350 N 0.21124 0.06855 0.56194 0.0
N351 N 0.19288 0.06266 0.52865 0.0
C352 C 0.2365 0.1032 0.62455 0.0
H353 H 0.23915 0.08899 0.64546 0.0
H354 H 0.25476 0.11704 0.60766 0.0
H355 H 0.23065 0.1133 0.65143 0.0
C356 C 0.29114 0.05834 0.51955 0.0
N357 N 0.26876 0.04695 0.54355 0.0
N358 N 0.2586 0.06135 0.54202 0.0
C359 C 0.27446 0.08247 0.5155 0.0
C360 C 0.29579 0.08134 0.50118 0.0
C361 C 0.307 0.04654 0.51074 0.0
H362 H 0.2955 0.02805 0.49188 0.0
H363 H 0.31371 0.04359 0.54809 0.0
H364 H 0.32361 0.05838 0.48657 0.0
O365 O 0.22 0.99291 0.52919 0.0
O366 O 0.2007 0.01497 0.53412 0.0
H367 H 0.24816 0.09423 0.49407 0.0
H368 H 0.27884 0.11193 0.4646 0.0
C369 C 0.26863 0.1024 0.50011 0.0
H370 H 0.27485 0.11667 0.53094 0.0
H371 H 0.18462 0.04631 0.50656 0.0
O372 O 0.27047 0.99809 0.56747 0.0
C373 C 0.20108 0.99535 0.51969 0.0
Co374 Co 1.00221 0.23794 0.57521 0.0
Co375 Co 0.96689 0.18063 0.57707 0.0
C376 C 0.992 0.20727 0.67297 0.0
O377 O 1.00316 0.22713 0.64627 0.0
O378 O 0.97502 0.18672 0.65304 0.0
C379 C 0.00889 0.28354 0.60836 0.0
O380 O 0.98753 0.26876 0.6315 0.0
C381 C 0.9232 0.12869 0.58783 0.0
C382 C 0.92787 0.11134 0.51767 0.0
C383 C 0.91236 0.10646 0.55956 0.0
N384 N 0.94392 0.14589 0.56308 0.0
N385 N 0.94666 0.13523 0.52153 0.0
C386 C 0.91504 0.13326 0.63871 0.0
H387 H 0.93159 0.14324 0.66429 0.0
H388 H 0.90681 0.14556 0.6337 0.0
H389 H 0.90103 0.11538 0.6569 0.0
C390 C 0.95878 0.23669 0.5217 0.0
N391 N 0.96953 0.22533 0.54703 0.0
N392 N 0.95382 0.20098 0.54825 0.0
C393 C 0.93228 0.19625 0.52407 0.0
C394 C 0.93463 0.21886 0.50718 0.0
C395 C 0.97206 0.26386 0.507 0.0
H396 H 0.99241 0.27099 0.5019 0.0
H397 H 0.96936 0.27479 0.53755 0.0
H398 H 0.96424 0.26676 0.47097 0.0
O399 O 0.02279 0.22887 0.53356 0.0
O400 O 0.99924 0.18772 0.54229 0.0
H401 H 0.917 0.15913 0.49384 0.0
H402 H 0.89561 0.17133 0.49169 0.0
C403 C 0.91048 0.17057 0.51449 0.0
H404 H 0.90254 0.16131 0.55161 0.0
H405 H 0.96116 0.14447 0.49514 0.0
O406 O 0.01889 0.27416 0.58024 0.0
C407 C 0.01933 0.20693 0.52662 0.0
Co408 Co 0.91827 0.56952 0.43729 0.0
Co409 Co 0.89192 0.51309 0.41784 0.0
C410 C 0.89613 0.53681 0.52499 0.0
O411 O 0.90918 0.55868 0.50688 0.0
O412 O 0.88831 0.51732 0.4963 0.0
C413 C 0.93307 0.61889 0.46474 0.0
O414 O 0.9131 0.60822 0.49413 0.0
C415 C 0.88772 0.46286 0.41575 0.0
C416 C 0.85208 0.44101 0.37323 0.0
C417 C 0.87102 0.43887 0.39728 0.0
N418 N 0.87887 0.47823 0.40318 0.0
N419 N 0.85754 0.46498 0.37787 0.0
C420 C 0.91099 0.47101 0.44689 0.0
H421 H 0.91502 0.48761 0.47062 0.0
H422 H 0.92712 0.47651 0.42081 0.0
H423 H 0.909 0.45546 0.47163 0.0
C424 C 0.96093 0.56939 0.3901 0.0
N425 N 0.93732 0.5566 0.40788 0.0
N426 N 0.92592 0.53361 0.39001 0.0
C427 C 0.94164 0.53192 0.35553 0.0
C428 C 0.96449 0.55494 0.35358 0.0
C429 C 0.98049 0.59393 0.41274 0.0
H430 H 0.97787 0.59364 0.45483 0.0
H431 H 0.99974 0.59761 0.40437 0.0
H432 H 0.97833 0.6095 0.39743 0.0
O433 O 0.88753 0.56254 0.39817 0.0
O434 O 0.86841 0.52179 0.38339 0.0
H435 H 0.94046 0.51592 0.28181 0.0
H436 H 0.94365 0.4994 0.3352 0.0
C437 C 0.93421 0.5097 0.32165 0.0
H438 H 0.91357 0.49689 0.32245 0.0
H439 H 0.84664 0.47228 0.36375 0.0
O440 O 0.9388 0.60543 0.43783 0.0
C441 C 0.86909 0.54274 0.37965 0.0
Co442 Co 0.44258 0.34575 0.41059 0.0
Co443 Co 0.50009 0.38128 0.41149 0.0
C444 C 0.47366 0.35619 0.50797 0.0
O445 O 0.45362 0.34509 0.48155 0.0
O446 O 0.4942 0.37296 0.48774 0.0
C447 C 0.39591 0.33802 0.4415 0.0
O448 O 0.40976 0.35954 0.46509 0.0
C449 C 0.55238 0.42545 0.42191 0.0
C450 C 0.56909 0.42077 0.35089 0.0
C451 C 0.57443 0.43625 0.39313 0.0
N452 N 0.53487 0.40474 0.39717 0.0
N453 N 0.54517 0.40207 0.35502 0.0
C454 C 0.54835 0.43363 0.47328 0.0
H455 H 0.53759 0.417 0.4981 0.0
H456 H 0.53702 0.44297 0.46883 0.0
H457 H 0.56651 0.44681 0.49193 0.0
C458 C 0.44312 0.38869 0.35776 0.0
N459 N 0.4549 0.37816 0.38227 0.0
N460 N 0.47922 0.39408 0.3833 0.0
C461 C 0.48349 0.41564 0.36007 0.0
C462 C 0.46058 0.41302 0.34391 0.0
C463 C 0.41603 0.37492 0.34202 0.0
H464 H 0.40932 0.35467 0.33673 0.0
H465 H 0.40467 0.37736 0.37189 0.0
H466 H 0.41324 0.3826 0.30571 0.0
O467 O 0.45177 0.32546 0.36894 0.0
O468 O 0.4931 0.34882 0.37579 0.0
H469 H 0.52092 0.4325 0.33104 0.0
H470 H 0.50784 0.45316 0.33142 0.0
C471 C 0.50894 0.43808 0.35252 0.0
H472 H 0.51785 0.44535 0.39034 0.0
H473 H 0.53569 0.38761 0.32851 0.0
O474 O 0.40627 0.32856 0.41474 0.0
C475 C 0.47354 0.32876 0.3606 0.0
Co476 Co 0.66851 0.09998 0.4064 0.0
Co477 Co 0.6325 0.12126 0.40915 0.0
C478 C 0.65787 0.11977 0.50478 0.0
O479 O 0.6692 0.11139 0.47765 0.0
O480 O 0.6407 0.12315 0.48521 0.0
C481 C 0.6759 0.06108 0.43754 0.0
O482 O 0.65444 0.05377 0.46089 0.0
C483 C 0.58831 0.12939 0.41765 0.0
C484 C 0.59658 0.15541 0.35284 0.0
C485 C 0.57941 0.14315 0.39154 0.0
N486 N 0.60978 0.13348 0.3952 0.0
N487 N 0.61454 0.14914 0.35667 0.0
C488 C 0.57738 0.11373 0.46455 0.0
H489 H 0.59158 0.11062 0.48429 0.0
H490 H 0.56127 0.09522 0.45368 0.0
H491 H 0.57031 0.12297 0.49086 0.0
C492 C 0.62557 0.05767 0.35274 0.0
N493 N 0.636 0.07983 0.37783 0.0
N494 N 0.61988 0.08796 0.37951 0.0
C495 C 0.59834 0.07067 0.35593 0.0
C496 C 0.60119 0.05068 0.33892 0.0
C497 C 0.63938 0.04445 0.33695 0.0
H498 H 0.65967 0.05801 0.33225 0.0
H499 H 0.63677 0.03044 0.3665 0.0
H500 H 0.63181 0.0342 0.30029 0.0
O501 O 0.68885 0.12967 0.36525 0.0
O502 O 0.66497 0.14683 0.37497 0.0
H503 H 0.58119 0.0919 0.33225 0.0
H504 H 0.56137 0.05821 0.32444 0.0
C505 C 0.57565 0.07332 0.34919 0.0
H506 H 0.56728 0.07236 0.38722 0.0
H507 H 0.63 0.1554 0.33247 0.0
O508 O 0.6856 0.08082 0.41057 0.0
C509 C 0.68516 0.14803 0.35897 0.0
Co510 Co 0.90794 0.57896 0.83337 0.0
Co511 Co 0.85016 0.55468 0.82878 0.0
C512 C 0.87826 0.55545 0.73521 0.0
O513 O 0.89791 0.56602 0.76296 0.0
O514 O 0.85707 0.55078 0.75357 0.0
C515 C 0.95449 0.61377 0.79455 0.0
O516 O 0.9403 0.6141 0.75721 0.0
C517 C 0.79824 0.54628 0.815 0.0
C518 C 0.78001 0.52339 0.88361 0.0
C519 C 0.77567 0.53462 0.84196 0.0
N520 N 0.81509 0.54233 0.84029 0.0
N521 N 0.8039 0.5284 0.88088 0.0
C522 C 0.80344 0.55964 0.76478 0.0
H523 H 0.81388 0.55352 0.73959 0.0
H524 H 0.81557 0.58012 0.77096 0.0
H525 H 0.78576 0.5559 0.74558 0.0
C526 C 0.90528 0.62154 0.87806 0.0
N527 N 0.89419 0.59853 0.85645 0.0
N528 N 0.86969 0.58894 0.85576 0.0
C529 C 0.86452 0.60589 0.87785 0.0
C530 C 0.88704 0.62733 0.8919 0.0
C531 C 0.93279 0.63683 0.88978 0.0
H532 H 0.93948 0.62455 0.90592 0.0
H533 H 0.94318 0.64532 0.85388 0.0
H534 H 0.93697 0.65212 0.91752 0.0
O535 O 0.899 0.54996 0.877 0.0
O536 O 0.85775 0.53062 0.86709 0.0
H537 H 0.82695 0.58273 0.90505 0.0
H538 H 0.83898 0.61616 0.91235 0.0
C539 C 0.83862 0.60142 0.88725 0.0
H540 H 0.82989 0.60152 0.85019 0.0
H541 H 0.81278 0.5228 0.90752 0.0
O542 O 0.94436 0.59952 0.83266 0.0
C543 C 0.87742 0.53093 0.88405 0.0
Co544 Co 0.43554 0.33219 0.81639 0.0
Co545 Co 0.45894 0.29812 0.81798 0.0
C546 C 0.45685 0.32233 0.72035 0.0
O547 O 0.4473 0.33312 0.74556 0.0
O548 O 0.46115 0.30613 0.74161 0.0
C549 C 0.39615 0.33903 0.78464 0.0
O550 O 0.38896 0.31776 0.76044 0.0
C551 C 0.46666 0.25395 0.80928 0.0
C552 C 0.49417 0.26268 0.87164 0.0
C553 C 0.48072 0.24503 0.83417 0.0
N554 N 0.47166 0.27581 0.83129 0.0
N555 N 0.48824 0.2809 0.86829 0.0
C556 C 0.44977 0.24262 0.76387 0.0
H557 H 0.4477 0.25713 0.74279 0.0
H558 H 0.43089 0.22799 0.77676 0.0
H559 H 0.45729 0.23361 0.73809 0.0
C560 C 0.39386 0.28905 0.87083 0.0
N561 N 0.41597 0.29974 0.84554 0.0
N562 N 0.42532 0.28463 0.84676 0.0
C563 C 0.40904 0.2636 0.87293 0.0
C564 C 0.38829 0.26556 0.88804 0.0
C565 C 0.37958 0.3021 0.88419 0.0
H566 H 0.39258 0.32251 0.88917 0.0
H567 H 0.36603 0.29898 0.85308 0.0
H568 H 0.36871 0.29449 0.92003 0.0
O569 O 0.46504 0.35338 0.85794 0.0
O570 O 0.48377 0.33074 0.85318 0.0
H571 H 0.43347 0.25055 0.89966 0.0
H572 H 0.40069 0.2304 0.91616 0.0
C573 C 0.41384 0.24274 0.88619 0.0
H574 H 0.41121 0.23132 0.85147 0.0
H575 H 0.49533 0.29673 0.8918 0.0
O576 O 0.41585 0.34863 0.81197 0.0
C577 C 0.48381 0.35067 0.86719 0.0
Co578 Co 0.68103 0.10655 0.81468 0.0
Co579 Co 0.71657 0.16398 0.81401 0.0
C580 C 0.69209 0.13742 0.71734 0.0
O581 O 0.68064 0.11743 0.74351 0.0
O582 O 0.70895 0.15789 0.73774 0.0
C583 C 0.67395 0.06021 0.78377 0.0
O584 O 0.69548 0.07433 0.76063 0.0
C585 C 0.76096 0.21605 0.80649 0.0
C586 C 0.75181 0.23445 0.86873 0.0
C587 C 0.7696 0.23894 0.83163 0.0
N588 N 0.73905 0.19898 0.82793 0.0
N589 N 0.73375 0.21025 0.86491 0.0
C590 C 0.77259 0.21079 0.76142 0.0
H591 H 0.75837 0.19388 0.74053 0.0
H592 H 0.78769 0.20729 0.77466 0.0
H593 H 0.78112 0.22723 0.73539 0.0
C594 C 0.7233 0.10756 0.87198 0.0
N595 N 0.71333 0.11912 0.84471 0.0
N596 N 0.72916 0.14347 0.84431 0.0
C597 C 0.75003 0.14797 0.87098 0.0
C598 C 0.7471 0.12524 0.88869 0.0
C599 C 0.70949 0.08031 0.88613 0.0
H600 H 0.71228 0.0694 0.85569 0.0
H601 H 0.7167 0.0769 0.92242 0.0
H602 H 0.68915 0.07349 0.89034 0.0
O603 O 0.66019 0.11556 0.8552 0.0
O604 O 0.68388 0.15674 0.84736 0.0
H605 H 0.76419 0.18569 0.89717 0.0
H606 H 0.78422 0.17272 0.91209 0.0
C607 C 0.77146 0.17355 0.88301 0.0
H608 H 0.78222 0.18201 0.84753 0.0
H609 H 0.71787 0.20133 0.88809 0.0
O610 O 0.66415 0.07031 0.81032 0.0
C611 C 0.66365 0.13749 0.86229 0.0
Co612 Co 0.43542 0.10584 0.31476 0.0
Co613 Co 0.45687 0.16324 0.3117 0.0
C614 C 0.45508 0.13609 0.21618 0.0
O615 O 0.44663 0.11636 0.24331 0.0
O616 O 0.45867 0.15674 0.23569 0.0
C617 C 0.39722 0.0582 0.28477 0.0
O618 O 0.38883 0.07116 0.26019 0.0
C619 C 0.46614 0.21596 0.30181 0.0
C620 C 0.48632 0.2317 0.37472 0.0
C621 C 0.47722 0.23772 0.33175 0.0
N622 N 0.46843 0.19798 0.32664 0.0
N623 N 0.48072 0.20771 0.36989 0.0
C624 C 0.45492 0.21259 0.24948 0.0
H625 H 0.46097 0.20182 0.22508 0.0
H626 H 0.43415 0.20152 0.25218 0.0
H627 H 0.46057 0.23097 0.23138 0.0
C628 C 0.39277 0.10666 0.36665 0.0
N629 N 0.41511 0.1182 0.34231 0.0
N630 N 0.42352 0.14249 0.34061 0.0
C631 C 0.40635 0.14703 0.36348 0.0
C632 C 0.38608 0.12433 0.38019 0.0
C633 C 0.37912 0.07956 0.38186 0.0
H634 H 0.39254 0.07274 0.38791 0.0
H635 H 0.36562 0.06831 0.35121 0.0
H636 H 0.3683 0.07674 0.41762 0.0
O637 O 0.46537 0.11573 0.35615 0.0
O638 O 0.48263 0.15677 0.34644 0.0
H639 H 0.4259 0.18411 0.39461 0.0
H640 H 0.39242 0.17158 0.38679 0.0
C641 C 0.4094 0.17256 0.36972 0.0
H642 H 0.41307 0.18185 0.33188 0.0
H643 H 0.48493 0.19778 0.39668 0.0
O644 O 0.41685 0.06943 0.31214 0.0
C645 C 0.48378 0.13778 0.36259 0.0
Co646 Co 0.90798 0.33007 0.31661 0.0
Co647 Co 0.85037 0.29626 0.31599 0.0
C648 C 0.87808 0.31894 0.21842 0.0
O649 O 0.89822 0.32874 0.24452 0.0
O650 O 0.85688 0.30463 0.23965 0.0
C651 C 0.95444 0.33817 0.28561 0.0
O652 O 0.94069 0.31711 0.26043 0.0
C653 C 0.79807 0.25247 0.30629 0.0
C654 C 0.77971 0.26136 0.36898 0.0
C655 C 0.77514 0.24384 0.33108 0.0
N656 N 0.81524 0.2741 0.32869 0.0
N657 N 0.804 0.27926 0.36593 0.0
C658 C 0.80334 0.24101 0.2609 0.0
H659 H 0.82012 0.25536 0.24009 0.0
H660 H 0.80714 0.22608 0.27382 0.0
H661 H 0.7868 0.23233 0.23491 0.0
C662 C 0.90626 0.28749 0.37255 0.0
N663 N 0.89489 0.29825 0.34739 0.0
N664 N 0.87042 0.28293 0.34697 0.0
C665 C 0.86563 0.26164 0.37218 0.0
C666 C 0.88832 0.26376 0.3884 0.0
C667 C 0.93373 0.3003 0.38507 0.0
H668 H 0.94122 0.32063 0.39154 0.0
H669 H 0.94391 0.29771 0.35281 0.0
H670 H 0.93724 0.29212 0.41984 0.0
O671 O 0.8991 0.3521 0.35351 0.0
O672 O 0.85773 0.32879 0.3498 0.0
H673 H 0.82722 0.24678 0.3942 0.0
H674 H 0.84042 0.22716 0.41123 0.0
C675 C 0.83996 0.23992 0.38175 0.0
H676 H 0.83247 0.22924 0.34564 0.0
H677 H 0.81302 0.29488 0.38992 0.0
O678 O 0.94405 0.34681 0.3145 0.0
C679 C 0.8775 0.34916 0.36231 0.0
Co680 Co 0.6853 0.58099 0.32321 0.0
Co681 Co 0.71865 0.55639 0.322 0.0
C682 C 0.69466 0.5611 0.22474 0.0
O683 O 0.68517 0.57162 0.25109 0.0
O684 O 0.70932 0.55446 0.2456 0.0
C685 C 0.6729 0.61618 0.28843 0.0
O686 O 0.68764 0.61786 0.2505 0.0
C687 C 0.76476 0.5518 0.31462 0.0
C688 C 0.75539 0.52149 0.37063 0.0
C689 C 0.77424 0.53795 0.3383 0.0
N690 N 0.7415 0.54397 0.33288 0.0
N691 N 0.73602 0.52569 0.36592 0.0
C692 C 0.77663 0.57086 0.27301 0.0
H693 H 0.77374 0.587 0.28028 0.0
H694 H 0.79689 0.57727 0.2688 0.0
H695 H 0.76703 0.56221 0.23632 0.0
C696 C 0.72898 0.62214 0.3756 0.0
N697 N 0.71783 0.59975 0.35137 0.0
N698 N 0.73254 0.58994 0.35291 0.0
C699 C 0.75362 0.60606 0.37961 0.0
C700 C 0.75219 0.62724 0.39382 0.0
C701 C 0.71668 0.63747 0.38535 0.0
H702 H 0.6978 0.62529 0.4019 0.0
H703 H 0.71456 0.64524 0.34862 0.0
H704 H 0.72778 0.65331 0.412 0.0
O705 O 0.66385 0.55015 0.36147 0.0
O706 O 0.68635 0.53126 0.35697 0.0
H707 H 0.76584 0.58051 0.4036 0.0
H708 H 0.78429 0.61203 0.42907 0.0
C709 C 0.77392 0.60073 0.39503 0.0
H710 H 0.78745 0.60585 0.36313 0.0
H711 H 0.71923 0.51643 0.38631 0.0
O712 O 0.66903 0.60111 0.32487 0.0
C713 C 0.66635 0.53121 0.37024 0.0
Co714 Co 0.44125 0.09998 0.90492 0.0
Co715 Co 0.49815 0.12016 0.90798 0.0
C716 C 0.47199 0.11903 1.00353 0.0
O717 O 0.45232 0.11132 0.97631 0.0
O718 O 0.49225 0.12166 0.98421 0.0
C719 C 0.39558 0.06102 0.93656 0.0
O720 O 0.41024 0.054 0.95892 0.0
C721 C 0.55028 0.12796 0.9157 0.0
C722 C 0.56815 0.15467 0.85199 0.0
C723 C 0.57299 0.14202 0.89005 0.0
N724 N 0.53296 0.1323 0.89366 0.0
N725 N 0.54391 0.14834 0.85576 0.0
C726 C 0.54545 0.11174 0.96172 0.0
H727 H 0.52817 0.10849 0.98165 0.0
H728 H 0.54289 0.09332 0.94972 0.0
H729 H 0.56179 0.12057 0.98822 0.0
C730 C 0.44083 0.05752 0.84989 0.0
N731 N 0.45301 0.07955 0.8754 0.0
N732 N 0.47713 0.08706 0.87755 0.0
C733 C 0.48081 0.06941 0.8541 0.0
C734 C 0.45774 0.04984 0.83657 0.0
C735 C 0.41389 0.04513 0.83326 0.0
H736 H 0.4078 0.0592 0.82876 0.0
H737 H 0.40198 0.03106 0.86222 0.0
H738 H 0.41113 0.03508 0.79635 0.0
O739 O 0.4506 0.12977 0.8643 0.0
O740 O 0.49154 0.1463 0.87523 0.0
H741 H 0.51977 0.09007 0.83424 0.0
H742 H 0.50481 0.05659 0.822 0.0
C743 C 0.50582 0.07118 0.8485 0.0
H744 H 0.51217 0.06859 0.88658 0.0
H745 H 0.53474 0.15488 0.83203 0.0
O746 O 0.4051 0.08083 0.90981 0.0
C747 C 0.47282 0.14802 0.85915 0.0
Co748 Co 0.91487 0.34556 0.90691 0.0
Co749 Co 0.89264 0.38075 0.91249 0.0
C750 C 0.89637 0.35547 1.00712 0.0
O751 O 0.90608 0.34559 0.97945 0.0
O752 O 0.89043 0.37091 0.98782 0.0
C753 C 0.95302 0.33636 0.93478 0.0
O754 O 0.96095 0.35743 0.96025 0.0
C755 C 0.88482 0.42456 0.92876 0.0
C756 C 0.86239 0.42095 0.85972 0.0
C757 C 0.87317 0.43575 0.90264 0.0
N758 N 0.88123 0.40429 0.9019 0.0
N759 N 0.86763 0.40222 0.86097 0.0
C760 C 0.89781 0.43193 0.97962 0.0
H761 H 0.89203 0.41493 1.00322 0.0
H762 H 0.9184 0.44106 0.97396 0.0
H763 H 0.89336 0.44501 1.00023 0.0
C764 C 0.95658 0.38894 0.854 0.0
N765 N 0.93445 0.37802 0.87905 0.0
N766 N 0.92597 0.39382 0.88212 0.0
C767 C 0.94294 0.41562 0.85913 0.0
C768 C 0.9631 0.41328 0.84123 0.0
C769 C 0.97039 0.37573 0.83809 0.0
H770 H 0.95706 0.35554 0.83122 0.0
H771 H 0.9838 0.37776 0.86874 0.0
H772 H 0.98135 0.3841 0.80263 0.0
O773 O 0.88388 0.32518 0.86836 0.0
O774 O 0.8668 0.34921 0.87629 0.0
H775 H 0.92187 0.43247 0.83282 0.0
H776 H 0.95562 0.45331 0.83218 0.0
C777 C 0.93971 0.43801 0.8534 0.0
H778 H 0.93843 0.44492 0.89183 0.0
H779 H 0.86222 0.38817 0.83335 0.0
O780 O 0.93354 0.32794 0.90699 0.0
C781 C 0.86558 0.3289 0.8611 0.0
Co782 Co 0.66791 0.5727 0.91408 0.0
Co783 Co 0.63393 0.51511 0.9155 0.0
C784 C 0.65789 0.54322 1.01265 0.0
O785 O 0.66742 0.56321 0.98625 0.0
O786 O 0.64317 0.52195 0.99178 0.0
C787 C 0.67704 0.62 0.94354 0.0
O788 O 0.65615 0.60687 0.96943 0.0
C789 C 0.58976 0.46321 0.92596 0.0
C790 C 0.596 0.44516 0.85878 0.0
C791 C 0.5795 0.4407 0.89863 0.0
N792 N 0.61112 0.48013 0.9026 0.0
N793 N 0.61477 0.46905 0.86284 0.0
C794 C 0.58043 0.46829 0.97485 0.0
H795 H 0.59649 0.47927 1.00114 0.0
H796 H 0.5716 0.47983 0.96683 0.0
H797 H 0.56654 0.45054 0.99365 0.0
C798 C 0.62486 0.57073 0.85858 0.0
N799 N 0.63568 0.5596 0.88446 0.0
N800 N 0.62041 0.53516 0.88521 0.0
C801 C 0.59906 0.53012 0.85963 0.0
C802 C 0.60109 0.55264 0.84267 0.0
C803 C 0.63774 0.59807 0.84533 0.0
H804 H 0.63569 0.60861 0.87763 0.0
H805 H 0.62928 0.60148 0.81087 0.0
H806 H 0.65798 0.6053 0.83824 0.0
O807 O 0.68919 0.56319 0.87596 0.0
O808 O 0.66596 0.52188 0.8803 0.0
H809 H 0.58525 0.49279 0.83151 0.0
H810 H 0.56396 0.5048 0.82197 0.0
C811 C 0.57783 0.5043 0.84851 0.0
H812 H 0.5683 0.4953 0.8848 0.0
H813 H 0.62987 0.47799 0.83768 0.0
O814 O 0.68517 0.60893 0.9152 0.0
C815 C 0.68617 0.54157 0.86696 0.0
Co816 Co 0.5819 0.90563 0.74548 0.0
Co817 Co 0.55895 0.84807 0.745 0.0
C818 C 0.56113 0.8747 0.84215 0.0
O819 O 0.57037 0.89484 0.81631 0.0
O820 O 0.557 0.85414 0.82135 0.0
C821 C 0.62097 0.95231 0.77696 0.0
O822 O 0.62849 0.93854 0.80128 0.0
C823 C 0.55159 0.79614 0.75268 0.0
C824 C 0.52308 0.77721 0.69202 0.0
C825 C 0.5371 0.77309 0.72821 0.0
N826 N 0.54626 0.81297 0.73168 0.0
N827 N 0.52911 0.80138 0.69566 0.0
C828 C 0.56912 0.80176 0.79694 0.0
H829 H 0.57255 0.81913 0.81689 0.0
H830 H 0.58735 0.80456 0.78303 0.0
H831 H 0.56125 0.78572 0.824 0.0
C832 C 0.62329 0.90431 0.69004 0.0
N833 N 0.60148 0.89283 0.71628 0.0
N834 N 0.59241 0.86839 0.71565 0.0
C835 C 0.60864 0.86374 0.68904 0.0
C836 C 0.62899 0.88647 0.67281 0.0
C837 C 0.63728 0.93167 0.67677 0.0
H838 H 0.62404 0.93875 0.67144 0.0
H839 H 0.65055 0.94223 0.70822 0.0
H840 H 0.64845 0.93522 0.64129 0.0
O841 O 0.55223 0.8969 0.70432 0.0
O842 O 0.53384 0.85558 0.71026 0.0
H843 H 0.58417 0.82615 0.66281 0.0
H844 H 0.61681 0.83897 0.64495 0.0
C845 C 0.60391 0.83813 0.67555 0.0
H846 H 0.60695 0.82948 0.70999 0.0
H847 H 0.52164 0.81005 0.67305 0.0
O848 O 0.60129 0.94188 0.74961 0.0
C849 C 0.53352 0.87527 0.69581 0.0
Co850 Co 0.10726 0.67698 0.7318 0.0
Co851 Co 0.16498 0.71066 0.734 0.0
C852 C 0.13811 0.68316 0.82803 0.0
O853 O 0.11829 0.67386 0.80092 0.0
O854 O 0.15897 0.70015 0.80942 0.0
C855 C 0.06224 0.66634 0.77591 0.0
O856 O 0.07771 0.68176 0.81079 0.0
C857 C 0.21703 0.75426 0.74591 0.0
C858 C 0.23594 0.74665 0.68236 0.0
C859 C 0.24012 0.7635 0.72151 0.0
N860 N 0.20012 0.73297 0.72204 0.0
N861 N 0.21168 0.72854 0.68433 0.0
C862 C 0.21143 0.76465 0.79264 0.0
H863 H 0.19416 0.74999 0.81161 0.0
H864 H 0.20841 0.78033 0.78174 0.0
H865 H 0.22756 0.77212 0.81966 0.0
C866 C 0.10922 0.7218 0.68696 0.0
N867 N 0.12068 0.71024 0.70844 0.0
N868 N 0.14517 0.72524 0.70779 0.0
C869 C 0.14995 0.74705 0.68485 0.0
C870 C 0.12719 0.74569 0.67164 0.0
C871 C 0.08153 0.70933 0.6769 0.0
H872 H 0.07451 0.68999 0.6625 0.0
H873 H 0.07173 0.70829 0.71319 0.0
H874 H 0.07694 0.71982 0.64841 0.0
O875 O 0.11542 0.65683 0.68661 0.0
O876 O 0.15673 0.67878 0.6956 0.0
H877 H 0.18781 0.76134 0.65939 0.0
H878 H 0.17508 0.78178 0.64635 0.0
C879 C 0.17567 0.76849 0.67423 0.0
H880 H 0.184 0.77871 0.71044 0.0
H881 H 0.20293 0.71324 0.65943 0.0
O882 O 0.07099 0.66144 0.73644 0.0
C883 C 0.13697 0.65941 0.67889 0.0
Co884 Co 0.3342 0.43132 0.74862 0.0
Co885 Co 0.29964 0.45423 0.74612 0.0
C886 C 0.32305 0.45164 0.84466 0.0
O887 O 0.3342 0.44238 0.81972 0.0
O888 O 0.30707 0.45611 0.82281 0.0
C889 C 0.34145 0.39214 0.77989 0.0
O890 O 0.31993 0.38448 0.80328 0.0
C891 C 0.25521 0.46181 0.75243 0.0
C892 C 0.26494 0.48997 0.69131 0.0
C893 C 0.24675 0.47623 0.72745 0.0
N894 N 0.27736 0.46692 0.73179 0.0
N895 N 0.28301 0.48386 0.69549 0.0
C896 C 0.2432 0.4445 0.79675 0.0
H897 H 0.2573 0.44182 0.8181 0.0
H898 H 0.22839 0.42594 0.78261 0.0
H899 H 0.23425 0.45205 0.82261 0.0
C900 C 0.29205 0.39011 0.69083 0.0
N901 N 0.30211 0.41181 0.71762 0.0
N902 N 0.2867 0.42082 0.71636 0.0
C903 C 0.26601 0.40461 0.68892 0.0
C904 C 0.2686 0.38438 0.67265 0.0
C905 C 0.30557 0.3762 0.67814 0.0
H906 H 0.32596 0.38946 0.67388 0.0
H907 H 0.30253 0.3628 0.70936 0.0
H908 H 0.29834 0.3652 0.64225 0.0
O909 O 0.35559 0.46113 0.70854 0.0
O910 O 0.33247 0.47937 0.71248 0.0
H911 H 0.25294 0.42898 0.66205 0.0
H912 H 0.23318 0.39631 0.64399 0.0
C913 C 0.24513 0.40928 0.67478 0.0
H914 H 0.23333 0.40632 0.70893 0.0
H915 H 0.29917 0.49114 0.67307 0.0
O916 O 0.35097 0.41197 0.75324 0.0
C917 C 0.35264 0.47973 0.69923 0.0
Co918 Co 0.57316 0.90999 0.15246 0.0
Co919 Co 0.51561 0.88856 0.14985 0.0
C920 C 0.54235 0.89019 0.05428 0.0
O921 O 0.56218 0.89853 0.08121 0.0
O922 O 0.52185 0.88688 0.07376 0.0
C923 C 0.61954 0.94909 0.12134 0.0
O924 O 0.60528 0.95636 0.09815 0.0
C925 C 0.46322 0.88067 0.14201 0.0
C926 C 0.4453 0.85374 0.20532 0.0
C927 C 0.44046 0.86658 0.16766 0.0
N928 N 0.48053 0.87618 0.16372 0.0
N929 N 0.46953 0.85999 0.20138 0.0
C930 C 0.46809 0.89703 0.09621 0.0
H931 H 0.48533 0.90023 0.07615 0.0
H932 H 0.47076 0.91546 0.10845 0.0
H933 H 0.45173 0.88833 0.06975 0.0
C934 C 0.57235 0.95163 0.20837 0.0
N935 N 0.56069 0.92991 0.18166 0.0
N936 N 0.53642 0.92177 0.1798 0.0
C937 C 0.53211 0.93869 0.20459 0.0
C938 C 0.55486 0.95832 0.223 0.0
C939 C 0.59959 0.96504 0.22306 0.0
H940 H 0.60639 0.95153 0.22741 0.0
H941 H 0.61058 0.97883 0.19288 0.0
H942 H 0.60288 0.97556 0.25945 0.0
O943 O 0.56383 0.88016 0.19329 0.0
O944 O 0.52271 0.86301 0.18381 0.0
H945 H 0.49379 0.91636 0.22809 0.0
H946 H 0.50751 0.94967 0.24086 0.0
C947 C 0.50667 0.9355 0.21337 0.0
H948 H 0.49908 0.93766 0.17643 0.0
H949 H 0.47865 0.85334 0.22491 0.0
O950 O 0.60955 0.9293 0.14821 0.0
C951 C 0.54176 0.8618 0.19962 0.0
Co952 Co 0.0953 0.65768 0.11907 0.0
Co953 Co 0.12337 0.62999 0.14777 0.0
C954 C 0.1193 0.64665 0.03687 0.0
O955 O 0.10432 0.65394 0.05085 0.0
O956 O 0.12817 0.63727 0.06906 0.0
C957 C 0.06035 0.67113 0.07895 0.0
O958 O 0.0558 0.6549 0.04199 0.0
C959 C 0.12854 0.58463 0.15137 0.0
C960 C 0.16285 0.59826 0.19841 0.0
C961 C 0.14494 0.5774 0.17185 0.0
N962 N 0.13658 0.60856 0.16515 0.0
N963 N 0.15709 0.61654 0.19321 0.0
C964 C 0.10634 0.56975 0.11729 0.0
H965 H 0.10283 0.58251 0.09306 0.0
H966 H 0.08947 0.5586 0.14126 0.0
H967 H 0.10931 0.55669 0.09285 0.0
C968 C 0.05314 0.61509 0.17092 0.0
N969 N 0.07682 0.62651 0.15316 0.0
N970 N 0.08903 0.61623 0.1734 0.0
C971 C 0.07383 0.59928 0.20903 0.0
C972 C 0.05042 0.59824 0.20951 0.0
C973 C 0.03266 0.61799 0.14641 0.0
H974 H 0.0341 0.61728 0.10423 0.0
H975 H 0.01377 0.60281 0.15814 0.0
H976 H 0.03482 0.63645 0.15666 0.0
O977 O 0.12666 0.68284 0.15512 0.0
O978 O 0.14577 0.66258 0.18194 0.0
H979 H 0.0747 0.58525 0.28391 0.0
H980 H 0.07484 0.56648 0.23135 0.0
C981 C 0.08224 0.58603 0.24495 0.0
H982 H 0.10305 0.59558 0.24638 0.0
H983 H 0.16731 0.6346 0.20876 0.0
O984 O 0.0756 0.67414 0.11462 0.0
C985 C 0.14471 0.68264 0.17866 0.0
Co986 Co 0.34826 0.44019 0.15735 0.0
Co987 Co 0.38362 0.49742 0.15195 0.0
C988 C 0.35731 0.46887 0.05745 0.0
O989 O 0.34623 0.44938 0.08528 0.0
O990 O 0.37451 0.48965 0.07632 0.0
C991 C 0.33505 0.39254 0.12303 0.0
O992 O 0.34955 0.40547 0.08468 0.0
C993 C 0.42857 0.54879 0.14066 0.0
C994 C 0.41956 0.56912 0.19894 0.0
C995 C 0.4375 0.57229 0.16321 0.0
N996 N 0.40636 0.5326 0.16227 0.0
N997 N 0.40115 0.54502 0.19684 0.0
C998 C 0.44025 0.54209 0.09782 0.0
H999 H 0.4262 0.52421 0.07951 0.0
H1000 H 0.45583 0.53978 0.11284 0.0
H1001 H 0.44823 0.55742 0.06909 0.0
C1002 C 0.39198 0.44168 0.20836 0.0
N1003 N 0.3813 0.45317 0.18336 0.0
N1004 N 0.3969 0.47755 0.1828 0.0
C1005 C 0.41816 0.4822 0.2082 0.0
C1006 C 0.41583 0.45949 0.22454 0.0
C1007 C 0.37881 0.41421 0.22031 0.0
H1008 H 0.37581 0.40349 0.18436 0.0
H1009 H 0.38978 0.40935 0.247 0.0
H1010 H 0.36028 0.40857 0.23757 0.0
O1011 O 0.32835 0.45023 0.19863 0.0
O1012 O 0.35163 0.49115 0.18695 0.0
H1013 H 0.4323 0.5206 0.23002 0.0
H1014 H 0.45097 0.50719 0.25256 0.0
C1015 C 0.4395 0.50781 0.2203 0.0
H1016 H 0.45169 0.5153 0.18617 0.0
H1017 H 0.38513 0.53694 0.21973 0.0
O1018 O 0.33143 0.40391 0.1595 0.0
C1019 C 0.33173 0.47221 0.20398 0.0
Co1020 Co 0.10081 0.43766 0.65457 0.0
Co1021 Co 0.12347 0.49508 0.64714 0.0
C1022 C 0.11829 0.46536 0.55315 0.0
O1023 O 0.10902 0.44614 0.58178 0.0
O1024 O 0.12466 0.48698 0.57171 0.0
C1025 C 0.06135 0.39106 0.62779 0.0
O1026 O 0.05391 0.40502 0.60398 0.0
C1027 C 0.13084 0.54646 0.63102 0.0
C1028 C 0.15506 0.56609 0.69761 0.0
C1029 C 0.14299 0.56955 0.65626 0.0
N1030 N 0.13537 0.53018 0.65694 0.0
N1031 N 0.15005 0.54219 0.69634 0.0
C1032 C 0.1165 0.54024 0.5817 0.0
H1033 H 0.12199 0.52914 0.55693 0.0
H1034 H 0.09613 0.52844 0.5895 0.0
H1035 H 0.12001 0.55751 0.56126 0.0
C1036 C 0.06062 0.44046 0.71134 0.0
N1037 N 0.082 0.45116 0.6837 0.0
N1038 N 0.09046 0.47539 0.67928 0.0
C1039 C 0.07407 0.48066 0.70354 0.0
C1040 C 0.05448 0.45856 0.72422 0.0
C1041 C 0.04685 0.41355 0.72786 0.0
H1042 H 0.06009 0.40644 0.73292 0.0
H1043 H 0.03271 0.40217 0.69829 0.0
H1044 H 0.03667 0.41116 0.76429 0.0
O1045 O 0.13207 0.44802 0.69178 0.0
O1046 O 0.14941 0.48912 0.68229 0.0
H1047 H 0.09654 0.51903 0.72657 0.0
H1048 H 0.06304 0.50633 0.73437 0.0
C1049 C 0.07776 0.50645 0.70965 0.0
H1050 H 0.0771 0.51395 0.67149 0.0
H1051 H 0.15629 0.53391 0.72306 0.0
O1052 O 0.08138 0.40136 0.65415 0.0
C1053 C 0.1506 0.47006 0.69785 0.0
Co1054 Co 0.5742 0.66497 0.65318 0.0
Co1055 Co 0.51676 0.63013 0.65172 0.0
C1056 C 0.54418 0.6535 0.55448 0.0
O1057 O 0.56423 0.66368 0.58096 0.0
O1058 O 0.52303 0.63859 0.57533 0.0
C1059 C 0.6211 0.67378 0.62275 0.0
O1060 O 0.60768 0.65245 0.59822 0.0
C1061 C 0.4648 0.58595 0.64171 0.0
C1062 C 0.44748 0.59169 0.71066 0.0
C1063 C 0.44259 0.57551 0.66986 0.0
N1064 N 0.48198 0.60712 0.66549 0.0
N1065 N 0.47134 0.61047 0.70633 0.0
C1066 C 0.46931 0.57699 0.59172 0.0
H1067 H 0.47984 0.59319 0.56575 0.0
H1068 H 0.48107 0.56826 0.59811 0.0
H1069 H 0.45134 0.56312 0.57333 0.0
C1070 C 0.57332 0.62236 0.7081 0.0
N1071 N 0.56172 0.63299 0.68326 0.0
N1072 N 0.53735 0.61729 0.68216 0.0
C1073 C 0.53284 0.59586 0.70645 0.0
C1074 C 0.55564 0.59829 0.72294 0.0
C1075 C 0.6007 0.63558 0.72154 0.0
H1076 H 0.60786 0.65587 0.72769 0.0
H1077 H 0.61128 0.63311 0.68991 0.0
H1078 H 0.60406 0.62757 0.75675 0.0
O1079 O 0.56458 0.68632 0.69104 0.0
O1080 O 0.52333 0.66234 0.68593 0.0
H1081 H 0.49497 0.5799 0.73271 0.0
H1082 H 0.5081 0.55941 0.73933 0.0
C1083 C 0.50728 0.57369 0.71473 0.0
H1084 H 0.49895 0.56509 0.67722 0.0
H1085 H 0.48055 0.6254 0.73197 0.0
O1086 O 0.61039 0.68238 0.65086 0.0
C1087 C 0.54273 0.68285 0.69932 0.0
Co1088 Co 0.34542 0.90767 0.65084 0.0
Co1089 Co 0.38198 0.88722 0.64816 0.0
C1090 C 0.3555 0.88711 0.553 0.0
O1091 O 0.34379 0.89506 0.58013 0.0
O1092 O 0.37353 0.88496 0.57202 0.0
C1093 C 0.3333 0.94149 0.61001 0.0
O1094 O 0.34903 0.94261 0.57476 0.0
C1095 C 0.42674 0.88046 0.6388 0.0
C1096 C 0.42113 0.85704 0.70709 0.0
C1097 C 0.43736 0.86876 0.66671 0.0
N1098 N 0.40541 0.87601 0.6623 0.0
N1099 N 0.40214 0.86182 0.70277 0.0
C1100 C 0.4357 0.89434 0.58929 0.0
H1101 H 0.41949 0.88882 0.56319 0.0
H1102 H 0.44439 0.91478 0.59646 0.0
H1103 H 0.44962 0.89046 0.57066 0.0
C1104 C 0.38825 0.95087 0.70196 0.0
N1105 N 0.37819 0.92862 0.67728 0.0
N1106 N 0.39432 0.92053 0.67727 0.0
C1107 C 0.41541 0.93772 0.70233 0.0
C1108 C 0.41231 0.95771 0.71839 0.0
C1109 C 0.37444 0.9647 0.71252 0.0
H1110 H 0.37241 0.97291 0.67631 0.0
H1111 H 0.38452 0.98016 0.74052 0.0
H1112 H 0.35541 0.95147 0.72732 0.0
O1113 O 0.32582 0.87833 0.69369 0.0
O1114 O 0.34983 0.86139 0.68257 0.0
H1115 H 0.43052 0.9158 0.73296 0.0
H1116 H 0.45106 0.94943 0.73958 0.0
C1117 C 0.43727 0.93425 0.71425 0.0
H1118 H 0.44665 0.93426 0.67809 0.0
H1119 H 0.38712 0.85573 0.72809 0.0
O1120 O 0.32851 0.92703 0.64805 0.0
C1121 C 0.32968 0.86003 0.6993 0.0
Co1122 Co 0.10838 0.43081 0.24107 0.0
Co1123 Co 0.16591 0.45433 0.24539 0.0
C1124 C 0.13708 0.4478 0.34145 0.0
O1125 O 0.11753 0.43844 0.31358 0.0
O1126 O 0.15862 0.45478 0.32178 0.0
C1127 C 0.06196 0.39169 0.26957 0.0
O1128 O 0.07571 0.38379 0.2927 0.0
C1129 C 0.21835 0.46304 0.2557 0.0
C1130 C 0.2367 0.49036 0.19319 0.0
C1131 C 0.2413 0.47741 0.231 0.0
N1132 N 0.20114 0.46745 0.2333 0.0
N1133 N 0.21239 0.4839 0.19618 0.0
C1134 C 0.2131 0.44633 0.30108 0.0
H1135 H 0.19614 0.44364 0.32156 0.0
H1136 H 0.20965 0.4277 0.28822 0.0
H1137 H 0.22954 0.4544 0.32735 0.0
C1138 C 0.11067 0.3906 0.18372 0.0
N1139 N 0.12177 0.41245 0.20991 0.0
N1140 N 0.14617 0.42135 0.2122 0.0
C1141 C 0.15118 0.40489 0.18734 0.0
C1142 C 0.12867 0.38464 0.16929 0.0
C1143 C 0.08348 0.37642 0.16875 0.0
H1144 H 0.07611 0.38944 0.1637 0.0
H1145 H 0.07263 0.36259 0.19903 0.0
H1146 H 0.08076 0.3659 0.13251 0.0
O1147 O 0.11758 0.46209 0.20583 0.0
O1148 O 0.15883 0.4802 0.21352 0.0
H1149 H 0.18996 0.42798 0.16764 0.0
H1150 H 0.17677 0.395 0.15193 0.0
C1151 C 0.17688 0.4085 0.1803 0.0
H1152 H 0.18369 0.40553 0.21748 0.0
H1153 H 0.20336 0.49049 0.17223 0.0
O1154 O 0.0723 0.41136 0.24249 0.0
C1155 C 0.13931 0.48102 0.19985 0.0
Co1156 Co 0.58228 0.67954 0.24368 0.0
Co1157 Co 0.55861 0.71361 0.24567 0.0
C1158 C 0.56191 0.68899 0.34208 0.0
O1159 O 0.57198 0.67916 0.31533 0.0
O1160 O 0.55603 0.70431 0.32182 0.0
C1161 C 0.61798 0.66915 0.28186 0.0
O1162 O 0.61986 0.68543 0.31668 0.0
C1163 C 0.54997 0.75737 0.25495 0.0
C1164 C 0.52336 0.74871 0.19082 0.0
C1165 C 0.53594 0.76609 0.22922 0.0
N1166 N 0.5457 0.73581 0.2326 0.0
N1167 N 0.52969 0.73081 0.19448 0.0
C1168 C 0.56624 0.76866 0.30117 0.0
H1169 H 0.56878 0.75432 0.32182 0.0
H1170 H 0.58498 0.78398 0.28927 0.0
H1171 H 0.55785 0.77683 0.32697 0.0
C1172 C 0.62397 0.72318 0.19268 0.0
N1173 N 0.60151 0.71212 0.21641 0.0
N1174 N 0.59224 0.7273 0.2163 0.0
C1175 C 0.60883 0.7487 0.19152 0.0
C1176 C 0.62972 0.74688 0.17652 0.0
C1177 C 0.6388 0.71044 0.18158 0.0
H1178 H 0.62602 0.69089 0.16877 0.0
H1179 H 0.64854 0.71001 0.21701 0.0
H1180 H 0.65311 0.7204 0.15149 0.0
O1181 O 0.55207 0.65833 0.20308 0.0
O1182 O 0.53404 0.68155 0.20974 0.0
H1183 H 0.58524 0.76288 0.16566 0.0
H1184 H 0.61844 0.78347 0.15314 0.0
C1185 C 0.60452 0.7701 0.18084 0.0
H1186 H 0.60624 0.7802 0.2171 0.0
H1187 H 0.52336 0.71533 0.17021 0.0
O1188 O 0.60265 0.66365 0.245 0.0
C1189 C 0.5335 0.66154 0.19481 0.0
Co1190 Co 0.33301 0.90291 0.24397 0.0
Co1191 Co 0.29649 0.84555 0.24299 0.0
C1192 C 0.32113 0.87111 0.3405 0.0
O1193 O 0.33284 0.89117 0.31457 0.0
O1194 O 0.30398 0.85085 0.31975 0.0
C1195 C 0.34298 0.95017 0.27777 0.0
O1196 O 0.32159 0.93696 0.30202 0.0
C1197 C 0.25003 0.7945 0.24511 0.0
C1198 C 0.2568 0.77812 0.17588 0.0
C1199 C 0.23935 0.77334 0.21382 0.0
N1200 N 0.27283 0.81108 0.22622 0.0
N1201 N 0.2768 0.80086 0.18534 0.0
C1202 C 0.23803 0.79952 0.28978 0.0
H1203 H 0.24865 0.81968 0.30059 0.0
H1204 H 0.21823 0.79378 0.28056 0.0
H1205 H 0.23784 0.78806 0.32275 0.0
C1206 C 0.29077 0.90348 0.18947 0.0
N1207 N 0.30076 0.89135 0.21465 0.0
N1208 N 0.28469 0.86706 0.2141 0.0
C1209 C 0.26372 0.86316 0.18861 0.0
C1210 C 0.2668 0.8862 0.17286 0.0
C1211 C 0.30456 0.93098 0.17761 0.0
H1212 H 0.30249 0.94137 0.21018 0.0
H1213 H 0.29677 0.93512 0.14299 0.0
H1214 H 0.32478 0.93771 0.17154 0.0
O1215 O 0.35331 0.89334 0.20285 0.0
O1216 O 0.32919 0.85217 0.20984 0.0
H1217 H 0.24836 0.8259 0.15883 0.0
H1218 H 0.22837 0.83942 0.15015 0.0
C1219 C 0.24175 0.83793 0.17653 0.0
H1220 H 0.23184 0.82893 0.21251 0.0
H1221 H 0.29278 0.80989 0.16244 0.0
O1222 O 0.35115 0.93924 0.24907 0.0
C1223 C 0.34964 0.87136 0.19541 0.0
C1224 C 0.18677 0.03829 0.04352 0.0
C1225 C 0.20989 0.03872 0.04431 0.0
C1226 C 0.18564 0.06031 0.05048 0.0
C1227 C 0.20748 0.08358 0.05925 0.0
H1228 H 0.16953 0.02112 0.03444 0.0
H1229 H 0.16761 0.05932 0.04666 0.0
S1230 S 0.27247 0.09479 0.06964 0.0
N1231 N 0.25502 0.06432 0.0592 0.0
N1232 N 0.25275 0.1056 0.07082 0.0
C1233 C 0.23051 0.08409 0.06337 0.0
C1234 C 0.23173 0.06168 0.05638 0.0
C1235 C 0.95258 0.12734 0.05187 0.0
C1236 C 0.92998 0.12661 0.06457 0.0
C1237 C 0.97508 0.15021 0.0458 0.0
C1238 C 0.97582 0.17333 0.05143 0.0
H1239 H 0.95262 0.11006 0.04411 0.0
H1240 H 0.99158 0.14965 0.03331 0.0
S1241 S 0.92208 0.18164 0.08892 0.0
N1242 N 0.91 0.15094 0.0855 0.0
N1243 N 0.95219 0.19388 0.0755 0.0
C1244 C 0.95364 0.17279 0.06767 0.0
C1245 C 0.93074 0.14946 0.07379 0.0
C1246 C 0.84332 0.78732 0.06491 0.0
C1247 C 0.84156 0.80888 0.05421 0.0
C1248 C 0.86662 0.7888 0.0726 0.0
C1249 C 0.88913 0.81193 0.07034 0.0
H1250 H 0.8267 0.76885 0.06436 0.0
H1251 H 0.86696 0.77148 0.07657 0.0
S1252 S 0.89498 0.87443 0.052 0.0
N1253 N 0.8645 0.85448 0.04799 0.0
N1254 N 0.90818 0.85716 0.06265 0.0
C1255 C 0.88759 0.8338 0.06361 0.0
C1256 C 0.86387 0.83233 0.05573 0.0
C1257 C 0.06388 0.22597 0.49614 0.0
C1258 C 0.04074 0.20427 0.50743 0.0
C1259 C 0.08593 0.22486 0.48911 0.0
C1260 C 0.08573 0.20199 0.49278 0.0
H1261 H 0.0654 0.24429 0.49577 0.0
H1262 H 0.10346 0.2423 0.48464 0.0
S1263 S 0.02971 0.13918 0.51274 0.0
N1264 N 0.01869 0.15872 0.51528 0.0
N1265 N 0.06015 0.15679 0.50216 0.0
C1266 C 0.0625 0.17994 0.49996 0.0
C1267 C 0.04 0.18101 0.50702 0.0
C1268 C 0.82983 0.86096 0.51443 0.0
C1269 C 0.80694 0.83814 0.51061 0.0
C1270 C 0.83082 0.8841 0.50825 0.0
C1271 C 0.80908 0.88539 0.49725 0.0
H1272 H 0.84691 0.86112 0.52543 0.0
H1273 H 0.84858 0.90118 0.51454 0.0
S1274 S 0.74485 0.83131 0.47828 0.0
N1275 N 0.76228 0.81844 0.49025 0.0
N1276 N 0.76425 0.86192 0.48004 0.0
C1277 C 0.7864 0.86281 0.48991 0.0
C1278 C 0.78532 0.8392 0.49612 0.0
C1279 C 0.13189 0.95211 0.4918 0.0
C1280 C 0.13017 0.92861 0.4853 0.0
C1281 C 0.15516 0.97407 0.49837 0.0
C1282 C 0.1777 0.97337 0.49941 0.0
H1283 H 0.11496 0.95335 0.49467 0.0
H1284 H 0.15523 0.99141 0.50605 0.0
S1285 S 0.18352 0.91667 0.47865 0.0
N1286 N 0.15302 0.9061 0.47649 0.0
N1287 N 0.19684 0.94727 0.48752 0.0
C1288 C 0.17634 0.95018 0.48882 0.0
C1289 C 0.15256 0.92781 0.4822 0.0
C1290 C 0.78859 0.92968 0.99023 0.0
C1291 C 0.81163 0.93021 0.99423 0.0
C1292 C 0.78717 0.95154 0.99704 0.0
C1293 C 0.80871 0.97482 1.00852 0.0
H1294 H 0.77126 0.91203 0.98571 0.0
H1295 H 0.76873 0.94976 0.99645 0.0
S1296 S 0.87417 0.98676 1.01432 0.0
N1297 N 0.85686 0.95628 1.00377 0.0
N1298 N 0.85431 0.99741 1.01663 0.0
C1299 C 0.83215 0.97591 1.00829 0.0
C1300 C 0.83355 0.9536 1.00138 0.0
C1301 C 0.06266 0.8844 1.00723 0.0
C1302 C 0.08569 0.88559 0.99698 0.0
C1303 C 0.04059 0.86136 1.01528 0.0
C1304 C 0.04074 0.83855 1.01417 0.0
H1305 H 0.06191 0.90154 1.0113 0.0
H1306 H 0.02365 0.86164 1.0253 0.0
S1307 S 0.0961 0.83141 0.98559 0.0
N1308 N 0.10716 0.86198 0.98394 0.0
N1309 N 0.06582 0.81867 0.99776 0.0
C1310 C 0.06345 0.83944 1.00088 0.0
C1311 C 0.08589 0.86295 0.9927 0.0
C1312 C 0.13127 0.18216 1.00294 0.0
C1313 C 0.12966 0.20385 0.99405 0.0
C1314 C 0.15458 0.18339 1.00854 0.0
C1315 C 0.17726 0.20649 1.00622 0.0
H1316 H 0.11431 0.16419 1.00799 0.0
H1317 H 0.15465 0.16628 1.01793 0.0
S1318 S 0.18325 0.26865 0.97972 0.0
N1319 N 0.15269 0.24893 0.98054 0.0
N1320 N 0.19647 0.25137 0.98959 0.0
C1321 C 0.17588 0.22812 0.99384 0.0
C1322 C 0.1521 0.2268 0.98826 0.0
C1323 C 0.95518 0.79142 0.57277 0.0
C1324 C 0.97774 0.8125 0.5563 0.0
C1325 C 0.93309 0.79247 0.579 0.0
C1326 C 0.93266 0.81471 0.56954 0.0
H1327 H 0.95406 0.77341 0.57784 0.0
H1328 H 0.91594 0.77521 0.5875 0.0
S1329 S 0.98735 0.87637 0.53481 0.0
N1330 N 0.99882 0.85719 0.53727 0.0
N1331 N 0.9573 0.85914 0.54942 0.0
C1332 C 0.95547 0.83645 0.55736 0.0
C1333 C 0.97801 0.8354 0.5509 0.0
C1334 C 0.22888 0.16984 0.55845 0.0
C1335 C 0.20737 0.17202 0.54962 0.0
C1336 C 0.22706 0.14641 0.56591 0.0
C1337 C 0.20365 0.12416 0.56535 0.0
H1338 H 0.24749 0.18621 0.55654 0.0
H1339 H 0.24427 0.14573 0.5684 0.0
S1340 S 0.14134 0.11952 0.55257 0.0
N1341 N 0.16165 0.14982 0.54714 0.0
N1342 N 0.15834 0.10589 0.56148 0.0
C1343 C 0.18191 0.12616 0.56058 0.0
C1344 C 0.18373 0.15002 0.55287 0.0
C1345 C 0.88604 0.05984 0.55468 0.0
C1346 C 0.88782 0.08308 0.56553 0.0
C1347 C 0.86265 0.03792 0.54856 0.0
C1348 C 0.84007 0.03843 0.55235 0.0
H1349 H 0.90292 0.05882 0.5484 0.0
H1350 H 0.86242 0.02082 0.53758 0.0
S1351 S 0.83453 0.09439 0.58439 0.0
N1352 N 0.86505 0.10511 0.58251 0.0
N1353 N 0.82113 0.06401 0.57265 0.0
C1354 C 0.84163 0.06131 0.56677 0.0
C1355 C 0.86548 0.08363 0.57282 0.0
C1356 C 0.89745 0.39516 0.38151 0.0
C1357 C 0.8757 0.37116 0.38056 0.0
C1358 C 0.89604 0.41695 0.3896 0.0
C1359 C 0.87286 0.41569 0.3977 0.0
H1360 H 0.91571 0.39738 0.3732 0.0
H1361 H 0.91312 0.4349 0.38634 0.0
S1362 S 0.81069 0.35751 0.40624 0.0
N1363 N 0.83047 0.34747 0.39355 0.0
N1364 N 0.82791 0.3884 0.40938 0.0
C1365 C 0.85115 0.39179 0.40003 0.0
C1366 C 0.85254 0.36957 0.39152 0.0
C1367 C 0.64362 0.48449 0.3832 0.0
C1368 C 0.64403 0.50749 0.38825 0.0
C1369 C 0.6212 0.46146 0.38841 0.0
C1370 C 0.59832 0.4604 0.39969 0.0
H1371 H 0.6604 0.48415 0.37196 0.0
H1372 H 0.62158 0.44431 0.38121 0.0
S1373 S 0.58934 0.51494 0.42182 0.0
N1374 N 0.61964 0.52753 0.40996 0.0
N1375 N 0.57764 0.48429 0.41856 0.0
C1376 C 0.59867 0.48311 0.4082 0.0
C1377 C 0.62149 0.50662 0.40288 0.0
C1378 C 0.50943 0.11915 0.39459 0.0
C1379 C 0.50799 0.1407 0.3818 0.0
C1380 C 0.53262 0.1203 0.40171 0.0
C1381 C 0.55532 0.14306 0.39667 0.0
H1382 H 0.49259 0.10087 0.39609 0.0
H1383 H 0.53266 0.10291 0.40734 0.0
S1384 S 0.56219 0.20561 0.3725 0.0
N1385 N 0.53156 0.18609 0.37102 0.0
N1386 N 0.57502 0.18812 0.38441 0.0
C1387 C 0.55417 0.16504 0.38801 0.0
C1388 C 0.53057 0.16392 0.38082 0.0
C1389 C 0.70719 0.51625 0.85036 0.0
C1390 C 0.708 0.53952 0.84828 0.0
C1391 C 0.72903 0.51465 0.84444 0.0
C1392 C 0.7525 0.53615 0.83543 0.0
H1393 H 0.68988 0.49927 0.85979 0.0
H1394 H 0.72774 0.49656 0.84945 0.0
S1395 S 0.76469 0.60128 0.82142 0.0
N1396 N 0.73417 0.58435 0.83169 0.0
N1397 N 0.77509 0.58122 0.82185 0.0
C1398 C 0.75338 0.55927 0.82978 0.0
C1399 C 0.73115 0.56097 0.83577 0.0
C1400 C 0.45502 0.17476 0.82974 0.0
C1401 C 0.47629 0.17263 0.8416 0.0
C1402 C 0.45677 0.19824 0.82379 0.0
C1403 C 0.47989 0.22059 0.82903 0.0
H1404 H 0.43651 0.15822 0.82795 0.0
H1405 H 0.43958 0.19876 0.81869 0.0
S1406 S 0.54187 0.22566 0.85164 0.0
N1407 N 0.52175 0.19518 0.85229 0.0
N1408 N 0.52494 0.23922 0.84087 0.0
C1409 C 0.50156 0.21877 0.83705 0.0
C1410 C 0.49982 0.19486 0.84314 0.0
C1411 C 0.83975 0.28439 0.83048 0.0
C1412 C 0.84136 0.30759 0.842 0.0
C1413 C 0.8165 0.26244 0.82334 0.0
C1414 C 0.79389 0.26278 0.82707 0.0
H1415 H 0.85649 0.28275 0.82994 0.0
H1416 H 0.81631 0.24488 0.81863 0.0
S1417 S 0.78754 0.31901 0.84779 0.0
N1418 N 0.8181 0.32985 0.85034 0.0
N1419 N 0.77451 0.28858 0.83685 0.0
C1420 C 0.79523 0.28607 0.83455 0.0
C1421 C 0.81891 0.30847 0.84178 0.0
C1422 C 0.49882 0.28434 0.34065 0.0
C1423 C 0.47728 0.26177 0.32605 0.0
C1424 C 0.49809 0.30661 0.34744 0.0
C1425 C 0.47563 0.30714 0.34059 0.0
H1426 H 0.51613 0.28449 0.34944 0.0
H1427 H 0.51485 0.32305 0.36145 0.0
S1428 S 0.41445 0.25352 0.29771 0.0
N1429 N 0.43325 0.24168 0.30194 0.0
N1430 N 0.43187 0.28347 0.31307 0.0
C1431 C 0.45439 0.28506 0.32233 0.0
C1432 C 0.45519 0.26239 0.31556 0.0
C1433 C 0.75151 0.19704 0.32125 0.0
C1434 C 0.75125 0.21965 0.32583 0.0
C1435 C 0.72954 0.17382 0.32804 0.0
C1436 C 0.70642 0.17224 0.3401 0.0
H1437 H 0.76904 0.1972 0.31617 0.0
H1438 H 0.73114 0.15707 0.32688 0.0
S1439 S 0.69515 0.22609 0.34797 0.0
N1440 N 0.72555 0.23908 0.33679 0.0
N1441 N 0.68425 0.19553 0.34973 0.0
C1442 C 0.70558 0.1947 0.34066 0.0
C1443 C 0.728 0.21835 0.33372 0.0
C1444 C 0.82544 0.52099 0.34271 0.0
C1445 C 0.84666 0.54339 0.3594 0.0
C1446 C 0.80248 0.51987 0.33247 0.0
C1447 C 0.79981 0.54116 0.3376 0.0
H1448 H 0.82611 0.50377 0.33995 0.0
H1449 H 0.78634 0.50191 0.32253 0.0
S1450 S 0.84957 0.60479 0.37718 0.0
N1451 N 0.86361 0.58789 0.37764 0.0
N1452 N 0.82036 0.58548 0.35893 0.0
C1453 C 0.82107 0.56398 0.35159 0.0
C1454 C 0.84451 0.56518 0.3622 0.0
C1455 C 0.59699 0.11925 0.89945 0.0
C1456 C 0.597 0.142 0.89525 0.0
C1457 C 0.61913 0.11831 0.89265 0.0
C1458 C 0.64215 0.14006 0.881 0.0
H1459 H 0.57955 0.10176 0.90423 0.0
H1460 H 0.61776 0.10007 0.89352 0.0
S1461 S 0.65267 0.20493 0.87405 0.0
N1462 N 0.62227 0.18719 0.88493 0.0
N1463 N 0.66389 0.18555 0.87204 0.0
C1464 C 0.6427 0.16323 0.88078 0.0
C1465 C 0.62012 0.16414 0.88768 0.0
C1466 C 0.85195 0.46123 0.90252 0.0
C1467 C 0.87377 0.45985 0.91181 0.0
C1468 C 0.85284 0.48441 0.89853 0.0
C1469 C 0.87572 0.50722 0.90293 0.0
H1470 H 0.8342 0.44423 0.89554 0.0
H1471 H 0.83571 0.48433 0.88837 0.0
S1472 S 0.93792 0.51377 0.93274 0.0
N1473 N 0.91861 0.48319 0.929 0.0
N1474 N 0.92038 0.52673 0.92298 0.0
C1475 C 0.89737 0.50602 0.91638 0.0
C1476 C 0.89641 0.48235 0.92029 0.0
C1477 C 0.55322 0.39405 0.89443 0.0
C1478 C 0.55479 0.41736 0.90328 0.0
C1479 C 0.53 0.3721 0.8869 0.0
C1480 C 0.50735 0.37261 0.88723 0.0
H1481 H 0.57022 0.39299 0.89085 0.0
H1482 H 0.53001 0.35493 0.87771 0.0
S1483 S 0.50116 0.42879 0.91268 0.0
N1484 N 0.53169 0.43948 0.91452 0.0
N1485 N 0.48802 0.39835 0.90189 0.0
C1486 C 0.50861 0.3956 0.89951 0.0
C1487 C 0.53232 0.41795 0.90704 0.0
C1488 C 0.56205 0.72786 0.72727 0.0
C1489 C 0.54024 0.70447 0.71783 0.0
C1490 C 0.56083 0.74984 0.73438 0.0
C1491 C 0.53776 0.74936 0.73263 0.0
H1492 H 0.58045 0.72956 0.72631 0.0
H1493 H 0.57827 0.7675 0.73758 0.0
S1494 S 0.47481 0.69277 0.71732 0.0
N1495 N 0.49454 0.682 0.71328 0.0
N1496 N 0.4924 0.72332 0.7266 0.0
C1497 C 0.5157 0.72595 0.72701 0.0
C1498 C 0.51688 0.70352 0.71985 0.0
C1499 C 0.28515 0.83357 0.72898 0.0
C1500 C 0.3085 0.83556 0.71738 0.0
C1501 C 0.26326 0.81013 0.73422 0.0
C1502 C 0.26382 0.78773 0.72845 0.0
H1503 H 0.28334 0.85018 0.73084 0.0
H1504 H 0.24557 0.80971 0.73892 0.0
S1505 S 0.32051 0.78225 0.70711 0.0
N1506 N 0.33115 0.81277 0.70713 0.0
N1507 N 0.28997 0.76884 0.717 0.0
C1508 C 0.28726 0.78939 0.72109 0.0
C1509 C 0.30961 0.81324 0.71581 0.0
C1510 C 0.1998 0.45267 0.73455 0.0
C1511 C 0.22239 0.47567 0.7314 0.0
C1512 C 0.17654 0.45133 0.72738 0.0
C1513 C 0.17488 0.47293 0.71636 0.0
H1514 H 0.20002 0.4353 0.73897 0.0
H1515 H 0.15983 0.43293 0.72759 0.0
S1516 S 0.22862 0.53827 0.71187 0.0
N1517 N 0.24168 0.52089 0.72248 0.0
N1518 N 0.19807 0.51849 0.70885 0.0
C1519 C 0.19731 0.4963 0.71693 0.0
C1520 C 0.221 0.49761 0.72424 0.0
C1521 C 0.41638 0.88938 0.15833 0.0
C1522 C 0.41639 0.86664 0.16283 0.0
C1523 C 0.39424 0.89037 0.16509 0.0
C1524 C 0.37117 0.86868 0.17696 0.0
H1525 H 0.43381 0.90685 0.15324 0.0
H1526 H 0.39562 0.90862 0.16389 0.0
S1527 S 0.36066 0.80384 0.18512 0.0
N1528 N 0.39104 0.8215 0.17398 0.0
N1529 N 0.34946 0.82325 0.18675 0.0
C1530 C 0.37064 0.84552 0.17765 0.0
C1531 C 0.39324 0.84457 0.17082 0.0
C1532 C 0.12056 0.53028 0.17442 0.0
C1533 C 0.14373 0.55265 0.17038 0.0
C1534 C 0.11936 0.50707 0.18063 0.0
C1535 C 0.1413 0.50521 0.18376 0.0
H1536 H 0.1032 0.5307 0.17576 0.0
H1537 H 0.101 0.49063 0.18567 0.0
S1538 S 0.20665 0.55805 0.16932 0.0
N1539 N 0.18909 0.57132 0.1652 0.0
N1540 N 0.1869 0.52779 0.1776 0.0
C1541 C 0.16457 0.52733 0.17709 0.0
C1542 C 0.16576 0.55098 0.17048 0.0
C1543 C 0.48449 0.59463 0.1596 0.0
C1544 C 0.46216 0.5956 0.15819 0.0
C1545 C 0.5078 0.61644 0.16751 0.0
C1546 C 0.50967 0.64007 0.17471 0.0
H1547 H 0.4839 0.57676 0.15853 0.0
H1548 H 0.52424 0.6144 0.17121 0.0
S1549 S 0.45684 0.65295 0.16578 0.0
N1550 N 0.4435 0.62227 0.1582 0.0
N1551 N 0.48714 0.66326 0.17305 0.0
C1552 C 0.4876 0.64146 0.16916 0.0
C1553 C 0.4639 0.61923 0.16111 0.0
C1554 C 0.16192 0.63818 0.66051 0.0
C1555 C 0.13867 0.63751 0.65925 0.0
C1556 C 0.16327 0.61618 0.65546 0.0
C1557 C 0.14154 0.59265 0.64824 0.0
H1558 H 0.17909 0.65554 0.66889 0.0
H1559 H 0.18138 0.61742 0.65998 0.0
S1560 S 0.07634 0.58072 0.63618 0.0
N1561 N 0.09358 0.61135 0.64464 0.0
N1562 N 0.09627 0.57014 0.63664 0.0
C1563 C 0.11842 0.59187 0.643 0.0
C1564 C 0.11698 0.61428 0.64798 0.0
C1565 C 0.37401 0.52603 0.68183 0.0
C1566 C 0.3745 0.5034 0.67989 0.0
C1567 C 0.39595 0.54928 0.67482 0.0
C1568 C 0.41919 0.55088 0.66485 0.0
H1569 H 0.35691 0.52598 0.69189 0.0
H1570 H 0.39494 0.56624 0.67963 0.0
S1571 S 0.43045 0.49733 0.65101 0.0
N1572 N 0.40007 0.48414 0.66252 0.0
N1573 N 0.44119 0.52785 0.65079 0.0
C1574 C 0.41972 0.52844 0.6595 0.0
C1575 C 0.39739 0.50471 0.66655 0.0
C1576 C 0.46385 0.84864 0.67116 0.0
C1577 C 0.46208 0.87021 0.66163 0.0
C1578 C 0.48719 0.8501 0.67801 0.0
C1579 C 0.50976 0.87331 0.6763 0.0
H1580 H 0.44694 0.83058 0.67575 0.0
H1581 H 0.48736 0.83308 0.68778 0.0
S1582 S 0.51541 0.93523 0.64855 0.0
N1583 N 0.48489 0.91529 0.64825 0.0
N1584 N 0.52877 0.91817 0.65955 0.0
C1585 C 0.50828 0.89483 0.66332 0.0
C1586 C 0.48445 0.89327 0.6565 0.0
C1587 C 0.2873 0.45343 0.23484 0.0
C1588 C 0.31035 0.47504 0.22266 0.0
C1589 C 0.26521 0.45452 0.24136 0.0
C1590 C 0.26529 0.47729 0.2364 0.0
H1591 H 0.28585 0.43516 0.23629 0.0
H1592 H 0.24775 0.43709 0.24654 0.0
S1593 S 0.32112 0.53995 0.21368 0.0
N1594 N 0.33221 0.52045 0.21238 0.0
N1595 N 0.29073 0.52239 0.22489 0.0
C1596 C 0.28846 0.4993 0.22835 0.0
C1597 C 0.31098 0.49824 0.22165 0.0
C1598 C 0.56033 0.8361 0.23151 0.0
C1599 C 0.53879 0.83761 0.21867 0.0
C1600 C 0.55907 0.81291 0.23888 0.0
C1601 C 0.5362 0.79026 0.23404 0.0
H1602 H 0.57867 0.85288 0.23295 0.0
H1603 H 0.57644 0.81279 0.24462 0.0
S1604 S 0.47369 0.78361 0.20956 0.0
N1605 N 0.49334 0.81418 0.20782 0.0
N1606 N 0.4911 0.77072 0.22176 0.0
C1607 C 0.51426 0.79149 0.22524 0.0
C1608 C 0.5155 0.8151 0.21777 0.0
C1609 C 0.19759 0.75009 0.1716 0.0
C1610 C 0.2133 0.75202 0.21258 0.0
C1611 C 0.17458 0.72806 0.16316 0.0
C1612 C 0.16672 0.70686 0.19464 0.0
H1613 H 0.20361 0.76543 0.14466 0.0
H1614 H 0.16361 0.72715 0.12984 0.0
S1615 S 0.20022 0.70319 0.30968 0.0
N1616 N 0.21871 0.73179 0.28732 0.0
N1617 N 0.17572 0.68993 0.27068 0.0
C1618 C 0.18181 0.70894 0.23706 0.0
C1619 C 0.20505 0.73165 0.24625 0.0
C1620 C 0.23074 0.2017 0.26686 0.0
C1621 C 0.21944 0.20729 0.22611 0.0
C1622 C 0.22724 0.20673 0.3179 0.0
C1623 C 0.21184 0.217 0.33038 0.0
H1624 H 0.24335 0.19459 0.25913 0.0
H1625 H 0.23705 0.2029 0.34792 0.0
S1626 S 0.17667 0.23333 0.23748 0.0
N1627 N 0.19153 0.22281 0.20151 0.0
N1628 N 0.18422 0.23128 0.29735 0.0
C1629 C 0.19947 0.22148 0.29005 0.0
C1630 C 0.20352 0.21693 0.23802 0.0
C1631 C 0.78868 0.98889 0.24076 0.0
C1632 C 0.80422 0.01457 0.22854 0.0
C1633 C 0.78508 0.98026 0.29171 0.0
C1634 C 0.79642 0.99707 0.33259 0.0
H1635 H 0.77884 0.97532 0.21061 0.0
H1636 H 0.77239 0.96054 0.29925 0.0
S1637 S 0.8396 0.06585 0.3219 0.0
N1638 N 0.83203 0.05636 0.26195 0.0
N1639 N 0.82456 0.04042 0.35762 0.0
C1640 C 0.81249 0.02265 0.32095 0.0
C1641 C 0.81663 0.03133 0.26901 0.0
C1642 C 1.00392 0.81111 0.25741 0.0
C1643 C 0.9947 0.78744 0.23387 0.0
C1644 C 0.01391 0.81575 0.30779 0.0
C1645 C 0.01472 0.79678 0.33674 0.0
H1646 H 1.00417 0.82636 0.23622 0.0
H1647 H 0.02073 0.83419 0.32436 0.0
S1648 S 0.99251 0.7315 0.29236 0.0
N1649 N 0.98696 0.74497 0.24344 0.0
N1650 N 1.00509 0.7533 0.3372 0.0
C1651 C 1.0052 0.773 0.31346 0.0
C1652 C 0.99539 0.76845 0.26241 0.0
C1653 C 0.78915 0.80488 0.74291 0.0
C1654 C 0.80456 0.7946 0.73074 0.0
C1655 C 0.78534 0.80968 0.79392 0.0
C1656 C 0.79624 0.80375 0.83488 0.0
H1657 H 0.77963 0.80894 0.71266 0.0
H1658 H 0.77286 0.81698 0.8014 0.0
S1659 S 0.83881 0.77742 0.82423 0.0
N1660 N 0.83172 0.77987 0.76422 0.0
N1661 N 0.8238 0.78785 0.85997 0.0
C1662 C 0.81212 0.794 0.82327 0.0
C1663 C 0.81652 0.78973 0.77129 0.0
C1664 C 0.23919 0.00657 0.74806 0.0
C1665 C 0.22339 0.01356 0.72259 0.0
C1666 C 0.23407 0.99674 0.7978 0.0
C1667 C 0.2126 0.99289 0.82465 0.0
H1668 H 0.25594 0.00886 0.72948 0.0
H1669 H 0.2473 0.9923 0.81568 0.0
S1670 S 0.16465 0.00751 0.77569 0.0
N1671 N 0.18499 0.01562 0.72822 0.0
N1672 N 0.17523 0.99686 0.82192 0.0
C1673 C 0.19632 0.99942 0.79969 0.0
C1674 C 0.20179 0.00989 0.74885 0.0
C1675 C 0.02605 0.2244 0.73979 0.0
C1676 C 1.00042 0.20862 0.72715 0.0
C1677 C 0.03464 0.22802 0.79087 0.0
C1678 C 0.01782 0.21643 0.83144 0.0
H1679 H 0.03961 0.23439 0.70988 0.0
H1680 H 0.05433 0.24087 0.79877 0.0
S1681 S 0.94913 0.17275 0.81961 0.0
N1682 N 0.95865 0.18044 0.75984 0.0
N1683 N 0.97451 0.18795 0.85575 0.0
C1684 C 0.99229 0.20018 0.81938 0.0
C1685 C 0.98366 0.19603 0.76732 0.0
C1686 C 0.90954 0.54834 0.61516 0.0
C1687 C 0.88975 0.53548 0.5802 0.0
C1688 C 0.90534 0.55421 0.6647 0.0
C1689 C 0.88108 0.54791 0.68189 0.0
H1690 H 0.92873 0.55495 0.60329 0.0
H1691 H 0.9216 0.5645 0.6892 0.0
S1692 S 0.82255 0.51364 0.60496 0.0
N1693 N 0.84483 0.51615 0.56595 0.0
N1694 N 0.83671 0.52708 0.65938 0.0
C1695 C 0.8609 0.53435 0.64765 0.0
C1696 C 0.86528 0.52818 0.59688 0.0
C1697 C 0.45684 0.32219 0.57451 0.0
C1698 C 0.47244 0.34784 0.56215 0.0
C1699 C 0.45306 0.31364 0.62556 0.0
C1700 C 0.46429 0.33049 0.66643 0.0
H1701 H 0.44706 0.30858 0.54438 0.0
H1702 H 0.44035 0.29392 0.63316 0.0
S1703 S 0.50747 0.39925 0.65543 0.0
N1704 N 0.50012 0.38968 0.59548 0.0
N1705 N 0.49233 0.37389 0.69128 0.0
C1706 C 0.48039 0.35605 0.65466 0.0
C1707 C 0.48471 0.36465 0.60263 0.0
C1708 C 0.7006 0.141 0.62266 0.0
C1709 C 0.68395 0.13637 0.66326 0.0
C1710 C 0.69193 0.13601 0.57163 0.0
C1711 C 0.66638 0.12674 0.55902 0.0
H1712 H 0.72021 0.14741 0.6305 0.0
H1713 H 0.70538 0.13915 0.54174 0.0
S1714 S 0.61558 0.11318 0.65159 0.0
N1715 N 0.64091 0.12284 0.68765 0.0
N1716 N 0.6249 0.11442 0.59183 0.0
C1717 C 0.64981 0.12317 0.59922 0.0
C1718 C 0.65852 0.12769 0.65125 0.0
C1719 C 0.47171 0.11873 0.14948 0.0
C1720 C 0.4618 0.13444 0.1619 0.0
C1721 C 0.47644 0.11489 0.09843 0.0
C1722 C 0.47083 0.12612 0.05761 0.0
H1723 H 0.47557 0.109 0.17957 0.0
H1724 H 0.48345 0.1022 0.09079 0.0
S1725 S 0.44568 0.16965 0.06885 0.0
N1726 N 0.44784 0.16226 0.12873 0.0
N1727 N 0.45572 0.15435 0.03292 0.0
C1728 C 0.46147 0.1423 0.06946 0.0
C1729 C 0.45726 0.14669 0.12149 0.0
C1730 C 0.90688 0.33992 0.08654 0.0
C1731 C 0.89119 0.34726 0.06178 0.0
C1732 C 0.90179 0.32993 0.13618 0.0
C1733 C 0.8804 0.32615 0.16329 0.0
H1734 H 0.92346 0.34206 0.06744 0.0
H1735 H 0.9149 0.32523 0.15371 0.0
S1736 S 0.83286 0.34169 0.11598 0.0
N1737 N 0.8531 0.34982 0.06832 0.0
N1738 N 0.84332 0.33061 0.1616 0.0
C1739 C 0.86428 0.33304 0.13896 0.0
C1740 C 0.86975 0.34375 0.0884 0.0
C1741 C 0.67203 0.56832 0.09358 0.0
C1742 C 0.66577 0.54583 0.06768 0.0
C1743 C 0.6821 0.5732 0.14329 0.0
C1744 C 0.68698 0.5561 0.1696 0.0
H1745 H 0.66912 0.58245 0.0752 0.0
H1746 H 0.68609 0.59067 0.16138 0.0
S1747 S 0.6744 0.49443 0.11925 0.0
N1748 N 0.66535 0.50616 0.07231 0.0
N1749 N 0.68461 0.5155 0.16583 0.0
C1750 C 0.68107 0.53356 0.14421 0.0
C1751 C 0.67032 0.52835 0.09346 0.0
C1752 C 0.53847 0.89477 0.95944 0.0
C1753 C 0.54369 0.88323 1.00022 0.0
C1754 C 0.5437 0.89135 0.90851 0.0
C1755 C 0.55376 0.87576 0.89616 0.0
H1756 H 0.53143 0.90745 0.96709 0.0
H1757 H 0.54016 0.90133 0.87847 0.0
S1758 S 0.56906 0.83989 0.98908 0.0
N1759 N 0.55863 0.85487 1.02494 0.0
N1760 N 0.56744 0.84771 0.92925 0.0
C1761 C 0.55789 0.86317 0.93646 0.0
C1762 C 0.55316 0.86714 0.98842 0.0
C1763 C 0.1089 0.64098 0.94445 0.0
C1764 C 0.12742 0.65173 0.98261 0.0
C1765 C 0.11307 0.65093 0.8948 0.0
C1766 C 0.1359 0.67248 0.88079 0.0
H1767 H 0.09043 0.62554 0.95386 0.0
H1768 H 0.0977 0.64198 0.86767 0.0
S1769 S 0.19092 0.70735 0.96678 0.0
N1770 N 0.16979 0.68467 1.0032 0.0
N1771 N 0.17782 0.70346 0.90963 0.0
C1772 C 0.15506 0.68282 0.91813 0.0
C1773 C 0.15077 0.67248 0.96899 0.0
C1774 C 0.3234 0.44924 0.99027 0.0
C1775 C 0.3486 0.46685 1.00312 0.0
C1776 C 0.31465 0.44546 0.93927 0.0
C1777 C 0.33085 0.45885 0.89888 0.0
H1778 H 0.3103 0.43798 1.01991 0.0
H1779 H 0.2954 0.43121 0.93123 0.0
S1780 S 0.39818 0.50745 0.911 0.0
N1781 N 0.38924 0.49843 0.97058 0.0
N1782 N 0.37309 0.49074 0.87486 0.0
C1783 C 0.35589 0.47682 0.91109 0.0
C1784 C 0.36468 0.48103 0.96309 0.0
C1785 C 0.15014 0.47418 0.42249 0.0
C1786 C 0.13375 0.4516 0.39678 0.0
C1787 C 0.14464 0.47923 0.47225 0.0
C1788 C 0.12271 0.46173 0.49831 0.0
H1789 H 0.16694 0.48833 0.40351 0.0
H1790 H 0.15787 0.49669 0.49079 0.0
S1791 S 0.07384 0.39975 0.44794 0.0
N1792 N 0.09474 0.4117 0.40155 0.0
N1793 N 0.08465 0.42093 0.49416 0.0
C1794 C 0.10638 0.43908 0.47296 0.0
C1795 C 0.11183 0.43409 0.42257 0.0
C1796 C 0.57334 0.6753 0.42294 0.0
C1797 C 0.55683 0.68122 0.39706 0.0
C1798 C 0.56847 0.6656 0.47284 0.0
C1799 C 0.54654 0.66071 0.49923 0.0
H1800 H 0.59037 0.67828 0.40449 0.0
H1801 H 0.58218 0.66195 0.49105 0.0
S1802 S 0.49679 0.67237 0.44894 0.0
N1803 N 0.51739 0.68128 0.4018 0.0
N1804 N 0.50803 0.66262 0.49559 0.0
C1805 C 0.52962 0.66622 0.47383 0.0
C1806 C 0.53485 0.67664 0.42295 0.0
C1807 C 0.36385 0.88993 0.45812 0.0
C1808 C 0.34692 0.87984 0.49903 0.0
C1809 C 0.35521 0.88634 0.40706 0.0
C1810 C 0.32937 0.87195 0.3947 0.0
H1811 H 0.38376 0.90169 0.46568 0.0
H1812 H 0.36893 0.8953 0.3769 0.0
S1813 S 0.27758 0.8398 0.48787 0.0
N1814 N 0.30316 0.85391 0.52378 0.0
N1815 N 0.2872 0.84644 0.42793 0.0
C1816 C 0.3124 0.8607 0.43515 0.0
C1817 C 0.32111 0.86487 0.48721 0.0
C1818 C 0.31985 0.22437 0.92644 0.0
C1819 C 0.3209 0.22591 0.98025 0.0
C1820 C 0.34196 0.2356 0.89671 0.0
C1821 C 0.36595 0.24844 0.91965 0.0
H1822 H 0.30182 0.21592 0.90713 0.0
H1823 H 0.34024 0.23543 0.8554 0.0
S1824 S 0.37894 0.25698 0.059 0.0
N1825 N 0.34795 0.24069 0.05514 0.0
N1826 N 0.3893 0.26128 0.99945 0.0
C1827 C 0.36723 0.24901 0.97338 0.0
C1828 C 0.34477 0.23787 1.00359 0.0
C1829 C 0.78122 0.11451 0.90188 0.0
C1830 C 0.76348 0.12009 0.92292 0.0
C1831 C 0.79215 0.10328 0.93166 0.0
C1832 C 0.78547 0.097 0.98334 0.0
H1833 H 0.78549 0.11742 0.8614 0.0
H1834 H 0.80452 0.09789 0.91325 0.0
S1835 S 0.7411 0.10904 0.05707 0.0
N1836 N 0.74095 0.11979 0.99919 0.0
N1837 N 0.76112 0.09856 0.05475 0.0
C1838 C 0.76878 0.10371 1.00527 0.0
C1839 C 0.75789 0.11529 0.97521 0.0
C1840 C 0.91657 0.69686 0.92221 0.0
C1841 C 0.91442 0.69713 0.97581 0.0
C1842 C 0.9056 0.67409 0.89452 0.0
C1843 C 0.89191 0.65072 0.91929 0.0
H1844 H 0.92839 0.71423 0.90202 0.0
H1845 H 0.90926 0.67469 0.85384 0.0
S1846 S 0.8799 0.64126 0.05868 0.0
N1847 N 0.89678 0.67207 0.05225 0.0
N1848 N 0.87599 0.62945 1.0003 0.0
C1849 C 0.88842 0.65084 0.97242 0.0
C1850 C 0.89974 0.674 1.00063 0.0
C1851 C 0.23466 0.33942 0.65929 0.0
C1852 C 0.25234 0.36277 0.6383 0.0
C1853 C 0.22383 0.31721 0.62953 0.0
C1854 C 0.23054 0.31757 0.57787 0.0
H1855 H 0.23033 0.33807 0.69975 0.0
H1856 H 0.21147 0.29946 0.64794 0.0
S1857 S 0.27502 0.374 0.50435 0.0
N1858 N 0.27503 0.38494 0.56216 0.0
N1859 N 0.25503 0.34349 0.50661 0.0
C1860 C 0.24726 0.34099 0.55602 0.0
C1861 C 0.25806 0.36351 0.58608 0.0
C1862 C 0.69622 0.90931 0.63052 0.0
C1863 C 0.69556 0.91478 0.57838 0.0
C1864 C 0.6741 0.89804 0.66033 0.0
C1865 C 0.65056 0.89158 0.63888 0.0
H1866 H 0.71411 0.91535 0.64917 0.0
H1867 H 0.67565 0.89578 0.70107 0.0
S1868 S 0.63856 0.90056 0.50366 0.0
N1869 N 0.66919 0.91169 0.50625 0.0
N1870 N 0.62789 0.8904 0.5619 0.0
C1871 C 0.64954 0.89566 0.58626 0.0
C1872 C 0.67196 0.90728 0.55614 0.0
C1873 C 0.10765 0.77302 0.66926 0.0
C1874 C 0.12184 0.76393 0.64439 0.0
C1875 C 0.09657 0.78476 0.64187 0.0
C1876 C 0.09914 0.78781 0.58841 0.0
H1877 H 0.10376 0.7696 0.70981 0.0
H1878 H 0.08446 0.78992 0.66216 0.0
S1879 S 0.13498 0.76812 0.50522 0.0
N1880 N 0.13856 0.7597 0.56332 0.0
N1881 N 0.11768 0.78159 0.51195 0.0
C1882 C 0.11427 0.77994 0.56346 0.0
C1883 C 0.12565 0.76807 0.59139 0.0
C1884 C 0.6765 0.77438 0.16999 0.0
C1885 C 0.65264 0.76453 0.14691 0.0
C1886 C 0.6987 0.78559 0.14065 0.0
C1887 C 0.69789 0.78721 0.087 0.0
H1888 H 0.67791 0.77204 0.21075 0.0
H1889 H 0.71648 0.79153 0.1597 0.0
S1890 S 0.64041 0.76491 1.00802 0.0
N1891 N 0.62977 0.75797 0.06728 0.0
N1892 N 0.67134 0.77873 1.01223 0.0
C1893 C 0.67429 0.77842 0.06373 0.0
C1894 C 0.6517 0.76719 0.09363 0.0
C1895 C 0.24264 0.90559 0.05778 0.0
C1896 C 0.22732 0.91403 0.08002 0.0
C1897 C 0.25375 0.89463 0.08754 0.0
C1898 C 0.25013 0.89186 0.14079 0.0
H1899 H 0.24726 0.90882 1.01746 0.0
H1900 H 0.26651 0.88972 0.06926 0.0
S1901 S 0.21124 0.91019 0.21759 0.0
N1902 N 0.20849 0.91802 0.15838 0.0
N1903 N 0.2295 0.89765 0.21429 0.0
C1904 C 0.23402 0.8992 0.16317 0.0
C1905 C 0.22255 0.9102 0.1328 0.0
C1906 C 0.10868 0.33783 0.16414 0.0
C1907 C 0.12342 0.36141 0.14077 0.0
C1908 C 0.0975 0.31542 0.13531 0.0
C1909 C 0.10045 0.31573 0.08187 0.0
H1910 H 0.10448 0.33684 0.20463 0.0
H1911 H 0.08508 0.2979 0.15446 0.0
S1912 S 0.13765 0.37233 1.00232 0.0
N1913 N 0.14102 0.38349 0.06119 0.0
N1914 N 0.11982 0.34151 1.00701 0.0
C1915 C 0.11601 0.33903 0.05838 0.0
C1916 C 0.12757 0.36183 0.08781 0.0
C1917 C 0.7956 0.69508 0.43369 0.0
C1918 C 0.79022 0.69469 0.48618 0.0
C1919 C 0.78504 0.6727 0.40452 0.0
C1920 C 0.76904 0.64914 0.42692 0.0
H1921 H 0.8065 0.71288 0.4143 0.0
H1922 H 0.78811 0.674 0.36354 0.0
S1923 S 0.75035 0.63786 0.56332 0.0
N1924 N 0.76885 0.66862 0.55962 0.0
N1925 N 0.74937 0.62685 0.50512 0.0
C1926 C 0.76476 0.64846 0.47983 0.0
C1927 C 0.77527 0.67115 0.50934 0.0
C1928 C 0.31689 0.09133 0.41574 0.0
C1929 C 0.31729 0.09805 0.46739 0.0
C1930 C 0.33909 0.1015 0.3866 0.0
C1931 C 0.36258 0.11888 0.40781 0.0
H1932 H 0.29958 0.07675 0.39885 0.0
H1933 H 0.33807 0.09459 0.34798 0.0
S1934 S 0.37363 0.14343 0.54065 0.0
N1935 N 0.34299 0.12387 0.53791 0.0
N1936 N 0.3846 0.14315 0.48308 0.0
C1937 C 0.36302 0.12682 0.45849 0.0
C1938 C 0.3404 0.11634 0.48828 0.0
C1939 C 0.8914 0.24403 0.47051 0.0
C1940 C 0.89377 0.24595 0.41686 0.0
C1941 C 0.90303 0.23327 0.49955 0.0
C1942 C 0.9172 0.22383 0.47594 0.0
H1943 H 0.88204 0.2525 0.49042 0.0
H1944 H 0.90219 0.23371 0.54094 0.0
S1945 S 0.92829 0.22352 0.3367 0.0
N1946 N 0.91071 0.23676 0.34142 0.0
N1947 N 0.93211 0.21632 0.39573 0.0
C1948 C 0.91858 0.22448 0.42227 0.0
C1949 C 0.90698 0.2356 0.39283 0.0
C1950 C 0.0187 0.56196 0.26629 0.0
C1951 C 0.02923 0.58687 0.24817 0.0
C1952 C 0.99756 0.55128 0.29961 0.0
C1953 C 0.98565 0.56482 0.31487 0.0
H1954 H 0.02668 0.55057 0.25444 0.0
H1955 H 0.99067 0.53242 0.31375 0.0
S1956 S 1.00533 0.63031 0.2769 0.0
N1957 N 0.02715 0.62523 0.25307 0.0
N1958 N 0.9848 0.60361 0.30365 0.0
C1959 C 0.99551 0.58926 0.29498 0.0
C1960 C 0.01797 0.60068 0.26511 0.0
C1961 C 0.4504 0.44924 0.23684 0.0
C1962 C 0.43245 0.45442 0.2583 0.0
C1963 C 0.46138 0.43782 0.26598 0.0
C1964 C 0.45458 0.43097 0.31743 0.0
H1965 H 0.45476 0.45255 0.19645 0.0
H1966 H 0.47388 0.43272 0.24715 0.0
S1967 S 0.40959 0.44176 0.3921 0.0
N1968 N 0.4095 0.45301 0.33473 0.0
N1969 N 0.42988 0.43163 0.38913 0.0
C1970 C 0.43769 0.43731 0.33982 0.0
C1971 C 0.42669 0.449 0.31039 0.0
C1972 C 0.57674 1.00373 0.3351 0.0
C1973 C 0.58339 0.02688 0.3118 0.0
C1974 C 0.5653 0.98113 0.30703 0.0
C1975 C 0.56025 0.98078 0.25438 0.0
H1976 H 0.58175 1.0033 0.37475 0.0
H1977 H 0.56192 0.96404 0.32587 0.0
S1978 S 0.57317 0.03599 0.17548 0.0
N1979 N 0.58313 0.04781 0.23331 0.0
N1980 N 0.56188 0.00541 0.18049 0.0
C1981 C 0.56568 1.00357 0.23117 0.0
C1982 C 0.57719 0.0266 0.25986 0.0
C1983 C 0.45831 0.02508 0.75951 0.0
C1984 C 0.45106 0.02558 0.81046 0.0
C1985 C 0.44716 1.00253 0.73072 0.0
C1986 C 0.42852 0.9797 0.752 0.0
H1987 H 0.47143 0.04246 0.74077 0.0
H1988 H 0.45206 1.00325 0.6907 0.0
S1989 S 0.40428 0.97064 0.88464 0.0
N1990 N 0.42517 1.00089 0.88158 0.0
N1991 N 0.40444 0.95889 0.82783 0.0
C1992 C 0.42222 0.97979 0.80362 0.0
C1993 C 0.43341 1.00261 0.83271 0.0
C1994 C 0.01002 0.43894 0.83714 0.0
C1995 C 0.9866 0.43141 0.81385 0.0
C1996 C 0.03245 0.45018 0.80868 0.0
C1997 C 0.03236 0.45414 0.75563 0.0
H1998 H 0.0108 0.43462 0.87708 0.0
H1999 H 0.04976 0.4541 0.82757 0.0
S2000 S 0.9763 0.43888 0.67669 0.0
N2001 N 0.96495 0.42989 0.73501 0.0
N2002 N 1.00701 0.45071 0.68145 0.0
C2003 C 0.0093 0.44796 0.73243 0.0
C2004 C 0.98644 0.43667 0.76152 0.0
C2005 C 0.55686 0.57631 0.8036 0.0
C2006 C 0.56132 0.5804 0.75065 0.0
C2007 C 0.56808 0.56516 0.83283 0.0
C2008 C 0.58389 0.55744 0.81009 0.0
H2009 H 0.54612 0.58336 0.82313 0.0
H2010 H 0.56563 0.56401 0.87399 0.0
S2011 S 0.60045 0.56277 0.67261 0.0
N2012 N 0.58179 0.57483 0.67658 0.0
N2013 N 0.60244 0.55374 0.73116 0.0
C2014 C 0.58731 0.56019 0.75685 0.0
C2015 C 0.57614 0.57169 0.72727 0.0
C2016 C 0.31831 0.35197 0.07734 0.0
C2017 C 0.32301 0.36509 0.12375 0.0
C2018 C 0.30538 0.3258 0.07652 0.0
C2019 C 0.29721 0.31195 0.12216 0.0
H2020 H 0.32398 0.36193 0.04124 0.0
H2021 H 0.30161 0.31636 0.03979 0.0
S2022 S 0.3064 0.33744 0.25402 0.0
N2023 N 0.31945 0.36243 0.21675 0.0
N2024 N 0.29558 0.31304 0.21508 0.0
C2025 C 0.30261 0.32479 0.169 0.0
C2026 C 0.31538 0.35147 0.16982 0.0
C2027 C 0.66065 0.95116 0.11673 0.0
C2028 C 0.64695 0.96379 0.11752 0.0
C2029 C 0.6868 0.96444 0.11389 0.0
C2030 C 0.70009 0.99079 0.11321 0.0
H2031 H 0.65108 0.93083 0.11767 0.0
H2032 H 0.69669 0.95401 0.11279 0.0
S2033 S 0.67296 0.03268 0.11555 0.0
N2034 N 0.64836 1.00402 0.11718 0.0
N2035 N 0.69788 0.02916 0.11385 0.0
C2036 C 0.68669 1.00372 0.11471 0.0
C2037 C 0.65995 0.99014 0.11622 0.0
C2038 C 0.02075 0.67264 0.07793 0.0
C2039 C 0.04704 0.68513 0.08178 0.0
C2040 C 1.00775 0.68558 0.08658 0.0
C2041 C 0.02088 0.71137 0.09796 0.0
H2042 H 0.01021 0.6527 0.06964 0.0
H2043 H 0.98746 0.67552 0.0834 0.0
S2044 S 0.08977 0.75238 0.1113 0.0
N2045 N 0.08571 0.72436 0.0978 0.0
N2046 N 0.06135 0.74891 0.11224 0.0
C2047 C 0.04716 0.72403 0.10115 0.0
C2048 C 0.06026 0.71081 0.09348 0.0
C2049 C 0.32915 0.2852 0.44745 0.0
C2050 C 0.31536 0.29775 0.44674 0.0
C2051 C 0.35529 0.29855 0.4457 0.0
C2052 C 0.3685 0.32488 0.44462 0.0
H2053 H 0.31964 0.26488 0.44887 0.0
H2054 H 0.36526 0.28817 0.44579 0.0
S2055 S 0.34113 0.36658 0.44278 0.0
N2056 N 0.31659 0.33787 0.44425 0.0
N2057 N 0.36613 0.36317 0.44303 0.0
C2058 C 0.35502 0.33774 0.44447 0.0
C2059 C 0.32828 0.32408 0.44485 0.0
C2060 C 0.72804 0.04618 0.44433 0.0
C2061 C 0.71509 0.01985 0.44507 0.0
C2062 C 0.71504 0.0593 0.44175 0.0
C2063 C 0.68869 0.0465 0.44127 0.0
H2064 H 0.74839 0.05674 0.44527 0.0
H2065 H 0.72572 0.07963 0.44079 0.0
S2066 S 0.64606 0.97756 0.44338 0.0
N2067 N 0.6746 0.98129 0.4447 0.0
N2068 N 0.64996 0.00615 0.44188 0.0
C2069 C 0.67544 0.02016 0.44257 0.0
C2070 C 0.68874 0.00674 0.44381 0.0
C2071 C 0.94991 0.66053 0.5064 0.0
C2072 C 0.94957 0.6462 0.46431 0.0
C2073 C 0.96637 0.6864 0.50779 0.0
C2074 C 0.98299 0.69878 0.46708 0.0
H2075 H 0.93766 0.65169 0.53883 0.0
H2076 H 0.96605 0.69672 0.54113 0.0
S2077 S 0.98812 0.66984 0.34653 0.0
N2078 N 0.96621 0.64627 0.3797 0.0
N2079 N 0.99755 0.69492 0.38289 0.0
C2080 C 0.98271 0.68467 0.42461 0.0
C2081 C 0.96584 0.65836 0.42302 0.0
C2082 C 0.69119 0.68707 0.95033 0.0
C2083 C 0.71755 0.70045 0.94953 0.0
C2084 C 0.67801 0.6608 0.94939 0.0
C2085 C 0.69093 0.6474 0.94624 0.0
H2086 H 0.68075 0.69693 0.95288 0.0
H2087 H 0.65767 0.65095 0.95036 0.0
S2088 S 0.75994 0.674 0.9417 0.0
N2089 N 0.75612 0.69867 0.94509 0.0
N2090 N 0.73136 0.64929 0.94186 0.0
C2091 C 0.71728 0.66065 0.94458 0.0
C2092 C 0.73063 0.68725 0.94662 0.0
C2093 C 0.35419 0.05808 0.94084 0.0
C2094 C 0.36827 0.04586 0.94046 0.0
C2095 C 0.32808 0.04441 0.94293 0.0
C2096 C 0.31521 0.01808 0.94339 0.0
H2097 H 0.36342 0.0784 0.93999 0.0
H2098 H 0.31788 0.05456 0.94363 0.0
S2099 S 0.34345 0.97717 0.94214 0.0
N2100 N 0.36771 0.00604 0.94103 0.0
N2101 N 0.31819 0.98013 0.94318 0.0
C2102 C 0.32898 0.00553 0.94246 0.0
C2103 C 0.35571 0.01952 0.9416 0.0
C2104 C 1.00619 0.32251 0.94046 0.0
C2105 C 0.99325 0.29617 0.9419 0.0
C2106 C 0.99301 0.33559 0.93902 0.0
C2107 C 0.96663 0.32258 0.93758 0.0
H2108 H 0.02654 0.33303 0.9417 0.0
H2109 H 1.00347 0.35593 0.93835 0.0
S2110 S 0.92426 0.25359 0.93923 0.0
N2111 N 0.95285 0.25753 0.94143 0.0
N2112 N 0.92806 0.2821 0.93721 0.0
C2113 C 0.95356 0.29625 0.93811 0.0
C2114 C 0.96691 0.28301 0.94068 0.0
C2115 C 0.68822 0.68798 0.61771 0.0
C2116 C 0.70149 0.71431 0.61569 0.0
C2117 C 0.66194 0.67473 0.61867 0.0
C2118 C 0.64845 0.6876 0.61901 0.0
H2119 H 0.69818 0.67759 0.61752 0.0
H2120 H 0.65215 0.65441 0.62014 0.0
S2121 S 0.67465 0.75648 0.61476 0.0
N2122 N 0.69944 0.75277 0.61393 0.0
N2123 N 0.65004 0.72788 0.61712 0.0
C2124 C 0.66156 0.71391 0.61747 0.0
C2125 C 0.68816 0.7273 0.61545 0.0
C2126 C 0.31569 0.96518 0.6529 0.0
C2127 C 0.32231 0.95777 0.60734 0.0
C2128 C 0.30437 0.97997 0.65171 0.0
C2129 C 0.29885 0.98734 0.60491 0.0
H2130 H 0.3192 0.95947 0.68979 0.0
H2131 H 0.2992 0.98494 0.68765 0.0
S2132 S 0.31337 0.97366 0.47499 0.0
N2133 N 0.32356 0.95967 0.51432 0.0
N2134 N 0.30167 0.98707 0.51193 0.0
C2135 C 0.30579 0.98046 0.55906 0.0
C2136 C 0.31773 0.96577 0.56033 0.0
C2137 C 0.04774 0.32462 0.61567 0.0
C2138 C 0.0214 0.31079 0.6145 0.0
C2139 C 0.06045 0.35066 0.62058 0.0
C2140 C 0.04722 0.36373 0.62309 0.0
H2141 H 0.05863 0.31521 0.61326 0.0
H2142 H 0.08081 0.36066 0.62156 0.0
S2143 S 0.9781 0.33622 0.62107 0.0
N2144 N 0.98238 0.31183 0.61674 0.0
N2145 N 1.00648 0.36122 0.62413 0.0
C2146 C 0.02088 0.35022 0.62153 0.0
C2147 C 1.00788 0.32356 0.61783 0.0
C2148 C 0.01951 0.64738 0.73837 0.0
C2149 C 0.03498 0.65472 0.78207 0.0
C2150 C 0.9934 0.63487 0.74286 0.0
C2151 C 0.98194 0.62888 0.79119 0.0
H2152 H 0.02762 0.65117 0.70037 0.0
H2153 H 0.98214 0.62916 0.70821 0.0
S2154 S 0.01417 0.64512 0.91746 0.0
N2155 N 0.03715 0.65623 0.87515 0.0
N2156 N 0.9879 0.63219 0.88368 0.0
C2157 C 0.99719 0.63662 0.83526 0.0
C2158 C 0.02381 0.64974 0.83066 0.0
C2159 C 0.39406 0.37796 0.78329 0.0
C2160 C 0.38139 0.35163 0.78212 0.0
C2161 C 0.3808 0.39082 0.78283 0.0
C2162 C 0.35444 0.37776 0.78253 0.0
H2163 H 0.41441 0.38873 0.78408 0.0
H2164 H 0.39127 0.41117 0.78314 0.0
S2165 S 0.31246 0.30873 0.78026 0.0
N2166 N 0.34114 0.3128 0.78036 0.0
N2167 N 0.316 0.33718 0.78137 0.0
C2168 C 0.34146 0.35142 0.78204 0.0
C2169 C 0.35503 0.33827 0.78118 0.0
C2170 C 0.63499 0.01908 0.78069 0.0
C2171 C 0.66134 0.03282 0.7809 0.0
C2172 C 0.62216 0.99294 0.77949 0.0
C2173 C 0.63527 0.97971 0.77985 0.0
H2174 H 0.62418 0.0286 0.78094 0.0
H2175 H 0.6018 0.983 0.7788 0.0
S2176 S 0.70437 0.00698 0.78108 0.0
N2177 N 0.70024 0.03153 0.78106 0.0
N2178 N 0.67592 0.98201 0.78069 0.0
C2179 C 0.66162 0.99315 0.78069 0.0
C2180 C 0.67475 0.01988 0.78058 0.0
C2181 C 0.35721 0.01733 0.28261 0.0
C2182 C 0.38359 0.03074 0.28262 0.0
C2183 C 0.34402 0.99105 0.28258 0.0
C2184 C 0.35692 0.97759 0.28117 0.0
H2185 H 0.34674 0.0272 0.28346 0.0
H2186 H 0.32367 0.98123 0.28251 0.0
S2187 S 0.42594 1.0041 0.28036 0.0
N2188 N 0.42214 0.02883 0.28162 0.0
N2189 N 0.39734 0.97941 0.28005 0.0
C2190 C 0.38327 0.99083 0.28088 0.0
C2191 C 0.39665 0.01747 0.28201 0.0
C2192 C 0.02121 0.35178 0.27428 0.0
C2193 C 0.0347 0.37813 0.27481 0.0
C2194 C 0.99495 0.33876 0.27672 0.0
C2195 C 0.98176 0.35183 0.28108 0.0
H2196 H 0.03094 0.34125 0.27093 0.0
H2197 H 0.98498 0.31842 0.27604 0.0
S2198 S 0.00874 0.42086 0.28537 0.0
N2199 N 0.03325 0.41684 0.28034 0.0
N2200 N 0.98394 0.39237 0.28607 0.0
C2201 C 0.99513 0.37816 0.28232 0.0
C2202 C 0.02168 0.39135 0.27888 0.0
C2203 C 0.6412 0.65092 0.23958 0.0
C2204 C 0.6335 0.65736 0.28492 0.0
C2205 C 0.65474 0.63829 0.24118 0.0
C2206 C 0.66044 0.63119 0.28815 0.0
H2207 H 0.63662 0.65557 0.20257 0.0
H2208 H 0.66005 0.63336 0.20536 0.0
S2209 S 0.6451 0.64445 0.41772 0.0
N2210 N 0.63325 0.65672 0.37798 0.0
N2211 N 0.65814 0.63222 0.38117 0.0
C2212 C 0.65318 0.63789 0.33384 0.0
C2213 C 0.63986 0.65124 0.33218 0.0
loop_
_geom_bond_atom_site_label_1
_geom_bond_atom_site_label_2
_geom_bond_distance
_geom_bond_site_symmetry_2
_ccdc_geom_bond_type
Co0 O3 1.970 . S
Co0 N17 1.989 . S
Co0 O25 1.967 . S
Co0 O32 1.920 . S
Co1 O4 1.966 . S
Co1 N10 2.022 . S
Co1 N18 1.993 . S
Co1 O26 1.941 . S
C2 O3 1.258 . S
C2 O4 1.263 . S
O3 Co0 1.970 . S
O3 C2 1.258 . S
O4 Co1 1.966 . S
O4 C2 1.263 . S
C5 O6 1.235 . S
C5 O32 1.289 . S
O6 C5 1.235 . S
C7 C9 1.400 . S
C7 N10 1.351 . S
C7 C12 1.501 . S
C8 C9 1.387 1_556 S
C8 N11 1.341 . S
C9 C7 1.400 . S
C9 C8 1.387 1_554 S
N10 Co1 2.022 . S
N10 C7 1.351 . S
N10 N11 1.365 1_554 S
N11 C8 1.341 . S
N11 N10 1.365 1_556 S
N11 H31 0.862 . S
C12 C7 1.501 . S
C12 H13 0.961 . S
C12 H14 0.961 . S
C12 H15 0.960 . S
H13 C12 0.961 . S
H14 C12 0.961 . S
H15 C12 0.960 . S
C16 N17 1.342 1_556 S
C16 C20 1.401 . S
C16 C21 1.499 . S
N17 Co0 1.989 . S
N17 C16 1.342 1_554 S
N17 N18 1.388 . S
N18 Co1 1.993 . S
N18 N17 1.388 . S
N18 C19 1.346 1_554 S
C19 N18 1.346 1_556 S
C19 C20 1.396 . S
C19 C29 1.510 . S
C20 C16 1.401 . S
C20 C19 1.396 . S
C21 C16 1.499 . S
C21 H22 0.959 1_556 S
C21 H23 0.960 . S
C21 H24 0.961 . S
H22 C21 0.959 1_554 S
H23 C21 0.960 . S
H24 C21 0.961 . S
O25 Co0 1.967 . S
O25 C33 1.258 . S
O26 Co1 1.941 . S
O26 C33 1.266 . S
H27 C29 0.959 . S
H28 C29 0.961 . S
C29 C19 1.510 . S
C29 H27 0.959 . S
C29 H28 0.961 . S
C29 H30 0.960 . S
H30 C29 0.960 . S
H31 N11 0.862 . S
O32 Co0 1.920 . S
O32 C5 1.289 . S
C33 O25 1.258 . S
C33 O26 1.266 . S
Co34 O37 1.970 1_565 S
Co34 N51 1.989 1_565 S
Co34 O59 1.967 . S
Co34 O66 1.920 . S
Co35 O38 1.966 . S
Co35 N44 2.022 . S
Co35 N52 1.993 . S
Co35 O60 1.958 . S
C36 O37 1.258 . S
C36 O38 1.263 . S
O37 Co34 1.970 1_545 S
O37 C36 1.258 . S
O38 Co35 1.966 . S
O38 C36 1.263 . S
C39 O40 1.235 1_565 S
C39 O66 1.289 . S
O40 C39 1.235 1_545 S
C41 C43 1.400 . S
C41 N44 1.351 . S
C41 C46 1.501 . S
C42 C43 1.387 1_556 S
C42 N45 1.341 . S
C43 C41 1.400 . S
C43 C42 1.387 1_554 S
N44 Co35 2.022 . S
N44 C41 1.351 . S
N44 N45 1.365 1_554 S
N45 C42 1.341 . S
N45 N44 1.365 1_556 S
N45 H65 0.862 . S
C46 C41 1.501 . S
C46 H47 0.961 . S
C46 H48 0.961 . S
C46 H49 0.960 . S
H47 C46 0.961 . S
H48 C46 0.961 . S
H49 C46 0.960 . S
C50 N51 1.342 1_556 S
C50 C54 1.401 . S
C50 C55 1.499 . S
N51 Co34 1.989 1_545 S
N51 C50 1.342 1_554 S
N51 N52 1.388 . S
N52 Co35 1.993 . S
N52 N51 1.388 . S
N52 C53 1.346 1_554 S
C53 N52 1.346 1_556 S
C53 C54 1.396 . S
C53 C63 1.510 . S
C54 C50 1.401 . S
C54 C53 1.396 . S
C55 C50 1.499 . S
C55 H56 0.959 1_556 S
C55 H57 0.960 . S
C55 H58 0.961 . S
H56 C55 0.959 1_554 S
H57 C55 0.960 . S
H58 C55 0.961 . S
O59 Co34 1.967 . S
O59 C67 1.258 . S
O60 Co35 1.958 . S
O60 C67 1.257 1_545 S
H61 C63 0.959 . S
H62 C63 0.961 . S
C63 C53 1.510 . S
C63 H61 0.959 . S
C63 H62 0.961 . S
C63 H64 0.960 . S
H64 C63 0.960 . S
H65 N45 0.862 . S
O66 Co34 1.920 . S
O66 C39 1.289 . S
C67 O59 1.258 . S
C67 O60 1.257 1_565 S
Co68 O71 1.970 1_455 S
Co68 N85 1.989 1_455 S
Co68 O93 1.967 . S
Co68 O100 1.920 . S
Co69 O72 1.966 . S
Co69 N78 2.022 . S
Co69 N86 1.993 . S
Co69 O94 1.952 . S
C70 O71 1.258 . S
C70 O72 1.263 . S
O71 Co68 1.970 1_655 S
O71 C70 1.258 . S
O72 Co69 1.966 . S
O72 C70 1.263 . S
C73 O74 1.235 1_455 S
C73 O100 1.289 . S
O74 C73 1.235 1_655 S
C75 C77 1.400 . S
C75 N78 1.351 . S
C75 C80 1.501 . S
C76 C77 1.387 1_556 S
C76 N79 1.341 . S
C77 C75 1.400 . S
C77 C76 1.387 1_554 S
N78 Co69 2.022 . S
N78 C75 1.351 . S
N78 N79 1.365 1_554 S
N79 C76 1.341 . S
N79 N78 1.365 1_556 S
N79 H99 0.862 . S
C80 C75 1.501 . S
C80 H81 0.961 . S
C80 H82 0.961 . S
C80 H83 0.960 . S
H81 C80 0.961 . S
H82 C80 0.961 . S
H83 C80 0.960 . S
C84 N85 1.342 1_556 S
C84 C88 1.401 . S
C84 C89 1.499 . S
N85 Co68 1.989 1_655 S
N85 C84 1.342 1_554 S
N85 N86 1.388 . S
N86 Co69 1.993 . S
N86 N85 1.388 . S
N86 C87 1.346 1_554 S
C87 N86 1.346 1_556 S
C87 C88 1.396 . S
C87 C97 1.510 . S
C88 C84 1.401 . S
C88 C87 1.396 . S
C89 C84 1.499 . S
C89 H90 0.959 1_556 S
C89 H91 0.960 . S
C89 H92 0.961 . S
H90 C89 0.959 1_554 S
H91 C89 0.960 . S
H92 C89 0.961 . S
O93 Co68 1.967 . S
O93 C101 1.258 . S
O94 Co69 1.952 . S
O94 C101 1.249 1_655 S
H95 C97 0.959 . S
H96 C97 0.961 . S
C97 C87 1.510 . S
C97 H95 0.959 . S
C97 H96 0.961 . S
C97 H98 0.960 . S
H98 C97 0.960 . S
H99 N79 0.862 . S
O100 Co68 1.920 . S
O100 C73 1.289 . S
C101 O93 1.258 . S
C101 O94 1.249 1_455 S
Co102 O105 1.970 . S
Co102 N119 1.989 . S
Co102 O127 1.967 . S
Co102 O134 1.920 . S
Co103 O106 1.966 . S
Co103 N112 2.022 . S
Co103 N120 1.993 . S
Co103 O128 1.941 . S
C104 O105 1.258 . S
C104 O106 1.263 . S
O105 Co102 1.970 . S
O105 C104 1.258 . S
O106 Co103 1.966 . S
O106 C104 1.263 . S
C107 O108 1.235 . S
C107 O134 1.289 . S
O108 C107 1.235 . S
C109 C111 1.400 . S
C109 N112 1.351 . S
C109 C114 1.501 . S
C110 C111 1.387 . S
C110 N113 1.341 . S
C111 C109 1.400 . S
C111 C110 1.387 . S
N112 Co103 2.022 . S
N112 C109 1.351 . S
N112 N113 1.365 . S
N113 C110 1.341 . S
N113 N112 1.365 . S
N113 H133 0.862 . S
C114 C109 1.501 . S
C114 H115 0.961 . S
C114 H116 0.961 . S
C114 H117 0.960 . S
H115 C114 0.961 . S
H116 C114 0.961 . S
H117 C114 0.960 . S
C118 N119 1.342 . S
C118 C122 1.401 . S
C118 C123 1.499 . S
N119 Co102 1.989 . S
N119 C118 1.342 . S
N119 N120 1.388 . S
N120 Co103 1.993 . S
N120 N119 1.388 . S
N120 C121 1.346 . S
C121 N120 1.346 . S
C121 C122 1.396 . S
C121 C131 1.510 . S
C122 C118 1.401 . S
C122 C121 1.396 . S
C123 C118 1.499 . S
C123 H124 0.959 . S
C123 H125 0.960 . S
C123 H126 0.961 . S
H124 C123 0.959 . S
H125 C123 0.960 . S
H126 C123 0.961 . S
O127 Co102 1.967 . S
O127 C135 1.258 . S
O128 Co103 1.941 . S
O128 C135 1.266 . S
H129 C131 0.959 . S
H130 C131 0.961 . S
C131 C121 1.510 . S
C131 H129 0.959 . S
C131 H130 0.961 . S
C131 H132 0.960 . S
H132 C131 0.960 . S
H133 N113 0.862 . S
O134 Co102 1.920 . S
O134 C107 1.289 . S
C135 O127 1.258 . S
C135 O128 1.266 . S
Co136 O139 1.970 1_545 S
Co136 N153 1.989 1_545 S
Co136 O161 1.967 . S
Co136 O168 1.920 . S
Co137 O140 1.966 . S
Co137 N146 2.022 . S
Co137 N154 1.993 . S
Co137 O162 1.952 . S
C138 O139 1.258 . S
C138 O140 1.263 . S
O139 Co136 1.970 1_565 S
O139 C138 1.258 . S
O140 Co137 1.966 . S
O140 C138 1.263 . S
C141 O142 1.235 1_545 S
C141 O168 1.289 . S
O142 C141 1.235 1_565 S
C143 C145 1.400 . S
C143 N146 1.351 . S
C143 C148 1.501 . S
C144 C145 1.387 . S
C144 N147 1.341 . S
C145 C143 1.400 . S
C145 C144 1.387 . S
N146 Co137 2.022 . S
N146 C143 1.351 . S
N146 N147 1.365 . S
N147 C144 1.341 . S
N147 N146 1.365 . S
N147 H167 0.862 . S
C148 C143 1.501 . S
C148 H149 0.961 . S
C148 H150 0.961 . S
C148 H151 0.960 . S
H149 C148 0.961 . S
H150 C148 0.961 . S
H151 C148 0.960 . S
C152 N153 1.342 . S
C152 C156 1.401 . S
C152 C157 1.499 . S
N153 Co136 1.989 1_565 S
N153 C152 1.342 . S
N153 N154 1.388 . S
N154 Co137 1.993 . S
N154 N153 1.388 . S
N154 C155 1.346 . S
C155 N154 1.346 . S
C155 C156 1.396 . S
C155 C165 1.510 . S
C156 C152 1.401 . S
C156 C155 1.396 . S
C157 C152 1.499 . S
C157 H158 0.959 . S
C157 H159 0.960 . S
C157 H160 0.961 . S
H158 C157 0.959 . S
H159 C157 0.960 . S
H160 C157 0.961 . S
O161 Co136 1.967 . S
O161 C169 1.258 . S
O162 Co137 1.952 . S
O162 C169 1.249 1_565 S
H163 C165 0.959 . S
H164 C165 0.961 . S
C165 C155 1.510 . S
C165 H163 0.959 . S
C165 H164 0.961 . S
C165 H166 0.960 . S
H166 C165 0.960 . S
H167 N147 0.862 . S
O168 Co136 1.920 . S
O168 C141 1.289 . S
C169 O161 1.258 . S
C169 O162 1.249 1_545 S
Co170 O173 1.970 1_655 S
Co170 N187 1.989 1_655 S
Co170 O195 1.967 . S
Co170 O202 1.920 . S
Co171 O174 1.966 . S
Co171 N180 2.022 . S
Co171 N188 1.993 . S
Co171 O196 1.958 . S
C172 O173 1.258 . S
C172 O174 1.263 . S
O173 Co170 1.970 1_455 S
O173 C172 1.258 . S
O174 Co171 1.966 . S
O174 C172 1.263 . S
C175 O176 1.235 1_655 S
C175 O202 1.289 . S
O176 C175 1.235 1_455 S
C177 C179 1.400 . S
C177 N180 1.351 . S
C177 C182 1.501 . S
C178 C179 1.387 . S
C178 N181 1.341 . S
C179 C177 1.400 . S
C179 C178 1.387 . S
N180 Co171 2.022 . S
N180 C177 1.351 . S
N180 N181 1.365 . S
N181 C178 1.341 . S
N181 N180 1.365 . S
N181 H201 0.862 . S
C182 C177 1.501 . S
C182 H183 0.961 . S
C182 H184 0.961 . S
C182 H185 0.960 . S
H183 C182 0.961 . S
H184 C182 0.961 . S
H185 C182 0.960 . S
C186 N187 1.342 . S
C186 C190 1.401 . S
C186 C191 1.499 . S
N187 Co170 1.989 1_455 S
N187 C186 1.342 . S
N187 N188 1.388 . S
N188 Co171 1.993 . S
N188 N187 1.388 . S
N188 C189 1.346 . S
C189 N188 1.346 . S
C189 C190 1.396 . S
C189 C199 1.510 . S
C190 C186 1.401 . S
C190 C189 1.396 . S
C191 C186 1.499 . S
C191 H192 0.959 . S
C191 H193 0.960 . S
C191 H194 0.961 . S
H192 C191 0.959 . S
H193 C191 0.960 . S
H194 C191 0.961 . S
O195 Co170 1.967 . S
O195 C203 1.258 . S
O196 Co171 1.958 . S
O196 C203 1.257 1_455 S
H197 C199 0.959 . S
H198 C199 0.961 . S
C199 C189 1.510 . S
C199 H197 0.959 . S
C199 H198 0.961 . S
C199 H200 0.960 . S
H200 C199 0.960 . S
H201 N181 0.862 . S
O202 Co170 1.920 . S
O202 C175 1.289 . S
C203 O195 1.258 . S
C203 O196 1.257 1_655 S
Co204 O207 1.970 . S
Co204 N221 1.989 . S
Co204 O229 1.967 . S
Co204 O236 1.920 . S
Co205 O208 1.966 . S
Co205 N214 2.022 . S
Co205 N222 1.993 . S
Co205 O230 1.941 . S
C206 O207 1.258 . S
C206 O208 1.263 . S
O207 Co204 1.970 . S
O207 C206 1.258 . S
O208 Co205 1.966 . S
O208 C206 1.263 . S
C209 O210 1.235 . S
C209 O236 1.289 . S
O210 C209 1.235 . S
C211 C213 1.400 . S
C211 N214 1.351 . S
C211 C216 1.501 . S
C212 C213 1.387 1_554 S
C212 N215 1.341 . S
C213 C211 1.400 . S
C213 C212 1.387 1_556 S
N214 Co205 2.022 . S
N214 C211 1.351 . S
N214 N215 1.365 1_556 S
N215 C212 1.341 . S
N215 N214 1.365 1_554 S
N215 H235 0.862 . S
C216 C211 1.501 . S
C216 H217 0.961 . S
C216 H218 0.961 . S
C216 H219 0.960 . S
H217 C216 0.961 . S
H218 C216 0.961 . S
H219 C216 0.960 . S
C220 N221 1.342 1_554 S
C220 C224 1.401 . S
C220 C225 1.499 . S
N221 Co204 1.989 . S
N221 C220 1.342 1_556 S
N221 N222 1.388 . S
N222 Co205 1.993 . S
N222 N221 1.388 . S
N222 C223 1.346 1_556 S
C223 N222 1.346 1_554 S
C223 C224 1.396 . S
C223 C233 1.510 . S
C224 C220 1.401 . S
C224 C223 1.396 . S
C225 C220 1.499 . S
C225 H226 0.959 1_554 S
C225 H227 0.960 . S
C225 H228 0.961 . S
H226 C225 0.959 1_556 S
H227 C225 0.960 . S
H228 C225 0.961 . S
O229 Co204 1.967 . S
O229 C237 1.258 . S
O230 Co205 1.941 . S
O230 C237 1.266 . S
H231 C233 0.959 . S
H232 C233 0.961 . S
C233 C223 1.510 . S
C233 H231 0.959 . S
C233 H232 0.961 . S
C233 H234 0.960 . S
H234 C233 0.960 . S
H235 N215 0.862 . S
O236 Co204 1.920 . S
O236 C209 1.289 . S
C237 O229 1.258 . S
C237 O230 1.266 . S
Co238 O241 1.970 1_545 S
Co238 N255 1.989 1_545 S
Co238 O263 1.967 . S
Co238 O270 1.920 . S
Co239 O242 1.966 . S
Co239 N248 2.022 . S
Co239 N256 1.993 . S
Co239 O264 1.958 . S
C240 O241 1.258 . S
C240 O242 1.263 . S
O241 Co238 1.970 1_565 S
O241 C240 1.258 . S
O242 Co239 1.966 . S
O242 C240 1.263 . S
C243 O244 1.235 1_545 S
C243 O270 1.289 . S
O244 C243 1.235 1_565 S
C245 C247 1.400 . S
C245 N248 1.351 . S
C245 C250 1.501 . S
C246 C247 1.387 1_554 S
C246 N249 1.341 . S
C247 C245 1.400 . S
C247 C246 1.387 1_556 S
N248 Co239 2.022 . S
N248 C245 1.351 . S
N248 N249 1.365 1_556 S
N249 C246 1.341 . S
N249 N248 1.365 1_554 S
N249 H269 0.862 . S
C250 C245 1.501 . S
C250 H251 0.961 . S
C250 H252 0.961 . S
C250 H253 0.960 . S
H251 C250 0.961 . S
H252 C250 0.961 . S
H253 C250 0.960 . S
C254 N255 1.342 1_554 S
C254 C258 1.401 . S
C254 C259 1.499 . S
N255 Co238 1.989 1_565 S
N255 C254 1.342 1_556 S
N255 N256 1.388 . S
N256 Co239 1.993 . S
N256 N255 1.388 . S
N256 C257 1.346 1_556 S
C257 N256 1.346 1_554 S
C257 C258 1.396 . S
C257 C267 1.510 . S
C258 C254 1.401 . S
C258 C257 1.396 . S
C259 C254 1.499 . S
C259 H260 0.959 1_554 S
C259 H261 0.960 . S
C259 H262 0.961 . S
H260 C259 0.959 1_556 S
H261 C259 0.960 . S
H262 C259 0.961 . S
O263 Co238 1.967 . S
O263 C271 1.258 . S
O264 Co239 1.958 . S
O264 C271 1.257 1_565 S
H265 C267 0.959 . S
H266 C267 0.961 . S
C267 C257 1.510 . S
C267 H265 0.959 . S
C267 H266 0.961 . S
C267 H268 0.960 . S
H268 C267 0.960 . S
H269 N249 0.862 . S
O270 Co238 1.920 . S
O270 C243 1.289 . S
C271 O263 1.258 . S
C271 O264 1.257 1_545 S
Co272 O275 1.970 1_655 S
Co272 N289 1.989 1_655 S
Co272 O297 1.967 . S
Co272 O304 1.920 . S
Co273 O276 1.966 . S
Co273 N282 2.022 . S
Co273 N290 1.993 . S
Co273 O298 1.952 . S
C274 O275 1.258 . S
C274 O276 1.263 . S
O275 Co272 1.970 1_455 S
O275 C274 1.258 . S
O276 Co273 1.966 . S
O276 C274 1.263 . S
C277 O278 1.235 1_655 S
C277 O304 1.289 . S
O278 C277 1.235 1_455 S
C279 C281 1.400 . S
C279 N282 1.351 . S
C279 C284 1.501 . S
C280 C281 1.387 1_554 S
C280 N283 1.341 . S
C281 C279 1.400 . S
C281 C280 1.387 1_556 S
N282 Co273 2.022 . S
N282 C279 1.351 . S
N282 N283 1.365 1_556 S
N283 C280 1.341 . S
N283 N282 1.365 1_554 S
N283 H303 0.862 . S
C284 C279 1.501 . S
C284 H285 0.961 . S
C284 H286 0.961 . S
C284 H287 0.960 . S
H285 C284 0.961 . S
H286 C284 0.961 . S
H287 C284 0.960 . S
C288 N289 1.342 1_554 S
C288 C292 1.401 . S
C288 C293 1.499 . S
N289 Co272 1.989 1_455 S
N289 C288 1.342 1_556 S
N289 N290 1.388 . S
N290 Co273 1.993 . S
N290 N289 1.388 . S
N290 C291 1.346 1_556 S
C291 N290 1.346 1_554 S
C291 C292 1.396 . S
C291 C301 1.510 . S
C292 C288 1.401 . S
C292 C291 1.396 . S
C293 C288 1.499 . S
C293 H294 0.959 1_554 S
C293 H295 0.960 . S
C293 H296 0.961 . S
H294 C293 0.959 1_556 S
H295 C293 0.960 . S
H296 C293 0.961 . S
O297 Co272 1.967 . S
O297 C305 1.258 . S
O298 Co273 1.952 . S
O298 C305 1.249 1_455 S
H299 C301 0.959 . S
H300 C301 0.961 . S
C301 C291 1.510 . S
C301 H299 0.959 . S
C301 H300 0.961 . S
C301 H302 0.960 . S
H302 C301 0.960 . S
H303 N283 0.862 . S
O304 Co272 1.920 . S
O304 C277 1.289 . S
C305 O297 1.258 . S
C305 O298 1.249 1_655 S
Co306 O309 1.970 . S
Co306 N323 1.989 . S
Co306 O331 1.967 . S
Co306 O338 1.920 . S
Co307 O310 1.966 . S
Co307 N316 2.022 . S
Co307 N324 1.993 . S
Co307 O332 1.941 . S
C308 O309 1.258 . S
C308 O310 1.263 . S
O309 Co306 1.970 . S
O309 C308 1.258 . S
O310 Co307 1.966 . S
O310 C308 1.263 . S
C311 O312 1.235 . S
C311 O338 1.289 . S
O312 C311 1.235 . S
C313 C315 1.400 . S
C313 N316 1.351 . S
C313 C318 1.501 . S
C314 C315 1.387 . S
C314 N317 1.341 . S
C315 C313 1.400 . S
C315 C314 1.387 . S
N316 Co307 2.022 . S
N316 C313 1.351 . S
N316 N317 1.365 . S
N317 C314 1.341 . S
N317 N316 1.365 . S
N317 H337 0.862 . S
C318 C313 1.501 . S
C318 H319 0.961 . S
C318 H320 0.961 . S
C318 H321 0.960 . S
H319 C318 0.961 . S
H320 C318 0.961 . S
H321 C318 0.960 . S
C322 N323 1.342 . S
C322 C326 1.401 . S
C322 C327 1.499 . S
N323 Co306 1.989 . S
N323 C322 1.342 . S
N323 N324 1.388 . S
N324 Co307 1.993 . S
N324 N323 1.388 . S
N324 C325 1.346 . S
C325 N324 1.346 . S
C325 C326 1.396 . S
C325 C335 1.510 . S
C326 C322 1.401 . S
C326 C325 1.396 . S
C327 C322 1.499 . S
C327 H328 0.959 . S
C327 H329 0.960 . S
C327 H330 0.961 . S
H328 C327 0.959 . S
H329 C327 0.960 . S
H330 C327 0.961 . S
O331 Co306 1.967 . S
O331 C339 1.258 . S
O332 Co307 1.941 . S
O332 C339 1.266 . S
H333 C335 0.959 . S
H334 C335 0.961 . S
C335 C325 1.510 . S
C335 H333 0.959 . S
C335 H334 0.961 . S
C335 H336 0.960 . S
H336 C335 0.960 . S
H337 N317 0.862 . S
O338 Co306 1.920 . S
O338 C311 1.289 . S
C339 O331 1.258 . S
C339 O332 1.266 . S
Co340 O343 1.970 1_565 S
Co340 N357 1.989 1_565 S
Co340 O365 1.967 . S
Co340 O372 1.920 . S
Co341 O344 1.966 . S
Co341 N350 2.022 . S
Co341 N358 1.993 . S
Co341 O366 1.952 . S
C342 O343 1.258 . S
C342 O344 1.263 . S
O343 Co340 1.970 1_545 S
O343 C342 1.258 . S
O344 Co341 1.966 . S
O344 C342 1.263 . S
C345 O346 1.235 1_565 S
C345 O372 1.289 . S
O346 C345 1.235 1_545 S
C347 C349 1.400 . S
C347 N350 1.351 . S
C347 C352 1.501 . S
C348 C349 1.387 . S
C348 N351 1.341 . S
C349 C347 1.400 . S
C349 C348 1.387 . S
N350 Co341 2.022 . S
N350 C347 1.351 . S
N350 N351 1.365 . S
N351 C348 1.341 . S
N351 N350 1.365 . S
N351 H371 0.862 . S
C352 C347 1.501 . S
C352 H353 0.961 . S
C352 H354 0.961 . S
C352 H355 0.960 . S
H353 C352 0.961 . S
H354 C352 0.961 . S
H355 C352 0.960 . S
C356 N357 1.342 . S
C356 C360 1.401 . S
C356 C361 1.499 . S
N357 Co340 1.989 1_545 S
N357 C356 1.342 . S
N357 N358 1.388 . S
N358 Co341 1.993 . S
N358 N357 1.388 . S
N358 C359 1.346 . S
C359 N358 1.346 . S
C359 C360 1.396 . S
C359 C369 1.510 . S
C360 C356 1.401 . S
C360 C359 1.396 . S
C361 C356 1.499 . S
C361 H362 0.959 . S
C361 H363 0.960 . S
C361 H364 0.961 . S
H362 C361 0.959 . S
H363 C361 0.960 . S
H364 C361 0.961 . S
O365 Co340 1.967 . S
O365 C373 1.258 . S
O366 Co341 1.952 . S
O366 C373 1.249 1_545 S
H367 C369 0.959 . S
H368 C369 0.961 . S
C369 C359 1.510 . S
C369 H367 0.959 . S
C369 H368 0.961 . S
C369 H370 0.960 . S
H370 C369 0.960 . S
H371 N351 0.862 . S
O372 Co340 1.920 . S
O372 C345 1.289 . S
C373 O365 1.258 . S
C373 O366 1.249 1_565 S
Co374 O377 1.970 1_455 S
Co374 N391 1.989 1_455 S
Co374 O399 1.967 . S
Co374 O406 1.920 . S
Co375 O378 1.966 . S
Co375 N384 2.022 . S
Co375 N392 1.993 . S
Co375 O400 1.958 . S
C376 O377 1.258 . S
C376 O378 1.263 . S
O377 Co374 1.970 1_655 S
O377 C376 1.258 . S
O378 Co375 1.966 . S
O378 C376 1.263 . S
C379 O380 1.235 1_455 S
C379 O406 1.289 . S
O380 C379 1.235 1_655 S
C381 C383 1.400 . S
C381 N384 1.351 . S
C381 C386 1.501 . S
C382 C383 1.387 . S
C382 N385 1.341 . S
C383 C381 1.400 . S
C383 C382 1.387 . S
N384 Co375 2.022 . S
N384 C381 1.351 . S
N384 N385 1.365 . S
N385 C382 1.341 . S
N385 N384 1.365 . S
N385 H405 0.862 . S
C386 C381 1.501 . S
C386 H387 0.961 . S
C386 H388 0.961 . S
C386 H389 0.960 . S
H387 C386 0.961 . S
H388 C386 0.961 . S
H389 C386 0.960 . S
C390 N391 1.342 . S
C390 C394 1.401 . S
C390 C395 1.499 . S
N391 Co374 1.989 1_655 S
N391 C390 1.342 . S
N391 N392 1.388 . S
N392 Co375 1.993 . S
N392 N391 1.388 . S
N392 C393 1.346 . S
C393 N392 1.346 . S
C393 C394 1.396 . S
C393 C403 1.510 . S
C394 C390 1.401 . S
C394 C393 1.396 . S
C395 C390 1.499 . S
C395 H396 0.959 . S
C395 H397 0.960 . S
C395 H398 0.961 . S
H396 C395 0.959 . S
H397 C395 0.960 . S
H398 C395 0.961 . S
O399 Co374 1.967 . S
O399 C407 1.258 . S
O400 Co375 1.958 . S
O400 C407 1.257 1_655 S
H401 C403 0.959 . S
H402 C403 0.961 . S
C403 C393 1.510 . S
C403 H401 0.959 . S
C403 H402 0.961 . S
C403 H404 0.960 . S
H404 C403 0.960 . S
H405 N385 0.862 . S
O406 Co374 1.920 . S
O406 C379 1.289 . S
C407 O399 1.258 . S
C407 O400 1.257 1_455 S
Co408 O411 1.970 . S
Co408 N425 1.989 . S
Co408 O433 1.967 . S
Co408 O440 1.920 . S
Co409 O412 1.966 . S
Co409 N418 2.022 . S
Co409 N426 1.993 . S
Co409 O434 1.941 . S
C410 O411 1.258 . S
C410 O412 1.263 . S
O411 Co408 1.970 . S
O411 C410 1.258 . S
O412 Co409 1.966 . S
O412 C410 1.263 . S
C413 O414 1.235 . S
C413 O440 1.289 . S
O414 C413 1.235 . S
C415 C417 1.400 . S
C415 N418 1.351 . S
C415 C420 1.501 . S
C416 C417 1.387 . S
C416 N419 1.341 . S
C417 C415 1.400 . S
C417 C416 1.387 . S
N418 Co409 2.022 . S
N418 C415 1.351 . S
N418 N419 1.365 . S
N419 C416 1.341 . S
N419 N418 1.365 . S
N419 H439 0.862 . S
C420 C415 1.501 . S
C420 H421 0.961 . S
C420 H422 0.961 . S
C420 H423 0.960 . S
H421 C420 0.961 . S
H422 C420 0.961 . S
H423 C420 0.960 . S
C424 N425 1.342 . S
C424 C428 1.401 . S
C424 C429 1.499 . S
N425 Co408 1.989 . S
N425 C424 1.342 . S
N425 N426 1.388 . S
N426 Co409 1.993 . S
N426 N425 1.388 . S
N426 C427 1.346 . S
C427 N426 1.346 . S
C427 C428 1.396 . S
C427 C437 1.510 . S
C428 C424 1.401 . S
C428 C427 1.396 . S
C429 C424 1.499 . S
C429 H430 0.959 . S
C429 H431 0.960 . S
C429 H432 0.961 . S
H430 C429 0.959 . S
H431 C429 0.960 . S
H432 C429 0.961 . S
O433 Co408 1.967 . S
O433 C441 1.258 . S
O434 Co409 1.941 . S
O434 C441 1.266 . S
H435 C437 0.959 . S
H436 C437 0.961 . S
C437 C427 1.510 . S
C437 H435 0.959 . S
C437 H436 0.961 . S
C437 H438 0.960 . S
H438 C437 0.960 . S
H439 N419 0.862 . S
O440 Co408 1.920 . S
O440 C413 1.289 . S
C441 O433 1.258 . S
C441 O434 1.266 . S
Co442 O445 1.970 . S
Co442 N459 1.989 . S
Co442 O467 1.967 . S
Co442 O474 1.920 . S
Co443 O446 1.966 . S
Co443 N452 2.022 . S
Co443 N460 1.993 . S
Co443 O468 1.941 . S
C444 O445 1.258 . S
C444 O446 1.263 . S
O445 Co442 1.970 . S
O445 C444 1.258 . S
O446 Co443 1.966 . S
O446 C444 1.263 . S
C447 O448 1.235 . S
C447 O474 1.289 . S
O448 C447 1.235 . S
C449 C451 1.400 . S
C449 N452 1.351 . S
C449 C454 1.501 . S
C450 C451 1.387 . S
C450 N453 1.341 . S
C451 C449 1.400 . S
C451 C450 1.387 . S
N452 Co443 2.022 . S
N452 C449 1.351 . S
N452 N453 1.365 . S
N453 C450 1.341 . S
N453 N452 1.365 . S
N453 H473 0.862 . S
C454 C449 1.501 . S
C454 H455 0.961 . S
C454 H456 0.961 . S
C454 H457 0.960 . S
H455 C454 0.961 . S
H456 C454 0.961 . S
H457 C454 0.960 . S
C458 N459 1.342 . S
C458 C462 1.401 . S
C458 C463 1.499 . S
N459 Co442 1.989 . S
N459 C458 1.342 . S
N459 N460 1.388 . S
N460 Co443 1.993 . S
N460 N459 1.388 . S
N460 C461 1.346 . S
C461 N460 1.346 . S
C461 C462 1.396 . S
C461 C471 1.510 . S
C462 C458 1.401 . S
C462 C461 1.396 . S
C463 C458 1.499 . S
C463 H464 0.959 . S
C463 H465 0.960 . S
C463 H466 0.961 . S
H464 C463 0.959 . S
H465 C463 0.960 . S
H466 C463 0.961 . S
O467 Co442 1.967 . S
O467 C475 1.258 . S
O468 Co443 1.941 . S
O468 C475 1.266 . S
H469 C471 0.959 . S
H470 C471 0.961 . S
C471 C461 1.510 . S
C471 H469 0.959 . S
C471 H470 0.961 . S
C471 H472 0.960 . S
H472 C471 0.960 . S
H473 N453 0.862 . S
O474 Co442 1.920 . S
O474 C447 1.289 . S
C475 O467 1.258 . S
C475 O468 1.266 . S
Co476 O479 1.970 . S
Co476 N493 1.989 . S
Co476 O501 1.967 . S
Co476 O508 1.920 . S
Co477 O480 1.966 . S
Co477 N486 2.022 . S
Co477 N494 1.993 . S
Co477 O502 1.941 . S
C478 O479 1.258 . S
C478 O480 1.263 . S
O479 Co476 1.970 . S
O479 C478 1.258 . S
O480 Co477 1.966 . S
O480 C478 1.263 . S
C481 O482 1.235 . S
C481 O508 1.289 . S
O482 C481 1.235 . S
C483 C485 1.400 . S
C483 N486 1.351 . S
C483 C488 1.501 . S
C484 C485 1.387 . S
C484 N487 1.341 . S
C485 C483 1.400 . S
C485 C484 1.387 . S
N486 Co477 2.022 . S
N486 C483 1.351 . S
N486 N487 1.365 . S
N487 C484 1.341 . S
N487 N486 1.365 . S
N487 H507 0.862 . S
C488 C483 1.501 . S
C488 H489 0.961 . S
C488 H490 0.961 . S
C488 H491 0.960 . S
H489 C488 0.961 . S
H490 C488 0.961 . S
H491 C488 0.960 . S
C492 N493 1.342 . S
C492 C496 1.401 . S
C492 C497 1.499 . S
N493 Co476 1.989 . S
N493 C492 1.342 . S
N493 N494 1.388 . S
N494 Co477 1.993 . S
N494 N493 1.388 . S
N494 C495 1.346 . S
C495 N494 1.346 . S
C495 C496 1.396 . S
C495 C505 1.510 . S
C496 C492 1.401 . S
C496 C495 1.396 . S
C497 C492 1.499 . S
C497 H498 0.959 . S
C497 H499 0.960 . S
C497 H500 0.961 . S
H498 C497 0.959 . S
H499 C497 0.960 . S
H500 C497 0.961 . S
O501 Co476 1.967 . S
O501 C509 1.258 . S
O502 Co477 1.941 . S
O502 C509 1.266 . S
H503 C505 0.959 . S
H504 C505 0.961 . S
C505 C495 1.510 . S
C505 H503 0.959 . S
C505 H504 0.961 . S
C505 H506 0.960 . S
H506 C505 0.960 . S
H507 N487 0.862 . S
O508 Co476 1.920 . S
O508 C481 1.289 . S
C509 O501 1.258 . S
C509 O502 1.266 . S
Co510 O513 1.970 . S
Co510 N527 1.989 . S
Co510 O535 1.967 . S
Co510 O542 1.920 . S
Co511 O514 1.966 . S
Co511 N520 2.022 . S
Co511 N528 1.993 . S
Co511 O536 1.941 . S
C512 O513 1.258 . S
C512 O514 1.263 . S
O513 Co510 1.970 . S
O513 C512 1.258 . S
O514 Co511 1.966 . S
O514 C512 1.263 . S
C515 O516 1.235 . S
C515 O542 1.289 . S
O516 C515 1.235 . S
C517 C519 1.400 . S
C517 N520 1.351 . S
C517 C522 1.501 . S
C518 C519 1.387 . S
C518 N521 1.341 . S
C519 C517 1.400 . S
C519 C518 1.387 . S
N520 Co511 2.022 . S
N520 C517 1.351 . S
N520 N521 1.365 . S
N521 C518 1.341 . S
N521 N520 1.365 . S
N521 H541 0.862 . S
C522 C517 1.501 . S
C522 H523 0.961 . S
C522 H524 0.961 . S
C522 H525 0.960 . S
H523 C522 0.961 . S
H524 C522 0.961 . S
H525 C522 0.960 . S
C526 N527 1.342 . S
C526 C530 1.401 . S
C526 C531 1.499 . S
N527 Co510 1.989 . S
N527 C526 1.342 . S
N527 N528 1.388 . S
N528 Co511 1.993 . S
N528 N527 1.388 . S
N528 C529 1.346 . S
C529 N528 1.346 . S
C529 C530 1.396 . S
C529 C539 1.510 . S
C530 C526 1.401 . S
C530 C529 1.396 . S
C531 C526 1.499 . S
C531 H532 0.959 . S
C531 H533 0.960 . S
C531 H534 0.961 . S
H532 C531 0.959 . S
H533 C531 0.960 . S
H534 C531 0.961 . S
O535 Co510 1.967 . S
O535 C543 1.258 . S
O536 Co511 1.941 . S
O536 C543 1.266 . S
H537 C539 0.959 . S
H538 C539 0.961 . S
C539 C529 1.510 . S
C539 H537 0.959 . S
C539 H538 0.961 . S
C539 H540 0.960 . S
H540 C539 0.960 . S
H541 N521 0.862 . S
O542 Co510 1.920 . S
O542 C515 1.289 . S
C543 O535 1.258 . S
C543 O536 1.266 . S
Co544 O547 1.970 . S
Co544 N561 1.989 . S
Co544 O569 1.967 . S
Co544 O576 1.920 . S
Co545 O548 1.966 . S
Co545 N554 2.022 . S
Co545 N562 1.993 . S
Co545 O570 1.941 . S
C546 O547 1.258 . S
C546 O548 1.263 . S
O547 Co544 1.970 . S
O547 C546 1.258 . S
O548 Co545 1.966 . S
O548 C546 1.263 . S
C549 O550 1.235 . S
C549 O576 1.289 . S
O550 C549 1.235 . S
C551 C553 1.400 . S
C551 N554 1.351 . S
C551 C556 1.501 . S
C552 C553 1.387 . S
C552 N555 1.341 . S
C553 C551 1.400 . S
C553 C552 1.387 . S
N554 Co545 2.022 . S
N554 C551 1.351 . S
N554 N555 1.365 . S
N555 C552 1.341 . S
N555 N554 1.365 . S
N555 H575 0.862 . S
C556 C551 1.501 . S
C556 H557 0.961 . S
C556 H558 0.961 . S
C556 H559 0.960 . S
H557 C556 0.961 . S
H558 C556 0.961 . S
H559 C556 0.960 . S
C560 N561 1.342 . S
C560 C564 1.401 . S
C560 C565 1.499 . S
N561 Co544 1.989 . S
N561 C560 1.342 . S
N561 N562 1.388 . S
N562 Co545 1.993 . S
N562 N561 1.388 . S
N562 C563 1.346 . S
C563 N562 1.346 . S
C563 C564 1.396 . S
C563 C573 1.510 . S
C564 C560 1.401 . S
C564 C563 1.396 . S
C565 C560 1.499 . S
C565 H566 0.959 . S
C565 H567 0.960 . S
C565 H568 0.961 . S
H566 C565 0.959 . S
H567 C565 0.960 . S
H568 C565 0.961 . S
O569 Co544 1.967 . S
O569 C577 1.258 . S
O570 Co545 1.941 . S
O570 C577 1.266 . S
H571 C573 0.959 . S
H572 C573 0.961 . S
C573 C563 1.510 . S
C573 H571 0.959 . S
C573 H572 0.961 . S
C573 H574 0.960 . S
H574 C573 0.960 . S
H575 N555 0.862 . S
O576 Co544 1.920 . S
O576 C549 1.289 . S
C577 O569 1.258 . S
C577 O570 1.266 . S
Co578 O581 1.970 . S
Co578 N595 1.989 . S
Co578 O603 1.967 . S
Co578 O610 1.920 . S
Co579 O582 1.966 . S
Co579 N588 2.022 . S
Co579 N596 1.993 . S
Co579 O604 1.941 . S
C580 O581 1.258 . S
C580 O582 1.263 . S
O581 Co578 1.970 . S
O581 C580 1.258 . S
O582 Co579 1.966 . S
O582 C580 1.263 . S
C583 O584 1.235 . S
C583 O610 1.289 . S
O584 C583 1.235 . S
C585 C587 1.400 . S
C585 N588 1.351 . S
C585 C590 1.501 . S
C586 C587 1.387 . S
C586 N589 1.341 . S
C587 C585 1.400 . S
C587 C586 1.387 . S
N588 Co579 2.022 . S
N588 C585 1.351 . S
N588 N589 1.365 . S
N589 C586 1.341 . S
N589 N588 1.365 . S
N589 H609 0.862 . S
C590 C585 1.501 . S
C590 H591 0.961 . S
C590 H592 0.961 . S
C590 H593 0.960 . S
H591 C590 0.961 . S
H592 C590 0.961 . S
H593 C590 0.960 . S
C594 N595 1.342 . S
C594 C598 1.401 . S
C594 C599 1.499 . S
N595 Co578 1.989 . S
N595 C594 1.342 . S
N595 N596 1.388 . S
N596 Co579 1.993 . S
N596 N595 1.388 . S
N596 C597 1.346 . S
C597 N596 1.346 . S
C597 C598 1.396 . S
C597 C607 1.510 . S
C598 C594 1.401 . S
C598 C597 1.396 . S
C599 C594 1.499 . S
C599 H600 0.959 . S
C599 H601 0.960 . S
C599 H602 0.961 . S
H600 C599 0.959 . S
H601 C599 0.960 . S
H602 C599 0.961 . S
O603 Co578 1.967 . S
O603 C611 1.258 . S
O604 Co579 1.941 . S
O604 C611 1.266 . S
H605 C607 0.959 . S
H606 C607 0.961 . S
C607 C597 1.510 . S
C607 H605 0.959 . S
C607 H606 0.961 . S
C607 H608 0.960 . S
H608 C607 0.960 . S
H609 N589 0.862 . S
O610 Co578 1.920 . S
O610 C583 1.289 . S
C611 O603 1.258 . S
C611 O604 1.266 . S
Co612 O615 1.970 . S
Co612 N629 1.989 . S
Co612 O637 1.967 . S
Co612 O644 1.920 . S
Co613 O616 1.966 . S
Co613 N622 2.022 . S
Co613 N630 1.993 . S
Co613 O638 1.941 . S
C614 O615 1.258 . S
C614 O616 1.263 . S
O615 Co612 1.970 . S
O615 C614 1.258 . S
O616 Co613 1.966 . S
O616 C614 1.263 . S
C617 O618 1.235 . S
C617 O644 1.289 . S
O618 C617 1.235 . S
C619 C621 1.400 . S
C619 N622 1.351 . S
C619 C624 1.501 . S
C620 C621 1.387 . S
C620 N623 1.341 . S
C621 C619 1.400 . S
C621 C620 1.387 . S
N622 Co613 2.022 . S
N622 C619 1.351 . S
N622 N623 1.365 . S
N623 C620 1.341 . S
N623 N622 1.365 . S
N623 H643 0.862 . S
C624 C619 1.501 . S
C624 H625 0.961 . S
C624 H626 0.961 . S
C624 H627 0.960 . S
H625 C624 0.961 . S
H626 C624 0.961 . S
H627 C624 0.960 . S
C628 N629 1.342 . S
C628 C632 1.401 . S
C628 C633 1.499 . S
N629 Co612 1.989 . S
N629 C628 1.342 . S
N629 N630 1.388 . S
N630 Co613 1.993 . S
N630 N629 1.388 . S
N630 C631 1.346 . S
C631 N630 1.346 . S
C631 C632 1.396 . S
C631 C641 1.510 . S
C632 C628 1.401 . S
C632 C631 1.396 . S
C633 C628 1.499 . S
C633 H634 0.959 . S
C633 H635 0.960 . S
C633 H636 0.961 . S
H634 C633 0.959 . S
H635 C633 0.960 . S
H636 C633 0.961 . S
O637 Co612 1.967 . S
O637 C645 1.258 . S
O638 Co613 1.941 . S
O638 C645 1.266 . S
H639 C641 0.959 . S
H640 C641 0.961 . S
C641 C631 1.510 . S
C641 H639 0.959 . S
C641 H640 0.961 . S
C641 H642 0.960 . S
H642 C641 0.960 . S
H643 N623 0.862 . S
O644 Co612 1.920 . S
O644 C617 1.289 . S
C645 O637 1.258 . S
C645 O638 1.266 . S
Co646 O649 1.970 . S
Co646 N663 1.989 . S
Co646 O671 1.967 . S
Co646 O678 1.920 . S
Co647 O650 1.966 . S
Co647 N656 2.022 . S
Co647 N664 1.993 . S
Co647 O672 1.941 . S
C648 O649 1.258 . S
C648 O650 1.263 . S
O649 Co646 1.970 . S
O649 C648 1.258 . S
O650 Co647 1.966 . S
O650 C648 1.263 . S
C651 O652 1.235 . S
C651 O678 1.289 . S
O652 C651 1.235 . S
C653 C655 1.400 . S
C653 N656 1.351 . S
C653 C658 1.501 . S
C654 C655 1.387 . S
C654 N657 1.341 . S
C655 C653 1.400 . S
C655 C654 1.387 . S
N656 Co647 2.022 . S
N656 C653 1.351 . S
N656 N657 1.365 . S
N657 C654 1.341 . S
N657 N656 1.365 . S
N657 H677 0.862 . S
C658 C653 1.501 . S
C658 H659 0.961 . S
C658 H660 0.961 . S
C658 H661 0.960 . S
H659 C658 0.961 . S
H660 C658 0.961 . S
H661 C658 0.960 . S
C662 N663 1.342 . S
C662 C666 1.401 . S
C662 C667 1.499 . S
N663 Co646 1.989 . S
N663 C662 1.342 . S
N663 N664 1.388 . S
N664 Co647 1.993 . S
N664 N663 1.388 . S
N664 C665 1.346 . S
C665 N664 1.346 . S
C665 C666 1.396 . S
C665 C675 1.510 . S
C666 C662 1.401 . S
C666 C665 1.396 . S
C667 C662 1.499 . S
C667 H668 0.959 . S
C667 H669 0.960 . S
C667 H670 0.961 . S
H668 C667 0.959 . S
H669 C667 0.960 . S
H670 C667 0.961 . S
O671 Co646 1.967 . S
O671 C679 1.258 . S
O672 Co647 1.941 . S
O672 C679 1.266 . S
H673 C675 0.959 . S
H674 C675 0.961 . S
C675 C665 1.510 . S
C675 H673 0.959 . S
C675 H674 0.961 . S
C675 H676 0.960 . S
H676 C675 0.960 . S
H677 N657 0.862 . S
O678 Co646 1.920 . S
O678 C651 1.289 . S
C679 O671 1.258 . S
C679 O672 1.266 . S
Co680 O683 1.970 . S
Co680 N697 1.989 . S
Co680 O705 1.967 . S
Co680 O712 1.920 . S
Co681 O684 1.966 . S
Co681 N690 2.022 . S
Co681 N698 1.993 . S
Co681 O706 1.941 . S
C682 O683 1.258 . S
C682 O684 1.263 . S
O683 Co680 1.970 . S
O683 C682 1.258 . S
O684 Co681 1.966 . S
O684 C682 1.263 . S
C685 O686 1.235 . S
C685 O712 1.289 . S
O686 C685 1.235 . S
C687 C689 1.400 . S
C687 N690 1.351 . S
C687 C692 1.501 . S
C688 C689 1.387 . S
C688 N691 1.341 . S
C689 C687 1.400 . S
C689 C688 1.387 . S
N690 Co681 2.022 . S
N690 C687 1.351 . S
N690 N691 1.365 . S
N691 C688 1.341 . S
N691 N690 1.365 . S
N691 H711 0.862 . S
C692 C687 1.501 . S
C692 H693 0.961 . S
C692 H694 0.961 . S
C692 H695 0.960 . S
H693 C692 0.961 . S
H694 C692 0.961 . S
H695 C692 0.960 . S
C696 N697 1.342 . S
C696 C700 1.401 . S
C696 C701 1.499 . S
N697 Co680 1.989 . S
N697 C696 1.342 . S
N697 N698 1.388 . S
N698 Co681 1.993 . S
N698 N697 1.388 . S
N698 C699 1.346 . S
C699 N698 1.346 . S
C699 C700 1.396 . S
C699 C709 1.510 . S
C700 C696 1.401 . S
C700 C699 1.396 . S
C701 C696 1.499 . S
C701 H702 0.959 . S
C701 H703 0.960 . S
C701 H704 0.961 . S
H702 C701 0.959 . S
H703 C701 0.960 . S
H704 C701 0.961 . S
O705 Co680 1.967 . S
O705 C713 1.258 . S
O706 Co681 1.941 . S
O706 C713 1.266 . S
H707 C709 0.959 . S
H708 C709 0.961 . S
C709 C699 1.510 . S
C709 H707 0.959 . S
C709 H708 0.961 . S
C709 H710 0.960 . S
H710 C709 0.960 . S
H711 N691 0.862 . S
O712 Co680 1.920 . S
O712 C685 1.289 . S
C713 O705 1.258 . S
C713 O706 1.266 . S
Co714 O717 1.970 . S
Co714 N731 1.989 . S
Co714 O739 1.967 . S
Co714 O746 1.920 . S
Co715 O718 1.966 . S
Co715 N724 2.022 . S
Co715 N732 1.993 . S
Co715 O740 1.941 . S
C716 O717 1.258 . S
C716 O718 1.263 . S
O717 Co714 1.970 . S
O717 C716 1.258 . S
O718 Co715 1.966 . S
O718 C716 1.263 . S
C719 O720 1.235 . S
C719 O746 1.289 . S
O720 C719 1.235 . S
C721 C723 1.400 . S
C721 N724 1.351 . S
C721 C726 1.501 . S
C722 C723 1.387 . S
C722 N725 1.341 . S
C723 C721 1.400 . S
C723 C722 1.387 . S
N724 Co715 2.022 . S
N724 C721 1.351 . S
N724 N725 1.365 . S
N725 C722 1.341 . S
N725 N724 1.365 . S
N725 H745 0.862 . S
C726 C721 1.501 . S
C726 H727 0.961 . S
C726 H728 0.961 . S
C726 H729 0.960 . S
H727 C726 0.961 . S
H728 C726 0.961 . S
H729 C726 0.960 . S
C730 N731 1.342 . S
C730 C734 1.401 . S
C730 C735 1.499 . S
N731 Co714 1.989 . S
N731 C730 1.342 . S
N731 N732 1.388 . S
N732 Co715 1.993 . S
N732 N731 1.388 . S
N732 C733 1.346 . S
C733 N732 1.346 . S
C733 C734 1.396 . S
C733 C743 1.510 . S
C734 C730 1.401 . S
C734 C733 1.396 . S
C735 C730 1.499 . S
C735 H736 0.959 . S
C735 H737 0.960 . S
C735 H738 0.961 . S
H736 C735 0.959 . S
H737 C735 0.960 . S
H738 C735 0.961 . S
O739 Co714 1.967 . S
O739 C747 1.258 . S
O740 Co715 1.941 . S
O740 C747 1.266 . S
H741 C743 0.959 . S
H742 C743 0.961 . S
C743 C733 1.510 . S
C743 H741 0.959 . S
C743 H742 0.961 . S
C743 H744 0.960 . S
H744 C743 0.960 . S
H745 N725 0.862 . S
O746 Co714 1.920 . S
O746 C719 1.289 . S
C747 O739 1.258 . S
C747 O740 1.266 . S
Co748 O751 1.970 . S
Co748 N765 1.989 . S
Co748 O773 1.967 . S
Co748 O780 1.920 . S
Co749 O752 1.966 . S
Co749 N758 2.022 . S
Co749 N766 1.993 . S
Co749 O774 1.941 . S
C750 O751 1.258 . S
C750 O752 1.263 . S
O751 Co748 1.970 . S
O751 C750 1.258 . S
O752 Co749 1.966 . S
O752 C750 1.263 . S
C753 O754 1.235 . S
C753 O780 1.289 . S
O754 C753 1.235 . S
C755 C757 1.400 . S
C755 N758 1.351 . S
C755 C760 1.501 . S
C756 C757 1.387 . S
C756 N759 1.341 . S
C757 C755 1.400 . S
C757 C756 1.387 . S
N758 Co749 2.022 . S
N758 C755 1.351 . S
N758 N759 1.365 . S
N759 C756 1.341 . S
N759 N758 1.365 . S
N759 H779 0.862 . S
C760 C755 1.501 . S
C760 H761 0.961 . S
C760 H762 0.961 . S
C760 H763 0.960 . S
H761 C760 0.961 . S
H762 C760 0.961 . S
H763 C760 0.960 . S
C764 N765 1.342 . S
C764 C768 1.401 . S
C764 C769 1.499 . S
N765 Co748 1.989 . S
N765 C764 1.342 . S
N765 N766 1.388 . S
N766 Co749 1.993 . S
N766 N765 1.388 . S
N766 C767 1.346 . S
C767 N766 1.346 . S
C767 C768 1.396 . S
C767 C777 1.510 . S
C768 C764 1.401 . S
C768 C767 1.396 . S
C769 C764 1.499 . S
C769 H770 0.959 . S
C769 H771 0.960 . S
C769 H772 0.961 . S
H770 C769 0.959 . S
H771 C769 0.960 . S
H772 C769 0.961 . S
O773 Co748 1.967 . S
O773 C781 1.258 . S
O774 Co749 1.941 . S
O774 C781 1.266 . S
H775 C777 0.959 . S
H776 C777 0.961 . S
C777 C767 1.510 . S
C777 H775 0.959 . S
C777 H776 0.961 . S
C777 H778 0.960 . S
H778 C777 0.960 . S
H779 N759 0.862 . S
O780 Co748 1.920 . S
O780 C753 1.289 . S
C781 O773 1.258 . S
C781 O774 1.266 . S
Co782 O785 1.970 . S
Co782 N799 1.989 . S
Co782 O807 1.967 . S
Co782 O814 1.920 . S
Co783 O786 1.966 . S
Co783 N792 2.022 . S
Co783 N800 1.993 . S
Co783 O808 1.941 . S
C784 O785 1.258 . S
C784 O786 1.263 . S
O785 Co782 1.970 . S
O785 C784 1.258 . S
O786 Co783 1.966 . S
O786 C784 1.263 . S
C787 O788 1.235 . S
C787 O814 1.289 . S
O788 C787 1.235 . S
C789 C791 1.400 . S
C789 N792 1.351 . S
C789 C794 1.501 . S
C790 C791 1.387 . S
C790 N793 1.341 . S
C791 C789 1.400 . S
C791 C790 1.387 . S
N792 Co783 2.022 . S
N792 C789 1.351 . S
N792 N793 1.365 . S
N793 C790 1.341 . S
N793 N792 1.365 . S
N793 H813 0.862 . S
C794 C789 1.501 . S
C794 H795 0.961 . S
C794 H796 0.961 . S
C794 H797 0.960 . S
H795 C794 0.961 . S
H796 C794 0.961 . S
H797 C794 0.960 . S
C798 N799 1.342 . S
C798 C802 1.401 . S
C798 C803 1.499 . S
N799 Co782 1.989 . S
N799 C798 1.342 . S
N799 N800 1.388 . S
N800 Co783 1.993 . S
N800 N799 1.388 . S
N800 C801 1.346 . S
C801 N800 1.346 . S
C801 C802 1.396 . S
C801 C811 1.510 . S
C802 C798 1.401 . S
C802 C801 1.396 . S
C803 C798 1.499 . S
C803 H804 0.959 . S
C803 H805 0.960 . S
C803 H806 0.961 . S
H804 C803 0.959 . S
H805 C803 0.960 . S
H806 C803 0.961 . S
O807 Co782 1.967 . S
O807 C815 1.258 . S
O808 Co783 1.941 . S
O808 C815 1.266 . S
H809 C811 0.959 . S
H810 C811 0.961 . S
C811 C801 1.510 . S
C811 H809 0.959 . S
C811 H810 0.961 . S
C811 H812 0.960 . S
H812 C811 0.960 . S
H813 N793 0.862 . S
O814 Co782 1.920 . S
O814 C787 1.289 . S
C815 O807 1.258 . S
C815 O808 1.266 . S
Co816 O819 1.970 . S
Co816 N833 1.989 . S
Co816 O841 1.967 . S
Co816 O848 1.920 . S
Co817 O820 1.966 . S
Co817 N826 2.022 . S
Co817 N834 1.993 . S
Co817 O842 1.941 . S
C818 O819 1.258 . S
C818 O820 1.263 . S
O819 Co816 1.970 . S
O819 C818 1.258 . S
O820 Co817 1.966 . S
O820 C818 1.263 . S
C821 O822 1.235 . S
C821 O848 1.289 . S
O822 C821 1.235 . S
C823 C825 1.400 . S
C823 N826 1.351 . S
C823 C828 1.501 . S
C824 C825 1.387 . S
C824 N827 1.341 . S
C825 C823 1.400 . S
C825 C824 1.387 . S
N826 Co817 2.022 . S
N826 C823 1.351 . S
N826 N827 1.365 . S
N827 C824 1.341 . S
N827 N826 1.365 . S
N827 H847 0.862 . S
C828 C823 1.501 . S
C828 H829 0.961 . S
C828 H830 0.961 . S
C828 H831 0.960 . S
H829 C828 0.961 . S
H830 C828 0.961 . S
H831 C828 0.960 . S
C832 N833 1.342 . S
C832 C836 1.401 . S
C832 C837 1.499 . S
N833 Co816 1.989 . S
N833 C832 1.342 . S
N833 N834 1.388 . S
N834 Co817 1.993 . S
N834 N833 1.388 . S
N834 C835 1.346 . S
C835 N834 1.346 . S
C835 C836 1.396 . S
C835 C845 1.510 . S
C836 C832 1.401 . S
C836 C835 1.396 . S
C837 C832 1.499 . S
C837 H838 0.959 . S
C837 H839 0.960 . S
C837 H840 0.961 . S
H838 C837 0.959 . S
H839 C837 0.960 . S
H840 C837 0.961 . S
O841 Co816 1.967 . S
O841 C849 1.258 . S
O842 Co817 1.941 . S
O842 C849 1.266 . S
H843 C845 0.959 . S
H844 C845 0.961 . S
C845 C835 1.510 . S
C845 H843 0.959 . S
C845 H844 0.961 . S
C845 H846 0.960 . S
H846 C845 0.960 . S
H847 N827 0.862 . S
O848 Co816 1.920 . S
O848 C821 1.289 . S
C849 O841 1.258 . S
C849 O842 1.266 . S
Co850 O853 1.970 . S
Co850 N867 1.989 . S
Co850 O875 1.967 . S
Co850 O882 1.920 . S
Co851 O854 1.966 . S
Co851 N860 2.022 . S
Co851 N868 1.993 . S
Co851 O876 1.941 . S
C852 O853 1.258 . S
C852 O854 1.263 . S
O853 Co850 1.970 . S
O853 C852 1.258 . S
O854 Co851 1.966 . S
O854 C852 1.263 . S
C855 O856 1.235 . S
C855 O882 1.289 . S
O856 C855 1.235 . S
C857 C859 1.400 . S
C857 N860 1.351 . S
C857 C862 1.501 . S
C858 C859 1.387 . S
C858 N861 1.341 . S
C859 C857 1.400 . S
C859 C858 1.387 . S
N860 Co851 2.022 . S
N860 C857 1.351 . S
N860 N861 1.365 . S
N861 C858 1.341 . S
N861 N860 1.365 . S
N861 H881 0.862 . S
C862 C857 1.501 . S
C862 H863 0.961 . S
C862 H864 0.961 . S
C862 H865 0.960 . S
H863 C862 0.961 . S
H864 C862 0.961 . S
H865 C862 0.960 . S
C866 N867 1.342 . S
C866 C870 1.401 . S
C866 C871 1.499 . S
N867 Co850 1.989 . S
N867 C866 1.342 . S
N867 N868 1.388 . S
N868 Co851 1.993 . S
N868 N867 1.388 . S
N868 C869 1.346 . S
C869 N868 1.346 . S
C869 C870 1.396 . S
C869 C879 1.510 . S
C870 C866 1.401 . S
C870 C869 1.396 . S
C871 C866 1.499 . S
C871 H872 0.959 . S
C871 H873 0.960 . S
C871 H874 0.961 . S
H872 C871 0.959 . S
H873 C871 0.960 . S
H874 C871 0.961 . S
O875 Co850 1.967 . S
O875 C883 1.258 . S
O876 Co851 1.941 . S
O876 C883 1.266 . S
H877 C879 0.959 . S
H878 C879 0.961 . S
C879 C869 1.510 . S
C879 H877 0.959 . S
C879 H878 0.961 . S
C879 H880 0.960 . S
H880 C879 0.960 . S
H881 N861 0.862 . S
O882 Co850 1.920 . S
O882 C855 1.289 . S
C883 O875 1.258 . S
C883 O876 1.266 . S
Co884 O887 1.970 . S
Co884 N901 1.989 . S
Co884 O909 1.967 . S
Co884 O916 1.920 . S
Co885 O888 1.966 . S
Co885 N894 2.022 . S
Co885 N902 1.993 . S
Co885 O910 1.941 . S
C886 O887 1.258 . S
C886 O888 1.263 . S
O887 Co884 1.970 . S
O887 C886 1.258 . S
O888 Co885 1.966 . S
O888 C886 1.263 . S
C889 O890 1.235 . S
C889 O916 1.289 . S
O890 C889 1.235 . S
C891 C893 1.400 . S
C891 N894 1.351 . S
C891 C896 1.501 . S
C892 C893 1.387 . S
C892 N895 1.341 . S
C893 C891 1.400 . S
C893 C892 1.387 . S
N894 Co885 2.022 . S
N894 C891 1.351 . S
N894 N895 1.365 . S
N895 C892 1.341 . S
N895 N894 1.365 . S
N895 H915 0.862 . S
C896 C891 1.501 . S
C896 H897 0.961 . S
C896 H898 0.961 . S
C896 H899 0.960 . S
H897 C896 0.961 . S
H898 C896 0.961 . S
H899 C896 0.960 . S
C900 N901 1.342 . S
C900 C904 1.401 . S
C900 C905 1.499 . S
N901 Co884 1.989 . S
N901 C900 1.342 . S
N901 N902 1.388 . S
N902 Co885 1.993 . S
N902 N901 1.388 . S
N902 C903 1.346 . S
C903 N902 1.346 . S
C903 C904 1.396 . S
C903 C913 1.510 . S
C904 C900 1.401 . S
C904 C903 1.396 . S
C905 C900 1.499 . S
C905 H906 0.959 . S
C905 H907 0.960 . S
C905 H908 0.961 . S
H906 C905 0.959 . S
H907 C905 0.960 . S
H908 C905 0.961 . S
O909 Co884 1.967 . S
O909 C917 1.258 . S
O910 Co885 1.941 . S
O910 C917 1.266 . S
H911 C913 0.959 . S
H912 C913 0.961 . S
C913 C903 1.510 . S
C913 H911 0.959 . S
C913 H912 0.961 . S
C913 H914 0.960 . S
H914 C913 0.960 . S
H915 N895 0.862 . S
O916 Co884 1.920 . S
O916 C889 1.289 . S
C917 O909 1.258 . S
C917 O910 1.266 . S
Co918 O921 1.970 . S
Co918 N935 1.989 . S
Co918 O943 1.967 . S
Co918 O950 1.920 . S
Co919 O922 1.966 . S
Co919 N928 2.022 . S
Co919 N936 1.993 . S
Co919 O944 1.941 . S
C920 O921 1.258 . S
C920 O922 1.263 . S
O921 Co918 1.970 . S
O921 C920 1.258 . S
O922 Co919 1.966 . S
O922 C920 1.263 . S
C923 O924 1.235 . S
C923 O950 1.289 . S
O924 C923 1.235 . S
C925 C927 1.400 . S
C925 N928 1.351 . S
C925 C930 1.501 . S
C926 C927 1.387 . S
C926 N929 1.341 . S
C927 C925 1.400 . S
C927 C926 1.387 . S
N928 Co919 2.022 . S
N928 C925 1.351 . S
N928 N929 1.365 . S
N929 C926 1.341 . S
N929 N928 1.365 . S
N929 H949 0.862 . S
C930 C925 1.501 . S
C930 H931 0.961 . S
C930 H932 0.961 . S
C930 H933 0.960 . S
H931 C930 0.961 . S
H932 C930 0.961 . S
H933 C930 0.960 . S
C934 N935 1.342 . S
C934 C938 1.401 . S
C934 C939 1.499 . S
N935 Co918 1.989 . S
N935 C934 1.342 . S
N935 N936 1.388 . S
N936 Co919 1.993 . S
N936 N935 1.388 . S
N936 C937 1.346 . S
C937 N936 1.346 . S
C937 C938 1.396 . S
C937 C947 1.510 . S
C938 C934 1.401 . S
C938 C937 1.396 . S
C939 C934 1.499 . S
C939 H940 0.959 . S
C939 H941 0.960 . S
C939 H942 0.961 . S
H940 C939 0.959 . S
H941 C939 0.960 . S
H942 C939 0.961 . S
O943 Co918 1.967 . S
O943 C951 1.258 . S
O944 Co919 1.941 . S
O944 C951 1.266 . S
H945 C947 0.959 . S
H946 C947 0.961 . S
C947 C937 1.510 . S
C947 H945 0.959 . S
C947 H946 0.961 . S
C947 H948 0.960 . S
H948 C947 0.960 . S
H949 N929 0.862 . S
O950 Co918 1.920 . S
O950 C923 1.289 . S
C951 O943 1.258 . S
C951 O944 1.266 . S
Co952 O955 1.970 . S
Co952 N969 1.989 . S
Co952 O977 1.967 . S
Co952 O984 1.920 . S
Co953 O956 1.966 . S
Co953 N962 2.022 . S
Co953 N970 1.993 . S
Co953 O978 1.941 . S
C954 O955 1.258 . S
C954 O956 1.263 . S
O955 Co952 1.970 . S
O955 C954 1.258 . S
O956 Co953 1.966 . S
O956 C954 1.263 . S
C957 O958 1.235 . S
C957 O984 1.289 . S
O958 C957 1.235 . S
C959 C961 1.400 . S
C959 N962 1.351 . S
C959 C964 1.501 . S
C960 C961 1.387 . S
C960 N963 1.341 . S
C961 C959 1.400 . S
C961 C960 1.387 . S
N962 Co953 2.022 . S
N962 C959 1.351 . S
N962 N963 1.365 . S
N963 C960 1.341 . S
N963 N962 1.365 . S
N963 H983 0.862 . S
C964 C959 1.501 . S
C964 H965 0.961 . S
C964 H966 0.961 . S
C964 H967 0.960 . S
H965 C964 0.961 . S
H966 C964 0.961 . S
H967 C964 0.960 . S
C968 N969 1.342 . S
C968 C972 1.401 . S
C968 C973 1.499 . S
N969 Co952 1.989 . S
N969 C968 1.342 . S
N969 N970 1.388 . S
N970 Co953 1.993 . S
N970 N969 1.388 . S
N970 C971 1.346 . S
C971 N970 1.346 . S
C971 C972 1.396 . S
C971 C981 1.510 . S
C972 C968 1.401 . S
C972 C971 1.396 . S
C973 C968 1.499 . S
C973 H974 0.959 . S
C973 H975 0.960 . S
C973 H976 0.961 . S
H974 C973 0.959 . S
H975 C973 0.960 . S
H976 C973 0.961 . S
O977 Co952 1.967 . S
O977 C985 1.258 . S
O978 Co953 1.941 . S
O978 C985 1.266 . S
H979 C981 0.959 . S
H980 C981 0.961 . S
C981 C971 1.510 . S
C981 H979 0.959 . S
C981 H980 0.961 . S
C981 H982 0.960 . S
H982 C981 0.960 . S
H983 N963 0.862 . S
O984 Co952 1.920 . S
O984 C957 1.289 . S
C985 O977 1.258 . S
C985 O978 1.266 . S
Co986 O989 1.970 . S
Co986 N1003 1.989 . S
Co986 O1011 1.967 . S
Co986 O1018 1.920 . S
Co987 O990 1.966 . S
Co987 N996 2.022 . S
Co987 N1004 1.993 . S
Co987 O1012 1.941 . S
C988 O989 1.258 . S
C988 O990 1.263 . S
O989 Co986 1.970 . S
O989 C988 1.258 . S
O990 Co987 1.966 . S
O990 C988 1.263 . S
C991 O992 1.235 . S
C991 O1018 1.289 . S
O992 C991 1.235 . S
C993 C995 1.400 . S
C993 N996 1.351 . S
C993 C998 1.501 . S
C994 C995 1.387 . S
C994 N997 1.341 . S
C995 C993 1.400 . S
C995 C994 1.387 . S
N996 Co987 2.022 . S
N996 C993 1.351 . S
N996 N997 1.365 . S
N997 C994 1.341 . S
N997 N996 1.365 . S
N997 H1017 0.862 . S
C998 C993 1.501 . S
C998 H999 0.961 . S
C998 H1000 0.961 . S
C998 H1001 0.960 . S
H999 C998 0.961 . S
H1000 C998 0.961 . S
H1001 C998 0.960 . S
C1002 N1003 1.342 . S
C1002 C1006 1.401 . S
C1002 C1007 1.499 . S
N1003 Co986 1.989 . S
N1003 C1002 1.342 . S
N1003 N1004 1.388 . S
N1004 Co987 1.993 . S
N1004 N1003 1.388 . S
N1004 C1005 1.346 . S
C1005 N1004 1.346 . S
C1005 C1006 1.396 . S
C1005 C1015 1.510 . S
C1006 C1002 1.401 . S
C1006 C1005 1.396 . S
C1007 C1002 1.499 . S
C1007 H1008 0.959 . S
C1007 H1009 0.960 . S
C1007 H1010 0.961 . S
H1008 C1007 0.959 . S
H1009 C1007 0.960 . S
H1010 C1007 0.961 . S
O1011 Co986 1.967 . S
O1011 C1019 1.258 . S
O1012 Co987 1.941 . S
O1012 C1019 1.266 . S
H1013 C1015 0.959 . S
H1014 C1015 0.961 . S
C1015 C1005 1.510 . S
C1015 H1013 0.959 . S
C1015 H1014 0.961 . S
C1015 H1016 0.960 . S
H1016 C1015 0.960 . S
H1017 N997 0.862 . S
O1018 Co986 1.920 . S
O1018 C991 1.289 . S
C1019 O1011 1.258 . S
C1019 O1012 1.266 . S
Co1020 O1023 1.970 . S
Co1020 N1037 1.989 . S
Co1020 O1045 1.967 . S
Co1020 O1052 1.920 . S
Co1021 O1024 1.966 . S
Co1021 N1030 2.022 . S
Co1021 N1038 1.993 . S
Co1021 O1046 1.941 . S
C1022 O1023 1.258 . S
C1022 O1024 1.263 . S
O1023 Co1020 1.970 . S
O1023 C1022 1.258 . S
O1024 Co1021 1.966 . S
O1024 C1022 1.263 . S
C1025 O1026 1.235 . S
C1025 O1052 1.289 . S
O1026 C1025 1.235 . S
C1027 C1029 1.400 . S
C1027 N1030 1.351 . S
C1027 C1032 1.501 . S
C1028 C1029 1.387 . S
C1028 N1031 1.341 . S
C1029 C1027 1.400 . S
C1029 C1028 1.387 . S
N1030 Co1021 2.022 . S
N1030 C1027 1.351 . S
N1030 N1031 1.365 . S
N1031 C1028 1.341 . S
N1031 N1030 1.365 . S
N1031 H1051 0.862 . S
C1032 C1027 1.501 . S
C1032 H1033 0.961 . S
C1032 H1034 0.961 . S
C1032 H1035 0.960 . S
H1033 C1032 0.961 . S
H1034 C1032 0.961 . S
H1035 C1032 0.960 . S
C1036 N1037 1.342 . S
C1036 C1040 1.401 . S
C1036 C1041 1.499 . S
N1037 Co1020 1.989 . S
N1037 C1036 1.342 . S
N1037 N1038 1.388 . S
N1038 Co1021 1.993 . S
N1038 N1037 1.388 . S
N1038 C1039 1.346 . S
C1039 N1038 1.346 . S
C1039 C1040 1.396 . S
C1039 C1049 1.510 . S
C1040 C1036 1.401 . S
C1040 C1039 1.396 . S
C1041 C1036 1.499 . S
C1041 H1042 0.959 . S
C1041 H1043 0.960 . S
C1041 H1044 0.961 . S
H1042 C1041 0.959 . S
H1043 C1041 0.960 . S
H1044 C1041 0.961 . S
O1045 Co1020 1.967 . S
O1045 C1053 1.258 . S
O1046 Co1021 1.941 . S
O1046 C1053 1.266 . S
H1047 C1049 0.959 . S
H1048 C1049 0.961 . S
C1049 C1039 1.510 . S
C1049 H1047 0.959 . S
C1049 H1048 0.961 . S
C1049 H1050 0.960 . S
H1050 C1049 0.960 . S
H1051 N1031 0.862 . S
O1052 Co1020 1.920 . S
O1052 C1025 1.289 . S
C1053 O1045 1.258 . S
C1053 O1046 1.266 . S
Co1054 O1057 1.970 . S
Co1054 N1071 1.989 . S
Co1054 O1079 1.967 . S
Co1054 O1086 1.920 . S
Co1055 O1058 1.966 . S
Co1055 N1064 2.022 . S
Co1055 N1072 1.993 . S
Co1055 O1080 1.941 . S
C1056 O1057 1.258 . S
C1056 O1058 1.263 . S
O1057 Co1054 1.970 . S
O1057 C1056 1.258 . S
O1058 Co1055 1.966 . S
O1058 C1056 1.263 . S
C1059 O1060 1.235 . S
C1059 O1086 1.289 . S
O1060 C1059 1.235 . S
C1061 C1063 1.400 . S
C1061 N1064 1.351 . S
C1061 C1066 1.501 . S
C1062 C1063 1.387 . S
C1062 N1065 1.341 . S
C1063 C1061 1.400 . S
C1063 C1062 1.387 . S
N1064 Co1055 2.022 . S
N1064 C1061 1.351 . S
N1064 N1065 1.365 . S
N1065 C1062 1.341 . S
N1065 N1064 1.365 . S
N1065 H1085 0.862 . S
C1066 C1061 1.501 . S
C1066 H1067 0.961 . S
C1066 H1068 0.961 . S
C1066 H1069 0.960 . S
H1067 C1066 0.961 . S
H1068 C1066 0.961 . S
H1069 C1066 0.960 . S
C1070 N1071 1.342 . S
C1070 C1074 1.401 . S
C1070 C1075 1.499 . S
N1071 Co1054 1.989 . S
N1071 C1070 1.342 . S
N1071 N1072 1.388 . S
N1072 Co1055 1.993 . S
N1072 N1071 1.388 . S
N1072 C1073 1.346 . S
C1073 N1072 1.346 . S
C1073 C1074 1.396 . S
C1073 C1083 1.510 . S
C1074 C1070 1.401 . S
C1074 C1073 1.396 . S
C1075 C1070 1.499 . S
C1075 H1076 0.959 . S
C1075 H1077 0.960 . S
C1075 H1078 0.961 . S
H1076 C1075 0.959 . S
H1077 C1075 0.960 . S
H1078 C1075 0.961 . S
O1079 Co1054 1.967 . S
O1079 C1087 1.258 . S
O1080 Co1055 1.941 . S
O1080 C1087 1.266 . S
H1081 C1083 0.959 . S
H1082 C1083 0.961 . S
C1083 C1073 1.510 . S
C1083 H1081 0.959 . S
C1083 H1082 0.961 . S
C1083 H1084 0.960 . S
H1084 C1083 0.960 . S
H1085 N1065 0.862 . S
O1086 Co1054 1.920 . S
O1086 C1059 1.289 . S
C1087 O1079 1.258 . S
C1087 O1080 1.266 . S
Co1088 O1091 1.970 . S
Co1088 N1105 1.989 . S
Co1088 O1113 1.967 . S
Co1088 O1120 1.920 . S
Co1089 O1092 1.966 . S
Co1089 N1098 2.022 . S
Co1089 N1106 1.993 . S
Co1089 O1114 1.941 . S
C1090 O1091 1.258 . S
C1090 O1092 1.263 . S
O1091 Co1088 1.970 . S
O1091 C1090 1.258 . S
O1092 Co1089 1.966 . S
O1092 C1090 1.263 . S
C1093 O1094 1.235 . S
C1093 O1120 1.289 . S
O1094 C1093 1.235 . S
C1095 C1097 1.400 . S
C1095 N1098 1.351 . S
C1095 C1100 1.501 . S
C1096 C1097 1.387 . S
C1096 N1099 1.341 . S
C1097 C1095 1.400 . S
C1097 C1096 1.387 . S
N1098 Co1089 2.022 . S
N1098 C1095 1.351 . S
N1098 N1099 1.365 . S
N1099 C1096 1.341 . S
N1099 N1098 1.365 . S
N1099 H1119 0.862 . S
C1100 C1095 1.501 . S
C1100 H1101 0.961 . S
C1100 H1102 0.961 . S
C1100 H1103 0.960 . S
H1101 C1100 0.961 . S
H1102 C1100 0.961 . S
H1103 C1100 0.960 . S
C1104 N1105 1.342 . S
C1104 C1108 1.401 . S
C1104 C1109 1.499 . S
N1105 Co1088 1.989 . S
N1105 C1104 1.342 . S
N1105 N1106 1.388 . S
N1106 Co1089 1.993 . S
N1106 N1105 1.388 . S
N1106 C1107 1.346 . S
C1107 N1106 1.346 . S
C1107 C1108 1.396 . S
C1107 C1117 1.510 . S
C1108 C1104 1.401 . S
C1108 C1107 1.396 . S
C1109 C1104 1.499 . S
C1109 H1110 0.959 . S
C1109 H1111 0.960 . S
C1109 H1112 0.961 . S
H1110 C1109 0.959 . S
H1111 C1109 0.960 . S
H1112 C1109 0.961 . S
O1113 Co1088 1.967 . S
O1113 C1121 1.258 . S
O1114 Co1089 1.941 . S
O1114 C1121 1.266 . S
H1115 C1117 0.959 . S
H1116 C1117 0.961 . S
C1117 C1107 1.510 . S
C1117 H1115 0.959 . S
C1117 H1116 0.961 . S
C1117 H1118 0.960 . S
H1118 C1117 0.960 . S
H1119 N1099 0.862 . S
O1120 Co1088 1.920 . S
O1120 C1093 1.289 . S
C1121 O1113 1.258 . S
C1121 O1114 1.266 . S
Co1122 O1125 1.970 . S
Co1122 N1139 1.989 . S
Co1122 O1147 1.967 . S
Co1122 O1154 1.920 . S
Co1123 O1126 1.966 . S
Co1123 N1132 2.022 . S
Co1123 N1140 1.993 . S
Co1123 O1148 1.941 . S
C1124 O1125 1.258 . S
C1124 O1126 1.263 . S
O1125 Co1122 1.970 . S
O1125 C1124 1.258 . S
O1126 Co1123 1.966 . S
O1126 C1124 1.263 . S
C1127 O1128 1.235 . S
C1127 O1154 1.289 . S
O1128 C1127 1.235 . S
C1129 C1131 1.400 . S
C1129 N1132 1.351 . S
C1129 C1134 1.501 . S
C1130 C1131 1.387 . S
C1130 N1133 1.341 . S
C1131 C1129 1.400 . S
C1131 C1130 1.387 . S
N1132 Co1123 2.022 . S
N1132 C1129 1.351 . S
N1132 N1133 1.365 . S
N1133 C1130 1.341 . S
N1133 N1132 1.365 . S
N1133 H1153 0.862 . S
C1134 C1129 1.501 . S
C1134 H1135 0.961 . S
C1134 H1136 0.961 . S
C1134 H1137 0.960 . S
H1135 C1134 0.961 . S
H1136 C1134 0.961 . S
H1137 C1134 0.960 . S
C1138 N1139 1.342 . S
C1138 C1142 1.401 . S
C1138 C1143 1.499 . S
N1139 Co1122 1.989 . S
N1139 C1138 1.342 . S
N1139 N1140 1.388 . S
N1140 Co1123 1.993 . S
N1140 N1139 1.388 . S
N1140 C1141 1.346 . S
C1141 N1140 1.346 . S
C1141 C1142 1.396 . S
C1141 C1151 1.510 . S
C1142 C1138 1.401 . S
C1142 C1141 1.396 . S
C1143 C1138 1.499 . S
C1143 H1144 0.959 . S
C1143 H1145 0.960 . S
C1143 H1146 0.961 . S
H1144 C1143 0.959 . S
H1145 C1143 0.960 . S
H1146 C1143 0.961 . S
O1147 Co1122 1.967 . S
O1147 C1155 1.258 . S
O1148 Co1123 1.941 . S
O1148 C1155 1.266 . S
H1149 C1151 0.959 . S
H1150 C1151 0.961 . S
C1151 C1141 1.510 . S
C1151 H1149 0.959 . S
C1151 H1150 0.961 . S
C1151 H1152 0.960 . S
H1152 C1151 0.960 . S
H1153 N1133 0.862 . S
O1154 Co1122 1.920 . S
O1154 C1127 1.289 . S
C1155 O1147 1.258 . S
C1155 O1148 1.266 . S
Co1156 O1159 1.970 . S
Co1156 N1173 1.989 . S
Co1156 O1181 1.967 . S
Co1156 O1188 1.920 . S
Co1157 O1160 1.966 . S
Co1157 N1166 2.022 . S
Co1157 N1174 1.993 . S
Co1157 O1182 1.941 . S
C1158 O1159 1.258 . S
C1158 O1160 1.263 . S
O1159 Co1156 1.970 . S
O1159 C1158 1.258 . S
O1160 Co1157 1.966 . S
O1160 C1158 1.263 . S
C1161 O1162 1.235 . S
C1161 O1188 1.289 . S
O1162 C1161 1.235 . S
C1163 C1165 1.400 . S
C1163 N1166 1.351 . S
C1163 C1168 1.501 . S
C1164 C1165 1.387 . S
C1164 N1167 1.341 . S
C1165 C1163 1.400 . S
C1165 C1164 1.387 . S
N1166 Co1157 2.022 . S
N1166 C1163 1.351 . S
N1166 N1167 1.365 . S
N1167 C1164 1.341 . S
N1167 N1166 1.365 . S
N1167 H1187 0.862 . S
C1168 C1163 1.501 . S
C1168 H1169 0.961 . S
C1168 H1170 0.961 . S
C1168 H1171 0.960 . S
H1169 C1168 0.961 . S
H1170 C1168 0.961 . S
H1171 C1168 0.960 . S
C1172 N1173 1.342 . S
C1172 C1176 1.401 . S
C1172 C1177 1.499 . S
N1173 Co1156 1.989 . S
N1173 C1172 1.342 . S
N1173 N1174 1.388 . S
N1174 Co1157 1.993 . S
N1174 N1173 1.388 . S
N1174 C1175 1.346 . S
C1175 N1174 1.346 . S
C1175 C1176 1.396 . S
C1175 C1185 1.510 . S
C1176 C1172 1.401 . S
C1176 C1175 1.396 . S
C1177 C1172 1.499 . S
C1177 H1178 0.959 . S
C1177 H1179 0.960 . S
C1177 H1180 0.961 . S
H1178 C1177 0.959 . S
H1179 C1177 0.960 . S
H1180 C1177 0.961 . S
O1181 Co1156 1.967 . S
O1181 C1189 1.258 . S
O1182 Co1157 1.941 . S
O1182 C1189 1.266 . S
H1183 C1185 0.959 . S
H1184 C1185 0.961 . S
C1185 C1175 1.510 . S
C1185 H1183 0.959 . S
C1185 H1184 0.961 . S
C1185 H1186 0.960 . S
H1186 C1185 0.960 . S
H1187 N1167 0.862 . S
O1188 Co1156 1.920 . S
O1188 C1161 1.289 . S
C1189 O1181 1.258 . S
C1189 O1182 1.266 . S
Co1190 O1193 1.970 . S
Co1190 N1207 1.989 . S
Co1190 O1215 1.967 . S
Co1190 O1222 1.920 . S
Co1191 O1194 1.966 . S
Co1191 N1200 2.022 . S
Co1191 N1208 1.993 . S
Co1191 O1216 1.941 . S
C1192 O1193 1.258 . S
C1192 O1194 1.263 . S
O1193 Co1190 1.970 . S
O1193 C1192 1.258 . S
O1194 Co1191 1.966 . S
O1194 C1192 1.263 . S
C1195 O1196 1.235 . S
C1195 O1222 1.289 . S
O1196 C1195 1.235 . S
C1197 C1199 1.400 . S
C1197 N1200 1.351 . S
C1197 C1202 1.501 . S
C1198 C1199 1.387 . S
C1198 N1201 1.341 . S
C1199 C1197 1.400 . S
C1199 C1198 1.387 . S
N1200 Co1191 2.022 . S
N1200 C1197 1.351 . S
N1200 N1201 1.365 . S
N1201 C1198 1.341 . S
N1201 N1200 1.365 . S
N1201 H1221 0.862 . S
C1202 C1197 1.501 . S
C1202 H1203 0.961 . S
C1202 H1204 0.961 . S
C1202 H1205 0.960 . S
H1203 C1202 0.961 . S
H1204 C1202 0.961 . S
H1205 C1202 0.960 . S
C1206 N1207 1.342 . S
C1206 C1210 1.401 . S
C1206 C1211 1.499 . S
N1207 Co1190 1.989 . S
N1207 C1206 1.342 . S
N1207 N1208 1.388 . S
N1208 Co1191 1.993 . S
N1208 N1207 1.388 . S
N1208 C1209 1.346 . S
C1209 N1208 1.346 . S
C1209 C1210 1.396 . S
C1209 C1219 1.510 . S
C1210 C1206 1.401 . S
C1210 C1209 1.396 . S
C1211 C1206 1.499 . S
C1211 H1212 0.959 . S
C1211 H1213 0.960 . S
C1211 H1214 0.961 . S
H1212 C1211 0.959 . S
H1213 C1211 0.960 . S
H1214 C1211 0.961 . S
O1215 Co1190 1.967 . S
O1215 C1223 1.258 . S
O1216 Co1191 1.941 . S
O1216 C1223 1.266 . S
H1217 C1219 0.959 . S
H1218 C1219 0.961 . S
C1219 C1209 1.510 . S
C1219 H1217 0.959 . S
C1219 H1218 0.961 . S
C1219 H1220 0.960 . S
H1220 C1219 0.960 . S
H1221 N1201 0.862 . S
O1222 Co1190 1.920 . S
O1222 C1195 1.289 . S
C1223 O1215 1.258 . S
C1223 O1216 1.266 . S
C1224 C1225 1.369 1_554 S
C1224 C1226 1.419 . S
C1224 H1228 0.930 . S
C1225 C1224 1.369 1_556 S
C1225 C1234 1.429 . S
C1226 C1224 1.419 . S
C1226 C1227 1.363 . S
C1226 H1229 0.929 . S
C1227 C1226 1.363 . S
C1227 C1233 1.428 1_554 S
H1228 C1224 0.930 . S
H1229 C1226 0.929 . S
S1230 N1231 1.613 . S
S1230 N1232 1.610 . S
N1231 S1230 1.613 . S
N1231 C1234 1.350 . S
N1232 S1230 1.610 . S
N1232 C1233 1.351 . S
C1233 C1227 1.428 1_556 S
C1233 N1232 1.351 . S
C1233 C1234 1.434 . S
C1234 C1225 1.429 . S
C1234 N1231 1.350 . S
C1234 C1233 1.434 . S
C1235 C1236 1.369 . S
C1235 C1237 1.419 . S
C1235 H1239 0.930 . S
C1236 C1235 1.369 . S
C1236 C1245 1.429 . S
C1237 C1235 1.419 . S
C1237 C1238 1.363 1_554 S
C1237 H1240 0.929 . S
C1238 C1237 1.363 1_556 S
C1238 C1244 1.428 . S
H1239 C1235 0.930 . S
H1240 C1237 0.929 . S
S1241 N1242 1.613 . S
S1241 N1243 1.610 . S
N1242 S1241 1.613 . S
N1242 C1245 1.350 1_556 S
N1243 S1241 1.610 . S
N1243 C1244 1.351 . S
C1244 C1238 1.428 . S
C1244 N1243 1.351 . S
C1244 C1245 1.434 1_556 S
C1245 C1236 1.429 . S
C1245 N1242 1.350 1_554 S
C1245 C1244 1.434 1_554 S
C1246 C1247 1.369 1_554 S
C1246 C1248 1.419 . S
C1246 H1250 0.930 . S
C1247 C1246 1.369 1_556 S
C1247 C1256 1.429 . S
C1248 C1246 1.419 . S
C1248 C1249 1.363 . S
C1248 H1251 0.929 . S
C1249 C1248 1.363 . S
C1249 C1255 1.428 1_554 S
H1250 C1246 0.930 . S
H1251 C1248 0.929 . S
S1252 N1253 1.613 . S
S1252 N1254 1.610 . S
N1253 S1252 1.613 . S
N1253 C1256 1.350 . S
N1254 S1252 1.610 . S
N1254 C1255 1.351 . S
C1255 C1249 1.428 1_556 S
C1255 N1254 1.351 . S
C1255 C1256 1.434 . S
C1256 C1247 1.429 . S
C1256 N1253 1.350 . S
C1256 C1255 1.434 . S
C1257 C1258 1.369 . S
C1257 C1259 1.419 . S
C1257 H1261 0.930 . S
C1258 C1257 1.369 . S
C1258 C1267 1.429 . S
C1259 C1257 1.419 . S
C1259 C1260 1.363 . S
C1259 H1262 0.929 . S
C1260 C1259 1.363 . S
C1260 C1266 1.428 . S
H1261 C1257 0.930 . S
H1262 C1259 0.929 . S
S1263 N1264 1.613 . S
S1263 N1265 1.610 . S
N1264 S1263 1.613 . S
N1264 C1267 1.350 . S
N1265 S1263 1.610 . S
N1265 C1266 1.351 . S
C1266 C1260 1.428 . S
C1266 N1265 1.351 . S
C1266 C1267 1.434 . S
C1267 C1258 1.429 . S
C1267 N1264 1.350 . S
C1267 C1266 1.434 . S
C1268 C1269 1.369 . S
C1268 C1270 1.419 . S
C1268 H1272 0.930 . S
C1269 C1268 1.369 . S
C1269 C1278 1.429 . S
C1270 C1268 1.419 . S
C1270 C1271 1.363 . S
C1270 H1273 0.929 . S
C1271 C1270 1.363 . S
C1271 C1277 1.428 . S
H1272 C1268 0.930 . S
H1273 C1270 0.929 . S
S1274 N1275 1.613 . S
S1274 N1276 1.610 . S
N1275 S1274 1.613 . S
N1275 C1278 1.350 . S
N1276 S1274 1.610 . S
N1276 C1277 1.351 . S
C1277 C1271 1.428 . S
C1277 N1276 1.351 . S
C1277 C1278 1.434 . S
C1278 C1269 1.429 . S
C1278 N1275 1.350 . S
C1278 C1277 1.434 . S
C1279 C1280 1.369 . S
C1279 C1281 1.419 . S
C1279 H1283 0.930 . S
C1280 C1279 1.369 . S
C1280 C1289 1.429 . S
C1281 C1279 1.419 . S
C1281 C1282 1.363 . S
C1281 H1284 0.929 . S
C1282 C1281 1.363 . S
C1282 C1288 1.428 . S
H1283 C1279 0.930 . S
H1284 C1281 0.929 . S
S1285 N1286 1.613 . S
S1285 N1287 1.610 . S
N1286 S1285 1.613 . S
N1286 C1289 1.350 . S
N1287 S1285 1.610 . S
N1287 C1288 1.351 . S
C1288 C1282 1.428 . S
C1288 N1287 1.351 . S
C1288 C1289 1.434 . S
C1289 C1280 1.429 . S
C1289 N1286 1.350 . S
C1289 C1288 1.434 . S
C1290 C1291 1.369 . S
C1290 C1292 1.419 . S
C1290 H1294 0.930 . S
C1291 C1290 1.369 . S
C1291 C1300 1.429 1_556 S
C1292 C1290 1.419 . S
C1292 C1293 1.363 1_556 S
C1292 H1295 0.929 . S
C1293 C1292 1.363 1_554 S
C1293 C1299 1.428 . S
H1294 C1290 0.930 . S
H1295 C1292 0.929 . S
S1296 N1297 1.613 . S
S1296 N1298 1.610 . S
N1297 S1296 1.613 . S
N1297 C1300 1.350 . S
N1298 S1296 1.610 . S
N1298 C1299 1.351 . S
C1299 C1293 1.428 . S
C1299 N1298 1.351 . S
C1299 C1300 1.434 . S
C1300 C1291 1.429 1_554 S
C1300 N1297 1.350 . S
C1300 C1299 1.434 . S
C1301 C1302 1.369 . S
C1301 C1303 1.419 1_556 S
C1301 H1305 0.930 . S
C1302 C1301 1.369 . S
C1302 C1311 1.429 . S
C1303 C1301 1.419 1_554 S
C1303 C1304 1.363 . S
C1303 H1306 0.929 . S
C1304 C1303 1.363 . S
C1304 C1310 1.428 1_554 S
H1305 C1301 0.930 . S
H1306 C1303 0.929 . S
S1307 N1308 1.613 . S
S1307 N1309 1.610 . S
N1308 S1307 1.613 . S
N1308 C1311 1.350 . S
N1309 S1307 1.610 . S
N1309 C1310 1.351 . S
C1310 C1304 1.428 1_556 S
C1310 N1309 1.351 . S
C1310 C1311 1.434 . S
C1311 C1302 1.429 . S
C1311 N1308 1.350 . S
C1311 C1310 1.434 . S
C1312 C1313 1.369 . S
C1312 C1314 1.419 . S
C1312 H1316 0.930 . S
C1313 C1312 1.369 . S
C1313 C1322 1.429 1_556 S
C1314 C1312 1.419 . S
C1314 C1315 1.363 1_556 S
C1314 H1317 0.929 . S
C1315 C1314 1.363 1_554 S
C1315 C1321 1.428 . S
H1316 C1312 0.930 . S
H1317 C1314 0.929 . S
S1318 N1319 1.613 . S
S1318 N1320 1.610 . S
N1319 S1318 1.613 . S
N1319 C1322 1.350 . S
N1320 S1318 1.610 . S
N1320 C1321 1.351 . S
C1321 C1315 1.428 . S
C1321 N1320 1.351 . S
C1321 C1322 1.434 . S
C1322 C1313 1.429 1_554 S
C1322 N1319 1.350 . S
C1322 C1321 1.434 . S
C1323 C1324 1.369 . S
C1323 C1325 1.419 . S
C1323 H1327 0.930 . S
C1324 C1323 1.369 . S
C1324 C1333 1.429 . S
C1325 C1323 1.419 . S
C1325 C1326 1.363 . S
C1325 H1328 0.929 . S
C1326 C1325 1.363 . S
C1326 C1332 1.428 . S
H1327 C1323 0.930 . S
H1328 C1325 0.929 . S
S1329 N1330 1.613 . S
S1329 N1331 1.610 . S
N1330 S1329 1.613 . S
N1330 C1333 1.350 . S
N1331 S1329 1.610 . S
N1331 C1332 1.351 . S
C1332 C1326 1.428 . S
C1332 N1331 1.351 . S
C1332 C1333 1.434 . S
C1333 C1324 1.429 . S
C1333 N1330 1.350 . S
C1333 C1332 1.434 . S
C1334 C1335 1.369 . S
C1334 C1336 1.419 . S
C1334 H1338 0.930 . S
C1335 C1334 1.369 . S
C1335 C1344 1.429 . S
C1336 C1334 1.419 . S
C1336 C1337 1.363 . S
C1336 H1339 0.929 . S
C1337 C1336 1.363 . S
C1337 C1343 1.428 . S
H1338 C1334 0.930 . S
H1339 C1336 0.929 . S
S1340 N1341 1.613 . S
S1340 N1342 1.610 . S
N1341 S1340 1.613 . S
N1341 C1344 1.350 . S
N1342 S1340 1.610 . S
N1342 C1343 1.351 . S
C1343 C1337 1.428 . S
C1343 N1342 1.351 . S
C1343 C1344 1.434 . S
C1344 C1335 1.429 . S
C1344 N1341 1.350 . S
C1344 C1343 1.434 . S
C1345 C1346 1.369 . S
C1345 C1347 1.419 . S
C1345 H1349 0.930 . S
C1346 C1345 1.369 . S
C1346 C1355 1.429 . S
C1347 C1345 1.419 . S
C1347 C1348 1.363 . S
C1347 H1350 0.929 . S
C1348 C1347 1.363 . S
C1348 C1354 1.428 . S
H1349 C1345 0.930 . S
H1350 C1347 0.929 . S
S1351 N1352 1.613 . S
S1351 N1353 1.610 . S
N1352 S1351 1.613 . S
N1352 C1355 1.350 . S
N1353 S1351 1.610 . S
N1353 C1354 1.351 . S
C1354 C1348 1.428 . S
C1354 N1353 1.351 . S
C1354 C1355 1.434 . S
C1355 C1346 1.429 . S
C1355 N1352 1.350 . S
C1355 C1354 1.434 . S
C1356 C1357 1.369 . S
C1356 C1358 1.419 . S
C1356 H1360 0.930 . S
C1357 C1356 1.369 . S
C1357 C1366 1.429 . S
C1358 C1356 1.419 . S
C1358 C1359 1.363 . S
C1358 H1361 0.929 . S
C1359 C1358 1.363 . S
C1359 C1365 1.428 . S
H1360 C1356 0.930 . S
H1361 C1358 0.929 . S
S1362 N1363 1.613 . S
S1362 N1364 1.610 . S
N1363 S1362 1.613 . S
N1363 C1366 1.350 . S
N1364 S1362 1.610 . S
N1364 C1365 1.351 . S
C1365 C1359 1.428 . S
C1365 N1364 1.351 . S
C1365 C1366 1.434 . S
C1366 C1357 1.429 . S
C1366 N1363 1.350 . S
C1366 C1365 1.434 . S
C1367 C1368 1.369 . S
C1367 C1369 1.419 . S
C1367 H1371 0.930 . S
C1368 C1367 1.369 . S
C1368 C1377 1.429 . S
C1369 C1367 1.419 . S
C1369 C1370 1.363 . S
C1369 H1372 0.929 . S
C1370 C1369 1.363 . S
C1370 C1376 1.428 . S
H1371 C1367 0.930 . S
H1372 C1369 0.929 . S
S1373 N1374 1.613 . S
S1373 N1375 1.610 . S
N1374 S1373 1.613 . S
N1374 C1377 1.350 . S
N1375 S1373 1.610 . S
N1375 C1376 1.351 . S
C1376 C1370 1.428 . S
C1376 N1375 1.351 . S
C1376 C1377 1.434 . S
C1377 C1368 1.429 . S
C1377 N1374 1.350 . S
C1377 C1376 1.434 . S
C1378 C1379 1.369 . S
C1378 C1380 1.419 . S
C1378 H1382 0.930 . S
C1379 C1378 1.369 . S
C1379 C1388 1.429 . S
C1380 C1378 1.419 . S
C1380 C1381 1.363 . S
C1380 H1383 0.929 . S
C1381 C1380 1.363 . S
C1381 C1387 1.428 . S
H1382 C1378 0.930 . S
H1383 C1380 0.929 . S
S1384 N1385 1.613 . S
S1384 N1386 1.610 . S
N1385 S1384 1.613 . S
N1385 C1388 1.350 . S
N1386 S1384 1.610 . S
N1386 C1387 1.351 . S
C1387 C1381 1.428 . S
C1387 N1386 1.351 . S
C1387 C1388 1.434 . S
C1388 C1379 1.429 . S
C1388 N1385 1.350 . S
C1388 C1387 1.434 . S
C1389 C1390 1.369 . S
C1389 C1391 1.419 . S
C1389 H1393 0.930 . S
C1390 C1389 1.369 . S
C1390 C1399 1.429 . S
C1391 C1389 1.419 . S
C1391 C1392 1.363 . S
C1391 H1394 0.929 . S
C1392 C1391 1.363 . S
C1392 C1398 1.428 . S
H1393 C1389 0.930 . S
H1394 C1391 0.929 . S
S1395 N1396 1.613 . S
S1395 N1397 1.610 . S
N1396 S1395 1.613 . S
N1396 C1399 1.350 . S
N1397 S1395 1.610 . S
N1397 C1398 1.351 . S
C1398 C1392 1.428 . S
C1398 N1397 1.351 . S
C1398 C1399 1.434 . S
C1399 C1390 1.429 . S
C1399 N1396 1.350 . S
C1399 C1398 1.434 . S
C1400 C1401 1.369 . S
C1400 C1402 1.419 . S
C1400 H1404 0.930 . S
C1401 C1400 1.369 . S
C1401 C1410 1.429 . S
C1402 C1400 1.419 . S
C1402 C1403 1.363 . S
C1402 H1405 0.929 . S
C1403 C1402 1.363 . S
C1403 C1409 1.428 . S
H1404 C1400 0.930 . S
H1405 C1402 0.929 . S
S1406 N1407 1.613 . S
S1406 N1408 1.610 . S
N1407 S1406 1.613 . S
N1407 C1410 1.350 . S
N1408 S1406 1.610 . S
N1408 C1409 1.351 . S
C1409 C1403 1.428 . S
C1409 N1408 1.351 . S
C1409 C1410 1.434 . S
C1410 C1401 1.429 . S
C1410 N1407 1.350 . S
C1410 C1409 1.434 . S
C1411 C1412 1.369 . S
C1411 C1413 1.419 . S
C1411 H1415 0.930 . S
C1412 C1411 1.369 . S
C1412 C1421 1.429 . S
C1413 C1411 1.419 . S
C1413 C1414 1.363 . S
C1413 H1416 0.929 . S
C1414 C1413 1.363 . S
C1414 C1420 1.428 . S
H1415 C1411 0.930 . S
H1416 C1413 0.929 . S
S1417 N1418 1.613 . S
S1417 N1419 1.610 . S
N1418 S1417 1.613 . S
N1418 C1421 1.350 . S
N1419 S1417 1.610 . S
N1419 C1420 1.351 . S
C1420 C1414 1.428 . S
C1420 N1419 1.351 . S
C1420 C1421 1.434 . S
C1421 C1412 1.429 . S
C1421 N1418 1.350 . S
C1421 C1420 1.434 . S
C1422 C1423 1.369 . S
C1422 C1424 1.419 . S
C1422 H1426 0.930 . S
C1423 C1422 1.369 . S
C1423 C1432 1.429 . S
C1424 C1422 1.419 . S
C1424 C1425 1.363 . S
C1424 H1427 0.929 . S
C1425 C1424 1.363 . S
C1425 C1431 1.428 . S
H1426 C1422 0.930 . S
H1427 C1424 0.929 . S
S1428 N1429 1.613 . S
S1428 N1430 1.610 . S
N1429 S1428 1.613 . S
N1429 C1432 1.350 . S
N1430 S1428 1.610 . S
N1430 C1431 1.351 . S
C1431 C1425 1.428 . S
C1431 N1430 1.351 . S
C1431 C1432 1.434 . S
C1432 C1423 1.429 . S
C1432 N1429 1.350 . S
C1432 C1431 1.434 . S
C1433 C1434 1.369 . S
C1433 C1435 1.419 . S
C1433 H1437 0.930 . S
C1434 C1433 1.369 . S
C1434 C1443 1.429 . S
C1435 C1433 1.419 . S
C1435 C1436 1.363 . S
C1435 H1438 0.929 . S
C1436 C1435 1.363 . S
C1436 C1442 1.428 . S
H1437 C1433 0.930 . S
H1438 C1435 0.929 . S
S1439 N1440 1.613 . S
S1439 N1441 1.610 . S
N1440 S1439 1.613 . S
N1440 C1443 1.350 . S
N1441 S1439 1.610 . S
N1441 C1442 1.351 . S
C1442 C1436 1.428 . S
C1442 N1441 1.351 . S
C1442 C1443 1.434 . S
C1443 C1434 1.429 . S
C1443 N1440 1.350 . S
C1443 C1442 1.434 . S
C1444 C1445 1.369 . S
C1444 C1446 1.419 . S
C1444 H1448 0.930 . S
C1445 C1444 1.369 . S
C1445 C1454 1.429 . S
C1446 C1444 1.419 . S
C1446 C1447 1.363 . S
C1446 H1449 0.929 . S
C1447 C1446 1.363 . S
C1447 C1453 1.428 . S
H1448 C1444 0.930 . S
H1449 C1446 0.929 . S
S1450 N1451 1.613 . S
S1450 N1452 1.610 . S
N1451 S1450 1.613 . S
N1451 C1454 1.350 . S
N1452 S1450 1.610 . S
N1452 C1453 1.351 . S
C1453 C1447 1.428 . S
C1453 N1452 1.351 . S
C1453 C1454 1.434 . S
C1454 C1445 1.429 . S
C1454 N1451 1.350 . S
C1454 C1453 1.434 . S
C1455 C1456 1.369 . S
C1455 C1457 1.419 . S
C1455 H1459 0.930 . S
C1456 C1455 1.369 . S
C1456 C1465 1.429 . S
C1457 C1455 1.419 . S
C1457 C1458 1.363 . S
C1457 H1460 0.929 . S
C1458 C1457 1.363 . S
C1458 C1464 1.428 . S
H1459 C1455 0.930 . S
H1460 C1457 0.929 . S
S1461 N1462 1.613 . S
S1461 N1463 1.610 . S
N1462 S1461 1.613 . S
N1462 C1465 1.350 . S
N1463 S1461 1.610 . S
N1463 C1464 1.351 . S
C1464 C1458 1.428 . S
C1464 N1463 1.351 . S
C1464 C1465 1.434 . S
C1465 C1456 1.429 . S
C1465 N1462 1.350 . S
C1465 C1464 1.434 . S
C1466 C1467 1.369 . S
C1466 C1468 1.419 . S
C1466 H1470 0.930 . S
C1467 C1466 1.369 . S
C1467 C1476 1.429 . S
C1468 C1466 1.419 . S
C1468 C1469 1.363 . S
C1468 H1471 0.929 . S
C1469 C1468 1.363 . S
C1469 C1475 1.428 . S
H1470 C1466 0.930 . S
H1471 C1468 0.929 . S
S1472 N1473 1.613 . S
S1472 N1474 1.610 . S
N1473 S1472 1.613 . S
N1473 C1476 1.350 . S
N1474 S1472 1.610 . S
N1474 C1475 1.351 . S
C1475 C1469 1.428 . S
C1475 N1474 1.351 . S
C1475 C1476 1.434 . S
C1476 C1467 1.429 . S
C1476 N1473 1.350 . S
C1476 C1475 1.434 . S
C1477 C1478 1.369 . S
C1477 C1479 1.419 . S
C1477 H1481 0.930 . S
C1478 C1477 1.369 . S
C1478 C1487 1.429 . S
C1479 C1477 1.419 . S
C1479 C1480 1.363 . S
C1479 H1482 0.929 . S
C1480 C1479 1.363 . S
C1480 C1486 1.428 . S
H1481 C1477 0.930 . S
H1482 C1479 0.929 . S
S1483 N1484 1.613 . S
S1483 N1485 1.610 . S
N1484 S1483 1.613 . S
N1484 C1487 1.350 . S
N1485 S1483 1.610 . S
N1485 C1486 1.351 . S
C1486 C1480 1.428 . S
C1486 N1485 1.351 . S
C1486 C1487 1.434 . S
C1487 C1478 1.429 . S
C1487 N1484 1.350 . S
C1487 C1486 1.434 . S
C1488 C1489 1.369 . S
C1488 C1490 1.419 . S
C1488 H1492 0.930 . S
C1489 C1488 1.369 . S
C1489 C1498 1.429 . S
C1490 C1488 1.419 . S
C1490 C1491 1.363 . S
C1490 H1493 0.929 . S
C1491 C1490 1.363 . S
C1491 C1497 1.428 . S
H1492 C1488 0.930 . S
H1493 C1490 0.929 . S
S1494 N1495 1.613 . S
S1494 N1496 1.610 . S
N1495 S1494 1.613 . S
N1495 C1498 1.350 . S
N1496 S1494 1.610 . S
N1496 C1497 1.351 . S
C1497 C1491 1.428 . S
C1497 N1496 1.351 . S
C1497 C1498 1.434 . S
C1498 C1489 1.429 . S
C1498 N1495 1.350 . S
C1498 C1497 1.434 . S
C1499 C1500 1.369 . S
C1499 C1501 1.419 . S
C1499 H1503 0.930 . S
C1500 C1499 1.369 . S
C1500 C1509 1.429 . S
C1501 C1499 1.419 . S
C1501 C1502 1.363 . S
C1501 H1504 0.929 . S
C1502 C1501 1.363 . S
C1502 C1508 1.428 . S
H1503 C1499 0.930 . S
H1504 C1501 0.929 . S
S1505 N1506 1.613 . S
S1505 N1507 1.610 . S
N1506 S1505 1.613 . S
N1506 C1509 1.350 . S
N1507 S1505 1.610 . S
N1507 C1508 1.351 . S
C1508 C1502 1.428 . S
C1508 N1507 1.351 . S
C1508 C1509 1.434 . S
C1509 C1500 1.429 . S
C1509 N1506 1.350 . S
C1509 C1508 1.434 . S
C1510 C1511 1.369 . S
C1510 C1512 1.419 . S
C1510 H1514 0.930 . S
C1511 C1510 1.369 . S
C1511 C1520 1.429 . S
C1512 C1510 1.419 . S
C1512 C1513 1.363 . S
C1512 H1515 0.929 . S
C1513 C1512 1.363 . S
C1513 C1519 1.428 . S
H1514 C1510 0.930 . S
H1515 C1512 0.929 . S
S1516 N1517 1.613 . S
S1516 N1518 1.610 . S
N1517 S1516 1.613 . S
N1517 C1520 1.350 . S
N1518 S1516 1.610 . S
N1518 C1519 1.351 . S
C1519 C1513 1.428 . S
C1519 N1518 1.351 . S
C1519 C1520 1.434 . S
C1520 C1511 1.429 . S
C1520 N1517 1.350 . S
C1520 C1519 1.434 . S
C1521 C1522 1.369 . S
C1521 C1523 1.419 . S
C1521 H1525 0.930 . S
C1522 C1521 1.369 . S
C1522 C1531 1.429 . S
C1523 C1521 1.419 . S
C1523 C1524 1.363 . S
C1523 H1526 0.929 . S
C1524 C1523 1.363 . S
C1524 C1530 1.428 . S
H1525 C1521 0.930 . S
H1526 C1523 0.929 . S
S1527 N1528 1.613 . S
S1527 N1529 1.610 . S
N1528 S1527 1.613 . S
N1528 C1531 1.350 . S
N1529 S1527 1.610 . S
N1529 C1530 1.351 . S
C1530 C1524 1.428 . S
C1530 N1529 1.351 . S
C1530 C1531 1.434 . S
C1531 C1522 1.429 . S
C1531 N1528 1.350 . S
C1531 C1530 1.434 . S
C1532 C1533 1.369 . S
C1532 C1534 1.419 . S
C1532 H1536 0.930 . S
C1533 C1532 1.369 . S
C1533 C1542 1.429 . S
C1534 C1532 1.419 . S
C1534 C1535 1.363 . S
C1534 H1537 0.929 . S
C1535 C1534 1.363 . S
C1535 C1541 1.428 . S
H1536 C1532 0.930 . S
H1537 C1534 0.929 . S
S1538 N1539 1.613 . S
S1538 N1540 1.610 . S
N1539 S1538 1.613 . S
N1539 C1542 1.350 . S
N1540 S1538 1.610 . S
N1540 C1541 1.351 . S
C1541 C1535 1.428 . S
C1541 N1540 1.351 . S
C1541 C1542 1.434 . S
C1542 C1533 1.429 . S
C1542 N1539 1.350 . S
C1542 C1541 1.434 . S
C1543 C1544 1.369 . S
C1543 C1545 1.419 . S
C1543 H1547 0.930 . S
C1544 C1543 1.369 . S
C1544 C1553 1.429 . S
C1545 C1543 1.419 . S
C1545 C1546 1.363 . S
C1545 H1548 0.929 . S
C1546 C1545 1.363 . S
C1546 C1552 1.428 . S
H1547 C1543 0.930 . S
H1548 C1545 0.929 . S
S1549 N1550 1.613 . S
S1549 N1551 1.610 . S
N1550 S1549 1.613 . S
N1550 C1553 1.350 . S
N1551 S1549 1.610 . S
N1551 C1552 1.351 . S
C1552 C1546 1.428 . S
C1552 N1551 1.351 . S
C1552 C1553 1.434 . S
C1553 C1544 1.429 . S
C1553 N1550 1.350 . S
C1553 C1552 1.434 . S
C1554 C1555 1.369 . S
C1554 C1556 1.419 . S
C1554 H1558 0.930 . S
C1555 C1554 1.369 . S
C1555 C1564 1.429 . S
C1556 C1554 1.419 . S
C1556 C1557 1.363 . S
C1556 H1559 0.929 . S
C1557 C1556 1.363 . S
C1557 C1563 1.428 . S
H1558 C1554 0.930 . S
H1559 C1556 0.929 . S
S1560 N1561 1.613 . S
S1560 N1562 1.610 . S
N1561 S1560 1.613 . S
N1561 C1564 1.350 . S
N1562 S1560 1.610 . S
N1562 C1563 1.351 . S
C1563 C1557 1.428 . S
C1563 N1562 1.351 . S
C1563 C1564 1.434 . S
C1564 C1555 1.429 . S
C1564 N1561 1.350 . S
C1564 C1563 1.434 . S
C1565 C1566 1.369 . S
C1565 C1567 1.419 . S
C1565 H1569 0.930 . S
C1566 C1565 1.369 . S
C1566 C1575 1.429 . S
C1567 C1565 1.419 . S
C1567 C1568 1.363 . S
C1567 H1570 0.929 . S
C1568 C1567 1.363 . S
C1568 C1574 1.428 . S
H1569 C1565 0.930 . S
H1570 C1567 0.929 . S
S1571 N1572 1.613 . S
S1571 N1573 1.610 . S
N1572 S1571 1.613 . S
N1572 C1575 1.350 . S
N1573 S1571 1.610 . S
N1573 C1574 1.351 . S
C1574 C1568 1.428 . S
C1574 N1573 1.351 . S
C1574 C1575 1.434 . S
C1575 C1566 1.429 . S
C1575 N1572 1.350 . S
C1575 C1574 1.434 . S
C1576 C1577 1.369 . S
C1576 C1578 1.419 . S
C1576 H1580 0.930 . S
C1577 C1576 1.369 . S
C1577 C1586 1.429 . S
C1578 C1576 1.419 . S
C1578 C1579 1.363 . S
C1578 H1581 0.929 . S
C1579 C1578 1.363 . S
C1579 C1585 1.428 . S
H1580 C1576 0.930 . S
H1581 C1578 0.929 . S
S1582 N1583 1.613 . S
S1582 N1584 1.610 . S
N1583 S1582 1.613 . S
N1583 C1586 1.350 . S
N1584 S1582 1.610 . S
N1584 C1585 1.351 . S
C1585 C1579 1.428 . S
C1585 N1584 1.351 . S
C1585 C1586 1.434 . S
C1586 C1577 1.429 . S
C1586 N1583 1.350 . S
C1586 C1585 1.434 . S
C1587 C1588 1.369 . S
C1587 C1589 1.419 . S
C1587 H1591 0.930 . S
C1588 C1587 1.369 . S
C1588 C1597 1.429 . S
C1589 C1587 1.419 . S
C1589 C1590 1.363 . S
C1589 H1592 0.929 . S
C1590 C1589 1.363 . S
C1590 C1596 1.428 . S
H1591 C1587 0.930 . S
H1592 C1589 0.929 . S
S1593 N1594 1.613 . S
S1593 N1595 1.610 . S
N1594 S1593 1.613 . S
N1594 C1597 1.350 . S
N1595 S1593 1.610 . S
N1595 C1596 1.351 . S
C1596 C1590 1.428 . S
C1596 N1595 1.351 . S
C1596 C1597 1.434 . S
C1597 C1588 1.429 . S
C1597 N1594 1.350 . S
C1597 C1596 1.434 . S
C1598 C1599 1.369 . S
C1598 C1600 1.419 . S
C1598 H1602 0.930 . S
C1599 C1598 1.369 . S
C1599 C1608 1.429 . S
C1600 C1598 1.419 . S
C1600 C1601 1.363 . S
C1600 H1603 0.929 . S
C1601 C1600 1.363 . S
C1601 C1607 1.428 . S
H1602 C1598 0.930 . S
H1603 C1600 0.929 . S
S1604 N1605 1.613 . S
S1604 N1606 1.610 . S
N1605 S1604 1.613 . S
N1605 C1608 1.350 . S
N1606 S1604 1.610 . S
N1606 C1607 1.351 . S
C1607 C1601 1.428 . S
C1607 N1606 1.351 . S
C1607 C1608 1.434 . S
C1608 C1599 1.429 . S
C1608 N1605 1.350 . S
C1608 C1607 1.434 . S
C1609 C1610 1.369 . S
C1609 C1611 1.419 . S
C1609 H1613 0.930 . S
C1610 C1609 1.369 . S
C1610 C1619 1.429 . S
C1611 C1609 1.419 . S
C1611 C1612 1.363 . S
C1611 H1614 0.929 . S
C1612 C1611 1.363 . S
C1612 C1618 1.428 . S
H1613 C1609 0.930 . S
H1614 C1611 0.929 . S
S1615 N1616 1.613 . S
S1615 N1617 1.610 . S
N1616 S1615 1.613 . S
N1616 C1619 1.350 . S
N1617 S1615 1.610 . S
N1617 C1618 1.351 . S
C1618 C1612 1.428 . S
C1618 N1617 1.351 . S
C1618 C1619 1.434 . S
C1619 C1610 1.429 . S
C1619 N1616 1.350 . S
C1619 C1618 1.434 . S
C1620 C1621 1.369 . S
C1620 C1622 1.419 . S
C1620 H1624 0.930 . S
C1621 C1620 1.369 . S
C1621 C1630 1.429 . S
C1622 C1620 1.419 . S
C1622 C1623 1.363 . S
C1622 H1625 0.929 . S
C1623 C1622 1.363 . S
C1623 C1629 1.428 . S
H1624 C1620 0.930 . S
H1625 C1622 0.929 . S
S1626 N1627 1.613 . S
S1626 N1628 1.610 . S
N1627 S1626 1.613 . S
N1627 C1630 1.350 . S
N1628 S1626 1.610 . S
N1628 C1629 1.351 . S
C1629 C1623 1.428 . S
C1629 N1628 1.351 . S
C1629 C1630 1.434 . S
C1630 C1621 1.429 . S
C1630 N1627 1.350 . S
C1630 C1629 1.434 . S
C1631 C1632 1.369 1_565 S
C1631 C1633 1.419 . S
C1631 H1635 0.930 . S
C1632 C1631 1.369 1_545 S
C1632 C1641 1.429 . S
C1633 C1631 1.419 . S
C1633 C1634 1.363 . S
C1633 H1636 0.929 . S
C1634 C1633 1.363 . S
C1634 C1640 1.428 1_565 S
H1635 C1631 0.930 . S
H1636 C1633 0.929 . S
S1637 N1638 1.613 . S
S1637 N1639 1.610 . S
N1638 S1637 1.613 . S
N1638 C1641 1.350 . S
N1639 S1637 1.610 . S
N1639 C1640 1.351 . S
C1640 C1634 1.428 1_545 S
C1640 N1639 1.351 . S
C1640 C1641 1.434 . S
C1641 C1632 1.429 . S
C1641 N1638 1.350 . S
C1641 C1640 1.434 . S
C1642 C1643 1.369 1_455 S
C1642 C1644 1.419 . S
C1642 H1646 0.930 . S
C1643 C1642 1.369 1_655 S
C1643 C1652 1.429 . S
C1644 C1642 1.419 . S
C1644 C1645 1.363 . S
C1644 H1647 0.929 . S
C1645 C1644 1.363 . S
C1645 C1651 1.428 1_455 S
H1646 C1642 0.930 . S
H1647 C1644 0.929 . S
S1648 N1649 1.613 . S
S1648 N1650 1.610 . S
N1649 S1648 1.613 . S
N1649 C1652 1.350 . S
N1650 S1648 1.610 . S
N1650 C1651 1.351 . S
C1651 C1645 1.428 1_655 S
C1651 N1650 1.351 . S
C1651 C1652 1.434 . S
C1652 C1643 1.429 . S
C1652 N1649 1.350 . S
C1652 C1651 1.434 . S
C1653 C1654 1.369 . S
C1653 C1655 1.419 . S
C1653 H1657 0.930 . S
C1654 C1653 1.369 . S
C1654 C1663 1.429 . S
C1655 C1653 1.419 . S
C1655 C1656 1.363 . S
C1655 H1658 0.929 . S
C1656 C1655 1.363 . S
C1656 C1662 1.428 . S
H1657 C1653 0.930 . S
H1658 C1655 0.929 . S
S1659 N1660 1.613 . S
S1659 N1661 1.610 . S
N1660 S1659 1.613 . S
N1660 C1663 1.350 . S
N1661 S1659 1.610 . S
N1661 C1662 1.351 . S
C1662 C1656 1.428 . S
C1662 N1661 1.351 . S
C1662 C1663 1.434 . S
C1663 C1654 1.429 . S
C1663 N1660 1.350 . S
C1663 C1662 1.434 . S
C1664 C1665 1.369 1_565 S
C1664 C1666 1.419 . S
C1664 H1668 0.930 . S
C1665 C1664 1.369 1_545 S
C1665 C1674 1.429 . S
C1666 C1664 1.419 . S
C1666 C1667 1.363 . S
C1666 H1669 0.929 . S
C1667 C1666 1.363 . S
C1667 C1673 1.428 1_565 S
H1668 C1664 0.930 . S
H1669 C1666 0.929 . S
S1670 N1671 1.613 . S
S1670 N1672 1.610 . S
N1671 S1670 1.613 . S
N1671 C1674 1.350 . S
N1672 S1670 1.610 . S
N1672 C1673 1.351 . S
C1673 C1667 1.428 1_545 S
C1673 N1672 1.351 . S
C1673 C1674 1.434 . S
C1674 C1665 1.429 . S
C1674 N1671 1.350 . S
C1674 C1673 1.434 . S
C1675 C1676 1.369 1_455 S
C1675 C1677 1.419 . S
C1675 H1679 0.930 . S
C1676 C1675 1.369 1_655 S
C1676 C1685 1.429 . S
C1677 C1675 1.419 . S
C1677 C1678 1.363 . S
C1677 H1680 0.929 . S
C1678 C1677 1.363 . S
C1678 C1684 1.428 1_455 S
H1679 C1675 0.930 . S
H1680 C1677 0.929 . S
S1681 N1682 1.613 . S
S1681 N1683 1.610 . S
N1682 S1681 1.613 . S
N1682 C1685 1.350 . S
N1683 S1681 1.610 . S
N1683 C1684 1.351 . S
C1684 C1678 1.428 1_655 S
C1684 N1683 1.351 . S
C1684 C1685 1.434 . S
C1685 C1676 1.429 . S
C1685 N1682 1.350 . S
C1685 C1684 1.434 . S
C1686 C1687 1.369 . S
C1686 C1688 1.419 . S
C1686 H1690 0.930 . S
C1687 C1686 1.369 . S
C1687 C1696 1.429 . S
C1688 C1686 1.419 . S
C1688 C1689 1.363 . S
C1688 H1691 0.929 . S
C1689 C1688 1.363 . S
C1689 C1695 1.428 . S
H1690 C1686 0.930 . S
H1691 C1688 0.929 . S
S1692 N1693 1.613 . S
S1692 N1694 1.610 . S
N1693 S1692 1.613 . S
N1693 C1696 1.350 . S
N1694 S1692 1.610 . S
N1694 C1695 1.351 . S
C1695 C1689 1.428 . S
C1695 N1694 1.351 . S
C1695 C1696 1.434 . S
C1696 C1687 1.429 . S
C1696 N1693 1.350 . S
C1696 C1695 1.434 . S
C1697 C1698 1.369 . S
C1697 C1699 1.419 . S
C1697 H1701 0.930 . S
C1698 C1697 1.369 . S
C1698 C1707 1.429 . S
C1699 C1697 1.419 . S
C1699 C1700 1.363 . S
C1699 H1702 0.929 . S
C1700 C1699 1.363 . S
C1700 C1706 1.428 . S
H1701 C1697 0.930 . S
H1702 C1699 0.929 . S
S1703 N1704 1.613 . S
S1703 N1705 1.610 . S
N1704 S1703 1.613 . S
N1704 C1707 1.350 . S
N1705 S1703 1.610 . S
N1705 C1706 1.351 . S
C1706 C1700 1.428 . S
C1706 N1705 1.351 . S
C1706 C1707 1.434 . S
C1707 C1698 1.429 . S
C1707 N1704 1.350 . S
C1707 C1706 1.434 . S
C1708 C1709 1.369 . S
C1708 C1710 1.419 . S
C1708 H1712 0.930 . S
C1709 C1708 1.369 . S
C1709 C1718 1.429 . S
C1710 C1708 1.419 . S
C1710 C1711 1.363 . S
C1710 H1713 0.929 . S
C1711 C1710 1.363 . S
C1711 C1717 1.428 . S
H1712 C1708 0.930 . S
H1713 C1710 0.929 . S
S1714 N1715 1.613 . S
S1714 N1716 1.610 . S
N1715 S1714 1.613 . S
N1715 C1718 1.350 . S
N1716 S1714 1.610 . S
N1716 C1717 1.351 . S
C1717 C1711 1.428 . S
C1717 N1716 1.351 . S
C1717 C1718 1.434 . S
C1718 C1709 1.429 . S
C1718 N1715 1.350 . S
C1718 C1717 1.434 . S
C1719 C1720 1.369 . S
C1719 C1721 1.419 . S
C1719 H1723 0.930 . S
C1720 C1719 1.369 . S
C1720 C1729 1.429 . S
C1721 C1719 1.419 . S
C1721 C1722 1.363 . S
C1721 H1724 0.929 . S
C1722 C1721 1.363 . S
C1722 C1728 1.428 . S
H1723 C1719 0.930 . S
H1724 C1721 0.929 . S
S1725 N1726 1.613 . S
S1725 N1727 1.610 . S
N1726 S1725 1.613 . S
N1726 C1729 1.350 . S
N1727 S1725 1.610 . S
N1727 C1728 1.351 . S
C1728 C1722 1.428 . S
C1728 N1727 1.351 . S
C1728 C1729 1.434 . S
C1729 C1720 1.429 . S
C1729 N1726 1.350 . S
C1729 C1728 1.434 . S
C1730 C1731 1.369 . S
C1730 C1732 1.419 . S
C1730 H1734 0.930 . S
C1731 C1730 1.369 . S
C1731 C1740 1.429 . S
C1732 C1730 1.419 . S
C1732 C1733 1.363 . S
C1732 H1735 0.929 . S
C1733 C1732 1.363 . S
C1733 C1739 1.428 . S
H1734 C1730 0.930 . S
H1735 C1732 0.929 . S
S1736 N1737 1.613 . S
S1736 N1738 1.610 . S
N1737 S1736 1.613 . S
N1737 C1740 1.350 . S
N1738 S1736 1.610 . S
N1738 C1739 1.351 . S
C1739 C1733 1.428 . S
C1739 N1738 1.351 . S
C1739 C1740 1.434 . S
C1740 C1731 1.429 . S
C1740 N1737 1.350 . S
C1740 C1739 1.434 . S
C1741 C1742 1.369 . S
C1741 C1743 1.419 . S
C1741 H1745 0.930 . S
C1742 C1741 1.369 . S
C1742 C1751 1.429 . S
C1743 C1741 1.419 . S
C1743 C1744 1.363 . S
C1743 H1746 0.929 . S
C1744 C1743 1.363 . S
C1744 C1750 1.428 . S
H1745 C1741 0.930 . S
H1746 C1743 0.929 . S
S1747 N1748 1.613 . S
S1747 N1749 1.610 . S
N1748 S1747 1.613 . S
N1748 C1751 1.350 . S
N1749 S1747 1.610 . S
N1749 C1750 1.351 . S
C1750 C1744 1.428 . S
C1750 N1749 1.351 . S
C1750 C1751 1.434 . S
C1751 C1742 1.429 . S
C1751 N1748 1.350 . S
C1751 C1750 1.434 . S
C1752 C1753 1.369 . S
C1752 C1754 1.419 . S
C1752 H1756 0.930 . S
C1753 C1752 1.369 . S
C1753 C1762 1.429 . S
C1754 C1752 1.419 . S
C1754 C1755 1.363 . S
C1754 H1757 0.929 . S
C1755 C1754 1.363 . S
C1755 C1761 1.428 . S
H1756 C1752 0.930 . S
H1757 C1754 0.929 . S
S1758 N1759 1.613 . S
S1758 N1760 1.610 . S
N1759 S1758 1.613 . S
N1759 C1762 1.350 . S
N1760 S1758 1.610 . S
N1760 C1761 1.351 . S
C1761 C1755 1.428 . S
C1761 N1760 1.351 . S
C1761 C1762 1.434 . S
C1762 C1753 1.429 . S
C1762 N1759 1.350 . S
C1762 C1761 1.434 . S
C1763 C1764 1.369 . S
C1763 C1765 1.419 . S
C1763 H1767 0.930 . S
C1764 C1763 1.369 . S
C1764 C1773 1.429 . S
C1765 C1763 1.419 . S
C1765 C1766 1.363 . S
C1765 H1768 0.929 . S
C1766 C1765 1.363 . S
C1766 C1772 1.428 . S
H1767 C1763 0.930 . S
H1768 C1765 0.929 . S
S1769 N1770 1.613 . S
S1769 N1771 1.610 . S
N1770 S1769 1.613 . S
N1770 C1773 1.350 . S
N1771 S1769 1.610 . S
N1771 C1772 1.351 . S
C1772 C1766 1.428 . S
C1772 N1771 1.351 . S
C1772 C1773 1.434 . S
C1773 C1764 1.429 . S
C1773 N1770 1.350 . S
C1773 C1772 1.434 . S
C1774 C1775 1.369 . S
C1774 C1776 1.419 . S
C1774 H1778 0.930 . S
C1775 C1774 1.369 . S
C1775 C1784 1.429 . S
C1776 C1774 1.419 . S
C1776 C1777 1.363 . S
C1776 H1779 0.929 . S
C1777 C1776 1.363 . S
C1777 C1783 1.428 . S
H1778 C1774 0.930 . S
H1779 C1776 0.929 . S
S1780 N1781 1.613 . S
S1780 N1782 1.610 . S
N1781 S1780 1.613 . S
N1781 C1784 1.350 . S
N1782 S1780 1.610 . S
N1782 C1783 1.351 . S
C1783 C1777 1.428 . S
C1783 N1782 1.351 . S
C1783 C1784 1.434 . S
C1784 C1775 1.429 . S
C1784 N1781 1.350 . S
C1784 C1783 1.434 . S
C1785 C1786 1.369 . S
C1785 C1787 1.419 . S
C1785 H1789 0.930 . S
C1786 C1785 1.369 . S
C1786 C1795 1.429 . S
C1787 C1785 1.419 . S
C1787 C1788 1.363 . S
C1787 H1790 0.929 . S
C1788 C1787 1.363 . S
C1788 C1794 1.428 . S
H1789 C1785 0.930 . S
H1790 C1787 0.929 . S
S1791 N1792 1.613 . S
S1791 N1793 1.610 . S
N1792 S1791 1.613 . S
N1792 C1795 1.350 . S
N1793 S1791 1.610 . S
N1793 C1794 1.351 . S
C1794 C1788 1.428 . S
C1794 N1793 1.351 . S
C1794 C1795 1.434 . S
C1795 C1786 1.429 . S
C1795 N1792 1.350 . S
C1795 C1794 1.434 . S
C1796 C1797 1.369 . S
C1796 C1798 1.419 . S
C1796 H1800 0.930 . S
C1797 C1796 1.369 . S
C1797 C1806 1.429 . S
C1798 C1796 1.419 . S
C1798 C1799 1.363 . S
C1798 H1801 0.929 . S
C1799 C1798 1.363 . S
C1799 C1805 1.428 . S
H1800 C1796 0.930 . S
H1801 C1798 0.929 . S
S1802 N1803 1.613 . S
S1802 N1804 1.610 . S
N1803 S1802 1.613 . S
N1803 C1806 1.350 . S
N1804 S1802 1.610 . S
N1804 C1805 1.351 . S
C1805 C1799 1.428 . S
C1805 N1804 1.351 . S
C1805 C1806 1.434 . S
C1806 C1797 1.429 . S
C1806 N1803 1.350 . S
C1806 C1805 1.434 . S
C1807 C1808 1.369 . S
C1807 C1809 1.419 . S
C1807 H1811 0.930 . S
C1808 C1807 1.369 . S
C1808 C1817 1.429 . S
C1809 C1807 1.419 . S
C1809 C1810 1.363 . S
C1809 H1812 0.929 . S
C1810 C1809 1.363 . S
C1810 C1816 1.428 . S
H1811 C1807 0.930 . S
H1812 C1809 0.929 . S
S1813 N1814 1.613 . S
S1813 N1815 1.610 . S
N1814 S1813 1.613 . S
N1814 C1817 1.350 . S
N1815 S1813 1.610 . S
N1815 C1816 1.351 . S
C1816 C1810 1.428 . S
C1816 N1815 1.351 . S
C1816 C1817 1.434 . S
C1817 C1808 1.429 . S
C1817 N1814 1.350 . S
C1817 C1816 1.434 . S
C1818 C1819 1.369 . S
C1818 C1820 1.419 . S
C1818 H1822 0.930 . S
C1819 C1818 1.369 . S
C1819 C1828 1.429 . S
C1820 C1818 1.419 . S
C1820 C1821 1.363 . S
C1820 H1823 0.929 . S
C1821 C1820 1.363 . S
C1821 C1827 1.428 . S
H1822 C1818 0.930 . S
H1823 C1820 0.929 . S
S1824 N1825 1.613 . S
S1824 N1826 1.610 1_554 S
N1825 S1824 1.613 . S
N1825 C1828 1.350 1_554 S
N1826 S1824 1.610 1_556 S
N1826 C1827 1.351 . S
C1827 C1821 1.428 . S
C1827 N1826 1.351 . S
C1827 C1828 1.434 . S
C1828 C1819 1.429 . S
C1828 N1825 1.350 1_556 S
C1828 C1827 1.434 . S
C1829 C1830 1.369 . S
C1829 C1831 1.419 . S
C1829 H1833 0.930 . S
C1830 C1829 1.369 . S
C1830 C1839 1.429 . S
C1831 C1829 1.419 . S
C1831 C1832 1.363 . S
C1831 H1834 0.929 . S
C1832 C1831 1.363 . S
C1832 C1838 1.428 . S
H1833 C1829 0.930 . S
H1834 C1831 0.929 . S
S1835 N1836 1.613 . S
S1835 N1837 1.610 . S
N1836 S1835 1.613 . S
N1836 C1839 1.350 . S
N1837 S1835 1.610 . S
N1837 C1838 1.351 . S
C1838 C1832 1.428 . S
C1838 N1837 1.351 . S
C1838 C1839 1.434 . S
C1839 C1830 1.429 . S
C1839 N1836 1.350 . S
C1839 C1838 1.434 . S
C1840 C1841 1.369 . S
C1840 C1842 1.419 . S
C1840 H1844 0.930 . S
C1841 C1840 1.369 . S
C1841 C1850 1.429 . S
C1842 C1840 1.419 . S
C1842 C1843 1.363 . S
C1842 H1845 0.929 . S
C1843 C1842 1.363 . S
C1843 C1849 1.428 . S
H1844 C1840 0.930 . S
H1845 C1842 0.929 . S
S1846 N1847 1.613 . S
S1846 N1848 1.610 . S
N1847 S1846 1.613 . S
N1847 C1850 1.350 . S
N1848 S1846 1.610 . S
N1848 C1849 1.351 . S
C1849 C1843 1.428 . S
C1849 N1848 1.351 . S
C1849 C1850 1.434 . S
C1850 C1841 1.429 . S
C1850 N1847 1.350 . S
C1850 C1849 1.434 . S
C1851 C1852 1.369 . S
C1851 C1853 1.419 . S
C1851 H1855 0.930 . S
C1852 C1851 1.369 . S
C1852 C1861 1.429 . S
C1853 C1851 1.419 . S
C1853 C1854 1.363 . S
C1853 H1856 0.929 . S
C1854 C1853 1.363 . S
C1854 C1860 1.428 . S
H1855 C1851 0.930 . S
H1856 C1853 0.929 . S
S1857 N1858 1.613 . S
S1857 N1859 1.610 . S
N1858 S1857 1.613 . S
N1858 C1861 1.350 . S
N1859 S1857 1.610 . S
N1859 C1860 1.351 . S
C1860 C1854 1.428 . S
C1860 N1859 1.351 . S
C1860 C1861 1.434 . S
C1861 C1852 1.429 . S
C1861 N1858 1.350 . S
C1861 C1860 1.434 . S
C1862 C1863 1.369 . S
C1862 C1864 1.419 . S
C1862 H1866 0.930 . S
C1863 C1862 1.369 . S
C1863 C1872 1.429 . S
C1864 C1862 1.419 . S
C1864 C1865 1.363 . S
C1864 H1867 0.929 . S
C1865 C1864 1.363 . S
C1865 C1871 1.428 . S
H1866 C1862 0.930 . S
H1867 C1864 0.929 . S
S1868 N1869 1.613 . S
S1868 N1870 1.610 . S
N1869 S1868 1.613 . S
N1869 C1872 1.350 . S
N1870 S1868 1.610 . S
N1870 C1871 1.351 . S
C1871 C1865 1.428 . S
C1871 N1870 1.351 . S
C1871 C1872 1.434 . S
C1872 C1863 1.429 . S
C1872 N1869 1.350 . S
C1872 C1871 1.434 . S
C1873 C1874 1.369 . S
C1873 C1875 1.419 . S
C1873 H1877 0.930 . S
C1874 C1873 1.369 . S
C1874 C1883 1.429 . S
C1875 C1873 1.419 . S
C1875 C1876 1.363 . S
C1875 H1878 0.929 . S
C1876 C1875 1.363 . S
C1876 C1882 1.428 . S
H1877 C1873 0.930 . S
H1878 C1875 0.929 . S
S1879 N1880 1.613 . S
S1879 N1881 1.610 . S
N1880 S1879 1.613 . S
N1880 C1883 1.350 . S
N1881 S1879 1.610 . S
N1881 C1882 1.351 . S
C1882 C1876 1.428 . S
C1882 N1881 1.351 . S
C1882 C1883 1.434 . S
C1883 C1874 1.429 . S
C1883 N1880 1.350 . S
C1883 C1882 1.434 . S
C1884 C1885 1.369 . S
C1884 C1886 1.419 . S
C1884 H1888 0.930 . S
C1885 C1884 1.369 . S
C1885 C1894 1.429 . S
C1886 C1884 1.419 . S
C1886 C1887 1.363 . S
C1886 H1889 0.929 . S
C1887 C1886 1.363 . S
C1887 C1893 1.428 . S
H1888 C1884 0.930 . S
H1889 C1886 0.929 . S
S1890 N1891 1.613 . S
S1890 N1892 1.610 . S
N1891 S1890 1.613 . S
N1891 C1894 1.350 . S
N1892 S1890 1.610 . S
N1892 C1893 1.351 . S
C1893 C1887 1.428 . S
C1893 N1892 1.351 . S
C1893 C1894 1.434 . S
C1894 C1885 1.429 . S
C1894 N1891 1.350 . S
C1894 C1893 1.434 . S
C1895 C1896 1.369 . S
C1895 C1897 1.419 . S
C1895 H1899 0.930 . S
C1896 C1895 1.369 . S
C1896 C1905 1.429 . S
C1897 C1895 1.419 . S
C1897 C1898 1.363 . S
C1897 H1900 0.929 . S
C1898 C1897 1.363 . S
C1898 C1904 1.428 . S
H1899 C1895 0.930 . S
H1900 C1897 0.929 . S
S1901 N1902 1.613 . S
S1901 N1903 1.610 . S
N1902 S1901 1.613 . S
N1902 C1905 1.350 . S
N1903 S1901 1.610 . S
N1903 C1904 1.351 . S
C1904 C1898 1.428 . S
C1904 N1903 1.351 . S
C1904 C1905 1.434 . S
C1905 C1896 1.429 . S
C1905 N1902 1.350 . S
C1905 C1904 1.434 . S
C1906 C1907 1.369 . S
C1906 C1908 1.419 . S
C1906 H1910 0.930 . S
C1907 C1906 1.369 . S
C1907 C1916 1.429 . S
C1908 C1906 1.419 . S
C1908 C1909 1.363 . S
C1908 H1911 0.929 . S
C1909 C1908 1.363 . S
C1909 C1915 1.428 . S
H1910 C1906 0.930 . S
H1911 C1908 0.929 . S
S1912 N1913 1.613 1_556 S
S1912 N1914 1.610 . S
N1913 S1912 1.613 1_554 S
N1913 C1916 1.350 . S
N1914 S1912 1.610 . S
N1914 C1915 1.351 1_556 S
C1915 C1909 1.428 . S
C1915 N1914 1.351 1_554 S
C1915 C1916 1.434 . S
C1916 C1907 1.429 . S
C1916 N1913 1.350 . S
C1916 C1915 1.434 . S
C1917 C1918 1.369 . S
C1917 C1919 1.419 . S
C1917 H1921 0.930 . S
C1918 C1917 1.369 . S
C1918 C1927 1.429 . S
C1919 C1917 1.419 . S
C1919 C1920 1.363 . S
C1919 H1922 0.929 . S
C1920 C1919 1.363 . S
C1920 C1926 1.428 . S
H1921 C1917 0.930 . S
H1922 C1919 0.929 . S
S1923 N1924 1.613 . S
S1923 N1925 1.610 . S
N1924 S1923 1.613 . S
N1924 C1927 1.350 . S
N1925 S1923 1.610 . S
N1925 C1926 1.351 . S
C1926 C1920 1.428 . S
C1926 N1925 1.351 . S
C1926 C1927 1.434 . S
C1927 C1918 1.429 . S
C1927 N1924 1.350 . S
C1927 C1926 1.434 . S
C1928 C1929 1.369 . S
C1928 C1930 1.419 . S
C1928 H1932 0.930 . S
C1929 C1928 1.369 . S
C1929 C1938 1.429 . S
C1930 C1928 1.419 . S
C1930 C1931 1.363 . S
C1930 H1933 0.929 . S
C1931 C1930 1.363 . S
C1931 C1937 1.428 . S
H1932 C1928 0.930 . S
H1933 C1930 0.929 . S
S1934 N1935 1.613 . S
S1934 N1936 1.610 . S
N1935 S1934 1.613 . S
N1935 C1938 1.350 . S
N1936 S1934 1.610 . S
N1936 C1937 1.351 . S
C1937 C1931 1.428 . S
C1937 N1936 1.351 . S
C1937 C1938 1.434 . S
C1938 C1929 1.429 . S
C1938 N1935 1.350 . S
C1938 C1937 1.434 . S
C1939 C1940 1.369 . S
C1939 C1941 1.419 . S
C1939 H1943 0.930 . S
C1940 C1939 1.369 . S
C1940 C1949 1.429 . S
C1941 C1939 1.419 . S
C1941 C1942 1.363 . S
C1941 H1944 0.929 . S
C1942 C1941 1.363 . S
C1942 C1948 1.428 . S
H1943 C1939 0.930 . S
H1944 C1941 0.929 . S
S1945 N1946 1.613 . S
S1945 N1947 1.610 . S
N1946 S1945 1.613 . S
N1946 C1949 1.350 . S
N1947 S1945 1.610 . S
N1947 C1948 1.351 . S
C1948 C1942 1.428 . S
C1948 N1947 1.351 . S
C1948 C1949 1.434 . S
C1949 C1940 1.429 . S
C1949 N1946 1.350 . S
C1949 C1948 1.434 . S
C1950 C1951 1.369 . S
C1950 C1952 1.419 1_455 S
C1950 H1954 0.930 . S
C1951 C1950 1.369 . S
C1951 C1960 1.429 . S
C1952 C1950 1.419 1_655 S
C1952 C1953 1.363 . S
C1952 H1955 0.929 . S
C1953 C1952 1.363 . S
C1953 C1959 1.428 . S
H1954 C1950 0.930 . S
H1955 C1952 0.929 . S
S1956 N1957 1.638 . S
S1956 N1958 1.602 1_455 S
N1957 S1956 1.638 . S
N1957 C1960 1.350 . S
N1958 S1956 1.602 1_655 S
N1958 C1959 1.351 . S
C1959 C1953 1.428 . S
C1959 N1958 1.351 . S
C1959 C1960 1.434 1_655 S
C1960 C1951 1.429 . S
C1960 N1957 1.350 . S
C1960 C1959 1.434 1_455 S
C1961 C1962 1.369 . S
C1961 C1963 1.419 . S
C1961 H1965 0.930 . S
C1962 C1961 1.369 . S
C1962 C1971 1.429 . S
C1963 C1961 1.419 . S
C1963 C1964 1.363 . S
C1963 H1966 0.929 . S
C1964 C1963 1.363 . S
C1964 C1970 1.428 . S
H1965 C1961 0.930 . S
H1966 C1963 0.929 . S
S1967 N1968 1.613 . S
S1967 N1969 1.610 . S
N1968 S1967 1.613 . S
N1968 C1971 1.350 . S
N1969 S1967 1.610 . S
N1969 C1970 1.351 . S
C1970 C1964 1.428 . S
C1970 N1969 1.351 . S
C1970 C1971 1.434 . S
C1971 C1962 1.429 . S
C1971 N1968 1.350 . S
C1971 C1970 1.434 . S
C1972 C1973 1.369 . S
C1972 C1974 1.419 1_545 S
C1972 H1976 0.930 . S
C1973 C1972 1.369 . S
C1973 C1982 1.429 . S
C1974 C1972 1.419 1_565 S
C1974 C1975 1.363 . S
C1974 H1977 0.929 . S
C1975 C1974 1.363 . S
C1975 C1981 1.428 . S
H1976 C1972 0.930 . S
H1977 C1974 0.929 . S
S1978 N1979 1.613 . S
S1978 N1980 1.610 1_545 S
N1979 S1978 1.613 . S
N1979 C1982 1.350 . S
N1980 S1978 1.610 1_565 S
N1980 C1981 1.351 . S
C1981 C1975 1.428 . S
C1981 N1980 1.351 . S
C1981 C1982 1.434 1_565 S
C1982 C1973 1.429 . S
C1982 N1979 1.350 . S
C1982 C1981 1.434 1_545 S
C1983 C1984 1.369 . S
C1983 C1985 1.419 1_545 S
C1983 H1987 0.930 . S
C1984 C1983 1.369 . S
C1984 C1993 1.429 . S
C1985 C1983 1.419 1_565 S
C1985 C1986 1.363 . S
C1985 H1988 0.929 . S
C1986 C1985 1.363 . S
C1986 C1992 1.428 . S
H1987 C1983 0.930 . S
H1988 C1985 0.929 . S
S1989 N1990 1.613 1_565 S
S1989 N1991 1.610 . S
N1990 S1989 1.613 1_545 S
N1990 C1993 1.350 . S
N1991 S1989 1.610 . S
N1991 C1992 1.351 . S
C1992 C1986 1.428 . S
C1992 N1991 1.351 . S
C1992 C1993 1.434 1_565 S
C1993 C1984 1.429 . S
C1993 N1990 1.350 . S
C1993 C1992 1.434 1_545 S
C1994 C1995 1.369 . S
C1994 C1996 1.419 1_655 S
C1994 H1998 0.930 . S
C1995 C1994 1.369 . S
C1995 C2004 1.429 . S
C1996 C1994 1.419 1_455 S
C1996 C1997 1.363 . S
C1996 H1999 0.929 . S
C1997 C1996 1.363 . S
C1997 C2003 1.428 . S
H1998 C1994 0.930 . S
H1999 C1996 0.929 . S
S2000 N2001 1.613 . S
S2000 N2002 1.610 1_655 S
N2001 S2000 1.613 . S
N2001 C2004 1.350 . S
N2002 S2000 1.610 1_455 S
N2002 C2003 1.351 . S
C2003 C1997 1.428 . S
C2003 N2002 1.351 . S
C2003 C2004 1.434 1_455 S
C2004 C1995 1.429 . S
C2004 N2001 1.350 . S
C2004 C2003 1.434 1_655 S
C2005 C2006 1.369 . S
C2005 C2007 1.419 . S
C2005 H2009 0.930 . S
C2006 C2005 1.369 . S
C2006 C2015 1.429 . S
C2007 C2005 1.419 . S
C2007 C2008 1.363 . S
C2007 H2010 0.929 . S
C2008 C2007 1.363 . S
C2008 C2014 1.428 . S
H2009 C2005 0.930 . S
H2010 C2007 0.929 . S
S2011 N2012 1.613 . S
S2011 N2013 1.610 . S
N2012 S2011 1.613 . S
N2012 C2015 1.350 . S
N2013 S2011 1.610 . S
N2013 C2014 1.351 . S
C2014 C2008 1.428 . S
C2014 N2013 1.351 . S
C2014 C2015 1.434 . S
C2015 C2006 1.429 . S
C2015 N2012 1.350 . S
C2015 C2014 1.434 . S
C2016 C2017 1.369 . S
C2016 C2018 1.419 . S
C2016 H2020 0.930 . S
C2017 C2016 1.369 . S
C2017 C2026 1.429 . S
C2018 C2016 1.419 . S
C2018 C2019 1.363 . S
C2018 H2021 0.929 . S
C2019 C2018 1.363 . S
C2019 C2025 1.428 . S
H2020 C2016 0.930 . S
H2021 C2018 0.929 . S
S2022 N2023 1.613 . S
S2022 N2024 1.610 . S
N2023 S2022 1.613 . S
N2023 C2026 1.350 . S
N2024 S2022 1.610 . S
N2024 C2025 1.351 . S
C2025 C2019 1.428 . S
C2025 N2024 1.351 . S
C2025 C2026 1.434 . S
C2026 C2017 1.429 . S
C2026 N2023 1.350 . S
C2026 C2025 1.434 . S
C2027 C2028 1.369 . S
C2027 C2029 1.419 . S
C2027 H2031 0.930 . S
C2028 C2027 1.369 . S
C2028 C2037 1.429 . S
C2029 C2027 1.419 . S
C2029 C2030 1.363 . S
C2029 H2032 0.929 . S
C2030 C2029 1.363 . S
C2030 C2036 1.428 . S
H2031 C2027 0.930 . S
H2032 C2029 0.929 . S
S2033 N2034 1.613 . S
S2033 N2035 1.610 . S
N2034 S2033 1.613 . S
N2034 C2037 1.350 . S
N2035 S2033 1.610 . S
N2035 C2036 1.351 . S
C2036 C2030 1.428 . S
C2036 N2035 1.351 . S
C2036 C2037 1.434 . S
C2037 C2028 1.429 . S
C2037 N2034 1.350 . S
C2037 C2036 1.434 . S
C2038 C2039 1.369 . S
C2038 C2040 1.419 . S
C2038 H2042 0.930 . S
C2039 C2038 1.369 . S
C2039 C2048 1.429 . S
C2040 C2038 1.419 . S
C2040 C2041 1.363 . S
C2040 H2043 0.929 . S
C2041 C2040 1.363 . S
C2041 C2047 1.428 . S
H2042 C2038 0.930 . S
H2043 C2040 0.929 . S
S2044 N2045 1.613 . S
S2044 N2046 1.610 . S
N2045 S2044 1.613 . S
N2045 C2048 1.350 . S
N2046 S2044 1.610 . S
N2046 C2047 1.351 . S
C2047 C2041 1.428 . S
C2047 N2046 1.351 . S
C2047 C2048 1.434 . S
C2048 C2039 1.429 . S
C2048 N2045 1.350 . S
C2048 C2047 1.434 . S
C2049 C2050 1.369 . S
C2049 C2051 1.419 . S
C2049 H2053 0.930 . S
C2050 C2049 1.369 . S
C2050 C2059 1.429 . S
C2051 C2049 1.419 . S
C2051 C2052 1.363 . S
C2051 H2054 0.929 . S
C2052 C2051 1.363 . S
C2052 C2058 1.428 . S
H2053 C2049 0.930 . S
H2054 C2051 0.929 . S
S2055 N2056 1.613 . S
S2055 N2057 1.610 . S
N2056 S2055 1.613 . S
N2056 C2059 1.350 . S
N2057 S2055 1.610 . S
N2057 C2058 1.351 . S
C2058 C2052 1.428 . S
C2058 N2057 1.351 . S
C2058 C2059 1.434 . S
C2059 C2050 1.429 . S
C2059 N2056 1.350 . S
C2059 C2058 1.434 . S
C2060 C2061 1.369 . S
C2060 C2062 1.419 . S
C2060 H2064 0.930 . S
C2061 C2060 1.369 . S
C2061 C2070 1.429 . S
C2062 C2060 1.419 . S
C2062 C2063 1.363 . S
C2062 H2065 0.929 . S
C2063 C2062 1.363 . S
C2063 C2069 1.428 . S
H2064 C2060 0.930 . S
H2065 C2062 0.929 . S
S2066 N2067 1.626 1_565 S
S2066 N2068 1.610 1_565 S
N2067 S2066 1.626 1_545 S
N2067 C2070 1.370 . S
N2068 S2066 1.610 1_545 S
N2068 C2069 1.351 . S
C2069 C2063 1.428 . S
C2069 N2068 1.351 . S
C2069 C2070 1.434 . S
C2070 C2061 1.429 . S
C2070 N2067 1.370 . S
C2070 C2069 1.434 . S
C2071 C2072 1.369 . S
C2071 C2073 1.419 . S
C2071 H2075 0.930 . S
C2072 C2071 1.369 . S
C2072 C2081 1.429 . S
C2073 C2071 1.419 . S
C2073 C2074 1.363 . S
C2073 H2076 0.929 . S
C2074 C2073 1.363 . S
C2074 C2080 1.428 . S
H2075 C2071 0.930 . S
H2076 C2073 0.929 . S
S2077 N2078 1.613 . S
S2077 N2079 1.610 . S
N2078 S2077 1.613 . S
N2078 C2081 1.350 . S
N2079 S2077 1.610 . S
N2079 C2080 1.351 . S
C2080 C2074 1.428 . S
C2080 N2079 1.351 . S
C2080 C2081 1.434 . S
C2081 C2072 1.429 . S
C2081 N2078 1.350 . S
C2081 C2080 1.434 . S
C2082 C2083 1.369 . S
C2082 C2084 1.419 . S
C2082 H2086 0.930 . S
C2083 C2082 1.369 . S
C2083 C2092 1.429 . S
C2084 C2082 1.419 . S
C2084 C2085 1.363 . S
C2084 H2087 0.929 . S
C2085 C2084 1.363 . S
C2085 C2091 1.428 . S
H2086 C2082 0.930 . S
H2087 C2084 0.929 . S
S2088 N2089 1.613 . S
S2088 N2090 1.610 . S
N2089 S2088 1.613 . S
N2089 C2092 1.350 . S
N2090 S2088 1.610 . S
N2090 C2091 1.351 . S
C2091 C2085 1.428 . S
C2091 N2090 1.351 . S
C2091 C2092 1.434 . S
C2092 C2083 1.429 . S
C2092 N2089 1.350 . S
C2092 C2091 1.434 . S
C2093 C2094 1.369 . S
C2093 C2095 1.419 . S
C2093 H2097 0.930 . S
C2094 C2093 1.369 . S
C2094 C2103 1.429 . S
C2095 C2093 1.419 . S
C2095 C2096 1.363 . S
C2095 H2098 0.929 . S
C2096 C2095 1.363 . S
C2096 C2102 1.428 . S
H2097 C2093 0.930 . S
H2098 C2095 0.929 . S
S2099 N2100 1.613 1_565 S
S2099 N2101 1.609 . S
N2100 S2099 1.613 1_545 S
N2100 C2103 1.350 . S
N2101 S2099 1.609 . S
N2101 C2102 1.353 1_565 S
C2102 C2096 1.428 . S
C2102 N2101 1.353 1_545 S
C2102 C2103 1.434 . S
C2103 C2094 1.429 . S
C2103 N2100 1.350 . S
C2103 C2102 1.434 . S
C2104 C2105 1.369 . S
C2104 C2106 1.419 . S
C2104 H2108 0.930 . S
C2105 C2104 1.369 . S
C2105 C2114 1.429 . S
C2106 C2104 1.419 . S
C2106 C2107 1.363 . S
C2106 H2109 0.929 . S
C2107 C2106 1.363 . S
C2107 C2113 1.428 . S
H2108 C2104 0.930 . S
H2109 C2106 0.929 . S
S2110 N2111 1.613 . S
S2110 N2112 1.610 . S
N2111 S2110 1.613 . S
N2111 C2114 1.350 . S
N2112 S2110 1.610 . S
N2112 C2113 1.351 . S
C2113 C2107 1.428 . S
C2113 N2112 1.351 . S
C2113 C2114 1.434 . S
C2114 C2105 1.429 . S
C2114 N2111 1.350 . S
C2114 C2113 1.434 . S
C2115 C2116 1.369 . S
C2115 C2117 1.419 . S
C2115 H2119 0.930 . S
C2116 C2115 1.369 . S
C2116 C2125 1.429 . S
C2117 C2115 1.419 . S
C2117 C2118 1.363 . S
C2117 H2120 0.929 . S
C2118 C2117 1.363 . S
C2118 C2124 1.428 . S
H2119 C2115 0.930 . S
H2120 C2117 0.929 . S
S2121 N2122 1.613 . S
S2121 N2123 1.610 . S
N2122 S2121 1.613 . S
N2122 C2125 1.350 . S
N2123 S2121 1.610 . S
N2123 C2124 1.351 . S
C2124 C2118 1.428 . S
C2124 N2123 1.351 . S
C2124 C2125 1.434 . S
C2125 C2116 1.429 . S
C2125 N2122 1.350 . S
C2125 C2124 1.434 . S
C2126 C2127 1.369 . S
C2126 C2128 1.419 . S
C2126 H2130 0.930 . S
C2127 C2126 1.369 . S
C2127 C2136 1.429 . S
C2128 C2126 1.419 . S
C2128 C2129 1.363 . S
C2128 H2131 0.929 . S
C2129 C2128 1.363 . S
C2129 C2135 1.428 . S
H2130 C2126 0.930 . S
H2131 C2128 0.929 . S
S2132 N2133 1.613 . S
S2132 N2134 1.610 . S
N2133 S2132 1.613 . S
N2133 C2136 1.350 . S
N2134 S2132 1.610 . S
N2134 C2135 1.351 . S
C2135 C2129 1.428 . S
C2135 N2134 1.351 . S
C2135 C2136 1.434 . S
C2136 C2127 1.429 . S
C2136 N2133 1.350 . S
C2136 C2135 1.434 . S
C2137 C2138 1.369 . S
C2137 C2139 1.419 . S
C2137 H2141 0.930 . S
C2138 C2137 1.369 . S
C2138 C2147 1.429 . S
C2139 C2137 1.419 . S
C2139 C2140 1.363 . S
C2139 H2142 0.929 . S
C2140 C2139 1.363 . S
C2140 C2146 1.428 . S
H2141 C2137 0.930 . S
H2142 C2139 0.929 . S
S2143 N2144 1.613 . S
S2143 N2145 1.610 . S
N2144 S2143 1.613 . S
N2144 C2147 1.350 . S
N2145 S2143 1.610 . S
N2145 C2146 1.351 . S
C2146 C2140 1.428 . S
C2146 N2145 1.351 . S
C2146 C2147 1.434 . S
C2147 C2138 1.429 . S
C2147 N2144 1.350 . S
C2147 C2146 1.434 . S
C2148 C2149 1.369 . S
C2148 C2150 1.419 1_455 S
C2148 H2152 0.930 . S
C2149 C2148 1.369 . S
C2149 C2158 1.429 . S
C2150 C2148 1.419 1_655 S
C2150 C2151 1.363 . S
C2150 H2153 0.929 . S
C2151 C2150 1.363 . S
C2151 C2157 1.428 . S
H2152 C2148 0.930 . S
H2153 C2150 0.929 . S
S2154 N2155 1.613 1_655 S
S2154 N2156 1.610 . S
N2155 S2154 1.613 1_455 S
N2155 C2158 1.350 . S
N2156 S2154 1.610 . S
N2156 C2157 1.351 . S
C2157 C2151 1.428 . S
C2157 N2156 1.351 . S
C2157 C2158 1.434 1_655 S
C2158 C2149 1.429 . S
C2158 N2155 1.350 . S
C2158 C2157 1.434 1_455 S
C2159 C2160 1.369 . S
C2159 C2161 1.419 . S
C2159 H2163 0.930 . S
C2160 C2159 1.369 . S
C2160 C2169 1.429 . S
C2161 C2159 1.419 . S
C2161 C2162 1.363 . S
C2161 H2164 0.929 . S
C2162 C2161 1.363 . S
C2162 C2168 1.428 . S
H2163 C2159 0.930 . S
H2164 C2161 0.929 . S
S2165 N2166 1.613 . S
S2165 N2167 1.610 . S
N2166 S2165 1.613 . S
N2166 C2169 1.350 . S
N2167 S2165 1.610 . S
N2167 C2168 1.351 . S
C2168 C2162 1.428 . S
C2168 N2167 1.351 . S
C2168 C2169 1.434 . S
C2169 C2160 1.429 . S
C2169 N2166 1.350 . S
C2169 C2168 1.434 . S
C2170 C2171 1.369 . S
C2170 C2172 1.419 1_545 S
C2170 H2174 0.930 . S
C2171 C2170 1.369 . S
C2171 C2180 1.429 . S
C2172 C2170 1.419 1_565 S
C2172 C2173 1.363 . S
C2172 H2175 0.929 . S
C2173 C2172 1.363 . S
C2173 C2179 1.428 . S
H2174 C2170 0.930 . S
H2175 C2172 0.929 . S
S2176 N2177 1.613 . S
S2176 N2178 1.610 1_545 S
N2177 S2176 1.613 . S
N2177 C2180 1.350 . S
N2178 S2176 1.610 1_565 S
N2178 C2179 1.351 . S
C2179 C2173 1.428 . S
C2179 N2178 1.351 . S
C2179 C2180 1.434 1_565 S
C2180 C2171 1.429 . S
C2180 N2177 1.350 . S
C2180 C2179 1.434 1_545 S
C2181 C2182 1.369 . S
C2181 C2183 1.419 1_545 S
C2181 H2185 0.930 . S
C2182 C2181 1.369 . S
C2182 C2191 1.429 . S
C2183 C2181 1.419 1_565 S
C2183 C2184 1.363 . S
C2183 H2186 0.929 . S
C2184 C2183 1.363 . S
C2184 C2190 1.428 . S
H2185 C2181 0.930 . S
H2186 C2183 0.929 . S
S2187 N2188 1.647 . S
S2187 N2189 1.598 1_545 S
N2188 S2187 1.647 . S
N2188 C2191 1.350 . S
N2189 S2187 1.598 1_565 S
N2189 C2190 1.351 . S
C2190 C2184 1.428 . S
C2190 N2189 1.351 . S
C2190 C2191 1.434 1_565 S
C2191 C2182 1.429 . S
C2191 N2188 1.350 . S
C2191 C2190 1.434 1_545 S
C2192 C2193 1.369 . S
C2192 C2194 1.419 1_455 S
C2192 H2196 0.930 . S
C2193 C2192 1.369 . S
C2193 C2202 1.429 . S
C2194 C2192 1.419 1_655 S
C2194 C2195 1.363 . S
C2194 H2197 0.929 . S
C2195 C2194 1.363 . S
C2195 C2201 1.428 . S
H2196 C2192 0.930 . S
H2197 C2194 0.929 . S
S2198 N2199 1.613 1_655 S
S2198 N2200 1.610 . S
N2199 S2198 1.613 1_455 S
N2199 C2202 1.350 . S
N2200 S2198 1.610 . S
N2200 C2201 1.351 . S
C2201 C2195 1.428 . S
C2201 N2200 1.351 . S
C2201 C2202 1.434 1_655 S
C2202 C2193 1.429 . S
C2202 N2199 1.350 . S
C2202 C2201 1.434 1_455 S
C2203 C2204 1.369 . S
C2203 C2205 1.419 . S
C2203 H2207 0.930 . S
C2204 C2203 1.369 . S
C2204 C2213 1.429 . S
C2205 C2203 1.419 . S
C2205 C2206 1.363 . S
C2205 H2208 0.929 . S
C2206 C2205 1.363 . S
C2206 C2212 1.428 . S
H2207 C2203 0.930 . S
H2208 C2205 0.929 . S
S2209 N2210 1.613 . S
S2209 N2211 1.610 . S
N2210 S2209 1.613 . S
N2210 C2213 1.350 . S
N2211 S2209 1.610 . S
N2211 C2212 1.351 . S
C2212 C2206 1.428 . S
C2212 N2211 1.351 . S
C2212 C2213 1.434 . S
C2213 C2204 1.429 . S
C2213 N2210 1.350 . S
C2213 C2212 1.434 . S
C1225 C271 1.439 . S
C1227 C9 1.362 . S
C1236 C43 1.360 . S
C1238 C305 1.438 . S
C1247 C237 1.438 . S
C1249 C77 1.358 . S
C1258 C407 1.439 . S
C1260 C111 1.365 . S
C1269 C339 1.439 . S
C1271 C145 1.362 . S
C1280 C179 1.361 . S
C1282 C373 1.438 . S
C1291 C213 1.357 . S
C1293 C67 1.438 . S
C1302 C247 1.367 . S
C1304 C101 1.438 . S
C1313 C281 1.363 . S
C1315 C33 1.439 . S
C1324 C203 1.439 . S
C1326 C315 1.365 . S
C1335 C135 1.439 . S
C1337 C349 1.366 . S
C1346 C383 1.364 . S
C1348 C169 1.438 . S
C1357 C679 1.439 . S
C1359 C417 1.362 . S
C1368 C713 1.438 . S
C1370 C451 1.367 . S
C1379 C645 1.438 . S
C1381 C485 1.359 . S
C1390 C815 1.439 . S
C1392 C519 1.368 . S
C1401 C747 1.438 . S
C1403 C553 1.361 . S
C1412 C781 1.438 . S
C1414 C587 1.358 . S
C1423 C621 1.362 . S
C1425 C475 1.439 . S
C1434 C655 1.357 . S
C1436 C509 1.438 . S
C1445 C441 1.438 . S
C1447 C689 1.358 . S
C1456 C723 1.357 . S
C1458 C611 1.438 . S
C1467 C757 1.369 . S
C1469 C543 1.439 . S
C1478 C791 1.366 . S
C1480 C577 1.438 . S
C1489 C1087 1.438 . S
C1491 C825 1.359 . S
C1500 C1121 1.438 . S
C1502 C859 1.363 . S
C1511 C893 1.368 . S
C1513 C1053 1.439 . S
C1522 C927 1.366 . S
C1524 C1223 1.439 . S
C1533 C961 1.366 . S
C1535 C1155 1.439 . S
C1544 C995 1.365 . S
C1546 C1189 1.438 . S
C1555 C883 1.439 . S
C1557 C1029 1.361 . S
C1566 C917 1.438 . S
C1568 C1063 1.360 . S
C1577 C1097 1.361 . S
C1579 C849 1.439 . S
C1588 C1019 1.438 . S
C1590 C1131 1.359 . S
C1599 C951 1.438 . S
C1601 C1165 1.361 . S
C1610 C1199 1.367 . S
C1612 C985 1.438 . S
C1621 C2 1.771 . S
C1623 C104 1.775 . S
C1632 C36 1.776 . S
C1634 C138 1.771 . S
C1643 C70 1.775 . S
C1645 C172 1.771 . S
C1654 C308 1.774 . S
C1656 C206 1.771 . S
C1665 C342 1.776 . S
C1667 C240 1.772 . S
C1676 C376 1.774 . S
C1678 C274 1.771 . S
C1687 C410 1.774 . S
C1689 C512 1.776 . S
C1698 C444 1.775 . S
C1700 C546 1.771 . S
C1709 C580 1.771 . S
C1711 C478 1.776 . S
C1720 C614 1.773 . S
C1722 C716 1.771 1_554 S
C1731 C750 1.777 1_554 S
C1733 C648 1.772 . S
C1742 C784 1.776 1_554 S
C1744 C682 1.775 . S
C1753 C920 1.771 1_556 S
C1755 C818 1.775 . S
C1764 C954 1.770 1_556 S
C1766 C852 1.774 . S
C1775 C988 1.776 1_556 S
C1777 C886 1.772 . S
C1786 C1124 1.770 . S
C1788 C1022 1.775 . S
C1797 C1158 1.777 . S
C1799 C1056 1.773 . S
C1808 C1090 1.773 . S
C1810 C1192 1.776 . S
C1819 C20 1.837 . S
C1821 C564 1.843 . S
C1830 C598 1.842 . S
C1832 C54 1.839 . S
C1841 C88 1.840 . S
C1843 C530 1.843 . S
C1852 C904 1.844 . S
C1854 C122 1.838 . S
C1863 C156 1.837 . S
C1865 C836 1.843 . S
C1874 C870 1.845 . S
C1876 C190 1.839 . S
C1885 C1176 1.844 . S
C1887 C224 1.840 . S
C1896 C258 1.845 . S
C1898 C1210 1.840 . S
C1907 C1142 1.845 . S
C1909 C292 1.839 . S
C1918 C326 1.837 . S
C1920 C700 1.843 . S
C1929 C360 1.838 . S
C1931 C632 1.844 . S
C1940 C666 1.837 . S
C1942 C394 1.843 . S
C1951 C972 1.841 . S
C1953 C428 1.839 . S
C1962 C1006 1.842 . S
C1964 C462 1.839 . S
C1973 C496 1.844 . S
C1975 C938 1.839 . S
C1984 C734 1.837 . S
C1986 C1108 1.842 . S
C1995 C768 1.844 . S
C1997 C1040 1.840 . S
C2006 C1074 1.837 . S
C2008 C802 1.842 . S
C2017 C991 1.090 . S
C2019 C5 1.093 . S
C2028 C923 1.088 . S
C2030 C39 1.090 . S
C2039 C957 1.095 . S
C2041 C73 1.095 . S
C2050 C107 1.089 . S
C2052 C447 1.089 . S
C2061 C141 1.091 . S
C2063 C481 1.090 . S
C2072 C413 1.090 . S
C2074 C175 1.093 . S
C2083 C209 1.095 . S
C2085 C787 1.092 . S
C2094 C719 1.089 . S
C2096 C243 1.089 . S
C2105 C277 1.096 . S
C2107 C753 1.095 . S
C2116 C311 1.095 . S
C2118 C1059 1.095 . S
C2127 C1093 1.093 . S
C2129 C345 1.091 . S
C2138 C379 1.089 . S
C2140 C1025 1.089 . S
C2149 C855 1.093 . S
C2151 C515 1.090 . S
C2160 C549 1.092 . S
C2162 C889 1.090 . S
C2171 C583 1.089 . S
C2173 C821 1.090 . S
C2182 C617 1.096 . S
C2184 C1195 1.094 . S
C2193 C1127 1.096 . S
C2195 C651 1.094 . S
C2204 C1161 1.091 . S
C2206 C685 1.090 . S
