# Generated by pormake.
# Topology umj, (4)-cn, num edge types: 1
# Building blocks:
#     Node 0, Type 0, BuildingBlock: MUDLON_clean_sbu_0, # of connection points: 4
#     Node 1, Type 0, BuildingBlock: MUDLON_clean_sbu_0, # of connection points: 4
#     Node 2, Type 0, BuildingBlock: MUDLON_clean_sbu_0, # of connection points: 4
#     Node 3, Type 0, BuildingBlock: MUDLON_clean_sbu_0, # of connection points: 4
#     Node 4, Type 0, BuildingBlock: MUDLON_clean_sbu_0, # of connection points: 4
#     Node 5, Type 0, BuildingBlock: MUDLON_clean_sbu_0, # of connection points: 4
#     Node 6, Type 0, BuildingBlock: MUDLON_clean_sbu_0, # of connection points: 4
#     Node 7, Type 0, BuildingBlock: MUDLON_clean_sbu_0, # of connection points: 4
#     Node 8, Type 0, BuildingBlock: MUDLON_clean_sbu_0, # of connection points: 4
#     Node 9, Type 0, BuildingBlock: MUDLON_clean_sbu_0, # of connection points: 4
#     Node 10, Type 0, BuildingBlock: MUDLON_clean_sbu_0, # of connection points: 4
#     Node 11, Type 0, BuildingBlock: MUDLON_clean_sbu_0, # of connection points: 4
#     Edge 12, Type (0, 0), BuildingBlock: CIFDUS_clean_linker_0, # of connection points: 2
#     Edge 13, Type (0, 0), BuildingBlock: CIFDUS_clean_linker_0, # of connection points: 2
#     Edge 14, Type (0, 0), BuildingBlock: CIFDUS_clean_linker_0, # of connection points: 2
#     Edge 15, Type (0, 0), BuildingBlock: CIFDUS_clean_linker_0, # of connection points: 2
#     Edge 16, Type (0, 0), BuildingBlock: CIFDUS_clean_linker_0, # of connection points: 2
#     Edge 17, Type (0, 0), BuildingBlock: CIFDUS_clean_linker_0, # of connection points: 2
#     Edge 18, Type (0, 0), BuildingBlock: CIFDUS_clean_linker_0, # of connection points: 2
#     Edge 19, Type (0, 0), BuildingBlock: CIFDUS_clean_linker_0, # of connection points: 2
#     Edge 20, Type (0, 0), BuildingBlock: CIFDUS_clean_linker_0, # of connection points: 2
#     Edge 21, Type (0, 0), BuildingBlock: CIFDUS_clean_linker_0, # of connection points: 2
#     Edge 22, Type (0, 0), BuildingBlock: CIFDUS_clean_linker_0, # of connection points: 2
#     Edge 23, Type (0, 0), BuildingBlock: CIFDUS_clean_linker_0, # of connection points: 2
#     Edge 24, Type (0, 0), BuildingBlock: CIFDUS_clean_linker_0, # of connection points: 2
#     Edge 25, Type (0, 0), BuildingBlock: CIFDUS_clean_linker_0, # of connection points: 2
#     Edge 26, Type (0, 0), BuildingBlock: CIFDUS_clean_linker_0, # of connection points: 2
#     Edge 27, Type (0, 0), BuildingBlock: CIFDUS_clean_linker_0, # of connection points: 2
#     Edge 28, Type (0, 0), BuildingBlock: CIFDUS_clean_linker_0, # of connection points: 2
#     Edge 29, Type (0, 0), BuildingBlock: CIFDUS_clean_linker_0, # of connection points: 2
#     Edge 30, Type (0, 0), BuildingBlock: CIFDUS_clean_linker_0, # of connection points: 2
#     Edge 31, Type (0, 0), BuildingBlock: CIFDUS_clean_linker_0, # of connection points: 2
#     Edge 32, Type (0, 0), BuildingBlock: CIFDUS_clean_linker_0, # of connection points: 2
#     Edge 33, Type (0, 0), BuildingBlock: CIFDUS_clean_linker_0, # of connection points: 2
#     Edge 34, Type (0, 0), BuildingBlock: CIFDUS_clean_linker_0, # of connection points: 2
#     Edge 35, Type (0, 0), BuildingBlock: CIFDUS_clean_linker_0, # of connection points: 2
# Relax obj value: 0.017
# Max RMSD: 0.120
# Mean RMSD: 0.120
data_MOF--net-umj--node1-MUDLON_clean_sbu_0--edge1-CIFDUS_clean_linker_0
_symmetry_space_group_name_H-M    P1
_symmetry_Int_Tables_number       1
_symmetry_cell_setting            triclinic
loop_
_symmetry_equiv_pos_as_xyz
'x, y, z'
_cell_length_a     26.820485
_cell_length_b     26.993396
_cell_length_c     76.90355
_cell_angle_alpha  90.12097
_cell_angle_beta   89.801786
_cell_angle_gamma 120.7104
loop_
_atom_site_label
_atom_site_type_symbol
_atom_site_fract_x
_atom_site_fract_y
_atom_site_fract_z
_atom_type_partial_charge
Mg0 Mg 0.03497 0.27353 0.10182 0.0
C1 C 1.0 0.2555 0.13746 0.0
O2 O 0.95337 0.23756 0.12789 0.0
C3 C 0.0821 0.31706 0.06796 0.0
O4 O 0.02665 0.30002 0.06754 0.0
C5 C 0.02638 0.37376 0.10075 0.0
O6 O 0.08063 0.39012 0.1042 0.0
O7 O 0.9901 0.32027 0.0989 0.0
O8 O 0.04885 0.27612 0.12977 0.0
O9 O 0.99079 0.18313 0.09535 0.0
C10 C 0.02733 0.1665 0.09418 0.0
O11 O 0.08256 0.20474 0.09636 0.0
O12 O 0.10362 0.31306 0.08228 0.0
Mg13 Mg 0.78081 0.04281 0.43021 0.0
C14 C 0.77307 0.02009 0.46684 0.0
O15 O 0.74727 0.96997 0.45888 0.0
C16 C 0.8456 0.15977 0.40929 0.0
O17 O 0.87407 0.18582 0.4235 0.0
C18 C 0.66984 0.0297 0.42924 0.0
O19 O 0.70763 0.08475 0.43153 0.0
O20 O 0.68837 0.99497 0.42783 0.0
O21 O 0.79549 0.06564 0.45759 0.0
O22 O 0.82541 0.99719 0.42483 0.0
C23 C 0.87984 0.03193 0.42424 0.0
O24 O 0.89961 0.0871 0.42664 0.0
O25 O 0.808 0.10642 0.40969 0.0
Mg26 Mg 0.73307 0.78394 0.77001 0.0
C27 C 0.74911 0.7717 0.80625 0.0
O28 O 0.77195 0.7461 0.79755 0.0
C29 C 0.69254 0.79249 0.73609 0.0
O30 O 0.70678 0.75269 0.73489 0.0
C31 C 0.62608 0.67544 0.76855 0.0
O32 O 0.61391 0.71605 0.77162 0.0
O33 O 0.67931 0.6902 0.7669 0.0
O34 O 0.72611 0.79529 0.79769 0.0
O35 O 0.82667 0.83772 0.76512 0.0
C36 C 0.84118 0.89076 0.765 0.0
O37 O 0.80017 0.90323 0.76715 0.0
O38 O 0.69664 0.81576 0.75086 0.0
Mg39 Mg 0.97559 0.74367 0.09952 0.0
C40 C 0.99856 0.75512 0.13612 0.0
O41 O 0.04899 0.77952 0.12812 0.0
C42 C 0.85712 0.68509 0.07866 0.0
O43 O 0.82952 0.68531 0.09278 0.0
C44 C 0.98652 0.6458 0.09777 0.0
O45 O 0.93161 0.62889 0.10033 0.0
O46 O 0.02289 0.69952 0.09658 0.0
O47 O 0.95273 0.73326 0.12692 0.0
O48 O 0.01893 0.83502 0.09448 0.0
C49 C 0.98235 0.85169 0.09388 0.0
O50 O 0.92715 0.81324 0.09603 0.0
O51 O 0.91131 0.70477 0.07918 0.0
Mg52 Mg 0.23743 0.96005 0.43274 0.0
C53 C 0.2403 0.98163 0.46916 0.0
O54 O 0.26622 0.03165 0.46115 0.0
C55 C 0.24118 0.92503 0.39784 0.0
O56 O 0.27829 0.98067 0.39891 0.0
C57 C 0.34907 0.97374 0.43305 0.0
O58 O 0.3114 0.91857 0.43517 0.0
O59 O 0.33037 0.00831 0.43167 0.0
O60 O 0.21916 0.93599 0.45996 0.0
O61 O 0.19398 1.00637 0.42699 0.0
C62 C 0.14033 0.9719 0.42426 0.0
O63 O 0.12048 0.91621 0.42471 0.0
O64 O 0.21345 0.8985 0.41151 0.0
Mg65 Mg 0.29044 0.22738 0.77229 0.0
C66 C 0.27564 0.2405 0.80877 0.0
O67 O 0.25315 0.26674 0.80034 0.0
C68 C 0.32911 0.2169 0.73826 0.0
O69 O 0.31523 0.25695 0.73714 0.0
C70 C 0.39765 0.33564 0.77031 0.0
O71 O 0.40972 0.29514 0.7736 0.0
O72 O 0.34443 0.32091 0.76876 0.0
O73 O 0.29785 0.21646 0.79997 0.0
O74 O 0.19695 0.17338 0.76748 0.0
C75 C 0.18254 0.12057 0.769 0.0
O76 O 0.2234 0.10918 0.77279 0.0
O77 O 0.32569 0.19423 0.75306 0.0
Mg78 Mg 0.72926 0.94961 0.60658 0.0
C79 C 0.74563 0.97444 0.56991 0.0
O80 O 0.771 0.0244 0.57797 0.0
C81 C 0.6894 0.90093 0.64072 0.0
O82 O 0.70335 0.95512 0.64178 0.0
C83 C 0.6217 0.94941 0.60806 0.0
O84 O 0.6098 0.89662 0.60485 0.0
O85 O 0.67495 0.98869 0.60972 0.0
O86 O 0.72096 0.92868 0.57906 0.0
O87 O 0.82313 0.98859 0.61116 0.0
C88 C 0.83619 0.94935 0.60964 0.0
O89 O 0.79419 0.89681 0.606 0.0
O90 O 0.69324 0.88151 0.62598 0.0
Mg91 Mg 0.78743 0.72581 0.94478 0.0
C92 C 0.78012 0.74328 0.90858 0.0
O93 O 0.75844 0.77021 0.91715 0.0
C94 C 0.78379 0.68423 0.97937 0.0
O95 O 0.74753 0.70333 0.97896 0.0
C96 C 0.6722 0.62973 0.94575 0.0
O97 O 0.70726 0.60988 0.94303 0.0
O98 O 0.69404 0.68398 0.94706 0.0
O99 O 0.7998 0.71683 0.91728 0.0
O100 O 0.84246 0.81718 0.94991 0.0
C101 C 0.89512 0.83048 0.95156 0.0
O102 O 0.90736 0.78923 0.95055 0.0
O103 O 0.81011 0.6856 0.96538 0.0
Mg104 Mg 0.06631 0.78325 0.27573 0.0
C105 C 0.04358 0.77159 0.23913 0.0
O106 O 0.99333 0.74966 0.24714 0.0
C107 C 0.18013 0.85289 0.29769 0.0
O108 O 0.20225 0.88948 0.28471 0.0
C109 C 0.05048 0.6704 0.27836 0.0
O110 O 0.10603 0.7072 0.27597 0.0
O111 O 0.01612 0.68998 0.27917 0.0
O112 O 0.08933 0.79197 0.24833 0.0
O113 O 0.0325 0.84138 0.27946 0.0
C114 C 0.06792 0.89102 0.27319 0.0
O115 O 0.11455 0.89812 0.26523 0.0
O116 O 0.13027 0.80828 0.29614 0.0
Mg117 Mg 0.28314 0.05508 0.60864 0.0
C118 C 0.26629 0.02996 0.5721 0.0
O119 O 0.24089 0.98022 0.58026 0.0
C120 C 0.32412 0.1038 0.64278 0.0
O121 O 0.30989 0.04954 0.64384 0.0
C122 C 0.39055 0.05499 0.60968 0.0
O123 O 0.40257 0.10796 0.60679 0.0
O124 O 0.33726 0.01569 0.61132 0.0
O125 O 0.29128 0.07596 0.58115 0.0
O126 O 0.18911 0.01583 0.61318 0.0
C127 C 0.17601 0.05523 0.613 0.0
O128 O 0.21819 0.10874 0.61076 0.0
O129 O 0.31983 0.12306 0.6281 0.0
Mg130 Mg 0.23053 0.27456 0.94789 0.0
C131 C 0.24238 0.26249 0.91146 0.0
O132 O 0.26339 0.23458 0.91973 0.0
C133 C 0.17277 0.33266 0.96937 0.0
O134 O 0.14636 0.33427 0.95521 0.0
C135 C 0.34498 0.36974 0.95016 0.0
O136 O 0.30972 0.38957 0.94796 0.0
O137 O 0.32329 0.31543 0.95108 0.0
O138 O 0.22171 0.28764 0.92045 0.0
O139 O 0.174 0.18266 0.95178 0.0
C140 C 0.12126 0.16914 0.9502 0.0
O141 O 0.11016 0.21021 0.94677 0.0
O142 O 0.20665 0.31289 0.96867 0.0
Mg143 Mg 0.98134 0.23678 0.27691 0.0
C144 C 0.01305 0.24176 0.24127 0.0
O145 O 0.05963 0.25855 0.25079 0.0
C146 C 0.93661 0.23791 0.31084 0.0
O147 O 0.99267 0.275 0.31113 0.0
C148 C 0.99577 0.35005 0.27753 0.0
O149 O 0.94071 0.31309 0.27449 0.0
O150 O 0.03002 0.33064 0.27932 0.0
O151 O 0.96514 0.22595 0.24906 0.0
O152 O 0.01776 0.18179 0.28241 0.0
C153 C 0.97993 0.13084 0.2872 0.0
O154 O 0.92633 0.11858 0.28966 0.0
O155 O 0.91388 0.21213 0.29659 0.0
H156 H 0.93016 0.22179 0.21706 0.0
H157 H 0.10917 0.26835 0.22222 0.0
H158 H 0.12163 0.27753 0.19081 0.0
H159 H 0.08237 0.27356 0.16163 0.0
H160 H 0.90321 0.22639 0.15648 0.0
H161 H 0.89056 0.21658 0.18787 0.0
C162 C 0.97177 0.23366 0.21131 0.0
C163 C 0.01852 0.2444 0.22205 0.0
C164 C 0.97892 0.23912 0.19313 0.0
C165 C 0.07227 0.2599 0.21432 0.0
C166 C 0.07961 0.26528 0.19631 0.0
C167 C 0.04066 0.26128 0.16739 0.0
C168 C 0.99399 0.25085 0.15666 0.0
C169 C 0.03337 0.25532 0.18556 0.0
C170 C 0.94005 0.23466 0.16437 0.0
C171 C 0.93262 0.22897 0.18238 0.0
H172 H 0.72647 0.9291 0.48895 0.0
H173 H 0.82193 0.11513 0.4881 0.0
H174 H 0.82194 0.11693 0.51992 0.0
H175 H 0.7942 0.0657 0.54783 0.0
H176 H 0.69828 0.87965 0.54862 0.0
H177 H 0.69913 0.87793 0.51682 0.0
C178 C 0.74742 0.97017 0.49568 0.0
C179 C 0.7742 0.02199 0.48612 0.0
C180 C 0.74709 0.97083 0.51393 0.0
C181 C 0.80104 0.07467 0.49511 0.0
C182 C 0.80101 0.07569 0.51331 0.0
C183 C 0.77346 0.02466 0.54109 0.0
C184 C 0.74614 0.97279 0.55064 0.0
C185 C 0.77406 0.02403 0.52283 0.0
C186 C 0.71956 0.92015 0.54163 0.0
C187 C 0.72005 0.91916 0.52344 0.0
H188 H 0.79346 0.7226 0.82707 0.0
H189 H 0.70824 0.82176 0.82878 0.0
H190 H 0.7111 0.82185 0.86057 0.0
H191 H 0.73732 0.79351 0.8877 0.0
H192 H 0.82197 0.69383 0.88608 0.0
H193 H 0.81984 0.69433 0.85426 0.0
C194 C 0.77548 0.74433 0.83436 0.0
C195 C 0.75062 0.77218 0.82552 0.0
C196 C 0.77721 0.7441 0.8526 0.0
C197 C 0.72757 0.8 0.83522 0.0
C198 C 0.72922 0.80006 0.8534 0.0
C199 C 0.75545 0.77188 0.88043 0.0
C200 C 0.77984 0.74364 0.8893 0.0
C201 C 0.75389 0.77222 0.8622 0.0
C202 C 0.80298 0.71586 0.87961 0.0
C203 C 0.80173 0.71614 0.86142 0.0
H204 H 0.08991 0.79588 0.15818 0.0
H205 H 0.90297 0.71019 0.1574 0.0
H206 H 0.90093 0.70766 0.18921 0.0
H207 H 0.95217 0.73001 0.21708 0.0
H208 H 0.1391 0.8156 0.21785 0.0
H209 H 0.14112 0.81783 0.18604 0.0
C210 C 0.0486 0.77662 0.16492 0.0
C211 C 0.99659 0.75329 0.15539 0.0
C212 C 0.0478 0.77528 0.18317 0.0
C213 C 0.94358 0.72847 0.1644 0.0
C214 C 0.94243 0.72702 0.18258 0.0
C215 C 0.99348 0.74917 0.21033 0.0
C216 C 0.0455 0.77267 0.21986 0.0
C217 C 0.99426 0.75032 0.19208 0.0
C218 C 0.09848 0.79722 0.21085 0.0
C219 C 0.09963 0.79852 0.19267 0.0
H220 H 0.21777 0.93809 0.55024 0.0
H221 H 0.31319 0.12416 0.55061 0.0
H222 H 0.31234 0.125 0.51881 0.0
H223 H 0.28555 0.07309 0.49108 0.0
H224 H 0.19093 0.88704 0.4906 0.0
H225 H 0.19032 0.88607 0.52244 0.0
C226 C 0.23838 0.97894 0.5434 0.0
C227 C 0.2656 0.03108 0.55283 0.0
C228 C 0.23784 0.97905 0.52515 0.0
C229 C 0.29201 0.08347 0.54371 0.0
C230 C 0.29152 0.08395 0.52552 0.0
C231 C 0.26461 0.03218 0.49789 0.0
C232 C 0.23829 0.98012 0.48843 0.0
C233 C 0.26469 0.03201 0.51613 0.0
C234 C 0.21147 0.92767 0.49753 0.0
C235 C 0.21117 0.92714 0.51573 0.0
H236 H 0.23189 0.28932 0.83016 0.0
H237 H 0.31622 0.18929 0.83078 0.0
H238 H 0.31304 0.18756 0.86257 0.0
H239 H 0.28625 0.21418 0.89002 0.0
H240 H 0.20208 0.31435 0.88952 0.0
H241 H 0.2053 0.31624 0.85769 0.0
C242 C 0.24964 0.26709 0.83721 0.0
C243 C 0.27428 0.2394 0.82806 0.0
C244 C 0.24765 0.26629 0.85547 0.0
C245 C 0.29705 0.21092 0.83746 0.0
C246 C 0.29521 0.20991 0.85564 0.0
C247 C 0.26852 0.23648 0.883 0.0
C248 C 0.24387 0.26409 0.89218 0.0
C249 C 0.27059 0.23741 0.86476 0.0
C250 C 0.22125 0.29276 0.8828 0.0
C251 C 0.2231 0.29384 0.86461 0.0
H252 H 0.05183 0.34571 0.03782 0.0
H253 H 0.18591 0.32396 0.06088 0.0
H254 H 0.23005 0.33404 0.03218 0.0
H255 H 0.22326 0.33714 1.00039 0.0
H256 H 0.08659 0.35506 0.9774 0.0
H257 H 0.05104 0.35904 1.00636 0.0
C258 C 0.09116 0.34386 0.03663 0.0
C259 C 0.1151 0.33321 0.05143 0.0
C260 C 0.11548 0.34856 1.02011 0.0
C261 C 0.16654 0.33191 0.04969 0.0
C262 C 0.19155 0.33733 0.03328 0.0
C263 C 0.18609 0.34264 1.00167 0.0
C264 C 0.15702 0.34484 0.9867 0.0
C265 C 0.16527 0.34382 1.01835 0.0
C266 C 0.10953 0.35284 0.98866 0.0
C267 C 0.08904 0.35488 1.00522 0.0
H268 H 0.79272 0.11762 0.37818 0.0
H269 H 0.93738 0.26717 0.40176 0.0
H270 H 0.97416 0.30777 0.37296 0.0
H271 H 0.97142 0.29528 0.34136 0.0
H272 H 0.82924 0.14402 0.31773 0.0
H273 H 0.78474 0.10989 0.34638 0.0
C274 C 0.83195 0.15947 0.37707 0.0
C275 C 0.86279 0.1889 0.39215 0.0
C276 C 0.85342 0.182 0.36048 0.0
C277 C 0.91301 0.2434 0.39042 0.0
C278 C 0.93419 0.26653 0.37394 0.0
C279 C 0.93028 0.25514 0.34242 0.0
C280 C 0.90406 0.22177 0.32745 0.0
C281 C 0.90572 0.23534 0.35892 0.0
C282 C 0.85038 0.17039 0.32904 0.0
C283 C 0.82514 0.15074 0.34543 0.0
H284 H 0.67681 0.7471 0.70373 0.0
H285 H 0.67992 0.8865 0.73231 0.0
H286 H 0.67273 0.92897 0.70506 0.0
H287 H 0.67591 0.93159 0.6732 0.0
H288 H 0.67672 0.79414 0.64461 0.0
H289 H 0.67137 0.74534 0.67191 0.0
C290 C 0.67528 0.78647 0.70406 0.0
C291 C 0.67966 0.81402 0.72004 0.0
C292 C 0.67221 0.8111 0.68835 0.0
C293 C 0.67689 0.86458 0.7202 0.0
C294 C 0.67302 0.88899 0.70462 0.0
C295 C 0.67427 0.89061 0.67289 0.0
C296 C 0.67748 0.8669 0.65687 0.0
C297 C 0.67227 0.86342 0.68862 0.0
C298 C 0.6746 0.81347 0.65674 0.0
C299 C 0.67177 0.78568 0.67235 0.0
H300 H 0.9001 0.67048 0.04835 0.0
H301 H 0.74969 0.66664 0.07026 0.0
H302 H 0.71022 0.65833 0.04109 0.0
H303 H 0.72441 0.66438 1.0095 0.0
H304 H 0.87667 0.67235 0.98753 0.0
H305 H 0.90916 0.66597 1.01671 0.0
C306 C 0.85831 0.66714 0.04679 0.0
C307 C 0.82832 0.6702 0.06147 0.0
C308 C 0.83648 0.66348 0.02999 0.0
C309 C 0.77383 0.66479 0.05921 0.0
C310 C 0.75138 0.6603 0.04252 0.0
C311 C 0.76439 0.66397 1.01105 0.0
C312 C 0.7986 0.66975 0.99639 0.0
C313 C 0.78326 0.66151 0.02783 0.0
C314 C 0.84971 0.66819 0.9986 0.0
C315 C 0.86843 0.66489 1.01529 0.0
H316 H 0.13742 0.79219 0.32771 0.0
H317 H 0.28258 0.94843 0.30713 0.0
H318 H 0.31761 0.98114 0.33662 0.0
H319 H 0.30083 0.97049 0.36802 0.0
H320 H 0.15311 0.81688 0.38875 0.0
H321 H 0.12551 0.77766 0.3593 0.0
C322 C 0.17723 0.83307 0.32962 0.0
C323 C 0.20692 0.8682 0.31518 0.0
C324 C 0.19628 0.85227 0.34662 0.0
C325 C 0.25863 0.92074 0.31796 0.0
C326 C 0.27856 0.93957 0.33484 0.0
C327 C 0.26285 0.92811 0.36616 0.0
C328 C 0.22855 0.89697 0.38055 0.0
C329 C 0.24671 0.90652 0.34923 0.0
C330 C 0.18006 0.84184 0.3779 0.0
C331 C 0.16418 0.81954 0.36106 0.0
H332 H 0.33856 0.07356 0.67515 0.0
H333 H 0.33877 0.2114 0.6467 0.0
H334 H 0.34684 0.2616 0.67398 0.0
H335 H 0.34365 0.26122 0.70583 0.0
H336 H 0.33957 0.12156 0.73434 0.0
H337 H 0.34393 0.0774 0.707 0.0
C338 C 0.341 0.11491 0.67486 0.0
C339 C 0.33731 0.13836 0.6589 0.0
C340 C 0.34461 0.14296 0.6906 0.0
C341 C 0.34123 0.19226 0.65879 0.0
C342 C 0.34563 0.22086 0.6744 0.0
C343 C 0.34435 0.22141 0.70611 0.0
C344 C 0.34053 0.19431 0.72211 0.0
C345 C 0.34576 0.19582 0.69037 0.0
C346 C 0.34222 0.14317 0.72222 0.0
C347 C 0.34445 0.11779 0.70658 0.0
H348 H 0.91619 0.5304 0.09607 0.0
H349 H 0.09679 0.66402 0.09784 0.0
H350 H 0.12479 0.59081 0.09846 0.0
H351 H 0.09753 0.48936 0.09964 0.0
H352 H 0.91682 0.35595 0.09786 0.0
H353 H 0.88913 0.42916 0.09608 0.0
C354 C 0.96175 0.54364 0.09655 0.0
C355 C 1.00441 0.60252 0.09704 0.0
C356 C 0.97737 0.50152 0.09696 0.0
C357 C 0.0632 0.61895 0.09747 0.0
C358 C 0.07917 0.57715 0.09788 0.0
C359 C 0.05203 0.4762 0.09885 0.0
C360 C 1.00919 0.41735 0.09902 0.0
C361 C 0.03655 0.51838 0.09782 0.0
C362 C 0.95054 0.40099 0.0978 0.0
C363 C 0.93472 0.44279 0.0968 0.0
H364 H 0.62075 0.09559 0.42949 0.0
H365 H 0.57909 0.91846 0.42851 0.0
H366 H 0.47569 0.88582 0.42945 0.0
H367 H 0.39797 0.9078 0.43124 0.0
H368 H 0.43967 0.08493 0.43209 0.0
H369 H 0.54299 0.11757 0.43053 0.0
C370 C 0.58911 0.0498 0.42945 0.0
C371 C 0.60744 0.00944 0.42901 0.0
C372 C 0.53006 0.03147 0.43003 0.0
C373 C 0.56597 0.95033 0.42885 0.0
C374 C 0.50694 0.93168 0.42943 0.0
C375 C 0.42961 0.95358 0.4311 0.0
C376 C 0.41135 0.99395 0.43189 0.0
C377 C 0.48863 0.97191 0.43015 0.0
C378 C 0.45277 0.05307 0.43154 0.0
C379 C 0.51175 0.07171 0.43065 0.0
H380 H 0.39197 0.4341 0.7679 0.0
H381 H 0.51302 0.37365 0.76924 0.0
H382 H 0.59419 0.4723 0.76807 0.0
H383 H 0.63187 0.57682 0.76775 0.0
H384 H 0.51081 0.63729 0.76693 0.0
H385 H 0.42965 0.53854 0.76673 0.0
C386 C 0.43608 0.44253 0.76783 0.0
C387 C 0.44606 0.39631 0.76874 0.0
C388 C 0.48307 0.49978 0.7673 0.0
C389 C 0.50372 0.40822 0.76866 0.0
C390 C 0.55044 0.4648 0.76798 0.0
C391 C 0.58776 0.56835 0.76741 0.0
C392 C 0.57775 0.61462 0.76744 0.0
C393 C 0.54077 0.51106 0.76746 0.0
C394 C 0.52011 0.60268 0.76703 0.0
C395 C 0.4734 0.54605 0.76691 0.0
H396 H 0.38591 0.95073 0.61031 0.0
H397 H 0.50571 0.13432 0.61125 0.0
H398 H 0.58744 0.11888 0.61144 0.0
H399 H 0.62623 0.05345 0.61035 0.0
H400 H 0.50644 0.86989 0.60893 0.0
H401 H 0.42469 0.88524 0.60997 0.0
C402 C 0.42986 0.98729 0.61067 0.0
C403 C 0.43924 0.04352 0.61069 0.0
C404 C 0.4773 0.97825 0.61062 0.0
C405 C 0.49677 0.0904 0.61112 0.0
C406 C 0.54387 0.08172 0.61124 0.0
C407 C 0.58228 0.01686 0.61036 0.0
C408 C 0.57292 0.96069 0.60948 0.0
C409 C 0.53483 0.02586 0.61083 0.0
C410 C 0.51538 0.91378 0.60949 0.0
C411 C 0.46826 0.9224 0.6101 0.0
H412 H 0.3996 0.48609 0.95088 0.0
H413 H 0.43235 0.3452 0.95031 0.0
H414 H 0.53681 0.41391 0.94922 0.0
H415 H 0.61798 0.51345 0.94746 0.0
H416 H 0.58511 0.65427 0.94803 0.0
H417 H 0.48085 0.58562 0.9501 0.0
C418 C 0.42949 0.47025 0.95058 0.0
C419 C 0.40822 0.41055 0.95058 0.0
C420 C 0.48922 0.50988 0.94988 0.0
C421 C 0.44761 0.39089 0.95031 0.0
C422 C 0.50727 0.43015 0.94964 0.0
C423 C 0.58809 0.52927 0.94804 0.0
C424 C 0.60924 0.58892 0.94747 0.0
C425 C 0.52844 0.48966 0.94925 0.0
C426 C 0.56993 0.6086 0.9484 0.0
C427 C 0.51037 0.56939 0.94957 0.0
H428 H 0.11672 0.62123 0.2803 0.0
H429 H 0.93834 0.57903 0.2786 0.0
H430 H 0.90617 0.47623 0.27858 0.0
H431 H 0.92898 0.39893 0.27808 0.0
H432 H 0.10742 0.44131 0.27988 0.0
H433 H 0.13939 0.54398 0.28084 0.0
C434 C 0.0707 0.58966 0.27997 0.0
C435 C 0.02994 0.60793 0.27935 0.0
C436 C 0.05265 0.53081 0.27992 0.0
C437 C 0.97058 0.56626 0.27907 0.0
C438 C 0.95222 0.50749 0.27902 0.0
C439 C 0.97495 0.43053 0.27871 0.0
C440 C 0.01583 0.41235 0.27879 0.0
C441 C 0.99292 0.48935 0.27928 0.0
C442 C 0.07509 0.45401 0.27976 0.0
C443 C 0.09335 0.51271 0.28029 0.0
H444 H 0.09675 0.12126 0.09142 0.0
H445 H 0.91669 0.0739 0.09205 0.0
H446 H 0.88727 0.97199 0.09095 0.0
H447 H 0.91282 0.89693 0.09164 0.0
H448 H 0.09291 0.94438 0.09174 0.0
H449 H 0.12229 0.04625 0.09065 0.0
C450 C 0.05101 0.08874 0.0912 0.0
C451 C 1.00893 0.10513 0.09196 0.0
C452 C 0.0345 0.03043 0.09079 0.0
C453 C 0.94991 0.06242 0.09154 0.0
C454 C 0.93309 1.00418 0.09095 0.0
C455 C 0.95856 0.92947 0.09133 0.0
C456 C 1.00067 0.91311 0.09192 0.0
C457 C 0.97505 0.98777 0.09087 0.0
C458 C 0.05967 0.95583 0.09137 0.0
C459 C 0.07646 0.01405 0.09077 0.0
H460 H 0.99683 0.09693 0.423 0.0
H461 H 0.85498 0.9207 0.42061 0.0
H462 H 0.92395 0.88704 0.41914 0.0
H463 H 0.0239 0.90753 0.42036 0.0
H464 H 0.16554 0.08368 0.42366 0.0
H465 H 0.09683 0.11764 0.42281 0.0
C466 C 0.98088 0.05113 0.42206 0.0
C467 C 0.92088 0.0113 0.42206 0.0
C468 C 0.02062 0.03215 0.42143 0.0
C469 C 0.90098 0.95218 0.42071 0.0
C470 C 0.94035 0.93293 0.41989 0.0
C471 C 0.03988 0.95341 0.42077 0.0
C472 C 0.09971 0.99303 0.42221 0.0
C473 C 1.0002 0.97252 0.42052 0.0
C474 C 0.11967 0.0523 0.42263 0.0
C475 C 0.08043 0.07173 0.42218 0.0
H476 H 0.08329 0.12447 0.76345 0.0
H477 H 0.14491 1.0061 0.7704 0.0
H478 H 0.04622 0.92472 0.76887 0.0
H479 H 0.94103 0.88613 0.76684 0.0
H480 H 0.87916 1.00434 0.76014 0.0
H481 H 0.97827 0.08559 0.76017 0.0
C482 C 0.07513 0.08089 0.76453 0.0
C483 C 0.12176 0.07185 0.76714 0.0
C484 C 0.01776 0.03367 0.76372 0.0
C485 C 0.11012 0.0148 0.76848 0.0
C486 C 0.05347 0.9679 0.7676 0.0
C487 C 0.94928 0.92959 0.76521 0.0
C488 C 0.90244 0.93879 0.76358 0.0
C489 C 1.00677 0.97669 0.7654 0.0
C490 C 0.91416 0.99566 0.76154 0.0
C491 C 0.97101 0.04244 0.76156 0.0
H492 H 0.93815 0.05273 0.61452 0.0
H493 H 0.87021 0.87021 0.60858 0.0
H494 H 0.96758 0.88546 0.6099 0.0
H495 H 0.07355 0.95083 0.61157 0.0
H496 H 0.1417 0.13341 0.61731 0.0
H497 H 0.04398 0.11775 0.61735 0.0
C498 C 0.94464 0.01631 0.61361 0.0
C499 C 0.89651 0.96051 0.61135 0.0
C500 C 1.00134 0.02526 0.61431 0.0
C501 C 0.90611 0.91385 0.61023 0.0
C502 C 0.96204 0.92241 0.61099 0.0
C503 C 0.06698 0.98708 0.61299 0.0
C504 C 0.11529 0.04317 0.61435 0.0
C505 C 1.01019 0.97796 0.61287 0.0
C506 C 0.10562 0.08963 0.61612 0.0
C507 C 0.04953 0.08083 0.61615 0.0
H508 H 0.88851 0.92799 0.95019 0.0
H509 H 1.00952 0.86892 0.95681 0.0
H510 H 0.09003 0.96811 0.95762 0.0
H511 H 0.127 0.07197 0.95513 0.0
H512 H 1.0059 0.13083 0.94825 0.0
H513 H 0.92509 0.03187 0.94893 0.0
C514 C 0.93242 0.93684 0.95195 0.0
C515 C 0.94284 0.89103 0.95333 0.0
C516 C 0.97883 0.99413 0.95228 0.0
C517 C 1.00012 0.90331 0.95562 0.0
C518 C 0.04636 0.96011 0.95607 0.0
C519 C 0.08293 0.06313 0.95388 0.0
C520 C 0.07273 0.1088 0.95153 0.0
C521 C 0.03636 1.0059 0.95419 0.0
C522 C 0.01523 0.09656 0.94997 0.0
C523 C 0.96879 0.03988 0.95036 0.0
H524 H 0.98207 0.89777 0.29078 0.0
H525 H 0.13595 0.9981 0.25965 0.0
H526 H 0.12542 0.08201 0.26232 0.0
H527 H 0.07102 0.1271 0.27259 0.0
H528 H 0.91609 0.02704 0.30321 0.0
H529 H 0.92902 0.94397 0.30182 0.0
C530 C 0.01322 0.93796 0.28458 0.0
C531 C 0.05951 0.94117 0.27497 0.0
C532 C 1.00703 0.98665 0.28614 0.0
C533 C 0.09967 0.99393 0.2671 0.0
C534 C 0.09386 0.04228 0.26863 0.0
C535 C 0.04061 0.08741 0.27918 0.0
C536 C 0.99275 0.08348 0.28799 0.0
C537 C 0.04763 0.03921 0.27806 0.0
C538 C 0.95335 0.03136 0.29629 0.0
C539 C 0.96055 0.98362 0.29546 0.0
loop_
_geom_bond_atom_site_label_1
_geom_bond_atom_site_label_2
_geom_bond_distance
_geom_bond_site_symmetry_2
_ccdc_geom_bond_type
Mg0 O7 2.141 . S
Mg0 O8 2.048 . S
Mg0 O9 2.048 . S
Mg0 O12 2.141 . S
C1 O2 1.313 . S
C1 O8 1.195 . S
O2 C1 1.313 . S
C3 O4 1.245 . S
C3 O12 1.289 . S
O4 C3 1.245 . S
C5 O6 1.245 . S
C5 O7 1.289 . S
O6 C5 1.245 . S
O7 Mg0 2.141 . S
O7 C5 1.289 . S
O8 Mg0 2.048 . S
O8 C1 1.195 . S
O9 Mg0 2.048 . S
O9 C10 1.195 . S
C10 O9 1.195 . S
C10 O11 1.313 . S
O11 C10 1.313 . S
O12 Mg0 2.141 . S
O12 C3 1.289 . S
Mg13 O20 2.141 . S
Mg13 O21 2.048 . S
Mg13 O22 2.048 . S
Mg13 O25 2.141 . S
C14 O15 1.313 . S
C14 O21 1.195 . S
O15 C14 1.313 . S
C16 O17 1.245 . S
C16 O25 1.289 . S
O17 C16 1.245 . S
C18 O19 1.245 . S
C18 O20 1.289 . S
O19 C18 1.245 . S
O20 Mg13 2.141 . S
O20 C18 1.289 . S
O21 Mg13 2.048 . S
O21 C14 1.195 . S
O22 Mg13 2.048 . S
O22 C23 1.195 . S
C23 O22 1.195 . S
C23 O24 1.313 . S
O24 C23 1.313 . S
O25 Mg13 2.141 . S
O25 C16 1.289 . S
Mg26 O33 2.141 . S
Mg26 O34 2.048 . S
Mg26 O35 2.048 . S
Mg26 O38 2.141 . S
C27 O28 1.313 . S
C27 O34 1.195 . S
O28 C27 1.313 . S
C29 O30 1.245 . S
C29 O38 1.289 . S
O30 C29 1.245 . S
C31 O32 1.245 . S
C31 O33 1.289 . S
O32 C31 1.245 . S
O33 Mg26 2.141 . S
O33 C31 1.289 . S
O34 Mg26 2.048 . S
O34 C27 1.195 . S
O35 Mg26 2.048 . S
O35 C36 1.195 . S
C36 O35 1.195 . S
C36 O37 1.313 . S
O37 C36 1.313 . S
O38 Mg26 2.141 . S
O38 C29 1.289 . S
Mg39 O46 2.141 . S
Mg39 O47 2.048 . S
Mg39 O48 2.048 . S
Mg39 O51 2.141 . S
C40 O41 1.313 . S
C40 O47 1.195 . S
O41 C40 1.313 . S
C42 O43 1.245 . S
C42 O51 1.289 . S
O43 C42 1.245 . S
C44 O45 1.245 . S
C44 O46 1.289 . S
O45 C44 1.245 . S
O46 Mg39 2.141 . S
O46 C44 1.289 . S
O47 Mg39 2.048 . S
O47 C40 1.195 . S
O48 Mg39 2.048 . S
O48 C49 1.195 . S
C49 O48 1.195 . S
C49 O50 1.313 . S
O50 C49 1.313 . S
O51 Mg39 2.141 . S
O51 C42 1.289 . S
Mg52 O59 2.141 . S
Mg52 O60 2.048 . S
Mg52 O61 2.048 . S
Mg52 O64 2.141 . S
C53 O54 1.313 . S
C53 O60 1.195 . S
O54 C53 1.313 . S
C55 O56 1.245 . S
C55 O64 1.289 . S
O56 C55 1.245 . S
C57 O58 1.245 . S
C57 O59 1.289 . S
O58 C57 1.245 . S
O59 Mg52 2.141 . S
O59 C57 1.289 . S
O60 Mg52 2.048 . S
O60 C53 1.195 . S
O61 Mg52 2.048 . S
O61 C62 1.195 . S
C62 O61 1.195 . S
C62 O63 1.313 . S
O63 C62 1.313 . S
O64 Mg52 2.141 . S
O64 C55 1.289 . S
Mg65 O72 2.141 . S
Mg65 O73 2.048 . S
Mg65 O74 2.048 . S
Mg65 O77 2.141 . S
C66 O67 1.313 . S
C66 O73 1.195 . S
O67 C66 1.313 . S
C68 O69 1.245 . S
C68 O77 1.289 . S
O69 C68 1.245 . S
C70 O71 1.245 . S
C70 O72 1.289 . S
O71 C70 1.245 . S
O72 Mg65 2.141 . S
O72 C70 1.289 . S
O73 Mg65 2.048 . S
O73 C66 1.195 . S
O74 Mg65 2.048 . S
O74 C75 1.195 . S
C75 O74 1.195 . S
C75 O76 1.313 . S
O76 C75 1.313 . S
O77 Mg65 2.141 . S
O77 C68 1.289 . S
Mg78 O85 2.141 . S
Mg78 O86 2.048 . S
Mg78 O87 2.048 . S
Mg78 O90 2.141 . S
C79 O80 1.313 . S
C79 O86 1.195 . S
O80 C79 1.313 . S
C81 O82 1.245 . S
C81 O90 1.289 . S
O82 C81 1.245 . S
C83 O84 1.245 . S
C83 O85 1.289 . S
O84 C83 1.245 . S
O85 Mg78 2.141 . S
O85 C83 1.289 . S
O86 Mg78 2.048 . S
O86 C79 1.195 . S
O87 Mg78 2.048 . S
O87 C88 1.195 . S
C88 O87 1.195 . S
C88 O89 1.313 . S
O89 C88 1.313 . S
O90 Mg78 2.141 . S
O90 C81 1.289 . S
Mg91 O98 2.141 . S
Mg91 O99 2.048 . S
Mg91 O100 2.048 . S
Mg91 O103 2.141 . S
C92 O93 1.313 . S
C92 O99 1.195 . S
O93 C92 1.313 . S
C94 O95 1.245 . S
C94 O103 1.289 . S
O95 C94 1.245 . S
C96 O97 1.245 . S
C96 O98 1.289 . S
O97 C96 1.245 . S
O98 Mg91 2.141 . S
O98 C96 1.289 . S
O99 Mg91 2.048 . S
O99 C92 1.195 . S
O100 Mg91 2.048 . S
O100 C101 1.195 . S
C101 O100 1.195 . S
C101 O102 1.313 . S
O102 C101 1.313 . S
O103 Mg91 2.141 . S
O103 C94 1.289 . S
Mg104 O111 2.141 . S
Mg104 O112 2.048 . S
Mg104 O113 2.048 . S
Mg104 O116 2.141 . S
C105 O106 1.313 . S
C105 O112 1.195 . S
O106 C105 1.313 . S
C107 O108 1.245 . S
C107 O116 1.289 . S
O108 C107 1.245 . S
C109 O110 1.245 . S
C109 O111 1.289 . S
O110 C109 1.245 . S
O111 Mg104 2.141 . S
O111 C109 1.289 . S
O112 Mg104 2.048 . S
O112 C105 1.195 . S
O113 Mg104 2.048 . S
O113 C114 1.195 . S
C114 O113 1.195 . S
C114 O115 1.313 . S
O115 C114 1.313 . S
O116 Mg104 2.141 . S
O116 C107 1.289 . S
Mg117 O124 2.141 . S
Mg117 O125 2.048 . S
Mg117 O126 2.048 . S
Mg117 O129 2.141 . S
C118 O119 1.313 . S
C118 O125 1.195 . S
O119 C118 1.313 . S
C120 O121 1.245 . S
C120 O129 1.289 . S
O121 C120 1.245 . S
C122 O123 1.245 . S
C122 O124 1.289 . S
O123 C122 1.245 . S
O124 Mg117 2.141 . S
O124 C122 1.289 . S
O125 Mg117 2.048 . S
O125 C118 1.195 . S
O126 Mg117 2.048 . S
O126 C127 1.195 . S
C127 O126 1.195 . S
C127 O128 1.313 . S
O128 C127 1.313 . S
O129 Mg117 2.141 . S
O129 C120 1.289 . S
Mg130 O137 2.141 . S
Mg130 O138 2.048 . S
Mg130 O139 2.048 . S
Mg130 O142 2.141 . S
C131 O132 1.313 . S
C131 O138 1.195 . S
O132 C131 1.313 . S
C133 O134 1.245 . S
C133 O142 1.289 . S
O134 C133 1.245 . S
C135 O136 1.245 . S
C135 O137 1.289 . S
O136 C135 1.245 . S
O137 Mg130 2.141 . S
O137 C135 1.289 . S
O138 Mg130 2.048 . S
O138 C131 1.195 . S
O139 Mg130 2.048 . S
O139 C140 1.195 . S
C140 O139 1.195 . S
C140 O141 1.313 . S
O141 C140 1.313 . S
O142 Mg130 2.141 . S
O142 C133 1.289 . S
Mg143 O150 2.141 . S
Mg143 O151 2.048 . S
Mg143 O152 2.048 . S
Mg143 O155 2.141 . S
C144 O145 1.313 . S
C144 O151 1.195 . S
O145 C144 1.313 . S
C146 O147 1.245 . S
C146 O155 1.289 . S
O147 C146 1.245 . S
C148 O149 1.245 . S
C148 O150 1.289 . S
O149 C148 1.245 . S
O150 Mg143 2.141 . S
O150 C148 1.289 . S
O151 Mg143 2.048 . S
O151 C144 1.195 . S
O152 Mg143 2.048 . S
O152 C153 1.195 . S
C153 O152 1.195 . S
C153 O154 1.313 . S
O154 C153 1.313 . S
O155 Mg143 2.141 . S
O155 C146 1.289 . S
H156 C162 0.930 1_455 S
H157 C165 0.930 . S
H158 C166 0.930 . S
H159 C167 0.930 1_655 S
H160 C170 0.930 . S
H161 C171 0.930 . S
C162 H156 0.930 1_655 S
C162 C163 1.355 . S
C162 C164 1.415 1_655 S
C163 C162 1.355 . S
C163 C165 1.419 . S
C164 C162 1.415 1_455 S
C164 C169 1.425 1_455 S
C164 C171 1.409 . S
C165 H157 0.930 . S
C165 C163 1.419 . S
C165 C166 1.362 . S
C166 H158 0.930 . S
C166 C165 1.362 . S
C166 C169 1.409 . S
C167 H159 0.930 1_455 S
C167 C168 1.355 . S
C167 C169 1.415 1_455 S
C168 C167 1.355 . S
C168 C170 1.419 . S
C169 C164 1.425 1_655 S
C169 C166 1.409 . S
C169 C167 1.415 1_655 S
C170 H160 0.930 . S
C170 C168 1.419 . S
C170 C171 1.362 . S
C171 H161 0.930 . S
C171 C164 1.409 . S
C171 C170 1.362 . S
H172 C178 0.930 1_565 S
H173 C181 0.930 . S
H174 C182 0.930 . S
H175 C183 0.930 1_545 S
H176 C186 0.930 . S
H177 C187 0.930 . S
C178 H172 0.930 1_545 S
C178 C179 1.355 . S
C178 C180 1.415 1_545 S
C179 C178 1.355 . S
C179 C181 1.419 . S
C180 C178 1.415 1_565 S
C180 C185 1.425 1_565 S
C180 C187 1.409 . S
C181 H173 0.930 . S
C181 C179 1.419 . S
C181 C182 1.362 . S
C182 H174 0.930 . S
C182 C181 1.362 . S
C182 C185 1.409 . S
C183 H175 0.930 1_565 S
C183 C184 1.355 . S
C183 C185 1.415 1_565 S
C184 C183 1.355 . S
C184 C186 1.419 . S
C185 C180 1.425 1_545 S
C185 C182 1.409 . S
C185 C183 1.415 1_545 S
C186 H176 0.930 . S
C186 C184 1.419 . S
C186 C187 1.362 . S
C187 H177 0.930 . S
C187 C180 1.409 . S
C187 C186 1.362 . S
H188 C194 0.930 . S
H189 C197 0.930 . S
H190 C198 0.930 . S
H191 C199 0.930 . S
H192 C202 0.930 . S
H193 C203 0.930 . S
C194 H188 0.930 . S
C194 C195 1.355 . S
C194 C196 1.415 . S
C195 C194 1.355 . S
C195 C197 1.419 . S
C196 C194 1.415 . S
C196 C201 1.425 . S
C196 C203 1.409 . S
C197 H189 0.930 . S
C197 C195 1.419 . S
C197 C198 1.362 . S
C198 H190 0.930 . S
C198 C197 1.362 . S
C198 C201 1.409 . S
C199 H191 0.930 . S
C199 C200 1.355 . S
C199 C201 1.415 . S
C200 C199 1.355 . S
C200 C202 1.419 . S
C201 C196 1.425 . S
C201 C198 1.409 . S
C201 C199 1.415 . S
C202 H192 0.930 . S
C202 C200 1.419 . S
C202 C203 1.362 . S
C203 H193 0.930 . S
C203 C196 1.409 . S
C203 C202 1.362 . S
H204 C210 0.930 . S
H205 C213 0.930 . S
H206 C214 0.930 . S
H207 C215 0.930 . S
H208 C218 0.930 . S
H209 C219 0.930 . S
C210 H204 0.930 . S
C210 C211 1.355 . S
C210 C212 1.415 . S
C211 C210 1.355 . S
C211 C213 1.419 1_655 S
C212 C210 1.415 . S
C212 C217 1.425 1_655 S
C212 C219 1.409 . S
C213 H205 0.930 . S
C213 C211 1.419 1_455 S
C213 C214 1.362 . S
C214 H206 0.930 . S
C214 C213 1.362 . S
C214 C217 1.409 . S
C215 H207 0.930 . S
C215 C216 1.355 . S
C215 C217 1.415 . S
C216 C215 1.355 . S
C216 C218 1.419 1_455 S
C217 C212 1.425 1_455 S
C217 C214 1.409 . S
C217 C215 1.415 . S
C218 H208 0.930 . S
C218 C216 1.419 1_655 S
C218 C219 1.362 . S
C219 H209 0.930 . S
C219 C212 1.409 . S
C219 C218 1.362 . S
H220 C226 0.930 . S
H221 C229 0.930 . S
H222 C230 0.930 . S
H223 C231 0.930 . S
H224 C234 0.930 . S
H225 C235 0.930 . S
C226 H220 0.930 . S
C226 C227 1.355 . S
C226 C228 1.415 . S
C227 C226 1.355 . S
C227 C229 1.419 1_545 S
C228 C226 1.415 . S
C228 C233 1.425 1_545 S
C228 C235 1.409 . S
C229 H221 0.930 . S
C229 C227 1.419 1_565 S
C229 C230 1.362 . S
C230 H222 0.930 . S
C230 C229 1.362 . S
C230 C233 1.409 . S
C231 H223 0.930 . S
C231 C232 1.355 . S
C231 C233 1.415 . S
C232 C231 1.355 . S
C232 C234 1.419 1_565 S
C233 C228 1.425 1_565 S
C233 C230 1.409 . S
C233 C231 1.415 . S
C234 H224 0.930 . S
C234 C232 1.419 1_545 S
C234 C235 1.362 . S
C235 H225 0.930 . S
C235 C228 1.409 . S
C235 C234 1.362 . S
H236 C242 0.930 . S
H237 C245 0.930 . S
H238 C246 0.930 . S
H239 C247 0.930 . S
H240 C250 0.930 . S
H241 C251 0.930 . S
C242 H236 0.930 . S
C242 C243 1.355 . S
C242 C244 1.415 . S
C243 C242 1.355 . S
C243 C245 1.419 . S
C244 C242 1.415 . S
C244 C249 1.425 . S
C244 C251 1.409 . S
C245 H237 0.930 . S
C245 C243 1.419 . S
C245 C246 1.362 . S
C246 H238 0.930 . S
C246 C245 1.362 . S
C246 C249 1.409 . S
C247 H239 0.930 . S
C247 C248 1.355 . S
C247 C249 1.415 . S
C248 C247 1.355 . S
C248 C250 1.419 . S
C249 C244 1.425 . S
C249 C246 1.409 . S
C249 C247 1.415 . S
C250 H240 0.930 . S
C250 C248 1.419 . S
C250 C251 1.362 . S
C251 H241 0.930 . S
C251 C244 1.409 . S
C251 C250 1.362 . S
H252 C258 0.930 . S
H253 C261 0.930 . S
H254 C262 0.930 . S
H255 C263 0.930 . S
H256 C266 0.930 . S
H257 C267 0.930 . S
C258 H252 0.930 . S
C258 C259 1.355 . S
C258 C260 1.415 . S
C259 C258 1.355 . S
C259 C261 1.419 . S
C260 C258 1.415 . S
C260 C265 1.425 1_554 S
C260 C267 1.409 1_554 S
C261 H253 0.930 . S
C261 C259 1.419 . S
C261 C262 1.362 . S
C262 H254 0.930 . S
C262 C261 1.362 . S
C262 C265 1.409 1_554 S
C263 H255 0.930 . S
C263 C264 1.355 . S
C263 C265 1.415 . S
C264 C263 1.355 . S
C264 C266 1.419 . S
C265 C260 1.425 1_556 S
C265 C262 1.409 1_556 S
C265 C263 1.415 . S
C266 H256 0.930 . S
C266 C264 1.419 . S
C266 C267 1.362 . S
C267 H257 0.930 . S
C267 C260 1.409 1_556 S
C267 C266 1.362 . S
H268 C274 0.930 . S
H269 C277 0.930 . S
H270 C278 0.930 . S
H271 C279 0.930 . S
H272 C282 0.930 . S
H273 C283 0.930 . S
C274 H268 0.930 . S
C274 C275 1.355 . S
C274 C276 1.415 . S
C275 C274 1.355 . S
C275 C277 1.419 . S
C276 C274 1.415 . S
C276 C281 1.425 . S
C276 C283 1.409 . S
C277 H269 0.930 . S
C277 C275 1.419 . S
C277 C278 1.362 . S
C278 H270 0.930 . S
C278 C277 1.362 . S
C278 C281 1.409 . S
C279 H271 0.930 . S
C279 C280 1.355 . S
C279 C281 1.415 . S
C280 C279 1.355 . S
C280 C282 1.419 . S
C281 C276 1.425 . S
C281 C278 1.409 . S
C281 C279 1.415 . S
C282 H272 0.930 . S
C282 C280 1.419 . S
C282 C283 1.362 . S
C283 H273 0.930 . S
C283 C276 1.409 . S
C283 C282 1.362 . S
H284 C290 0.930 . S
H285 C293 0.930 . S
H286 C294 0.930 . S
H287 C295 0.930 . S
H288 C298 0.930 . S
H289 C299 0.930 . S
C290 H284 0.930 . S
C290 C291 1.355 . S
C290 C292 1.415 . S
C291 C290 1.355 . S
C291 C293 1.419 . S
C292 C290 1.415 . S
C292 C297 1.425 . S
C292 C299 1.409 . S
C293 H285 0.930 . S
C293 C291 1.419 . S
C293 C294 1.362 . S
C294 H286 0.930 . S
C294 C293 1.362 . S
C294 C297 1.409 . S
C295 H287 0.930 . S
C295 C296 1.355 . S
C295 C297 1.415 . S
C296 C295 1.355 . S
C296 C298 1.419 . S
C297 C292 1.425 . S
C297 C294 1.409 . S
C297 C295 1.415 . S
C298 H288 0.930 . S
C298 C296 1.419 . S
C298 C299 1.362 . S
C299 H289 0.930 . S
C299 C292 1.409 . S
C299 C298 1.362 . S
H300 C306 0.930 . S
H301 C309 0.930 . S
H302 C310 0.930 . S
H303 C311 0.930 . S
H304 C314 0.930 . S
H305 C315 0.930 . S
C306 H300 0.930 . S
C306 C307 1.355 . S
C306 C308 1.424 . S
C307 C306 1.355 . S
C307 C309 1.419 . S
C308 C306 1.424 . S
C308 C313 1.425 1_554 S
C308 C315 1.400 1_554 S
C309 H301 0.930 . S
C309 C307 1.419 . S
C309 C310 1.362 . S
C310 H302 0.930 . S
C310 C309 1.362 . S
C310 C313 1.400 1_554 S
C311 H303 0.930 . S
C311 C312 1.355 . S
C311 C313 1.424 . S
C312 C311 1.355 . S
C312 C314 1.419 . S
C313 C308 1.425 1_556 S
C313 C310 1.400 1_556 S
C313 C311 1.424 . S
C314 H304 0.930 . S
C314 C312 1.419 . S
C314 C315 1.362 . S
C315 H305 0.930 . S
C315 C308 1.400 1_556 S
C315 C314 1.362 . S
H316 C322 0.930 . S
H317 C325 0.930 . S
H318 C326 0.930 . S
H319 C327 0.930 . S
H320 C330 0.930 . S
H321 C331 0.930 . S
C322 H316 0.930 . S
C322 C323 1.355 . S
C322 C324 1.415 . S
C323 C322 1.355 . S
C323 C325 1.419 . S
C324 C322 1.415 . S
C324 C329 1.425 . S
C324 C331 1.409 . S
C325 H317 0.930 . S
C325 C323 1.419 . S
C325 C326 1.362 . S
C326 H318 0.930 . S
C326 C325 1.362 . S
C326 C329 1.409 . S
C327 H319 0.930 . S
C327 C328 1.355 . S
C327 C329 1.415 . S
C328 C327 1.355 . S
C328 C330 1.419 . S
C329 C324 1.425 . S
C329 C326 1.409 . S
C329 C327 1.415 . S
C330 H320 0.930 . S
C330 C328 1.419 . S
C330 C331 1.362 . S
C331 H321 0.930 . S
C331 C324 1.409 . S
C331 C330 1.362 . S
H332 C338 0.930 . S
H333 C341 0.930 . S
H334 C342 0.930 . S
H335 C343 0.930 . S
H336 C346 0.930 . S
H337 C347 0.930 . S
C338 H332 0.930 . S
C338 C339 1.355 . S
C338 C340 1.415 . S
C339 C338 1.355 . S
C339 C341 1.419 . S
C340 C338 1.415 . S
C340 C345 1.425 . S
C340 C347 1.409 . S
C341 H333 0.930 . S
C341 C339 1.419 . S
C341 C342 1.362 . S
C342 H334 0.930 . S
C342 C341 1.362 . S
C342 C345 1.409 . S
C343 H335 0.930 . S
C343 C344 1.355 . S
C343 C345 1.415 . S
C344 C343 1.355 . S
C344 C346 1.419 . S
C345 C340 1.425 . S
C345 C342 1.409 . S
C345 C343 1.415 . S
C346 H336 0.930 . S
C346 C344 1.419 . S
C346 C347 1.362 . S
C347 H337 0.930 . S
C347 C340 1.409 . S
C347 C346 1.362 . S
H348 C354 0.930 . S
H349 C357 0.930 . S
H350 C358 0.930 . S
H351 C359 0.930 . S
H352 C362 0.930 . S
H353 C363 0.930 . S
C354 H348 0.930 . S
C354 C355 1.355 . S
C354 C356 1.415 . S
C355 C354 1.355 . S
C355 C357 1.419 1_655 S
C356 C354 1.415 . S
C356 C361 1.425 1_655 S
C356 C363 1.409 . S
C357 H349 0.930 . S
C357 C355 1.419 1_455 S
C357 C358 1.362 . S
C358 H350 0.930 . S
C358 C357 1.362 . S
C358 C361 1.409 . S
C359 H351 0.930 . S
C359 C360 1.355 . S
C359 C361 1.415 . S
C360 C359 1.355 . S
C360 C362 1.419 1_455 S
C361 C356 1.425 1_455 S
C361 C358 1.409 . S
C361 C359 1.415 . S
C362 H352 0.930 . S
C362 C360 1.419 1_655 S
C362 C363 1.362 . S
C363 H353 0.930 . S
C363 C356 1.409 . S
C363 C362 1.362 . S
H364 C370 0.930 . S
H365 C373 0.930 . S
H366 C374 0.930 . S
H367 C375 0.930 . S
H368 C378 0.930 . S
H369 C379 0.930 . S
C370 H364 0.930 . S
C370 C371 1.355 . S
C370 C372 1.415 . S
C371 C370 1.355 . S
C371 C373 1.419 1_545 S
C372 C370 1.415 . S
C372 C377 1.425 1_545 S
C372 C379 1.409 . S
C373 H365 0.930 . S
C373 C371 1.419 1_565 S
C373 C374 1.362 . S
C374 H366 0.930 . S
C374 C373 1.362 . S
C374 C377 1.409 . S
C375 H367 0.930 . S
C375 C376 1.355 . S
C375 C377 1.415 . S
C376 C375 1.355 . S
C376 C378 1.419 1_565 S
C377 C372 1.425 1_565 S
C377 C374 1.409 . S
C377 C375 1.415 . S
C378 H368 0.930 . S
C378 C376 1.419 1_545 S
C378 C379 1.362 . S
C379 H369 0.930 . S
C379 C372 1.409 . S
C379 C378 1.362 . S
H380 C386 0.930 . S
H381 C389 0.930 . S
H382 C390 0.930 . S
H383 C391 0.930 . S
H384 C394 0.930 . S
H385 C395 0.930 . S
C386 H380 0.930 . S
C386 C387 1.355 . S
C386 C388 1.415 . S
C387 C386 1.355 . S
C387 C389 1.419 . S
C388 C386 1.415 . S
C388 C393 1.425 . S
C388 C395 1.409 . S
C389 H381 0.930 . S
C389 C387 1.419 . S
C389 C390 1.362 . S
C390 H382 0.930 . S
C390 C389 1.362 . S
C390 C393 1.409 . S
C391 H383 0.930 . S
C391 C392 1.355 . S
C391 C393 1.415 . S
C392 C391 1.355 . S
C392 C394 1.419 . S
C393 C388 1.425 . S
C393 C390 1.409 . S
C393 C391 1.415 . S
C394 H384 0.930 . S
C394 C392 1.419 . S
C394 C395 1.362 . S
C395 H385 0.930 . S
C395 C388 1.409 . S
C395 C394 1.362 . S
H396 C402 0.930 . S
H397 C405 0.930 . S
H398 C406 0.930 . S
H399 C407 0.930 . S
H400 C410 0.930 . S
H401 C411 0.930 . S
C402 H396 0.930 . S
C402 C403 1.355 1_565 S
C402 C404 1.415 . S
C403 C402 1.355 1_545 S
C403 C405 1.419 . S
C404 C402 1.415 . S
C404 C409 1.425 1_565 S
C404 C411 1.409 . S
C405 H397 0.930 . S
C405 C403 1.419 . S
C405 C406 1.362 . S
C406 H398 0.930 . S
C406 C405 1.362 . S
C406 C409 1.409 . S
C407 H399 0.930 . S
C407 C408 1.355 1_545 S
C407 C409 1.415 . S
C408 C407 1.355 1_565 S
C408 C410 1.419 . S
C409 C404 1.425 1_545 S
C409 C406 1.409 . S
C409 C407 1.415 . S
C410 H400 0.930 . S
C410 C408 1.419 . S
C410 C411 1.362 . S
C411 H401 0.930 . S
C411 C404 1.409 . S
C411 C410 1.362 . S
H412 C418 0.930 . S
H413 C421 0.930 . S
H414 C422 0.930 . S
H415 C423 0.930 . S
H416 C426 0.930 . S
H417 C427 0.930 . S
C418 H412 0.930 . S
C418 C419 1.355 . S
C418 C420 1.415 . S
C419 C418 1.355 . S
C419 C421 1.419 . S
C420 C418 1.415 . S
C420 C425 1.425 . S
C420 C427 1.409 . S
C421 H413 0.930 . S
C421 C419 1.419 . S
C421 C422 1.362 . S
C422 H414 0.930 . S
C422 C421 1.362 . S
C422 C425 1.409 . S
C423 H415 0.930 . S
C423 C424 1.355 . S
C423 C425 1.415 . S
C424 C423 1.355 . S
C424 C426 1.419 . S
C425 C420 1.425 . S
C425 C422 1.409 . S
C425 C423 1.415 . S
C426 H416 0.930 . S
C426 C424 1.419 . S
C426 C427 1.362 . S
C427 H417 0.930 . S
C427 C420 1.409 . S
C427 C426 1.362 . S
H428 C434 0.930 . S
H429 C437 0.930 . S
H430 C438 0.930 . S
H431 C439 0.930 . S
H432 C442 0.930 . S
H433 C443 0.930 . S
C434 H428 0.930 . S
C434 C435 1.355 . S
C434 C436 1.415 . S
C435 C434 1.355 . S
C435 C437 1.419 1_455 S
C436 C434 1.415 . S
C436 C441 1.425 1_455 S
C436 C443 1.409 . S
C437 H429 0.930 . S
C437 C435 1.419 1_655 S
C437 C438 1.362 . S
C438 H430 0.930 . S
C438 C437 1.362 . S
C438 C441 1.409 . S
C439 H431 0.930 . S
C439 C440 1.355 . S
C439 C441 1.415 . S
C440 C439 1.355 . S
C440 C442 1.419 1_655 S
C441 C436 1.425 1_655 S
C441 C438 1.409 . S
C441 C439 1.415 . S
C442 H432 0.930 . S
C442 C440 1.419 1_455 S
C442 C443 1.362 . S
C443 H433 0.930 . S
C443 C436 1.409 . S
C443 C442 1.362 . S
H444 C450 0.930 . S
H445 C453 0.930 . S
H446 C454 0.930 . S
H447 C455 0.930 . S
H448 C458 0.930 . S
H449 C459 0.930 . S
C450 H444 0.930 . S
C450 C451 1.355 . S
C450 C452 1.415 . S
C451 C450 1.355 . S
C451 C453 1.419 . S
C452 C450 1.415 . S
C452 C457 1.425 1_445 S
C452 C459 1.409 1_545 S
C453 H445 0.930 . S
C453 C451 1.419 . S
C453 C454 1.362 1_455 S
C454 H446 0.930 . S
C454 C453 1.362 1_655 S
C454 C457 1.409 1_545 S
C455 H447 0.930 . S
C455 C456 1.355 . S
C455 C457 1.415 . S
C456 C455 1.355 . S
C456 C458 1.419 . S
C457 C452 1.425 1_665 S
C457 C454 1.409 1_565 S
C457 C455 1.415 . S
C458 H448 0.930 . S
C458 C456 1.419 . S
C458 C459 1.362 1_655 S
C459 H449 0.930 . S
C459 C452 1.409 1_565 S
C459 C458 1.362 1_455 S
H460 C466 0.930 . S
H461 C469 0.930 . S
H462 C470 0.930 1_455 S
H463 C471 0.930 . S
H464 C474 0.930 . S
H465 C475 0.930 1_655 S
C466 H460 0.930 . S
C466 C467 1.355 . S
C466 C468 1.415 1_545 S
C467 C466 1.355 . S
C467 C469 1.419 . S
C468 C466 1.415 1_565 S
C468 C473 1.425 1_665 S
C468 C475 1.409 1_655 S
C469 H461 0.930 . S
C469 C467 1.419 . S
C469 C470 1.362 . S
C470 H462 0.930 1_655 S
C470 C469 1.362 . S
C470 C473 1.409 1_655 S
C471 H463 0.930 . S
C471 C472 1.355 . S
C471 C473 1.415 1_565 S
C472 C471 1.355 . S
C472 C474 1.419 . S
C473 C468 1.425 1_445 S
C473 C470 1.409 1_455 S
C473 C471 1.415 1_545 S
C474 H464 0.930 . S
C474 C472 1.419 . S
C474 C475 1.362 . S
C475 H465 0.930 1_455 S
C475 C468 1.409 1_455 S
C475 C474 1.362 . S
H476 C482 0.930 . S
H477 C485 0.930 . S
H478 C486 0.930 . S
H479 C487 0.930 . S
H480 C490 0.930 . S
H481 C491 0.930 . S
C482 H476 0.930 . S
C482 C483 1.355 . S
C482 C484 1.415 . S
C483 C482 1.355 . S
C483 C485 1.419 . S
C484 C482 1.415 . S
C484 C489 1.425 1_445 S
C484 C491 1.409 1_455 S
C485 H477 0.930 . S
C485 C483 1.419 . S
C485 C486 1.362 1_545 S
C486 H478 0.930 . S
C486 C485 1.362 1_565 S
C486 C489 1.409 1_455 S
C487 H479 0.930 . S
C487 C488 1.355 . S
C487 C489 1.415 . S
C488 C487 1.355 . S
C488 C490 1.419 . S
C489 C484 1.425 1_665 S
C489 C486 1.409 1_655 S
C489 C487 1.415 . S
C490 H480 0.930 . S
C490 C488 1.419 . S
C490 C491 1.362 1_565 S
C491 H481 0.930 . S
C491 C484 1.409 1_655 S
C491 C490 1.362 1_545 S
H492 C498 0.930 1_545 S
H493 C501 0.930 . S
H494 C502 0.930 . S
H495 C503 0.930 1_565 S
H496 C506 0.930 . S
H497 C507 0.930 . S
C498 H492 0.930 1_565 S
C498 C499 1.355 . S
C498 C500 1.415 1_565 S
C499 C498 1.355 . S
C499 C501 1.419 . S
C500 C498 1.415 1_545 S
C500 C505 1.425 1_645 S
C500 C507 1.409 1_655 S
C501 H493 0.930 . S
C501 C499 1.419 . S
C501 C502 1.362 . S
C502 H494 0.930 . S
C502 C501 1.362 . S
C502 C505 1.409 1_655 S
C503 H495 0.930 1_545 S
C503 C504 1.355 . S
C503 C505 1.415 1_545 S
C504 C503 1.355 . S
C504 C506 1.419 . S
C505 C500 1.425 1_465 S
C505 C502 1.409 1_455 S
C505 C503 1.415 1_565 S
C506 H496 0.930 . S
C506 C504 1.419 . S
C506 C507 1.362 . S
C507 H497 0.930 . S
C507 C500 1.409 1_455 S
C507 C506 1.362 . S
H508 C514 0.930 . S
H509 C517 0.930 . S
H510 C518 0.930 . S
H511 C519 0.930 . S
H512 C522 0.930 . S
H513 C523 0.930 . S
C514 H508 0.930 . S
C514 C515 1.355 . S
C514 C516 1.415 . S
C515 C514 1.355 . S
C515 C517 1.419 . S
C516 C514 1.415 . S
C516 C521 1.425 1_665 S
C516 C523 1.409 1_565 S
C517 H509 0.930 . S
C517 C515 1.419 . S
C517 C518 1.362 1_655 S
C518 H510 0.930 . S
C518 C517 1.362 1_455 S
C518 C521 1.409 1_565 S
C519 H511 0.930 . S
C519 C520 1.355 . S
C519 C521 1.415 . S
C520 C519 1.355 . S
C520 C522 1.419 . S
C521 C516 1.425 1_445 S
C521 C518 1.409 1_545 S
C521 C519 1.415 . S
C522 H512 0.930 . S
C522 C520 1.419 . S
C522 C523 1.362 1_455 S
C523 H513 0.930 . S
C523 C516 1.409 1_545 S
C523 C522 1.362 1_655 S
H524 C530 0.930 . S
H525 C533 0.930 . S
H526 C534 0.930 . S
H527 C535 0.930 . S
H528 C538 0.930 . S
H529 C539 0.930 . S
C530 H524 0.930 . S
C530 C531 1.355 1_655 S
C530 C532 1.415 . S
C531 C530 1.355 1_455 S
C531 C533 1.419 1_565 S
C532 C530 1.415 . S
C532 C537 1.425 1_665 S
C532 C539 1.409 . S
C533 H525 0.930 . S
C533 C531 1.419 1_545 S
C533 C534 1.362 . S
C534 H526 0.930 . S
C534 C533 1.362 . S
C534 C537 1.409 . S
C535 H527 0.930 . S
C535 C536 1.355 1_455 S
C535 C537 1.415 . S
C536 C535 1.355 1_655 S
C536 C538 1.419 1_545 S
C537 C532 1.425 1_445 S
C537 C534 1.409 . S
C537 C535 1.415 . S
C538 H528 0.930 . S
C538 C536 1.419 1_565 S
C538 C539 1.362 . S
C539 H529 0.930 . S
C539 C532 1.409 . S
C539 C538 1.362 . S
C163 C144 1.484 . S
C168 C1 1.495 . S
C179 C14 1.506 . S
C184 C79 1.492 . S
C195 C27 1.509 . S
C200 C92 1.513 . S
C211 C40 1.512 . S
C216 C105 1.503 . S
C227 C118 1.505 . S
C232 C53 1.513 . S
C243 C66 1.488 . S
C248 C131 1.501 . S
C259 C3 1.510 . S
C264 C133 1.500 . S
C275 C16 1.484 . S
C280 C146 1.488 . S
C291 C29 1.521 . S
C296 C81 1.525 . S
C307 C42 1.484 . S
C312 C94 1.485 . S
C323 C107 1.490 . S
C328 C55 1.500 . S
C339 C120 1.488 . S
C344 C68 1.497 . S
C355 C44 1.767 . S
C360 C5 1.770 . S
C371 C18 1.764 . S
C376 C57 1.764 . S
C387 C70 1.789 . S
C392 C31 1.789 . S
C403 C122 1.788 . S
C408 C83 1.786 . S
C419 C135 1.765 . S
C424 C96 1.767 . S
C435 C109 1.767 . S
C440 C148 1.770 . S
C451 C10 1.674 . S
C456 C49 1.665 . S
C467 C23 1.665 . S
C472 C62 1.674 . S
C483 C75 1.673 . S
C488 C36 1.681 . S
C499 C88 1.672 . S
C504 C127 1.681 . S
C515 C101 1.675 . S
C520 C140 1.683 . S
C531 C114 1.686 . S
C536 C153 1.688 . S
