# Generated by pormake.
# Topology uoa, (4)-cn, num edge types: 1
# Building blocks:
#     Node 0, Type 0, BuildingBlock: GALJAG_clean_sbu_0, # of connection points: 4
#     Node 1, Type 0, BuildingBlock: GALJAG_clean_sbu_0, # of connection points: 4
#     Node 2, Type 0, BuildingBlock: GALJAG_clean_sbu_0, # of connection points: 4
#     Node 3, Type 0, BuildingBlock: GALJAG_clean_sbu_0, # of connection points: 4
#     Node 4, Type 0, BuildingBlock: GALJAG_clean_sbu_0, # of connection points: 4
#     Node 5, Type 0, BuildingBlock: GALJAG_clean_sbu_0, # of connection points: 4
#     Node 6, Type 0, BuildingBlock: GALJAG_clean_sbu_0, # of connection points: 4
#     Node 7, Type 0, BuildingBlock: GALJAG_clean_sbu_0, # of connection points: 4
#     Node 8, Type 0, BuildingBlock: GALJAG_clean_sbu_0, # of connection points: 4
#     Node 9, Type 0, BuildingBlock: GALJAG_clean_sbu_0, # of connection points: 4
#     Node 10, Type 0, BuildingBlock: GALJAG_clean_sbu_0, # of connection points: 4
#     Node 11, Type 0, BuildingBlock: GALJAG_clean_sbu_0, # of connection points: 4
#     Node 12, Type 0, BuildingBlock: GALJAG_clean_sbu_0, # of connection points: 4
#     Node 13, Type 0, BuildingBlock: GALJAG_clean_sbu_0, # of connection points: 4
#     Node 14, Type 0, BuildingBlock: GALJAG_clean_sbu_0, # of connection points: 4
#     Node 15, Type 0, BuildingBlock: GALJAG_clean_sbu_0, # of connection points: 4
#     Node 16, Type 0, BuildingBlock: GALJAG_clean_sbu_0, # of connection points: 4
#     Node 17, Type 0, BuildingBlock: GALJAG_clean_sbu_0, # of connection points: 4
#     Node 18, Type 0, BuildingBlock: GALJAG_clean_sbu_0, # of connection points: 4
#     Node 19, Type 0, BuildingBlock: GALJAG_clean_sbu_0, # of connection points: 4
#     Node 20, Type 0, BuildingBlock: GALJAG_clean_sbu_0, # of connection points: 4
#     Node 21, Type 0, BuildingBlock: GALJAG_clean_sbu_0, # of connection points: 4
#     Node 22, Type 0, BuildingBlock: GALJAG_clean_sbu_0, # of connection points: 4
#     Node 23, Type 0, BuildingBlock: GALJAG_clean_sbu_0, # of connection points: 4
#     Node 24, Type 0, BuildingBlock: GALJAG_clean_sbu_0, # of connection points: 4
#     Node 25, Type 0, BuildingBlock: GALJAG_clean_sbu_0, # of connection points: 4
#     Node 26, Type 0, BuildingBlock: GALJAG_clean_sbu_0, # of connection points: 4
#     Node 27, Type 0, BuildingBlock: GALJAG_clean_sbu_0, # of connection points: 4
#     Node 28, Type 0, BuildingBlock: GALJAG_clean_sbu_0, # of connection points: 4
#     Node 29, Type 0, BuildingBlock: GALJAG_clean_sbu_0, # of connection points: 4
#     Node 30, Type 0, BuildingBlock: GALJAG_clean_sbu_0, # of connection points: 4
#     Node 31, Type 0, BuildingBlock: GALJAG_clean_sbu_0, # of connection points: 4
#     Edge 32, Type (0, 0), BuildingBlock: XIVTED_clean_linker_0, # of connection points: 2
#     Edge 33, Type (0, 0), BuildingBlock: XIVTED_clean_linker_0, # of connection points: 2
#     Edge 34, Type (0, 0), BuildingBlock: XIVTED_clean_linker_0, # of connection points: 2
#     Edge 35, Type (0, 0), BuildingBlock: XIVTED_clean_linker_0, # of connection points: 2
#     Edge 36, Type (0, 0), BuildingBlock: XIVTED_clean_linker_0, # of connection points: 2
#     Edge 37, Type (0, 0), BuildingBlock: XIVTED_clean_linker_0, # of connection points: 2
#     Edge 38, Type (0, 0), BuildingBlock: XIVTED_clean_linker_0, # of connection points: 2
#     Edge 39, Type (0, 0), BuildingBlock: XIVTED_clean_linker_0, # of connection points: 2
#     Edge 40, Type (0, 0), BuildingBlock: XIVTED_clean_linker_0, # of connection points: 2
#     Edge 41, Type (0, 0), BuildingBlock: XIVTED_clean_linker_0, # of connection points: 2
#     Edge 42, Type (0, 0), BuildingBlock: XIVTED_clean_linker_0, # of connection points: 2
#     Edge 43, Type (0, 0), BuildingBlock: XIVTED_clean_linker_0, # of connection points: 2
#     Edge 44, Type (0, 0), BuildingBlock: XIVTED_clean_linker_0, # of connection points: 2
#     Edge 45, Type (0, 0), BuildingBlock: XIVTED_clean_linker_0, # of connection points: 2
#     Edge 46, Type (0, 0), BuildingBlock: XIVTED_clean_linker_0, # of connection points: 2
#     Edge 47, Type (0, 0), BuildingBlock: XIVTED_clean_linker_0, # of connection points: 2
#     Edge 48, Type (0, 0), BuildingBlock: XIVTED_clean_linker_0, # of connection points: 2
#     Edge 49, Type (0, 0), BuildingBlock: XIVTED_clean_linker_0, # of connection points: 2
#     Edge 50, Type (0, 0), BuildingBlock: XIVTED_clean_linker_0, # of connection points: 2
#     Edge 51, Type (0, 0), BuildingBlock: XIVTED_clean_linker_0, # of connection points: 2
#     Edge 52, Type (0, 0), BuildingBlock: XIVTED_clean_linker_0, # of connection points: 2
#     Edge 53, Type (0, 0), BuildingBlock: XIVTED_clean_linker_0, # of connection points: 2
#     Edge 54, Type (0, 0), BuildingBlock: XIVTED_clean_linker_0, # of connection points: 2
#     Edge 55, Type (0, 0), BuildingBlock: XIVTED_clean_linker_0, # of connection points: 2
#     Edge 56, Type (0, 0), BuildingBlock: XIVTED_clean_linker_0, # of connection points: 2
#     Edge 57, Type (0, 0), BuildingBlock: XIVTED_clean_linker_0, # of connection points: 2
#     Edge 58, Type (0, 0), BuildingBlock: XIVTED_clean_linker_0, # of connection points: 2
#     Edge 59, Type (0, 0), BuildingBlock: XIVTED_clean_linker_0, # of connection points: 2
#     Edge 60, Type (0, 0), BuildingBlock: XIVTED_clean_linker_0, # of connection points: 2
#     Edge 61, Type (0, 0), BuildingBlock: XIVTED_clean_linker_0, # of connection points: 2
#     Edge 62, Type (0, 0), BuildingBlock: XIVTED_clean_linker_0, # of connection points: 2
#     Edge 63, Type (0, 0), BuildingBlock: XIVTED_clean_linker_0, # of connection points: 2
#     Edge 64, Type (0, 0), BuildingBlock: XIVTED_clean_linker_0, # of connection points: 2
#     Edge 65, Type (0, 0), BuildingBlock: XIVTED_clean_linker_0, # of connection points: 2
#     Edge 66, Type (0, 0), BuildingBlock: XIVTED_clean_linker_0, # of connection points: 2
#     Edge 67, Type (0, 0), BuildingBlock: XIVTED_clean_linker_0, # of connection points: 2
#     Edge 68, Type (0, 0), BuildingBlock: XIVTED_clean_linker_0, # of connection points: 2
#     Edge 69, Type (0, 0), BuildingBlock: XIVTED_clean_linker_0, # of connection points: 2
#     Edge 70, Type (0, 0), BuildingBlock: XIVTED_clean_linker_0, # of connection points: 2
#     Edge 71, Type (0, 0), BuildingBlock: XIVTED_clean_linker_0, # of connection points: 2
#     Edge 72, Type (0, 0), BuildingBlock: XIVTED_clean_linker_0, # of connection points: 2
#     Edge 73, Type (0, 0), BuildingBlock: XIVTED_clean_linker_0, # of connection points: 2
#     Edge 74, Type (0, 0), BuildingBlock: XIVTED_clean_linker_0, # of connection points: 2
#     Edge 75, Type (0, 0), BuildingBlock: XIVTED_clean_linker_0, # of connection points: 2
#     Edge 76, Type (0, 0), BuildingBlock: XIVTED_clean_linker_0, # of connection points: 2
#     Edge 77, Type (0, 0), BuildingBlock: XIVTED_clean_linker_0, # of connection points: 2
#     Edge 78, Type (0, 0), BuildingBlock: XIVTED_clean_linker_0, # of connection points: 2
#     Edge 79, Type (0, 0), BuildingBlock: XIVTED_clean_linker_0, # of connection points: 2
#     Edge 80, Type (0, 0), BuildingBlock: XIVTED_clean_linker_0, # of connection points: 2
#     Edge 81, Type (0, 0), BuildingBlock: XIVTED_clean_linker_0, # of connection points: 2
#     Edge 82, Type (0, 0), BuildingBlock: XIVTED_clean_linker_0, # of connection points: 2
#     Edge 83, Type (0, 0), BuildingBlock: XIVTED_clean_linker_0, # of connection points: 2
#     Edge 84, Type (0, 0), BuildingBlock: XIVTED_clean_linker_0, # of connection points: 2
#     Edge 85, Type (0, 0), BuildingBlock: XIVTED_clean_linker_0, # of connection points: 2
#     Edge 86, Type (0, 0), BuildingBlock: XIVTED_clean_linker_0, # of connection points: 2
#     Edge 87, Type (0, 0), BuildingBlock: XIVTED_clean_linker_0, # of connection points: 2
#     Edge 88, Type (0, 0), BuildingBlock: XIVTED_clean_linker_0, # of connection points: 2
#     Edge 89, Type (0, 0), BuildingBlock: XIVTED_clean_linker_0, # of connection points: 2
#     Edge 90, Type (0, 0), BuildingBlock: XIVTED_clean_linker_0, # of connection points: 2
#     Edge 91, Type (0, 0), BuildingBlock: XIVTED_clean_linker_0, # of connection points: 2
#     Edge 92, Type (0, 0), BuildingBlock: XIVTED_clean_linker_0, # of connection points: 2
#     Edge 93, Type (0, 0), BuildingBlock: XIVTED_clean_linker_0, # of connection points: 2
#     Edge 94, Type (0, 0), BuildingBlock: XIVTED_clean_linker_0, # of connection points: 2
#     Edge 95, Type (0, 0), BuildingBlock: XIVTED_clean_linker_0, # of connection points: 2
# Relax obj value: 0.050
# Max RMSD: 0.160
# Mean RMSD: 0.160
data_MOF--net-uoa--node1-GALJAG_clean_sbu_0--edge1-XIVTED_clean_linker_0
_symmetry_space_group_name_H-M    P1
_symmetry_Int_Tables_number       1
_symmetry_cell_setting            triclinic
loop_
_symmetry_equiv_pos_as_xyz
'x, y, z'
_cell_length_a     75.229381
_cell_length_b     75.224331
_cell_length_c     28.531674
_cell_angle_alpha  90.003
_cell_angle_beta   89.921953
_cell_angle_gamma 90.107152
loop_
_atom_site_label
_atom_site_type_symbol
_atom_site_fract_x
_atom_site_fract_y
_atom_site_fract_z
_atom_type_partial_charge
In0 In 0.00837 0.11535 0.99441 0.0
O1 O 0.03275 0.11167 0.04189 0.0
O2 O 0.03058 0.13531 0.00132 0.0
C3 C 0.00254 0.08011 0.99013 0.0
C4 C 0.98715 0.12781 0.06421 0.0
C5 C 0.0066 0.1247 0.90282 0.0
O6 O 0.01762 0.08647 1.00059 0.0
O7 O 0.99071 0.09152 0.98143 0.0
O8 O 0.99488 0.12944 0.93206 0.0
O9 O 0.019 0.11557 0.91998 0.0
C10 C 0.03919 0.12674 0.03177 0.0
O11 O -0.00102 0.13721 0.04514 0.0
O12 O 0.98505 0.11283 0.04546 0.0
In13 In 0.13489 0.76048 0.25821 0.0
O14 O 0.11903 0.74329 0.31069 0.0
O15 O 0.14654 0.74771 0.3231 0.0
C16 C 0.1194 0.75648 0.1732 0.0
C17 C 0.12359 0.79078 0.29815 0.0
C18 C 0.16868 0.75427 0.23329 0.0
O19 O 0.11934 0.74424 0.20356 0.0
O20 O 0.12648 0.77078 0.18667 0.0
O21 O 0.16343 0.76948 0.24615 0.0
O22 O 0.15683 0.74234 0.23276 0.0
C23 C 0.13221 0.74094 0.33746 0.0
O24 O 0.13889 0.78955 0.28019 0.0
O25 O 0.11395 0.77714 0.29379 0.0
In26 In 0.46895 0.90205 0.52799 0.0
O27 O 0.49058 0.88939 0.57418 0.0
O28 O 0.46843 0.90174 0.6072 0.0
C29 C 0.47777 0.89147 0.44072 0.0
C30 C 0.43849 0.88416 0.54203 0.0
C31 C 0.47566 0.93722 0.52103 0.0
O32 O 0.48751 0.88829 0.47585 0.0
O33 O 0.46364 0.89981 0.44984 0.0
O34 O 0.46007 0.93099 0.51876 0.0
O35 O 0.48763 0.92577 0.52722 0.0
C36 C 0.48274 0.89327 0.61207 0.0
O37 O 0.43935 0.90086 0.54679 0.0
O38 O 0.45271 0.87684 0.52864 0.0
In39 In 0.32481 0.19357 0.79598 0.0
O40 O 0.34279 0.21095 0.84264 0.0
O41 O 0.32715 0.19076 0.87471 0.0
C42 C 0.33634 0.20098 0.70895 0.0
C43 C 0.33276 0.15893 0.80084 0.0
C44 C 0.29285 0.20961 0.79349 0.0
O45 O 0.3432 0.20814 0.74479 0.0
O46 O 0.32389 0.19017 0.71729 0.0
O47 O 0.29449 0.19301 0.78851 0.0
O48 O 0.30719 0.21786 0.8002 0.0
C49 C 0.33817 0.2032 0.88007 0.0
O50 O 0.31787 0.16484 0.81424 0.0
O51 O 0.34336 0.17044 0.78467 0.0
In52 In 0.0384 0.91113 0.46911 0.0
O53 O 0.06791 0.90707 0.45231 0.0
O54 O 0.05257 0.8852 0.47797 0.0
C55 C 0.03077 0.94594 0.46423 0.0
C56 C 0.0252 0.90066 0.38613 0.0
C57 C 0.02877 0.90496 0.55815 0.0
O58 O 0.04661 0.94069 0.47 0.0
O59 O 0.01936 0.93373 0.46111 0.0
O60 O 0.01975 0.89934 0.52374 0.0
O61 O 0.04266 0.91354 0.54745 0.0
C62 C 0.06735 0.89069 0.46266 0.0
O63 O 0.01671 0.89818 0.42393 0.0
O64 O 0.04005 0.90827 0.39068 0.0
In65 In 0.33733 0.77426 0.7417 0.0
O66 O 0.34879 0.75281 0.6931 0.0
O67 O 0.3257 0.76708 0.6715 0.0
C68 C 0.35141 0.76984 0.8274 0.0
C69 C 0.35616 0.80112 0.7048 0.0
C70 C 0.30352 0.76764 0.76571 0.0
O71 O 0.35282 0.75822 0.79551 0.0
O72 O 0.34333 0.78384 0.81545 0.0
O73 O 0.30845 0.78301 0.75257 0.0
O74 O 0.31567 0.75609 0.76718 0.0
C75 C 0.33718 0.75545 0.66176 0.0
O76 O 0.34018 0.80342 0.71763 0.0
O77 O 0.36237 0.78588 0.7129 0.0
In78 In 0.45365 0.08939 0.95823 0.0
O79 O 0.47617 0.09813 0.90972 0.0
O80 O 0.45115 0.11049 0.90038 0.0
C81 C 0.46133 0.10427 0.04258 0.0
C82 C 0.41949 0.08727 0.93169 0.0
C83 C 0.46511 0.05548 0.96569 0.0
O84 O 0.47236 0.10385 0.00932 0.0
O85 O 0.44635 0.09788 0.03267 0.0
O86 O 0.45286 0.06162 0.99103 0.0
O87 O 0.47128 0.06628 0.93624 0.0
C88 C 0.46687 0.10868 0.8858 0.0
O89 O 0.43144 0.0778 0.91311 0.0
O90 O 0.42482 0.09759 0.96364 0.0
In91 In 0.13634 0.22862 0.25765 0.0
O92 O 0.13266 0.19898 0.24156 0.0
O93 O 0.10978 0.21564 0.24524 0.0
C94 C 0.17173 0.23321 0.2667 0.0
C95 C 0.13112 0.2431 0.17261 0.0
C96 C 0.12529 0.23771 0.34429 0.0
O97 O 0.16465 0.21794 0.2675 0.0
O98 O 0.16098 0.24587 0.26144 0.0
O99 O 0.12349 0.24791 0.30938 0.0
O100 O 0.1323 0.22287 0.33517 0.0
C101 C 0.11599 0.20039 0.23658 0.0
O102 O 0.12639 0.25106 0.20968 0.0
O103 O 0.13873 0.22838 0.17892 0.0
In104 In 0.97181 0.91401 0.97365 0.0
O105 O 0.99431 0.90413 0.92586 0.0
O106 O 0.97151 0.91611 0.8949 0.0
C107 C 0.98054 0.90311 0.0603 0.0
C108 C 0.94358 0.89326 0.95614 0.0
C109 C 0.97719 0.94923 0.9824 0.0
O110 O 0.9904 0.90029 0.02513 0.0
O111 O 0.96625 0.91125 0.05153 0.0
O112 O 0.9617 0.94268 0.98014 0.0
O113 O 0.98962 0.93804 0.98051 0.0
C114 C 0.98635 0.90871 0.88873 0.0
O115 O 0.94214 0.91002 0.95848 0.0
O116 O 0.95891 0.88729 0.96479 0.0
In117 In 0.84932 0.19704 0.73866 0.0
O118 O 0.84328 0.16844 0.71777 0.0
O119 O 0.86944 0.17482 0.7415 0.0
C120 C 0.81696 0.21206 0.74503 0.0
C121 C 0.86101 0.20836 0.65439 0.0
C122 C 0.86085 0.20351 0.82612 0.0
O123 O 0.81912 0.19547 0.74898 0.0
O124 O 0.83097 0.22077 0.73733 0.0
O125 O 0.86691 0.21186 0.79103 0.0
O126 O 0.84939 0.19177 0.81672 0.0
C127 C 0.85896 0.16315 0.72552 0.0
O128 O 0.86641 0.21543 0.69205 0.0
O129 O 0.84995 0.19594 0.65969 0.0
In130 In 0.50912 0.10173 0.46495 0.0
O131 O 0.48801 0.11235 0.41371 0.0
O132 O 0.50998 0.0975 0.38708 0.0
C133 C 0.50154 0.11276 0.55254 0.0
C134 C 0.53757 0.12196 0.4458 0.0
C135 C 0.50283 0.06679 0.47657 0.0
O136 O 0.49081 0.11513 0.51891 0.0
O137 O 0.5159 0.10517 0.54147 0.0
O138 O 0.51848 0.073 0.47481 0.0
O139 O 0.49065 0.07817 0.47231 0.0
C140 C 0.49603 0.10614 0.37816 0.0
O141 O 0.53888 0.10526 0.45067 0.0
O142 O 0.52221 0.12821 0.45269 0.0
In143 In 0.65155 0.78148 0.22181 0.0
O144 O 0.63562 0.76083 0.1787 0.0
O145 O 0.64727 0.78285 0.1436 0.0
C146 C 0.63858 0.77585 0.30871 0.0
C147 C 0.64385 0.81553 0.2034 0.0
C148 C 0.68507 0.76901 0.22905 0.0
O149 O 0.63342 0.7669 0.27376 0.0
O150 O 0.64987 0.78775 0.29948 0.0
O151 O 0.6812 0.78515 0.23477 0.0
O152 O 0.67208 0.75914 0.21919 0.0
C153 C 0.63812 0.76892 0.14041 0.0
O154 O 0.65868 0.8087 0.19321 0.0
O155 O 0.63309 0.80533 0.22444 0.0
In156 In 0.97071 0.103 0.49072 0.0
O157 O 0.95273 0.09139 0.54728 0.0
O158 O 0.94136 0.10958 0.49878 0.0
C159 C 0.98471 0.07051 0.47577 0.0
C160 C 0.98641 0.12116 0.56139 0.0
C161 C 0.96947 0.11722 0.40341 0.0
O162 O 0.96827 0.07317 0.48068 0.0
O163 O 0.99422 0.08431 0.47791 0.0
O164 O 0.98053 0.12252 0.43365 0.0
O165 O 0.95921 0.10513 0.41753 0.0
C166 C 0.93914 0.0999 0.53448 0.0
O167 O 0.97235 0.12646 0.54187 0.0
O168 O 0.99327 0.10762 0.54264 0.0
In169 In 0.6514 0.23126 0.29634 0.0
O170 O 0.64272 0.25385 0.3454 0.0
O171 O 0.65254 0.22977 0.37511 0.0
C172 C 0.64261 0.24149 0.20906 0.0
C173 C 0.62844 0.20446 0.3102 0.0
C174 C 0.68699 0.23436 0.28957 0.0
O175 O 0.64024 0.25143 0.2443 0.0
O176 O 0.64908 0.2264 0.21817 0.0
O177 O 0.67936 0.21935 0.2881 0.0
O178 O 0.67669 0.24741 0.2947 0.0
C179 C 0.64629 0.24509 0.3821 0.0
O180 O 0.64509 0.20192 0.31016 0.0
O181 O 0.62367 0.22021 0.30139 0.0
In182 In 0.53041 0.90185 0.02699 0.0
O183 O 0.5115 0.8853 0.07381 0.0
O184 O 0.53178 0.90083 0.10587 0.0
C185 C 0.52346 0.88876 0.94094 0.0
C186 C 0.56447 0.89383 0.04361 0.0
C187 C 0.51698 0.93485 0.01796 0.0
O188 O 0.51445 0.88427 0.97651 0.0
O189 O 0.53612 0.89929 0.94928 0.0
O190 O 0.53298 0.93131 0.00863 0.0
O191 O 0.50793 0.92185 0.03229 0.0
C192 C 0.51895 0.89028 0.11135 0.0
O193 O 0.5582 0.90914 0.05112 0.0
O194 O 0.5537 0.88275 0.02604 0.0
In195 In 0.84157 0.77991 0.78136 0.0
O196 O 0.8544 0.75844 0.82711 0.0
O197 O 0.84068 0.77987 0.86016 0.0
C198 C 0.85171 0.77198 0.69364 0.0
C199 C 0.86025 0.80957 0.79825 0.0
C200 C 0.80691 0.77135 0.77504 0.0
O201 O 0.8555 0.76218 0.72824 0.0
O202 O 0.84307 0.78587 0.70356 0.0
O203 O 0.8121 0.78737 0.77369 0.0
O204 O 0.81911 0.76006 0.77991 0.0
C205 C 0.84967 0.76585 0.86495 0.0
O206 O 0.84341 0.80955 0.79968 0.0
O207 O 0.86721 0.79503 0.786 0.0
In208 In 0.52283 0.58815 0.52412 0.0
O209 O 0.55264 0.58925 0.54167 0.0
O210 O 0.53885 0.61323 0.52518 0.0
C211 C 0.51291 0.55397 0.51407 0.0
C212 C 0.50879 0.59712 0.60747 0.0
C213 C 0.51646 0.59904 0.43645 0.0
O214 O 0.52875 0.55814 0.52421 0.0
O215 O 0.50239 0.56687 0.50969 0.0
O216 O 0.50654 0.60327 0.47056 0.0
O217 O 0.52968 0.58945 0.44682 0.0
C218 C 0.55323 0.60603 0.53767 0.0
O219 O 0.50152 0.60173 0.56945 0.0
O220 O 0.52248 0.58766 0.603 0.0
In221 In 0.66948 0.29164 0.79773 0.0
O222 O 0.67722 0.31926 0.82346 0.0
O223 O 0.6521 0.31597 0.78987 0.0
C224 C 0.70144 0.27566 0.79108 0.0
C225 C 0.6556 0.28103 0.88047 0.0
C226 C 0.65681 0.28573 0.71101 0.0
O227 O 0.69956 0.29222 0.78602 0.0
O228 O 0.68731 0.26734 0.80008 0.0
O229 O 0.6506 0.27781 0.74659 0.0
O230 O 0.66913 0.29667 0.71948 0.0
C231 C 0.66281 0.3263 0.8104 0.0
O232 O 0.65085 0.27399 0.84221 0.0
O233 O 0.66717 0.29304 0.87659 0.0
In234 In 0.9824 0.38612 0.01089 0.0
O235 O 0.00502 0.37407 0.05529 0.0
O236 O 0.98269 0.38589 0.0894 0.0
C237 C 0.98708 0.3778 0.91994 0.0
C238 C 0.95339 0.36686 0.031 0.0
C239 C 0.99069 0.42089 0.00827 0.0
O240 O -0.00234 0.37239 0.95139 0.0
O241 O 0.97426 0.38706 0.93474 0.0
O242 O 0.97472 0.4156 0.01064 0.0
O243 O 0.00216 0.40869 0.0072 0.0
C244 C -0.00275 0.37781 0.09352 0.0
O245 O 0.95309 0.38372 0.03162 0.0
O246 O 0.96789 0.36009 0.01753 0.0
In247 In 0.84368 0.71577 0.27996 0.0
O248 O 0.85563 0.7371 0.32801 0.0
O249 O 0.84202 0.71503 0.35863 0.0
C250 C 0.85424 0.72419 0.19303 0.0
C251 C 0.86278 0.68656 0.29634 0.0
C252 C 0.80918 0.72411 0.27194 0.0
O253 O 0.8579 0.73383 0.22808 0.0
O254 O 0.84552 0.71024 0.20216 0.0
O255 O 0.81434 0.70811 0.26977 0.0
O256 O 0.82133 0.73539 0.27841 0.0
C257 C 0.85063 0.72923 0.365 0.0
O258 O 0.84593 0.68619 0.29774 0.0
O259 O 0.86951 0.70125 0.28422 0.0
In260 In 0.54085 0.40963 0.94494 0.0
O261 O 0.569 0.41809 0.92595 0.0
O262 O 0.56479 0.39148 0.94946 0.0
C263 C 0.52571 0.44174 0.95628 0.0
C264 C 0.53178 0.39857 0.85793 0.0
C265 C 0.5336 0.39625 0.03058 0.0
O266 O 0.54223 0.43927 0.95988 0.0
O267 O 0.5168 0.42803 0.94649 0.0
O268 O 0.52468 0.39186 0.99477 0.0
O269 O 0.54617 0.40696 0.0227 0.0
C270 C 0.57563 0.40304 0.93468 0.0
O271 O 0.52625 0.39054 0.89415 0.0
O272 O 0.5413 0.41198 0.86609 0.0
In273 In 0.85331 0.25967 0.23964 0.0
O274 O 0.85674 0.28903 0.22017 0.0
O275 O 0.87984 0.27291 0.22785 0.0
C276 C 0.81791 0.25546 0.25019 0.0
C277 C 0.85884 0.24446 0.15563 0.0
C278 C 0.8645 0.25078 0.32625 0.0
O279 O 0.82521 0.27062 0.25136 0.0
O280 O 0.82844 0.24269 0.24355 0.0
O281 O 0.86612 0.24048 0.2915 0.0
O282 O 0.8576 0.26566 0.31702 0.0
C283 C 0.87348 0.28786 0.21677 0.0
O284 O 0.86358 0.2369 0.19324 0.0
O285 O 0.85098 0.25911 0.16093 0.0
In286 In 0.97885 0.59438 0.48557 0.0
O287 O 0.9493 0.59498 0.46824 0.0
O288 O 0.96285 0.6195 0.48098 0.0
C289 C 0.98717 0.55971 0.4843 0.0
C290 C 0.99338 0.60397 0.40305 0.0
C291 C 0.98385 0.60235 0.5767 0.0
O292 O 0.97122 0.56498 0.48332 0.0
O293 O -0.00132 0.5719 0.48628 0.0
O294 O 0.99392 0.60853 0.545 0.0
O295 O 0.97151 0.59242 0.5621 0.0
C296 C 0.94856 0.61179 0.46945 0.0
O297 O 0.00145 0.6068 0.44133 0.0
O298 O 0.97852 0.59639 0.40702 0.0
In299 In 0.64575 0.72375 0.72413 0.0
O300 O 0.64572 0.694 0.70662 0.0
O301 O 0.62099 0.70775 0.71194 0.0
C302 C 0.68005 0.73325 0.73417 0.0
C303 C 0.63867 0.73795 0.63982 0.0
C304 C 0.63382 0.72995 0.81158 0.0
O305 O 0.67529 0.71711 0.73303 0.0
O306 O 0.66758 0.7443 0.73005 0.0
O307 O 0.63025 0.74018 0.77768 0.0
O308 O 0.64308 0.71656 0.80101 0.0
C309 C 0.62896 0.69341 0.70254 0.0
O310 O 0.63316 0.74515 0.67723 0.0
O311 O 0.64794 0.72417 0.64546 0.0
In312 In 0.47816 0.39257 0.44575 0.0
O313 O 0.5012 0.38418 0.39719 0.0
O314 O 0.47648 0.39195 0.36698 0.0
C315 C 0.49349 0.38265 0.52733 0.0
C316 C 0.44997 0.37123 0.43172 0.0
C317 C 0.47683 0.42828 0.45764 0.0
O318 O 0.50261 0.38738 0.49217 0.0
O319 O 0.47696 0.38222 0.52034 0.0
O320 O 0.46843 0.41773 0.48391 0.0
O321 O 0.4851 0.42095 0.42463 0.0
C322 C 0.49213 0.38654 0.36026 0.0
O323 O 0.44834 0.38797 0.43354 0.0
O324 O 0.46551 0.36554 0.43888 0.0
In325 In 0.33202 0.71705 0.23122 0.0
O326 O 0.33183 0.68781 0.20994 0.0
O327 O 0.3552 0.69856 0.24139 0.0
C328 C 0.29768 0.72525 0.2176 0.0
C329 C 0.34697 0.73229 0.15517 0.0
C330 C 0.3359 0.72282 0.32377 0.0
O331 O 0.30304 0.70935 0.21977 0.0
O332 O 0.30966 0.73688 0.22205 0.0
O333 O 0.34611 0.72999 0.29393 0.0
O334 O 0.32395 0.71299 0.30674 0.0
C335 C 0.34774 0.6853 0.22255 0.0
O336 O 0.34554 0.74069 0.19343 0.0
O337 O 0.34096 0.71668 0.15595 0.0
In338 In 0.03463 0.58414 0.98463 0.0
O339 O 0.06206 0.59671 0.99038 0.0
O340 O 0.05715 0.5798 0.9321 0.0
C341 C 0.02588 0.54949 0.99459 0.0
C342 C 0.01614 0.59848 0.91246 0.0
C343 C 0.02965 0.59762 0.07157 0.0
O344 O 0.04152 0.55444 0.98502 0.0
O345 O 0.01488 0.56196 0.99955 0.0
O346 O 0.02039 0.60245 0.03694 0.0
O347 O 0.04144 0.5863 0.06209 0.0
C348 C 0.06786 0.59011 0.9527 0.0
O349 O 0.02882 0.60655 0.93201 0.0
O350 O 0.01218 0.58382 0.93108 0.0
In351 In 0.1452 0.28994 0.75542 0.0
O352 O 0.12669 0.27251 0.70999 0.0
O353 O 0.14359 0.29132 0.6765 0.0
C354 C 0.13317 0.2845 0.84316 0.0
C355 C 0.13892 0.32457 0.74164 0.0
C356 C 0.17677 0.2732 0.76043 0.0
O357 O 0.12676 0.27631 0.8083 0.0
O358 O 0.14524 0.29555 0.83342 0.0
O359 O 0.17538 0.28983 0.76499 0.0
O360 O 0.16234 0.26518 0.75297 0.0
C361 C 0.13192 0.27944 0.67198 0.0
O362 O 0.15395 0.31768 0.73377 0.0
O363 O 0.12732 0.31408 0.75802 0.0
In364 In 0.46275 0.59607 0.02188 0.0
O365 O 0.43318 0.59533 0.04025 0.0
O366 O 0.44659 0.62039 0.03603 0.0
C367 C 0.47406 0.56257 0.01047 0.0
C368 C 0.47663 0.60255 0.10652 0.0
C369 C 0.46849 0.60817 0.93476 0.0
O370 O 0.45763 0.56624 0.01103 0.0
O371 O 0.48431 0.57568 0.01578 0.0
O372 O 0.47866 0.61208 0.96854 0.0
O373 O 0.45525 0.59864 0.94544 0.0
C374 C 0.43246 0.61205 0.04576 0.0
O375 O 0.4836 0.609 0.06978 0.0
O376 O 0.46324 0.59274 0.09997 0.0
In377 In 0.14494 0.71087 0.77145 0.0
O378 O 0.13683 0.73501 0.81604 0.0
O379 O 0.12222 0.71129 0.82514 0.0
C380 C 0.1383 0.71333 0.67831 0.0
C381 C 0.14139 0.67646 0.79575 0.0
C382 C 0.17828 0.72372 0.78084 0.0
O383 O 0.15168 0.70568 0.69533 0.0
O384 O 0.12786 0.71989 0.70845 0.0
O385 O 0.17445 0.70762 0.78855 0.0
O386 O 0.16533 0.73324 0.76852 0.0
C387 C 0.12494 0.72695 0.83879 0.0
O388 O 0.15179 0.68693 0.81702 0.0
O389 O 0.13329 0.68325 0.76139 0.0
In390 In 0.03518 0.39864 0.51052 0.0
O391 O 0.03065 0.37633 0.56414 0.0
O392 O 0.01212 0.39754 0.56234 0.0
C393 C 0.0327 0.3835 0.42461 0.0
C394 C 0.06721 0.3978 0.55201 0.0
C395 C 0.02519 0.43248 0.49453 0.0
O396 O 0.02214 0.37973 0.45757 0.0
O397 O 0.04467 0.39447 0.43541 0.0
O398 O 0.04122 0.42803 0.49977 0.0
O399 O 0.01422 0.41983 0.49679 0.0
C400 C 0.01713 0.38347 0.58232 0.0
O401 O 0.06355 0.38845 0.5165 0.0
O402 O 0.0549 0.40795 0.56553 0.0
In403 In 0.33897 0.2565 0.29519 0.0
O404 O 0.34849 0.23417 0.34386 0.0
O405 O 0.33843 0.25806 0.37406 0.0
C406 C 0.34749 0.24609 0.2077 0.0
C407 C 0.36127 0.28395 0.30769 0.0
C408 C 0.30336 0.25278 0.29125 0.0
O409 O 0.35014 0.2363 0.24307 0.0
O410 O 0.34086 0.26111 0.21674 0.0
O411 O 0.31072 0.26791 0.28903 0.0
O412 O 0.31393 0.23992 0.29547 0.0
C413 C 0.34502 0.24288 0.38073 0.0
O414 O 0.34456 0.28608 0.30748 0.0
O415 O 0.36643 0.26827 0.29968 0.0
H416 H 0.96854 0.14326 0.6214 0.0
H417 H 0.03132 0.11694 0.83618 0.0
H418 H 0.01694 0.113 0.60827 0.0
H419 H 0.97971 0.141 0.85359 0.0
H420 H 0.02865 0.12047 0.75158 0.0
H421 H 0.97503 0.14789 0.70463 0.0
C422 C 0.98077 0.13799 0.63572 0.0
C423 C 0.99216 0.12761 0.60795 0.0
C424 C 0.01795 0.12514 0.77381 0.0
C425 C -0.00048 0.13262 0.70322 0.0
C426 C 0.01946 0.12312 0.8222 0.0
C427 C 0.00562 0.12851 0.85198 0.0
C428 C 0.00243 0.13254 0.75477 0.0
C429 C 0.99064 0.13656 0.83186 0.0
C430 C 0.98438 0.1405 0.68334 0.0
C431 C 0.00774 0.12099 0.62844 0.0
N432 N 0.98936 0.13818 0.78442 0.0
N433 N 0.01086 0.12345 0.67489 0.0
H434 H 0.1288 0.76025 0.87619 0.0
H435 H 0.10599 0.72621 0.13256 0.0
H436 H 0.10526 0.70899 0.90411 0.0
H437 H 0.12109 0.78027 0.10111 0.0
H438 H 0.1022 0.72064 0.04857 0.0
H439 H 0.12253 0.76905 0.95701 0.0
C440 C 0.12195 0.75098 0.89904 0.0
C441 C 0.11769 0.73381 0.88351 0.0
C442 C 0.10606 0.73381 0.06008 0.0
C443 C 0.11083 0.74363 0.97647 0.0
C444 C 0.10819 0.73699 0.10806 0.0
C445 C 0.11405 0.75367 0.12382 0.0
C446 C 0.10999 0.74735 0.02765 0.0
C447 C 0.11669 0.76716 0.09051 0.0
C448 C 0.11843 0.75598 0.94529 0.0
C449 C 0.10884 0.72235 0.91466 0.0
N450 N 0.11489 0.76364 0.04404 0.0
N451 N 0.10599 0.72734 0.95986 0.0
H452 H 0.53898 0.8883 0.18985 0.0
H453 H 0.45711 0.89246 0.36207 0.0
H454 H 0.48525 0.8814 0.14062 0.0
H455 H 0.51018 0.88019 0.40899 0.0
H456 H 0.46672 0.88785 0.28096 0.0
H457 H 0.5286 0.88458 0.2703 0.0
C458 C 0.52499 0.88575 0.19606 0.0
C459 C 0.51291 0.88525 0.15871 0.0
C460 C 0.47619 0.88592 0.30903 0.0
C461 C 0.50086 0.88134 0.25081 0.0
C462 C 0.47075 0.88861 0.35531 0.0
C463 C 0.48293 0.88686 0.39224 0.0
C464 C 0.49402 0.88174 0.2996 0.0
C465 C 0.50039 0.88176 0.38155 0.0
C466 C 0.51908 0.88359 0.24198 0.0
C467 C 0.49497 0.88184 0.16856 0.0
N468 N 0.50547 0.87962 0.33616 0.0
N469 N 0.4894 0.88032 0.21385 0.0
H470 H 0.34919 0.26205 0.46048 0.0
H471 H 0.3299 0.18192 0.62964 0.0
H472 H 0.34708 0.20812 0.40936 0.0
H473 H 0.35458 0.2303 0.67842 0.0
H474 H 0.33572 0.19105 0.54876 0.0
H475 H 0.35083 0.2508 0.54065 0.0
C476 C 0.34922 0.24781 0.46621 0.0
C477 C 0.34786 0.23596 0.42843 0.0
C478 C 0.34009 0.19955 0.57716 0.0
C479 C 0.3495 0.22303 0.52 0.0
C480 C 0.33671 0.19439 0.62327 0.0
C481 C 0.34165 0.20547 0.66063 0.0
C482 C 0.34811 0.21606 0.56838 0.0
C483 C 0.35053 0.22141 0.65055 0.0
C484 C 0.35025 0.24141 0.51192 0.0
C485 C 0.3481 0.21766 0.43765 0.0
N486 N 0.35323 0.22639 0.60527 0.0
N487 N 0.34859 0.21173 0.48268 0.0
H488 H 0.02092 0.90257 0.86211 0.0
H489 H 0.99649 0.8936 0.5903 0.0
H490 H 0.96771 0.90769 0.80758 0.0
H491 H 0.04823 0.91071 0.63754 0.0
H492 H 0.98664 0.89202 0.672 0.0
H493 H 0.03203 0.89915 0.78141 0.0
C494 C 0.0116 0.90282 0.83321 0.0
C495 C 0.99343 0.90558 0.84128 0.0
C496 C 0.00018 0.896 0.66443 0.0
C497 C 0.00589 0.90145 0.74972 0.0
C498 C 0.00582 0.89685 0.61789 0.0
C499 C 0.02313 0.90246 0.60724 0.0
C500 C 0.01201 0.90061 0.70051 0.0
C501 C 0.03471 0.90648 0.64433 0.0
C502 C 0.01792 0.90092 0.78735 0.0
C503 C 0.98186 0.90579 0.80278 0.0
N504 N 0.02893 0.90552 0.68942 0.0
N505 N 0.98828 0.90373 0.75868 0.0
H506 H 0.36796 0.74045 0.86267 0.0
H507 H 0.3482 0.76746 0.12871 0.0
H508 H 0.34695 0.79148 0.90365 0.0
H509 H 0.36088 0.71453 0.08138 0.0
H510 H 0.3544 0.77867 0.04933 0.0
H511 H 0.37229 0.73311 0.94522 0.0
C512 C 0.36451 0.75022 0.88903 0.0
C513 C 0.35682 0.76648 0.87635 0.0
C514 C 0.35611 0.76466 0.05664 0.0
C515 C 0.36154 0.7581 0.97098 0.0
C516 C 0.35268 0.7583 0.10191 0.0
C517 C 0.3538 0.74004 0.11123 0.0
C518 C 0.36081 0.75263 0.02091 0.0
C519 C 0.3596 0.72868 0.07538 0.0
C520 C 0.36694 0.74601 0.9362 0.0
C521 C 0.35273 0.7787 0.91197 0.0
N522 N 0.36272 0.73513 0.03177 0.0
N523 N 0.35491 0.77417 0.95775 0.0
H524 H 0.49436 0.11192 0.07685 0.0
H525 H 0.46317 0.11655 0.3454 0.0
H526 H 0.43933 0.10792 0.11839 0.0
H527 H 0.51601 0.10249 0.29977 0.0
H528 H 0.45434 0.11979 0.2627 0.0
H529 H 0.50263 0.11553 0.15917 0.0
C530 C 0.48399 0.11212 0.10322 0.0
C531 C 0.46616 0.10944 0.09088 0.0
C532 C 0.46788 0.1161 0.27102 0.0
C533 C 0.47552 0.11342 0.18509 0.0
C534 C 0.47291 0.11428 0.31806 0.0
C535 C 0.49027 0.10906 0.32931 0.0
C536 C 0.48042 0.11298 0.23537 0.0
C537 C 0.50241 0.10632 0.29264 0.0
C538 C 0.48872 0.11406 0.15021 0.0
C539 C 0.45326 0.1098 0.12651 0.0
N540 N 0.49726 0.10831 0.24742 0.0
N541 N 0.45819 0.11161 0.17212 0.0
H542 H 0.13132 0.29929 0.59286 0.0
H543 H 0.12432 0.21706 0.42313 0.0
H544 H 0.11912 0.24681 0.64461 0.0
H545 H 0.11721 0.27105 0.37584 0.0
H546 H 0.12152 0.22725 0.50432 0.0
H547 H 0.12532 0.28915 0.51322 0.0
C548 C 0.12715 0.28565 0.58739 0.0
C549 C 0.12582 0.27381 0.62519 0.0
C550 C 0.12029 0.23682 0.47615 0.0
C551 C 0.11924 0.262 0.53399 0.0
C552 C 0.12193 0.23102 0.42983 0.0
C553 C 0.12117 0.24327 0.39277 0.0
C554 C 0.11818 0.25502 0.48543 0.0
C555 C 0.11797 0.26118 0.40338 0.0
C556 C 0.12368 0.27988 0.54194 0.0
C557 C 0.12028 0.25633 0.61631 0.0
N558 N 0.11686 0.26656 0.44877 0.0
N559 N 0.11749 0.25083 0.57141 0.0
H560 H 0.04409 0.89564 0.30627 0.0
H561 H 0.96057 0.90531 0.14024 0.0
H562 H 0.99044 0.89588 0.35974 0.0
H563 H 0.01259 0.8904 0.09012 0.0
H564 H 0.97068 0.90063 0.22077 0.0
H565 H 0.03251 0.8923 0.22701 0.0
C566 C 0.02984 0.89478 0.30127 0.0
C567 C 0.01817 0.89619 0.33943 0.0
C568 C 0.97981 0.89815 0.19213 0.0
C569 C 0.00479 0.89263 0.24868 0.0
C570 C 0.97406 0.90087 0.14618 0.0
C571 C 0.98583 0.89842 0.10853 0.0
C572 C -0.00249 0.89318 0.20044 0.0
C573 C 0.00312 0.89255 0.11815 0.0
C574 C 0.02323 0.89283 0.25602 0.0
C575 C -0.00014 0.89486 0.33114 0.0
N576 N 0.0085 0.89035 0.1632 0.0
N577 N 0.99368 0.89344 0.28646 0.0
H578 H 0.86474 0.20976 0.12978 0.0
H579 H 0.87637 0.23402 0.85829 0.0
H580 H 0.86151 0.26306 0.0747 0.0
H581 H 0.85514 0.1837 0.90481 0.0
H582 H 0.87927 0.24326 0.94033 0.0
H583 H 0.86901 0.19857 0.04938 0.0
C584 C 0.86511 0.21908 0.10085 0.0
C585 C 0.86255 0.2373 0.10858 0.0
C586 C 0.87421 0.23011 0.93248 0.0
C587 C 0.86774 0.22476 0.0175 0.0
C588 C 0.87265 0.2248 0.88578 0.0
C589 C 0.86533 0.20817 0.8749 0.0
C590 C 0.86863 0.21859 0.96838 0.0
C591 C 0.86067 0.19672 0.91182 0.0
C592 C 0.86751 0.21272 0.05518 0.0
C593 C 0.86318 0.24888 0.07008 0.0
N594 N 0.86232 0.20218 0.95702 0.0
N595 N 0.86572 0.24242 0.0262 0.0
H596 H 0.44697 0.12449 0.81706 0.0
H597 H 0.52402 0.11181 0.62709 0.0
H598 H 0.5004 0.10777 0.84926 0.0
H599 H 0.4697 0.12368 0.59046 0.0
H600 H 0.51658 0.11564 0.70959 0.0
H601 H 0.45609 0.12977 0.73573 0.0
C602 C 0.46072 0.12233 0.8073 0.0
C603 C 0.47293 0.11553 0.83987 0.0
C604 C 0.50629 0.11758 0.68361 0.0
C605 C 0.48337 0.12131 0.74685 0.0
C606 C 0.51053 0.1154 0.6364 0.0
C607 C 0.49741 0.11723 0.60187 0.0
C608 C 0.48872 0.1215 0.69666 0.0
C609 C 0.4802 0.12205 0.61601 0.0
C610 C 0.46588 0.12523 0.76078 0.0
C611 C 0.49053 0.11289 0.82524 0.0
N612 N 0.47629 0.12382 0.66242 0.0
N613 N 0.49516 0.11561 0.77977 0.0
H614 H 0.63133 0.77218 0.61226 0.0
H615 H 0.623 0.74545 0.34154 0.0
H616 H 0.63655 0.71863 0.56008 0.0
H617 H 0.64273 0.79657 0.3865 0.0
H618 H 0.61909 0.73696 0.42384 0.0
H619 H 0.62715 0.78264 0.53113 0.0
C620 C 0.63135 0.76264 0.58381 0.0
C621 C 0.6345 0.74458 0.59254 0.0
C622 C 0.62403 0.75012 0.41557 0.0
C623 C 0.62945 0.75628 0.50066 0.0
C624 C 0.62617 0.755 0.3687 0.0
C625 C 0.6334 0.77164 0.35735 0.0
C626 C 0.62894 0.76206 0.45116 0.0
C627 C 0.6373 0.78353 0.39389 0.0
C628 C 0.62902 0.76859 0.53774 0.0
C629 C 0.63441 0.73271 0.55465 0.0
N630 N 0.63513 0.77847 0.43927 0.0
N631 N 0.63194 0.73876 0.51037 0.0
H632 H 0.99212 0.14078 0.35971 0.0
H633 H 0.9587 0.1122 0.10696 0.0
H634 H 0.9461 0.10778 0.33508 0.0
H635 H -0.0008 0.15201 0.12835 0.0
H636 H 0.95145 0.11351 0.19028 0.0
H637 H 0.99303 0.14787 0.27575 0.0
C638 C 0.98208 0.13523 0.33677 0.0
C639 C 0.96916 0.1235 0.35427 0.0
C640 C 0.9617 0.12224 0.17673 0.0
C641 C 0.97015 0.13144 0.25839 0.0
C642 C 0.96576 0.12155 0.12905 0.0
C643 C 0.97964 0.13192 0.11082 0.0
C644 C 0.97182 0.13312 0.20664 0.0
C645 C 0.98839 0.14379 0.14102 0.0
C646 C 0.98258 0.13928 0.28888 0.0
C647 C 0.95643 0.11672 0.32305 0.0
N648 N 0.98458 0.14381 0.18767 0.0
N649 N 0.95737 0.12063 0.27667 0.0
H650 H 0.63645 0.2753 0.17785 0.0
H651 H 0.64099 0.24894 0.90595 0.0
H652 H 0.64212 0.22124 0.12959 0.0
H653 H 0.65533 0.30049 0.96042 0.0
H654 H 0.6337 0.23924 0.9861 0.0
H655 H 0.63551 0.28528 0.09616 0.0
C656 C 0.63721 0.26551 0.15008 0.0
C657 C 0.63958 0.24745 0.16041 0.0
C658 C 0.63824 0.25274 0.98026 0.0
C659 C 0.63848 0.25874 0.06714 0.0
C660 C 0.64231 0.25827 0.93465 0.0
C661 C 0.64894 0.27545 0.92683 0.0
C662 C 0.64055 0.26459 0.01788 0.0
C663 C 0.65045 0.28705 0.96512 0.0
C664 C 0.63674 0.27121 0.10353 0.0
C665 C 0.64047 0.23532 0.12308 0.0
N666 N 0.64635 0.2814 0.00898 0.0
N667 N 0.64003 0.24119 0.07803 0.0
H668 H 0.51695 0.88508 0.63789 0.0
H669 H 0.49175 0.87544 0.90971 0.0
H670 H 0.46377 0.89056 0.69269 0.0
H671 H 0.54374 0.89167 0.86195 0.0
H672 H 0.48225 0.87269 0.82786 0.0
H673 H 0.52775 0.87969 0.71804 0.0
C674 C 0.50755 0.88493 0.66669 0.0
C675 C 0.4895 0.88848 0.65891 0.0
C676 C 0.49581 0.8766 0.83538 0.0
C677 C 0.50163 0.88211 0.74993 0.0
C678 C 0.50126 0.87806 0.88201 0.0
C679 C 0.51848 0.88398 0.89251 0.0
C680 C 0.50774 0.8809 0.79914 0.0
C681 C 0.53027 0.88724 0.85528 0.0
C682 C 0.5137 0.8819 0.71227 0.0
C683 C 0.47784 0.88812 0.69732 0.0
N684 N 0.52465 0.88577 0.81019 0.0
N685 N 0.4841 0.88503 0.74115 0.0
H686 H 0.84881 0.79245 0.61489 0.0
H687 H 0.85149 0.70993 0.44505 0.0
H688 H 0.86339 0.73989 0.66145 0.0
H689 H 0.85815 0.76337 0.39295 0.0
H690 H 0.85536 0.72088 0.5248 0.0
H691 H 0.85194 0.78258 0.53347 0.0
C692 C 0.85288 0.7789 0.60795 0.0
C693 C 0.85569 0.7669 0.64485 0.0
C694 C 0.85618 0.73022 0.49598 0.0
C695 C 0.85907 0.75553 0.55214 0.0
C696 C 0.85387 0.72399 0.45049 0.0
C697 C 0.85437 0.73582 0.41255 0.0
C698 C 0.85865 0.74846 0.50376 0.0
C699 C 0.85765 0.75386 0.42141 0.0
C700 C 0.85471 0.7733 0.56154 0.0
C701 C 0.86102 0.74954 0.63401 0.0
N702 N 0.85941 0.75971 0.46631 0.0
N703 N 0.86228 0.74429 0.58859 0.0
H704 H 0.45694 0.60398 0.1855 0.0
H705 H 0.53738 0.59513 0.35861 0.0
H706 H 0.51083 0.60918 0.13561 0.0
H707 H 0.48579 0.61359 0.40327 0.0
H708 H 0.52856 0.59986 0.27687 0.0
H709 H 0.46752 0.60702 0.26581 0.0
C710 C 0.47103 0.60589 0.1916 0.0
C711 C 0.48309 0.6062 0.15416 0.0
C712 C 0.5193 0.60313 0.30464 0.0
C713 C 0.49532 0.60944 0.24594 0.0
C714 C 0.52428 0.60037 0.35121 0.0
C715 C 0.5122 0.6038 0.38763 0.0
C716 C 0.50204 0.60903 0.29461 0.0
C717 C 0.49546 0.61068 0.37622 0.0
C718 C 0.47705 0.60773 0.23738 0.0
C719 C 0.50116 0.60887 0.16374 0.0
N720 N 0.49077 0.61281 0.33065 0.0
N721 N 0.50682 0.61009 0.20896 0.0
H722 H 0.64194 0.2259 0.46168 0.0
H723 H 0.66304 0.30525 0.63213 0.0
H724 H 0.64522 0.27986 0.41126 0.0
H725 H 0.63801 0.2569 0.68 0.0
H726 H 0.65685 0.29656 0.55109 0.0
H727 H 0.64075 0.237 0.54199 0.0
C728 C 0.64227 0.24012 0.4676 0.0
C729 C 0.64382 0.252 0.42996 0.0
C730 C 0.65247 0.28799 0.57935 0.0
C731 C 0.64268 0.26479 0.52176 0.0
C732 C 0.65605 0.2929 0.62555 0.0
C733 C 0.65115 0.28168 0.6627 0.0
C734 C 0.64427 0.27159 0.57028 0.0
C735 C 0.64205 0.26589 0.65233 0.0
C736 C 0.6415 0.24645 0.51341 0.0
C737 C 0.64405 0.27029 0.43944 0.0
N738 N 0.63915 0.26116 0.607 0.0
N739 N 0.64379 0.27615 0.48459 0.0
H740 H 0.98613 0.39419 0.62301 0.0
H741 H 0.0146 0.3602 0.87659 0.0
H742 H 0.03165 0.36054 0.64624 0.0
H743 H 0.96585 0.38826 0.84782 0.0
H744 H 0.01994 0.35776 0.79196 0.0
H745 H 0.97702 0.38948 0.70419 0.0
C746 C 0.99403 0.38553 0.64501 0.0
C747 C 0.00971 0.37783 0.62796 0.0
C748 C 0.00798 0.36427 0.80421 0.0
C749 C -0.00039 0.37268 0.72143 0.0
C750 C 0.00494 0.36567 0.8525 0.0
C751 C 0.98985 0.37459 0.86927 0.0
C752 C 0.99587 0.37193 0.77259 0.0
C753 C 0.97774 0.38139 0.8365 0.0
C754 C 0.98887 0.38289 0.69147 0.0
C755 C 0.01944 0.36673 0.65801 0.0
N756 N 0.9811 0.38007 0.78986 0.0
N757 N 0.01439 0.3647 0.70353 0.0
H758 H 0.86606 0.75647 0.16216 0.0
H759 H 0.85854 0.73177 0.89007 0.0
H760 H 0.85159 0.70406 0.11365 0.0
H761 H 0.85121 0.78455 0.9459 0.0
H762 H 0.86366 0.72078 0.97021 0.0
H763 H 0.86875 0.7662 0.08062 0.0
C764 C 0.86372 0.74694 0.13435 0.0
C765 C 0.85836 0.72952 0.14453 0.0
C766 C 0.8611 0.73479 0.96464 0.0
C767 C 0.86142 0.74052 0.05151 0.0
C768 C 0.85823 0.74104 0.91912 0.0
C769 C 0.85424 0.75901 0.9117 0.0
C770 C 0.8603 0.74672 0.0025 0.0
C771 C 0.854 0.77053 0.95031 0.0
C772 C 0.86519 0.75251 0.0879 0.0
C773 C 0.85555 0.71769 0.10719 0.0
N774 N 0.85696 0.76419 0.99406 0.0
N775 N 0.85699 0.72344 0.06221 0.0
H776 H 0.55381 0.39958 0.10939 0.0
H777 H 0.47293 0.3817 0.28087 0.0
H778 H 0.50289 0.38044 0.06155 0.0
H779 H 0.52693 0.38558 0.33041 0.0
H780 H 0.48388 0.38046 0.20047 0.0
H781 H 0.54472 0.39375 0.19027 0.0
C782 C 0.54078 0.39395 0.1159 0.0
C783 C 0.52902 0.39061 0.07875 0.0
C784 C 0.49338 0.38137 0.22883 0.0
C785 C 0.51846 0.38411 0.17128 0.0
C786 C 0.48714 0.38214 0.27478 0.0
C787 C 0.49906 0.38389 0.31229 0.0
C788 C 0.5117 0.38267 0.22009 0.0
C789 C 0.51732 0.38426 0.30243 0.0
C790 C 0.53562 0.39059 0.16209 0.0
C791 C 0.51234 0.38324 0.08916 0.0
N792 N 0.52309 0.38392 0.25715 0.0
N793 N 0.50747 0.38047 0.13451 0.0
H794 H 0.86512 0.27142 0.40526 0.0
H795 H 0.86142 0.18874 0.57488 0.0
H796 H 0.87327 0.21762 0.35755 0.0
H797 H 0.87228 0.24152 0.62656 0.0
H798 H 0.86636 0.19922 0.49502 0.0
H799 H 0.8684 0.26124 0.48635 0.0
C800 C 0.86783 0.2575 0.41183 0.0
C801 C 0.86876 0.2453 0.37468 0.0
C802 C 0.86792 0.2085 0.52375 0.0
C803 C 0.87232 0.23356 0.46721 0.0
C804 C 0.86505 0.20253 0.56933 0.0
C805 C 0.86635 0.21433 0.6072 0.0
C806 C 0.87173 0.22652 0.51576 0.0
C807 C 0.87118 0.23202 0.5982 0.0
C808 C 0.86974 0.25172 0.45809 0.0
C809 C 0.87237 0.22746 0.38514 0.0
N810 N 0.87341 0.23768 0.5532 0.0
N811 N 0.87376 0.22209 0.43045 0.0
H812 H 0.02927 0.62304 0.85037 0.0
H813 H 0.96263 0.5915 0.64844 0.0
H814 H 0.98617 0.5859 0.8704 0.0
H815 H 0.01103 0.62049 0.62041 0.0
H816 H 0.96814 0.59435 0.73217 0.0
H817 H 0.01968 0.62734 0.76898 0.0
C818 C 0.01755 0.61611 0.83797 0.0
C819 C 0.00856 0.604 0.86701 0.0
C820 C 0.97752 0.60021 0.70783 0.0
C821 C -0.00234 0.60871 0.77411 0.0
C822 C 0.97438 0.59859 0.65993 0.0
C823 C 0.98651 0.60559 0.62736 0.0
C824 C 0.99295 0.60885 0.72357 0.0
C825 C 0.00141 0.61479 0.64436 0.0
C826 C 0.01218 0.61847 0.79145 0.0
C827 C 0.99354 0.59528 0.8491 0.0
N828 N 0.00431 0.61603 0.69138 0.0
N829 N 0.98866 0.5977 0.80376 0.0
H830 H 0.63076 0.78894 0.0642 0.0
H831 H 0.63708 0.70851 0.88838 0.0
H832 H 0.63158 0.73459 0.11211 0.0
H833 H 0.62008 0.76088 0.84646 0.0
H834 H 0.6333 0.71706 0.97051 0.0
H835 H 0.6249 0.77857 0.98477 0.0
C836 C 0.62945 0.77479 0.05797 0.0
C837 C 0.6318 0.76257 0.09452 0.0
C838 C 0.63011 0.72659 0.94335 0.0
C839 C 0.62544 0.75055 0.00346 0.0
C840 C 0.6323 0.72173 0.89647 0.0
C841 C 0.62909 0.73409 0.86062 0.0
C842 C 0.62493 0.74401 0.95442 0.0
C843 C 0.62282 0.75099 0.87302 0.0
C844 C 0.62607 0.76887 0.01263 0.0
C845 C 0.62986 0.74441 0.08475 0.0
N846 N 0.62121 0.75554 0.91892 0.0
N847 N 0.62711 0.7389 0.03985 0.0
H848 H 0.5488 0.40898 0.77865 0.0
H849 H 0.47696 0.36898 0.60461 0.0
H850 H 0.50571 0.37567 0.82645 0.0
H851 H 0.52683 0.39137 0.55848 0.0
H852 H 0.48762 0.36985 0.68553 0.0
H853 H 0.54132 0.40167 0.69789 0.0
C854 C 0.53777 0.40004 0.77211 0.0
C855 C 0.52775 0.39304 0.80933 0.0
C856 C 0.49635 0.37431 0.65768 0.0
C857 C 0.51902 0.38466 0.71653 0.0
C858 C 0.49029 0.3738 0.61144 0.0
C859 C 0.501 0.38023 0.57479 0.0
C860 C 0.51316 0.38154 0.66745 0.0
C861 C 0.51814 0.3863 0.58565 0.0
C862 C 0.53356 0.39581 0.72591 0.0
C863 C 0.51373 0.38139 0.79876 0.0
N864 N 0.52358 0.38704 0.63106 0.0
N865 N 0.50963 0.37773 0.75324 0.0
H866 H 0.36361 0.73767 0.37299 0.0
H867 H 0.3089 0.74724 0.60742 0.0
H868 H 0.31145 0.7146 0.39049 0.0
H869 H 0.36615 0.74517 0.61025 0.0
H870 H 0.30938 0.73727 0.52594 0.0
H871 H 0.36489 0.74288 0.45808 0.0
C872 C 0.35248 0.73369 0.39472 0.0
C873 C 0.33736 0.72579 0.37476 0.0
C874 C 0.32185 0.73875 0.54451 0.0
C875 C 0.3387 0.73177 0.47135 0.0
C876 C 0.32157 0.74442 0.59094 0.0
C877 C 0.3375 0.74692 0.61539 0.0
C878 C 0.33821 0.73603 0.52195 0.0
C879 C 0.35359 0.7432 0.59252 0.0
C880 C 0.35327 0.73654 0.44315 0.0
C881 C 0.32334 0.72076 0.40442 0.0
N882 N 0.35357 0.7382 0.54663 0.0
N883 N 0.32427 0.72401 0.45111 0.0
H884 H 0.00117 0.6165 0.10441 0.0
H885 H 0.02831 0.60555 0.37457 0.0
H886 H 0.05009 0.59199 0.14927 0.0
H887 H 0.97455 0.61202 0.32531 0.0
H888 H 0.03892 0.60813 0.2931 0.0
H889 H 0.99382 0.62258 0.1865 0.0
C890 C 0.01048 0.61264 0.13148 0.0
C891 C 0.02614 0.60352 0.12012 0.0
C892 C 0.02483 0.60926 0.30038 0.0
C893 C 0.01784 0.61044 0.21394 0.0
C894 C 0.01882 0.60789 0.34675 0.0
C895 C 0.00055 0.6084 0.35637 0.0
C896 C 0.01247 0.61141 0.26387 0.0
C897 C 0.98875 0.61136 0.31918 0.0
C898 C 0.00627 0.61607 0.17829 0.0
C899 C 0.03777 0.59887 0.15659 0.0
N900 N 0.99489 0.61267 0.2746 0.0
N901 N 0.03333 0.60226 0.20193 0.0
H902 H 0.13946 0.30454 0.9211 0.0
H903 H 0.12813 0.22387 0.0928 0.0
H904 H 0.11641 0.2548 0.87646 0.0
H905 H 0.1267 0.27775 0.14434 0.0
H906 H 0.12473 0.23499 0.01297 0.0
H907 H 0.13548 0.29544 0.00289 0.0
C908 C 0.13333 0.29181 0.92857 0.0
C909 C 0.12837 0.28032 0.89207 0.0
C910 C 0.12495 0.2444 0.04172 0.0
C911 C 0.12409 0.26976 0.98525 0.0
C912 C 0.12702 0.23807 0.08723 0.0
C913 C 0.12784 0.24995 0.12503 0.0
C914 C 0.12411 0.26277 0.03375 0.0
C915 C 0.12615 0.26819 0.11601 0.0
C916 C 0.13103 0.28666 0.97519 0.0
C917 C 0.12043 0.26402 0.90359 0.0
N918 N 0.12465 0.2741 0.07106 0.0
N919 N 0.11882 0.25908 0.94923 0.0
H920 H 0.52829 0.59983 0.68667 0.0
H921 H 0.44705 0.60497 0.85802 0.0
H922 H 0.47512 0.60721 0.63386 0.0
H923 H 0.50007 0.62016 0.89961 0.0
H924 H 0.45632 0.60634 0.77581 0.0
H925 H 0.51789 0.60732 0.76511 0.0
C926 C 0.5144 0.6031 0.69167 0.0
C927 C 0.50247 0.60272 0.654 0.0
C928 C 0.46581 0.60972 0.8029 0.0
C929 C 0.49044 0.6112 0.74375 0.0
C930 C 0.46055 0.60891 0.84978 0.0
C931 C 0.47289 0.61225 0.88558 0.0
C932 C 0.4836 0.61354 0.79198 0.0
C933 C 0.49017 0.61739 0.87307 0.0
C934 C 0.5085 0.60751 0.73637 0.0
C935 C 0.48468 0.60729 0.66218 0.0
N936 N 0.49511 0.61755 0.82728 0.0
N937 N 0.4791 0.61107 0.70649 0.0
H938 H 0.10293 0.73816 0.39471 0.0
H939 H 0.16045 0.70152 0.60988 0.0
H940 H 0.1589 0.72615 0.38788 0.0
H941 H 0.11038 0.7284 0.62983 0.0
H942 H 0.1574 0.70522 0.52554 0.0
H943 H 0.10284 0.7293 0.47782 0.0
C944 C 0.11508 0.73329 0.41042 0.0
C945 C 0.13096 0.73288 0.38455 0.0
C946 C 0.14701 0.71026 0.54825 0.0
C947 C 0.13098 0.72289 0.47905 0.0
C948 C 0.14873 0.70813 0.5965 0.0
C949 C 0.13572 0.71481 0.62702 0.0
C950 C 0.13213 0.71908 0.53002 0.0
C951 C 0.12078 0.72317 0.60752 0.0
C952 C 0.11506 0.72841 0.45784 0.0
C953 C 0.14639 0.72671 0.40664 0.0
N954 N 0.11941 0.72514 0.56015 0.0
N955 N 0.14602 0.72201 0.45254 0.0
H956 H 0.97784 0.36894 0.16943 0.0
H957 H 0.05464 0.38857 0.34922 0.0
H958 H 0.03198 0.3766 0.12395 0.0
H959 H 0.00465 0.36472 0.38903 0.0
H960 H 0.04774 0.38256 0.26688 0.0
H961 H 0.98815 0.36556 0.2498 0.0
C962 C 0.99198 0.36969 0.17646 0.0
C963 C 0.00409 0.3732 0.14028 0.0
C964 C 0.03844 0.37835 0.29368 0.0
C965 C 0.01601 0.36969 0.23245 0.0
C966 C 0.04234 0.3818 0.34067 0.0
C967 C 0.03008 0.37733 0.37593 0.0
C968 C 0.02205 0.37062 0.2819 0.0
C969 C 0.01442 0.36851 0.36296 0.0
C970 C -0.00213 0.36771 0.22234 0.0
C971 C 0.02225 0.37391 0.15105 0.0
N972 N 0.01073 0.3657 0.31695 0.0
N973 N 0.02767 0.37252 0.19647 0.0
H974 H 0.34798 0.2662 0.12803 0.0
H975 H 0.33784 0.18352 0.95988 0.0
H976 H 0.35361 0.21222 0.17674 0.0
H977 H 0.35145 0.23558 0.90748 0.0
H978 H 0.34388 0.19375 0.03952 0.0
H979 H 0.34957 0.25554 0.04709 0.0
C980 C 0.34975 0.25212 0.12166 0.0
C981 C 0.35053 0.24004 0.15909 0.0
C982 C 0.3458 0.20289 0.01062 0.0
C983 C 0.35214 0.22775 0.06667 0.0
C984 C 0.34231 0.19708 0.96517 0.0
C985 C 0.34406 0.20877 0.92717 0.0
C986 C 0.35072 0.22066 0.0183 0.0
C987 C 0.34996 0.22616 0.93589 0.0
C988 C 0.35071 0.24606 0.07548 0.0
C989 C 0.35291 0.22197 0.1489 0.0
N990 N 0.35281 0.23168 0.98071 0.0
N991 N 0.35337 0.21633 0.10362 0.0
H992 H 0.97062 0.06402 0.97402 0.0
H993 H 0.0093 0.96538 0.99381 0.0
H994 H 0.02556 0.05243 0.0046 0.0
H995 H 0.95343 0.97686 0.97852 0.0
H996 H 0.01554 -0.00282 0.99658 0.0
H997 H 0.96415 0.0322 0.97376 0.0
C998 C 0.98135 0.05476 0.98061 0.0
C999 C -0.00132 0.06086 0.98927 0.0
C1000 C 0.0019 0.99279 0.99276 0.0
C1001 C 0.99134 0.0244 0.98908 0.0
C1002 C -0.00168 0.97462 0.99116 0.0
C1003 C 0.98081 0.96848 0.98583 0.0
C1004 C 0.98788 0.00497 0.98877 0.0
C1005 C 0.96711 0.98104 0.98266 0.0
C1006 C 0.97762 0.03659 0.98057 0.0
C1007 C 0.01202 0.04829 0.99771 0.0
N1008 N 0.97095 -0.00129 0.984 0.0
N1009 N 0.00808 0.03064 0.99732 0.0
H1010 H 0.18311 0.72231 0.20923 0.0
H1011 H 0.28312 0.75843 0.21627 0.0
H1012 H 0.19694 0.77721 0.23414 0.0
H1013 H 0.26929 0.70282 0.20765 0.0
H1014 H 0.25158 0.76599 0.21329 0.0
H1015 H 0.21457 0.71542 0.19878 0.0
C1016 C 0.19277 0.73294 0.21212 0.0
C1017 C 0.18745 0.75033 0.22291 0.0
C1018 C 0.25544 0.75213 0.21179 0.0
C1019 C 0.22346 0.74253 0.2112 0.0
C1020 C 0.27344 0.74781 0.21344 0.0
C1021 C 0.27878 0.72996 0.21256 0.0
C1022 C 0.2427 0.7385 0.20921 0.0
C1023 C 0.26571 0.71675 0.20868 0.0
C1024 C 0.21073 0.72899 0.20624 0.0
C1025 C 0.2005 0.76361 0.22609 0.0
N1026 N 0.24825 0.72128 0.20739 0.0
N1027 N 0.21793 0.75941 0.22053 0.0
H1028 H 0.47023 0.051 0.47954 0.0
H1029 H 0.5083 0.95308 0.52289 0.0
H1030 H 0.52623 0.03921 0.48913 0.0
H1031 H 0.45251 0.96481 0.50706 0.0
H1032 H 0.51513 0.98459 0.51246 0.0
H1033 H 0.46353 0.01957 0.49115 0.0
C1034 C 0.48114 0.04177 0.48408 0.0
C1035 C 0.49883 0.04772 0.48334 0.0
C1036 C 0.50139 0.9803 0.51131 0.0
C1037 C 0.49122 0.01165 0.49674 0.0
C1038 C 0.49747 0.96231 0.51732 0.0
C1039 C 0.4798 0.95633 0.51582 0.0
C1040 C 0.48753 0.99244 0.50377 0.0
C1041 C 0.46631 0.96885 0.50847 0.0
C1042 C 0.47729 0.02382 0.49071 0.0
C1043 C 0.5124 0.03518 0.48942 0.0
N1044 N 0.47046 0.98632 0.50269 0.0
N1045 N 0.50831 0.01772 0.49589 0.0
H1046 H 0.28677 0.24507 0.80338 0.0
H1047 H 0.18254 0.23758 0.75184 0.0
H1048 H 0.25997 0.19539 0.77577 0.0
H1049 H 0.20964 0.28715 0.77875 0.0
H1050 H 0.2107 0.22184 0.76063 0.0
H1051 H 0.25854 0.26063 0.79526 0.0
C1052 C 0.27491 0.23742 0.79574 0.0
C1053 C 0.27568 0.21891 0.79021 0.0
C1054 C 0.21051 0.23616 0.76459 0.0
C1055 C 0.24332 0.23665 0.78069 0.0
C1056 C 0.19445 0.24515 0.75951 0.0
C1057 C 0.19379 0.26369 0.76459 0.0
C1058 C 0.22603 0.24577 0.77484 0.0
C1059 C 0.20958 0.27285 0.77454 0.0
C1060 C 0.25879 0.24632 0.79104 0.0
C1061 C 0.25993 0.20968 0.78032 0.0
N1062 N 0.22507 0.26378 0.77939 0.0
N1063 N 0.24437 0.21866 0.7758 0.0
H1064 H 0.05136 0.97608 0.47606 0.0
H1065 H 0.96642 0.03983 0.46165 0.0
H1066 H -0.00223 0.95862 0.44743 0.0
H1067 H 0.01975 0.06027 0.47648 0.0
H1068 H 0.97836 0.00991 0.45547 0.0
H1069 H 0.04083 0.00706 0.47543 0.0
C1070 C 0.03745 0.97876 0.46942 0.0
C1071 C 0.0254 0.96478 0.46205 0.0
C1072 C 0.98753 0.0209 0.45986 0.0
C1073 C 0.01333 -8e-05 0.46137 0.0
C1074 C 0.98069 0.038 0.46342 0.0
C1075 C 0.99211 0.05252 0.46969 0.0
C1076 C 0.00597 0.01819 0.46292 0.0
C1077 C 0.0105 0.04939 0.47163 0.0
C1078 C 0.03145 0.9964 0.46907 0.0
C1079 C 0.00753 0.96895 0.45357 0.0
N1080 N 0.01689 0.03251 0.46853 0.0
N1081 N 0.00206 0.98608 0.45365 0.0
H1082 H 0.20832 0.70603 0.80752 0.0
H1083 H 0.27349 0.78794 0.75356 0.0
H1084 H 0.18977 0.75754 0.76273 0.0
H1085 H 0.29105 0.73619 0.79926 0.0
H1086 H 0.24256 0.77803 0.76249 0.0
H1087 H 0.23862 0.7177 0.81004 0.0
C1088 C 0.21062 0.71983 0.7984 0.0
C1089 C 0.19654 0.73081 0.78462 0.0
C1090 C 0.2532 0.76891 0.7709 0.0
C1091 C 0.23121 0.74428 0.78727 0.0
C1092 C 0.27083 0.77458 0.76595 0.0
C1093 C 0.28482 0.76283 0.77535 0.0
C1094 C 0.24962 0.75138 0.78531 0.0
C1095 C 0.28066 0.74566 0.79127 0.0
C1096 C 0.22793 0.7265 0.79987 0.0
C1097 C 0.20027 0.7486 0.77335 0.0
N1098 N 0.26347 0.74043 0.79546 0.0
N1099 N 0.21726 0.75477 0.77467 0.0
H1100 H 0.48425 0.94632 0.04553 0.0
H1101 H 0.49387 0.04105 0.92188 0.0
H1102 H 0.53198 0.96362 0.97473 0.0
H1103 H 0.45277 0.02896 0.02272 0.0
H1104 H 0.50654 0.01155 0.9345 0.0
H1105 H 0.47114 0.97557 0.03188 0.0
C1106 C 0.49198 0.95631 0.0272 0.0
C1107 C 0.50922 0.95261 0.01127 0.0
C1108 C 0.49475 0.01535 0.95385 0.0
C1109 C 0.49428 0.98596 0.99523 0.0
C1110 C 0.48747 0.03214 0.94652 0.0
C1111 C 0.47228 0.03742 0.9714 0.0
C1112 C 0.4867 0.00374 0.98603 0.0
C1113 C 0.46452 0.02539 0.00291 0.0
C1114 C 0.4845 0.97298 0.01947 0.0
C1115 C 0.51866 0.96598 0.98772 0.0
N1116 N 0.47181 0.00907 0.00933 0.0
N1117 N 0.51103 0.98207 0.98022 0.0
H1118 H 0.18928 0.26495 0.26536 0.0
H1119 H 0.2855 0.22134 0.29594 0.0
H1120 H 0.19814 0.20851 0.27833 0.0
H1121 H 0.27703 0.27778 0.28088 0.0
H1122 H 0.25351 0.21652 0.29086 0.0
H1123 H 0.22124 0.26999 0.2722 0.0
C1124 C 0.19796 0.2536 0.26969 0.0
C1125 C 0.19105 0.23626 0.27124 0.0
C1126 C 0.2586 0.22997 0.28869 0.0
C1127 C 0.22769 0.24196 0.27909 0.0
C1128 C 0.27689 0.23275 0.2916 0.0
C1129 C 0.28394 0.25 0.28877 0.0
C1130 C 0.24721 0.24455 0.28287 0.0
C1131 C 0.27215 0.26426 0.28319 0.0
C1132 C 0.21622 0.2565 0.27359 0.0
C1133 C 0.20291 0.22208 0.27693 0.0
N1134 N 0.25434 0.26121 0.28038 0.0
N1135 N 0.22066 0.22525 0.28062 0.0
H1136 H 0.7847 0.19691 0.76575 0.0
H1137 H 0.73369 0.29039 0.76964 0.0
H1138 H 0.80986 0.24739 0.73729 0.0
H1139 H 0.70818 0.24017 0.79895 0.0
H1140 H 0.7618 0.27476 0.75772 0.0
H1141 H 0.7564 0.21237 0.77747 0.0
C1142 C 0.78424 0.21122 0.7618 0.0
C1143 C 0.79961 0.22089 0.75057 0.0
C1144 C 0.75006 0.26715 0.76683 0.0
C1145 C 0.76742 0.23865 0.76407 0.0
C1146 C 0.73404 0.27608 0.77371 0.0
C1147 C 0.71863 0.26655 0.7853 0.0
C1148 C 0.75066 0.24856 0.77154 0.0
C1149 C 0.71978 0.24802 0.79006 0.0
C1150 C 0.76812 0.22005 0.76858 0.0
C1151 C 0.79832 0.23941 0.74595 0.0
N1152 N 0.73552 0.23962 0.78311 0.0
N1153 N 0.78252 0.24768 0.75277 0.0
H1154 H 0.7149 0.78794 0.24982 0.0
H1155 H 0.77976 0.70351 0.25238 0.0
H1156 H 0.69663 0.73461 0.22125 0.0
H1157 H 0.79624 0.75758 0.27882 0.0
H1158 H 0.74913 0.71407 0.24146 0.0
H1159 H 0.74488 0.77656 0.26073 0.0
C1160 C 0.71723 0.77381 0.24576 0.0
C1161 C 0.7033 0.7622 0.23462 0.0
C1162 C 0.75949 0.72357 0.24972 0.0
C1163 C 0.73762 0.749 0.2472 0.0
C1164 C 0.77692 0.71755 0.25602 0.0
C1165 C 0.79052 0.72969 0.26646 0.0
C1166 C 0.75576 0.74182 0.25397 0.0
C1167 C 0.78618 0.74774 0.27073 0.0
C1168 C 0.73436 0.7673 0.25204 0.0
C1169 C 0.70705 0.74401 0.2298 0.0
N1170 N 0.76922 0.75323 0.26444 0.0
N1171 N 0.72389 0.73794 0.23617 0.0
H1172 H 0.71274 0.20899 0.27573 0.0
H1173 H 0.79208 0.28044 0.26571 0.0
H1174 H 0.70538 0.26552 0.29255 0.0
H1175 H 0.79986 0.22398 0.24882 0.0
H1176 H 0.7602 0.27515 0.27614 0.0
H1177 H 0.74477 0.21404 0.26651 0.0
C1178 C 0.71787 0.22244 0.27758 0.0
C1179 C 0.7064 0.23685 0.28488 0.0
C1180 C 0.76888 0.26391 0.27016 0.0
C1181 C 0.74293 0.24275 0.2743 0.0
C1182 C 0.78707 0.26694 0.26418 0.0
C1183 C 0.79861 0.25264 0.25637 0.0
C1184 C 0.7622 0.24645 0.2683 0.0
C1185 C 0.79143 0.2354 0.25475 0.0
C1186 C 0.73613 0.22533 0.27229 0.0
C1187 C 0.71374 0.25401 0.28695 0.0
N1188 N 0.77369 0.23279 0.26065 0.0
N1189 N 0.7315 0.25648 0.28165 0.0
H1190 H 0.69279 0.76719 0.73614 0.0
H1191 H 0.79368 0.73769 0.77699 0.0
H1192 H 0.70964 0.71252 0.74619 0.0
H1193 H 0.77747 0.7924 0.76216 0.0
H1194 H 0.76288 0.72836 0.76738 0.0
H1195 H 0.72355 0.77674 0.74686 0.0
C1196 C 0.70299 0.75718 0.74058 0.0
C1197 C 0.69867 0.73902 0.74025 0.0
C1198 C 0.766 0.74241 0.76626 0.0
C1199 C 0.73393 0.74989 0.75263 0.0
C1200 C 0.78361 0.74777 0.77179 0.0
C1201 C 0.78814 0.76587 0.77033 0.0
C1202 C 0.75276 0.75523 0.75919 0.0
C1203 C 0.77454 0.77832 0.76352 0.0
C1204 C 0.72055 0.76266 0.74671 0.0
C1205 C 0.7124 0.72665 0.74618 0.0
N1206 N 0.75743 0.77276 0.75815 0.0
N1207 N 0.72942 0.73232 0.75215 0.0
H1208 H 0.48746 0.54287 0.45372 0.0
H1209 H 0.4798 0.44407 0.54323 0.0
H1210 H 0.52448 0.52346 0.55695 0.0
H1211 H 0.47981 0.45539 0.39508 0.0
H1212 H 0.48841 0.47514 0.55866 0.0
H1213 H 0.47698 0.51235 0.44102 0.0
C1214 C 0.49332 0.53216 0.47382 0.0
C1215 C 0.5069 0.53557 0.50622 0.0
C1216 C 0.48629 0.47078 0.52291 0.0
C1217 C 0.49464 0.50095 0.49285 0.0
C1218 C 0.4812 0.45322 0.51412 0.0
C1219 C 0.47903 0.44732 0.46785 0.0
C1220 C 0.48867 0.48251 0.48521 0.0
C1221 C 0.48132 0.45953 0.43122 0.0
C1222 C 0.48735 0.51484 0.4665 0.0
C1223 C 0.51409 0.52128 0.53137 0.0
N1224 N 0.48591 0.47663 0.44067 0.0
N1225 N 0.50772 0.50452 0.52451 0.0
H1226 H 0.02408 0.4346 1.00036 0.0
H1227 H 0.99267 0.53611 0.01072 0.0
H1228 H 0.96913 0.45029 0.01304 0.0
H1229 H 0.04694 0.51997 0.98672 0.0
H1230 H 0.98387 0.50486 0.01473 0.0
H1231 H 0.03272 0.46583 0.99813 0.0
C1232 C 0.01381 0.44464 0.00268 0.0
C1233 C 0.99584 0.43985 0.00686 0.0
C1234 C -0.00229 0.50814 0.00864 0.0
C1235 C 0.00568 0.47571 0.00439 0.0
C1236 C 0.00275 0.52598 0.00643 0.0
C1237 C 0.02058 0.53063 0.99835 0.0
C1238 C 0.01058 0.49483 0.00283 0.0
C1239 C 0.03306 0.51696 0.993 0.0
C1240 C 0.01877 0.46249 0.00138 0.0
C1241 C 0.98313 0.45342 0.00974 0.0
N1242 N 0.02782 0.49968 0.99532 0.0
N1243 N 0.9883 0.47076 0.00848 0.0
H1244 H 0.49036 0.45037 0.95266 0.0
H1245 H 0.50864 0.55263 0.0127 0.0
H1246 H 0.54232 0.47292 0.97726 0.0
H1247 H 0.45581 0.53152 0.99242 0.0
H1248 H 0.52087 0.52321 0.99965 0.0
H1249 H 0.47714 0.47967 0.96655 0.0
C1250 C 0.49897 0.4615 0.96091 0.0
C1251 C 0.51746 0.45926 0.96379 0.0
C1252 C 0.50659 0.52492 0.99806 0.0
C1253 C 0.50247 0.49267 0.97976 0.0
C1254 C 0.49958 0.54175 0.00554 0.0
C1255 C 0.48117 0.54452 0.00357 0.0
C1256 C 0.49515 0.51064 0.98841 0.0
C1257 C 0.47009 0.52993 0.99424 0.0
C1258 C 0.49142 0.47818 0.96889 0.0
C1259 C 0.52801 0.47405 0.97465 0.0
N1260 N 0.47727 0.51356 0.98688 0.0
N1261 N 0.52036 0.49011 0.98222 0.0
H1262 H 0.04644 0.4618 0.48861 0.0
H1263 H 0.96529 0.53053 0.48133 0.0
H1264 H 0.9914 0.44551 0.48724 0.0
H1265 H 0.02057 0.54594 0.4844 0.0
H1266 H 0.97437 0.49926 0.48027 0.0
H1267 H 0.03703 0.49275 0.48327 0.0
C1268 C 0.03236 0.46475 0.48694 0.0
C1269 C 0.01967 0.45111 0.48854 0.0
C1270 C 0.98449 0.5095 0.48107 0.0
C1271 C 0.00877 0.4865 0.4827 0.0
C1272 C 0.97932 0.52732 0.48172 0.0
C1273 C 0.99221 0.5408 0.48314 0.0
C1274 C 0.00267 0.5052 0.48184 0.0
C1275 C 0.0102 0.53595 0.48348 0.0
C1276 C 0.02698 0.48242 0.48396 0.0
C1277 C 0.00161 0.45566 0.48619 0.0
N1278 N 0.01488 0.51856 0.48292 0.0
N1279 N -0.00332 0.473 0.48358 0.0
H1280 H 0.05137 0.16047 0.02246 0.0
H1281 H 0.12481 0.16572 0.21482 0.0
H1282 H 0.0595 0.11263 0.10324 0.0
H1283 H 0.0823 0.20401 0.20474 0.0
H1284 H 0.10755 0.1454 0.16421 0.0
H1285 H 0.07086 0.17648 0.07601 0.0
C1286 C 0.05752 0.15322 0.05093 0.0
C1287 C 0.05364 0.13523 0.05873 0.0
C1288 C 0.10203 0.15817 0.17389 0.0
C1289 C 0.07599 0.15354 0.11994 0.0
C1290 C 0.11178 0.16972 0.20272 0.0
C1291 C 0.10499 0.1866 0.21383 0.0
C1292 C 0.08576 0.16389 0.15537 0.0
C1293 C 0.08808 0.19116 0.19708 0.0
C1294 C 0.06854 0.16241 0.08158 0.0
C1295 C 0.06209 0.12654 0.09622 0.0
N1296 N 0.07922 0.18002 0.16802 0.0
N1297 N 0.07289 0.13583 0.12582 0.0
H1298 H 0.09663 0.79161 0.36078 0.0
H1299 H 0.09447 0.89491 0.39897 0.0
H1300 H 0.13746 0.82472 0.2998 0.0
H1301 H 0.07143 0.85718 0.49547 0.0
H1302 H 0.11144 0.87061 0.36271 0.0
H1303 H 0.08707 0.81649 0.40878 0.0
C1304 C 0.10354 0.80419 0.35736 0.0
C1305 C 0.11774 0.80618 0.32602 0.0
C1306 C 0.103 0.86779 0.39259 0.0
C1307 C 0.10689 0.83482 0.38118 0.0
C1308 C 0.09343 0.88164 0.41347 0.0
C1309 C 0.08134 0.87794 0.44971 0.0
C1310 C 0.10024 0.85027 0.40802 0.0
C1311 C 0.08039 0.86054 0.46708 0.0
C1312 C 0.0982 0.81836 0.38518 0.0
C1313 C 0.12638 0.82272 0.32348 0.0
N1314 N 0.08944 0.84731 0.44553 0.0
N1315 N 0.12067 0.83656 0.35039 0.0
H1316 H 0.38671 0.79505 0.65802 0.0
H1317 H 0.40916 0.89481 0.59256 0.0
H1318 H 0.3496 0.83698 0.69055 0.0
H1319 H 0.43295 0.84903 0.52657 0.0
H1320 H 0.38693 0.87514 0.62914 0.0
H1321 H 0.40421 0.81578 0.6124 0.0
C1322 C 0.38226 0.80871 0.65574 0.0
C1323 C 0.36671 0.81432 0.6784 0.0
C1324 C 0.39685 0.86951 0.60598 0.0
C1325 C 0.38683 0.83832 0.62557 0.0
C1326 C 0.40947 0.8807 0.58499 0.0
C1327 C 0.42303 0.87347 0.557 0.0
C1328 C 0.398 0.85107 0.59901 0.0
C1329 C 0.42289 0.85515 0.54837 0.0
C1330 C 0.39222 0.82054 0.62924 0.0
C1331 C 0.36155 0.83217 0.67369 0.0
N1332 N 0.41073 0.84459 0.56972 0.0
N1333 N 0.37171 0.84365 0.64801 0.0
H1334 H 0.38972 0.09876 0.97652 0.0
H1335 H 0.35686 0.13966 0.75156 0.0
H1336 H 0.40843 0.0794 0.84306 0.0
H1337 H 0.32276 0.13733 0.87294 0.0
H1338 H 0.37294 0.11374 0.78038 0.0
H1339 H 0.36236 0.10873 0.939 0.0
C1340 C 0.38781 0.09617 0.9395 0.0
C1341 C 0.40142 0.08863 0.91255 0.0
C1342 C 0.36159 0.11849 0.80007 0.0
C1343 C 0.37046 0.10037 0.86922 0.0
C1344 C 0.35245 0.13331 0.78363 0.0
C1345 C 0.33874 0.14073 0.81043 0.0
C1346 C 0.35735 0.11152 0.84437 0.0
C1347 C 0.33339 0.13202 0.85153 0.0
C1348 C 0.37217 0.1018 0.91809 0.0
C1349 C 0.39829 0.08538 0.86489 0.0
N1350 N 0.34309 0.11816 0.8681 0.0
N1351 N 0.38332 0.09177 0.84436 0.0
H1352 H 0.84957 0.84143 0.83723 0.0
H1353 H 0.94514 0.85752 0.94568 0.0
H1354 H 0.89619 0.81086 0.80164 0.0
H1355 H 0.90998 0.90214 0.9252 0.0
H1356 H 0.92397 0.83847 0.90554 0.0
H1357 H 0.86881 0.86295 0.87833 0.0
C1358 C 0.86382 0.8394 0.8374 0.0
C1359 C 0.8713 0.82429 0.81626 0.0
C1360 C 0.92082 0.85242 0.90995 0.0
C1361 C 0.89306 0.84837 0.86387 0.0
C1362 C 0.93284 0.86329 0.93322 0.0
C1363 C 0.92939 0.88149 0.93841 0.0
C1364 C 0.9051 0.85968 0.8919 0.0
C1365 C 0.91315 0.88817 0.92173 0.0
C1366 C 0.87472 0.8516 0.86096 0.0
C1367 C 0.88981 0.82223 0.81765 0.0
N1368 N 0.90155 0.87724 0.89894 0.0
N1369 N 0.89999 0.83399 0.84154 0.0
H1370 H 0.90641 0.112 0.50869 0.0
H1371 H 0.88776 0.14479 0.75663 0.0
H1372 H 0.93532 0.0907 0.62637 0.0
H1373 H 0.84593 0.14324 0.65353 0.0
H1374 H 0.9036 0.12176 0.71314 0.0
H1375 H 0.88225 0.12032 0.56165 0.0
C1376 C 0.90745 0.10868 0.54554 0.0
C1377 C 0.92296 0.10095 0.56341 0.0
C1378 C 0.8907 0.12603 0.70072 0.0
C1379 C 0.89565 0.11074 0.6242 0.0
C1380 C 0.88168 0.13918 0.72555 0.0
C1381 C 0.86569 0.14603 0.70817 0.0
C1382 C 0.88392 0.12018 0.65752 0.0
C1383 C 0.85831 0.13833 0.66788 0.0
C1384 C 0.89365 0.11337 0.57575 0.0
C1385 C 0.92363 0.09681 0.61131 0.0
N1386 N 0.86775 0.12616 0.64305 0.0
N1387 N 0.91037 0.10219 0.64033 0.0
H1388 H 0.59253 0.2076 0.31138 0.0
H1389 H 0.57205 0.11253 0.42422 0.0
H1390 H 0.63458 0.17053 0.34289 0.0
H1391 H 0.53618 0.15724 0.42672 0.0
H1392 H 0.59484 0.13169 0.38813 0.0
H1393 H 0.57106 0.18694 0.34441 0.0
C1394 C 0.59724 0.195 0.32487 0.0
C1395 C 0.61539 0.19083 0.32465 0.0
C1396 C 0.58199 0.13725 0.39691 0.0
C1397 C 0.59079 0.16708 0.3632 0.0
C1398 C 0.56903 0.12637 0.41761 0.0
C1399 C 0.55221 0.13332 0.42847 0.0
C1400 C 0.57792 0.15506 0.38663 0.0
C1401 C 0.54895 0.1513 0.41898 0.0
C1402 C 0.58496 0.18324 0.34404 0.0
C1403 C 0.62069 0.17426 0.34247 0.0
N1404 N 0.56162 0.16148 0.3984 0.0
N1405 N 0.60842 0.16296 0.3613 0.0
H1406 H 0.58049 0.90564 0.1229 0.0
H1407 H 0.65483 0.83069 0.12201 0.0
H1408 H 0.58689 0.86868 0.00857 0.0
H1409 H 0.61931 0.83857 0.23895 0.0
H1410 H 0.63991 0.85494 0.0802 0.0
H1411 H 0.60503 0.89098 0.16425 0.0
C1412 C 0.58751 0.89487 0.10579 0.0
C1413 C 0.58169 0.8882 0.06253 0.0
C1414 C 0.63583 0.85167 0.11559 0.0
C1415 C 0.60968 0.87178 0.10897 0.0
C1416 C 0.64433 0.83796 0.13953 0.0
C1417 C 0.63812 0.83262 0.18373 0.0
C1418 C 0.6214 0.8603 0.13668 0.0
C1419 C 0.62434 0.84227 0.20474 0.0
C1420 C 0.60138 0.88652 0.12946 0.0
C1421 C 0.59099 0.87408 0.04204 0.0
N1422 N 0.61632 0.85564 0.18083 0.0
N1423 N 0.60453 0.86623 0.06563 0.0
H1424 H 0.55851 0.64084 0.51891 0.0
H1425 H 0.64152 0.65984 0.6811 0.0
H1426 H 0.58195 0.59655 0.59235 0.0
H1427 H 0.59471 0.69286 0.67409 0.0
H1428 H 0.62554 0.63674 0.63599 0.0
H1429 H 0.57897 0.66086 0.55869 0.0
C1430 C 0.56822 0.63527 0.54276 0.0
C1431 C 0.56836 0.61706 0.55298 0.0
C1432 C 0.61887 0.64904 0.64485 0.0
C1433 C 0.59168 0.63997 0.5989 0.0
C1434 C 0.62788 0.66214 0.67059 0.0
C1435 C 0.61941 0.67828 0.6813 0.0
C1436 C 0.60158 0.65247 0.62895 0.0
C1437 C 0.60179 0.68066 0.66674 0.0
C1438 C 0.5798 0.64672 0.56562 0.0
C1439 C 0.58139 0.61055 0.58377 0.0
N1440 N 0.59357 0.66802 0.64086 0.0
N1441 N 0.59249 0.62208 0.60631 0.0
H1442 H 0.59481 0.41524 0.86054 0.0
H1443 H 0.67036 0.34235 0.89327 0.0
H1444 H 0.59755 0.37979 0.97904 0.0
H1445 H 0.64175 0.34976 0.76391 0.0
H1446 H 0.65378 0.36724 0.92769 0.0
H1447 H 0.62222 0.40193 0.82946 0.0
C1448 C 0.60155 0.40512 0.88079 0.0
C1449 C 0.59394 0.39838 0.92202 0.0
C1450 C 0.65167 0.36378 0.89125 0.0
C1451 C 0.62515 0.38355 0.88744 0.0
C1452 C 0.66114 0.34971 0.87155 0.0
C1453 C 0.65719 0.344 0.82596 0.0
C1454 C 0.63858 0.37233 0.86464 0.0
C1455 C 0.64499 0.35375 0.79936 0.0
C1456 C 0.61708 0.39755 0.86302 0.0
C1457 C 0.60299 0.38516 0.94686 0.0
N1458 N 0.63594 0.3674 0.81928 0.0
N1459 N 0.61812 0.37804 0.92897 0.0
H1460 H 0.86365 0.32102 0.1848 0.0
H1461 H 0.95263 0.33087 0.03668 0.0
H1462 H 0.90855 0.2856 0.19543 0.0
H1463 H 0.92237 0.37745 0.07435 0.0
H1464 H 0.9325 0.31271 0.08324 0.0
H1465 H 0.88185 0.34118 0.1363 0.0
C1466 C 0.87737 0.31762 0.17755 0.0
C1467 C 0.8846 0.3016 0.19409 0.0
C1468 C 0.93017 0.32689 0.08113 0.0
C1469 C 0.90511 0.32417 0.13792 0.0
C1470 C 0.94157 0.33727 0.05418 0.0
C1471 C 0.93926 0.35573 0.05194 0.0
C1472 C 0.91623 0.33495 0.10588 0.0
C1473 C 0.92463 0.36325 0.07529 0.0
C1474 C 0.88766 0.32906 0.14977 0.0
C1475 C 0.90239 0.29777 0.18346 0.0
N1476 N 0.91365 0.35281 0.10161 0.0
N1477 N 0.91194 0.30886 0.15566 0.0
H1478 H 0.94589 0.64758 0.46156 0.0
H1479 H 0.85262 0.65525 0.33922 0.0
H1480 H 0.91697 0.59906 0.434 0.0
H1481 H 0.8987 0.68592 0.29851 0.0
H1482 H 0.87219 0.6355 0.38495 0.0
H1483 H 0.92377 0.66403 0.41719 0.0
C1484 C 0.93471 0.64041 0.44686 0.0
C1485 C 0.93337 0.6219 0.45093 0.0
C1486 C 0.87789 0.64644 0.36532 0.0
C1487 C 0.9081 0.64068 0.39987 0.0
C1488 C 0.86682 0.65761 0.33911 0.0
C1489 C 0.87406 0.67233 0.31547 0.0
C1490 C 0.89609 0.65039 0.36834 0.0
C1491 C 0.89252 0.67485 0.31655 0.0
C1492 C 0.92219 0.6498 0.42122 0.0
C1493 C 0.91851 0.61333 0.43133 0.0
N1494 N 0.90284 0.66419 0.34321 0.0
N1495 N 0.9064 0.62281 0.40623 0.0
H1496 H 0.39719 0.28141 0.31183 0.0
H1497 H 0.41538 0.37941 0.40827 0.0
H1498 H 0.35427 0.31833 0.33567 0.0
H1499 H 0.45191 0.33548 0.42062 0.0
H1500 H 0.39303 0.35888 0.37581 0.0
H1501 H 0.41802 0.30311 0.34293 0.0
C1502 C 0.39215 0.29418 0.32324 0.0
C1503 C 0.37395 0.29804 0.32136 0.0
C1504 C 0.40591 0.35379 0.386 0.0
C1505 C 0.39781 0.32299 0.35764 0.0
C1506 C 0.41862 0.36546 0.40463 0.0
C1507 C 0.43552 0.35913 0.41707 0.0
C1508 C 0.41031 0.33582 0.37936 0.0
C1509 C 0.43908 0.34097 0.41146 0.0
C1510 C 0.40406 0.30655 0.34133 0.0
C1511 C 0.36821 0.31484 0.33657 0.0
N1512 N 0.42665 0.33002 0.39276 0.0
N1513 N 0.38013 0.32674 0.35428 0.0
H1514 H 0.38186 0.6776 0.24543 0.0
H1515 H 0.3989 0.59918 0.06602 0.0
H1516 H 0.33754 0.658 0.16436 0.0
H1517 H 0.43285 0.64511 0.08251 0.0
H1518 H 0.37644 0.61384 0.11614 0.0
H1519 H 0.40138 0.65708 0.20401 0.0
C1520 C 0.37614 0.66866 0.21976 0.0
C1521 C 0.35814 0.66974 0.20756 0.0
C1522 C 0.38883 0.62059 0.10834 0.0
C1523 C 0.38041 0.6464 0.16003 0.0
C1524 C 0.40153 0.61235 0.07971 0.0
C1525 C 0.41769 0.621 0.07001 0.0
C1526 C 0.39272 0.63721 0.12818 0.0
C1527 C 0.42056 0.63798 0.0888 0.0
C1528 C 0.3873 0.65706 0.19599 0.0
C1529 C 0.35141 0.65768 0.17436 0.0
N1530 N 0.40831 0.64541 0.1174 0.0
N1531 N 0.36265 0.64661 0.151 0.0
H1532 H 0.09487 0.60878 0.99345 0.0
H1533 H 0.12202 0.65047 0.75258 0.0
H1534 H 0.07799 0.58678 0.86113 0.0
H1535 H 0.14969 0.66233 0.8812 0.0
H1536 H 0.10896 0.62427 0.78976 0.0
H1537 H 0.11814 0.62539 0.95273 0.0
C1538 C 0.09634 0.60713 0.95592 0.0
C1539 C 0.08435 0.59661 0.9305 0.0
C1540 C 0.11819 0.63236 0.80961 0.0
C1541 C 0.11066 0.61588 0.8835 0.0
C1542 C 0.12564 0.64733 0.78837 0.0
C1543 C 0.13671 0.65872 0.81412 0.0
C1544 C 0.12157 0.62897 0.8572 0.0
C1545 C 0.14108 0.65397 0.86023 0.0
C1546 C 0.10963 0.61663 0.93264 0.0
C1547 C 0.0869 0.59486 0.882 0.0
N1548 N 0.13319 0.63966 0.88065 0.0
N1549 N 0.09953 0.60472 0.8599 0.0
H1550 H 0.09788 0.38122 0.52548 0.0
H1551 H 0.11196 0.3458 0.77187 0.0
H1552 H 0.07264 0.40678 0.64338 0.0
H1553 H 0.1544 0.34308 0.67037 0.0
H1554 H 0.09916 0.37071 0.72864 0.0
H1555 H 0.12076 0.36971 0.5781 0.0
C1556 C 0.09743 0.38478 0.56226 0.0
C1557 C 0.08323 0.39467 0.58035 0.0
C1558 C 0.11157 0.36504 0.71656 0.0
C1559 C 0.10901 0.38128 0.6407 0.0
C1560 C 0.11884 0.35082 0.7412 0.0
C1561 C 0.13407 0.34229 0.72419 0.0
C1562 C 0.1193 0.37031 0.67392 0.0
C1563 C 0.14255 0.34928 0.68442 0.0
C1564 C 0.11051 0.37827 0.59226 0.0
C1565 C 0.0833 0.39903 0.62816 0.0
N1566 N 0.13475 0.36258 0.65974 0.0
N1567 N 0.09572 0.39188 0.657 0.0
loop_
_geom_bond_atom_site_label_1
_geom_bond_atom_site_label_2
_geom_bond_distance
_geom_bond_site_symmetry_2
_ccdc_geom_bond_type
In0 O1 2.294 . S
In0 O2 2.326 . S
In0 O6 2.266 . S
In0 O7 2.312 1_455 S
In0 O8 2.266 1_455 S
In0 O9 2.326 1_554 S
In0 O11 2.294 1_455 S
In0 O12 2.326 . S
O1 In0 2.294 . S
O1 C10 1.240 . S
O2 In0 2.326 . S
O2 C10 1.252 . S
C3 O6 1.252 . S
C3 O7 1.238 1_455 S
C4 O11 1.240 1_455 S
C4 O12 1.252 . S
C5 O8 1.252 1_456 S
C5 O9 1.260 . S
O6 In0 2.266 . S
O6 C3 1.252 . S
O7 In0 2.312 1_655 S
O7 C3 1.238 1_655 S
O8 In0 2.266 1_655 S
O8 C5 1.252 1_654 S
O9 In0 2.326 1_556 S
O9 C5 1.260 . S
C10 O1 1.240 . S
C10 O2 1.252 . S
O11 In0 2.294 1_655 S
O11 C4 1.240 1_655 S
O12 In0 2.326 . S
O12 C4 1.252 . S
In13 O14 2.294 . S
In13 O15 2.326 . S
In13 O19 2.266 . S
In13 O20 2.326 . S
In13 O21 2.266 . S
In13 O22 2.326 . S
In13 O24 2.294 . S
In13 O25 2.326 . S
O14 In13 2.294 . S
O14 C23 1.240 . S
O15 In13 2.326 . S
O15 C23 1.252 . S
C16 O19 1.252 . S
C16 O20 1.260 . S
C17 O24 1.240 . S
C17 O25 1.252 . S
C18 O21 1.252 . S
C18 O22 1.260 . S
O19 In13 2.266 . S
O19 C16 1.252 . S
O20 In13 2.326 . S
O20 C16 1.260 . S
O21 In13 2.266 . S
O21 C18 1.252 . S
O22 In13 2.326 . S
O22 C18 1.260 . S
C23 O14 1.240 . S
C23 O15 1.252 . S
O24 In13 2.294 . S
O24 C17 1.240 . S
O25 In13 2.326 . S
O25 C17 1.252 . S
In26 O27 2.294 . S
In26 O28 2.326 . S
In26 O32 2.266 . S
In26 O33 2.326 . S
In26 O34 2.266 . S
In26 O35 2.326 . S
In26 O37 2.294 . S
In26 O38 2.326 . S
O27 In26 2.294 . S
O27 C36 1.240 . S
O28 In26 2.326 . S
O28 C36 1.252 . S
C29 O32 1.252 . S
C29 O33 1.260 . S
C30 O37 1.240 . S
C30 O38 1.252 . S
C31 O34 1.252 . S
C31 O35 1.260 . S
O32 In26 2.266 . S
O32 C29 1.252 . S
O33 In26 2.326 . S
O33 C29 1.260 . S
O34 In26 2.266 . S
O34 C31 1.252 . S
O35 In26 2.326 . S
O35 C31 1.260 . S
C36 O27 1.240 . S
C36 O28 1.252 . S
O37 In26 2.294 . S
O37 C30 1.240 . S
O38 In26 2.326 . S
O38 C30 1.252 . S
In39 O40 2.294 . S
In39 O41 2.326 . S
In39 O45 2.266 . S
In39 O46 2.326 . S
In39 O47 2.266 . S
In39 O48 2.326 . S
In39 O50 2.294 . S
In39 O51 2.326 . S
O40 In39 2.294 . S
O40 C49 1.240 . S
O41 In39 2.326 . S
O41 C49 1.252 . S
C42 O45 1.252 . S
C42 O46 1.260 . S
C43 O50 1.240 . S
C43 O51 1.252 . S
C44 O47 1.252 . S
C44 O48 1.260 . S
O45 In39 2.266 . S
O45 C42 1.252 . S
O46 In39 2.326 . S
O46 C42 1.260 . S
O47 In39 2.266 . S
O47 C44 1.252 . S
O48 In39 2.326 . S
O48 C44 1.260 . S
C49 O40 1.240 . S
C49 O41 1.252 . S
O50 In39 2.294 . S
O50 C43 1.240 . S
O51 In39 2.326 . S
O51 C43 1.252 . S
In52 O53 2.294 . S
In52 O54 2.326 . S
In52 O58 2.266 . S
In52 O59 2.311 1_455 S
In52 O60 2.266 1_455 S
In52 O61 2.326 . S
In52 O63 2.294 1_455 S
In52 O64 2.326 . S
O53 In52 2.294 . S
O53 C62 1.240 . S
O54 In52 2.326 . S
O54 C62 1.252 . S
C55 O58 1.252 . S
C55 O59 1.237 1_455 S
C56 O63 1.240 1_455 S
C56 O64 1.252 . S
C57 O60 1.252 1_455 S
C57 O61 1.260 . S
O58 In52 2.266 . S
O58 C55 1.252 . S
O59 In52 2.311 1_655 S
O59 C55 1.237 1_655 S
O60 In52 2.266 1_655 S
O60 C57 1.252 1_655 S
O61 In52 2.326 . S
O61 C57 1.260 . S
C62 O53 1.240 . S
C62 O54 1.252 . S
O63 In52 2.294 1_655 S
O63 C56 1.240 1_655 S
O64 In52 2.326 . S
O64 C56 1.252 . S
In65 O66 2.294 . S
In65 O67 2.326 . S
In65 O71 2.266 . S
In65 O72 2.326 . S
In65 O73 2.266 . S
In65 O74 2.326 . S
In65 O76 2.294 . S
In65 O77 2.326 . S
O66 In65 2.294 . S
O66 C75 1.240 . S
O67 In65 2.326 . S
O67 C75 1.252 . S
C68 O71 1.252 . S
C68 O72 1.260 . S
C69 O76 1.240 . S
C69 O77 1.252 . S
C70 O73 1.252 . S
C70 O74 1.260 . S
O71 In65 2.266 . S
O71 C68 1.252 . S
O72 In65 2.326 . S
O72 C68 1.260 . S
O73 In65 2.266 . S
O73 C70 1.252 . S
O74 In65 2.326 . S
O74 C70 1.260 . S
C75 O66 1.240 . S
C75 O67 1.252 . S
O76 In65 2.294 . S
O76 C69 1.240 . S
O77 In65 2.326 . S
O77 C69 1.252 . S
In78 O79 2.294 . S
In78 O80 2.326 . S
In78 O84 2.266 . S
In78 O85 2.326 1_556 S
In78 O86 2.266 . S
In78 O87 2.326 . S
In78 O89 2.294 . S
In78 O90 2.326 . S
O79 In78 2.294 . S
O79 C88 1.240 . S
O80 In78 2.326 . S
O80 C88 1.252 . S
C81 O84 1.252 1_554 S
C81 O85 1.260 . S
C82 O89 1.240 . S
C82 O90 1.252 . S
C83 O86 1.252 . S
C83 O87 1.260 . S
O84 In78 2.266 . S
O84 C81 1.252 1_556 S
O85 In78 2.326 1_554 S
O85 C81 1.260 . S
O86 In78 2.266 . S
O86 C83 1.252 . S
O87 In78 2.326 . S
O87 C83 1.260 . S
C88 O79 1.240 . S
C88 O80 1.252 . S
O89 In78 2.294 . S
O89 C82 1.240 . S
O90 In78 2.326 . S
O90 C82 1.252 . S
In91 O92 2.294 . S
In91 O93 2.326 . S
In91 O97 2.266 . S
In91 O98 2.326 . S
In91 O99 2.266 . S
In91 O100 2.326 . S
In91 O102 2.294 . S
In91 O103 2.326 . S
O92 In91 2.294 . S
O92 C101 1.240 . S
O93 In91 2.326 . S
O93 C101 1.252 . S
C94 O97 1.252 . S
C94 O98 1.260 . S
C95 O102 1.240 . S
C95 O103 1.252 . S
C96 O99 1.252 . S
C96 O100 1.260 . S
O97 In91 2.266 . S
O97 C94 1.252 . S
O98 In91 2.326 . S
O98 C94 1.260 . S
O99 In91 2.266 . S
O99 C96 1.252 . S
O100 In91 2.326 . S
O100 C96 1.260 . S
C101 O92 1.240 . S
C101 O93 1.252 . S
O102 In91 2.294 . S
O102 C95 1.240 . S
O103 In91 2.326 . S
O103 C95 1.252 . S
In104 O105 2.294 1_655 S
In104 O106 2.326 . S
In104 O110 2.266 1_655 S
In104 O111 2.326 1_556 S
In104 O112 2.266 . S
In104 O113 2.312 1_655 S
In104 O115 2.294 . S
In104 O116 2.326 . S
O105 In104 2.294 1_455 S
O105 C114 1.240 1_455 S
O106 In104 2.326 . S
O106 C114 1.252 . S
C107 O110 1.252 1_654 S
C107 O111 1.260 . S
C108 O115 1.240 . S
C108 O116 1.252 . S
C109 O112 1.252 . S
C109 O113 1.238 1_655 S
O110 In104 2.266 1_455 S
O110 C107 1.252 1_456 S
O111 In104 2.326 1_554 S
O111 C107 1.260 . S
O112 In104 2.266 . S
O112 C109 1.252 . S
O113 In104 2.312 1_455 S
O113 C109 1.238 1_455 S
C114 O105 1.240 1_655 S
C114 O106 1.252 . S
O115 In104 2.294 . S
O115 C108 1.240 . S
O116 In104 2.326 . S
O116 C108 1.252 . S
In117 O118 2.294 . S
In117 O119 2.326 . S
In117 O123 2.266 . S
In117 O124 2.326 . S
In117 O125 2.266 . S
In117 O126 2.326 . S
In117 O128 2.294 . S
In117 O129 2.326 . S
O118 In117 2.294 . S
O118 C127 1.240 . S
O119 In117 2.326 . S
O119 C127 1.252 . S
C120 O123 1.252 . S
C120 O124 1.260 . S
C121 O128 1.240 . S
C121 O129 1.252 . S
C122 O125 1.252 . S
C122 O126 1.260 . S
O123 In117 2.266 . S
O123 C120 1.252 . S
O124 In117 2.326 . S
O124 C120 1.260 . S
O125 In117 2.266 . S
O125 C122 1.252 . S
O126 In117 2.326 . S
O126 C122 1.260 . S
C127 O118 1.240 . S
C127 O119 1.252 . S
O128 In117 2.294 . S
O128 C121 1.240 . S
O129 In117 2.326 . S
O129 C121 1.252 . S
In130 O131 2.294 . S
In130 O132 2.326 . S
In130 O136 2.266 . S
In130 O137 2.326 . S
In130 O138 2.266 . S
In130 O139 2.326 . S
In130 O141 2.294 . S
In130 O142 2.326 . S
O131 In130 2.294 . S
O131 C140 1.240 . S
O132 In130 2.326 . S
O132 C140 1.252 . S
C133 O136 1.252 . S
C133 O137 1.260 . S
C134 O141 1.240 . S
C134 O142 1.252 . S
C135 O138 1.252 . S
C135 O139 1.260 . S
O136 In130 2.266 . S
O136 C133 1.252 . S
O137 In130 2.326 . S
O137 C133 1.260 . S
O138 In130 2.266 . S
O138 C135 1.252 . S
O139 In130 2.326 . S
O139 C135 1.260 . S
C140 O131 1.240 . S
C140 O132 1.252 . S
O141 In130 2.294 . S
O141 C134 1.240 . S
O142 In130 2.326 . S
O142 C134 1.252 . S
In143 O144 2.294 . S
In143 O145 2.326 . S
In143 O149 2.266 . S
In143 O150 2.326 . S
In143 O151 2.266 . S
In143 O152 2.326 . S
In143 O154 2.294 . S
In143 O155 2.326 . S
O144 In143 2.294 . S
O144 C153 1.240 . S
O145 In143 2.326 . S
O145 C153 1.252 . S
C146 O149 1.252 . S
C146 O150 1.260 . S
C147 O154 1.240 . S
C147 O155 1.252 . S
C148 O151 1.252 . S
C148 O152 1.260 . S
O149 In143 2.266 . S
O149 C146 1.252 . S
O150 In143 2.326 . S
O150 C146 1.260 . S
O151 In143 2.266 . S
O151 C148 1.252 . S
O152 In143 2.326 . S
O152 C148 1.260 . S
C153 O144 1.240 . S
C153 O145 1.252 . S
O154 In143 2.294 . S
O154 C147 1.240 . S
O155 In143 2.326 . S
O155 C147 1.252 . S
In156 O157 2.294 . S
In156 O158 2.326 . S
In156 O162 2.266 . S
In156 O163 2.311 1_655 S
In156 O164 2.266 1_655 S
In156 O165 2.326 . S
In156 O167 2.294 1_655 S
In156 O168 2.326 . S
O157 In156 2.294 . S
O157 C166 1.240 . S
O158 In156 2.326 . S
O158 C166 1.252 . S
C159 O162 1.252 . S
C159 O163 1.237 1_655 S
C160 O167 1.240 1_655 S
C160 O168 1.252 . S
C161 O164 1.252 1_655 S
C161 O165 1.260 . S
O162 In156 2.266 . S
O162 C159 1.252 . S
O163 In156 2.311 1_455 S
O163 C159 1.237 1_455 S
O164 In156 2.266 1_455 S
O164 C161 1.252 1_455 S
O165 In156 2.326 . S
O165 C161 1.260 . S
C166 O157 1.240 . S
C166 O158 1.252 . S
O167 In156 2.294 1_455 S
O167 C160 1.240 1_455 S
O168 In156 2.326 . S
O168 C160 1.252 . S
In169 O170 2.294 . S
In169 O171 2.326 . S
In169 O175 2.266 . S
In169 O176 2.326 . S
In169 O177 2.266 . S
In169 O178 2.326 . S
In169 O180 2.294 . S
In169 O181 2.326 . S
O170 In169 2.294 . S
O170 C179 1.240 . S
O171 In169 2.326 . S
O171 C179 1.252 . S
C172 O175 1.252 . S
C172 O176 1.260 . S
C173 O180 1.240 . S
C173 O181 1.252 . S
C174 O177 1.252 . S
C174 O178 1.260 . S
O175 In169 2.266 . S
O175 C172 1.252 . S
O176 In169 2.326 . S
O176 C172 1.260 . S
O177 In169 2.266 . S
O177 C174 1.252 . S
O178 In169 2.326 . S
O178 C174 1.260 . S
C179 O170 1.240 . S
C179 O171 1.252 . S
O180 In169 2.294 . S
O180 C173 1.240 . S
O181 In169 2.326 . S
O181 C173 1.252 . S
In182 O183 2.294 . S
In182 O184 2.326 . S
In182 O188 2.266 . S
In182 O189 2.326 1_554 S
In182 O190 2.266 . S
In182 O191 2.326 . S
In182 O193 2.294 . S
In182 O194 2.326 . S
O183 In182 2.294 . S
O183 C192 1.240 . S
O184 In182 2.326 . S
O184 C192 1.252 . S
C185 O188 1.252 1_556 S
C185 O189 1.260 . S
C186 O193 1.240 . S
C186 O194 1.252 . S
C187 O190 1.252 . S
C187 O191 1.260 . S
O188 In182 2.266 . S
O188 C185 1.252 1_554 S
O189 In182 2.326 1_556 S
O189 C185 1.260 . S
O190 In182 2.266 . S
O190 C187 1.252 . S
O191 In182 2.326 . S
O191 C187 1.260 . S
C192 O183 1.240 . S
C192 O184 1.252 . S
O193 In182 2.294 . S
O193 C186 1.240 . S
O194 In182 2.326 . S
O194 C186 1.252 . S
In195 O196 2.294 . S
In195 O197 2.326 . S
In195 O201 2.266 . S
In195 O202 2.326 . S
In195 O203 2.266 . S
In195 O204 2.326 . S
In195 O206 2.294 . S
In195 O207 2.326 . S
O196 In195 2.294 . S
O196 C205 1.240 . S
O197 In195 2.326 . S
O197 C205 1.252 . S
C198 O201 1.252 . S
C198 O202 1.260 . S
C199 O206 1.240 . S
C199 O207 1.252 . S
C200 O203 1.252 . S
C200 O204 1.260 . S
O201 In195 2.266 . S
O201 C198 1.252 . S
O202 In195 2.326 . S
O202 C198 1.260 . S
O203 In195 2.266 . S
O203 C200 1.252 . S
O204 In195 2.326 . S
O204 C200 1.260 . S
C205 O196 1.240 . S
C205 O197 1.252 . S
O206 In195 2.294 . S
O206 C199 1.240 . S
O207 In195 2.326 . S
O207 C199 1.252 . S
In208 O209 2.294 . S
In208 O210 2.326 . S
In208 O214 2.266 . S
In208 O215 2.326 . S
In208 O216 2.266 . S
In208 O217 2.326 . S
In208 O219 2.294 . S
In208 O220 2.326 . S
O209 In208 2.294 . S
O209 C218 1.240 . S
O210 In208 2.326 . S
O210 C218 1.252 . S
C211 O214 1.252 . S
C211 O215 1.260 . S
C212 O219 1.240 . S
C212 O220 1.252 . S
C213 O216 1.252 . S
C213 O217 1.260 . S
O214 In208 2.266 . S
O214 C211 1.252 . S
O215 In208 2.326 . S
O215 C211 1.260 . S
O216 In208 2.266 . S
O216 C213 1.252 . S
O217 In208 2.326 . S
O217 C213 1.260 . S
C218 O209 1.240 . S
C218 O210 1.252 . S
O219 In208 2.294 . S
O219 C212 1.240 . S
O220 In208 2.326 . S
O220 C212 1.252 . S
In221 O222 2.294 . S
In221 O223 2.326 . S
In221 O227 2.266 . S
In221 O228 2.326 . S
In221 O229 2.266 . S
In221 O230 2.326 . S
In221 O232 2.294 . S
In221 O233 2.326 . S
O222 In221 2.294 . S
O222 C231 1.240 . S
O223 In221 2.326 . S
O223 C231 1.252 . S
C224 O227 1.252 . S
C224 O228 1.260 . S
C225 O232 1.240 . S
C225 O233 1.252 . S
C226 O229 1.252 . S
C226 O230 1.260 . S
O227 In221 2.266 . S
O227 C224 1.252 . S
O228 In221 2.326 . S
O228 C224 1.260 . S
O229 In221 2.266 . S
O229 C226 1.252 . S
O230 In221 2.326 . S
O230 C226 1.260 . S
C231 O222 1.240 . S
C231 O223 1.252 . S
O232 In221 2.294 . S
O232 C225 1.240 . S
O233 In221 2.326 . S
O233 C225 1.252 . S
In234 O235 2.294 1_655 S
In234 O236 2.326 . S
In234 O240 2.266 1_655 S
In234 O241 2.326 1_554 S
In234 O242 2.266 . S
In234 O243 2.312 1_655 S
In234 O245 2.294 . S
In234 O246 2.326 . S
O235 In234 2.294 1_455 S
O235 C244 1.240 1_455 S
O236 In234 2.326 . S
O236 C244 1.252 . S
C237 O240 1.252 1_656 S
C237 O241 1.260 . S
C238 O245 1.240 . S
C238 O246 1.252 . S
C239 O242 1.252 . S
C239 O243 1.238 1_655 S
O240 In234 2.266 1_455 S
O240 C237 1.252 1_454 S
O241 In234 2.326 1_556 S
O241 C237 1.260 . S
O242 In234 2.266 . S
O242 C239 1.252 . S
O243 In234 2.312 1_455 S
O243 C239 1.238 1_455 S
C244 O235 1.240 1_655 S
C244 O236 1.252 . S
O245 In234 2.294 . S
O245 C238 1.240 . S
O246 In234 2.326 . S
O246 C238 1.252 . S
In247 O248 2.294 . S
In247 O249 2.326 . S
In247 O253 2.266 . S
In247 O254 2.326 . S
In247 O255 2.266 . S
In247 O256 2.326 . S
In247 O258 2.294 . S
In247 O259 2.326 . S
O248 In247 2.294 . S
O248 C257 1.240 . S
O249 In247 2.326 . S
O249 C257 1.252 . S
C250 O253 1.252 . S
C250 O254 1.260 . S
C251 O258 1.240 . S
C251 O259 1.252 . S
C252 O255 1.252 . S
C252 O256 1.260 . S
O253 In247 2.266 . S
O253 C250 1.252 . S
O254 In247 2.326 . S
O254 C250 1.260 . S
O255 In247 2.266 . S
O255 C252 1.252 . S
O256 In247 2.326 . S
O256 C252 1.260 . S
C257 O248 1.240 . S
C257 O249 1.252 . S
O258 In247 2.294 . S
O258 C251 1.240 . S
O259 In247 2.326 . S
O259 C251 1.252 . S
In260 O261 2.294 . S
In260 O262 2.326 . S
In260 O266 2.266 . S
In260 O267 2.326 . S
In260 O268 2.266 . S
In260 O269 2.326 1_556 S
In260 O271 2.294 . S
In260 O272 2.326 . S
O261 In260 2.294 . S
O261 C270 1.240 . S
O262 In260 2.326 . S
O262 C270 1.252 . S
C263 O266 1.252 . S
C263 O267 1.260 . S
C264 O271 1.240 . S
C264 O272 1.252 . S
C265 O268 1.252 1_554 S
C265 O269 1.260 . S
O266 In260 2.266 . S
O266 C263 1.252 . S
O267 In260 2.326 . S
O267 C263 1.260 . S
O268 In260 2.266 . S
O268 C265 1.252 1_556 S
O269 In260 2.326 1_554 S
O269 C265 1.260 . S
C270 O261 1.240 . S
C270 O262 1.252 . S
O271 In260 2.294 . S
O271 C264 1.240 . S
O272 In260 2.326 . S
O272 C264 1.252 . S
In273 O274 2.294 . S
In273 O275 2.326 . S
In273 O279 2.266 . S
In273 O280 2.326 . S
In273 O281 2.266 . S
In273 O282 2.326 . S
In273 O284 2.294 . S
In273 O285 2.326 . S
O274 In273 2.294 . S
O274 C283 1.240 . S
O275 In273 2.326 . S
O275 C283 1.252 . S
C276 O279 1.252 . S
C276 O280 1.260 . S
C277 O284 1.240 . S
C277 O285 1.252 . S
C278 O281 1.252 . S
C278 O282 1.260 . S
O279 In273 2.266 . S
O279 C276 1.252 . S
O280 In273 2.326 . S
O280 C276 1.260 . S
O281 In273 2.266 . S
O281 C278 1.252 . S
O282 In273 2.326 . S
O282 C278 1.260 . S
C283 O274 1.240 . S
C283 O275 1.252 . S
O284 In273 2.294 . S
O284 C277 1.240 . S
O285 In273 2.326 . S
O285 C277 1.252 . S
In286 O287 2.294 . S
In286 O288 2.326 . S
In286 O292 2.266 . S
In286 O293 2.311 1_655 S
In286 O294 2.266 1_655 S
In286 O295 2.326 . S
In286 O297 2.294 1_655 S
In286 O298 2.326 . S
O287 In286 2.294 . S
O287 C296 1.240 . S
O288 In286 2.326 . S
O288 C296 1.252 . S
C289 O292 1.252 . S
C289 O293 1.237 1_655 S
C290 O297 1.240 1_655 S
C290 O298 1.252 . S
C291 O294 1.252 1_655 S
C291 O295 1.260 . S
O292 In286 2.266 . S
O292 C289 1.252 . S
O293 In286 2.311 1_455 S
O293 C289 1.237 1_455 S
O294 In286 2.266 1_455 S
O294 C291 1.252 1_455 S
O295 In286 2.326 . S
O295 C291 1.260 . S
C296 O287 1.240 . S
C296 O288 1.252 . S
O297 In286 2.294 1_455 S
O297 C290 1.240 1_455 S
O298 In286 2.326 . S
O298 C290 1.252 . S
In299 O300 2.294 . S
In299 O301 2.326 . S
In299 O305 2.266 . S
In299 O306 2.326 . S
In299 O307 2.266 . S
In299 O308 2.326 . S
In299 O310 2.294 . S
In299 O311 2.326 . S
O300 In299 2.294 . S
O300 C309 1.240 . S
O301 In299 2.326 . S
O301 C309 1.252 . S
C302 O305 1.252 . S
C302 O306 1.260 . S
C303 O310 1.240 . S
C303 O311 1.252 . S
C304 O307 1.252 . S
C304 O308 1.260 . S
O305 In299 2.266 . S
O305 C302 1.252 . S
O306 In299 2.326 . S
O306 C302 1.260 . S
O307 In299 2.266 . S
O307 C304 1.252 . S
O308 In299 2.326 . S
O308 C304 1.260 . S
C309 O300 1.240 . S
C309 O301 1.252 . S
O310 In299 2.294 . S
O310 C303 1.240 . S
O311 In299 2.326 . S
O311 C303 1.252 . S
In312 O313 2.294 . S
In312 O314 2.326 . S
In312 O318 2.266 . S
In312 O319 2.326 . S
In312 O320 2.266 . S
In312 O321 2.326 . S
In312 O323 2.294 . S
In312 O324 2.326 . S
O313 In312 2.294 . S
O313 C322 1.240 . S
O314 In312 2.326 . S
O314 C322 1.252 . S
C315 O318 1.252 . S
C315 O319 1.260 . S
C316 O323 1.240 . S
C316 O324 1.252 . S
C317 O320 1.252 . S
C317 O321 1.260 . S
O318 In312 2.266 . S
O318 C315 1.252 . S
O319 In312 2.326 . S
O319 C315 1.260 . S
O320 In312 2.266 . S
O320 C317 1.252 . S
O321 In312 2.326 . S
O321 C317 1.260 . S
C322 O313 1.240 . S
C322 O314 1.252 . S
O323 In312 2.294 . S
O323 C316 1.240 . S
O324 In312 2.326 . S
O324 C316 1.252 . S
In325 O326 2.294 . S
In325 O327 2.326 . S
In325 O331 2.266 . S
In325 O332 2.326 . S
In325 O333 2.266 . S
In325 O334 2.326 . S
In325 O336 2.294 . S
In325 O337 2.326 . S
O326 In325 2.294 . S
O326 C335 1.240 . S
O327 In325 2.326 . S
O327 C335 1.252 . S
C328 O331 1.252 . S
C328 O332 1.260 . S
C329 O336 1.240 . S
C329 O337 1.252 . S
C330 O333 1.252 . S
C330 O334 1.260 . S
O331 In325 2.266 . S
O331 C328 1.252 . S
O332 In325 2.326 . S
O332 C328 1.260 . S
O333 In325 2.266 . S
O333 C330 1.252 . S
O334 In325 2.326 . S
O334 C330 1.260 . S
C335 O326 1.240 . S
C335 O327 1.252 . S
O336 In325 2.294 . S
O336 C329 1.240 . S
O337 In325 2.326 . S
O337 C329 1.252 . S
In338 O339 2.294 . S
In338 O340 2.326 . S
In338 O344 2.266 . S
In338 O345 2.312 1_455 S
In338 O346 2.266 1_455 S
In338 O347 2.326 1_556 S
In338 O349 2.294 1_455 S
In338 O350 2.326 . S
O339 In338 2.294 . S
O339 C348 1.240 . S
O340 In338 2.326 . S
O340 C348 1.252 . S
C341 O344 1.252 . S
C341 O345 1.238 1_455 S
C342 O349 1.240 1_455 S
C342 O350 1.252 . S
C343 O346 1.252 1_454 S
C343 O347 1.260 . S
O344 In338 2.266 . S
O344 C341 1.252 . S
O345 In338 2.312 1_655 S
O345 C341 1.238 1_655 S
O346 In338 2.266 1_655 S
O346 C343 1.252 1_656 S
O347 In338 2.326 1_554 S
O347 C343 1.260 . S
C348 O339 1.240 . S
C348 O340 1.252 . S
O349 In338 2.294 1_655 S
O349 C342 1.240 1_655 S
O350 In338 2.326 . S
O350 C342 1.252 . S
In351 O352 2.294 . S
In351 O353 2.326 . S
In351 O357 2.266 . S
In351 O358 2.326 . S
In351 O359 2.266 . S
In351 O360 2.326 . S
In351 O362 2.294 . S
In351 O363 2.326 . S
O352 In351 2.294 . S
O352 C361 1.240 . S
O353 In351 2.326 . S
O353 C361 1.252 . S
C354 O357 1.252 . S
C354 O358 1.260 . S
C355 O362 1.240 . S
C355 O363 1.252 . S
C356 O359 1.252 . S
C356 O360 1.260 . S
O357 In351 2.266 . S
O357 C354 1.252 . S
O358 In351 2.326 . S
O358 C354 1.260 . S
O359 In351 2.266 . S
O359 C356 1.252 . S
O360 In351 2.326 . S
O360 C356 1.260 . S
C361 O352 1.240 . S
C361 O353 1.252 . S
O362 In351 2.294 . S
O362 C355 1.240 . S
O363 In351 2.326 . S
O363 C355 1.252 . S
In364 O365 2.294 . S
In364 O366 2.326 . S
In364 O370 2.266 . S
In364 O371 2.326 . S
In364 O372 2.266 . S
In364 O373 2.326 1_554 S
In364 O375 2.294 . S
In364 O376 2.326 . S
O365 In364 2.294 . S
O365 C374 1.240 . S
O366 In364 2.326 . S
O366 C374 1.252 . S
C367 O370 1.252 . S
C367 O371 1.260 . S
C368 O375 1.240 . S
C368 O376 1.252 . S
C369 O372 1.252 1_556 S
C369 O373 1.260 . S
O370 In364 2.266 . S
O370 C367 1.252 . S
O371 In364 2.326 . S
O371 C367 1.260 . S
O372 In364 2.266 . S
O372 C369 1.252 1_554 S
O373 In364 2.326 1_556 S
O373 C369 1.260 . S
C374 O365 1.240 . S
C374 O366 1.252 . S
O375 In364 2.294 . S
O375 C368 1.240 . S
O376 In364 2.326 . S
O376 C368 1.252 . S
In377 O378 2.294 . S
In377 O379 2.326 . S
In377 O383 2.266 . S
In377 O384 2.326 . S
In377 O385 2.266 . S
In377 O386 2.326 . S
In377 O388 2.294 . S
In377 O389 2.326 . S
O378 In377 2.294 . S
O378 C387 1.240 . S
O379 In377 2.326 . S
O379 C387 1.252 . S
C380 O383 1.252 . S
C380 O384 1.260 . S
C381 O388 1.240 . S
C381 O389 1.252 . S
C382 O385 1.252 . S
C382 O386 1.260 . S
O383 In377 2.266 . S
O383 C380 1.252 . S
O384 In377 2.326 . S
O384 C380 1.260 . S
O385 In377 2.266 . S
O385 C382 1.252 . S
O386 In377 2.326 . S
O386 C382 1.260 . S
C387 O378 1.240 . S
C387 O379 1.252 . S
O388 In377 2.294 . S
O388 C381 1.240 . S
O389 In377 2.326 . S
O389 C381 1.252 . S
In390 O391 2.294 1_455 S
In390 O392 2.326 . S
In390 O396 2.266 1_455 S
In390 O397 2.326 . S
In390 O398 2.266 . S
In390 O399 2.311 1_455 S
In390 O401 2.294 . S
In390 O402 2.326 . S
O391 In390 2.294 1_655 S
O391 C400 1.240 1_655 S
O392 In390 2.326 . S
O392 C400 1.252 . S
C393 O396 1.252 1_455 S
C393 O397 1.260 . S
C394 O401 1.240 . S
C394 O402 1.252 . S
C395 O398 1.252 . S
C395 O399 1.237 1_455 S
O396 In390 2.266 1_655 S
O396 C393 1.252 1_655 S
O397 In390 2.326 . S
O397 C393 1.260 . S
O398 In390 2.266 . S
O398 C395 1.252 . S
O399 In390 2.311 1_655 S
O399 C395 1.237 1_655 S
C400 O391 1.240 1_455 S
C400 O392 1.252 . S
O401 In390 2.294 . S
O401 C394 1.240 . S
O402 In390 2.326 . S
O402 C394 1.252 . S
In403 O404 2.294 . S
In403 O405 2.326 . S
In403 O409 2.266 . S
In403 O410 2.326 . S
In403 O411 2.266 . S
In403 O412 2.326 . S
In403 O414 2.294 . S
In403 O415 2.326 . S
O404 In403 2.294 . S
O404 C413 1.240 . S
O405 In403 2.326 . S
O405 C413 1.252 . S
C406 O409 1.252 . S
C406 O410 1.260 . S
C407 O414 1.240 . S
C407 O415 1.252 . S
C408 O411 1.252 . S
C408 O412 1.260 . S
O409 In403 2.266 . S
O409 C406 1.252 . S
O410 In403 2.326 . S
O410 C406 1.260 . S
O411 In403 2.266 . S
O411 C408 1.252 . S
O412 In403 2.326 . S
O412 C408 1.260 . S
C413 O404 1.240 . S
C413 O405 1.252 . S
O414 In403 2.294 . S
O414 C407 1.240 . S
O415 In403 2.326 . S
O415 C407 1.252 . S
H416 C422 0.930 . S
H417 C426 0.930 . S
H418 C431 0.929 . S
H419 C429 0.929 . S
H420 C424 0.929 . S
H421 C430 0.929 . S
C422 H416 0.930 . S
C422 C423 1.386 . S
C422 C430 1.378 . S
C423 C422 1.386 . S
C423 C431 1.414 1_655 S
C424 H420 0.929 . S
C424 C426 1.378 . S
C424 C428 1.371 . S
C425 C428 1.461 1_655 S
C425 C430 1.352 . S
C425 N433 1.425 1_655 S
C426 H417 0.930 . S
C426 C424 1.378 . S
C426 C427 1.367 . S
C427 C426 1.367 . S
C427 C429 1.433 1_455 S
C428 C424 1.371 . S
C428 C425 1.461 1_455 S
C428 N432 1.407 1_455 S
C429 H419 0.929 . S
C429 C427 1.433 1_655 S
C429 N432 1.384 . S
C430 H421 0.929 . S
C430 C422 1.378 . S
C430 C425 1.352 . S
C431 H418 0.929 . S
C431 C423 1.414 1_455 S
C431 N433 1.384 . S
N432 C428 1.407 1_655 S
N432 C429 1.384 . S
N433 C425 1.425 1_455 S
N433 C431 1.384 . S
H434 C440 0.930 . S
H435 C444 0.930 . S
H436 C449 0.929 . S
H437 C447 0.929 . S
H438 C442 0.929 . S
H439 C448 0.929 . S
C440 H434 0.930 . S
C440 C441 1.367 . S
C440 C448 1.378 1_556 S
C441 C440 1.367 . S
C441 C449 1.433 . S
C442 H438 0.929 . S
C442 C444 1.378 . S
C442 C446 1.350 . S
C443 C446 1.463 . S
C443 C448 1.350 . S
C443 N451 1.427 . S
C444 H435 0.930 . S
C444 C442 1.378 . S
C444 C445 1.367 . S
C445 C444 1.367 . S
C445 C447 1.433 . S
C446 C442 1.350 . S
C446 C443 1.463 . S
C446 N450 1.427 . S
C447 H437 0.929 . S
C447 C445 1.433 . S
C447 N450 1.384 . S
C448 H439 0.929 . S
C448 C440 1.378 1_554 S
C448 C443 1.350 . S
C449 H436 0.929 . S
C449 C441 1.433 . S
C449 N451 1.384 1_556 S
N450 C446 1.427 . S
N450 C447 1.384 . S
N451 C443 1.427 . S
N451 C449 1.384 1_554 S
H452 C458 0.930 . S
H453 C462 0.930 . S
H454 C467 0.929 . S
H455 C465 0.929 . S
H456 C460 0.929 . S
H457 C466 0.929 . S
C458 H452 0.930 . S
C458 C459 1.367 . S
C458 C466 1.378 . S
C459 C458 1.367 . S
C459 C467 1.433 . S
C460 H456 0.929 . S
C460 C462 1.378 . S
C460 C464 1.350 . S
C461 C464 1.463 . S
C461 C466 1.350 . S
C461 N469 1.427 . S
C462 H453 0.930 . S
C462 C460 1.378 . S
C462 C463 1.367 . S
C463 C462 1.367 . S
C463 C465 1.433 . S
C464 C460 1.350 . S
C464 C461 1.463 . S
C464 N468 1.427 . S
C465 H455 0.929 . S
C465 C463 1.433 . S
C465 N468 1.384 . S
C466 H457 0.929 . S
C466 C458 1.378 . S
C466 C461 1.350 . S
C467 H454 0.929 . S
C467 C459 1.433 . S
C467 N469 1.384 . S
N468 C464 1.427 . S
N468 C465 1.384 . S
N469 C461 1.427 . S
N469 C467 1.384 . S
H470 C476 0.930 . S
H471 C480 0.930 . S
H472 C485 0.929 . S
H473 C483 0.929 . S
H474 C478 0.929 . S
H475 C484 0.929 . S
C476 H470 0.930 . S
C476 C477 1.367 . S
C476 C484 1.378 . S
C477 C476 1.367 . S
C477 C485 1.433 . S
C478 H474 0.929 . S
C478 C480 1.378 . S
C478 C482 1.350 . S
C479 C482 1.463 . S
C479 C484 1.350 . S
C479 N487 1.427 . S
C480 H471 0.930 . S
C480 C478 1.378 . S
C480 C481 1.367 . S
C481 C480 1.367 . S
C481 C483 1.433 . S
C482 C478 1.350 . S
C482 C479 1.463 . S
C482 N486 1.427 . S
C483 H473 0.929 . S
C483 C481 1.433 . S
C483 N486 1.384 . S
C484 H475 0.929 . S
C484 C476 1.378 . S
C484 C479 1.350 . S
C485 H472 0.929 . S
C485 C477 1.433 . S
C485 N487 1.384 . S
N486 C482 1.427 . S
N486 C483 1.384 . S
N487 C479 1.427 . S
N487 C485 1.384 . S
H488 C494 0.930 . S
H489 C498 0.930 . S
H490 C503 0.929 . S
H491 C501 0.929 . S
H492 C496 0.929 . S
H493 C502 0.929 . S
C494 H488 0.930 . S
C494 C495 1.382 . S
C494 C502 1.378 . S
C495 C494 1.382 . S
C495 C503 1.418 1_655 S
C496 H492 0.929 . S
C496 C498 1.378 . S
C496 C500 1.366 . S
C497 C500 1.461 1_655 S
C497 C502 1.351 . S
C497 N505 1.426 1_655 S
C498 H489 0.930 . S
C498 C496 1.378 . S
C498 C499 1.367 . S
C499 C498 1.367 . S
C499 C501 1.433 1_455 S
C500 C496 1.366 . S
C500 C497 1.461 1_455 S
C500 N504 1.413 1_455 S
C501 H491 0.929 . S
C501 C499 1.433 1_655 S
C501 N504 1.384 . S
C502 H493 0.929 . S
C502 C494 1.378 . S
C502 C497 1.351 . S
C503 H490 0.929 . S
C503 C495 1.418 1_455 S
C503 N505 1.384 . S
N504 C500 1.413 1_655 S
N504 C501 1.384 . S
N505 C497 1.426 1_455 S
N505 C503 1.384 . S
H506 C512 0.930 . S
H507 C516 0.930 . S
H508 C521 0.929 . S
H509 C519 0.929 . S
H510 C514 0.929 . S
H511 C520 0.929 . S
C512 H506 0.930 . S
C512 C513 1.367 . S
C512 C520 1.378 . S
C513 C512 1.367 . S
C513 C521 1.433 . S
C514 H510 0.929 . S
C514 C516 1.378 1_556 S
C514 C518 1.350 . S
C515 C518 1.463 . S
C515 C520 1.350 . S
C515 N523 1.427 . S
C516 H507 0.930 . S
C516 C514 1.378 1_554 S
C516 C517 1.367 . S
C517 C516 1.367 . S
C517 C519 1.433 . S
C518 C514 1.350 . S
C518 C515 1.463 . S
C518 N522 1.427 . S
C519 H509 0.929 . S
C519 C517 1.433 . S
C519 N522 1.384 1_554 S
C520 H511 0.929 . S
C520 C512 1.378 . S
C520 C515 1.350 . S
C521 H508 0.929 . S
C521 C513 1.433 . S
C521 N523 1.384 . S
N522 C518 1.427 . S
N522 C519 1.384 1_556 S
N523 C515 1.427 . S
N523 C521 1.384 . S
H524 C530 0.930 . S
H525 C534 0.930 . S
H526 C539 0.929 . S
H527 C537 0.929 . S
H528 C532 0.929 . S
H529 C538 0.929 . S
C530 H524 0.930 . S
C530 C531 1.367 . S
C530 C538 1.378 . S
C531 C530 1.367 . S
C531 C539 1.433 . S
C532 H528 0.929 . S
C532 C534 1.378 . S
C532 C536 1.350 . S
C533 C536 1.463 . S
C533 C538 1.350 . S
C533 N541 1.427 . S
C534 H525 0.930 . S
C534 C532 1.378 . S
C534 C535 1.367 . S
C535 C534 1.367 . S
C535 C537 1.433 . S
C536 C532 1.350 . S
C536 C533 1.463 . S
C536 N540 1.427 . S
C537 H527 0.929 . S
C537 C535 1.433 . S
C537 N540 1.384 . S
C538 H529 0.929 . S
C538 C530 1.378 . S
C538 C533 1.350 . S
C539 H526 0.929 . S
C539 C531 1.433 . S
C539 N541 1.384 . S
N540 C536 1.427 . S
N540 C537 1.384 . S
N541 C533 1.427 . S
N541 C539 1.384 . S
H542 C548 0.930 . S
H543 C552 0.930 . S
H544 C557 0.929 . S
H545 C555 0.929 . S
H546 C550 0.929 . S
H547 C556 0.929 . S
C548 H542 0.930 . S
C548 C549 1.367 . S
C548 C556 1.378 . S
C549 C548 1.367 . S
C549 C557 1.433 . S
C550 H546 0.929 . S
C550 C552 1.378 . S
C550 C554 1.350 . S
C551 C554 1.463 . S
C551 C556 1.350 . S
C551 N559 1.427 . S
C552 H543 0.930 . S
C552 C550 1.378 . S
C552 C553 1.367 . S
C553 C552 1.367 . S
C553 C555 1.433 . S
C554 C550 1.350 . S
C554 C551 1.463 . S
C554 N558 1.427 . S
C555 H545 0.929 . S
C555 C553 1.433 . S
C555 N558 1.384 . S
C556 H547 0.929 . S
C556 C548 1.378 . S
C556 C551 1.350 . S
C557 H544 0.929 . S
C557 C549 1.433 . S
C557 N559 1.384 . S
N558 C554 1.427 . S
N558 C555 1.384 . S
N559 C551 1.427 . S
N559 C557 1.384 . S
H560 C566 0.930 . S
H561 C570 0.930 . S
H562 C575 0.929 . S
H563 C573 0.929 . S
H564 C568 0.929 . S
H565 C574 0.929 . S
C566 H560 0.930 . S
C566 C567 1.389 . S
C566 C574 1.378 . S
C567 C566 1.389 . S
C567 C575 1.411 1_455 S
C568 H564 0.929 . S
C568 C570 1.378 . S
C568 C572 1.375 . S
C569 C572 1.461 1_455 S
C569 C574 1.354 . S
C569 N577 1.423 1_455 S
C570 H561 0.930 . S
C570 C568 1.378 . S
C570 C571 1.367 . S
C571 C570 1.367 . S
C571 C573 1.433 1_655 S
C572 C568 1.375 . S
C572 C569 1.461 1_655 S
C572 N576 1.404 1_655 S
C573 H563 0.929 . S
C573 C571 1.433 1_455 S
C573 N576 1.384 . S
C574 H565 0.929 . S
C574 C566 1.378 . S
C574 C569 1.354 . S
C575 H562 0.929 . S
C575 C567 1.411 1_655 S
C575 N577 1.384 . S
N576 C572 1.404 1_455 S
N576 C573 1.384 . S
N577 C569 1.423 1_655 S
N577 C575 1.384 . S
H578 C584 0.930 . S
H579 C588 0.930 . S
H580 C593 0.929 . S
H581 C591 0.929 . S
H582 C586 0.929 . S
H583 C592 0.929 . S
C584 H578 0.930 . S
C584 C585 1.367 . S
C584 C592 1.378 1_554 S
C585 C584 1.367 . S
C585 C593 1.433 . S
C586 H582 0.929 . S
C586 C588 1.378 . S
C586 C590 1.350 . S
C587 C590 1.463 . S
C587 C592 1.350 . S
C587 N595 1.427 . S
C588 H579 0.930 . S
C588 C586 1.378 . S
C588 C589 1.367 . S
C589 C588 1.367 . S
C589 C591 1.433 . S
C590 C586 1.350 . S
C590 C587 1.463 . S
C590 N594 1.427 . S
C591 H581 0.929 . S
C591 C589 1.433 . S
C591 N594 1.384 . S
C592 H583 0.929 . S
C592 C584 1.378 1_556 S
C592 C587 1.350 . S
C593 H580 0.929 . S
C593 C585 1.433 . S
C593 N595 1.384 1_554 S
N594 C590 1.427 . S
N594 C591 1.384 . S
N595 C587 1.427 . S
N595 C593 1.384 1_556 S
H596 C602 0.930 . S
H597 C606 0.930 . S
H598 C611 0.929 . S
H599 C609 0.929 . S
H600 C604 0.929 . S
H601 C610 0.929 . S
C602 H596 0.930 . S
C602 C603 1.367 . S
C602 C610 1.378 . S
C603 C602 1.367 . S
C603 C611 1.433 . S
C604 H600 0.929 . S
C604 C606 1.378 . S
C604 C608 1.350 . S
C605 C608 1.463 . S
C605 C610 1.350 . S
C605 N613 1.427 . S
C606 H597 0.930 . S
C606 C604 1.378 . S
C606 C607 1.367 . S
C607 C606 1.367 . S
C607 C609 1.433 . S
C608 C604 1.350 . S
C608 C605 1.463 . S
C608 N612 1.427 . S
C609 H599 0.929 . S
C609 C607 1.433 . S
C609 N612 1.384 . S
C610 H601 0.929 . S
C610 C602 1.378 . S
C610 C605 1.350 . S
C611 H598 0.929 . S
C611 C603 1.433 . S
C611 N613 1.384 . S
N612 C608 1.427 . S
N612 C609 1.384 . S
N613 C605 1.427 . S
N613 C611 1.384 . S
H614 C620 0.930 . S
H615 C624 0.930 . S
H616 C629 0.929 . S
H617 C627 0.929 . S
H618 C622 0.929 . S
H619 C628 0.929 . S
C620 H614 0.930 . S
C620 C621 1.367 . S
C620 C628 1.378 . S
C621 C620 1.367 . S
C621 C629 1.433 . S
C622 H618 0.929 . S
C622 C624 1.378 . S
C622 C626 1.350 . S
C623 C626 1.463 . S
C623 C628 1.350 . S
C623 N631 1.427 . S
C624 H615 0.930 . S
C624 C622 1.378 . S
C624 C625 1.367 . S
C625 C624 1.367 . S
C625 C627 1.433 . S
C626 C622 1.350 . S
C626 C623 1.463 . S
C626 N630 1.427 . S
C627 H617 0.929 . S
C627 C625 1.433 . S
C627 N630 1.384 . S
C628 H619 0.929 . S
C628 C620 1.378 . S
C628 C623 1.350 . S
C629 H616 0.929 . S
C629 C621 1.433 . S
C629 N631 1.384 . S
N630 C626 1.427 . S
N630 C627 1.384 . S
N631 C623 1.427 . S
N631 C629 1.384 . S
H632 C638 0.930 . S
H633 C642 0.930 . S
H634 C647 0.929 . S
H635 C645 0.929 . S
H636 C640 0.929 . S
H637 C646 0.929 . S
C638 H632 0.930 . S
C638 C639 1.348 1_455 S
C638 C646 1.378 . S
C639 C638 1.348 1_655 S
C639 C647 1.453 . S
C640 H636 0.929 . S
C640 C642 1.378 . S
C640 C644 1.355 . S
C641 C644 1.462 . S
C641 C646 1.348 1_655 S
C641 N649 1.429 . S
C642 H633 0.930 . S
C642 C640 1.378 . S
C642 C643 1.360 1_655 S
C643 C642 1.360 1_455 S
C643 C645 1.440 . S
C644 C640 1.355 . S
C644 C641 1.462 . S
C644 N648 1.422 1_655 S
C645 H635 0.929 . S
C645 C643 1.440 . S
C645 N648 1.384 . S
C646 H637 0.929 . S
C646 C638 1.378 . S
C646 C641 1.348 1_455 S
C647 H634 0.929 . S
C647 C639 1.453 . S
C647 N649 1.384 . S
N648 C644 1.422 1_455 S
N648 C645 1.384 . S
N649 C641 1.429 . S
N649 C647 1.384 . S
H650 C656 0.930 . S
H651 C660 0.930 . S
H652 C665 0.929 . S
H653 C663 0.929 . S
H654 C658 0.929 . S
H655 C664 0.929 . S
C656 H650 0.930 . S
C656 C657 1.367 . S
C656 C664 1.378 . S
C657 C656 1.367 . S
C657 C665 1.433 . S
C658 H654 0.929 . S
C658 C660 1.378 1_554 S
C658 C662 1.350 . S
C659 C662 1.463 . S
C659 C664 1.350 . S
C659 N667 1.427 . S
C660 H651 0.930 . S
C660 C658 1.378 1_556 S
C660 C661 1.367 . S
C661 C660 1.367 . S
C661 C663 1.433 . S
C662 C658 1.350 . S
C662 C659 1.463 . S
C662 N666 1.427 . S
C663 H653 0.929 . S
C663 C661 1.433 . S
C663 N666 1.384 1_556 S
C664 H655 0.929 . S
C664 C656 1.378 . S
C664 C659 1.350 . S
C665 H652 0.929 . S
C665 C657 1.433 . S
C665 N667 1.384 . S
N666 C662 1.427 . S
N666 C663 1.384 1_554 S
N667 C659 1.427 . S
N667 C665 1.384 . S
H668 C674 0.930 . S
H669 C678 0.930 . S
H670 C683 0.929 . S
H671 C681 0.929 . S
H672 C676 0.929 . S
H673 C682 0.929 . S
C674 H668 0.930 . S
C674 C675 1.367 . S
C674 C682 1.378 . S
C675 C674 1.367 . S
C675 C683 1.433 . S
C676 H672 0.929 . S
C676 C678 1.378 . S
C676 C680 1.350 . S
C677 C680 1.463 . S
C677 C682 1.350 . S
C677 N685 1.427 . S
C678 H669 0.930 . S
C678 C676 1.378 . S
C678 C679 1.367 . S
C679 C678 1.367 . S
C679 C681 1.433 . S
C680 C676 1.350 . S
C680 C677 1.463 . S
C680 N684 1.427 . S
C681 H671 0.929 . S
C681 C679 1.433 . S
C681 N684 1.384 . S
C682 H673 0.929 . S
C682 C674 1.378 . S
C682 C677 1.350 . S
C683 H670 0.929 . S
C683 C675 1.433 . S
C683 N685 1.384 . S
N684 C680 1.427 . S
N684 C681 1.384 . S
N685 C677 1.427 . S
N685 C683 1.384 . S
H686 C692 0.930 . S
H687 C696 0.930 . S
H688 C701 0.929 . S
H689 C699 0.929 . S
H690 C694 0.929 . S
H691 C700 0.929 . S
C692 H686 0.930 . S
C692 C693 1.367 . S
C692 C700 1.378 . S
C693 C692 1.367 . S
C693 C701 1.433 . S
C694 H690 0.929 . S
C694 C696 1.378 . S
C694 C698 1.350 . S
C695 C698 1.463 . S
C695 C700 1.350 . S
C695 N703 1.427 . S
C696 H687 0.930 . S
C696 C694 1.378 . S
C696 C697 1.367 . S
C697 C696 1.367 . S
C697 C699 1.433 . S
C698 C694 1.350 . S
C698 C695 1.463 . S
C698 N702 1.427 . S
C699 H689 0.929 . S
C699 C697 1.433 . S
C699 N702 1.384 . S
C700 H691 0.929 . S
C700 C692 1.378 . S
C700 C695 1.350 . S
C701 H688 0.929 . S
C701 C693 1.433 . S
C701 N703 1.384 . S
N702 C698 1.427 . S
N702 C699 1.384 . S
N703 C695 1.427 . S
N703 C701 1.384 . S
H704 C710 0.930 . S
H705 C714 0.930 . S
H706 C719 0.929 . S
H707 C717 0.929 . S
H708 C712 0.929 . S
H709 C718 0.929 . S
C710 H704 0.930 . S
C710 C711 1.367 . S
C710 C718 1.378 . S
C711 C710 1.367 . S
C711 C719 1.433 . S
C712 H708 0.929 . S
C712 C714 1.378 . S
C712 C716 1.350 . S
C713 C716 1.463 . S
C713 C718 1.350 . S
C713 N721 1.427 . S
C714 H705 0.930 . S
C714 C712 1.378 . S
C714 C715 1.367 . S
C715 C714 1.367 . S
C715 C717 1.433 . S
C716 C712 1.350 . S
C716 C713 1.463 . S
C716 N720 1.427 . S
C717 H707 0.929 . S
C717 C715 1.433 . S
C717 N720 1.384 . S
C718 H709 0.929 . S
C718 C710 1.378 . S
C718 C713 1.350 . S
C719 H706 0.929 . S
C719 C711 1.433 . S
C719 N721 1.384 . S
N720 C716 1.427 . S
N720 C717 1.384 . S
N721 C713 1.427 . S
N721 C719 1.384 . S
H722 C728 0.930 . S
H723 C732 0.930 . S
H724 C737 0.929 . S
H725 C735 0.929 . S
H726 C730 0.929 . S
H727 C736 0.929 . S
C728 H722 0.930 . S
C728 C729 1.367 . S
C728 C736 1.378 . S
C729 C728 1.367 . S
C729 C737 1.433 . S
C730 H726 0.929 . S
C730 C732 1.378 . S
C730 C734 1.350 . S
C731 C734 1.463 . S
C731 C736 1.350 . S
C731 N739 1.427 . S
C732 H723 0.930 . S
C732 C730 1.378 . S
C732 C733 1.367 . S
C733 C732 1.367 . S
C733 C735 1.433 . S
C734 C730 1.350 . S
C734 C731 1.463 . S
C734 N738 1.427 . S
C735 H725 0.929 . S
C735 C733 1.433 . S
C735 N738 1.384 . S
C736 H727 0.929 . S
C736 C728 1.378 . S
C736 C731 1.350 . S
C737 H724 0.929 . S
C737 C729 1.433 . S
C737 N739 1.384 . S
N738 C734 1.427 . S
N738 C735 1.384 . S
N739 C731 1.427 . S
N739 C737 1.384 . S
H740 C746 0.930 . S
H741 C750 0.930 . S
H742 C755 0.929 . S
H743 C753 0.929 . S
H744 C748 0.929 . S
H745 C754 0.929 . S
C746 H740 0.930 . S
C746 C747 1.362 1_655 S
C746 C754 1.378 . S
C747 C746 1.362 1_455 S
C747 C755 1.438 . S
C748 H744 0.929 . S
C748 C750 1.378 . S
C748 C752 1.354 1_455 S
C749 C752 1.462 . S
C749 C754 1.370 . S
C749 N757 1.407 1_655 S
C750 H741 0.930 . S
C750 C748 1.378 . S
C750 C751 1.337 1_455 S
C751 C750 1.337 1_655 S
C751 C753 1.464 . S
C752 C748 1.354 1_655 S
C752 C749 1.462 . S
C752 N756 1.423 . S
C753 H743 0.929 . S
C753 C751 1.464 . S
C753 N756 1.384 . S
C754 H745 0.929 . S
C754 C746 1.378 . S
C754 C749 1.370 . S
C755 H742 0.929 . S
C755 C747 1.438 . S
C755 N757 1.384 . S
N756 C752 1.423 . S
N756 C753 1.384 . S
N757 C749 1.407 1_455 S
N757 C755 1.384 . S
H758 C764 0.930 . S
H759 C768 0.930 . S
H760 C773 0.929 . S
H761 C771 0.929 . S
H762 C766 0.929 . S
H763 C772 0.929 . S
C764 H758 0.930 . S
C764 C765 1.367 . S
C764 C772 1.378 . S
C765 C764 1.367 . S
C765 C773 1.433 . S
C766 H762 0.929 . S
C766 C768 1.378 1_554 S
C766 C770 1.350 . S
C767 C770 1.463 . S
C767 C772 1.350 . S
C767 N775 1.427 . S
C768 H759 0.930 . S
C768 C766 1.378 1_556 S
C768 C769 1.367 . S
C769 C768 1.367 . S
C769 C771 1.433 . S
C770 C766 1.350 . S
C770 C767 1.463 . S
C770 N774 1.427 . S
C771 H761 0.929 . S
C771 C769 1.433 . S
C771 N774 1.384 1_556 S
C772 H763 0.929 . S
C772 C764 1.378 . S
C772 C767 1.350 . S
C773 H760 0.929 . S
C773 C765 1.433 . S
C773 N775 1.384 . S
N774 C770 1.427 . S
N774 C771 1.384 1_554 S
N775 C767 1.427 . S
N775 C773 1.384 . S
H776 C782 0.930 . S
H777 C786 0.930 . S
H778 C791 0.929 . S
H779 C789 0.929 . S
H780 C784 0.929 . S
H781 C790 0.929 . S
C782 H776 0.930 . S
C782 C783 1.367 . S
C782 C790 1.378 . S
C783 C782 1.367 . S
C783 C791 1.433 . S
C784 H780 0.929 . S
C784 C786 1.378 . S
C784 C788 1.350 . S
C785 C788 1.463 . S
C785 C790 1.350 . S
C785 N793 1.427 . S
C786 H777 0.930 . S
C786 C784 1.378 . S
C786 C787 1.367 . S
C787 C786 1.367 . S
C787 C789 1.433 . S
C788 C784 1.350 . S
C788 C785 1.463 . S
C788 N792 1.427 . S
C789 H779 0.929 . S
C789 C787 1.433 . S
C789 N792 1.384 . S
C790 H781 0.929 . S
C790 C782 1.378 . S
C790 C785 1.350 . S
C791 H778 0.929 . S
C791 C783 1.433 . S
C791 N793 1.384 . S
N792 C788 1.427 . S
N792 C789 1.384 . S
N793 C785 1.427 . S
N793 C791 1.384 . S
H794 C800 0.930 . S
H795 C804 0.930 . S
H796 C809 0.929 . S
H797 C807 0.929 . S
H798 C802 0.929 . S
H799 C808 0.929 . S
C800 H794 0.930 . S
C800 C801 1.367 . S
C800 C808 1.378 . S
C801 C800 1.367 . S
C801 C809 1.433 . S
C802 H798 0.929 . S
C802 C804 1.378 . S
C802 C806 1.350 . S
C803 C806 1.463 . S
C803 C808 1.350 . S
C803 N811 1.427 . S
C804 H795 0.930 . S
C804 C802 1.378 . S
C804 C805 1.367 . S
C805 C804 1.367 . S
C805 C807 1.433 . S
C806 C802 1.350 . S
C806 C803 1.463 . S
C806 N810 1.427 . S
C807 H797 0.929 . S
C807 C805 1.433 . S
C807 N810 1.384 . S
C808 H799 0.929 . S
C808 C800 1.378 . S
C808 C803 1.350 . S
C809 H796 0.929 . S
C809 C801 1.433 . S
C809 N811 1.384 . S
N810 C806 1.427 . S
N810 C807 1.384 . S
N811 C803 1.427 . S
N811 C809 1.384 . S
H812 C818 0.930 . S
H813 C822 0.930 . S
H814 C827 0.929 . S
H815 C825 0.929 . S
H816 C820 0.929 . S
H817 C826 0.929 . S
C818 H812 0.930 . S
C818 C819 1.391 . S
C818 C826 1.378 . S
C819 C818 1.391 . S
C819 C827 1.409 1_455 S
C820 H816 0.929 . S
C820 C822 1.378 . S
C820 C824 1.375 . S
C821 C824 1.461 1_455 S
C821 C826 1.355 . S
C821 N829 1.422 1_455 S
C822 H813 0.930 . S
C822 C820 1.378 . S
C822 C823 1.367 . S
C823 C822 1.367 . S
C823 C825 1.433 1_655 S
C824 C820 1.375 . S
C824 C821 1.461 1_655 S
C824 N828 1.404 1_655 S
C825 H815 0.929 . S
C825 C823 1.433 1_455 S
C825 N828 1.384 . S
C826 H817 0.929 . S
C826 C818 1.378 . S
C826 C821 1.355 . S
C827 H814 0.929 . S
C827 C819 1.409 1_655 S
C827 N829 1.384 . S
N828 C824 1.404 1_455 S
N828 C825 1.384 . S
N829 C821 1.422 1_655 S
N829 C827 1.384 . S
H830 C836 0.930 . S
H831 C840 0.930 . S
H832 C845 0.929 . S
H833 C843 0.929 . S
H834 C838 0.929 . S
H835 C844 0.929 . S
C836 H830 0.930 . S
C836 C837 1.367 . S
C836 C844 1.378 1_554 S
C837 C836 1.367 . S
C837 C845 1.433 . S
C838 H834 0.929 . S
C838 C840 1.378 . S
C838 C842 1.350 . S
C839 C842 1.463 . S
C839 C844 1.350 . S
C839 N847 1.427 . S
C840 H831 0.930 . S
C840 C838 1.378 . S
C840 C841 1.367 . S
C841 C840 1.367 . S
C841 C843 1.433 . S
C842 C838 1.350 . S
C842 C839 1.463 . S
C842 N846 1.427 . S
C843 H833 0.929 . S
C843 C841 1.433 . S
C843 N846 1.384 . S
C844 H835 0.929 . S
C844 C836 1.378 1_556 S
C844 C839 1.350 . S
C845 H832 0.929 . S
C845 C837 1.433 . S
C845 N847 1.384 1_554 S
N846 C842 1.427 . S
N846 C843 1.384 . S
N847 C839 1.427 . S
N847 C845 1.384 1_556 S
H848 C854 0.930 . S
H849 C858 0.930 . S
H850 C863 0.929 . S
H851 C861 0.929 . S
H852 C856 0.929 . S
H853 C862 0.929 . S
C854 H848 0.930 . S
C854 C855 1.367 . S
C854 C862 1.378 . S
C855 C854 1.367 . S
C855 C863 1.433 . S
C856 H852 0.929 . S
C856 C858 1.378 . S
C856 C860 1.350 . S
C857 C860 1.463 . S
C857 C862 1.350 . S
C857 N865 1.427 . S
C858 H849 0.930 . S
C858 C856 1.378 . S
C858 C859 1.367 . S
C859 C858 1.367 . S
C859 C861 1.433 . S
C860 C856 1.350 . S
C860 C857 1.463 . S
C860 N864 1.427 . S
C861 H851 0.929 . S
C861 C859 1.433 . S
C861 N864 1.384 . S
C862 H853 0.929 . S
C862 C854 1.378 . S
C862 C857 1.350 . S
C863 H850 0.929 . S
C863 C855 1.433 . S
C863 N865 1.384 . S
N864 C860 1.427 . S
N864 C861 1.384 . S
N865 C857 1.427 . S
N865 C863 1.384 . S
H866 C872 0.930 . S
H867 C876 0.930 . S
H868 C881 0.929 . S
H869 C879 0.929 . S
H870 C874 0.929 . S
H871 C880 0.929 . S
C872 H866 0.930 . S
C872 C873 1.367 . S
C872 C880 1.378 . S
C873 C872 1.367 . S
C873 C881 1.433 . S
C874 H870 0.929 . S
C874 C876 1.378 . S
C874 C878 1.350 . S
C875 C878 1.463 . S
C875 C880 1.350 . S
C875 N883 1.427 . S
C876 H867 0.930 . S
C876 C874 1.378 . S
C876 C877 1.367 . S
C877 C876 1.367 . S
C877 C879 1.433 . S
C878 C874 1.350 . S
C878 C875 1.463 . S
C878 N882 1.427 . S
C879 H869 0.929 . S
C879 C877 1.433 . S
C879 N882 1.384 . S
C880 H871 0.929 . S
C880 C872 1.378 . S
C880 C875 1.350 . S
C881 H868 0.929 . S
C881 C873 1.433 . S
C881 N883 1.384 . S
N882 C878 1.427 . S
N882 C879 1.384 . S
N883 C875 1.427 . S
N883 C881 1.384 . S
H884 C890 0.930 . S
H885 C894 0.930 . S
H886 C899 0.929 . S
H887 C897 0.929 . S
H888 C892 0.929 . S
H889 C898 0.929 . S
C890 H884 0.930 . S
C890 C891 1.333 1_655 S
C890 C898 1.378 . S
C891 C890 1.333 1_455 S
C891 C899 1.467 . S
C892 H888 0.929 . S
C892 C894 1.378 . S
C892 C896 1.382 . S
C893 C896 1.462 1_655 S
C893 C898 1.349 . S
C893 N901 1.428 1_655 S
C894 H885 0.930 . S
C894 C892 1.378 . S
C894 C895 1.366 1_455 S
C895 C894 1.366 1_655 S
C895 C897 1.434 . S
C896 C892 1.382 . S
C896 C893 1.462 1_455 S
C896 N900 1.395 1_455 S
C897 H887 0.929 . S
C897 C895 1.434 . S
C897 N900 1.384 . S
C898 H889 0.929 . S
C898 C890 1.378 . S
C898 C893 1.349 . S
C899 H886 0.929 . S
C899 C891 1.467 . S
C899 N901 1.384 . S
N900 C896 1.395 1_655 S
N900 C897 1.384 . S
N901 C893 1.428 1_455 S
N901 C899 1.384 . S
H902 C908 0.930 . S
H903 C912 0.930 . S
H904 C917 0.929 . S
H905 C915 0.929 . S
H906 C910 0.929 . S
H907 C916 0.929 . S
C908 H902 0.930 . S
C908 C909 1.367 . S
C908 C916 1.378 . S
C909 C908 1.367 . S
C909 C917 1.433 . S
C910 H906 0.929 . S
C910 C912 1.378 1_556 S
C910 C914 1.350 . S
C911 C914 1.463 . S
C911 C916 1.350 . S
C911 N919 1.427 . S
C912 H903 0.930 . S
C912 C910 1.378 1_554 S
C912 C913 1.367 . S
C913 C912 1.367 . S
C913 C915 1.433 . S
C914 C910 1.350 . S
C914 C911 1.463 . S
C914 N918 1.427 . S
C915 H905 0.929 . S
C915 C913 1.433 . S
C915 N918 1.384 1_554 S
C916 H907 0.929 . S
C916 C908 1.378 . S
C916 C911 1.350 . S
C917 H904 0.929 . S
C917 C909 1.433 . S
C917 N919 1.384 . S
N918 C914 1.427 . S
N918 C915 1.384 1_556 S
N919 C911 1.427 . S
N919 C917 1.384 . S
H920 C926 0.930 . S
H921 C930 0.930 . S
H922 C935 0.929 . S
H923 C933 0.929 . S
H924 C928 0.929 . S
H925 C934 0.929 . S
C926 H920 0.930 . S
C926 C927 1.367 . S
C926 C934 1.378 . S
C927 C926 1.367 . S
C927 C935 1.433 . S
C928 H924 0.929 . S
C928 C930 1.378 . S
C928 C932 1.350 . S
C929 C932 1.463 . S
C929 C934 1.350 . S
C929 N937 1.427 . S
C930 H921 0.930 . S
C930 C928 1.378 . S
C930 C931 1.367 . S
C931 C930 1.367 . S
C931 C933 1.433 . S
C932 C928 1.350 . S
C932 C929 1.463 . S
C932 N936 1.427 . S
C933 H923 0.929 . S
C933 C931 1.433 . S
C933 N936 1.384 . S
C934 H925 0.929 . S
C934 C926 1.378 . S
C934 C929 1.350 . S
C935 H922 0.929 . S
C935 C927 1.433 . S
C935 N937 1.384 . S
N936 C932 1.427 . S
N936 C933 1.384 . S
N937 C929 1.427 . S
N937 C935 1.384 . S
H938 C944 0.930 . S
H939 C948 0.930 . S
H940 C953 0.929 . S
H941 C951 0.929 . S
H942 C946 0.929 . S
H943 C952 0.929 . S
C944 H938 0.930 . S
C944 C945 1.367 . S
C944 C952 1.378 . S
C945 C944 1.367 . S
C945 C953 1.433 . S
C946 H942 0.929 . S
C946 C948 1.378 . S
C946 C950 1.350 . S
C947 C950 1.463 . S
C947 C952 1.350 . S
C947 N955 1.427 . S
C948 H939 0.930 . S
C948 C946 1.378 . S
C948 C949 1.367 . S
C949 C948 1.367 . S
C949 C951 1.433 . S
C950 C946 1.350 . S
C950 C947 1.463 . S
C950 N954 1.427 . S
C951 H941 0.929 . S
C951 C949 1.433 . S
C951 N954 1.384 . S
C952 H943 0.929 . S
C952 C944 1.378 . S
C952 C947 1.350 . S
C953 H940 0.929 . S
C953 C945 1.433 . S
C953 N955 1.384 . S
N954 C950 1.427 . S
N954 C951 1.384 . S
N955 C947 1.427 . S
N955 C953 1.384 . S
H956 C962 0.930 . S
H957 C966 0.930 . S
H958 C971 0.929 . S
H959 C969 0.929 . S
H960 C964 0.929 . S
H961 C970 0.929 . S
C962 H956 0.930 . S
C962 C963 1.394 . S
C962 C970 1.378 . S
C963 C962 1.394 . S
C963 C971 1.406 1_655 S
C964 H960 0.929 . S
C964 C966 1.378 . S
C964 C968 1.378 . S
C965 C968 1.461 1_655 S
C965 C970 1.357 . S
C965 N973 1.420 1_655 S
C966 H957 0.930 . S
C966 C964 1.378 . S
C966 C967 1.367 . S
C967 C966 1.367 . S
C967 C969 1.433 1_455 S
C968 C964 1.378 . S
C968 C965 1.461 1_455 S
C968 N972 1.400 1_455 S
C969 H959 0.929 . S
C969 C967 1.433 1_655 S
C969 N972 1.384 . S
C970 H961 0.929 . S
C970 C962 1.378 . S
C970 C965 1.357 . S
C971 H958 0.929 . S
C971 C963 1.406 1_455 S
C971 N973 1.384 . S
N972 C968 1.400 1_655 S
N972 C969 1.384 . S
N973 C965 1.420 1_455 S
N973 C971 1.384 . S
H974 C980 0.930 . S
H975 C984 0.930 . S
H976 C989 0.929 . S
H977 C987 0.929 . S
H978 C982 0.929 . S
H979 C988 0.929 . S
C980 H974 0.930 . S
C980 C981 1.367 . S
C980 C988 1.378 . S
C981 C980 1.367 . S
C981 C989 1.433 . S
C982 H978 0.929 . S
C982 C984 1.378 1_554 S
C982 C986 1.350 . S
C983 C986 1.463 . S
C983 C988 1.350 . S
C983 N991 1.427 . S
C984 H975 0.930 . S
C984 C982 1.378 1_556 S
C984 C985 1.367 . S
C985 C984 1.367 . S
C985 C987 1.433 . S
C986 C982 1.350 . S
C986 C983 1.463 . S
C986 N990 1.427 . S
C987 H977 0.929 . S
C987 C985 1.433 . S
C987 N990 1.384 1_556 S
C988 H979 0.929 . S
C988 C980 1.378 . S
C988 C983 1.350 . S
C989 H976 0.929 . S
C989 C981 1.433 . S
C989 N991 1.384 . S
N990 C986 1.427 . S
N990 C987 1.384 1_554 S
N991 C983 1.427 . S
N991 C989 1.384 . S
H992 C998 0.930 1_655 S
H993 C1002 0.930 1_455 S
H994 C1007 0.929 . S
H995 C1005 0.929 . S
H996 C1000 0.929 . S
H997 C1006 0.929 . S
C998 H992 0.930 1_455 S
C998 C999 1.367 . S
C998 C1006 1.378 1_455 S
C999 C998 1.367 . S
C999 C1007 1.433 1_554 S
C1000 H996 0.929 . S
C1000 C1002 1.378 1_455 S
C1000 C1004 1.350 1_455 S
C1001 C1004 1.463 1_444 S
C1001 C1006 1.350 1_455 S
C1001 N1009 1.427 1_554 S
C1002 H993 0.930 1_655 S
C1002 C1000 1.378 1_655 S
C1002 C1003 1.367 . S
C1003 C1002 1.367 . S
C1003 C1005 1.433 1_556 S
C1004 C1000 1.350 1_655 S
C1004 C1001 1.463 1_666 S
C1004 N1008 1.427 1_556 S
C1005 H995 0.929 . S
C1005 C1003 1.433 1_554 S
C1005 N1008 1.384 . S
C1006 H997 0.929 . S
C1006 C998 1.378 1_655 S
C1006 C1001 1.350 1_655 S
C1007 H994 0.929 . S
C1007 C999 1.433 1_556 S
C1007 N1009 1.384 . S
N1008 C1004 1.427 1_554 S
N1008 C1005 1.384 . S
N1009 C1001 1.427 1_556 S
N1009 C1007 1.384 . S
H1010 C1016 0.930 . S
H1011 C1020 0.930 . S
H1012 C1025 0.929 . S
H1013 C1023 0.929 . S
H1014 C1018 0.929 . S
H1015 C1024 0.929 . S
C1016 H1010 0.930 . S
C1016 C1017 1.367 . S
C1016 C1024 1.378 . S
C1017 C1016 1.367 . S
C1017 C1025 1.433 . S
C1018 H1014 0.929 . S
C1018 C1020 1.378 . S
C1018 C1022 1.350 . S
C1019 C1022 1.463 . S
C1019 C1024 1.350 . S
C1019 N1027 1.427 . S
C1020 H1011 0.930 . S
C1020 C1018 1.378 . S
C1020 C1021 1.367 . S
C1021 C1020 1.367 . S
C1021 C1023 1.433 . S
C1022 C1018 1.350 . S
C1022 C1019 1.463 . S
C1022 N1026 1.427 . S
C1023 H1013 0.929 . S
C1023 C1021 1.433 . S
C1023 N1026 1.384 . S
C1024 H1015 0.929 . S
C1024 C1016 1.378 . S
C1024 C1019 1.350 . S
C1025 H1012 0.929 . S
C1025 C1017 1.433 . S
C1025 N1027 1.384 . S
N1026 C1022 1.427 . S
N1026 C1023 1.384 . S
N1027 C1019 1.427 . S
N1027 C1025 1.384 . S
H1028 C1034 0.930 . S
H1029 C1038 0.930 . S
H1030 C1043 0.929 . S
H1031 C1041 0.929 . S
H1032 C1036 0.929 . S
H1033 C1042 0.929 . S
C1034 H1028 0.930 . S
C1034 C1035 1.367 . S
C1034 C1042 1.378 . S
C1035 C1034 1.367 . S
C1035 C1043 1.433 . S
C1036 H1032 0.929 . S
C1036 C1038 1.378 . S
C1036 C1040 1.350 . S
C1037 C1040 1.463 1_545 S
C1037 C1042 1.350 . S
C1037 N1045 1.427 . S
C1038 H1029 0.930 . S
C1038 C1036 1.378 . S
C1038 C1039 1.367 . S
C1039 C1038 1.367 . S
C1039 C1041 1.433 . S
C1040 C1036 1.350 . S
C1040 C1037 1.463 1_565 S
C1040 N1044 1.427 . S
C1041 H1031 0.929 . S
C1041 C1039 1.433 . S
C1041 N1044 1.384 . S
C1042 H1033 0.929 . S
C1042 C1034 1.378 . S
C1042 C1037 1.350 . S
C1043 H1030 0.929 . S
C1043 C1035 1.433 . S
C1043 N1045 1.384 . S
N1044 C1040 1.427 . S
N1044 C1041 1.384 . S
N1045 C1037 1.427 . S
N1045 C1043 1.384 . S
H1046 C1052 0.930 . S
H1047 C1056 0.930 . S
H1048 C1061 0.929 . S
H1049 C1059 0.929 . S
H1050 C1054 0.929 . S
H1051 C1060 0.929 . S
C1052 H1046 0.930 . S
C1052 C1053 1.367 . S
C1052 C1060 1.378 . S
C1053 C1052 1.367 . S
C1053 C1061 1.433 . S
C1054 H1050 0.929 . S
C1054 C1056 1.378 . S
C1054 C1058 1.350 . S
C1055 C1058 1.463 . S
C1055 C1060 1.350 . S
C1055 N1063 1.427 . S
C1056 H1047 0.930 . S
C1056 C1054 1.378 . S
C1056 C1057 1.367 . S
C1057 C1056 1.367 . S
C1057 C1059 1.433 . S
C1058 C1054 1.350 . S
C1058 C1055 1.463 . S
C1058 N1062 1.427 . S
C1059 H1049 0.929 . S
C1059 C1057 1.433 . S
C1059 N1062 1.384 . S
C1060 H1051 0.929 . S
C1060 C1052 1.378 . S
C1060 C1055 1.350 . S
C1061 H1048 0.929 . S
C1061 C1053 1.433 . S
C1061 N1063 1.384 . S
N1062 C1058 1.427 . S
N1062 C1059 1.384 . S
N1063 C1055 1.427 . S
N1063 C1061 1.384 . S
H1064 C1070 0.930 . S
H1065 C1074 0.930 . S
H1066 C1079 0.932 . S
H1067 C1077 0.932 . S
H1068 C1072 0.929 . S
H1069 C1078 0.929 . S
C1070 H1064 0.930 . S
C1070 C1071 1.367 . S
C1070 C1078 1.378 . S
C1071 C1070 1.367 . S
C1071 C1079 1.433 . S
C1072 H1068 0.929 . S
C1072 C1074 1.378 . S
C1072 C1076 1.350 . S
C1073 C1076 1.463 1_465 S
C1073 C1078 1.350 . S
C1073 N1081 1.427 1_455 S
C1074 H1065 0.930 . S
C1074 C1072 1.378 . S
C1074 C1075 1.367 . S
C1075 C1074 1.367 . S
C1075 C1077 1.433 . S
C1076 C1072 1.350 . S
C1076 C1073 1.463 1_645 S
C1076 N1080 1.427 1_655 S
C1077 H1067 0.932 . S
C1077 C1075 1.433 . S
C1077 N1080 1.384 1_655 S
C1078 H1069 0.929 . S
C1078 C1070 1.378 . S
C1078 C1073 1.350 . S
C1079 H1066 0.932 . S
C1079 C1071 1.433 . S
C1079 N1081 1.384 1_455 S
N1080 C1076 1.427 1_455 S
N1080 C1077 1.384 1_455 S
N1081 C1073 1.427 1_655 S
N1081 C1079 1.384 1_655 S
H1082 C1088 0.930 . S
H1083 C1092 0.930 . S
H1084 C1097 0.929 . S
H1085 C1095 0.929 . S
H1086 C1090 0.929 . S
H1087 C1096 0.929 . S
C1088 H1082 0.930 . S
C1088 C1089 1.367 . S
C1088 C1096 1.378 . S
C1089 C1088 1.367 . S
C1089 C1097 1.433 . S
C1090 H1086 0.929 . S
C1090 C1092 1.378 . S
C1090 C1094 1.350 . S
C1091 C1094 1.463 . S
C1091 C1096 1.350 . S
C1091 N1099 1.427 . S
C1092 H1083 0.930 . S
C1092 C1090 1.378 . S
C1092 C1093 1.367 . S
C1093 C1092 1.367 . S
C1093 C1095 1.433 . S
C1094 C1090 1.350 . S
C1094 C1091 1.463 . S
C1094 N1098 1.427 . S
C1095 H1085 0.929 . S
C1095 C1093 1.433 . S
C1095 N1098 1.384 . S
C1096 H1087 0.929 . S
C1096 C1088 1.378 . S
C1096 C1091 1.350 . S
C1097 H1084 0.929 . S
C1097 C1089 1.433 . S
C1097 N1099 1.384 . S
N1098 C1094 1.427 . S
N1098 C1095 1.384 . S
N1099 C1091 1.427 . S
N1099 C1097 1.384 . S
H1100 C1106 0.930 . S
H1101 C1110 0.930 . S
H1102 C1115 0.929 . S
H1103 C1113 0.929 . S
H1104 C1108 0.929 . S
H1105 C1114 0.929 . S
C1106 H1100 0.930 . S
C1106 C1107 1.367 . S
C1106 C1114 1.378 . S
C1107 C1106 1.367 . S
C1107 C1115 1.433 1_554 S
C1108 H1104 0.929 . S
C1108 C1110 1.378 . S
C1108 C1112 1.350 . S
C1109 C1112 1.463 1_564 S
C1109 C1114 1.350 . S
C1109 N1117 1.427 1_554 S
C1110 H1101 0.930 . S
C1110 C1108 1.378 . S
C1110 C1111 1.367 . S
C1111 C1110 1.367 . S
C1111 C1113 1.433 1_556 S
C1112 C1108 1.350 . S
C1112 C1109 1.463 1_546 S
C1112 N1116 1.427 1_556 S
C1113 H1103 0.929 . S
C1113 C1111 1.433 1_554 S
C1113 N1116 1.384 . S
C1114 H1105 0.929 . S
C1114 C1106 1.378 . S
C1114 C1109 1.350 . S
C1115 H1102 0.929 . S
C1115 C1107 1.433 1_556 S
C1115 N1117 1.384 . S
N1116 C1112 1.427 1_554 S
N1116 C1113 1.384 . S
N1117 C1109 1.427 1_556 S
N1117 C1115 1.384 . S
H1118 C1124 0.930 . S
H1119 C1128 0.930 . S
H1120 C1133 0.929 . S
H1121 C1131 0.929 . S
H1122 C1126 0.929 . S
H1123 C1132 0.929 . S
C1124 H1118 0.930 . S
C1124 C1125 1.367 . S
C1124 C1132 1.378 . S
C1125 C1124 1.367 . S
C1125 C1133 1.433 . S
C1126 H1122 0.929 . S
C1126 C1128 1.378 . S
C1126 C1130 1.350 . S
C1127 C1130 1.463 . S
C1127 C1132 1.350 . S
C1127 N1135 1.427 . S
C1128 H1119 0.930 . S
C1128 C1126 1.378 . S
C1128 C1129 1.367 . S
C1129 C1128 1.367 . S
C1129 C1131 1.433 . S
C1130 C1126 1.350 . S
C1130 C1127 1.463 . S
C1130 N1134 1.427 . S
C1131 H1121 0.929 . S
C1131 C1129 1.433 . S
C1131 N1134 1.384 . S
C1132 H1123 0.929 . S
C1132 C1124 1.378 . S
C1132 C1127 1.350 . S
C1133 H1120 0.929 . S
C1133 C1125 1.433 . S
C1133 N1135 1.384 . S
N1134 C1130 1.427 . S
N1134 C1131 1.384 . S
N1135 C1127 1.427 . S
N1135 C1133 1.384 . S
H1136 C1142 0.930 . S
H1137 C1146 0.930 . S
H1138 C1151 0.929 . S
H1139 C1149 0.929 . S
H1140 C1144 0.929 . S
H1141 C1150 0.929 . S
C1142 H1136 0.930 . S
C1142 C1143 1.367 . S
C1142 C1150 1.378 . S
C1143 C1142 1.367 . S
C1143 C1151 1.433 . S
C1144 H1140 0.929 . S
C1144 C1146 1.378 . S
C1144 C1148 1.350 . S
C1145 C1148 1.463 . S
C1145 C1150 1.350 . S
C1145 N1153 1.427 . S
C1146 H1137 0.930 . S
C1146 C1144 1.378 . S
C1146 C1147 1.367 . S
C1147 C1146 1.367 . S
C1147 C1149 1.433 . S
C1148 C1144 1.350 . S
C1148 C1145 1.463 . S
C1148 N1152 1.427 . S
C1149 H1139 0.929 . S
C1149 C1147 1.433 . S
C1149 N1152 1.384 . S
C1150 H1141 0.929 . S
C1150 C1142 1.378 . S
C1150 C1145 1.350 . S
C1151 H1138 0.929 . S
C1151 C1143 1.433 . S
C1151 N1153 1.384 . S
N1152 C1148 1.427 . S
N1152 C1149 1.384 . S
N1153 C1145 1.427 . S
N1153 C1151 1.384 . S
H1154 C1160 0.930 . S
H1155 C1164 0.930 . S
H1156 C1169 0.929 . S
H1157 C1167 0.929 . S
H1158 C1162 0.929 . S
H1159 C1168 0.929 . S
C1160 H1154 0.930 . S
C1160 C1161 1.367 . S
C1160 C1168 1.378 . S
C1161 C1160 1.367 . S
C1161 C1169 1.433 . S
C1162 H1158 0.929 . S
C1162 C1164 1.378 . S
C1162 C1166 1.350 . S
C1163 C1166 1.463 . S
C1163 C1168 1.350 . S
C1163 N1171 1.427 . S
C1164 H1155 0.930 . S
C1164 C1162 1.378 . S
C1164 C1165 1.367 . S
C1165 C1164 1.367 . S
C1165 C1167 1.433 . S
C1166 C1162 1.350 . S
C1166 C1163 1.463 . S
C1166 N1170 1.427 . S
C1167 H1157 0.929 . S
C1167 C1165 1.433 . S
C1167 N1170 1.384 . S
C1168 H1159 0.929 . S
C1168 C1160 1.378 . S
C1168 C1163 1.350 . S
C1169 H1156 0.929 . S
C1169 C1161 1.433 . S
C1169 N1171 1.384 . S
N1170 C1166 1.427 . S
N1170 C1167 1.384 . S
N1171 C1163 1.427 . S
N1171 C1169 1.384 . S
H1172 C1178 0.930 . S
H1173 C1182 0.930 . S
H1174 C1187 0.929 . S
H1175 C1185 0.929 . S
H1176 C1180 0.929 . S
H1177 C1186 0.929 . S
C1178 H1172 0.930 . S
C1178 C1179 1.367 . S
C1178 C1186 1.378 . S
C1179 C1178 1.367 . S
C1179 C1187 1.433 . S
C1180 H1176 0.929 . S
C1180 C1182 1.378 . S
C1180 C1184 1.350 . S
C1181 C1184 1.463 . S
C1181 C1186 1.350 . S
C1181 N1189 1.427 . S
C1182 H1173 0.930 . S
C1182 C1180 1.378 . S
C1182 C1183 1.367 . S
C1183 C1182 1.367 . S
C1183 C1185 1.433 . S
C1184 C1180 1.350 . S
C1184 C1181 1.463 . S
C1184 N1188 1.427 . S
C1185 H1175 0.929 . S
C1185 C1183 1.433 . S
C1185 N1188 1.384 . S
C1186 H1177 0.929 . S
C1186 C1178 1.378 . S
C1186 C1181 1.350 . S
C1187 H1174 0.929 . S
C1187 C1179 1.433 . S
C1187 N1189 1.384 . S
N1188 C1184 1.427 . S
N1188 C1185 1.384 . S
N1189 C1181 1.427 . S
N1189 C1187 1.384 . S
H1190 C1196 0.930 . S
H1191 C1200 0.930 . S
H1192 C1205 0.929 . S
H1193 C1203 0.929 . S
H1194 C1198 0.929 . S
H1195 C1204 0.929 . S
C1196 H1190 0.930 . S
C1196 C1197 1.367 . S
C1196 C1204 1.378 . S
C1197 C1196 1.367 . S
C1197 C1205 1.433 . S
C1198 H1194 0.929 . S
C1198 C1200 1.378 . S
C1198 C1202 1.350 . S
C1199 C1202 1.463 . S
C1199 C1204 1.350 . S
C1199 N1207 1.427 . S
C1200 H1191 0.930 . S
C1200 C1198 1.378 . S
C1200 C1201 1.367 . S
C1201 C1200 1.367 . S
C1201 C1203 1.433 . S
C1202 C1198 1.350 . S
C1202 C1199 1.463 . S
C1202 N1206 1.427 . S
C1203 H1193 0.929 . S
C1203 C1201 1.433 . S
C1203 N1206 1.384 . S
C1204 H1195 0.929 . S
C1204 C1196 1.378 . S
C1204 C1199 1.350 . S
C1205 H1192 0.929 . S
C1205 C1197 1.433 . S
C1205 N1207 1.384 . S
N1206 C1202 1.427 . S
N1206 C1203 1.384 . S
N1207 C1199 1.427 . S
N1207 C1205 1.384 . S
H1208 C1214 0.930 . S
H1209 C1218 0.930 . S
H1210 C1223 0.929 . S
H1211 C1221 0.929 . S
H1212 C1216 0.929 . S
H1213 C1222 0.929 . S
C1214 H1208 0.930 . S
C1214 C1215 1.367 . S
C1214 C1222 1.378 . S
C1215 C1214 1.367 . S
C1215 C1223 1.433 . S
C1216 H1212 0.929 . S
C1216 C1218 1.378 . S
C1216 C1220 1.350 . S
C1217 C1220 1.463 . S
C1217 C1222 1.350 . S
C1217 N1225 1.427 . S
C1218 H1209 0.930 . S
C1218 C1216 1.378 . S
C1218 C1219 1.367 . S
C1219 C1218 1.367 . S
C1219 C1221 1.433 . S
C1220 C1216 1.350 . S
C1220 C1217 1.463 . S
C1220 N1224 1.427 . S
C1221 H1211 0.929 . S
C1221 C1219 1.433 . S
C1221 N1224 1.384 . S
C1222 H1213 0.929 . S
C1222 C1214 1.378 . S
C1222 C1217 1.350 . S
C1223 H1210 0.929 . S
C1223 C1215 1.433 . S
C1223 N1225 1.384 . S
N1224 C1220 1.427 . S
N1224 C1221 1.384 . S
N1225 C1217 1.427 . S
N1225 C1223 1.384 . S
H1226 C1232 0.930 1_455 S
H1227 C1236 0.930 1_655 S
H1228 C1241 0.929 . S
H1229 C1239 0.929 . S
H1230 C1234 0.929 . S
H1231 C1240 0.929 . S
C1232 H1226 0.930 1_655 S
C1232 C1233 1.367 1_556 S
C1232 C1240 1.378 1_655 S
C1233 C1232 1.367 1_554 S
C1233 C1241 1.433 . S
C1234 H1230 0.929 . S
C1234 C1236 1.378 1_655 S
C1234 C1238 1.350 1_654 S
C1235 C1238 1.463 1_654 S
C1235 C1240 1.350 1_654 S
C1235 N1243 1.427 . S
C1236 H1227 0.930 1_455 S
C1236 C1234 1.378 1_455 S
C1236 C1237 1.367 1_554 S
C1237 C1236 1.367 1_556 S
C1237 C1239 1.433 . S
C1238 C1234 1.350 1_456 S
C1238 C1235 1.463 1_456 S
C1238 N1242 1.427 . S
C1239 H1229 0.929 . S
C1239 C1237 1.433 . S
C1239 N1242 1.384 . S
C1240 H1231 0.929 . S
C1240 C1232 1.378 1_455 S
C1240 C1235 1.350 1_456 S
C1241 H1228 0.929 . S
C1241 C1233 1.433 . S
C1241 N1243 1.384 . S
N1242 C1238 1.427 . S
N1242 C1239 1.384 . S
N1243 C1235 1.427 . S
N1243 C1241 1.384 . S
H1244 C1250 0.930 . S
H1245 C1254 0.930 . S
H1246 C1259 0.929 . S
H1247 C1257 0.929 . S
H1248 C1252 0.929 . S
H1249 C1258 0.929 . S
C1250 H1244 0.930 . S
C1250 C1251 1.367 . S
C1250 C1258 1.378 . S
C1251 C1250 1.367 . S
C1251 C1259 1.433 1_556 S
C1252 H1248 0.929 . S
C1252 C1254 1.378 . S
C1252 C1256 1.350 . S
C1253 C1256 1.463 1_556 S
C1253 C1258 1.350 . S
C1253 N1261 1.427 1_556 S
C1254 H1245 0.930 . S
C1254 C1252 1.378 . S
C1254 C1255 1.367 . S
C1255 C1254 1.367 . S
C1255 C1257 1.433 1_554 S
C1256 C1252 1.350 . S
C1256 C1253 1.463 1_554 S
C1256 N1260 1.427 1_554 S
C1257 H1247 0.929 . S
C1257 C1255 1.433 1_556 S
C1257 N1260 1.384 . S
C1258 H1249 0.929 . S
C1258 C1250 1.378 . S
C1258 C1253 1.350 . S
C1259 H1246 0.929 . S
C1259 C1251 1.433 1_554 S
C1259 N1261 1.384 . S
N1260 C1256 1.427 1_556 S
N1260 C1257 1.384 . S
N1261 C1253 1.427 1_554 S
N1261 C1259 1.384 . S
H1262 C1268 0.930 . S
H1263 C1272 0.930 . S
H1264 C1277 0.924 1_655 S
H1265 C1275 0.924 1_455 S
H1266 C1270 0.929 . S
H1267 C1276 0.929 . S
C1268 H1262 0.930 . S
C1268 C1269 1.367 . S
C1268 C1276 1.378 . S
C1269 C1268 1.367 . S
C1269 C1277 1.442 . S
C1270 H1266 0.929 . S
C1270 C1272 1.378 . S
C1270 C1274 1.350 . S
C1271 C1274 1.463 1_455 S
C1271 C1276 1.350 . S
C1271 N1279 1.427 1_455 S
C1272 H1263 0.930 . S
C1272 C1270 1.378 . S
C1272 C1273 1.367 . S
C1273 C1272 1.367 . S
C1273 C1275 1.442 . S
C1274 C1270 1.350 . S
C1274 C1271 1.463 1_655 S
C1274 N1278 1.427 1_655 S
C1275 H1265 0.924 1_655 S
C1275 C1273 1.442 . S
C1275 N1278 1.380 1_655 S
C1276 H1267 0.929 . S
C1276 C1268 1.378 . S
C1276 C1271 1.350 . S
C1277 H1264 0.924 1_455 S
C1277 C1269 1.442 . S
C1277 N1279 1.380 1_455 S
N1278 C1274 1.427 1_455 S
N1278 C1275 1.380 1_455 S
N1279 C1271 1.427 1_655 S
N1279 C1277 1.380 1_655 S
H1280 C1286 0.930 . S
H1281 C1290 0.930 . S
H1282 C1295 0.929 . S
H1283 C1293 0.929 . S
H1284 C1288 0.929 . S
H1285 C1294 0.929 . S
C1286 H1280 0.930 . S
C1286 C1287 1.367 . S
C1286 C1294 1.378 . S
C1287 C1286 1.367 . S
C1287 C1295 1.433 . S
C1288 H1284 0.929 . S
C1288 C1290 1.378 . S
C1288 C1292 1.350 . S
C1289 C1292 1.463 . S
C1289 C1294 1.350 . S
C1289 N1297 1.427 . S
C1290 H1281 0.930 . S
C1290 C1288 1.378 . S
C1290 C1291 1.367 . S
C1291 C1290 1.367 . S
C1291 C1293 1.433 . S
C1292 C1288 1.350 . S
C1292 C1289 1.463 . S
C1292 N1296 1.427 . S
C1293 H1283 0.929 . S
C1293 C1291 1.433 . S
C1293 N1296 1.384 . S
C1294 H1285 0.929 . S
C1294 C1286 1.378 . S
C1294 C1289 1.350 . S
C1295 H1282 0.929 . S
C1295 C1287 1.433 . S
C1295 N1297 1.384 . S
N1296 C1292 1.427 . S
N1296 C1293 1.384 . S
N1297 C1289 1.427 . S
N1297 C1295 1.384 . S
H1298 C1304 0.930 . S
H1299 C1308 0.930 . S
H1300 C1313 0.929 . S
H1301 C1311 0.929 . S
H1302 C1306 0.929 . S
H1303 C1312 0.929 . S
C1304 H1298 0.930 . S
C1304 C1305 1.367 . S
C1304 C1312 1.378 . S
C1305 C1304 1.367 . S
C1305 C1313 1.433 . S
C1306 H1302 0.929 . S
C1306 C1308 1.378 . S
C1306 C1310 1.350 . S
C1307 C1310 1.463 . S
C1307 C1312 1.350 . S
C1307 N1315 1.427 . S
C1308 H1299 0.930 . S
C1308 C1306 1.378 . S
C1308 C1309 1.367 . S
C1309 C1308 1.367 . S
C1309 C1311 1.433 . S
C1310 C1306 1.350 . S
C1310 C1307 1.463 . S
C1310 N1314 1.427 . S
C1311 H1301 0.929 . S
C1311 C1309 1.433 . S
C1311 N1314 1.384 . S
C1312 H1303 0.929 . S
C1312 C1304 1.378 . S
C1312 C1307 1.350 . S
C1313 H1300 0.929 . S
C1313 C1305 1.433 . S
C1313 N1315 1.384 . S
N1314 C1310 1.427 . S
N1314 C1311 1.384 . S
N1315 C1307 1.427 . S
N1315 C1313 1.384 . S
H1316 C1322 0.930 . S
H1317 C1326 0.930 . S
H1318 C1331 0.929 . S
H1319 C1329 0.929 . S
H1320 C1324 0.929 . S
H1321 C1330 0.929 . S
C1322 H1316 0.930 . S
C1322 C1323 1.367 . S
C1322 C1330 1.378 . S
C1323 C1322 1.367 . S
C1323 C1331 1.433 . S
C1324 H1320 0.929 . S
C1324 C1326 1.378 . S
C1324 C1328 1.350 . S
C1325 C1328 1.463 . S
C1325 C1330 1.350 . S
C1325 N1333 1.427 . S
C1326 H1317 0.930 . S
C1326 C1324 1.378 . S
C1326 C1327 1.367 . S
C1327 C1326 1.367 . S
C1327 C1329 1.433 . S
C1328 C1324 1.350 . S
C1328 C1325 1.463 . S
C1328 N1332 1.427 . S
C1329 H1319 0.929 . S
C1329 C1327 1.433 . S
C1329 N1332 1.384 . S
C1330 H1321 0.929 . S
C1330 C1322 1.378 . S
C1330 C1325 1.350 . S
C1331 H1318 0.929 . S
C1331 C1323 1.433 . S
C1331 N1333 1.384 . S
N1332 C1328 1.427 . S
N1332 C1329 1.384 . S
N1333 C1325 1.427 . S
N1333 C1331 1.384 . S
H1334 C1340 0.930 . S
H1335 C1344 0.930 . S
H1336 C1349 0.929 . S
H1337 C1347 0.929 . S
H1338 C1342 0.929 . S
H1339 C1348 0.929 . S
C1340 H1334 0.930 . S
C1340 C1341 1.367 . S
C1340 C1348 1.378 . S
C1341 C1340 1.367 . S
C1341 C1349 1.433 . S
C1342 H1338 0.929 . S
C1342 C1344 1.378 . S
C1342 C1346 1.350 . S
C1343 C1346 1.463 . S
C1343 C1348 1.350 . S
C1343 N1351 1.427 . S
C1344 H1335 0.930 . S
C1344 C1342 1.378 . S
C1344 C1345 1.367 . S
C1345 C1344 1.367 . S
C1345 C1347 1.433 . S
C1346 C1342 1.350 . S
C1346 C1343 1.463 . S
C1346 N1350 1.427 . S
C1347 H1337 0.929 . S
C1347 C1345 1.433 . S
C1347 N1350 1.384 . S
C1348 H1339 0.929 . S
C1348 C1340 1.378 . S
C1348 C1343 1.350 . S
C1349 H1336 0.929 . S
C1349 C1341 1.433 . S
C1349 N1351 1.384 . S
N1350 C1346 1.427 . S
N1350 C1347 1.384 . S
N1351 C1343 1.427 . S
N1351 C1349 1.384 . S
H1352 C1358 0.930 . S
H1353 C1362 0.930 . S
H1354 C1367 0.929 . S
H1355 C1365 0.929 . S
H1356 C1360 0.929 . S
H1357 C1366 0.929 . S
C1358 H1352 0.930 . S
C1358 C1359 1.367 . S
C1358 C1366 1.378 . S
C1359 C1358 1.367 . S
C1359 C1367 1.433 . S
C1360 H1356 0.929 . S
C1360 C1362 1.378 . S
C1360 C1364 1.350 . S
C1361 C1364 1.463 . S
C1361 C1366 1.350 . S
C1361 N1369 1.427 . S
C1362 H1353 0.930 . S
C1362 C1360 1.378 . S
C1362 C1363 1.367 . S
C1363 C1362 1.367 . S
C1363 C1365 1.433 . S
C1364 C1360 1.350 . S
C1364 C1361 1.463 . S
C1364 N1368 1.427 . S
C1365 H1355 0.929 . S
C1365 C1363 1.433 . S
C1365 N1368 1.384 . S
C1366 H1357 0.929 . S
C1366 C1358 1.378 . S
C1366 C1361 1.350 . S
C1367 H1354 0.929 . S
C1367 C1359 1.433 . S
C1367 N1369 1.384 . S
N1368 C1364 1.427 . S
N1368 C1365 1.384 . S
N1369 C1361 1.427 . S
N1369 C1367 1.384 . S
H1370 C1376 0.930 . S
H1371 C1380 0.930 . S
H1372 C1385 0.929 . S
H1373 C1383 0.929 . S
H1374 C1378 0.929 . S
H1375 C1384 0.929 . S
C1376 H1370 0.930 . S
C1376 C1377 1.367 . S
C1376 C1384 1.378 . S
C1377 C1376 1.367 . S
C1377 C1385 1.433 . S
C1378 H1374 0.929 . S
C1378 C1380 1.378 . S
C1378 C1382 1.350 . S
C1379 C1382 1.463 . S
C1379 C1384 1.350 . S
C1379 N1387 1.427 . S
C1380 H1371 0.930 . S
C1380 C1378 1.378 . S
C1380 C1381 1.367 . S
C1381 C1380 1.367 . S
C1381 C1383 1.433 . S
C1382 C1378 1.350 . S
C1382 C1379 1.463 . S
C1382 N1386 1.427 . S
C1383 H1373 0.929 . S
C1383 C1381 1.433 . S
C1383 N1386 1.384 . S
C1384 H1375 0.929 . S
C1384 C1376 1.378 . S
C1384 C1379 1.350 . S
C1385 H1372 0.929 . S
C1385 C1377 1.433 . S
C1385 N1387 1.384 . S
N1386 C1382 1.427 . S
N1386 C1383 1.384 . S
N1387 C1379 1.427 . S
N1387 C1385 1.384 . S
H1388 C1394 0.930 . S
H1389 C1398 0.930 . S
H1390 C1403 0.929 . S
H1391 C1401 0.929 . S
H1392 C1396 0.929 . S
H1393 C1402 0.929 . S
C1394 H1388 0.930 . S
C1394 C1395 1.367 . S
C1394 C1402 1.378 . S
C1395 C1394 1.367 . S
C1395 C1403 1.433 . S
C1396 H1392 0.929 . S
C1396 C1398 1.378 . S
C1396 C1400 1.350 . S
C1397 C1400 1.463 . S
C1397 C1402 1.350 . S
C1397 N1405 1.427 . S
C1398 H1389 0.930 . S
C1398 C1396 1.378 . S
C1398 C1399 1.367 . S
C1399 C1398 1.367 . S
C1399 C1401 1.433 . S
C1400 C1396 1.350 . S
C1400 C1397 1.463 . S
C1400 N1404 1.427 . S
C1401 H1391 0.929 . S
C1401 C1399 1.433 . S
C1401 N1404 1.384 . S
C1402 H1393 0.929 . S
C1402 C1394 1.378 . S
C1402 C1397 1.350 . S
C1403 H1390 0.929 . S
C1403 C1395 1.433 . S
C1403 N1405 1.384 . S
N1404 C1400 1.427 . S
N1404 C1401 1.384 . S
N1405 C1397 1.427 . S
N1405 C1403 1.384 . S
H1406 C1412 0.930 . S
H1407 C1416 0.930 . S
H1408 C1421 0.929 . S
H1409 C1419 0.929 . S
H1410 C1414 0.929 . S
H1411 C1420 0.929 . S
C1412 H1406 0.930 . S
C1412 C1413 1.367 . S
C1412 C1420 1.378 . S
C1413 C1412 1.367 . S
C1413 C1421 1.433 . S
C1414 H1410 0.929 . S
C1414 C1416 1.378 . S
C1414 C1418 1.350 . S
C1415 C1418 1.463 . S
C1415 C1420 1.350 . S
C1415 N1423 1.427 . S
C1416 H1407 0.930 . S
C1416 C1414 1.378 . S
C1416 C1417 1.367 . S
C1417 C1416 1.367 . S
C1417 C1419 1.433 . S
C1418 C1414 1.350 . S
C1418 C1415 1.463 . S
C1418 N1422 1.427 . S
C1419 H1409 0.929 . S
C1419 C1417 1.433 . S
C1419 N1422 1.384 . S
C1420 H1411 0.929 . S
C1420 C1412 1.378 . S
C1420 C1415 1.350 . S
C1421 H1408 0.929 . S
C1421 C1413 1.433 . S
C1421 N1423 1.384 . S
N1422 C1418 1.427 . S
N1422 C1419 1.384 . S
N1423 C1415 1.427 . S
N1423 C1421 1.384 . S
H1424 C1430 0.930 . S
H1425 C1434 0.930 . S
H1426 C1439 0.929 . S
H1427 C1437 0.929 . S
H1428 C1432 0.929 . S
H1429 C1438 0.929 . S
C1430 H1424 0.930 . S
C1430 C1431 1.367 . S
C1430 C1438 1.378 . S
C1431 C1430 1.367 . S
C1431 C1439 1.433 . S
C1432 H1428 0.929 . S
C1432 C1434 1.378 . S
C1432 C1436 1.350 . S
C1433 C1436 1.463 . S
C1433 C1438 1.350 . S
C1433 N1441 1.427 . S
C1434 H1425 0.930 . S
C1434 C1432 1.378 . S
C1434 C1435 1.367 . S
C1435 C1434 1.367 . S
C1435 C1437 1.433 . S
C1436 C1432 1.350 . S
C1436 C1433 1.463 . S
C1436 N1440 1.427 . S
C1437 H1427 0.929 . S
C1437 C1435 1.433 . S
C1437 N1440 1.384 . S
C1438 H1429 0.929 . S
C1438 C1430 1.378 . S
C1438 C1433 1.350 . S
C1439 H1426 0.929 . S
C1439 C1431 1.433 . S
C1439 N1441 1.384 . S
N1440 C1436 1.427 . S
N1440 C1437 1.384 . S
N1441 C1433 1.427 . S
N1441 C1439 1.384 . S
H1442 C1448 0.930 . S
H1443 C1452 0.930 . S
H1444 C1457 0.929 . S
H1445 C1455 0.929 . S
H1446 C1450 0.929 . S
H1447 C1456 0.929 . S
C1448 H1442 0.930 . S
C1448 C1449 1.367 . S
C1448 C1456 1.378 . S
C1449 C1448 1.367 . S
C1449 C1457 1.433 . S
C1450 H1446 0.929 . S
C1450 C1452 1.378 . S
C1450 C1454 1.350 . S
C1451 C1454 1.463 . S
C1451 C1456 1.350 . S
C1451 N1459 1.427 . S
C1452 H1443 0.930 . S
C1452 C1450 1.378 . S
C1452 C1453 1.367 . S
C1453 C1452 1.367 . S
C1453 C1455 1.433 . S
C1454 C1450 1.350 . S
C1454 C1451 1.463 . S
C1454 N1458 1.427 . S
C1455 H1445 0.929 . S
C1455 C1453 1.433 . S
C1455 N1458 1.384 . S
C1456 H1447 0.929 . S
C1456 C1448 1.378 . S
C1456 C1451 1.350 . S
C1457 H1444 0.929 . S
C1457 C1449 1.433 . S
C1457 N1459 1.384 . S
N1458 C1454 1.427 . S
N1458 C1455 1.384 . S
N1459 C1451 1.427 . S
N1459 C1457 1.384 . S
H1460 C1466 0.930 . S
H1461 C1470 0.930 . S
H1462 C1475 0.929 . S
H1463 C1473 0.929 . S
H1464 C1468 0.929 . S
H1465 C1474 0.929 . S
C1466 H1460 0.930 . S
C1466 C1467 1.367 . S
C1466 C1474 1.378 . S
C1467 C1466 1.367 . S
C1467 C1475 1.433 . S
C1468 H1464 0.929 . S
C1468 C1470 1.378 . S
C1468 C1472 1.350 . S
C1469 C1472 1.463 . S
C1469 C1474 1.350 . S
C1469 N1477 1.427 . S
C1470 H1461 0.930 . S
C1470 C1468 1.378 . S
C1470 C1471 1.367 . S
C1471 C1470 1.367 . S
C1471 C1473 1.433 . S
C1472 C1468 1.350 . S
C1472 C1469 1.463 . S
C1472 N1476 1.427 . S
C1473 H1463 0.929 . S
C1473 C1471 1.433 . S
C1473 N1476 1.384 . S
C1474 H1465 0.929 . S
C1474 C1466 1.378 . S
C1474 C1469 1.350 . S
C1475 H1462 0.929 . S
C1475 C1467 1.433 . S
C1475 N1477 1.384 . S
N1476 C1472 1.427 . S
N1476 C1473 1.384 . S
N1477 C1469 1.427 . S
N1477 C1475 1.384 . S
H1478 C1484 0.930 . S
H1479 C1488 0.930 . S
H1480 C1493 0.929 . S
H1481 C1491 0.929 . S
H1482 C1486 0.929 . S
H1483 C1492 0.929 . S
C1484 H1478 0.930 . S
C1484 C1485 1.367 . S
C1484 C1492 1.378 . S
C1485 C1484 1.367 . S
C1485 C1493 1.433 . S
C1486 H1482 0.929 . S
C1486 C1488 1.378 . S
C1486 C1490 1.350 . S
C1487 C1490 1.463 . S
C1487 C1492 1.350 . S
C1487 N1495 1.427 . S
C1488 H1479 0.930 . S
C1488 C1486 1.378 . S
C1488 C1489 1.367 . S
C1489 C1488 1.367 . S
C1489 C1491 1.433 . S
C1490 C1486 1.350 . S
C1490 C1487 1.463 . S
C1490 N1494 1.427 . S
C1491 H1481 0.929 . S
C1491 C1489 1.433 . S
C1491 N1494 1.384 . S
C1492 H1483 0.929 . S
C1492 C1484 1.378 . S
C1492 C1487 1.350 . S
C1493 H1480 0.929 . S
C1493 C1485 1.433 . S
C1493 N1495 1.384 . S
N1494 C1490 1.427 . S
N1494 C1491 1.384 . S
N1495 C1487 1.427 . S
N1495 C1493 1.384 . S
H1496 C1502 0.930 . S
H1497 C1506 0.930 . S
H1498 C1511 0.929 . S
H1499 C1509 0.929 . S
H1500 C1504 0.929 . S
H1501 C1510 0.929 . S
C1502 H1496 0.930 . S
C1502 C1503 1.367 . S
C1502 C1510 1.378 . S
C1503 C1502 1.367 . S
C1503 C1511 1.433 . S
C1504 H1500 0.929 . S
C1504 C1506 1.378 . S
C1504 C1508 1.350 . S
C1505 C1508 1.463 . S
C1505 C1510 1.350 . S
C1505 N1513 1.427 . S
C1506 H1497 0.930 . S
C1506 C1504 1.378 . S
C1506 C1507 1.367 . S
C1507 C1506 1.367 . S
C1507 C1509 1.433 . S
C1508 C1504 1.350 . S
C1508 C1505 1.463 . S
C1508 N1512 1.427 . S
C1509 H1499 0.929 . S
C1509 C1507 1.433 . S
C1509 N1512 1.384 . S
C1510 H1501 0.929 . S
C1510 C1502 1.378 . S
C1510 C1505 1.350 . S
C1511 H1498 0.929 . S
C1511 C1503 1.433 . S
C1511 N1513 1.384 . S
N1512 C1508 1.427 . S
N1512 C1509 1.384 . S
N1513 C1505 1.427 . S
N1513 C1511 1.384 . S
H1514 C1520 0.930 . S
H1515 C1524 0.930 . S
H1516 C1529 0.929 . S
H1517 C1527 0.929 . S
H1518 C1522 0.929 . S
H1519 C1528 0.929 . S
C1520 H1514 0.930 . S
C1520 C1521 1.367 . S
C1520 C1528 1.378 . S
C1521 C1520 1.367 . S
C1521 C1529 1.433 . S
C1522 H1518 0.929 . S
C1522 C1524 1.378 . S
C1522 C1526 1.350 . S
C1523 C1526 1.463 . S
C1523 C1528 1.350 . S
C1523 N1531 1.427 . S
C1524 H1515 0.930 . S
C1524 C1522 1.378 . S
C1524 C1525 1.367 . S
C1525 C1524 1.367 . S
C1525 C1527 1.433 . S
C1526 C1522 1.350 . S
C1526 C1523 1.463 . S
C1526 N1530 1.427 . S
C1527 H1517 0.929 . S
C1527 C1525 1.433 . S
C1527 N1530 1.384 . S
C1528 H1519 0.929 . S
C1528 C1520 1.378 . S
C1528 C1523 1.350 . S
C1529 H1516 0.929 . S
C1529 C1521 1.433 . S
C1529 N1531 1.384 . S
N1530 C1526 1.427 . S
N1530 C1527 1.384 . S
N1531 C1523 1.427 . S
N1531 C1529 1.384 . S
H1532 C1538 0.930 . S
H1533 C1542 0.930 . S
H1534 C1547 0.929 . S
H1535 C1545 0.929 . S
H1536 C1540 0.929 . S
H1537 C1546 0.929 . S
C1538 H1532 0.930 . S
C1538 C1539 1.367 . S
C1538 C1546 1.378 . S
C1539 C1538 1.367 . S
C1539 C1547 1.433 . S
C1540 H1536 0.929 . S
C1540 C1542 1.378 . S
C1540 C1544 1.350 . S
C1541 C1544 1.463 . S
C1541 C1546 1.350 . S
C1541 N1549 1.427 . S
C1542 H1533 0.930 . S
C1542 C1540 1.378 . S
C1542 C1543 1.367 . S
C1543 C1542 1.367 . S
C1543 C1545 1.433 . S
C1544 C1540 1.350 . S
C1544 C1541 1.463 . S
C1544 N1548 1.427 . S
C1545 H1535 0.929 . S
C1545 C1543 1.433 . S
C1545 N1548 1.384 . S
C1546 H1537 0.929 . S
C1546 C1538 1.378 . S
C1546 C1541 1.350 . S
C1547 H1534 0.929 . S
C1547 C1539 1.433 . S
C1547 N1549 1.384 . S
N1548 C1544 1.427 . S
N1548 C1545 1.384 . S
N1549 C1541 1.427 . S
N1549 C1547 1.384 . S
H1550 C1556 0.930 . S
H1551 C1560 0.930 . S
H1552 C1565 0.929 . S
H1553 C1563 0.929 . S
H1554 C1558 0.929 . S
H1555 C1564 0.929 . S
C1556 H1550 0.930 . S
C1556 C1557 1.367 . S
C1556 C1564 1.378 . S
C1557 C1556 1.367 . S
C1557 C1565 1.433 . S
C1558 H1554 0.929 . S
C1558 C1560 1.378 . S
C1558 C1562 1.350 . S
C1559 C1562 1.463 . S
C1559 C1564 1.350 . S
C1559 N1567 1.427 . S
C1560 H1551 0.930 . S
C1560 C1558 1.378 . S
C1560 C1561 1.367 . S
C1561 C1560 1.367 . S
C1561 C1563 1.433 . S
C1562 C1558 1.350 . S
C1562 C1559 1.463 . S
C1562 N1566 1.427 . S
C1563 H1553 0.929 . S
C1563 C1561 1.433 . S
C1563 N1566 1.384 . S
C1564 H1555 0.929 . S
C1564 C1556 1.378 . S
C1564 C1559 1.350 . S
C1565 H1552 0.929 . S
C1565 C1557 1.433 . S
C1565 N1567 1.384 . S
N1566 C1562 1.427 . S
N1566 C1563 1.384 . S
N1567 C1559 1.427 . S
N1567 C1565 1.384 . S
C423 C160 1.275 . S
C427 C5 1.255 . S
C441 C387 1.273 . S
C445 C16 1.266 . S
C459 C192 1.262 . S
C463 C29 1.260 . S
C477 C413 1.261 . S
C481 C42 1.257 . S
C495 C114 1.276 . S
C499 C57 1.256 . S
C513 C68 1.269 . S
C517 C329 1.271 . S
C531 C81 1.262 . S
C535 C140 1.272 . S
C549 C361 1.261 . S
C553 C96 1.260 . S
C567 C56 1.273 . S
C571 C107 1.262 . S
C585 C277 1.272 . S
C589 C122 1.269 . S
C603 C88 1.261 . S
C607 C133 1.257 . S
C621 C303 1.265 . S
C625 C146 1.256 . S
C639 C161 1.281 . S
C643 C4 1.273 . S
C657 C172 1.264 . S
C661 C225 1.273 . S
C675 C36 1.271 . S
C679 C185 1.261 . S
C693 C198 1.259 . S
C697 C257 1.261 . S
C711 C368 1.262 . S
C715 C213 1.255 . S
C729 C179 1.261 . S
C733 C226 1.259 . S
C747 C400 1.272 . S
C751 C237 1.280 . S
C765 C250 1.268 . S
C769 C205 1.273 . S
C783 C265 1.261 . S
C787 C322 1.262 . S
C801 C278 1.255 . S
C805 C121 1.263 . S
C819 C342 1.275 . S
C823 C291 1.255 . S
C837 C153 1.261 . S
C841 C304 1.258 . S
C855 C264 1.263 . S
C859 C315 1.263 . S
C873 C330 1.267 . S
C877 C75 1.267 . S
C891 C343 1.279 . S
C895 C290 1.273 . S
C909 C354 1.260 . S
C913 C95 1.262 . S
C927 C212 1.262 . S
C931 C369 1.262 . S
C945 C23 1.273 . S
C949 C380 1.265 . S
C963 C244 1.273 . S
C967 C393 1.261 . S
C981 C406 1.260 . S
C985 C49 1.261 . S
C999 C3 1.412 . S
C1003 C109 1.412 . S
C1017 C18 1.409 . S
C1021 C328 1.409 . S
C1035 C135 1.410 . S
C1039 C31 1.410 . S
C1053 C44 1.409 . S
C1057 C356 1.409 . S
C1071 C55 1.415 . S
C1075 C159 1.415 . S
C1089 C382 1.413 . S
C1093 C70 1.413 . S
C1107 C187 1.412 . S
C1111 C83 1.412 . S
C1125 C94 1.413 . S
C1129 C408 1.413 . S
C1143 C120 1.413 . S
C1147 C224 1.413 . S
C1161 C148 1.416 . S
C1165 C252 1.416 . S
C1179 C174 1.415 . S
C1183 C276 1.415 . S
C1197 C302 1.411 . S
C1201 C200 1.411 . S
C1215 C211 1.411 . S
C1219 C317 1.411 . S
C1233 C239 1.410 . S
C1237 C341 1.410 . S
C1251 C263 1.413 . S
C1255 C367 1.413 . S
C1269 C395 1.415 . S
C1273 C289 1.415 . S
C1287 C10 1.396 . S
C1291 C101 1.397 . S
C1305 C17 1.393 . S
C1309 C62 1.394 . S
C1323 C69 1.394 . S
C1327 C30 1.396 . S
C1341 C82 1.397 . S
C1345 C43 1.397 . S
C1359 C199 1.397 . S
C1363 C108 1.395 . S
C1377 C166 1.397 . S
C1381 C127 1.397 . S
C1395 C173 1.394 . S
C1399 C134 1.396 . S
C1413 C186 1.394 . S
C1417 C147 1.393 . S
C1431 C218 1.396 . S
C1435 C309 1.397 . S
C1449 C270 1.394 . S
C1453 C231 1.394 . S
C1467 C283 1.394 . S
C1471 C238 1.393 . S
C1485 C296 1.397 . S
C1489 C251 1.397 . S
C1503 C407 1.394 . S
C1507 C316 1.396 . S
C1521 C335 1.394 . S
C1525 C374 1.396 . S
C1539 C348 1.397 . S
C1543 C381 1.397 . S
C1557 C394 1.397 . S
C1561 C355 1.396 . S
