# Generated by pormake.
# Topology unl, (4)-cn, num edge types: 1
# Building blocks:
#     Node 0, Type 0, BuildingBlock: CEKHIL_clean_sbu_0, # of connection points: 4
#     Node 1, Type 0, BuildingBlock: CEKHIL_clean_sbu_0, # of connection points: 4
#     Node 2, Type 0, BuildingBlock: CEKHIL_clean_sbu_0, # of connection points: 4
#     Node 3, Type 0, BuildingBlock: CEKHIL_clean_sbu_0, # of connection points: 4
#     Node 4, Type 0, BuildingBlock: CEKHIL_clean_sbu_0, # of connection points: 4
#     Node 5, Type 0, BuildingBlock: CEKHIL_clean_sbu_0, # of connection points: 4
#     Node 6, Type 0, BuildingBlock: CEKHIL_clean_sbu_0, # of connection points: 4
#     Node 7, Type 0, BuildingBlock: CEKHIL_clean_sbu_0, # of connection points: 4
#     Node 8, Type 0, BuildingBlock: CEKHIL_clean_sbu_0, # of connection points: 4
#     Node 9, Type 0, BuildingBlock: CEKHIL_clean_sbu_0, # of connection points: 4
#     Node 10, Type 0, BuildingBlock: CEKHIL_clean_sbu_0, # of connection points: 4
#     Node 11, Type 0, BuildingBlock: CEKHIL_clean_sbu_0, # of connection points: 4
#     Node 12, Type 0, BuildingBlock: CEKHIL_clean_sbu_0, # of connection points: 4
#     Node 13, Type 0, BuildingBlock: CEKHIL_clean_sbu_0, # of connection points: 4
#     Node 14, Type 0, BuildingBlock: CEKHIL_clean_sbu_0, # of connection points: 4
#     Node 15, Type 0, BuildingBlock: CEKHIL_clean_sbu_0, # of connection points: 4
#     Node 16, Type 0, BuildingBlock: CEKHIL_clean_sbu_0, # of connection points: 4
#     Node 17, Type 0, BuildingBlock: CEKHIL_clean_sbu_0, # of connection points: 4
#     Node 18, Type 0, BuildingBlock: CEKHIL_clean_sbu_0, # of connection points: 4
#     Node 19, Type 0, BuildingBlock: CEKHIL_clean_sbu_0, # of connection points: 4
#     Node 20, Type 0, BuildingBlock: CEKHIL_clean_sbu_0, # of connection points: 4
#     Node 21, Type 0, BuildingBlock: CEKHIL_clean_sbu_0, # of connection points: 4
#     Node 22, Type 0, BuildingBlock: CEKHIL_clean_sbu_0, # of connection points: 4
#     Node 23, Type 0, BuildingBlock: CEKHIL_clean_sbu_0, # of connection points: 4
#     Node 24, Type 0, BuildingBlock: CEKHIL_clean_sbu_0, # of connection points: 4
#     Node 25, Type 0, BuildingBlock: CEKHIL_clean_sbu_0, # of connection points: 4
#     Node 26, Type 0, BuildingBlock: CEKHIL_clean_sbu_0, # of connection points: 4
#     Node 27, Type 0, BuildingBlock: CEKHIL_clean_sbu_0, # of connection points: 4
#     Node 28, Type 0, BuildingBlock: CEKHIL_clean_sbu_0, # of connection points: 4
#     Node 29, Type 0, BuildingBlock: CEKHIL_clean_sbu_0, # of connection points: 4
#     Node 30, Type 0, BuildingBlock: CEKHIL_clean_sbu_0, # of connection points: 4
#     Node 31, Type 0, BuildingBlock: CEKHIL_clean_sbu_0, # of connection points: 4
#     Node 32, Type 0, BuildingBlock: CEKHIL_clean_sbu_0, # of connection points: 4
#     Node 33, Type 0, BuildingBlock: CEKHIL_clean_sbu_0, # of connection points: 4
#     Node 34, Type 0, BuildingBlock: CEKHIL_clean_sbu_0, # of connection points: 4
#     Node 35, Type 0, BuildingBlock: CEKHIL_clean_sbu_0, # of connection points: 4
#     Edge 36, Type (0, 0), BuildingBlock: AJUNOK_clean_linker_0, # of connection points: 2
#     Edge 37, Type (0, 0), BuildingBlock: AJUNOK_clean_linker_0, # of connection points: 2
#     Edge 38, Type (0, 0), BuildingBlock: AJUNOK_clean_linker_0, # of connection points: 2
#     Edge 39, Type (0, 0), BuildingBlock: AJUNOK_clean_linker_0, # of connection points: 2
#     Edge 40, Type (0, 0), BuildingBlock: AJUNOK_clean_linker_0, # of connection points: 2
#     Edge 41, Type (0, 0), BuildingBlock: AJUNOK_clean_linker_0, # of connection points: 2
#     Edge 42, Type (0, 0), BuildingBlock: AJUNOK_clean_linker_0, # of connection points: 2
#     Edge 43, Type (0, 0), BuildingBlock: AJUNOK_clean_linker_0, # of connection points: 2
#     Edge 44, Type (0, 0), BuildingBlock: AJUNOK_clean_linker_0, # of connection points: 2
#     Edge 45, Type (0, 0), BuildingBlock: AJUNOK_clean_linker_0, # of connection points: 2
#     Edge 46, Type (0, 0), BuildingBlock: AJUNOK_clean_linker_0, # of connection points: 2
#     Edge 47, Type (0, 0), BuildingBlock: AJUNOK_clean_linker_0, # of connection points: 2
#     Edge 48, Type (0, 0), BuildingBlock: AJUNOK_clean_linker_0, # of connection points: 2
#     Edge 49, Type (0, 0), BuildingBlock: AJUNOK_clean_linker_0, # of connection points: 2
#     Edge 50, Type (0, 0), BuildingBlock: AJUNOK_clean_linker_0, # of connection points: 2
#     Edge 51, Type (0, 0), BuildingBlock: AJUNOK_clean_linker_0, # of connection points: 2
#     Edge 52, Type (0, 0), BuildingBlock: AJUNOK_clean_linker_0, # of connection points: 2
#     Edge 53, Type (0, 0), BuildingBlock: AJUNOK_clean_linker_0, # of connection points: 2
#     Edge 54, Type (0, 0), BuildingBlock: AJUNOK_clean_linker_0, # of connection points: 2
#     Edge 55, Type (0, 0), BuildingBlock: AJUNOK_clean_linker_0, # of connection points: 2
#     Edge 56, Type (0, 0), BuildingBlock: AJUNOK_clean_linker_0, # of connection points: 2
#     Edge 57, Type (0, 0), BuildingBlock: AJUNOK_clean_linker_0, # of connection points: 2
#     Edge 58, Type (0, 0), BuildingBlock: AJUNOK_clean_linker_0, # of connection points: 2
#     Edge 59, Type (0, 0), BuildingBlock: AJUNOK_clean_linker_0, # of connection points: 2
#     Edge 60, Type (0, 0), BuildingBlock: AJUNOK_clean_linker_0, # of connection points: 2
#     Edge 61, Type (0, 0), BuildingBlock: AJUNOK_clean_linker_0, # of connection points: 2
#     Edge 62, Type (0, 0), BuildingBlock: AJUNOK_clean_linker_0, # of connection points: 2
#     Edge 63, Type (0, 0), BuildingBlock: AJUNOK_clean_linker_0, # of connection points: 2
#     Edge 64, Type (0, 0), BuildingBlock: AJUNOK_clean_linker_0, # of connection points: 2
#     Edge 65, Type (0, 0), BuildingBlock: AJUNOK_clean_linker_0, # of connection points: 2
#     Edge 66, Type (0, 0), BuildingBlock: AJUNOK_clean_linker_0, # of connection points: 2
#     Edge 67, Type (0, 0), BuildingBlock: AJUNOK_clean_linker_0, # of connection points: 2
#     Edge 68, Type (0, 0), BuildingBlock: AJUNOK_clean_linker_0, # of connection points: 2
#     Edge 69, Type (0, 0), BuildingBlock: AJUNOK_clean_linker_0, # of connection points: 2
#     Edge 70, Type (0, 0), BuildingBlock: AJUNOK_clean_linker_0, # of connection points: 2
#     Edge 71, Type (0, 0), BuildingBlock: AJUNOK_clean_linker_0, # of connection points: 2
#     Edge 72, Type (0, 0), BuildingBlock: AJUNOK_clean_linker_0, # of connection points: 2
#     Edge 73, Type (0, 0), BuildingBlock: AJUNOK_clean_linker_0, # of connection points: 2
#     Edge 74, Type (0, 0), BuildingBlock: AJUNOK_clean_linker_0, # of connection points: 2
#     Edge 75, Type (0, 0), BuildingBlock: AJUNOK_clean_linker_0, # of connection points: 2
#     Edge 76, Type (0, 0), BuildingBlock: AJUNOK_clean_linker_0, # of connection points: 2
#     Edge 77, Type (0, 0), BuildingBlock: AJUNOK_clean_linker_0, # of connection points: 2
#     Edge 78, Type (0, 0), BuildingBlock: AJUNOK_clean_linker_0, # of connection points: 2
#     Edge 79, Type (0, 0), BuildingBlock: AJUNOK_clean_linker_0, # of connection points: 2
#     Edge 80, Type (0, 0), BuildingBlock: AJUNOK_clean_linker_0, # of connection points: 2
#     Edge 81, Type (0, 0), BuildingBlock: AJUNOK_clean_linker_0, # of connection points: 2
#     Edge 82, Type (0, 0), BuildingBlock: AJUNOK_clean_linker_0, # of connection points: 2
#     Edge 83, Type (0, 0), BuildingBlock: AJUNOK_clean_linker_0, # of connection points: 2
#     Edge 84, Type (0, 0), BuildingBlock: AJUNOK_clean_linker_0, # of connection points: 2
#     Edge 85, Type (0, 0), BuildingBlock: AJUNOK_clean_linker_0, # of connection points: 2
#     Edge 86, Type (0, 0), BuildingBlock: AJUNOK_clean_linker_0, # of connection points: 2
#     Edge 87, Type (0, 0), BuildingBlock: AJUNOK_clean_linker_0, # of connection points: 2
#     Edge 88, Type (0, 0), BuildingBlock: AJUNOK_clean_linker_0, # of connection points: 2
#     Edge 89, Type (0, 0), BuildingBlock: AJUNOK_clean_linker_0, # of connection points: 2
#     Edge 90, Type (0, 0), BuildingBlock: AJUNOK_clean_linker_0, # of connection points: 2
#     Edge 91, Type (0, 0), BuildingBlock: AJUNOK_clean_linker_0, # of connection points: 2
#     Edge 92, Type (0, 0), BuildingBlock: AJUNOK_clean_linker_0, # of connection points: 2
#     Edge 93, Type (0, 0), BuildingBlock: AJUNOK_clean_linker_0, # of connection points: 2
#     Edge 94, Type (0, 0), BuildingBlock: AJUNOK_clean_linker_0, # of connection points: 2
#     Edge 95, Type (0, 0), BuildingBlock: AJUNOK_clean_linker_0, # of connection points: 2
#     Edge 96, Type (0, 0), BuildingBlock: AJUNOK_clean_linker_0, # of connection points: 2
#     Edge 97, Type (0, 0), BuildingBlock: AJUNOK_clean_linker_0, # of connection points: 2
#     Edge 98, Type (0, 0), BuildingBlock: AJUNOK_clean_linker_0, # of connection points: 2
#     Edge 99, Type (0, 0), BuildingBlock: AJUNOK_clean_linker_0, # of connection points: 2
#     Edge 100, Type (0, 0), BuildingBlock: AJUNOK_clean_linker_0, # of connection points: 2
#     Edge 101, Type (0, 0), BuildingBlock: AJUNOK_clean_linker_0, # of connection points: 2
#     Edge 102, Type (0, 0), BuildingBlock: AJUNOK_clean_linker_0, # of connection points: 2
#     Edge 103, Type (0, 0), BuildingBlock: AJUNOK_clean_linker_0, # of connection points: 2
#     Edge 104, Type (0, 0), BuildingBlock: AJUNOK_clean_linker_0, # of connection points: 2
#     Edge 105, Type (0, 0), BuildingBlock: AJUNOK_clean_linker_0, # of connection points: 2
#     Edge 106, Type (0, 0), BuildingBlock: AJUNOK_clean_linker_0, # of connection points: 2
#     Edge 107, Type (0, 0), BuildingBlock: AJUNOK_clean_linker_0, # of connection points: 2
# Relax obj value: 0.039
# Max RMSD: 0.121
# Mean RMSD: 0.121
data_MOF--net-unl--node1-CEKHIL_clean_sbu_0--edge1-AJUNOK_clean_linker_0
_symmetry_space_group_name_H-M    P1
_symmetry_Int_Tables_number       1
_symmetry_cell_setting            triclinic
loop_
_symmetry_equiv_pos_as_xyz
'x, y, z'
_cell_length_a     47.301027
_cell_length_b     47.292511
_cell_length_c     30.034583
_cell_angle_alpha  89.999135
_cell_angle_beta   90.033054
_cell_angle_gamma 120.01532
loop_
_atom_site_label
_atom_site_type_symbol
_atom_site_fract_x
_atom_site_fract_y
_atom_site_fract_z
_atom_type_partial_charge
Co0 Co 0.22285 0.1245 0.1087 0.0
O1 O 0.25069 0.11624 0.14702 0.0
O2 O 0.26622 0.16292 0.11266 0.0
C3 C 0.20302 0.0769 0.06999 0.0
O4 O 0.20108 0.14156 0.06559 0.0
Co5 Co 0.14738 0.0777 0.10877 0.0
O6 O 0.14873 0.10242 0.0548 0.0
C7 C 0.17903 0.12633 0.18117 0.0
C8 C 0.27394 0.1456 0.13833 0.0
C9 C 0.17322 0.13028 0.04585 0.0
O10 O 0.20684 0.13973 0.1611 0.0
O11 O 0.15386 0.10014 0.16765 0.0
O12 O 0.23095 0.10203 0.05953 0.0
O13 O 0.18941 0.08069 0.10489 0.0
Co14 Co 0.88855 0.1025 0.10806 0.0
O15 O 0.89547 0.1393 0.14442 0.0
O16 O 0.84991 0.10704 0.10835 0.0
C17 C 0.93713 0.12977 0.07117 0.0
O18 O 0.87242 0.06306 0.06612 0.0
Co19 Co 0.93466 0.07342 0.11311 0.0
O20 O 0.91152 0.04953 0.05855 0.0
C21 C 0.8851 0.05782 0.18338 0.0
C22 C 0.86621 0.1326 0.13352 0.0
C23 C 0.88395 0.04621 0.04787 0.0
O24 O 0.87223 0.07208 0.16156 0.0
O25 O 0.91129 0.05827 0.17144 0.0
O26 O 0.91221 0.13233 0.05863 0.0
O27 O 0.93253 0.11291 0.10693 0.0
Co28 Co 0.91402 0.79216 0.10808 0.0
O29 O 0.87818 0.76407 0.14668 0.0
O30 O 0.90996 0.74921 0.11269 0.0
C31 C 0.88565 0.81104 0.06871 0.0
O32 O 0.95254 0.81404 0.06454 0.0
Co33 Co 0.94154 0.86747 0.10689 0.0
O34 O 0.9642 0.86578 0.05238 0.0
C35 C 0.95917 0.8372 0.18035 0.0
C36 C 0.88485 0.74115 0.1383 0.0
C37 C 0.96815 0.84159 0.04381 0.0
O38 O 0.94539 0.80923 0.16054 0.0
O39 O 0.95753 0.8619 0.1662 0.0
O40 O 0.88317 0.78315 0.05881 0.0
O41 O 0.90294 0.82504 0.10357 0.0
Co42 Co 0.12564 0.21785 0.38949 0.0
O43 O 0.11895 0.24505 0.34759 0.0
O44 O 0.16428 0.26106 0.38563 0.0
C45 C 0.07672 0.19899 0.42486 0.0
O46 O 0.14144 0.19742 0.43675 0.0
Co47 Co 0.07871 0.14252 0.39493 0.0
O48 O 0.10099 0.14652 0.45227 0.0
C49 C 0.13157 0.17051 0.32667 0.0
C50 C 0.14796 0.2685 0.35769 0.0
C51 C 0.12909 0.17097 0.4601 0.0
O52 O 0.14234 0.2 0.34071 0.0
O53 O 0.10597 0.14573 0.34231 0.0
O54 O 0.10156 0.22719 0.43523 0.0
O55 O 0.08168 0.1845 0.39203 0.0
Co56 Co 0.79678 0.91442 0.39289 0.0
O57 O 0.76816 0.88046 0.35186 0.0
O58 O 0.75417 0.91106 0.3908 0.0
C59 C 0.81518 0.88389 0.42787 0.0
O60 O 0.81871 0.95084 0.43962 0.0
Co61 Co 0.87185 0.94174 0.39464 0.0
O62 O 0.86977 0.96081 0.45237 0.0
C63 C 0.84323 0.96787 0.32935 0.0
C64 C 0.74553 0.88698 0.36303 0.0
C65 C 0.84576 0.96482 0.46171 0.0
O66 O 0.81401 0.94861 0.34372 0.0
O67 O 0.86844 0.96736 0.34385 0.0
O68 O 0.78741 0.88127 0.43875 0.0
O69 O 0.82954 0.90278 0.39436 0.0
Co70 Co 0.10219 0.89025 0.39172 0.0
O71 O 0.13654 0.89737 0.35049 0.0
O72 O 0.10618 0.85139 0.38678 0.0
C73 C 0.13213 0.9382 0.42929 0.0
O74 O 0.06536 0.87394 0.43798 0.0
Co75 Co 0.07455 0.93776 0.39745 0.0
O76 O 0.05414 0.9139 0.45314 0.0
C77 C 0.05006 0.88589 0.32771 0.0
C78 C 0.13042 0.86805 0.35969 0.0
C79 C 0.05034 0.88568 0.46053 0.0
O80 O 0.06836 0.87472 0.34202 0.0
O81 O 0.05097 0.91144 0.34377 0.0
O82 O 0.13499 0.91294 0.4386 0.0
O83 O 0.11338 0.93438 0.39594 0.0
Co84 Co 0.79112 0.88558 0.89395 0.0
O85 O 0.76106 0.89219 0.85762 0.0
O86 O 0.74838 0.84637 0.89254 0.0
C87 C 0.81117 0.93338 0.93247 0.0
O88 O 0.81484 0.8698 0.93547 0.0
Co89 Co 0.86625 0.93362 0.88992 0.0
O90 O 0.8671 0.90983 0.94374 0.0
C91 C 0.83369 0.88387 0.81912 0.0
C92 C 0.73884 0.86263 0.86783 0.0
C93 C 0.84325 0.88183 0.95378 0.0
O94 O 0.8063 0.87041 0.84035 0.0
O95 O 0.85891 0.91044 0.83152 0.0
O96 O 0.78376 0.90797 0.94397 0.0
O97 O 0.82398 0.92983 0.89653 0.0
Co98 Co 0.12756 0.91113 0.88907 0.0
O99 O 0.12079 0.87665 0.84834 0.0
O100 O 0.16638 0.90693 0.88551 0.0
C101 C 0.07929 0.8815 0.92588 0.0
O102 O 0.14327 0.94817 0.93491 0.0
Co103 Co 0.08007 0.93892 0.89168 0.0
O104 O 0.10307 0.95947 0.94784 0.0
C105 C 0.13446 0.96467 0.82587 0.0
C106 C 0.14995 0.88266 0.8583 0.0
C107 C 0.13119 0.96337 0.95631 0.0
O108 O 0.14404 0.94492 0.83943 0.0
O109 O 0.1091 0.96459 0.84099 0.0
O110 O 0.10441 0.87859 0.93589 0.0
O111 O 0.08336 0.89999 0.89206 0.0
Co112 Co 0.106 0.22551 0.89662 0.0
O113 O 0.14253 0.25526 0.86004 0.0
O114 O 0.11023 0.26857 0.89597 0.0
C115 C 0.13351 0.20475 0.93393 0.0
O116 O 0.06673 0.20189 0.93867 0.0
Co117 Co 0.0779 0.1503 0.89093 0.0
O118 O 0.05478 0.14965 0.94626 0.0
C119 C 0.061 0.18394 0.82161 0.0
C120 C 0.13573 0.27776 0.87072 0.0
C121 C 0.05093 0.17353 0.95728 0.0
O122 O 0.07543 0.21108 0.84334 0.0
O123 O 0.06165 0.15823 0.8332 0.0
O124 O 0.13594 0.23224 0.94607 0.0
O125 O 0.11682 0.19227 0.89805 0.0
Co126 Co 0.88931 0.79349 0.61142 0.0
O127 O 0.89597 0.76574 0.65231 0.0
O128 O 0.8507 0.75015 0.61433 0.0
C129 C 0.9381 0.8125 0.57578 0.0
O130 O 0.87376 0.8147 0.56499 0.0
Co131 Co 0.93657 0.86885 0.60839 0.0
O132 O 0.91405 0.86609 0.55166 0.0
C133 C 0.88268 0.84003 0.67522 0.0
C134 C 0.8671 0.74233 0.6416 0.0
C135 C 0.88597 0.84182 0.5431 0.0
O136 O 0.87241 0.81068 0.6609 0.0
O137 O 0.90826 0.86511 0.6601 0.0
O138 O 0.91317 0.78449 0.56513 0.0
O139 O 0.93343 0.82674 0.60923 0.0
Co140 Co 0.22422 0.10437 0.61016 0.0
O141 O 0.25308 0.14057 0.64783 0.0
O142 O 0.26793 0.11 0.61058 0.0
C143 C 0.20236 0.13159 0.57446 0.0
O144 O 0.20173 0.06574 0.56681 0.0
Co145 Co 0.14875 0.07419 0.61502 0.0
O146 O 0.14901 0.052 0.55925 0.0
C147 C 0.18297 0.05753 0.68371 0.0
C148 C 0.27627 0.1349 0.63675 0.0
C149 C 0.17347 0.04917 0.54812 0.0
O150 O 0.21025 0.07287 0.66241 0.0
O151 O 0.15698 0.05765 0.67218 0.0
O152 O 0.23016 0.13497 0.56188 0.0
O153 O 0.19014 0.114 0.60964 0.0
Co154 Co 0.9161 0.12592 0.61325 0.0
O155 O 0.88169 0.12002 0.65384 0.0
O156 O 0.91145 0.1644 0.61408 0.0
C157 C 0.8868 0.07635 0.57917 0.0
O158 O 0.95261 0.1411 0.56674 0.0
Co159 Co 0.9457 0.08014 0.61266 0.0
O160 O 0.96426 0.10108 0.55472 0.0
C161 C 0.97037 0.13535 0.67696 0.0
C162 C 0.88746 0.1488 0.64185 0.0
C163 C 0.9673 0.12867 0.54501 0.0
O164 O 0.95028 0.14424 0.66247 0.0
O165 O 0.97088 0.11007 0.66283 0.0
O166 O 0.88326 0.10084 0.5675 0.0
O167 O 0.90586 0.08189 0.6128 0.0
Co168 Co 0.896 0.46259 0.4412 0.0
O169 O 0.9261 0.45669 0.47839 0.0
O170 O 0.93878 0.50179 0.4415 0.0
C171 C 0.87586 0.41394 0.40479 0.0
O172 O 0.87219 0.47748 0.39836 0.0
Co173 Co 0.82087 0.41464 0.44582 0.0
O174 O 0.82023 0.43677 0.39012 0.0
C175 C 0.85361 0.4656 0.51518 0.0
C176 C 0.94834 0.48598 0.46712 0.0
C177 C 0.84399 0.46461 0.37928 0.0
O178 O 0.88095 0.4788 0.49383 0.0
O179 O 0.82839 0.43882 0.50338 0.0
O180 O 0.90318 0.43912 0.39245 0.0
O181 O 0.86316 0.41833 0.44024 0.0
Co182 Co 0.55673 0.43422 0.44066 0.0
O183 O 0.56504 0.47067 0.47836 0.0
O184 O 0.51829 0.43915 0.44435 0.0
C185 C 0.60409 0.46155 0.4013 0.0
O186 O 0.53963 0.39515 0.39796 0.0
Co187 Co 0.60371 0.40573 0.44168 0.0
O188 O 0.57958 0.3831 0.38698 0.0
C189 C 0.55539 0.38928 0.51419 0.0
C190 C 0.53567 0.46448 0.46953 0.0
C191 C 0.55165 0.37943 0.37774 0.0
O192 O 0.54178 0.40335 0.49369 0.0
O193 O 0.58159 0.39032 0.50075 0.0
O194 O 0.57896 0.46439 0.39095 0.0
O195 O 0.60053 0.44461 0.43664 0.0
Co196 Co 0.58217 0.12482 0.44345 0.0
O197 O 0.54732 0.09559 0.48297 0.0
O198 O 0.57933 0.08243 0.44608 0.0
C199 C 0.55198 0.14275 0.40632 0.0
O200 O 0.61969 0.14738 0.39851 0.0
Co201 Co 0.60811 0.19979 0.44127 0.0
O202 O 0.62986 0.1985 0.38566 0.0
C203 C 0.63314 0.17181 0.50941 0.0
C204 C 0.55438 0.07324 0.47236 0.0
C205 C 0.63453 0.17475 0.37728 0.0
O206 O 0.61522 0.14249 0.49425 0.0
O207 O 0.6319 0.19649 0.49429 0.0
O208 O 0.55004 0.11522 0.39578 0.0
O209 O 0.56991 0.15706 0.4406 0.0
Co210 Co 0.79504 0.55406 0.72186 0.0
O211 O 0.7898 0.5835 0.68221 0.0
O212 O 0.83399 0.59699 0.72179 0.0
C213 C 0.74543 0.53433 0.75576 0.0
O214 O 0.80958 0.53147 0.7674 0.0
Co215 Co 0.74769 0.47881 0.72166 0.0
O216 O 0.76967 0.47955 0.77806 0.0
C217 C 0.80301 0.50897 0.65705 0.0
C218 C 0.81864 0.60614 0.69464 0.0
C219 C 0.79752 0.50377 0.78771 0.0
O220 O 0.81283 0.53806 0.67204 0.0
O221 O 0.77723 0.48358 0.67105 0.0
O222 O 0.77031 0.56189 0.76813 0.0
O223 O 0.75074 0.52092 0.72186 0.0
Co224 Co 0.4633 0.24559 0.72396 0.0
O225 O 0.43414 0.21155 0.6833 0.0
O226 O 0.42128 0.24341 0.72127 0.0
C227 C 0.48065 0.21445 0.75986 0.0
O228 O 0.4856 0.28236 0.76997 0.0
Co229 Co 0.53814 0.27116 0.72758 0.0
O230 O 0.53676 0.29287 0.7832 0.0
C231 C 0.51103 0.29736 0.65978 0.0
C232 C 0.41204 0.21894 0.69404 0.0
C233 C 0.51284 0.29728 0.79147 0.0
O234 O 0.48157 0.2794 0.6743 0.0
O235 O 0.53547 0.29572 0.67504 0.0
O236 O 0.45316 0.21258 0.77052 0.0
O237 O 0.49534 0.23305 0.7263 0.0
Co238 Co 0.77015 0.21766 0.72887 0.0
O239 O 0.80647 0.22605 0.69095 0.0
O240 O 0.77537 0.17938 0.7253 0.0
C241 C 0.79767 0.26536 0.76775 0.0
O242 O 0.73121 0.20041 0.77176 0.0
Co243 Co 0.7412 0.26419 0.72826 0.0
O244 O 0.71817 0.23966 0.78249 0.0
C245 C 0.72448 0.21562 0.65587 0.0
C246 C 0.80055 0.19679 0.69993 0.0
C247 C 0.71479 0.21182 0.79156 0.0
O248 O 0.739 0.20232 0.67606 0.0
O249 O 0.72534 0.24172 0.6694 0.0
O250 O 0.80055 0.24029 0.77831 0.0
O251 O 0.78037 0.26147 0.73266 0.0
Co252 Co 0.46028 0.21772 0.2267 0.0
O253 O 0.43087 0.22437 0.18907 0.0
O254 O 0.41735 0.17887 0.2255 0.0
C255 C 0.48072 0.26631 0.26332 0.0
O256 O 0.4832 0.20192 0.26973 0.0
Co257 Co 0.53551 0.26457 0.22373 0.0
O258 O 0.53557 0.24142 0.27864 0.0
C259 C 0.50273 0.21496 0.15288 0.0
C260 C 0.40835 0.19502 0.19962 0.0
C261 C 0.51132 0.21371 0.28883 0.0
O262 O 0.47536 0.20159 0.17412 0.0
O263 O 0.528 0.24147 0.16527 0.0
O264 O 0.45318 0.24129 0.27546 0.0
O265 O 0.49352 0.26173 0.22817 0.0
Co266 Co 0.79547 0.24736 0.22442 0.0
O267 O 0.78804 0.21289 0.18316 0.0
O268 O 0.83412 0.24292 0.21936 0.0
C269 C 0.74741 0.21754 0.26177 0.0
O270 O 0.81208 0.28438 0.27059 0.0
Co271 Co 0.74821 0.27534 0.23055 0.0
O272 O 0.7725 0.29613 0.28586 0.0
C273 C 0.80033 0.29996 0.16111 0.0
C274 C 0.81727 0.21869 0.19228 0.0
C275 C 0.8007 0.29982 0.29298 0.0
O276 O 0.81115 0.28121 0.17481 0.0
O277 O 0.775 0.29933 0.17742 0.0
O278 O 0.7726 0.21459 0.27126 0.0
O279 O 0.75142 0.23643 0.22855 0.0
Co280 Co 0.7726 0.55408 0.22572 0.0
O281 O 0.80897 0.58414 0.189 0.0
O282 O 0.77612 0.59679 0.2248 0.0
C283 C 0.80061 0.53378 0.26303 0.0
O284 O 0.73339 0.53042 0.26774 0.0
Co285 Co 0.74496 0.479 0.22142 0.0
O286 O 0.72053 0.47797 0.27549 0.0
C287 C 0.7283 0.51197 0.15082 0.0
C288 C 0.8016 0.6063 0.19943 0.0
C289 C 0.71679 0.502 0.28593 0.0
O290 O 0.74197 0.53915 0.17251 0.0
O291 O 0.72968 0.48672 0.16287 0.0
O292 O 0.80274 0.56115 0.27517 0.0
O293 O 0.78382 0.52113 0.22733 0.0
Co294 Co 0.55358 0.12265 0.94266 0.0
O295 O 0.5591 0.09388 0.9832 0.0
O296 O 0.51401 0.08034 0.94572 0.0
C297 C 0.60193 0.14034 0.90636 0.0
O298 O 0.53867 0.14473 0.89682 0.0
Co299 Co 0.60248 0.19762 0.93926 0.0
O300 O 0.57946 0.19583 0.88337 0.0
C301 C 0.54934 0.1701 0.0072 0.0
C302 C 0.52963 0.07149 0.97282 0.0
C303 C 0.55108 0.17192 0.87515 0.0
O304 O 0.53801 0.14068 0.99258 0.0
O305 O 0.57524 0.19472 0.99189 0.0
O306 O 0.57641 0.11272 0.89581 0.0
O307 O 0.59803 0.15492 0.94006 0.0
Co308 Co 0.89065 0.43609 0.94114 0.0
O309 O 0.91913 0.47279 0.97833 0.0
O310 O 0.93418 0.4412 0.94432 0.0
C311 C 0.87025 0.46331 0.90215 0.0
O312 O 0.8682 0.39662 0.89902 0.0
Co313 Co 0.81515 0.40758 0.94316 0.0
O314 O 0.81577 0.38358 0.88949 0.0
C315 C 0.84767 0.39141 0.01519 0.0
C316 C 0.94231 0.46664 0.96933 0.0
C317 C 0.84003 0.37993 0.88006 0.0
O318 O 0.87523 0.4055 0.99442 0.0
O319 O 0.82238 0.39237 0.00211 0.0
O320 O 0.89807 0.46601 0.89127 0.0
O321 O 0.85717 0.44645 0.93763 0.0
Co322 Co 0.58346 0.45877 0.94254 0.0
O323 O 0.54955 0.45183 0.9845 0.0
O324 O 0.57882 0.49732 0.94676 0.0
C325 C 0.55352 0.41008 0.90666 0.0
O326 O 0.61966 0.47479 0.89525 0.0
Co327 Co 0.61203 0.41198 0.93694 0.0
O328 O 0.63017 0.43439 0.87962 0.0
C329 C 0.63698 0.46495 0.00516 0.0
C330 C 0.55506 0.48085 0.97461 0.0
C331 C 0.63373 0.46246 0.87181 0.0
O332 O 0.61798 0.47543 0.99134 0.0
O333 O 0.63646 0.43953 0.98932 0.0
O334 O 0.55008 0.43492 0.89674 0.0
O335 O 0.57291 0.4148 0.93954 0.0
Co336 Co 0.55314 0.79036 0.77725 0.0
O337 O 0.58023 0.7836 0.81921 0.0
O338 O 0.59612 0.8292 0.78187 0.0
C339 C 0.53514 0.742 0.74086 0.0
O340 O 0.5327 0.80613 0.72999 0.0
Co341 Co 0.47796 0.74281 0.77143 0.0
O342 O 0.48201 0.7653 0.71424 0.0
C343 C 0.50526 0.79556 0.83997 0.0
C344 C 0.60358 0.81274 0.80953 0.0
C345 C 0.5063 0.79352 0.70648 0.0
O346 O 0.5348 0.80644 0.82614 0.0
O347 O 0.48059 0.76998 0.82403 0.0
O348 O 0.56328 0.76714 0.73129 0.0
O349 O 0.52017 0.74621 0.77379 0.0
Co350 Co 0.2243 0.76921 0.77488 0.0
O351 O 0.23 0.80493 0.81256 0.0
O352 O 0.18531 0.77306 0.77448 0.0
C353 C 0.27349 0.79779 0.73981 0.0
O354 O 0.20956 0.731 0.73114 0.0
Co355 Co 0.27123 0.74102 0.77955 0.0
O356 O 0.25016 0.71969 0.72266 0.0
C357 C 0.22048 0.72348 0.84883 0.0
C358 C 0.20086 0.7981 0.80073 0.0
C359 C 0.22255 0.71602 0.71144 0.0
O360 O 0.20736 0.73753 0.82706 0.0
O361 O 0.2472 0.72488 0.83724 0.0
O362 O 0.24862 0.80032 0.72692 0.0
O363 O 0.26842 0.7802 0.77492 0.0
Co364 Co 0.25055 0.4625 0.77804 0.0
O365 O 0.21652 0.43594 0.82 0.0
O366 O 0.24553 0.41919 0.78268 0.0
C367 C 0.22097 0.48135 0.74158 0.0
O368 O 0.28685 0.48238 0.73093 0.0
Co369 Co 0.27966 0.53788 0.77256 0.0
O370 O 0.29863 0.53377 0.71592 0.0
C371 C 0.3045 0.50958 0.84045 0.0
C372 C 0.2218 0.41224 0.81045 0.0
C373 C 0.30187 0.50906 0.70815 0.0
O374 O 0.28502 0.48016 0.82685 0.0
O375 O 0.30439 0.53468 0.82458 0.0
O376 O 0.21736 0.45295 0.73206 0.0
O377 O 0.24025 0.49609 0.77457 0.0
Co378 Co 0.45872 0.88494 0.06057 0.0
O379 O 0.45056 0.91319 0.02284 0.0
O380 O 0.49694 0.92856 0.05791 0.0
C381 C 0.41067 0.86416 0.09862 0.0
O382 O 0.47566 0.86297 0.10363 0.0
Co383 Co 0.41272 0.80949 0.05853 0.0
O384 O 0.4361 0.81071 0.1138 0.0
C385 C 0.46126 0.84226 0.98668 0.0
C386 C 0.47973 0.93651 0.03239 0.0
C387 C 0.46377 0.83516 0.12365 0.0
O388 O 0.47456 0.86975 0.0077 0.0
O389 O 0.43509 0.81685 0.9996 0.0
O390 O 0.43556 0.89209 0.10978 0.0
O391 O 0.41495 0.85117 0.06341 0.0
Co392 Co 0.12865 0.57989 0.05892 0.0
O393 O 0.09996 0.54535 0.01848 0.0
O394 O 0.08613 0.57667 0.05587 0.0
C395 C 0.14689 0.54975 0.09543 0.0
O396 O 0.15045 0.61701 0.10468 0.0
Co397 Co 0.20374 0.60695 0.06257 0.0
O398 O 0.20184 0.62831 0.11825 0.0
C399 C 0.17571 0.63203 0.99451 0.0
C400 C 0.07739 0.55216 0.02887 0.0
C401 C 0.17763 0.63229 0.12634 0.0
O402 O 0.14631 0.61349 0.0089 0.0
O403 O 0.20053 0.63122 0.01003 0.0
O404 O 0.11911 0.54729 0.10586 0.0
O405 O 0.16133 0.56825 0.06169 0.0
Co406 Co 0.44054 0.55363 0.06015 0.0
O407 O 0.47722 0.56033 0.02378 0.0
O408 O 0.44439 0.5146 0.05908 0.0
C409 C 0.46833 0.60192 0.09777 0.0
O410 O 0.40099 0.53756 0.10175 0.0
Co411 Co 0.41266 0.60093 0.05661 0.0
O412 O 0.38782 0.57688 0.1101 0.0
C413 C 0.39654 0.5519 0.98516 0.0
C414 C 0.47006 0.53084 0.03415 0.0
C415 C 0.3841 0.54903 0.12 0.0
O416 O 0.41016 0.5382 0.00657 0.0
O417 O 0.3978 0.57838 0.99773 0.0
O418 O 0.47042 0.57667 0.10996 0.0
O419 O 0.45155 0.59774 0.06207 0.0
Co420 Co 0.13472 0.55743 0.55451 0.0
O421 O 0.10741 0.56452 0.51333 0.0
O422 O 0.09134 0.51912 0.55127 0.0
C423 C 0.15434 0.60627 0.59044 0.0
O424 O 0.15522 0.54133 0.60113 0.0
Co425 Co 0.2101 0.60339 0.55781 0.0
O426 O 0.2068 0.581 0.61481 0.0
C427 C 0.18068 0.54985 0.49069 0.0
C428 C 0.08388 0.53563 0.52371 0.0
C429 C 0.18216 0.55317 0.62332 0.0
O430 O 0.15151 0.54009 0.50516 0.0
O431 O 0.20605 0.57515 0.50583 0.0
O432 O 0.12607 0.58157 0.60074 0.0
O433 O 0.16846 0.60139 0.557 0.0
Co434 Co 0.46263 0.57786 0.55736 0.0
O435 O 0.45715 0.54351 0.51701 0.0
O436 O 0.50176 0.57431 0.55588 0.0
C437 C 0.41367 0.54784 0.59235 0.0
O438 O 0.47734 0.61473 0.60331 0.0
Co439 Co 0.41508 0.60549 0.5581 0.0
O440 O 0.437 0.62598 0.61486 0.0
C441 C 0.47032 0.63139 0.49366 0.0
C442 C 0.48627 0.55003 0.52843 0.0
C443 C 0.46497 0.62983 0.62424 0.0
O444 O 0.47981 0.61171 0.50784 0.0
O445 O 0.44479 0.6313 0.50803 0.0
O446 O 0.43871 0.54514 0.60362 0.0
O447 O 0.41831 0.56647 0.55849 0.0
Co448 Co 0.43738 0.88606 0.55643 0.0
O449 O 0.47177 0.91366 0.51543 0.0
O450 O 0.44323 0.92986 0.55491 0.0
C451 C 0.46644 0.86545 0.59036 0.0
O452 O 0.40089 0.86523 0.60319 0.0
Co453 Co 0.40717 0.81046 0.55788 0.0
O454 O 0.38893 0.81348 0.61576 0.0
C455 C 0.38248 0.84113 0.49362 0.0
C456 C 0.46706 0.93739 0.52708 0.0
C457 C 0.38601 0.83816 0.62511 0.0
O458 O 0.4029 0.87022 0.50755 0.0
O459 O 0.38191 0.81535 0.50796 0.0
O460 O 0.47036 0.89364 0.60195 0.0
O461 O 0.44704 0.85191 0.55707 0.0
Co462 Co 0.22199 0.45578 0.27078 0.0
O463 O 0.22848 0.42578 0.30751 0.0
O464 O 0.18266 0.41313 0.2726 0.0
C465 C 0.2698 0.47556 0.2324 0.0
O466 O 0.20616 0.4793 0.22886 0.0
Co467 Co 0.27018 0.53097 0.2735 0.0
O468 O 0.24617 0.53145 0.21969 0.0
C469 C 0.22123 0.49898 0.34531 0.0
C470 C 0.19884 0.4036 0.29753 0.0
C471 C 0.2181 0.50753 0.21003 0.0
O472 O 0.20721 0.47148 0.32427 0.0
O473 O 0.2478 0.52395 0.33241 0.0
O474 O 0.24435 0.44813 0.22091 0.0
O475 O 0.26618 0.48855 0.26809 0.0
Co476 Co 0.55903 0.76951 0.27623 0.0
O477 O 0.58709 0.80618 0.31374 0.0
O478 O 0.60309 0.77608 0.27766 0.0
C479 C 0.53655 0.79563 0.23921 0.0
O480 O 0.53738 0.73051 0.23329 0.0
Co481 Co 0.48341 0.73804 0.2805 0.0
O482 O 0.48459 0.71639 0.22467 0.0
C483 C 0.51805 0.72277 0.3501 0.0
C484 C 0.61074 0.80102 0.30349 0.0
C485 C 0.50935 0.71396 0.214 0.0
O486 O 0.54534 0.73846 0.32894 0.0
O487 O 0.49177 0.72214 0.33813 0.0
O488 O 0.56469 0.79956 0.22731 0.0
O489 O 0.52438 0.77827 0.27461 0.0
Co490 Co 0.24431 0.79409 0.27666 0.0
O491 O 0.2081 0.78818 0.31331 0.0
O492 O 0.24068 0.83326 0.27648 0.0
C493 C 0.21628 0.74552 0.2401 0.0
O494 O 0.28324 0.80888 0.2343 0.0
Co495 Co 0.27169 0.74641 0.28323 0.0
O496 O 0.2945 0.7681 0.22735 0.0
C497 C 0.28971 0.7979 0.35144 0.0
C498 C 0.21522 0.81748 0.30194 0.0
C499 C 0.29859 0.79583 0.21581 0.0
O500 O 0.27524 0.81054 0.32961 0.0
O501 O 0.28867 0.77127 0.34032 0.0
O502 O 0.21404 0.77063 0.22765 0.0
O503 O 0.23301 0.74984 0.27596 0.0
C504 C 0.15378 0.02326 0.05161 0.0
C505 C 0.18652 0.04668 0.0426 0.0
C506 C 0.13662 0.99546 0.02487 0.0
C507 C 0.15161 0.98952 0.98846 0.0
H508 H 0.14085 0.0268 0.07881 0.0
H509 H 0.11109 0.97885 0.03212 0.0
S510 S 0.23739 0.04208 0.95193 0.0
N511 N 0.23372 0.06128 0.99555 0.0
N512 N 0.20149 0.00872 0.94564 0.0
C513 C 0.18473 0.01193 0.98013 0.0
C514 C 0.20215 0.04059 0.00704 0.0
C515 C 0.97253 0.16308 0.00719 0.0
C516 C 0.96793 0.14344 0.04487 0.0
C517 C 1.00061 0.17469 0.98042 0.0
C518 C 0.02486 0.16667 0.99 0.0
H519 H 0.95402 0.16904 0.99772 0.0
H520 H 1.00255 0.18868 0.95085 0.0
S521 S 0.02651 0.11885 0.0867 0.0
N522 N 0.99189 0.11905 0.09218 0.0
N523 N 0.04371 0.13986 0.04102 0.0
C524 C 0.0212 0.14812 0.02829 0.0
C525 C 0.99301 0.13679 0.05595 0.0
C526 C 0.87092 0.87715 0.02172 0.0
C527 C 0.85002 0.86187 0.98537 0.0
C528 C 0.88147 0.86017 0.04896 0.0
C529 C 0.87218 0.82736 0.04044 0.0
H530 H 0.87963 0.90267 0.02879 0.0
H531 H 0.89775 0.87328 0.07628 0.0
S532 S 0.81738 0.77606 0.94936 0.0
N533 N 0.81975 0.81185 0.94265 0.0
N534 N 0.84008 0.77998 0.99333 0.0
C535 C 0.85077 0.81156 0.0046 0.0
C536 C 0.83954 0.82878 0.97725 0.0
C537 C 0.01606 0.18063 0.51943 0.0
C538 C 0.99172 0.14821 0.51061 0.0
C539 C 0.04309 0.19735 0.49091 0.0
C540 C 0.04647 0.18234 0.45231 0.0
H541 H 0.01516 0.19253 0.54979 0.0
H542 H 0.06191 0.22179 0.49995 0.0
S543 S 0.9868 0.09905 0.41185 0.0
N544 N 0.97123 0.10264 0.45923 0.0
N545 N 0.02097 0.13409 0.40479 0.0
C546 C 0.02108 0.15059 0.4419 0.0
C547 C 0.994 0.13351 0.47128 0.0
C548 C 0.86428 0.87932 0.44693 0.0
C549 C 0.83131 0.86955 0.4549 0.0
C550 C 0.88122 0.8687 0.47419 0.0
C551 C 0.86581 0.84734 0.51013 0.0
H552 H 0.87758 0.89623 0.42031 0.0
H553 H 0.90694 0.87806 0.4678 0.0
S554 S 0.77913 0.81241 0.54339 0.0
N555 N 0.78334 0.83574 0.5001 0.0
N556 N 0.81515 0.81546 0.55093 0.0
C557 C 0.83242 0.83601 0.51718 0.0
C558 C 0.81521 0.84722 0.48973 0.0
C559 C 0.13521 0.99063 0.45153 0.0
C560 C 0.1459 0.96795 0.45773 0.0
C561 C 0.14548 0.01762 0.47976 0.0
C562 C 0.16748 0.02359 0.51483 0.0
H563 H 0.11793 0.9871 0.42547 0.0
H564 H 0.13554 0.03364 0.47463 0.0
S565 S 0.20476 0.97314 0.5437 0.0
N566 N 0.18105 0.95422 0.50058 0.0
N567 N 0.20085 1.00544 0.55313 0.0
C568 C 0.17963 1.00206 0.52026 0.0
C569 C 0.1687 0.97412 0.49189 0.0
C570 C 0.87919 0.01268 0.98099 0.0
C571 C 0.8638 0.01978 0.01578 0.0
C572 C 0.86173 0.98529 0.95357 0.0
C573 C 0.82827 0.96332 0.96041 0.0
H574 H 0.90515 0.02819 0.97532 0.0
H575 H 0.87492 0.98088 0.9276 0.0
S576 S 0.7762 0.9713 0.0462 0.0
N577 N 0.81282 1.00325 0.05463 0.0
N578 N 0.78009 0.9513 0.00375 0.0
C579 C 0.81237 0.97048 0.9945 0.0
C580 C 0.83008 0.99882 0.02195 0.0
C581 C 0.99944 0.86814 0.97468 0.0
C582 C 0.99388 0.84719 0.01097 0.0
C583 C 0.02644 0.87807 0.94661 0.0
C584 C 0.04947 0.86802 0.9541 0.0
H585 H 0.9831 0.87755 0.96843 0.0
H586 H 0.02972 0.89461 0.9196 0.0
S587 S 0.04546 0.81197 0.04368 0.0
N588 N 0.01285 0.81552 0.05191 0.0
N589 N 0.06401 0.83458 0.99959 0.0
C590 C 0.0437 0.84622 0.98951 0.0
C591 C 0.0158 0.83568 0.01778 0.0
C592 C 0.13625 0.15446 0.95167 0.0
C593 C 0.14655 0.18741 0.96089 0.0
C594 C 0.14625 0.13664 0.97816 0.0
C595 C 0.16756 0.15115 0.01442 0.0
H596 H 0.11951 0.14192 0.92454 0.0
H597 H 0.13666 0.11101 0.97071 0.0
S598 S 0.20316 0.23713 0.05147 0.0
N599 N 0.18032 0.2342 0.00813 0.0
N600 N 0.19954 0.20074 0.05739 0.0
C601 C 0.17916 0.18441 0.023 0.0
C602 C 0.16852 0.20249 0.99643 0.0
C603 C 0.99131 0.86216 0.55705 0.0
C604 C 0.96839 0.82917 0.54852 0.0
C605 C 0.01868 0.8797 0.52975 0.0
C606 C 0.02473 0.86491 0.49319 0.0
H607 H 0.98764 0.87502 0.58423 0.0
H608 H 0.03483 0.9054 0.53668 0.0
S609 S 0.97386 0.77841 0.45836 0.0
N610 N 0.95467 0.78182 0.50217 0.0
N611 N 1.00647 0.81476 0.45121 0.0
C612 C 1.00301 0.83149 0.48554 0.0
C613 C 0.97475 0.81366 0.51306 0.0
C614 C 0.18156 0.17416 0.48288 0.0
C615 C 0.14944 0.16618 0.49343 0.0
C616 C 0.19881 0.16353 0.50978 0.0
C617 C 0.18471 0.14485 0.54848 0.0
H618 H 0.19279 0.18713 0.45234 0.0
H619 H 0.22304 0.16924 0.49943 0.0
S620 S 0.10261 0.1213 0.59344 0.0
N621 N 0.10516 0.14091 0.54681 0.0
N622 N 0.13764 0.1218 0.59805 0.0
C623 C 0.15328 0.1385 0.56069 0.0
C624 C 0.13564 0.14892 0.53299 0.0
C625 C 0.85371 0.04133 0.51475 0.0
C626 C 0.87317 0.04566 0.55255 0.0
C627 C 0.84287 0.01383 0.487 0.0
C628 C 0.85144 0.98984 0.49573 0.0
H629 H 0.84751 0.05975 0.50575 0.0
H630 H 0.82919 0.01225 0.45725 0.0
S631 S 0.89858 0.98735 0.5928 0.0
N632 N 0.89766 0.02154 0.59933 0.0
N633 N 0.87821 0.97073 0.54645 0.0
C634 C 0.86958 0.99309 0.53434 0.0
C635 C 0.88018 0.02073 0.56294 0.0
C636 C 0.80785 0.33255 0.36162 0.0
C637 C 0.82198 0.32598 0.32473 0.0
C638 C 0.82582 0.36043 0.388 0.0
C639 C 0.85856 0.38336 0.37813 0.0
H640 H 0.78234 0.31639 0.36954 0.0
H641 H 0.81349 0.36446 0.41553 0.0
S642 S 0.90754 0.37691 0.28628 0.0
N643 N 0.87121 0.34397 0.28081 0.0
N644 N 0.90491 0.3967 0.32995 0.0
C645 C 0.87337 0.3766 0.34218 0.0
C646 C 0.85514 0.34783 0.31566 0.0
C647 C 0.65612 0.46332 0.38027 0.0
C648 C 0.63379 0.47433 0.37302 0.0
C649 C 0.6835 0.47337 0.3529 0.0
C650 C 0.6902 0.49545 0.31771 0.0
H651 H 0.65207 0.4461 0.40664 0.0
H652 H 0.69935 0.46336 0.35897 0.0
S653 S 0.64044 0.53283 0.28555 0.0
N654 N 0.62084 0.50935 0.32852 0.0
N655 N 0.67276 0.52874 0.27763 0.0
C656 C 0.6688 0.50761 0.31093 0.0
C657 C 0.64048 0.49689 0.33838 0.0
C658 C 0.54841 0.19213 0.3856 0.0
C659 C 0.53844 0.15904 0.37804 0.0
C660 C 0.53839 0.20918 0.3576 0.0
C661 C 0.51732 0.19374 0.32144 0.0
H662 H 0.56492 0.20541 0.41261 0.0
H663 H 0.54773 0.23493 0.36385 0.0
S664 S 0.48237 0.10699 0.28847 0.0
N665 N 0.50512 0.11109 0.33246 0.0
N666 N 0.48574 0.14311 0.28042 0.0
C667 C 0.50594 0.16033 0.31452 0.0
C668 C 0.51665 0.14301 0.34263 0.0
C669 C 0.68311 0.51469 0.84845 0.0
C670 C 0.65851 0.48268 0.83807 0.0
C671 C 0.71073 0.53166 0.821 0.0
C672 C 0.71456 0.51738 0.78194 0.0
H673 H 0.68196 0.52597 0.87927 0.0
H674 H 0.72967 0.55573 0.83129 0.0
S675 S 0.65441 0.43569 0.73714 0.0
N676 N 0.63819 0.43847 0.78442 0.0
N677 N 0.6892 0.47044 0.73212 0.0
C678 C 0.68895 0.48615 0.76987 0.0
C679 C 0.66118 0.46879 0.79812 0.0
C680 C 0.52934 0.20924 0.77887 0.0
C681 C 0.49655 0.20007 0.78727 0.0
C682 C 0.54623 0.19862 0.80619 0.0
C683 C 0.53093 0.17778 0.84259 0.0
H684 H 0.54258 0.22566 0.75177 0.0
H685 H 0.57181 0.20749 0.79936 0.0
S686 S 0.44471 0.14442 0.87719 0.0
N687 N 0.44886 0.16739 0.83347 0.0
N688 N 0.48054 0.14697 0.88438 0.0
C689 C 0.4977 0.16702 0.85015 0.0
C690 C 0.48056 0.1783 0.82266 0.0
C691 C 0.81224 0.34671 0.81269 0.0
C692 C 0.83373 0.35318 0.84862 0.0
C693 C 0.80152 0.31875 0.78625 0.0
C694 C 0.81127 0.29564 0.7951 0.0
H695 H 0.80306 0.36311 0.80548 0.0
H696 H 0.78471 0.31488 0.75935 0.0
S697 S 0.86802 0.3015 0.88485 0.0
N698 N 0.86523 0.33473 0.89101 0.0
N699 N 0.84469 0.2818 0.84175 0.0
C700 C 0.8334 0.30217 0.83034 0.0
C701 C 0.84476 0.33104 0.85692 0.0
C702 C 0.49994 0.32891 0.35564 0.0
C703 C 0.53173 0.35375 0.34492 0.0
C704 C 0.48326 0.30096 0.32863 0.0
C705 C 0.49765 0.29709 0.2897 0.0
H706 H 0.48857 0.33025 0.38627 0.0
H707 H 0.45928 0.28192 0.33898 0.0
S708 S 0.57908 0.35755 0.24463 0.0
N709 N 0.576 0.37406 0.29147 0.0
N710 N 0.54461 0.32245 0.23997 0.0
C711 C 0.52876 0.32282 0.2775 0.0
C712 C 0.5458 0.35089 0.30531 0.0
C713 C 0.69391 0.21291 0.28157 0.0
C714 C 0.71732 0.20338 0.2895 0.0
C715 C 0.66641 0.20219 0.30887 0.0
C716 C 0.6607 0.18095 0.34485 0.0
H717 H 0.69723 0.2296 0.25477 0.0
H718 H 0.64981 0.21124 0.30233 0.0
S719 S 0.71314 0.14685 0.37839 0.0
N720 N 0.73205 0.17012 0.33495 0.0
N721 N 0.67999 0.14958 0.38591 0.0
C722 C 0.68303 0.16997 0.35205 0.0
C723 C 0.71142 0.18131 0.32454 0.0
C724 C 0.84465 0.51575 0.35564 0.0
C725 C 0.8372 0.48363 0.34615 0.0
C726 C 0.8332 0.53203 0.32821 0.0
C727 C 0.8143 0.51694 0.28996 0.0
H728 H 0.85805 0.52779 0.3856 0.0
H729 H 0.83865 0.55636 0.33761 0.0
S730 S 0.79157 0.43421 0.24817 0.0
N731 N 0.81182 0.4381 0.29468 0.0
N732 N 0.79136 0.4688 0.24225 0.0
C733 C 0.80828 0.4854 0.279 0.0
C734 C 0.81943 0.46872 0.30734 0.0
C735 C 0.65586 0.18911 0.8879 0.0
C736 C 0.63213 0.15645 0.87883 0.0
C737 C 0.68333 0.20625 0.86067 0.0
C738 C 0.68872 0.19132 0.82371 0.0
H739 H 0.65281 0.20204 0.91553 0.0
H740 H 0.70017 0.23172 0.86803 0.0
S741 S 0.6354 0.10576 0.78676 0.0
N742 N 0.61674 0.10938 0.83105 0.0
N743 N 0.66884 0.14159 0.78031 0.0
C744 C 0.66611 0.15827 0.81531 0.0
C745 C 0.63771 0.14086 0.84271 0.0
C746 C 0.82 0.4655 0.88218 0.0
C747 C 0.85325 0.47638 0.87451 0.0
C748 C 0.80257 0.4757 0.85519 0.0
C749 C 0.81779 0.4978 0.81994 0.0
H750 H 0.80692 0.44819 0.9085 0.0
H751 H 0.77673 0.46565 0.86143 0.0
S752 S 0.90487 0.53526 0.7873 0.0
N753 N 0.9011 0.51159 0.82998 0.0
N754 N 0.86843 0.53122 0.77975 0.0
C755 C 0.85135 0.50998 0.81297 0.0
C756 C 0.86903 0.49913 0.84005 0.0
C757 C 0.55034 0.35719 0.88692 0.0
C758 C 0.53985 0.37987 0.87918 0.0
C759 C 0.54021 0.32974 0.85963 0.0
C760 C 0.51862 0.32336 0.82389 0.0
H761 H 0.56734 0.36104 0.91355 0.0
H762 H 0.54999 0.31374 0.86601 0.0
S763 S 0.48197 0.37371 0.79103 0.0
N764 N 0.50527 0.39316 0.83423 0.0
N765 N 0.48581 0.34121 0.78333 0.0
C766 C 0.50666 0.34494 0.81692 0.0
C767 C 0.5174 0.37328 0.8444 0.0
C768 C 0.46935 0.6612 0.69318 0.0
C769 C 0.48489 0.65563 0.65714 0.0
C770 C 0.48619 0.68855 0.72081 0.0
C771 C 0.51916 0.71192 0.71307 0.0
H772 H 0.44365 0.64465 0.69949 0.0
H773 H 0.47281 0.6918 0.74766 0.0
S774 S 0.57145 0.70813 0.62382 0.0
N775 N 0.53554 0.67505 0.61606 0.0
N776 N 0.56715 0.72681 0.66758 0.0
C777 C 0.53533 0.70615 0.67791 0.0
C778 C 0.51823 0.67793 0.6501 0.0
C779 C 0.33652 0.84081 0.64804 0.0
C780 C 0.3609 0.83313 0.6585 0.0
C781 C 0.30868 0.82996 0.67504 0.0
C782 C 0.3044 0.81139 0.71377 0.0
H783 H 0.33807 0.85371 0.6175 0.0
H784 H 0.28997 0.83543 0.66477 0.0
S785 S 0.36355 0.78843 0.75826 0.0
N786 N 0.38033 0.80806 0.71154 0.0
N787 N 0.32892 0.78869 0.76314 0.0
C788 C 0.32969 0.8053 0.72582 0.0
C789 C 0.35767 0.81588 0.69795 0.0
C790 C 0.20801 0.54816 0.69302 0.0
C791 C 0.18692 0.53285 0.65681 0.0
C792 C 0.21779 0.53093 0.72105 0.0
C793 C 0.20741 0.49775 0.71362 0.0
H794 H 0.21779 0.57399 0.69908 0.0
H795 H 0.23453 0.54416 0.7479 0.0
S796 S 0.15056 0.44575 0.6247 0.0
N797 N 0.15455 0.48209 0.6163 0.0
N798 N 0.17329 0.44972 0.66863 0.0
C799 C 0.18531 0.48176 0.67851 0.0
C800 C 0.17495 0.49928 0.65026 0.0
C801 C 0.37624 0.86301 0.16322 0.0
C802 C 0.38034 0.84734 0.12587 0.0
C803 C 0.3486 0.84692 0.19082 0.0
C804 C 0.32432 0.81443 0.18243 0.0
H805 H 0.3948 0.88769 0.17175 0.0
H806 H 0.34701 0.85947 0.22006 0.0
S807 S 0.32142 0.76334 0.08706 0.0
N808 N 0.35587 0.79816 0.08018 0.0
N809 N 0.30487 0.76787 0.1329 0.0
C810 C 0.32749 0.7989 0.14452 0.0
C811 C 0.35522 0.81536 0.11601 0.0
C812 C 0.19621 0.5458 0.11507 0.0
C813 C 0.16321 0.53593 0.12313 0.0
C814 C 0.21331 0.53538 0.14231 0.0
C815 C 0.19801 0.51404 0.17823 0.0
H816 H 0.20939 0.5625 0.08819 0.0
H817 H 0.23897 0.54461 0.13563 0.0
S818 S 0.11157 0.47936 0.21244 0.0
N819 N 0.11552 0.50249 0.16899 0.0
N820 N 0.14762 0.48241 0.21966 0.0
C821 C 0.16469 0.50282 0.18569 0.0
C822 C 0.14733 0.51391 0.15833 0.0
C823 C 0.5111 0.66392 0.191 0.0
C824 C 0.50392 0.68867 0.18071 0.0
C825 C 0.50009 0.63621 0.16358 0.0
C826 C 0.48188 0.63249 0.12462 0.0
H827 H 0.5238 0.66515 0.22161 0.0
H828 H 0.50521 0.61722 0.17361 0.0
S829 S 0.46026 0.6928 0.08072 0.0
N830 N 0.47966 0.70902 0.12779 0.0
N831 N 0.46005 0.65795 0.0754 0.0
C832 C 0.47627 0.65816 0.11287 0.0
C833 C 0.48698 0.68595 0.14115 0.0
C834 C 0.15511 0.64 0.65578 0.0
C835 C 0.17091 0.6364 0.6182 0.0
C836 C 0.17126 0.667 0.68448 0.0
C837 C 0.20394 0.69115 0.67698 0.0
H838 H 0.13034 0.62141 0.66378 0.0
H839 H 0.15863 0.66813 0.71392 0.0
S840 S 0.25526 0.69556 0.58107 0.0
N841 N 0.2203 0.66146 0.573 0.0
N842 N 0.2507 0.71127 0.62775 0.0
C843 C 0.21954 0.68863 0.63868 0.0
C844 C 0.20302 0.66153 0.60908 0.0
C845 C 0.33304 0.53434 0.63842 0.0
C846 C 0.32711 0.51357 0.67507 0.0
C847 C 0.36035 0.54414 0.61097 0.0
C848 C 0.38331 0.53413 0.61947 0.0
H849 H 0.31691 0.5439 0.63162 0.0
H850 H 0.36401 0.56067 0.5838 0.0
S851 S 0.37809 0.47809 0.70978 0.0
N852 N 0.34549 0.4818 0.71703 0.0
N853 N 0.39714 0.50059 0.66583 0.0
C854 C 0.37702 0.51229 0.65498 0.0
C855 C 0.34884 0.50189 0.68261 0.0
C856 C 0.50975 0.8459 0.68231 0.0
C857 C 0.50146 0.81354 0.67265 0.0
C858 C 0.49912 0.8629 0.65488 0.0
C859 C 0.48012 0.84828 0.61655 0.0
H860 H 0.52293 0.85752 0.71258 0.0
H861 H 0.50499 0.88729 0.66461 0.0
S862 S 0.45585 0.76544 0.57372 0.0
N863 N 0.47571 0.76855 0.62033 0.0
N864 N 0.45656 0.80051 0.56817 0.0
C865 C 0.47352 0.81662 0.60517 0.0
C866 C 0.48397 0.79927 0.63337 0.0
C867 C 0.32273 0.52564 0.21368 0.0
C868 C 0.29993 0.49264 0.20486 0.0
C869 C 0.3505 0.54326 0.18706 0.0
C870 C 0.35717 0.52848 0.15109 0.0
H871 H 0.31876 0.53839 0.24072 0.0
H872 H 0.36667 0.5689 0.19431 0.0
S873 S 0.30635 0.44235 0.11481 0.0
N874 N 0.28656 0.44559 0.15804 0.0
N875 N 0.33923 0.47864 0.1086 0.0
C876 C 0.33533 0.49521 0.14276 0.0
C877 C 0.3066 0.47734 0.16943 0.0
C878 C 0.53334 0.82788 0.17462 0.0
C879 C 0.5187 0.80833 0.21251 0.0
C880 C 0.5162 0.83848 0.14741 0.0
C881 C 0.48365 0.82953 0.15679 0.0
H882 H 0.55801 0.83449 0.16529 0.0
H883 H 0.52794 0.85236 0.11766 0.0
S884 S 0.435 0.7816 0.25396 0.0
N885 N 0.4704 0.78304 0.25978 0.0
N886 N 0.43816 0.80204 0.20793 0.0
C887 C 0.46917 0.81113 0.19534 0.0
C888 C 0.48669 0.80078 0.22339 0.0
C889 C 0.21451 0.69306 0.22122 0.0
C890 C 0.20341 0.7152 0.21302 0.0
C891 C 0.20482 0.6655 0.19424 0.0
C892 C 0.18306 0.65845 0.15846 0.0
H893 H 0.23167 0.69751 0.24786 0.0
H894 H 0.21505 0.64991 0.20089 0.0
S895 S 0.145 0.7073 0.1246 0.0
N896 N 0.16819 0.72732 0.16761 0.0
N897 N 0.14955 0.67518 0.11742 0.0
C898 C 0.17058 0.67954 0.15106 0.0
C899 C 0.1809 0.70799 0.17813 0.0
C900 C 0.1462 0.13173 0.29248 0.0
C901 C 0.14961 0.16312 0.29235 0.0
C902 C 0.15816 0.12108 0.25776 0.0
C903 C 0.17453 0.14143 0.22156 0.0
H904 H 0.13299 0.11456 0.31894 0.0
H905 H 0.15325 0.09611 0.2583 0.0
S906 S 0.19314 0.22688 0.20665 0.0
N907 N 0.17301 0.21545 0.25431 0.0
N908 N 0.19587 0.19528 0.18872 0.0
C909 C 0.18032 0.17367 0.22218 0.0
C910 C 0.16784 0.18458 0.25772 0.0
C911 C 0.83016 0.98624 0.25705 0.0
C912 C 0.84935 0.99334 0.29577 0.0
C913 C 0.84015 0.00877 0.22153 0.0
C914 C 0.86937 0.03904 0.22409 0.0
H915 H 0.80863 0.96242 0.25295 0.0
H916 H 0.82626 1.00154 0.19083 0.0
S917 S 0.92491 0.07146 0.32104 0.0
N918 N 0.89641 0.03459 0.33664 0.0
N919 N 0.91504 0.07633 0.27004 0.0
C920 C 0.88713 0.0473 0.26392 0.0
C921 C 0.87713 0.02461 0.29977 0.0
C922 C 0.97547 0.8607 0.25576 0.0
C923 C 0.97873 0.8426 0.2212 0.0
C924 C 0.99793 0.87309 0.29067 0.0
C925 C 0.02504 0.86831 0.29255 0.0
H926 H 0.95602 0.8665 0.25489 0.0
H927 H 0.9944 0.88748 0.31578 0.0
S928 S 0.04321 0.82014 0.21183 0.0
N929 N 0.0097 0.81835 0.19213 0.0
N930 N 0.05237 0.84186 0.25817 0.0
C931 C 0.02757 0.84849 0.2596 0.0
C932 C 1.00434 0.83562 0.2238 0.0
C933 C 0.86549 0.87748 0.70743 0.0
C934 C 0.86386 0.84689 0.709 0.0
C935 C 0.85299 0.88797 0.74172 0.0
C936 C 0.83788 0.86826 0.77896 0.0
H937 H 0.8778 0.89421 0.68018 0.0
H938 H 0.85666 0.91249 0.74012 0.0
S939 S 0.8242 0.78484 0.79783 0.0
N940 N 0.84347 0.79584 0.74951 0.0
N941 N 0.81971 0.81572 0.81433 0.0
C942 C 0.83384 0.83667 0.77976 0.0
C943 C 0.84683 0.82591 0.74463 0.0
C944 C 0.17744 0.00688 0.71833 0.0
C945 C 0.18006 0.03774 0.72321 0.0
C946 C 0.16478 0.9836 0.75294 0.0
C947 C 0.15412 0.99057 0.79304 0.0
H948 H 0.18294 0.99987 0.68657 0.0
H949 H 0.16123 0.95943 0.74712 0.0
S950 S 0.16084 0.06967 0.82427 0.0
N951 N 0.17453 0.07518 0.77261 0.0
N952 N 0.15122 0.03201 0.83757 0.0
C953 C 0.15917 0.02228 0.79928 0.0
C954 C 0.17197 0.04572 0.76433 0.0
C955 C 0.98774 0.16517 0.75036 0.0
C956 C 0.9957 0.15546 0.71021 0.0
C957 C 0.0104 0.17762 0.78573 0.0
C958 C 0.04159 0.18092 0.78161 0.0
H959 H 0.96327 0.16092 0.75561 0.0
H960 H 1.00267 0.18241 0.81741 0.0
S961 S 0.07596 0.16429 0.68093 0.0
N962 N 0.03835 0.15418 0.66658 0.0
N963 N 0.08038 0.17711 0.73297 0.0
C964 C 0.05054 0.1738 0.74053 0.0
C965 C 0.02773 0.16125 0.70478 0.0
C966 C 0.82221 0.47269 0.62669 0.0
C967 C 0.82269 0.5027 0.62409 0.0
C968 C 0.83513 0.46232 0.59282 0.0
C969 C 0.84951 0.4816 0.55499 0.0
H970 H 0.81034 0.45624 0.65436 0.0
H971 H 0.83223 0.43813 0.59513 0.0
S972 S 0.86048 0.56373 0.53372 0.0
N973 N 0.84148 0.55296 0.58225 0.0
N974 N 0.86603 0.53331 0.51815 0.0
C975 C 0.85257 0.51276 0.55326 0.0
C976 C 0.83916 0.5234 0.58799 0.0
C977 C 0.55063 0.3502 0.62476 0.0
C978 C 0.5188 0.32292 0.62543 0.0
C979 C 0.56125 0.37295 0.5902 0.0
C980 C 0.54049 0.36981 0.55485 0.0
H981 H 0.56811 0.35354 0.65049 0.0
H982 H 0.5865 0.39246 0.59014 0.0
S983 S 0.45383 0.30512 0.54254 0.0
N984 N 0.46564 0.29567 0.5893 0.0
N985 N 0.4858 0.33888 0.52392 0.0
C986 C 0.50789 0.34411 0.55638 0.0
C987 C 0.49697 0.32059 0.59181 0.0
C988 C 0.68624 0.2107 0.54451 0.0
C989 C 0.65841 0.17921 0.54413 0.0
C990 C 0.70883 0.22119 0.57931 0.0
C991 C 0.70498 0.20062 0.61522 0.0
H992 H 0.69014 0.22804 0.51831 0.0
H993 H 0.72879 0.24623 0.57909 0.0
S994 S 0.63843 0.11488 0.62889 0.0
N995 N 0.62972 0.12657 0.58142 0.0
N996 N 0.67262 0.14648 0.64726 0.0
C997 C 0.67864 0.16832 0.61414 0.0
C998 C 0.65528 0.15754 0.57845 0.0
C999 C 0.53462 0.20888 0.04115 0.0
C1000 C 0.53143 0.17761 0.0416 0.0
C1001 C 0.52271 0.21961 0.07584 0.0
C1002 C 0.50671 0.1995 0.11242 0.0
H1003 H 0.54759 0.22588 0.01442 0.0
H1004 H 0.52745 0.24453 0.07502 0.0
S1005 S 0.4888 0.11435 0.12821 0.0
N1006 N 0.50857 0.12555 0.08026 0.0
N1007 N 0.48595 0.14594 0.14591 0.0
C1008 C 0.50113 0.16734 0.11212 0.0
C1009 C 0.5135 0.15631 0.07654 0.0
C1010 C 0.82717 0.37606 0.09205 0.0
C1011 C 0.8434 0.37197 0.05574 0.0
C1012 C 0.81504 0.3534 0.12672 0.0
C1013 C 0.81818 0.32527 0.1265 0.0
H1014 H 0.82247 0.39626 0.09266 0.0
H1015 H 0.80198 0.35748 0.15326 0.0
S1016 S 0.86117 0.30459 0.0405 0.0
N1017 N 0.8642 0.33908 0.02268 0.0
N1018 N 0.84115 0.29603 0.08824 0.0
C1019 C 0.83625 0.32189 0.09177 0.0
C1020 C 0.84887 0.34532 0.05624 0.0
C1021 C 0.69105 0.48111 0.03844 0.0
C1022 C 0.66236 0.4832 0.03949 0.0
C1023 C 0.71367 0.49311 0.07321 0.0
C1024 C 0.70889 0.50813 0.11041 0.0
H1025 H 0.69556 0.46884 0.01122 0.0
H1026 H 0.73433 0.48914 0.07198 0.0
S1027 S 0.6398 0.52295 0.128 0.0
N1028 N 0.63181 0.50395 0.07946 0.0
N1029 N 0.67477 0.52679 0.1452 0.0
C1030 C 0.68166 0.51266 0.11073 0.0
C1031 C 0.6583 0.50018 0.07511 0.0
C1032 C 0.45588 0.82183 0.90973 0.0
C1033 C 0.47637 0.83827 0.94585 0.0
C1034 C 0.46639 0.80987 0.87482 0.0
C1035 C 0.49782 0.81343 0.87458 0.0
H1036 H 0.43085 0.81678 0.90947 0.0
H1037 H 0.44909 0.79656 0.8485 0.0
S1038 S 0.56204 0.85738 0.95969 0.0
N1039 N 0.53044 0.85991 0.97808 0.0
N1040 N 0.5504 0.83719 0.91207 0.0
C1041 C 0.51945 0.83181 0.90905 0.0
C1042 C 0.50865 0.84424 0.94482 0.0
C1043 C 0.22451 0.70865 0.92642 0.0
C1044 C 0.20472 0.70404 0.88922 0.0
C1045 C 0.21383 0.68601 0.96114 0.0
C1046 C 0.18293 0.65742 0.96013 0.0
H1047 H 0.2492 0.72921 0.92768 0.0
H1048 H 0.23063 0.69041 0.98831 0.0
S1049 S 0.12043 0.63544 0.87197 0.0
N1050 N 0.15172 0.67025 0.85466 0.0
N1051 N 0.13144 0.62727 0.92038 0.0
C1052 C 0.16187 0.65357 0.92461 0.0
C1053 C 0.17284 0.67696 0.88899 0.0
C1054 C 0.38185 0.55685 0.90786 0.0
C1055 C 0.37707 0.53668 0.94464 0.0
C1056 C 0.35895 0.54683 0.87348 0.0
C1057 C 0.32997 0.51626 0.87448 0.0
H1058 H 0.40273 0.58137 0.90676 0.0
H1059 H 0.3635 0.56389 0.84662 0.0
S1060 S 0.30724 0.4531 0.96185 0.0
N1061 N 0.34257 0.48376 0.97893 0.0
N1062 N 0.29914 0.4647 0.91387 0.0
C1063 C 0.32589 0.49483 0.9096 0.0
C1064 C 0.34952 0.50512 0.94485 0.0
C1065 C 0.2173 0.53212 0.45709 0.0
C1066 C 0.18684 0.53075 0.45654 0.0
C1067 C 0.22692 0.51904 0.42252 0.0
C1068 C 0.20644 0.50364 0.38598 0.0
H1069 H 0.23459 0.5446 0.48373 0.0
H1070 H 0.25137 0.52249 0.4233 0.0
S1071 S 0.12297 0.49047 0.36995 0.0
N1072 N 0.13505 0.51027 0.41782 0.0
N1073 N 0.15333 0.4855 0.35241 0.0
C1074 C 0.17498 0.49989 0.38622 0.0
C1075 C 0.1651 0.51343 0.42166 0.0
C1076 C 0.50019 0.6495 0.42044 0.0
C1077 C 0.49012 0.65701 0.46062 0.0
C1078 C 0.51257 0.6724 0.38539 0.0
C1079 C 0.51552 0.70342 0.38991 0.0
H1080 H 0.49629 0.62517 0.41491 0.0
H1081 H 0.51758 0.66497 0.35361 0.0
S1082 S 0.49787 0.73668 0.49091 0.0
N1083 N 0.48808 0.69908 0.50477 0.0
N1084 N 0.51097 0.7416 0.43898 0.0
C1085 C 0.50806 0.71196 0.43107 0.0
C1086 C 0.49551 0.68887 0.46647 0.0
C1087 C 0.36392 0.85314 0.42077 0.0
C1088 C 0.35664 0.83568 0.46106 0.0
C1089 C 0.34071 0.84265 0.38605 0.0
C1090 C 0.30964 0.81467 0.39094 0.0
H1091 H 0.38827 0.87342 0.41488 0.0
H1092 H 0.34792 0.85501 0.3542 0.0
S1093 S 0.27697 0.76408 0.49235 0.0
N1094 N 0.31473 0.79183 0.50571 0.0
N1095 N 0.27173 0.77218 0.44051 0.0
C1096 C 0.30138 0.7988 0.43221 0.0
C1097 C 0.32473 0.80936 0.46731 0.0
C1098 C 0.33327 0.18903 0.14284 0.0
C1099 C 0.30784 0.1579 0.1552 0.0
C1100 C 0.36558 0.20059 0.15702 0.0
C1101 C 0.37395 0.18154 0.18419 0.0
H1102 H 0.32828 0.20462 0.12179 0.0
H1103 H 0.38413 0.22476 0.14654 0.0
S1104 S 0.31651 0.0983 0.22638 0.0
N1105 N 0.29339 0.10822 0.1967 0.0
N1106 N 0.35385 0.12992 0.22311 0.0
C1107 C 0.34876 0.15039 0.1969 0.0
C1108 C 0.31584 0.13861 0.18252 0.0
C1109 C 0.86053 0.20251 0.18848 0.0
C1110 C 0.82966 0.19715 0.17529 0.0
C1111 C 0.87193 0.18147 0.17503 0.0
C1112 C 0.85298 0.15403 0.14783 0.0
H1113 H 0.87601 0.22299 0.20977 0.0
H1114 H 0.89587 0.18681 0.18625 0.0
S1115 S 0.77052 0.12917 0.10329 0.0
N1116 N 0.78043 0.16233 0.13271 0.0
N1117 N 0.8018 0.123 0.1077 0.0
C1118 C 0.82214 0.14848 0.13412 0.0
C1119 C 0.81054 0.16995 0.14773 0.0
C1120 C 0.8499 0.64977 0.15753 0.0
C1121 C 0.82216 0.64084 0.18424 0.0
C1122 C 0.8702 0.68218 0.14338 0.0
C1123 C 0.86373 0.70717 0.1553 0.0
H1124 H 0.85611 0.63157 0.14736 0.0
H1125 H 0.89105 0.68758 0.12267 0.0
S1126 S 0.79434 0.69697 0.22519 0.0
N1127 N 0.7895 0.65995 0.22228 0.0
N1128 N 0.82743 0.7206 0.19591 0.0
C1129 C 0.83612 0.69862 0.18219 0.0
C1130 C 0.81544 0.66559 0.19655 0.0
C1131 C 0.20366 0.36025 0.33993 0.0
C1132 C 0.18505 0.36898 0.31243 0.0
C1133 C 0.19177 0.32778 0.35374 0.0
C1134 C 0.16075 0.30249 0.3406 0.0
H1135 H 0.22772 0.37866 0.35105 0.0
H1136 H 0.20703 0.32258 0.37518 0.0
S1137 S 0.10231 0.31204 0.26808 0.0
N1138 N 0.13397 0.34931 0.27222 0.0
N1139 N 0.11171 0.28857 0.29788 0.0
C1140 C 0.14195 0.31083 0.31282 0.0
C1141 C 0.15403 0.34392 0.29888 0.0
C1142 C 0.67044 0.81808 0.30586 0.0
C1143 C 0.64487 0.8233 0.31915 0.0
C1144 C 0.70283 0.8391 0.31952 0.0
C1145 C 0.71118 0.86632 0.34711 0.0
H1146 H 0.66546 0.79756 0.28469 0.0
H1147 H 0.72145 0.83371 0.30858 0.0
S1148 S 0.65352 0.89127 0.39097 0.0
N1149 N 0.63036 0.85816 0.36139 0.0
N1150 N 0.69097 0.89741 0.38688 0.0
C1151 C 0.6859 0.87197 0.36043 0.0
C1152 C 0.65289 0.85056 0.34655 0.0
C1153 C 0.16692 0.81273 0.34359 0.0
C1154 C 0.1942 0.8312 0.31598 0.0
C1155 C 0.14615 0.8245 0.35675 0.0
C1156 C 0.15165 0.85528 0.34288 0.0
H1157 H 0.16147 0.78888 0.35535 0.0
H1158 H 0.12578 0.80938 0.37838 0.0
S1159 S 0.21926 0.91318 0.26949 0.0
N1160 N 0.22522 0.8818 0.27463 0.0
N1161 N 0.18637 0.90388 0.29917 0.0
C1162 C 0.17869 0.87393 0.31489 0.0
C1163 C 0.19989 0.86194 0.30156 0.0
C1164 C 0.69549 0.86776 0.82599 0.0
C1165 C 0.70414 0.84911 0.85352 0.0
C1166 C 0.66298 0.85615 0.8127 0.0
C1167 C 0.63757 0.82539 0.82643 0.0
H1168 H 0.714 0.89161 0.81438 0.0
H1169 H 0.65784 0.87138 0.79112 0.0
S1170 S 0.64685 0.7671 0.8996 0.0
N1171 N 0.68427 0.79837 0.89462 0.0
N1172 N 0.62342 0.77663 0.86994 0.0
C1173 C 0.64581 0.80659 0.85436 0.0
C1174 C 0.67896 0.81838 0.86777 0.0
C1175 C 0.20537 0.84618 0.84287 0.0
C1176 C 0.18704 0.81899 0.815 0.0
C1177 C 0.19351 0.86689 0.85602 0.0
C1178 C 0.16278 0.86139 0.84187 0.0
H1179 H 0.22919 0.85164 0.85475 0.0
H1180 H 0.20852 0.88723 0.87778 0.0
S1181 S 0.10515 0.79385 0.76805 0.0
N1182 N 0.13656 0.78796 0.77335 0.0
N1183 N 0.11432 0.82667 0.79784 0.0
C1184 C 0.14425 0.83439 0.81374 0.0
C1185 C 0.15632 0.81327 0.80042 0.0
C1186 C 0.20513 0.35274 0.81432 0.0
C1187 C 0.20023 0.37847 0.82781 0.0
C1188 C 0.18407 0.32043 0.82815 0.0
C1189 C 0.15707 0.3123 0.85603 0.0
H1190 H 0.22527 0.35747 0.79253 0.0
H1191 H 0.18906 0.30164 0.81668 0.0
S1192 S 0.13356 0.37061 0.90161 0.0
N1193 N 0.16636 0.39353 0.87141 0.0
N1194 N 0.12695 0.33299 0.89714 0.0
C1195 C 0.15197 0.3378 0.87003 0.0
C1196 C 0.17348 0.37077 0.85605 0.0
C1197 C 0.82469 0.68244 0.64138 0.0
C1198 C 0.85484 0.70799 0.6568 0.0
C1199 C 0.81353 0.64971 0.65322 0.0
C1200 C 0.832 0.64097 0.68099 0.0
H1201 H 0.80958 0.68766 0.61966 0.0
H1202 H 0.79007 0.63112 0.64051 0.0
S1203 S 0.91266 0.69848 0.73073 0.0
N1204 N 0.90297 0.72208 0.70175 0.0
N1205 N 0.88207 0.66089 0.72376 0.0
C1206 C 0.86218 0.66627 0.69671 0.0
C1207 C 0.87354 0.69961 0.68475 0.0
C1208 C 0.3357 0.15071 0.63811 0.0
C1209 C 0.31069 0.1567 0.65178 0.0
C1210 C 0.36834 0.17127 0.6512 0.0
C1211 C 0.37751 0.19879 0.67852 0.0
H1212 H 0.33007 0.12993 0.61712 0.0
H1213 H 0.3865 0.16529 0.64004 0.0
S1214 S 0.32157 0.22576 0.72306 0.0
N1215 N 0.29762 0.19262 0.69402 0.0
N1216 N 0.35866 0.23102 0.71838 0.0
C1217 C 0.35279 0.20522 0.69214 0.0
C1218 C 0.31954 0.18427 0.67889 0.0
C1219 C 0.83914 0.14315 0.68473 0.0
C1220 C 0.86621 0.16201 0.65694 0.0
C1221 C 0.81784 0.15428 0.69794 0.0
C1222 C 0.82264 0.1848 0.68399 0.0
H1223 H 0.83417 0.1194 0.6963 0.0
H1224 H 0.79754 0.13885 0.71949 0.0
S1225 S 0.88973 0.24372 0.61076 0.0
N1226 N 0.89646 0.21284 0.61582 0.0
N1227 N 0.85669 0.23371 0.64044 0.0
C1228 C 0.84961 0.20392 0.65614 0.0
C1229 C 0.87129 0.19258 0.64272 0.0
C1230 C 0.02436 0.49262 0.52179 0.0
C1231 C 0.04978 0.52319 0.50747 0.0
C1232 C 0.9918 0.48109 0.50891 0.0
C1233 C 0.98309 0.49959 0.48117 0.0
H1234 H 0.02954 0.47747 0.54347 0.0
H1235 H 0.97329 0.45736 0.52092 0.0
S1236 S 0.04035 0.58115 0.4338 0.0
N1237 N 0.06388 0.57168 0.46338 0.0
N1238 N 1.00289 0.55004 0.4394 0.0
C1239 C 1.00826 0.53015 0.46642 0.0
C1240 C 0.04148 0.54189 0.47945 0.0
C1241 C 0.48106 0.50184 0.48575 0.0
C1242 C 0.49993 0.52925 0.51303 0.0
C1243 C 0.49255 0.48087 0.47232 0.0
C1244 C 0.52346 0.48636 0.48555 0.0
H1245 H 0.45701 0.4963 0.47476 0.0
H1246 H 0.47706 0.46027 0.45123 0.0
S1247 S 0.58266 0.55469 0.55703 0.0
N1248 N 0.55124 0.56065 0.55276 0.0
N1249 N 0.57281 0.52151 0.52771 0.0
C1250 C 0.54263 0.51373 0.51282 0.0
C1251 C 0.53091 0.53507 0.52646 0.0
C1252 C 0.50593 0.0299 0.51433 0.0
C1253 C 0.53325 0.03856 0.48683 0.0
C1254 C 0.48451 0.99725 0.52663 0.0
C1255 C 0.48932 0.9717 0.5119 0.0
H1256 H 0.50085 0.04848 0.52639 0.0
H1257 H 0.46405 0.99209 0.54801 0.0
S1258 S 0.55714 0.98103 0.43929 0.0
N1259 N 0.56385 0.01859 0.44534 0.0
N1260 N 0.5238 0.95752 0.46818 0.0
C1261 C 0.51657 0.98 0.48438 0.0
C1262 C 0.53844 0.01327 0.47199 0.0
C1263 C 0.53471 0.02846 0.01565 0.0
C1264 C 0.51575 0.03712 0.98874 0.0
C1265 C 0.52307 0.996 0.02925 0.0
C1266 C 0.49195 0.97068 0.01658 0.0
H1267 H 0.55896 0.04687 0.02611 0.0
H1268 H 0.53868 0.99079 0.04994 0.0
S1269 S 0.4323 0.98019 0.94664 0.0
N1270 N 0.46402 0.01746 0.95027 0.0
N1271 N 0.44219 0.95675 0.97562 0.0
C1272 C 0.47264 0.97902 0.98984 0.0
C1273 C 0.48449 0.01208 0.97604 0.0
C1274 C 1.00188 0.48287 0.97259 0.0
C1275 C 0.97651 0.48861 0.9852 0.0
C1276 C 0.03435 0.50379 0.98619 0.0
C1277 C 0.04298 0.53144 0.01302 0.0
H1278 H 0.99669 0.46204 0.95193 0.0
H1279 H 0.05281 0.49803 0.97575 0.0
S1280 S 0.9859 0.55772 0.05514 0.0
N1281 N 0.96251 0.52435 0.02618 0.0
N1282 N 0.0232 0.56339 0.05148 0.0
C1283 C 0.01788 0.53755 0.02572 0.0
C1284 C 0.98482 0.51625 0.01193 0.0
C1285 C 0.53915 0.5243 0.97828 0.0
C1286 C 0.53374 0.49346 0.99171 0.0
C1287 C 0.51838 0.53596 0.99193 0.0
C1288 C 0.49115 0.5173 0.01956 0.0
H1289 H 0.55948 0.53957 0.95668 0.0
H1290 H 0.52376 0.55988 0.98054 0.0
S1291 S 0.46625 0.43502 0.06481 0.0
N1292 N 0.49911 0.44456 0.03493 0.0
N1293 N 0.46025 0.46641 0.06032 0.0
C1294 C 0.48554 0.48648 0.03347 0.0
C1295 C 0.50675 0.47462 0.01968 0.0
loop_
_geom_bond_atom_site_label_1
_geom_bond_atom_site_label_2
_geom_bond_distance
_geom_bond_site_symmetry_2
_ccdc_geom_bond_type
Co0 O1 2.216 . S
Co0 O2 2.091 . S
Co0 O4 2.004 . S
Co0 O10 2.021 . S
Co0 O12 2.137 . S
Co0 O13 2.244 . S
O1 Co0 2.216 . S
O1 C8 1.247 . S
O2 Co0 2.091 . S
O2 C8 1.261 . S
C3 O12 1.247 . S
C3 O13 1.272 . S
O4 Co0 2.004 . S
O4 C9 1.259 . S
Co5 O6 2.061 . S
Co5 O11 2.052 . S
Co5 O13 2.135 . S
O6 Co5 2.061 . S
O6 C9 1.235 . S
C7 O10 1.238 . S
C7 O11 1.241 . S
C8 O1 1.247 . S
C8 O2 1.261 . S
C9 O4 1.259 . S
C9 O6 1.235 . S
O10 Co0 2.021 . S
O10 C7 1.238 . S
O11 Co5 2.052 . S
O11 C7 1.241 . S
O12 Co0 2.137 . S
O12 C3 1.247 . S
O13 Co0 2.244 . S
O13 C3 1.272 . S
O13 Co5 2.135 . S
Co14 O15 2.216 . S
Co14 O16 2.091 . S
Co14 O18 2.004 . S
Co14 O24 2.021 . S
Co14 O26 2.137 . S
Co14 O27 2.244 . S
O15 Co14 2.216 . S
O15 C22 1.247 . S
O16 Co14 2.091 . S
O16 C22 1.261 . S
C17 O26 1.247 . S
C17 O27 1.272 . S
O18 Co14 2.004 . S
O18 C23 1.259 . S
Co19 O20 2.061 . S
Co19 O25 2.052 . S
Co19 O27 2.135 . S
O20 Co19 2.061 . S
O20 C23 1.235 . S
C21 O24 1.238 . S
C21 O25 1.241 . S
C22 O15 1.247 . S
C22 O16 1.261 . S
C23 O18 1.259 . S
C23 O20 1.235 . S
O24 Co14 2.021 . S
O24 C21 1.238 . S
O25 Co19 2.052 . S
O25 C21 1.241 . S
O26 Co14 2.137 . S
O26 C17 1.247 . S
O27 Co14 2.244 . S
O27 C17 1.272 . S
O27 Co19 2.135 . S
Co28 O29 2.216 . S
Co28 O30 2.091 . S
Co28 O32 2.004 . S
Co28 O38 2.021 . S
Co28 O40 2.137 . S
Co28 O41 2.244 . S
O29 Co28 2.216 . S
O29 C36 1.247 . S
O30 Co28 2.091 . S
O30 C36 1.261 . S
C31 O40 1.247 . S
C31 O41 1.272 . S
O32 Co28 2.004 . S
O32 C37 1.259 . S
Co33 O34 2.061 . S
Co33 O39 2.052 . S
Co33 O41 2.135 . S
O34 Co33 2.061 . S
O34 C37 1.235 . S
C35 O38 1.238 . S
C35 O39 1.241 . S
C36 O29 1.247 . S
C36 O30 1.261 . S
C37 O32 1.259 . S
C37 O34 1.235 . S
O38 Co28 2.021 . S
O38 C35 1.238 . S
O39 Co33 2.052 . S
O39 C35 1.241 . S
O40 Co28 2.137 . S
O40 C31 1.247 . S
O41 Co28 2.244 . S
O41 C31 1.272 . S
O41 Co33 2.135 . S
Co42 O43 2.216 . S
Co42 O44 2.091 . S
Co42 O46 2.004 . S
Co42 O52 2.021 . S
Co42 O54 2.137 . S
Co42 O55 2.244 . S
O43 Co42 2.216 . S
O43 C50 1.247 . S
O44 Co42 2.091 . S
O44 C50 1.261 . S
C45 O54 1.247 . S
C45 O55 1.272 . S
O46 Co42 2.004 . S
O46 C51 1.259 . S
Co47 O48 2.061 . S
Co47 O53 2.052 . S
Co47 O55 2.135 . S
O48 Co47 2.061 . S
O48 C51 1.235 . S
C49 O52 1.238 . S
C49 O53 1.241 . S
C50 O43 1.247 . S
C50 O44 1.261 . S
C51 O46 1.259 . S
C51 O48 1.235 . S
O52 Co42 2.021 . S
O52 C49 1.238 . S
O53 Co47 2.052 . S
O53 C49 1.241 . S
O54 Co42 2.137 . S
O54 C45 1.247 . S
O55 Co42 2.244 . S
O55 C45 1.272 . S
O55 Co47 2.135 . S
Co56 O57 2.216 . S
Co56 O58 2.091 . S
Co56 O60 2.004 . S
Co56 O66 2.021 . S
Co56 O68 2.137 . S
Co56 O69 2.244 . S
O57 Co56 2.216 . S
O57 C64 1.247 . S
O58 Co56 2.091 . S
O58 C64 1.261 . S
C59 O68 1.247 . S
C59 O69 1.272 . S
O60 Co56 2.004 . S
O60 C65 1.259 . S
Co61 O62 2.061 . S
Co61 O67 2.052 . S
Co61 O69 2.135 . S
O62 Co61 2.061 . S
O62 C65 1.235 . S
C63 O66 1.238 . S
C63 O67 1.241 . S
C64 O57 1.247 . S
C64 O58 1.261 . S
C65 O60 1.259 . S
C65 O62 1.235 . S
O66 Co56 2.021 . S
O66 C63 1.238 . S
O67 Co61 2.052 . S
O67 C63 1.241 . S
O68 Co56 2.137 . S
O68 C59 1.247 . S
O69 Co56 2.244 . S
O69 C59 1.272 . S
O69 Co61 2.135 . S
Co70 O71 2.216 . S
Co70 O72 2.091 . S
Co70 O74 2.004 . S
Co70 O80 2.021 . S
Co70 O82 2.137 . S
Co70 O83 2.244 . S
O71 Co70 2.216 . S
O71 C78 1.247 . S
O72 Co70 2.091 . S
O72 C78 1.261 . S
C73 O82 1.247 . S
C73 O83 1.272 . S
O74 Co70 2.004 . S
O74 C79 1.259 . S
Co75 O76 2.061 . S
Co75 O81 2.052 . S
Co75 O83 2.135 . S
O76 Co75 2.061 . S
O76 C79 1.235 . S
C77 O80 1.238 . S
C77 O81 1.241 . S
C78 O71 1.247 . S
C78 O72 1.261 . S
C79 O74 1.259 . S
C79 O76 1.235 . S
O80 Co70 2.021 . S
O80 C77 1.238 . S
O81 Co75 2.052 . S
O81 C77 1.241 . S
O82 Co70 2.137 . S
O82 C73 1.247 . S
O83 Co70 2.244 . S
O83 C73 1.272 . S
O83 Co75 2.135 . S
Co84 O85 2.216 . S
Co84 O86 2.091 . S
Co84 O88 2.004 . S
Co84 O94 2.021 . S
Co84 O96 2.137 . S
Co84 O97 2.244 . S
O85 Co84 2.216 . S
O85 C92 1.247 . S
O86 Co84 2.091 . S
O86 C92 1.261 . S
C87 O96 1.247 . S
C87 O97 1.272 . S
O88 Co84 2.004 . S
O88 C93 1.259 . S
Co89 O90 2.061 . S
Co89 O95 2.052 . S
Co89 O97 2.135 . S
O90 Co89 2.061 . S
O90 C93 1.235 . S
C91 O94 1.238 . S
C91 O95 1.241 . S
C92 O85 1.247 . S
C92 O86 1.261 . S
C93 O88 1.259 . S
C93 O90 1.235 . S
O94 Co84 2.021 . S
O94 C91 1.238 . S
O95 Co89 2.052 . S
O95 C91 1.241 . S
O96 Co84 2.137 . S
O96 C87 1.247 . S
O97 Co84 2.244 . S
O97 C87 1.272 . S
O97 Co89 2.135 . S
Co98 O99 2.216 . S
Co98 O100 2.091 . S
Co98 O102 2.004 . S
Co98 O108 2.021 . S
Co98 O110 2.137 . S
Co98 O111 2.244 . S
O99 Co98 2.216 . S
O99 C106 1.247 . S
O100 Co98 2.091 . S
O100 C106 1.261 . S
C101 O110 1.247 . S
C101 O111 1.272 . S
O102 Co98 2.004 . S
O102 C107 1.259 . S
Co103 O104 2.061 . S
Co103 O109 2.052 . S
Co103 O111 2.135 . S
O104 Co103 2.061 . S
O104 C107 1.235 . S
C105 O108 1.238 . S
C105 O109 1.241 . S
C106 O99 1.247 . S
C106 O100 1.261 . S
C107 O102 1.259 . S
C107 O104 1.235 . S
O108 Co98 2.021 . S
O108 C105 1.238 . S
O109 Co103 2.052 . S
O109 C105 1.241 . S
O110 Co98 2.137 . S
O110 C101 1.247 . S
O111 Co98 2.244 . S
O111 C101 1.272 . S
O111 Co103 2.135 . S
Co112 O113 2.216 . S
Co112 O114 2.091 . S
Co112 O116 2.004 . S
Co112 O122 2.021 . S
Co112 O124 2.137 . S
Co112 O125 2.244 . S
O113 Co112 2.216 . S
O113 C120 1.247 . S
O114 Co112 2.091 . S
O114 C120 1.261 . S
C115 O124 1.247 . S
C115 O125 1.272 . S
O116 Co112 2.004 . S
O116 C121 1.259 . S
Co117 O118 2.061 . S
Co117 O123 2.052 . S
Co117 O125 2.135 . S
O118 Co117 2.061 . S
O118 C121 1.235 . S
C119 O122 1.238 . S
C119 O123 1.241 . S
C120 O113 1.247 . S
C120 O114 1.261 . S
C121 O116 1.259 . S
C121 O118 1.235 . S
O122 Co112 2.021 . S
O122 C119 1.238 . S
O123 Co117 2.052 . S
O123 C119 1.241 . S
O124 Co112 2.137 . S
O124 C115 1.247 . S
O125 Co112 2.244 . S
O125 C115 1.272 . S
O125 Co117 2.135 . S
Co126 O127 2.216 . S
Co126 O128 2.091 . S
Co126 O130 2.004 . S
Co126 O136 2.021 . S
Co126 O138 2.137 . S
Co126 O139 2.244 . S
O127 Co126 2.216 . S
O127 C134 1.247 . S
O128 Co126 2.091 . S
O128 C134 1.261 . S
C129 O138 1.247 . S
C129 O139 1.272 . S
O130 Co126 2.004 . S
O130 C135 1.259 . S
Co131 O132 2.061 . S
Co131 O137 2.052 . S
Co131 O139 2.135 . S
O132 Co131 2.061 . S
O132 C135 1.235 . S
C133 O136 1.238 . S
C133 O137 1.241 . S
C134 O127 1.247 . S
C134 O128 1.261 . S
C135 O130 1.259 . S
C135 O132 1.235 . S
O136 Co126 2.021 . S
O136 C133 1.238 . S
O137 Co131 2.052 . S
O137 C133 1.241 . S
O138 Co126 2.137 . S
O138 C129 1.247 . S
O139 Co126 2.244 . S
O139 C129 1.272 . S
O139 Co131 2.135 . S
Co140 O141 2.216 . S
Co140 O142 2.091 . S
Co140 O144 2.004 . S
Co140 O150 2.021 . S
Co140 O152 2.137 . S
Co140 O153 2.244 . S
O141 Co140 2.216 . S
O141 C148 1.247 . S
O142 Co140 2.091 . S
O142 C148 1.261 . S
C143 O152 1.247 . S
C143 O153 1.272 . S
O144 Co140 2.004 . S
O144 C149 1.259 . S
Co145 O146 2.061 . S
Co145 O151 2.052 . S
Co145 O153 2.135 . S
O146 Co145 2.061 . S
O146 C149 1.235 . S
C147 O150 1.238 . S
C147 O151 1.241 . S
C148 O141 1.247 . S
C148 O142 1.261 . S
C149 O144 1.259 . S
C149 O146 1.235 . S
O150 Co140 2.021 . S
O150 C147 1.238 . S
O151 Co145 2.052 . S
O151 C147 1.241 . S
O152 Co140 2.137 . S
O152 C143 1.247 . S
O153 Co140 2.244 . S
O153 C143 1.272 . S
O153 Co145 2.135 . S
Co154 O155 2.216 . S
Co154 O156 2.091 . S
Co154 O158 2.004 . S
Co154 O164 2.021 . S
Co154 O166 2.137 . S
Co154 O167 2.244 . S
O155 Co154 2.216 . S
O155 C162 1.247 . S
O156 Co154 2.091 . S
O156 C162 1.261 . S
C157 O166 1.247 . S
C157 O167 1.272 . S
O158 Co154 2.004 . S
O158 C163 1.259 . S
Co159 O160 2.061 . S
Co159 O165 2.052 . S
Co159 O167 2.135 . S
O160 Co159 2.061 . S
O160 C163 1.235 . S
C161 O164 1.238 . S
C161 O165 1.241 . S
C162 O155 1.247 . S
C162 O156 1.261 . S
C163 O158 1.259 . S
C163 O160 1.235 . S
O164 Co154 2.021 . S
O164 C161 1.238 . S
O165 Co159 2.052 . S
O165 C161 1.241 . S
O166 Co154 2.137 . S
O166 C157 1.247 . S
O167 Co154 2.244 . S
O167 C157 1.272 . S
O167 Co159 2.135 . S
Co168 O169 2.216 . S
Co168 O170 2.091 . S
Co168 O172 2.004 . S
Co168 O178 2.021 . S
Co168 O180 2.137 . S
Co168 O181 2.244 . S
O169 Co168 2.216 . S
O169 C176 1.247 . S
O170 Co168 2.091 . S
O170 C176 1.261 . S
C171 O180 1.247 . S
C171 O181 1.272 . S
O172 Co168 2.004 . S
O172 C177 1.259 . S
Co173 O174 2.061 . S
Co173 O179 2.052 . S
Co173 O181 2.135 . S
O174 Co173 2.061 . S
O174 C177 1.235 . S
C175 O178 1.238 . S
C175 O179 1.241 . S
C176 O169 1.247 . S
C176 O170 1.261 . S
C177 O172 1.259 . S
C177 O174 1.235 . S
O178 Co168 2.021 . S
O178 C175 1.238 . S
O179 Co173 2.052 . S
O179 C175 1.241 . S
O180 Co168 2.137 . S
O180 C171 1.247 . S
O181 Co168 2.244 . S
O181 C171 1.272 . S
O181 Co173 2.135 . S
Co182 O183 2.216 . S
Co182 O184 2.091 . S
Co182 O186 2.004 . S
Co182 O192 2.021 . S
Co182 O194 2.137 . S
Co182 O195 2.244 . S
O183 Co182 2.216 . S
O183 C190 1.247 . S
O184 Co182 2.091 . S
O184 C190 1.261 . S
C185 O194 1.247 . S
C185 O195 1.272 . S
O186 Co182 2.004 . S
O186 C191 1.259 . S
Co187 O188 2.061 . S
Co187 O193 2.052 . S
Co187 O195 2.135 . S
O188 Co187 2.061 . S
O188 C191 1.235 . S
C189 O192 1.238 . S
C189 O193 1.241 . S
C190 O183 1.247 . S
C190 O184 1.261 . S
C191 O186 1.259 . S
C191 O188 1.235 . S
O192 Co182 2.021 . S
O192 C189 1.238 . S
O193 Co187 2.052 . S
O193 C189 1.241 . S
O194 Co182 2.137 . S
O194 C185 1.247 . S
O195 Co182 2.244 . S
O195 C185 1.272 . S
O195 Co187 2.135 . S
Co196 O197 2.216 . S
Co196 O198 2.091 . S
Co196 O200 2.004 . S
Co196 O206 2.021 . S
Co196 O208 2.137 . S
Co196 O209 2.244 . S
O197 Co196 2.216 . S
O197 C204 1.247 . S
O198 Co196 2.091 . S
O198 C204 1.261 . S
C199 O208 1.247 . S
C199 O209 1.272 . S
O200 Co196 2.004 . S
O200 C205 1.259 . S
Co201 O202 2.061 . S
Co201 O207 2.052 . S
Co201 O209 2.135 . S
O202 Co201 2.061 . S
O202 C205 1.235 . S
C203 O206 1.238 . S
C203 O207 1.241 . S
C204 O197 1.247 . S
C204 O198 1.261 . S
C205 O200 1.259 . S
C205 O202 1.235 . S
O206 Co196 2.021 . S
O206 C203 1.238 . S
O207 Co201 2.052 . S
O207 C203 1.241 . S
O208 Co196 2.137 . S
O208 C199 1.247 . S
O209 Co196 2.244 . S
O209 C199 1.272 . S
O209 Co201 2.135 . S
Co210 O211 2.216 . S
Co210 O212 2.091 . S
Co210 O214 2.004 . S
Co210 O220 2.021 . S
Co210 O222 2.137 . S
Co210 O223 2.244 . S
O211 Co210 2.216 . S
O211 C218 1.247 . S
O212 Co210 2.091 . S
O212 C218 1.261 . S
C213 O222 1.247 . S
C213 O223 1.272 . S
O214 Co210 2.004 . S
O214 C219 1.259 . S
Co215 O216 2.061 . S
Co215 O221 2.052 . S
Co215 O223 2.135 . S
O216 Co215 2.061 . S
O216 C219 1.235 . S
C217 O220 1.238 . S
C217 O221 1.241 . S
C218 O211 1.247 . S
C218 O212 1.261 . S
C219 O214 1.259 . S
C219 O216 1.235 . S
O220 Co210 2.021 . S
O220 C217 1.238 . S
O221 Co215 2.052 . S
O221 C217 1.241 . S
O222 Co210 2.137 . S
O222 C213 1.247 . S
O223 Co210 2.244 . S
O223 C213 1.272 . S
O223 Co215 2.135 . S
Co224 O225 2.216 . S
Co224 O226 2.091 . S
Co224 O228 2.004 . S
Co224 O234 2.021 . S
Co224 O236 2.137 . S
Co224 O237 2.244 . S
O225 Co224 2.216 . S
O225 C232 1.247 . S
O226 Co224 2.091 . S
O226 C232 1.261 . S
C227 O236 1.247 . S
C227 O237 1.272 . S
O228 Co224 2.004 . S
O228 C233 1.259 . S
Co229 O230 2.061 . S
Co229 O235 2.052 . S
Co229 O237 2.135 . S
O230 Co229 2.061 . S
O230 C233 1.235 . S
C231 O234 1.238 . S
C231 O235 1.241 . S
C232 O225 1.247 . S
C232 O226 1.261 . S
C233 O228 1.259 . S
C233 O230 1.235 . S
O234 Co224 2.021 . S
O234 C231 1.238 . S
O235 Co229 2.052 . S
O235 C231 1.241 . S
O236 Co224 2.137 . S
O236 C227 1.247 . S
O237 Co224 2.244 . S
O237 C227 1.272 . S
O237 Co229 2.135 . S
Co238 O239 2.216 . S
Co238 O240 2.091 . S
Co238 O242 2.004 . S
Co238 O248 2.021 . S
Co238 O250 2.137 . S
Co238 O251 2.244 . S
O239 Co238 2.216 . S
O239 C246 1.247 . S
O240 Co238 2.091 . S
O240 C246 1.261 . S
C241 O250 1.247 . S
C241 O251 1.272 . S
O242 Co238 2.004 . S
O242 C247 1.259 . S
Co243 O244 2.061 . S
Co243 O249 2.052 . S
Co243 O251 2.135 . S
O244 Co243 2.061 . S
O244 C247 1.235 . S
C245 O248 1.238 . S
C245 O249 1.241 . S
C246 O239 1.247 . S
C246 O240 1.261 . S
C247 O242 1.259 . S
C247 O244 1.235 . S
O248 Co238 2.021 . S
O248 C245 1.238 . S
O249 Co243 2.052 . S
O249 C245 1.241 . S
O250 Co238 2.137 . S
O250 C241 1.247 . S
O251 Co238 2.244 . S
O251 C241 1.272 . S
O251 Co243 2.135 . S
Co252 O253 2.216 . S
Co252 O254 2.091 . S
Co252 O256 2.004 . S
Co252 O262 2.021 . S
Co252 O264 2.137 . S
Co252 O265 2.244 . S
O253 Co252 2.216 . S
O253 C260 1.247 . S
O254 Co252 2.091 . S
O254 C260 1.261 . S
C255 O264 1.247 . S
C255 O265 1.272 . S
O256 Co252 2.004 . S
O256 C261 1.259 . S
Co257 O258 2.061 . S
Co257 O263 2.052 . S
Co257 O265 2.135 . S
O258 Co257 2.061 . S
O258 C261 1.235 . S
C259 O262 1.238 . S
C259 O263 1.241 . S
C260 O253 1.247 . S
C260 O254 1.261 . S
C261 O256 1.259 . S
C261 O258 1.235 . S
O262 Co252 2.021 . S
O262 C259 1.238 . S
O263 Co257 2.052 . S
O263 C259 1.241 . S
O264 Co252 2.137 . S
O264 C255 1.247 . S
O265 Co252 2.244 . S
O265 C255 1.272 . S
O265 Co257 2.135 . S
Co266 O267 2.216 . S
Co266 O268 2.091 . S
Co266 O270 2.004 . S
Co266 O276 2.021 . S
Co266 O278 2.137 . S
Co266 O279 2.244 . S
O267 Co266 2.216 . S
O267 C274 1.247 . S
O268 Co266 2.091 . S
O268 C274 1.261 . S
C269 O278 1.247 . S
C269 O279 1.272 . S
O270 Co266 2.004 . S
O270 C275 1.259 . S
Co271 O272 2.061 . S
Co271 O277 2.052 . S
Co271 O279 2.135 . S
O272 Co271 2.061 . S
O272 C275 1.235 . S
C273 O276 1.238 . S
C273 O277 1.241 . S
C274 O267 1.247 . S
C274 O268 1.261 . S
C275 O270 1.259 . S
C275 O272 1.235 . S
O276 Co266 2.021 . S
O276 C273 1.238 . S
O277 Co271 2.052 . S
O277 C273 1.241 . S
O278 Co266 2.137 . S
O278 C269 1.247 . S
O279 Co266 2.244 . S
O279 C269 1.272 . S
O279 Co271 2.135 . S
Co280 O281 2.216 . S
Co280 O282 2.091 . S
Co280 O284 2.004 . S
Co280 O290 2.021 . S
Co280 O292 2.137 . S
Co280 O293 2.244 . S
O281 Co280 2.216 . S
O281 C288 1.247 . S
O282 Co280 2.091 . S
O282 C288 1.261 . S
C283 O292 1.247 . S
C283 O293 1.272 . S
O284 Co280 2.004 . S
O284 C289 1.259 . S
Co285 O286 2.061 . S
Co285 O291 2.052 . S
Co285 O293 2.135 . S
O286 Co285 2.061 . S
O286 C289 1.235 . S
C287 O290 1.238 . S
C287 O291 1.241 . S
C288 O281 1.247 . S
C288 O282 1.261 . S
C289 O284 1.259 . S
C289 O286 1.235 . S
O290 Co280 2.021 . S
O290 C287 1.238 . S
O291 Co285 2.052 . S
O291 C287 1.241 . S
O292 Co280 2.137 . S
O292 C283 1.247 . S
O293 Co280 2.244 . S
O293 C283 1.272 . S
O293 Co285 2.135 . S
Co294 O295 2.216 . S
Co294 O296 2.091 . S
Co294 O298 2.004 . S
Co294 O304 2.021 . S
Co294 O306 2.137 . S
Co294 O307 2.244 . S
O295 Co294 2.216 . S
O295 C302 1.247 . S
O296 Co294 2.091 . S
O296 C302 1.261 . S
C297 O306 1.247 . S
C297 O307 1.272 . S
O298 Co294 2.004 . S
O298 C303 1.259 . S
Co299 O300 2.061 . S
Co299 O305 2.052 . S
Co299 O307 2.135 . S
O300 Co299 2.061 . S
O300 C303 1.235 . S
C301 O304 1.238 1_554 S
C301 O305 1.241 1_554 S
C302 O295 1.247 . S
C302 O296 1.261 . S
C303 O298 1.259 . S
C303 O300 1.235 . S
O304 Co294 2.021 . S
O304 C301 1.238 1_556 S
O305 Co299 2.052 . S
O305 C301 1.241 1_556 S
O306 Co294 2.137 . S
O306 C297 1.247 . S
O307 Co294 2.244 . S
O307 C297 1.272 . S
O307 Co299 2.135 . S
Co308 O309 2.216 . S
Co308 O310 2.091 . S
Co308 O312 2.004 . S
Co308 O318 2.021 . S
Co308 O320 2.137 . S
Co308 O321 2.244 . S
O309 Co308 2.216 . S
O309 C316 1.247 . S
O310 Co308 2.091 . S
O310 C316 1.261 . S
C311 O320 1.247 . S
C311 O321 1.272 . S
O312 Co308 2.004 . S
O312 C317 1.259 . S
Co313 O314 2.061 . S
Co313 O319 2.052 . S
Co313 O321 2.135 . S
O314 Co313 2.061 . S
O314 C317 1.235 . S
C315 O318 1.238 1_554 S
C315 O319 1.241 1_554 S
C316 O309 1.247 . S
C316 O310 1.261 . S
C317 O312 1.259 . S
C317 O314 1.235 . S
O318 Co308 2.021 . S
O318 C315 1.238 1_556 S
O319 Co313 2.052 . S
O319 C315 1.241 1_556 S
O320 Co308 2.137 . S
O320 C311 1.247 . S
O321 Co308 2.244 . S
O321 C311 1.272 . S
O321 Co313 2.135 . S
Co322 O323 2.216 . S
Co322 O324 2.091 . S
Co322 O326 2.004 . S
Co322 O332 2.021 . S
Co322 O334 2.137 . S
Co322 O335 2.244 . S
O323 Co322 2.216 . S
O323 C330 1.247 . S
O324 Co322 2.091 . S
O324 C330 1.261 . S
C325 O334 1.247 . S
C325 O335 1.272 . S
O326 Co322 2.004 . S
O326 C331 1.259 . S
Co327 O328 2.061 . S
Co327 O333 2.052 . S
Co327 O335 2.135 . S
O328 Co327 2.061 . S
O328 C331 1.235 . S
C329 O332 1.238 1_554 S
C329 O333 1.241 1_554 S
C330 O323 1.247 . S
C330 O324 1.261 . S
C331 O326 1.259 . S
C331 O328 1.235 . S
O332 Co322 2.021 . S
O332 C329 1.238 1_556 S
O333 Co327 2.052 . S
O333 C329 1.241 1_556 S
O334 Co322 2.137 . S
O334 C325 1.247 . S
O335 Co322 2.244 . S
O335 C325 1.272 . S
O335 Co327 2.135 . S
Co336 O337 2.216 . S
Co336 O338 2.091 . S
Co336 O340 2.004 . S
Co336 O346 2.021 . S
Co336 O348 2.137 . S
Co336 O349 2.244 . S
O337 Co336 2.216 . S
O337 C344 1.247 . S
O338 Co336 2.091 . S
O338 C344 1.261 . S
C339 O348 1.247 . S
C339 O349 1.272 . S
O340 Co336 2.004 . S
O340 C345 1.259 . S
Co341 O342 2.061 . S
Co341 O347 2.052 . S
Co341 O349 2.135 . S
O342 Co341 2.061 . S
O342 C345 1.235 . S
C343 O346 1.238 . S
C343 O347 1.241 . S
C344 O337 1.247 . S
C344 O338 1.261 . S
C345 O340 1.259 . S
C345 O342 1.235 . S
O346 Co336 2.021 . S
O346 C343 1.238 . S
O347 Co341 2.052 . S
O347 C343 1.241 . S
O348 Co336 2.137 . S
O348 C339 1.247 . S
O349 Co336 2.244 . S
O349 C339 1.272 . S
O349 Co341 2.135 . S
Co350 O351 2.216 . S
Co350 O352 2.091 . S
Co350 O354 2.004 . S
Co350 O360 2.021 . S
Co350 O362 2.137 . S
Co350 O363 2.244 . S
O351 Co350 2.216 . S
O351 C358 1.247 . S
O352 Co350 2.091 . S
O352 C358 1.261 . S
C353 O362 1.247 . S
C353 O363 1.272 . S
O354 Co350 2.004 . S
O354 C359 1.259 . S
Co355 O356 2.061 . S
Co355 O361 2.052 . S
Co355 O363 2.135 . S
O356 Co355 2.061 . S
O356 C359 1.235 . S
C357 O360 1.238 . S
C357 O361 1.241 . S
C358 O351 1.247 . S
C358 O352 1.261 . S
C359 O354 1.259 . S
C359 O356 1.235 . S
O360 Co350 2.021 . S
O360 C357 1.238 . S
O361 Co355 2.052 . S
O361 C357 1.241 . S
O362 Co350 2.137 . S
O362 C353 1.247 . S
O363 Co350 2.244 . S
O363 C353 1.272 . S
O363 Co355 2.135 . S
Co364 O365 2.216 . S
Co364 O366 2.091 . S
Co364 O368 2.004 . S
Co364 O374 2.021 . S
Co364 O376 2.137 . S
Co364 O377 2.244 . S
O365 Co364 2.216 . S
O365 C372 1.247 . S
O366 Co364 2.091 . S
O366 C372 1.261 . S
C367 O376 1.247 . S
C367 O377 1.272 . S
O368 Co364 2.004 . S
O368 C373 1.259 . S
Co369 O370 2.061 . S
Co369 O375 2.052 . S
Co369 O377 2.135 . S
O370 Co369 2.061 . S
O370 C373 1.235 . S
C371 O374 1.238 . S
C371 O375 1.241 . S
C372 O365 1.247 . S
C372 O366 1.261 . S
C373 O368 1.259 . S
C373 O370 1.235 . S
O374 Co364 2.021 . S
O374 C371 1.238 . S
O375 Co369 2.052 . S
O375 C371 1.241 . S
O376 Co364 2.137 . S
O376 C367 1.247 . S
O377 Co364 2.244 . S
O377 C367 1.272 . S
O377 Co369 2.135 . S
Co378 O379 2.216 . S
Co378 O380 2.091 . S
Co378 O382 2.004 . S
Co378 O388 2.021 . S
Co378 O390 2.137 . S
Co378 O391 2.244 . S
O379 Co378 2.216 . S
O379 C386 1.247 . S
O380 Co378 2.091 . S
O380 C386 1.261 . S
C381 O390 1.247 . S
C381 O391 1.272 . S
O382 Co378 2.004 . S
O382 C387 1.259 . S
Co383 O384 2.061 . S
Co383 O389 2.052 . S
Co383 O391 2.135 . S
O384 Co383 2.061 . S
O384 C387 1.235 . S
C385 O388 1.238 1_556 S
C385 O389 1.241 1_556 S
C386 O379 1.247 . S
C386 O380 1.261 . S
C387 O382 1.259 . S
C387 O384 1.235 . S
O388 Co378 2.021 . S
O388 C385 1.238 1_554 S
O389 Co383 2.052 . S
O389 C385 1.241 1_554 S
O390 Co378 2.137 . S
O390 C381 1.247 . S
O391 Co378 2.244 . S
O391 C381 1.272 . S
O391 Co383 2.135 . S
Co392 O393 2.216 . S
Co392 O394 2.091 . S
Co392 O396 2.004 . S
Co392 O402 2.021 . S
Co392 O404 2.137 . S
Co392 O405 2.244 . S
O393 Co392 2.216 . S
O393 C400 1.247 . S
O394 Co392 2.091 . S
O394 C400 1.261 . S
C395 O404 1.247 . S
C395 O405 1.272 . S
O396 Co392 2.004 . S
O396 C401 1.259 . S
Co397 O398 2.061 . S
Co397 O403 2.052 . S
Co397 O405 2.135 . S
O398 Co397 2.061 . S
O398 C401 1.235 . S
C399 O402 1.238 1_556 S
C399 O403 1.241 1_556 S
C400 O393 1.247 . S
C400 O394 1.261 . S
C401 O396 1.259 . S
C401 O398 1.235 . S
O402 Co392 2.021 . S
O402 C399 1.238 1_554 S
O403 Co397 2.052 . S
O403 C399 1.241 1_554 S
O404 Co392 2.137 . S
O404 C395 1.247 . S
O405 Co392 2.244 . S
O405 C395 1.272 . S
O405 Co397 2.135 . S
Co406 O407 2.216 . S
Co406 O408 2.091 . S
Co406 O410 2.004 . S
Co406 O416 2.021 . S
Co406 O418 2.137 . S
Co406 O419 2.244 . S
O407 Co406 2.216 . S
O407 C414 1.247 . S
O408 Co406 2.091 . S
O408 C414 1.261 . S
C409 O418 1.247 . S
C409 O419 1.272 . S
O410 Co406 2.004 . S
O410 C415 1.259 . S
Co411 O412 2.061 . S
Co411 O417 2.052 . S
Co411 O419 2.135 . S
O412 Co411 2.061 . S
O412 C415 1.235 . S
C413 O416 1.238 1_556 S
C413 O417 1.241 1_556 S
C414 O407 1.247 . S
C414 O408 1.261 . S
C415 O410 1.259 . S
C415 O412 1.235 . S
O416 Co406 2.021 . S
O416 C413 1.238 1_554 S
O417 Co411 2.052 . S
O417 C413 1.241 1_554 S
O418 Co406 2.137 . S
O418 C409 1.247 . S
O419 Co406 2.244 . S
O419 C409 1.272 . S
O419 Co411 2.135 . S
Co420 O421 2.216 . S
Co420 O422 2.091 . S
Co420 O424 2.004 . S
Co420 O430 2.021 . S
Co420 O432 2.137 . S
Co420 O433 2.244 . S
O421 Co420 2.216 . S
O421 C428 1.247 . S
O422 Co420 2.091 . S
O422 C428 1.261 . S
C423 O432 1.247 . S
C423 O433 1.272 . S
O424 Co420 2.004 . S
O424 C429 1.259 . S
Co425 O426 2.061 . S
Co425 O431 2.052 . S
Co425 O433 2.135 . S
O426 Co425 2.061 . S
O426 C429 1.235 . S
C427 O430 1.238 . S
C427 O431 1.241 . S
C428 O421 1.247 . S
C428 O422 1.261 . S
C429 O424 1.259 . S
C429 O426 1.235 . S
O430 Co420 2.021 . S
O430 C427 1.238 . S
O431 Co425 2.052 . S
O431 C427 1.241 . S
O432 Co420 2.137 . S
O432 C423 1.247 . S
O433 Co420 2.244 . S
O433 C423 1.272 . S
O433 Co425 2.135 . S
Co434 O435 2.216 . S
Co434 O436 2.091 . S
Co434 O438 2.004 . S
Co434 O444 2.021 . S
Co434 O446 2.137 . S
Co434 O447 2.244 . S
O435 Co434 2.216 . S
O435 C442 1.247 . S
O436 Co434 2.091 . S
O436 C442 1.261 . S
C437 O446 1.247 . S
C437 O447 1.272 . S
O438 Co434 2.004 . S
O438 C443 1.259 . S
Co439 O440 2.061 . S
Co439 O445 2.052 . S
Co439 O447 2.135 . S
O440 Co439 2.061 . S
O440 C443 1.235 . S
C441 O444 1.238 . S
C441 O445 1.241 . S
C442 O435 1.247 . S
C442 O436 1.261 . S
C443 O438 1.259 . S
C443 O440 1.235 . S
O444 Co434 2.021 . S
O444 C441 1.238 . S
O445 Co439 2.052 . S
O445 C441 1.241 . S
O446 Co434 2.137 . S
O446 C437 1.247 . S
O447 Co434 2.244 . S
O447 C437 1.272 . S
O447 Co439 2.135 . S
Co448 O449 2.216 . S
Co448 O450 2.091 . S
Co448 O452 2.004 . S
Co448 O458 2.021 . S
Co448 O460 2.137 . S
Co448 O461 2.244 . S
O449 Co448 2.216 . S
O449 C456 1.247 . S
O450 Co448 2.091 . S
O450 C456 1.261 . S
C451 O460 1.247 . S
C451 O461 1.272 . S
O452 Co448 2.004 . S
O452 C457 1.259 . S
Co453 O454 2.061 . S
Co453 O459 2.052 . S
Co453 O461 2.135 . S
O454 Co453 2.061 . S
O454 C457 1.235 . S
C455 O458 1.238 . S
C455 O459 1.241 . S
C456 O449 1.247 . S
C456 O450 1.261 . S
C457 O452 1.259 . S
C457 O454 1.235 . S
O458 Co448 2.021 . S
O458 C455 1.238 . S
O459 Co453 2.052 . S
O459 C455 1.241 . S
O460 Co448 2.137 . S
O460 C451 1.247 . S
O461 Co448 2.244 . S
O461 C451 1.272 . S
O461 Co453 2.135 . S
Co462 O463 2.216 . S
Co462 O464 2.091 . S
Co462 O466 2.004 . S
Co462 O472 2.021 . S
Co462 O474 2.137 . S
Co462 O475 2.244 . S
O463 Co462 2.216 . S
O463 C470 1.247 . S
O464 Co462 2.091 . S
O464 C470 1.261 . S
C465 O474 1.247 . S
C465 O475 1.272 . S
O466 Co462 2.004 . S
O466 C471 1.259 . S
Co467 O468 2.061 . S
Co467 O473 2.052 . S
Co467 O475 2.135 . S
O468 Co467 2.061 . S
O468 C471 1.235 . S
C469 O472 1.238 . S
C469 O473 1.241 . S
C470 O463 1.247 . S
C470 O464 1.261 . S
C471 O466 1.259 . S
C471 O468 1.235 . S
O472 Co462 2.021 . S
O472 C469 1.238 . S
O473 Co467 2.052 . S
O473 C469 1.241 . S
O474 Co462 2.137 . S
O474 C465 1.247 . S
O475 Co462 2.244 . S
O475 C465 1.272 . S
O475 Co467 2.135 . S
Co476 O477 2.216 . S
Co476 O478 2.091 . S
Co476 O480 2.004 . S
Co476 O486 2.021 . S
Co476 O488 2.137 . S
Co476 O489 2.244 . S
O477 Co476 2.216 . S
O477 C484 1.247 . S
O478 Co476 2.091 . S
O478 C484 1.261 . S
C479 O488 1.247 . S
C479 O489 1.272 . S
O480 Co476 2.004 . S
O480 C485 1.259 . S
Co481 O482 2.061 . S
Co481 O487 2.052 . S
Co481 O489 2.135 . S
O482 Co481 2.061 . S
O482 C485 1.235 . S
C483 O486 1.238 . S
C483 O487 1.241 . S
C484 O477 1.247 . S
C484 O478 1.261 . S
C485 O480 1.259 . S
C485 O482 1.235 . S
O486 Co476 2.021 . S
O486 C483 1.238 . S
O487 Co481 2.052 . S
O487 C483 1.241 . S
O488 Co476 2.137 . S
O488 C479 1.247 . S
O489 Co476 2.244 . S
O489 C479 1.272 . S
O489 Co481 2.135 . S
Co490 O491 2.216 . S
Co490 O492 2.091 . S
Co490 O494 2.004 . S
Co490 O500 2.021 . S
Co490 O502 2.137 . S
Co490 O503 2.244 . S
O491 Co490 2.216 . S
O491 C498 1.247 . S
O492 Co490 2.091 . S
O492 C498 1.261 . S
C493 O502 1.247 . S
C493 O503 1.272 . S
O494 Co490 2.004 . S
O494 C499 1.259 . S
Co495 O496 2.061 . S
Co495 O501 2.052 . S
Co495 O503 2.135 . S
O496 Co495 2.061 . S
O496 C499 1.235 . S
C497 O500 1.238 . S
C497 O501 1.241 . S
C498 O491 1.247 . S
C498 O492 1.261 . S
C499 O494 1.259 . S
C499 O496 1.235 . S
O500 Co490 2.021 . S
O500 C497 1.238 . S
O501 Co495 2.052 . S
O501 C497 1.241 . S
O502 Co490 2.137 . S
O502 C493 1.247 . S
O503 Co490 2.244 . S
O503 C493 1.272 . S
O503 Co495 2.135 . S
C504 C505 1.369 . S
C504 C506 1.419 . S
C504 H508 0.930 . S
C505 C504 1.369 . S
C505 C514 1.429 . S
C506 C504 1.419 . S
C506 C507 1.363 1_554 S
C506 H509 0.929 1_545 S
C507 C506 1.363 1_556 S
C507 C513 1.428 . S
H508 C504 0.930 . S
H509 C506 0.929 1_565 S
S510 N511 1.613 . S
S510 N512 1.610 . S
N511 S510 1.613 . S
N511 C514 1.350 1_556 S
N512 S510 1.610 . S
N512 C513 1.351 . S
C513 C507 1.428 . S
C513 N512 1.351 . S
C513 C514 1.434 1_556 S
C514 C505 1.429 . S
C514 N511 1.350 1_554 S
C514 C513 1.434 1_554 S
C515 C516 1.369 1_556 S
C515 C517 1.419 . S
C515 H519 0.930 . S
C516 C515 1.369 1_554 S
C516 C525 1.429 . S
C517 C515 1.419 . S
C517 C518 1.363 . S
C517 H520 0.929 . S
C518 C517 1.363 . S
C518 C524 1.434 1_556 S
H519 C515 0.930 . S
H520 C517 0.929 . S
S521 N522 1.613 1_455 S
S521 N523 1.610 . S
N522 S521 1.613 1_655 S
N522 C525 1.350 . S
N523 S521 1.610 . S
N523 C524 1.327 1_455 S
C524 C518 1.434 1_554 S
C524 N523 1.327 1_655 S
C524 C525 1.455 . S
C525 C516 1.429 . S
C525 N522 1.350 . S
C525 C524 1.455 . S
C526 C527 1.369 1_554 S
C526 C528 1.419 . S
C526 H530 0.930 . S
C527 C526 1.369 1_556 S
C527 C536 1.429 . S
C528 C526 1.419 . S
C528 C529 1.363 . S
C528 H531 0.929 . S
C529 C528 1.363 . S
C529 C535 1.428 1_554 S
H530 C526 0.930 . S
H531 C528 0.929 . S
S532 N533 1.613 . S
S532 N534 1.610 . S
N533 S532 1.613 . S
N533 C536 1.350 . S
N534 S532 1.610 . S
N534 C535 1.351 . S
C535 C529 1.428 1_556 S
C535 N534 1.351 . S
C535 C536 1.434 . S
C536 C527 1.429 . S
C536 N533 1.350 . S
C536 C535 1.434 . S
C537 C538 1.369 . S
C537 C539 1.419 . S
C537 H541 0.930 . S
C538 C537 1.369 . S
C538 C547 1.429 . S
C539 C537 1.419 . S
C539 C540 1.363 . S
C539 H542 0.929 . S
C540 C539 1.363 . S
C540 C546 1.428 . S
H541 C537 0.930 . S
H542 C539 0.929 . S
S543 N544 1.613 1_455 S
S543 N545 1.610 . S
N544 S543 1.613 1_655 S
N544 C547 1.350 1_655 S
N545 S543 1.610 . S
N545 C546 1.351 . S
C546 C540 1.428 . S
C546 N545 1.351 . S
C546 C547 1.434 . S
C547 C538 1.429 . S
C547 N544 1.350 1_455 S
C547 C546 1.434 . S
C548 C549 1.369 . S
C548 C550 1.419 . S
C548 H552 0.930 . S
C549 C548 1.369 . S
C549 C558 1.429 . S
C550 C548 1.419 . S
C550 C551 1.363 . S
C550 H553 0.929 . S
C551 C550 1.363 . S
C551 C557 1.428 . S
H552 C548 0.930 . S
H553 C550 0.929 . S
S554 N555 1.613 . S
S554 N556 1.610 . S
N555 S554 1.613 . S
N555 C558 1.350 . S
N556 S554 1.610 . S
N556 C557 1.351 . S
C557 C551 1.428 . S
C557 N556 1.351 . S
C557 C558 1.434 . S
C558 C549 1.429 . S
C558 N555 1.350 . S
C558 C557 1.434 . S
C559 C560 1.369 . S
C559 C561 1.419 . S
C559 H563 0.930 . S
C560 C559 1.369 . S
C560 C569 1.429 . S
C561 C559 1.419 . S
C561 C562 1.363 . S
C561 H564 0.929 1_565 S
C562 C561 1.363 . S
C562 C568 1.428 . S
H563 C559 0.930 . S
H564 C561 0.929 1_545 S
S565 N566 1.613 . S
S565 N567 1.610 . S
N566 S565 1.613 . S
N566 C569 1.350 . S
N567 S565 1.610 . S
N567 C568 1.351 . S
C568 C562 1.428 . S
C568 N567 1.351 . S
C568 C569 1.434 . S
C569 C560 1.429 . S
C569 N566 1.350 . S
C569 C568 1.434 . S
C570 C571 1.369 . S
C570 C572 1.419 1_554 S
C570 H574 0.930 . S
C571 C570 1.369 . S
C571 C580 1.429 1_554 S
C572 C570 1.419 1_556 S
C572 C573 1.363 . S
C572 H575 0.929 . S
C573 C572 1.363 . S
C573 C579 1.428 . S
H574 C570 0.930 . S
H575 C572 0.929 . S
S576 N577 1.613 . S
S576 N578 1.610 . S
N577 S576 1.613 . S
N577 C580 1.350 . S
N578 S576 1.610 . S
N578 C579 1.351 . S
C579 C573 1.428 . S
C579 N578 1.351 . S
C579 C580 1.434 . S
C580 C571 1.429 1_556 S
C580 N577 1.350 . S
C580 C579 1.434 . S
C581 C582 1.369 1_556 S
C581 C583 1.419 . S
C581 H585 0.930 1_455 S
C582 C581 1.369 1_554 S
C582 C591 1.429 . S
C583 C581 1.419 . S
C583 C584 1.363 . S
C583 H586 0.929 . S
C584 C583 1.363 . S
C584 C590 1.428 1_556 S
H585 C581 0.930 1_655 S
H586 C583 0.929 . S
S587 N588 1.613 . S
S587 N589 1.610 . S
N588 S587 1.613 . S
N588 C591 1.350 . S
N589 S587 1.610 . S
N589 C590 1.351 . S
C590 C584 1.428 1_554 S
C590 N589 1.351 . S
C590 C591 1.434 . S
C591 C582 1.429 . S
C591 N588 1.350 . S
C591 C590 1.434 . S
C592 C593 1.369 . S
C592 C594 1.419 1_556 S
C592 H596 0.930 1_556 S
C593 C592 1.369 . S
C593 C602 1.429 . S
C594 C592 1.419 1_554 S
C594 C595 1.363 . S
C594 H597 0.929 . S
C595 C594 1.363 . S
C595 C601 1.428 1_554 S
H596 C592 0.930 1_554 S
H597 C594 0.929 . S
S598 N599 1.613 . S
S598 N600 1.610 . S
N599 S598 1.613 . S
N599 C602 1.350 . S
N600 S598 1.610 . S
N600 C601 1.351 . S
C601 C595 1.428 1_556 S
C601 N600 1.351 . S
C601 C602 1.434 . S
C602 C593 1.429 . S
C602 N599 1.350 . S
C602 C601 1.434 . S
C603 C604 1.369 . S
C603 C605 1.419 . S
C603 H607 0.930 . S
C604 C603 1.369 . S
C604 C613 1.429 . S
C605 C603 1.419 . S
C605 C606 1.363 . S
C605 H608 0.929 . S
C606 C605 1.363 . S
C606 C612 1.428 . S
H607 C603 0.930 . S
H608 C605 0.929 . S
S609 N610 1.613 . S
S609 N611 1.610 1_655 S
N610 S609 1.613 . S
N610 C613 1.350 . S
N611 S609 1.610 1_455 S
N611 C612 1.351 1_455 S
C612 C606 1.428 . S
C612 N611 1.351 1_655 S
C612 C613 1.434 . S
C613 C604 1.429 . S
C613 N610 1.350 . S
C613 C612 1.434 . S
C614 C615 1.369 . S
C614 C616 1.419 . S
C614 H618 0.930 . S
C615 C614 1.369 . S
C615 C624 1.429 . S
C616 C614 1.419 . S
C616 C617 1.363 . S
C616 H619 0.929 . S
C617 C616 1.363 . S
C617 C623 1.428 . S
H618 C614 0.930 . S
H619 C616 0.929 . S
S620 N621 1.613 . S
S620 N622 1.610 . S
N621 S620 1.613 . S
N621 C624 1.350 . S
N622 S620 1.610 . S
N622 C623 1.351 . S
C623 C617 1.428 . S
C623 N622 1.351 . S
C623 C624 1.434 . S
C624 C615 1.429 . S
C624 N621 1.350 . S
C624 C623 1.434 . S
C625 C626 1.369 . S
C625 C627 1.419 . S
C625 H629 0.930 . S
C626 C625 1.369 . S
C626 C635 1.429 . S
C627 C625 1.419 . S
C627 C628 1.363 . S
C627 H630 0.929 . S
C628 C627 1.363 . S
C628 C634 1.428 . S
H629 C625 0.930 . S
H630 C627 0.929 . S
S631 N632 1.613 . S
S631 N633 1.610 . S
N632 S631 1.613 . S
N632 C635 1.350 . S
N633 S631 1.610 . S
N633 C634 1.351 . S
C634 C628 1.428 . S
C634 N633 1.351 . S
C634 C635 1.434 . S
C635 C626 1.429 . S
C635 N632 1.350 . S
C635 C634 1.434 . S
C636 C637 1.369 . S
C636 C638 1.419 . S
C636 H640 0.930 . S
C637 C636 1.369 . S
C637 C646 1.429 . S
C638 C636 1.419 . S
C638 C639 1.363 . S
C638 H641 0.929 . S
C639 C638 1.363 . S
C639 C645 1.428 . S
H640 C636 0.930 . S
H641 C638 0.929 . S
S642 N643 1.613 . S
S642 N644 1.610 . S
N643 S642 1.613 . S
N643 C646 1.350 . S
N644 S642 1.610 . S
N644 C645 1.351 . S
C645 C639 1.428 . S
C645 N644 1.351 . S
C645 C646 1.434 . S
C646 C637 1.429 . S
C646 N643 1.350 . S
C646 C645 1.434 . S
C647 C648 1.369 . S
C647 C649 1.419 . S
C647 H651 0.930 . S
C648 C647 1.369 . S
C648 C657 1.429 . S
C649 C647 1.419 . S
C649 C650 1.363 . S
C649 H652 0.929 . S
C650 C649 1.363 . S
C650 C656 1.428 . S
H651 C647 0.930 . S
H652 C649 0.929 . S
S653 N654 1.613 . S
S653 N655 1.610 . S
N654 S653 1.613 . S
N654 C657 1.350 . S
N655 S653 1.610 . S
N655 C656 1.351 . S
C656 C650 1.428 . S
C656 N655 1.351 . S
C656 C657 1.434 . S
C657 C648 1.429 . S
C657 N654 1.350 . S
C657 C656 1.434 . S
C658 C659 1.369 . S
C658 C660 1.419 . S
C658 H662 0.930 . S
C659 C658 1.369 . S
C659 C668 1.429 . S
C660 C658 1.419 . S
C660 C661 1.363 . S
C660 H663 0.929 . S
C661 C660 1.363 . S
C661 C667 1.428 . S
H662 C658 0.930 . S
H663 C660 0.929 . S
S664 N665 1.613 . S
S664 N666 1.610 . S
N665 S664 1.613 . S
N665 C668 1.350 . S
N666 S664 1.610 . S
N666 C667 1.351 . S
C667 C661 1.428 . S
C667 N666 1.351 . S
C667 C668 1.434 . S
C668 C659 1.429 . S
C668 N665 1.350 . S
C668 C667 1.434 . S
C669 C670 1.369 . S
C669 C671 1.419 . S
C669 H673 0.930 . S
C670 C669 1.369 . S
C670 C679 1.429 . S
C671 C669 1.419 . S
C671 C672 1.363 . S
C671 H674 0.929 . S
C672 C671 1.363 . S
C672 C678 1.428 . S
H673 C669 0.930 . S
H674 C671 0.929 . S
S675 N676 1.613 . S
S675 N677 1.610 . S
N676 S675 1.613 . S
N676 C679 1.350 . S
N677 S675 1.610 . S
N677 C678 1.351 . S
C678 C672 1.428 . S
C678 N677 1.351 . S
C678 C679 1.434 . S
C679 C670 1.429 . S
C679 N676 1.350 . S
C679 C678 1.434 . S
C680 C681 1.369 . S
C680 C682 1.419 . S
C680 H684 0.930 . S
C681 C680 1.369 . S
C681 C690 1.429 . S
C682 C680 1.419 . S
C682 C683 1.363 . S
C682 H685 0.929 . S
C683 C682 1.363 . S
C683 C689 1.428 . S
H684 C680 0.930 . S
H685 C682 0.929 . S
S686 N687 1.613 . S
S686 N688 1.610 . S
N687 S686 1.613 . S
N687 C690 1.350 . S
N688 S686 1.610 . S
N688 C689 1.351 . S
C689 C683 1.428 . S
C689 N688 1.351 . S
C689 C690 1.434 . S
C690 C681 1.429 . S
C690 N687 1.350 . S
C690 C689 1.434 . S
C691 C692 1.369 . S
C691 C693 1.419 . S
C691 H695 0.930 . S
C692 C691 1.369 . S
C692 C701 1.429 . S
C693 C691 1.419 . S
C693 C694 1.363 . S
C693 H696 0.929 . S
C694 C693 1.363 . S
C694 C700 1.428 . S
H695 C691 0.930 . S
H696 C693 0.929 . S
S697 N698 1.613 . S
S697 N699 1.610 . S
N698 S697 1.613 . S
N698 C701 1.350 . S
N699 S697 1.610 . S
N699 C700 1.351 . S
C700 C694 1.428 . S
C700 N699 1.351 . S
C700 C701 1.434 . S
C701 C692 1.429 . S
C701 N698 1.350 . S
C701 C700 1.434 . S
C702 C703 1.369 . S
C702 C704 1.419 . S
C702 H706 0.930 . S
C703 C702 1.369 . S
C703 C712 1.429 . S
C704 C702 1.419 . S
C704 C705 1.363 . S
C704 H707 0.929 . S
C705 C704 1.363 . S
C705 C711 1.428 . S
H706 C702 0.930 . S
H707 C704 0.929 . S
S708 N709 1.613 . S
S708 N710 1.610 . S
N709 S708 1.613 . S
N709 C712 1.350 . S
N710 S708 1.610 . S
N710 C711 1.351 . S
C711 C705 1.428 . S
C711 N710 1.351 . S
C711 C712 1.434 . S
C712 C703 1.429 . S
C712 N709 1.350 . S
C712 C711 1.434 . S
C713 C714 1.369 . S
C713 C715 1.419 . S
C713 H717 0.930 . S
C714 C713 1.369 . S
C714 C723 1.429 . S
C715 C713 1.419 . S
C715 C716 1.363 . S
C715 H718 0.929 . S
C716 C715 1.363 . S
C716 C722 1.428 . S
H717 C713 0.930 . S
H718 C715 0.929 . S
S719 N720 1.613 . S
S719 N721 1.610 . S
N720 S719 1.613 . S
N720 C723 1.350 . S
N721 S719 1.610 . S
N721 C722 1.351 . S
C722 C716 1.428 . S
C722 N721 1.351 . S
C722 C723 1.434 . S
C723 C714 1.429 . S
C723 N720 1.350 . S
C723 C722 1.434 . S
C724 C725 1.369 . S
C724 C726 1.419 . S
C724 H728 0.930 . S
C725 C724 1.369 . S
C725 C734 1.429 . S
C726 C724 1.419 . S
C726 C727 1.363 . S
C726 H729 0.929 . S
C727 C726 1.363 . S
C727 C733 1.428 . S
H728 C724 0.930 . S
H729 C726 0.929 . S
S730 N731 1.613 . S
S730 N732 1.610 . S
N731 S730 1.613 . S
N731 C734 1.350 . S
N732 S730 1.610 . S
N732 C733 1.351 . S
C733 C727 1.428 . S
C733 N732 1.351 . S
C733 C734 1.434 . S
C734 C725 1.429 . S
C734 N731 1.350 . S
C734 C733 1.434 . S
C735 C736 1.369 . S
C735 C737 1.419 . S
C735 H739 0.930 . S
C736 C735 1.369 . S
C736 C745 1.429 . S
C737 C735 1.419 . S
C737 C738 1.363 . S
C737 H740 0.929 . S
C738 C737 1.363 . S
C738 C744 1.428 . S
H739 C735 0.930 . S
H740 C737 0.929 . S
S741 N742 1.613 . S
S741 N743 1.610 . S
N742 S741 1.613 . S
N742 C745 1.350 . S
N743 S741 1.610 . S
N743 C744 1.351 . S
C744 C738 1.428 . S
C744 N743 1.351 . S
C744 C745 1.434 . S
C745 C736 1.429 . S
C745 N742 1.350 . S
C745 C744 1.434 . S
C746 C747 1.369 . S
C746 C748 1.419 . S
C746 H750 0.930 . S
C747 C746 1.369 . S
C747 C756 1.429 . S
C748 C746 1.419 . S
C748 C749 1.363 . S
C748 H751 0.929 . S
C749 C748 1.363 . S
C749 C755 1.428 . S
H750 C746 0.930 . S
H751 C748 0.929 . S
S752 N753 1.613 . S
S752 N754 1.610 . S
N753 S752 1.613 . S
N753 C756 1.350 . S
N754 S752 1.610 . S
N754 C755 1.351 . S
C755 C749 1.428 . S
C755 N754 1.351 . S
C755 C756 1.434 . S
C756 C747 1.429 . S
C756 N753 1.350 . S
C756 C755 1.434 . S
C757 C758 1.369 . S
C757 C759 1.419 . S
C757 H761 0.930 . S
C758 C757 1.369 . S
C758 C767 1.429 . S
C759 C757 1.419 . S
C759 C760 1.363 . S
C759 H762 0.929 . S
C760 C759 1.363 . S
C760 C766 1.428 . S
H761 C757 0.930 . S
H762 C759 0.929 . S
S763 N764 1.613 . S
S763 N765 1.610 . S
N764 S763 1.613 . S
N764 C767 1.350 . S
N765 S763 1.610 . S
N765 C766 1.351 . S
C766 C760 1.428 . S
C766 N765 1.351 . S
C766 C767 1.434 . S
C767 C758 1.429 . S
C767 N764 1.350 . S
C767 C766 1.434 . S
C768 C769 1.369 . S
C768 C770 1.419 . S
C768 H772 0.930 . S
C769 C768 1.369 . S
C769 C778 1.429 . S
C770 C768 1.419 . S
C770 C771 1.363 . S
C770 H773 0.929 . S
C771 C770 1.363 . S
C771 C777 1.428 . S
H772 C768 0.930 . S
H773 C770 0.929 . S
S774 N775 1.613 . S
S774 N776 1.610 . S
N775 S774 1.613 . S
N775 C778 1.350 . S
N776 S774 1.610 . S
N776 C777 1.351 . S
C777 C771 1.428 . S
C777 N776 1.351 . S
C777 C778 1.434 . S
C778 C769 1.429 . S
C778 N775 1.350 . S
C778 C777 1.434 . S
C779 C780 1.369 . S
C779 C781 1.419 . S
C779 H783 0.930 . S
C780 C779 1.369 . S
C780 C789 1.429 . S
C781 C779 1.419 . S
C781 C782 1.363 . S
C781 H784 0.929 . S
C782 C781 1.363 . S
C782 C788 1.428 . S
H783 C779 0.930 . S
H784 C781 0.929 . S
S785 N786 1.613 . S
S785 N787 1.610 . S
N786 S785 1.613 . S
N786 C789 1.350 . S
N787 S785 1.610 . S
N787 C788 1.351 . S
C788 C782 1.428 . S
C788 N787 1.351 . S
C788 C789 1.434 . S
C789 C780 1.429 . S
C789 N786 1.350 . S
C789 C788 1.434 . S
C790 C791 1.369 . S
C790 C792 1.419 . S
C790 H794 0.930 . S
C791 C790 1.369 . S
C791 C800 1.429 . S
C792 C790 1.419 . S
C792 C793 1.363 . S
C792 H795 0.929 . S
C793 C792 1.363 . S
C793 C799 1.428 . S
H794 C790 0.930 . S
H795 C792 0.929 . S
S796 N797 1.613 . S
S796 N798 1.610 . S
N797 S796 1.613 . S
N797 C800 1.350 . S
N798 S796 1.610 . S
N798 C799 1.351 . S
C799 C793 1.428 . S
C799 N798 1.351 . S
C799 C800 1.434 . S
C800 C791 1.429 . S
C800 N797 1.350 . S
C800 C799 1.434 . S
C801 C802 1.369 . S
C801 C803 1.419 . S
C801 H805 0.930 . S
C802 C801 1.369 . S
C802 C811 1.429 . S
C803 C801 1.419 . S
C803 C804 1.363 . S
C803 H806 0.929 . S
C804 C803 1.363 . S
C804 C810 1.428 . S
H805 C801 0.930 . S
H806 C803 0.929 . S
S807 N808 1.613 . S
S807 N809 1.610 . S
N808 S807 1.613 . S
N808 C811 1.350 . S
N809 S807 1.610 . S
N809 C810 1.351 . S
C810 C804 1.428 . S
C810 N809 1.351 . S
C810 C811 1.434 . S
C811 C802 1.429 . S
C811 N808 1.350 . S
C811 C810 1.434 . S
C812 C813 1.369 . S
C812 C814 1.419 . S
C812 H816 0.930 . S
C813 C812 1.369 . S
C813 C822 1.429 . S
C814 C812 1.419 . S
C814 C815 1.363 . S
C814 H817 0.929 . S
C815 C814 1.363 . S
C815 C821 1.428 . S
H816 C812 0.930 . S
H817 C814 0.929 . S
S818 N819 1.613 . S
S818 N820 1.610 . S
N819 S818 1.613 . S
N819 C822 1.350 . S
N820 S818 1.610 . S
N820 C821 1.351 . S
C821 C815 1.428 . S
C821 N820 1.351 . S
C821 C822 1.434 . S
C822 C813 1.429 . S
C822 N819 1.350 . S
C822 C821 1.434 . S
C823 C824 1.369 . S
C823 C825 1.419 . S
C823 H827 0.930 . S
C824 C823 1.369 . S
C824 C833 1.429 . S
C825 C823 1.419 . S
C825 C826 1.363 . S
C825 H828 0.929 . S
C826 C825 1.363 . S
C826 C832 1.428 . S
H827 C823 0.930 . S
H828 C825 0.929 . S
S829 N830 1.613 . S
S829 N831 1.610 . S
N830 S829 1.613 . S
N830 C833 1.350 . S
N831 S829 1.610 . S
N831 C832 1.351 . S
C832 C826 1.428 . S
C832 N831 1.351 . S
C832 C833 1.434 . S
C833 C824 1.429 . S
C833 N830 1.350 . S
C833 C832 1.434 . S
C834 C835 1.369 . S
C834 C836 1.419 . S
C834 H838 0.930 . S
C835 C834 1.369 . S
C835 C844 1.429 . S
C836 C834 1.419 . S
C836 C837 1.363 . S
C836 H839 0.929 . S
C837 C836 1.363 . S
C837 C843 1.428 . S
H838 C834 0.930 . S
H839 C836 0.929 . S
S840 N841 1.613 . S
S840 N842 1.610 . S
N841 S840 1.613 . S
N841 C844 1.350 . S
N842 S840 1.610 . S
N842 C843 1.351 . S
C843 C837 1.428 . S
C843 N842 1.351 . S
C843 C844 1.434 . S
C844 C835 1.429 . S
C844 N841 1.350 . S
C844 C843 1.434 . S
C845 C846 1.369 . S
C845 C847 1.419 . S
C845 H849 0.930 . S
C846 C845 1.369 . S
C846 C855 1.429 . S
C847 C845 1.419 . S
C847 C848 1.363 . S
C847 H850 0.929 . S
C848 C847 1.363 . S
C848 C854 1.428 . S
H849 C845 0.930 . S
H850 C847 0.929 . S
S851 N852 1.613 . S
S851 N853 1.610 . S
N852 S851 1.613 . S
N852 C855 1.350 . S
N853 S851 1.610 . S
N853 C854 1.351 . S
C854 C848 1.428 . S
C854 N853 1.351 . S
C854 C855 1.434 . S
C855 C846 1.429 . S
C855 N852 1.350 . S
C855 C854 1.434 . S
C856 C857 1.369 . S
C856 C858 1.419 . S
C856 H860 0.930 . S
C857 C856 1.369 . S
C857 C866 1.429 . S
C858 C856 1.419 . S
C858 C859 1.363 . S
C858 H861 0.929 . S
C859 C858 1.363 . S
C859 C865 1.428 . S
H860 C856 0.930 . S
H861 C858 0.929 . S
S862 N863 1.613 . S
S862 N864 1.610 . S
N863 S862 1.613 . S
N863 C866 1.350 . S
N864 S862 1.610 . S
N864 C865 1.351 . S
C865 C859 1.428 . S
C865 N864 1.351 . S
C865 C866 1.434 . S
C866 C857 1.429 . S
C866 N863 1.350 . S
C866 C865 1.434 . S
C867 C868 1.369 . S
C867 C869 1.419 . S
C867 H871 0.930 . S
C868 C867 1.369 . S
C868 C877 1.429 . S
C869 C867 1.419 . S
C869 C870 1.363 . S
C869 H872 0.929 . S
C870 C869 1.363 . S
C870 C876 1.428 . S
H871 C867 0.930 . S
H872 C869 0.929 . S
S873 N874 1.613 . S
S873 N875 1.610 . S
N874 S873 1.613 . S
N874 C877 1.350 . S
N875 S873 1.610 . S
N875 C876 1.351 . S
C876 C870 1.428 . S
C876 N875 1.351 . S
C876 C877 1.434 . S
C877 C868 1.429 . S
C877 N874 1.350 . S
C877 C876 1.434 . S
C878 C879 1.369 . S
C878 C880 1.419 . S
C878 H882 0.930 . S
C879 C878 1.369 . S
C879 C888 1.429 . S
C880 C878 1.419 . S
C880 C881 1.363 . S
C880 H883 0.929 . S
C881 C880 1.363 . S
C881 C887 1.428 . S
H882 C878 0.930 . S
H883 C880 0.929 . S
S884 N885 1.613 . S
S884 N886 1.610 . S
N885 S884 1.613 . S
N885 C888 1.350 . S
N886 S884 1.610 . S
N886 C887 1.351 . S
C887 C881 1.428 . S
C887 N886 1.351 . S
C887 C888 1.434 . S
C888 C879 1.429 . S
C888 N885 1.350 . S
C888 C887 1.434 . S
C889 C890 1.369 . S
C889 C891 1.419 . S
C889 H893 0.930 . S
C890 C889 1.369 . S
C890 C899 1.429 . S
C891 C889 1.419 . S
C891 C892 1.363 . S
C891 H894 0.929 . S
C892 C891 1.363 . S
C892 C898 1.428 . S
H893 C889 0.930 . S
H894 C891 0.929 . S
S895 N896 1.613 . S
S895 N897 1.610 . S
N896 S895 1.613 . S
N896 C899 1.350 . S
N897 S895 1.610 . S
N897 C898 1.351 . S
C898 C892 1.428 . S
C898 N897 1.351 . S
C898 C899 1.434 . S
C899 C890 1.429 . S
C899 N896 1.350 . S
C899 C898 1.434 . S
C900 C901 1.369 . S
C900 C902 1.419 . S
C900 H904 0.930 . S
C901 C900 1.369 . S
C901 C910 1.429 . S
C902 C900 1.419 . S
C902 C903 1.363 . S
C902 H905 0.929 . S
C903 C902 1.363 . S
C903 C909 1.428 . S
H904 C900 0.930 . S
H905 C902 0.929 . S
S906 N907 1.613 . S
S906 N908 1.610 . S
N907 S906 1.613 . S
N907 C910 1.350 . S
N908 S906 1.610 . S
N908 C909 1.351 . S
C909 C903 1.428 . S
C909 N908 1.351 . S
C909 C910 1.434 . S
C910 C901 1.429 . S
C910 N907 1.350 . S
C910 C909 1.434 . S
C911 C912 1.369 . S
C911 C913 1.419 . S
C911 H915 0.930 . S
C912 C911 1.369 . S
C912 C921 1.429 1_565 S
C913 C911 1.419 . S
C913 C914 1.363 1_565 S
C913 H916 0.929 . S
C914 C913 1.363 1_545 S
C914 C920 1.428 . S
H915 C911 0.930 . S
H916 C913 0.929 . S
S917 N918 1.613 . S
S917 N919 1.610 . S
N918 S917 1.613 . S
N918 C921 1.350 . S
N919 S917 1.610 . S
N919 C920 1.351 . S
C920 C914 1.428 . S
C920 N919 1.351 . S
C920 C921 1.434 . S
C921 C912 1.429 1_545 S
C921 N918 1.350 . S
C921 C920 1.434 . S
C922 C923 1.369 . S
C922 C924 1.419 . S
C922 H926 0.930 . S
C923 C922 1.369 . S
C923 C932 1.429 1_655 S
C924 C922 1.419 . S
C924 C925 1.363 1_655 S
C924 H927 0.929 . S
C925 C924 1.363 1_455 S
C925 C931 1.428 . S
H926 C922 0.930 . S
H927 C924 0.929 . S
S928 N929 1.613 . S
S928 N930 1.610 . S
N929 S928 1.613 . S
N929 C932 1.350 . S
N930 S928 1.610 . S
N930 C931 1.351 . S
C931 C925 1.428 . S
C931 N930 1.351 . S
C931 C932 1.434 . S
C932 C923 1.429 1_455 S
C932 N929 1.350 . S
C932 C931 1.434 . S
C933 C934 1.369 . S
C933 C935 1.419 . S
C933 H937 0.930 . S
C934 C933 1.369 . S
C934 C943 1.429 . S
C935 C933 1.419 . S
C935 C936 1.363 . S
C935 H938 0.929 . S
C936 C935 1.363 . S
C936 C942 1.428 . S
H937 C933 0.930 . S
H938 C935 0.929 . S
S939 N940 1.613 . S
S939 N941 1.610 . S
N940 S939 1.613 . S
N940 C943 1.350 . S
N941 S939 1.610 . S
N941 C942 1.351 . S
C942 C936 1.428 . S
C942 N941 1.351 . S
C942 C943 1.434 . S
C943 C934 1.429 . S
C943 N940 1.350 . S
C943 C942 1.434 . S
C944 C945 1.369 . S
C944 C946 1.419 1_545 S
C944 H948 0.930 . S
C945 C944 1.369 . S
C945 C954 1.429 . S
C946 C944 1.419 1_565 S
C946 C947 1.363 . S
C946 H949 0.929 . S
C947 C946 1.363 . S
C947 C953 1.428 . S
H948 C944 0.930 . S
H949 C946 0.929 . S
S950 N951 1.613 . S
S950 N952 1.610 1_545 S
N951 S950 1.613 . S
N951 C954 1.350 . S
N952 S950 1.610 1_565 S
N952 C953 1.351 . S
C953 C947 1.428 . S
C953 N952 1.351 . S
C953 C954 1.434 1_565 S
C954 C945 1.429 . S
C954 N951 1.350 . S
C954 C953 1.434 1_545 S
C955 C956 1.369 . S
C955 C957 1.419 . S
C955 H959 0.930 . S
C956 C955 1.369 . S
C956 C965 1.429 1_655 S
C957 C955 1.419 . S
C957 C958 1.363 1_655 S
C957 H960 0.929 . S
C958 C957 1.363 1_455 S
C958 C964 1.428 . S
H959 C955 0.930 . S
H960 C957 0.929 . S
S961 N962 1.613 . S
S961 N963 1.610 . S
N962 S961 1.613 . S
N962 C965 1.350 . S
N963 S961 1.610 . S
N963 C964 1.351 . S
C964 C958 1.428 . S
C964 N963 1.351 . S
C964 C965 1.434 . S
C965 C956 1.429 1_455 S
C965 N962 1.350 . S
C965 C964 1.434 . S
C966 C967 1.369 . S
C966 C968 1.419 . S
C966 H970 0.930 . S
C967 C966 1.369 . S
C967 C976 1.429 . S
C968 C966 1.419 . S
C968 C969 1.363 . S
C968 H971 0.929 . S
C969 C968 1.363 . S
C969 C975 1.428 . S
H970 C966 0.930 . S
H971 C968 0.929 . S
S972 N973 1.613 . S
S972 N974 1.610 . S
N973 S972 1.613 . S
N973 C976 1.350 . S
N974 S972 1.610 . S
N974 C975 1.351 . S
C975 C969 1.428 . S
C975 N974 1.351 . S
C975 C976 1.434 . S
C976 C967 1.429 . S
C976 N973 1.350 . S
C976 C975 1.434 . S
C977 C978 1.369 . S
C977 C979 1.419 . S
C977 H981 0.930 . S
C978 C977 1.369 . S
C978 C987 1.429 . S
C979 C977 1.419 . S
C979 C980 1.363 . S
C979 H982 0.929 . S
C980 C979 1.363 . S
C980 C986 1.428 . S
H981 C977 0.930 . S
H982 C979 0.929 . S
S983 N984 1.613 . S
S983 N985 1.610 . S
N984 S983 1.613 . S
N984 C987 1.350 . S
N985 S983 1.610 . S
N985 C986 1.351 . S
C986 C980 1.428 . S
C986 N985 1.351 . S
C986 C987 1.434 . S
C987 C978 1.429 . S
C987 N984 1.350 . S
C987 C986 1.434 . S
C988 C989 1.369 . S
C988 C990 1.419 . S
C988 H992 0.930 . S
C989 C988 1.369 . S
C989 C998 1.429 . S
C990 C988 1.419 . S
C990 C991 1.363 . S
C990 H993 0.929 . S
C991 C990 1.363 . S
C991 C997 1.428 . S
H992 C988 0.930 . S
H993 C990 0.929 . S
S994 N995 1.613 . S
S994 N996 1.610 . S
N995 S994 1.613 . S
N995 C998 1.350 . S
N996 S994 1.610 . S
N996 C997 1.351 . S
C997 C991 1.428 . S
C997 N996 1.351 . S
C997 C998 1.434 . S
C998 C989 1.429 . S
C998 N995 1.350 . S
C998 C997 1.434 . S
C999 C1000 1.369 . S
C999 C1001 1.419 . S
C999 H1003 0.930 . S
C1000 C999 1.369 . S
C1000 C1009 1.429 . S
C1001 C999 1.419 . S
C1001 C1002 1.363 . S
C1001 H1004 0.929 . S
C1002 C1001 1.363 . S
C1002 C1008 1.428 . S
H1003 C999 0.930 . S
H1004 C1001 0.929 . S
S1005 N1006 1.613 . S
S1005 N1007 1.610 . S
N1006 S1005 1.613 . S
N1006 C1009 1.350 . S
N1007 S1005 1.610 . S
N1007 C1008 1.351 . S
C1008 C1002 1.428 . S
C1008 N1007 1.351 . S
C1008 C1009 1.434 . S
C1009 C1000 1.429 . S
C1009 N1006 1.350 . S
C1009 C1008 1.434 . S
C1010 C1011 1.369 . S
C1010 C1012 1.419 . S
C1010 H1014 0.930 . S
C1011 C1010 1.369 . S
C1011 C1020 1.429 . S
C1012 C1010 1.419 . S
C1012 C1013 1.363 . S
C1012 H1015 0.929 . S
C1013 C1012 1.363 . S
C1013 C1019 1.428 . S
H1014 C1010 0.930 . S
H1015 C1012 0.929 . S
S1016 N1017 1.613 . S
S1016 N1018 1.610 . S
N1017 S1016 1.613 . S
N1017 C1020 1.350 . S
N1018 S1016 1.610 . S
N1018 C1019 1.351 . S
C1019 C1013 1.428 . S
C1019 N1018 1.351 . S
C1019 C1020 1.434 . S
C1020 C1011 1.429 . S
C1020 N1017 1.350 . S
C1020 C1019 1.434 . S
C1021 C1022 1.369 . S
C1021 C1023 1.419 . S
C1021 H1025 0.930 . S
C1022 C1021 1.369 . S
C1022 C1031 1.429 . S
C1023 C1021 1.419 . S
C1023 C1024 1.363 . S
C1023 H1026 0.929 . S
C1024 C1023 1.363 . S
C1024 C1030 1.428 . S
H1025 C1021 0.930 . S
H1026 C1023 0.929 . S
S1027 N1028 1.613 . S
S1027 N1029 1.610 . S
N1028 S1027 1.613 . S
N1028 C1031 1.350 . S
N1029 S1027 1.610 . S
N1029 C1030 1.351 . S
C1030 C1024 1.428 . S
C1030 N1029 1.351 . S
C1030 C1031 1.434 . S
C1031 C1022 1.429 . S
C1031 N1028 1.350 . S
C1031 C1030 1.434 . S
C1032 C1033 1.369 . S
C1032 C1034 1.419 . S
C1032 H1036 0.930 . S
C1033 C1032 1.369 . S
C1033 C1042 1.429 . S
C1034 C1032 1.419 . S
C1034 C1035 1.363 . S
C1034 H1037 0.929 . S
C1035 C1034 1.363 . S
C1035 C1041 1.428 . S
H1036 C1032 0.930 . S
H1037 C1034 0.929 . S
S1038 N1039 1.613 . S
S1038 N1040 1.610 . S
N1039 S1038 1.613 . S
N1039 C1042 1.350 . S
N1040 S1038 1.610 . S
N1040 C1041 1.351 . S
C1041 C1035 1.428 . S
C1041 N1040 1.351 . S
C1041 C1042 1.434 . S
C1042 C1033 1.429 . S
C1042 N1039 1.350 . S
C1042 C1041 1.434 . S
C1043 C1044 1.369 . S
C1043 C1045 1.419 . S
C1043 H1047 0.930 . S
C1044 C1043 1.369 . S
C1044 C1053 1.429 . S
C1045 C1043 1.419 . S
C1045 C1046 1.363 . S
C1045 H1048 0.929 . S
C1046 C1045 1.363 . S
C1046 C1052 1.428 . S
H1047 C1043 0.930 . S
H1048 C1045 0.929 . S
S1049 N1050 1.613 . S
S1049 N1051 1.610 . S
N1050 S1049 1.613 . S
N1050 C1053 1.350 . S
N1051 S1049 1.610 . S
N1051 C1052 1.351 . S
C1052 C1046 1.428 . S
C1052 N1051 1.351 . S
C1052 C1053 1.434 . S
C1053 C1044 1.429 . S
C1053 N1050 1.350 . S
C1053 C1052 1.434 . S
C1054 C1055 1.369 . S
C1054 C1056 1.419 . S
C1054 H1058 0.930 . S
C1055 C1054 1.369 . S
C1055 C1064 1.429 . S
C1056 C1054 1.419 . S
C1056 C1057 1.363 . S
C1056 H1059 0.929 . S
C1057 C1056 1.363 . S
C1057 C1063 1.428 . S
H1058 C1054 0.930 . S
H1059 C1056 0.929 . S
S1060 N1061 1.613 . S
S1060 N1062 1.610 . S
N1061 S1060 1.613 . S
N1061 C1064 1.350 . S
N1062 S1060 1.610 . S
N1062 C1063 1.351 . S
C1063 C1057 1.428 . S
C1063 N1062 1.351 . S
C1063 C1064 1.434 . S
C1064 C1055 1.429 . S
C1064 N1061 1.350 . S
C1064 C1063 1.434 . S
C1065 C1066 1.369 . S
C1065 C1067 1.419 . S
C1065 H1069 0.930 . S
C1066 C1065 1.369 . S
C1066 C1075 1.429 . S
C1067 C1065 1.419 . S
C1067 C1068 1.363 . S
C1067 H1070 0.929 . S
C1068 C1067 1.363 . S
C1068 C1074 1.428 . S
H1069 C1065 0.930 . S
H1070 C1067 0.929 . S
S1071 N1072 1.613 . S
S1071 N1073 1.610 . S
N1072 S1071 1.613 . S
N1072 C1075 1.350 . S
N1073 S1071 1.610 . S
N1073 C1074 1.351 . S
C1074 C1068 1.428 . S
C1074 N1073 1.351 . S
C1074 C1075 1.434 . S
C1075 C1066 1.429 . S
C1075 N1072 1.350 . S
C1075 C1074 1.434 . S
C1076 C1077 1.369 . S
C1076 C1078 1.419 . S
C1076 H1080 0.930 . S
C1077 C1076 1.369 . S
C1077 C1086 1.429 . S
C1078 C1076 1.419 . S
C1078 C1079 1.363 . S
C1078 H1081 0.929 . S
C1079 C1078 1.363 . S
C1079 C1085 1.428 . S
H1080 C1076 0.930 . S
H1081 C1078 0.929 . S
S1082 N1083 1.613 . S
S1082 N1084 1.610 . S
N1083 S1082 1.613 . S
N1083 C1086 1.350 . S
N1084 S1082 1.610 . S
N1084 C1085 1.351 . S
C1085 C1079 1.428 . S
C1085 N1084 1.351 . S
C1085 C1086 1.434 . S
C1086 C1077 1.429 . S
C1086 N1083 1.350 . S
C1086 C1085 1.434 . S
C1087 C1088 1.369 . S
C1087 C1089 1.419 . S
C1087 H1091 0.930 . S
C1088 C1087 1.369 . S
C1088 C1097 1.429 . S
C1089 C1087 1.419 . S
C1089 C1090 1.363 . S
C1089 H1092 0.929 . S
C1090 C1089 1.363 . S
C1090 C1096 1.428 . S
H1091 C1087 0.930 . S
H1092 C1089 0.929 . S
S1093 N1094 1.613 . S
S1093 N1095 1.610 . S
N1094 S1093 1.613 . S
N1094 C1097 1.350 . S
N1095 S1093 1.610 . S
N1095 C1096 1.351 . S
C1096 C1090 1.428 . S
C1096 N1095 1.351 . S
C1096 C1097 1.434 . S
C1097 C1088 1.429 . S
C1097 N1094 1.350 . S
C1097 C1096 1.434 . S
C1098 C1099 1.369 . S
C1098 C1100 1.419 . S
C1098 H1102 0.930 . S
C1099 C1098 1.369 . S
C1099 C1108 1.429 . S
C1100 C1098 1.419 . S
C1100 C1101 1.363 . S
C1100 H1103 0.929 . S
C1101 C1100 1.363 . S
C1101 C1107 1.428 . S
H1102 C1098 0.930 . S
H1103 C1100 0.929 . S
S1104 N1105 1.613 . S
S1104 N1106 1.610 . S
N1105 S1104 1.613 . S
N1105 C1108 1.350 . S
N1106 S1104 1.610 . S
N1106 C1107 1.351 . S
C1107 C1101 1.428 . S
C1107 N1106 1.351 . S
C1107 C1108 1.434 . S
C1108 C1099 1.429 . S
C1108 N1105 1.350 . S
C1108 C1107 1.434 . S
C1109 C1110 1.369 . S
C1109 C1111 1.419 . S
C1109 H1113 0.930 . S
C1110 C1109 1.369 . S
C1110 C1119 1.429 . S
C1111 C1109 1.419 . S
C1111 C1112 1.363 . S
C1111 H1114 0.929 . S
C1112 C1111 1.363 . S
C1112 C1118 1.428 . S
H1113 C1109 0.930 . S
H1114 C1111 0.929 . S
S1115 N1116 1.613 . S
S1115 N1117 1.610 . S
N1116 S1115 1.613 . S
N1116 C1119 1.350 . S
N1117 S1115 1.610 . S
N1117 C1118 1.351 . S
C1118 C1112 1.428 . S
C1118 N1117 1.351 . S
C1118 C1119 1.434 . S
C1119 C1110 1.429 . S
C1119 N1116 1.350 . S
C1119 C1118 1.434 . S
C1120 C1121 1.369 . S
C1120 C1122 1.419 . S
C1120 H1124 0.930 . S
C1121 C1120 1.369 . S
C1121 C1130 1.429 . S
C1122 C1120 1.419 . S
C1122 C1123 1.363 . S
C1122 H1125 0.929 . S
C1123 C1122 1.363 . S
C1123 C1129 1.428 . S
H1124 C1120 0.930 . S
H1125 C1122 0.929 . S
S1126 N1127 1.613 . S
S1126 N1128 1.610 . S
N1127 S1126 1.613 . S
N1127 C1130 1.350 . S
N1128 S1126 1.610 . S
N1128 C1129 1.351 . S
C1129 C1123 1.428 . S
C1129 N1128 1.351 . S
C1129 C1130 1.434 . S
C1130 C1121 1.429 . S
C1130 N1127 1.350 . S
C1130 C1129 1.434 . S
C1131 C1132 1.369 . S
C1131 C1133 1.419 . S
C1131 H1135 0.930 . S
C1132 C1131 1.369 . S
C1132 C1141 1.429 . S
C1133 C1131 1.419 . S
C1133 C1134 1.363 . S
C1133 H1136 0.929 . S
C1134 C1133 1.363 . S
C1134 C1140 1.428 . S
H1135 C1131 0.930 . S
H1136 C1133 0.929 . S
S1137 N1138 1.613 . S
S1137 N1139 1.610 . S
N1138 S1137 1.613 . S
N1138 C1141 1.350 . S
N1139 S1137 1.610 . S
N1139 C1140 1.351 . S
C1140 C1134 1.428 . S
C1140 N1139 1.351 . S
C1140 C1141 1.434 . S
C1141 C1132 1.429 . S
C1141 N1138 1.350 . S
C1141 C1140 1.434 . S
C1142 C1143 1.369 . S
C1142 C1144 1.419 . S
C1142 H1146 0.930 . S
C1143 C1142 1.369 . S
C1143 C1152 1.429 . S
C1144 C1142 1.419 . S
C1144 C1145 1.363 . S
C1144 H1147 0.929 . S
C1145 C1144 1.363 . S
C1145 C1151 1.428 . S
H1146 C1142 0.930 . S
H1147 C1144 0.929 . S
S1148 N1149 1.613 . S
S1148 N1150 1.610 . S
N1149 S1148 1.613 . S
N1149 C1152 1.350 . S
N1150 S1148 1.610 . S
N1150 C1151 1.351 . S
C1151 C1145 1.428 . S
C1151 N1150 1.351 . S
C1151 C1152 1.434 . S
C1152 C1143 1.429 . S
C1152 N1149 1.350 . S
C1152 C1151 1.434 . S
C1153 C1154 1.369 . S
C1153 C1155 1.419 . S
C1153 H1157 0.930 . S
C1154 C1153 1.369 . S
C1154 C1163 1.429 . S
C1155 C1153 1.419 . S
C1155 C1156 1.363 . S
C1155 H1158 0.929 . S
C1156 C1155 1.363 . S
C1156 C1162 1.428 . S
H1157 C1153 0.930 . S
H1158 C1155 0.929 . S
S1159 N1160 1.613 . S
S1159 N1161 1.610 . S
N1160 S1159 1.613 . S
N1160 C1163 1.350 . S
N1161 S1159 1.610 . S
N1161 C1162 1.351 . S
C1162 C1156 1.428 . S
C1162 N1161 1.351 . S
C1162 C1163 1.434 . S
C1163 C1154 1.429 . S
C1163 N1160 1.350 . S
C1163 C1162 1.434 . S
C1164 C1165 1.369 . S
C1164 C1166 1.419 . S
C1164 H1168 0.930 . S
C1165 C1164 1.369 . S
C1165 C1174 1.429 . S
C1166 C1164 1.419 . S
C1166 C1167 1.363 . S
C1166 H1169 0.929 . S
C1167 C1166 1.363 . S
C1167 C1173 1.428 . S
H1168 C1164 0.930 . S
H1169 C1166 0.929 . S
S1170 N1171 1.613 . S
S1170 N1172 1.610 . S
N1171 S1170 1.613 . S
N1171 C1174 1.350 . S
N1172 S1170 1.610 . S
N1172 C1173 1.351 . S
C1173 C1167 1.428 . S
C1173 N1172 1.351 . S
C1173 C1174 1.434 . S
C1174 C1165 1.429 . S
C1174 N1171 1.350 . S
C1174 C1173 1.434 . S
C1175 C1176 1.369 . S
C1175 C1177 1.419 . S
C1175 H1179 0.930 . S
C1176 C1175 1.369 . S
C1176 C1185 1.429 . S
C1177 C1175 1.419 . S
C1177 C1178 1.363 . S
C1177 H1180 0.929 . S
C1178 C1177 1.363 . S
C1178 C1184 1.428 . S
H1179 C1175 0.930 . S
H1180 C1177 0.929 . S
S1181 N1182 1.613 . S
S1181 N1183 1.610 . S
N1182 S1181 1.613 . S
N1182 C1185 1.350 . S
N1183 S1181 1.610 . S
N1183 C1184 1.351 . S
C1184 C1178 1.428 . S
C1184 N1183 1.351 . S
C1184 C1185 1.434 . S
C1185 C1176 1.429 . S
C1185 N1182 1.350 . S
C1185 C1184 1.434 . S
C1186 C1187 1.369 . S
C1186 C1188 1.419 . S
C1186 H1190 0.930 . S
C1187 C1186 1.369 . S
C1187 C1196 1.429 . S
C1188 C1186 1.419 . S
C1188 C1189 1.363 . S
C1188 H1191 0.929 . S
C1189 C1188 1.363 . S
C1189 C1195 1.428 . S
H1190 C1186 0.930 . S
H1191 C1188 0.929 . S
S1192 N1193 1.613 . S
S1192 N1194 1.610 . S
N1193 S1192 1.613 . S
N1193 C1196 1.350 . S
N1194 S1192 1.610 . S
N1194 C1195 1.351 . S
C1195 C1189 1.428 . S
C1195 N1194 1.351 . S
C1195 C1196 1.434 . S
C1196 C1187 1.429 . S
C1196 N1193 1.350 . S
C1196 C1195 1.434 . S
C1197 C1198 1.369 . S
C1197 C1199 1.419 . S
C1197 H1201 0.930 . S
C1198 C1197 1.369 . S
C1198 C1207 1.429 . S
C1199 C1197 1.419 . S
C1199 C1200 1.363 . S
C1199 H1202 0.929 . S
C1200 C1199 1.363 . S
C1200 C1206 1.428 . S
H1201 C1197 0.930 . S
H1202 C1199 0.929 . S
S1203 N1204 1.613 . S
S1203 N1205 1.610 . S
N1204 S1203 1.613 . S
N1204 C1207 1.350 . S
N1205 S1203 1.610 . S
N1205 C1206 1.351 . S
C1206 C1200 1.428 . S
C1206 N1205 1.351 . S
C1206 C1207 1.434 . S
C1207 C1198 1.429 . S
C1207 N1204 1.350 . S
C1207 C1206 1.434 . S
C1208 C1209 1.369 . S
C1208 C1210 1.419 . S
C1208 H1212 0.930 . S
C1209 C1208 1.369 . S
C1209 C1218 1.429 . S
C1210 C1208 1.419 . S
C1210 C1211 1.363 . S
C1210 H1213 0.929 . S
C1211 C1210 1.363 . S
C1211 C1217 1.428 . S
H1212 C1208 0.930 . S
H1213 C1210 0.929 . S
S1214 N1215 1.613 . S
S1214 N1216 1.610 . S
N1215 S1214 1.613 . S
N1215 C1218 1.350 . S
N1216 S1214 1.610 . S
N1216 C1217 1.351 . S
C1217 C1211 1.428 . S
C1217 N1216 1.351 . S
C1217 C1218 1.434 . S
C1218 C1209 1.429 . S
C1218 N1215 1.350 . S
C1218 C1217 1.434 . S
C1219 C1220 1.369 . S
C1219 C1221 1.419 . S
C1219 H1223 0.930 . S
C1220 C1219 1.369 . S
C1220 C1229 1.429 . S
C1221 C1219 1.419 . S
C1221 C1222 1.363 . S
C1221 H1224 0.929 . S
C1222 C1221 1.363 . S
C1222 C1228 1.428 . S
H1223 C1219 0.930 . S
H1224 C1221 0.929 . S
S1225 N1226 1.613 . S
S1225 N1227 1.610 . S
N1226 S1225 1.613 . S
N1226 C1229 1.350 . S
N1227 S1225 1.610 . S
N1227 C1228 1.351 . S
C1228 C1222 1.428 . S
C1228 N1227 1.351 . S
C1228 C1229 1.434 . S
C1229 C1220 1.429 . S
C1229 N1226 1.350 . S
C1229 C1228 1.434 . S
C1230 C1231 1.369 1_655 S
C1230 C1232 1.419 . S
C1230 H1234 0.930 . S
C1231 C1230 1.369 1_455 S
C1231 C1240 1.429 . S
C1232 C1230 1.419 . S
C1232 C1233 1.363 . S
C1232 H1235 0.929 . S
C1233 C1232 1.363 . S
C1233 C1239 1.428 1_655 S
H1234 C1230 0.930 . S
H1235 C1232 0.929 . S
S1236 N1237 1.613 . S
S1236 N1238 1.610 . S
N1237 S1236 1.613 . S
N1237 C1240 1.350 . S
N1238 S1236 1.610 . S
N1238 C1239 1.351 . S
C1239 C1233 1.428 1_455 S
C1239 N1238 1.351 . S
C1239 C1240 1.434 . S
C1240 C1231 1.429 . S
C1240 N1237 1.350 . S
C1240 C1239 1.434 . S
C1241 C1242 1.369 . S
C1241 C1243 1.419 . S
C1241 H1245 0.930 . S
C1242 C1241 1.369 . S
C1242 C1251 1.429 . S
C1243 C1241 1.419 . S
C1243 C1244 1.363 . S
C1243 H1246 0.929 . S
C1244 C1243 1.363 . S
C1244 C1250 1.428 . S
H1245 C1241 0.930 . S
H1246 C1243 0.929 . S
S1247 N1248 1.613 . S
S1247 N1249 1.610 . S
N1248 S1247 1.613 . S
N1248 C1251 1.350 . S
N1249 S1247 1.610 . S
N1249 C1250 1.351 . S
C1250 C1244 1.428 . S
C1250 N1249 1.351 . S
C1250 C1251 1.434 . S
C1251 C1242 1.429 . S
C1251 N1248 1.350 . S
C1251 C1250 1.434 . S
C1252 C1253 1.369 . S
C1252 C1254 1.419 . S
C1252 H1256 0.930 . S
C1253 C1252 1.369 . S
C1253 C1262 1.429 1_545 S
C1254 C1252 1.419 . S
C1254 C1255 1.363 1_545 S
C1254 H1257 0.929 . S
C1255 C1254 1.363 1_565 S
C1255 C1261 1.428 . S
H1256 C1252 0.930 . S
H1257 C1254 0.929 . S
S1258 N1259 1.613 . S
S1258 N1260 1.610 . S
N1259 S1258 1.613 . S
N1259 C1262 1.350 . S
N1260 S1258 1.610 . S
N1260 C1261 1.351 . S
C1261 C1255 1.428 . S
C1261 N1260 1.351 . S
C1261 C1262 1.434 . S
C1262 C1253 1.429 1_565 S
C1262 N1259 1.350 . S
C1262 C1261 1.434 . S
C1263 C1264 1.369 1_554 S
C1263 C1265 1.419 . S
C1263 H1267 0.930 . S
C1264 C1263 1.369 1_556 S
C1264 C1273 1.429 1_545 S
C1265 C1263 1.419 . S
C1265 C1266 1.363 1_545 S
C1265 H1268 0.929 . S
C1266 C1265 1.363 1_565 S
C1266 C1272 1.428 1_554 S
H1267 C1263 0.930 . S
H1268 C1265 0.929 . S
S1269 N1270 1.613 . S
S1269 N1271 1.610 . S
N1270 S1269 1.613 . S
N1270 C1273 1.350 . S
N1271 S1269 1.610 . S
N1271 C1272 1.351 . S
C1272 C1266 1.428 1_556 S
C1272 N1271 1.351 . S
C1272 C1273 1.434 . S
C1273 C1264 1.429 1_565 S
C1273 N1270 1.350 . S
C1273 C1272 1.434 . S
C1274 C1275 1.369 1_455 S
C1274 C1276 1.419 . S
C1274 H1278 0.930 . S
C1275 C1274 1.369 1_655 S
C1275 C1284 1.429 1_556 S
C1276 C1274 1.419 . S
C1276 C1277 1.363 1_556 S
C1276 H1279 0.929 . S
C1277 C1276 1.363 1_554 S
C1277 C1283 1.428 1_455 S
H1278 C1274 0.930 . S
H1279 C1276 0.929 . S
S1280 N1281 1.613 . S
S1280 N1282 1.610 . S
N1281 S1280 1.613 . S
N1281 C1284 1.350 . S
N1282 S1280 1.610 . S
N1282 C1283 1.351 . S
C1283 C1277 1.428 1_655 S
C1283 N1282 1.351 . S
C1283 C1284 1.434 . S
C1284 C1275 1.429 1_554 S
C1284 N1281 1.350 . S
C1284 C1283 1.434 . S
C1285 C1286 1.369 . S
C1285 C1287 1.419 . S
C1285 H1289 0.930 . S
C1286 C1285 1.369 . S
C1286 C1295 1.429 1_556 S
C1287 C1285 1.419 . S
C1287 C1288 1.363 1_556 S
C1287 H1290 0.929 . S
C1288 C1287 1.363 1_554 S
C1288 C1294 1.428 . S
H1289 C1285 0.930 . S
H1290 C1287 0.929 . S
S1291 N1292 1.613 . S
S1291 N1293 1.610 . S
N1292 S1291 1.613 . S
N1292 C1295 1.350 . S
N1293 S1291 1.610 . S
N1293 C1294 1.351 . S
C1294 C1288 1.428 . S
C1294 N1293 1.351 . S
C1294 C1295 1.434 . S
C1295 C1286 1.429 1_554 S
C1295 N1292 1.350 . S
C1295 C1294 1.434 . S
C505 C3 1.364 . S
C507 C107 1.336 1_545 S
C516 C17 1.369 . S
C518 C121 1.337 1_655 S
C527 C93 1.334 . S
C529 C31 1.366 . S
C538 C163 1.338 1_455 S
C540 C45 1.368 . S
C549 C59 1.367 . S
C551 C135 1.332 . S
C560 C73 1.365 . S
C562 C149 1.338 1_565 S
C571 C23 1.340 1_565 S
C573 C87 1.366 . S
C582 C37 1.332 1_455 S
C584 C101 1.366 . S
C593 C115 1.368 . S
C595 C9 1.338 . S
C604 C129 1.368 . S
C606 C79 1.338 1_655 S
C615 C51 1.337 . S
C617 C143 1.369 . S
C626 C157 1.367 . S
C628 C65 1.332 1_545 S
C637 C275 1.338 . S
C639 C171 1.365 . S
C648 C185 1.366 . S
C650 C289 1.339 . S
C659 C199 1.364 . S
C661 C261 1.336 . S
C670 C331 1.331 . S
C672 C213 1.367 . S
C681 C227 1.364 . S
C683 C303 1.337 . S
C692 C317 1.340 . S
C694 C241 1.366 . S
C703 C191 1.333 . S
C705 C255 1.369 . S
C714 C269 1.366 . S
C716 C205 1.332 . S
C725 C177 1.336 . S
C727 C283 1.369 . S
C736 C297 1.365 . S
C738 C247 1.339 . S
C747 C311 1.365 . S
C749 C219 1.335 . S
C758 C325 1.364 . S
C760 C233 1.337 . S
C769 C443 1.340 . S
C771 C339 1.366 . S
C780 C457 1.331 . S
C782 C353 1.369 . S
C791 C429 1.333 . S
C793 C367 1.366 . S
C802 C381 1.367 . S
C804 C499 1.339 . S
C813 C395 1.364 . S
C815 C471 1.336 . S
C824 C485 1.336 . S
C826 C409 1.369 . S
C835 C423 1.368 . S
C837 C359 1.332 . S
C846 C373 1.331 . S
C848 C437 1.367 . S
C857 C345 1.331 . S
C859 C451 1.369 . S
C868 C465 1.368 . S
C870 C415 1.338 . S
C879 C479 1.367 . S
C881 C387 1.332 . S
C890 C493 1.365 . S
C892 C401 1.339 . S
C901 C49 1.392 . S
C903 C7 1.386 . S
C912 C63 1.385 . S
C914 C21 1.391 . S
C923 C35 1.389 . S
C925 C77 1.392 . S
C934 C133 1.393 . S
C936 C91 1.386 . S
C945 C147 1.389 . S
C947 C105 1.386 . S
C956 C161 1.385 . S
C958 C119 1.391 . S
C967 C217 1.392 . S
C969 C175 1.386 . S
C978 C231 1.393 . S
C980 C189 1.387 . S
C989 C203 1.393 . S
C991 C245 1.388 . S
C1000 C301 1.393 . S
C1002 C259 1.388 . S
C1011 C315 1.387 . S
C1013 C273 1.392 . S
C1022 C329 1.391 . S
C1024 C287 1.391 . S
C1033 C385 1.391 . S
C1035 C343 1.391 . S
C1044 C357 1.387 . S
C1046 C399 1.392 . S
C1055 C413 1.389 . S
C1057 C371 1.392 . S
C1066 C427 1.392 . S
C1068 C469 1.390 . S
C1077 C441 1.385 . S
C1079 C483 1.391 . S
C1088 C455 1.387 . S
C1090 C497 1.387 . S
C1099 C8 1.467 . S
C1101 C260 1.471 . S
C1110 C274 1.469 . S
C1112 C22 1.470 . S
C1121 C288 1.471 . S
C1123 C36 1.468 . S
C1132 C470 1.469 . S
C1134 C50 1.469 . S
C1143 C484 1.469 . S
C1145 C64 1.470 . S
C1154 C498 1.471 . S
C1156 C78 1.468 . S
C1165 C92 1.471 . S
C1167 C344 1.468 . S
C1176 C358 1.471 . S
C1178 C106 1.468 . S
C1187 C372 1.467 . S
C1189 C120 1.471 . S
C1198 C134 1.470 . S
C1200 C218 1.469 . S
C1209 C148 1.467 . S
C1211 C232 1.471 . S
C1220 C162 1.471 . S
C1222 C246 1.468 . S
C1231 C428 1.467 . S
C1233 C176 1.471 . S
C1242 C442 1.471 . S
C1244 C190 1.468 . S
C1253 C204 1.470 . S
C1255 C456 1.468 . S
C1264 C302 1.471 . S
C1266 C386 1.468 . S
C1275 C316 1.468 . S
C1277 C400 1.471 . S
C1286 C330 1.468 . S
C1288 C414 1.470 . S
