# Generated by pormake.
# Topology wir, (6)-cn, num edge types: 1
# Building blocks:
#     Node 0, Type 0, BuildingBlock: GEDQOX_clean_sbu_0, # of connection points: 6
#     Node 1, Type 0, BuildingBlock: GEDQOX_clean_sbu_0, # of connection points: 6
#     Node 2, Type 0, BuildingBlock: GEDQOX_clean_sbu_0, # of connection points: 6
#     Node 3, Type 0, BuildingBlock: GEDQOX_clean_sbu_0, # of connection points: 6
#     Node 4, Type 0, BuildingBlock: GEDQOX_clean_sbu_0, # of connection points: 6
#     Node 5, Type 0, BuildingBlock: GEDQOX_clean_sbu_0, # of connection points: 6
#     Node 6, Type 0, BuildingBlock: GEDQOX_clean_sbu_0, # of connection points: 6
#     Node 7, Type 0, BuildingBlock: GEDQOX_clean_sbu_0, # of connection points: 6
#     Node 8, Type 0, BuildingBlock: GEDQOX_clean_sbu_0, # of connection points: 6
#     Node 9, Type 0, BuildingBlock: GEDQOX_clean_sbu_0, # of connection points: 6
#     Node 10, Type 0, BuildingBlock: GEDQOX_clean_sbu_0, # of connection points: 6
#     Node 11, Type 0, BuildingBlock: GEDQOX_clean_sbu_0, # of connection points: 6
#     Node 12, Type 0, BuildingBlock: GEDQOX_clean_sbu_0, # of connection points: 6
#     Node 13, Type 0, BuildingBlock: GEDQOX_clean_sbu_0, # of connection points: 6
#     Node 14, Type 0, BuildingBlock: GEDQOX_clean_sbu_0, # of connection points: 6
#     Node 15, Type 0, BuildingBlock: GEDQOX_clean_sbu_0, # of connection points: 6
#     Node 16, Type 0, BuildingBlock: GEDQOX_clean_sbu_0, # of connection points: 6
#     Node 17, Type 0, BuildingBlock: GEDQOX_clean_sbu_0, # of connection points: 6
#     Node 18, Type 0, BuildingBlock: GEDQOX_clean_sbu_0, # of connection points: 6
#     Node 19, Type 0, BuildingBlock: GEDQOX_clean_sbu_0, # of connection points: 6
#     Node 20, Type 0, BuildingBlock: GEDQOX_clean_sbu_0, # of connection points: 6
#     Node 21, Type 0, BuildingBlock: GEDQOX_clean_sbu_0, # of connection points: 6
#     Node 22, Type 0, BuildingBlock: GEDQOX_clean_sbu_0, # of connection points: 6
#     Node 23, Type 0, BuildingBlock: GEDQOX_clean_sbu_0, # of connection points: 6
#     Node 24, Type 0, BuildingBlock: GEDQOX_clean_sbu_0, # of connection points: 6
#     Node 25, Type 0, BuildingBlock: GEDQOX_clean_sbu_0, # of connection points: 6
#     Node 26, Type 0, BuildingBlock: GEDQOX_clean_sbu_0, # of connection points: 6
#     Node 27, Type 0, BuildingBlock: GEDQOX_clean_sbu_0, # of connection points: 6
#     Node 28, Type 0, BuildingBlock: GEDQOX_clean_sbu_0, # of connection points: 6
#     Node 29, Type 0, BuildingBlock: GEDQOX_clean_sbu_0, # of connection points: 6
#     Node 30, Type 0, BuildingBlock: GEDQOX_clean_sbu_0, # of connection points: 6
#     Node 31, Type 0, BuildingBlock: GEDQOX_clean_sbu_0, # of connection points: 6
#     Edge 32, Type (0, 0), BuildingBlock: AJUNOK_clean_linker_0, # of connection points: 2
#     Edge 33, Type (0, 0), BuildingBlock: AJUNOK_clean_linker_0, # of connection points: 2
#     Edge 34, Type (0, 0), BuildingBlock: AJUNOK_clean_linker_0, # of connection points: 2
#     Edge 35, Type (0, 0), BuildingBlock: AJUNOK_clean_linker_0, # of connection points: 2
#     Edge 36, Type (0, 0), BuildingBlock: AJUNOK_clean_linker_0, # of connection points: 2
#     Edge 37, Type (0, 0), BuildingBlock: AJUNOK_clean_linker_0, # of connection points: 2
#     Edge 38, Type (0, 0), BuildingBlock: AJUNOK_clean_linker_0, # of connection points: 2
#     Edge 39, Type (0, 0), BuildingBlock: AJUNOK_clean_linker_0, # of connection points: 2
#     Edge 40, Type (0, 0), BuildingBlock: AJUNOK_clean_linker_0, # of connection points: 2
#     Edge 41, Type (0, 0), BuildingBlock: AJUNOK_clean_linker_0, # of connection points: 2
#     Edge 42, Type (0, 0), BuildingBlock: AJUNOK_clean_linker_0, # of connection points: 2
#     Edge 43, Type (0, 0), BuildingBlock: AJUNOK_clean_linker_0, # of connection points: 2
#     Edge 44, Type (0, 0), BuildingBlock: AJUNOK_clean_linker_0, # of connection points: 2
#     Edge 45, Type (0, 0), BuildingBlock: AJUNOK_clean_linker_0, # of connection points: 2
#     Edge 46, Type (0, 0), BuildingBlock: AJUNOK_clean_linker_0, # of connection points: 2
#     Edge 47, Type (0, 0), BuildingBlock: AJUNOK_clean_linker_0, # of connection points: 2
#     Edge 48, Type (0, 0), BuildingBlock: AJUNOK_clean_linker_0, # of connection points: 2
#     Edge 49, Type (0, 0), BuildingBlock: AJUNOK_clean_linker_0, # of connection points: 2
#     Edge 50, Type (0, 0), BuildingBlock: AJUNOK_clean_linker_0, # of connection points: 2
#     Edge 51, Type (0, 0), BuildingBlock: AJUNOK_clean_linker_0, # of connection points: 2
#     Edge 52, Type (0, 0), BuildingBlock: AJUNOK_clean_linker_0, # of connection points: 2
#     Edge 53, Type (0, 0), BuildingBlock: AJUNOK_clean_linker_0, # of connection points: 2
#     Edge 54, Type (0, 0), BuildingBlock: AJUNOK_clean_linker_0, # of connection points: 2
#     Edge 55, Type (0, 0), BuildingBlock: AJUNOK_clean_linker_0, # of connection points: 2
#     Edge 56, Type (0, 0), BuildingBlock: AJUNOK_clean_linker_0, # of connection points: 2
#     Edge 57, Type (0, 0), BuildingBlock: AJUNOK_clean_linker_0, # of connection points: 2
#     Edge 58, Type (0, 0), BuildingBlock: AJUNOK_clean_linker_0, # of connection points: 2
#     Edge 59, Type (0, 0), BuildingBlock: AJUNOK_clean_linker_0, # of connection points: 2
#     Edge 60, Type (0, 0), BuildingBlock: AJUNOK_clean_linker_0, # of connection points: 2
#     Edge 61, Type (0, 0), BuildingBlock: AJUNOK_clean_linker_0, # of connection points: 2
#     Edge 62, Type (0, 0), BuildingBlock: AJUNOK_clean_linker_0, # of connection points: 2
#     Edge 63, Type (0, 0), BuildingBlock: AJUNOK_clean_linker_0, # of connection points: 2
#     Edge 64, Type (0, 0), BuildingBlock: AJUNOK_clean_linker_0, # of connection points: 2
#     Edge 65, Type (0, 0), BuildingBlock: AJUNOK_clean_linker_0, # of connection points: 2
#     Edge 66, Type (0, 0), BuildingBlock: AJUNOK_clean_linker_0, # of connection points: 2
#     Edge 67, Type (0, 0), BuildingBlock: AJUNOK_clean_linker_0, # of connection points: 2
#     Edge 68, Type (0, 0), BuildingBlock: AJUNOK_clean_linker_0, # of connection points: 2
#     Edge 69, Type (0, 0), BuildingBlock: AJUNOK_clean_linker_0, # of connection points: 2
#     Edge 70, Type (0, 0), BuildingBlock: AJUNOK_clean_linker_0, # of connection points: 2
#     Edge 71, Type (0, 0), BuildingBlock: AJUNOK_clean_linker_0, # of connection points: 2
#     Edge 72, Type (0, 0), BuildingBlock: AJUNOK_clean_linker_0, # of connection points: 2
#     Edge 73, Type (0, 0), BuildingBlock: AJUNOK_clean_linker_0, # of connection points: 2
#     Edge 74, Type (0, 0), BuildingBlock: AJUNOK_clean_linker_0, # of connection points: 2
#     Edge 75, Type (0, 0), BuildingBlock: AJUNOK_clean_linker_0, # of connection points: 2
#     Edge 76, Type (0, 0), BuildingBlock: AJUNOK_clean_linker_0, # of connection points: 2
#     Edge 77, Type (0, 0), BuildingBlock: AJUNOK_clean_linker_0, # of connection points: 2
#     Edge 78, Type (0, 0), BuildingBlock: AJUNOK_clean_linker_0, # of connection points: 2
#     Edge 79, Type (0, 0), BuildingBlock: AJUNOK_clean_linker_0, # of connection points: 2
#     Edge 80, Type (0, 0), BuildingBlock: AJUNOK_clean_linker_0, # of connection points: 2
#     Edge 81, Type (0, 0), BuildingBlock: AJUNOK_clean_linker_0, # of connection points: 2
#     Edge 82, Type (0, 0), BuildingBlock: AJUNOK_clean_linker_0, # of connection points: 2
#     Edge 83, Type (0, 0), BuildingBlock: AJUNOK_clean_linker_0, # of connection points: 2
#     Edge 84, Type (0, 0), BuildingBlock: AJUNOK_clean_linker_0, # of connection points: 2
#     Edge 85, Type (0, 0), BuildingBlock: AJUNOK_clean_linker_0, # of connection points: 2
#     Edge 86, Type (0, 0), BuildingBlock: AJUNOK_clean_linker_0, # of connection points: 2
#     Edge 87, Type (0, 0), BuildingBlock: AJUNOK_clean_linker_0, # of connection points: 2
#     Edge 88, Type (0, 0), BuildingBlock: AJUNOK_clean_linker_0, # of connection points: 2
#     Edge 89, Type (0, 0), BuildingBlock: AJUNOK_clean_linker_0, # of connection points: 2
#     Edge 90, Type (0, 0), BuildingBlock: AJUNOK_clean_linker_0, # of connection points: 2
#     Edge 91, Type (0, 0), BuildingBlock: AJUNOK_clean_linker_0, # of connection points: 2
#     Edge 92, Type (0, 0), BuildingBlock: AJUNOK_clean_linker_0, # of connection points: 2
#     Edge 93, Type (0, 0), BuildingBlock: AJUNOK_clean_linker_0, # of connection points: 2
#     Edge 94, Type (0, 0), BuildingBlock: AJUNOK_clean_linker_0, # of connection points: 2
#     Edge 95, Type (0, 0), BuildingBlock: AJUNOK_clean_linker_0, # of connection points: 2
#     Edge 96, Type (0, 0), BuildingBlock: AJUNOK_clean_linker_0, # of connection points: 2
#     Edge 97, Type (0, 0), BuildingBlock: AJUNOK_clean_linker_0, # of connection points: 2
#     Edge 98, Type (0, 0), BuildingBlock: AJUNOK_clean_linker_0, # of connection points: 2
#     Edge 99, Type (0, 0), BuildingBlock: AJUNOK_clean_linker_0, # of connection points: 2
#     Edge 100, Type (0, 0), BuildingBlock: AJUNOK_clean_linker_0, # of connection points: 2
#     Edge 101, Type (0, 0), BuildingBlock: AJUNOK_clean_linker_0, # of connection points: 2
#     Edge 102, Type (0, 0), BuildingBlock: AJUNOK_clean_linker_0, # of connection points: 2
#     Edge 103, Type (0, 0), BuildingBlock: AJUNOK_clean_linker_0, # of connection points: 2
#     Edge 104, Type (0, 0), BuildingBlock: AJUNOK_clean_linker_0, # of connection points: 2
#     Edge 105, Type (0, 0), BuildingBlock: AJUNOK_clean_linker_0, # of connection points: 2
#     Edge 106, Type (0, 0), BuildingBlock: AJUNOK_clean_linker_0, # of connection points: 2
#     Edge 107, Type (0, 0), BuildingBlock: AJUNOK_clean_linker_0, # of connection points: 2
#     Edge 108, Type (0, 0), BuildingBlock: AJUNOK_clean_linker_0, # of connection points: 2
#     Edge 109, Type (0, 0), BuildingBlock: AJUNOK_clean_linker_0, # of connection points: 2
#     Edge 110, Type (0, 0), BuildingBlock: AJUNOK_clean_linker_0, # of connection points: 2
#     Edge 111, Type (0, 0), BuildingBlock: AJUNOK_clean_linker_0, # of connection points: 2
#     Edge 112, Type (0, 0), BuildingBlock: AJUNOK_clean_linker_0, # of connection points: 2
#     Edge 113, Type (0, 0), BuildingBlock: AJUNOK_clean_linker_0, # of connection points: 2
#     Edge 114, Type (0, 0), BuildingBlock: AJUNOK_clean_linker_0, # of connection points: 2
#     Edge 115, Type (0, 0), BuildingBlock: AJUNOK_clean_linker_0, # of connection points: 2
#     Edge 116, Type (0, 0), BuildingBlock: AJUNOK_clean_linker_0, # of connection points: 2
#     Edge 117, Type (0, 0), BuildingBlock: AJUNOK_clean_linker_0, # of connection points: 2
#     Edge 118, Type (0, 0), BuildingBlock: AJUNOK_clean_linker_0, # of connection points: 2
#     Edge 119, Type (0, 0), BuildingBlock: AJUNOK_clean_linker_0, # of connection points: 2
#     Edge 120, Type (0, 0), BuildingBlock: AJUNOK_clean_linker_0, # of connection points: 2
#     Edge 121, Type (0, 0), BuildingBlock: AJUNOK_clean_linker_0, # of connection points: 2
#     Edge 122, Type (0, 0), BuildingBlock: AJUNOK_clean_linker_0, # of connection points: 2
#     Edge 123, Type (0, 0), BuildingBlock: AJUNOK_clean_linker_0, # of connection points: 2
#     Edge 124, Type (0, 0), BuildingBlock: AJUNOK_clean_linker_0, # of connection points: 2
#     Edge 125, Type (0, 0), BuildingBlock: AJUNOK_clean_linker_0, # of connection points: 2
#     Edge 126, Type (0, 0), BuildingBlock: AJUNOK_clean_linker_0, # of connection points: 2
#     Edge 127, Type (0, 0), BuildingBlock: AJUNOK_clean_linker_0, # of connection points: 2
# Relax obj value: 0.711
# Max RMSD: 0.226
# Mean RMSD: 0.226
data_MOF--net-wir--node1-GEDQOX_clean_sbu_0--edge1-AJUNOK_clean_linker_0
_symmetry_space_group_name_H-M    P1
_symmetry_Int_Tables_number       1
_symmetry_cell_setting            triclinic
loop_
_symmetry_equiv_pos_as_xyz
'x, y, z'
_cell_length_a     30.593929
_cell_length_b     30.750045
_cell_length_c     83.946428
_cell_angle_alpha  89.958323
_cell_angle_beta   90.053166
_cell_angle_gamma 89.664453
loop_
_atom_site_label
_atom_site_type_symbol
_atom_site_fract_x
_atom_site_fract_y
_atom_site_fract_z
_atom_type_partial_charge
Nd0 Nd 0.14225 0.09232 0.42831 0.0
Nd1 Nd 0.17863 0.12579 0.42348 0.0
C2 C 0.07179 1.04429 0.43221 0.0
C3 C 1.02608 0.05712 0.43331 0.0
C4 C 1.0111 0.09515 0.42567 0.0
C5 C 0.97451 0.11725 0.43155 0.0
C6 C 0.95355 0.10209 0.44528 0.0
C7 C 0.96663 0.06168 0.45182 0.0
C8 C 1.00186 1.03896 0.44562 0.0
C9 C 0.19981 1.04708 0.4554 0.0
C10 C 0.17204 0.14469 0.45797 0.0
C11 C 0.25195 0.13905 0.40797 0.0
C12 C 0.25803 0.15982 0.39271 0.0
C13 C 0.2984 0.15845 0.38498 0.0
C14 C 0.30428 0.18295 0.37118 0.0
C15 C 0.26931 0.20768 0.36505 0.0
C16 C 0.22793 0.20513 0.372 0.0
C17 C 0.22277 0.18272 0.38608 0.0
C18 C 0.11959 0.20335 0.42477 0.0
C19 C 0.152 0.07807 0.39035 0.0
O20 O 0.09059 1.04945 0.41847 0.0
O21 O 0.09543 0.05866 0.44393 0.0
O22 O 0.2037 0.05983 0.44035 0.0
O23 O 0.20217 0.06088 0.44014 0.0
O24 O 0.13485 0.12915 0.45271 0.0
O25 O 0.20293 0.14551 0.44757 0.0
O26 O 0.23082 0.10239 0.40729 0.0
O27 O 0.23755 0.16497 0.41912 0.0
O28 O 0.16122 0.20136 0.42816 0.0
O29 O 0.11015 0.16263 0.42136 0.0
O30 O 0.15414 0.11815 0.39572 0.0
O31 O 0.15313 0.05339 0.4031 0.0
H32 H 1.02986 0.10988 0.41617 0.0
H33 H 0.96484 0.1478 0.42621 0.0
H34 H 0.95298 1.04938 0.4628 0.0
H35 H 1.0135 1.01014 0.45179 0.0
H36 H 0.32575 0.14072 0.39007 0.0
H37 H 0.33671 0.18524 0.3661 0.0
H38 H 0.2007 0.22412 0.36743 0.0
H39 H 0.19191 0.18566 0.39225 0.0
Nd40 Nd 0.26325 0.87548 0.6791 0.0
Nd41 Nd 0.22551 0.91921 0.67572 0.0
C42 C 0.30992 0.8043 0.68386 0.0
C43 C 0.29075 0.76088 0.68558 0.0
C44 C 0.2523 0.75141 0.67701 0.0
C45 C 0.22016 0.72531 0.68384 0.0
C46 C 0.22632 0.70872 0.69914 0.0
C47 C 0.26759 0.71194 0.7064 0.0
C48 C 0.29993 0.73764 0.69955 0.0
C49 C 0.30072 0.93884 0.70713 0.0
C50 C 0.20809 0.88421 0.70892 0.0
C51 C 0.19975 0.99864 0.66821 0.0
C52 C 0.16437 1.01471 0.65842 0.0
C53 C 0.15653 0.05939 0.65716 0.0
C54 C 0.12112 0.07427 0.64824 0.0
C55 C 0.09339 1.04436 0.64076 0.0
C56 C 0.10136 0.99962 0.64214 0.0
C57 C 0.13677 0.98484 0.65095 0.0
C58 C 0.15047 0.85792 0.67484 0.0
C59 C 0.27728 0.8966 0.64128 0.0
O60 O 0.30652 0.82262 0.66988 0.0
O61 O 0.29866 0.83066 0.69528 0.0
O62 O 0.29271 0.93858 0.6915 0.0
O63 O 0.29183 0.93721 0.69138 0.0
O64 O 0.22178 0.85163 0.70041 0.0
O65 O 0.21085 0.92199 0.70223 0.0
O66 O 0.23082 0.9781 0.66062 0.0
O67 O 0.18687 0.97816 0.68089 0.0
O68 O 0.15122 0.89768 0.68009 0.0
O69 O 0.19124 0.85108 0.67023 0.0
O70 O 0.23935 0.91184 0.64671 0.0
O71 O 0.29946 0.88115 0.65347 0.0
H72 H 0.24431 0.7688 0.66616 0.0
H73 H 0.18873 0.7225 0.67813 0.0
H74 H 0.27285 0.69913 0.71828 0.0
H75 H 0.32918 0.7445 0.70638 0.0
H76 H 0.17768 0.08253 0.66304 0.0
H77 H 0.11547 0.10894 0.64707 0.0
H78 H 0.08088 0.97621 0.63608 0.0
H79 H 0.14272 0.95015 0.65193 0.0
Nd80 Nd 0.48872 1.00426 0.92951 0.0
Nd81 Nd 0.44537 0.96748 0.92572 0.0
C82 C 0.56091 1.04966 0.93324 0.0
C83 C 0.60481 1.02976 0.9336 0.0
C84 C 0.61282 0.99286 0.92406 0.0
C85 C 0.64032 0.95968 0.92955 0.0
C86 C 0.65976 0.96325 0.94456 0.0
C87 C 0.65866 1.00355 0.95247 0.0
C88 C 0.63114 1.03677 0.94701 0.0
C89 C 0.42084 1.03403 0.95826 0.0
C90 C 0.48031 0.94603 0.9587 0.0
C91 C 0.36599 0.94487 0.91698 0.0
C92 C 0.35333 0.91107 0.90597 0.0
C93 C 0.30933 0.902 0.9031 0.0
C94 C 0.29839 0.86798 0.8929 0.0
C95 C 0.33155 0.8429 0.88576 0.0
C96 C 0.37551 0.85217 0.88879 0.0
C97 C 0.38633 0.88621 0.89878 0.0
C98 C 0.50621 0.89155 0.9247 0.0
C99 C 0.46674 1.01825 0.89142 0.0
O100 O 0.54002 1.04794 0.9197 0.0
O101 O 0.53635 1.0378 0.94511 0.0
O102 O 0.42593 1.03407 0.94245 0.0
O103 O 0.42776 1.03264 0.9424 0.0
O104 O 0.51253 0.9636 0.95101 0.0
O105 O 0.44267 0.94703 0.95162 0.0
O106 O 0.38681 0.97741 0.91057 0.0
O107 O 0.38502 0.9302 0.92979 0.0
O108 O 0.46503 0.89231 0.92854 0.0
O109 O 0.51467 0.9326 0.92125 0.0
O110 O 0.45426 0.97965 0.89675 0.0
O111 O 0.48007 1.04086 0.90382 0.0
H112 H 0.59338 0.98673 0.91351 0.0
H113 H 0.64195 0.92939 0.92305 0.0
H114 H 0.67373 1.00694 0.96409 0.0
H115 H 0.62563 0.06487 0.95454 0.0
H116 H 0.28373 0.9211 0.90868 0.0
H117 H 0.26426 0.86169 0.89041 0.0
H118 H 0.40147 0.83311 0.8834 0.0
H119 H 0.4205 0.89301 0.90097 0.0
Nd120 Nd 0.34925 0.22519 0.17758 0.0
Nd121 Nd 0.39134 0.18651 0.17584 0.0
C122 C 0.28891 0.28673 0.17804 0.0
C123 C 0.29468 0.3337 0.1783 0.0
C124 C 0.33276 0.35137 0.17159 0.0
C125 C 0.35302 0.38661 0.17892 0.0
C126 C 0.33594 0.40325 0.19319 0.0
C127 C 0.29381 0.39002 0.19802 0.0
C128 C 0.27279 0.35626 0.19028 0.0
C129 C 0.31754 0.16144 0.2067 0.0
C130 C 0.4008 0.23264 0.20798 0.0
C131 C 0.42638 0.10994 0.1698 0.0
C132 C 0.46332 0.1011 0.15955 0.0
C133 C 0.47623 0.05855 0.15603 0.0
C134 C 0.50974 0.05156 0.14506 0.0
C135 C 0.53015 0.08721 0.13776 0.0
C136 C 0.5186 0.12964 0.14202 0.0
C137 C 0.48491 0.13653 0.15269 0.0
C138 C 0.46128 0.25267 0.17476 0.0
C139 C 0.3439 0.20145 0.14 0.0
O140 O 0.30048 0.26671 0.16501 0.0
O141 O 0.30385 0.26763 0.19082 0.0
O142 O 0.32468 0.16157 0.19102 0.0
O143 O 0.32557 0.16323 0.19092 0.0
O144 O 0.38248 0.26071 0.1985 0.0
O145 O 0.40393 0.19328 0.20251 0.0
O146 O 0.39178 0.12459 0.16238 0.0
O147 O 0.43609 0.13277 0.18234 0.0
O148 O 0.4635 0.21317 0.1802 0.0
O149 O 0.42002 0.25687 0.17015 0.0
O150 O 0.3825 0.19149 0.14637 0.0
O151 O 0.31806 0.21351 0.15159 0.0
H152 H 0.35005 0.33452 0.16215 0.0
H153 H 0.38458 0.39703 0.17461 0.0
H154 H 0.27933 0.40074 0.20908 0.0
H155 H 0.24342 0.34297 0.19557 0.0
H156 H 0.45959 1.03108 0.1613 0.0
H157 H 0.51831 1.01856 0.14174 0.0
H158 H 0.53429 0.1574 0.13655 0.0
H159 H 0.47472 0.16957 0.15513 0.0
Nd160 Nd 0.13453 0.99944 0.27967 0.0
Nd161 Nd 0.17408 0.96712 0.28587 0.0
C162 C 0.06023 1.04111 0.27366 0.0
C163 C 1.01653 1.02189 0.27336 0.0
C164 C 1.00959 0.98295 0.2818 0.0
C165 C 0.98008 0.95234 0.276 0.0
C166 C 0.95709 0.96098 0.26195 0.0
C167 C 0.95824 1.00291 0.2553 0.0
C168 C 0.98818 1.03328 0.26094 0.0
C169 C 0.1961 1.03927 0.25242 0.0
C170 C 0.17487 0.94233 0.25205 0.0
C171 C 0.25002 0.9645 0.30068 0.0
C172 C 0.26653 0.95268 0.31626 0.0
C173 C 0.30947 0.96327 0.32043 0.0
C174 C 0.3275 0.94654 0.33441 0.0
C175 C 0.30224 0.91967 0.34421 0.0
C176 C 0.25803 0.91275 0.34072 0.0
C177 C 0.24042 0.92864 0.32667 0.0
C178 C 0.11641 0.88884 0.28504 0.0
C179 C 0.14679 1.01412 0.31844 0.0
O180 O 0.07968 1.04249 0.28744 0.0
O181 O 0.08584 1.02593 0.26264 0.0
O182 O 0.19529 1.03351 0.2681 0.0
O183 O 0.19345 1.03207 0.26827 0.0
O184 O 0.13677 0.95986 0.25562 0.0
O185 O 0.20247 0.94073 0.26357 0.0
O186 O 0.22517 0.99911 0.30031 0.0
O187 O 0.23512 0.93248 0.29202 0.0
O188 O 0.15892 0.89037 0.28354 0.0
O189 O 0.10522 0.92983 0.28686 0.0
O190 O 0.15373 0.97402 0.31372 0.0
O191 O 0.14213 1.03774 0.30538 0.0
H192 H 1.03083 0.97372 0.29157 0.0
H193 H 0.9791 0.92035 0.28137 0.0
H194 H 0.94064 1.00997 0.24438 0.0
H195 H 0.99312 0.06302 0.25426 0.0
H196 H 0.32973 0.98213 0.31244 0.0
H197 H 0.36183 0.95162 0.33692 0.0
H198 H 0.23838 0.8913 0.34801 0.0
H199 H 0.20747 0.91955 0.32348 0.0
Nd200 Nd 0.35692 0.8668 0.53161 0.0
Nd201 Nd 0.39443 0.91086 0.53412 0.0
C202 C 0.30921 0.79584 0.52948 0.0
C203 C 0.32743 0.75167 0.52878 0.0
C204 C 0.3697 0.74491 0.53501 0.0
C205 C 0.39857 0.71664 0.52733 0.0
C206 C 0.38506 0.69474 0.51365 0.0
C207 C 0.34048 0.69469 0.50957 0.0
C208 C 0.31164 0.72339 0.51708 0.0
C209 C 0.32553 0.93317 0.50253 0.0
C210 C 0.41214 0.86895 0.50169 0.0
C211 C 0.4175 0.99188 0.5398 0.0
C212 C 0.45082 1.01019 0.54987 0.0
C213 C 0.4515 0.05485 0.55291 0.0
C214 C 0.48167 0.07132 0.56372 0.0
C215 C 0.51116 1.04301 0.57133 0.0
C216 C 0.51113 0.99851 0.56781 0.0
C217 C 0.48099 0.98214 0.55714 0.0
C218 C 0.47031 0.85015 0.53539 0.0
C219 C 0.3447 0.89258 0.56913 0.0
O220 O 0.31457 0.81673 0.54285 0.0
O221 O 0.31978 0.8194 0.51719 0.0
O222 O 0.32632 0.9286 0.51836 0.0
O223 O 0.32774 0.92682 0.51835 0.0
O224 O 0.39509 0.83843 0.51031 0.0
O225 O 0.41174 0.90758 0.50784 0.0
O226 O 0.38593 0.97249 0.54739 0.0
O227 O 0.43253 0.96908 0.52796 0.0
O228 O 0.46901 0.88978 0.52999 0.0
O229 O 0.42978 0.84328 0.5402 0.0
O230 O 0.38277 0.90593 0.56331 0.0
O231 O 0.32166 0.8769 0.55727 0.0
H232 H 0.38262 0.76623 0.54411 0.0
H233 H 0.43277 0.71692 0.53052 0.0
H234 H 0.32955 0.67782 0.49897 0.0
H235 H 0.27927 0.7281 0.5121 0.0
H236 H 0.42802 0.07654 0.54732 0.0
H237 H 0.48114 0.1057 0.56653 0.0
H238 H 0.53285 0.97609 0.57394 0.0
H239 H 0.48021 0.94742 0.55496 0.0
Nd240 Nd 0.48338 0.10067 0.78085 0.0
Nd241 Nd 0.43879 0.13697 0.78495 0.0
C242 C 0.55691 0.05867 0.77512 0.0
C243 C 0.59886 0.08124 0.77312 0.0
C244 C 0.60822 0.11735 0.78288 0.0
C245 C 0.6337 0.15146 0.77709 0.0
C246 C 0.64971 0.14978 0.76154 0.0
C247 C 0.64541 0.11133 0.75266 0.0
C248 C 0.62056 0.07697 0.75851 0.0
C249 C 0.41379 0.06716 0.75347 0.0
C250 C 0.46683 0.15641 0.75121 0.0
C251 C 0.36151 0.1634 0.79485 0.0
C252 C 0.35309 0.19815 0.80606 0.0
C253 C 0.31048 0.21096 0.80982 0.0
C254 C 0.30384 0.24519 0.82044 0.0
C255 C 0.33988 0.26647 0.82723 0.0
C256 C 0.38242 0.25403 0.82312 0.0
C257 C 0.38898 0.21989 0.81264 0.0
C258 C 0.50013 0.21239 0.78494 0.0
C259 C 0.46395 0.08592 0.81909 0.0
O260 O 0.53933 0.05985 0.78927 0.0
O261 O 0.52871 0.0682 0.76403 0.0
O262 O 0.42004 0.06873 0.76922 0.0
O263 O 0.42178 0.07015 0.76923 0.0
O264 O 0.50116 0.14186 0.7587 0.0
O265 O 0.43029 0.15416 0.75889 0.0
O266 O 0.38155 0.1296 0.80087 0.0
O267 O 0.37904 0.17657 0.78161 0.0
O268 O 0.45976 0.21098 0.78014 0.0
O269 O 0.5076 0.17202 0.78961 0.0
O270 O 0.44795 0.12342 0.81378 0.0
O271 O 0.47948 0.0643 0.80675 0.0
H272 H 0.59194 0.12167 0.79423 0.0
H273 H 0.63769 0.18053 0.78414 0.0
H274 H 0.65761 0.10962 0.74056 0.0
H275 H 0.6136 1.04978 0.75072 0.0
H276 H 0.28266 0.19448 0.80465 0.0
H277 H 0.27076 0.25447 0.82361 0.0
H278 H 0.41049 0.27048 0.82813 0.0
H279 H 0.42213 0.2104 0.80967 0.0
Nd280 Nd 0.26085 0.2155 1.02911 0.0
Nd281 Nd 0.22126 0.1729 1.03686 0.0
C282 C 0.29268 0.29506 1.02778 0.0
C283 C 0.26704 0.33492 1.02448 0.0
C284 C 0.2288 0.34412 1.03327 0.0
C285 C 0.19523 0.36919 1.02654 0.0
C286 C 0.19951 0.38462 1.01095 0.0
C287 C 0.24003 0.38101 1.00321 0.0
C288 C 0.27375 0.35653 1.00998 0.0
C289 C 0.30835 0.15305 1.00877 0.0
C290 C 0.20878 0.17382 1.00183 0.0
C291 C 0.18929 0.10566 1.05211 0.0
C292 C 0.15452 0.10623 1.06383 0.0
C293 C 0.13175 0.06822 1.06735 0.0
C294 C 0.09459 0.07044 1.07688 0.0
C295 C 0.08021 0.11069 1.08289 0.0
C296 C 0.10343 0.14857 1.07955 0.0
C297 C 0.14026 0.1464 1.06994 0.0
C298 C 0.14704 0.23543 1.03358 0.0
C299 C 0.27978 0.19818 1.06762 0.0
O300 O 0.28477 0.27525 1.04121 0.0
O301 O 0.29473 0.26792 1.0159 0.0
O302 O 0.30365 0.19472 1.00671 0.0
O303 O 0.2868 0.14498 1.02229 0.0
O304 O 0.21509 0.21371 1.00673 0.0
O305 O 0.2167 0.14426 1.01235 0.0
O306 O 0.2255 0.12464 1.05644 0.0
O307 O 0.1763 0.11718 1.03793 0.0
O308 O 0.14656 0.19337 1.03225 0.0
O309 O 0.18877 0.24418 1.03578 0.0
O310 O 0.23849 0.19387 1.06383 0.0
O311 O 0.30218 0.20062 1.05406 0.0
H312 H 0.22283 0.32851 1.04462 0.0
H313 H 0.16465 0.37295 1.03289 0.0
H314 H 0.24403 0.39343 0.99121 0.0
H315 H 0.30296 0.35032 1.00303 0.0
H316 H 0.14205 1.03724 1.06245 0.0
H317 H 0.07705 1.04083 1.07957 0.0
H318 H 0.09257 0.17979 1.08409 0.0
H319 H 0.15676 0.17629 1.06688 0.0
Nd320 Nd 0.92562 0.96829 0.78261 0.0
Nd321 Nd 0.96958 1.00639 0.77958 0.0
C322 C 0.84869 0.93856 0.791 0.0
C323 C 0.84314 0.90303 0.80209 0.0
C324 C 0.80229 0.88473 0.8051 0.0
C325 C 0.79939 0.84939 0.81549 0.0
C326 C 0.83741 0.83255 0.82271 0.0
C327 C 0.87814 0.8505 0.81929 0.0
C328 C 0.88091 0.88572 0.80917 0.0
C329 C 0.98875 0.89422 0.78378 0.0
C330 C 0.94518 1.02032 0.81709 0.0
C331 C 1.04157 0.05097 0.77493 0.0
C332 C 0.08438 1.02951 0.77323 0.0
C333 C 0.09228 0.99065 0.78173 0.0
C334 C 0.11942 0.95842 0.77535 0.0
C335 C 0.139 0.96499 0.76052 0.0
C336 C 0.13617 1.00602 0.75321 0.0
C337 C 0.10908 1.03826 0.75957 0.0
C338 C 0.90677 1.04517 0.75165 0.0
C339 C 0.96105 0.95222 0.74948 0.0
O340 O 0.8656 0.97347 0.79727 0.0
O341 O 0.86819 0.92694 0.7779 0.0
O342 O 0.94864 0.89436 0.7787 0.0
O343 O 0.99511 0.93495 0.78815 0.0
O344 O 0.93047 0.98279 0.81153 0.0
O345 O 0.96215 1.0422 0.80518 0.0
O346 O 1.02301 1.04834 0.78889 0.0
O347 O 1.01467 1.04136 0.76347 0.0
O348 O 0.90614 1.03595 0.76715 0.0
O349 O 0.90746 1.03512 0.76728 0.0
O350 O 0.99349 0.96574 0.7581 0.0
O351 O 0.92286 0.95474 0.75605 0.0
H352 H 0.77305 0.89771 0.79953 0.0
H353 H 0.76763 0.83577 0.81812 0.0
H354 H 0.90778 0.83757 0.8246 0.0
H355 H 0.91276 0.89941 0.80684 0.0
H356 H 0.07358 0.98293 0.7923 0.0
H357 H 0.12174 0.92713 0.78122 0.0
H358 H 0.15135 1.01154 0.74173 0.0
H359 H 0.10322 0.06765 0.75274 0.0
Nd360 Nd 0.8782 0.18305 0.53551 0.0
Nd361 Nd 0.84483 0.22476 0.52983 0.0
C362 C 0.89779 0.10939 0.54994 0.0
C363 C 0.92112 0.1013 0.56466 0.0
C364 C 0.92223 0.05971 0.57136 0.0
C365 C 0.94577 0.05256 0.58534 0.0
C366 C 0.96755 0.08726 0.59275 0.0
C367 C 0.96503 0.12909 0.58619 0.0
C368 C 0.94249 0.13593 0.57211 0.0
C369 C 0.95466 0.24441 0.53417 0.0
C370 C 0.82583 0.20976 0.56815 0.0
C371 C 0.80743 0.29994 0.52245 0.0
C372 C 0.83056 0.34155 0.5213 0.0
C373 C 0.86813 0.34784 0.53072 0.0
C374 C 0.90188 0.37427 0.52525 0.0
C375 C 0.89809 0.39499 0.51053 0.0
C376 C 0.85816 0.3938 0.50228 0.0
C377 C 0.82446 0.36709 0.50764 0.0
C378 C 0.80063 0.16338 0.50355 0.0
C379 C 0.89634 0.18425 0.50099 0.0
O380 O 0.86027 0.1292 0.55169 0.0
O381 O 0.9215 0.12601 0.53859 0.0
O382 O 0.95222 0.20479 0.52872 0.0
O383 O 0.91469 0.25078 0.53945 0.0
O384 O 0.86556 0.19847 0.56372 0.0
O385 O 0.80391 0.21963 0.55505 0.0
O386 O 0.80443 0.28255 0.53655 0.0
O387 O 0.82032 0.27184 0.5119 0.0
O388 O 0.80921 0.16342 0.51908 0.0
O389 O 0.81048 0.165 0.51927 0.0
O390 O 0.88428 0.22334 0.50564 0.0
O391 O 0.89467 0.15484 0.51184 0.0
H392 H 0.90584 1.0328 0.56561 0.0
H393 H 0.94828 1.0198 0.59002 0.0
H394 H 0.98167 0.15622 0.5917 0.0
H395 H 0.94246 0.16813 0.56688 0.0
H396 H 0.87367 0.32856 0.54134 0.0
H397 H 0.93243 0.37537 0.53164 0.0
H398 H 0.85488 0.40958 0.49079 0.0
H399 H 0.79607 0.36242 0.50012 0.0
Nd400 Nd 0.66895 0.12682 0.28523 0.0
Nd401 Nd 0.62738 0.0918 0.28001 0.0
C402 C 0.74575 0.14534 0.29745 0.0
C403 C 0.75648 0.17643 0.30969 0.0
C404 C 0.79997 0.18443 0.31374 0.0
C405 C 0.80953 0.21763 0.32444 0.0
C406 C 0.77551 0.24279 0.33094 0.0
C407 C 0.73201 0.23403 0.32704 0.0
C408 C 0.72254 0.20102 0.31643 0.0
C409 C 0.60946 0.20399 0.28445 0.0
C410 C 0.64312 0.07672 0.3185 0.0
C411 C 0.55298 0.05365 0.27318 0.0
C412 C 0.51408 0.07971 0.26863 0.0
C413 C 0.49743 0.11174 0.27907 0.0
C414 C 0.47484 0.14802 0.27309 0.0
C415 C 0.46982 0.15313 0.25662 0.0
C416 C 0.48179 0.11892 0.24643 0.0
C417 C 0.50308 0.08219 0.25241 0.0
C418 C 0.69262 0.05474 0.25295 0.0
C419 C 0.65504 0.14361 0.25026 0.0
O420 O 0.72252 0.1123 0.30222 0.0
O421 O 0.73065 0.16324 0.28448 0.0
O422 O 0.6516 0.20279 0.2824 0.0
O423 O 0.59927 0.16303 0.28682 0.0
O424 O 0.65364 0.1161 0.31362 0.0
O425 O 0.63404 0.05358 0.30566 0.0
O426 O 0.56691 0.05736 0.2878 0.0
O427 O 0.58491 0.0564 0.26306 0.0
O428 O 0.69059 0.05949 0.2687 0.0
O429 O 0.68883 0.06079 0.26883 0.0
O430 O 0.6184 0.12851 0.25593 0.0
O431 O 0.68673 0.14561 0.26039 0.0
H432 H 0.8263 0.16566 0.30845 0.0
H433 H 0.84329 0.22378 0.32759 0.0
H434 H 0.70549 0.25332 0.33195 0.0
H435 H 0.68879 0.19544 0.31315 0.0
H436 H 0.50503 0.11082 0.29167 0.0
H437 H 0.4642 0.17337 0.28118 0.0
H438 H 0.47678 0.12172 0.23368 0.0
H439 H 0.51523 0.05808 0.24408 0.0
Nd440 Nd 0.7069 0.90912 1.03342 0.0
Nd441 Nd 0.74587 0.86874 1.02943 0.0
C442 C 0.68854 0.98945 1.04204 0.0
C443 C 0.66788 1.00821 1.05587 0.0
C444 C 0.67144 0.05278 1.05884 0.0
C445 C 0.65399 0.07002 1.07279 0.0
C446 C 0.63345 1.04247 1.08375 0.0
C447 C 0.63028 0.99782 1.08073 0.0
C448 C 0.64735 0.98075 1.06681 0.0
C449 C 0.63222 0.8482 1.03427 0.0
C450 C 0.75964 0.88945 1.06739 0.0
C451 C 0.79817 0.80023 1.0272 0.0
C452 C 0.78447 0.75456 1.02694 0.0
C453 C 0.7456 0.74313 1.03483 0.0
C454 C 0.719 0.71063 1.02858 0.0
C455 C 0.73102 0.69004 1.01439 0.0
C456 C 0.77384 0.695 1.00863 0.0
C457 C 0.80048 0.72757 1.01483 0.0
C458 C 0.7732 0.93813 1.00105 0.0
C459 C 0.69042 0.87515 0.9995 0.0
O460 O 0.72583 0.97037 1.04509 0.0
O461 O 0.66312 0.96648 1.03287 0.0
O462 O 0.63129 0.89021 1.03217 0.0
O463 O 0.67425 0.83895 1.03622 0.0
O464 O 0.71938 0.89786 1.06233 0.0
O465 O 0.78317 0.88006 1.05476 0.0
O466 O 0.7918 0.82113 1.04051 0.0
O467 O 0.78476 0.82247 1.01491 0.0
O468 O 0.77271 0.93247 1.01682 0.0
O469 O 0.77129 0.93049 1.01682 0.0
O470 O 0.71242 0.84443 1.00657 0.0
O471 O 0.68593 0.91116 1.00743 0.0
H472 H 0.68783 0.07398 1.05047 0.0
H473 H 0.65637 0.10462 1.07503 0.0
H474 H 0.61383 0.97637 1.08901 0.0
H475 H 0.64471 0.94615 1.06458 0.0
H476 H 0.73268 0.76319 1.04435 0.0
H477 H 0.68653 0.70646 1.03342 0.0
H478 H 0.78373 0.67908 0.99769 0.0
H479 H 0.83038 0.73572 1.00862 0.0
Nd480 Nd 0.91909 0.13389 0.92447 0.0
Nd481 Nd 0.95981 0.09364 0.92682 0.0
C482 C 0.83914 0.16308 0.91902 0.0
C483 C 0.82239 0.20119 0.91091 0.0
C484 C 0.77737 0.20882 0.91 0.0
C485 C 0.76179 0.24463 0.9015 0.0
C486 C 0.79135 0.27298 0.89412 0.0
C487 C 0.83645 0.26621 0.89577 0.0
C488 C 0.85188 0.2303 0.90404 0.0
C489 C 0.98149 0.20725 0.92364 0.0
C490 C 0.93876 0.08476 0.88923 0.0
C491 C 1.02569 1.03874 0.9295 0.0
C492 C 0.07149 1.05018 0.93162 0.0
C493 C 0.08678 0.08949 0.92513 0.0
C494 C 0.12098 0.11154 0.93248 0.0
C495 C 0.13969 0.09473 0.94641 0.0
C496 C 0.12748 0.05306 0.95173 0.0
C497 C 0.09406 1.03063 0.9442 0.0
C498 C 0.89743 0.05757 0.95531 0.0
C499 C 0.96318 0.14613 0.95689 0.0
O500 O 0.85849 0.13431 0.90997 0.0
O501 O 0.8612 0.17172 0.93186 0.0
O502 O 0.94038 0.20799 0.92748 0.0
O503 O 0.98928 0.16581 0.92026 0.0
O504 O 0.92653 0.12302 0.89521 0.0
O505 O 0.95141 0.06011 0.90107 0.0
O506 O 1.00806 1.0485 0.91578 0.0
O507 O 1.00148 0.05068 0.94149 0.0
O508 O 0.89619 0.06711 0.93982 0.0
O509 O 0.89766 0.06795 0.93968 0.0
O510 O 0.9926 0.12863 0.94782 0.0
O511 O 0.92393 0.1474 0.95108 0.0
H512 H 0.75446 0.18648 0.91539 0.0
H513 H 0.72686 0.24916 0.90006 0.0
H514 H 0.85971 0.28695 0.88974 0.0
H515 H 0.88676 0.22441 0.90457 0.0
H516 H 0.06947 0.10542 0.91547 0.0
H517 H 0.13061 0.143 0.92801 0.0
H518 H 0.14069 1.03947 0.96263 0.0
H519 H 0.08222 1.0008 0.94951 0.0
Nd520 Nd 0.70993 0.18931 0.67533 0.0
Nd521 Nd 0.74859 0.23208 0.6778 0.0
C522 C 0.68324 0.11063 0.66805 0.0
C523 C 0.6533 0.0985 0.65556 0.0
C524 C 0.65333 0.05623 0.64948 0.0
C525 C 0.62935 1.04722 0.63579 0.0
C526 C 0.60579 0.08067 0.6282 0.0
C527 C 0.60474 0.12252 0.63468 0.0
C528 C 0.62852 0.13143 0.64828 0.0
C529 C 0.63562 0.25164 0.67453 0.0
C530 C 0.75892 0.20962 0.64019 0.0
C531 C 0.79773 0.30186 0.68024 0.0
C532 C 0.77981 0.34619 0.68076 0.0
C533 C 0.73937 0.35393 0.67318 0.0
C534 C 0.70887 0.38195 0.68013 0.0
C535 C 0.71895 0.40266 0.69442 0.0
C536 C 0.76212 0.40152 0.70015 0.0
C537 C 0.79261 0.37325 0.69331 0.0
C538 C 0.78066 0.16333 0.70611 0.0
C539 C 0.69777 0.22999 0.70844 0.0
O540 O 0.71979 0.12682 0.6628 0.0
O541 O 0.66585 0.13375 0.67939 0.0
O542 O 0.63669 0.21272 0.6806 0.0
O543 O 0.67594 0.25718 0.66921 0.0
O544 O 0.72091 0.19643 0.64612 0.0
O545 O 0.78284 0.22389 0.65202 0.0
O546 O 0.79298 0.28088 0.66685 0.0
O547 O 0.78625 0.27849 0.69247 0.0
O548 O 0.77847 0.16866 0.69032 0.0
O549 O 0.77713 0.17045 0.69036 0.0
O550 O 0.7134 0.2607 0.69959 0.0
O551 O 0.69647 0.19164 0.70203 0.0
H552 H 0.67289 1.03083 0.65498 0.0
H553 H 0.62984 1.01457 0.63094 0.0
H554 H 0.58688 0.14865 0.62888 0.0
H555 H 0.62901 0.16449 0.65273 0.0
H556 H 0.72867 0.3336 0.66341 0.0
H557 H 0.67583 0.38283 0.67562 0.0
H558 H 0.77034 0.41748 0.71126 0.0
H559 H 0.82347 0.36776 0.69936 0.0
Nd560 Nd 0.66549 0.96506 0.42594 0.0
Nd561 Nd 0.61916 1.00129 0.42887 0.0
C562 C 0.74649 0.94108 0.41946 0.0
C563 C 0.76394 0.9064 0.40972 0.0
C564 C 0.80907 0.90123 0.4079 0.0
C565 C 0.82516 0.8679 0.39829 0.0
C566 C 0.79602 0.83964 0.39065 0.0
C567 C 0.75086 0.84456 0.3928 0.0
C568 C 0.73489 0.87785 0.40229 0.0
C569 C 0.60523 0.88931 0.42454 0.0
C570 C 0.6427 1.01329 0.391 0.0
C571 C 0.5448 1.04289 0.43323 0.0
C572 C 0.50338 1.01924 0.43501 0.0
C573 C 0.4972 0.98092 0.42605 0.0
C574 C 0.47462 0.94581 0.43261 0.0
C575 C 0.45813 0.94883 0.44806 0.0
C576 C 0.45833 0.98921 0.4559 0.0
C577 C 0.48031 1.02449 0.44929 0.0
C578 C 0.68431 1.03777 0.45713 0.0
C579 C 0.62932 0.94724 0.45902 0.0
O580 O 0.72605 0.97188 0.41172 0.0
O581 O 0.72499 0.92767 0.43185 0.0
O582 O 0.64463 0.89099 0.43032 0.0
O583 O 0.59806 0.92946 0.41966 0.0
O584 O 0.6602 0.97711 0.39692 0.0
O585 O 0.62455 1.03523 0.40275 0.0
O586 O 0.56371 1.04099 0.41932 0.0
O587 O 0.57217 1.03492 0.44475 0.0
O588 O 0.68105 1.03404 0.4413 0.0
O589 O 0.67942 1.03277 0.44126 0.0
O590 O 0.59647 0.96019 0.4504 0.0
O591 O 0.66736 0.95042 0.45243 0.0
H592 H 0.83161 0.9232 0.4137 0.0
H593 H 0.86011 0.86466 0.39656 0.0
H594 H 0.7279 0.82379 0.38663 0.0
H595 H 0.69986 0.88181 0.40363 0.0
H596 H 0.5145 0.97586 0.41495 0.0
H597 H 0.47399 0.9151 0.42639 0.0
H598 H 0.44559 0.99207 0.4679 0.0
H599 H 0.4847 0.05345 0.45646 0.0
Nd600 Nd 0.88349 0.91526 0.17284 0.0
Nd601 Nd 0.84759 0.87214 0.17705 0.0
C602 C 0.89439 0.99693 0.16401 0.0
C603 C 0.91039 1.02214 0.1507 0.0
C604 C 0.90983 0.0676 0.15157 0.0
C605 C 0.92779 0.09205 0.13926 0.0
C606 C 0.94623 0.07093 0.12607 0.0
C607 C 0.9446 1.02539 0.12493 0.0
C608 C 0.92686 1.00108 0.13722 0.0
C609 C 0.96126 0.85678 0.17259 0.0
C610 C 0.83196 0.8917 0.13906 0.0
C611 C 0.80308 0.79982 0.18133 0.0
C612 C 0.82331 0.75667 0.18328 0.0
C613 C 0.86155 0.7467 0.17461 0.0
C614 C 0.89395 0.7203 0.18137 0.0
C615 C 0.88838 0.70434 0.1968 0.0
C616 C 0.84729 0.70802 0.20417 0.0
C617 C 0.81465 0.73379 0.19735 0.0
C618 C 0.8149 0.93657 0.20588 0.0
C619 C 0.90563 0.88462 0.20618 0.0
O620 O 0.85882 0.97498 0.16125 0.0
O621 O 0.92364 0.9748 0.17199 0.0
O622 O 0.95969 0.89839 0.17566 0.0
O623 O 0.92018 0.84676 0.16942 0.0
O624 O 0.87141 0.90302 0.14408 0.0
O625 O 0.80922 0.88053 0.15169 0.0
O626 O 0.80703 0.81818 0.16741 0.0
O627 O 0.81255 0.82644 0.19285 0.0
O628 O 0.81727 0.93398 0.19004 0.0
O629 O 0.8186 0.93218 0.18997 0.0
O630 O 0.88842 0.85154 0.19891 0.0
O631 O 0.90417 0.92136 0.19864 0.0
H632 H 0.8967 0.08403 0.16195 0.0
H633 H 0.92886 0.12715 0.1403 0.0
H634 H 0.95932 1.00845 0.11495 0.0
H635 H 0.92738 0.96593 0.13646 0.0
H636 H 0.86898 0.76358 0.16362 0.0
H637 H 0.92489 0.71637 0.17533 0.0
H638 H 0.84239 0.69548 0.2161 0.0
H639 H 0.78552 0.74092 0.20423 0.0
Nd640 Nd 0.64259 0.59828 0.92739 0.0
Nd641 Nd 0.6815 0.63501 0.92371 0.0
C642 C 0.57412 0.54704 0.92927 0.0
C643 C 0.52845 0.56014 0.93064 0.0
C644 C 0.51433 0.59954 0.92373 0.0
C645 C 0.47863 0.62191 0.93012 0.0
C646 C 0.45735 0.60543 0.94354 0.0
C647 C 0.46916 0.5639 0.94934 0.0
C648 C 0.5039 0.54112 0.94273 0.0
C649 C 0.70877 0.56741 0.95622 0.0
C650 C 0.65008 0.65219 0.95749 0.0
C651 C 0.76111 0.65035 0.91326 0.0
C652 C 0.77779 0.66916 0.89875 0.0
C653 C 0.82225 0.66588 0.89506 0.0
C654 C 0.83778 0.68448 0.88105 0.0
C655 C 0.80857 0.70571 0.87073 0.0
C656 C 0.76387 0.70738 0.87423 0.0
C657 C 0.74858 0.68946 0.88825 0.0
C658 C 0.62117 0.71073 0.92379 0.0
C659 C 0.66063 0.58507 0.88973 0.0
O660 O 0.59336 0.5558 0.91581 0.0
O661 O 0.59745 0.55816 0.94155 0.0
O662 O 0.70506 0.56924 0.9404 0.0
O663 O 0.70309 0.57067 0.94037 0.0
O664 O 0.61843 0.63214 0.95028 0.0
O665 O 0.68632 0.65536 0.94957 0.0
O666 O 0.7412 0.6134 0.91121 0.0
O667 O 0.73969 0.67707 0.9225 0.0
O668 O 0.66258 0.70996 0.92755 0.0
O669 O 0.61259 0.6698 0.9201 0.0
O670 O 0.66504 0.62539 0.89501 0.0
O671 O 0.65638 0.56055 0.9024 0.0
H672 H 0.53325 0.61508 0.91445 0.0
H673 H 0.46965 0.65334 0.92537 0.0
H674 H 0.45445 0.55057 0.95999 0.0
H675 H 0.51485 0.51126 0.94838 0.0
H676 H 0.84485 0.64982 0.90312 0.0
H677 H 0.87248 0.68357 0.87849 0.0
H678 H 0.74116 0.72458 0.86652 0.0
H679 H 0.71417 0.69239 0.89108 0.0
Nd680 Nd 0.74578 0.39417 0.17848 0.0
Nd681 Nd 0.7156 0.43159 0.17189 0.0
C682 C 0.78103 0.31796 0.18528 0.0
C683 C 0.75627 0.27723 0.18534 0.0
C684 C 0.71166 0.27882 0.18916 0.0
C685 C 0.68844 0.24087 0.19164 0.0
C686 C 0.70954 0.20039 0.19062 0.0
C687 C 0.75239 0.19866 0.18438 0.0
C688 C 0.77593 0.23707 0.18196 0.0
C689 C 0.79256 0.44925 0.20542 0.0
C690 C 0.68849 0.44193 0.20534 0.0
C691 C 0.7108 0.50359 0.15482 0.0
C692 C 0.70105 0.51565 0.13845 0.0
C693 C 0.71417 0.55629 0.13272 0.0
C694 C 0.70078 0.57006 0.11766 0.0
C695 C 0.67469 0.54291 0.10823 0.0
C696 C 0.6646 0.50089 0.11355 0.0
C697 C 0.67737 0.48748 0.12865 0.0
C698 C 0.637 0.3734 0.17341 0.0
C699 C 0.76759 0.40226 0.14011 0.0
O700 O 0.78544 0.33625 0.17142 0.0
O701 O 0.76916 0.34573 0.19614 0.0
O702 O 0.78165 0.45307 0.1902 0.0
O703 O 0.78037 0.45152 0.18992 0.0
O704 O 0.70462 0.40271 0.20248 0.0
O705 O 0.6901 0.46744 0.19323 0.0
O706 O 0.74703 0.48176 0.15687 0.0
O707 O 0.67822 0.48847 0.16317 0.0
O708 O 0.63905 0.41491 0.17669 0.0
O709 O 0.67759 0.36415 0.16982 0.0
O710 O 0.72643 0.40748 0.14429 0.0
O711 O 0.78949 0.40108 0.1537 0.0
H712 H 0.69547 0.30945 0.19162 0.0
H713 H 0.65586 0.24387 0.19658 0.0
H714 H 0.76935 0.16777 0.18333 0.0
H715 H 0.80999 0.23529 0.17849 0.0
H716 H 0.73281 0.57814 0.1402 0.0
H717 H 0.70829 0.60281 0.1138 0.0
H718 H 0.64349 0.47987 0.10666 0.0
H719 H 0.66659 0.45616 0.13297 0.0
Nd720 Nd 0.98847 0.49918 0.42784 0.0
Nd721 Nd 0.94616 0.46205 0.42474 0.0
C722 C 0.06021 0.54574 0.42986 0.0
C723 C 0.10404 0.5259 0.43037 0.0
C724 C 0.11128 0.48729 0.42166 0.0
C725 C 0.13673 0.45386 0.42818 0.0
C726 C 0.15485 0.45907 0.44333 0.0
C727 C 0.15519 0.50074 0.45026 0.0
C728 C 0.13006 0.53424 0.44373 0.0
C729 C 0.92262 0.53227 0.4566 0.0
C730 C 0.983 0.44579 0.45807 0.0
C731 C 0.86554 0.44344 0.41633 0.0
C732 C 0.84909 0.41857 0.40308 0.0
C733 C 0.80456 0.41905 0.39937 0.0
C734 C 0.78967 0.39548 0.38631 0.0
C735 C 0.81952 0.37195 0.37695 0.0
C736 C 0.86413 0.372 0.38069 0.0
C737 C 0.87885 0.39526 0.3937 0.0
C738 C 1.00604 0.38563 0.42426 0.0
C739 C 0.96585 0.51228 0.39016 0.0
O740 O 1.03861 0.54146 0.41655 0.0
O741 O 1.03636 0.53608 0.44221 0.0
O742 O 0.92597 0.52923 0.44079 0.0
O743 O 0.92777 0.52793 0.44076 0.0
O744 O 1.01447 0.46329 0.45 0.0
O745 O 0.94514 0.44494 0.4511 0.0
O746 O 0.88504 0.47932 0.41218 0.0
O747 O 0.88754 0.42092 0.42681 0.0
O748 O 0.96468 0.38682 0.42795 0.0
O749 O 1.01498 0.42654 0.42059 0.0
O750 O 0.9555 0.47317 0.39567 0.0
O751 O 0.9778 0.53583 0.40243 0.0
H752 H 0.09228 0.48024 0.41109 0.0
H753 H 0.13761 0.4226 0.42233 0.0
H754 H 0.16938 0.50549 0.46196 0.0
H755 H 0.1253 0.56374 0.45058 0.0
H756 H 0.78153 0.43734 0.40657 0.0
H757 H 0.75505 0.39524 0.38359 0.0
H758 H 0.8874 0.35304 0.37383 0.0
H759 H 0.91342 0.39476 0.39654 0.0
Nd760 Nd 0.8562 0.72578 0.67792 0.0
Nd761 Nd 0.89629 0.68194 0.67558 0.0
C762 C 0.80675 0.79562 0.68014 0.0
C763 C 0.82592 0.83926 0.68087 0.0
C764 C 0.86642 0.84582 0.67324 0.0
C765 C 0.89749 0.87324 0.68002 0.0
C766 C 0.88782 0.89484 0.69422 0.0
C767 C 0.8449 0.89426 0.70017 0.0
C768 C 0.81396 0.8665 0.69351 0.0
C769 C 0.82555 0.65687 0.70624 0.0
C770 C 0.90814 0.72722 0.70825 0.0
C771 C 0.92294 0.60057 0.67212 0.0
C772 C 0.95973 0.57837 0.66492 0.0
C773 C 0.95959 0.53303 0.66365 0.0
C774 C 0.99207 0.51218 0.65484 0.0
C775 C 1.02445 0.53686 0.64729 0.0
C776 C 1.02643 0.5819 0.64978 0.0
C777 C 0.99399 0.60262 0.65849 0.0
C778 C 0.97064 0.74343 0.67433 0.0
C779 C 0.84643 0.70118 0.64029 0.0
O780 O 0.81174 0.77465 0.66673 0.0
O781 O 0.81686 0.77166 0.69243 0.0
O782 O 0.82729 0.66241 0.69046 0.0
O783 O 0.82865 0.66424 0.69048 0.0
O784 O 0.89031 0.75669 0.69935 0.0
O785 O 0.91051 0.68847 0.70219 0.0
O786 O 0.89607 0.61979 0.66224 0.0
O787 O 0.9326 0.62459 0.68433 0.0
O788 O 0.97124 0.70233 0.67791 0.0
O789 O 0.92915 0.75157 0.67099 0.0
O790 O 0.88355 0.68551 0.64638 0.0
O791 O 0.82345 0.7185 0.65186 0.0
H792 H 0.87651 0.8253 0.66341 0.0
H793 H 0.93031 0.87363 0.67522 0.0
H794 H 0.83703 0.91091 0.71119 0.0
H795 H 0.78317 0.86184 0.69963 0.0
H796 H 0.9333 0.51411 0.66874 0.0
H797 H 0.9902 0.47738 0.65299 0.0
H798 H 1.05086 0.60152 0.64386 0.0
H799 H 0.99434 0.63772 0.65943 0.0
Nd800 Nd 0.63553 0.50509 0.78008 0.0
Nd801 Nd 0.67718 0.46564 0.78364 0.0
C802 C 0.56718 0.55664 0.77543 0.0
C803 C 0.52182 0.54296 0.77286 0.0
C804 C 0.5052 0.50776 0.78168 0.0
C805 C 0.47484 0.47978 0.77477 0.0
C806 C 0.46187 0.48645 0.75898 0.0
C807 C 0.47253 0.52558 0.75133 0.0
C808 C 0.50209 0.55406 0.75833 0.0
C809 C 0.69891 0.54034 0.75192 0.0
C810 C 0.64257 0.44919 0.75044 0.0
C811 C 0.75389 0.43982 0.79414 0.0
C812 C 0.76011 0.41394 0.8084 0.0
C813 C 0.79978 0.41391 0.81667 0.0
C814 C 0.80233 0.39395 0.83159 0.0
C815 C 0.76493 0.3749 0.83832 0.0
C816 C 0.72551 0.37495 0.82988 0.0
C817 C 0.72323 0.39399 0.815 0.0
C818 C 0.61449 0.39237 0.7843 0.0
C819 C 0.65664 0.51769 0.81786 0.0
O820 O 0.58389 0.54958 0.7895 0.0
O821 O 0.59342 0.54427 0.76411 0.0
O822 O 0.69969 0.53127 0.76744 0.0
O823 O 0.69827 0.53046 0.76758 0.0
O824 O 0.61045 0.46612 0.75849 0.0
O825 O 0.68047 0.44938 0.75736 0.0
O826 O 0.73804 0.4785 0.79704 0.0
O827 O 0.73337 0.42003 0.78264 0.0
O828 O 0.65555 0.39163 0.78027 0.0
O829 O 0.60694 0.43378 0.78786 0.0
O830 O 0.66773 0.47866 0.81248 0.0
O831 O 0.64413 0.54122 0.80562 0.0
H832 H 0.51947 0.49868 0.79303 0.0
H833 H 0.46549 0.45068 0.7811 0.0
H834 H 0.46207 0.53156 0.73918 0.0
H835 H 0.51423 0.58111 0.75137 0.0
H836 H 0.82824 0.42982 0.81175 0.0
H837 H 0.83337 0.39326 0.8378 0.0
H838 H 0.69627 0.36064 0.83487 0.0
H839 H 0.69207 0.39449 0.80889 0.0
Nd840 Nd 0.85638 0.37347 1.03068 0.0
Nd841 Nd 0.89362 0.41633 1.03446 0.0
C842 C 0.81126 0.30186 1.026 0.0
C843 C 0.83207 0.25885 1.02483 0.0
C844 C 0.87246 0.25237 1.03258 0.0
C845 C 0.90345 0.22392 1.02618 0.0
C846 C 0.89392 0.20099 1.01228 0.0
C847 C 0.8514 0.20253 1.00595 0.0
C848 C 0.82056 0.23156 1.01217 0.0
C849 C 0.82178 0.43781 1.00222 0.0
C850 C 0.91363 0.38434 1.00118 0.0
C851 C 0.91308 0.49584 1.04352 0.0
C852 C 0.93115 0.5126 1.05812 0.0
C853 C 0.92656 0.55667 1.06187 0.0
C854 C 0.94306 0.57206 1.07623 0.0
C855 C 0.96361 0.54312 1.08681 0.0
C856 C 0.96663 0.49879 1.08322 0.0
C857 C 0.95069 0.48361 1.06887 0.0
C858 C 0.96816 0.35369 1.03466 0.0
C859 C 0.841 0.3958 1.06855 0.0
O860 O 0.81327 0.32093 1.03986 0.0
O861 O 0.82247 0.32782 1.01449 0.0
O862 O 0.82746 0.43663 1.01797 0.0
O863 O 0.82847 0.43506 1.01804 0.0
O864 O 0.89711 0.35147 1.00882 0.0
O865 O 0.91175 0.42141 1.00848 0.0
O866 O 0.8744 0.47899 1.04521 0.0
O867 O 0.93942 0.47158 1.03511 0.0
O868 O 0.96745 0.39349 1.02931 0.0
O869 O 0.92778 0.3479 1.03982 0.0
O870 O 0.87994 0.40815 1.06334 0.0
O871 O 0.81869 0.38179 1.05616 0.0
H872 H 0.88224 0.27311 1.04236 0.0
H873 H 0.93613 0.22304 1.03107 0.0
H874 H 0.8437 0.18517 0.99508 0.0
H875 H 0.78995 0.23641 1.00589 0.0
H876 H 0.91081 0.57901 1.05366 0.0
H877 H 0.941 0.60647 1.07891 0.0
H878 H 0.98318 0.4763 1.09118 0.0
H879 H 0.95422 0.4494 1.06605 0.0
Nd880 Nd 0.98138 0.59826 0.28051 0.0
Nd881 Nd 0.93862 0.63585 0.28465 0.0
C882 C 0.05345 0.55409 0.27472 0.0
C883 C 0.0952 0.57622 0.27173 0.0
C884 C 0.10571 0.61322 0.28087 0.0
C885 C 0.12968 0.64709 0.27413 0.0
C886 C 0.14312 0.6443 0.2583 0.0
C887 C 0.13814 0.60505 0.24998 0.0
C888 C 0.11466 0.57093 0.25673 0.0
C889 C 0.91131 0.56919 0.25254 0.0
C890 C 0.97014 0.65384 0.25101 0.0
C891 C 0.86128 0.65963 0.29539 0.0
C892 C 0.85182 0.68496 0.30951 0.0
C893 C 0.8097 0.68646 0.3159 0.0
C894 C 0.80235 0.70894 0.33007 0.0
C895 C 0.83729 0.72941 0.33789 0.0
C896 C 0.87937 0.72757 0.3314 0.0
C897 C 0.88656 0.70558 0.31726 0.0
C898 C 1.00091 0.70978 0.28484 0.0
C899 C 0.96274 0.58211 0.31831 0.0
O900 O 1.0372 0.55738 0.28905 0.0
O901 O 1.02429 0.56224 0.26383 0.0
O902 O 0.91713 0.56974 0.26832 0.0
O903 O 0.91896 0.5711 0.26832 0.0
O904 O 1.00328 0.63776 0.25869 0.0
O905 O 0.93312 0.65392 0.25851 0.0
O906 O 0.87866 0.62168 0.29838 0.0
O907 O 0.88189 0.68071 0.28426 0.0
O908 O 0.96072 0.70937 0.27974 0.0
O909 O 1.00745 0.66922 0.28959 0.0
O910 O 0.95099 0.62152 0.31336 0.0
O911 O 0.97428 0.55954 0.30568 0.0
H912 H 0.09125 0.61837 0.2925 0.0
H913 H 0.1344 0.67684 0.2807 0.0
H914 H 0.14896 0.60231 0.23773 0.0
H915 H 0.10686 0.543 0.24942 0.0
H916 H 0.7828 0.67031 0.31 0.0
H917 H 0.76946 0.71086 0.3348 0.0
H918 H 0.90666 0.74316 0.33728 0.0
H919 H 0.91939 0.70434 0.31243 0.0
Nd920 Nd 0.76494 0.72096 0.53006 0.0
Nd921 Nd 0.72876 0.67685 0.53426 0.0
C922 C 0.80666 0.79378 0.52406 0.0
C923 C 0.78364 0.83565 0.52212 0.0
C924 C 0.74643 0.84426 0.53154 0.0
C925 C 0.7128 0.87086 0.52576 0.0
C926 C 0.71612 0.88901 0.51054 0.0
C927 C 0.75559 0.88526 0.50211 0.0
C928 C 0.7893 0.85881 0.50789 0.0
C929 C 0.80091 0.65613 0.50207 0.0
C930 C 0.70618 0.7069 0.50121 0.0
C931 C 0.70716 0.59874 0.54411 0.0
C932 C 0.676 0.58829 0.55642 0.0
C933 C 0.66813 0.54527 0.56086 0.0
C934 C 0.63702 0.53666 0.57255 0.0
C935 C 0.61381 0.57116 0.57961 0.0
C936 C 0.62229 0.61412 0.57521 0.0
C937 C 0.65319 0.62263 0.56365 0.0
C938 C 0.65204 0.73692 0.5352 0.0
C939 C 0.78021 0.70096 0.56813 0.0
O940 O 0.80596 0.77637 0.53823 0.0
O941 O 0.79695 0.76574 0.51304 0.0
O942 O 0.79596 0.65815 0.51783 0.0
O943 O 0.79486 0.6597 0.51794 0.0
O944 O 0.72014 0.74059 0.50898 0.0
O945 O 0.71093 0.66983 0.50829 0.0
O946 O 0.74193 0.61889 0.5492 0.0
O947 O 0.68964 0.61723 0.53167 0.0
O948 O 0.65295 0.69586 0.53147 0.0
O949 O 0.69319 0.74571 0.53856 0.0
O950 O 0.74201 0.68658 0.563 0.0
O951 O 0.80213 0.71542 0.55572 0.0
H952 H 0.74102 0.82676 0.54256 0.0
H953 H 0.6829 0.87418 0.53254 0.0
H954 H 0.7586 0.89923 0.4903 0.0
H955 H 0.81733 0.8524 0.50035 0.0
H956 H 0.68573 0.51866 0.5553 0.0
H957 H 0.63074 0.5033 0.57598 0.0
H958 H 0.60523 0.64108 0.58079 0.0
H959 H 0.65922 0.65608 0.5603 0.0
Nd960 Nd 0.43595 0.46353 0.28421 0.0
Nd961 Nd 0.47995 0.49118 0.27721 0.0
C962 C 0.35991 0.45371 0.29822 0.0
C963 C 0.34529 0.42618 0.31094 0.0
C964 C 0.3005 0.42124 0.31349 0.0
C965 C 0.28588 0.38649 0.32256 0.0
C966 C 0.31625 0.35682 0.32885 0.0
C967 C 0.36114 0.36375 0.32725 0.0
C968 C 0.37569 0.39838 0.31824 0.0
C969 C 0.4947 0.38399 0.28377 0.0
C970 C 0.46657 0.51346 0.31631 0.0
C971 C 0.55588 0.51686 0.26543 0.0
C972 C 0.59871 0.49476 0.26454 0.0
C973 C 0.60508 0.45224 0.25207 0.0
C974 C 0.69662 0.41859 0.25509 0.0
C975 C 0.71573 0.46519 0.26435 0.0
C976 C 0.6905 0.49814 0.27794 0.0
C977 C 0.63825 0.51336 0.27636 0.0
C978 C 0.41588 0.53564 0.25147 0.0
C979 C 0.42777 0.43865 0.25075 0.0
O980 O 0.38718 0.48431 0.30221 0.0
O981 O 0.372 0.43196 0.28564 0.0
O982 O 0.45432 0.38757 0.27892 0.0
O983 O 0.50287 0.4236 0.2884 0.0
O984 O 0.44841 0.4765 0.31227 0.0
O985 O 0.48208 0.53166 0.30303 0.0
O986 O 0.52524 0.49956 0.25696 0.0
O987 O 0.54198 0.52889 0.27945 0.0
O988 O 0.4202 0.53159 0.26717 0.0
O989 O 0.42175 0.53011 0.26729 0.0
O990 O 0.46845 0.44899 0.25399 0.0
O991 O 0.40128 0.4428 0.26243 0.0
H992 H 0.27698 0.44244 0.30767 0.0
H993 H 0.25108 0.38143 0.32396 0.0
H994 H 0.38474 0.34136 0.33239 0.0
H995 H 0.4104 0.40156 0.31605 0.0
H996 H 0.57822 0.44085 0.24457 0.0
H997 H 0.71579 0.39523 0.24818 0.0
H998 H 0.71071 0.51501 0.28651 0.0
H999 H 0.62869 0.53914 0.28443 0.0
Nd1000 Nd 0.37674 0.6705 1.03439 0.0
Nd1001 Nd 0.34217 0.71548 1.02953 0.0
C1002 C 0.40859 0.59694 1.04575 0.0
C1003 C 0.44886 0.59133 1.05466 0.0
C1004 C 0.4662 0.54994 1.05749 0.0
C1005 C 0.50771 0.54578 1.06423 0.0
C1006 C 0.53242 0.58305 1.06778 0.0
C1007 C 0.51446 0.6244 1.06503 0.0
C1008 C 0.4728 0.62847 1.05867 0.0
C1009 C 0.45211 0.73329 1.03323 0.0
C1010 C 0.32481 0.69584 1.06771 0.0
C1011 C 0.30478 0.7908 1.02246 0.0
C1012 C 0.32814 0.83232 1.02122 0.0
C1013 C 0.36611 0.8386 1.03044 0.0
C1014 C 0.3996 0.86529 1.02485 0.0
C1015 C 0.39531 0.88574 1.01008 0.0
C1016 C 0.35496 0.88455 1.00208 0.0
C1017 C 0.32144 0.85799 1.00764 0.0
C1018 C 0.29379 0.65431 1.00432 0.0
C1019 C 0.38976 0.67882 0.99945 0.0
O1020 O 0.37787 0.61898 1.05295 0.0
O1021 O 0.41496 0.61006 1.03122 0.0
O1022 O 0.44941 0.69452 1.02716 0.0
O1023 O 0.41269 0.73868 1.03905 0.0
O1024 O 0.36087 0.67658 1.06274 0.0
O1025 O 0.30535 0.71449 1.0554 0.0
O1026 O 0.30234 0.77334 1.03657 0.0
O1027 O 0.31684 0.76267 1.01178 0.0
O1028 O 0.30535 0.65364 1.01958 0.0
O1029 O 0.30644 0.65493 1.01979 0.0
O1030 O 0.38141 0.71747 1.00539 0.0
O1031 O 0.38604 0.64712 1.00937 0.0
H1032 H 0.44798 0.52108 1.05434 0.0
H1033 H 0.52025 0.51352 1.06679 0.0
H1034 H 0.53268 0.65358 1.06775 0.0
H1035 H 0.4596 0.66069 1.05652 0.0
H1036 H 0.37213 0.81918 1.04099 0.0
H1037 H 0.43035 0.86646 1.03117 0.0
H1038 H 0.35121 0.90022 0.99059 0.0
H1039 H 0.2927 0.85342 1.00029 0.0
Nd1040 Nd 0.16325 0.63735 0.78565 0.0
Nd1041 Nd 0.11991 0.6022 0.78104 0.0
C1042 C 0.24218 0.65384 0.79663 0.0
C1043 C 0.25716 0.67524 0.81094 0.0
C1044 C 0.30124 0.67329 0.81527 0.0
C1045 C 0.31523 0.69472 0.82894 0.0
C1046 C 0.28498 0.71768 0.83833 0.0
C1047 C 0.24069 0.71863 0.8341 0.0
C1048 C 0.22685 0.69752 0.82044 0.0
C1049 C 0.10298 0.71371 0.78556 0.0
C1050 C 0.13801 0.58517 0.81904 0.0
C1051 C 1.0467 0.56 0.77568 0.0
C1052 C 1.00421 0.58205 0.77389 0.0
C1053 C 0.99481 0.61843 0.78356 0.0
C1054 C 0.96877 0.65232 0.77772 0.0
C1055 C 0.95207 0.6501 0.76229 0.0
C1056 C 0.95647 0.6114 0.75355 0.0
C1057 C 0.98192 0.57722 0.75942 0.0
C1058 C 0.1893 0.57103 0.75315 0.0
C1059 C 0.13608 0.65989 0.75201 0.0
O1060 O 0.22212 0.61716 0.7991 0.0
O1061 O 0.22178 0.67895 0.78653 0.0
O1062 O 0.14354 0.71196 0.78086 0.0
O1063 O 0.09509 0.67343 0.79017 0.0
O1064 O 0.1496 0.62453 0.81426 0.0
O1065 O 0.12705 0.563 0.80624 0.0
O1066 O 0.06481 0.56144 0.78974 0.0
O1067 O 0.07418 0.56987 0.76445 0.0
O1068 O 0.18287 0.57088 0.76889 0.0
O1069 O 0.18103 0.57242 0.76889 0.0
O1070 O 0.10189 0.64347 0.75891 0.0
O1071 O 0.17223 0.65796 0.76002 0.0
H1072 H 0.32473 0.65588 0.80798 0.0
H1073 H 0.34962 0.69416 0.83204 0.0
H1074 H 0.21715 0.73717 0.84098 0.0
H1075 H 0.19267 0.69938 0.81709 0.0
H1076 H 1.01162 0.62321 0.79478 0.0
H1077 H 0.96506 0.68179 0.78455 0.0
H1078 H 0.94402 0.60938 0.74148 0.0
H1079 H 0.98896 0.54983 0.75171 0.0
Nd1080 Nd 0.20692 0.4246 0.53373 0.0
Nd1081 Nd 0.24613 0.38852 0.53059 0.0
C1082 C 0.18188 0.49982 0.54538 0.0
C1083 C 0.15622 0.50466 0.55979 0.0
C1084 C 0.1589 0.54227 0.56906 0.0
C1085 C 0.13908 0.54318 0.58402 0.0
C1086 C 0.11699 0.50633 0.58969 0.0
C1087 C 0.11473 0.46879 0.58038 0.0
C1088 C 0.13396 0.46808 0.5655 0.0
C1089 C 0.13382 0.36177 0.53416 0.0
C1090 C 0.25761 0.40641 0.56821 0.0
C1091 C 0.30131 0.32281 0.52944 0.0
C1092 C 0.28951 0.27711 0.52833 0.0
C1093 C 0.24944 0.26319 0.53477 0.0
C1094 C 0.22759 0.22789 0.52808 0.0
C1095 C 0.24552 0.20658 0.51485 0.0
C1096 C 0.28771 0.21837 0.50958 0.0
C1097 C 0.30988 0.2526 0.51654 0.0
C1098 C 0.27581 0.45251 0.50112 0.0
C1099 C 0.19087 0.38869 0.50062 0.0
O1100 O 0.22076 0.48356 0.54793 0.0
O1101 O 0.16159 0.48095 0.53361 0.0
O1102 O 0.13229 0.40298 0.53057 0.0
O1103 O 0.17572 0.3547 0.53737 0.0
O1104 O 0.21714 0.40866 0.56258 0.0
O1105 O 0.28294 0.40379 0.55569 0.0
O1106 O 0.29139 0.34239 0.54272 0.0
O1107 O 0.28977 0.34513 0.51692 0.0
O1108 O 0.27173 0.45114 0.51694 0.0
O1109 O 0.27056 0.44922 0.51705 0.0
O1110 O 0.21277 0.35933 0.50845 0.0
O1111 O 0.18653 0.42601 0.5077 0.0
H1112 H 0.17692 0.5703 0.56491 0.0
H1113 H 0.14082 0.57253 0.59113 0.0
H1114 H 0.09844 0.43987 0.58469 0.0
H1115 H 0.13269 0.43828 0.55868 0.0
H1116 H 0.23285 0.28221 0.54381 0.0
H1117 H 0.19529 0.21967 0.53237 0.0
H1118 H 0.30212 0.20447 0.49896 0.0
H1119 H 0.34018 0.2635 0.5112 0.0
Nd1120 Nd 0.43201 0.63457 0.42168 0.0
Nd1121 Nd 0.47093 0.59633 0.42652 0.0
C1122 C 0.35648 0.65869 0.40956 0.0
C1123 C 0.34997 0.69388 0.39833 0.0
C1124 C 0.3086 0.71226 0.39601 0.0
C1125 C 0.30465 0.751 0.38747 0.0
C1126 C 0.34217 0.7714 0.38142 0.0
C1127 C 0.38333 0.75237 0.3836 0.0
C1128 C 0.38715 0.71372 0.39191 0.0
C1129 C 0.49257 0.70927 0.4222 0.0
C1130 C 0.45875 0.58348 0.38812 0.0
C1131 C 0.53877 0.54502 0.43227 0.0
C1132 C 0.58322 0.55964 0.43606 0.0
C1133 C 0.6012 0.59463 0.42748 0.0
C1134 C 0.62985 0.62327 0.43497 0.0
C1135 C 0.63986 0.6174 0.45109 0.0
C1136 C 0.6278 0.57872 0.45875 0.0
C1137 C 0.59994 0.54961 0.45118 0.0
C1138 C 0.40418 0.5659 0.45445 0.0
C1139 C 0.46016 0.65551 0.45532 0.0
O1140 O 0.37864 0.62543 0.40412 0.0
O1141 O 0.37048 0.672 0.42335 0.0
O1142 O 0.45029 0.70976 0.42373 0.0
O1143 O 0.50243 0.66759 0.42041 0.0
O1144 O 0.45047 0.62337 0.39325 0.0
O1145 O 0.46396 0.55917 0.40088 0.0
O1146 O 0.52441 0.55272 0.41791 0.0
O1147 O 0.51026 0.55595 0.44304 0.0
O1148 O 0.40579 0.57114 0.4387 0.0
O1149 O 0.4074 0.57207 0.43855 0.0
O1150 O 0.49262 0.63476 0.44875 0.0
O1151 O 0.42435 0.65724 0.4471 0.0
H1152 H 0.27983 0.69755 0.4012 0.0
H1153 H 0.27254 0.76531 0.38576 0.0
H1154 H 0.41267 0.768 0.37926 0.0
H1155 H 0.41949 0.7005 0.39397 0.0
H1156 H 0.58925 0.60297 0.41571 0.0
H1157 H 0.64023 0.65216 0.42872 0.0
H1158 H 0.63604 0.5734 0.47116 0.0
H1159 H 0.58669 0.5228 0.45799 0.0
Nd1160 Nd 0.21642 0.67927 0.1754 0.0
Nd1161 Nd 0.25614 0.71888 0.17711 0.0
C1162 C 0.18663 0.60145 0.16863 0.0
C1163 C 0.15006 0.59274 0.15827 0.0
C1164 C 0.13603 0.55043 0.15517 0.0
C1165 C 0.10107 0.54406 0.14477 0.0
C1166 C 0.08037 0.58013 0.13768 0.0
C1167 C 0.09343 0.62231 0.14144 0.0
C1168 C 0.12854 0.62852 0.15146 0.0
C1169 C 0.14264 0.742 0.17441 0.0
C1170 C 0.26276 0.69593 0.13984 0.0
C1171 C 0.31223 0.78357 0.17758 0.0
C1172 C 0.3036 0.83007 0.17891 0.0
C1173 C 0.26453 0.8475 0.17269 0.0
C1174 C 0.2443 0.8827 0.18024 0.0
C1175 C 0.26224 0.89956 0.19432 0.0
C1176 C 0.30439 0.88538 0.19902 0.0
C1177 C 0.32543 0.85192 0.19102 0.0
C1178 C 0.29119 0.65675 0.20628 0.0
C1179 C 0.20522 0.72358 0.20763 0.0
O1180 O 0.22039 0.61826 0.16144 0.0
O1181 O 0.17568 0.62261 0.18144 0.0
O1182 O 0.14267 0.70231 0.17975 0.0
O1183 O 0.18366 0.74819 0.16992 0.0
O1184 O 0.2239 0.68761 0.14611 0.0
O1185 O 0.28909 0.70573 0.15151 0.0
O1186 O 0.3 0.76471 0.16442 0.0
O1187 O 0.3007 0.76196 0.19024 0.0
O1188 O 0.28406 0.6565 0.19061 0.0
O1189 O 0.28308 0.65813 0.19052 0.0
O1190 O 0.22187 0.75257 0.19823 0.0
O1191 O 0.2034 0.68441 0.20198 0.0
H1192 H 0.1525 0.52269 0.16048 0.0
H1193 H 0.09122 0.51125 0.14182 0.0
H1194 H 0.07748 0.65039 0.13614 0.0
H1195 H 0.13942 0.66137 0.15364 0.0
H1196 H 0.24706 0.83096 0.16326 0.0
H1197 H 0.21253 0.89344 0.17608 0.0
H1198 H 0.31929 0.89555 0.21006 0.0
H1199 H 0.35532 0.83859 0.19604 0.0
Nd1200 Nd 0.15545 0.46301 0.925 0.0
Nd1201 Nd 0.11187 0.49969 0.92839 0.0
C1202 C 0.23692 0.4463 0.91665 0.0
C1203 C 0.25658 0.42549 0.90297 0.0
C1204 C 0.30168 0.42808 0.90046 0.0
C1205 C 0.32013 0.40818 0.88714 0.0
C1206 C 0.29331 0.38598 0.87634 0.0
C1207 C 0.24802 0.38447 0.87875 0.0
C1208 C 0.22975 0.40404 0.89204 0.0
C1209 C 0.09601 0.38703 0.92385 0.0
C1210 C 0.13494 0.51396 0.8907 0.0
C1211 C 1.03959 0.54658 0.93075 0.0
C1212 C 0.99539 0.52818 0.93086 0.0
C1213 C 0.98875 0.48837 0.92293 0.0
C1214 C 0.96226 0.45671 0.92983 0.0
C1215 C 0.94295 0.46481 0.94459 0.0
C1216 C 0.94097 0.50788 0.95023 0.0
C1217 C 0.96754 0.53959 0.94342 0.0
C1218 C 0.17809 0.52981 0.95762 0.0
C1219 C 0.11889 0.44298 0.95795 0.0
O1220 O 0.21703 0.48291 0.91348 0.0
O1221 O 0.21415 0.42086 0.92585 0.0
O1222 O 0.13679 0.38811 0.92837 0.0
O1223 O 0.08734 0.42785 0.91987 0.0
O1224 O 0.14619 0.47483 0.89603 0.0
O1225 O 0.12227 0.53698 0.90306 0.0
O1226 O 0.06136 0.5429 0.91747 0.0
O1227 O 0.06295 0.5349 0.94303 0.0
O1228 O 0.17363 0.52942 0.94178 0.0
O1229 O 0.17178 0.52795 0.94177 0.0
O1230 O 0.08693 0.4605 0.94996 0.0
O1231 O 0.15688 0.44337 0.95109 0.0
H1232 H 0.32247 0.44508 0.90882 0.0
H1233 H 0.35517 0.40956 0.88538 0.0
H1234 H 0.22698 0.36691 0.87062 0.0
H1235 H 0.19478 0.40195 0.8939 0.0
H1236 H 1.00912 0.47902 0.91294 0.0
H1237 H 0.96229 0.42428 0.92497 0.0
H1238 H 0.92529 0.51499 0.96151 0.0
H1239 H 0.9717 0.5702 0.94961 0.0
Nd1240 Nd 0.37796 0.42641 0.67436 0.0
Nd1241 Nd 0.34136 0.38287 0.67835 0.0
C1242 C 0.39966 0.50506 0.66503 0.0
C1243 C 0.43017 0.51771 0.65279 0.0
C1244 C 0.43616 0.56143 0.64887 0.0
C1245 C 0.46618 0.57239 0.63707 0.0
C1246 C 0.49001 0.5395 0.62931 0.0
C1247 C 0.48379 0.49583 0.63336 0.0
C1248 C 0.45396 0.48499 0.64503 0.0
C1249 C 0.45441 0.36592 0.6738 0.0
C1250 C 0.3259 0.40418 0.64033 0.0
C1251 C 0.29794 0.3103 0.68324 0.0
C1252 C 0.3196 0.26765 0.6846 0.0
C1253 C 0.35893 0.26065 0.67621 0.0
C1254 C 0.39125 0.23332 0.68247 0.0
C1255 C 0.38425 0.21258 0.69706 0.0
C1256 C 0.34251 0.21405 0.70403 0.0
C1257 C 0.31026 0.24156 0.69783 0.0
C1258 C 0.30278 0.44489 0.7063 0.0
C1259 C 0.39737 0.39761 0.70795 0.0
O1260 O 0.36504 0.48502 0.65976 0.0
O1261 O 0.41783 0.48545 0.67711 0.0
O1262 O 0.45368 0.40713 0.67728 0.0
O1263 O 0.41325 0.35717 0.67044 0.0
O1264 O 0.36435 0.418 0.64551 0.0
O1265 O 0.30406 0.38962 0.65273 0.0
O1266 O 0.29956 0.32909 0.66932 0.0
O1267 O 0.30839 0.33684 0.69467 0.0
O1268 O 0.31096 0.44547 0.69073 0.0
O1269 O 0.31189 0.44408 0.69058 0.0
O1270 O 0.38345 0.36363 0.70027 0.0
O1271 O 0.39422 0.43422 0.70046 0.0
H1272 H 0.41787 0.5868 0.6549 0.0
H1273 H 0.47108 0.6063 0.63409 0.0
H1274 H 0.50175 0.47011 0.62738 0.0
H1275 H 0.44944 0.45103 0.64803 0.0
H1276 H 0.36699 0.28031 0.66592 0.0
H1277 H 0.42306 0.23211 0.67686 0.0
H1278 H 0.33669 0.1982 0.71536 0.0
H1279 H 0.28044 0.24663 0.70455 0.0
C1280 C 0.159 0.17838 0.48484 0.0
C1281 C 0.18359 0.15115 0.47484 0.0
C1282 C 0.17678 0.1928 0.49938 0.0
C1283 C 0.21845 0.17835 0.50453 0.0
H1284 H 0.1283 0.19207 0.48072 0.0
H1285 H 0.15979 0.21842 0.50574 0.0
S1286 S 0.29163 0.10072 0.48423 0.0
N1287 N 0.25127 0.10975 0.4716 0.0
N1288 N 0.27798 0.12738 0.50049 0.0
C1289 C 0.23915 0.14532 0.49591 0.0
C1290 C 0.22381 0.13458 0.48052 0.0
C1291 C 0.14342 0.89043 0.72558 0.0
C1292 C 0.18831 0.8811 0.72471 0.0
C1293 C 0.12634 0.91362 0.73849 0.0
C1294 C 0.15374 0.92785 0.75086 0.0
H1295 H 0.1226 0.88501 0.71532 0.0
H1296 H 0.09258 0.92446 0.73798 0.0
S1297 S 0.27046 0.90049 0.75626 0.0
N1298 N 0.25768 0.87938 0.73876 0.0
N1299 N 0.22523 0.92313 0.76319 0.0
C1300 C 0.19704 0.91314 0.75126 0.0
C1301 C 0.21443 0.88939 0.73811 0.0
C1302 C 0.47152 0.88304 0.97572 0.0
C1303 C 0.48334 0.9269 0.97455 0.0
C1304 C 0.44722 0.86834 0.9887 0.0
C1305 C 0.4344 0.89716 1.00083 0.0
H1306 H 0.47558 0.86158 0.96558 0.0
H1307 H 0.43414 0.83566 0.98832 0.0
S1308 S 0.47039 1.01092 1.00576 0.0
N1309 N 0.4901 0.99605 0.98825 0.0
N1310 N 0.4449 0.96792 1.01299 0.0
C1311 C 0.45245 0.93888 1.00113 0.0
C1312 C 0.47718 0.95389 0.98785 0.0
C1313 C 0.40857 0.20226 0.24908 0.0
C1314 C 0.45362 0.19402 0.24946 0.0
C1315 C 0.39018 0.22662 0.23657 0.0
C1316 C 0.41648 0.24187 0.22409 0.0
H1317 H 0.38738 0.18565 0.25734 0.0
H1318 H 0.35501 0.22787 0.23532 0.0
S1319 S 0.53709 0.24644 0.22411 0.0
N1320 N 0.52492 0.21601 0.23972 0.0
N1321 N 0.48993 0.26088 0.21602 0.0
C1322 C 0.46177 0.24202 0.2264 0.0
C1323 C 0.48058 0.21767 0.23912 0.0
C1324 C 0.17014 0.91743 0.22355 0.0
C1325 C 0.19254 0.93883 0.23576 0.0
C1326 C 0.19119 0.90855 0.20901 0.0
C1327 C 0.2343 0.92304 0.20603 0.0
H1328 H 0.138 0.90422 0.22572 0.0
H1329 H 0.17491 0.8871 0.20072 0.0
S1330 S 0.30339 0.98816 0.23304 0.0
N1331 N 0.25991 0.97551 0.24362 0.0
N1332 N 0.29365 0.9689 0.21509 0.0
C1333 C 0.25381 0.95034 0.21729 0.0
C1334 C 0.23473 0.95519 0.23255 0.0
C1335 C 0.48317 0.8996 0.46927 0.0
C1336 C 0.45136 0.90948 0.45772 0.0
C1337 C 0.47203 0.87663 0.48302 0.0
C1338 C 0.4288 0.86332 0.48554 0.0
H1339 H 0.51525 0.91433 0.46863 0.0
H1340 H 0.49556 0.87515 0.49268 0.0
S1341 S 0.33838 0.8677 0.45627 0.0
N1342 N 0.37891 0.89378 0.4475 0.0
N1343 N 0.35745 0.85131 0.47372 0.0
C1344 C 0.39916 0.86598 0.47281 0.0
C1345 C 0.41056 0.88927 0.45873 0.0
C1346 C 0.43615 0.15811 0.7087 0.0
C1347 C 0.42151 0.20126 0.70737 0.0
C1348 C 0.45864 0.14429 0.72242 0.0
C1349 C 0.46669 0.17339 0.73498 0.0
H1350 H 0.42658 0.13427 0.69991 0.0
H1351 H 0.46497 0.10984 0.72399 0.0
S1352 S 0.44297 0.29136 0.73546 0.0
N1353 N 0.42345 0.27439 0.71822 0.0
N1354 N 0.46447 0.24805 0.74414 0.0
C1355 C 0.457 0.21749 0.73279 0.0
C1356 C 0.43475 0.2316 0.71885 0.0
C1357 C 0.16615 0.18179 0.97643 0.0
C1358 C 0.19871 0.16065 0.98536 0.0
C1359 C 0.14956 0.16242 0.96252 0.0
C1360 C 0.16632 0.12231 0.95698 0.0
H1361 H 0.15067 0.21097 0.98099 0.0
H1362 H 0.12101 0.17685 0.95695 0.0
S1363 S 0.25566 0.05748 0.9747 0.0
N1364 N 0.24831 0.09858 0.98705 0.0
N1365 N 0.2214 0.06621 0.9599 0.0
C1366 C 0.20228 0.104 0.96474 0.0
C1367 C 0.21726 0.12202 0.97927 0.0
C1368 C 0.9534 0.89067 0.73151 0.0
C1369 C 0.96491 0.93443 0.73342 0.0
C1370 C 0.93288 0.87671 0.71757 0.0
C1371 C 0.92313 0.90628 0.70528 0.0
H1372 H 0.95532 0.86844 0.74152 0.0
H1373 H 0.92037 0.8438 0.71712 0.0
S1374 S 0.95813 1.02075 0.70275 0.0
N1375 N 0.97397 1.00475 0.72068 0.0
N1376 N 0.93468 0.97825 0.69436 0.0
C1377 C 0.94001 0.94835 0.70611 0.0
C1378 C 0.96132 0.96251 0.72029 0.0
C1379 C 0.92659 0.19302 0.47329 0.0
C1380 C 0.90137 0.16989 0.48432 0.0
C1381 C 0.93933 0.17325 0.45888 0.0
C1382 C 0.92495 0.13097 0.4549 0.0
H1383 H 0.94019 0.22421 0.47649 0.0
H1384 H 0.96395 0.18922 0.45174 0.0
S1385 S 0.85081 0.06114 0.47794 0.0
N1386 N 0.86123 0.10289 0.48963 0.0
N1387 N 0.87493 0.0726 0.46094 0.0
C1388 C 0.89305 0.11181 0.46444 0.0
C1389 C 0.88449 0.12904 0.47974 0.0
C1390 C 0.72476 0.15538 0.21388 0.0
C1391 C 0.69472 0.16669 0.20194 0.0
C1392 C 0.71071 0.14673 0.22923 0.0
C1393 C 0.66598 0.14713 0.23322 0.0
H1394 H 0.75962 0.15893 0.21209 0.0
H1395 H 0.73577 0.14167 0.23818 0.0
S1396 S 0.57442 0.15386 0.20444 0.0
N1397 N 0.61846 0.16417 0.1937 0.0
N1398 N 0.59171 0.14524 0.22286 0.0
C1399 C 0.63542 0.14993 0.22079 0.0
C1400 C 0.64994 0.15982 0.20502 0.0
C1401 C 0.63006 0.91338 0.96458 0.0
C1402 C 0.6651 0.92412 0.95451 0.0
C1403 C 0.63712 0.88942 0.97849 0.0
C1404 C 0.67923 0.875 0.98255 0.0
H1405 H 0.59811 0.92797 0.9627 0.0
H1406 H 0.61069 0.887 0.98704 0.0
S1407 S 0.7784 0.88245 0.95745 0.0
N1408 N 0.74081 0.91027 0.94751 0.0
N1409 N 0.75399 0.86378 0.97361 0.0
C1410 C 0.71277 0.8791 0.97122 0.0
C1411 C 0.70578 0.90435 0.95716 0.0
C1412 C 0.95492 0.12719 0.98478 0.0
C1413 C 0.96995 0.1574 0.97356 0.0
C1414 C 0.9339 0.14102 0.99871 0.0
C1415 C 0.92955 0.18551 1.00198 0.0
H1416 H 0.9541 0.0932 0.98166 0.0
H1417 H 0.91743 0.11726 1.00607 0.0
S1418 S 0.97486 0.27662 0.97841 0.0
N1419 N 0.9867 0.23271 0.96791 0.0
N1420 N 0.94985 0.25921 0.99464 0.0
C1421 C 0.95107 0.21555 0.99213 0.0
C1422 C 0.97108 0.20134 0.97775 0.0
C1423 C 0.71824 0.22138 0.73639 0.0
C1424 C 0.68667 0.23494 0.72523 0.0
C1425 C 0.70579 0.19895 0.75019 0.0
C1426 C 0.66165 0.18974 0.75298 0.0
H1427 H 0.75265 0.22251 0.73337 0.0
H1428 H 0.73087 0.18441 0.75761 0.0
S1429 S 0.56696 0.23 0.72972 0.0
N1430 N 0.60998 0.24678 0.71965 0.0
N1431 N 0.58625 0.20465 0.74562 0.0
C1432 C 0.62987 0.20991 0.74337 0.0
C1433 C 0.64258 0.2327 0.7294 0.0
C1434 C 0.64233 0.96235 0.48708 0.0
C1435 C 0.62668 0.93303 0.4756 0.0
C1436 C 0.66788 0.94771 0.49992 0.0
C1437 C 0.67683 0.90326 0.5018 0.0
H1438 H 0.63988 0.99698 0.48491 0.0
H1439 H 0.68415 0.97133 0.5074 0.0
S1440 S 0.63278 0.81317 0.47747 0.0
N1441 N 0.61432 0.8577 0.46867 0.0
N1442 N 0.66085 0.82968 0.49314 0.0
C1443 C 0.65529 0.87343 0.4919 0.0
C1444 C 0.63006 0.88848 0.47873 0.0
C1445 C 0.90154 0.91449 0.24865 0.0
C1446 C 0.94545 0.92506 0.25129 0.0
C1447 C 0.8891 0.89335 0.23457 0.0
C1448 C 0.92008 0.88406 0.22269 0.0
H1449 H 0.87653 0.92595 0.25678 0.0
H1450 H 0.85469 0.88859 0.23219 0.0
S1451 S 1.03967 0.8979 0.2254 0.0
N1452 N 1.02067 0.91773 0.24233 0.0
N1453 N 0.99659 0.88066 0.21541 0.0
C1454 C 0.96436 0.89012 0.22601 0.0
C1455 C 0.97723 0.91007 0.2405 0.0
C1456 C 0.68816 0.71529 0.99146 0.0
C1457 C 0.69689 0.68186 1.00247 0.0
C1458 C 0.66499 0.70698 0.97751 0.0
C1459 C 0.64974 0.66509 0.97421 0.0
H1460 H 0.70255 0.74715 0.99302 0.0
H1461 H 0.66343 0.73215 0.96847 0.0
S1462 S 0.65265 0.57027 1.00146 0.0
N1463 N 0.68062 0.60821 1.01093 0.0
N1464 N 0.63636 0.59241 0.98448 0.0
C1465 C 0.65271 0.63312 0.98614 0.0
C1466 C 0.67685 0.64147 1.00037 0.0
C1467 C 0.73199 0.50959 0.23949 0.0
C1468 C 0.70781 0.50069 0.2532 0.0
C1469 C 0.71884 0.49629 0.22411 0.0
C1470 C 0.68806 0.46301 0.22128 0.0
H1471 H 0.76004 0.53065 0.24061 0.0
H1472 H 0.73679 0.50968 0.21419 0.0
S1473 S 0.62964 0.3817 0.25913 0.0
N1474 N 0.64812 0.43905 0.27041 0.0
N1475 N 0.64318 0.40315 0.23679 0.0
C1476 C 0.66172 0.45129 0.23406 0.0
C1477 C 0.66867 0.48106 0.25191 0.0
C1478 C 0.94642 0.45177 0.49917 0.0
C1479 C 0.93749 0.40772 0.50174 0.0
C1480 C 0.97116 0.46462 0.48594 0.0
C1481 C 0.98605 0.4337 0.47484 0.0
H1482 H 0.93066 0.4763 0.50645 0.0
H1483 H 0.97338 0.49896 0.48321 0.0
S1484 S 0.98121 0.31423 0.47889 0.0
N1485 N 0.95385 0.33295 0.49443 0.0
N1486 N 0.99867 0.35747 0.46915 0.0
C1487 C 0.98318 0.38961 0.47874 0.0
C1488 C 0.95889 0.37646 0.49233 0.0
C1489 C 0.88467 0.71953 0.73583 0.0
C1490 C 0.91724 0.73309 0.72515 0.0
C1491 C 0.89599 0.69793 0.74995 0.0
C1492 C 0.93999 0.68988 0.75359 0.0
H1493 H 0.85066 0.71982 0.7322 0.0
H1494 H 0.87046 0.68304 0.75697 0.0
S1495 S 1.03641 0.7318 0.73203 0.0
N1496 N 0.99423 0.74668 0.72095 0.0
N1497 N 1.01575 0.70667 0.74769 0.0
C1498 C 0.97233 0.71052 0.74451 0.0
C1499 C 0.96081 0.73214 0.73013 0.0
C1500 C 0.67718 0.3795 0.71784 0.0
C1501 C 0.68388 0.41092 0.70595 0.0
C1502 C 0.65513 0.39021 0.73183 0.0
C1503 C 0.63925 0.43254 0.73424 0.0
H1504 H 0.69287 0.34787 0.71701 0.0
H1505 H 0.6555 0.36701 0.74157 0.0
S1506 S 0.63555 0.52114 0.7044 0.0
N1507 N 0.66391 0.482 0.69564 0.0
N1508 N 0.62193 0.50242 0.72219 0.0
C1509 C 0.6395 0.46184 0.72141 0.0
C1510 C 0.66231 0.45099 0.70714 0.0
C1511 C 0.97431 0.43237 0.9688 0.0
C1512 C 0.94291 0.42989 0.95661 0.0
C1513 C 0.96919 0.40899 0.98286 0.0
C1514 C 0.93221 0.38304 0.98517 0.0
H1515 H 1.00073 0.45564 0.96809 0.0
H1516 H 0.99088 0.41607 0.99273 0.0
S1517 S 0.85453 0.34868 0.95389 0.0
N1518 N 0.88357 0.38752 0.94536 0.0
N1519 N 0.87317 0.34385 0.97232 0.0
C1520 C 0.9058 0.37353 0.97197 0.0
C1521 C 0.9112 0.39726 0.95747 0.0
C1522 C 0.9447 0.65385 0.20819 0.0
C1523 C 0.92651 0.69572 0.20704 0.0
C1524 C 0.96698 0.64115 0.2221 0.0
C1525 C 0.97187 0.67048 0.23481 0.0
H1526 H 0.93748 0.62963 0.19923 0.0
H1527 H 0.97531 0.60712 0.22369 0.0
S1528 S 0.94013 0.78605 0.23564 0.0
N1529 N 0.92256 0.76847 0.2182 0.0
N1530 N 0.96492 0.74439 0.24414 0.0
C1531 C 0.96007 0.71388 0.23259 0.0
C1532 C 0.93724 0.7267 0.21865 0.0
C1533 C 0.71277 0.69641 0.4726 0.0
C1534 C 0.68602 0.70793 0.48551 0.0
C1535 C 0.69719 0.66911 0.4605 0.0
C1536 C 0.65394 0.65433 0.46091 0.0
H1537 H 0.74707 0.7043 0.47297 0.0
H1538 H 0.7197 0.65692 0.45158 0.0
S1539 S 0.56774 0.68762 0.48945 0.0
N1540 N 0.61261 0.71088 0.49617 0.0
N1541 N 0.58207 0.6616 0.47303 0.0
C1542 C 0.62522 0.67172 0.47234 0.0
C1543 C 0.64147 0.69863 0.4847 0.0
C1544 C 0.4295 0.41353 0.22226 0.0
C1545 C 0.40882 0.4361 0.23463 0.0
C1546 C 0.40739 0.4065 0.20781 0.0
C1547 C 0.36516 0.42411 0.20504 0.0
H1548 H 0.46106 0.39827 0.2242 0.0
H1549 H 0.42201 0.3841 0.19942 0.0
S1550 S 0.30081 0.49297 0.23257 0.0
N1551 N 0.34415 0.47761 0.24286 0.0
N1552 N 0.30845 0.47298 0.21458 0.0
C1553 C 0.34741 0.452 0.21652 0.0
C1554 C 0.36749 0.45545 0.23167 0.0
C1555 C 0.42777 0.69166 0.97332 0.0
C1556 C 0.39753 0.66847 0.98253 0.0
C1557 C 0.44383 0.67377 0.95902 0.0
C1558 C 0.42856 0.63329 0.95338 0.0
H1559 H 0.44234 0.72108 0.97796 0.0
H1560 H 0.47126 0.68944 0.95328 0.0
S1561 S 0.34361 0.56448 0.97133 0.0
N1562 N 0.35144 0.60418 0.98418 0.0
N1563 N 0.37499 0.57628 0.95603 0.0
C1564 C 0.39332 0.61405 0.96113 0.0
C1565 C 0.37983 0.62988 0.97617 0.0
C1566 C 0.15357 0.71982 0.73442 0.0
C1567 C 0.13699 0.67764 0.73593 0.0
C1568 C 0.17891 0.73113 0.72129 0.0
C1569 C 0.1883 0.70047 0.70936 0.0
H1570 H 0.15163 0.74234 0.74434 0.0
H1571 H 0.19487 0.76253 0.72126 0.0
S1572 S 0.14156 0.59036 0.70562 0.0
N1573 N 0.12348 0.60839 0.72298 0.0
N1574 N 0.17085 0.6302 0.69791 0.0
C1575 C 0.16624 0.66071 0.70947 0.0
C1576 C 0.14037 0.64913 0.72293 0.0
C1577 C 0.13403 0.39961 0.4806 0.0
C1578 C 0.176 0.38388 0.48417 0.0
C1579 C 0.12514 0.41795 0.46575 0.0
C1580 C 0.15827 0.42168 0.45425 0.0
H1581 H 0.10975 0.40285 0.48993 0.0
H1582 H 0.09413 0.43458 0.46409 0.0
S1583 S 0.2678 0.37045 0.45588 0.0
N1584 N 0.2469 0.36204 0.47377 0.0
N1585 N 0.22976 0.39659 0.44556 0.0
C1586 C 0.19748 0.39884 0.45661 0.0
C1587 C 0.20652 0.37981 0.47178 0.0
C1588 C 0.4173 0.71974 0.48858 0.0
C1589 C 0.4168 0.68842 0.50076 0.0
C1590 C 0.4384 0.71134 0.47422 0.0
C1591 C 0.45962 0.67146 0.47167 0.0
H1592 H 0.39828 0.74945 0.48969 0.0
H1593 H 0.43408 0.73422 0.4645 0.0
S1594 S 0.47947 0.5853 0.50171 0.0
N1595 N 0.44763 0.62094 0.51091 0.0
N1596 N 0.48739 0.60462 0.48355 0.0
C1597 C 0.46466 0.64258 0.48452 0.0
C1598 C 0.44301 0.65119 0.49924 0.0
C1599 C 0.19925 0.69699 0.24922 0.0
C1600 C 0.15562 0.6835 0.2494 0.0
C1601 C 0.2152 0.72141 0.23636 0.0
C1602 C 0.18776 0.73198 0.22349 0.0
H1603 H 0.2218 0.68475 0.25809 0.0
H1604 H 0.2501 0.72631 0.23534 0.0
S1605 S 0.06835 0.71699 0.22135 0.0
N1606 N 0.08311 0.69213 0.23799 0.0
N1607 N 0.11338 0.73817 0.21391 0.0
C1608 C 0.14274 0.72617 0.22526 0.0
C1609 C 0.12653 0.70117 0.23818 0.0
C1610 C 0.12283 0.45328 0.98689 0.0
C1611 C 0.11515 0.42512 0.974 0.0
C1612 C 0.14529 0.4385 1.00047 0.0
C1613 C 0.16085 0.39557 1.00123 0.0
H1614 H 0.11677 0.48786 0.98559 0.0
H1615 H 0.15463 0.46173 1.00951 0.0
S1616 S 0.13816 0.30714 0.97251 0.0
N1617 N 0.11582 0.35089 0.9644 0.0
N1618 N 0.15886 0.32316 0.9897 0.0
C1619 C 0.14719 0.36589 0.98956 0.0
C1620 C 0.12393 0.38077 0.97594 0.0
C1621 C 0.46089 0.40901 0.72464 0.0
C1622 C 0.41669 0.39744 0.72384 0.0
C1623 C 0.47623 0.43487 0.73708 0.0
C1624 C 0.44777 0.44966 0.74908 0.0
H1625 H 0.48231 0.40288 0.71459 0.0
H1626 H 0.50956 0.44659 0.73656 0.0
S1627 S 0.33298 0.41689 0.75487 0.0
N1628 N 0.3473 0.39413 0.7378 0.0
N1629 N 0.37653 0.44294 0.76141 0.0
C1630 C 0.4054 0.43295 0.74969 0.0
C1631 C 0.38978 0.40646 0.73698 0.0
C1632 C 0.10714 0.29276 0.42686 0.0
C1633 C 0.08971 0.24951 0.42406 0.0
C1634 C 0.08219 0.33448 0.4266 0.0
C1635 C 1.03584 0.33945 0.42353 0.0
H1636 H 0.14168 0.29485 0.42952 0.0
H1637 H 0.10001 0.36355 0.42946 0.0
S1638 S 0.96974 0.23911 0.41565 0.0
N1639 N 1.01911 0.21801 0.41812 0.0
N1640 N 0.97449 0.2922 0.41794 0.0
C1641 C 1.01783 0.29642 0.42093 0.0
C1642 C 1.04332 0.2539 0.42104 0.0
C1643 C 1.0211 0.81752 0.6795 0.0
C1644 C 1.01573 0.77402 0.67327 0.0
C1645 C 0.06256 0.84248 0.67977 0.0
C1646 C 0.10478 0.82804 0.67376 0.0
H1647 H 0.99274 0.8327 0.68485 0.0
H1648 H 0.06119 0.87448 0.68511 0.0
S1649 S 0.11276 0.71745 0.65511 0.0
N1650 N 0.06095 0.71892 0.66064 0.0
N1651 N 0.13424 0.76452 0.66037 0.0
C1652 C 0.09969 0.78488 0.66724 0.0
C1653 C 0.05765 0.75902 0.66726 0.0
C1654 C 0.58283 0.84125 0.92597 0.0
C1655 C 0.53622 0.84573 0.92352 0.0
C1656 C 0.60807 0.79976 0.9259 0.0
C1657 C 0.59073 0.75642 0.92325 0.0
H1658 H 0.60067 0.87053 0.92853 0.0
H1659 H 0.64281 0.8021 0.92817 0.0
S1660 S 0.47019 0.74505 0.91626 0.0
N1661 N 0.47473 0.79815 0.91858 0.0
N1662 N 0.51993 0.72431 0.91809 0.0
C1663 C 0.54409 0.76037 0.92077 0.0
C1664 C 0.51828 0.80265 0.92104 0.0
C1665 C 0.54986 0.26904 0.17372 0.0
C1666 C 0.50508 0.28503 0.17339 0.0
C1667 C 0.5901 0.29579 0.17321 0.0
C1668 C 0.59172 0.34279 0.17297 0.0
H1669 H 0.55441 0.23414 0.17429 0.0
H1670 H 0.62096 0.27861 0.17318 0.0
S1671 S 0.48597 0.40556 0.17207 0.0
N1672 N 0.46814 0.35492 0.17239 0.0
N1673 N 0.53992 0.4029 0.1724 0.0
C1674 C 0.54718 0.35937 0.17277 0.0
C1675 C 0.50608 0.33198 0.17276 0.0
C1676 C 1.01795 0.79646 0.27886 0.0
C1677 C 1.03147 0.75496 0.28563 0.0
C1678 C 1.04332 0.83752 0.27895 0.0
C1679 C 0.0864 0.8433 0.28571 0.0
H1680 H 0.9863 0.79759 0.27311 0.0
H1681 H 1.02875 0.8653 0.27306 0.0
S1682 S 0.14027 0.74833 0.30616 0.0
N1683 N 0.09352 0.72667 0.30041 0.0
N1684 N 0.13989 0.79928 0.29989 0.0
C1685 C 0.1005 0.80211 0.29252 0.0
C1686 C 0.0742 0.76041 0.2927 0.0
C1687 C 0.5582 0.83522 0.5303 0.0
C1688 C 0.51635 0.82036 0.53632 0.0
C1689 C 0.59999 0.81044 0.53039 0.0
C1690 C 0.60619 0.76679 0.5364 0.0
H1691 H 0.559 0.86741 0.52509 0.0
H1692 H 0.62795 0.82586 0.52505 0.0
S1693 S 0.51017 0.70872 0.55421 0.0
N1694 N 0.48788 0.75595 0.54926 0.0
N1695 N 0.56198 0.71078 0.54872 0.0
C1696 C 0.56459 0.75124 0.54236 0.0
C1697 C 0.52212 0.77688 0.54256 0.0
C1698 C 0.6007 0.3042 0.78926 0.0
C1699 C 0.58373 0.34734 0.78552 0.0
C1700 C 0.57544 0.26295 0.78962 0.0
C1701 C 0.52965 0.25831 0.78568 0.0
H1702 H 0.6351 0.30189 0.79218 0.0
H1703 H 0.59283 0.23382 0.79306 0.0
S1704 S 0.46582 0.35785 0.77383 0.0
N1705 N 0.51459 0.37877 0.77723 0.0
N1706 N 0.46986 0.30523 0.77741 0.0
C1707 C 0.5124 0.30104 0.78171 0.0
C1708 C 0.53787 0.3432 0.78171 0.0
C1709 C 0.09491 0.308 1.02694 0.0
C1710 C 0.1019 0.26657 1.03468 0.0
C1711 C 0.05388 0.33402 1.02718 0.0
C1712 C 1.01338 0.32253 1.03513 0.0
H1713 H 0.12152 0.32041 1.01992 0.0
H1714 H 0.05408 0.36431 1.0206 0.0
S1715 S 1.00939 0.21753 1.05788 0.0
N1716 N 0.05972 0.21632 1.05075 0.0
N1717 N 0.98687 0.26344 1.05159 0.0
C1718 C 1.01975 0.28108 1.04297 0.0
C1719 C 0.06157 0.25432 1.04258 0.0
C1720 C 0.08684 0.80021 0.7787 0.0
C1721 C 0.07314 0.75965 0.78601 0.0
C1722 C 0.0619 0.8418 0.77846 0.0
C1723 C 1.01937 0.8491 0.78551 0.0
H1724 H 0.11809 0.80002 0.77267 0.0
H1725 H 0.07625 0.86865 0.77204 0.0
S1726 S 0.96532 0.75715 0.80722 0.0
N1727 N 1.01157 0.73396 0.80147 0.0
N1728 N 0.966 0.80751 0.80036 0.0
C1729 C 1.00511 0.80884 0.79281 0.0
C1730 C 1.0309 0.76662 0.79329 0.0
C1731 C 1.04143 0.26318 0.52713 0.0
C1732 C 1.00054 0.27456 0.535 0.0
C1733 C 0.0827 0.2887 0.52732 0.0
C1734 C 0.08931 0.32994 0.5353 0.0
H1735 H 1.04185 0.23326 0.52035 0.0
H1736 H 0.10997 0.27579 0.52058 0.0
S1737 S 0.99699 0.37678 0.55943 0.0
N1738 N 0.97457 0.33174 0.55255 0.0
N1739 N 1.04698 0.3787 0.55204 0.0
C1740 C 1.04885 0.34166 0.5433 0.0
C1741 C 1.00714 0.31506 0.54343 0.0
C1742 C 0.53478 0.2547 0.27957 0.0
C1743 C 0.57925 0.24955 0.28512 0.0
C1744 C 0.50933 0.29595 0.27927 0.0
C1745 C 0.52438 0.33813 0.28468 0.0
H1746 H 0.51915 0.22621 0.27482 0.0
H1747 H 0.47653 0.29441 0.27447 0.0
S1748 S 0.63785 0.3471 0.30128 0.0
N1749 N 0.63588 0.29504 0.29647 0.0
N1750 N 0.58987 0.36838 0.29648 0.0
C1751 C 0.56863 0.33342 0.29049 0.0
C1752 C 0.59483 0.29149 0.29051 0.0
C1753 C 0.54458 0.83184 1.0405 0.0
C1754 C 0.58719 0.81713 1.03491 0.0
C1755 C 0.50339 0.80625 1.04052 0.0
C1756 C 0.49817 0.76269 1.0343 0.0
H1757 H 0.54271 0.86451 1.04524 0.0
H1758 H 0.47479 0.82153 1.04563 0.0
S1759 S 0.59603 0.70553 1.01721 0.0
N1760 N 0.61749 0.75253 1.02254 0.0
N1761 N 0.54385 0.70752 1.02208 0.0
C1762 C 0.54032 0.74775 1.02856 0.0
C1763 C 0.58252 0.77336 1.02891 0.0
C1764 C 1.01988 0.33713 0.92074 0.0
C1765 C 0.06659 0.34106 0.92287 0.0
C1766 C 0.99461 0.29596 0.92094 0.0
C1767 C 1.01231 0.25223 0.92271 0.0
H1768 H 1.00173 0.36679 0.91894 0.0
H1769 H 0.95954 0.29887 0.91955 0.0
S1770 S 0.13321 0.2392 0.92858 0.0
N1771 N 0.12836 0.29253 0.92704 0.0
N1772 N 0.0835 0.21903 0.9267 0.0
C1773 C 0.05913 0.25551 0.92459 0.0
C1774 C 0.08473 0.29762 0.92482 0.0
C1775 C 0.50656 0.29317 0.6799 0.0
C1776 C 0.50007 0.33564 0.67286 0.0
C1777 C 0.54826 0.26821 0.68018 0.0
C1778 C 0.58974 0.28168 0.6734 0.0
H1779 H 0.47894 0.27892 0.68594 0.0
H1780 H 0.54772 0.23704 0.68618 0.0
S1781 S 0.59506 0.3898 0.65278 0.0
N1782 N 0.54364 0.38904 0.6588 0.0
N1783 N 0.61749 0.34343 0.65865 0.0
C1784 C 0.58367 0.32396 0.66617 0.0
C1785 C 0.54131 0.34983 0.66614 0.0
C1786 C 0.53217 0.83824 0.41724 0.0
C1787 C 0.57629 0.84338 0.42312 0.0
C1788 C 0.50716 0.79692 0.41698 0.0
C1789 C 0.52306 0.75436 0.42195 0.0
H1790 H 0.51603 0.86692 0.41263 0.0
H1791 H 0.474 0.79865 0.41251 0.0
S1792 S 0.63656 0.74538 0.43846 0.0
N1793 N 0.6334 0.7977 0.43427 0.0
N1794 N 0.58923 0.72386 0.43332 0.0
C1795 C 0.56733 0.75897 0.42761 0.0
C1796 C 0.59242 0.80122 0.42823 0.0
C1797 C 1.01161 0.78043 0.17331 0.0
C1798 C 1.00768 0.82721 0.17221 0.0
C1799 C 1.05315 0.75514 0.17387 0.0
C1800 C 0.09715 0.77259 0.17303 0.0
H1801 H 0.98164 0.76238 0.17411 0.0
H1802 H 1.05028 0.72021 0.17502 0.0
S1803 S 0.11052 0.89352 0.17052 0.0
N1804 N 0.05673 0.88897 0.17087 0.0
N1805 N 0.13072 0.8436 0.1713 0.0
C1806 C 0.09388 0.81937 0.17189 0.0
C1807 C 1.05149 0.84525 0.17166 0.0
C1808 C 0.26429 0.28577 0.35919 0.0
C1809 C 0.27784 0.24397 0.35436 0.0
C1810 C 0.27563 0.32223 0.35046 0.0
C1811 C 0.3013 0.31789 0.33682 0.0
H1812 H 0.24622 0.29058 0.37015 0.0
H1813 H 0.26579 0.35407 0.35474 0.0
S1814 S 0.34231 0.21595 0.31852 0.0
N1815 N 0.31584 0.20004 0.33463 0.0
N1816 N 0.33801 0.26953 0.31812 0.0
C1817 C 0.3141 0.27644 0.33153 0.0
C1818 C 0.30223 0.23912 0.34039 0.0
C1819 C 1.04002 0.09549 0.60531 0.0
C1820 C 0.9972 0.07931 0.60615 0.0
C1821 C 0.0704 0.08585 0.61713 0.0
C1822 C 0.05895 0.05947 0.63005 0.0
H1823 H 1.05066 0.11434 0.59513 0.0
H1824 H 0.10361 0.09735 0.61575 0.0
S1825 S 0.95027 1.01247 0.63857 0.0
N1826 N 0.94386 1.03855 0.6215 0.0
N1827 N 1.00183 1.01961 0.64377 0.0
C1828 C 1.01596 1.04431 0.63139 0.0
C1829 C 0.98483 0.05438 0.61938 0.0
C1830 C 0.34123 0.80876 0.85938 0.0
C1831 C 0.32088 0.8086 0.87436 0.0
C1832 C 0.33095 0.77753 0.84802 0.0
C1833 C 0.29993 0.7454 0.85132 0.0
H1834 H 0.36434 0.83393 0.85625 0.0
H1835 H 0.34596 0.77967 0.83636 0.0
S1836 S 0.24053 0.72864 0.88923 0.0
N1837 N 0.27078 0.77214 0.89238 0.0
N1838 N 0.25092 0.71324 0.87076 0.0
C1839 C 0.28034 0.74398 0.86641 0.0
C1840 C 0.29091 0.77576 0.87802 0.0
C1841 C 0.59602 0.05283 0.12602 0.0
C1842 C 0.55967 0.0804 0.12436 0.0
C1843 C 0.62188 1.04274 0.11286 0.0
C1844 C 0.61185 0.06003 1.0978 0.0
H1845 H 0.60373 1.0382 0.13744 0.0
H1846 H 0.64884 1.02005 0.1143 0.0
S1847 S 0.51982 0.13333 1.08734 0.0
N1848 N 0.51477 0.12484 0.10667 0.0
N1849 N 0.56384 0.10587 1.08187 0.0
C1850 C 0.57649 0.08873 1.0961 0.0
C1851 C 0.55013 0.09889 0.10944 0.0
C1852 C 0.31485 0.84732 0.37949 0.0
C1853 C 0.33856 0.8126 0.37281 0.0
C1854 C 0.30709 0.88513 0.37072 0.0
C1855 C 0.32317 0.88911 0.35514 0.0
H1856 H 0.30079 0.84448 0.39128 0.0
H1857 H 0.28596 0.91008 0.37567 0.0
S1858 S 0.38866 0.80805 0.33268 0.0
N1859 N 0.37947 0.785 0.35011 0.0
N1860 N 0.36536 0.85652 0.33365 0.0
C1861 C 0.34934 0.85578 0.34876 0.0
C1862 C 0.35684 0.81722 0.3576 0.0
C1863 C 0.53878 0.08423 0.61189 0.0
C1864 C 0.58307 0.07276 0.61324 0.0
C1865 C 0.51623 0.07692 0.59777 0.0
C1866 C 0.53749 0.05802 0.58467 0.0
H1867 H 0.52127 0.0979 0.62195 0.0
H1868 H 0.48154 0.08421 0.59733 0.0
S1869 S 0.65423 1.02672 0.58174 0.0
N1870 N 0.64838 1.04511 0.60011 0.0
N1871 N 0.60549 1.03088 0.57338 0.0
C1872 C 0.58215 1.04802 0.58566 0.0
C1873 C 0.60512 0.05545 0.60004 0.0
C1874 C 0.30558 0.33557 0.83597 0.0
C1875 C 0.33314 0.3001 0.83927 0.0
C1876 C 0.2952 0.36549 0.84787 0.0
C1877 C 0.31209 0.36052 0.86333 0.0
H1878 H 0.29106 0.33946 0.82427 0.0
H1879 H 0.27239 0.39159 0.84517 0.0
S1880 S 0.38624 0.27335 0.87777 0.0
N1881 N 0.37799 0.26198 0.85879 0.0
N1882 N 0.35827 0.31842 0.88127 0.0
C1883 C 0.34115 0.32623 0.86658 0.0
C1884 C 0.3517 0.29581 0.85449 0.0
C1885 C 1.00219 0.09504 1.0877 0.0
C1886 C 1.04176 0.11233 1.09318 0.0
C1887 C 0.96836 0.08639 1.09833 0.0
C1888 C 0.97355 0.09451 0.11468 0.0
H1889 H 0.99856 0.08551 1.07535 0.0
H1890 H 0.93952 0.06988 1.09398 0.0
S1891 S 0.0692 0.14482 0.13441 0.0
N1892 N 0.0828 0.1419 0.11541 0.0
N1893 N 1.01925 0.12502 0.13558 0.0
C1894 C 1.01138 0.11573 0.12001 0.0
C1895 C 1.0457 0.12472 0.10916 0.0
C1896 C 0.80722 0.72714 0.8424 0.0
C1897 C 0.82442 0.73274 0.85776 0.0
C1898 C 0.81248 0.75928 0.83085 0.0
C1899 C 0.83482 0.79772 0.83448 0.0
H1900 H 0.7878 0.69879 0.83959 0.0
H1901 H 0.79808 0.75464 0.81918 0.0
S1902 S 0.8857 0.82741 0.87305 0.0
N1903 N 0.86508 0.77859 0.87601 0.0
N1904 N 0.87459 0.83958 0.85432 0.0
C1905 C 0.85345 0.80293 0.84965 0.0
C1906 C 0.84842 0.77012 0.86131 0.0
C1907 C 0.77391 0.31103 0.36793 0.0
C1908 C 0.80425 0.34351 0.36426 0.0
C1909 C 0.76435 0.27867 0.35691 0.0
C1910 C 0.78496 0.27807 0.34199 0.0
H1911 H 0.75906 0.30946 0.37963 0.0
H1912 H 0.74177 0.25323 0.36025 0.0
S1913 S 0.8629 0.3589 0.32611 0.0
N1914 N 0.8521 0.37557 0.3444 0.0
N1915 N 0.8339 0.31431 0.3235 0.0
C1916 C 0.8139 0.31141 0.33792 0.0
C1917 C 0.82357 0.3444 0.34912 0.0
C1918 C 0.7497 0.31021 0.85479 0.0
C1919 C 0.76703 0.3523 0.85367 0.0
C1920 C 0.75412 0.28614 0.86872 0.0
C1921 C 0.77636 0.30329 0.88187 0.0
H1922 H 0.73448 0.2949 0.84459 0.0
H1923 H 0.74289 0.25277 0.86876 0.0
S1924 S 0.82218 0.41394 0.88574 0.0
N1925 N 0.80263 0.41211 0.8674 0.0
N1926 N 0.81209 0.36585 0.89368 0.0
C1927 C 0.79154 0.3462 0.88129 0.0
C1928 C 0.78673 0.37095 0.86711 0.0
C1929 C 0.83617 0.82459 0.36584 0.0
C1930 C 0.8118 0.80879 0.37872 0.0
C1931 C 0.845 0.79816 0.35279 0.0
C1932 C 0.82979 0.75518 0.35228 0.0
H1933 H 0.84652 0.85823 0.36549 0.0
H1934 H 0.86243 0.81195 0.34277 0.0
S1935 S 0.76907 0.69723 0.38391 0.0
N1936 N 0.77561 0.74697 0.39091 0.0
N1937 N 0.79272 0.69669 0.36622 0.0
C1938 C 0.80715 0.73835 0.3654 0.0
C1939 C 0.79808 0.76534 0.3787 0.0
C1940 C 0.6195 0.59537 1.09897 0.0
C1941 C 0.64838 0.56124 1.09524 0.0
C1942 C 0.5833 0.60398 1.0894 0.0
C1943 C 0.57516 0.57901 1.07571 0.0
H1944 H 0.62242 0.61275 0.11015 0.0
H1945 H 0.55988 0.62812 1.09343 0.0
S1946 S 0.64675 0.49279 1.059 0.0
N1947 N 0.67066 0.50689 1.07586 0.0
N1948 N 0.60289 0.5241 1.0574 0.0
C1949 C 0.60637 0.54796 1.07095 0.0
C1950 C 0.64307 0.53891 1.08082 0.0
C1951 C 0.09471 0.5261 0.63315 0.0
C1952 C 1.04954 0.51864 0.63405 0.0
C1953 C 0.11699 0.5205 0.61879 0.0
C1954 C 0.09452 0.50744 0.60504 0.0
H1955 H 0.11227 0.53867 0.64336 0.0
H1956 H 0.15156 0.52781 0.61829 0.0
S1957 S 0.97654 0.48277 0.60137 0.0
N1958 N 0.98344 0.49624 0.62023 0.0
N1959 N 1.02545 0.4858 0.59319 0.0
C1960 C 1.04986 0.4978 0.60599 0.0
C1961 C 1.02729 0.5033 0.62057 0.0
C1962 C 1.01087 0.54917 0.12782 0.0
C1963 C 1.04823 0.57422 0.12508 0.0
C1964 C 0.98123 0.54166 0.11551 0.0
C1965 C 0.98845 0.55921 1.10031 0.0
H1966 H 1.00508 0.53471 0.1394 0.0
H1967 H 0.95351 0.5207 0.11768 0.0
S1968 S 0.08223 0.62575 1.08716 0.0
N1969 N 0.09146 0.61594 0.1062 0.0
N1970 N 1.0353 0.60201 1.08306 0.0
C1971 C 1.0251 0.58519 1.09757 0.0
C1972 C 0.05529 0.59258 0.11 0.0
C1973 C 0.56413 0.53331 0.61794 0.0
C1974 C 0.52138 0.54993 0.61685 0.0
C1975 C 0.59383 0.53969 0.60562 0.0
C1976 C 0.58146 0.56288 0.59196 0.0
H1977 H 0.57453 0.51515 0.62836 0.0
H1978 H 0.62676 0.52694 0.60687 0.0
S1979 S 0.47285 0.61115 0.58314 0.0
N1980 N 0.46759 0.58926 0.601 0.0
N1981 N 0.52387 0.60153 0.57771 0.0
C1982 C 0.53883 0.57962 0.5907 0.0
C1983 C 0.50861 0.57313 0.60324 0.0
C1984 C 0.22187 1.00403 0.48265 0.0
C1985 C 0.23402 1.01763 0.46662 0.0
C1986 C 0.24944 0.97967 0.49422 0.0
C1987 C 0.29382 0.9657 0.49143 0.0
H1988 H 0.18922 1.01254 0.48655 0.0
H1989 H 0.23487 0.97108 0.50552 0.0
S1990 S 0.34737 0.99447 0.45247 0.0
N1991 N 0.29796 1.015 0.44981 0.0
N1992 N 0.3479 0.97179 0.47034 0.0
C1993 C 0.30668 0.97976 0.47552 0.0
C1994 C 0.27835 1.00441 0.46374 0.0
C1995 C 0.37212 0.989 0.74497 0.0
C1996 C 0.38118 1.0346 0.74277 0.0
C1997 C 0.34824 0.96099 0.73348 0.0
C1998 C 0.33011 0.97368 0.71807 0.0
H1999 H 0.38464 0.97373 0.75567 0.0
H2000 H 0.34461 0.92726 0.73681 0.0
S2001 S 0.34067 0.08981 0.70543 0.0
N2002 N 0.36654 0.08993 0.72273 0.0
N2003 N 0.32383 1.03954 0.70244 0.0
C2004 C 0.33865 1.01919 0.71573 0.0
C2005 C 0.36302 1.0479 0.72742 0.0
C2006 C 0.35533 0.13751 0.98096 0.0
C2007 C 0.33676 0.12173 0.99589 0.0
C2008 C 0.37931 0.11135 0.96876 0.0
C2009 C 0.38786 0.06504 0.96961 0.0
H2010 H 0.35145 0.17185 0.97848 0.0
H2011 H 0.39225 0.12858 0.95858 0.0
S2012 S 0.3452 1.00271 1.00487 0.0
N2013 N 0.32948 0.05265 1.00938 0.0
N2014 N 0.37154 1.00578 0.98773 0.0
C2015 C 0.36907 1.04889 0.98439 0.0
C2016 C 0.34496 0.07559 0.99682 0.0
C2017 C 0.22931 0.06838 0.22409 0.0
C2018 C 0.22926 0.07033 0.24148 0.0
C2019 C 0.25651 0.09456 0.213 0.0
C2020 C 0.2873 0.12745 0.21777 0.0
H2021 H 0.20731 1.04526 0.21867 0.0
H2022 H 0.25242 0.08897 0.20036 0.0
S2023 S 0.30047 0.15164 0.26155 0.0
N2024 N 0.26442 0.11201 0.26209 0.0
N2025 N 0.31209 0.15985 0.24257 0.0
C2026 C 0.28676 0.13017 0.23514 0.0
C2027 C 0.25955 0.10298 0.24639 0.0
C2028 C 0.8852 0.09302 0.72544 0.0
C2029 C 0.87228 0.07539 0.74083 0.0
C2030 C 0.85752 0.11818 0.71415 0.0
C2031 C 0.81219 0.12919 0.71661 0.0
H2032 H 0.91886 0.08805 0.722 0.0
H2033 H 0.87287 0.13016 0.70341 0.0
S2034 S 0.75673 0.09089 0.75409 0.0
N2035 N 0.80675 0.07186 0.75681 0.0
N2036 N 0.75673 0.11682 0.73682 0.0
C2037 C 0.79865 0.11152 0.73195 0.0
C2038 C 0.82706 0.08585 0.74343 0.0
C2039 C 0.7453 0.09186 0.49674 0.0
C2040 C 0.77004 0.12983 0.49247 0.0
C2041 C 0.72028 0.06445 0.48536 0.0
C2042 C 0.7165 0.07006 0.46812 0.0
H2043 H 0.74488 0.08263 0.50918 0.0
H2044 H 0.70311 1.03732 0.49051 0.0
S2045 S 0.77488 0.16359 0.44934 0.0
N2046 N 0.78753 0.16986 0.46834 0.0
N2047 N 0.74342 0.12019 0.44823 0.0
C2048 C 0.7414 0.1077 0.4637 0.0
C2049 C 0.76649 0.13605 0.47526 0.0
C2050 C 0.78774 0.96978 0.23448 0.0
C2051 C 0.78371 0.96925 0.21714 0.0
C2052 C 0.76114 0.99546 0.24597 0.0
C2053 C 0.72603 1.02455 0.24166 0.0
H2054 H 0.81261 0.94913 0.23963 0.0
H2055 H 0.76851 0.99186 0.25851 0.0
S2056 S 0.69692 1.03849 0.19833 0.0
N2057 N 0.73802 1.00354 0.19715 0.0
N2058 N 0.68982 1.04904 0.21745 0.0
C2059 C 0.72145 1.02433 0.22437 0.0
C2060 C 0.74881 0.99831 0.21271 0.0
C2061 C 0.79288 0.98544 0.97423 0.0
C2062 C 0.80435 0.97198 0.99039 0.0
C2063 C 0.82011 1.01126 0.963 0.0
C2064 C 0.86338 1.02737 0.96638 0.0
H2065 H 0.76109 0.9757 0.96993 0.0
H2066 H 0.80638 1.01863 0.95142 0.0
S2067 S 0.91419 1.00222 1.00631 0.0
N2068 N 0.86606 0.97877 1.00817 0.0
N2069 N 0.91514 1.02417 0.98835 0.0
C2070 C 0.8752 1.01394 0.98251 0.0
C2071 C 0.84731 0.98788 0.9939 0.0
C2072 C 0.75278 0.54467 0.98347 0.0
C2073 C 0.74092 0.53478 0.96704 0.0
C2074 C 0.77684 0.51596 0.99478 0.0
C2075 C 0.79259 0.47277 0.99117 0.0
H2076 H 0.74322 0.57632 0.98789 0.0
H2077 H 0.78335 0.52852 1.00658 0.0
S2078 S 0.7706 0.42588 0.95054 0.0
N2079 N 0.74803 0.47451 0.94881 0.0
N2080 N 0.79133 0.42303 0.96871 0.0
C2081 C 0.78092 0.46259 0.97477 0.0
C2082 C 0.75633 0.49186 0.96333 0.0
C2083 C 0.83729 0.46869 0.23265 0.0
C2084 C 0.82311 0.48184 0.21675 0.0
C2085 C 0.86274 0.49496 0.24422 0.0
C2086 C 0.87728 0.53892 0.24161 0.0
H2087 H 0.82845 0.43625 0.23642 0.0
H2088 H 0.87175 0.47968 0.25538 0.0
S2089 S 0.84722 0.59469 0.20312 0.0
N2090 N 0.82573 0.54621 0.20033 0.0
N2091 N 0.8708 0.59377 0.22086 0.0
C2092 C 0.86245 0.55277 0.22587 0.0
C2093 C 0.83672 0.52579 0.21408 0.0
C2094 C 0.8852 0.55883 0.48463 0.0
C2095 C 0.88902 0.56371 0.46738 0.0
C2096 C 0.85872 0.58595 0.49572 0.0
C2097 C 0.83212 0.62266 0.49108 0.0
H2098 H 0.9037 0.53274 0.48999 0.0
H2099 H 0.85958 0.5776 0.50824 0.0
S2100 S 0.82864 0.65522 0.44777 0.0
N2101 N 0.86131 0.61234 0.44707 0.0
N2102 N 0.81467 0.66153 0.46663 0.0
C2103 C 0.83596 0.62819 0.47386 0.0
C2104 C 0.8627 0.60024 0.4626 0.0
C2105 C 0.72123 0.58655 0.72538 0.0
C2106 C 0.73362 0.56986 0.74101 0.0
C2107 C 0.74895 0.61145 0.71411 0.0
C2108 C 0.79388 0.62323 0.71683 0.0
H2109 H 0.68792 0.58104 0.72171 0.0
H2110 H 0.73391 0.6226 0.70316 0.0
S2111 S 0.84793 0.58782 0.75509 0.0
N2112 N 0.79827 0.56826 0.75754 0.0
N2113 N 0.84835 0.61267 0.73761 0.0
C2114 C 0.8069 0.60651 0.73242 0.0
C2115 C 0.77843 0.58111 0.74388 0.0
C2116 C 0.38228 0.56562 0.22346 0.0
C2117 C 0.38273 0.5677 0.24083 0.0
C2118 C 0.35425 0.59137 0.21244 0.0
C2119 C 0.32268 0.62365 0.2173 0.0
H2120 H 0.40455 0.5426 0.21798 0.0
H2121 H 0.35813 0.58579 0.19979 0.0
S2122 S 0.30874 0.64703 0.26108 0.0
N2123 N 0.34631 0.60834 0.26156 0.0
N2124 N 0.2968 0.65537 0.24211 0.0
C2125 C 0.3233 0.62644 0.23465 0.0
C2126 C 0.35156 0.59978 0.24584 0.0
C2127 C 0.24895 0.6325 0.97752 0.0
C2128 C 0.26267 0.62057 0.99361 0.0
C2129 C 0.22451 0.60523 0.96598 0.0
C2130 C 0.21045 0.56126 0.96882 0.0
H2131 H 0.25771 0.66473 0.9735 0.0
H2132 H 0.21607 0.61969 0.95463 0.0
S2133 S 0.23923 0.50795 1.00791 0.0
N2134 N 0.26008 0.55687 1.01048 0.0
N2135 N 0.21637 0.50772 0.99005 0.0
C2136 C 0.22448 0.54856 0.98479 0.0
C2137 C 0.24938 0.57654 0.99655 0.0
C2138 C 0.25188 0.46493 0.73193 0.0
C2139 C 0.27291 0.47916 0.71728 0.0
C2140 C 0.22789 0.49242 0.74357 0.0
C2141 C 0.22192 0.53882 0.74234 0.0
H2142 H 0.25344 0.43049 0.73453 0.0
H2143 H 0.21287 0.47624 0.7536 0.0
S2144 S 0.27178 0.59778 0.70754 0.0
N2145 N 0.28588 0.54703 0.70357 0.0
N2146 N 0.24307 0.5967 0.72422 0.0
C2147 C 0.24316 0.5537 0.7278 0.0
C2148 C 0.26754 0.52547 0.71593 0.0
C2149 C 0.34787 0.50641 0.49396 0.0
C2150 C 0.30728 0.48535 0.48995 0.0
C2151 C 0.37607 0.53073 0.48262 0.0
C2152 C 0.36879 0.53757 0.46561 0.0
H2153 H 0.35908 0.50359 0.50615 0.0
H2154 H 0.40552 0.54444 0.48752 0.0
S2155 S 0.2666 0.49369 0.44763 0.0
N2156 N 0.26199 0.47719 0.46631 0.0
N2157 N 0.31313 0.52021 0.44632 0.0
C2158 C 0.32818 0.51733 0.46146 0.0
C2159 C 0.2991 0.49266 0.47299 0.0
C2160 C 0.15187 1.0176 0.36695 0.0
C2161 C 0.15013 0.06231 0.37189 0.0
C2162 C 0.15078 1.00291 0.35036 0.0
C2163 C 0.14741 1.03117 0.33676 0.0
H2164 H 0.15441 0.99296 0.37612 0.0
H2165 H 0.15266 0.96825 0.34821 0.0
S2166 S 0.14252 0.15196 0.34186 0.0
N2167 N 0.14546 0.13467 0.36047 0.0
N2168 N 0.14302 0.10811 0.33048 0.0
C2169 C 0.1457 0.07596 0.34153 0.0
C2170 C 0.14713 0.09093 0.35842 0.0
C2171 C 0.26704 0.89581 0.60894 0.0
C2172 C 0.29465 0.89642 0.62282 0.0
C2173 C 0.28283 0.89419 0.59241 0.0
C2174 C 0.32812 0.89447 0.58767 0.0
H2175 H 0.23204 0.89579 0.6108 0.0
H2176 H 0.25846 0.89313 0.58306 0.0
S2177 S 0.41651 0.89695 0.61847 0.0
N2178 N 0.37184 0.89688 0.62952 0.0
N2179 N 0.40013 0.89615 0.59971 0.0
C2180 C 0.35604 0.89584 0.60141 0.0
C2181 C 0.34001 0.89617 0.61826 0.0
C2182 C 0.46866 1.0241 0.84244 0.0
C2183 C 0.46444 0.06899 0.83765 0.0
C2184 C 0.46857 1.00837 0.85902 0.0
C2185 C 0.4657 1.03568 0.87292 0.0
H2186 H 0.47161 0.99997 0.83312 0.0
H2187 H 0.47153 0.97365 0.8609 0.0
S2188 S 0.45404 0.15644 0.86843 0.0
N2189 N 0.4563 0.14022 0.84969 0.0
N2190 N 0.45831 0.11218 0.87953 0.0
C2191 C 0.46193 0.08066 0.8683 0.0
C2192 C 0.46073 0.09654 0.85142 0.0
C2193 C 0.34262 0.1964 1.091 0.0
C2194 C 0.29762 0.19908 1.08597 0.0
C2195 C 0.35736 0.19651 0.10772 0.0
C2196 C 0.32884 0.2 0.12132 0.0
H2197 H 0.36737 0.19381 1.08184 0.0
H2198 H 0.39215 0.19419 0.10993 0.0
S2199 S 0.20752 0.20766 0.11596 0.0
N2200 N 0.22507 0.20471 1.0974 0.0
N2201 N 0.25153 0.206 0.12735 0.0
C2202 C 0.28396 0.20285 0.11638 0.0
C2203 C 0.26902 0.2021 1.09947 0.0
C2204 C 0.93897 1.00944 0.84916 0.0
C2205 C 0.94293 1.0373 0.83549 0.0
C2206 C 0.938 1.02454 0.86573 0.0
C2207 C 0.93934 0.06938 0.87064 0.0
H2208 H 0.93727 0.97474 0.8471 0.0
H2209 H 0.93569 1.00004 0.87495 0.0
S2210 S 0.94894 0.15817 0.84041 0.0
N2211 N 0.94856 0.1141 0.82915 0.0
N2212 N 0.94471 0.14137 0.85905 0.0
C2213 C 0.94262 0.09765 0.8571 0.0
C2214 C 0.94489 0.08221 0.84023 0.0
C2215 C 0.81969 0.21311 0.61678 0.0
C2216 C 0.77473 0.20918 0.62159 0.0
C2217 C 0.83521 0.21281 0.60026 0.0
C2218 C 0.80758 0.20997 0.58644 0.0
H2219 H 0.84406 0.21605 0.62607 0.0
H2220 H 0.87008 0.21541 0.59833 0.0
S2221 S 0.68642 0.19855 0.591 0.0
N2222 N 0.70291 0.20115 0.60973 0.0
N2223 N 0.73071 0.20253 0.57983 0.0
C2224 C 0.76244 0.20633 0.59103 0.0
C2225 C 0.74672 0.20546 0.60792 0.0
C2226 C 0.6376 0.07314 0.36723 0.0
C2227 C 0.64306 1.02875 0.37236 0.0
C2228 C 0.63819 0.08784 0.35058 0.0
C2229 C 0.64282 0.05978 0.33697 0.0
H2230 H 0.63328 0.09769 0.37633 0.0
H2231 H 0.63433 0.12234 0.34839 0.0
S2232 S 0.6579 0.93978 0.34242 0.0
N2233 N 0.65404 0.957 0.36101 0.0
N2234 N 0.65303 0.98324 0.33094 0.0
C2235 C 0.64778 1.01523 0.3419 0.0
C2236 C 0.64844 1.00042 0.35889 0.0
C2237 C 0.76838 0.88876 0.11629 0.0
C2238 C 0.81389 0.89144 0.12066 0.0
C2239 C 0.75148 0.88879 1.09986 0.0
C2240 C 0.77811 0.89042 1.08574 0.0
H2241 H 0.7447 0.88694 0.12583 0.0
H2242 H 0.71643 0.88696 1.09829 0.0
S2243 S 0.89998 0.89785 1.08913 0.0
N2244 N 0.88486 0.8966 0.10802 0.0
N2245 N 0.85469 0.89501 1.07844 0.0
C2246 C 0.82368 0.89282 1.08995 0.0
C2247 C 0.84078 0.89376 0.10667 0.0
C2248 C 0.65236 0.59475 0.85759 0.0
C2249 C 0.66014 0.56785 0.87133 0.0
C2250 C 0.65095 0.57891 0.8411 0.0
C2251 C 0.658 0.53444 0.83631 0.0
H2252 H 0.64664 0.6291 0.85955 0.0
H2253 H 0.64435 0.60257 0.83184 0.0
S2254 S 0.68226 0.44855 0.86669 0.0
N2255 N 0.67602 0.49244 0.87784 0.0
N2256 N 0.67475 0.46423 0.84806 0.0
C2257 C 0.66658 0.50735 0.8499 0.0
C2258 C 0.66725 0.52331 0.86671 0.0
C2259 C 0.77809 0.391 1.09149 0.0
C2260 C 0.82303 0.39751 1.08698 0.0
C2261 C 0.76115 0.39282 0.10787 0.0
C2262 C 0.78715 0.40041 0.1219 0.0
H2263 H 0.75482 0.38464 1.08207 0.0
H2264 H 0.72646 0.38777 0.10951 0.0
S2265 S 0.90729 0.42099 0.11815 0.0
N2266 N 0.89274 0.41353 1.09939 0.0
N2267 N 0.86252 0.41543 0.12895 0.0
C2268 C 0.83219 0.40693 0.11759 0.0
C2269 C 0.8493 0.40591 1.10086 0.0
C2270 C 0.96632 0.57455 0.36712 0.0
C2271 C 0.96454 0.52938 0.37168 0.0
C2272 C 0.96506 0.59087 0.35066 0.0
C2273 C 0.96308 0.56395 0.33667 0.0
H2274 H 0.96839 0.59842 0.37656 0.0
H2275 H 0.96628 0.62573 0.34894 0.0
S2276 S 0.95709 0.44273 0.34055 0.0
N2277 N 0.95934 0.45831 0.35937 0.0
N2278 N 0.95889 0.4875 0.32967 0.0
C2279 C 0.9615 0.51869 0.34104 0.0
C2280 C 0.9617 0.50215 0.35783 0.0
C2281 C 0.76985 0.70134 0.60031 0.0
C2282 C 0.7977 0.70063 0.58653 0.0
C2283 C 0.78533 0.7019 0.61687 0.0
C2284 C 0.83049 0.7002 0.62171 0.0
H2285 H 0.73488 0.70221 0.59835 0.0
H2286 H 0.76082 0.70323 0.62615 0.0
S2287 S 0.91942 0.69685 0.59119 0.0
N2288 N 0.87495 0.69848 0.58 0.0
N2289 N 0.90273 0.69726 0.60991 0.0
C2290 C 0.8587 0.69873 0.60807 0.0
C2291 C 0.84298 0.69952 0.59118 0.0
C2292 C 0.45833 0.52187 0.36491 0.0
C2293 C 0.46152 0.56674 0.3696 0.0
C2294 C 0.45994 0.50599 0.34842 0.0
C2295 C 0.46632 0.53273 0.33453 0.0
H2296 H 0.45377 0.49797 0.37422 0.0
H2297 H 0.45628 0.47136 0.3466 0.0
S2298 S 0.47713 0.6534 0.33878 0.0
N2299 N 0.47102 0.63774 0.35749 0.0
N2300 N 0.47572 0.60885 0.32778 0.0
C2301 C 0.47009 0.57769 0.33902 0.0
C2302 C 0.46732 0.59405 0.35583 0.0
C2303 C 0.33622 0.69195 1.09953 0.0
C2304 C 0.30771 0.69605 1.08602 0.0
C2305 C 0.32181 0.69233 0.11613 0.0
C2306 C 0.27706 0.69532 0.12121 0.0
H2307 H 0.37096 0.68898 1.0973 0.0
H2308 H 0.34677 0.68973 0.12524 0.0
S2309 S 0.18658 0.70509 1.09143 0.0
N2310 N 0.2304 0.70313 1.07993 0.0
N2311 N 0.20418 0.70171 0.11002 0.0
C2312 C 0.24802 0.69863 0.10784 0.0
C2313 C 0.26282 0.69953 1.0909 0.0
C2314 C 0.13478 0.59332 0.85139 0.0
C2315 C 0.13755 0.56665 0.83735 0.0
C2316 C 0.13353 0.57672 0.86782 0.0
C2317 C 0.13616 0.5315 0.87227 0.0
H2318 H 0.13291 0.62819 0.84975 0.0
H2319 H 0.13082 0.60041 0.8773 0.0
S2320 S 0.1461 0.44546 0.84097 0.0
N2321 N 0.14351 0.49039 0.83018 0.0
N2322 N 0.14313 0.4607 0.85982 0.0
C2323 C 0.13983 0.50454 0.85837 0.0
C2324 C 0.13999 0.52135 0.84162 0.0
C2325 C 0.31936 0.40878 0.59151 0.0
C2326 C 0.27415 0.40616 0.58678 0.0
C2327 C 0.33524 0.40869 0.60805 0.0
C2328 C 0.30794 0.40501 0.62193 0.0
H2329 H 0.34359 0.41126 0.58217 0.0
H2330 H 0.37016 0.4111 0.6099 0.0
S2331 S 0.18621 0.39846 0.61757 0.0
N2332 N 0.20238 0.40117 0.59882 0.0
N2333 N 0.23096 0.39957 0.62862 0.0
C2334 C 0.26262 0.40235 0.61737 0.0
C2335 C 0.24641 0.40328 0.60052 0.0
loop_
_geom_bond_atom_site_label_1
_geom_bond_atom_site_label_2
_geom_bond_distance
_geom_bond_site_symmetry_2
_ccdc_geom_bond_type
Nd0 C2 2.836 . S
Nd0 O20 2.501 . S
Nd0 O21 2.492 . S
Nd0 O22 2.487 . S
Nd0 O23 2.682 . S
Nd0 O24 2.410 . S
Nd0 O29 2.414 . S
Nd0 O31 2.424 . S
Nd1 C11 2.836 . S
Nd1 O23 2.414 . S
Nd1 O25 2.424 . S
Nd1 O26 2.500 . S
Nd1 O27 2.492 . S
Nd1 O28 2.487 . S
Nd1 O29 2.682 . S
Nd1 O30 2.410 . S
C2 Nd0 2.836 . S
C2 C3 1.498 1_455 S
C2 O20 1.258 . S
C2 O21 1.239 . S
C3 C2 1.498 1_655 S
C3 C4 1.366 . S
C3 C8 1.407 . S
C4 C3 1.366 . S
C4 C5 1.392 . S
C4 H32 0.930 . S
C5 C4 1.392 . S
C5 C6 1.398 . S
C5 H33 0.929 . S
C6 C5 1.398 . S
C6 C7 1.352 . S
C7 C6 1.352 . S
C7 C8 1.384 . S
C7 H34 0.930 . S
C8 C3 1.407 . S
C8 C7 1.384 . S
C8 H35 0.931 1_655 S
C9 O22 1.241 . S
C9 O23 1.273 . S
C10 O24 1.251 . S
C10 O25 1.268 . S
C11 Nd1 2.836 . S
C11 C12 1.498 . S
C11 O26 1.258 . S
C11 O27 1.239 . S
C12 C11 1.498 . S
C12 C13 1.366 . S
C12 C17 1.407 . S
C13 C12 1.366 . S
C13 C14 1.392 . S
C13 H36 0.930 . S
C14 C13 1.392 . S
C14 C15 1.398 . S
C14 H37 0.929 . S
C15 C14 1.398 . S
C15 C16 1.352 . S
C16 C15 1.352 . S
C16 C17 1.384 . S
C16 H38 0.930 . S
C17 C12 1.407 . S
C17 C16 1.384 . S
C17 H39 0.929 . S
C18 O28 1.241 . S
C18 O29 1.273 . S
C19 O30 1.251 . S
C19 O31 1.268 . S
O20 Nd0 2.501 . S
O20 C2 1.258 . S
O21 Nd0 2.492 . S
O21 C2 1.239 . S
O22 Nd0 2.487 . S
O22 C9 1.241 . S
O23 Nd0 2.682 . S
O23 Nd1 2.414 . S
O23 C9 1.273 . S
O24 Nd0 2.410 . S
O24 C10 1.251 . S
O25 Nd1 2.424 . S
O25 C10 1.268 . S
O26 Nd1 2.500 . S
O26 C11 1.258 . S
O27 Nd1 2.492 . S
O27 C11 1.239 . S
O28 Nd1 2.487 . S
O28 C18 1.241 . S
O29 Nd0 2.414 . S
O29 Nd1 2.682 . S
O29 C18 1.273 . S
O30 Nd1 2.410 . S
O30 C19 1.251 . S
O31 Nd0 2.424 . S
O31 C19 1.268 . S
H32 C4 0.930 . S
H33 C5 0.929 . S
H34 C7 0.930 . S
H35 C8 0.931 1_455 S
H36 C13 0.930 . S
H37 C14 0.929 . S
H38 C16 0.930 . S
H39 C17 0.929 . S
Nd40 C42 2.836 . S
Nd40 O60 2.500 . S
Nd40 O61 2.492 . S
Nd40 O62 2.487 . S
Nd40 O63 2.682 . S
Nd40 O64 2.410 . S
Nd40 O69 2.414 . S
Nd40 O71 2.424 . S
Nd41 C51 2.836 . S
Nd41 O63 2.414 . S
Nd41 O65 2.424 . S
Nd41 O66 2.500 . S
Nd41 O67 2.492 . S
Nd41 O68 2.487 . S
Nd41 O69 2.682 . S
Nd41 O70 2.410 . S
C42 Nd40 2.836 . S
C42 C43 1.498 . S
C42 O60 1.258 . S
C42 O61 1.239 . S
C43 C42 1.498 . S
C43 C44 1.366 . S
C43 C48 1.407 . S
C44 C43 1.366 . S
C44 C45 1.392 . S
C44 H72 0.930 . S
C45 C44 1.392 . S
C45 C46 1.398 . S
C45 H73 0.929 . S
C46 C45 1.398 . S
C46 C47 1.352 . S
C47 C46 1.352 . S
C47 C48 1.384 . S
C47 H74 0.930 . S
C48 C43 1.407 . S
C48 C47 1.384 . S
C48 H75 0.929 . S
C49 O62 1.241 . S
C49 O63 1.273 . S
C50 O64 1.251 . S
C50 O65 1.268 . S
C51 Nd41 2.836 . S
C51 C52 1.498 . S
C51 O66 1.258 . S
C51 O67 1.239 . S
C52 C51 1.498 . S
C52 C53 1.366 . S
C52 C57 1.407 . S
C53 C52 1.366 . S
C53 C54 1.392 1_565 S
C53 H76 0.930 . S
C54 C53 1.392 1_545 S
C54 C55 1.398 . S
C54 H77 0.929 . S
C55 C54 1.398 . S
C55 C56 1.352 1_545 S
C56 C55 1.352 1_565 S
C56 C57 1.384 . S
C56 H78 0.930 . S
C57 C52 1.407 . S
C57 C56 1.384 . S
C57 H79 0.929 . S
C58 O68 1.241 . S
C58 O69 1.273 . S
C59 O70 1.251 . S
C59 O71 1.268 . S
O60 Nd40 2.500 . S
O60 C42 1.258 . S
O61 Nd40 2.492 . S
O61 C42 1.239 . S
O62 Nd40 2.487 . S
O62 C49 1.241 . S
O63 Nd40 2.682 . S
O63 Nd41 2.414 . S
O63 C49 1.273 . S
O64 Nd40 2.410 . S
O64 C50 1.251 . S
O65 Nd41 2.424 . S
O65 C50 1.268 . S
O66 Nd41 2.500 . S
O66 C51 1.258 . S
O67 Nd41 2.492 . S
O67 C51 1.239 . S
O68 Nd41 2.487 . S
O68 C58 1.241 . S
O69 Nd40 2.414 . S
O69 Nd41 2.682 . S
O69 C58 1.273 . S
O70 Nd41 2.410 . S
O70 C59 1.251 . S
O71 Nd40 2.424 . S
O71 C59 1.268 . S
H72 C44 0.930 . S
H73 C45 0.929 . S
H74 C47 0.930 . S
H75 C48 0.929 . S
H76 C53 0.930 . S
H77 C54 0.929 . S
H78 C56 0.930 . S
H79 C57 0.929 . S
Nd80 C82 2.836 . S
Nd80 O100 2.500 . S
Nd80 O101 2.492 . S
Nd80 O102 2.487 . S
Nd80 O103 2.682 . S
Nd80 O104 2.410 . S
Nd80 O109 2.414 . S
Nd80 O111 2.424 . S
Nd81 C91 2.836 . S
Nd81 O103 2.414 . S
Nd81 O105 2.424 . S
Nd81 O106 2.500 . S
Nd81 O107 2.492 . S
Nd81 O108 2.487 . S
Nd81 O109 2.682 . S
Nd81 O110 2.410 . S
C82 Nd80 2.836 . S
C82 C83 1.498 . S
C82 O100 1.258 . S
C82 O101 1.239 . S
C83 C82 1.498 . S
C83 C84 1.366 . S
C83 C88 1.407 . S
C84 C83 1.366 . S
C84 C85 1.392 . S
C84 H112 0.930 . S
C85 C84 1.392 . S
C85 C86 1.398 . S
C85 H113 0.929 . S
C86 C85 1.398 . S
C86 C87 1.352 . S
C87 C86 1.352 . S
C87 C88 1.384 . S
C87 H114 0.930 . S
C88 C83 1.407 . S
C88 C87 1.384 . S
C88 H115 0.929 . S
C89 O102 1.241 . S
C89 O103 1.273 . S
C90 O104 1.251 . S
C90 O105 1.268 . S
C91 Nd81 2.836 . S
C91 C92 1.498 . S
C91 O106 1.258 . S
C91 O107 1.239 . S
C92 C91 1.498 . S
C92 C93 1.366 . S
C92 C97 1.407 . S
C93 C92 1.366 . S
C93 C94 1.392 . S
C93 H116 0.930 . S
C94 C93 1.392 . S
C94 C95 1.398 . S
C94 H117 0.929 . S
C95 C94 1.398 . S
C95 C96 1.352 . S
C96 C95 1.352 . S
C96 C97 1.384 . S
C96 H118 0.930 . S
C97 C92 1.407 . S
C97 C96 1.384 . S
C97 H119 0.929 . S
C98 O108 1.241 . S
C98 O109 1.273 . S
C99 O110 1.251 . S
C99 O111 1.268 . S
O100 Nd80 2.500 . S
O100 C82 1.258 . S
O101 Nd80 2.492 . S
O101 C82 1.239 . S
O102 Nd80 2.487 . S
O102 C89 1.241 . S
O103 Nd80 2.682 . S
O103 Nd81 2.414 . S
O103 C89 1.273 . S
O104 Nd80 2.410 . S
O104 C90 1.251 . S
O105 Nd81 2.424 . S
O105 C90 1.268 . S
O106 Nd81 2.500 . S
O106 C91 1.258 . S
O107 Nd81 2.492 . S
O107 C91 1.239 . S
O108 Nd81 2.487 . S
O108 C98 1.241 . S
O109 Nd80 2.414 . S
O109 Nd81 2.682 . S
O109 C98 1.273 . S
O110 Nd81 2.410 . S
O110 C99 1.251 . S
O111 Nd80 2.424 . S
O111 C99 1.268 . S
H112 C84 0.930 . S
H113 C85 0.929 . S
H114 C87 0.930 . S
H115 C88 0.929 . S
H116 C93 0.930 . S
H117 C94 0.929 . S
H118 C96 0.930 . S
H119 C97 0.929 . S
Nd120 C122 2.836 . S
Nd120 O140 2.500 . S
Nd120 O141 2.492 . S
Nd120 O142 2.487 . S
Nd120 O143 2.682 . S
Nd120 O144 2.410 . S
Nd120 O149 2.414 . S
Nd120 O151 2.424 . S
Nd121 C131 2.836 . S
Nd121 O143 2.414 . S
Nd121 O145 2.424 . S
Nd121 O146 2.500 . S
Nd121 O147 2.492 . S
Nd121 O148 2.487 . S
Nd121 O149 2.682 . S
Nd121 O150 2.410 . S
C122 Nd120 2.836 . S
C122 C123 1.498 . S
C122 O140 1.258 . S
C122 O141 1.239 . S
C123 C122 1.498 . S
C123 C124 1.366 . S
C123 C128 1.407 . S
C124 C123 1.366 . S
C124 C125 1.392 . S
C124 H152 0.930 . S
C125 C124 1.392 . S
C125 C126 1.398 . S
C125 H153 0.929 . S
C126 C125 1.398 . S
C126 C127 1.352 . S
C127 C126 1.352 . S
C127 C128 1.384 . S
C127 H154 0.930 . S
C128 C123 1.407 . S
C128 C127 1.384 . S
C128 H155 0.929 . S
C129 O142 1.241 . S
C129 O143 1.273 . S
C130 O144 1.251 . S
C130 O145 1.268 . S
C131 Nd121 2.836 . S
C131 C132 1.498 . S
C131 O146 1.258 . S
C131 O147 1.239 . S
C132 C131 1.498 . S
C132 C133 1.366 . S
C132 C137 1.407 . S
C133 C132 1.366 . S
C133 C134 1.392 1_545 S
C133 H156 0.930 . S
C134 C133 1.392 1_565 S
C134 C135 1.398 . S
C134 H157 0.929 . S
C135 C134 1.398 . S
C135 C136 1.352 1_565 S
C136 C135 1.352 1_545 S
C136 C137 1.384 . S
C136 H158 0.930 . S
C137 C132 1.407 . S
C137 C136 1.384 . S
C137 H159 0.929 . S
C138 O148 1.241 . S
C138 O149 1.273 . S
C139 O150 1.251 . S
C139 O151 1.268 . S
O140 Nd120 2.500 . S
O140 C122 1.258 . S
O141 Nd120 2.492 . S
O141 C122 1.239 . S
O142 Nd120 2.487 . S
O142 C129 1.241 . S
O143 Nd120 2.682 . S
O143 Nd121 2.414 . S
O143 C129 1.273 . S
O144 Nd120 2.410 . S
O144 C130 1.251 . S
O145 Nd121 2.424 . S
O145 C130 1.268 . S
O146 Nd121 2.500 . S
O146 C131 1.258 . S
O147 Nd121 2.492 . S
O147 C131 1.239 . S
O148 Nd121 2.487 . S
O148 C138 1.241 . S
O149 Nd120 2.414 . S
O149 Nd121 2.682 . S
O149 C138 1.273 . S
O150 Nd121 2.410 . S
O150 C139 1.251 . S
O151 Nd120 2.424 . S
O151 C139 1.268 . S
H152 C124 0.930 . S
H153 C125 0.929 . S
H154 C127 0.930 . S
H155 C128 0.929 . S
H156 C133 0.930 . S
H157 C134 0.929 . S
H158 C136 0.930 . S
H159 C137 0.929 . S
Nd160 C162 2.836 . S
Nd160 O180 2.501 . S
Nd160 O181 2.492 . S
Nd160 O182 2.487 . S
Nd160 O183 2.682 . S
Nd160 O184 2.410 . S
Nd160 O189 2.414 . S
Nd160 O191 2.424 . S
Nd161 C171 2.836 . S
Nd161 O183 2.414 . S
Nd161 O185 2.424 . S
Nd161 O186 2.500 . S
Nd161 O187 2.492 . S
Nd161 O188 2.487 . S
Nd161 O189 2.682 . S
Nd161 O190 2.410 . S
C162 Nd160 2.836 . S
C162 C163 1.498 1_455 S
C162 O180 1.258 . S
C162 O181 1.239 . S
C163 C162 1.498 1_655 S
C163 C164 1.366 . S
C163 C168 1.407 . S
C164 C163 1.366 . S
C164 C165 1.392 . S
C164 H192 0.930 . S
C165 C164 1.392 . S
C165 C166 1.398 . S
C165 H193 0.929 . S
C166 C165 1.398 . S
C166 C167 1.352 . S
C167 C166 1.352 . S
C167 C168 1.384 . S
C167 H194 0.930 . S
C168 C163 1.407 . S
C168 C167 1.384 . S
C168 H195 0.931 1_655 S
C169 O182 1.241 . S
C169 O183 1.273 . S
C170 O184 1.251 . S
C170 O185 1.268 . S
C171 Nd161 2.836 . S
C171 C172 1.498 . S
C171 O186 1.258 . S
C171 O187 1.239 . S
C172 C171 1.498 . S
C172 C173 1.366 . S
C172 C177 1.407 . S
C173 C172 1.366 . S
C173 C174 1.392 . S
C173 H196 0.930 . S
C174 C173 1.392 . S
C174 C175 1.398 . S
C174 H197 0.929 . S
C175 C174 1.398 . S
C175 C176 1.352 . S
C176 C175 1.352 . S
C176 C177 1.384 . S
C176 H198 0.930 . S
C177 C172 1.407 . S
C177 C176 1.384 . S
C177 H199 0.929 . S
C178 O188 1.241 . S
C178 O189 1.273 . S
C179 O190 1.251 . S
C179 O191 1.268 . S
O180 Nd160 2.501 . S
O180 C162 1.258 . S
O181 Nd160 2.492 . S
O181 C162 1.239 . S
O182 Nd160 2.487 . S
O182 C169 1.241 . S
O183 Nd160 2.682 . S
O183 Nd161 2.414 . S
O183 C169 1.273 . S
O184 Nd160 2.410 . S
O184 C170 1.251 . S
O185 Nd161 2.424 . S
O185 C170 1.268 . S
O186 Nd161 2.500 . S
O186 C171 1.258 . S
O187 Nd161 2.492 . S
O187 C171 1.239 . S
O188 Nd161 2.487 . S
O188 C178 1.241 . S
O189 Nd160 2.414 . S
O189 Nd161 2.682 . S
O189 C178 1.273 . S
O190 Nd161 2.410 . S
O190 C179 1.251 . S
O191 Nd160 2.424 . S
O191 C179 1.268 . S
H192 C164 0.930 . S
H193 C165 0.929 . S
H194 C167 0.930 . S
H195 C168 0.931 1_455 S
H196 C173 0.930 . S
H197 C174 0.929 . S
H198 C176 0.930 . S
H199 C177 0.929 . S
Nd200 C202 2.836 . S
Nd200 O220 2.500 . S
Nd200 O221 2.492 . S
Nd200 O222 2.487 . S
Nd200 O223 2.682 . S
Nd200 O224 2.410 . S
Nd200 O229 2.414 . S
Nd200 O231 2.424 . S
Nd201 C211 2.836 . S
Nd201 O223 2.414 . S
Nd201 O225 2.424 . S
Nd201 O226 2.500 . S
Nd201 O227 2.492 . S
Nd201 O228 2.487 . S
Nd201 O229 2.682 . S
Nd201 O230 2.410 . S
C202 Nd200 2.836 . S
C202 C203 1.498 . S
C202 O220 1.258 . S
C202 O221 1.239 . S
C203 C202 1.498 . S
C203 C204 1.366 . S
C203 C208 1.407 . S
C204 C203 1.366 . S
C204 C205 1.392 . S
C204 H232 0.930 . S
C205 C204 1.392 . S
C205 C206 1.398 . S
C205 H233 0.929 . S
C206 C205 1.398 . S
C206 C207 1.352 . S
C207 C206 1.352 . S
C207 C208 1.384 . S
C207 H234 0.930 . S
C208 C203 1.407 . S
C208 C207 1.384 . S
C208 H235 0.929 . S
C209 O222 1.241 . S
C209 O223 1.273 . S
C210 O224 1.251 . S
C210 O225 1.268 . S
C211 Nd201 2.836 . S
C211 C212 1.498 . S
C211 O226 1.258 . S
C211 O227 1.239 . S
C212 C211 1.498 . S
C212 C213 1.366 . S
C212 C217 1.407 . S
C213 C212 1.366 . S
C213 C214 1.392 1_565 S
C213 H236 0.930 . S
C214 C213 1.392 1_545 S
C214 C215 1.398 . S
C214 H237 0.929 . S
C215 C214 1.398 . S
C215 C216 1.352 1_545 S
C216 C215 1.352 1_565 S
C216 C217 1.384 . S
C216 H238 0.930 . S
C217 C212 1.407 . S
C217 C216 1.384 . S
C217 H239 0.929 . S
C218 O228 1.241 . S
C218 O229 1.273 . S
C219 O230 1.251 . S
C219 O231 1.268 . S
O220 Nd200 2.500 . S
O220 C202 1.258 . S
O221 Nd200 2.492 . S
O221 C202 1.239 . S
O222 Nd200 2.487 . S
O222 C209 1.241 . S
O223 Nd200 2.682 . S
O223 Nd201 2.414 . S
O223 C209 1.273 . S
O224 Nd200 2.410 . S
O224 C210 1.251 . S
O225 Nd201 2.424 . S
O225 C210 1.268 . S
O226 Nd201 2.500 . S
O226 C211 1.258 . S
O227 Nd201 2.492 . S
O227 C211 1.239 . S
O228 Nd201 2.487 . S
O228 C218 1.241 . S
O229 Nd200 2.414 . S
O229 Nd201 2.682 . S
O229 C218 1.273 . S
O230 Nd201 2.410 . S
O230 C219 1.251 . S
O231 Nd200 2.424 . S
O231 C219 1.268 . S
H232 C204 0.930 . S
H233 C205 0.929 . S
H234 C207 0.930 . S
H235 C208 0.929 . S
H236 C213 0.930 . S
H237 C214 0.929 . S
H238 C216 0.930 . S
H239 C217 0.929 . S
Nd240 C242 2.836 . S
Nd240 O260 2.500 . S
Nd240 O261 2.492 . S
Nd240 O262 2.487 . S
Nd240 O263 2.682 . S
Nd240 O264 2.410 . S
Nd240 O269 2.414 . S
Nd240 O271 2.424 . S
Nd241 C251 2.836 . S
Nd241 O263 2.414 . S
Nd241 O265 2.424 . S
Nd241 O266 2.500 . S
Nd241 O267 2.492 . S
Nd241 O268 2.487 . S
Nd241 O269 2.682 . S
Nd241 O270 2.410 . S
C242 Nd240 2.836 . S
C242 C243 1.498 . S
C242 O260 1.258 . S
C242 O261 1.239 . S
C243 C242 1.498 . S
C243 C244 1.366 . S
C243 C248 1.407 . S
C244 C243 1.366 . S
C244 C245 1.392 . S
C244 H272 0.930 . S
C245 C244 1.392 . S
C245 C246 1.398 . S
C245 H273 0.929 . S
C246 C245 1.398 . S
C246 C247 1.352 . S
C247 C246 1.352 . S
C247 C248 1.384 . S
C247 H274 0.930 . S
C248 C243 1.407 . S
C248 C247 1.384 . S
C248 H275 0.929 . S
C249 O262 1.241 . S
C249 O263 1.273 . S
C250 O264 1.251 . S
C250 O265 1.268 . S
C251 Nd241 2.836 . S
C251 C252 1.498 . S
C251 O266 1.258 . S
C251 O267 1.239 . S
C252 C251 1.498 . S
C252 C253 1.366 . S
C252 C257 1.407 . S
C253 C252 1.366 . S
C253 C254 1.392 . S
C253 H276 0.930 . S
C254 C253 1.392 . S
C254 C255 1.398 . S
C254 H277 0.929 . S
C255 C254 1.398 . S
C255 C256 1.352 . S
C256 C255 1.352 . S
C256 C257 1.384 . S
C256 H278 0.930 . S
C257 C252 1.407 . S
C257 C256 1.384 . S
C257 H279 0.929 . S
C258 O268 1.241 . S
C258 O269 1.273 . S
C259 O270 1.251 . S
C259 O271 1.268 . S
O260 Nd240 2.500 . S
O260 C242 1.258 . S
O261 Nd240 2.492 . S
O261 C242 1.239 . S
O262 Nd240 2.487 . S
O262 C249 1.241 . S
O263 Nd240 2.682 . S
O263 Nd241 2.414 . S
O263 C249 1.273 . S
O264 Nd240 2.410 . S
O264 C250 1.251 . S
O265 Nd241 2.424 . S
O265 C250 1.268 . S
O266 Nd241 2.500 . S
O266 C251 1.258 . S
O267 Nd241 2.492 . S
O267 C251 1.239 . S
O268 Nd241 2.487 . S
O268 C258 1.241 . S
O269 Nd240 2.414 . S
O269 Nd241 2.682 . S
O269 C258 1.273 . S
O270 Nd241 2.410 . S
O270 C259 1.251 . S
O271 Nd240 2.424 . S
O271 C259 1.268 . S
H272 C244 0.930 . S
H273 C245 0.929 . S
H274 C247 0.930 . S
H275 C248 0.929 . S
H276 C253 0.930 . S
H277 C254 0.929 . S
H278 C256 0.930 . S
H279 C257 0.929 . S
Nd280 C282 2.836 . S
Nd280 O300 2.500 . S
Nd280 O301 2.492 . S
Nd280 O302 2.487 . S
Nd280 O303 2.682 . S
Nd280 O304 2.410 . S
Nd280 O309 2.414 . S
Nd280 O311 2.424 . S
Nd281 C291 2.836 . S
Nd281 O303 2.414 . S
Nd281 O305 2.424 . S
Nd281 O306 2.500 . S
Nd281 O307 2.492 . S
Nd281 O308 2.487 . S
Nd281 O309 2.682 . S
Nd281 O310 2.410 . S
C282 Nd280 2.836 . S
C282 C283 1.498 . S
C282 O300 1.258 . S
C282 O301 1.239 . S
C283 C282 1.498 . S
C283 C284 1.366 . S
C283 C288 1.407 . S
C284 C283 1.366 . S
C284 C285 1.392 . S
C284 H312 0.930 . S
C285 C284 1.392 . S
C285 C286 1.398 . S
C285 H313 0.929 . S
C286 C285 1.398 . S
C286 C287 1.352 . S
C287 C286 1.352 . S
C287 C288 1.384 . S
C287 H314 0.930 . S
C288 C283 1.407 . S
C288 C287 1.384 . S
C288 H315 0.929 . S
C289 O302 1.241 . S
C289 O303 1.273 . S
C290 O304 1.251 . S
C290 O305 1.268 . S
C291 Nd281 2.836 . S
C291 C292 1.498 . S
C291 O306 1.258 . S
C291 O307 1.239 . S
C292 C291 1.498 . S
C292 C293 1.366 . S
C292 C297 1.407 . S
C293 C292 1.366 . S
C293 C294 1.392 1_545 S
C293 H316 0.930 . S
C294 C293 1.392 1_565 S
C294 C295 1.398 . S
C294 H317 0.929 . S
C295 C294 1.398 . S
C295 C296 1.352 1_565 S
C296 C295 1.352 1_545 S
C296 C297 1.384 . S
C296 H318 0.930 . S
C297 C292 1.407 . S
C297 C296 1.384 . S
C297 H319 0.929 . S
C298 O308 1.241 . S
C298 O309 1.273 . S
C299 O310 1.251 . S
C299 O311 1.268 . S
O300 Nd280 2.500 . S
O300 C282 1.258 . S
O301 Nd280 2.492 . S
O301 C282 1.239 . S
O302 Nd280 2.487 . S
O302 C289 1.241 . S
O303 Nd280 2.682 . S
O303 Nd281 2.414 . S
O303 C289 1.273 . S
O304 Nd280 2.410 . S
O304 C290 1.251 . S
O305 Nd281 2.424 . S
O305 C290 1.268 . S
O306 Nd281 2.500 . S
O306 C291 1.258 . S
O307 Nd281 2.492 . S
O307 C291 1.239 . S
O308 Nd281 2.487 . S
O308 C298 1.241 . S
O309 Nd280 2.414 . S
O309 Nd281 2.682 . S
O309 C298 1.273 . S
O310 Nd281 2.410 . S
O310 C299 1.251 . S
O311 Nd280 2.424 . S
O311 C299 1.268 . S
H312 C284 0.930 . S
H313 C285 0.929 . S
H314 C287 0.930 . S
H315 C288 0.929 . S
H316 C293 0.930 . S
H317 C294 0.929 . S
H318 C296 0.930 . S
H319 C297 0.929 . S
Nd320 C322 2.836 . S
Nd320 O340 2.500 . S
Nd320 O341 2.492 . S
Nd320 O342 2.487 . S
Nd320 O343 2.682 . S
Nd320 O344 2.410 . S
Nd320 O349 2.414 . S
Nd320 O351 2.424 . S
Nd321 C331 2.836 . S
Nd321 O343 2.414 . S
Nd321 O345 2.424 . S
Nd321 O346 2.501 . S
Nd321 O347 2.492 . S
Nd321 O348 2.487 . S
Nd321 O349 2.682 . S
Nd321 O350 2.410 . S
C322 Nd320 2.836 . S
C322 C323 1.498 . S
C322 O340 1.258 . S
C322 O341 1.239 . S
C323 C322 1.498 . S
C323 C324 1.366 . S
C323 C328 1.407 . S
C324 C323 1.366 . S
C324 C325 1.392 . S
C324 H352 0.930 . S
C325 C324 1.392 . S
C325 C326 1.398 . S
C325 H353 0.929 . S
C326 C325 1.398 . S
C326 C327 1.352 . S
C327 C326 1.352 . S
C327 C328 1.384 . S
C327 H354 0.930 . S
C328 C323 1.407 . S
C328 C327 1.384 . S
C328 H355 0.929 . S
C329 O342 1.241 . S
C329 O343 1.273 . S
C330 O344 1.251 . S
C330 O345 1.268 . S
C331 Nd321 2.836 . S
C331 C332 1.498 1_655 S
C331 O346 1.258 . S
C331 O347 1.239 . S
C332 C331 1.498 1_455 S
C332 C333 1.366 . S
C332 C337 1.407 . S
C333 C332 1.366 . S
C333 C334 1.392 . S
C333 H356 0.930 . S
C334 C333 1.392 . S
C334 C335 1.398 . S
C334 H357 0.929 . S
C335 C334 1.398 . S
C335 C336 1.352 . S
C336 C335 1.352 . S
C336 C337 1.384 . S
C336 H358 0.930 . S
C337 C332 1.407 . S
C337 C336 1.384 . S
C337 H359 0.931 1_455 S
C338 O348 1.241 . S
C338 O349 1.273 . S
C339 O350 1.251 . S
C339 O351 1.268 . S
O340 Nd320 2.500 . S
O340 C322 1.258 . S
O341 Nd320 2.492 . S
O341 C322 1.239 . S
O342 Nd320 2.487 . S
O342 C329 1.241 . S
O343 Nd320 2.682 . S
O343 Nd321 2.414 . S
O343 C329 1.273 . S
O344 Nd320 2.410 . S
O344 C330 1.251 . S
O345 Nd321 2.424 . S
O345 C330 1.268 . S
O346 Nd321 2.501 . S
O346 C331 1.258 . S
O347 Nd321 2.492 . S
O347 C331 1.239 . S
O348 Nd321 2.487 . S
O348 C338 1.241 . S
O349 Nd320 2.414 . S
O349 Nd321 2.682 . S
O349 C338 1.273 . S
O350 Nd321 2.410 . S
O350 C339 1.251 . S
O351 Nd320 2.424 . S
O351 C339 1.268 . S
H352 C324 0.930 . S
H353 C325 0.929 . S
H354 C327 0.930 . S
H355 C328 0.929 . S
H356 C333 0.930 . S
H357 C334 0.929 . S
H358 C336 0.930 . S
H359 C337 0.931 1_655 S
Nd360 C362 2.836 . S
Nd360 O380 2.500 . S
Nd360 O381 2.492 . S
Nd360 O382 2.487 . S
Nd360 O383 2.682 . S
Nd360 O384 2.410 . S
Nd360 O389 2.414 . S
Nd360 O391 2.424 . S
Nd361 C371 2.836 . S
Nd361 O383 2.414 . S
Nd361 O385 2.424 . S
Nd361 O386 2.500 . S
Nd361 O387 2.492 . S
Nd361 O388 2.487 . S
Nd361 O389 2.682 . S
Nd361 O390 2.410 . S
C362 Nd360 2.836 . S
C362 C363 1.498 . S
C362 O380 1.258 . S
C362 O381 1.239 . S
C363 C362 1.498 . S
C363 C364 1.366 . S
C363 C368 1.407 . S
C364 C363 1.366 . S
C364 C365 1.392 1_545 S
C364 H392 0.930 . S
C365 C364 1.392 1_565 S
C365 C366 1.398 . S
C365 H393 0.929 . S
C366 C365 1.398 . S
C366 C367 1.352 1_565 S
C367 C366 1.352 1_545 S
C367 C368 1.384 . S
C367 H394 0.930 . S
C368 C363 1.407 . S
C368 C367 1.384 . S
C368 H395 0.929 . S
C369 O382 1.241 . S
C369 O383 1.273 . S
C370 O384 1.251 . S
C370 O385 1.268 . S
C371 Nd361 2.836 . S
C371 C372 1.498 . S
C371 O386 1.258 . S
C371 O387 1.239 . S
C372 C371 1.498 . S
C372 C373 1.366 . S
C372 C377 1.407 . S
C373 C372 1.366 . S
C373 C374 1.392 . S
C373 H396 0.930 . S
C374 C373 1.392 . S
C374 C375 1.398 . S
C374 H397 0.929 . S
C375 C374 1.398 . S
C375 C376 1.352 . S
C376 C375 1.352 . S
C376 C377 1.384 . S
C376 H398 0.930 . S
C377 C372 1.407 . S
C377 C376 1.384 . S
C377 H399 0.929 . S
C378 O388 1.241 . S
C378 O389 1.273 . S
C379 O390 1.251 . S
C379 O391 1.268 . S
O380 Nd360 2.500 . S
O380 C362 1.258 . S
O381 Nd360 2.492 . S
O381 C362 1.239 . S
O382 Nd360 2.487 . S
O382 C369 1.241 . S
O383 Nd360 2.682 . S
O383 Nd361 2.414 . S
O383 C369 1.273 . S
O384 Nd360 2.410 . S
O384 C370 1.251 . S
O385 Nd361 2.424 . S
O385 C370 1.268 . S
O386 Nd361 2.500 . S
O386 C371 1.258 . S
O387 Nd361 2.492 . S
O387 C371 1.239 . S
O388 Nd361 2.487 . S
O388 C378 1.241 . S
O389 Nd360 2.414 . S
O389 Nd361 2.682 . S
O389 C378 1.273 . S
O390 Nd361 2.410 . S
O390 C379 1.251 . S
O391 Nd360 2.424 . S
O391 C379 1.268 . S
H392 C364 0.930 . S
H393 C365 0.929 . S
H394 C367 0.930 . S
H395 C368 0.929 . S
H396 C373 0.930 . S
H397 C374 0.929 . S
H398 C376 0.930 . S
H399 C377 0.929 . S
Nd400 C402 2.836 . S
Nd400 O420 2.500 . S
Nd400 O421 2.492 . S
Nd400 O422 2.487 . S
Nd400 O423 2.682 . S
Nd400 O424 2.410 . S
Nd400 O429 2.414 . S
Nd400 O431 2.424 . S
Nd401 C411 2.836 . S
Nd401 O423 2.414 . S
Nd401 O425 2.424 . S
Nd401 O426 2.500 . S
Nd401 O427 2.492 . S
Nd401 O428 2.487 . S
Nd401 O429 2.682 . S
Nd401 O430 2.410 . S
C402 Nd400 2.836 . S
C402 C403 1.498 . S
C402 O420 1.258 . S
C402 O421 1.239 . S
C403 C402 1.498 . S
C403 C404 1.366 . S
C403 C408 1.407 . S
C404 C403 1.366 . S
C404 C405 1.392 . S
C404 H432 0.930 . S
C405 C404 1.392 . S
C405 C406 1.398 . S
C405 H433 0.929 . S
C406 C405 1.398 . S
C406 C407 1.352 . S
C407 C406 1.352 . S
C407 C408 1.384 . S
C407 H434 0.930 . S
C408 C403 1.407 . S
C408 C407 1.384 . S
C408 H435 0.929 . S
C409 O422 1.241 . S
C409 O423 1.273 . S
C410 O424 1.251 . S
C410 O425 1.268 . S
C411 Nd401 2.836 . S
C411 C412 1.498 . S
C411 O426 1.258 . S
C411 O427 1.239 . S
C412 C411 1.498 . S
C412 C413 1.366 . S
C412 C417 1.407 . S
C413 C412 1.366 . S
C413 C414 1.392 . S
C413 H436 0.930 . S
C414 C413 1.392 . S
C414 C415 1.398 . S
C414 H437 0.929 . S
C415 C414 1.398 . S
C415 C416 1.352 . S
C416 C415 1.352 . S
C416 C417 1.384 . S
C416 H438 0.930 . S
C417 C412 1.407 . S
C417 C416 1.384 . S
C417 H439 0.929 . S
C418 O428 1.241 . S
C418 O429 1.273 . S
C419 O430 1.251 . S
C419 O431 1.268 . S
O420 Nd400 2.500 . S
O420 C402 1.258 . S
O421 Nd400 2.492 . S
O421 C402 1.239 . S
O422 Nd400 2.487 . S
O422 C409 1.241 . S
O423 Nd400 2.682 . S
O423 Nd401 2.414 . S
O423 C409 1.273 . S
O424 Nd400 2.410 . S
O424 C410 1.251 . S
O425 Nd401 2.424 . S
O425 C410 1.268 . S
O426 Nd401 2.500 . S
O426 C411 1.258 . S
O427 Nd401 2.492 . S
O427 C411 1.239 . S
O428 Nd401 2.487 . S
O428 C418 1.241 . S
O429 Nd400 2.414 . S
O429 Nd401 2.682 . S
O429 C418 1.273 . S
O430 Nd401 2.410 . S
O430 C419 1.251 . S
O431 Nd400 2.424 . S
O431 C419 1.268 . S
H432 C404 0.930 . S
H433 C405 0.929 . S
H434 C407 0.930 . S
H435 C408 0.929 . S
H436 C413 0.930 . S
H437 C414 0.929 . S
H438 C416 0.930 . S
H439 C417 0.929 . S
Nd440 C442 2.836 . S
Nd440 O460 2.500 . S
Nd440 O461 2.492 . S
Nd440 O462 2.487 . S
Nd440 O463 2.682 . S
Nd440 O464 2.410 . S
Nd440 O469 2.414 . S
Nd440 O471 2.424 . S
Nd441 C451 2.836 . S
Nd441 O463 2.414 . S
Nd441 O465 2.424 . S
Nd441 O466 2.500 . S
Nd441 O467 2.492 . S
Nd441 O468 2.487 . S
Nd441 O469 2.682 . S
Nd441 O470 2.410 . S
C442 Nd440 2.836 . S
C442 C443 1.498 . S
C442 O460 1.258 . S
C442 O461 1.239 . S
C443 C442 1.498 . S
C443 C444 1.366 . S
C443 C448 1.407 . S
C444 C443 1.366 . S
C444 C445 1.392 1_565 S
C444 H472 0.930 . S
C445 C444 1.392 1_545 S
C445 C446 1.398 . S
C445 H473 0.929 . S
C446 C445 1.398 . S
C446 C447 1.352 1_545 S
C447 C446 1.352 1_565 S
C447 C448 1.384 . S
C447 H474 0.930 . S
C448 C443 1.407 . S
C448 C447 1.384 . S
C448 H475 0.929 . S
C449 O462 1.241 . S
C449 O463 1.273 . S
C450 O464 1.251 . S
C450 O465 1.268 . S
C451 Nd441 2.836 . S
C451 C452 1.498 . S
C451 O466 1.258 . S
C451 O467 1.239 . S
C452 C451 1.498 . S
C452 C453 1.366 . S
C452 C457 1.407 . S
C453 C452 1.366 . S
C453 C454 1.392 . S
C453 H476 0.930 . S
C454 C453 1.392 . S
C454 C455 1.398 . S
C454 H477 0.929 . S
C455 C454 1.398 . S
C455 C456 1.352 . S
C456 C455 1.352 . S
C456 C457 1.384 . S
C456 H478 0.930 . S
C457 C452 1.407 . S
C457 C456 1.384 . S
C457 H479 0.929 . S
C458 O468 1.241 . S
C458 O469 1.273 . S
C459 O470 1.251 . S
C459 O471 1.268 . S
O460 Nd440 2.500 . S
O460 C442 1.258 . S
O461 Nd440 2.492 . S
O461 C442 1.239 . S
O462 Nd440 2.487 . S
O462 C449 1.241 . S
O463 Nd440 2.682 . S
O463 Nd441 2.414 . S
O463 C449 1.273 . S
O464 Nd440 2.410 . S
O464 C450 1.251 . S
O465 Nd441 2.424 . S
O465 C450 1.268 . S
O466 Nd441 2.500 . S
O466 C451 1.258 . S
O467 Nd441 2.492 . S
O467 C451 1.239 . S
O468 Nd441 2.487 . S
O468 C458 1.241 . S
O469 Nd440 2.414 . S
O469 Nd441 2.682 . S
O469 C458 1.273 . S
O470 Nd441 2.410 . S
O470 C459 1.251 . S
O471 Nd440 2.424 . S
O471 C459 1.268 . S
H472 C444 0.930 . S
H473 C445 0.929 . S
H474 C447 0.930 . S
H475 C448 0.929 . S
H476 C453 0.930 . S
H477 C454 0.929 . S
H478 C456 0.930 . S
H479 C457 0.929 . S
Nd480 C482 2.836 . S
Nd480 O500 2.500 . S
Nd480 O501 2.492 . S
Nd480 O502 2.487 . S
Nd480 O503 2.682 . S
Nd480 O504 2.410 . S
Nd480 O509 2.414 . S
Nd480 O511 2.424 . S
Nd481 C491 2.836 . S
Nd481 O503 2.414 . S
Nd481 O505 2.424 . S
Nd481 O506 2.501 . S
Nd481 O507 2.492 . S
Nd481 O508 2.487 . S
Nd481 O509 2.682 . S
Nd481 O510 2.410 . S
C482 Nd480 2.836 . S
C482 C483 1.498 . S
C482 O500 1.258 . S
C482 O501 1.239 . S
C483 C482 1.498 . S
C483 C484 1.366 . S
C483 C488 1.407 . S
C484 C483 1.366 . S
C484 C485 1.392 . S
C484 H512 0.930 . S
C485 C484 1.392 . S
C485 C486 1.398 . S
C485 H513 0.929 . S
C486 C485 1.398 . S
C486 C487 1.352 . S
C487 C486 1.352 . S
C487 C488 1.384 . S
C487 H514 0.930 . S
C488 C483 1.407 . S
C488 C487 1.384 . S
C488 H515 0.929 . S
C489 O502 1.241 . S
C489 O503 1.273 . S
C490 O504 1.251 . S
C490 O505 1.268 . S
C491 Nd481 2.836 . S
C491 C492 1.498 1_655 S
C491 O506 1.258 . S
C491 O507 1.239 . S
C492 C491 1.498 1_455 S
C492 C493 1.366 . S
C492 C497 1.407 . S
C493 C492 1.366 . S
C493 C494 1.392 . S
C493 H516 0.930 . S
C494 C493 1.392 . S
C494 C495 1.398 . S
C494 H517 0.929 . S
C495 C494 1.398 . S
C495 C496 1.352 . S
C496 C495 1.352 . S
C496 C497 1.384 . S
C496 H518 0.930 . S
C497 C492 1.407 . S
C497 C496 1.384 . S
C497 H519 0.931 1_455 S
C498 O508 1.241 . S
C498 O509 1.273 . S
C499 O510 1.251 . S
C499 O511 1.268 . S
O500 Nd480 2.500 . S
O500 C482 1.258 . S
O501 Nd480 2.492 . S
O501 C482 1.239 . S
O502 Nd480 2.487 . S
O502 C489 1.241 . S
O503 Nd480 2.682 . S
O503 Nd481 2.414 . S
O503 C489 1.273 . S
O504 Nd480 2.410 . S
O504 C490 1.251 . S
O505 Nd481 2.424 . S
O505 C490 1.268 . S
O506 Nd481 2.501 . S
O506 C491 1.258 . S
O507 Nd481 2.492 . S
O507 C491 1.239 . S
O508 Nd481 2.487 . S
O508 C498 1.241 . S
O509 Nd480 2.414 . S
O509 Nd481 2.682 . S
O509 C498 1.273 . S
O510 Nd481 2.410 . S
O510 C499 1.251 . S
O511 Nd480 2.424 . S
O511 C499 1.268 . S
H512 C484 0.930 . S
H513 C485 0.929 . S
H514 C487 0.930 . S
H515 C488 0.929 . S
H516 C493 0.930 . S
H517 C494 0.929 . S
H518 C496 0.930 . S
H519 C497 0.931 1_655 S
Nd520 C522 2.836 . S
Nd520 O540 2.500 . S
Nd520 O541 2.492 . S
Nd520 O542 2.487 . S
Nd520 O543 2.682 . S
Nd520 O544 2.410 . S
Nd520 O549 2.414 . S
Nd520 O551 2.424 . S
Nd521 C531 2.836 . S
Nd521 O543 2.414 . S
Nd521 O545 2.424 . S
Nd521 O546 2.500 . S
Nd521 O547 2.492 . S
Nd521 O548 2.487 . S
Nd521 O549 2.682 . S
Nd521 O550 2.410 . S
C522 Nd520 2.836 . S
C522 C523 1.498 . S
C522 O540 1.258 . S
C522 O541 1.239 . S
C523 C522 1.498 . S
C523 C524 1.366 . S
C523 C528 1.407 . S
C524 C523 1.366 . S
C524 C525 1.392 1_545 S
C524 H552 0.930 . S
C525 C524 1.392 1_565 S
C525 C526 1.398 . S
C525 H553 0.929 . S
C526 C525 1.398 . S
C526 C527 1.352 1_565 S
C527 C526 1.352 1_545 S
C527 C528 1.384 . S
C527 H554 0.930 . S
C528 C523 1.407 . S
C528 C527 1.384 . S
C528 H555 0.929 . S
C529 O542 1.241 . S
C529 O543 1.273 . S
C530 O544 1.251 . S
C530 O545 1.268 . S
C531 Nd521 2.836 . S
C531 C532 1.498 . S
C531 O546 1.258 . S
C531 O547 1.239 . S
C532 C531 1.498 . S
C532 C533 1.366 . S
C532 C537 1.407 . S
C533 C532 1.366 . S
C533 C534 1.392 . S
C533 H556 0.930 . S
C534 C533 1.392 . S
C534 C535 1.398 . S
C534 H557 0.929 . S
C535 C534 1.398 . S
C535 C536 1.352 . S
C536 C535 1.352 . S
C536 C537 1.384 . S
C536 H558 0.930 . S
C537 C532 1.407 . S
C537 C536 1.384 . S
C537 H559 0.929 . S
C538 O548 1.241 . S
C538 O549 1.273 . S
C539 O550 1.251 . S
C539 O551 1.268 . S
O540 Nd520 2.500 . S
O540 C522 1.258 . S
O541 Nd520 2.492 . S
O541 C522 1.239 . S
O542 Nd520 2.487 . S
O542 C529 1.241 . S
O543 Nd520 2.682 . S
O543 Nd521 2.414 . S
O543 C529 1.273 . S
O544 Nd520 2.410 . S
O544 C530 1.251 . S
O545 Nd521 2.424 . S
O545 C530 1.268 . S
O546 Nd521 2.500 . S
O546 C531 1.258 . S
O547 Nd521 2.492 . S
O547 C531 1.239 . S
O548 Nd521 2.487 . S
O548 C538 1.241 . S
O549 Nd520 2.414 . S
O549 Nd521 2.682 . S
O549 C538 1.273 . S
O550 Nd521 2.410 . S
O550 C539 1.251 . S
O551 Nd520 2.424 . S
O551 C539 1.268 . S
H552 C524 0.930 . S
H553 C525 0.929 . S
H554 C527 0.930 . S
H555 C528 0.929 . S
H556 C533 0.930 . S
H557 C534 0.929 . S
H558 C536 0.930 . S
H559 C537 0.929 . S
Nd560 C562 2.836 . S
Nd560 O580 2.500 . S
Nd560 O581 2.492 . S
Nd560 O582 2.487 . S
Nd560 O583 2.682 . S
Nd560 O584 2.410 . S
Nd560 O589 2.414 . S
Nd560 O591 2.424 . S
Nd561 C571 2.836 . S
Nd561 O583 2.414 . S
Nd561 O585 2.424 . S
Nd561 O586 2.500 . S
Nd561 O587 2.492 . S
Nd561 O588 2.487 . S
Nd561 O589 2.682 . S
Nd561 O590 2.410 . S
C562 Nd560 2.836 . S
C562 C563 1.498 . S
C562 O580 1.258 . S
C562 O581 1.239 . S
C563 C562 1.498 . S
C563 C564 1.366 . S
C563 C568 1.407 . S
C564 C563 1.366 . S
C564 C565 1.392 . S
C564 H592 0.930 . S
C565 C564 1.392 . S
C565 C566 1.398 . S
C565 H593 0.929 . S
C566 C565 1.398 . S
C566 C567 1.352 . S
C567 C566 1.352 . S
C567 C568 1.384 . S
C567 H594 0.930 . S
C568 C563 1.407 . S
C568 C567 1.384 . S
C568 H595 0.929 . S
C569 O582 1.241 . S
C569 O583 1.273 . S
C570 O584 1.251 . S
C570 O585 1.268 . S
C571 Nd561 2.836 . S
C571 C572 1.498 . S
C571 O586 1.258 . S
C571 O587 1.239 . S
C572 C571 1.498 . S
C572 C573 1.366 . S
C572 C577 1.407 . S
C573 C572 1.366 . S
C573 C574 1.392 . S
C573 H596 0.930 . S
C574 C573 1.392 . S
C574 C575 1.398 . S
C574 H597 0.929 . S
C575 C574 1.398 . S
C575 C576 1.352 . S
C576 C575 1.352 . S
C576 C577 1.384 . S
C576 H598 0.930 . S
C577 C572 1.407 . S
C577 C576 1.384 . S
C577 H599 0.929 . S
C578 O588 1.241 . S
C578 O589 1.273 . S
C579 O590 1.251 . S
C579 O591 1.268 . S
O580 Nd560 2.500 . S
O580 C562 1.258 . S
O581 Nd560 2.492 . S
O581 C562 1.239 . S
O582 Nd560 2.487 . S
O582 C569 1.241 . S
O583 Nd560 2.682 . S
O583 Nd561 2.414 . S
O583 C569 1.273 . S
O584 Nd560 2.410 . S
O584 C570 1.251 . S
O585 Nd561 2.424 . S
O585 C570 1.268 . S
O586 Nd561 2.500 . S
O586 C571 1.258 . S
O587 Nd561 2.492 . S
O587 C571 1.239 . S
O588 Nd561 2.487 . S
O588 C578 1.241 . S
O589 Nd560 2.414 . S
O589 Nd561 2.682 . S
O589 C578 1.273 . S
O590 Nd561 2.410 . S
O590 C579 1.251 . S
O591 Nd560 2.424 . S
O591 C579 1.268 . S
H592 C564 0.930 . S
H593 C565 0.929 . S
H594 C567 0.930 . S
H595 C568 0.929 . S
H596 C573 0.930 . S
H597 C574 0.929 . S
H598 C576 0.930 . S
H599 C577 0.929 . S
Nd600 C602 2.836 . S
Nd600 O620 2.500 . S
Nd600 O621 2.492 . S
Nd600 O622 2.487 . S
Nd600 O623 2.682 . S
Nd600 O624 2.410 . S
Nd600 O629 2.414 . S
Nd600 O631 2.424 . S
Nd601 C611 2.836 . S
Nd601 O623 2.414 . S
Nd601 O625 2.424 . S
Nd601 O626 2.500 . S
Nd601 O627 2.492 . S
Nd601 O628 2.487 . S
Nd601 O629 2.682 . S
Nd601 O630 2.410 . S
C602 Nd600 2.836 . S
C602 C603 1.498 . S
C602 O620 1.258 . S
C602 O621 1.239 . S
C603 C602 1.498 . S
C603 C604 1.366 . S
C603 C608 1.407 . S
C604 C603 1.366 . S
C604 C605 1.392 1_565 S
C604 H632 0.930 . S
C605 C604 1.392 1_545 S
C605 C606 1.398 . S
C605 H633 0.929 . S
C606 C605 1.398 . S
C606 C607 1.352 1_545 S
C607 C606 1.352 1_565 S
C607 C608 1.384 . S
C607 H634 0.930 . S
C608 C603 1.407 . S
C608 C607 1.384 . S
C608 H635 0.929 . S
C609 O622 1.241 . S
C609 O623 1.273 . S
C610 O624 1.251 . S
C610 O625 1.268 . S
C611 Nd601 2.836 . S
C611 C612 1.498 . S
C611 O626 1.258 . S
C611 O627 1.239 . S
C612 C611 1.498 . S
C612 C613 1.366 . S
C612 C617 1.407 . S
C613 C612 1.366 . S
C613 C614 1.392 . S
C613 H636 0.930 . S
C614 C613 1.392 . S
C614 C615 1.398 . S
C614 H637 0.929 . S
C615 C614 1.398 . S
C615 C616 1.352 . S
C616 C615 1.352 . S
C616 C617 1.384 . S
C616 H638 0.930 . S
C617 C612 1.407 . S
C617 C616 1.384 . S
C617 H639 0.929 . S
C618 O628 1.241 . S
C618 O629 1.273 . S
C619 O630 1.251 . S
C619 O631 1.268 . S
O620 Nd600 2.500 . S
O620 C602 1.258 . S
O621 Nd600 2.492 . S
O621 C602 1.239 . S
O622 Nd600 2.487 . S
O622 C609 1.241 . S
O623 Nd600 2.682 . S
O623 Nd601 2.414 . S
O623 C609 1.273 . S
O624 Nd600 2.410 . S
O624 C610 1.251 . S
O625 Nd601 2.424 . S
O625 C610 1.268 . S
O626 Nd601 2.500 . S
O626 C611 1.258 . S
O627 Nd601 2.492 . S
O627 C611 1.239 . S
O628 Nd601 2.487 . S
O628 C618 1.241 . S
O629 Nd600 2.414 . S
O629 Nd601 2.682 . S
O629 C618 1.273 . S
O630 Nd601 2.410 . S
O630 C619 1.251 . S
O631 Nd600 2.424 . S
O631 C619 1.268 . S
H632 C604 0.930 . S
H633 C605 0.929 . S
H634 C607 0.930 . S
H635 C608 0.929 . S
H636 C613 0.930 . S
H637 C614 0.929 . S
H638 C616 0.930 . S
H639 C617 0.929 . S
Nd640 C642 2.836 . S
Nd640 O660 2.500 . S
Nd640 O661 2.492 . S
Nd640 O662 2.487 . S
Nd640 O663 2.682 . S
Nd640 O664 2.410 . S
Nd640 O669 2.414 . S
Nd640 O671 2.424 . S
Nd641 C651 2.836 . S
Nd641 O663 2.414 . S
Nd641 O665 2.424 . S
Nd641 O666 2.500 . S
Nd641 O667 2.492 . S
Nd641 O668 2.487 . S
Nd641 O669 2.682 . S
Nd641 O670 2.410 . S
C642 Nd640 2.836 . S
C642 C643 1.498 . S
C642 O660 1.258 . S
C642 O661 1.239 . S
C643 C642 1.498 . S
C643 C644 1.366 . S
C643 C648 1.407 . S
C644 C643 1.366 . S
C644 C645 1.392 . S
C644 H672 0.930 . S
C645 C644 1.392 . S
C645 C646 1.398 . S
C645 H673 0.929 . S
C646 C645 1.398 . S
C646 C647 1.352 . S
C647 C646 1.352 . S
C647 C648 1.384 . S
C647 H674 0.930 . S
C648 C643 1.407 . S
C648 C647 1.384 . S
C648 H675 0.929 . S
C649 O662 1.241 . S
C649 O663 1.273 . S
C650 O664 1.251 . S
C650 O665 1.268 . S
C651 Nd641 2.836 . S
C651 C652 1.498 . S
C651 O666 1.258 . S
C651 O667 1.239 . S
C652 C651 1.498 . S
C652 C653 1.366 . S
C652 C657 1.407 . S
C653 C652 1.366 . S
C653 C654 1.392 . S
C653 H676 0.930 . S
C654 C653 1.392 . S
C654 C655 1.398 . S
C654 H677 0.929 . S
C655 C654 1.398 . S
C655 C656 1.352 . S
C656 C655 1.352 . S
C656 C657 1.384 . S
C656 H678 0.930 . S
C657 C652 1.407 . S
C657 C656 1.384 . S
C657 H679 0.929 . S
C658 O668 1.241 . S
C658 O669 1.273 . S
C659 O670 1.251 . S
C659 O671 1.268 . S
O660 Nd640 2.500 . S
O660 C642 1.258 . S
O661 Nd640 2.492 . S
O661 C642 1.239 . S
O662 Nd640 2.487 . S
O662 C649 1.241 . S
O663 Nd640 2.682 . S
O663 Nd641 2.414 . S
O663 C649 1.273 . S
O664 Nd640 2.410 . S
O664 C650 1.251 . S
O665 Nd641 2.424 . S
O665 C650 1.268 . S
O666 Nd641 2.500 . S
O666 C651 1.258 . S
O667 Nd641 2.492 . S
O667 C651 1.239 . S
O668 Nd641 2.487 . S
O668 C658 1.241 . S
O669 Nd640 2.414 . S
O669 Nd641 2.682 . S
O669 C658 1.273 . S
O670 Nd641 2.410 . S
O670 C659 1.251 . S
O671 Nd640 2.424 . S
O671 C659 1.268 . S
H672 C644 0.930 . S
H673 C645 0.929 . S
H674 C647 0.930 . S
H675 C648 0.929 . S
H676 C653 0.930 . S
H677 C654 0.929 . S
H678 C656 0.930 . S
H679 C657 0.929 . S
Nd680 C682 2.836 . S
Nd680 O700 2.500 . S
Nd680 O701 2.492 . S
Nd680 O702 2.487 . S
Nd680 O703 2.682 . S
Nd680 O704 2.410 . S
Nd680 O709 2.414 . S
Nd680 O711 2.424 . S
Nd681 C691 2.836 . S
Nd681 O703 2.414 . S
Nd681 O705 2.424 . S
Nd681 O706 2.500 . S
Nd681 O707 2.492 . S
Nd681 O708 2.487 . S
Nd681 O709 2.682 . S
Nd681 O710 2.410 . S
C682 Nd680 2.836 . S
C682 C683 1.498 . S
C682 O700 1.258 . S
C682 O701 1.239 . S
C683 C682 1.498 . S
C683 C684 1.366 . S
C683 C688 1.407 . S
C684 C683 1.366 . S
C684 C685 1.392 . S
C684 H712 0.930 . S
C685 C684 1.392 . S
C685 C686 1.398 . S
C685 H713 0.929 . S
C686 C685 1.398 . S
C686 C687 1.352 . S
C687 C686 1.352 . S
C687 C688 1.384 . S
C687 H714 0.930 . S
C688 C683 1.407 . S
C688 C687 1.384 . S
C688 H715 0.929 . S
C689 O702 1.241 . S
C689 O703 1.273 . S
C690 O704 1.251 . S
C690 O705 1.268 . S
C691 Nd681 2.836 . S
C691 C692 1.498 . S
C691 O706 1.258 . S
C691 O707 1.239 . S
C692 C691 1.498 . S
C692 C693 1.366 . S
C692 C697 1.407 . S
C693 C692 1.366 . S
C693 C694 1.392 . S
C693 H716 0.930 . S
C694 C693 1.392 . S
C694 C695 1.398 . S
C694 H717 0.929 . S
C695 C694 1.398 . S
C695 C696 1.352 . S
C696 C695 1.352 . S
C696 C697 1.384 . S
C696 H718 0.930 . S
C697 C692 1.407 . S
C697 C696 1.384 . S
C697 H719 0.929 . S
C698 O708 1.241 . S
C698 O709 1.273 . S
C699 O710 1.251 . S
C699 O711 1.268 . S
O700 Nd680 2.500 . S
O700 C682 1.258 . S
O701 Nd680 2.492 . S
O701 C682 1.239 . S
O702 Nd680 2.487 . S
O702 C689 1.241 . S
O703 Nd680 2.682 . S
O703 Nd681 2.414 . S
O703 C689 1.273 . S
O704 Nd680 2.410 . S
O704 C690 1.251 . S
O705 Nd681 2.424 . S
O705 C690 1.268 . S
O706 Nd681 2.500 . S
O706 C691 1.258 . S
O707 Nd681 2.492 . S
O707 C691 1.239 . S
O708 Nd681 2.487 . S
O708 C698 1.241 . S
O709 Nd680 2.414 . S
O709 Nd681 2.682 . S
O709 C698 1.273 . S
O710 Nd681 2.410 . S
O710 C699 1.251 . S
O711 Nd680 2.424 . S
O711 C699 1.268 . S
H712 C684 0.930 . S
H713 C685 0.929 . S
H714 C687 0.930 . S
H715 C688 0.929 . S
H716 C693 0.930 . S
H717 C694 0.929 . S
H718 C696 0.930 . S
H719 C697 0.929 . S
Nd720 C722 2.836 . S
Nd720 O740 2.502 . S
Nd720 O741 2.492 . S
Nd720 O742 2.487 . S
Nd720 O743 2.682 . S
Nd720 O744 2.410 . S
Nd720 O749 2.414 . S
Nd720 O751 2.424 . S
Nd721 C731 2.836 . S
Nd721 O743 2.414 . S
Nd721 O745 2.424 . S
Nd721 O746 2.500 . S
Nd721 O747 2.492 . S
Nd721 O748 2.487 . S
Nd721 O749 2.682 . S
Nd721 O750 2.410 . S
C722 Nd720 2.836 . S
C722 C723 1.498 1_655 S
C722 O740 1.259 . S
C722 O741 1.239 . S
C723 C722 1.498 1_455 S
C723 C724 1.366 . S
C723 C728 1.407 . S
C724 C723 1.366 . S
C724 C725 1.392 . S
C724 H752 0.930 . S
C725 C724 1.392 . S
C725 C726 1.398 . S
C725 H753 0.929 . S
C726 C725 1.398 . S
C726 C727 1.352 . S
C727 C726 1.352 . S
C727 C728 1.384 . S
C727 H754 0.930 . S
C728 C723 1.407 . S
C728 C727 1.384 . S
C728 H755 0.930 1_455 S
C729 O742 1.241 . S
C729 O743 1.273 . S
C730 O744 1.251 . S
C730 O745 1.268 . S
C731 Nd721 2.836 . S
C731 C732 1.498 . S
C731 O746 1.258 . S
C731 O747 1.239 . S
C732 C731 1.498 . S
C732 C733 1.366 . S
C732 C737 1.407 . S
C733 C732 1.366 . S
C733 C734 1.392 . S
C733 H756 0.930 . S
C734 C733 1.392 . S
C734 C735 1.398 . S
C734 H757 0.929 . S
C735 C734 1.398 . S
C735 C736 1.352 . S
C736 C735 1.352 . S
C736 C737 1.384 . S
C736 H758 0.930 . S
C737 C732 1.407 . S
C737 C736 1.384 . S
C737 H759 0.929 . S
C738 O748 1.241 . S
C738 O749 1.273 . S
C739 O750 1.251 . S
C739 O751 1.268 . S
O740 Nd720 2.502 . S
O740 C722 1.259 . S
O741 Nd720 2.492 . S
O741 C722 1.239 . S
O742 Nd720 2.487 . S
O742 C729 1.241 . S
O743 Nd720 2.682 . S
O743 Nd721 2.414 . S
O743 C729 1.273 . S
O744 Nd720 2.410 . S
O744 C730 1.251 . S
O745 Nd721 2.424 . S
O745 C730 1.268 . S
O746 Nd721 2.500 . S
O746 C731 1.258 . S
O747 Nd721 2.492 . S
O747 C731 1.239 . S
O748 Nd721 2.487 . S
O748 C738 1.241 . S
O749 Nd720 2.414 . S
O749 Nd721 2.682 . S
O749 C738 1.273 . S
O750 Nd721 2.410 . S
O750 C739 1.251 . S
O751 Nd720 2.424 . S
O751 C739 1.268 . S
H752 C724 0.930 . S
H753 C725 0.929 . S
H754 C727 0.930 . S
H755 C728 0.930 1_655 S
H756 C733 0.930 . S
H757 C734 0.929 . S
H758 C736 0.930 . S
H759 C737 0.929 . S
Nd760 C762 2.836 . S
Nd760 O780 2.500 . S
Nd760 O781 2.492 . S
Nd760 O782 2.487 . S
Nd760 O783 2.682 . S
Nd760 O784 2.410 . S
Nd760 O789 2.414 . S
Nd760 O791 2.424 . S
Nd761 C771 2.836 . S
Nd761 O783 2.414 . S
Nd761 O785 2.424 . S
Nd761 O786 2.500 . S
Nd761 O787 2.492 . S
Nd761 O788 2.487 . S
Nd761 O789 2.682 . S
Nd761 O790 2.410 . S
C762 Nd760 2.836 . S
C762 C763 1.498 . S
C762 O780 1.258 . S
C762 O781 1.239 . S
C763 C762 1.498 . S
C763 C764 1.366 . S
C763 C768 1.407 . S
C764 C763 1.366 . S
C764 C765 1.392 . S
C764 H792 0.930 . S
C765 C764 1.392 . S
C765 C766 1.398 . S
C765 H793 0.929 . S
C766 C765 1.398 . S
C766 C767 1.352 . S
C767 C766 1.352 . S
C767 C768 1.384 . S
C767 H794 0.930 . S
C768 C763 1.407 . S
C768 C767 1.384 . S
C768 H795 0.929 . S
C769 O782 1.241 . S
C769 O783 1.273 . S
C770 O784 1.251 . S
C770 O785 1.268 . S
C771 Nd761 2.836 . S
C771 C772 1.498 . S
C771 O786 1.258 . S
C771 O787 1.239 . S
C772 C771 1.498 . S
C772 C773 1.366 . S
C772 C777 1.407 . S
C773 C772 1.366 . S
C773 C774 1.392 . S
C773 H796 0.930 . S
C774 C773 1.392 . S
C774 C775 1.398 . S
C774 H797 0.929 . S
C775 C774 1.398 . S
C775 C776 1.352 . S
C776 C775 1.352 . S
C776 C777 1.384 . S
C776 H798 0.930 . S
C777 C772 1.407 . S
C777 C776 1.384 . S
C777 H799 0.929 . S
C778 O788 1.241 . S
C778 O789 1.273 . S
C779 O790 1.251 . S
C779 O791 1.268 . S
O780 Nd760 2.500 . S
O780 C762 1.258 . S
O781 Nd760 2.492 . S
O781 C762 1.239 . S
O782 Nd760 2.487 . S
O782 C769 1.241 . S
O783 Nd760 2.682 . S
O783 Nd761 2.414 . S
O783 C769 1.273 . S
O784 Nd760 2.410 . S
O784 C770 1.251 . S
O785 Nd761 2.424 . S
O785 C770 1.268 . S
O786 Nd761 2.500 . S
O786 C771 1.258 . S
O787 Nd761 2.492 . S
O787 C771 1.239 . S
O788 Nd761 2.487 . S
O788 C778 1.241 . S
O789 Nd760 2.414 . S
O789 Nd761 2.682 . S
O789 C778 1.273 . S
O790 Nd761 2.410 . S
O790 C779 1.251 . S
O791 Nd760 2.424 . S
O791 C779 1.268 . S
H792 C764 0.930 . S
H793 C765 0.929 . S
H794 C767 0.930 . S
H795 C768 0.929 . S
H796 C773 0.930 . S
H797 C774 0.929 . S
H798 C776 0.930 . S
H799 C777 0.929 . S
Nd800 C802 2.836 . S
Nd800 O820 2.500 . S
Nd800 O821 2.492 . S
Nd800 O822 2.487 . S
Nd800 O823 2.682 . S
Nd800 O824 2.410 . S
Nd800 O829 2.414 . S
Nd800 O831 2.424 . S
Nd801 C811 2.836 . S
Nd801 O823 2.414 . S
Nd801 O825 2.424 . S
Nd801 O826 2.500 . S
Nd801 O827 2.492 . S
Nd801 O828 2.487 . S
Nd801 O829 2.682 . S
Nd801 O830 2.410 . S
C802 Nd800 2.836 . S
C802 C803 1.498 . S
C802 O820 1.258 . S
C802 O821 1.239 . S
C803 C802 1.498 . S
C803 C804 1.366 . S
C803 C808 1.407 . S
C804 C803 1.366 . S
C804 C805 1.392 . S
C804 H832 0.930 . S
C805 C804 1.392 . S
C805 C806 1.398 . S
C805 H833 0.929 . S
C806 C805 1.398 . S
C806 C807 1.352 . S
C807 C806 1.352 . S
C807 C808 1.384 . S
C807 H834 0.930 . S
C808 C803 1.407 . S
C808 C807 1.384 . S
C808 H835 0.929 . S
C809 O822 1.241 . S
C809 O823 1.273 . S
C810 O824 1.251 . S
C810 O825 1.268 . S
C811 Nd801 2.836 . S
C811 C812 1.498 . S
C811 O826 1.258 . S
C811 O827 1.239 . S
C812 C811 1.498 . S
C812 C813 1.366 . S
C812 C817 1.407 . S
C813 C812 1.366 . S
C813 C814 1.392 . S
C813 H836 0.930 . S
C814 C813 1.392 . S
C814 C815 1.398 . S
C814 H837 0.929 . S
C815 C814 1.398 . S
C815 C816 1.352 . S
C816 C815 1.352 . S
C816 C817 1.384 . S
C816 H838 0.930 . S
C817 C812 1.407 . S
C817 C816 1.384 . S
C817 H839 0.929 . S
C818 O828 1.241 . S
C818 O829 1.273 . S
C819 O830 1.251 . S
C819 O831 1.268 . S
O820 Nd800 2.500 . S
O820 C802 1.258 . S
O821 Nd800 2.492 . S
O821 C802 1.239 . S
O822 Nd800 2.487 . S
O822 C809 1.241 . S
O823 Nd800 2.682 . S
O823 Nd801 2.414 . S
O823 C809 1.273 . S
O824 Nd800 2.410 . S
O824 C810 1.251 . S
O825 Nd801 2.424 . S
O825 C810 1.268 . S
O826 Nd801 2.500 . S
O826 C811 1.258 . S
O827 Nd801 2.492 . S
O827 C811 1.239 . S
O828 Nd801 2.487 . S
O828 C818 1.241 . S
O829 Nd800 2.414 . S
O829 Nd801 2.682 . S
O829 C818 1.273 . S
O830 Nd801 2.410 . S
O830 C819 1.251 . S
O831 Nd800 2.424 . S
O831 C819 1.268 . S
H832 C804 0.930 . S
H833 C805 0.929 . S
H834 C807 0.930 . S
H835 C808 0.929 . S
H836 C813 0.930 . S
H837 C814 0.929 . S
H838 C816 0.930 . S
H839 C817 0.929 . S
Nd840 C842 2.836 . S
Nd840 O860 2.500 . S
Nd840 O861 2.492 . S
Nd840 O862 2.487 . S
Nd840 O863 2.682 . S
Nd840 O864 2.410 . S
Nd840 O869 2.414 . S
Nd840 O871 2.424 . S
Nd841 C851 2.836 . S
Nd841 O863 2.414 . S
Nd841 O865 2.424 . S
Nd841 O866 2.500 . S
Nd841 O867 2.492 . S
Nd841 O868 2.487 . S
Nd841 O869 2.682 . S
Nd841 O870 2.410 . S
C842 Nd840 2.836 . S
C842 C843 1.498 . S
C842 O860 1.258 . S
C842 O861 1.239 . S
C843 C842 1.498 . S
C843 C844 1.366 . S
C843 C848 1.407 . S
C844 C843 1.366 . S
C844 C845 1.392 . S
C844 H872 0.930 . S
C845 C844 1.392 . S
C845 C846 1.398 . S
C845 H873 0.929 . S
C846 C845 1.398 . S
C846 C847 1.352 . S
C847 C846 1.352 . S
C847 C848 1.384 . S
C847 H874 0.930 . S
C848 C843 1.407 . S
C848 C847 1.384 . S
C848 H875 0.929 . S
C849 O862 1.241 . S
C849 O863 1.273 . S
C850 O864 1.251 . S
C850 O865 1.268 . S
C851 Nd841 2.836 . S
C851 C852 1.498 . S
C851 O866 1.258 . S
C851 O867 1.239 . S
C852 C851 1.498 . S
C852 C853 1.366 . S
C852 C857 1.407 . S
C853 C852 1.366 . S
C853 C854 1.392 . S
C853 H876 0.930 . S
C854 C853 1.392 . S
C854 C855 1.398 . S
C854 H877 0.929 . S
C855 C854 1.398 . S
C855 C856 1.352 . S
C856 C855 1.352 . S
C856 C857 1.384 . S
C856 H878 0.930 . S
C857 C852 1.407 . S
C857 C856 1.384 . S
C857 H879 0.929 . S
C858 O868 1.241 . S
C858 O869 1.273 . S
C859 O870 1.251 . S
C859 O871 1.268 . S
O860 Nd840 2.500 . S
O860 C842 1.258 . S
O861 Nd840 2.492 . S
O861 C842 1.239 . S
O862 Nd840 2.487 . S
O862 C849 1.241 . S
O863 Nd840 2.682 . S
O863 Nd841 2.414 . S
O863 C849 1.273 . S
O864 Nd840 2.410 . S
O864 C850 1.251 . S
O865 Nd841 2.424 . S
O865 C850 1.268 . S
O866 Nd841 2.500 . S
O866 C851 1.258 . S
O867 Nd841 2.492 . S
O867 C851 1.239 . S
O868 Nd841 2.487 . S
O868 C858 1.241 . S
O869 Nd840 2.414 . S
O869 Nd841 2.682 . S
O869 C858 1.273 . S
O870 Nd841 2.410 . S
O870 C859 1.251 . S
O871 Nd840 2.424 . S
O871 C859 1.268 . S
H872 C844 0.930 . S
H873 C845 0.929 . S
H874 C847 0.930 . S
H875 C848 0.929 . S
H876 C853 0.930 . S
H877 C854 0.929 . S
H878 C856 0.930 . S
H879 C857 0.929 . S
Nd880 C882 2.836 . S
Nd880 O900 2.502 . S
Nd880 O901 2.492 . S
Nd880 O902 2.487 . S
Nd880 O903 2.682 . S
Nd880 O904 2.410 . S
Nd880 O909 2.414 . S
Nd880 O911 2.424 . S
Nd881 C891 2.836 . S
Nd881 O903 2.414 . S
Nd881 O905 2.424 . S
Nd881 O906 2.500 . S
Nd881 O907 2.492 . S
Nd881 O908 2.487 . S
Nd881 O909 2.682 . S
Nd881 O910 2.410 . S
C882 Nd880 2.836 . S
C882 C883 1.498 1_655 S
C882 O900 1.259 . S
C882 O901 1.239 . S
C883 C882 1.498 1_455 S
C883 C884 1.366 . S
C883 C888 1.407 . S
C884 C883 1.366 . S
C884 C885 1.392 . S
C884 H912 0.930 . S
C885 C884 1.392 . S
C885 C886 1.398 . S
C885 H913 0.929 . S
C886 C885 1.398 . S
C886 C887 1.352 . S
C887 C886 1.352 . S
C887 C888 1.384 . S
C887 H914 0.930 . S
C888 C883 1.407 . S
C888 C887 1.384 . S
C888 H915 0.930 1_455 S
C889 O902 1.241 . S
C889 O903 1.273 . S
C890 O904 1.251 . S
C890 O905 1.268 . S
C891 Nd881 2.836 . S
C891 C892 1.498 . S
C891 O906 1.258 . S
C891 O907 1.239 . S
C892 C891 1.498 . S
C892 C893 1.366 . S
C892 C897 1.407 . S
C893 C892 1.366 . S
C893 C894 1.392 . S
C893 H916 0.930 . S
C894 C893 1.392 . S
C894 C895 1.398 . S
C894 H917 0.929 . S
C895 C894 1.398 . S
C895 C896 1.352 . S
C896 C895 1.352 . S
C896 C897 1.384 . S
C896 H918 0.930 . S
C897 C892 1.407 . S
C897 C896 1.384 . S
C897 H919 0.929 . S
C898 O908 1.241 . S
C898 O909 1.273 . S
C899 O910 1.251 . S
C899 O911 1.268 . S
O900 Nd880 2.502 . S
O900 C882 1.259 . S
O901 Nd880 2.492 . S
O901 C882 1.239 . S
O902 Nd880 2.487 . S
O902 C889 1.241 . S
O903 Nd880 2.682 . S
O903 Nd881 2.414 . S
O903 C889 1.273 . S
O904 Nd880 2.410 . S
O904 C890 1.251 . S
O905 Nd881 2.424 . S
O905 C890 1.268 . S
O906 Nd881 2.500 . S
O906 C891 1.258 . S
O907 Nd881 2.492 . S
O907 C891 1.239 . S
O908 Nd881 2.487 . S
O908 C898 1.241 . S
O909 Nd880 2.414 . S
O909 Nd881 2.682 . S
O909 C898 1.273 . S
O910 Nd881 2.410 . S
O910 C899 1.251 . S
O911 Nd880 2.424 . S
O911 C899 1.268 . S
H912 C884 0.930 . S
H913 C885 0.929 . S
H914 C887 0.930 . S
H915 C888 0.930 1_655 S
H916 C893 0.930 . S
H917 C894 0.929 . S
H918 C896 0.930 . S
H919 C897 0.929 . S
Nd920 C922 2.836 . S
Nd920 O940 2.500 . S
Nd920 O941 2.492 . S
Nd920 O942 2.487 . S
Nd920 O943 2.682 . S
Nd920 O944 2.410 . S
Nd920 O949 2.414 . S
Nd920 O951 2.424 . S
Nd921 C931 2.836 . S
Nd921 O943 2.414 . S
Nd921 O945 2.424 . S
Nd921 O946 2.500 . S
Nd921 O947 2.492 . S
Nd921 O948 2.487 . S
Nd921 O949 2.682 . S
Nd921 O950 2.410 . S
C922 Nd920 2.836 . S
C922 C923 1.498 . S
C922 O940 1.258 . S
C922 O941 1.239 . S
C923 C922 1.498 . S
C923 C924 1.366 . S
C923 C928 1.407 . S
C924 C923 1.366 . S
C924 C925 1.392 . S
C924 H952 0.930 . S
C925 C924 1.392 . S
C925 C926 1.398 . S
C925 H953 0.929 . S
C926 C925 1.398 . S
C926 C927 1.352 . S
C927 C926 1.352 . S
C927 C928 1.384 . S
C927 H954 0.930 . S
C928 C923 1.407 . S
C928 C927 1.384 . S
C928 H955 0.929 . S
C929 O942 1.241 . S
C929 O943 1.273 . S
C930 O944 1.251 . S
C930 O945 1.268 . S
C931 Nd921 2.836 . S
C931 C932 1.498 . S
C931 O946 1.258 . S
C931 O947 1.239 . S
C932 C931 1.498 . S
C932 C933 1.366 . S
C932 C937 1.407 . S
C933 C932 1.366 . S
C933 C934 1.392 . S
C933 H956 0.930 . S
C934 C933 1.392 . S
C934 C935 1.398 . S
C934 H957 0.929 . S
C935 C934 1.398 . S
C935 C936 1.352 . S
C936 C935 1.352 . S
C936 C937 1.384 . S
C936 H958 0.930 . S
C937 C932 1.407 . S
C937 C936 1.384 . S
C937 H959 0.929 . S
C938 O948 1.241 . S
C938 O949 1.273 . S
C939 O950 1.251 . S
C939 O951 1.268 . S
O940 Nd920 2.500 . S
O940 C922 1.258 . S
O941 Nd920 2.492 . S
O941 C922 1.239 . S
O942 Nd920 2.487 . S
O942 C929 1.241 . S
O943 Nd920 2.682 . S
O943 Nd921 2.414 . S
O943 C929 1.273 . S
O944 Nd920 2.410 . S
O944 C930 1.251 . S
O945 Nd921 2.424 . S
O945 C930 1.268 . S
O946 Nd921 2.500 . S
O946 C931 1.258 . S
O947 Nd921 2.492 . S
O947 C931 1.239 . S
O948 Nd921 2.487 . S
O948 C938 1.241 . S
O949 Nd920 2.414 . S
O949 Nd921 2.682 . S
O949 C938 1.273 . S
O950 Nd921 2.410 . S
O950 C939 1.251 . S
O951 Nd920 2.424 . S
O951 C939 1.268 . S
H952 C924 0.930 . S
H953 C925 0.929 . S
H954 C927 0.930 . S
H955 C928 0.929 . S
H956 C933 0.930 . S
H957 C934 0.929 . S
H958 C936 0.930 . S
H959 C937 0.929 . S
Nd960 C962 2.836 . S
Nd960 O980 2.500 . S
Nd960 O981 2.492 . S
Nd960 O982 2.487 . S
Nd960 O983 2.682 . S
Nd960 O984 2.410 . S
Nd960 O989 2.414 . S
Nd960 O991 2.424 . S
Nd961 C971 2.836 . S
Nd961 O983 2.414 . S
Nd961 O985 2.424 . S
Nd961 O986 2.500 . S
Nd961 O987 2.492 . S
Nd961 O988 2.487 . S
Nd961 O989 2.682 . S
Nd961 O990 2.410 . S
C962 Nd960 2.836 . S
C962 C963 1.498 . S
C962 O980 1.258 . S
C962 O981 1.239 . S
C963 C962 1.498 . S
C963 C964 1.366 . S
C963 C968 1.407 . S
C964 C963 1.366 . S
C964 C965 1.392 . S
C964 H992 0.930 . S
C965 C964 1.392 . S
C965 C966 1.398 . S
C965 H993 0.929 . S
C966 C965 1.398 . S
C966 C967 1.352 . S
C967 C966 1.352 . S
C967 C968 1.384 . S
C967 H994 0.930 . S
C968 C963 1.407 . S
C968 C967 1.384 . S
C968 H995 0.929 . S
C969 O982 1.241 . S
C969 O983 1.273 . S
C970 O984 1.251 . S
C970 O985 1.268 . S
C971 Nd961 2.836 . S
C971 C972 1.498 . S
C971 O986 1.258 . S
C971 O987 1.239 . S
C972 C971 1.498 . S
C972 C973 1.366 . S
C972 C977 1.407 . S
C973 C972 1.366 . S
C973 C974 1.392 . S
C973 H996 0.930 . S
C974 C973 1.392 . S
C974 C975 1.398 . S
C974 H997 0.929 . S
C975 C974 1.398 . S
C975 C976 1.352 . S
C976 C975 1.352 . S
C976 C977 1.384 . S
C976 H998 0.930 . S
C977 C972 1.407 . S
C977 C976 1.384 . S
C977 H999 0.929 . S
C978 O988 1.241 . S
C978 O989 1.273 . S
C979 O990 1.251 . S
C979 O991 1.268 . S
O980 Nd960 2.500 . S
O980 C962 1.258 . S
O981 Nd960 2.492 . S
O981 C962 1.239 . S
O982 Nd960 2.487 . S
O982 C969 1.241 . S
O983 Nd960 2.682 . S
O983 Nd961 2.414 . S
O983 C969 1.273 . S
O984 Nd960 2.410 . S
O984 C970 1.251 . S
O985 Nd961 2.424 . S
O985 C970 1.268 . S
O986 Nd961 2.500 . S
O986 C971 1.258 . S
O987 Nd961 2.492 . S
O987 C971 1.239 . S
O988 Nd961 2.487 . S
O988 C978 1.241 . S
O989 Nd960 2.414 . S
O989 Nd961 2.682 . S
O989 C978 1.273 . S
O990 Nd961 2.410 . S
O990 C979 1.251 . S
O991 Nd960 2.424 . S
O991 C979 1.268 . S
H992 C964 0.930 . S
H993 C965 0.929 . S
H994 C967 0.930 . S
H995 C968 0.929 . S
H996 C973 0.930 . S
H997 C974 0.929 . S
H998 C976 0.930 . S
H999 C977 0.929 . S
Nd1000 C1002 2.836 . S
Nd1000 O1020 2.500 . S
Nd1000 O1021 2.492 . S
Nd1000 O1022 2.487 . S
Nd1000 O1023 2.682 . S
Nd1000 O1024 2.410 . S
Nd1000 O1029 2.414 . S
Nd1000 O1031 2.424 . S
Nd1001 C1011 2.836 . S
Nd1001 O1023 2.414 . S
Nd1001 O1025 2.424 . S
Nd1001 O1026 2.500 . S
Nd1001 O1027 2.492 . S
Nd1001 O1028 2.487 . S
Nd1001 O1029 2.682 . S
Nd1001 O1030 2.410 . S
C1002 Nd1000 2.836 . S
C1002 C1003 1.498 . S
C1002 O1020 1.258 . S
C1002 O1021 1.239 . S
C1003 C1002 1.498 . S
C1003 C1004 1.366 . S
C1003 C1008 1.407 . S
C1004 C1003 1.366 . S
C1004 C1005 1.392 . S
C1004 H1032 0.930 . S
C1005 C1004 1.392 . S
C1005 C1006 1.398 . S
C1005 H1033 0.929 . S
C1006 C1005 1.398 . S
C1006 C1007 1.352 . S
C1007 C1006 1.352 . S
C1007 C1008 1.384 . S
C1007 H1034 0.930 . S
C1008 C1003 1.407 . S
C1008 C1007 1.384 . S
C1008 H1035 0.929 . S
C1009 O1022 1.241 . S
C1009 O1023 1.273 . S
C1010 O1024 1.251 . S
C1010 O1025 1.268 . S
C1011 Nd1001 2.836 . S
C1011 C1012 1.498 . S
C1011 O1026 1.258 . S
C1011 O1027 1.239 . S
C1012 C1011 1.498 . S
C1012 C1013 1.366 . S
C1012 C1017 1.407 . S
C1013 C1012 1.366 . S
C1013 C1014 1.392 . S
C1013 H1036 0.930 . S
C1014 C1013 1.392 . S
C1014 C1015 1.398 . S
C1014 H1037 0.929 . S
C1015 C1014 1.398 . S
C1015 C1016 1.352 . S
C1016 C1015 1.352 . S
C1016 C1017 1.384 . S
C1016 H1038 0.930 . S
C1017 C1012 1.407 . S
C1017 C1016 1.384 . S
C1017 H1039 0.929 . S
C1018 O1028 1.241 . S
C1018 O1029 1.273 . S
C1019 O1030 1.251 . S
C1019 O1031 1.268 . S
O1020 Nd1000 2.500 . S
O1020 C1002 1.258 . S
O1021 Nd1000 2.492 . S
O1021 C1002 1.239 . S
O1022 Nd1000 2.487 . S
O1022 C1009 1.241 . S
O1023 Nd1000 2.682 . S
O1023 Nd1001 2.414 . S
O1023 C1009 1.273 . S
O1024 Nd1000 2.410 . S
O1024 C1010 1.251 . S
O1025 Nd1001 2.424 . S
O1025 C1010 1.268 . S
O1026 Nd1001 2.500 . S
O1026 C1011 1.258 . S
O1027 Nd1001 2.492 . S
O1027 C1011 1.239 . S
O1028 Nd1001 2.487 . S
O1028 C1018 1.241 . S
O1029 Nd1000 2.414 . S
O1029 Nd1001 2.682 . S
O1029 C1018 1.273 . S
O1030 Nd1001 2.410 . S
O1030 C1019 1.251 . S
O1031 Nd1000 2.424 . S
O1031 C1019 1.268 . S
H1032 C1004 0.930 . S
H1033 C1005 0.929 . S
H1034 C1007 0.930 . S
H1035 C1008 0.929 . S
H1036 C1013 0.930 . S
H1037 C1014 0.929 . S
H1038 C1016 0.930 . S
H1039 C1017 0.929 . S
Nd1040 C1042 2.836 . S
Nd1040 O1060 2.500 . S
Nd1040 O1061 2.492 . S
Nd1040 O1062 2.487 . S
Nd1040 O1063 2.682 . S
Nd1040 O1064 2.410 . S
Nd1040 O1069 2.414 . S
Nd1040 O1071 2.424 . S
Nd1041 C1051 2.836 . S
Nd1041 O1063 2.414 . S
Nd1041 O1065 2.424 . S
Nd1041 O1066 2.502 . S
Nd1041 O1067 2.492 . S
Nd1041 O1068 2.487 . S
Nd1041 O1069 2.682 . S
Nd1041 O1070 2.410 . S
C1042 Nd1040 2.836 . S
C1042 C1043 1.498 . S
C1042 O1060 1.258 . S
C1042 O1061 1.239 . S
C1043 C1042 1.498 . S
C1043 C1044 1.366 . S
C1043 C1048 1.407 . S
C1044 C1043 1.366 . S
C1044 C1045 1.392 . S
C1044 H1072 0.930 . S
C1045 C1044 1.392 . S
C1045 C1046 1.398 . S
C1045 H1073 0.929 . S
C1046 C1045 1.398 . S
C1046 C1047 1.352 . S
C1047 C1046 1.352 . S
C1047 C1048 1.384 . S
C1047 H1074 0.930 . S
C1048 C1043 1.407 . S
C1048 C1047 1.384 . S
C1048 H1075 0.929 . S
C1049 O1062 1.241 . S
C1049 O1063 1.273 . S
C1050 O1064 1.251 . S
C1050 O1065 1.268 . S
C1051 Nd1041 2.836 . S
C1051 C1052 1.498 1_455 S
C1051 O1066 1.259 . S
C1051 O1067 1.239 . S
C1052 C1051 1.498 1_655 S
C1052 C1053 1.366 . S
C1052 C1057 1.407 . S
C1053 C1052 1.366 . S
C1053 C1054 1.392 . S
C1053 H1076 0.930 . S
C1054 C1053 1.392 . S
C1054 C1055 1.398 . S
C1054 H1077 0.929 . S
C1055 C1054 1.398 . S
C1055 C1056 1.352 . S
C1056 C1055 1.352 . S
C1056 C1057 1.384 . S
C1056 H1078 0.930 . S
C1057 C1052 1.407 . S
C1057 C1056 1.384 . S
C1057 H1079 0.930 1_655 S
C1058 O1068 1.241 . S
C1058 O1069 1.273 . S
C1059 O1070 1.251 . S
C1059 O1071 1.268 . S
O1060 Nd1040 2.500 . S
O1060 C1042 1.258 . S
O1061 Nd1040 2.492 . S
O1061 C1042 1.239 . S
O1062 Nd1040 2.487 . S
O1062 C1049 1.241 . S
O1063 Nd1040 2.682 . S
O1063 Nd1041 2.414 . S
O1063 C1049 1.273 . S
O1064 Nd1040 2.410 . S
O1064 C1050 1.251 . S
O1065 Nd1041 2.424 . S
O1065 C1050 1.268 . S
O1066 Nd1041 2.502 . S
O1066 C1051 1.259 . S
O1067 Nd1041 2.492 . S
O1067 C1051 1.239 . S
O1068 Nd1041 2.487 . S
O1068 C1058 1.241 . S
O1069 Nd1040 2.414 . S
O1069 Nd1041 2.682 . S
O1069 C1058 1.273 . S
O1070 Nd1041 2.410 . S
O1070 C1059 1.251 . S
O1071 Nd1040 2.424 . S
O1071 C1059 1.268 . S
H1072 C1044 0.930 . S
H1073 C1045 0.929 . S
H1074 C1047 0.930 . S
H1075 C1048 0.929 . S
H1076 C1053 0.930 . S
H1077 C1054 0.929 . S
H1078 C1056 0.930 . S
H1079 C1057 0.930 1_455 S
Nd1080 C1082 2.836 . S
Nd1080 O1100 2.500 . S
Nd1080 O1101 2.492 . S
Nd1080 O1102 2.487 . S
Nd1080 O1103 2.682 . S
Nd1080 O1104 2.410 . S
Nd1080 O1109 2.414 . S
Nd1080 O1111 2.424 . S
Nd1081 C1091 2.836 . S
Nd1081 O1103 2.414 . S
Nd1081 O1105 2.424 . S
Nd1081 O1106 2.500 . S
Nd1081 O1107 2.492 . S
Nd1081 O1108 2.487 . S
Nd1081 O1109 2.682 . S
Nd1081 O1110 2.410 . S
C1082 Nd1080 2.836 . S
C1082 C1083 1.498 . S
C1082 O1100 1.258 . S
C1082 O1101 1.239 . S
C1083 C1082 1.498 . S
C1083 C1084 1.366 . S
C1083 C1088 1.407 . S
C1084 C1083 1.366 . S
C1084 C1085 1.392 . S
C1084 H1112 0.930 . S
C1085 C1084 1.392 . S
C1085 C1086 1.398 . S
C1085 H1113 0.929 . S
C1086 C1085 1.398 . S
C1086 C1087 1.352 . S
C1087 C1086 1.352 . S
C1087 C1088 1.384 . S
C1087 H1114 0.930 . S
C1088 C1083 1.407 . S
C1088 C1087 1.384 . S
C1088 H1115 0.929 . S
C1089 O1102 1.241 . S
C1089 O1103 1.273 . S
C1090 O1104 1.251 . S
C1090 O1105 1.268 . S
C1091 Nd1081 2.836 . S
C1091 C1092 1.498 . S
C1091 O1106 1.258 . S
C1091 O1107 1.239 . S
C1092 C1091 1.498 . S
C1092 C1093 1.366 . S
C1092 C1097 1.407 . S
C1093 C1092 1.366 . S
C1093 C1094 1.392 . S
C1093 H1116 0.930 . S
C1094 C1093 1.392 . S
C1094 C1095 1.398 . S
C1094 H1117 0.929 . S
C1095 C1094 1.398 . S
C1095 C1096 1.352 . S
C1096 C1095 1.352 . S
C1096 C1097 1.384 . S
C1096 H1118 0.930 . S
C1097 C1092 1.407 . S
C1097 C1096 1.384 . S
C1097 H1119 0.929 . S
C1098 O1108 1.241 . S
C1098 O1109 1.273 . S
C1099 O1110 1.251 . S
C1099 O1111 1.268 . S
O1100 Nd1080 2.500 . S
O1100 C1082 1.258 . S
O1101 Nd1080 2.492 . S
O1101 C1082 1.239 . S
O1102 Nd1080 2.487 . S
O1102 C1089 1.241 . S
O1103 Nd1080 2.682 . S
O1103 Nd1081 2.414 . S
O1103 C1089 1.273 . S
O1104 Nd1080 2.410 . S
O1104 C1090 1.251 . S
O1105 Nd1081 2.424 . S
O1105 C1090 1.268 . S
O1106 Nd1081 2.500 . S
O1106 C1091 1.258 . S
O1107 Nd1081 2.492 . S
O1107 C1091 1.239 . S
O1108 Nd1081 2.487 . S
O1108 C1098 1.241 . S
O1109 Nd1080 2.414 . S
O1109 Nd1081 2.682 . S
O1109 C1098 1.273 . S
O1110 Nd1081 2.410 . S
O1110 C1099 1.251 . S
O1111 Nd1080 2.424 . S
O1111 C1099 1.268 . S
H1112 C1084 0.930 . S
H1113 C1085 0.929 . S
H1114 C1087 0.930 . S
H1115 C1088 0.929 . S
H1116 C1093 0.930 . S
H1117 C1094 0.929 . S
H1118 C1096 0.930 . S
H1119 C1097 0.929 . S
Nd1120 C1122 2.836 . S
Nd1120 O1140 2.500 . S
Nd1120 O1141 2.492 . S
Nd1120 O1142 2.487 . S
Nd1120 O1143 2.682 . S
Nd1120 O1144 2.410 . S
Nd1120 O1149 2.414 . S
Nd1120 O1151 2.424 . S
Nd1121 C1131 2.836 . S
Nd1121 O1143 2.414 . S
Nd1121 O1145 2.424 . S
Nd1121 O1146 2.500 . S
Nd1121 O1147 2.492 . S
Nd1121 O1148 2.487 . S
Nd1121 O1149 2.682 . S
Nd1121 O1150 2.410 . S
C1122 Nd1120 2.836 . S
C1122 C1123 1.498 . S
C1122 O1140 1.258 . S
C1122 O1141 1.239 . S
C1123 C1122 1.498 . S
C1123 C1124 1.366 . S
C1123 C1128 1.407 . S
C1124 C1123 1.366 . S
C1124 C1125 1.392 . S
C1124 H1152 0.930 . S
C1125 C1124 1.392 . S
C1125 C1126 1.398 . S
C1125 H1153 0.929 . S
C1126 C1125 1.398 . S
C1126 C1127 1.352 . S
C1127 C1126 1.352 . S
C1127 C1128 1.384 . S
C1127 H1154 0.930 . S
C1128 C1123 1.407 . S
C1128 C1127 1.384 . S
C1128 H1155 0.929 . S
C1129 O1142 1.241 . S
C1129 O1143 1.273 . S
C1130 O1144 1.251 . S
C1130 O1145 1.268 . S
C1131 Nd1121 2.836 . S
C1131 C1132 1.498 . S
C1131 O1146 1.258 . S
C1131 O1147 1.239 . S
C1132 C1131 1.498 . S
C1132 C1133 1.366 . S
C1132 C1137 1.407 . S
C1133 C1132 1.366 . S
C1133 C1134 1.392 . S
C1133 H1156 0.930 . S
C1134 C1133 1.392 . S
C1134 C1135 1.398 . S
C1134 H1157 0.929 . S
C1135 C1134 1.398 . S
C1135 C1136 1.352 . S
C1136 C1135 1.352 . S
C1136 C1137 1.384 . S
C1136 H1158 0.930 . S
C1137 C1132 1.407 . S
C1137 C1136 1.384 . S
C1137 H1159 0.929 . S
C1138 O1148 1.241 . S
C1138 O1149 1.273 . S
C1139 O1150 1.251 . S
C1139 O1151 1.268 . S
O1140 Nd1120 2.500 . S
O1140 C1122 1.258 . S
O1141 Nd1120 2.492 . S
O1141 C1122 1.239 . S
O1142 Nd1120 2.487 . S
O1142 C1129 1.241 . S
O1143 Nd1120 2.682 . S
O1143 Nd1121 2.414 . S
O1143 C1129 1.273 . S
O1144 Nd1120 2.410 . S
O1144 C1130 1.251 . S
O1145 Nd1121 2.424 . S
O1145 C1130 1.268 . S
O1146 Nd1121 2.500 . S
O1146 C1131 1.258 . S
O1147 Nd1121 2.492 . S
O1147 C1131 1.239 . S
O1148 Nd1121 2.487 . S
O1148 C1138 1.241 . S
O1149 Nd1120 2.414 . S
O1149 Nd1121 2.682 . S
O1149 C1138 1.273 . S
O1150 Nd1121 2.410 . S
O1150 C1139 1.251 . S
O1151 Nd1120 2.424 . S
O1151 C1139 1.268 . S
H1152 C1124 0.930 . S
H1153 C1125 0.929 . S
H1154 C1127 0.930 . S
H1155 C1128 0.929 . S
H1156 C1133 0.930 . S
H1157 C1134 0.929 . S
H1158 C1136 0.930 . S
H1159 C1137 0.929 . S
Nd1160 C1162 2.836 . S
Nd1160 O1180 2.500 . S
Nd1160 O1181 2.492 . S
Nd1160 O1182 2.487 . S
Nd1160 O1183 2.682 . S
Nd1160 O1184 2.410 . S
Nd1160 O1189 2.414 . S
Nd1160 O1191 2.424 . S
Nd1161 C1171 2.836 . S
Nd1161 O1183 2.414 . S
Nd1161 O1185 2.424 . S
Nd1161 O1186 2.500 . S
Nd1161 O1187 2.492 . S
Nd1161 O1188 2.487 . S
Nd1161 O1189 2.682 . S
Nd1161 O1190 2.410 . S
C1162 Nd1160 2.836 . S
C1162 C1163 1.498 . S
C1162 O1180 1.258 . S
C1162 O1181 1.239 . S
C1163 C1162 1.498 . S
C1163 C1164 1.366 . S
C1163 C1168 1.407 . S
C1164 C1163 1.366 . S
C1164 C1165 1.392 . S
C1164 H1192 0.930 . S
C1165 C1164 1.392 . S
C1165 C1166 1.398 . S
C1165 H1193 0.929 . S
C1166 C1165 1.398 . S
C1166 C1167 1.352 . S
C1167 C1166 1.352 . S
C1167 C1168 1.384 . S
C1167 H1194 0.930 . S
C1168 C1163 1.407 . S
C1168 C1167 1.384 . S
C1168 H1195 0.929 . S
C1169 O1182 1.241 . S
C1169 O1183 1.273 . S
C1170 O1184 1.251 . S
C1170 O1185 1.268 . S
C1171 Nd1161 2.836 . S
C1171 C1172 1.498 . S
C1171 O1186 1.258 . S
C1171 O1187 1.239 . S
C1172 C1171 1.498 . S
C1172 C1173 1.366 . S
C1172 C1177 1.407 . S
C1173 C1172 1.366 . S
C1173 C1174 1.392 . S
C1173 H1196 0.930 . S
C1174 C1173 1.392 . S
C1174 C1175 1.398 . S
C1174 H1197 0.929 . S
C1175 C1174 1.398 . S
C1175 C1176 1.352 . S
C1176 C1175 1.352 . S
C1176 C1177 1.384 . S
C1176 H1198 0.930 . S
C1177 C1172 1.407 . S
C1177 C1176 1.384 . S
C1177 H1199 0.929 . S
C1178 O1188 1.241 . S
C1178 O1189 1.273 . S
C1179 O1190 1.251 . S
C1179 O1191 1.268 . S
O1180 Nd1160 2.500 . S
O1180 C1162 1.258 . S
O1181 Nd1160 2.492 . S
O1181 C1162 1.239 . S
O1182 Nd1160 2.487 . S
O1182 C1169 1.241 . S
O1183 Nd1160 2.682 . S
O1183 Nd1161 2.414 . S
O1183 C1169 1.273 . S
O1184 Nd1160 2.410 . S
O1184 C1170 1.251 . S
O1185 Nd1161 2.424 . S
O1185 C1170 1.268 . S
O1186 Nd1161 2.500 . S
O1186 C1171 1.258 . S
O1187 Nd1161 2.492 . S
O1187 C1171 1.239 . S
O1188 Nd1161 2.487 . S
O1188 C1178 1.241 . S
O1189 Nd1160 2.414 . S
O1189 Nd1161 2.682 . S
O1189 C1178 1.273 . S
O1190 Nd1161 2.410 . S
O1190 C1179 1.251 . S
O1191 Nd1160 2.424 . S
O1191 C1179 1.268 . S
H1192 C1164 0.930 . S
H1193 C1165 0.929 . S
H1194 C1167 0.930 . S
H1195 C1168 0.929 . S
H1196 C1173 0.930 . S
H1197 C1174 0.929 . S
H1198 C1176 0.930 . S
H1199 C1177 0.929 . S
Nd1200 C1202 2.836 . S
Nd1200 O1220 2.500 . S
Nd1200 O1221 2.492 . S
Nd1200 O1222 2.487 . S
Nd1200 O1223 2.682 . S
Nd1200 O1224 2.410 . S
Nd1200 O1229 2.414 . S
Nd1200 O1231 2.424 . S
Nd1201 C1211 2.836 . S
Nd1201 O1223 2.414 . S
Nd1201 O1225 2.424 . S
Nd1201 O1226 2.502 . S
Nd1201 O1227 2.492 . S
Nd1201 O1228 2.487 . S
Nd1201 O1229 2.682 . S
Nd1201 O1230 2.410 . S
C1202 Nd1200 2.836 . S
C1202 C1203 1.498 . S
C1202 O1220 1.258 . S
C1202 O1221 1.239 . S
C1203 C1202 1.498 . S
C1203 C1204 1.366 . S
C1203 C1208 1.407 . S
C1204 C1203 1.366 . S
C1204 C1205 1.392 . S
C1204 H1232 0.930 . S
C1205 C1204 1.392 . S
C1205 C1206 1.398 . S
C1205 H1233 0.929 . S
C1206 C1205 1.398 . S
C1206 C1207 1.352 . S
C1207 C1206 1.352 . S
C1207 C1208 1.384 . S
C1207 H1234 0.930 . S
C1208 C1203 1.407 . S
C1208 C1207 1.384 . S
C1208 H1235 0.929 . S
C1209 O1222 1.241 . S
C1209 O1223 1.273 . S
C1210 O1224 1.251 . S
C1210 O1225 1.268 . S
C1211 Nd1201 2.836 . S
C1211 C1212 1.498 1_455 S
C1211 O1226 1.259 . S
C1211 O1227 1.239 . S
C1212 C1211 1.498 1_655 S
C1212 C1213 1.366 . S
C1212 C1217 1.407 . S
C1213 C1212 1.366 . S
C1213 C1214 1.392 . S
C1213 H1236 0.930 . S
C1214 C1213 1.392 . S
C1214 C1215 1.398 . S
C1214 H1237 0.929 . S
C1215 C1214 1.398 . S
C1215 C1216 1.352 . S
C1216 C1215 1.352 . S
C1216 C1217 1.384 . S
C1216 H1238 0.930 . S
C1217 C1212 1.407 . S
C1217 C1216 1.384 . S
C1217 H1239 0.930 1_655 S
C1218 O1228 1.241 . S
C1218 O1229 1.273 . S
C1219 O1230 1.251 . S
C1219 O1231 1.268 . S
O1220 Nd1200 2.500 . S
O1220 C1202 1.258 . S
O1221 Nd1200 2.492 . S
O1221 C1202 1.239 . S
O1222 Nd1200 2.487 . S
O1222 C1209 1.241 . S
O1223 Nd1200 2.682 . S
O1223 Nd1201 2.414 . S
O1223 C1209 1.273 . S
O1224 Nd1200 2.410 . S
O1224 C1210 1.251 . S
O1225 Nd1201 2.424 . S
O1225 C1210 1.268 . S
O1226 Nd1201 2.502 . S
O1226 C1211 1.259 . S
O1227 Nd1201 2.492 . S
O1227 C1211 1.239 . S
O1228 Nd1201 2.487 . S
O1228 C1218 1.241 . S
O1229 Nd1200 2.414 . S
O1229 Nd1201 2.682 . S
O1229 C1218 1.273 . S
O1230 Nd1201 2.410 . S
O1230 C1219 1.251 . S
O1231 Nd1200 2.424 . S
O1231 C1219 1.268 . S
H1232 C1204 0.930 . S
H1233 C1205 0.929 . S
H1234 C1207 0.930 . S
H1235 C1208 0.929 . S
H1236 C1213 0.930 . S
H1237 C1214 0.929 . S
H1238 C1216 0.930 . S
H1239 C1217 0.930 1_455 S
Nd1240 C1242 2.836 . S
Nd1240 O1260 2.500 . S
Nd1240 O1261 2.492 . S
Nd1240 O1262 2.487 . S
Nd1240 O1263 2.682 . S
Nd1240 O1264 2.410 . S
Nd1240 O1269 2.414 . S
Nd1240 O1271 2.424 . S
Nd1241 C1251 2.836 . S
Nd1241 O1263 2.414 . S
Nd1241 O1265 2.424 . S
Nd1241 O1266 2.500 . S
Nd1241 O1267 2.492 . S
Nd1241 O1268 2.487 . S
Nd1241 O1269 2.682 . S
Nd1241 O1270 2.410 . S
C1242 Nd1240 2.836 . S
C1242 C1243 1.498 . S
C1242 O1260 1.258 . S
C1242 O1261 1.239 . S
C1243 C1242 1.498 . S
C1243 C1244 1.366 . S
C1243 C1248 1.407 . S
C1244 C1243 1.366 . S
C1244 C1245 1.392 . S
C1244 H1272 0.930 . S
C1245 C1244 1.392 . S
C1245 C1246 1.398 . S
C1245 H1273 0.929 . S
C1246 C1245 1.398 . S
C1246 C1247 1.352 . S
C1247 C1246 1.352 . S
C1247 C1248 1.384 . S
C1247 H1274 0.930 . S
C1248 C1243 1.407 . S
C1248 C1247 1.384 . S
C1248 H1275 0.929 . S
C1249 O1262 1.241 . S
C1249 O1263 1.273 . S
C1250 O1264 1.251 . S
C1250 O1265 1.268 . S
C1251 Nd1241 2.836 . S
C1251 C1252 1.498 . S
C1251 O1266 1.258 . S
C1251 O1267 1.239 . S
C1252 C1251 1.498 . S
C1252 C1253 1.366 . S
C1252 C1257 1.407 . S
C1253 C1252 1.366 . S
C1253 C1254 1.392 . S
C1253 H1276 0.930 . S
C1254 C1253 1.392 . S
C1254 C1255 1.398 . S
C1254 H1277 0.929 . S
C1255 C1254 1.398 . S
C1255 C1256 1.352 . S
C1256 C1255 1.352 . S
C1256 C1257 1.384 . S
C1256 H1278 0.930 . S
C1257 C1252 1.407 . S
C1257 C1256 1.384 . S
C1257 H1279 0.929 . S
C1258 O1268 1.241 . S
C1258 O1269 1.273 . S
C1259 O1270 1.251 . S
C1259 O1271 1.268 . S
O1260 Nd1240 2.500 . S
O1260 C1242 1.258 . S
O1261 Nd1240 2.492 . S
O1261 C1242 1.239 . S
O1262 Nd1240 2.487 . S
O1262 C1249 1.241 . S
O1263 Nd1240 2.682 . S
O1263 Nd1241 2.414 . S
O1263 C1249 1.273 . S
O1264 Nd1240 2.410 . S
O1264 C1250 1.251 . S
O1265 Nd1241 2.424 . S
O1265 C1250 1.268 . S
O1266 Nd1241 2.500 . S
O1266 C1251 1.258 . S
O1267 Nd1241 2.492 . S
O1267 C1251 1.239 . S
O1268 Nd1241 2.487 . S
O1268 C1258 1.241 . S
O1269 Nd1240 2.414 . S
O1269 Nd1241 2.682 . S
O1269 C1258 1.273 . S
O1270 Nd1241 2.410 . S
O1270 C1259 1.251 . S
O1271 Nd1240 2.424 . S
O1271 C1259 1.268 . S
H1272 C1244 0.930 . S
H1273 C1245 0.929 . S
H1274 C1247 0.930 . S
H1275 C1248 0.929 . S
H1276 C1253 0.930 . S
H1277 C1254 0.929 . S
H1278 C1256 0.930 . S
H1279 C1257 0.929 . S
C1280 C1281 1.369 . S
C1280 C1282 1.419 . S
C1280 H1284 0.930 . S
C1281 C1280 1.369 . S
C1281 C1290 1.429 . S
C1282 C1280 1.419 . S
C1282 C1283 1.363 . S
C1282 H1285 0.929 . S
C1283 C1282 1.363 . S
C1283 C1289 1.428 . S
H1284 C1280 0.930 . S
H1285 C1282 0.929 . S
S1286 N1287 1.613 . S
S1286 N1288 1.610 . S
N1287 S1286 1.613 . S
N1287 C1290 1.350 . S
N1288 S1286 1.610 . S
N1288 C1289 1.351 . S
C1289 C1283 1.428 . S
C1289 N1288 1.351 . S
C1289 C1290 1.434 . S
C1290 C1281 1.429 . S
C1290 N1287 1.350 . S
C1290 C1289 1.434 . S
C1291 C1292 1.369 . S
C1291 C1293 1.419 . S
C1291 H1295 0.930 . S
C1292 C1291 1.369 . S
C1292 C1301 1.429 . S
C1293 C1291 1.419 . S
C1293 C1294 1.363 . S
C1293 H1296 0.929 . S
C1294 C1293 1.363 . S
C1294 C1300 1.428 . S
H1295 C1291 0.930 . S
H1296 C1293 0.929 . S
S1297 N1298 1.613 . S
S1297 N1299 1.610 . S
N1298 S1297 1.613 . S
N1298 C1301 1.350 . S
N1299 S1297 1.610 . S
N1299 C1300 1.351 . S
C1300 C1294 1.428 . S
C1300 N1299 1.351 . S
C1300 C1301 1.434 . S
C1301 C1292 1.429 . S
C1301 N1298 1.350 . S
C1301 C1300 1.434 . S
C1302 C1303 1.369 . S
C1302 C1304 1.419 . S
C1302 H1306 0.930 . S
C1303 C1302 1.369 . S
C1303 C1312 1.429 . S
C1304 C1302 1.419 . S
C1304 C1305 1.363 . S
C1304 H1307 0.929 . S
C1305 C1304 1.363 . S
C1305 C1311 1.428 . S
H1306 C1302 0.930 . S
H1307 C1304 0.929 . S
S1308 N1309 1.613 . S
S1308 N1310 1.610 . S
N1309 S1308 1.613 . S
N1309 C1312 1.350 . S
N1310 S1308 1.610 . S
N1310 C1311 1.351 . S
C1311 C1305 1.428 . S
C1311 N1310 1.351 . S
C1311 C1312 1.434 . S
C1312 C1303 1.429 . S
C1312 N1309 1.350 . S
C1312 C1311 1.434 . S
C1313 C1314 1.369 . S
C1313 C1315 1.419 . S
C1313 H1317 0.930 . S
C1314 C1313 1.369 . S
C1314 C1323 1.429 . S
C1315 C1313 1.419 . S
C1315 C1316 1.363 . S
C1315 H1318 0.929 . S
C1316 C1315 1.363 . S
C1316 C1322 1.428 . S
H1317 C1313 0.930 . S
H1318 C1315 0.929 . S
S1319 N1320 1.613 . S
S1319 N1321 1.610 . S
N1320 S1319 1.613 . S
N1320 C1323 1.350 . S
N1321 S1319 1.610 . S
N1321 C1322 1.351 . S
C1322 C1316 1.428 . S
C1322 N1321 1.351 . S
C1322 C1323 1.434 . S
C1323 C1314 1.429 . S
C1323 N1320 1.350 . S
C1323 C1322 1.434 . S
C1324 C1325 1.369 . S
C1324 C1326 1.419 . S
C1324 H1328 0.930 . S
C1325 C1324 1.369 . S
C1325 C1334 1.429 . S
C1326 C1324 1.419 . S
C1326 C1327 1.363 . S
C1326 H1329 0.929 . S
C1327 C1326 1.363 . S
C1327 C1333 1.428 . S
H1328 C1324 0.930 . S
H1329 C1326 0.929 . S
S1330 N1331 1.613 . S
S1330 N1332 1.610 . S
N1331 S1330 1.613 . S
N1331 C1334 1.350 . S
N1332 S1330 1.610 . S
N1332 C1333 1.351 . S
C1333 C1327 1.428 . S
C1333 N1332 1.351 . S
C1333 C1334 1.434 . S
C1334 C1325 1.429 . S
C1334 N1331 1.350 . S
C1334 C1333 1.434 . S
C1335 C1336 1.369 . S
C1335 C1337 1.419 . S
C1335 H1339 0.930 . S
C1336 C1335 1.369 . S
C1336 C1345 1.429 . S
C1337 C1335 1.419 . S
C1337 C1338 1.363 . S
C1337 H1340 0.929 . S
C1338 C1337 1.363 . S
C1338 C1344 1.428 . S
H1339 C1335 0.930 . S
H1340 C1337 0.929 . S
S1341 N1342 1.613 . S
S1341 N1343 1.610 . S
N1342 S1341 1.613 . S
N1342 C1345 1.350 . S
N1343 S1341 1.610 . S
N1343 C1344 1.351 . S
C1344 C1338 1.428 . S
C1344 N1343 1.351 . S
C1344 C1345 1.434 . S
C1345 C1336 1.429 . S
C1345 N1342 1.350 . S
C1345 C1344 1.434 . S
C1346 C1347 1.369 . S
C1346 C1348 1.419 . S
C1346 H1350 0.930 . S
C1347 C1346 1.369 . S
C1347 C1356 1.429 . S
C1348 C1346 1.419 . S
C1348 C1349 1.363 . S
C1348 H1351 0.929 . S
C1349 C1348 1.363 . S
C1349 C1355 1.428 . S
H1350 C1346 0.930 . S
H1351 C1348 0.929 . S
S1352 N1353 1.613 . S
S1352 N1354 1.610 . S
N1353 S1352 1.613 . S
N1353 C1356 1.350 . S
N1354 S1352 1.610 . S
N1354 C1355 1.351 . S
C1355 C1349 1.428 . S
C1355 N1354 1.351 . S
C1355 C1356 1.434 . S
C1356 C1347 1.429 . S
C1356 N1353 1.350 . S
C1356 C1355 1.434 . S
C1357 C1358 1.369 . S
C1357 C1359 1.419 . S
C1357 H1361 0.930 . S
C1358 C1357 1.369 . S
C1358 C1367 1.429 . S
C1359 C1357 1.419 . S
C1359 C1360 1.363 . S
C1359 H1362 0.929 . S
C1360 C1359 1.363 . S
C1360 C1366 1.428 . S
H1361 C1357 0.930 . S
H1362 C1359 0.929 . S
S1363 N1364 1.613 . S
S1363 N1365 1.610 . S
N1364 S1363 1.613 . S
N1364 C1367 1.350 . S
N1365 S1363 1.610 . S
N1365 C1366 1.351 . S
C1366 C1360 1.428 . S
C1366 N1365 1.351 . S
C1366 C1367 1.434 . S
C1367 C1358 1.429 . S
C1367 N1364 1.350 . S
C1367 C1366 1.434 . S
C1368 C1369 1.369 . S
C1368 C1370 1.419 . S
C1368 H1372 0.930 . S
C1369 C1368 1.369 . S
C1369 C1378 1.429 . S
C1370 C1368 1.419 . S
C1370 C1371 1.363 . S
C1370 H1373 0.929 . S
C1371 C1370 1.363 . S
C1371 C1377 1.428 . S
H1372 C1368 0.930 . S
H1373 C1370 0.929 . S
S1374 N1375 1.613 . S
S1374 N1376 1.610 . S
N1375 S1374 1.613 . S
N1375 C1378 1.350 . S
N1376 S1374 1.610 . S
N1376 C1377 1.351 . S
C1377 C1371 1.428 . S
C1377 N1376 1.351 . S
C1377 C1378 1.434 . S
C1378 C1369 1.429 . S
C1378 N1375 1.350 . S
C1378 C1377 1.434 . S
C1379 C1380 1.369 . S
C1379 C1381 1.419 . S
C1379 H1383 0.930 . S
C1380 C1379 1.369 . S
C1380 C1389 1.429 . S
C1381 C1379 1.419 . S
C1381 C1382 1.363 . S
C1381 H1384 0.929 . S
C1382 C1381 1.363 . S
C1382 C1388 1.428 . S
H1383 C1379 0.930 . S
H1384 C1381 0.929 . S
S1385 N1386 1.613 . S
S1385 N1387 1.610 . S
N1386 S1385 1.613 . S
N1386 C1389 1.350 . S
N1387 S1385 1.610 . S
N1387 C1388 1.351 . S
C1388 C1382 1.428 . S
C1388 N1387 1.351 . S
C1388 C1389 1.434 . S
C1389 C1380 1.429 . S
C1389 N1386 1.350 . S
C1389 C1388 1.434 . S
C1390 C1391 1.369 . S
C1390 C1392 1.419 . S
C1390 H1394 0.930 . S
C1391 C1390 1.369 . S
C1391 C1400 1.429 . S
C1392 C1390 1.419 . S
C1392 C1393 1.363 . S
C1392 H1395 0.929 . S
C1393 C1392 1.363 . S
C1393 C1399 1.428 . S
H1394 C1390 0.930 . S
H1395 C1392 0.929 . S
S1396 N1397 1.613 . S
S1396 N1398 1.610 . S
N1397 S1396 1.613 . S
N1397 C1400 1.350 . S
N1398 S1396 1.610 . S
N1398 C1399 1.351 . S
C1399 C1393 1.428 . S
C1399 N1398 1.351 . S
C1399 C1400 1.434 . S
C1400 C1391 1.429 . S
C1400 N1397 1.350 . S
C1400 C1399 1.434 . S
C1401 C1402 1.369 . S
C1401 C1403 1.419 . S
C1401 H1405 0.930 . S
C1402 C1401 1.369 . S
C1402 C1411 1.429 . S
C1403 C1401 1.419 . S
C1403 C1404 1.363 . S
C1403 H1406 0.929 . S
C1404 C1403 1.363 . S
C1404 C1410 1.428 . S
H1405 C1401 0.930 . S
H1406 C1403 0.929 . S
S1407 N1408 1.613 . S
S1407 N1409 1.610 . S
N1408 S1407 1.613 . S
N1408 C1411 1.350 . S
N1409 S1407 1.610 . S
N1409 C1410 1.351 . S
C1410 C1404 1.428 . S
C1410 N1409 1.351 . S
C1410 C1411 1.434 . S
C1411 C1402 1.429 . S
C1411 N1408 1.350 . S
C1411 C1410 1.434 . S
C1412 C1413 1.369 . S
C1412 C1414 1.419 . S
C1412 H1416 0.930 . S
C1413 C1412 1.369 . S
C1413 C1422 1.429 . S
C1414 C1412 1.419 . S
C1414 C1415 1.363 . S
C1414 H1417 0.929 . S
C1415 C1414 1.363 . S
C1415 C1421 1.428 . S
H1416 C1412 0.930 . S
H1417 C1414 0.929 . S
S1418 N1419 1.613 . S
S1418 N1420 1.610 . S
N1419 S1418 1.613 . S
N1419 C1422 1.350 . S
N1420 S1418 1.610 . S
N1420 C1421 1.351 . S
C1421 C1415 1.428 . S
C1421 N1420 1.351 . S
C1421 C1422 1.434 . S
C1422 C1413 1.429 . S
C1422 N1419 1.350 . S
C1422 C1421 1.434 . S
C1423 C1424 1.369 . S
C1423 C1425 1.419 . S
C1423 H1427 0.930 . S
C1424 C1423 1.369 . S
C1424 C1433 1.429 . S
C1425 C1423 1.419 . S
C1425 C1426 1.363 . S
C1425 H1428 0.929 . S
C1426 C1425 1.363 . S
C1426 C1432 1.428 . S
H1427 C1423 0.930 . S
H1428 C1425 0.929 . S
S1429 N1430 1.613 . S
S1429 N1431 1.610 . S
N1430 S1429 1.613 . S
N1430 C1433 1.350 . S
N1431 S1429 1.610 . S
N1431 C1432 1.351 . S
C1432 C1426 1.428 . S
C1432 N1431 1.351 . S
C1432 C1433 1.434 . S
C1433 C1424 1.429 . S
C1433 N1430 1.350 . S
C1433 C1432 1.434 . S
C1434 C1435 1.369 . S
C1434 C1436 1.419 . S
C1434 H1438 0.930 . S
C1435 C1434 1.369 . S
C1435 C1444 1.429 . S
C1436 C1434 1.419 . S
C1436 C1437 1.363 . S
C1436 H1439 0.929 . S
C1437 C1436 1.363 . S
C1437 C1443 1.428 . S
H1438 C1434 0.930 . S
H1439 C1436 0.929 . S
S1440 N1441 1.613 . S
S1440 N1442 1.610 . S
N1441 S1440 1.613 . S
N1441 C1444 1.350 . S
N1442 S1440 1.610 . S
N1442 C1443 1.351 . S
C1443 C1437 1.428 . S
C1443 N1442 1.351 . S
C1443 C1444 1.434 . S
C1444 C1435 1.429 . S
C1444 N1441 1.350 . S
C1444 C1443 1.434 . S
C1445 C1446 1.369 . S
C1445 C1447 1.419 . S
C1445 H1449 0.930 . S
C1446 C1445 1.369 . S
C1446 C1455 1.429 . S
C1447 C1445 1.419 . S
C1447 C1448 1.363 . S
C1447 H1450 0.929 . S
C1448 C1447 1.363 . S
C1448 C1454 1.428 . S
H1449 C1445 0.930 . S
H1450 C1447 0.929 . S
S1451 N1452 1.613 . S
S1451 N1453 1.610 . S
N1452 S1451 1.613 . S
N1452 C1455 1.350 . S
N1453 S1451 1.610 . S
N1453 C1454 1.351 . S
C1454 C1448 1.428 . S
C1454 N1453 1.351 . S
C1454 C1455 1.434 . S
C1455 C1446 1.429 . S
C1455 N1452 1.350 . S
C1455 C1454 1.434 . S
C1456 C1457 1.369 . S
C1456 C1458 1.419 . S
C1456 H1460 0.930 . S
C1457 C1456 1.369 . S
C1457 C1466 1.429 . S
C1458 C1456 1.419 . S
C1458 C1459 1.363 . S
C1458 H1461 0.929 . S
C1459 C1458 1.363 . S
C1459 C1465 1.428 . S
H1460 C1456 0.930 . S
H1461 C1458 0.929 . S
S1462 N1463 1.613 . S
S1462 N1464 1.610 . S
N1463 S1462 1.613 . S
N1463 C1466 1.350 . S
N1464 S1462 1.610 . S
N1464 C1465 1.351 . S
C1465 C1459 1.428 . S
C1465 N1464 1.351 . S
C1465 C1466 1.434 . S
C1466 C1457 1.429 . S
C1466 N1463 1.350 . S
C1466 C1465 1.434 . S
C1467 C1468 1.369 . S
C1467 C1469 1.419 . S
C1467 H1471 0.930 . S
C1468 C1467 1.369 . S
C1468 C1477 1.429 . S
C1469 C1467 1.419 . S
C1469 C1470 1.363 . S
C1469 H1472 0.929 . S
C1470 C1469 1.363 . S
C1470 C1476 1.428 . S
H1471 C1467 0.930 . S
H1472 C1469 0.929 . S
S1473 N1474 1.613 . S
S1473 N1475 1.610 . S
N1474 S1473 1.613 . S
N1474 C1477 1.350 . S
N1475 S1473 1.610 . S
N1475 C1476 1.351 . S
C1476 C1470 1.428 . S
C1476 N1475 1.351 . S
C1476 C1477 1.434 . S
C1477 C1468 1.429 . S
C1477 N1474 1.350 . S
C1477 C1476 1.434 . S
C1478 C1479 1.369 . S
C1478 C1480 1.419 . S
C1478 H1482 0.930 . S
C1479 C1478 1.369 . S
C1479 C1488 1.429 . S
C1480 C1478 1.419 . S
C1480 C1481 1.363 . S
C1480 H1483 0.929 . S
C1481 C1480 1.363 . S
C1481 C1487 1.428 . S
H1482 C1478 0.930 . S
H1483 C1480 0.929 . S
S1484 N1485 1.613 . S
S1484 N1486 1.610 . S
N1485 S1484 1.613 . S
N1485 C1488 1.350 . S
N1486 S1484 1.610 . S
N1486 C1487 1.351 . S
C1487 C1481 1.428 . S
C1487 N1486 1.351 . S
C1487 C1488 1.434 . S
C1488 C1479 1.429 . S
C1488 N1485 1.350 . S
C1488 C1487 1.434 . S
C1489 C1490 1.369 . S
C1489 C1491 1.419 . S
C1489 H1493 0.930 . S
C1490 C1489 1.369 . S
C1490 C1499 1.429 . S
C1491 C1489 1.419 . S
C1491 C1492 1.363 . S
C1491 H1494 0.929 . S
C1492 C1491 1.363 . S
C1492 C1498 1.428 . S
H1493 C1489 0.930 . S
H1494 C1491 0.929 . S
S1495 N1496 1.613 . S
S1495 N1497 1.610 . S
N1496 S1495 1.613 . S
N1496 C1499 1.350 . S
N1497 S1495 1.610 . S
N1497 C1498 1.351 . S
C1498 C1492 1.428 . S
C1498 N1497 1.351 . S
C1498 C1499 1.434 . S
C1499 C1490 1.429 . S
C1499 N1496 1.350 . S
C1499 C1498 1.434 . S
C1500 C1501 1.369 . S
C1500 C1502 1.419 . S
C1500 H1504 0.930 . S
C1501 C1500 1.369 . S
C1501 C1510 1.429 . S
C1502 C1500 1.419 . S
C1502 C1503 1.363 . S
C1502 H1505 0.929 . S
C1503 C1502 1.363 . S
C1503 C1509 1.428 . S
H1504 C1500 0.930 . S
H1505 C1502 0.929 . S
S1506 N1507 1.613 . S
S1506 N1508 1.610 . S
N1507 S1506 1.613 . S
N1507 C1510 1.350 . S
N1508 S1506 1.610 . S
N1508 C1509 1.351 . S
C1509 C1503 1.428 . S
C1509 N1508 1.351 . S
C1509 C1510 1.434 . S
C1510 C1501 1.429 . S
C1510 N1507 1.350 . S
C1510 C1509 1.434 . S
C1511 C1512 1.369 . S
C1511 C1513 1.419 . S
C1511 H1515 0.930 . S
C1512 C1511 1.369 . S
C1512 C1521 1.429 . S
C1513 C1511 1.419 . S
C1513 C1514 1.363 . S
C1513 H1516 0.929 . S
C1514 C1513 1.363 . S
C1514 C1520 1.428 . S
H1515 C1511 0.930 . S
H1516 C1513 0.929 . S
S1517 N1518 1.613 . S
S1517 N1519 1.610 . S
N1518 S1517 1.613 . S
N1518 C1521 1.350 . S
N1519 S1517 1.610 . S
N1519 C1520 1.351 . S
C1520 C1514 1.428 . S
C1520 N1519 1.351 . S
C1520 C1521 1.434 . S
C1521 C1512 1.429 . S
C1521 N1518 1.350 . S
C1521 C1520 1.434 . S
C1522 C1523 1.369 . S
C1522 C1524 1.419 . S
C1522 H1526 0.930 . S
C1523 C1522 1.369 . S
C1523 C1532 1.429 . S
C1524 C1522 1.419 . S
C1524 C1525 1.363 . S
C1524 H1527 0.929 . S
C1525 C1524 1.363 . S
C1525 C1531 1.428 . S
H1526 C1522 0.930 . S
H1527 C1524 0.929 . S
S1528 N1529 1.613 . S
S1528 N1530 1.610 . S
N1529 S1528 1.613 . S
N1529 C1532 1.350 . S
N1530 S1528 1.610 . S
N1530 C1531 1.351 . S
C1531 C1525 1.428 . S
C1531 N1530 1.351 . S
C1531 C1532 1.434 . S
C1532 C1523 1.429 . S
C1532 N1529 1.350 . S
C1532 C1531 1.434 . S
C1533 C1534 1.369 . S
C1533 C1535 1.419 . S
C1533 H1537 0.930 . S
C1534 C1533 1.369 . S
C1534 C1543 1.429 . S
C1535 C1533 1.419 . S
C1535 C1536 1.363 . S
C1535 H1538 0.929 . S
C1536 C1535 1.363 . S
C1536 C1542 1.428 . S
H1537 C1533 0.930 . S
H1538 C1535 0.929 . S
S1539 N1540 1.613 . S
S1539 N1541 1.610 . S
N1540 S1539 1.613 . S
N1540 C1543 1.350 . S
N1541 S1539 1.610 . S
N1541 C1542 1.351 . S
C1542 C1536 1.428 . S
C1542 N1541 1.351 . S
C1542 C1543 1.434 . S
C1543 C1534 1.429 . S
C1543 N1540 1.350 . S
C1543 C1542 1.434 . S
C1544 C1545 1.369 . S
C1544 C1546 1.419 . S
C1544 H1548 0.930 . S
C1545 C1544 1.369 . S
C1545 C1554 1.429 . S
C1546 C1544 1.419 . S
C1546 C1547 1.363 . S
C1546 H1549 0.929 . S
C1547 C1546 1.363 . S
C1547 C1553 1.428 . S
H1548 C1544 0.930 . S
H1549 C1546 0.929 . S
S1550 N1551 1.613 . S
S1550 N1552 1.610 . S
N1551 S1550 1.613 . S
N1551 C1554 1.350 . S
N1552 S1550 1.610 . S
N1552 C1553 1.351 . S
C1553 C1547 1.428 . S
C1553 N1552 1.351 . S
C1553 C1554 1.434 . S
C1554 C1545 1.429 . S
C1554 N1551 1.350 . S
C1554 C1553 1.434 . S
C1555 C1556 1.369 . S
C1555 C1557 1.419 . S
C1555 H1559 0.930 . S
C1556 C1555 1.369 . S
C1556 C1565 1.429 . S
C1557 C1555 1.419 . S
C1557 C1558 1.363 . S
C1557 H1560 0.929 . S
C1558 C1557 1.363 . S
C1558 C1564 1.428 . S
H1559 C1555 0.930 . S
H1560 C1557 0.929 . S
S1561 N1562 1.613 . S
S1561 N1563 1.610 . S
N1562 S1561 1.613 . S
N1562 C1565 1.350 . S
N1563 S1561 1.610 . S
N1563 C1564 1.351 . S
C1564 C1558 1.428 . S
C1564 N1563 1.351 . S
C1564 C1565 1.434 . S
C1565 C1556 1.429 . S
C1565 N1562 1.350 . S
C1565 C1564 1.434 . S
C1566 C1567 1.369 . S
C1566 C1568 1.419 . S
C1566 H1570 0.930 . S
C1567 C1566 1.369 . S
C1567 C1576 1.429 . S
C1568 C1566 1.419 . S
C1568 C1569 1.363 . S
C1568 H1571 0.929 . S
C1569 C1568 1.363 . S
C1569 C1575 1.428 . S
H1570 C1566 0.930 . S
H1571 C1568 0.929 . S
S1572 N1573 1.613 . S
S1572 N1574 1.610 . S
N1573 S1572 1.613 . S
N1573 C1576 1.350 . S
N1574 S1572 1.610 . S
N1574 C1575 1.351 . S
C1575 C1569 1.428 . S
C1575 N1574 1.351 . S
C1575 C1576 1.434 . S
C1576 C1567 1.429 . S
C1576 N1573 1.350 . S
C1576 C1575 1.434 . S
C1577 C1578 1.369 . S
C1577 C1579 1.419 . S
C1577 H1581 0.930 . S
C1578 C1577 1.369 . S
C1578 C1587 1.429 . S
C1579 C1577 1.419 . S
C1579 C1580 1.363 . S
C1579 H1582 0.929 . S
C1580 C1579 1.363 . S
C1580 C1586 1.428 . S
H1581 C1577 0.930 . S
H1582 C1579 0.929 . S
S1583 N1584 1.613 . S
S1583 N1585 1.610 . S
N1584 S1583 1.613 . S
N1584 C1587 1.350 . S
N1585 S1583 1.610 . S
N1585 C1586 1.351 . S
C1586 C1580 1.428 . S
C1586 N1585 1.351 . S
C1586 C1587 1.434 . S
C1587 C1578 1.429 . S
C1587 N1584 1.350 . S
C1587 C1586 1.434 . S
C1588 C1589 1.369 . S
C1588 C1590 1.419 . S
C1588 H1592 0.930 . S
C1589 C1588 1.369 . S
C1589 C1598 1.429 . S
C1590 C1588 1.419 . S
C1590 C1591 1.363 . S
C1590 H1593 0.929 . S
C1591 C1590 1.363 . S
C1591 C1597 1.428 . S
H1592 C1588 0.930 . S
H1593 C1590 0.929 . S
S1594 N1595 1.613 . S
S1594 N1596 1.610 . S
N1595 S1594 1.613 . S
N1595 C1598 1.350 . S
N1596 S1594 1.610 . S
N1596 C1597 1.351 . S
C1597 C1591 1.428 . S
C1597 N1596 1.351 . S
C1597 C1598 1.434 . S
C1598 C1589 1.429 . S
C1598 N1595 1.350 . S
C1598 C1597 1.434 . S
C1599 C1600 1.369 . S
C1599 C1601 1.419 . S
C1599 H1603 0.930 . S
C1600 C1599 1.369 . S
C1600 C1609 1.429 . S
C1601 C1599 1.419 . S
C1601 C1602 1.363 . S
C1601 H1604 0.929 . S
C1602 C1601 1.363 . S
C1602 C1608 1.428 . S
H1603 C1599 0.930 . S
H1604 C1601 0.929 . S
S1605 N1606 1.613 . S
S1605 N1607 1.610 . S
N1606 S1605 1.613 . S
N1606 C1609 1.350 . S
N1607 S1605 1.610 . S
N1607 C1608 1.351 . S
C1608 C1602 1.428 . S
C1608 N1607 1.351 . S
C1608 C1609 1.434 . S
C1609 C1600 1.429 . S
C1609 N1606 1.350 . S
C1609 C1608 1.434 . S
C1610 C1611 1.369 . S
C1610 C1612 1.419 . S
C1610 H1614 0.930 . S
C1611 C1610 1.369 . S
C1611 C1620 1.429 . S
C1612 C1610 1.419 . S
C1612 C1613 1.363 . S
C1612 H1615 0.929 . S
C1613 C1612 1.363 . S
C1613 C1619 1.428 . S
H1614 C1610 0.930 . S
H1615 C1612 0.929 . S
S1616 N1617 1.613 . S
S1616 N1618 1.610 . S
N1617 S1616 1.613 . S
N1617 C1620 1.350 . S
N1618 S1616 1.610 . S
N1618 C1619 1.351 . S
C1619 C1613 1.428 . S
C1619 N1618 1.351 . S
C1619 C1620 1.434 . S
C1620 C1611 1.429 . S
C1620 N1617 1.350 . S
C1620 C1619 1.434 . S
C1621 C1622 1.369 . S
C1621 C1623 1.419 . S
C1621 H1625 0.930 . S
C1622 C1621 1.369 . S
C1622 C1631 1.429 . S
C1623 C1621 1.419 . S
C1623 C1624 1.363 . S
C1623 H1626 0.929 . S
C1624 C1623 1.363 . S
C1624 C1630 1.428 . S
H1625 C1621 0.930 . S
H1626 C1623 0.929 . S
S1627 N1628 1.613 . S
S1627 N1629 1.610 . S
N1628 S1627 1.613 . S
N1628 C1631 1.350 . S
N1629 S1627 1.610 . S
N1629 C1630 1.351 . S
C1630 C1624 1.428 . S
C1630 N1629 1.351 . S
C1630 C1631 1.434 . S
C1631 C1622 1.429 . S
C1631 N1628 1.350 . S
C1631 C1630 1.434 . S
C1632 C1633 1.369 . S
C1632 C1634 1.419 . S
C1632 H1636 0.930 . S
C1633 C1632 1.369 . S
C1633 C1642 1.429 1_455 S
C1634 C1632 1.419 . S
C1634 C1635 1.363 1_455 S
C1634 H1637 0.929 . S
C1635 C1634 1.363 1_655 S
C1635 C1641 1.428 . S
H1636 C1632 0.930 . S
H1637 C1634 0.929 . S
S1638 N1639 1.613 . S
S1638 N1640 1.610 . S
N1639 S1638 1.613 . S
N1639 C1642 1.350 . S
N1640 S1638 1.610 . S
N1640 C1641 1.351 . S
C1641 C1635 1.428 . S
C1641 N1640 1.351 . S
C1641 C1642 1.434 . S
C1642 C1633 1.429 1_655 S
C1642 N1639 1.350 . S
C1642 C1641 1.434 . S
C1643 C1644 1.369 . S
C1643 C1645 1.419 1_655 S
C1643 H1647 0.930 . S
C1644 C1643 1.369 . S
C1644 C1653 1.429 . S
C1645 C1643 1.419 1_455 S
C1645 C1646 1.363 . S
C1645 H1648 0.929 . S
C1646 C1645 1.363 . S
C1646 C1652 1.428 . S
H1647 C1643 0.930 . S
H1648 C1645 0.929 . S
S1649 N1650 1.613 1_455 S
S1649 N1651 1.610 . S
N1650 S1649 1.613 1_655 S
N1650 C1653 1.350 . S
N1651 S1649 1.610 . S
N1651 C1652 1.351 . S
C1652 C1646 1.428 . S
C1652 N1651 1.351 . S
C1652 C1653 1.434 1_455 S
C1653 C1644 1.429 . S
C1653 N1650 1.350 . S
C1653 C1652 1.434 1_655 S
C1654 C1655 1.369 . S
C1654 C1656 1.419 . S
C1654 H1658 0.930 . S
C1655 C1654 1.369 . S
C1655 C1664 1.429 . S
C1656 C1654 1.419 . S
C1656 C1657 1.363 . S
C1656 H1659 0.929 . S
C1657 C1656 1.363 . S
C1657 C1663 1.428 . S
H1658 C1654 0.930 . S
H1659 C1656 0.929 . S
S1660 N1661 1.613 . S
S1660 N1662 1.610 . S
N1661 S1660 1.613 . S
N1661 C1664 1.350 . S
N1662 S1660 1.610 . S
N1662 C1663 1.351 . S
C1663 C1657 1.428 . S
C1663 N1662 1.351 . S
C1663 C1664 1.434 . S
C1664 C1655 1.429 . S
C1664 N1661 1.350 . S
C1664 C1663 1.434 . S
C1665 C1666 1.369 . S
C1665 C1667 1.419 . S
C1665 H1669 0.930 . S
C1666 C1665 1.369 . S
C1666 C1675 1.429 . S
C1667 C1665 1.419 . S
C1667 C1668 1.363 . S
C1667 H1670 0.929 . S
C1668 C1667 1.363 . S
C1668 C1674 1.428 . S
H1669 C1665 0.930 . S
H1670 C1667 0.929 . S
S1671 N1672 1.613 . S
S1671 N1673 1.610 . S
N1672 S1671 1.613 . S
N1672 C1675 1.350 . S
N1673 S1671 1.610 . S
N1673 C1674 1.351 . S
C1674 C1668 1.428 . S
C1674 N1673 1.351 . S
C1674 C1675 1.434 . S
C1675 C1666 1.429 . S
C1675 N1672 1.350 . S
C1675 C1674 1.434 . S
C1676 C1677 1.369 . S
C1676 C1678 1.419 . S
C1676 H1680 0.930 . S
C1677 C1676 1.369 . S
C1677 C1686 1.429 1_655 S
C1678 C1676 1.419 . S
C1678 C1679 1.363 1_655 S
C1678 H1681 0.929 . S
C1679 C1678 1.363 1_455 S
C1679 C1685 1.428 . S
H1680 C1676 0.930 . S
H1681 C1678 0.929 . S
S1682 N1683 1.613 . S
S1682 N1684 1.610 . S
N1683 S1682 1.613 . S
N1683 C1686 1.350 . S
N1684 S1682 1.610 . S
N1684 C1685 1.351 . S
C1685 C1679 1.428 . S
C1685 N1684 1.351 . S
C1685 C1686 1.434 . S
C1686 C1677 1.429 1_455 S
C1686 N1683 1.350 . S
C1686 C1685 1.434 . S
C1687 C1688 1.369 . S
C1687 C1689 1.419 . S
C1687 H1691 0.930 . S
C1688 C1687 1.369 . S
C1688 C1697 1.429 . S
C1689 C1687 1.419 . S
C1689 C1690 1.363 . S
C1689 H1692 0.929 . S
C1690 C1689 1.363 . S
C1690 C1696 1.428 . S
H1691 C1687 0.930 . S
H1692 C1689 0.929 . S
S1693 N1694 1.613 . S
S1693 N1695 1.610 . S
N1694 S1693 1.613 . S
N1694 C1697 1.350 . S
N1695 S1693 1.610 . S
N1695 C1696 1.351 . S
C1696 C1690 1.428 . S
C1696 N1695 1.351 . S
C1696 C1697 1.434 . S
C1697 C1688 1.429 . S
C1697 N1694 1.350 . S
C1697 C1696 1.434 . S
C1698 C1699 1.369 . S
C1698 C1700 1.419 . S
C1698 H1702 0.930 . S
C1699 C1698 1.369 . S
C1699 C1708 1.429 . S
C1700 C1698 1.419 . S
C1700 C1701 1.363 . S
C1700 H1703 0.929 . S
C1701 C1700 1.363 . S
C1701 C1707 1.428 . S
H1702 C1698 0.930 . S
H1703 C1700 0.929 . S
S1704 N1705 1.613 . S
S1704 N1706 1.610 . S
N1705 S1704 1.613 . S
N1705 C1708 1.350 . S
N1706 S1704 1.610 . S
N1706 C1707 1.351 . S
C1707 C1701 1.428 . S
C1707 N1706 1.351 . S
C1707 C1708 1.434 . S
C1708 C1699 1.429 . S
C1708 N1705 1.350 . S
C1708 C1707 1.434 . S
C1709 C1710 1.369 . S
C1709 C1711 1.419 1_455 S
C1709 H1713 0.930 . S
C1710 C1709 1.369 . S
C1710 C1719 1.429 . S
C1711 C1709 1.419 1_655 S
C1711 C1712 1.363 . S
C1711 H1714 0.929 . S
C1712 C1711 1.363 . S
C1712 C1718 1.428 . S
H1713 C1709 0.930 . S
H1714 C1711 0.929 . S
S1715 N1716 1.613 1_655 S
S1715 N1717 1.610 . S
N1716 S1715 1.613 1_455 S
N1716 C1719 1.350 . S
N1717 S1715 1.610 . S
N1717 C1718 1.351 . S
C1718 C1712 1.428 . S
C1718 N1717 1.351 . S
C1718 C1719 1.434 1_655 S
C1719 C1710 1.429 . S
C1719 N1716 1.350 . S
C1719 C1718 1.434 1_455 S
C1720 C1721 1.369 . S
C1720 C1722 1.419 . S
C1720 H1724 0.930 . S
C1721 C1720 1.369 . S
C1721 C1730 1.429 1_455 S
C1722 C1720 1.419 . S
C1722 C1723 1.363 1_455 S
C1722 H1725 0.929 . S
C1723 C1722 1.363 1_655 S
C1723 C1729 1.428 . S
H1724 C1720 0.930 . S
H1725 C1722 0.929 . S
S1726 N1727 1.613 . S
S1726 N1728 1.610 . S
N1727 S1726 1.613 . S
N1727 C1730 1.350 . S
N1728 S1726 1.610 . S
N1728 C1729 1.351 . S
C1729 C1723 1.428 . S
C1729 N1728 1.351 . S
C1729 C1730 1.434 . S
C1730 C1721 1.429 1_655 S
C1730 N1727 1.350 . S
C1730 C1729 1.434 . S
C1731 C1732 1.369 . S
C1731 C1733 1.419 1_655 S
C1731 H1735 0.930 . S
C1732 C1731 1.369 . S
C1732 C1741 1.429 . S
C1733 C1731 1.419 1_455 S
C1733 C1734 1.363 . S
C1733 H1736 0.929 . S
C1734 C1733 1.363 . S
C1734 C1740 1.428 . S
H1735 C1731 0.930 . S
H1736 C1733 0.929 . S
S1737 N1738 1.613 . S
S1737 N1739 1.610 1_655 S
N1738 S1737 1.613 . S
N1738 C1741 1.350 . S
N1739 S1737 1.610 1_455 S
N1739 C1740 1.351 . S
C1740 C1734 1.428 . S
C1740 N1739 1.351 . S
C1740 C1741 1.434 1_455 S
C1741 C1732 1.429 . S
C1741 N1738 1.350 . S
C1741 C1740 1.434 1_655 S
C1742 C1743 1.369 . S
C1742 C1744 1.419 . S
C1742 H1746 0.930 . S
C1743 C1742 1.369 . S
C1743 C1752 1.429 . S
C1744 C1742 1.419 . S
C1744 C1745 1.363 . S
C1744 H1747 0.929 . S
C1745 C1744 1.363 . S
C1745 C1751 1.428 . S
H1746 C1742 0.930 . S
H1747 C1744 0.929 . S
S1748 N1749 1.613 . S
S1748 N1750 1.610 . S
N1749 S1748 1.613 . S
N1749 C1752 1.350 . S
N1750 S1748 1.610 . S
N1750 C1751 1.351 . S
C1751 C1745 1.428 . S
C1751 N1750 1.351 . S
C1751 C1752 1.434 . S
C1752 C1743 1.429 . S
C1752 N1749 1.350 . S
C1752 C1751 1.434 . S
C1753 C1754 1.369 . S
C1753 C1755 1.419 . S
C1753 H1757 0.930 . S
C1754 C1753 1.369 . S
C1754 C1763 1.429 . S
C1755 C1753 1.419 . S
C1755 C1756 1.363 . S
C1755 H1758 0.929 . S
C1756 C1755 1.363 . S
C1756 C1762 1.428 . S
H1757 C1753 0.930 . S
H1758 C1755 0.929 . S
S1759 N1760 1.613 . S
S1759 N1761 1.610 . S
N1760 S1759 1.613 . S
N1760 C1763 1.350 . S
N1761 S1759 1.610 . S
N1761 C1762 1.351 . S
C1762 C1756 1.428 . S
C1762 N1761 1.351 . S
C1762 C1763 1.434 . S
C1763 C1754 1.429 . S
C1763 N1760 1.350 . S
C1763 C1762 1.434 . S
C1764 C1765 1.369 1_655 S
C1764 C1766 1.419 . S
C1764 H1768 0.930 . S
C1765 C1764 1.369 1_455 S
C1765 C1774 1.429 . S
C1766 C1764 1.419 . S
C1766 C1767 1.363 . S
C1766 H1769 0.929 . S
C1767 C1766 1.363 . S
C1767 C1773 1.428 1_655 S
H1768 C1764 0.930 . S
H1769 C1766 0.929 . S
S1770 N1771 1.613 . S
S1770 N1772 1.610 . S
N1771 S1770 1.613 . S
N1771 C1774 1.350 . S
N1772 S1770 1.610 . S
N1772 C1773 1.351 . S
C1773 C1767 1.428 1_455 S
C1773 N1772 1.351 . S
C1773 C1774 1.434 . S
C1774 C1765 1.429 . S
C1774 N1771 1.350 . S
C1774 C1773 1.434 . S
C1775 C1776 1.369 . S
C1775 C1777 1.419 . S
C1775 H1779 0.930 . S
C1776 C1775 1.369 . S
C1776 C1785 1.429 . S
C1777 C1775 1.419 . S
C1777 C1778 1.363 . S
C1777 H1780 0.929 . S
C1778 C1777 1.363 . S
C1778 C1784 1.428 . S
H1779 C1775 0.930 . S
H1780 C1777 0.929 . S
S1781 N1782 1.613 . S
S1781 N1783 1.610 . S
N1782 S1781 1.613 . S
N1782 C1785 1.350 . S
N1783 S1781 1.610 . S
N1783 C1784 1.351 . S
C1784 C1778 1.428 . S
C1784 N1783 1.351 . S
C1784 C1785 1.434 . S
C1785 C1776 1.429 . S
C1785 N1782 1.350 . S
C1785 C1784 1.434 . S
C1786 C1787 1.369 . S
C1786 C1788 1.419 . S
C1786 H1790 0.930 . S
C1787 C1786 1.369 . S
C1787 C1796 1.429 . S
C1788 C1786 1.419 . S
C1788 C1789 1.363 . S
C1788 H1791 0.929 . S
C1789 C1788 1.363 . S
C1789 C1795 1.428 . S
H1790 C1786 0.930 . S
H1791 C1788 0.929 . S
S1792 N1793 1.613 . S
S1792 N1794 1.610 . S
N1793 S1792 1.613 . S
N1793 C1796 1.350 . S
N1794 S1792 1.610 . S
N1794 C1795 1.351 . S
C1795 C1789 1.428 . S
C1795 N1794 1.351 . S
C1795 C1796 1.434 . S
C1796 C1787 1.429 . S
C1796 N1793 1.350 . S
C1796 C1795 1.434 . S
C1797 C1798 1.369 . S
C1797 C1799 1.419 1_655 S
C1797 H1801 0.930 . S
C1798 C1797 1.369 . S
C1798 C1807 1.429 . S
C1799 C1797 1.419 1_455 S
C1799 C1800 1.363 . S
C1799 H1802 0.929 . S
C1800 C1799 1.363 . S
C1800 C1806 1.428 . S
H1801 C1797 0.930 . S
H1802 C1799 0.929 . S
S1803 N1804 1.613 1_455 S
S1803 N1805 1.610 . S
N1804 S1803 1.613 1_655 S
N1804 C1807 1.350 . S
N1805 S1803 1.610 . S
N1805 C1806 1.351 . S
C1806 C1800 1.428 . S
C1806 N1805 1.351 . S
C1806 C1807 1.434 1_455 S
C1807 C1798 1.429 . S
C1807 N1804 1.350 . S
C1807 C1806 1.434 1_655 S
C1808 C1809 1.369 . S
C1808 C1810 1.419 . S
C1808 H1812 0.930 . S
C1809 C1808 1.369 . S
C1809 C1818 1.429 . S
C1810 C1808 1.419 . S
C1810 C1811 1.363 . S
C1810 H1813 0.929 . S
C1811 C1810 1.363 . S
C1811 C1817 1.428 . S
H1812 C1808 0.930 . S
H1813 C1810 0.929 . S
S1814 N1815 1.613 . S
S1814 N1816 1.610 . S
N1815 S1814 1.613 . S
N1815 C1818 1.350 . S
N1816 S1814 1.610 . S
N1816 C1817 1.351 . S
C1817 C1811 1.428 . S
C1817 N1816 1.351 . S
C1817 C1818 1.434 . S
C1818 C1809 1.429 . S
C1818 N1815 1.350 . S
C1818 C1817 1.434 . S
C1819 C1820 1.369 1_545 S
C1819 C1821 1.419 1_655 S
C1819 H1823 0.930 . S
C1820 C1819 1.369 1_565 S
C1820 C1829 1.429 . S
C1821 C1819 1.419 1_455 S
C1821 C1822 1.363 . S
C1821 H1824 0.929 . S
C1822 C1821 1.363 . S
C1822 C1828 1.428 1_545 S
H1823 C1819 0.930 . S
H1824 C1821 0.929 . S
S1825 N1826 1.613 1_455 S
S1825 N1827 1.610 . S
N1826 S1825 1.613 1_655 S
N1826 C1829 1.350 . S
N1827 S1825 1.610 . S
N1827 C1828 1.351 . S
C1828 C1822 1.428 1_565 S
C1828 N1827 1.351 . S
C1828 C1829 1.434 1_455 S
C1829 C1820 1.429 . S
C1829 N1826 1.350 . S
C1829 C1828 1.434 1_655 S
C1830 C1831 1.369 . S
C1830 C1832 1.419 . S
C1830 H1834 0.930 . S
C1831 C1830 1.369 . S
C1831 C1840 1.429 . S
C1832 C1830 1.419 . S
C1832 C1833 1.363 . S
C1832 H1835 0.929 . S
C1833 C1832 1.363 . S
C1833 C1839 1.428 . S
H1834 C1830 0.930 . S
H1835 C1832 0.929 . S
S1836 N1837 1.613 . S
S1836 N1838 1.610 . S
N1837 S1836 1.613 . S
N1837 C1840 1.350 . S
N1838 S1836 1.610 . S
N1838 C1839 1.351 . S
C1839 C1833 1.428 . S
C1839 N1838 1.351 . S
C1839 C1840 1.434 . S
C1840 C1831 1.429 . S
C1840 N1837 1.350 . S
C1840 C1839 1.434 . S
C1841 C1842 1.369 1_554 S
C1841 C1843 1.419 . S
C1841 H1845 0.930 . S
C1842 C1841 1.369 1_556 S
C1842 C1851 1.428 1_565 S
C1843 C1841 1.419 . S
C1843 C1844 1.363 1_564 S
C1843 H1846 0.929 . S
C1844 C1843 1.363 1_546 S
C1844 C1850 1.427 . S
H1845 C1841 0.930 . S
H1846 C1843 0.929 . S
S1847 N1848 1.613 . S
S1847 N1849 1.610 . S
N1848 S1847 1.613 . S
N1848 C1851 1.355 . S
N1849 S1847 1.610 . S
N1849 C1850 1.355 . S
C1850 C1844 1.427 . S
C1850 N1849 1.355 . S
C1850 C1851 1.434 . S
C1851 C1842 1.428 1_545 S
C1851 N1848 1.355 . S
C1851 C1850 1.434 . S
C1852 C1853 1.369 . S
C1852 C1854 1.419 . S
C1852 H1856 0.930 . S
C1853 C1852 1.369 . S
C1853 C1862 1.429 . S
C1854 C1852 1.419 . S
C1854 C1855 1.363 . S
C1854 H1857 0.929 . S
C1855 C1854 1.363 . S
C1855 C1861 1.428 . S
H1856 C1852 0.930 . S
H1857 C1854 0.929 . S
S1858 N1859 1.613 . S
S1858 N1860 1.610 . S
N1859 S1858 1.613 . S
N1859 C1862 1.350 . S
N1860 S1858 1.610 . S
N1860 C1861 1.351 . S
C1861 C1855 1.428 . S
C1861 N1860 1.351 . S
C1861 C1862 1.434 . S
C1862 C1853 1.429 . S
C1862 N1859 1.350 . S
C1862 C1861 1.434 . S
C1863 C1864 1.369 1_545 S
C1863 C1865 1.419 . S
C1863 H1867 0.930 . S
C1864 C1863 1.369 1_565 S
C1864 C1873 1.429 . S
C1865 C1863 1.419 . S
C1865 C1866 1.363 . S
C1865 H1868 0.929 . S
C1866 C1865 1.363 . S
C1866 C1872 1.428 1_545 S
H1867 C1863 0.930 . S
H1868 C1865 0.929 . S
S1869 N1870 1.613 . S
S1869 N1871 1.610 . S
N1870 S1869 1.613 . S
N1870 C1873 1.350 . S
N1871 S1869 1.610 . S
N1871 C1872 1.351 . S
C1872 C1866 1.428 1_565 S
C1872 N1871 1.351 . S
C1872 C1873 1.434 . S
C1873 C1864 1.429 . S
C1873 N1870 1.350 . S
C1873 C1872 1.434 . S
C1874 C1875 1.369 . S
C1874 C1876 1.419 . S
C1874 H1878 0.930 . S
C1875 C1874 1.369 . S
C1875 C1884 1.429 . S
C1876 C1874 1.419 . S
C1876 C1877 1.363 . S
C1876 H1879 0.929 . S
C1877 C1876 1.363 . S
C1877 C1883 1.428 . S
H1878 C1874 0.930 . S
H1879 C1876 0.929 . S
S1880 N1881 1.613 . S
S1880 N1882 1.610 . S
N1881 S1880 1.613 . S
N1881 C1884 1.350 . S
N1882 S1880 1.610 . S
N1882 C1883 1.351 . S
C1883 C1877 1.428 . S
C1883 N1882 1.351 . S
C1883 C1884 1.434 . S
C1884 C1875 1.429 . S
C1884 N1881 1.350 . S
C1884 C1883 1.434 . S
C1885 C1886 1.361 1_556 S
C1885 C1887 1.416 1_465 S
C1885 H1889 0.930 . S
C1886 C1885 1.361 1_554 S
C1886 C1895 1.437 . S
C1887 C1885 1.416 1_645 S
C1887 C1888 1.366 1_556 S
C1887 H1890 0.929 . S
C1888 C1887 1.366 1_554 S
C1888 C1894 1.428 . S
H1889 C1885 0.930 . S
H1890 C1887 0.929 . S
S1891 N1892 1.614 1_645 S
S1891 N1893 1.609 . S
N1892 S1891 1.614 1_465 S
N1892 C1895 1.350 . S
N1893 S1891 1.609 . S
N1893 C1894 1.351 . S
C1894 C1888 1.428 . S
C1894 N1893 1.351 . S
C1894 C1895 1.434 1_645 S
C1895 C1886 1.437 . S
C1895 N1892 1.350 . S
C1895 C1894 1.434 1_465 S
C1896 C1897 1.369 . S
C1896 C1898 1.419 . S
C1896 H1900 0.930 . S
C1897 C1896 1.369 . S
C1897 C1906 1.429 . S
C1898 C1896 1.419 . S
C1898 C1899 1.363 . S
C1898 H1901 0.929 . S
C1899 C1898 1.363 . S
C1899 C1905 1.428 . S
H1900 C1896 0.930 . S
H1901 C1898 0.929 . S
S1902 N1903 1.613 . S
S1902 N1904 1.610 . S
N1903 S1902 1.613 . S
N1903 C1906 1.350 . S
N1904 S1902 1.610 . S
N1904 C1905 1.351 . S
C1905 C1899 1.428 . S
C1905 N1904 1.351 . S
C1905 C1906 1.434 . S
C1906 C1897 1.429 . S
C1906 N1903 1.350 . S
C1906 C1905 1.434 . S
C1907 C1908 1.369 . S
C1907 C1909 1.419 . S
C1907 H1911 0.930 . S
C1908 C1907 1.369 . S
C1908 C1917 1.429 . S
C1909 C1907 1.419 . S
C1909 C1910 1.363 . S
C1909 H1912 0.929 . S
C1910 C1909 1.363 . S
C1910 C1916 1.428 . S
H1911 C1907 0.930 . S
H1912 C1909 0.929 . S
S1913 N1914 1.613 . S
S1913 N1915 1.610 . S
N1914 S1913 1.613 . S
N1914 C1917 1.350 . S
N1915 S1913 1.610 . S
N1915 C1916 1.351 . S
C1916 C1910 1.428 . S
C1916 N1915 1.351 . S
C1916 C1917 1.434 . S
C1917 C1908 1.429 . S
C1917 N1914 1.350 . S
C1917 C1916 1.434 . S
C1918 C1919 1.369 . S
C1918 C1920 1.419 . S
C1918 H1922 0.930 . S
C1919 C1918 1.369 . S
C1919 C1928 1.429 . S
C1920 C1918 1.419 . S
C1920 C1921 1.363 . S
C1920 H1923 0.929 . S
C1921 C1920 1.363 . S
C1921 C1927 1.428 . S
H1922 C1918 0.930 . S
H1923 C1920 0.929 . S
S1924 N1925 1.613 . S
S1924 N1926 1.610 . S
N1925 S1924 1.613 . S
N1925 C1928 1.350 . S
N1926 S1924 1.610 . S
N1926 C1927 1.351 . S
C1927 C1921 1.428 . S
C1927 N1926 1.351 . S
C1927 C1928 1.434 . S
C1928 C1919 1.429 . S
C1928 N1925 1.350 . S
C1928 C1927 1.434 . S
C1929 C1930 1.369 . S
C1929 C1931 1.419 . S
C1929 H1933 0.930 . S
C1930 C1929 1.369 . S
C1930 C1939 1.429 . S
C1931 C1929 1.419 . S
C1931 C1932 1.363 . S
C1931 H1934 0.929 . S
C1932 C1931 1.363 . S
C1932 C1938 1.428 . S
H1933 C1929 0.930 . S
H1934 C1931 0.929 . S
S1935 N1936 1.613 . S
S1935 N1937 1.610 . S
N1936 S1935 1.613 . S
N1936 C1939 1.350 . S
N1937 S1935 1.610 . S
N1937 C1938 1.351 . S
C1938 C1932 1.428 . S
C1938 N1937 1.351 . S
C1938 C1939 1.434 . S
C1939 C1930 1.429 . S
C1939 N1936 1.350 . S
C1939 C1938 1.434 . S
C1940 C1941 1.360 1_554 S
C1940 C1942 1.419 . S
C1940 H1944 0.930 . S
C1941 C1940 1.360 1_556 S
C1941 C1950 1.438 . S
C1942 C1940 1.419 . S
C1942 C1943 1.363 1_554 S
C1942 H1945 0.929 . S
C1943 C1942 1.363 1_556 S
C1943 C1949 1.428 . S
H1944 C1940 0.930 . S
H1945 C1942 0.929 . S
S1946 N1947 1.613 . S
S1946 N1948 1.610 . S
N1947 S1946 1.613 . S
N1947 C1950 1.350 . S
N1948 S1946 1.610 . S
N1948 C1949 1.351 . S
C1949 C1943 1.428 . S
C1949 N1948 1.351 . S
C1949 C1950 1.434 . S
C1950 C1941 1.438 . S
C1950 N1947 1.350 . S
C1950 C1949 1.434 . S
C1951 C1952 1.369 . S
C1951 C1953 1.419 1_655 S
C1951 H1955 0.930 . S
C1952 C1951 1.369 . S
C1952 C1961 1.429 . S
C1953 C1951 1.419 1_455 S
C1953 C1954 1.363 . S
C1953 H1956 0.929 . S
C1954 C1953 1.363 . S
C1954 C1960 1.428 . S
H1955 C1951 0.930 . S
H1956 C1953 0.929 . S
S1957 N1958 1.613 1_455 S
S1957 N1959 1.610 . S
N1958 S1957 1.613 1_655 S
N1958 C1961 1.350 . S
N1959 S1957 1.610 . S
N1959 C1960 1.351 . S
C1960 C1954 1.428 . S
C1960 N1959 1.351 . S
C1960 C1961 1.434 1_455 S
C1961 C1952 1.429 . S
C1961 N1958 1.350 . S
C1961 C1960 1.434 1_655 S
C1962 C1963 1.371 1_554 S
C1962 C1964 1.419 1_455 S
C1962 H1966 0.930 . S
C1963 C1962 1.371 1_556 S
C1963 C1972 1.427 . S
C1964 C1962 1.419 1_655 S
C1964 C1965 1.359 . S
C1964 H1967 0.929 . S
C1965 C1964 1.359 . S
C1965 C1971 1.432 1_554 S
H1966 C1962 0.930 . S
H1967 C1964 0.929 . S
S1968 N1969 1.613 . S
S1968 N1970 1.610 1_455 S
N1969 S1968 1.613 . S
N1969 C1972 1.350 . S
N1970 S1968 1.610 1_655 S
N1970 C1971 1.351 . S
C1971 C1965 1.432 1_556 S
C1971 N1970 1.351 . S
C1971 C1972 1.434 1_655 S
C1972 C1963 1.427 . S
C1972 N1969 1.350 . S
C1972 C1971 1.434 1_455 S
C1973 C1974 1.369 . S
C1973 C1975 1.419 . S
C1973 H1977 0.930 . S
C1974 C1973 1.369 . S
C1974 C1983 1.429 . S
C1975 C1973 1.419 . S
C1975 C1976 1.363 . S
C1975 H1978 0.929 . S
C1976 C1975 1.363 . S
C1976 C1982 1.428 . S
H1977 C1973 0.930 . S
H1978 C1975 0.929 . S
S1979 N1980 1.613 . S
S1979 N1981 1.610 . S
N1980 S1979 1.613 . S
N1980 C1983 1.350 . S
N1981 S1979 1.610 . S
N1981 C1982 1.351 . S
C1982 C1976 1.428 . S
C1982 N1981 1.351 . S
C1982 C1983 1.434 . S
C1983 C1974 1.429 . S
C1983 N1980 1.350 . S
C1983 C1982 1.434 . S
C1984 C1985 1.369 1_545 S
C1984 C1986 1.419 1_545 S
C1984 H1988 0.930 . S
C1985 C1984 1.369 1_565 S
C1985 C1994 1.429 . S
C1986 C1984 1.419 1_565 S
C1986 C1987 1.363 . S
C1986 H1989 0.929 1_565 S
C1987 C1986 1.363 . S
C1987 C1993 1.428 . S
H1988 C1984 0.930 . S
H1989 C1986 0.929 1_545 S
S1990 N1991 1.613 . S
S1990 N1992 1.610 . S
N1991 S1990 1.613 . S
N1991 C1994 1.350 . S
N1992 S1990 1.610 . S
N1992 C1993 1.351 . S
C1993 C1987 1.428 . S
C1993 N1992 1.351 . S
C1993 C1994 1.434 . S
C1994 C1985 1.429 . S
C1994 N1991 1.350 . S
C1994 C1993 1.434 . S
C1995 C1996 1.369 . S
C1995 C1997 1.419 . S
C1995 H1999 0.930 . S
C1996 C1995 1.369 . S
C1996 C2005 1.429 1_565 S
C1997 C1995 1.419 . S
C1997 C1998 1.363 . S
C1997 H2000 0.929 . S
C1998 C1997 1.363 . S
C1998 C2004 1.428 . S
H1999 C1995 0.930 . S
H2000 C1997 0.929 . S
S2001 N2002 1.613 . S
S2001 N2003 1.610 . S
N2002 S2001 1.613 . S
N2002 C2005 1.350 . S
N2003 S2001 1.610 . S
N2003 C2004 1.351 1_545 S
C2004 C1998 1.428 . S
C2004 N2003 1.351 1_565 S
C2004 C2005 1.434 1_565 S
C2005 C1996 1.429 1_545 S
C2005 N2002 1.350 . S
C2005 C2004 1.434 1_545 S
C2006 C2007 1.369 . S
C2006 C2008 1.419 . S
C2006 H2010 0.930 . S
C2007 C2006 1.369 . S
C2007 C2016 1.429 . S
C2008 C2006 1.419 . S
C2008 C2009 1.363 . S
C2008 H2011 0.929 . S
C2009 C2008 1.363 . S
C2009 C2015 1.428 1_545 S
H2010 C2006 0.930 . S
H2011 C2008 0.929 . S
S2012 N2013 1.613 . S
S2012 N2014 1.610 . S
N2013 S2012 1.613 . S
N2013 C2016 1.350 1_565 S
N2014 S2012 1.610 . S
N2014 C2015 1.351 . S
C2015 C2009 1.428 1_565 S
C2015 N2014 1.351 . S
C2015 C2016 1.434 1_565 S
C2016 C2007 1.429 . S
C2016 N2013 1.350 1_545 S
C2016 C2015 1.434 1_545 S
C2017 C2018 1.369 . S
C2017 C2019 1.419 . S
C2017 H2021 0.930 . S
C2018 C2017 1.369 . S
C2018 C2027 1.429 . S
C2019 C2017 1.419 . S
C2019 C2020 1.363 . S
C2019 H2022 0.929 . S
C2020 C2019 1.363 . S
C2020 C2026 1.428 . S
H2021 C2017 0.930 . S
H2022 C2019 0.929 . S
S2023 N2024 1.613 . S
S2023 N2025 1.610 . S
N2024 S2023 1.613 . S
N2024 C2027 1.350 . S
N2025 S2023 1.610 . S
N2025 C2026 1.351 . S
C2026 C2020 1.428 . S
C2026 N2025 1.351 . S
C2026 C2027 1.434 . S
C2027 C2018 1.429 . S
C2027 N2024 1.350 . S
C2027 C2026 1.434 . S
C2028 C2029 1.369 . S
C2028 C2030 1.419 . S
C2028 H2032 0.930 . S
C2029 C2028 1.369 . S
C2029 C2038 1.429 . S
C2030 C2028 1.419 . S
C2030 C2031 1.363 . S
C2030 H2033 0.929 . S
C2031 C2030 1.363 . S
C2031 C2037 1.428 . S
H2032 C2028 0.930 . S
H2033 C2030 0.929 . S
S2034 N2035 1.613 . S
S2034 N2036 1.610 . S
N2035 S2034 1.613 . S
N2035 C2038 1.350 . S
N2036 S2034 1.610 . S
N2036 C2037 1.351 . S
C2037 C2031 1.428 . S
C2037 N2036 1.351 . S
C2037 C2038 1.434 . S
C2038 C2029 1.429 . S
C2038 N2035 1.350 . S
C2038 C2037 1.434 . S
C2039 C2040 1.369 . S
C2039 C2041 1.419 . S
C2039 H2043 0.930 . S
C2040 C2039 1.369 . S
C2040 C2049 1.429 . S
C2041 C2039 1.419 . S
C2041 C2042 1.363 . S
C2041 H2044 0.942 . S
C2042 C2041 1.363 . S
C2042 C2048 1.428 . S
H2043 C2039 0.930 . S
H2044 C2041 0.942 . S
S2045 N2046 1.613 . S
S2045 N2047 1.610 . S
N2046 S2045 1.613 . S
N2046 C2049 1.350 . S
N2047 S2045 1.610 . S
N2047 C2048 1.351 . S
C2048 C2042 1.428 . S
C2048 N2047 1.351 . S
C2048 C2049 1.434 . S
C2049 C2040 1.429 . S
C2049 N2046 1.350 . S
C2049 C2048 1.434 . S
C2050 C2051 1.369 . S
C2050 C2052 1.419 . S
C2050 H2054 0.930 . S
C2051 C2050 1.369 . S
C2051 C2060 1.429 . S
C2052 C2050 1.419 . S
C2052 C2053 1.363 . S
C2052 H2055 0.929 . S
C2053 C2052 1.363 . S
C2053 C2059 1.428 1_565 S
H2054 C2050 0.930 . S
H2055 C2052 0.929 . S
S2056 N2057 1.613 . S
S2056 N2058 1.610 . S
N2057 S2056 1.613 . S
N2057 C2060 1.350 1_545 S
N2058 S2056 1.610 . S
N2058 C2059 1.351 . S
C2059 C2053 1.428 1_545 S
C2059 N2058 1.351 . S
C2059 C2060 1.434 1_545 S
C2060 C2051 1.429 . S
C2060 N2057 1.350 1_565 S
C2060 C2059 1.434 1_565 S
C2061 C2062 1.369 . S
C2061 C2063 1.419 . S
C2061 H2065 0.930 . S
C2062 C2061 1.369 . S
C2062 C2071 1.429 . S
C2063 C2061 1.419 . S
C2063 C2064 1.363 . S
C2063 H2066 0.929 . S
C2064 C2063 1.363 . S
C2064 C2070 1.428 . S
H2065 C2061 0.930 . S
H2066 C2063 0.929 . S
S2067 N2068 1.613 . S
S2067 N2069 1.610 . S
N2068 S2067 1.613 . S
N2068 C2071 1.350 . S
N2069 S2067 1.610 . S
N2069 C2070 1.351 . S
C2070 C2064 1.428 . S
C2070 N2069 1.351 . S
C2070 C2071 1.434 . S
C2071 C2062 1.429 . S
C2071 N2068 1.350 . S
C2071 C2070 1.434 . S
C2072 C2073 1.369 . S
C2072 C2074 1.419 . S
C2072 H2076 0.930 . S
C2073 C2072 1.369 . S
C2073 C2082 1.429 . S
C2074 C2072 1.419 . S
C2074 C2075 1.363 . S
C2074 H2077 0.929 . S
C2075 C2074 1.363 . S
C2075 C2081 1.428 . S
H2076 C2072 0.930 . S
H2077 C2074 0.929 . S
S2078 N2079 1.613 . S
S2078 N2080 1.610 . S
N2079 S2078 1.613 . S
N2079 C2082 1.350 . S
N2080 S2078 1.610 . S
N2080 C2081 1.351 . S
C2081 C2075 1.428 . S
C2081 N2080 1.351 . S
C2081 C2082 1.434 . S
C2082 C2073 1.429 . S
C2082 N2079 1.350 . S
C2082 C2081 1.434 . S
C2083 C2084 1.369 . S
C2083 C2085 1.419 . S
C2083 H2087 0.930 . S
C2084 C2083 1.369 . S
C2084 C2093 1.429 . S
C2085 C2083 1.419 . S
C2085 C2086 1.363 . S
C2085 H2088 0.929 . S
C2086 C2085 1.363 . S
C2086 C2092 1.428 . S
H2087 C2083 0.930 . S
H2088 C2085 0.929 . S
S2089 N2090 1.613 . S
S2089 N2091 1.610 . S
N2090 S2089 1.613 . S
N2090 C2093 1.350 . S
N2091 S2089 1.610 . S
N2091 C2092 1.351 . S
C2092 C2086 1.428 . S
C2092 N2091 1.351 . S
C2092 C2093 1.434 . S
C2093 C2084 1.429 . S
C2093 N2090 1.350 . S
C2093 C2092 1.434 . S
C2094 C2095 1.369 . S
C2094 C2096 1.419 . S
C2094 H2098 0.930 . S
C2095 C2094 1.369 . S
C2095 C2104 1.429 . S
C2096 C2094 1.419 . S
C2096 C2097 1.363 . S
C2096 H2099 0.929 . S
C2097 C2096 1.363 . S
C2097 C2103 1.428 . S
H2098 C2094 0.930 . S
H2099 C2096 0.929 . S
S2100 N2101 1.613 . S
S2100 N2102 1.610 . S
N2101 S2100 1.613 . S
N2101 C2104 1.350 . S
N2102 S2100 1.610 . S
N2102 C2103 1.351 . S
C2103 C2097 1.428 . S
C2103 N2102 1.351 . S
C2103 C2104 1.434 . S
C2104 C2095 1.429 . S
C2104 N2101 1.350 . S
C2104 C2103 1.434 . S
C2105 C2106 1.369 . S
C2105 C2107 1.419 . S
C2105 H2109 0.930 . S
C2106 C2105 1.369 . S
C2106 C2115 1.429 . S
C2107 C2105 1.419 . S
C2107 C2108 1.363 . S
C2107 H2110 0.929 . S
C2108 C2107 1.363 . S
C2108 C2114 1.428 . S
H2109 C2105 0.930 . S
H2110 C2107 0.929 . S
S2111 N2112 1.613 . S
S2111 N2113 1.610 . S
N2112 S2111 1.613 . S
N2112 C2115 1.350 . S
N2113 S2111 1.610 . S
N2113 C2114 1.351 . S
C2114 C2108 1.428 . S
C2114 N2113 1.351 . S
C2114 C2115 1.434 . S
C2115 C2106 1.429 . S
C2115 N2112 1.350 . S
C2115 C2114 1.434 . S
C2116 C2117 1.369 . S
C2116 C2118 1.419 . S
C2116 H2120 0.930 . S
C2117 C2116 1.369 . S
C2117 C2126 1.429 . S
C2118 C2116 1.419 . S
C2118 C2119 1.363 . S
C2118 H2121 0.929 . S
C2119 C2118 1.363 . S
C2119 C2125 1.428 . S
H2120 C2116 0.930 . S
H2121 C2118 0.929 . S
S2122 N2123 1.613 . S
S2122 N2124 1.610 . S
N2123 S2122 1.613 . S
N2123 C2126 1.350 . S
N2124 S2122 1.610 . S
N2124 C2125 1.351 . S
C2125 C2119 1.428 . S
C2125 N2124 1.351 . S
C2125 C2126 1.434 . S
C2126 C2117 1.429 . S
C2126 N2123 1.350 . S
C2126 C2125 1.434 . S
C2127 C2128 1.369 . S
C2127 C2129 1.419 . S
C2127 H2131 0.930 . S
C2128 C2127 1.369 . S
C2128 C2137 1.429 . S
C2129 C2127 1.419 . S
C2129 C2130 1.363 . S
C2129 H2132 0.929 . S
C2130 C2129 1.363 . S
C2130 C2136 1.428 . S
H2131 C2127 0.930 . S
H2132 C2129 0.929 . S
S2133 N2134 1.613 . S
S2133 N2135 1.610 . S
N2134 S2133 1.613 . S
N2134 C2137 1.350 . S
N2135 S2133 1.610 . S
N2135 C2136 1.351 . S
C2136 C2130 1.428 . S
C2136 N2135 1.351 . S
C2136 C2137 1.434 . S
C2137 C2128 1.429 . S
C2137 N2134 1.350 . S
C2137 C2136 1.434 . S
C2138 C2139 1.369 . S
C2138 C2140 1.419 . S
C2138 H2142 0.930 . S
C2139 C2138 1.369 . S
C2139 C2148 1.429 . S
C2140 C2138 1.419 . S
C2140 C2141 1.363 . S
C2140 H2143 0.929 . S
C2141 C2140 1.363 . S
C2141 C2147 1.428 . S
H2142 C2138 0.930 . S
H2143 C2140 0.929 . S
S2144 N2145 1.613 . S
S2144 N2146 1.610 . S
N2145 S2144 1.613 . S
N2145 C2148 1.350 . S
N2146 S2144 1.610 . S
N2146 C2147 1.351 . S
C2147 C2141 1.428 . S
C2147 N2146 1.351 . S
C2147 C2148 1.434 . S
C2148 C2139 1.429 . S
C2148 N2145 1.350 . S
C2148 C2147 1.434 . S
C2149 C2150 1.369 . S
C2149 C2151 1.419 . S
C2149 H2153 0.930 . S
C2150 C2149 1.369 . S
C2150 C2159 1.429 . S
C2151 C2149 1.419 . S
C2151 C2152 1.363 . S
C2151 H2154 0.929 . S
C2152 C2151 1.363 . S
C2152 C2158 1.428 . S
H2153 C2149 0.930 . S
H2154 C2151 0.929 . S
S2155 N2156 1.613 . S
S2155 N2157 1.610 . S
N2156 S2155 1.613 . S
N2156 C2159 1.350 . S
N2157 S2155 1.610 . S
N2157 C2158 1.351 . S
C2158 C2152 1.428 . S
C2158 N2157 1.351 . S
C2158 C2159 1.434 . S
C2159 C2150 1.429 . S
C2159 N2156 1.350 . S
C2159 C2158 1.434 . S
C2160 C2161 1.369 1_565 S
C2160 C2162 1.419 . S
C2160 H2164 0.930 . S
C2161 C2160 1.369 1_545 S
C2161 C2170 1.429 . S
C2162 C2160 1.419 . S
C2162 C2163 1.363 . S
C2162 H2165 0.929 . S
C2163 C2162 1.363 . S
C2163 C2169 1.428 1_565 S
H2164 C2160 0.930 . S
H2165 C2162 0.929 . S
S2166 N2167 1.613 . S
S2166 N2168 1.610 . S
N2167 S2166 1.613 . S
N2167 C2170 1.350 . S
N2168 S2166 1.610 . S
N2168 C2169 1.351 . S
C2169 C2163 1.428 1_545 S
C2169 N2168 1.351 . S
C2169 C2170 1.434 . S
C2170 C2161 1.429 . S
C2170 N2167 1.350 . S
C2170 C2169 1.434 . S
C2171 C2172 1.369 . S
C2171 C2173 1.419 . S
C2171 H2175 0.930 . S
C2172 C2171 1.369 . S
C2172 C2181 1.429 . S
C2173 C2171 1.419 . S
C2173 C2174 1.363 . S
C2173 H2176 0.929 . S
C2174 C2173 1.363 . S
C2174 C2180 1.428 . S
H2175 C2171 0.930 . S
H2176 C2173 0.929 . S
S2177 N2178 1.613 . S
S2177 N2179 1.610 . S
N2178 S2177 1.613 . S
N2178 C2181 1.350 . S
N2179 S2177 1.610 . S
N2179 C2180 1.351 . S
C2180 C2174 1.428 . S
C2180 N2179 1.351 . S
C2180 C2181 1.434 . S
C2181 C2172 1.429 . S
C2181 N2178 1.350 . S
C2181 C2180 1.434 . S
C2182 C2183 1.369 1_565 S
C2182 C2184 1.419 . S
C2182 H2186 0.930 . S
C2183 C2182 1.369 1_545 S
C2183 C2192 1.429 . S
C2184 C2182 1.419 . S
C2184 C2185 1.363 . S
C2184 H2187 0.929 . S
C2185 C2184 1.363 . S
C2185 C2191 1.428 1_565 S
H2186 C2182 0.930 . S
H2187 C2184 0.929 . S
S2188 N2189 1.613 . S
S2188 N2190 1.610 . S
N2189 S2188 1.613 . S
N2189 C2192 1.350 . S
N2190 S2188 1.610 . S
N2190 C2191 1.351 . S
C2191 C2185 1.428 1_545 S
C2191 N2190 1.351 . S
C2191 C2192 1.434 . S
C2192 C2183 1.429 . S
C2192 N2189 1.350 . S
C2192 C2191 1.434 . S
C2193 C2194 1.369 . S
C2193 C2195 1.419 1_556 S
C2193 H2197 0.930 . S
C2194 C2193 1.369 . S
C2194 C2203 1.429 . S
C2195 C2193 1.419 1_554 S
C2195 C2196 1.363 . S
C2195 H2198 0.929 . S
C2196 C2195 1.363 . S
C2196 C2202 1.428 . S
H2197 C2193 0.930 . S
H2198 C2195 0.929 . S
S2199 N2200 1.613 1_554 S
S2199 N2201 1.610 . S
N2200 S2199 1.613 1_556 S
N2200 C2203 1.350 . S
N2201 S2199 1.610 . S
N2201 C2202 1.351 . S
C2202 C2196 1.428 . S
C2202 N2201 1.351 . S
C2202 C2203 1.434 1_554 S
C2203 C2194 1.429 . S
C2203 N2200 1.350 . S
C2203 C2202 1.434 1_556 S
C2204 C2205 1.369 . S
C2204 C2206 1.419 . S
C2204 H2208 0.930 . S
C2205 C2204 1.369 . S
C2205 C2214 1.429 1_565 S
C2206 C2204 1.419 . S
C2206 C2207 1.363 1_565 S
C2206 H2209 0.929 . S
C2207 C2206 1.363 1_545 S
C2207 C2213 1.428 . S
H2208 C2204 0.930 . S
H2209 C2206 0.929 . S
S2210 N2211 1.613 . S
S2210 N2212 1.610 . S
N2211 S2210 1.613 . S
N2211 C2214 1.350 . S
N2212 S2210 1.610 . S
N2212 C2213 1.351 . S
C2213 C2207 1.428 . S
C2213 N2212 1.351 . S
C2213 C2214 1.434 . S
C2214 C2205 1.429 1_545 S
C2214 N2211 1.350 . S
C2214 C2213 1.434 . S
C2215 C2216 1.369 . S
C2215 C2217 1.419 . S
C2215 H2219 0.930 . S
C2216 C2215 1.369 . S
C2216 C2225 1.429 . S
C2217 C2215 1.419 . S
C2217 C2218 1.363 . S
C2217 H2220 0.929 . S
C2218 C2217 1.363 . S
C2218 C2224 1.428 . S
H2219 C2215 0.930 . S
H2220 C2217 0.929 . S
S2221 N2222 1.613 . S
S2221 N2223 1.610 . S
N2222 S2221 1.613 . S
N2222 C2225 1.350 . S
N2223 S2221 1.610 . S
N2223 C2224 1.351 . S
C2224 C2218 1.428 . S
C2224 N2223 1.351 . S
C2224 C2225 1.434 . S
C2225 C2216 1.429 . S
C2225 N2222 1.350 . S
C2225 C2224 1.434 . S
C2226 C2227 1.369 1_545 S
C2226 C2228 1.419 . S
C2226 H2230 0.930 . S
C2227 C2226 1.369 1_565 S
C2227 C2236 1.429 . S
C2228 C2226 1.419 . S
C2228 C2229 1.363 . S
C2228 H2231 0.929 . S
C2229 C2228 1.363 . S
C2229 C2235 1.428 1_545 S
H2230 C2226 0.930 . S
H2231 C2228 0.929 . S
S2232 N2233 1.613 . S
S2232 N2234 1.610 . S
N2233 S2232 1.613 . S
N2233 C2236 1.350 . S
N2234 S2232 1.610 . S
N2234 C2235 1.351 . S
C2235 C2229 1.428 1_565 S
C2235 N2234 1.351 . S
C2235 C2236 1.434 . S
C2236 C2227 1.429 . S
C2236 N2233 1.350 . S
C2236 C2235 1.434 . S
C2237 C2238 1.369 . S
C2237 C2239 1.419 1_554 S
C2237 H2241 0.930 . S
C2238 C2237 1.369 . S
C2238 C2247 1.429 . S
C2239 C2237 1.419 1_556 S
C2239 C2240 1.363 . S
C2239 H2242 0.929 . S
C2240 C2239 1.363 . S
C2240 C2246 1.428 . S
H2241 C2237 0.930 . S
H2242 C2239 0.929 . S
S2243 N2244 1.613 1_556 S
S2243 N2245 1.610 . S
N2244 S2243 1.613 1_554 S
N2244 C2247 1.350 . S
N2245 S2243 1.610 . S
N2245 C2246 1.351 . S
C2246 C2240 1.428 . S
C2246 N2245 1.351 . S
C2246 C2247 1.434 1_556 S
C2247 C2238 1.429 . S
C2247 N2244 1.350 . S
C2247 C2246 1.434 1_554 S
C2248 C2249 1.369 . S
C2248 C2250 1.419 . S
C2248 H2252 0.930 . S
C2249 C2248 1.369 . S
C2249 C2258 1.429 . S
C2250 C2248 1.419 . S
C2250 C2251 1.363 . S
C2250 H2253 0.929 . S
C2251 C2250 1.363 . S
C2251 C2257 1.428 . S
H2252 C2248 0.930 . S
H2253 C2250 0.929 . S
S2254 N2255 1.613 . S
S2254 N2256 1.610 . S
N2255 S2254 1.613 . S
N2255 C2258 1.350 . S
N2256 S2254 1.610 . S
N2256 C2257 1.351 . S
C2257 C2251 1.428 . S
C2257 N2256 1.351 . S
C2257 C2258 1.434 . S
C2258 C2249 1.429 . S
C2258 N2255 1.350 . S
C2258 C2257 1.434 . S
C2259 C2260 1.369 . S
C2259 C2261 1.419 1_556 S
C2259 H2263 0.930 . S
C2260 C2259 1.369 . S
C2260 C2269 1.429 . S
C2261 C2259 1.419 1_554 S
C2261 C2262 1.363 . S
C2261 H2264 0.929 . S
C2262 C2261 1.363 . S
C2262 C2268 1.428 . S
H2263 C2259 0.930 . S
H2264 C2261 0.929 . S
S2265 N2266 1.613 1_554 S
S2265 N2267 1.610 . S
N2266 S2265 1.613 1_556 S
N2266 C2269 1.350 . S
N2267 S2265 1.610 . S
N2267 C2268 1.351 . S
C2268 C2262 1.428 . S
C2268 N2267 1.351 . S
C2268 C2269 1.434 1_554 S
C2269 C2260 1.429 . S
C2269 N2266 1.350 . S
C2269 C2268 1.434 1_556 S
C2270 C2271 1.369 . S
C2270 C2272 1.419 . S
C2270 H2274 0.930 . S
C2271 C2270 1.369 . S
C2271 C2280 1.429 . S
C2272 C2270 1.419 . S
C2272 C2273 1.363 . S
C2272 H2275 0.929 . S
C2273 C2272 1.363 . S
C2273 C2279 1.428 . S
H2274 C2270 0.930 . S
H2275 C2272 0.929 . S
S2276 N2277 1.613 . S
S2276 N2278 1.610 . S
N2277 S2276 1.613 . S
N2277 C2280 1.350 . S
N2278 S2276 1.610 . S
N2278 C2279 1.351 . S
C2279 C2273 1.428 . S
C2279 N2278 1.351 . S
C2279 C2280 1.434 . S
C2280 C2271 1.429 . S
C2280 N2277 1.350 . S
C2280 C2279 1.434 . S
C2281 C2282 1.369 . S
C2281 C2283 1.419 . S
C2281 H2285 0.930 . S
C2282 C2281 1.369 . S
C2282 C2291 1.429 . S
C2283 C2281 1.419 . S
C2283 C2284 1.363 . S
C2283 H2286 0.929 . S
C2284 C2283 1.363 . S
C2284 C2290 1.428 . S
H2285 C2281 0.930 . S
H2286 C2283 0.929 . S
S2287 N2288 1.613 . S
S2287 N2289 1.610 . S
N2288 S2287 1.613 . S
N2288 C2291 1.350 . S
N2289 S2287 1.610 . S
N2289 C2290 1.351 . S
C2290 C2284 1.428 . S
C2290 N2289 1.351 . S
C2290 C2291 1.434 . S
C2291 C2282 1.429 . S
C2291 N2288 1.350 . S
C2291 C2290 1.434 . S
C2292 C2293 1.369 . S
C2292 C2294 1.419 . S
C2292 H2296 0.930 . S
C2293 C2292 1.369 . S
C2293 C2302 1.429 . S
C2294 C2292 1.419 . S
C2294 C2295 1.363 . S
C2294 H2297 0.929 . S
C2295 C2294 1.363 . S
C2295 C2301 1.428 . S
H2296 C2292 0.930 . S
H2297 C2294 0.929 . S
S2298 N2299 1.613 . S
S2298 N2300 1.610 . S
N2299 S2298 1.613 . S
N2299 C2302 1.350 . S
N2300 S2298 1.610 . S
N2300 C2301 1.351 . S
C2301 C2295 1.428 . S
C2301 N2300 1.351 . S
C2301 C2302 1.434 . S
C2302 C2293 1.429 . S
C2302 N2299 1.350 . S
C2302 C2301 1.434 . S
C2303 C2304 1.369 . S
C2303 C2305 1.419 1_556 S
C2303 H2307 0.930 . S
C2304 C2303 1.369 . S
C2304 C2313 1.429 . S
C2305 C2303 1.419 1_554 S
C2305 C2306 1.363 . S
C2305 H2308 0.929 . S
C2306 C2305 1.363 . S
C2306 C2312 1.428 . S
H2307 C2303 0.930 . S
H2308 C2305 0.929 . S
S2309 N2310 1.629 . S
S2309 N2311 1.594 1_556 S
N2310 S2309 1.629 . S
N2310 C2313 1.350 . S
N2311 S2309 1.594 1_554 S
N2311 C2312 1.351 . S
C2312 C2306 1.428 . S
C2312 N2311 1.351 . S
C2312 C2313 1.434 1_554 S
C2313 C2304 1.429 . S
C2313 N2310 1.350 . S
C2313 C2312 1.434 1_556 S
C2314 C2315 1.369 . S
C2314 C2316 1.419 . S
C2314 H2318 0.930 . S
C2315 C2314 1.369 . S
C2315 C2324 1.429 . S
C2316 C2314 1.419 . S
C2316 C2317 1.363 . S
C2316 H2319 0.929 . S
C2317 C2316 1.363 . S
C2317 C2323 1.428 . S
H2318 C2314 0.930 . S
H2319 C2316 0.929 . S
S2320 N2321 1.613 . S
S2320 N2322 1.610 . S
N2321 S2320 1.613 . S
N2321 C2324 1.350 . S
N2322 S2320 1.610 . S
N2322 C2323 1.351 . S
C2323 C2317 1.428 . S
C2323 N2322 1.351 . S
C2323 C2324 1.434 . S
C2324 C2315 1.429 . S
C2324 N2321 1.350 . S
C2324 C2323 1.434 . S
C2325 C2326 1.369 . S
C2325 C2327 1.419 . S
C2325 H2329 0.930 . S
C2326 C2325 1.369 . S
C2326 C2335 1.429 . S
C2327 C2325 1.419 . S
C2327 C2328 1.363 . S
C2327 H2330 0.929 . S
C2328 C2327 1.363 . S
C2328 C2334 1.428 . S
H2329 C2325 0.930 . S
H2330 C2327 0.929 . S
S2331 N2332 1.613 . S
S2331 N2333 1.610 . S
N2332 S2331 1.613 . S
N2332 C2335 1.350 . S
N2333 S2331 1.610 . S
N2333 C2334 1.351 . S
C2334 C2328 1.428 . S
C2334 N2333 1.351 . S
C2334 C2335 1.434 . S
C2335 C2326 1.429 . S
C2335 N2332 1.350 . S
C2335 C2334 1.434 . S
C1281 C10 0.750 . S
C1283 C1095 0.788 . S
C1292 C50 0.766 . S
C1294 C335 0.777 . S
C1303 C90 0.780 . S
C1305 C1015 0.766 . S
C1314 C415 0.762 . S
C1316 C130 0.776 . S
C1325 C170 0.752 . S
C1327 C1175 0.787 . S
C1336 C575 0.766 . S
C1338 C210 0.774 . S
C1347 C1255 0.761 . S
C1349 C250 0.777 . S
C1358 C290 0.752 . S
C1360 C495 0.787 . S
C1369 C339 0.762 . S
C1371 C766 0.778 . S
C1380 C379 0.750 . S
C1382 C6 0.787 . S
C1391 C686 0.761 . S
C1393 C419 0.777 . S
C1402 C86 0.763 . S
C1404 C459 0.774 . S
C1413 C499 0.781 . S
C1415 C846 0.765 . S
C1424 C539 0.765 . S
C1426 C246 0.777 . S
C1435 C579 0.767 . S
C1437 C926 0.776 . S
C1446 C166 0.794 . S
C1448 C619 0.751 . S
C1457 C455 0.778 . S
C1459 C650 0.765 . S
C1468 C975 0.763 . S
C1470 C690 0.776 . S
C1479 C375 0.761 . S
C1481 C730 0.776 . S
C1490 C770 0.749 . S
C1492 C1055 0.788 . S
C1501 C535 0.772 . S
C1503 C810 0.770 . S
C1512 C1215 0.779 . S
C1514 C850 0.764 . S
C1523 C615 0.788 . S
C1525 C890 0.754 . S
C1534 C930 0.754 . S
C1536 C1135 0.783 . S
C1545 C979 0.748 . S
C1547 C126 0.789 . S
C1556 C1019 0.747 . S
C1558 C646 0.790 . S
C1567 C1059 0.772 . S
C1569 C46 0.771 . S
C1578 C1099 0.777 . S
C1580 C726 0.767 . S
C1589 C206 0.761 . S
C1591 C1139 0.776 . S
C1600 C886 0.793 . S
C1602 C1179 0.751 . S
C1611 C1219 0.772 . S
C1613 C286 0.772 . S
C1622 C1259 0.749 . S
C1624 C806 0.788 . S
C1633 C18 2.004 . S
C1635 C738 1.996 . S
C1644 C778 1.995 . S
C1646 C58 2.003 . S
C1655 C98 1.996 . S
C1657 C658 2.002 . S
C1666 C138 2.003 . S
C1668 C698 1.997 . S
C1677 C898 2.004 . S
C1679 C178 1.996 . S
C1688 C218 2.002 . S
C1690 C938 1.998 . S
C1699 C818 2.004 . S
C1701 C258 1.996 . S
C1710 C298 1.998 . S
C1712 C858 2.001 . S
C1721 C1049 2.003 . S
C1723 C329 1.997 . S
C1732 C369 2.001 . S
C1734 C1089 1.998 . S
C1743 C409 1.995 . S
C1745 C969 2.003 . S
C1754 C449 2.000 . S
C1756 C1009 1.999 . S
C1765 C1209 1.999 . S
C1767 C489 2.001 . S
C1776 C1249 1.996 . S
C1778 C529 2.002 . S
C1787 C569 1.997 . S
C1789 C1129 2.001 . S
C1798 C609 1.997 . S
C1800 C1169 2.002 . S
C1809 C15 2.381 . S
C1811 C966 2.372 . S
C1820 C366 2.382 . S
C1822 C55 2.372 . S
C1831 C95 2.371 . S
C1833 C1046 2.380 . S
C1842 C135 2.375 1_556 S
C1844 C446 2.375 . S
C1853 C1126 2.371 . S
C1855 C175 2.380 . S
C1864 C526 2.380 . S
C1866 C215 2.373 . S
C1875 C255 2.374 . S
C1877 C1206 2.378 . S
C1886 C295 2.379 1_554 S
C1888 C606 2.372 . S
C1897 C655 2.378 . S
C1899 C326 2.375 . S
C1908 C735 2.377 . S
C1910 C406 2.376 . S
C1919 C815 2.381 . S
C1921 C486 2.372 . S
C1930 C566 2.371 . S
C1932 C895 2.381 . S
C1941 C695 2.378 1_556 S
C1943 C1006 2.373 . S
C1952 C775 2.380 . S
C1954 C1086 2.372 . S
C1963 C1166 2.375 1_556 S
C1965 C855 2.380 1_554 S
C1974 C1246 2.382 . S
C1976 C935 2.372 . S
C1985 C9 4.448 1_565 S
C1987 C209 4.445 . S
C1996 C249 4.446 1_565 S
C1998 C49 4.449 . S
C2007 C289 4.449 . S
C2009 C89 4.445 1_545 S
C2018 C169 4.449 1_545 S
C2020 C129 4.446 . S
C2029 C338 4.449 1_545 S
C2031 C538 4.446 . S
C2040 C378 4.445 . S
C2042 C578 4.449 1_545 S
C2051 C618 4.448 . S
C2053 C418 4.448 1_565 S
C2062 C458 4.449 . S
C2064 C498 4.445 1_565 S
C2073 C649 4.448 . S
C2075 C849 4.445 . S
C2084 C689 4.448 . S
C2086 C889 4.448 . S
C2095 C729 4.448 . S
C2097 C929 4.445 . S
C2106 C809 4.449 . S
C2108 C769 4.447 . S
C2117 C978 4.449 . S
C2119 C1178 4.446 . S
C2128 C1018 4.448 . S
C2130 C1218 4.445 . S
C2139 C1258 4.449 . S
C2141 C1058 4.446 . S
C2150 C1098 4.445 . S
C2152 C1138 4.448 . S
C2161 C19 3.869 . S
C2163 C179 3.870 . S
C2172 C59 3.870 . S
C2174 C219 3.869 . S
C2183 C259 3.869 . S
C2185 C99 3.870 . S
C2194 C299 3.869 . S
C2196 C139 3.870 . S
C2205 C330 3.870 . S
C2207 C490 3.869 . S
C2216 C530 3.870 . S
C2218 C370 3.871 . S
C2227 C570 3.869 . S
C2229 C410 3.870 . S
C2238 C610 3.870 . S
C2240 C450 3.871 . S
C2249 C659 3.870 . S
C2251 C819 3.869 . S
C2260 C859 3.870 . S
C2262 C699 3.871 . S
C2271 C739 3.869 . S
C2273 C899 3.870 . S
C2282 C939 3.871 . S
C2284 C779 3.870 . S
C2293 C1130 3.869 . S
C2295 C970 3.870 . S
C2304 C1010 3.871 . S
C2306 C1170 3.870 . S
C2315 C1050 3.871 . S
C2317 C1210 3.870 . S
C2326 C1090 3.869 . S
C2328 C1250 3.870 . S
