# Generated by pormake.
# Topology umo, (4)-cn, num edge types: 1
# Building blocks:
#     Node 0, Type 0, BuildingBlock: ICAMEG_clean_sbu_1, # of connection points: 4
#     Node 1, Type 0, BuildingBlock: ICAMEG_clean_sbu_1, # of connection points: 4
#     Node 2, Type 0, BuildingBlock: ICAMEG_clean_sbu_1, # of connection points: 4
#     Node 3, Type 0, BuildingBlock: ICAMEG_clean_sbu_1, # of connection points: 4
#     Node 4, Type 0, BuildingBlock: ICAMEG_clean_sbu_1, # of connection points: 4
#     Node 5, Type 0, BuildingBlock: ICAMEG_clean_sbu_1, # of connection points: 4
#     Node 6, Type 0, BuildingBlock: ICAMEG_clean_sbu_1, # of connection points: 4
#     Node 7, Type 0, BuildingBlock: ICAMEG_clean_sbu_1, # of connection points: 4
#     Node 8, Type 0, BuildingBlock: ICAMEG_clean_sbu_1, # of connection points: 4
#     Node 9, Type 0, BuildingBlock: ICAMEG_clean_sbu_1, # of connection points: 4
#     Node 10, Type 0, BuildingBlock: ICAMEG_clean_sbu_1, # of connection points: 4
#     Node 11, Type 0, BuildingBlock: ICAMEG_clean_sbu_1, # of connection points: 4
#     Edge 12, Type (0, 0), None
#     Edge 13, Type (0, 0), None
#     Edge 14, Type (0, 0), None
#     Edge 15, Type (0, 0), None
#     Edge 16, Type (0, 0), None
#     Edge 17, Type (0, 0), None
#     Edge 18, Type (0, 0), None
#     Edge 19, Type (0, 0), None
#     Edge 20, Type (0, 0), None
#     Edge 21, Type (0, 0), None
#     Edge 22, Type (0, 0), None
#     Edge 23, Type (0, 0), None
#     Edge 24, Type (0, 0), None
#     Edge 25, Type (0, 0), None
#     Edge 26, Type (0, 0), None
#     Edge 27, Type (0, 0), None
#     Edge 28, Type (0, 0), None
#     Edge 29, Type (0, 0), None
#     Edge 30, Type (0, 0), None
#     Edge 31, Type (0, 0), None
#     Edge 32, Type (0, 0), None
#     Edge 33, Type (0, 0), None
#     Edge 34, Type (0, 0), None
#     Edge 35, Type (0, 0), None
# Relax obj value: 0.095
# Max RMSD: 0.144
# Mean RMSD: 0.143
data_MOF--net-umo--node1-ICAMEG_clean_sbu_1--edge1-none
_symmetry_space_group_name_H-M    P1
_symmetry_Int_Tables_number       1
_symmetry_cell_setting            triclinic
loop_
_symmetry_equiv_pos_as_xyz
'x, y, z'
_cell_length_a     26.414914
_cell_length_b     26.257837
_cell_length_c     18.967847
_cell_angle_alpha  90.00004
_cell_angle_beta   89.999955
_cell_angle_gamma 120.1897
loop_
_atom_site_label
_atom_site_type_symbol
_atom_site_fract_x
_atom_site_fract_y
_atom_site_fract_z
_atom_type_partial_charge
Co0 Co 0.09691 0.60054 0.4243 0.0
Co1 Co 0.18262 0.53408 0.43908 0.0
O2 O 0.12347 0.54583 0.38806 0.0
C3 C -0.0054 0.491 0.36467 0.0
O4 O 0.01741 0.45823 0.37946 0.0
C5 C 0.21295 0.51437 0.28537 0.0
O6 O 0.16373 0.50074 0.2537 0.0
O7 O 0.23562 0.62006 0.43319 0.0
O8 O 0.18061 0.66257 0.44689 0.0
H9 H 0.33639 0.59226 0.62227 0.0
H10 H 0.0553 0.5603 0.27252 0.0
O11 O 0.01343 0.54104 0.39508 0.0
H12 H 0.14773 0.77494 0.27333 0.0
H13 H -0.02518 0.69813 0.42105 0.0
H14 H 0.12405 0.67633 0.55238 0.0
H15 H 0.16235 0.72481 0.37281 0.0
H16 H 0.01271 0.63569 0.37624 0.0
O17 O 0.22128 0.52898 0.34986 0.0
H18 H 0.24667 0.58121 0.57467 0.0
H19 H 0.24986 0.47094 0.4125 0.0
H20 H 0.08541 0.73726 0.60128 0.0
H21 H 0.03164 0.60863 0.17879 0.0
H22 H 0.01155 0.74947 0.5357 0.0
H23 H 0.08002 0.71768 0.17706 0.0
O24 O 0.08422 0.56669 0.5235 0.0
H25 H 0.03606 0.33506 0.34016 0.0
H26 H 0.15265 0.44147 0.54877 0.0
H27 H 0.08901 0.33311 0.55255 0.0
H28 H 0.0306 0.27944 0.4484 0.0
H29 H 0.09849 0.4423 0.33888 0.0
H30 H 0.35063 0.49977 0.44458 0.0
H31 H 0.39662 0.56409 0.54853 0.0
O32 O 0.15114 0.53955 0.5337 0.0
C33 C 0.22968 0.66525 0.43534 0.0
C34 C 0.32041 0.57007 0.57294 0.0
C35 C 0.32716 0.51646 0.47445 0.0
N36 N 0.24356 0.52791 0.48792 0.0
C37 C 0.26711 0.56027 0.54765 0.0
C38 C 0.2704 0.50116 0.45579 0.0
C39 C 0.35285 0.5525 0.53272 0.0
C40 C 0.07286 0.60679 0.27614 0.0
N41 N 0.10742 0.63815 0.33173 0.0
C42 C 0.06079 0.63445 0.22111 0.0
C43 C 0.08833 0.69547 0.21971 0.0
C44 C 0.12722 0.72773 0.27321 0.0
C45 C 0.13645 0.69853 0.32887 0.0
C46 C 0.00744 0.69359 0.45048 0.0
C47 C 0.09117 0.68079 0.52355 0.0
C48 C 0.02864 0.65801 0.42514 0.0
N49 N 0.07005 0.65204 0.46107 0.0
C50 C 0.0699 0.71567 0.55145 0.0
C51 C 0.02804 0.72231 0.51457 0.0
C52 C 0.11338 0.54997 0.56097 0.0
C53 C 0.06207 0.35792 0.38596 0.0
C54 C 0.12757 0.41845 0.50264 0.0
C55 C 0.09158 0.35718 0.50545 0.0
C56 C 0.05878 0.32683 0.44669 0.0
N57 N 0.13115 0.44877 0.44245 0.0
C58 C 0.09864 0.419 0.38495 0.0
Co59 Co 0.62477 0.19048 0.6004 0.0
Co60 Co 0.47133 0.10932 0.58935 0.0
O61 O 0.55119 0.13325 0.55199 0.0
C62 C 0.67642 0.22475 0.44863 0.0
O63 O 0.65213 0.17177 0.42192 0.0
C64 C 0.47766 0.00441 0.54491 0.0
O65 O 0.52779 0.01985 0.57526 0.0
O66 O 0.49457 0.10334 0.69053 0.0
O67 O 0.59235 0.15406 0.6961 0.0
H68 H 0.32311 0.09319 0.76855 0.0
H69 H 0.60668 0.09326 0.50071 0.0
O70 O 0.66393 0.23421 0.51029 0.0
H71 H 0.76761 0.12103 0.65548 0.0
H72 H 0.82957 0.3557 0.59765 0.0
H73 H 0.64695 0.25519 0.73507 0.0
H74 H 0.71137 0.17026 0.68268 0.0
H75 H 0.75361 0.25493 0.56762 0.0
O76 O 0.4456 0.02429 0.56815 0.0
H77 H 0.42251 0.13753 0.71693 0.0
H78 H 0.35204 0.02469 0.54058 0.0
H79 H 0.72665 0.34973 0.77586 0.0
H80 H 0.65648 0.03785 0.47779 0.0
H81 H 0.81499 0.40564 0.699 0.0
H82 H 0.73878 0.05242 0.55454 0.0
O83 O 0.59333 0.2446 0.60681 0.0
H84 H 0.40398 0.03653 0.3432 0.0
H85 H 0.41137 0.17023 0.52998 0.0
H86 H 0.34907 0.15227 0.42671 0.0
H87 H 0.34287 0.08347 0.33359 0.0
H88 H 0.47196 0.062 0.44232 0.0
H89 H 0.25239 0.98194 0.58838 0.0
H90 H 0.23773 0.01634 0.70445 0.0
O91 O 0.49478 0.19449 0.60405 0.0
C92 C 0.54236 0.12378 0.72558 0.0
C93 C 0.32938 0.07896 0.71804 0.0
C94 C 0.28934 0.01599 0.61715 0.0
N95 N 0.39314 0.08326 0.62562 0.0
C96 C 0.38537 0.10346 0.68859 0.0
C97 C 0.34589 0.04022 0.59021 0.0
C98 C 0.28118 0.03528 0.68201 0.0
C99 C 0.64173 0.1 0.53538 0.0
N100 N 0.65799 0.13859 0.5906 0.0
C101 C 0.66975 0.06791 0.52204 0.0
C102 C 0.71562 0.07583 0.56521 0.0
C103 C 0.73124 0.11385 0.62247 0.0
C104 C 0.70009 0.14289 0.63632 0.0
C105 C 0.78973 0.33354 0.62846 0.0
C106 C 0.68778 0.27563 0.70652 0.0
C107 C 0.7466 0.27655 0.61179 0.0
N108 N 0.69437 0.25043 0.64696 0.0
C109 C 0.73188 0.33081 0.72798 0.0
C110 C 0.78129 0.36148 0.68565 0.0
C111 C 0.54418 0.24248 0.60295 0.0
C112 C 0.40553 0.06611 0.38399 0.0
C113 C 0.4127 0.14323 0.48789 0.0
C114 C 0.37601 0.13232 0.42994 0.0
C115 C 0.3718 0.09289 0.37821 0.0
N116 N 0.444 0.11481 0.49504 0.0
C117 C 0.44296 0.07932 0.44172 0.0
Co118 Co 0.41814 0.63697 0.76893 0.0
Co119 Co 0.34549 0.48305 0.75249 0.0
O120 O 0.40273 0.56417 0.71808 0.0
C121 C 0.43508 0.69203 0.62008 0.0
O122 O 0.46368 0.66827 0.59257 0.0
C123 C 0.46013 0.49327 0.72308 0.0
O124 O 0.4917 0.54375 0.75527 0.0
O125 O 0.3667 0.50529 0.85549 0.0
O126 O 0.42485 0.603 0.86205 0.0
H127 H 0.15801 0.33086 0.8676 0.0
H128 H 0.49687 0.6194 0.66757 0.0
O129 O 0.41188 0.67745 0.681 0.0
H130 H 0.63143 0.78157 0.82201 0.0
H131 H 0.44958 0.83961 0.7753 0.0
H132 H 0.3806 0.65583 0.90893 0.0
H133 H 0.5259 0.72624 0.84835 0.0
H134 H 0.47774 0.76765 0.73891 0.0
O135 O 0.40696 0.4595 0.74119 0.0
H136 H 0.24036 0.43204 0.84722 0.0
H137 H 0.32942 0.36343 0.73229 0.0
H138 H 0.36353 0.73214 0.95565 0.0
H139 H 0.60181 0.66935 0.64459 0.0
H140 H 0.38944 0.82099 0.88241 0.0
H141 H 0.67032 0.75228 0.72099 0.0
O142 O 0.33168 0.60372 0.77865 0.0
H143 H 0.37371 0.42311 0.5108 0.0
H144 H 0.2306 0.41908 0.67976 0.0
H145 H 0.19584 0.36078 0.57007 0.0
H146 H 0.26738 0.35907 0.48766 0.0
H147 H 0.4056 0.48956 0.61266 0.0
H148 H 0.25264 0.26225 0.75868 0.0
H149 H 0.16456 0.24547 0.82527 0.0
O150 O 0.2841 0.50619 0.7576 0.0
C151 C 0.39925 0.55214 0.89082 0.0
C152 C 0.19632 0.33799 0.83904 0.0
C153 C 0.24907 0.29919 0.77771 0.0
N154 N 0.28913 0.404 0.78581 0.0
C155 C 0.2426 0.39507 0.82623 0.0
C156 C 0.29311 0.35678 0.76333 0.0
C157 C 0.19982 0.28983 0.81496 0.0
C158 C 0.52527 0.65515 0.70184 0.0
N159 N 0.50328 0.67209 0.75667 0.0
C160 C 0.58534 0.68318 0.68845 0.0
C161 C 0.62372 0.72942 0.73141 0.0
C162 C 0.60177 0.74554 0.78841 0.0
C163 C 0.5415 0.71483 0.80189 0.0
C164 C 0.43482 0.79952 0.80531 0.0
C165 C 0.39814 0.6969 0.88087 0.0
C166 C 0.45033 0.75843 0.78476 0.0
N167 N 0.42749 0.70552 0.81883 0.0
C168 C 0.38588 0.73914 0.90612 0.0
C169 C 0.4009 0.78886 0.86548 0.0
C170 C 0.28497 0.55466 0.76714 0.0
C171 C 0.34183 0.42171 0.5478 0.0
C172 C 0.26213 0.42212 0.64167 0.0
C173 C 0.24211 0.38766 0.58064 0.0
C174 C 0.28227 0.38634 0.53443 0.0
N175 N 0.32069 0.45548 0.65585 0.0
C176 C 0.36004 0.45784 0.60741 0.0
Co177 Co 0.84516 0.36476 0.9243 0.0
Co178 Co 0.75945 0.43122 0.93908 0.0
O179 O 0.8186 0.41947 0.88806 0.0
C180 C 0.94747 0.47429 0.86467 0.0
O181 O 0.92467 0.50706 0.87946 0.0
C182 C 0.72913 0.45092 0.78537 0.0
O183 O 0.77835 0.46455 0.7537 0.0
O184 O 0.70645 0.34524 0.93319 0.0
O185 O 0.76147 0.30273 0.94689 0.0
H186 H 0.60569 0.37303 0.12227 0.0
H187 H 0.88677 0.405 0.77252 0.0
O188 O 0.92865 0.42426 0.89508 0.0
H189 H 0.79434 0.19036 0.77333 0.0
H190 H 0.96725 0.26717 0.92105 0.0
H191 H 0.81802 0.28897 0.05238 0.0
H192 H 0.77973 0.24049 0.87281 0.0
H193 H 0.92936 0.3296 0.87623 0.0
O194 O 0.7208 0.43632 0.84986 0.0
H195 H 0.6954 0.38409 0.07467 0.0
H196 H 0.69221 0.49436 0.9125 0.0
H197 H 0.85666 0.22804 0.10127 0.0
H198 H 0.91043 0.35667 0.67879 0.0
H199 H 0.93053 0.21583 0.0357 0.0
H200 H 0.86205 0.24762 0.67706 0.0
O201 O 0.85786 0.39861 0.0235 0.0
H202 H 0.90601 0.63024 0.84016 0.0
H203 H 0.78942 0.52383 0.04877 0.0
H204 H 0.85307 0.63219 0.05255 0.0
H205 H 0.91147 0.68585 0.9484 0.0
H206 H 0.84358 0.523 0.83888 0.0
H207 H 0.59144 0.46553 0.94458 0.0
H208 H 0.54545 0.40121 0.04853 0.0
O209 O 0.79094 0.42575 0.0337 0.0
C210 C 0.71239 0.30004 0.93534 0.0
C211 C 0.62167 0.39523 0.07294 0.0
C212 C 0.61491 0.44884 0.97445 0.0
N213 N 0.69851 0.43739 0.98792 0.0
C214 C 0.67497 0.40503 0.04765 0.0
C215 C 0.67167 0.46414 0.95579 0.0
C216 C 0.58922 0.4128 0.03272 0.0
C217 C 0.86921 0.35851 0.77613 0.0
N218 N 0.83466 0.32714 0.83173 0.0
C219 C 0.88129 0.33085 0.72111 0.0
C220 C 0.85374 0.26982 0.71971 0.0
C221 C 0.81485 0.23756 0.7732 0.0
C222 C 0.80563 0.26677 0.82887 0.0
C223 C 0.93463 0.27171 0.95048 0.0
C224 C 0.8509 0.28451 0.02355 0.0
C225 C 0.91343 0.30729 0.92513 0.0
N226 N 0.87203 0.31326 0.96107 0.0
C227 C 0.87217 0.24963 0.05145 0.0
C228 C 0.91403 0.24299 1.01457 0.0
C229 C 0.82869 0.41533 0.06096 0.0
C230 C 0.88 0.60738 0.88596 0.0
C231 C 0.8145 0.54684 1.00264 0.0
C232 C 0.85049 0.60812 1.00545 0.0
C233 C 0.8833 0.63847 0.94669 0.0
N234 N 0.81093 0.51652 0.94245 0.0
C235 C 0.84344 0.54629 0.88495 0.0
Co236 Co 0.3173 0.77482 0.1004 0.0
Co237 Co 0.47075 0.85598 0.08935 0.0
O238 O 0.39088 0.83204 0.05199 0.0
C239 C 0.26565 0.74055 0.94863 0.0
O240 O 0.28994 0.79353 0.92192 0.0
C241 C 0.46441 0.96089 0.04491 0.0
O242 O 0.41428 0.94545 0.07526 0.0
O243 O 0.4475 0.86196 0.19053 0.0
O244 O 0.34972 0.81123 0.1961 0.0
H245 H 0.61897 0.87211 0.26855 0.0
H246 H 0.33539 0.87203 1.00071 0.0
O247 O 0.27814 0.73109 1.01029 0.0
H248 H 0.17446 0.84426 0.15548 0.0
H249 H 0.11251 0.6096 0.09765 0.0
H250 H 0.29512 0.71011 0.23507 0.0
H251 H 0.2307 0.79504 0.18268 0.0
H252 H 0.18846 0.71036 0.06762 0.0
O253 O 0.49647 0.94101 0.06815 0.0
H254 H 0.51956 0.82777 0.21693 0.0
H255 H 0.59003 0.94061 0.04058 0.0
H256 H 0.21542 0.61557 0.27586 0.0
H257 H 0.28559 0.92745 0.97779 0.0
H258 H 0.12708 0.55966 0.199 0.0
H259 H 0.20329 0.91288 0.05454 0.0
O260 O 0.34874 0.7207 0.10681 0.0
H261 H 0.53809 0.92877 0.8432 0.0
H262 H 0.5307 0.79507 0.02999 0.0
H263 H 0.593 0.81302 0.92671 0.0
H264 H 0.5992 0.88182 0.83359 0.0
H265 H 0.47011 0.9033 0.94232 0.0
H266 H 0.68968 -0.01664 0.08838 0.0
H267 H 0.70434 0.94896 0.20445 0.0
O268 O 0.4473 0.7708 0.10405 0.0
C269 C 0.39971 0.84152 0.22558 0.0
C270 C 0.61269 0.88634 0.21804 0.0
C271 C 0.65274 0.94931 0.11715 0.0
N272 N 0.54894 0.88204 0.12562 0.0
C273 C 0.55671 0.86184 0.18859 0.0
C274 C 0.59618 0.92508 0.09021 0.0
C275 C 0.6609 0.93002 0.18202 0.0
C276 C 0.30034 0.8653 0.03538 0.0
N277 N 0.28408 0.8267 0.0906 0.0
C278 C 0.27232 0.89739 0.02204 0.0
C279 C 0.22646 0.88947 0.06521 0.0
C280 C 0.21083 0.85145 0.12247 0.0
C281 C 0.24198 0.82241 0.13632 0.0
C282 C 0.15234 0.63175 0.12846 0.0
C283 C 0.25429 0.68967 0.20653 0.0
C284 C 0.19547 0.68874 0.11179 0.0
N285 N 0.2477 0.71486 0.14696 0.0
C286 C 0.21019 0.63449 0.22798 0.0
C287 C 0.16078 0.60382 0.18565 0.0
C288 C 0.39789 0.72282 0.10295 0.0
C289 C 0.53654 0.89918 0.884 0.0
C290 C 0.52938 0.82207 0.9879 0.0
C291 C 0.56606 0.83297 0.92994 0.0
C292 C 0.57027 0.87241 0.87821 0.0
N293 N 0.49807 0.85049 0.99504 0.0
C294 C 0.49911 0.88598 0.94172 0.0
Co295 Co 0.52393 0.32833 0.26893 0.0
Co296 Co 0.59659 0.48225 0.25249 0.0
O297 O 0.53934 0.40113 0.21808 0.0
C298 C 0.507 0.27327 0.12008 0.0
O299 O 0.47839 0.29703 0.09256 0.0
C300 C 0.48194 0.47203 0.22309 0.0
O301 O 0.45037 0.42155 0.25527 0.0
O302 O 0.57537 0.46001 0.35549 0.0
O303 O 0.51723 0.3623 0.36205 0.0
H304 H 0.78407 0.63444 0.3676 0.0
H305 H 0.44521 0.3459 0.16757 0.0
O306 O 0.53019 0.28785 0.181 0.0
H307 H 0.31065 0.18373 0.32201 0.0
H308 H 0.49249 0.12569 0.27529 0.0
H309 H 0.56147 0.30947 0.40893 0.0
H310 H 0.41618 0.23906 0.34835 0.0
H311 H 0.46433 0.19765 0.23891 0.0
O312 O 0.53512 0.5058 0.24119 0.0
H313 H 0.70171 0.53326 0.34722 0.0
H314 H 0.61265 0.60187 0.23229 0.0
H315 H 0.57854 0.23316 0.45565 0.0
H316 H 0.34026 0.29595 0.14459 0.0
H317 H 0.55263 0.14431 0.38241 0.0
H318 H 0.27175 0.21303 0.22099 0.0
O319 O 0.6104 0.36158 0.27865 0.0
H320 H 0.56837 0.54219 1.0108 0.0
H321 H 0.71147 0.54622 0.17976 0.0
H322 H 0.74623 0.60452 0.07007 0.0
H323 H 0.6747 0.60623 0.98766 0.0
H324 H 0.53648 0.47575 0.11266 0.0
H325 H 0.68944 0.70305 0.25868 0.0
H326 H 0.77751 0.71983 0.32527 0.0
O327 O 0.65797 0.45911 0.2576 0.0
C328 C 0.54283 0.41316 0.39082 0.0
C329 C 0.74575 0.6273 0.33904 0.0
C330 C 0.69301 0.66611 0.27771 0.0
N331 N 0.65294 0.5613 0.28581 0.0
C332 C 0.69948 0.57023 0.32623 0.0
C333 C 0.64897 0.60852 0.26333 0.0
C334 C 0.74226 0.67547 0.31496 0.0
C335 C 0.41681 0.31015 0.20184 0.0
N336 N 0.43879 0.29321 0.25667 0.0
C337 C 0.35674 0.28212 0.18845 0.0
C338 C 0.31835 0.23588 0.2314 0.0
C339 C 0.3403 0.21976 0.28841 0.0
C340 C 0.40057 0.25048 0.30189 0.0
C341 C 0.50725 0.16578 0.30531 0.0
C342 C 0.54393 0.2684 0.38087 0.0
C343 C 0.49174 0.20687 0.28476 0.0
N344 N 0.51458 0.25978 0.31883 0.0
C345 C 0.55619 0.22616 0.40612 0.0
C346 C 0.54117 0.17644 0.36548 0.0
C347 C 0.6571 0.41064 0.26714 0.0
C348 C 0.60025 0.54359 0.0478 0.0
C349 C 0.67994 0.54318 0.14167 0.0
C350 C 0.69997 0.57764 0.08064 0.0
C351 C 0.6598 0.57896 0.03443 0.0
N352 N 0.62138 0.50982 0.15585 0.0
C353 C 0.58204 0.50747 0.10741 0.0
Co354 Co 0.41689 0.77481 0.43092 0.0
Co355 Co 0.34462 0.856 0.44197 0.0
O356 O 0.40054 0.83204 0.47933 0.0
C357 C 0.43423 0.74054 0.58271 0.0
O358 O 0.46292 0.79353 0.60942 0.0
C359 C 0.45587 0.96088 0.48634 0.0
O360 O 0.49053 0.94541 0.45594 0.0
O361 O 0.37382 0.86195 0.34078 0.0
O362 O 0.42089 0.81123 0.33522 0.0
H363 H 0.21248 0.87212 0.26282 0.0
H364 H 0.49601 0.87203 0.53061 0.0
O365 O 0.41232 0.73108 0.52104 0.0
H366 H 0.62915 0.84419 0.37587 0.0
H367 H 0.45646 0.60956 0.43368 0.0
H368 H 0.37437 0.7101 0.29626 0.0
H369 H 0.5237 0.795 0.34866 0.0
H370 H 0.48126 0.71033 0.46371 0.0
O371 O 0.40393 0.94103 0.46315 0.0
H372 H 0.26756 0.82778 0.31442 0.0
H373 H 0.31 0.94068 0.49072 0.0
H374 H 0.35954 0.61555 0.25547 0.0
H375 H 0.6012 0.92741 0.55355 0.0
H376 H 0.39196 0.55963 0.33233 0.0
H377 H 0.66893 0.91281 0.47681 0.0
O378 O 0.33134 0.72071 0.42451 0.0
H379 H 0.35012 0.92884 0.68811 0.0
H380 H 0.22378 0.79513 0.50138 0.0
H381 H 0.17947 0.81311 0.60468 0.0
H382 H 0.24208 0.88192 0.69777 0.0
H383 H 0.39261 0.90335 0.58897 0.0
H384 H 0.25311 -0.01655 0.44293 0.0
H385 H 0.204 0.94901 0.3269 0.0
O386 O 0.28289 0.77083 0.42729 0.0
C387 C 0.4012 0.84153 0.30575 0.0
C388 C 0.23301 0.88637 0.31331 0.0
C389 C 0.25599 0.94938 0.41418 0.0
N390 N 0.29249 0.88207 0.40571 0.0
C391 C 0.2645 0.86187 0.34276 0.0
C392 C 0.28831 0.92514 0.4411 0.0
C393 C 0.22852 0.93008 0.34933 0.0
C394 C 0.52432 0.86527 0.49595 0.0
N395 N 0.50198 0.82668 0.44073 0.0
C396 C 0.58442 0.89735 0.5093 0.0
C397 C 0.62236 0.88941 0.46613 0.0
C398 C 0.59997 0.85139 0.40888 0.0
C399 C 0.53978 0.82236 0.39502 0.0
C400 C 0.43879 0.63172 0.40288 0.0
C401 C 0.39475 0.68965 0.3248 0.0
C402 C 0.45264 0.68871 0.41955 0.0
N403 N 0.42653 0.71484 0.38437 0.0
C404 C 0.38368 0.63447 0.30335 0.0
C405 C 0.40241 0.60379 0.34568 0.0
C406 C 0.28431 0.72284 0.42838 0.0
C407 C 0.32208 0.89926 0.64733 0.0
C408 C 0.25211 0.82213 0.54346 0.0
C409 C 0.22635 0.83305 0.60143 0.0
C410 C 0.26158 0.87249 0.65314 0.0
N411 N 0.31182 0.85054 0.53629 0.0
C412 C 0.34629 0.88603 0.5896 0.0
Co413 Co 0.47908 0.3648 0.60702 0.0
Co414 Co 0.63123 0.43124 0.59225 0.0
O415 O 0.56033 0.41949 0.64326 0.0
C416 C 0.48626 0.47432 0.66668 0.0
O417 O 0.54184 0.50708 0.65197 0.0
C418 C 0.68125 0.45093 0.74596 0.0
O419 O 0.64566 0.46457 0.77764 0.0
O420 O 0.59826 0.34526 0.59814 0.0
O421 O 0.50075 0.30276 0.58442 0.0
H422 H 0.72682 0.37304 0.40906 0.0
H423 H 0.4777 0.40502 0.75881 0.0
O424 O 0.45508 0.42429 0.63624 0.0
H425 H 0.35552 0.19038 0.75796 0.0
H426 H 0.25942 0.2672 0.61028 0.0
H427 H 0.43044 0.28905 0.4789 0.0
H428 H 0.42026 0.24052 0.65849 0.0
H429 H 0.35973 0.32961 0.65511 0.0
O430 O 0.67498 0.43633 0.68148 0.0
H431 H 0.64815 0.3841 0.45666 0.0
H432 H 0.7616 0.49437 0.61884 0.0
H433 H 0.33089 0.22817 0.42998 0.0
H434 H 0.40572 0.35669 0.85252 0.0
H435 H 0.24482 0.21592 0.49559 0.0
H436 H 0.34506 0.24764 0.85424 0.0
O437 O 0.50023 0.39866 0.50782 0.0
H438 H 0.68366 0.63027 0.69115 0.0
H439 H 0.69385 0.52384 0.48255 0.0
H440 H 0.73854 0.63219 0.47876 0.0
H441 H 0.73379 0.68587 0.5829 0.0
H442 H 0.63887 0.52303 0.69245 0.0
H443 H 0.83353 0.46552 0.58677 0.0
H444 H 0.81523 0.40121 0.48282 0.0
O445 O 0.59428 0.42576 0.49762 0.0
C446 C 0.54712 0.30006 0.596 0.0
C447 C 0.73303 0.39524 0.4584 0.0
C448 C 0.79338 0.44884 0.5569 0.0
N449 N 0.69834 0.4374 0.54342 0.0
C450 C 0.68953 0.40504 0.48369 0.0
C451 C 0.75192 0.46415 0.57555 0.0
C452 C 0.78304 0.4128 0.49862 0.0
C453 C 0.44878 0.35853 0.75518 0.0
N454 N 0.45197 0.32717 0.69959 0.0
C455 C 0.40905 0.33087 0.8102 0.0
C456 C 0.37557 0.26985 0.81159 0.0
C457 C 0.38221 0.23759 0.75809 0.0
C458 C 0.42064 0.2668 0.70243 0.0
C459 C 0.29659 0.27175 0.58084 0.0
C460 C 0.39311 0.28459 0.50774 0.0
C461 C 0.35335 0.30732 0.60619 0.0
N462 N 0.40072 0.3133 0.57024 0.0
C463 C 0.33696 0.24972 0.47982 0.0
C464 C 0.28846 0.24307 0.51672 0.0
C465 C 0.54611 0.41537 0.47036 0.0
C466 C 0.68681 0.6074 0.64535 0.0
C467 C 0.69178 0.54685 0.52868 0.0
C468 C 0.71705 0.60813 0.52586 0.0
C469 C 0.7146 0.63849 0.58462 0.0
N470 N 0.66505 0.51654 0.58887 0.0
C471 C 0.6623 0.54632 0.64637 0.0
Co472 Co 0.17821 0.63698 0.7624 0.0
Co473 Co 0.09697 0.48306 0.77882 0.0
O474 O 0.12083 0.56418 0.81323 0.0
C475 C 0.21631 0.69202 0.91126 0.0
O476 O 0.16395 0.66827 0.93877 0.0
C477 C -0.00745 0.49327 0.80826 0.0
O478 O 0.01143 0.54376 0.77611 0.0
O479 O 0.09799 0.50531 0.67582 0.0
O480 O 0.13756 0.60302 0.66927 0.0
H481 H 0.1323 0.33087 0.6637 0.0
H482 H 0.08193 0.61942 0.86375 0.0
O483 O 0.22493 0.67745 0.85034 0.0
H484 H 0.10948 0.78157 0.7093 0.0
H485 H 0.34936 0.83963 0.75608 0.0
H486 H 0.23463 0.65586 0.62241 0.0
H487 H 0.15971 0.72625 0.68297 0.0
H488 H 0.24925 0.76766 0.79244 0.0
O489 O 0.01196 0.45951 0.79012 0.0
H490 H 0.1511 0.43205 0.68409 0.0
H491 H -0.00656 0.36344 0.799 0.0
H492 H 0.32799 0.73218 0.5757 0.0
H493 H 0.02691 0.66937 0.88672 0.0
H494 H 0.39089 0.82102 0.64897 0.0
H495 H 0.0413 0.75228 0.81031 0.0
O496 O 0.23144 0.60373 0.75269 0.0
H497 H 0.00884 0.42312 0.02051 0.0
H498 H 0.1479 0.41907 0.85154 0.0
H499 H 0.12437 0.36077 0.96122 0.0
H500 H 0.05114 0.35907 0.04365 0.0
H501 H 0.04339 0.48958 0.91866 0.0
H502 H 0.96907 0.26226 0.77261 0.0
H503 H 0.04037 0.24548 0.70602 0.0
O504 O 0.18149 0.50619 0.77371 0.0
C505 C 0.11229 0.55216 0.64051 0.0
C506 C 0.10112 0.338 0.69226 0.0
C507 C 0.00957 0.29919 0.75358 0.0
N508 N 0.0743 0.40401 0.74549 0.0
C509 C 0.11191 0.39508 0.70508 0.0
C510 C 0.02311 0.35679 0.76797 0.0
C511 C 0.04946 0.28984 0.71634 0.0
C512 C 0.08927 0.65517 0.82948 0.0
N513 N 0.12819 0.67211 0.77465 0.0
C514 C 0.05721 0.68319 0.84287 0.0
C515 C 0.06505 0.72943 0.7999 0.0
C516 C 0.10312 0.74555 0.7429 0.0
C517 C 0.13269 0.71484 0.72942 0.0
C518 C 0.32405 0.79954 0.72606 0.0
C519 C 0.25814 0.69693 0.65047 0.0
C520 C 0.26745 0.75844 0.74659 0.0
N521 N 0.2374 0.70553 0.71251 0.0
C522 C 0.31263 0.73917 0.62523 0.0
C523 C 0.34731 0.78889 0.66589 0.0
C524 C 0.22908 0.55467 0.76418 0.0
C525 C 0.03932 0.42172 0.98351 0.0
C526 C 0.11941 0.42212 0.88963 0.0
C527 C 0.10499 0.38766 0.95066 0.0
C528 C 0.0635 0.38634 0.99687 0.0
N529 N 0.0942 0.45548 0.87546 0.0
C530 C 0.05722 0.45785 0.9239 0.0
Co531 Co 0.52519 0.19049 0.93092 0.0
Co532 Co 0.59745 0.1093 0.94197 0.0
O533 O 0.54153 0.13325 0.97932 0.0
C534 C 0.50784 0.22476 0.08271 0.0
O535 O 0.47915 0.17177 0.10941 0.0
C536 C 0.4862 0.00442 0.98634 0.0
O537 O 0.45154 0.01988 0.95594 0.0
O538 O 0.56825 0.10335 0.84078 0.0
O539 O 0.52118 0.15407 0.83522 0.0
H540 H 0.72959 0.09318 0.76282 0.0
H541 H 0.44606 0.09327 0.03061 0.0
O542 O 0.52976 0.23422 0.02104 0.0
H543 H 0.31293 0.12111 0.87586 0.0
H544 H 0.48561 0.35574 0.93368 0.0
H545 H 0.5677 0.2552 0.79626 0.0
H546 H 0.41837 0.1703 0.84866 0.0
H547 H 0.46082 0.25497 0.96371 0.0
O548 O 0.53814 0.02427 0.96315 0.0
H549 H 0.67451 0.13752 0.81442 0.0
H550 H 0.63207 0.02462 0.99072 0.0
H551 H 0.58254 0.34975 0.75547 0.0
H552 H 0.34087 0.03789 0.05354 0.0
H553 H 0.55012 0.40567 0.83233 0.0
H554 H 0.27315 0.05249 0.9768 0.0
O555 O 0.61073 0.24459 0.9245 0.0
H556 H 0.59195 0.03646 0.18811 0.0
H557 H 0.71829 0.17017 1.00137 0.0
H558 H 0.76261 0.15219 0.10468 0.0
H559 H 0.69999 0.08338 0.19776 0.0
H560 H 0.54947 0.06195 0.08897 0.0
H561 H 0.68896 0.98185 0.94293 0.0
H562 H 0.73807 0.01628 0.8269 0.0
O563 O 0.65918 0.19447 0.92729 0.0
C564 C 0.54088 0.12377 0.80574 0.0
C565 C 0.70906 0.07893 0.81331 0.0
C566 C 0.68608 0.01591 0.91417 0.0
N567 N 0.64958 0.08322 0.9057 0.0
C568 C 0.67757 0.10343 0.84276 0.0
C569 C 0.65376 0.04015 0.9411 0.0
C570 C 0.71356 0.03522 0.84933 0.0
C571 C 0.41776 0.10003 0.99595 0.0
N572 N 0.44009 0.13862 0.94073 0.0
C573 C 0.35766 0.06795 1.0093 0.0
C574 C 0.31972 0.07589 0.96613 0.0
C575 C 0.34211 0.11391 0.90888 0.0
C576 C 0.40229 0.14294 0.89502 0.0
C577 C 0.50329 0.33358 0.90288 0.0
C578 C 0.54732 0.27564 0.8248 0.0
C579 C 0.48944 0.27659 0.91955 0.0
N580 N 0.51554 0.25046 0.88437 0.0
C581 C 0.55839 0.33083 0.80335 0.0
C582 C 0.53966 0.36151 0.84568 0.0
C583 C 0.65776 0.24246 0.92838 0.0
C584 C 0.61999 0.06604 0.14733 0.0
C585 C 0.68996 0.14316 0.04345 0.0
C586 C 0.71572 0.13225 0.10142 0.0
C587 C 0.68049 0.09281 0.15314 0.0
N588 N 0.63025 0.11476 0.03629 0.0
C589 C 0.59579 0.07927 0.08959 0.0
Co590 Co 0.463 0.6005 0.10702 0.0
Co591 Co 0.31084 0.53406 0.09225 0.0
O592 O 0.38174 0.54581 0.14326 0.0
C593 C 0.45582 0.49098 0.16669 0.0
O594 O 0.40023 0.45822 0.15197 0.0
C595 C 0.26083 0.51436 0.24596 0.0
O596 O 0.29641 0.50073 0.27764 0.0
O597 O 0.34381 0.62004 0.09815 0.0
O598 O 0.44132 0.66253 0.08442 0.0
H599 H 0.21525 0.59226 0.90906 0.0
H600 H 0.46437 0.56028 0.25881 0.0
O601 O 0.487 0.54101 0.13624 0.0
H602 H 0.58655 0.77492 0.25796 0.0
H603 H 0.68265 0.6981 0.11028 0.0
H604 H 0.51164 0.67625 0.9789 0.0
H605 H 0.52181 0.72478 0.15849 0.0
H606 H 0.58234 0.63569 0.15511 0.0
O607 O 0.2671 0.52896 0.18148 0.0
H608 H 0.29392 0.5812 0.95667 0.0
H609 H 0.18048 0.47093 0.11884 0.0
H610 H 0.61119 0.73713 0.92998 0.0
H611 H 0.53636 0.60861 0.35252 0.0
H612 H 0.69726 0.74938 0.99559 0.0
H613 H 0.59702 0.71766 0.35424 0.0
O614 O 0.44184 0.56664 1.00782 0.0
H615 H 0.25842 0.33503 0.19114 0.0
H616 H 0.24823 0.44146 0.98255 0.0
H617 H 0.20354 0.33311 0.97876 0.0
H618 H 0.20828 0.27943 0.0829 0.0
H619 H 0.3032 0.44227 0.19245 0.0
H620 H 0.10854 0.49978 0.08676 0.0
H621 H 0.12685 0.56409 0.98282 0.0
O622 O 0.3478 0.53954 0.99762 0.0
C623 C 0.39495 0.66524 0.096 0.0
C624 C 0.20904 0.57006 0.9584 0.0
C625 C 0.14869 0.51646 0.0569 0.0
N626 N 0.24373 0.5279 0.04342 0.0
C627 C 0.25254 0.56026 0.98369 0.0
C628 C 0.19015 0.50115 0.07555 0.0
C629 C 0.15903 0.5525 0.99862 0.0
C630 C 0.4933 0.60677 0.25518 0.0
N631 N 0.4901 0.63813 0.19959 0.0
C632 C 0.53303 0.63443 0.3102 0.0
C633 C 0.5665 0.69546 0.31159 0.0
C634 C 0.55986 0.72771 0.25809 0.0
C635 C 0.52143 0.6985 0.20243 0.0
C636 C 0.64549 0.69355 0.08084 0.0
C637 C 0.54897 0.68071 1.00774 0.0
C638 C 0.58872 0.65798 0.10619 0.0
N639 N 0.54135 0.652 0.07024 0.0
C640 C 0.60511 0.71558 0.97982 0.0
C641 C 0.65361 0.72223 0.01672 0.0
C642 C 0.39596 0.54993 0.97036 0.0
C643 C 0.25526 0.3579 0.14535 0.0
C644 C 0.2503 0.41845 0.02868 0.0
C645 C 0.22502 0.35717 0.02585 0.0
C646 C 0.22748 0.32681 0.08462 0.0
N647 N 0.27703 0.44876 0.08887 0.0
C648 C 0.27977 0.41898 0.14637 0.0
Co649 Co 0.76386 0.32832 0.2624 0.0
Co650 Co 0.8451 0.48224 0.27882 0.0
O651 O 0.82124 0.40111 0.31323 0.0
C652 C 0.72576 0.27327 0.41126 0.0
O653 O 0.77813 0.29703 0.43877 0.0
C654 C 0.94953 0.47203 0.30826 0.0
O655 O 0.93064 0.42154 0.27611 0.0
O656 O 0.84408 0.45999 0.17582 0.0
O657 O 0.80451 0.36227 0.16927 0.0
H658 H 0.80977 0.63443 0.1637 0.0
H659 H 0.86015 0.34587 0.36375 0.0
O660 O 0.71714 0.28784 0.35034 0.0
H661 H 0.83259 0.18372 0.20929 0.0
H662 H 0.59272 0.12567 0.25607 0.0
H663 H 0.70745 0.30944 0.12241 0.0
H664 H 0.78236 0.23905 0.18297 0.0
H665 H 0.69282 0.19764 0.29244 0.0
O666 O 0.93012 0.50579 0.29012 0.0
H667 H 0.79097 0.53325 0.18409 0.0
H668 H 0.94864 0.60186 0.299 0.0
H669 H 0.61408 0.23312 0.0757 0.0
H670 H 0.91516 0.29592 0.38672 0.0
H671 H 0.55118 0.14428 0.14897 0.0
H672 H 0.90077 0.21301 0.3103 0.0
O673 O 0.71064 0.36156 0.25269 0.0
H674 H 0.93323 0.54217 0.52051 0.0
H675 H 0.79418 0.54622 0.35154 0.0
H676 H 0.81771 0.60453 0.46122 0.0
H677 H 0.89094 0.60623 0.54365 0.0
H678 H 0.89868 0.47572 0.41866 0.0
H679 H -0.02699 0.70304 0.27261 0.0
H680 H 0.9017 0.71982 0.20602 0.0
O681 O 0.76058 0.4591 0.27371 0.0
C682 C 0.82979 0.41313 0.14051 0.0
C683 C 0.84096 0.62729 0.19226 0.0
C684 C 0.93251 0.6661 0.25358 0.0
N685 N 0.86778 0.56129 0.24549 0.0
C686 C 0.83017 0.57021 0.20508 0.0
C687 C 0.91896 0.60851 0.26797 0.0
C688 C 0.89261 0.67546 0.21634 0.0
C689 C 0.85281 0.31013 0.32948 0.0
N690 N 0.81388 0.29319 0.27465 0.0
C691 C 0.88486 0.2821 0.34286 0.0
C692 C 0.87702 0.23587 0.2999 0.0
C693 C 0.83895 0.21975 0.2429 0.0
C694 C 0.80939 0.25046 0.22942 0.0
C695 C 0.61802 0.16576 0.22605 0.0
C696 C 0.68393 0.26837 0.15047 0.0
C697 C 0.67462 0.20686 0.24659 0.0
N698 N 0.70468 0.25976 0.21251 0.0
C699 C 0.62944 0.22613 0.12523 0.0
C700 C 0.59476 0.17641 0.16588 0.0
C701 C 0.71299 0.41063 0.26417 0.0
C702 C 0.90276 0.54358 0.48351 0.0
C703 C 0.82267 0.54318 0.38963 0.0
C704 C 0.83709 0.57764 0.45066 0.0
C705 C 0.87858 0.57896 0.49687 0.0
N706 N 0.84787 0.50982 0.37545 0.0
C707 C 0.88485 0.50745 0.4239 0.0
loop_
_geom_bond_atom_site_label_1
_geom_bond_atom_site_label_2
_geom_bond_distance
_geom_bond_site_symmetry_2
_ccdc_geom_bond_type
Co0 O2 2.143 . S
Co0 O8 2.074 . S
Co0 O11 2.093 . S
Co0 O24 2.097 . S
Co0 N41 2.151 . S
Co0 N49 2.214 . S
Co1 O2 2.160 . S
Co1 O7 2.058 . S
Co1 O17 2.057 . S
Co1 O32 2.037 . S
Co1 N36 2.145 . S
Co1 N57 2.257 . S
O2 Co0 2.143 . S
O2 Co1 2.160 . S
C3 O4 1.278 . S
C3 O11 1.224 . S
O4 C3 1.278 . S
C5 O6 1.245 . S
C5 O17 1.232 . S
O6 C5 1.245 . S
O7 Co1 2.058 . S
O7 C33 1.269 . S
O8 Co0 2.074 . S
O8 C33 1.257 . S
H9 C34 0.930 . S
H10 C40 0.930 . S
O11 Co0 2.093 . S
O11 C3 1.224 . S
H12 C44 0.929 . S
H13 C46 0.930 . S
H14 C47 0.930 . S
H15 C45 0.929 . S
H16 C48 0.928 . S
O17 Co1 2.057 . S
O17 C5 1.232 . S
H18 C37 0.929 . S
H19 C38 0.929 . S
H20 C50 0.931 . S
H21 C42 0.929 . S
H22 C51 0.930 . S
H23 C43 0.931 . S
O24 Co0 2.097 . S
O24 C52 1.214 . S
H25 C53 0.929 . S
H26 C54 0.929 . S
H27 C55 0.930 . S
H28 C56 0.929 . S
H29 C58 0.930 . S
H30 C35 0.930 . S
H31 C39 0.930 . S
O32 Co1 2.037 . S
O32 C52 1.234 . S
C33 O7 1.269 . S
C33 O8 1.257 . S
C34 H9 0.930 . S
C34 C37 1.388 . S
C34 C39 1.418 . S
C35 H30 0.930 . S
C35 C38 1.404 . S
C35 C39 1.353 . S
N36 Co1 2.145 . S
N36 C37 1.397 . S
N36 C38 1.334 . S
C37 H18 0.929 . S
C37 C34 1.388 . S
C37 N36 1.397 . S
C38 H19 0.929 . S
C38 C35 1.404 . S
C38 N36 1.334 . S
C39 H31 0.930 . S
C39 C34 1.418 . S
C39 C35 1.353 . S
C40 H10 0.930 . S
C40 N41 1.330 . S
C40 C42 1.446 . S
N41 Co0 2.151 . S
N41 C40 1.330 . S
N41 C45 1.418 . S
C42 H21 0.929 . S
C42 C40 1.446 . S
C42 C43 1.332 . S
C43 H23 0.931 . S
C43 C42 1.332 . S
C43 C44 1.267 . S
C44 H12 0.929 . S
C44 C43 1.267 . S
C44 C45 1.251 . S
C45 H15 0.929 . S
C45 N41 1.418 . S
C45 C44 1.251 . S
C46 H13 0.930 . S
C46 C48 1.406 . S
C46 C51 1.261 . S
C47 H14 0.930 . S
C47 N49 1.325 . S
C47 C50 1.357 . S
C48 H16 0.928 . S
C48 C46 1.406 . S
C48 N49 1.261 . S
N49 Co0 2.214 . S
N49 C47 1.325 . S
N49 C48 1.261 . S
C50 H20 0.931 . S
C50 C47 1.357 . S
C50 C51 1.312 . S
C51 H22 0.930 . S
C51 C46 1.261 . S
C51 C50 1.312 . S
C52 O24 1.214 . S
C52 O32 1.234 . S
C53 H25 0.929 . S
C53 C56 1.391 . S
C53 C58 1.391 . S
C54 H26 0.929 . S
C54 C55 1.390 . S
C54 N57 1.391 . S
C55 H27 0.930 . S
C55 C54 1.390 . S
C55 C56 1.392 . S
C56 H28 0.929 . S
C56 C53 1.391 . S
C56 C55 1.392 . S
N57 Co1 2.257 . S
N57 C54 1.391 . S
N57 C58 1.388 . S
C58 H29 0.930 . S
C58 C53 1.391 . S
C58 N57 1.388 . S
Co59 O61 2.143 . S
Co59 O67 2.074 . S
Co59 O70 2.093 . S
Co59 O83 2.097 . S
Co59 N100 2.151 . S
Co59 N108 2.214 . S
Co60 O61 2.160 . S
Co60 O66 2.058 . S
Co60 O76 2.057 . S
Co60 O91 2.037 . S
Co60 N95 2.145 . S
Co60 N116 2.257 . S
O61 Co59 2.143 . S
O61 Co60 2.160 . S
C62 O63 1.278 . S
C62 O70 1.224 . S
O63 C62 1.278 . S
C64 O65 1.245 . S
C64 O76 1.232 . S
O65 C64 1.245 . S
O66 Co60 2.058 . S
O66 C92 1.269 . S
O67 Co59 2.074 . S
O67 C92 1.257 . S
H68 C93 0.930 . S
H69 C99 0.930 . S
O70 Co59 2.093 . S
O70 C62 1.224 . S
H71 C103 0.929 . S
H72 C105 0.930 . S
H73 C106 0.930 . S
H74 C104 0.929 . S
H75 C107 0.928 . S
O76 Co60 2.057 . S
O76 C64 1.232 . S
H77 C96 0.929 . S
H78 C97 0.929 . S
H79 C109 0.931 . S
H80 C101 0.929 . S
H81 C110 0.930 . S
H82 C102 0.931 . S
O83 Co59 2.097 . S
O83 C111 1.214 . S
H84 C112 0.929 . S
H85 C113 0.929 . S
H86 C114 0.930 . S
H87 C115 0.929 . S
H88 C117 0.930 . S
H89 C94 0.930 1_565 S
H90 C98 0.930 . S
O91 Co60 2.037 . S
O91 C111 1.234 . S
C92 O66 1.269 . S
C92 O67 1.257 . S
C93 H68 0.930 . S
C93 C96 1.388 . S
C93 C98 1.418 . S
C94 H89 0.930 1_545 S
C94 C97 1.404 . S
C94 C98 1.353 . S
N95 Co60 2.145 . S
N95 C96 1.397 . S
N95 C97 1.334 . S
C96 H77 0.929 . S
C96 C93 1.388 . S
C96 N95 1.397 . S
C97 H78 0.929 . S
C97 C94 1.404 . S
C97 N95 1.334 . S
C98 H90 0.930 . S
C98 C93 1.418 . S
C98 C94 1.353 . S
C99 H69 0.930 . S
C99 N100 1.330 . S
C99 C101 1.446 . S
N100 Co59 2.151 . S
N100 C99 1.330 . S
N100 C104 1.418 . S
C101 H80 0.929 . S
C101 C99 1.446 . S
C101 C102 1.332 . S
C102 H82 0.931 . S
C102 C101 1.332 . S
C102 C103 1.267 . S
C103 H71 0.929 . S
C103 C102 1.267 . S
C103 C104 1.251 . S
C104 H74 0.929 . S
C104 N100 1.418 . S
C104 C103 1.251 . S
C105 H72 0.930 . S
C105 C107 1.406 . S
C105 C110 1.261 . S
C106 H73 0.930 . S
C106 N108 1.325 . S
C106 C109 1.357 . S
C107 H75 0.928 . S
C107 C105 1.406 . S
C107 N108 1.261 . S
N108 Co59 2.214 . S
N108 C106 1.325 . S
N108 C107 1.261 . S
C109 H79 0.931 . S
C109 C106 1.357 . S
C109 C110 1.312 . S
C110 H81 0.930 . S
C110 C105 1.261 . S
C110 C109 1.312 . S
C111 O83 1.214 . S
C111 O91 1.234 . S
C112 H84 0.929 . S
C112 C115 1.391 . S
C112 C117 1.391 . S
C113 H85 0.929 . S
C113 C114 1.390 . S
C113 N116 1.391 . S
C114 H86 0.930 . S
C114 C113 1.390 . S
C114 C115 1.392 . S
C115 H87 0.929 . S
C115 C112 1.391 . S
C115 C114 1.392 . S
N116 Co60 2.257 . S
N116 C113 1.391 . S
N116 C117 1.388 . S
C117 H88 0.930 . S
C117 C112 1.391 . S
C117 N116 1.388 . S
Co118 O120 2.143 . S
Co118 O126 2.074 . S
Co118 O129 2.093 . S
Co118 O142 2.097 . S
Co118 N159 2.151 . S
Co118 N167 2.214 . S
Co119 O120 2.160 . S
Co119 O125 2.058 . S
Co119 O135 2.057 . S
Co119 O150 2.037 . S
Co119 N154 2.145 . S
Co119 N175 2.257 . S
O120 Co118 2.143 . S
O120 Co119 2.160 . S
C121 O122 1.278 . S
C121 O129 1.224 . S
O122 C121 1.278 . S
C123 O124 1.245 . S
C123 O135 1.232 . S
O124 C123 1.245 . S
O125 Co119 2.058 . S
O125 C151 1.269 . S
O126 Co118 2.074 . S
O126 C151 1.257 . S
H127 C152 0.930 . S
H128 C158 0.930 . S
O129 Co118 2.093 . S
O129 C121 1.224 . S
H130 C162 0.929 . S
H131 C164 0.930 . S
H132 C165 0.930 . S
H133 C163 0.929 . S
H134 C166 0.928 . S
O135 Co119 2.057 . S
O135 C123 1.232 . S
H136 C155 0.929 . S
H137 C156 0.929 . S
H138 C168 0.931 . S
H139 C160 0.929 . S
H140 C169 0.930 . S
H141 C161 0.931 . S
O142 Co118 2.097 . S
O142 C170 1.214 . S
H143 C171 0.929 . S
H144 C172 0.929 . S
H145 C173 0.930 . S
H146 C174 0.929 . S
H147 C176 0.930 . S
H148 C153 0.930 . S
H149 C157 0.930 . S
O150 Co119 2.037 . S
O150 C170 1.234 . S
C151 O125 1.269 . S
C151 O126 1.257 . S
C152 H127 0.930 . S
C152 C155 1.388 . S
C152 C157 1.418 . S
C153 H148 0.930 . S
C153 C156 1.404 . S
C153 C157 1.353 . S
N154 Co119 2.145 . S
N154 C155 1.397 . S
N154 C156 1.334 . S
C155 H136 0.929 . S
C155 C152 1.388 . S
C155 N154 1.397 . S
C156 H137 0.929 . S
C156 C153 1.404 . S
C156 N154 1.334 . S
C157 H149 0.930 . S
C157 C152 1.418 . S
C157 C153 1.353 . S
C158 H128 0.930 . S
C158 N159 1.330 . S
C158 C160 1.446 . S
N159 Co118 2.151 . S
N159 C158 1.330 . S
N159 C163 1.418 . S
C160 H139 0.929 . S
C160 C158 1.446 . S
C160 C161 1.332 . S
C161 H141 0.931 . S
C161 C160 1.332 . S
C161 C162 1.267 . S
C162 H130 0.929 . S
C162 C161 1.267 . S
C162 C163 1.251 . S
C163 H133 0.929 . S
C163 N159 1.418 . S
C163 C162 1.251 . S
C164 H131 0.930 . S
C164 C166 1.406 . S
C164 C169 1.261 . S
C165 H132 0.930 . S
C165 N167 1.325 . S
C165 C168 1.357 . S
C166 H134 0.928 . S
C166 C164 1.406 . S
C166 N167 1.261 . S
N167 Co118 2.214 . S
N167 C165 1.325 . S
N167 C166 1.261 . S
C168 H138 0.931 . S
C168 C165 1.357 . S
C168 C169 1.312 . S
C169 H140 0.930 . S
C169 C164 1.261 . S
C169 C168 1.312 . S
C170 O142 1.214 . S
C170 O150 1.234 . S
C171 H143 0.929 . S
C171 C174 1.391 . S
C171 C176 1.391 . S
C172 H144 0.929 . S
C172 C173 1.390 . S
C172 N175 1.391 . S
C173 H145 0.930 . S
C173 C172 1.390 . S
C173 C174 1.392 . S
C174 H146 0.929 . S
C174 C171 1.391 . S
C174 C173 1.392 . S
N175 Co119 2.257 . S
N175 C172 1.391 . S
N175 C176 1.388 . S
C176 H147 0.930 . S
C176 C171 1.391 . S
C176 N175 1.388 . S
Co177 O179 2.143 . S
Co177 O185 2.074 . S
Co177 O188 2.093 . S
Co177 O201 2.097 1_556 S
Co177 N218 2.151 . S
Co177 N226 2.214 . S
Co178 O179 2.160 . S
Co178 O184 2.058 . S
Co178 O194 2.057 . S
Co178 O209 2.037 1_556 S
Co178 N213 2.145 . S
Co178 N234 2.257 . S
O179 Co177 2.143 . S
O179 Co178 2.160 . S
C180 O181 1.278 . S
C180 O188 1.224 . S
O181 C180 1.278 . S
C182 O183 1.245 . S
C182 O194 1.232 . S
O183 C182 1.245 . S
O184 Co178 2.058 . S
O184 C210 1.269 . S
O185 Co177 2.074 . S
O185 C210 1.257 . S
H186 C211 0.930 . S
H187 C217 0.930 . S
O188 Co177 2.093 . S
O188 C180 1.224 . S
H189 C221 0.929 . S
H190 C223 0.930 . S
H191 C224 0.930 . S
H192 C222 0.929 . S
H193 C225 0.928 . S
O194 Co178 2.057 . S
O194 C182 1.232 . S
H195 C214 0.929 . S
H196 C215 0.929 . S
H197 C227 0.931 . S
H198 C219 0.929 . S
H199 C228 0.930 . S
H200 C220 0.931 . S
O201 Co177 2.097 1_554 S
O201 C229 1.214 . S
H202 C230 0.929 . S
H203 C231 0.929 . S
H204 C232 0.930 . S
H205 C233 0.929 . S
H206 C235 0.930 . S
H207 C212 0.930 . S
H208 C216 0.930 . S
O209 Co178 2.037 1_554 S
O209 C229 1.234 . S
C210 O184 1.269 . S
C210 O185 1.257 . S
C211 H186 0.930 . S
C211 C214 1.388 . S
C211 C216 1.418 . S
C212 H207 0.930 . S
C212 C215 1.404 . S
C212 C216 1.353 1_556 S
N213 Co178 2.145 . S
N213 C214 1.397 1_556 S
N213 C215 1.334 . S
C214 H195 0.929 . S
C214 C211 1.388 . S
C214 N213 1.397 1_554 S
C215 H196 0.929 . S
C215 C212 1.404 . S
C215 N213 1.334 . S
C216 H208 0.930 . S
C216 C211 1.418 . S
C216 C212 1.353 1_554 S
C217 H187 0.930 . S
C217 N218 1.330 . S
C217 C219 1.446 . S
N218 Co177 2.151 . S
N218 C217 1.330 . S
N218 C222 1.418 . S
C219 H198 0.929 . S
C219 C217 1.446 . S
C219 C220 1.332 . S
C220 H200 0.931 . S
C220 C219 1.332 . S
C220 C221 1.267 . S
C221 H189 0.929 . S
C221 C220 1.267 . S
C221 C222 1.251 . S
C222 H192 0.929 . S
C222 N218 1.418 . S
C222 C221 1.251 . S
C223 H190 0.930 . S
C223 C225 1.406 . S
C223 C228 1.261 1_556 S
C224 H191 0.930 . S
C224 N226 1.325 1_554 S
C224 C227 1.357 . S
C225 H193 0.928 . S
C225 C223 1.406 . S
C225 N226 1.261 . S
N226 Co177 2.214 . S
N226 C224 1.325 1_556 S
N226 C225 1.261 . S
C227 H197 0.931 . S
C227 C224 1.357 . S
C227 C228 1.312 . S
C228 H199 0.930 . S
C228 C223 1.261 1_554 S
C228 C227 1.312 . S
C229 O201 1.214 . S
C229 O209 1.234 . S
C230 H202 0.929 . S
C230 C233 1.391 . S
C230 C235 1.391 . S
C231 H203 0.929 . S
C231 C232 1.390 . S
C231 N234 1.391 1_554 S
C232 H204 0.930 . S
C232 C231 1.390 . S
C232 C233 1.392 1_554 S
C233 H205 0.929 . S
C233 C230 1.391 . S
C233 C232 1.392 1_556 S
N234 Co178 2.257 . S
N234 C231 1.391 1_556 S
N234 C235 1.388 . S
C235 H206 0.930 . S
C235 C230 1.391 . S
C235 N234 1.388 . S
Co236 O238 2.143 . S
Co236 O244 2.074 . S
Co236 O247 2.098 . S
Co236 O260 2.097 . S
Co236 N277 2.151 . S
Co236 N285 2.214 . S
Co237 O238 2.160 . S
Co237 O243 2.058 . S
Co237 O253 2.057 . S
Co237 O268 2.037 . S
Co237 N272 2.145 . S
Co237 N293 2.257 1_554 S
O238 Co236 2.143 . S
O238 Co237 2.160 . S
C239 O240 1.278 . S
C239 O247 1.219 1_556 S
O240 C239 1.278 . S
C241 O242 1.245 . S
C241 O253 1.232 . S
O242 C241 1.245 . S
O243 Co237 2.058 . S
O243 C269 1.269 . S
O244 Co236 2.074 . S
O244 C269 1.257 . S
H245 C270 0.930 . S
H246 C276 0.930 . S
O247 Co236 2.098 . S
O247 C239 1.219 1_554 S
H248 C280 0.929 . S
H249 C282 0.930 . S
H250 C283 0.930 . S
H251 C281 0.929 . S
H252 C284 0.928 . S
O253 Co237 2.057 . S
O253 C241 1.232 . S
H254 C273 0.929 . S
H255 C274 0.929 . S
H256 C286 0.931 . S
H257 C278 0.929 . S
H258 C287 0.930 . S
H259 C279 0.931 . S
O260 Co236 2.097 . S
O260 C288 1.214 . S
H261 C289 0.929 . S
H262 C290 0.929 1_554 S
H263 C291 0.930 . S
H264 C292 0.929 . S
H265 C294 0.930 . S
H266 C271 0.930 1_545 S
H267 C275 0.930 . S
O268 Co237 2.037 . S
O268 C288 1.234 . S
C269 O243 1.269 . S
C269 O244 1.257 . S
C270 H245 0.930 . S
C270 C273 1.388 . S
C270 C275 1.418 . S
C271 H266 0.930 1_565 S
C271 C274 1.404 . S
C271 C275 1.353 . S
N272 Co237 2.145 . S
N272 C273 1.397 . S
N272 C274 1.334 . S
C273 H254 0.929 . S
C273 C270 1.388 . S
C273 N272 1.397 . S
C274 H255 0.929 . S
C274 C271 1.404 . S
C274 N272 1.334 . S
C275 H267 0.930 . S
C275 C270 1.418 . S
C275 C271 1.353 . S
C276 H246 0.930 . S
C276 N277 1.330 . S
C276 C278 1.446 . S
N277 Co236 2.151 . S
N277 C276 1.330 . S
N277 C281 1.418 . S
C278 H257 0.929 . S
C278 C276 1.446 . S
C278 C279 1.332 . S
C279 H259 0.931 . S
C279 C278 1.332 . S
C279 C280 1.267 . S
C280 H248 0.929 . S
C280 C279 1.267 . S
C280 C281 1.251 . S
C281 H251 0.929 . S
C281 N277 1.418 . S
C281 C280 1.251 . S
C282 H249 0.930 . S
C282 C284 1.406 . S
C282 C287 1.261 . S
C283 H250 0.930 . S
C283 N285 1.325 . S
C283 C286 1.357 . S
C284 H252 0.928 . S
C284 C282 1.406 . S
C284 N285 1.261 . S
N285 Co236 2.214 . S
N285 C283 1.325 . S
N285 C284 1.261 . S
C286 H256 0.931 . S
C286 C283 1.357 . S
C286 C287 1.312 . S
C287 H258 0.930 . S
C287 C282 1.261 . S
C287 C286 1.312 . S
C288 O260 1.214 . S
C288 O268 1.234 . S
C289 H261 0.929 . S
C289 C292 1.391 . S
C289 C294 1.391 . S
C290 H262 0.929 1_556 S
C290 C291 1.390 . S
C290 N293 1.391 . S
C291 H263 0.930 . S
C291 C290 1.390 . S
C291 C292 1.392 . S
C292 H264 0.929 . S
C292 C289 1.391 . S
C292 C291 1.392 . S
N293 Co237 2.257 1_556 S
N293 C290 1.391 . S
N293 C294 1.388 . S
C294 H265 0.930 . S
C294 C289 1.391 . S
C294 N293 1.388 . S
Co295 O297 2.143 . S
Co295 O303 2.074 . S
Co295 O306 2.093 . S
Co295 O319 2.097 . S
Co295 N336 2.151 . S
Co295 N344 2.214 . S
Co296 O297 2.160 . S
Co296 O302 2.058 . S
Co296 O312 2.057 . S
Co296 O327 2.037 . S
Co296 N331 2.145 . S
Co296 N352 2.257 . S
O297 Co295 2.143 . S
O297 Co296 2.160 . S
C298 O299 1.278 . S
C298 O306 1.224 . S
O299 C298 1.278 . S
C300 O301 1.245 . S
C300 O312 1.232 . S
O301 C300 1.245 . S
O302 Co296 2.058 . S
O302 C328 1.269 . S
O303 Co295 2.074 . S
O303 C328 1.257 . S
H304 C329 0.930 . S
H305 C335 0.930 . S
O306 Co295 2.093 . S
O306 C298 1.224 . S
H307 C339 0.929 . S
H308 C341 0.930 . S
H309 C342 0.930 . S
H310 C340 0.929 . S
H311 C343 0.928 . S
O312 Co296 2.057 . S
O312 C300 1.232 . S
H313 C332 0.929 . S
H314 C333 0.929 . S
H315 C345 0.931 . S
H316 C337 0.929 . S
H317 C346 0.930 . S
H318 C338 0.931 . S
O319 Co295 2.097 . S
O319 C347 1.214 . S
H320 C348 0.929 1_556 S
H321 C349 0.929 . S
H322 C350 0.930 . S
H323 C351 0.929 1_556 S
H324 C353 0.930 . S
H325 C330 0.930 . S
H326 C334 0.930 . S
O327 Co296 2.037 . S
O327 C347 1.234 . S
C328 O302 1.269 . S
C328 O303 1.257 . S
C329 H304 0.930 . S
C329 C332 1.388 . S
C329 C334 1.418 . S
C330 H325 0.930 . S
C330 C333 1.404 . S
C330 C334 1.353 . S
N331 Co296 2.145 . S
N331 C332 1.397 . S
N331 C333 1.334 . S
C332 H313 0.929 . S
C332 C329 1.388 . S
C332 N331 1.397 . S
C333 H314 0.929 . S
C333 C330 1.404 . S
C333 N331 1.334 . S
C334 H326 0.930 . S
C334 C329 1.418 . S
C334 C330 1.353 . S
C335 H305 0.930 . S
C335 N336 1.330 . S
C335 C337 1.446 . S
N336 Co295 2.151 . S
N336 C335 1.330 . S
N336 C340 1.418 . S
C337 H316 0.929 . S
C337 C335 1.446 . S
C337 C338 1.332 . S
C338 H318 0.931 . S
C338 C337 1.332 . S
C338 C339 1.267 . S
C339 H307 0.929 . S
C339 C338 1.267 . S
C339 C340 1.251 . S
C340 H310 0.929 . S
C340 N336 1.418 . S
C340 C339 1.251 . S
C341 H308 0.930 . S
C341 C343 1.406 . S
C341 C346 1.261 . S
C342 H309 0.930 . S
C342 N344 1.325 . S
C342 C345 1.357 . S
C343 H311 0.928 . S
C343 C341 1.406 . S
C343 N344 1.261 . S
N344 Co295 2.214 . S
N344 C342 1.325 . S
N344 C343 1.261 . S
C345 H315 0.931 . S
C345 C342 1.357 . S
C345 C346 1.312 . S
C346 H317 0.930 . S
C346 C341 1.261 . S
C346 C345 1.312 . S
C347 O319 1.214 . S
C347 O327 1.234 . S
C348 H320 0.929 1_554 S
C348 C351 1.391 . S
C348 C353 1.391 . S
C349 H321 0.929 . S
C349 C350 1.390 . S
C349 N352 1.391 . S
C350 H322 0.930 . S
C350 C349 1.390 . S
C350 C351 1.392 . S
C351 H323 0.929 1_554 S
C351 C348 1.391 . S
C351 C350 1.392 . S
N352 Co296 2.257 . S
N352 C349 1.391 . S
N352 C353 1.388 . S
C353 H324 0.930 . S
C353 C348 1.391 . S
C353 N352 1.388 . S
Co354 O356 2.143 . S
Co354 O362 2.074 . S
Co354 O365 2.093 . S
Co354 O378 2.097 . S
Co354 N395 2.151 . S
Co354 N403 2.214 . S
Co355 O356 2.160 . S
Co355 O361 2.058 . S
Co355 O371 2.057 . S
Co355 O386 2.037 . S
Co355 N390 2.145 . S
Co355 N411 2.257 . S
O356 Co354 2.143 . S
O356 Co355 2.160 . S
C357 O358 1.278 . S
C357 O365 1.224 . S
O358 C357 1.278 . S
C359 O360 1.245 . S
C359 O371 1.232 . S
O360 C359 1.245 . S
O361 Co355 2.058 . S
O361 C387 1.269 . S
O362 Co354 2.074 . S
O362 C387 1.257 . S
H363 C388 0.930 . S
H364 C394 0.930 . S
O365 Co354 2.093 . S
O365 C357 1.224 . S
H366 C398 0.929 . S
H367 C400 0.930 . S
H368 C401 0.930 . S
H369 C399 0.929 . S
H370 C402 0.928 . S
O371 Co355 2.057 . S
O371 C359 1.232 . S
H372 C391 0.929 . S
H373 C392 0.929 . S
H374 C404 0.931 . S
H375 C396 0.929 . S
H376 C405 0.930 . S
H377 C397 0.931 . S
O378 Co354 2.097 . S
O378 C406 1.214 . S
H379 C407 0.929 . S
H380 C408 0.929 . S
H381 C409 0.930 . S
H382 C410 0.929 . S
H383 C412 0.930 . S
H384 C389 0.930 1_545 S
H385 C393 0.930 . S
O386 Co355 2.037 . S
O386 C406 1.234 . S
C387 O361 1.269 . S
C387 O362 1.257 . S
C388 H363 0.930 . S
C388 C391 1.388 . S
C388 C393 1.418 . S
C389 H384 0.930 1_565 S
C389 C392 1.404 . S
C389 C393 1.353 . S
N390 Co355 2.145 . S
N390 C391 1.397 . S
N390 C392 1.334 . S
C391 H372 0.929 . S
C391 C388 1.388 . S
C391 N390 1.397 . S
C392 H373 0.929 . S
C392 C389 1.404 . S
C392 N390 1.334 . S
C393 H385 0.930 . S
C393 C388 1.418 . S
C393 C389 1.353 . S
C394 H364 0.930 . S
C394 N395 1.330 . S
C394 C396 1.446 . S
N395 Co354 2.151 . S
N395 C394 1.330 . S
N395 C399 1.418 . S
C396 H375 0.929 . S
C396 C394 1.446 . S
C396 C397 1.332 . S
C397 H377 0.931 . S
C397 C396 1.332 . S
C397 C398 1.267 . S
C398 H366 0.929 . S
C398 C397 1.267 . S
C398 C399 1.251 . S
C399 H369 0.929 . S
C399 N395 1.418 . S
C399 C398 1.251 . S
C400 H367 0.930 . S
C400 C402 1.406 . S
C400 C405 1.261 . S
C401 H368 0.930 . S
C401 N403 1.325 . S
C401 C404 1.357 . S
C402 H370 0.928 . S
C402 C400 1.406 . S
C402 N403 1.261 . S
N403 Co354 2.214 . S
N403 C401 1.325 . S
N403 C402 1.261 . S
C404 H374 0.931 . S
C404 C401 1.357 . S
C404 C405 1.312 . S
C405 H376 0.930 . S
C405 C400 1.261 . S
C405 C404 1.312 . S
C406 O378 1.214 . S
C406 O386 1.234 . S
C407 H379 0.929 . S
C407 C410 1.391 . S
C407 C412 1.391 . S
C408 H380 0.929 . S
C408 C409 1.390 . S
C408 N411 1.391 . S
C409 H381 0.930 . S
C409 C408 1.390 . S
C409 C410 1.392 . S
C410 H382 0.929 . S
C410 C407 1.391 . S
C410 C409 1.392 . S
N411 Co355 2.257 . S
N411 C408 1.391 . S
N411 C412 1.388 . S
C412 H383 0.930 . S
C412 C407 1.391 . S
C412 N411 1.388 . S
Co413 O415 2.143 . S
Co413 O421 2.074 . S
Co413 O424 2.093 . S
Co413 O437 2.097 . S
Co413 N454 2.151 . S
Co413 N462 2.214 . S
Co414 O415 2.160 . S
Co414 O420 2.058 . S
Co414 O430 2.057 . S
Co414 O445 2.037 . S
Co414 N449 2.145 . S
Co414 N470 2.257 . S
O415 Co413 2.143 . S
O415 Co414 2.160 . S
C416 O417 1.278 . S
C416 O424 1.224 . S
O417 C416 1.278 . S
C418 O419 1.245 . S
C418 O430 1.232 . S
O419 C418 1.245 . S
O420 Co414 2.058 . S
O420 C446 1.269 . S
O421 Co413 2.074 . S
O421 C446 1.257 . S
H422 C447 0.930 . S
H423 C453 0.930 . S
O424 Co413 2.093 . S
O424 C416 1.224 . S
H425 C457 0.929 . S
H426 C459 0.930 . S
H427 C460 0.930 . S
H428 C458 0.929 . S
H429 C461 0.928 . S
O430 Co414 2.057 . S
O430 C418 1.232 . S
H431 C450 0.929 . S
H432 C451 0.929 . S
H433 C463 0.931 . S
H434 C455 0.929 . S
H435 C464 0.930 . S
H436 C456 0.931 . S
O437 Co413 2.097 . S
O437 C465 1.214 . S
H438 C466 0.929 . S
H439 C467 0.929 . S
H440 C468 0.930 . S
H441 C469 0.929 . S
H442 C471 0.930 . S
H443 C448 0.930 . S
H444 C452 0.930 . S
O445 Co414 2.037 . S
O445 C465 1.234 . S
C446 O420 1.269 . S
C446 O421 1.257 . S
C447 H422 0.930 . S
C447 C450 1.388 . S
C447 C452 1.418 . S
C448 H443 0.930 . S
C448 C451 1.404 . S
C448 C452 1.353 . S
N449 Co414 2.145 . S
N449 C450 1.397 . S
N449 C451 1.334 . S
C450 H431 0.929 . S
C450 C447 1.388 . S
C450 N449 1.397 . S
C451 H432 0.929 . S
C451 C448 1.404 . S
C451 N449 1.334 . S
C452 H444 0.930 . S
C452 C447 1.418 . S
C452 C448 1.353 . S
C453 H423 0.930 . S
C453 N454 1.330 . S
C453 C455 1.446 . S
N454 Co413 2.151 . S
N454 C453 1.330 . S
N454 C458 1.418 . S
C455 H434 0.929 . S
C455 C453 1.446 . S
C455 C456 1.332 . S
C456 H436 0.931 . S
C456 C455 1.332 . S
C456 C457 1.267 . S
C457 H425 0.929 . S
C457 C456 1.267 . S
C457 C458 1.251 . S
C458 H428 0.929 . S
C458 N454 1.418 . S
C458 C457 1.251 . S
C459 H426 0.930 . S
C459 C461 1.406 . S
C459 C464 1.261 . S
C460 H427 0.930 . S
C460 N462 1.325 . S
C460 C463 1.357 . S
C461 H429 0.928 . S
C461 C459 1.406 . S
C461 N462 1.261 . S
N462 Co413 2.214 . S
N462 C460 1.325 . S
N462 C461 1.261 . S
C463 H433 0.931 . S
C463 C460 1.357 . S
C463 C464 1.312 . S
C464 H435 0.930 . S
C464 C459 1.261 . S
C464 C463 1.312 . S
C465 O437 1.214 . S
C465 O445 1.234 . S
C466 H438 0.929 . S
C466 C469 1.391 . S
C466 C471 1.391 . S
C467 H439 0.929 . S
C467 C468 1.390 . S
C467 N470 1.391 . S
C468 H440 0.930 . S
C468 C467 1.390 . S
C468 C469 1.392 . S
C469 H441 0.929 . S
C469 C466 1.391 . S
C469 C468 1.392 . S
N470 Co414 2.257 . S
N470 C467 1.391 . S
N470 C471 1.388 . S
C471 H442 0.930 . S
C471 C466 1.391 . S
C471 N470 1.388 . S
Co472 O474 2.143 . S
Co472 O480 2.074 . S
Co472 O483 2.093 . S
Co472 O496 2.097 . S
Co472 N513 2.151 . S
Co472 N521 2.214 . S
Co473 O474 2.160 . S
Co473 O479 2.058 . S
Co473 O489 2.057 . S
Co473 O504 2.037 . S
Co473 N508 2.145 . S
Co473 N529 2.257 . S
O474 Co472 2.143 . S
O474 Co473 2.160 . S
C475 O476 1.278 . S
C475 O483 1.224 . S
O476 C475 1.278 . S
C477 O478 1.245 . S
C477 O489 1.232 . S
O478 C477 1.245 . S
O479 Co473 2.058 . S
O479 C505 1.269 . S
O480 Co472 2.074 . S
O480 C505 1.257 . S
H481 C506 0.930 . S
H482 C512 0.930 . S
O483 Co472 2.093 . S
O483 C475 1.224 . S
H484 C516 0.929 . S
H485 C518 0.930 . S
H486 C519 0.930 . S
H487 C517 0.929 . S
H488 C520 0.928 . S
O489 Co473 2.057 . S
O489 C477 1.232 . S
H490 C509 0.929 . S
H491 C510 0.929 . S
H492 C522 0.931 . S
H493 C514 0.929 . S
H494 C523 0.930 . S
H495 C515 0.931 . S
O496 Co472 2.097 . S
O496 C524 1.214 . S
H497 C525 0.929 1_554 S
H498 C526 0.929 . S
H499 C527 0.930 . S
H500 C528 0.929 1_554 S
H501 C530 0.930 . S
H502 C507 0.930 1_655 S
H503 C511 0.930 . S
O504 Co473 2.037 . S
O504 C524 1.234 . S
C505 O479 1.269 . S
C505 O480 1.257 . S
C506 H481 0.930 . S
C506 C509 1.388 . S
C506 C511 1.418 . S
C507 H502 0.930 1_455 S
C507 C510 1.404 . S
C507 C511 1.353 . S
N508 Co473 2.145 . S
N508 C509 1.397 . S
N508 C510 1.334 . S
C509 H490 0.929 . S
C509 C506 1.388 . S
C509 N508 1.397 . S
C510 H491 0.929 . S
C510 C507 1.404 . S
C510 N508 1.334 . S
C511 H503 0.930 . S
C511 C506 1.418 . S
C511 C507 1.353 . S
C512 H482 0.930 . S
C512 N513 1.330 . S
C512 C514 1.446 . S
N513 Co472 2.151 . S
N513 C512 1.330 . S
N513 C517 1.418 . S
C514 H493 0.929 . S
C514 C512 1.446 . S
C514 C515 1.332 . S
C515 H495 0.931 . S
C515 C514 1.332 . S
C515 C516 1.267 . S
C516 H484 0.929 . S
C516 C515 1.267 . S
C516 C517 1.251 . S
C517 H487 0.929 . S
C517 N513 1.418 . S
C517 C516 1.251 . S
C518 H485 0.930 . S
C518 C520 1.406 . S
C518 C523 1.261 . S
C519 H486 0.930 . S
C519 N521 1.325 . S
C519 C522 1.357 . S
C520 H488 0.928 . S
C520 C518 1.406 . S
C520 N521 1.261 . S
N521 Co472 2.214 . S
N521 C519 1.325 . S
N521 C520 1.261 . S
C522 H492 0.931 . S
C522 C519 1.357 . S
C522 C523 1.312 . S
C523 H494 0.930 . S
C523 C518 1.261 . S
C523 C522 1.312 . S
C524 O496 1.214 . S
C524 O504 1.234 . S
C525 H497 0.929 1_556 S
C525 C528 1.391 . S
C525 C530 1.391 . S
C526 H498 0.929 . S
C526 C527 1.390 . S
C526 N529 1.391 . S
C527 H499 0.930 . S
C527 C526 1.390 . S
C527 C528 1.392 . S
C528 H500 0.929 1_556 S
C528 C525 1.391 . S
C528 C527 1.392 . S
N529 Co473 2.257 . S
N529 C526 1.391 . S
N529 C530 1.388 . S
C530 H501 0.930 . S
C530 C525 1.391 . S
C530 N529 1.388 . S
Co531 O533 2.143 . S
Co531 O539 2.074 . S
Co531 O542 2.098 . S
Co531 O555 2.097 . S
Co531 N572 2.151 . S
Co531 N580 2.214 . S
Co532 O533 2.160 . S
Co532 O538 2.058 . S
Co532 O548 2.057 . S
Co532 O563 2.037 . S
Co532 N567 2.145 . S
Co532 N588 2.257 1_556 S
O533 Co531 2.143 . S
O533 Co532 2.160 . S
C534 O535 1.278 . S
C534 O542 1.219 1_554 S
O535 C534 1.278 . S
C536 O537 1.245 . S
C536 O548 1.232 . S
O537 C536 1.245 . S
O538 Co532 2.058 . S
O538 C564 1.269 . S
O539 Co531 2.074 . S
O539 C564 1.257 . S
H540 C565 0.930 . S
H541 C571 0.930 . S
O542 Co531 2.098 . S
O542 C534 1.219 1_556 S
H543 C575 0.929 . S
H544 C577 0.930 . S
H545 C578 0.930 . S
H546 C576 0.929 . S
H547 C579 0.928 . S
O548 Co532 2.057 . S
O548 C536 1.232 . S
H549 C568 0.929 . S
H550 C569 0.929 . S
H551 C581 0.931 . S
H552 C573 0.929 . S
H553 C582 0.930 . S
H554 C574 0.931 . S
O555 Co531 2.097 . S
O555 C583 1.214 . S
H556 C584 0.929 . S
H557 C585 0.929 1_556 S
H558 C586 0.930 . S
H559 C587 0.929 . S
H560 C589 0.930 . S
H561 C566 0.930 1_565 S
H562 C570 0.930 . S
O563 Co532 2.037 . S
O563 C583 1.234 . S
C564 O538 1.269 . S
C564 O539 1.257 . S
C565 H540 0.930 . S
C565 C568 1.388 . S
C565 C570 1.418 . S
C566 H561 0.930 1_545 S
C566 C569 1.404 . S
C566 C570 1.353 . S
N567 Co532 2.145 . S
N567 C568 1.397 . S
N567 C569 1.334 . S
C568 H549 0.929 . S
C568 C565 1.388 . S
C568 N567 1.397 . S
C569 H550 0.929 . S
C569 C566 1.404 . S
C569 N567 1.334 . S
C570 H562 0.930 . S
C570 C565 1.418 . S
C570 C566 1.353 . S
C571 H541 0.930 . S
C571 N572 1.330 . S
C571 C573 1.446 . S
N572 Co531 2.151 . S
N572 C571 1.330 . S
N572 C576 1.418 . S
C573 H552 0.929 . S
C573 C571 1.446 . S
C573 C574 1.332 . S
C574 H554 0.931 . S
C574 C573 1.332 . S
C574 C575 1.267 . S
C575 H543 0.929 . S
C575 C574 1.267 . S
C575 C576 1.251 . S
C576 H546 0.929 . S
C576 N572 1.418 . S
C576 C575 1.251 . S
C577 H544 0.930 . S
C577 C579 1.406 . S
C577 C582 1.261 . S
C578 H545 0.930 . S
C578 N580 1.325 . S
C578 C581 1.357 . S
C579 H547 0.928 . S
C579 C577 1.406 . S
C579 N580 1.261 . S
N580 Co531 2.214 . S
N580 C578 1.325 . S
N580 C579 1.261 . S
C581 H551 0.931 . S
C581 C578 1.357 . S
C581 C582 1.312 . S
C582 H553 0.930 . S
C582 C577 1.261 . S
C582 C581 1.312 . S
C583 O555 1.214 . S
C583 O563 1.234 . S
C584 H556 0.929 . S
C584 C587 1.391 . S
C584 C589 1.391 . S
C585 H557 0.929 1_554 S
C585 C586 1.390 . S
C585 N588 1.391 . S
C586 H558 0.930 . S
C586 C585 1.390 . S
C586 C587 1.392 . S
C587 H559 0.929 . S
C587 C584 1.391 . S
C587 C586 1.392 . S
N588 Co532 2.257 1_554 S
N588 C585 1.391 . S
N588 C589 1.388 . S
C589 H560 0.930 . S
C589 C584 1.391 . S
C589 N588 1.388 . S
Co590 O592 2.143 . S
Co590 O598 2.074 . S
Co590 O601 2.093 . S
Co590 O614 2.097 1_554 S
Co590 N631 2.151 . S
Co590 N639 2.214 . S
Co591 O592 2.160 . S
Co591 O597 2.058 . S
Co591 O607 2.057 . S
Co591 O622 2.037 1_554 S
Co591 N626 2.145 . S
Co591 N647 2.257 . S
O592 Co590 2.143 . S
O592 Co591 2.160 . S
C593 O594 1.278 . S
C593 O601 1.224 . S
O594 C593 1.278 . S
C595 O596 1.245 . S
C595 O607 1.232 . S
O596 C595 1.245 . S
O597 Co591 2.058 . S
O597 C623 1.269 . S
O598 Co590 2.074 . S
O598 C623 1.257 . S
H599 C624 0.930 . S
H600 C630 0.930 . S
O601 Co590 2.093 . S
O601 C593 1.224 . S
H602 C634 0.929 . S
H603 C636 0.930 . S
H604 C637 0.930 . S
H605 C635 0.929 . S
H606 C638 0.928 . S
O607 Co591 2.057 . S
O607 C595 1.232 . S
H608 C627 0.929 . S
H609 C628 0.929 . S
H610 C640 0.931 . S
H611 C632 0.929 . S
H612 C641 0.930 . S
H613 C633 0.931 . S
O614 Co590 2.097 1_556 S
O614 C642 1.214 . S
H615 C643 0.929 . S
H616 C644 0.929 . S
H617 C645 0.930 . S
H618 C646 0.929 . S
H619 C648 0.930 . S
H620 C625 0.930 . S
H621 C629 0.930 . S
O622 Co591 2.037 1_556 S
O622 C642 1.234 . S
C623 O597 1.269 . S
C623 O598 1.257 . S
C624 H599 0.930 . S
C624 C627 1.388 . S
C624 C629 1.418 . S
C625 H620 0.930 . S
C625 C628 1.404 . S
C625 C629 1.353 1_554 S
N626 Co591 2.145 . S
N626 C627 1.397 1_554 S
N626 C628 1.334 . S
C627 H608 0.929 . S
C627 C624 1.388 . S
C627 N626 1.397 1_556 S
C628 H609 0.929 . S
C628 C625 1.404 . S
C628 N626 1.334 . S
C629 H621 0.930 . S
C629 C624 1.418 . S
C629 C625 1.353 1_556 S
C630 H600 0.930 . S
C630 N631 1.330 . S
C630 C632 1.446 . S
N631 Co590 2.151 . S
N631 C630 1.330 . S
N631 C635 1.418 . S
C632 H611 0.929 . S
C632 C630 1.446 . S
C632 C633 1.332 . S
C633 H613 0.931 . S
C633 C632 1.332 . S
C633 C634 1.267 . S
C634 H602 0.929 . S
C634 C633 1.267 . S
C634 C635 1.251 . S
C635 H605 0.929 . S
C635 N631 1.418 . S
C635 C634 1.251 . S
C636 H603 0.930 . S
C636 C638 1.406 . S
C636 C641 1.261 1_554 S
C637 H604 0.930 . S
C637 N639 1.325 1_556 S
C637 C640 1.357 . S
C638 H606 0.928 . S
C638 C636 1.406 . S
C638 N639 1.261 . S
N639 Co590 2.214 . S
N639 C637 1.325 1_554 S
N639 C638 1.261 . S
C640 H610 0.931 . S
C640 C637 1.357 . S
C640 C641 1.312 . S
C641 H612 0.930 . S
C641 C636 1.261 1_556 S
C641 C640 1.312 . S
C642 O614 1.214 . S
C642 O622 1.234 . S
C643 H615 0.929 . S
C643 C646 1.391 . S
C643 C648 1.391 . S
C644 H616 0.929 . S
C644 C645 1.390 . S
C644 N647 1.391 1_556 S
C645 H617 0.930 . S
C645 C644 1.390 . S
C645 C646 1.392 1_556 S
C646 H618 0.929 . S
C646 C643 1.391 . S
C646 C645 1.392 1_554 S
N647 Co591 2.257 . S
N647 C644 1.391 1_554 S
N647 C648 1.388 . S
C648 H619 0.930 . S
C648 C643 1.391 . S
C648 N647 1.388 . S
Co649 O651 2.143 . S
Co649 O657 2.074 . S
Co649 O660 2.093 . S
Co649 O673 2.097 . S
Co649 N690 2.151 . S
Co649 N698 2.214 . S
Co650 O651 2.160 . S
Co650 O656 2.058 . S
Co650 O666 2.057 . S
Co650 O681 2.037 . S
Co650 N685 2.145 . S
Co650 N706 2.257 . S
O651 Co649 2.143 . S
O651 Co650 2.160 . S
C652 O653 1.278 . S
C652 O660 1.224 . S
O653 C652 1.278 . S
C654 O655 1.245 . S
C654 O666 1.232 . S
O655 C654 1.245 . S
O656 Co650 2.058 . S
O656 C682 1.269 . S
O657 Co649 2.074 . S
O657 C682 1.257 . S
H658 C683 0.930 . S
H659 C689 0.930 . S
O660 Co649 2.093 . S
O660 C652 1.224 . S
H661 C693 0.929 . S
H662 C695 0.930 . S
H663 C696 0.930 . S
H664 C694 0.929 . S
H665 C697 0.928 . S
O666 Co650 2.057 . S
O666 C654 1.232 . S
H667 C686 0.929 . S
H668 C687 0.929 . S
H669 C699 0.931 . S
H670 C691 0.929 . S
H671 C700 0.930 . S
H672 C692 0.931 . S
O673 Co649 2.097 . S
O673 C701 1.214 . S
H674 C702 0.929 . S
H675 C703 0.929 . S
H676 C704 0.930 . S
H677 C705 0.929 . S
H678 C707 0.930 . S
H679 C684 0.930 1_455 S
H680 C688 0.930 . S
O681 Co650 2.037 . S
O681 C701 1.234 . S
C682 O656 1.269 . S
C682 O657 1.257 . S
C683 H658 0.930 . S
C683 C686 1.388 . S
C683 C688 1.418 . S
C684 H679 0.930 1_655 S
C684 C687 1.404 . S
C684 C688 1.353 . S
N685 Co650 2.145 . S
N685 C686 1.397 . S
N685 C687 1.334 . S
C686 H667 0.929 . S
C686 C683 1.388 . S
C686 N685 1.397 . S
C687 H668 0.929 . S
C687 C684 1.404 . S
C687 N685 1.334 . S
C688 H680 0.930 . S
C688 C683 1.418 . S
C688 C684 1.353 . S
C689 H659 0.930 . S
C689 N690 1.330 . S
C689 C691 1.446 . S
N690 Co649 2.151 . S
N690 C689 1.330 . S
N690 C694 1.418 . S
C691 H670 0.929 . S
C691 C689 1.446 . S
C691 C692 1.332 . S
C692 H672 0.931 . S
C692 C691 1.332 . S
C692 C693 1.267 . S
C693 H661 0.929 . S
C693 C692 1.267 . S
C693 C694 1.251 . S
C694 H664 0.929 . S
C694 N690 1.418 . S
C694 C693 1.251 . S
C695 H662 0.930 . S
C695 C697 1.406 . S
C695 C700 1.261 . S
C696 H663 0.930 . S
C696 N698 1.325 . S
C696 C699 1.357 . S
C697 H665 0.928 . S
C697 C695 1.406 . S
C697 N698 1.261 . S
N698 Co649 2.214 . S
N698 C696 1.325 . S
N698 C697 1.261 . S
C699 H669 0.931 . S
C699 C696 1.357 . S
C699 C700 1.312 . S
C700 H671 0.930 . S
C700 C695 1.261 . S
C700 C699 1.312 . S
C701 O673 1.214 . S
C701 O681 1.234 . S
C702 H674 0.929 . S
C702 C705 1.391 . S
C702 C707 1.391 . S
C703 H675 0.929 . S
C703 C704 1.390 . S
C703 N706 1.391 . S
C704 H676 0.930 . S
C704 C703 1.390 . S
C704 C705 1.392 . S
C705 H677 0.929 . S
C705 C702 1.391 . S
C705 C704 1.392 . S
N706 Co650 2.257 . S
N706 C703 1.391 . S
N706 C707 1.388 . S
C707 H678 0.930 . S
C707 C702 1.391 . S
C707 N706 1.388 . S
C33 C406 1.223 . S
C111 C446 1.223 . S
C524 C170 1.181 . S
C210 C583 1.223 . S
C288 C623 1.223 . S
C701 C347 1.181 . S
C505 C52 2.004 . S
C92 C564 1.955 . S
C642 C151 2.004 . S
C682 C229 2.004 . S
C269 C387 1.955 . S
C328 C465 2.004 . S
C654 C3 1.639 1_655 S
C359 C64 1.596 1_565 S
C123 C416 1.639 . S
C477 C180 1.639 1_455 S
C536 C241 1.596 1_546 S
C593 C300 1.639 . S
C5 C595 1.285 . S
C652 C62 1.231 . S
C121 C357 1.231 . S
C182 C418 1.285 . S
C239 C475 1.231 . S
C298 C534 1.231 . S
