# Generated by pormake.
# Topology smg, (6)-cn, num edge types: 1
# Building blocks:
#     Node 0, Type 0, BuildingBlock: OJICUG_clean_sbu_0, # of connection points: 6
#     Node 1, Type 0, BuildingBlock: OJICUG_clean_sbu_0, # of connection points: 6
#     Node 2, Type 0, BuildingBlock: OJICUG_clean_sbu_0, # of connection points: 6
#     Node 3, Type 0, BuildingBlock: OJICUG_clean_sbu_0, # of connection points: 6
#     Node 4, Type 0, BuildingBlock: OJICUG_clean_sbu_0, # of connection points: 6
#     Node 5, Type 0, BuildingBlock: OJICUG_clean_sbu_0, # of connection points: 6
#     Node 6, Type 0, BuildingBlock: OJICUG_clean_sbu_0, # of connection points: 6
#     Node 7, Type 0, BuildingBlock: OJICUG_clean_sbu_0, # of connection points: 6
#     Node 8, Type 0, BuildingBlock: OJICUG_clean_sbu_0, # of connection points: 6
#     Node 9, Type 0, BuildingBlock: OJICUG_clean_sbu_0, # of connection points: 6
#     Node 10, Type 0, BuildingBlock: OJICUG_clean_sbu_0, # of connection points: 6
#     Node 11, Type 0, BuildingBlock: OJICUG_clean_sbu_0, # of connection points: 6
#     Node 12, Type 0, BuildingBlock: OJICUG_clean_sbu_0, # of connection points: 6
#     Node 13, Type 0, BuildingBlock: OJICUG_clean_sbu_0, # of connection points: 6
#     Node 14, Type 0, BuildingBlock: OJICUG_clean_sbu_0, # of connection points: 6
#     Node 15, Type 0, BuildingBlock: OJICUG_clean_sbu_0, # of connection points: 6
#     Node 16, Type 0, BuildingBlock: OJICUG_clean_sbu_0, # of connection points: 6
#     Node 17, Type 0, BuildingBlock: OJICUG_clean_sbu_0, # of connection points: 6
#     Edge 18, Type (0, 0), None
#     Edge 19, Type (0, 0), None
#     Edge 20, Type (0, 0), None
#     Edge 21, Type (0, 0), None
#     Edge 22, Type (0, 0), None
#     Edge 23, Type (0, 0), None
#     Edge 24, Type (0, 0), None
#     Edge 25, Type (0, 0), None
#     Edge 26, Type (0, 0), None
#     Edge 27, Type (0, 0), None
#     Edge 28, Type (0, 0), None
#     Edge 29, Type (0, 0), None
#     Edge 30, Type (0, 0), None
#     Edge 31, Type (0, 0), None
#     Edge 32, Type (0, 0), None
#     Edge 33, Type (0, 0), None
#     Edge 34, Type (0, 0), None
#     Edge 35, Type (0, 0), None
#     Edge 36, Type (0, 0), None
#     Edge 37, Type (0, 0), None
#     Edge 38, Type (0, 0), None
#     Edge 39, Type (0, 0), None
#     Edge 40, Type (0, 0), None
#     Edge 41, Type (0, 0), None
#     Edge 42, Type (0, 0), None
#     Edge 43, Type (0, 0), None
#     Edge 44, Type (0, 0), None
#     Edge 45, Type (0, 0), None
#     Edge 46, Type (0, 0), None
#     Edge 47, Type (0, 0), None
#     Edge 48, Type (0, 0), None
#     Edge 49, Type (0, 0), None
#     Edge 50, Type (0, 0), None
#     Edge 51, Type (0, 0), None
#     Edge 52, Type (0, 0), None
#     Edge 53, Type (0, 0), None
#     Edge 54, Type (0, 0), None
#     Edge 55, Type (0, 0), None
#     Edge 56, Type (0, 0), None
#     Edge 57, Type (0, 0), None
#     Edge 58, Type (0, 0), None
#     Edge 59, Type (0, 0), None
#     Edge 60, Type (0, 0), None
#     Edge 61, Type (0, 0), None
#     Edge 62, Type (0, 0), None
#     Edge 63, Type (0, 0), None
#     Edge 64, Type (0, 0), None
#     Edge 65, Type (0, 0), None
#     Edge 66, Type (0, 0), None
#     Edge 67, Type (0, 0), None
#     Edge 68, Type (0, 0), None
#     Edge 69, Type (0, 0), None
#     Edge 70, Type (0, 0), None
#     Edge 71, Type (0, 0), None
# Relax obj value: 0.210
# Max RMSD: 0.238
# Mean RMSD: 0.238
data_MOF--net-smg--node1-OJICUG_clean_sbu_0--edge1-none
_symmetry_space_group_name_H-M    P1
_symmetry_Int_Tables_number       1
_symmetry_cell_setting            triclinic
loop_
_symmetry_equiv_pos_as_xyz
'x, y, z'
_cell_length_a     22.78237
_cell_length_b     22.782246
_cell_length_c     21.275958
_cell_angle_alpha  89.999332
_cell_angle_beta   90.000501
_cell_angle_gamma 119.99984
loop_
_atom_site_label
_atom_site_type_symbol
_atom_site_fract_x
_atom_site_fract_y
_atom_site_fract_z
_atom_type_partial_charge
Sc0 Sc -0.01662 0.68771 0.26565 0.0
Sc1 Sc 0.90098 0.51766 0.23693 0.0
Sc2 Sc 0.06577 0.60006 0.29437 0.0
O3 O -0.01662 0.59984 0.26565 0.0
C4 C 0.1279 0.74285 0.23611 0.0
C5 C 0.95029 0.62822 0.13333 0.0
C6 C 0.02279 0.502 0.1769 0.0
C7 C 0.83886 0.59834 0.2952 0.0
C8 C 0.01647 0.66131 0.39797 0.0
C9 C 0.94396 0.46259 0.3544 0.0
O10 O 0.09028 0.74909 0.27535 0.0
O11 O 0.8992 0.57826 0.15966 0.0
O12 O 0.06595 0.53746 0.21869 0.0
O13 O 0.87649 0.6422 0.25595 0.0
O14 O 0.06756 0.66243 0.37164 0.0
O15 O 0.9008 0.45489 0.31261 0.0
O16 O 0.97588 0.67448 0.36726 0.0
O17 O 0.84037 0.54342 0.29925 0.0
O18 O 0.00524 0.51208 0.35437 0.0
O19 O -0.00912 0.68198 0.16405 0.0
O20 O 0.12639 0.68642 0.23205 0.0
O21 O 0.96151 0.49022 0.17693 0.0
Sc22 Sc 0.45686 0.38223 0.23693 0.0
Sc23 Sc 0.37447 0.46463 0.29437 0.0
Sc24 Sc 0.28682 0.29458 0.26565 0.0
O25 O 0.37469 0.38245 0.26565 0.0
C26 C 0.34631 0.32098 0.13333 0.0
C27 C 0.47252 0.5197 0.1769 0.0
C28 C 0.23168 0.38396 0.2361 0.0
C29 C 0.51194 0.48028 0.3544 0.0
C30 C 0.37619 0.23944 0.2952 0.0
C31 C 0.31321 0.35407 0.39797 0.0
O32 O 0.39627 0.31985 0.15966 0.0
O33 O 0.43706 0.5274 0.21869 0.0
O34 O 0.22543 0.34009 0.27535 0.0
O35 O 0.51964 0.44482 0.31261 0.0
O36 O 0.33233 0.23319 0.25595 0.0
O37 O 0.31209 0.40403 0.37164 0.0
O38 O 0.43111 0.29586 0.29926 0.0
O39 O 0.46244 0.49207 0.35437 0.0
O40 O 0.30005 0.30031 0.36726 0.0
O41 O 0.48431 0.4702 0.17694 0.0
O42 O 0.29255 0.30781 0.16405 0.0
O43 O 0.2881 0.43887 0.23205 0.0
Sc44 Sc 0.5923 0.07354 0.23693 0.0
Sc45 Sc 0.5099 0.90875 0.29437 0.0
Sc46 Sc 0.67995 -0.00886 0.26565 0.0
O47 O 0.59207 -0.00886 0.26565 0.0
C48 C 0.65355 0.02424 0.13333 0.0
C49 C 0.45483 0.95173 0.1769 0.0
C50 C 0.59057 0.84662 0.23611 0.0
C51 C 0.49424 0.03056 0.3544 0.0
C52 C 0.73509 0.13566 0.2952 0.0
C53 C 0.62046 0.95805 0.39797 0.0
O54 O 0.65467 0.07532 0.15966 0.0
O55 O 0.44713 0.90857 0.21869 0.0
O56 O 0.63444 0.88425 0.27535 0.0
O57 O 0.5297 0.07372 0.31262 0.0
O58 O 0.74133 0.09804 0.25595 0.0
O59 O 0.5705 0.90697 0.37164 0.0
O60 O 0.67867 0.13415 0.29925 0.0
O61 O 0.48246 0.96928 0.35437 0.0
O62 O 0.67422 -0.00136 0.36726 0.0
O63 O 0.50432 0.01301 0.17694 0.0
O64 O 0.66671 0.98364 0.16405 0.0
O65 O 0.53566 0.84814 0.23205 0.0
Sc66 Sc -0.01662 0.29458 0.76565 0.0
Sc67 Sc 0.06578 0.46463 0.79437 0.0
Sc68 Sc 0.90098 0.38223 0.73693 0.0
O69 O -0.01662 0.38245 0.76565 0.0
C70 C 0.95027 0.32096 0.63333 0.0
C71 C 0.12789 0.38395 0.7361 0.0
C72 C 0.02279 0.5197 0.6769 0.0
C73 C 0.01649 0.35407 0.89797 0.0
C74 C 0.83887 0.23944 0.79521 0.0
C75 C 0.94397 0.48028 0.8544 0.0
O76 O -0.00912 0.30782 0.66405 0.0
O77 O 0.12639 0.43887 0.73204 0.0
O78 O 0.96151 0.4702 0.67693 0.0
O79 O 0.97588 0.30032 0.86726 0.0
O80 O 0.84037 0.29586 0.79926 0.0
O81 O 0.00525 0.49207 0.85437 0.0
O82 O 0.87649 0.2332 0.75595 0.0
O83 O 0.06757 0.40403 0.87164 0.0
O84 O 0.90081 0.44483 0.81262 0.0
O85 O 0.09028 0.34009 0.77535 0.0
O86 O 0.8992 0.31985 0.65967 0.0
O87 O 0.06595 0.5274 0.71869 0.0
Sc88 Sc 0.5099 0.60006 0.79437 0.0
Sc89 Sc 0.5923 0.51766 0.73693 0.0
Sc90 Sc 0.67994 0.6877 0.76565 0.0
O91 O 0.59207 0.59983 0.76565 0.0
C92 C 0.59057 0.74284 0.73609 0.0
C93 C 0.45483 0.502 0.6769 0.0
C94 C 0.65356 0.62822 0.63333 0.0
C95 C 0.49424 0.46259 0.8544 0.0
C96 C 0.62045 0.66133 0.89797 0.0
C97 C 0.73508 0.59834 0.79521 0.0
O98 O 0.53565 0.68642 0.73204 0.0
O99 O 0.50433 0.49022 0.67693 0.0
O100 O 0.66671 0.68197 0.66405 0.0
O101 O 0.48245 0.51209 0.85437 0.0
O102 O 0.67421 0.67447 0.86726 0.0
O103 O 0.67866 0.54342 0.79926 0.0
O104 O 0.57048 0.66243 0.87164 0.0
O105 O 0.5297 0.45489 0.81262 0.0
O106 O 0.74132 0.64219 0.75596 0.0
O107 O 0.44712 0.53746 0.71868 0.0
O108 O 0.63443 0.74909 0.77535 0.0
O109 O 0.65467 0.57825 0.65967 0.0
Sc110 Sc 0.37447 0.90875 0.79437 0.0
Sc111 Sc 0.45686 0.07354 0.73693 0.0
Sc112 Sc 0.28682 -0.00886 0.76565 0.0
O113 O 0.37469 -0.00885 0.76565 0.0
C114 C 0.23168 0.84663 0.7361 0.0
C115 C 0.47252 0.95174 0.6769 0.0
C116 C 0.3463 0.02425 0.63333 0.0
C117 C 0.51194 0.03056 0.8544 0.0
C118 C 0.3132 0.95803 0.89797 0.0
C119 C 0.37618 0.13565 0.79521 0.0
O120 O 0.2881 0.84813 0.73204 0.0
O121 O 0.48431 0.01302 0.67693 0.0
O122 O 0.29255 0.98364 0.66405 0.0
O123 O 0.46244 0.96928 0.85437 0.0
O124 O 0.30005 -0.00136 0.86726 0.0
O125 O 0.43111 0.13415 0.79926 0.0
O126 O 0.31209 0.90696 0.87164 0.0
O127 O 0.51964 0.07372 0.81262 0.0
O128 O 0.33233 0.09804 0.75595 0.0
O129 O 0.43706 0.90857 0.71868 0.0
O130 O 0.22544 0.88425 0.77535 0.0
O131 O 0.39627 0.07533 0.65967 0.0
Sc132 Sc 0.65005 0.02105 0.59898 0.0
Sc133 Sc 0.56765 0.851 0.57027 0.0
Sc134 Sc 0.73244 0.93339 0.62771 0.0
O135 O 0.65005 0.93317 0.59899 0.0
C136 C 0.79457 0.07618 0.56944 0.0
C137 C 0.61697 0.96155 0.46667 0.0
C138 C 0.68946 0.83534 0.51024 0.0
C139 C 0.50554 0.93167 0.62853 0.0
C140 C 0.68314 -0.00535 0.7313 0.0
C141 C 0.61063 0.79593 0.68774 0.0
O142 O 0.75695 0.08243 0.60868 0.0
O143 O 0.56587 0.9116 0.493 0.0
O144 O 0.73262 0.87079 0.55202 0.0
O145 O 0.54315 0.97554 0.58929 0.0
O146 O 0.73422 -0.00423 0.70497 0.0
O147 O 0.56747 0.78822 0.64595 0.0
O148 O 0.64255 0.00782 0.70059 0.0
O149 O 0.50704 0.87676 0.63259 0.0
O150 O 0.67191 0.84542 0.6877 0.0
O151 O 0.65755 0.01532 0.49738 0.0
O152 O 0.79305 0.01976 0.56538 0.0
O153 O 0.62818 0.82355 0.51027 0.0
Sc154 Sc 0.95348 0.62791 0.59899 0.0
Sc155 Sc 0.12353 0.71556 0.57027 0.0
Sc156 Sc 0.04113 0.79796 0.62771 0.0
O157 O 0.04135 0.71578 0.59899 0.0
C158 C 0.89834 0.71729 0.56944 0.0
C159 C 0.01298 0.65433 0.46667 0.0
C160 C 0.13919 0.85303 0.51024 0.0
C161 C 0.04286 0.57277 0.62853 0.0
C162 C -0.02012 0.6874 0.7313 0.0
C163 C 0.1786 0.8136 0.68774 0.0
O164 O 0.8921 0.67342 0.60868 0.0
O165 O 0.06293 0.65319 0.493 0.0
O166 O 0.10373 0.86074 0.55203 0.0
O167 O -0.00101 0.56652 0.58929 0.0
O168 O -0.02124 0.73736 0.70497 0.0
O169 O 0.1863 0.77816 0.64595 0.0
O170 O 0.96671 0.63364 0.70059 0.0
O171 O 0.09777 0.62919 0.63259 0.0
O172 O 0.1291 0.8254 0.68771 0.0
O173 O 0.95921 0.64114 0.49738 0.0
O174 O 0.95477 0.7722 0.56538 0.0
O175 O 0.15097 0.80353 0.51027 0.0
Sc176 Sc 0.34662 0.32447 0.59899 0.0
Sc177 Sc 0.25896 0.40687 0.57027 0.0
Sc178 Sc 0.17657 0.24208 0.62771 0.0
O179 O 0.25874 0.32448 0.59899 0.0
C180 C 0.25724 0.17996 0.56944 0.0
C181 C 0.3202 0.35756 0.46667 0.0
C182 C 0.12149 0.28506 0.51024 0.0
C183 C 0.40175 0.46899 0.62853 0.0
C184 C 0.28713 0.29138 0.7313 0.0
C185 C 0.16092 0.3639 0.68774 0.0
O186 O 0.3011 0.21758 0.60868 0.0
O187 O 0.32134 0.40865 0.493 0.0
O188 O 0.11379 0.2419 0.55203 0.0
O189 O 0.408 0.43137 0.58929 0.0
O190 O 0.23717 0.2403 0.70497 0.0
O191 O 0.19637 0.40705 0.64595 0.0
O192 O 0.34089 0.33198 0.70059 0.0
O193 O 0.34533 0.46749 0.63259 0.0
O194 O 0.14913 0.30261 0.68771 0.0
O195 O 0.33338 0.31697 0.49738 0.0
O196 O 0.20232 0.18147 0.56538 0.0
O197 O 0.17099 0.34634 0.51027 0.0
Sc198 Sc 0.73245 0.79796 0.12771 0.0
Sc199 Sc 0.56765 0.71556 0.07027 0.0
Sc200 Sc 0.65005 0.62791 0.09899 0.0
O201 O 0.65005 0.71578 0.09899 0.0
C202 C 0.79456 0.71728 0.06943 0.0
C203 C 0.68946 0.85303 1.01024 0.0
C204 C 0.61695 0.65431 0.96667 0.0
C205 C 0.61063 0.81361 0.18774 0.0
C206 C 0.68316 0.6874 0.2313 0.0
C207 C 0.50554 0.57278 0.12854 0.0
O208 O 0.79306 0.7722 0.06538 0.0
O209 O 0.62818 0.80353 1.01027 0.0
O210 O 0.65755 0.64115 0.99738 0.0
O211 O 0.67192 0.8254 0.18771 0.0
O212 O 0.64255 0.63365 0.20059 0.0
O213 O 0.50704 0.62919 0.1326 0.0
O214 O 0.73423 0.73737 0.20497 0.0
O215 O 0.56748 0.77816 0.14595 0.0
O216 O 0.54315 0.56653 0.08929 0.0
O217 O 0.73262 0.86073 0.05202 0.0
O218 O 0.75694 0.67343 0.10868 0.0
O219 O 0.56586 0.65319 0.993 0.0
Sc220 Sc 0.17656 0.93339 0.1277 0.0
Sc221 Sc 0.25896 0.85099 0.07027 0.0
Sc222 Sc 0.34661 0.02104 0.09899 0.0
O223 O 0.25874 0.93317 0.09899 0.0
C224 C 0.25723 0.07618 0.06943 0.0
C225 C 0.12149 0.83534 1.01024 0.0
C226 C 0.32021 0.96154 0.96667 0.0
C227 C 0.16092 0.79593 0.18774 0.0
C228 C 0.28712 -0.00534 0.2313 0.0
C229 C 0.40174 0.93167 0.12854 0.0
O230 O 0.20232 0.01976 0.06537 0.0
O231 O 0.17099 0.82355 1.01027 0.0
O232 O 0.33337 0.0153 0.99738 0.0
O233 O 0.14912 0.84542 0.18771 0.0
O234 O 0.34087 0.00781 0.20059 0.0
O235 O 0.34533 0.87675 0.1326 0.0
O236 O 0.23715 -0.00423 0.20497 0.0
O237 O 0.19637 0.78822 0.14595 0.0
O238 O 0.408 0.97553 0.08929 0.0
O239 O 0.11379 0.87079 0.05202 0.0
O240 O 0.30109 0.08242 0.10868 0.0
O241 O 0.32134 0.91158 0.99301 0.0
Sc242 Sc 0.04113 0.24208 0.1277 0.0
Sc243 Sc 0.12353 0.40688 0.07027 0.0
Sc244 Sc 0.95348 0.32447 0.09898 0.0
O245 O 0.04136 0.32448 0.09899 0.0
C246 C 0.89835 0.17997 0.06943 0.0
C247 C 0.13919 0.28507 1.01024 0.0
C248 C 0.01298 0.35758 0.96667 0.0
C249 C 0.17859 0.3639 0.18774 0.0
C250 C -0.02014 0.29137 0.2313 0.0
C251 C 0.04285 0.46898 0.12854 0.0
O252 O 0.95477 0.18147 0.06538 0.0
O253 O 0.15097 0.34635 1.01027 0.0
O254 O 0.95922 0.31698 0.99738 0.0
O255 O 0.1291 0.30261 0.18771 0.0
O256 O 0.96671 0.33197 0.20059 0.0
O257 O 0.09777 0.46749 0.13259 0.0
O258 O -0.02125 0.24029 0.20497 0.0
O259 O 0.1863 0.40705 0.14595 0.0
O260 O -0.00101 0.43137 0.08929 0.0
O261 O 0.10373 0.24191 0.05202 0.0
O262 O 0.8921 0.21758 0.10868 0.0
O263 O 0.06294 0.40866 0.993 0.0
Sc264 Sc 0.31672 0.35438 0.93232 0.0
Sc265 Sc 0.23432 0.18433 0.9036 0.0
Sc266 Sc 0.39911 0.26672 0.96104 0.0
O267 O 0.31671 0.26651 0.93232 0.0
C268 C 0.46123 0.40951 0.90277 0.0
C269 C 0.28363 0.29488 0.80001 0.0
C270 C 0.35613 0.16868 0.84356 0.0
C271 C 0.1722 0.265 0.96187 0.0
C272 C 0.3498 0.32797 0.06463 0.0
C273 C 0.27729 0.12926 0.02107 0.0
O274 O 0.42361 0.41577 0.94201 0.0
O275 O 0.23254 0.24493 0.82634 0.0
O276 O 0.39928 0.20413 0.88536 0.0
O277 O 0.20982 0.30888 0.92263 0.0
O278 O 0.40089 0.3291 0.0383 0.0
O279 O 0.23414 0.12155 0.97928 0.0
O280 O 0.30922 0.34115 0.03392 0.0
O281 O 0.17371 0.21009 0.96592 0.0
O282 O 0.33858 0.17875 0.02104 0.0
O283 O 0.32421 0.34865 0.83071 0.0
O284 O 0.45972 0.35309 0.89871 0.0
O285 O 0.29484 0.15689 0.8436 0.0
Sc286 Sc 0.79019 0.04889 0.9036 0.0
Sc287 Sc 0.7078 0.13129 0.96104 0.0
Sc288 Sc 0.62014 0.96124 0.93232 0.0
O289 O 0.70802 0.04912 0.93232 0.0
C290 C 0.67964 -0.01234 0.80001 0.0
C291 C 0.80584 0.18636 0.84356 0.0
C292 C 0.56501 0.05062 0.90277 0.0
C293 C 0.84526 0.14694 0.02107 0.0
C294 C 0.70953 0.90611 0.96187 0.0
C295 C 0.64656 0.02074 0.06463 0.0
O296 O 0.7296 -0.01348 0.82634 0.0
O297 O 0.7704 0.19407 0.88536 0.0
O298 O 0.55876 0.00675 0.94201 0.0
O299 O 0.85297 0.11149 0.97928 0.0
O300 O 0.66565 0.89985 0.92263 0.0
O301 O 0.64542 0.07069 0.0383 0.0
O302 O 0.76444 0.96253 0.96593 0.0
O303 O 0.79577 0.15873 0.02104 0.0
O304 O 0.63337 0.96697 0.03392 0.0
O305 O 0.81764 0.13686 0.8436 0.0
O306 O 0.62588 0.97447 0.83071 0.0
O307 O 0.62143 0.10554 0.89871 0.0
Sc308 Sc 0.92563 0.74021 0.9036 0.0
Sc309 Sc 0.84324 0.57541 0.96104 0.0
Sc310 Sc 0.01329 0.65781 0.93232 0.0
O311 O 0.92541 0.65781 0.93232 0.0
C312 C -0.01313 0.69089 0.80001 0.0
C313 C 0.78817 0.61839 0.84357 0.0
C314 C 0.92391 0.5133 0.90277 0.0
C315 C 0.82759 0.69723 0.02107 0.0
C316 C 0.06842 0.80232 0.96187 0.0
C317 C 0.95379 0.62473 0.06463 0.0
O318 O -0.01199 0.74199 0.82634 0.0
O319 O 0.78046 0.57524 0.88536 0.0
O320 O 0.96778 0.55091 0.94201 0.0
O321 O 0.86303 0.74039 0.97928 0.0
O322 O 0.07467 0.76471 0.92262 0.0
O323 O 0.90383 0.57363 0.0383 0.0
O324 O 0.012 0.80082 0.96592 0.0
O325 O 0.8158 0.63594 0.02104 0.0
O326 O 0.00756 0.66531 0.03392 0.0
O327 O 0.83766 0.67968 0.8436 0.0
O328 O 5e-05 0.65031 0.83071 0.0
O329 O 0.86899 0.5148 0.89871 0.0
Sc330 Sc 0.31671 0.96124 0.43232 0.0
Sc331 Sc 0.39911 0.13129 0.46104 0.0
Sc332 Sc 0.23432 0.0489 0.4036 0.0
O333 O 0.31671 0.04912 0.43232 0.0
C334 C 0.28361 -0.01236 0.30001 0.0
C335 C 0.46122 0.05062 0.40276 0.0
C336 C 0.35613 0.18635 0.34356 0.0
C337 C 0.34981 0.02074 0.56463 0.0
C338 C 0.17221 0.90611 0.46188 0.0
C339 C 0.2773 0.14694 0.52107 0.0
O340 O 0.32421 0.97448 0.33071 0.0
O341 O 0.45973 0.10554 0.39871 0.0
O342 O 0.29484 0.13686 0.3436 0.0
O343 O 0.30922 0.96698 0.53392 0.0
O344 O 0.1737 0.96253 0.46593 0.0
O345 O 0.33859 0.15873 0.52104 0.0
O346 O 0.20982 0.89986 0.42262 0.0
O347 O 0.4009 0.0707 0.5383 0.0
O348 O 0.23414 0.11149 0.47928 0.0
O349 O 0.42361 0.00675 0.44201 0.0
O350 O 0.23253 -0.01349 0.32634 0.0
O351 O 0.39929 0.19407 0.38535 0.0
Sc352 Sc 0.84323 0.26672 0.46104 0.0
Sc353 Sc 0.92563 0.18433 0.4036 0.0
Sc354 Sc 0.01328 0.35438 0.43232 0.0
O355 O 0.92541 0.2665 0.43232 0.0
C356 C 0.9239 0.4095 0.40276 0.0
C357 C 0.78817 0.16868 0.34356 0.0
C358 C -0.01312 0.29488 0.30001 0.0
C359 C 0.82758 0.12926 0.52107 0.0
C360 C 0.95378 0.32798 0.56463 0.0
C361 C 0.06841 0.265 0.46188 0.0
O362 O 0.86898 0.35309 0.39871 0.0
O363 O 0.83766 0.15689 0.3436 0.0
O364 O 5e-05 0.34864 0.33071 0.0
O365 O 0.81579 0.17876 0.52104 0.0
O366 O 0.00754 0.34114 0.53392 0.0
O367 O 0.012 0.21008 0.46593 0.0
O368 O 0.90382 0.3291 0.5383 0.0
O369 O 0.86303 0.12155 0.47928 0.0
O370 O 0.07466 0.30887 0.42263 0.0
O371 O 0.78046 0.20412 0.38535 0.0
O372 O 0.96777 0.41576 0.44201 0.0
O373 O -0.01199 0.24492 0.32634 0.0
Sc374 Sc 0.7078 0.57541 0.46104 0.0
Sc375 Sc 0.7902 0.74021 0.4036 0.0
Sc376 Sc 0.62014 0.65781 0.43232 0.0
O377 O 0.70802 0.65781 0.43232 0.0
C378 C 0.56502 0.51331 0.40276 0.0
C379 C 0.80584 0.6184 0.34356 0.0
C380 C 0.67964 0.69091 0.30001 0.0
C381 C 0.84526 0.69723 0.52107 0.0
C382 C 0.64655 0.62471 0.56463 0.0
C383 C 0.70952 0.80231 0.46188 0.0
O384 O 0.62143 0.5148 0.39871 0.0
O385 O 0.81764 0.67969 0.3436 0.0
O386 O 0.62588 0.65031 0.33071 0.0
O387 O 0.79577 0.63594 0.52104 0.0
O388 O 0.63338 0.66531 0.53392 0.0
O389 O 0.76444 0.80082 0.46593 0.0
O390 O 0.64542 0.57363 0.5383 0.0
O391 O 0.85297 0.74039 0.47928 0.0
O392 O 0.66566 0.76471 0.42262 0.0
O393 O 0.7704 0.57524 0.38535 0.0
O394 O 0.55876 0.55091 0.44201 0.0
O395 O 0.7296 0.742 0.32634 0.0
loop_
_geom_bond_atom_site_label_1
_geom_bond_atom_site_label_2
_geom_bond_distance
_geom_bond_site_symmetry_2
_ccdc_geom_bond_type
Sc0 O3 2.025 . S
Sc0 O10 2.105 . S
Sc0 O13 2.105 1_455 S
Sc0 O16 2.105 . S
Sc0 O19 2.105 1_455 S
Sc1 O3 2.025 1_655 S
Sc1 O11 2.105 . S
Sc1 O15 2.105 . S
Sc1 O17 2.105 . S
Sc1 O21 2.105 . S
Sc2 O3 2.025 . S
Sc2 O12 2.105 . S
Sc2 O14 2.105 . S
Sc2 O18 2.105 . S
Sc2 O20 2.105 . S
O3 Sc0 2.025 . S
O3 Sc1 2.025 1_455 S
O3 Sc2 2.025 . S
C4 O10 1.268 . S
C4 O20 1.268 . S
C5 O11 1.268 . S
C5 O19 1.268 . S
C6 O12 1.268 . S
C6 O21 1.268 1_455 S
C7 O13 1.268 . S
C7 O17 1.268 . S
C8 O14 1.268 . S
C8 O16 1.268 . S
C9 O15 1.268 . S
C9 O18 1.268 1_655 S
O10 Sc0 2.105 . S
O10 C4 1.268 . S
O11 Sc1 2.105 . S
O11 C5 1.268 . S
O12 Sc2 2.105 . S
O12 C6 1.268 . S
O13 Sc0 2.105 1_655 S
O13 C7 1.268 . S
O14 Sc2 2.105 . S
O14 C8 1.268 . S
O15 Sc1 2.105 . S
O15 C9 1.268 . S
O16 Sc0 2.105 . S
O16 C8 1.268 . S
O17 Sc1 2.105 . S
O17 C7 1.268 . S
O18 Sc2 2.105 . S
O18 C9 1.268 1_455 S
O19 Sc0 2.105 1_655 S
O19 C5 1.268 . S
O20 Sc2 2.105 . S
O20 C4 1.268 . S
O21 Sc1 2.105 . S
O21 C6 1.268 1_655 S
Sc22 O25 2.025 . S
Sc22 O32 2.105 . S
Sc22 O35 2.105 . S
Sc22 O38 2.105 . S
Sc22 O41 2.105 . S
Sc23 O25 2.025 . S
Sc23 O33 2.105 . S
Sc23 O37 2.105 . S
Sc23 O39 2.105 . S
Sc23 O43 2.105 . S
Sc24 O25 2.025 . S
Sc24 O34 2.105 . S
Sc24 O36 2.105 . S
Sc24 O40 2.105 . S
Sc24 O42 2.105 . S
O25 Sc22 2.025 . S
O25 Sc23 2.025 . S
O25 Sc24 2.025 . S
C26 O32 1.268 . S
C26 O42 1.268 . S
C27 O33 1.268 . S
C27 O41 1.268 . S
C28 O34 1.268 . S
C28 O43 1.268 . S
C29 O35 1.268 . S
C29 O39 1.268 . S
C30 O36 1.268 . S
C30 O38 1.268 . S
C31 O37 1.268 . S
C31 O40 1.268 . S
O32 Sc22 2.105 . S
O32 C26 1.268 . S
O33 Sc23 2.105 . S
O33 C27 1.268 . S
O34 Sc24 2.105 . S
O34 C28 1.268 . S
O35 Sc22 2.105 . S
O35 C29 1.268 . S
O36 Sc24 2.105 . S
O36 C30 1.268 . S
O37 Sc23 2.105 . S
O37 C31 1.268 . S
O38 Sc22 2.105 . S
O38 C30 1.268 . S
O39 Sc23 2.105 . S
O39 C29 1.268 . S
O40 Sc24 2.105 . S
O40 C31 1.268 . S
O41 Sc22 2.105 . S
O41 C27 1.268 . S
O42 Sc24 2.105 . S
O42 C26 1.268 . S
O43 Sc23 2.105 . S
O43 C28 1.268 . S
Sc44 O47 2.025 . S
Sc44 O54 2.105 . S
Sc44 O57 2.105 . S
Sc44 O60 2.105 . S
Sc44 O63 2.105 . S
Sc45 O47 2.025 1_565 S
Sc45 O55 2.105 . S
Sc45 O59 2.105 . S
Sc45 O61 2.105 . S
Sc45 O65 2.105 . S
Sc46 O47 2.025 . S
Sc46 O56 2.105 1_545 S
Sc46 O58 2.105 . S
Sc46 O62 2.105 1_545 S
Sc46 O64 2.105 . S
O47 Sc44 2.025 . S
O47 Sc45 2.025 1_545 S
O47 Sc46 2.025 . S
C48 O54 1.268 . S
C48 O64 1.268 . S
C49 O55 1.268 . S
C49 O63 1.268 1_565 S
C50 O56 1.268 . S
C50 O65 1.268 . S
C51 O57 1.268 . S
C51 O61 1.268 1_545 S
C52 O58 1.268 . S
C52 O60 1.268 . S
C53 O59 1.268 . S
C53 O62 1.268 . S
O54 Sc44 2.105 . S
O54 C48 1.268 . S
O55 Sc45 2.105 . S
O55 C49 1.268 . S
O56 Sc46 2.105 1_565 S
O56 C50 1.268 . S
O57 Sc44 2.105 . S
O57 C51 1.268 . S
O58 Sc46 2.105 . S
O58 C52 1.268 . S
O59 Sc45 2.105 . S
O59 C53 1.268 . S
O60 Sc44 2.105 . S
O60 C52 1.268 . S
O61 Sc45 2.105 . S
O61 C51 1.268 1_565 S
O62 Sc46 2.105 1_565 S
O62 C53 1.268 . S
O63 Sc44 2.105 . S
O63 C49 1.268 1_545 S
O64 Sc46 2.105 . S
O64 C48 1.268 . S
O65 Sc45 2.105 . S
O65 C50 1.268 . S
Sc66 O69 2.025 . S
Sc66 O76 2.105 1_455 S
Sc66 O79 2.105 . S
Sc66 O82 2.105 1_455 S
Sc66 O85 2.105 . S
Sc67 O69 2.025 . S
Sc67 O77 2.105 . S
Sc67 O81 2.105 . S
Sc67 O83 2.105 . S
Sc67 O87 2.105 . S
Sc68 O69 2.025 1_655 S
Sc68 O78 2.105 . S
Sc68 O80 2.105 . S
Sc68 O84 2.105 . S
Sc68 O86 2.105 . S
O69 Sc66 2.025 . S
O69 Sc67 2.025 . S
O69 Sc68 2.025 1_455 S
C70 O76 1.268 . S
C70 O86 1.268 . S
C71 O77 1.268 . S
C71 O85 1.268 . S
C72 O78 1.268 1_455 S
C72 O87 1.268 . S
C73 O79 1.268 . S
C73 O83 1.268 . S
C74 O80 1.268 . S
C74 O82 1.268 . S
C75 O81 1.268 1_655 S
C75 O84 1.268 . S
O76 Sc66 2.105 1_655 S
O76 C70 1.268 . S
O77 Sc67 2.105 . S
O77 C71 1.268 . S
O78 Sc68 2.105 . S
O78 C72 1.268 1_655 S
O79 Sc66 2.105 . S
O79 C73 1.268 . S
O80 Sc68 2.105 . S
O80 C74 1.268 . S
O81 Sc67 2.105 . S
O81 C75 1.268 1_455 S
O82 Sc66 2.105 1_655 S
O82 C74 1.268 . S
O83 Sc67 2.105 . S
O83 C73 1.268 . S
O84 Sc68 2.105 . S
O84 C75 1.268 . S
O85 Sc66 2.105 . S
O85 C71 1.268 . S
O86 Sc68 2.105 . S
O86 C70 1.268 . S
O87 Sc67 2.105 . S
O87 C72 1.268 . S
Sc88 O91 2.025 . S
Sc88 O98 2.105 . S
Sc88 O101 2.105 . S
Sc88 O104 2.105 . S
Sc88 O107 2.105 . S
Sc89 O91 2.025 . S
Sc89 O99 2.105 . S
Sc89 O103 2.105 . S
Sc89 O105 2.105 . S
Sc89 O109 2.105 . S
Sc90 O91 2.025 . S
Sc90 O100 2.105 . S
Sc90 O102 2.105 . S
Sc90 O106 2.105 . S
Sc90 O108 2.105 . S
O91 Sc88 2.025 . S
O91 Sc89 2.025 . S
O91 Sc90 2.025 . S
C92 O98 1.268 . S
C92 O108 1.268 . S
C93 O99 1.268 . S
C93 O107 1.268 . S
C94 O100 1.268 . S
C94 O109 1.268 . S
C95 O101 1.268 . S
C95 O105 1.268 . S
C96 O102 1.268 . S
C96 O104 1.268 . S
C97 O103 1.268 . S
C97 O106 1.268 . S
O98 Sc88 2.105 . S
O98 C92 1.268 . S
O99 Sc89 2.105 . S
O99 C93 1.268 . S
O100 Sc90 2.105 . S
O100 C94 1.268 . S
O101 Sc88 2.105 . S
O101 C95 1.268 . S
O102 Sc90 2.105 . S
O102 C96 1.268 . S
O103 Sc89 2.105 . S
O103 C97 1.268 . S
O104 Sc88 2.105 . S
O104 C96 1.268 . S
O105 Sc89 2.105 . S
O105 C95 1.268 . S
O106 Sc90 2.105 . S
O106 C97 1.268 . S
O107 Sc88 2.105 . S
O107 C93 1.268 . S
O108 Sc90 2.105 . S
O108 C92 1.268 . S
O109 Sc89 2.105 . S
O109 C94 1.268 . S
Sc110 O113 2.025 1_565 S
Sc110 O120 2.105 . S
Sc110 O123 2.105 . S
Sc110 O126 2.105 . S
Sc110 O129 2.105 . S
Sc111 O113 2.025 . S
Sc111 O121 2.105 . S
Sc111 O125 2.105 . S
Sc111 O127 2.105 . S
Sc111 O131 2.105 . S
Sc112 O113 2.025 . S
Sc112 O122 2.105 . S
Sc112 O124 2.105 1_545 S
Sc112 O128 2.105 . S
Sc112 O130 2.105 1_545 S
O113 Sc110 2.025 1_545 S
O113 Sc111 2.025 . S
O113 Sc112 2.025 . S
C114 O120 1.268 . S
C114 O130 1.268 . S
C115 O121 1.268 1_565 S
C115 O129 1.268 . S
C116 O122 1.268 . S
C116 O131 1.268 . S
C117 O123 1.268 1_545 S
C117 O127 1.268 . S
C118 O124 1.268 . S
C118 O126 1.268 . S
C119 O125 1.268 . S
C119 O128 1.268 . S
O120 Sc110 2.105 . S
O120 C114 1.268 . S
O121 Sc111 2.105 . S
O121 C115 1.268 1_545 S
O122 Sc112 2.105 . S
O122 C116 1.268 . S
O123 Sc110 2.105 . S
O123 C117 1.268 1_565 S
O124 Sc112 2.105 1_565 S
O124 C118 1.268 . S
O125 Sc111 2.105 . S
O125 C119 1.268 . S
O126 Sc110 2.105 . S
O126 C118 1.268 . S
O127 Sc111 2.105 . S
O127 C117 1.268 . S
O128 Sc112 2.105 . S
O128 C119 1.268 . S
O129 Sc110 2.105 . S
O129 C115 1.268 . S
O130 Sc112 2.105 1_565 S
O130 C114 1.268 . S
O131 Sc111 2.105 . S
O131 C116 1.268 . S
Sc132 O135 2.025 1_545 S
Sc132 O142 2.105 . S
Sc132 O145 2.105 1_545 S
Sc132 O148 2.105 . S
Sc132 O151 2.105 . S
Sc133 O135 2.025 . S
Sc133 O143 2.105 . S
Sc133 O147 2.105 . S
Sc133 O149 2.105 . S
Sc133 O153 2.105 . S
Sc134 O135 2.025 . S
Sc134 O144 2.105 . S
Sc134 O146 2.105 . S
Sc134 O150 2.105 . S
Sc134 O152 2.105 1_565 S
O135 Sc132 2.025 1_565 S
O135 Sc133 2.025 . S
O135 Sc134 2.025 . S
C136 O142 1.268 . S
C136 O152 1.268 . S
C137 O143 1.268 . S
C137 O151 1.268 1_565 S
C138 O144 1.268 . S
C138 O153 1.268 . S
C139 O145 1.268 . S
C139 O149 1.268 . S
C140 O146 1.268 1_545 S
C140 O148 1.268 . S
C141 O147 1.268 . S
C141 O150 1.268 . S
O142 Sc132 2.105 . S
O142 C136 1.268 . S
O143 Sc133 2.105 . S
O143 C137 1.268 . S
O144 Sc134 2.105 . S
O144 C138 1.268 . S
O145 Sc132 2.105 1_565 S
O145 C139 1.268 . S
O146 Sc134 2.105 . S
O146 C140 1.268 1_565 S
O147 Sc133 2.105 . S
O147 C141 1.268 . S
O148 Sc132 2.105 . S
O148 C140 1.268 . S
O149 Sc133 2.105 . S
O149 C139 1.268 . S
O150 Sc134 2.105 . S
O150 C141 1.268 . S
O151 Sc132 2.105 . S
O151 C137 1.268 1_545 S
O152 Sc134 2.105 1_545 S
O152 C136 1.268 . S
O153 Sc133 2.105 . S
O153 C138 1.268 . S
Sc154 O157 2.025 1_655 S
Sc154 O164 2.105 . S
Sc154 O167 2.105 1_655 S
Sc154 O170 2.105 . S
Sc154 O173 2.105 1_655 S
Sc155 O157 2.025 . S
Sc155 O165 2.105 . S
Sc155 O169 2.105 . S
Sc155 O171 2.105 . S
Sc155 O175 2.105 . S
Sc156 O157 2.025 . S
Sc156 O166 2.105 . S
Sc156 O168 2.105 . S
Sc156 O172 2.105 . S
Sc156 O174 2.105 1_455 S
O157 Sc154 2.025 1_455 S
O157 Sc155 2.025 . S
O157 Sc156 2.025 . S
C158 O164 1.268 . S
C158 O174 1.268 . S
C159 O165 1.268 . S
C159 O173 1.268 . S
C160 O166 1.268 . S
C160 O175 1.268 . S
C161 O167 1.268 . S
C161 O171 1.268 . S
C162 O168 1.268 1_655 S
C162 O170 1.268 . S
C163 O169 1.268 . S
C163 O172 1.268 . S
O164 Sc154 2.105 . S
O164 C158 1.268 . S
O165 Sc155 2.105 . S
O165 C159 1.268 . S
O166 Sc156 2.105 . S
O166 C160 1.268 . S
O167 Sc154 2.105 1_455 S
O167 C161 1.268 . S
O168 Sc156 2.105 . S
O168 C162 1.268 1_455 S
O169 Sc155 2.105 . S
O169 C163 1.268 . S
O170 Sc154 2.105 . S
O170 C162 1.268 . S
O171 Sc155 2.105 . S
O171 C161 1.268 . S
O172 Sc156 2.105 . S
O172 C163 1.268 . S
O173 Sc154 2.105 1_455 S
O173 C159 1.268 . S
O174 Sc156 2.105 1_655 S
O174 C158 1.268 . S
O175 Sc155 2.105 . S
O175 C160 1.268 . S
Sc176 O179 2.025 . S
Sc176 O186 2.105 . S
Sc176 O189 2.105 . S
Sc176 O192 2.105 . S
Sc176 O195 2.105 . S
Sc177 O179 2.025 . S
Sc177 O187 2.105 . S
Sc177 O191 2.105 . S
Sc177 O193 2.105 . S
Sc177 O197 2.105 . S
Sc178 O179 2.025 . S
Sc178 O188 2.105 . S
Sc178 O190 2.105 . S
Sc178 O194 2.105 . S
Sc178 O196 2.105 . S
O179 Sc176 2.025 . S
O179 Sc177 2.025 . S
O179 Sc178 2.025 . S
C180 O186 1.268 . S
C180 O196 1.268 . S
C181 O187 1.268 . S
C181 O195 1.268 . S
C182 O188 1.268 . S
C182 O197 1.268 . S
C183 O189 1.268 . S
C183 O193 1.268 . S
C184 O190 1.268 . S
C184 O192 1.268 . S
C185 O191 1.268 . S
C185 O194 1.268 . S
O186 Sc176 2.105 . S
O186 C180 1.268 . S
O187 Sc177 2.105 . S
O187 C181 1.268 . S
O188 Sc178 2.105 . S
O188 C182 1.268 . S
O189 Sc176 2.105 . S
O189 C183 1.268 . S
O190 Sc178 2.105 . S
O190 C184 1.268 . S
O191 Sc177 2.105 . S
O191 C185 1.268 . S
O192 Sc176 2.105 . S
O192 C184 1.268 . S
O193 Sc177 2.105 . S
O193 C183 1.268 . S
O194 Sc178 2.105 . S
O194 C185 1.268 . S
O195 Sc176 2.105 . S
O195 C181 1.268 . S
O196 Sc178 2.105 . S
O196 C180 1.268 . S
O197 Sc177 2.105 . S
O197 C182 1.268 . S
Sc198 O201 2.025 . S
Sc198 O208 2.105 . S
Sc198 O211 2.105 . S
Sc198 O214 2.105 . S
Sc198 O217 2.105 . S
Sc199 O201 2.025 . S
Sc199 O209 2.108 . S
Sc199 O213 2.105 . S
Sc199 O215 2.105 . S
Sc199 O219 2.105 1_554 S
Sc200 O201 2.025 . S
Sc200 O210 2.105 1_554 S
Sc200 O212 2.105 . S
Sc200 O216 2.105 . S
Sc200 O218 2.105 . S
O201 Sc198 2.025 . S
O201 Sc199 2.025 . S
O201 Sc200 2.025 . S
C202 O208 1.268 . S
C202 O218 1.268 . S
C203 O209 1.268 1_556 S
C203 O217 1.268 1_556 S
C204 O210 1.268 . S
C204 O219 1.268 . S
C205 O211 1.268 . S
C205 O215 1.268 . S
C206 O212 1.268 . S
C206 O214 1.268 . S
C207 O213 1.268 . S
C207 O216 1.268 . S
O208 Sc198 2.105 . S
O208 C202 1.268 . S
O209 Sc199 2.108 . S
O209 C203 1.268 1_554 S
O210 Sc200 2.105 1_556 S
O210 C204 1.268 . S
O211 Sc198 2.105 . S
O211 C205 1.268 . S
O212 Sc200 2.105 . S
O212 C206 1.268 . S
O213 Sc199 2.105 . S
O213 C207 1.268 . S
O214 Sc198 2.105 . S
O214 C206 1.268 . S
O215 Sc199 2.105 . S
O215 C205 1.268 . S
O216 Sc200 2.105 . S
O216 C207 1.268 . S
O217 Sc198 2.105 . S
O217 C203 1.268 1_554 S
O218 Sc200 2.105 . S
O218 C202 1.268 . S
O219 Sc199 2.105 1_556 S
O219 C204 1.268 . S
Sc220 O223 2.025 . S
Sc220 O230 2.105 1_565 S
Sc220 O233 2.105 . S
Sc220 O236 2.105 . S
Sc220 O239 2.105 . S
Sc221 O223 2.025 . S
Sc221 O231 2.108 . S
Sc221 O235 2.105 . S
Sc221 O237 2.105 . S
Sc221 O241 2.105 1_554 S
Sc222 O223 2.025 1_545 S
Sc222 O232 2.105 1_554 S
Sc222 O234 2.105 . S
Sc222 O238 2.105 1_545 S
Sc222 O240 2.105 . S
O223 Sc220 2.025 . S
O223 Sc221 2.025 . S
O223 Sc222 2.025 1_565 S
C224 O230 1.268 . S
C224 O240 1.268 . S
C225 O231 1.268 1_556 S
C225 O239 1.268 1_556 S
C226 O232 1.268 1_565 S
C226 O241 1.268 . S
C227 O233 1.268 . S
C227 O237 1.268 . S
C228 O234 1.268 . S
C228 O236 1.268 1_545 S
C229 O235 1.268 . S
C229 O238 1.268 . S
O230 Sc220 2.105 1_545 S
O230 C224 1.268 . S
O231 Sc221 2.108 . S
O231 C225 1.268 1_554 S
O232 Sc222 2.105 1_556 S
O232 C226 1.268 1_545 S
O233 Sc220 2.105 . S
O233 C227 1.268 . S
O234 Sc222 2.105 . S
O234 C228 1.268 . S
O235 Sc221 2.105 . S
O235 C229 1.268 . S
O236 Sc220 2.105 . S
O236 C228 1.268 1_565 S
O237 Sc221 2.105 . S
O237 C227 1.268 . S
O238 Sc222 2.105 1_565 S
O238 C229 1.268 . S
O239 Sc220 2.105 . S
O239 C225 1.268 1_554 S
O240 Sc222 2.105 . S
O240 C224 1.268 . S
O241 Sc221 2.105 1_556 S
O241 C226 1.268 . S
Sc242 O245 2.025 . S
Sc242 O252 2.105 1_455 S
Sc242 O255 2.105 . S
Sc242 O258 2.105 . S
Sc242 O261 2.105 . S
Sc243 O245 2.025 . S
Sc243 O253 2.108 . S
Sc243 O257 2.105 . S
Sc243 O259 2.105 . S
Sc243 O263 2.105 1_554 S
Sc244 O245 2.025 1_655 S
Sc244 O254 2.105 1_654 S
Sc244 O256 2.105 . S
Sc244 O260 2.105 1_655 S
Sc244 O262 2.105 . S
O245 Sc242 2.025 . S
O245 Sc243 2.025 . S
O245 Sc244 2.025 1_455 S
C246 O252 1.268 . S
C246 O262 1.268 . S
C247 O253 1.268 1_556 S
C247 O261 1.268 1_556 S
C248 O254 1.268 . S
C248 O263 1.268 . S
C249 O255 1.268 . S
C249 O259 1.268 . S
C250 O256 1.268 . S
C250 O258 1.268 1_655 S
C251 O257 1.268 . S
C251 O260 1.268 . S
O252 Sc242 2.105 1_655 S
O252 C246 1.268 . S
O253 Sc243 2.108 . S
O253 C247 1.268 1_554 S
O254 Sc244 2.105 1_456 S
O254 C248 1.268 . S
O255 Sc242 2.105 . S
O255 C249 1.268 . S
O256 Sc244 2.105 . S
O256 C250 1.268 . S
O257 Sc243 2.105 . S
O257 C251 1.268 . S
O258 Sc242 2.105 . S
O258 C250 1.268 1_455 S
O259 Sc243 2.105 . S
O259 C249 1.268 . S
O260 Sc244 2.105 1_455 S
O260 C251 1.268 . S
O261 Sc242 2.105 . S
O261 C247 1.268 1_554 S
O262 Sc244 2.105 . S
O262 C246 1.268 . S
O263 Sc243 2.105 1_556 S
O263 C248 1.268 . S
Sc264 O267 2.025 . S
Sc264 O274 2.105 . S
Sc264 O277 2.105 . S
Sc264 O280 2.105 1_556 S
Sc264 O283 2.105 . S
Sc265 O267 2.025 . S
Sc265 O275 2.105 . S
Sc265 O279 2.105 . S
Sc265 O281 2.105 . S
Sc265 O285 2.105 . S
Sc266 O267 2.025 . S
Sc266 O276 2.105 . S
Sc266 O278 2.105 1_556 S
Sc266 O282 2.108 . S
Sc266 O284 2.105 . S
O267 Sc264 2.025 . S
O267 Sc265 2.025 . S
O267 Sc266 2.025 . S
C268 O274 1.268 . S
C268 O284 1.268 . S
C269 O275 1.268 . S
C269 O283 1.268 . S
C270 O276 1.268 . S
C270 O285 1.268 . S
C271 O277 1.268 . S
C271 O281 1.268 . S
C272 O278 1.268 . S
C272 O280 1.268 . S
C273 O279 1.268 1_554 S
C273 O282 1.268 1_554 S
O274 Sc264 2.105 . S
O274 C268 1.268 . S
O275 Sc265 2.105 . S
O275 C269 1.268 . S
O276 Sc266 2.105 . S
O276 C270 1.268 . S
O277 Sc264 2.105 . S
O277 C271 1.268 . S
O278 Sc266 2.105 1_554 S
O278 C272 1.268 . S
O279 Sc265 2.105 . S
O279 C273 1.268 1_556 S
O280 Sc264 2.105 1_554 S
O280 C272 1.268 . S
O281 Sc265 2.105 . S
O281 C271 1.268 . S
O282 Sc266 2.108 . S
O282 C273 1.268 1_556 S
O283 Sc264 2.105 . S
O283 C269 1.268 . S
O284 Sc266 2.105 . S
O284 C268 1.268 . S
O285 Sc265 2.105 . S
O285 C270 1.268 . S
Sc286 O289 2.025 . S
Sc286 O296 2.105 . S
Sc286 O299 2.105 . S
Sc286 O302 2.105 1_545 S
Sc286 O305 2.105 . S
Sc287 O289 2.025 . S
Sc287 O297 2.105 . S
Sc287 O301 2.105 1_556 S
Sc287 O303 2.108 . S
Sc287 O307 2.105 . S
Sc288 O289 2.025 1_565 S
Sc288 O298 2.105 1_565 S
Sc288 O300 2.105 . S
Sc288 O304 2.105 1_566 S
Sc288 O306 2.105 . S
O289 Sc286 2.025 . S
O289 Sc287 2.025 . S
O289 Sc288 2.025 1_545 S
C290 O296 1.268 1_565 S
C290 O306 1.268 . S
C291 O297 1.268 . S
C291 O305 1.268 . S
C292 O298 1.268 . S
C292 O307 1.268 . S
C293 O299 1.268 1_554 S
C293 O303 1.268 1_554 S
C294 O300 1.268 . S
C294 O302 1.268 . S
C295 O301 1.268 . S
C295 O304 1.268 . S
O296 Sc286 2.105 . S
O296 C290 1.268 1_545 S
O297 Sc287 2.105 . S
O297 C291 1.268 . S
O298 Sc288 2.105 1_545 S
O298 C292 1.268 . S
O299 Sc286 2.105 . S
O299 C293 1.268 1_556 S
O300 Sc288 2.105 . S
O300 C294 1.268 . S
O301 Sc287 2.105 1_554 S
O301 C295 1.268 . S
O302 Sc286 2.105 1_565 S
O302 C294 1.268 . S
O303 Sc287 2.108 . S
O303 C293 1.268 1_556 S
O304 Sc288 2.105 1_544 S
O304 C295 1.268 . S
O305 Sc286 2.105 . S
O305 C291 1.268 . S
O306 Sc288 2.105 . S
O306 C290 1.268 . S
O307 Sc287 2.105 . S
O307 C292 1.268 . S
Sc308 O311 2.025 . S
Sc308 O318 2.105 . S
Sc308 O321 2.105 . S
Sc308 O324 2.105 1_655 S
Sc308 O327 2.105 . S
Sc309 O311 2.025 . S
Sc309 O319 2.105 . S
Sc309 O323 2.105 1_556 S
Sc309 O325 2.108 . S
Sc309 O329 2.105 . S
Sc310 O311 2.025 1_455 S
Sc310 O320 2.105 1_455 S
Sc310 O322 2.105 . S
Sc310 O326 2.105 1_556 S
Sc310 O328 2.105 . S
O311 Sc308 2.025 . S
O311 Sc309 2.025 . S
O311 Sc310 2.025 1_655 S
C312 O318 1.268 1_455 S
C312 O328 1.268 . S
C313 O319 1.268 . S
C313 O327 1.268 . S
C314 O320 1.268 . S
C314 O329 1.268 . S
C315 O321 1.268 1_554 S
C315 O325 1.268 1_554 S
C316 O322 1.268 . S
C316 O324 1.268 . S
C317 O323 1.268 . S
C317 O326 1.268 1_655 S
O318 Sc308 2.105 . S
O318 C312 1.268 1_655 S
O319 Sc309 2.105 . S
O319 C313 1.268 . S
O320 Sc310 2.105 1_655 S
O320 C314 1.268 . S
O321 Sc308 2.105 . S
O321 C315 1.268 1_556 S
O322 Sc310 2.105 . S
O322 C316 1.268 . S
O323 Sc309 2.105 1_554 S
O323 C317 1.268 . S
O324 Sc308 2.105 1_455 S
O324 C316 1.268 . S
O325 Sc309 2.108 . S
O325 C315 1.268 1_556 S
O326 Sc310 2.105 1_554 S
O326 C317 1.268 1_455 S
O327 Sc308 2.105 . S
O327 C313 1.268 . S
O328 Sc310 2.105 . S
O328 C312 1.268 . S
O329 Sc309 2.105 . S
O329 C314 1.268 . S
Sc330 O333 2.025 1_565 S
Sc330 O340 2.105 . S
Sc330 O343 2.105 1_565 S
Sc330 O346 2.105 . S
Sc330 O349 2.105 1_565 S
Sc331 O333 2.025 . S
Sc331 O341 2.105 . S
Sc331 O345 2.105 . S
Sc331 O347 2.105 . S
Sc331 O351 2.105 . S
Sc332 O333 2.025 . S
Sc332 O342 2.105 . S
Sc332 O344 2.105 1_545 S
Sc332 O348 2.105 . S
Sc332 O350 2.105 . S
O333 Sc330 2.025 1_545 S
O333 Sc331 2.025 . S
O333 Sc332 2.025 . S
C334 O340 1.268 . S
C334 O350 1.268 1_565 S
C335 O341 1.268 . S
C335 O349 1.268 . S
C336 O342 1.268 . S
C336 O351 1.268 . S
C337 O343 1.268 . S
C337 O347 1.268 . S
C338 O344 1.268 . S
C338 O346 1.268 . S
C339 O345 1.268 . S
C339 O348 1.268 . S
O340 Sc330 2.105 . S
O340 C334 1.268 . S
O341 Sc331 2.105 . S
O341 C335 1.268 . S
O342 Sc332 2.105 . S
O342 C336 1.268 . S
O343 Sc330 2.105 1_545 S
O343 C337 1.268 . S
O344 Sc332 2.105 1_565 S
O344 C338 1.268 . S
O345 Sc331 2.105 . S
O345 C339 1.268 . S
O346 Sc330 2.105 . S
O346 C338 1.268 . S
O347 Sc331 2.105 . S
O347 C337 1.268 . S
O348 Sc332 2.105 . S
O348 C339 1.268 . S
O349 Sc330 2.105 1_545 S
O349 C335 1.268 . S
O350 Sc332 2.105 . S
O350 C334 1.268 1_545 S
O351 Sc331 2.105 . S
O351 C336 1.268 . S
Sc352 O355 2.025 . S
Sc352 O362 2.105 . S
Sc352 O365 2.105 . S
Sc352 O368 2.105 . S
Sc352 O371 2.105 . S
Sc353 O355 2.025 . S
Sc353 O363 2.105 . S
Sc353 O367 2.105 1_655 S
Sc353 O369 2.105 . S
Sc353 O373 2.105 . S
Sc354 O355 2.025 1_455 S
Sc354 O364 2.105 . S
Sc354 O366 2.105 . S
Sc354 O370 2.105 . S
Sc354 O372 2.105 1_455 S
O355 Sc352 2.025 . S
O355 Sc353 2.025 . S
O355 Sc354 2.025 1_655 S
C356 O362 1.268 . S
C356 O372 1.268 . S
C357 O363 1.268 . S
C357 O371 1.268 . S
C358 O364 1.268 . S
C358 O373 1.268 1_455 S
C359 O365 1.268 . S
C359 O369 1.268 . S
C360 O366 1.268 1_655 S
C360 O368 1.268 . S
C361 O367 1.268 . S
C361 O370 1.268 . S
O362 Sc352 2.105 . S
O362 C356 1.268 . S
O363 Sc353 2.105 . S
O363 C357 1.268 . S
O364 Sc354 2.105 . S
O364 C358 1.268 . S
O365 Sc352 2.105 . S
O365 C359 1.268 . S
O366 Sc354 2.105 . S
O366 C360 1.268 1_455 S
O367 Sc353 2.105 1_455 S
O367 C361 1.268 . S
O368 Sc352 2.105 . S
O368 C360 1.268 . S
O369 Sc353 2.105 . S
O369 C359 1.268 . S
O370 Sc354 2.105 . S
O370 C361 1.268 . S
O371 Sc352 2.105 . S
O371 C357 1.268 . S
O372 Sc354 2.105 1_655 S
O372 C356 1.268 . S
O373 Sc353 2.105 . S
O373 C358 1.268 1_655 S
Sc374 O377 2.025 . S
Sc374 O384 2.105 . S
Sc374 O387 2.105 . S
Sc374 O390 2.105 . S
Sc374 O393 2.105 . S
Sc375 O377 2.025 . S
Sc375 O385 2.105 . S
Sc375 O389 2.105 . S
Sc375 O391 2.105 . S
Sc375 O395 2.105 . S
Sc376 O377 2.025 . S
Sc376 O386 2.105 . S
Sc376 O388 2.105 . S
Sc376 O392 2.105 . S
Sc376 O394 2.105 . S
O377 Sc374 2.025 . S
O377 Sc375 2.025 . S
O377 Sc376 2.025 . S
C378 O384 1.268 . S
C378 O394 1.268 . S
C379 O385 1.268 . S
C379 O393 1.268 . S
C380 O386 1.268 . S
C380 O395 1.268 . S
C381 O387 1.268 . S
C381 O391 1.268 . S
C382 O388 1.268 . S
C382 O390 1.268 . S
C383 O389 1.268 . S
C383 O392 1.268 . S
O384 Sc374 2.105 . S
O384 C378 1.268 . S
O385 Sc375 2.105 . S
O385 C379 1.268 . S
O386 Sc376 2.105 . S
O386 C380 1.268 . S
O387 Sc374 2.105 . S
O387 C381 1.268 . S
O388 Sc376 2.105 . S
O388 C382 1.268 . S
O389 Sc375 2.105 . S
O389 C383 1.268 . S
O390 Sc374 2.105 . S
O390 C382 1.268 . S
O391 Sc375 2.105 . S
O391 C381 1.268 . S
O392 Sc376 2.105 . S
O392 C383 1.268 . S
O393 Sc374 2.105 . S
O393 C379 1.268 . S
O394 Sc376 2.105 . S
O394 C378 1.268 . S
O395 Sc375 2.105 . S
O395 C380 1.268 . S
C251 C6 1.452 . S
C27 C207 1.452 . S
C49 C229 1.452 . S
C335 C51 1.452 . S
C9 C356 1.452 . S
C29 C378 1.452 . S
C314 C75 1.452 . S
C95 C268 1.452 . S
C117 C292 1.452 . S
C139 C115 1.452 . S
C72 C161 1.452 . S
C183 C93 1.452 . S
C383 C138 1.452 . S
C338 C160 1.452 . S
C361 C182 1.452 . S
C71 C185 1.452 . S
C92 C141 1.452 . S
C163 C114 1.452 . S
C50 C205 1.452 . S
C4 C227 1.452 . S
C249 C28 1.452 . S
C247 C271 1.452 . S
C203 C294 1.452 . S
C225 C316 1.452 . S
C270 C119 1.452 . S
C291 C74 1.452 . S
C313 C97 1.452 . S
C315 C202 1.452 . S
C273 C224 1.452 . S
C293 C246 1.452 . S
C339 C180 1.452 . S
C359 C136 1.452 . S
C158 C381 1.452 . S
C7 C379 1.452 . S
C30 C336 1.452 . S
C357 C52 1.452 . S
C159 C8 2.027 . S
C181 C31 2.027 . S
C137 C53 2.027 . S
C295 C48 2.027 . S
C5 C317 2.027 . S
C26 C272 2.027 . S
C70 C360 2.027 . S
C94 C382 2.027 . S
C116 C337 2.027 . S
C118 C226 2.027 . S
C248 C73 2.027 . S
C96 C204 2.027 . S
C140 C290 2.027 1_545 S
C162 C312 2.027 1_655 S
C184 C269 2.027 . S
C250 C358 2.027 1_655 S
C380 C206 2.027 . S
C334 C228 2.027 1_565 S
