# Generated by pormake.
# Topology wmt, (6)-cn, num edge types: 1
# Building blocks:
#     Node 0, Type 0, BuildingBlock: JUFBIX_clean_sbu_0, # of connection points: 6
#     Node 1, Type 0, BuildingBlock: JUFBIX_clean_sbu_0, # of connection points: 6
#     Node 2, Type 0, BuildingBlock: JUFBIX_clean_sbu_0, # of connection points: 6
#     Node 3, Type 0, BuildingBlock: JUFBIX_clean_sbu_0, # of connection points: 6
#     Node 4, Type 0, BuildingBlock: JUFBIX_clean_sbu_0, # of connection points: 6
#     Node 5, Type 0, BuildingBlock: JUFBIX_clean_sbu_0, # of connection points: 6
#     Node 6, Type 0, BuildingBlock: JUFBIX_clean_sbu_0, # of connection points: 6
#     Node 7, Type 0, BuildingBlock: JUFBIX_clean_sbu_0, # of connection points: 6
#     Node 8, Type 0, BuildingBlock: JUFBIX_clean_sbu_0, # of connection points: 6
#     Node 9, Type 0, BuildingBlock: JUFBIX_clean_sbu_0, # of connection points: 6
#     Node 10, Type 0, BuildingBlock: JUFBIX_clean_sbu_0, # of connection points: 6
#     Node 11, Type 0, BuildingBlock: JUFBIX_clean_sbu_0, # of connection points: 6
#     Node 12, Type 0, BuildingBlock: JUFBIX_clean_sbu_0, # of connection points: 6
#     Node 13, Type 0, BuildingBlock: JUFBIX_clean_sbu_0, # of connection points: 6
#     Node 14, Type 0, BuildingBlock: JUFBIX_clean_sbu_0, # of connection points: 6
#     Node 15, Type 0, BuildingBlock: JUFBIX_clean_sbu_0, # of connection points: 6
#     Node 16, Type 0, BuildingBlock: JUFBIX_clean_sbu_0, # of connection points: 6
#     Node 17, Type 0, BuildingBlock: JUFBIX_clean_sbu_0, # of connection points: 6
#     Node 18, Type 0, BuildingBlock: JUFBIX_clean_sbu_0, # of connection points: 6
#     Node 19, Type 0, BuildingBlock: JUFBIX_clean_sbu_0, # of connection points: 6
#     Node 20, Type 0, BuildingBlock: JUFBIX_clean_sbu_0, # of connection points: 6
#     Node 21, Type 0, BuildingBlock: JUFBIX_clean_sbu_0, # of connection points: 6
#     Node 22, Type 0, BuildingBlock: JUFBIX_clean_sbu_0, # of connection points: 6
#     Node 23, Type 0, BuildingBlock: JUFBIX_clean_sbu_0, # of connection points: 6
#     Node 24, Type 0, BuildingBlock: JUFBIX_clean_sbu_0, # of connection points: 6
#     Node 25, Type 0, BuildingBlock: JUFBIX_clean_sbu_0, # of connection points: 6
#     Node 26, Type 0, BuildingBlock: JUFBIX_clean_sbu_0, # of connection points: 6
#     Node 27, Type 0, BuildingBlock: JUFBIX_clean_sbu_0, # of connection points: 6
#     Node 28, Type 0, BuildingBlock: JUFBIX_clean_sbu_0, # of connection points: 6
#     Node 29, Type 0, BuildingBlock: JUFBIX_clean_sbu_0, # of connection points: 6
#     Node 30, Type 0, BuildingBlock: JUFBIX_clean_sbu_0, # of connection points: 6
#     Node 31, Type 0, BuildingBlock: JUFBIX_clean_sbu_0, # of connection points: 6
#     Node 32, Type 0, BuildingBlock: JUFBIX_clean_sbu_0, # of connection points: 6
#     Node 33, Type 0, BuildingBlock: JUFBIX_clean_sbu_0, # of connection points: 6
#     Node 34, Type 0, BuildingBlock: JUFBIX_clean_sbu_0, # of connection points: 6
#     Node 35, Type 0, BuildingBlock: JUFBIX_clean_sbu_0, # of connection points: 6
#     Edge 36, Type (0, 0), None
#     Edge 37, Type (0, 0), None
#     Edge 38, Type (0, 0), None
#     Edge 39, Type (0, 0), None
#     Edge 40, Type (0, 0), None
#     Edge 41, Type (0, 0), None
#     Edge 42, Type (0, 0), None
#     Edge 43, Type (0, 0), None
#     Edge 44, Type (0, 0), None
#     Edge 45, Type (0, 0), None
#     Edge 46, Type (0, 0), None
#     Edge 47, Type (0, 0), None
#     Edge 48, Type (0, 0), None
#     Edge 49, Type (0, 0), None
#     Edge 50, Type (0, 0), None
#     Edge 51, Type (0, 0), None
#     Edge 52, Type (0, 0), None
#     Edge 53, Type (0, 0), None
#     Edge 54, Type (0, 0), None
#     Edge 55, Type (0, 0), None
#     Edge 56, Type (0, 0), None
#     Edge 57, Type (0, 0), None
#     Edge 58, Type (0, 0), None
#     Edge 59, Type (0, 0), None
#     Edge 60, Type (0, 0), None
#     Edge 61, Type (0, 0), None
#     Edge 62, Type (0, 0), None
#     Edge 63, Type (0, 0), None
#     Edge 64, Type (0, 0), None
#     Edge 65, Type (0, 0), None
#     Edge 66, Type (0, 0), None
#     Edge 67, Type (0, 0), None
#     Edge 68, Type (0, 0), None
#     Edge 69, Type (0, 0), None
#     Edge 70, Type (0, 0), None
#     Edge 71, Type (0, 0), None
#     Edge 72, Type (0, 0), None
#     Edge 73, Type (0, 0), None
#     Edge 74, Type (0, 0), None
#     Edge 75, Type (0, 0), None
#     Edge 76, Type (0, 0), None
#     Edge 77, Type (0, 0), None
#     Edge 78, Type (0, 0), None
#     Edge 79, Type (0, 0), None
#     Edge 80, Type (0, 0), None
#     Edge 81, Type (0, 0), None
#     Edge 82, Type (0, 0), None
#     Edge 83, Type (0, 0), None
#     Edge 84, Type (0, 0), None
#     Edge 85, Type (0, 0), None
#     Edge 86, Type (0, 0), None
#     Edge 87, Type (0, 0), None
#     Edge 88, Type (0, 0), None
#     Edge 89, Type (0, 0), None
#     Edge 90, Type (0, 0), None
#     Edge 91, Type (0, 0), None
#     Edge 92, Type (0, 0), None
#     Edge 93, Type (0, 0), None
#     Edge 94, Type (0, 0), None
#     Edge 95, Type (0, 0), None
#     Edge 96, Type (0, 0), None
#     Edge 97, Type (0, 0), None
#     Edge 98, Type (0, 0), None
#     Edge 99, Type (0, 0), None
#     Edge 100, Type (0, 0), None
#     Edge 101, Type (0, 0), None
#     Edge 102, Type (0, 0), None
#     Edge 103, Type (0, 0), None
#     Edge 104, Type (0, 0), None
#     Edge 105, Type (0, 0), None
#     Edge 106, Type (0, 0), None
#     Edge 107, Type (0, 0), None
#     Edge 108, Type (0, 0), None
#     Edge 109, Type (0, 0), None
#     Edge 110, Type (0, 0), None
#     Edge 111, Type (0, 0), None
#     Edge 112, Type (0, 0), None
#     Edge 113, Type (0, 0), None
#     Edge 114, Type (0, 0), None
#     Edge 115, Type (0, 0), None
#     Edge 116, Type (0, 0), None
#     Edge 117, Type (0, 0), None
#     Edge 118, Type (0, 0), None
#     Edge 119, Type (0, 0), None
#     Edge 120, Type (0, 0), None
#     Edge 121, Type (0, 0), None
#     Edge 122, Type (0, 0), None
#     Edge 123, Type (0, 0), None
#     Edge 124, Type (0, 0), None
#     Edge 125, Type (0, 0), None
#     Edge 126, Type (0, 0), None
#     Edge 127, Type (0, 0), None
#     Edge 128, Type (0, 0), None
#     Edge 129, Type (0, 0), None
#     Edge 130, Type (0, 0), None
#     Edge 131, Type (0, 0), None
#     Edge 132, Type (0, 0), None
#     Edge 133, Type (0, 0), None
#     Edge 134, Type (0, 0), None
#     Edge 135, Type (0, 0), None
#     Edge 136, Type (0, 0), None
#     Edge 137, Type (0, 0), None
#     Edge 138, Type (0, 0), None
#     Edge 139, Type (0, 0), None
#     Edge 140, Type (0, 0), None
#     Edge 141, Type (0, 0), None
#     Edge 142, Type (0, 0), None
#     Edge 143, Type (0, 0), None
# Relax obj value: 0.842
# Max RMSD: 0.288
# Mean RMSD: 0.288
data_MOF--net-wmt--node1-JUFBIX_clean_sbu_0--edge1-none
_symmetry_space_group_name_H-M    P1
_symmetry_Int_Tables_number       1
_symmetry_cell_setting            triclinic
loop_
_symmetry_equiv_pos_as_xyz
'x, y, z'
_cell_length_a     42.089975
_cell_length_b     42.042047
_cell_length_c     13.844895
_cell_angle_alpha  89.987911
_cell_angle_beta   90.024654
_cell_angle_gamma 119.88723
loop_
_atom_site_label
_atom_site_type_symbol
_atom_site_fract_x
_atom_site_fract_y
_atom_site_fract_z
_atom_type_partial_charge
Co0 Co 0.04095 0.47804 1.02682 0.0
C1 C -0.02114 0.47138 0.11539 0.0
Co2 Co 0.00677 0.42881 0.11287 0.0
C3 C 0.06523 0.52095 0.84491 0.0
C4 C 0.07046 0.55322 0.96982 0.0
N5 N 0.06388 0.51962 0.94351 0.0
N6 N 0.07076 0.5535 0.80932 0.0
C7 C 0.07392 0.57354 0.8886 0.0
H8 H 0.05663 0.49688 0.80027 0.0
H9 H 0.06812 0.56094 1.04285 0.0
C10 C 0.07255 0.43664 0.05212 0.0
N11 N -0.0145 0.38788 0.1894 0.0
C12 C -0.03003 0.38647 0.27509 0.0
C13 C -0.00468 0.36175 0.19474 0.0
N14 N -0.02915 0.36146 0.33297 0.0
C15 C -0.01273 0.34627 0.28454 0.0
C16 C -0.01802 0.41656 0.92275 0.0
O17 O 0.08082 0.46676 1.00986 0.0
O18 O 0.04018 0.41669 0.07953 0.0
O19 O -0.0257 0.40185 1.00605 0.0
O20 O 0.01191 0.44731 0.91382 0.0
O21 O -0.02577 0.44189 0.15075 0.0
H22 H 0.01161 0.35726 0.14224 0.0
H23 H 0.96223 0.40616 0.29893 0.0
O24 O 0.00341 0.48885 0.05209 0.0
O25 O 0.0659 0.50733 0.14223 0.0
O26 O 0.03708 0.45508 0.21983 0.0
C27 C 0.0589 0.48947 0.22156 0.0
H28 H 0.07491 0.59979 0.88799 0.0
H29 H -0.00346 0.32877 0.31577 0.0
Co30 Co 0.46819 0.55225 1.02676 0.0
C31 C 0.47482 0.49667 0.11532 0.0
Co32 Co 0.51735 0.56703 0.11292 0.0
C33 C 0.42524 0.5336 0.84473 0.0
C34 C 0.39309 0.5068 0.96982 0.0
N35 N 0.42662 0.53374 0.94336 0.0
N36 N 0.39274 0.5066 0.80932 0.0
C37 C 0.37279 0.48986 0.88871 0.0
H38 H 0.44926 0.54897 0.8 0.0
H39 H 0.38542 0.49683 1.04292 0.0
C40 C 0.50966 0.62523 0.05227 0.0
N41 N 0.55826 0.58641 0.18924 0.0
C42 C 0.55952 0.57238 0.27524 0.0
C43 C 0.5846 0.6222 0.19396 0.0
N44 N 0.5846 0.59821 0.33288 0.0
C45 C 0.60004 0.62967 0.28383 0.0
C46 C 0.52959 0.55456 0.92274 0.0
O47 O 0.47956 0.60351 1.00989 0.0
O48 O 0.5295 0.61263 0.07992 0.0
O49 O 0.54428 0.56149 1.00605 0.0
O50 O 0.49886 0.55385 0.9138 0.0
O51 O 0.50431 0.5214 0.15058 0.0
H52 H 0.58921 0.64288 0.14099 0.0
H53 H 0.53965 0.54514 0.2994 0.0
O54 O 0.45737 0.50387 1.05204 0.0
O55 O 0.43893 0.54799 0.14217 0.0
O56 O 0.49108 0.57109 0.22006 0.0
C57 C 0.45672 0.55865 0.22164 0.0
H58 H 0.3466 0.46464 0.8883 0.0
H59 H 0.61759 0.65644 0.31473 0.0
Co60 Co 0.39409 0.90524 1.02683 0.0
C61 C 0.44954 0.96736 0.11543 0.0
Co62 Co 0.37912 0.93957 0.11281 0.0
C63 C 0.41275 0.88093 0.84482 0.0
C64 C 0.43964 0.87555 0.96984 0.0
N65 N 0.41266 0.88217 0.94345 0.0
N66 N 0.43976 0.8754 0.80933 0.0
C67 C 0.45656 0.87216 0.88869 0.0
H68 H 0.39733 0.8896 0.80014 0.0
H69 H 0.44964 0.87783 1.04292 0.0
C70 C 0.32109 0.87377 1.05204 0.0
N71 N 0.3596 0.96105 0.18926 0.0
C72 C 0.37373 0.97659 0.27493 0.0
C73 C 0.32375 0.95137 0.19458 0.0
N74 N 0.34795 0.97583 0.33283 0.0
C75 C 0.31639 0.9595 0.28438 0.0
C76 C 0.39167 0.96436 0.92274 0.0
O77 O 0.34291 0.86538 1.01002 0.0
O78 O 0.33355 0.90622 0.07932 0.0
O79 O 0.38471 0.97212 1.00601 0.0
O80 O 0.39239 0.93432 0.91382 0.0
O81 O 0.42473 0.97204 0.15084 0.0
H82 H 0.30299 0.93509 0.14213 0.0
H83 H 0.40107 -0.01581 0.29878 0.0
O84 O 0.44242 0.94277 1.05205 0.0
O85 O 0.39845 0.88027 0.14224 0.0
O86 O 0.375 0.90915 0.2198 0.0
C87 C 0.38761 0.8873 0.22156 0.0
H88 H 0.48179 0.87116 0.88822 0.0
H89 H 0.28969 0.95024 0.31568 0.0
Co90 Co 0.4673 0.05175 0.73841 0.0
C91 C 0.46064 -0.01042 0.64988 0.0
Co92 Co 0.41815 0.01747 0.65223 0.0
C93 C 0.51022 0.076 0.9204 0.0
C94 C 0.54239 0.08126 0.79538 0.0
N95 N 0.50885 0.07471 0.82179 0.0
N96 N 0.54273 0.08149 0.95588 0.0
C97 C 0.5627 0.08466 0.87653 0.0
H98 H 0.48619 0.0674 0.96509 0.0
H99 H 0.55008 0.07894 0.72231 0.0
C100 C 0.42589 0.08334 0.71285 0.0
N101 N 0.37729 -0.0039 0.57579 0.0
C102 C 0.3762 -0.01889 0.48945 0.0
C103 C 0.35086 0.00549 0.57137 0.0
N104 N 0.35114 -0.01799 0.43193 0.0
C105 C 0.3355 -0.00224 0.48138 0.0
C106 C 0.40588 -0.00725 0.8424 0.0
O107 O 0.45595 0.09162 0.75538 0.0
O108 O 0.40603 0.05095 0.68513 0.0
O109 O 0.39118 -0.01494 0.75911 0.0
O110 O 0.43662 0.02268 0.85136 0.0
O111 O 0.43114 -0.01514 0.61465 0.0
H112 H 0.34613 0.02135 0.62476 0.0
H113 H 0.39613 0.97379 0.4651 0.0
O114 O 0.47812 0.0142 0.71309 0.0
O115 O 0.49657 0.07675 0.62303 0.0
O116 O 0.44443 0.04776 0.54518 0.0
C117 C 0.47877 0.06966 0.54359 0.0
H118 H 0.58892 0.08563 0.87702 0.0
H119 H 0.31777 0.00686 0.45082 0.0
Co120 Co 0.89457 0.40487 0.73835 0.0
C121 C 0.95662 0.46027 0.64978 0.0
Co122 Co 0.92879 0.38981 0.65236 0.0
C123 C 0.87028 0.42352 0.92032 0.0
C124 C 0.86496 0.45051 0.79537 0.0
N125 N 0.87157 0.42349 0.8217 0.0
N126 N 0.86475 0.45054 0.95588 0.0
C127 C 0.86154 0.46739 0.87658 0.0
H128 H 0.87892 0.40805 0.96496 0.0
H129 H 0.86726 0.46055 0.72233 0.0
C130 C 0.86305 0.33185 0.71309 0.0
N131 N 0.95014 0.37022 0.57577 0.0
C132 C 0.96538 0.38423 0.48975 0.0
C133 C 0.94054 0.33434 0.57077 0.0
N134 N 0.96448 0.35832 0.43198 0.0
C135 C 0.94844 0.32683 0.48085 0.0
C136 C 0.95361 0.40237 0.84241 0.0
O137 O 0.85474 0.35372 0.75524 0.0
O138 O 0.89545 0.34425 0.68576 0.0
O139 O 0.96132 0.39534 0.75914 0.0
O140 O 0.92363 0.40316 0.85134 0.0
O141 O 0.96127 0.43541 0.61439 0.0
H142 H 0.92448 0.31366 0.62365 0.0
H143 H -0.0271 0.41156 0.46571 0.0
O144 O 0.93206 0.4532 0.71309 0.0
O145 O 0.86959 0.40923 0.62297 0.0
O146 O 0.89842 0.38574 0.54546 0.0
C147 C 0.87659 0.39834 0.54368 0.0
H148 H 0.86052 0.49265 0.87714 0.0
H149 H 0.9393 0.30006 0.44989 0.0
Co150 Co 0.54145 0.47888 0.73839 0.0
C151 C 0.48592 0.48556 0.64985 0.0
Co152 Co 0.55627 0.52811 0.6523 0.0
C153 C 0.52275 0.4359 0.92048 0.0
C154 C 0.49597 0.40372 0.79535 0.0
N155 N 0.52293 0.43726 0.82184 0.0
N156 N 0.49571 0.4034 0.95585 0.0
C157 C 0.47898 0.38344 0.87643 0.0
H158 H 0.53813 0.45995 0.96521 0.0
H159 H 0.48603 0.39605 0.72222 0.0
C160 C 0.61445 0.5204 0.71293 0.0
N161 N 0.57561 0.56902 0.57594 0.0
C162 C 0.5617 0.57012 0.48962 0.0
C163 C 0.61133 0.59548 0.57152 0.0
N164 N 0.58756 0.59519 0.43207 0.0
C165 C 0.6189 0.61084 0.48153 0.0
C166 C 0.54379 0.54036 0.84241 0.0
O167 O 0.5927 0.49025 0.7552 0.0
O168 O 0.60189 0.54031 0.68535 0.0
O169 O 0.55074 0.55508 0.75915 0.0
O170 O 0.54308 0.50961 0.85135 0.0
O171 O 0.51066 0.51505 0.61457 0.0
H172 H 0.63191 0.6002 0.62486 0.0
H173 H 0.53454 0.55015 0.46528 0.0
O174 O 0.4931 0.46808 0.71312 0.0
O175 O 0.53715 0.44956 0.623 0.0
O176 O 0.56033 0.50179 0.54522 0.0
C177 C 0.54785 0.46738 0.54358 0.0
H178 H 0.45376 0.35725 0.87679 0.0
H179 H 0.64565 0.62851 0.45089 0.0
Co180 Co 0.92872 0.52812 0.1523 0.0
C181 C 0.86292 0.52028 0.21305 0.0
Co182 Co 0.89454 0.4789 0.23842 0.0
C183 C 0.96553 0.57046 0.9901 0.0
C184 C 0.94019 0.59519 0.07047 0.0
N185 N 0.95 0.56905 0.07578 0.0
N186 N 0.96467 0.59548 0.93223 0.0
C187 C 0.94826 0.61069 0.98068 0.0
H188 H -0.02675 0.55076 0.96625 0.0
H189 H 0.92391 0.59969 0.12298 0.0
C190 C 0.95663 0.48556 0.14984 0.0
N191 N 0.8716 0.43732 0.32171 0.0
C192 C 0.87028 0.43599 0.42031 0.0
C193 C 0.86505 0.40372 0.29536 0.0
N194 N 0.86485 0.40347 0.45581 0.0
C195 C 0.86163 0.38341 0.37656 0.0
C196 C 0.87659 0.46744 1.04364 0.0
O197 O 0.96129 0.51507 0.11453 0.0
O198 O 0.93206 0.46808 0.21308 0.0
O199 O 0.86956 0.44961 0.12304 0.0
O200 O 0.89844 0.50183 1.04528 0.0
O201 O 0.85469 0.49019 0.25546 0.0
H202 H 0.86736 0.396 0.22231 0.0
H203 H 0.87886 0.46005 0.46497 0.0
O204 O 0.89528 0.54022 0.1855 0.0
O205 O 0.96116 0.5551 0.25918 0.0
O206 O 0.9236 0.50962 0.35141 0.0
C207 C 0.95351 0.54039 0.34247 0.0
H208 H 0.93899 0.62819 0.94946 0.0
H209 H 0.86064 0.35715 0.37714 0.0
Co210 Co 0.41811 0.38992 0.15225 0.0
C211 C 0.42583 0.33172 0.21292 0.0
Co212 Co 0.46727 0.4047 0.23846 0.0
C213 C 0.37591 0.38458 0.99002 0.0
C214 C 0.35087 0.33474 0.07119 0.0
N215 N 0.37719 0.37053 0.07596 0.0
N216 N 0.35083 0.35876 0.93235 0.0
C217 C 0.33542 0.32729 0.98133 0.0
H218 H 0.39576 0.41184 0.9659 0.0
H219 H 0.34628 0.31404 0.12409 0.0
C220 C 0.46062 0.46028 0.1499 0.0
N221 N 0.50885 0.42322 0.32184 0.0
C222 C 0.51022 0.42337 0.42047 0.0
C223 C 0.54236 0.45018 0.29534 0.0
N224 N 0.54269 0.45045 0.45579 0.0
C225 C 0.56266 0.46717 0.37641 0.0
C226 C 0.47876 0.39832 1.04355 0.0
O227 O 0.43112 0.43555 0.11469 0.0
O228 O 0.47809 0.45308 0.21312 0.0
O229 O 0.49652 0.40893 0.12306 0.0
O230 O 0.4444 0.38591 1.04506 0.0
O231 O 0.4559 0.35345 0.2554 0.0
H232 H 0.55002 0.46012 0.22221 0.0
H233 H 0.48622 0.40799 0.46521 0.0
O234 O 0.40599 0.34431 0.18516 0.0
O235 O 0.39117 0.39542 0.25919 0.0
O236 O 0.43661 0.40313 0.35142 0.0
C237 C 0.40586 0.40238 0.34248 0.0
H238 H 0.31788 0.30053 0.95038 0.0
H239 H 0.58884 0.49239 0.3768 0.0
Co240 Co 0.55636 0.01739 0.15238 0.0
C241 C 0.6144 0.08321 0.21312 0.0
Co242 Co 0.5414 0.05173 0.23842 0.0
C243 C 0.56173 -0.01962 0.99026 0.0
C244 C 0.61169 0.00553 0.07071 0.0
N245 N 0.57586 -0.0041 0.07596 0.0
N246 N 0.58752 -0.01888 0.93239 0.0
C247 C 0.61906 -0.00259 0.9809 0.0
H248 H 0.5344 0.97281 0.96639 0.0
H249 H 0.63245 0.0218 0.1232 0.0
C250 C 0.48594 -0.0104 0.14984 0.0
N251 N 0.52285 0.07481 0.32179 0.0
C252 C 0.52274 0.07603 0.42041 0.0
C253 C 0.49585 0.08141 0.29536 0.0
N254 N 0.49566 0.08145 0.45582 0.0
C255 C 0.47889 0.08474 0.37649 0.0
C256 C 0.54785 0.06966 1.04366 0.0
O257 O 0.51074 -0.0151 0.11449 0.0
O258 O 0.49307 0.01422 0.21314 0.0
O259 O 0.53708 0.07674 0.12303 0.0
O260 O 0.56041 0.04777 1.04533 0.0
O261 O 0.59258 0.09158 0.25529 0.0
H262 H 0.48588 0.07915 0.22226 0.0
H263 H 0.53817 0.06737 0.46511 0.0
O264 O 0.60194 0.05077 0.18571 0.0
O265 O 0.55082 -0.01513 0.25924 0.0
O266 O 0.54307 0.02264 0.35142 0.0
C267 C 0.54382 -0.00739 0.3425 0.0
H268 H 0.64576 0.00666 0.94964 0.0
H269 H 0.45365 0.08574 0.37695 0.0
Co270 Co 0.51733 0.93947 0.61302 0.0
C271 C 0.50958 0.8736 0.55237 0.0
Co272 Co 0.46818 0.90519 0.52678 0.0
C273 C 0.55927 0.97585 0.77578 0.0
C274 C 0.58462 0.95148 0.69386 0.0
N275 N 0.55818 0.96085 0.68945 0.0
N276 N 0.58434 0.97496 0.83329 0.0
C277 C 0.59998 0.95921 0.78384 0.0
H278 H 0.53934 -0.01685 0.80012 0.0
H279 H 0.58935 0.93561 0.64047 0.0
C280 C 0.47483 0.96737 0.61533 0.0
N281 N 0.42663 0.88222 0.44342 0.0
C282 C 0.42527 0.88096 0.3448 0.0
C283 C 0.39309 0.87569 0.46986 0.0
N284 N 0.39279 0.87557 0.30941 0.0
C285 C 0.37278 0.87234 0.38873 0.0
C286 C 0.45668 0.88728 0.72163 0.0
O287 O 0.50435 0.97211 0.65051 0.0
O288 O 0.45735 0.94273 0.55218 0.0
O289 O 0.43892 0.88016 0.64213 0.0
O290 O 0.49102 0.90922 0.72012 0.0
O291 O 0.47955 0.86534 0.50973 0.0
H292 H 0.3854 0.87798 0.54295 0.0
H293 H 0.44929 0.88955 0.3001 0.0
O294 O 0.52942 0.90597 0.58023 0.0
O295 O 0.54431 0.97187 0.5061 0.0
O296 O 0.49885 0.93428 0.41384 0.0
C297 C 0.5296 0.9642 0.42281 0.0
H298 H 0.61772 0.95012 0.8144 0.0
H299 H 0.34657 0.87137 0.38825 0.0
Co300 Co 0.00672 0.56713 0.61288 0.0
C301 C 0.07249 0.62509 0.55215 0.0
Co302 Co 0.04094 0.55208 0.52683 0.0
C303 C -0.02986 0.57271 0.77547 0.0
C304 C -0.00504 0.62259 0.69442 0.0
N305 N -0.01463 0.58672 0.68944 0.0
N306 N -0.02898 0.59862 0.83322 0.0
C307 C -0.01294 0.63011 0.78434 0.0
H308 H 0.96263 0.54538 0.79952 0.0
H309 H 0.01101 0.64326 0.64152 0.0
C310 C -0.02113 0.49667 0.61539 0.0
N311 N 0.06394 0.53345 0.44349 0.0
C312 C 0.06521 0.53341 0.34488 0.0
C313 C 0.07053 0.50642 0.46985 0.0
N314 N 0.07065 0.50633 0.3094 0.0
C315 C 0.07391 0.4895 0.38867 0.0
C316 C 0.05892 0.55857 0.72152 0.0
O317 O -0.02579 0.52152 0.65073 0.0
O318 O 0.00346 0.50375 0.55216 0.0
O319 O 0.06596 0.54775 0.64218 0.0
O320 O 0.03705 0.57113 0.71984 0.0
O321 O 0.08076 0.60322 0.50985 0.0
H322 H 0.06825 0.4964 0.54291 0.0
H323 H 0.05659 0.5489 0.30022 0.0
O324 O 0.04011 0.61269 0.57962 0.0
O325 O -0.02578 0.56165 0.50604 0.0
O326 O 0.01186 0.55376 0.41385 0.0
C327 C -0.0181 0.55458 0.42278 0.0
H328 H -0.00381 0.65687 0.81528 0.0
H329 H 0.07492 0.46424 0.38811 0.0
Co330 Co 0.3792 0.42887 0.61295 0.0
C331 C 0.32102 0.43658 0.5523 0.0
Co332 Co 0.394 0.47809 0.52678 0.0
C333 C 0.37376 0.38689 0.77566 0.0
C334 C 0.32417 0.36148 0.69362 0.0
N335 N 0.35988 0.38797 0.6893 0.0
N336 N 0.3479 0.36181 0.83316 0.0
C337 C 0.31658 0.34612 0.78362 0.0
H338 H 0.40091 0.40688 0.80005 0.0
H339 H 0.3036 0.35674 0.6402 0.0
C340 C 0.44955 0.47141 0.61533 0.0
N341 N 0.41251 0.5197 0.44334 0.0
C342 C 0.4127 0.52105 0.3447 0.0
C343 C 0.43948 0.55324 0.46985 0.0
N344 N 0.4398 0.55352 0.3094 0.0
C345 C 0.4565 0.57353 0.38878 0.0
C346 C 0.38763 0.48963 0.7216 0.0
O347 O 0.42481 0.44191 0.65057 0.0
O348 O 0.44236 0.48891 0.55212 0.0
O349 O 0.39826 0.50741 0.64212 0.0
O350 O 0.37521 0.45523 0.72007 0.0
O351 O 0.34276 0.4667 0.50987 0.0
H352 H 0.4494 0.56092 0.54299 0.0
H353 H 0.39732 0.49701 0.29995 0.0
O354 O 0.33358 0.4167 0.58004 0.0
O355 O 0.38468 0.40187 0.50606 0.0
O356 O 0.3924 0.44737 0.41384 0.0
C357 C 0.39167 0.4166 0.42279 0.0
H358 H 0.28982 0.32842 0.81419 0.0
H359 H 0.48172 0.59972 0.38843 0.0
Co360 Co 0.70761 0.81136 0.36014 0.0
C361 C 0.64553 0.80472 0.4487 0.0
Co362 Co 0.67342 0.76214 0.44619 0.0
C363 C 0.7319 0.85427 0.17823 0.0
C364 C 0.73714 0.88654 0.30314 0.0
N365 N 0.73056 0.85294 0.27683 0.0
N366 N 0.73744 0.88682 0.14264 0.0
C367 C 0.74061 0.90686 0.22192 0.0
H368 H 0.72329 0.8302 0.1336 0.0
H369 H 0.73481 0.89427 0.37617 0.0
C370 C 0.73919 0.76994 0.38546 0.0
N371 N 0.65213 0.7212 0.52272 0.0
C372 C 0.63662 0.71981 0.60844 0.0
C373 C 0.66193 0.69505 0.52804 0.0
N374 N 0.63748 0.69479 0.6663 0.0
C375 C 0.65387 0.67957 0.61784 0.0
C376 C 0.64863 0.74989 0.25608 0.0
O377 O 0.74746 0.80007 0.3432 0.0
O378 O 0.70682 0.74999 0.41286 0.0
O379 O 0.64095 0.73518 0.33937 0.0
O380 O 0.67857 0.78064 0.24714 0.0
O381 O 0.64089 0.77523 0.48406 0.0
H382 H 0.6782 0.69055 0.47551 0.0
H383 H 0.62891 0.73952 0.63229 0.0
O384 O 0.67008 0.82219 0.3854 0.0
O385 O 0.73256 0.84065 0.47555 0.0
O386 O 0.70374 0.78839 0.55316 0.0
C387 C 0.72556 0.82279 0.55488 0.0
H388 H 0.74161 0.93312 0.22131 0.0
H389 H 0.66314 0.66206 0.64905 0.0
Co390 Co 0.13485 0.88557 0.36009 0.0
C391 C 0.14149 0.83 0.44864 0.0
Co392 Co 0.18401 0.90035 0.44625 0.0
C393 C 0.09189 0.86691 0.17805 0.0
C394 C 0.05975 0.84011 0.30315 0.0
N395 N 0.09327 0.86706 0.27668 0.0
N396 N 0.0594 0.8399 0.14265 0.0
C397 C 0.03945 0.82316 0.22205 0.0
H398 H 0.11591 0.88228 0.13333 0.0
H399 H 0.05208 0.83014 0.37625 0.0
C400 C 0.17631 0.95855 0.3856 0.0
N401 N 0.22492 0.91974 0.52257 0.0
C402 C 0.22618 0.90572 0.60857 0.0
C403 C 0.25126 0.95553 0.52727 0.0
N404 N 0.25126 0.93155 0.66621 0.0
C405 C 0.26669 0.96301 0.61715 0.0
C406 C 0.19625 0.88789 0.25607 0.0
O407 O 0.14621 0.93683 0.34321 0.0
O408 O 0.19615 0.94596 0.41326 0.0
O409 O 0.21094 0.89483 0.33937 0.0
O410 O 0.16552 0.88717 0.24712 0.0
O411 O 0.17098 0.85473 0.4839 0.0
H412 H 0.25587 0.97621 0.4743 0.0
H413 H 0.20631 0.87847 0.63274 0.0
O414 O 0.12403 0.83719 0.38536 0.0
O415 O 0.10559 0.88131 0.4755 0.0
O416 O 0.15773 0.90441 0.55339 0.0
C417 C 0.12337 0.89197 0.55496 0.0
H418 H 0.01326 0.79794 0.22164 0.0
H419 H 0.28425 -0.01023 0.64804 0.0
Co420 Co 0.06078 0.23858 0.36012 0.0
C421 C 0.11622 0.30069 0.44871 0.0
Co422 Co 0.04579 0.2729 0.44609 0.0
C423 C 0.07942 0.21426 0.17811 0.0
C424 C 0.10632 0.20888 0.30313 0.0
N425 N 0.07934 0.2155 0.27674 0.0
N426 N 0.10643 0.20873 0.14262 0.0
C427 C 0.12323 0.20549 0.22197 0.0
H428 H 0.064 0.22294 0.13344 0.0
H429 H 0.11632 0.21116 0.37621 0.0
C430 C -0.01223 0.2071 0.38532 0.0
N431 N 0.02628 0.29438 0.52255 0.0
C432 C 0.04042 0.30994 0.60821 0.0
C433 C -0.00957 0.28469 0.5279 0.0
N434 N 0.01463 0.30918 0.66612 0.0
C435 C -0.01692 0.29283 0.6177 0.0
C436 C 0.05836 0.2977 0.25603 0.0
O437 O 0.0096 0.19871 0.34332 0.0
O438 O 0.00023 0.23956 0.41257 0.0
O439 O 0.05139 0.30546 0.3393 0.0
O440 O 0.05907 0.26765 0.24711 0.0
O441 O 0.09141 0.30536 0.48413 0.0
H442 H -0.03035 0.26839 0.47549 0.0
H443 H 0.06777 0.31755 0.63204 0.0
O444 O 0.10911 0.27611 0.38532 0.0
O445 O 0.06514 0.21361 0.47554 0.0
O446 O 0.04167 0.24248 0.55306 0.0
C447 C 0.05429 0.22064 0.55484 0.0
H448 H 0.14846 0.20448 0.22149 0.0
H449 H 0.95638 0.28357 0.64901 0.0
Co450 Co 0.13399 0.38509 0.07171 0.0
C451 C 0.12733 0.32292 0.98317 0.0
Co452 Co 0.08483 0.35082 0.98554 0.0
C453 C 0.1769 0.40935 0.2537 0.0
C454 C 0.20908 0.41461 0.12869 0.0
N455 N 0.17554 0.40806 0.15509 0.0
N456 N 0.20941 0.41483 0.28919 0.0
C457 C 0.22939 0.418 0.20985 0.0
H458 H 0.15287 0.40075 0.29839 0.0
H459 H 0.21677 0.41229 0.05563 0.0
C460 C 0.09257 0.41667 1.04622 0.0
N461 N 0.04398 0.32946 0.90907 0.0
C462 C 0.04289 0.31446 0.82274 0.0
C463 C 0.01756 0.33886 0.90464 0.0
N464 N 0.01784 0.31537 0.76521 0.0
C465 C 0.0022 0.33113 0.81464 0.0
C466 C 0.07257 0.32609 0.1757 0.0
O467 O 0.12264 0.42497 0.0887 0.0
O468 O 0.07271 0.38429 1.01847 0.0
O469 O 0.05787 0.3184 0.0924 0.0
O470 O 0.1033 0.35602 0.18466 0.0
O471 O 0.09783 0.31822 0.94794 0.0
H472 H 0.01282 0.35472 0.95802 0.0
H473 H 0.06281 0.30714 0.7984 0.0
O474 O 0.1448 0.34754 1.04638 0.0
O475 O 0.16325 0.41009 0.95634 0.0
O476 O 0.11111 0.38111 0.87851 0.0
C477 C 0.14545 0.40301 0.87691 0.0
H478 H 0.25561 0.41898 0.21036 0.0
H479 H -0.01553 0.34023 0.78408 0.0
Co480 Co 0.56123 0.73823 0.07167 0.0
C481 C 0.62329 0.79361 0.98311 0.0
Co482 Co 0.59545 0.72315 0.98569 0.0
C483 C 0.53695 0.75688 0.25363 0.0
C484 C 0.53164 0.78388 0.12869 0.0
N485 N 0.53824 0.75686 0.15502 0.0
N486 N 0.53143 0.78391 0.28919 0.0
C487 C 0.52822 0.80077 0.2099 0.0
H488 H 0.54558 0.74141 0.29828 0.0
H489 H 0.53395 0.79392 0.05564 0.0
C490 C 0.5297 0.66521 1.04646 0.0
N491 N 0.61679 0.70355 0.90911 0.0
C492 C 0.63203 0.71756 0.82309 0.0
C493 C 0.60718 0.66768 0.9041 0.0
N494 N 0.63113 0.69165 0.76531 0.0
C495 C 0.61508 0.66016 0.81418 0.0
C496 C 0.62026 0.73571 0.17574 0.0
O497 O 0.52139 0.68708 0.08857 0.0
O498 O 0.56209 0.6776 1.01908 0.0
O499 O 0.62796 0.72866 0.09247 0.0
O500 O 0.59029 0.73651 0.18467 0.0
O501 O 0.62793 0.76875 0.94774 0.0
H502 H 0.59112 0.64699 0.95699 0.0
H503 H 0.63955 0.74489 0.79905 0.0
O504 O 0.59873 0.78654 1.04642 0.0
O505 O 0.53626 0.74259 0.95629 0.0
O506 O 0.56508 0.71909 0.87879 0.0
C507 C 0.54325 0.7317 0.877 0.0
H508 H 0.52721 0.82603 0.21046 0.0
H509 H 0.60594 0.63339 0.78323 0.0
Co510 Co 0.20813 0.81222 0.07172 0.0
C511 C 0.15259 0.81889 0.98317 0.0
Co512 Co 0.22294 0.86145 0.98563 0.0
C513 C 0.18943 0.76924 0.2538 0.0
C514 C 0.16265 0.73706 0.12867 0.0
N515 N 0.18961 0.7706 0.15516 0.0
N516 N 0.1624 0.73674 0.28918 0.0
C517 C 0.14567 0.71677 0.20976 0.0
H518 H 0.2048 0.79328 0.29853 0.0
H519 H 0.15271 0.72938 0.05555 0.0
C520 C 0.28112 0.85376 1.04631 0.0
N521 N 0.24227 0.90236 0.90926 0.0
C522 C 0.22836 0.90345 0.82295 0.0
C523 C 0.27798 0.92883 0.90486 0.0
N524 N 0.25421 0.92853 0.7654 0.0
C525 C 0.28555 0.94419 0.81486 0.0
C526 C 0.21045 0.8737 0.17574 0.0
O527 O 0.25938 0.8236 0.08854 0.0
O528 O 0.26856 0.87366 1.01868 0.0
O529 O 0.2174 0.88842 0.09247 0.0
O530 O 0.20975 0.84294 0.18468 0.0
O531 O 0.17733 0.84838 0.94789 0.0
H532 H 0.29857 0.93355 0.95819 0.0
H533 H 0.2012 0.88348 0.79861 0.0
O534 O 0.15977 0.80141 1.04644 0.0
O535 O 0.20383 0.7829 0.95633 0.0
O536 O 0.22701 0.83513 0.87855 0.0
C537 C 0.21453 0.80072 0.87691 0.0
H538 H 0.12045 0.69058 0.21012 0.0
H539 H 0.3123 0.96186 0.78422 0.0
Co540 Co 0.59541 0.86148 0.48563 0.0
C541 C 0.52961 0.85365 0.54643 0.0
Co542 Co 0.56122 0.81225 0.57174 0.0
C543 C 0.63223 0.90382 0.32344 0.0
C544 C 0.60688 0.92856 0.40377 0.0
N545 N 0.61669 0.90241 0.40911 0.0
N546 N 0.63137 0.92885 0.26556 0.0
C547 C 0.61496 0.94405 0.31399 0.0
H548 H 0.63995 0.88412 0.2996 0.0
H549 H 0.59059 0.93305 0.45627 0.0
C550 C 0.62331 0.81891 0.48316 0.0
N551 N 0.53828 0.77068 0.65502 0.0
C552 C 0.53695 0.76934 0.75363 0.0
C553 C 0.53172 0.73708 0.62868 0.0
N554 N 0.53151 0.73683 0.78913 0.0
C555 C 0.5283 0.71677 0.70988 0.0
C556 C 0.54327 0.80081 0.37697 0.0
O557 O 0.62796 0.84842 0.44784 0.0
O558 O 0.59874 0.80143 0.5464 0.0
O559 O 0.53624 0.78297 0.45635 0.0
O560 O 0.56512 0.8352 0.37861 0.0
O561 O 0.52137 0.82355 0.58878 0.0
H562 H 0.53404 0.72936 0.55563 0.0
H563 H 0.54553 0.79341 0.79828 0.0
O564 O 0.56197 0.87359 0.51886 0.0
O565 O 0.62785 0.88845 0.5925 0.0
O566 O 0.59028 0.84297 0.68473 0.0
C567 C 0.62019 0.87374 0.6758 0.0
H568 H 0.6057 0.96156 0.28275 0.0
H569 H 0.52731 0.69051 0.71047 0.0
Co570 Co 0.08479 0.72325 0.48557 0.0
C571 C 0.09251 0.66506 0.54629 0.0
Co572 Co 0.13395 0.73803 0.57178 0.0
C573 C 0.0426 0.7179 0.3233 0.0
C574 C 0.01754 0.66807 0.40454 0.0
N575 N 0.04388 0.70386 0.40927 0.0
N576 N 0.01752 0.69207 0.26566 0.0
C577 C 0.0021 0.6606 0.31467 0.0
H578 H 0.06246 0.74515 0.29917 0.0
H579 H 0.01295 0.64738 0.45747 0.0
C580 C 0.1273 0.79361 0.48322 0.0
N581 N 0.17553 0.75655 0.65516 0.0
C582 C 0.17691 0.75671 0.75379 0.0
C583 C 0.20904 0.78352 0.62866 0.0
N584 N 0.20937 0.78379 0.78911 0.0
C585 C 0.22934 0.80051 0.70974 0.0
C586 C 0.14545 0.73165 0.37688 0.0
O587 O 0.09779 0.76888 0.44801 0.0
O588 O 0.14476 0.7864 0.54644 0.0
O589 O 0.16321 0.74226 0.45639 0.0
O590 O 0.11109 0.71924 0.37838 0.0
O591 O 0.12259 0.68679 0.58874 0.0
H592 H 0.2167 0.79346 0.55554 0.0
H593 H 0.1529 0.74132 0.79854 0.0
O594 O 0.07267 0.67764 0.51847 0.0
O595 O 0.05784 0.72874 0.5925 0.0
O596 O 0.10328 0.73646 0.68474 0.0
C597 C 0.07254 0.7357 0.6758 0.0
H598 H -0.01545 0.63384 0.28376 0.0
H599 H 0.25552 0.82574 0.71013 0.0
Co600 Co 0.22304 0.35075 0.48569 0.0
C601 C 0.28105 0.41656 0.54652 0.0
Co602 Co 0.20807 0.38507 0.57173 0.0
C603 C 0.22843 0.31371 0.3236 0.0
C604 C 0.27841 0.33896 0.40391 0.0
N605 N 0.24257 0.32927 0.40925 0.0
N606 N 0.25421 0.31447 0.26569 0.0
C607 C 0.28577 0.33083 0.31412 0.0
H608 H 0.20108 0.3061 0.29977 0.0
H609 H 0.29918 0.35526 0.45634 0.0
C610 C 0.15262 0.32294 0.48312 0.0
N611 N 0.1895 0.40814 0.65509 0.0
C612 C 0.18941 0.40937 0.75371 0.0
C613 C 0.1625 0.41474 0.62867 0.0
N614 N 0.16233 0.4148 0.78913 0.0
C615 C 0.14555 0.41808 0.70981 0.0
C616 C 0.21453 0.40302 0.37698 0.0
O617 O 0.17743 0.31825 0.44775 0.0
O618 O 0.15974 0.34755 0.54644 0.0
O619 O 0.20374 0.41007 0.45634 0.0
O620 O 0.2271 0.38114 0.37867 0.0
O621 O 0.25923 0.42493 0.58863 0.0
H622 H 0.15252 0.41247 0.55557 0.0
H623 H 0.20485 0.40072 0.7984 0.0
O624 O 0.26861 0.38412 0.51909 0.0
O625 O 0.21749 0.31821 0.59253 0.0
O626 O 0.20974 0.35597 0.68473 0.0
C627 C 0.2105 0.32594 0.67581 0.0
H628 H 0.31247 0.34008 0.28281 0.0
H629 H 0.12032 0.41908 0.71028 0.0
Co630 Co 0.184 0.2728 0.94632 0.0
C631 C 0.17624 0.20693 0.88567 0.0
Co632 Co 0.13485 0.23853 0.86008 0.0
C633 C 0.22595 0.30917 0.10909 0.0
C634 C 0.25127 0.28477 1.0272 0.0
N635 N 0.22484 0.29417 1.02277 0.0
N636 N 0.25101 0.30828 0.1666 0.0
C637 C 0.26664 0.29251 0.11717 0.0
H638 H 0.20603 0.3165 0.13343 0.0
H639 H 0.256 0.2689 0.97382 0.0
C640 C 0.14151 0.30071 0.94863 0.0
N641 N 0.0933 0.21557 0.77671 0.0
C642 C 0.09194 0.2143 0.6781 0.0
C643 C 0.05976 0.20903 0.80314 0.0
N644 N 0.05946 0.20891 0.6427 0.0
C645 C 0.03946 0.20568 0.72201 0.0
C646 C 0.12335 0.22061 0.05491 0.0
O647 O 0.17102 0.30544 0.98382 0.0
O648 O 0.12402 0.27607 0.88547 0.0
O649 O 0.10558 0.2135 0.97542 0.0
O650 O 0.15769 0.24254 0.05341 0.0
O651 O 0.14621 0.19867 0.84302 0.0
H652 H 0.05208 0.21133 0.87623 0.0
H653 H 0.11596 0.22288 0.6334 0.0
O654 O 0.19609 0.23929 0.91351 0.0
O655 O 0.21098 0.3052 0.83941 0.0
O656 O 0.16553 0.26762 0.74714 0.0
C657 C 0.19628 0.29754 0.75611 0.0
H658 H 0.28438 0.28342 0.14774 0.0
H659 H 0.01324 0.20471 0.72153 0.0
Co660 Co 0.6734 0.90046 0.94621 0.0
C661 C 0.73918 0.95841 0.88547 0.0
Co662 Co 0.70762 0.8854 0.86015 0.0
C663 C 0.63684 0.90607 0.1088 0.0
C664 C 0.66167 0.95594 1.02775 0.0
N665 N 0.65207 0.92007 1.02278 0.0
N666 N 0.63774 0.93198 0.16656 0.0
C667 C 0.65378 0.96347 0.11766 0.0
H668 H 0.62932 0.87874 0.13286 0.0
H669 H 0.67772 0.97662 0.97484 0.0
C670 C 0.64555 0.83001 0.94872 0.0
N671 N 0.73061 0.86677 0.77681 0.0
C672 C 0.73188 0.86673 0.6782 0.0
C673 C 0.73719 0.83973 0.80317 0.0
N674 N 0.73731 0.83964 0.64272 0.0
C675 C 0.74057 0.82281 0.72199 0.0
C676 C 0.7256 0.8919 0.05485 0.0
O677 O 0.64089 0.85487 0.98406 0.0
O678 O 0.67013 0.83708 0.88549 0.0
O679 O 0.73263 0.88107 0.9755 0.0
O680 O 0.70374 0.90446 0.05316 0.0
O681 O 0.74744 0.93654 0.84316 0.0
H682 H 0.73491 0.82972 0.87624 0.0
H683 H 0.72327 0.88222 0.63355 0.0
O684 O 0.7068 0.94602 0.91295 0.0
O685 O 0.64091 0.895 0.83937 0.0
O686 O 0.67854 0.88709 0.74717 0.0
C687 C 0.64858 0.88793 0.75611 0.0
H688 H 0.66291 -0.00976 0.1486 0.0
H689 H 0.74158 0.79755 0.72143 0.0
Co690 Co 0.04587 0.76218 0.94626 0.0
C691 C -0.01232 0.76988 0.88563 0.0
Co692 Co 0.06066 0.8114 0.8601 0.0
C693 C 0.04044 0.72019 0.10895 0.0
C694 C -0.00916 0.69478 1.02695 0.0
N695 N 0.02655 0.72127 1.02261 0.0
N696 N 0.01459 0.69511 0.16646 0.0
C697 C -0.01674 0.67942 0.11694 0.0
H698 H 0.06759 0.74018 0.13333 0.0
H699 H -0.02973 0.69005 0.97356 0.0
C700 C 0.11621 0.80473 0.94865 0.0
N701 N 0.07917 0.85301 0.77666 0.0
C702 C 0.07936 0.85437 0.67802 0.0
C703 C 0.10613 0.88655 0.80318 0.0
N704 N 0.10645 0.88684 0.64272 0.0
C705 C 0.12315 0.90684 0.72211 0.0
C706 C 0.05429 0.82293 0.05493 0.0
O707 O 0.09148 0.77523 0.98388 0.0
O708 O 0.10902 0.82223 0.88544 0.0
O709 O 0.06492 0.84072 0.97545 0.0
O710 O 0.04186 0.78853 0.05339 0.0
O711 O 0.00941 0.8 0.84321 0.0
H712 H 0.11605 0.89423 0.87632 0.0
H713 H 0.06398 0.83032 0.63328 0.0
O714 O 0.00024 0.75 0.91335 0.0
O715 O 0.05136 0.73519 0.83937 0.0
O716 O 0.05906 0.78068 0.74716 0.0
C717 C 0.05834 0.74991 0.7561 0.0
H718 H 0.9565 0.66173 0.14754 0.0
H719 H 0.14837 0.93303 0.72176 0.0
Co720 Co 0.37426 0.1447 0.69347 0.0
C721 C 0.31218 0.13804 0.78205 0.0
Co722 Co 0.34008 0.09547 0.77953 0.0
C723 C 0.39854 0.18762 0.51156 0.0
C724 C 0.40377 0.21988 0.63648 0.0
N725 N 0.3972 0.18628 0.61016 0.0
N726 N 0.40408 0.22016 0.47598 0.0
C727 C 0.40724 0.2402 0.55526 0.0
H728 H 0.38995 0.16354 0.46692 0.0
H729 H 0.40144 0.2276 0.70951 0.0
C730 C 0.40586 0.10329 0.71874 0.0
N731 N 0.31881 0.05453 0.85607 0.0
C732 C 0.30328 0.05313 0.94176 0.0
C733 C 0.32862 0.0284 0.8614 0.0
N734 N 0.30415 0.02811 0.99964 0.0
C735 C 0.32056 0.01291 0.9512 0.0
C736 C 0.31529 0.08322 0.58941 0.0
O737 O 0.41413 0.13342 0.6765 0.0
O738 O 0.37349 0.08334 0.74619 0.0
O739 O 0.30761 0.06851 0.6727 0.0
O740 O 0.34522 0.11397 0.58047 0.0
O741 O 0.30755 0.10855 0.81741 0.0
H742 H 0.34491 0.0239 0.80889 0.0
H743 H 0.29555 0.07282 0.96561 0.0
O744 O 0.33673 0.15551 0.71875 0.0
O745 O 0.39921 0.17399 0.80888 0.0
O746 O 0.3704 0.12173 0.88649 0.0
C747 C 0.39221 0.15613 0.88821 0.0
H748 H 0.40824 0.26646 0.55466 0.0
H749 H 0.32983 -0.0046 0.98242 0.0
Co750 Co 0.80155 0.21889 0.69343 0.0
C751 C 0.8082 0.16332 0.78194 0.0
Co752 Co 0.85073 0.23368 0.77954 0.0
C753 C 0.75858 0.20023 0.51142 0.0
C754 C 0.72645 0.17341 0.63653 0.0
N755 N 0.75997 0.20037 0.61005 0.0
N756 N 0.72609 0.1732 0.47602 0.0
C757 C 0.70615 0.15646 0.55543 0.0
H758 H 0.7826 0.2156 0.46668 0.0
H759 H 0.71879 0.16345 0.70963 0.0
C760 C 0.84302 0.29187 0.71889 0.0
N761 N 0.89165 0.25306 0.85583 0.0
C762 C 0.89292 0.23901 0.94179 0.0
C763 C 0.91798 0.28885 0.8606 0.0
N764 N 0.91799 0.26483 0.99947 0.0
C765 C 0.93341 0.29631 0.95047 0.0
C766 C 0.86294 0.22121 0.58936 0.0
O767 O 0.8129 0.27014 0.67659 0.0
O768 O 0.86288 0.27928 0.74653 0.0
O769 O 0.87764 0.22814 0.67265 0.0
O770 O 0.83222 0.22049 0.58044 0.0
O771 O 0.83769 0.18805 0.81719 0.0
H772 H 0.92257 0.30955 0.80769 0.0
H773 H 0.87306 0.21176 0.96592 0.0
O774 O 0.79074 0.17051 0.71868 0.0
O775 O 0.7723 0.21462 0.80889 0.0
O776 O 0.82447 0.23775 0.88669 0.0
C777 C 0.7901 0.22529 0.88833 0.0
H778 H 0.67997 0.13123 0.55503 0.0
H779 H 0.95094 0.32307 0.98142 0.0
Co780 Co 0.72742 0.57188 0.69348 0.0
C781 C 0.78287 0.634 0.78207 0.0
Co782 Co 0.71244 0.60621 0.77946 0.0
C783 C 0.74607 0.54756 0.51147 0.0
C784 C 0.77296 0.54218 0.6365 0.0
N785 N 0.74598 0.5488 0.6101 0.0
N786 N 0.77308 0.54204 0.47598 0.0
C787 C 0.78988 0.5388 0.55534 0.0
H788 H 0.73065 0.55624 0.4668 0.0
H789 H 0.78296 0.54446 0.70957 0.0
C790 C 0.65442 0.54042 0.71866 0.0
N791 N 0.69293 0.6277 0.85591 0.0
C792 C 0.70706 0.64323 0.9416 0.0
C793 C 0.65709 0.61803 0.86121 0.0
N794 N 0.68128 0.64247 0.99949 0.0
C795 C 0.64973 0.62616 0.95101 0.0
C796 C 0.725 0.631 0.58939 0.0
O797 O 0.67624 0.53202 0.67668 0.0
O798 O 0.66688 0.57287 0.74598 0.0
O799 O 0.71804 0.63877 0.67267 0.0
O800 O 0.72572 0.60096 0.58047 0.0
O801 O 0.75806 0.63867 0.81748 0.0
H802 H 0.63633 0.60176 0.80874 0.0
H803 H 0.7344 0.65082 0.96546 0.0
O804 O 0.77575 0.60941 0.7187 0.0
O805 O 0.73178 0.54691 0.8089 0.0
O806 O 0.70833 0.57579 0.88644 0.0
C807 C 0.72093 0.55394 0.88821 0.0
H808 H 0.81511 0.53779 0.55486 0.0
H809 H 0.62303 0.61691 0.9823 0.0
Co810 Co 0.80063 0.71839 0.40507 0.0
C811 C 0.79397 0.65622 0.31653 0.0
Co812 Co 0.75147 0.68412 0.3189 0.0
C813 C 0.84355 0.74265 0.58706 0.0
C814 C 0.87572 0.74791 0.46204 0.0
N815 N 0.84218 0.74136 0.48844 0.0
N816 N 0.87606 0.74813 0.62254 0.0
C817 C 0.89603 0.7513 0.5432 0.0
H818 H 0.81952 0.73405 0.63174 0.0
H819 H 0.88341 0.74559 0.38897 0.0
C820 C 0.75921 0.74997 0.37958 0.0
N821 N 0.71062 0.66275 0.24244 0.0
C822 C 0.70952 0.64775 0.15612 0.0
C823 C 0.6842 0.67215 0.238 0.0
N824 N 0.68447 0.64865 0.09859 0.0
C825 C 0.66883 0.66442 0.14801 0.0
C826 C 0.73921 0.65939 0.50906 0.0
O827 O 0.78928 0.75827 0.42204 0.0
O828 O 0.73935 0.71759 0.35183 0.0
O829 O 0.72451 0.6517 0.42576 0.0
O830 O 0.76995 0.68933 0.51802 0.0
O831 O 0.76447 0.65151 0.2813 0.0
H832 H 0.67947 0.68802 0.29137 0.0
H833 H 0.72944 0.64042 0.13179 0.0
O834 O 0.81145 0.68084 0.37974 0.0
O835 O 0.8299 0.74339 0.28969 0.0
O836 O 0.77775 0.71441 0.21186 0.0
C837 C 0.81209 0.73631 0.21026 0.0
H838 H 0.92225 0.75227 0.54369 0.0
H839 H 0.65111 0.67352 0.11743 0.0
Co840 Co 0.22788 0.07155 0.405 0.0
C841 C 0.28995 0.12693 0.31643 0.0
Co842 Co 0.2621 0.05647 0.31902 0.0
C843 C 0.2036 0.0902 0.58695 0.0
C844 C 0.1983 0.11721 0.46201 0.0
N845 N 0.2049 0.09018 0.48834 0.0
N846 N 0.19808 0.11723 0.62252 0.0
C847 C 0.19488 0.13409 0.54322 0.0
H848 H 0.21223 0.07473 0.6316 0.0
H849 H 0.20061 0.12725 0.38897 0.0
C850 C 0.19635 -0.00147 0.37978 0.0
N851 N 0.28344 0.03687 0.24243 0.0
C852 C 0.29869 0.05088 0.15642 0.0
C853 C 0.27383 0.00099 0.23742 0.0
N854 N 0.29779 0.02497 0.09864 0.0
C855 C 0.28173 -0.00652 0.1475 0.0
C856 C 0.28692 0.06903 0.50907 0.0
O857 O 0.18804 0.0204 0.42191 0.0
O858 O 0.22874 0.01092 0.3524 0.0
O859 O 0.29462 0.06199 0.4258 0.0
O860 O 0.25695 0.06983 0.518 0.0
O861 O 0.29459 0.10207 0.28106 0.0
H862 H 0.25777 -0.01969 0.2903 0.0
H863 H 0.30621 0.07821 0.13238 0.0
O864 O 0.26539 0.11987 0.37973 0.0
O865 O 0.20291 0.07591 0.28961 0.0
O866 O 0.23174 0.05241 0.21211 0.0
C867 C 0.20991 0.06502 0.21032 0.0
H868 H 0.19387 0.15935 0.54379 0.0
H869 H 0.27259 0.96671 0.11654 0.0
Co870 Co 0.87481 0.14552 0.40503 0.0
C871 C 0.81926 0.15217 0.3165 0.0
Co872 Co 0.88961 0.19475 0.31893 0.0
C873 C 0.85614 0.10255 0.58713 0.0
C874 C 0.82937 0.07036 0.46202 0.0
N875 N 0.85631 0.10391 0.4885 0.0
N876 N 0.82911 0.07005 0.62252 0.0
C877 C 0.81239 0.05008 0.54311 0.0
H878 H 0.8715 0.12661 0.63186 0.0
H879 H 0.81942 0.06268 0.38889 0.0
C880 C 0.9478 0.18708 0.37959 0.0
N881 N 0.90892 0.23565 0.24256 0.0
C882 C 0.89504 0.2367 0.15616 0.0
C883 C 0.94461 0.26217 0.23828 0.0
N884 N 0.9209 0.2618 0.09868 0.0
C885 C 0.95221 0.27752 0.14827 0.0
C886 C 0.87713 0.207 0.50903 0.0
O887 O 0.92607 0.15692 0.42184 0.0
O888 O 0.93524 0.20697 0.35195 0.0
O889 O 0.88407 0.22172 0.42575 0.0
O890 O 0.87644 0.17625 0.51798 0.0
O891 O 0.844 0.18166 0.28121 0.0
H892 H 0.96517 0.26693 0.29172 0.0
H893 H 0.86791 0.21669 0.13175 0.0
O894 O 0.82645 0.13469 0.37978 0.0
O895 O 0.87053 0.11621 0.28966 0.0
O896 O 0.89368 0.16842 0.21187 0.0
C897 C 0.88121 0.13402 0.21024 0.0
H898 H 0.78717 0.02388 0.54347 0.0
H899 H -0.02103 0.29522 0.11772 0.0
Co900 Co 0.26206 0.1948 0.81896 0.0
C901 C 0.19627 0.18697 0.87973 0.0
Co902 Co 0.22786 0.14557 0.90506 0.0
C903 C 0.29887 0.23713 0.65676 0.0
C904 C 0.27356 0.26188 0.73715 0.0
N905 N 0.28335 0.23573 0.74245 0.0
N906 N 0.29801 0.26216 0.59889 0.0
C907 C 0.28162 0.27737 0.64736 0.0
H908 H 0.30657 0.21742 0.6329 0.0
H909 H 0.25728 0.26639 0.78967 0.0
C910 C 0.28996 0.15223 0.8165 0.0
N911 N 0.20492 0.10399 0.98835 0.0
C912 C 0.2036 0.10266 0.08695 0.0
C913 C 0.19837 0.0704 0.962 0.0
N914 N 0.19817 0.07015 0.12246 0.0
C915 C 0.19495 0.05009 1.0432 0.0
C916 C 0.20992 0.13413 0.71029 0.0
O917 O 0.29462 0.18174 0.7812 0.0
O918 O 0.26538 0.13474 0.87973 0.0
O919 O 0.20288 0.11629 0.78967 0.0
O920 O 0.23178 0.16851 0.71194 0.0
O921 O 0.18802 0.15687 0.9221 0.0
H922 H 0.20068 0.06268 0.88896 0.0
H923 H 0.21218 0.12673 0.13161 0.0
O924 O 0.22862 0.20691 0.85216 0.0
O925 O 0.2945 0.22177 0.92583 0.0
O926 O 0.25692 0.17629 1.01805 0.0
C927 C 0.28684 0.20705 1.00912 0.0
H928 H 0.27235 0.29488 0.61614 0.0
H929 H 0.19396 0.02383 1.04379 0.0
Co930 Co 0.75149 0.05658 0.81888 0.0
C931 C 0.75921 -0.00162 0.8796 0.0
Co932 Co 0.80065 0.07135 0.90511 0.0
C933 C 0.70932 0.0512 0.65658 0.0
C934 C 0.68423 0.0014 0.7379 0.0
N935 N 0.71058 0.03718 0.74258 0.0
N936 N 0.68422 0.02537 0.59897 0.0
C937 C 0.66879 -0.00608 0.64804 0.0
H938 H 0.72918 0.07845 0.6324 0.0
H939 H 0.67963 -0.01928 0.79089 0.0
C940 C 0.794 0.12693 0.81653 0.0
N941 N 0.84222 0.08987 0.98849 0.0
C942 C 0.8436 0.09002 0.08712 0.0
C943 C 0.87574 0.11683 0.962 0.0
N944 N 0.87606 0.11709 0.12245 0.0
C945 C 0.89603 0.13381 1.04308 0.0
C946 C 0.81215 0.06497 0.71021 0.0
O947 O 0.76449 0.1022 0.78132 0.0
O948 O 0.81147 0.11972 0.87975 0.0
O949 O 0.8299 0.07557 0.78973 0.0
O950 O 0.77779 0.05257 0.7117 0.0
O951 O 0.78928 0.02011 0.92209 0.0
H952 H 0.8834 0.12677 0.88888 0.0
H953 H 0.81958 0.07463 0.13186 0.0
O954 O 0.73937 0.01096 0.85176 0.0
O955 O 0.72454 0.06206 0.92581 0.0
O956 O 0.76998 0.06978 1.01807 0.0
C957 C 0.73923 0.06903 1.00912 0.0
H958 H 0.65122 0.96715 0.61717 0.0
H959 H 0.92222 0.15903 1.04348 0.0
Co960 Co 0.88969 0.68404 0.81905 0.0
C961 C 0.94771 0.74985 0.87986 0.0
Co962 Co 0.87472 0.71837 0.90508 0.0
C963 C 0.89507 0.64701 0.65695 0.0
C964 C 0.94505 0.67224 0.73729 0.0
N965 N 0.90921 0.66256 0.74261 0.0
N966 N 0.92086 0.64776 0.59905 0.0
C967 C 0.95241 0.6641 0.6475 0.0
H968 H 0.86773 0.63941 0.63311 0.0
H969 H 0.96582 0.68853 0.78974 0.0
C970 C 0.81927 0.65624 0.81648 0.0
N971 N 0.85615 0.74144 0.98844 0.0
C972 C 0.85605 0.74267 0.08707 0.0
C973 C 0.82915 0.74804 0.96202 0.0
N974 N 0.82897 0.74809 0.12248 0.0
C975 C 0.8122 0.75138 1.04315 0.0
C976 C 0.88118 0.73631 0.71033 0.0
O977 O 0.84407 0.65155 0.78111 0.0
O978 O 0.82639 0.68085 0.87979 0.0
O979 O 0.87039 0.74337 0.78969 0.0
O980 O 0.89375 0.71443 0.71202 0.0
O981 O 0.92589 0.75823 0.92197 0.0
H982 H 0.81918 0.74578 0.88892 0.0
H983 H 0.87149 0.73402 0.13176 0.0
O984 O 0.93526 0.71742 0.85243 0.0
O985 O 0.88414 0.65151 0.92589 0.0
O986 O 0.87639 0.68928 1.01808 0.0
C987 C 0.87714 0.65924 1.00916 0.0
H988 H -0.02089 0.67336 0.6162 0.0
H989 H 0.78696 0.75238 1.04362 0.0
Co990 Co 0.85065 0.60611 0.27968 0.0
C991 C 0.8429 0.54024 0.21899 0.0
Co992 Co 0.8015 0.57183 0.19344 0.0
C993 C 0.89259 0.64248 0.44245 0.0
C994 C 0.91794 0.61811 0.36052 0.0
N995 N 0.89149 0.62748 0.35612 0.0
N996 N 0.91765 0.64159 0.49995 0.0
C997 C 0.93331 0.62584 0.4505 0.0
H998 H 0.87266 0.64978 0.4668 0.0
H999 H 0.92267 0.60225 0.30712 0.0
C1000 C 0.80816 0.63401 0.28198 0.0
N1001 N 0.75995 0.54887 0.11008 0.0
C1002 C 0.75858 0.5476 1.01146 0.0
C1003 C 0.72641 0.54233 0.13651 0.0
N1004 N 0.72611 0.54221 0.97607 0.0
C1005 C 0.7061 0.53899 0.05538 0.0
C1006 C 0.79 0.55392 0.38828 0.0
O1007 O 0.83767 0.63874 0.31717 0.0
O1008 O 0.79067 0.60937 0.21883 0.0
O1009 O 0.77223 0.5468 0.30878 0.0
O1010 O 0.82434 0.57585 0.38678 0.0
O1011 O 0.81286 0.53198 0.17637 0.0
H1012 H 0.71872 0.54463 0.2096 0.0
H1013 H 0.7826 0.55618 0.96676 0.0
O1014 O 0.86274 0.5726 0.24689 0.0
O1015 O 0.87763 0.6385 0.17276 0.0
O1016 O 0.83217 0.60092 0.0805 0.0
C1017 C 0.86292 0.63084 0.08947 0.0
H1018 H 0.95105 0.61676 0.48105 0.0
H1019 H 0.67989 0.53802 0.0549 0.0
Co1020 Co 0.34004 0.23379 0.27953 0.0
C1021 C 0.4058 0.29175 0.21876 0.0
Co1022 Co 0.37427 0.21874 0.19348 0.0
C1023 C 0.30347 0.23937 0.44213 0.0
C1024 C 0.32824 0.28923 0.36103 0.0
N1025 N 0.31868 0.25337 0.35609 0.0
N1026 N 0.30435 0.26528 0.49988 0.0
C1027 C 0.32036 0.29676 0.45095 0.0
H1028 H 0.29598 0.21205 0.46621 0.0
H1029 H 0.34428 0.30991 0.3081 0.0
C1030 C 0.3122 0.16333 0.28204 0.0
N1031 N 0.39727 0.20012 0.11014 0.0
C1032 C 0.39853 0.20007 1.01153 0.0
C1033 C 0.40386 0.17309 0.1365 0.0
N1034 N 0.40397 0.17299 0.97605 0.0
C1035 C 0.40724 0.15616 0.05532 0.0
C1036 C 0.39225 0.22524 0.38818 0.0
O1037 O 0.30753 0.18819 0.31737 0.0
O1038 O 0.33678 0.17041 0.21881 0.0
O1039 O 0.39928 0.21441 0.30884 0.0
O1040 O 0.37038 0.2378 0.38649 0.0
O1041 O 0.41408 0.26988 0.17651 0.0
H1042 H 0.40158 0.16307 0.20957 0.0
H1043 H 0.38992 0.21556 0.96688 0.0
O1044 O 0.37342 0.27936 0.24629 0.0
O1045 O 0.30754 0.22832 0.1727 0.0
O1046 O 0.34518 0.22042 0.0805 0.0
C1047 C 0.31522 0.22125 0.08944 0.0
H1048 H 0.32948 0.32353 0.48187 0.0
H1049 H 0.40825 0.1309 0.05477 0.0
Co1050 Co 0.71254 0.09549 0.27959 0.0
C1051 C 0.65437 0.10322 0.21889 0.0
Co1052 Co 0.72735 0.14471 0.19345 0.0
C1053 C 0.70711 0.05346 0.44222 0.0
C1054 C 0.65747 0.02812 0.36038 0.0
N1055 N 0.69319 0.05457 0.35594 0.0
N1056 N 0.68126 0.02839 0.49978 0.0
C1057 C 0.64991 0.01275 0.45037 0.0
H1058 H 0.73428 0.07341 0.46653 0.0
H1059 H 0.63688 0.02342 0.30709 0.0
C1060 C 0.78288 0.13802 0.28201 0.0
N1061 N 0.74589 0.18634 0.11004 0.0
C1062 C 0.74608 0.18771 1.0114 0.0
C1063 C 0.77289 0.21986 0.13657 0.0
N1064 N 0.77321 0.22016 0.97612 0.0
C1065 C 0.78993 0.24014 0.05552 0.0
C1066 C 0.72098 0.15624 0.38829 0.0
O1067 O 0.75815 0.10852 0.31726 0.0
O1068 O 0.7757 0.15551 0.21879 0.0
O1069 O 0.73162 0.17403 0.30882 0.0
O1070 O 0.70853 0.12183 0.38672 0.0
O1071 O 0.67612 0.13335 0.17654 0.0
H1072 H 0.78283 0.22751 0.20971 0.0
H1073 H 0.73066 0.16368 0.96664 0.0
O1074 O 0.66692 0.08332 0.24663 0.0
O1075 O 0.71803 0.0685 0.17269 0.0
O1076 O 0.72575 0.114 0.08048 0.0
C1077 C 0.72502 0.08323 0.08942 0.0
H1078 H 0.62316 -0.0049 0.48103 0.0
H1079 H 0.81518 0.26631 0.05517 0.0
loop_
_geom_bond_atom_site_label_1
_geom_bond_atom_site_label_2
_geom_bond_distance
_geom_bond_site_symmetry_2
_ccdc_geom_bond_type
Co0 N5 2.057 . S
Co0 O17 2.021 . S
Co0 O20 2.062 . S
Co0 O24 2.117 . S
Co0 O25 2.020 1_556 S
C1 O21 1.259 . S
C1 O24 1.258 1_554 S
Co2 N11 2.057 . S
Co2 O18 2.117 . S
Co2 O19 2.020 1_554 S
Co2 O21 2.021 . S
Co2 O26 2.062 . S
C3 N5 1.316 . S
C3 N6 1.347 . S
C3 H8 0.931 . S
C4 N5 1.375 . S
C4 C7 1.350 . S
C4 H9 0.930 . S
N5 Co0 2.057 . S
N5 C3 1.316 . S
N5 C4 1.375 . S
N6 C3 1.347 . S
N6 C7 1.373 . S
C7 C4 1.350 . S
C7 N6 1.373 . S
C7 H28 0.931 . S
H8 C3 0.931 . S
H9 C4 0.930 . S
C10 O17 1.259 . S
C10 O18 1.258 1_556 S
N11 Co2 2.057 . S
N11 C12 1.305 1_455 S
N11 C13 1.375 . S
C12 N11 1.305 1_655 S
C12 N14 1.341 . S
C12 H23 0.946 . S
C13 N11 1.375 . S
C13 C15 1.350 . S
C13 H22 0.930 . S
N14 C12 1.341 . S
N14 C15 1.373 1_655 S
C15 C13 1.350 . S
C15 N14 1.373 1_455 S
C15 H29 0.931 . S
C16 O19 1.256 . S
C16 O20 1.255 . S
O17 Co0 2.021 . S
O17 C10 1.259 . S
O18 Co2 2.117 . S
O18 C10 1.258 1_554 S
O19 Co2 2.020 1_556 S
O19 C16 1.256 . S
O20 Co0 2.062 . S
O20 C16 1.255 . S
O21 C1 1.259 . S
O21 Co2 2.021 . S
H22 C13 0.930 . S
H23 C12 0.946 . S
O24 Co0 2.117 . S
O24 C1 1.258 1_556 S
O25 Co0 2.020 1_554 S
O25 C27 1.256 . S
O26 Co2 2.062 . S
O26 C27 1.255 . S
C27 O25 1.256 . S
C27 O26 1.255 . S
H28 C7 0.931 . S
H29 C15 0.931 . S
Co30 N35 2.057 . S
Co30 O47 2.021 . S
Co30 O50 2.062 . S
Co30 O54 2.117 . S
Co30 O55 2.020 1_556 S
C31 O51 1.259 . S
C31 O54 1.258 1_554 S
Co32 N41 2.057 . S
Co32 O48 2.117 . S
Co32 O49 2.020 1_554 S
Co32 O51 2.021 . S
Co32 O56 2.062 . S
C33 N35 1.316 . S
C33 N36 1.347 . S
C33 H38 0.931 . S
C34 N35 1.375 . S
C34 C37 1.350 . S
C34 H39 0.930 . S
N35 Co30 2.057 . S
N35 C33 1.316 . S
N35 C34 1.375 . S
N36 C33 1.347 . S
N36 C37 1.373 . S
C37 C34 1.350 . S
C37 N36 1.373 . S
C37 H58 0.931 . S
H38 C33 0.931 . S
H39 C34 0.930 . S
C40 O47 1.259 . S
C40 O48 1.258 1_556 S
N41 Co32 2.057 . S
N41 C42 1.316 . S
N41 C43 1.375 . S
C42 N41 1.316 . S
C42 N44 1.347 . S
C42 H53 0.931 . S
C43 N41 1.375 . S
C43 C45 1.350 . S
C43 H52 0.930 . S
N44 C42 1.347 . S
N44 C45 1.373 . S
C45 C43 1.350 . S
C45 N44 1.373 . S
C45 H59 0.931 . S
C46 O49 1.256 . S
C46 O50 1.255 . S
O47 Co30 2.021 . S
O47 C40 1.259 . S
O48 Co32 2.117 . S
O48 C40 1.258 1_554 S
O49 Co32 2.020 1_556 S
O49 C46 1.256 . S
O50 Co30 2.062 . S
O50 C46 1.255 . S
O51 C31 1.259 . S
O51 Co32 2.021 . S
H52 C43 0.930 . S
H53 C42 0.931 . S
O54 Co30 2.117 . S
O54 C31 1.258 1_556 S
O55 Co30 2.020 1_554 S
O55 C57 1.256 . S
O56 Co32 2.062 . S
O56 C57 1.255 . S
C57 O55 1.256 . S
C57 O56 1.255 . S
H58 C37 0.931 . S
H59 C45 0.931 . S
Co60 N65 2.057 . S
Co60 O77 2.021 . S
Co60 O80 2.062 . S
Co60 O84 2.117 . S
Co60 O85 2.020 1_556 S
C61 O81 1.259 . S
C61 O84 1.258 1_554 S
Co62 N71 2.057 . S
Co62 O78 2.117 . S
Co62 O79 2.020 1_554 S
Co62 O81 2.021 . S
Co62 O86 2.062 . S
C63 N65 1.316 . S
C63 N66 1.347 . S
C63 H68 0.931 . S
C64 N65 1.375 . S
C64 C67 1.350 . S
C64 H69 0.930 . S
N65 Co60 2.057 . S
N65 C63 1.316 . S
N65 C64 1.375 . S
N66 C63 1.347 . S
N66 C67 1.373 . S
C67 C64 1.350 . S
C67 N66 1.373 . S
C67 H88 0.931 . S
H68 C63 0.931 . S
H69 C64 0.930 . S
C70 O77 1.259 . S
C70 O78 1.258 1_556 S
N71 Co62 2.057 . S
N71 C72 1.308 1_565 S
N71 C73 1.375 . S
C72 N71 1.308 1_545 S
C72 N74 1.354 . S
C72 H83 0.932 . S
C73 N71 1.375 . S
C73 C75 1.350 . S
C73 H82 0.930 . S
N74 C72 1.354 . S
N74 C75 1.373 1_545 S
C75 C73 1.350 . S
C75 N74 1.373 1_565 S
C75 H89 0.931 . S
C76 O79 1.256 . S
C76 O80 1.255 . S
O77 Co60 2.021 . S
O77 C70 1.259 . S
O78 Co62 2.117 . S
O78 C70 1.258 1_554 S
O79 Co62 2.020 1_556 S
O79 C76 1.256 . S
O80 Co60 2.062 . S
O80 C76 1.255 . S
O81 C61 1.259 . S
O81 Co62 2.021 . S
H82 C73 0.930 . S
H83 C72 0.932 . S
O84 Co60 2.117 . S
O84 C61 1.258 1_556 S
O85 Co60 2.020 1_554 S
O85 C87 1.256 . S
O86 Co62 2.062 . S
O86 C87 1.255 . S
C87 O85 1.256 . S
C87 O86 1.255 . S
H88 C67 0.931 . S
H89 C75 0.931 . S
Co90 N95 2.057 . S
Co90 O107 2.021 . S
Co90 O110 2.062 . S
Co90 O114 2.117 . S
Co90 O115 2.020 . S
C91 O111 1.259 . S
C91 O114 1.258 . S
Co92 N101 2.057 . S
Co92 O108 2.117 . S
Co92 O109 2.020 . S
Co92 O111 2.021 . S
Co92 O116 2.062 . S
C93 N95 1.316 . S
C93 N96 1.347 . S
C93 H98 0.931 . S
C94 N95 1.375 . S
C94 C97 1.350 . S
C94 H99 0.930 . S
N95 Co90 2.057 . S
N95 C93 1.316 . S
N95 C94 1.375 . S
N96 C93 1.347 . S
N96 C97 1.373 . S
C97 C94 1.350 . S
C97 N96 1.373 . S
C97 H118 0.931 . S
H98 C93 0.931 . S
H99 C94 0.930 . S
C100 O107 1.259 . S
C100 O108 1.258 . S
N101 Co92 2.057 . S
N101 C102 1.306 1_545 S
N101 C103 1.375 . S
C102 N101 1.306 1_565 S
C102 N104 1.341 . S
C102 H113 0.944 . S
C103 N101 1.375 . S
C103 C105 1.350 . S
C103 H112 0.930 . S
N104 C102 1.341 . S
N104 C105 1.373 1_565 S
C105 C103 1.350 . S
C105 N104 1.373 1_545 S
C105 H119 0.931 . S
C106 O109 1.256 . S
C106 O110 1.255 . S
O107 Co90 2.021 . S
O107 C100 1.259 . S
O108 Co92 2.117 . S
O108 C100 1.258 . S
O109 Co92 2.020 . S
O109 C106 1.256 . S
O110 Co90 2.062 . S
O110 C106 1.255 . S
O111 C91 1.259 . S
O111 Co92 2.021 . S
H112 C103 0.930 . S
H113 C102 0.944 . S
O114 Co90 2.117 . S
O114 C91 1.258 . S
O115 Co90 2.020 . S
O115 C117 1.256 . S
O116 Co92 2.062 . S
O116 C117 1.255 . S
C117 O115 1.256 . S
C117 O116 1.255 . S
H118 C97 0.931 . S
H119 C105 0.931 . S
Co120 N125 2.057 . S
Co120 O137 2.021 . S
Co120 O140 2.062 . S
Co120 O144 2.117 . S
Co120 O145 2.020 . S
C121 O141 1.259 . S
C121 O144 1.258 . S
Co122 N131 2.057 . S
Co122 O138 2.117 . S
Co122 O139 2.020 . S
Co122 O141 2.021 . S
Co122 O146 2.062 . S
C123 N125 1.316 . S
C123 N126 1.347 . S
C123 H128 0.931 . S
C124 N125 1.375 . S
C124 C127 1.350 . S
C124 H129 0.930 . S
N125 Co120 2.057 . S
N125 C123 1.316 . S
N125 C124 1.375 . S
N126 C123 1.347 . S
N126 C127 1.373 . S
C127 C124 1.350 . S
C127 N126 1.373 . S
C127 H148 0.931 . S
H128 C123 0.931 . S
H129 C124 0.930 . S
C130 O137 1.259 . S
C130 O138 1.258 . S
N131 Co122 2.057 . S
N131 C132 1.309 1_655 S
N131 C133 1.375 . S
C132 N131 1.309 1_455 S
C132 N134 1.354 . S
C132 H143 0.932 . S
C133 N131 1.375 . S
C133 C135 1.350 . S
C133 H142 0.930 . S
N134 C132 1.354 . S
N134 C135 1.373 1_455 S
C135 C133 1.350 . S
C135 N134 1.373 1_655 S
C135 H149 0.931 . S
C136 O139 1.256 . S
C136 O140 1.255 . S
O137 Co120 2.021 . S
O137 C130 1.259 . S
O138 Co122 2.117 . S
O138 C130 1.258 . S
O139 Co122 2.020 . S
O139 C136 1.256 . S
O140 Co120 2.062 . S
O140 C136 1.255 . S
O141 C121 1.259 . S
O141 Co122 2.021 . S
H142 C133 0.930 . S
H143 C132 0.932 . S
O144 Co120 2.117 . S
O144 C121 1.258 . S
O145 Co120 2.020 . S
O145 C147 1.256 . S
O146 Co122 2.062 . S
O146 C147 1.255 . S
C147 O145 1.256 . S
C147 O146 1.255 . S
H148 C127 0.931 . S
H149 C135 0.931 . S
Co150 N155 2.057 . S
Co150 O167 2.021 . S
Co150 O170 2.062 . S
Co150 O174 2.117 . S
Co150 O175 2.020 . S
C151 O171 1.259 . S
C151 O174 1.258 . S
Co152 N161 2.057 . S
Co152 O168 2.117 . S
Co152 O169 2.020 . S
Co152 O171 2.021 . S
Co152 O176 2.062 . S
C153 N155 1.316 . S
C153 N156 1.347 . S
C153 H158 0.931 . S
C154 N155 1.375 . S
C154 C157 1.350 . S
C154 H159 0.930 . S
N155 Co150 2.057 . S
N155 C153 1.316 . S
N155 C154 1.375 . S
N156 C153 1.347 . S
N156 C157 1.373 . S
C157 C154 1.350 . S
C157 N156 1.373 . S
C157 H178 0.931 . S
H158 C153 0.931 . S
H159 C154 0.930 . S
C160 O167 1.259 . S
C160 O168 1.258 . S
N161 Co152 2.057 . S
N161 C162 1.316 . S
N161 C163 1.375 . S
C162 N161 1.316 . S
C162 N164 1.347 . S
C162 H173 0.931 . S
C163 N161 1.375 . S
C163 C165 1.350 . S
C163 H172 0.930 . S
N164 C162 1.347 . S
N164 C165 1.373 . S
C165 C163 1.350 . S
C165 N164 1.373 . S
C165 H179 0.931 . S
C166 O169 1.256 . S
C166 O170 1.255 . S
O167 Co150 2.021 . S
O167 C160 1.259 . S
O168 Co152 2.117 . S
O168 C160 1.258 . S
O169 Co152 2.020 . S
O169 C166 1.256 . S
O170 Co150 2.062 . S
O170 C166 1.255 . S
O171 C151 1.259 . S
O171 Co152 2.021 . S
H172 C163 0.930 . S
H173 C162 0.931 . S
O174 Co150 2.117 . S
O174 C151 1.258 . S
O175 Co150 2.020 . S
O175 C177 1.256 . S
O176 Co152 2.062 . S
O176 C177 1.255 . S
C177 O175 1.256 . S
C177 O176 1.255 . S
H178 C157 0.931 . S
H179 C165 0.931 . S
Co180 N185 2.058 1_554 S
Co180 O197 2.021 . S
Co180 O200 2.062 . S
Co180 O204 2.117 . S
Co180 O205 2.020 . S
C181 O201 1.259 . S
C181 O204 1.258 . S
Co182 N191 2.057 . S
Co182 O198 2.117 . S
Co182 O199 2.020 . S
Co182 O201 2.021 . S
Co182 O206 2.062 . S
C183 N185 1.305 1_455 S
C183 N186 1.341 . S
C183 H188 0.945 . S
C184 N185 1.375 . S
C184 C187 1.350 . S
C184 H189 0.930 1_556 S
N185 Co180 2.058 1_556 S
N185 C183 1.305 1_655 S
N185 C184 1.375 . S
N186 C183 1.341 . S
N186 C187 1.373 1_455 S
C187 C184 1.350 . S
C187 N186 1.373 1_655 S
C187 H208 0.931 . S
H188 C183 0.945 . S
H189 C184 0.930 1_554 S
C190 O197 1.259 . S
C190 O198 1.258 . S
N191 Co182 2.057 . S
N191 C192 1.316 . S
N191 C193 1.375 . S
C192 N191 1.316 . S
C192 N194 1.347 . S
C192 H203 0.931 . S
C193 N191 1.375 . S
C193 C195 1.350 . S
C193 H202 0.930 . S
N194 C192 1.347 . S
N194 C195 1.373 . S
C195 C193 1.350 . S
C195 N194 1.373 . S
C195 H209 0.931 . S
C196 O199 1.256 . S
C196 O200 1.255 . S
O197 Co180 2.021 . S
O197 C190 1.259 . S
O198 Co182 2.117 . S
O198 C190 1.258 . S
O199 Co182 2.020 . S
O199 C196 1.256 . S
O200 Co180 2.062 . S
O200 C196 1.255 . S
O201 C181 1.259 . S
O201 Co182 2.021 . S
H202 C193 0.930 . S
H203 C192 0.931 . S
O204 Co180 2.117 . S
O204 C181 1.258 . S
O205 Co180 2.020 . S
O205 C207 1.256 . S
O206 Co182 2.062 . S
O206 C207 1.255 . S
C207 O205 1.256 . S
C207 O206 1.255 . S
H208 C187 0.931 . S
H209 C195 0.931 . S
Co210 N215 2.058 1_554 S
Co210 O227 2.021 . S
Co210 O230 2.062 . S
Co210 O234 2.117 . S
Co210 O235 2.020 . S
C211 O231 1.259 . S
C211 O234 1.258 . S
Co212 N221 2.057 . S
Co212 O228 2.117 . S
Co212 O229 2.020 . S
Co212 O231 2.021 . S
Co212 O236 2.062 . S
C213 N215 1.316 . S
C213 N216 1.347 . S
C213 H218 0.931 . S
C214 N215 1.375 . S
C214 C217 1.350 . S
C214 H219 0.930 1_556 S
N215 Co210 2.058 1_556 S
N215 C213 1.316 . S
N215 C214 1.375 . S
N216 C213 1.347 . S
N216 C217 1.373 . S
C217 C214 1.350 . S
C217 N216 1.373 . S
C217 H238 0.931 . S
H218 C213 0.931 . S
H219 C214 0.930 1_554 S
C220 O227 1.259 . S
C220 O228 1.258 . S
N221 Co212 2.057 . S
N221 C222 1.316 . S
N221 C223 1.375 . S
C222 N221 1.316 . S
C222 N224 1.347 . S
C222 H233 0.931 . S
C223 N221 1.375 . S
C223 C225 1.350 . S
C223 H232 0.930 . S
N224 C222 1.347 . S
N224 C225 1.373 . S
C225 C223 1.350 . S
C225 N224 1.373 . S
C225 H239 0.931 . S
C226 O229 1.256 . S
C226 O230 1.255 . S
O227 Co210 2.021 . S
O227 C220 1.259 . S
O228 Co212 2.117 . S
O228 C220 1.258 . S
O229 Co212 2.020 . S
O229 C226 1.256 . S
O230 Co210 2.062 . S
O230 C226 1.255 . S
O231 C211 1.259 . S
O231 Co212 2.021 . S
H232 C223 0.930 . S
H233 C222 0.931 . S
O234 Co210 2.117 . S
O234 C211 1.258 . S
O235 Co210 2.020 . S
O235 C237 1.256 . S
O236 Co212 2.062 . S
O236 C237 1.255 . S
C237 O235 1.256 . S
C237 O236 1.255 . S
H238 C217 0.931 . S
H239 C225 0.931 . S
Co240 N245 2.058 1_554 S
Co240 O257 2.021 . S
Co240 O260 2.062 . S
Co240 O264 2.117 . S
Co240 O265 2.020 . S
C241 O261 1.259 . S
C241 O264 1.258 . S
Co242 N251 2.057 . S
Co242 O258 2.117 . S
Co242 O259 2.020 . S
Co242 O261 2.021 . S
Co242 O266 2.062 . S
C243 N245 1.306 1_565 S
C243 N246 1.355 . S
C243 H248 0.932 . S
C244 N245 1.375 . S
C244 C247 1.350 . S
C244 H249 0.930 1_556 S
N245 Co240 2.058 1_556 S
N245 C243 1.306 1_545 S
N245 C244 1.375 . S
N246 C243 1.355 . S
N246 C247 1.373 1_565 S
C247 C244 1.350 . S
C247 N246 1.373 1_545 S
C247 H268 0.931 . S
H248 C243 0.932 . S
H249 C244 0.930 1_554 S
C250 O257 1.259 . S
C250 O258 1.258 . S
N251 Co242 2.057 . S
N251 C252 1.316 . S
N251 C253 1.375 . S
C252 N251 1.316 . S
C252 N254 1.347 . S
C252 H263 0.931 . S
C253 N251 1.375 . S
C253 C255 1.350 . S
C253 H262 0.930 . S
N254 C252 1.347 . S
N254 C255 1.373 . S
C255 C253 1.350 . S
C255 N254 1.373 . S
C255 H269 0.931 . S
C256 O259 1.256 . S
C256 O260 1.255 . S
O257 Co240 2.021 . S
O257 C250 1.259 . S
O258 Co242 2.117 . S
O258 C250 1.258 . S
O259 Co242 2.020 . S
O259 C256 1.256 . S
O260 Co240 2.062 . S
O260 C256 1.255 . S
O261 C241 1.259 . S
O261 Co242 2.021 . S
H262 C253 0.930 . S
H263 C252 0.931 . S
O264 Co240 2.117 . S
O264 C241 1.258 . S
O265 Co240 2.020 . S
O265 C267 1.256 . S
O266 Co242 2.062 . S
O266 C267 1.255 . S
C267 O265 1.256 . S
C267 O266 1.255 . S
H268 C247 0.931 . S
H269 C255 0.931 . S
Co270 N275 2.057 . S
Co270 O287 2.021 . S
Co270 O290 2.062 . S
Co270 O294 2.117 . S
Co270 O295 2.020 . S
C271 O291 1.259 . S
C271 O294 1.258 . S
Co272 N281 2.057 . S
Co272 O288 2.117 . S
Co272 O289 2.020 . S
Co272 O291 2.021 . S
Co272 O296 2.062 . S
C273 N275 1.307 1_545 S
C273 N276 1.342 . S
C273 H278 0.943 . S
C274 N275 1.375 . S
C274 C277 1.350 . S
C274 H279 0.930 . S
N275 Co270 2.057 . S
N275 C273 1.307 1_565 S
N275 C274 1.375 . S
N276 C273 1.342 . S
N276 C277 1.373 1_545 S
C277 C274 1.350 . S
C277 N276 1.373 1_565 S
C277 H298 0.931 . S
H278 C273 0.943 . S
H279 C274 0.930 . S
C280 O287 1.259 . S
C280 O288 1.258 . S
N281 Co272 2.057 . S
N281 C282 1.316 . S
N281 C283 1.375 . S
C282 N281 1.316 . S
C282 N284 1.347 . S
C282 H293 0.931 . S
C283 N281 1.375 . S
C283 C285 1.350 . S
C283 H292 0.930 . S
N284 C282 1.347 . S
N284 C285 1.373 . S
C285 C283 1.350 . S
C285 N284 1.373 . S
C285 H299 0.931 . S
C286 O289 1.256 . S
C286 O290 1.255 . S
O287 Co270 2.021 . S
O287 C280 1.259 . S
O288 Co272 2.117 . S
O288 C280 1.258 . S
O289 Co272 2.020 . S
O289 C286 1.256 . S
O290 Co270 2.062 . S
O290 C286 1.255 . S
O291 C271 1.259 . S
O291 Co272 2.021 . S
H292 C283 0.930 . S
H293 C282 0.931 . S
O294 Co270 2.117 . S
O294 C271 1.258 . S
O295 Co270 2.020 . S
O295 C297 1.256 . S
O296 Co272 2.062 . S
O296 C297 1.255 . S
C297 O295 1.256 . S
C297 O296 1.255 . S
H298 C277 0.931 . S
H299 C285 0.931 . S
Co300 N305 2.057 . S
Co300 O317 2.021 . S
Co300 O320 2.062 . S
Co300 O324 2.117 . S
Co300 O325 2.020 . S
C301 O321 1.259 . S
C301 O324 1.258 . S
Co302 N311 2.057 . S
Co302 O318 2.117 . S
Co302 O319 2.020 . S
Co302 O321 2.021 . S
Co302 O326 2.062 . S
C303 N305 1.308 1_655 S
C303 N306 1.354 . S
C303 H308 0.932 . S
C304 N305 1.375 . S
C304 C307 1.350 . S
C304 H309 0.930 . S
N305 Co300 2.057 . S
N305 C303 1.308 1_455 S
N305 C304 1.375 . S
N306 C303 1.354 . S
N306 C307 1.373 1_655 S
C307 C304 1.350 . S
C307 N306 1.373 1_455 S
C307 H328 0.931 . S
H308 C303 0.932 . S
H309 C304 0.930 . S
C310 O317 1.259 . S
C310 O318 1.258 . S
N311 Co302 2.057 . S
N311 C312 1.316 . S
N311 C313 1.375 . S
C312 N311 1.316 . S
C312 N314 1.347 . S
C312 H323 0.931 . S
C313 N311 1.375 . S
C313 C315 1.350 . S
C313 H322 0.930 . S
N314 C312 1.347 . S
N314 C315 1.373 . S
C315 C313 1.350 . S
C315 N314 1.373 . S
C315 H329 0.931 . S
C316 O319 1.256 . S
C316 O320 1.255 . S
O317 Co300 2.021 . S
O317 C310 1.259 . S
O318 Co302 2.117 . S
O318 C310 1.258 . S
O319 Co302 2.020 . S
O319 C316 1.256 . S
O320 Co300 2.062 . S
O320 C316 1.255 . S
O321 C301 1.259 . S
O321 Co302 2.021 . S
H322 C313 0.930 . S
H323 C312 0.931 . S
O324 Co300 2.117 . S
O324 C301 1.258 . S
O325 Co300 2.020 . S
O325 C327 1.256 . S
O326 Co302 2.062 . S
O326 C327 1.255 . S
C327 O325 1.256 . S
C327 O326 1.255 . S
H328 C307 0.931 . S
H329 C315 0.931 . S
Co330 N335 2.057 . S
Co330 O347 2.021 . S
Co330 O350 2.062 . S
Co330 O354 2.117 . S
Co330 O355 2.020 . S
C331 O351 1.259 . S
C331 O354 1.258 . S
Co332 N341 2.057 . S
Co332 O348 2.117 . S
Co332 O349 2.020 . S
Co332 O351 2.021 . S
Co332 O356 2.062 . S
C333 N335 1.316 . S
C333 N336 1.347 . S
C333 H338 0.931 . S
C334 N335 1.375 . S
C334 C337 1.350 . S
C334 H339 0.930 . S
N335 Co330 2.057 . S
N335 C333 1.316 . S
N335 C334 1.375 . S
N336 C333 1.347 . S
N336 C337 1.373 . S
C337 C334 1.350 . S
C337 N336 1.373 . S
C337 H358 0.931 . S
H338 C333 0.931 . S
H339 C334 0.930 . S
C340 O347 1.259 . S
C340 O348 1.258 . S
N341 Co332 2.057 . S
N341 C342 1.316 . S
N341 C343 1.375 . S
C342 N341 1.316 . S
C342 N344 1.347 . S
C342 H353 0.931 . S
C343 N341 1.375 . S
C343 C345 1.350 . S
C343 H352 0.930 . S
N344 C342 1.347 . S
N344 C345 1.373 . S
C345 C343 1.350 . S
C345 N344 1.373 . S
C345 H359 0.931 . S
C346 O349 1.256 . S
C346 O350 1.255 . S
O347 Co330 2.021 . S
O347 C340 1.259 . S
O348 Co332 2.117 . S
O348 C340 1.258 . S
O349 Co332 2.020 . S
O349 C346 1.256 . S
O350 Co330 2.062 . S
O350 C346 1.255 . S
O351 C331 1.259 . S
O351 Co332 2.021 . S
H352 C343 0.930 . S
H353 C342 0.931 . S
O354 Co330 2.117 . S
O354 C331 1.258 . S
O355 Co330 2.020 . S
O355 C357 1.256 . S
O356 Co332 2.062 . S
O356 C357 1.255 . S
C357 O355 1.256 . S
C357 O356 1.255 . S
H358 C337 0.931 . S
H359 C345 0.931 . S
Co360 N365 2.057 . S
Co360 O377 2.021 . S
Co360 O380 2.062 . S
Co360 O384 2.117 . S
Co360 O385 2.020 . S
C361 O381 1.259 . S
C361 O384 1.258 . S
Co362 N371 2.057 . S
Co362 O378 2.117 . S
Co362 O379 2.020 . S
Co362 O381 2.021 . S
Co362 O386 2.062 . S
C363 N365 1.316 . S
C363 N366 1.347 . S
C363 H368 0.931 . S
C364 N365 1.375 . S
C364 C367 1.350 . S
C364 H369 0.930 . S
N365 Co360 2.057 . S
N365 C363 1.316 . S
N365 C364 1.375 . S
N366 C363 1.347 . S
N366 C367 1.373 . S
C367 C364 1.350 . S
C367 N366 1.373 . S
C367 H388 0.931 . S
H368 C363 0.931 . S
H369 C364 0.930 . S
C370 O377 1.259 . S
C370 O378 1.258 . S
N371 Co362 2.057 . S
N371 C372 1.316 . S
N371 C373 1.375 . S
C372 N371 1.316 . S
C372 N374 1.347 . S
C372 H383 0.931 . S
C373 N371 1.375 . S
C373 C375 1.350 . S
C373 H382 0.930 . S
N374 C372 1.347 . S
N374 C375 1.373 . S
C375 C373 1.350 . S
C375 N374 1.373 . S
C375 H389 0.931 . S
C376 O379 1.256 . S
C376 O380 1.255 . S
O377 Co360 2.021 . S
O377 C370 1.259 . S
O378 Co362 2.117 . S
O378 C370 1.258 . S
O379 Co362 2.020 . S
O379 C376 1.256 . S
O380 Co360 2.062 . S
O380 C376 1.255 . S
O381 C361 1.259 . S
O381 Co362 2.021 . S
H382 C373 0.930 . S
H383 C372 0.931 . S
O384 Co360 2.117 . S
O384 C361 1.258 . S
O385 Co360 2.020 . S
O385 C387 1.256 . S
O386 Co362 2.062 . S
O386 C387 1.255 . S
C387 O385 1.256 . S
C387 O386 1.255 . S
H388 C367 0.931 . S
H389 C375 0.931 . S
Co390 N395 2.057 . S
Co390 O407 2.021 . S
Co390 O410 2.062 . S
Co390 O414 2.117 . S
Co390 O415 2.020 . S
C391 O411 1.259 . S
C391 O414 1.258 . S
Co392 N401 2.057 . S
Co392 O408 2.117 . S
Co392 O409 2.020 . S
Co392 O411 2.021 . S
Co392 O416 2.062 . S
C393 N395 1.316 . S
C393 N396 1.347 . S
C393 H398 0.931 . S
C394 N395 1.375 . S
C394 C397 1.350 . S
C394 H399 0.930 . S
N395 Co390 2.057 . S
N395 C393 1.316 . S
N395 C394 1.375 . S
N396 C393 1.347 . S
N396 C397 1.373 . S
C397 C394 1.350 . S
C397 N396 1.373 . S
C397 H418 0.931 . S
H398 C393 0.931 . S
H399 C394 0.930 . S
C400 O407 1.259 . S
C400 O408 1.258 . S
N401 Co392 2.057 . S
N401 C402 1.316 . S
N401 C403 1.375 . S
C402 N401 1.316 . S
C402 N404 1.347 . S
C402 H413 0.931 . S
C403 N401 1.375 . S
C403 C405 1.350 . S
C403 H412 0.930 1_565 S
N404 C402 1.347 . S
N404 C405 1.373 . S
C405 C403 1.350 . S
C405 N404 1.373 . S
C405 H419 0.931 1_565 S
C406 O409 1.256 . S
C406 O410 1.255 . S
O407 Co390 2.021 . S
O407 C400 1.259 . S
O408 Co392 2.117 . S
O408 C400 1.258 . S
O409 Co392 2.020 . S
O409 C406 1.256 . S
O410 Co390 2.062 . S
O410 C406 1.255 . S
O411 C391 1.259 . S
O411 Co392 2.021 . S
H412 C403 0.930 1_545 S
H413 C402 0.931 . S
O414 Co390 2.117 . S
O414 C391 1.258 . S
O415 Co390 2.020 . S
O415 C417 1.256 . S
O416 Co392 2.062 . S
O416 C417 1.255 . S
C417 O415 1.256 . S
C417 O416 1.255 . S
H418 C397 0.931 . S
H419 C405 0.931 1_545 S
Co420 N425 2.057 . S
Co420 O437 2.021 . S
Co420 O440 2.062 . S
Co420 O444 2.117 . S
Co420 O445 2.020 . S
C421 O441 1.259 . S
C421 O444 1.258 . S
Co422 N431 2.057 . S
Co422 O438 2.117 . S
Co422 O439 2.020 . S
Co422 O441 2.021 . S
Co422 O446 2.062 . S
C423 N425 1.316 . S
C423 N426 1.347 . S
C423 H428 0.931 . S
C424 N425 1.375 . S
C424 C427 1.350 . S
C424 H429 0.930 . S
N425 Co420 2.057 . S
N425 C423 1.316 . S
N425 C424 1.375 . S
N426 C423 1.347 . S
N426 C427 1.373 . S
C427 C424 1.350 . S
C427 N426 1.373 . S
C427 H448 0.931 . S
H428 C423 0.931 . S
H429 C424 0.930 . S
C430 O437 1.259 . S
C430 O438 1.258 . S
N431 Co422 2.057 . S
N431 C432 1.316 . S
N431 C433 1.375 . S
C432 N431 1.316 . S
C432 N434 1.347 . S
C432 H443 0.931 . S
C433 N431 1.375 . S
C433 C435 1.350 . S
C433 H442 0.930 1_455 S
N434 C432 1.347 . S
N434 C435 1.373 . S
C435 C433 1.350 . S
C435 N434 1.373 . S
C435 H449 0.931 1_455 S
C436 O439 1.256 . S
C436 O440 1.255 . S
O437 Co420 2.021 . S
O437 C430 1.259 . S
O438 Co422 2.117 . S
O438 C430 1.258 . S
O439 Co422 2.020 . S
O439 C436 1.256 . S
O440 Co420 2.062 . S
O440 C436 1.255 . S
O441 C421 1.259 . S
O441 Co422 2.021 . S
H442 C433 0.930 1_655 S
H443 C432 0.931 . S
O444 Co420 2.117 . S
O444 C421 1.258 . S
O445 Co420 2.020 . S
O445 C447 1.256 . S
O446 Co422 2.062 . S
O446 C447 1.255 . S
C447 O445 1.256 . S
C447 O446 1.255 . S
H448 C427 0.931 . S
H449 C435 0.931 1_655 S
Co450 N455 2.057 . S
Co450 O467 2.021 . S
Co450 O470 2.062 . S
Co450 O474 2.117 . S
Co450 O475 2.020 1_554 S
C451 O471 1.259 . S
C451 O474 1.258 1_556 S
Co452 N461 2.057 . S
Co452 O468 2.117 . S
Co452 O469 2.020 1_556 S
Co452 O471 2.021 . S
Co452 O476 2.062 . S
C453 N455 1.316 . S
C453 N456 1.347 . S
C453 H458 0.931 . S
C454 N455 1.375 . S
C454 C457 1.350 . S
C454 H459 0.930 . S
N455 Co450 2.057 . S
N455 C453 1.316 . S
N455 C454 1.375 . S
N456 C453 1.347 . S
N456 C457 1.373 . S
C457 C454 1.350 . S
C457 N456 1.373 . S
C457 H478 0.931 . S
H458 C453 0.931 . S
H459 C454 0.930 . S
C460 O467 1.259 . S
C460 O468 1.258 1_554 S
N461 Co452 2.057 . S
N461 C462 1.316 . S
N461 C463 1.375 . S
C462 N461 1.316 . S
C462 N464 1.347 . S
C462 H473 0.931 . S
C463 N461 1.375 . S
C463 C465 1.350 . S
C463 H472 0.930 . S
N464 C462 1.347 . S
N464 C465 1.373 . S
C465 C463 1.350 . S
C465 N464 1.373 . S
C465 H479 0.931 . S
C466 O469 1.256 . S
C466 O470 1.255 . S
O467 Co450 2.021 . S
O467 C460 1.259 . S
O468 Co452 2.117 . S
O468 C460 1.258 1_556 S
O469 Co452 2.020 1_554 S
O469 C466 1.256 . S
O470 Co450 2.062 . S
O470 C466 1.255 . S
O471 C451 1.259 . S
O471 Co452 2.021 . S
H472 C463 0.930 . S
H473 C462 0.931 . S
O474 Co450 2.117 . S
O474 C451 1.258 1_554 S
O475 Co450 2.020 1_556 S
O475 C477 1.256 . S
O476 Co452 2.062 . S
O476 C477 1.255 . S
C477 O475 1.256 . S
C477 O476 1.255 . S
H478 C457 0.931 . S
H479 C465 0.931 . S
Co480 N485 2.057 . S
Co480 O497 2.021 . S
Co480 O500 2.062 . S
Co480 O504 2.117 . S
Co480 O505 2.020 1_554 S
C481 O501 1.259 . S
C481 O504 1.258 1_556 S
Co482 N491 2.057 . S
Co482 O498 2.117 . S
Co482 O499 2.020 1_556 S
Co482 O501 2.021 . S
Co482 O506 2.062 . S
C483 N485 1.316 . S
C483 N486 1.347 . S
C483 H488 0.931 . S
C484 N485 1.375 . S
C484 C487 1.350 . S
C484 H489 0.930 . S
N485 Co480 2.057 . S
N485 C483 1.316 . S
N485 C484 1.375 . S
N486 C483 1.347 . S
N486 C487 1.373 . S
C487 C484 1.350 . S
C487 N486 1.373 . S
C487 H508 0.931 . S
H488 C483 0.931 . S
H489 C484 0.930 . S
C490 O497 1.259 . S
C490 O498 1.258 1_554 S
N491 Co482 2.057 . S
N491 C492 1.316 . S
N491 C493 1.375 . S
C492 N491 1.316 . S
C492 N494 1.347 . S
C492 H503 0.931 . S
C493 N491 1.375 . S
C493 C495 1.350 . S
C493 H502 0.930 . S
N494 C492 1.347 . S
N494 C495 1.373 . S
C495 C493 1.350 . S
C495 N494 1.373 . S
C495 H509 0.931 . S
C496 O499 1.256 . S
C496 O500 1.255 . S
O497 Co480 2.021 . S
O497 C490 1.259 . S
O498 Co482 2.117 . S
O498 C490 1.258 1_556 S
O499 Co482 2.020 1_554 S
O499 C496 1.256 . S
O500 Co480 2.062 . S
O500 C496 1.255 . S
O501 C481 1.259 . S
O501 Co482 2.021 . S
H502 C493 0.930 . S
H503 C492 0.931 . S
O504 Co480 2.117 . S
O504 C481 1.258 1_554 S
O505 Co480 2.020 1_556 S
O505 C507 1.256 . S
O506 Co482 2.062 . S
O506 C507 1.255 . S
C507 O505 1.256 . S
C507 O506 1.255 . S
H508 C487 0.931 . S
H509 C495 0.931 . S
Co510 N515 2.057 . S
Co510 O527 2.021 . S
Co510 O530 2.062 . S
Co510 O534 2.117 . S
Co510 O535 2.020 1_554 S
C511 O531 1.259 . S
C511 O534 1.258 1_556 S
Co512 N521 2.057 . S
Co512 O528 2.117 . S
Co512 O529 2.020 1_556 S
Co512 O531 2.021 . S
Co512 O536 2.062 . S
C513 N515 1.316 . S
C513 N516 1.347 . S
C513 H518 0.931 . S
C514 N515 1.375 . S
C514 C517 1.350 . S
C514 H519 0.930 . S
N515 Co510 2.057 . S
N515 C513 1.316 . S
N515 C514 1.375 . S
N516 C513 1.347 . S
N516 C517 1.373 . S
C517 C514 1.350 . S
C517 N516 1.373 . S
C517 H538 0.931 . S
H518 C513 0.931 . S
H519 C514 0.930 . S
C520 O527 1.259 . S
C520 O528 1.258 1_554 S
N521 Co512 2.057 . S
N521 C522 1.316 . S
N521 C523 1.375 . S
C522 N521 1.316 . S
C522 N524 1.347 . S
C522 H533 0.931 . S
C523 N521 1.375 . S
C523 C525 1.350 . S
C523 H532 0.930 . S
N524 C522 1.347 . S
N524 C525 1.373 . S
C525 C523 1.350 . S
C525 N524 1.373 . S
C525 H539 0.931 . S
C526 O529 1.256 . S
C526 O530 1.255 . S
O527 Co510 2.021 . S
O527 C520 1.259 . S
O528 Co512 2.117 . S
O528 C520 1.258 1_556 S
O529 Co512 2.020 1_554 S
O529 C526 1.256 . S
O530 Co510 2.062 . S
O530 C526 1.255 . S
O531 C511 1.259 . S
O531 Co512 2.021 . S
H532 C523 0.930 . S
H533 C522 0.931 . S
O534 Co510 2.117 . S
O534 C511 1.258 1_554 S
O535 Co510 2.020 1_556 S
O535 C537 1.256 . S
O536 Co512 2.062 . S
O536 C537 1.255 . S
C537 O535 1.256 . S
C537 O536 1.255 . S
H538 C517 0.931 . S
H539 C525 0.931 . S
Co540 N545 2.057 . S
Co540 O557 2.021 . S
Co540 O560 2.062 . S
Co540 O564 2.117 . S
Co540 O565 2.020 . S
C541 O561 1.259 . S
C541 O564 1.258 . S
Co542 N551 2.057 . S
Co542 O558 2.117 . S
Co542 O559 2.020 . S
Co542 O561 2.021 . S
Co542 O566 2.062 . S
C543 N545 1.316 . S
C543 N546 1.347 . S
C543 H548 0.931 . S
C544 N545 1.375 . S
C544 C547 1.350 . S
C544 H549 0.930 . S
N545 Co540 2.057 . S
N545 C543 1.316 . S
N545 C544 1.375 . S
N546 C543 1.347 . S
N546 C547 1.373 . S
C547 C544 1.350 . S
C547 N546 1.373 . S
C547 H568 0.931 . S
H548 C543 0.931 . S
H549 C544 0.930 . S
C550 O557 1.259 . S
C550 O558 1.258 . S
N551 Co542 2.057 . S
N551 C552 1.316 . S
N551 C553 1.375 . S
C552 N551 1.316 . S
C552 N554 1.347 . S
C552 H563 0.931 . S
C553 N551 1.375 . S
C553 C555 1.350 . S
C553 H562 0.930 . S
N554 C552 1.347 . S
N554 C555 1.373 . S
C555 C553 1.350 . S
C555 N554 1.373 . S
C555 H569 0.931 . S
C556 O559 1.256 . S
C556 O560 1.255 . S
O557 Co540 2.021 . S
O557 C550 1.259 . S
O558 Co542 2.117 . S
O558 C550 1.258 . S
O559 Co542 2.020 . S
O559 C556 1.256 . S
O560 Co540 2.062 . S
O560 C556 1.255 . S
O561 C541 1.259 . S
O561 Co542 2.021 . S
H562 C553 0.930 . S
H563 C552 0.931 . S
O564 Co540 2.117 . S
O564 C541 1.258 . S
O565 Co540 2.020 . S
O565 C567 1.256 . S
O566 Co542 2.062 . S
O566 C567 1.255 . S
C567 O565 1.256 . S
C567 O566 1.255 . S
H568 C547 0.931 . S
H569 C555 0.931 . S
Co570 N575 2.057 . S
Co570 O587 2.021 . S
Co570 O590 2.062 . S
Co570 O594 2.117 . S
Co570 O595 2.020 . S
C571 O591 1.259 . S
C571 O594 1.258 . S
Co572 N581 2.057 . S
Co572 O588 2.117 . S
Co572 O589 2.020 . S
Co572 O591 2.021 . S
Co572 O596 2.062 . S
C573 N575 1.316 . S
C573 N576 1.347 . S
C573 H578 0.931 . S
C574 N575 1.375 . S
C574 C577 1.350 . S
C574 H579 0.930 . S
N575 Co570 2.057 . S
N575 C573 1.316 . S
N575 C574 1.375 . S
N576 C573 1.347 . S
N576 C577 1.373 . S
C577 C574 1.350 . S
C577 N576 1.373 . S
C577 H598 0.931 . S
H578 C573 0.931 . S
H579 C574 0.930 . S
C580 O587 1.259 . S
C580 O588 1.258 . S
N581 Co572 2.057 . S
N581 C582 1.316 . S
N581 C583 1.375 . S
C582 N581 1.316 . S
C582 N584 1.347 . S
C582 H593 0.931 . S
C583 N581 1.375 . S
C583 C585 1.350 . S
C583 H592 0.930 . S
N584 C582 1.347 . S
N584 C585 1.373 . S
C585 C583 1.350 . S
C585 N584 1.373 . S
C585 H599 0.931 . S
C586 O589 1.256 . S
C586 O590 1.255 . S
O587 Co570 2.021 . S
O587 C580 1.259 . S
O588 Co572 2.117 . S
O588 C580 1.258 . S
O589 Co572 2.020 . S
O589 C586 1.256 . S
O590 Co570 2.062 . S
O590 C586 1.255 . S
O591 C571 1.259 . S
O591 Co572 2.021 . S
H592 C583 0.930 . S
H593 C582 0.931 . S
O594 Co570 2.117 . S
O594 C571 1.258 . S
O595 Co570 2.020 . S
O595 C597 1.256 . S
O596 Co572 2.062 . S
O596 C597 1.255 . S
C597 O595 1.256 . S
C597 O596 1.255 . S
H598 C577 0.931 . S
H599 C585 0.931 . S
Co600 N605 2.057 . S
Co600 O617 2.021 . S
Co600 O620 2.062 . S
Co600 O624 2.117 . S
Co600 O625 2.020 . S
C601 O621 1.259 . S
C601 O624 1.258 . S
Co602 N611 2.057 . S
Co602 O618 2.117 . S
Co602 O619 2.020 . S
Co602 O621 2.021 . S
Co602 O626 2.062 . S
C603 N605 1.316 . S
C603 N606 1.347 . S
C603 H608 0.931 . S
C604 N605 1.375 . S
C604 C607 1.350 . S
C604 H609 0.930 . S
N605 Co600 2.057 . S
N605 C603 1.316 . S
N605 C604 1.375 . S
N606 C603 1.347 . S
N606 C607 1.373 . S
C607 C604 1.350 . S
C607 N606 1.373 . S
C607 H628 0.931 . S
H608 C603 0.931 . S
H609 C604 0.930 . S
C610 O617 1.259 . S
C610 O618 1.258 . S
N611 Co602 2.057 . S
N611 C612 1.316 . S
N611 C613 1.375 . S
C612 N611 1.316 . S
C612 N614 1.347 . S
C612 H623 0.931 . S
C613 N611 1.375 . S
C613 C615 1.350 . S
C613 H622 0.930 . S
N614 C612 1.347 . S
N614 C615 1.373 . S
C615 C613 1.350 . S
C615 N614 1.373 . S
C615 H629 0.931 . S
C616 O619 1.256 . S
C616 O620 1.255 . S
O617 Co600 2.021 . S
O617 C610 1.259 . S
O618 Co602 2.117 . S
O618 C610 1.258 . S
O619 Co602 2.020 . S
O619 C616 1.256 . S
O620 Co600 2.062 . S
O620 C616 1.255 . S
O621 C601 1.259 . S
O621 Co602 2.021 . S
H622 C613 0.930 . S
H623 C612 0.931 . S
O624 Co600 2.117 . S
O624 C601 1.258 . S
O625 Co600 2.020 . S
O625 C627 1.256 . S
O626 Co602 2.062 . S
O626 C627 1.255 . S
C627 O625 1.256 . S
C627 O626 1.255 . S
H628 C607 0.931 . S
H629 C615 0.931 . S
Co630 N635 2.057 . S
Co630 O647 2.021 . S
Co630 O650 2.062 . S
Co630 O654 2.117 . S
Co630 O655 2.020 . S
C631 O651 1.259 . S
C631 O654 1.258 . S
Co632 N641 2.057 . S
Co632 O648 2.117 . S
Co632 O649 2.020 . S
Co632 O651 2.021 . S
Co632 O656 2.062 . S
C633 N635 1.316 1_554 S
C633 N636 1.347 . S
C633 H638 0.931 . S
C634 N635 1.375 1_554 S
C634 C637 1.350 . S
C634 H639 0.930 1_554 S
N635 Co630 2.057 . S
N635 C633 1.316 1_556 S
N635 C634 1.375 1_556 S
N636 C633 1.347 . S
N636 C637 1.373 . S
C637 C634 1.350 . S
C637 N636 1.373 . S
C637 H658 0.931 . S
H638 C633 0.931 . S
H639 C634 0.930 1_556 S
C640 O647 1.259 . S
C640 O648 1.258 . S
N641 Co632 2.057 . S
N641 C642 1.316 . S
N641 C643 1.375 . S
C642 N641 1.316 . S
C642 N644 1.347 . S
C642 H653 0.931 . S
C643 N641 1.375 . S
C643 C645 1.350 . S
C643 H652 0.930 . S
N644 C642 1.347 . S
N644 C645 1.373 . S
C645 C643 1.350 . S
C645 N644 1.373 . S
C645 H659 0.931 . S
C646 O649 1.256 . S
C646 O650 1.255 . S
O647 Co630 2.021 . S
O647 C640 1.259 . S
O648 Co632 2.117 . S
O648 C640 1.258 . S
O649 Co632 2.020 . S
O649 C646 1.256 . S
O650 Co630 2.062 . S
O650 C646 1.255 . S
O651 C631 1.259 . S
O651 Co632 2.021 . S
H652 C643 0.930 . S
H653 C642 0.931 . S
O654 Co630 2.117 . S
O654 C631 1.258 . S
O655 Co630 2.020 . S
O655 C657 1.256 . S
O656 Co632 2.062 . S
O656 C657 1.255 . S
C657 O655 1.256 . S
C657 O656 1.255 . S
H658 C637 0.931 . S
H659 C645 0.931 . S
Co660 N665 2.057 . S
Co660 O677 2.021 . S
Co660 O680 2.062 . S
Co660 O684 2.117 . S
Co660 O685 2.020 . S
C661 O681 1.259 . S
C661 O684 1.258 . S
Co662 N671 2.057 . S
Co662 O678 2.117 . S
Co662 O679 2.020 . S
Co662 O681 2.021 . S
Co662 O686 2.062 . S
C663 N665 1.316 1_554 S
C663 N666 1.347 . S
C663 H668 0.931 . S
C664 N665 1.375 1_554 S
C664 C667 1.350 . S
C664 H669 0.930 1_564 S
N665 Co660 2.057 . S
N665 C663 1.316 1_556 S
N665 C664 1.375 1_556 S
N666 C663 1.347 . S
N666 C667 1.373 . S
C667 C664 1.350 . S
C667 N666 1.373 . S
C667 H688 0.931 1_565 S
H668 C663 0.931 . S
H669 C664 0.930 1_546 S
C670 O677 1.259 . S
C670 O678 1.258 . S
N671 Co662 2.057 . S
N671 C672 1.316 . S
N671 C673 1.375 . S
C672 N671 1.316 . S
C672 N674 1.347 . S
C672 H683 0.931 . S
C673 N671 1.375 . S
C673 C675 1.350 . S
C673 H682 0.930 . S
N674 C672 1.347 . S
N674 C675 1.373 . S
C675 C673 1.350 . S
C675 N674 1.373 . S
C675 H689 0.931 . S
C676 O679 1.256 . S
C676 O680 1.255 . S
O677 Co660 2.021 . S
O677 C670 1.259 . S
O678 Co662 2.117 . S
O678 C670 1.258 . S
O679 Co662 2.020 . S
O679 C676 1.256 . S
O680 Co660 2.062 . S
O680 C676 1.255 . S
O681 C661 1.259 . S
O681 Co662 2.021 . S
H682 C673 0.930 . S
H683 C672 0.931 . S
O684 Co660 2.117 . S
O684 C661 1.258 . S
O685 Co660 2.020 . S
O685 C687 1.256 . S
O686 Co662 2.062 . S
O686 C687 1.255 . S
C687 O685 1.256 . S
C687 O686 1.255 . S
H688 C667 0.931 1_545 S
H689 C675 0.931 . S
Co690 N695 2.057 . S
Co690 O707 2.021 . S
Co690 O710 2.062 . S
Co690 O714 2.117 . S
Co690 O715 2.020 . S
C691 O711 1.259 . S
C691 O714 1.258 . S
Co692 N701 2.057 . S
Co692 O708 2.117 . S
Co692 O709 2.020 . S
Co692 O711 2.021 . S
Co692 O716 2.062 . S
C693 N695 1.316 1_554 S
C693 N696 1.347 . S
C693 H698 0.931 . S
C694 N695 1.375 1_554 S
C694 C697 1.350 . S
C694 H699 0.930 1_454 S
N695 Co690 2.057 . S
N695 C693 1.316 1_556 S
N695 C694 1.375 1_556 S
N696 C693 1.347 . S
N696 C697 1.373 . S
C697 C694 1.350 . S
C697 N696 1.373 . S
C697 H718 0.931 1_455 S
H698 C693 0.931 . S
H699 C694 0.930 1_656 S
C700 O707 1.259 . S
C700 O708 1.258 . S
N701 Co692 2.057 . S
N701 C702 1.316 . S
N701 C703 1.375 . S
C702 N701 1.316 . S
C702 N704 1.347 . S
C702 H713 0.931 . S
C703 N701 1.375 . S
C703 C705 1.350 . S
C703 H712 0.930 . S
N704 C702 1.347 . S
N704 C705 1.373 . S
C705 C703 1.350 . S
C705 N704 1.373 . S
C705 H719 0.931 . S
C706 O709 1.256 . S
C706 O710 1.255 . S
O707 Co690 2.021 . S
O707 C700 1.259 . S
O708 Co692 2.117 . S
O708 C700 1.258 . S
O709 Co692 2.020 . S
O709 C706 1.256 . S
O710 Co690 2.062 . S
O710 C706 1.255 . S
O711 C691 1.259 . S
O711 Co692 2.021 . S
H712 C703 0.930 . S
H713 C702 0.931 . S
O714 Co690 2.117 . S
O714 C691 1.258 . S
O715 Co690 2.020 . S
O715 C717 1.256 . S
O716 Co692 2.062 . S
O716 C717 1.255 . S
C717 O715 1.256 . S
C717 O716 1.255 . S
H718 C697 0.931 1_655 S
H719 C705 0.931 . S
Co720 N725 2.057 . S
Co720 O737 2.021 . S
Co720 O740 2.062 . S
Co720 O744 2.117 . S
Co720 O745 2.020 . S
C721 O741 1.259 . S
C721 O744 1.258 . S
Co722 N731 2.057 . S
Co722 O738 2.117 . S
Co722 O739 2.020 . S
Co722 O741 2.021 . S
Co722 O746 2.062 . S
C723 N725 1.316 . S
C723 N726 1.347 . S
C723 H728 0.931 . S
C724 N725 1.375 . S
C724 C727 1.350 . S
C724 H729 0.930 . S
N725 Co720 2.057 . S
N725 C723 1.316 . S
N725 C724 1.375 . S
N726 C723 1.347 . S
N726 C727 1.373 . S
C727 C724 1.350 . S
C727 N726 1.373 . S
C727 H748 0.931 . S
H728 C723 0.931 . S
H729 C724 0.930 . S
C730 O737 1.259 . S
C730 O738 1.258 . S
N731 Co722 2.057 . S
N731 C732 1.316 . S
N731 C733 1.375 . S
C732 N731 1.316 . S
C732 N734 1.347 . S
C732 H743 0.931 . S
C733 N731 1.375 . S
C733 C735 1.350 . S
C733 H742 0.930 . S
N734 C732 1.347 . S
N734 C735 1.373 . S
C735 C733 1.350 . S
C735 N734 1.373 . S
C735 H749 0.931 . S
C736 O739 1.256 . S
C736 O740 1.255 . S
O737 Co720 2.021 . S
O737 C730 1.259 . S
O738 Co722 2.117 . S
O738 C730 1.258 . S
O739 Co722 2.020 . S
O739 C736 1.256 . S
O740 Co720 2.062 . S
O740 C736 1.255 . S
O741 C721 1.259 . S
O741 Co722 2.021 . S
H742 C733 0.930 . S
H743 C732 0.931 . S
O744 Co720 2.117 . S
O744 C721 1.258 . S
O745 Co720 2.020 . S
O745 C747 1.256 . S
O746 Co722 2.062 . S
O746 C747 1.255 . S
C747 O745 1.256 . S
C747 O746 1.255 . S
H748 C727 0.931 . S
H749 C735 0.931 . S
Co750 N755 2.057 . S
Co750 O767 2.021 . S
Co750 O770 2.062 . S
Co750 O774 2.117 . S
Co750 O775 2.020 . S
C751 O771 1.259 . S
C751 O774 1.258 . S
Co752 N761 2.057 . S
Co752 O768 2.117 . S
Co752 O769 2.020 . S
Co752 O771 2.021 . S
Co752 O776 2.062 . S
C753 N755 1.316 . S
C753 N756 1.347 . S
C753 H758 0.931 . S
C754 N755 1.375 . S
C754 C757 1.350 . S
C754 H759 0.930 . S
N755 Co750 2.057 . S
N755 C753 1.316 . S
N755 C754 1.375 . S
N756 C753 1.347 . S
N756 C757 1.373 . S
C757 C754 1.350 . S
C757 N756 1.373 . S
C757 H778 0.931 . S
H758 C753 0.931 . S
H759 C754 0.930 . S
C760 O767 1.259 . S
C760 O768 1.258 . S
N761 Co752 2.057 . S
N761 C762 1.316 . S
N761 C763 1.375 . S
C762 N761 1.316 . S
C762 N764 1.347 . S
C762 H773 0.931 . S
C763 N761 1.375 . S
C763 C765 1.350 . S
C763 H772 0.930 . S
N764 C762 1.347 . S
N764 C765 1.373 . S
C765 C763 1.350 . S
C765 N764 1.373 . S
C765 H779 0.931 . S
C766 O769 1.256 . S
C766 O770 1.255 . S
O767 Co750 2.021 . S
O767 C760 1.259 . S
O768 Co752 2.117 . S
O768 C760 1.258 . S
O769 Co752 2.020 . S
O769 C766 1.256 . S
O770 Co750 2.062 . S
O770 C766 1.255 . S
O771 C751 1.259 . S
O771 Co752 2.021 . S
H772 C763 0.930 . S
H773 C762 0.931 . S
O774 Co750 2.117 . S
O774 C751 1.258 . S
O775 Co750 2.020 . S
O775 C777 1.256 . S
O776 Co752 2.062 . S
O776 C777 1.255 . S
C777 O775 1.256 . S
C777 O776 1.255 . S
H778 C757 0.931 . S
H779 C765 0.931 . S
Co780 N785 2.057 . S
Co780 O797 2.021 . S
Co780 O800 2.062 . S
Co780 O804 2.117 . S
Co780 O805 2.020 . S
C781 O801 1.259 . S
C781 O804 1.258 . S
Co782 N791 2.057 . S
Co782 O798 2.117 . S
Co782 O799 2.020 . S
Co782 O801 2.021 . S
Co782 O806 2.062 . S
C783 N785 1.316 . S
C783 N786 1.347 . S
C783 H788 0.931 . S
C784 N785 1.375 . S
C784 C787 1.350 . S
C784 H789 0.930 . S
N785 Co780 2.057 . S
N785 C783 1.316 . S
N785 C784 1.375 . S
N786 C783 1.347 . S
N786 C787 1.373 . S
C787 C784 1.350 . S
C787 N786 1.373 . S
C787 H808 0.931 . S
H788 C783 0.931 . S
H789 C784 0.930 . S
C790 O797 1.259 . S
C790 O798 1.258 . S
N791 Co782 2.057 . S
N791 C792 1.316 . S
N791 C793 1.375 . S
C792 N791 1.316 . S
C792 N794 1.347 . S
C792 H803 0.931 . S
C793 N791 1.375 . S
C793 C795 1.350 . S
C793 H802 0.930 . S
N794 C792 1.347 . S
N794 C795 1.373 . S
C795 C793 1.350 . S
C795 N794 1.373 . S
C795 H809 0.931 . S
C796 O799 1.256 . S
C796 O800 1.255 . S
O797 Co780 2.021 . S
O797 C790 1.259 . S
O798 Co782 2.117 . S
O798 C790 1.258 . S
O799 Co782 2.020 . S
O799 C796 1.256 . S
O800 Co780 2.062 . S
O800 C796 1.255 . S
O801 C781 1.259 . S
O801 Co782 2.021 . S
H802 C793 0.930 . S
H803 C792 0.931 . S
O804 Co780 2.117 . S
O804 C781 1.258 . S
O805 Co780 2.020 . S
O805 C807 1.256 . S
O806 Co782 2.062 . S
O806 C807 1.255 . S
C807 O805 1.256 . S
C807 O806 1.255 . S
H808 C787 0.931 . S
H809 C795 0.931 . S
Co810 N815 2.057 . S
Co810 O827 2.021 . S
Co810 O830 2.062 . S
Co810 O834 2.117 . S
Co810 O835 2.020 . S
C811 O831 1.259 . S
C811 O834 1.258 . S
Co812 N821 2.057 . S
Co812 O828 2.117 . S
Co812 O829 2.020 . S
Co812 O831 2.021 . S
Co812 O836 2.062 . S
C813 N815 1.316 . S
C813 N816 1.347 . S
C813 H818 0.931 . S
C814 N815 1.375 . S
C814 C817 1.350 . S
C814 H819 0.930 . S
N815 Co810 2.057 . S
N815 C813 1.316 . S
N815 C814 1.375 . S
N816 C813 1.347 . S
N816 C817 1.373 . S
C817 C814 1.350 . S
C817 N816 1.373 . S
C817 H838 0.931 . S
H818 C813 0.931 . S
H819 C814 0.930 . S
C820 O827 1.259 . S
C820 O828 1.258 . S
N821 Co812 2.057 . S
N821 C822 1.316 . S
N821 C823 1.375 . S
C822 N821 1.316 . S
C822 N824 1.347 . S
C822 H833 0.931 . S
C823 N821 1.375 . S
C823 C825 1.350 . S
C823 H832 0.930 . S
N824 C822 1.347 . S
N824 C825 1.373 . S
C825 C823 1.350 . S
C825 N824 1.373 . S
C825 H839 0.931 . S
C826 O829 1.256 . S
C826 O830 1.255 . S
O827 Co810 2.021 . S
O827 C820 1.259 . S
O828 Co812 2.117 . S
O828 C820 1.258 . S
O829 Co812 2.020 . S
O829 C826 1.256 . S
O830 Co810 2.062 . S
O830 C826 1.255 . S
O831 C811 1.259 . S
O831 Co812 2.021 . S
H832 C823 0.930 . S
H833 C822 0.931 . S
O834 Co810 2.117 . S
O834 C811 1.258 . S
O835 Co810 2.020 . S
O835 C837 1.256 . S
O836 Co812 2.062 . S
O836 C837 1.255 . S
C837 O835 1.256 . S
C837 O836 1.255 . S
H838 C817 0.931 . S
H839 C825 0.931 . S
Co840 N845 2.057 . S
Co840 O857 2.021 . S
Co840 O860 2.062 . S
Co840 O864 2.117 . S
Co840 O865 2.020 . S
C841 O861 1.259 . S
C841 O864 1.258 . S
Co842 N851 2.057 . S
Co842 O858 2.117 . S
Co842 O859 2.020 . S
Co842 O861 2.021 . S
Co842 O866 2.062 . S
C843 N845 1.316 . S
C843 N846 1.347 . S
C843 H848 0.931 . S
C844 N845 1.375 . S
C844 C847 1.350 . S
C844 H849 0.930 . S
N845 Co840 2.057 . S
N845 C843 1.316 . S
N845 C844 1.375 . S
N846 C843 1.347 . S
N846 C847 1.373 . S
C847 C844 1.350 . S
C847 N846 1.373 . S
C847 H868 0.931 . S
H848 C843 0.931 . S
H849 C844 0.930 . S
C850 O857 1.259 . S
C850 O858 1.258 . S
N851 Co842 2.057 . S
N851 C852 1.316 . S
N851 C853 1.375 . S
C852 N851 1.316 . S
C852 N854 1.347 . S
C852 H863 0.931 . S
C853 N851 1.375 . S
C853 C855 1.350 . S
C853 H862 0.930 1_545 S
N854 C852 1.347 . S
N854 C855 1.373 . S
C855 C853 1.350 . S
C855 N854 1.373 . S
C855 H869 0.931 1_545 S
C856 O859 1.256 . S
C856 O860 1.255 . S
O857 Co840 2.021 . S
O857 C850 1.259 . S
O858 Co842 2.117 . S
O858 C850 1.258 . S
O859 Co842 2.020 . S
O859 C856 1.256 . S
O860 Co840 2.062 . S
O860 C856 1.255 . S
O861 C841 1.259 . S
O861 Co842 2.021 . S
H862 C853 0.930 1_565 S
H863 C852 0.931 . S
O864 Co840 2.117 . S
O864 C841 1.258 . S
O865 Co840 2.020 . S
O865 C867 1.256 . S
O866 Co842 2.062 . S
O866 C867 1.255 . S
C867 O865 1.256 . S
C867 O866 1.255 . S
H868 C847 0.931 . S
H869 C855 0.931 1_565 S
Co870 N875 2.057 . S
Co870 O887 2.021 . S
Co870 O890 2.062 . S
Co870 O894 2.117 . S
Co870 O895 2.020 . S
C871 O891 1.259 . S
C871 O894 1.258 . S
Co872 N881 2.057 . S
Co872 O888 2.117 . S
Co872 O889 2.020 . S
Co872 O891 2.021 . S
Co872 O896 2.062 . S
C873 N875 1.316 . S
C873 N876 1.347 . S
C873 H878 0.931 . S
C874 N875 1.375 . S
C874 C877 1.350 . S
C874 H879 0.930 . S
N875 Co870 2.057 . S
N875 C873 1.316 . S
N875 C874 1.375 . S
N876 C873 1.347 . S
N876 C877 1.373 . S
C877 C874 1.350 . S
C877 N876 1.373 . S
C877 H898 0.931 . S
H878 C873 0.931 . S
H879 C874 0.930 . S
C880 O887 1.259 . S
C880 O888 1.258 . S
N881 Co872 2.057 . S
N881 C882 1.316 . S
N881 C883 1.375 . S
C882 N881 1.316 . S
C882 N884 1.347 . S
C882 H893 0.931 . S
C883 N881 1.375 . S
C883 C885 1.350 . S
C883 H892 0.930 1_655 S
N884 C882 1.347 . S
N884 C885 1.373 . S
C885 C883 1.350 . S
C885 N884 1.373 . S
C885 H899 0.931 1_655 S
C886 O889 1.256 . S
C886 O890 1.255 . S
O887 Co870 2.021 . S
O887 C880 1.259 . S
O888 Co872 2.117 . S
O888 C880 1.258 . S
O889 Co872 2.020 . S
O889 C886 1.256 . S
O890 Co870 2.062 . S
O890 C886 1.255 . S
O891 C871 1.259 . S
O891 Co872 2.021 . S
H892 C883 0.930 1_455 S
H893 C882 0.931 . S
O894 Co870 2.117 . S
O894 C871 1.258 . S
O895 Co870 2.020 . S
O895 C897 1.256 . S
O896 Co872 2.062 . S
O896 C897 1.255 . S
C897 O895 1.256 . S
C897 O896 1.255 . S
H898 C877 0.931 . S
H899 C885 0.931 1_455 S
Co900 N905 2.057 . S
Co900 O917 2.021 . S
Co900 O920 2.062 . S
Co900 O924 2.117 . S
Co900 O925 2.020 . S
C901 O921 1.259 . S
C901 O924 1.258 . S
Co902 N911 2.057 . S
Co902 O918 2.117 . S
Co902 O919 2.020 . S
Co902 O921 2.021 . S
Co902 O926 2.062 . S
C903 N905 1.316 . S
C903 N906 1.347 . S
C903 H908 0.931 . S
C904 N905 1.375 . S
C904 C907 1.350 . S
C904 H909 0.930 . S
N905 Co900 2.057 . S
N905 C903 1.316 . S
N905 C904 1.375 . S
N906 C903 1.347 . S
N906 C907 1.373 . S
C907 C904 1.350 . S
C907 N906 1.373 . S
C907 H928 0.931 . S
H908 C903 0.931 . S
H909 C904 0.930 . S
C910 O917 1.259 . S
C910 O918 1.258 . S
N911 Co902 2.057 . S
N911 C912 1.316 1_556 S
N911 C913 1.375 1_556 S
C912 N911 1.316 1_554 S
C912 N914 1.347 . S
C912 H923 0.931 . S
C913 N911 1.375 1_554 S
C913 C915 1.350 . S
C913 H922 0.930 1_554 S
N914 C912 1.347 . S
N914 C915 1.373 . S
C915 C913 1.350 . S
C915 N914 1.373 . S
C915 H929 0.931 . S
C916 O919 1.256 . S
C916 O920 1.255 . S
O917 Co900 2.021 . S
O917 C910 1.259 . S
O918 Co902 2.117 . S
O918 C910 1.258 . S
O919 Co902 2.020 . S
O919 C916 1.256 . S
O920 Co900 2.062 . S
O920 C916 1.255 . S
O921 C901 1.259 . S
O921 Co902 2.021 . S
H922 C913 0.930 1_556 S
H923 C912 0.931 . S
O924 Co900 2.117 . S
O924 C901 1.258 . S
O925 Co900 2.020 . S
O925 C927 1.256 . S
O926 Co902 2.062 . S
O926 C927 1.255 . S
C927 O925 1.256 . S
C927 O926 1.255 . S
H928 C907 0.931 . S
H929 C915 0.931 . S
Co930 N935 2.057 . S
Co930 O947 2.021 . S
Co930 O950 2.062 . S
Co930 O954 2.117 . S
Co930 O955 2.020 . S
C931 O951 1.259 . S
C931 O954 1.258 . S
Co932 N941 2.057 . S
Co932 O948 2.117 . S
Co932 O949 2.020 . S
Co932 O951 2.021 . S
Co932 O956 2.062 . S
C933 N935 1.316 . S
C933 N936 1.347 . S
C933 H938 0.931 . S
C934 N935 1.375 . S
C934 C937 1.350 . S
C934 H939 0.930 1_545 S
N935 Co930 2.057 . S
N935 C933 1.316 . S
N935 C934 1.375 . S
N936 C933 1.347 . S
N936 C937 1.373 . S
C937 C934 1.350 . S
C937 N936 1.373 . S
C937 H958 0.931 1_545 S
H938 C933 0.931 . S
H939 C934 0.930 1_565 S
C940 O947 1.259 . S
C940 O948 1.258 . S
N941 Co932 2.057 . S
N941 C942 1.316 1_556 S
N941 C943 1.375 1_556 S
C942 N941 1.316 1_554 S
C942 N944 1.347 . S
C942 H953 0.931 . S
C943 N941 1.375 1_554 S
C943 C945 1.350 . S
C943 H952 0.930 1_554 S
N944 C942 1.347 . S
N944 C945 1.373 . S
C945 C943 1.350 . S
C945 N944 1.373 . S
C945 H959 0.931 . S
C946 O949 1.256 . S
C946 O950 1.255 . S
O947 Co930 2.021 . S
O947 C940 1.259 . S
O948 Co932 2.117 . S
O948 C940 1.258 . S
O949 Co932 2.020 . S
O949 C946 1.256 . S
O950 Co930 2.062 . S
O950 C946 1.255 . S
O951 C931 1.259 . S
O951 Co932 2.021 . S
H952 C943 0.930 1_556 S
H953 C942 0.931 . S
O954 Co930 2.117 . S
O954 C931 1.258 . S
O955 Co930 2.020 . S
O955 C957 1.256 . S
O956 Co932 2.062 . S
O956 C957 1.255 . S
C957 O955 1.256 . S
C957 O956 1.255 . S
H958 C937 0.931 1_565 S
H959 C945 0.931 . S
Co960 N965 2.057 . S
Co960 O977 2.021 . S
Co960 O980 2.062 . S
Co960 O984 2.117 . S
Co960 O985 2.020 . S
C961 O981 1.259 . S
C961 O984 1.258 . S
Co962 N971 2.057 . S
Co962 O978 2.117 . S
Co962 O979 2.020 . S
Co962 O981 2.021 . S
Co962 O986 2.062 . S
C963 N965 1.316 . S
C963 N966 1.347 . S
C963 H968 0.931 . S
C964 N965 1.375 . S
C964 C967 1.350 . S
C964 H969 0.930 1_655 S
N965 Co960 2.057 . S
N965 C963 1.316 . S
N965 C964 1.375 . S
N966 C963 1.347 . S
N966 C967 1.373 . S
C967 C964 1.350 . S
C967 N966 1.373 . S
C967 H988 0.931 1_655 S
H968 C963 0.931 . S
H969 C964 0.930 1_455 S
C970 O977 1.259 . S
C970 O978 1.258 . S
N971 Co962 2.057 . S
N971 C972 1.316 1_556 S
N971 C973 1.375 1_556 S
C972 N971 1.316 1_554 S
C972 N974 1.347 . S
C972 H983 0.931 . S
C973 N971 1.375 1_554 S
C973 C975 1.350 . S
C973 H982 0.930 1_554 S
N974 C972 1.347 . S
N974 C975 1.373 . S
C975 C973 1.350 . S
C975 N974 1.373 . S
C975 H989 0.931 . S
C976 O979 1.256 . S
C976 O980 1.255 . S
O977 Co960 2.021 . S
O977 C970 1.259 . S
O978 Co962 2.117 . S
O978 C970 1.258 . S
O979 Co962 2.020 . S
O979 C976 1.256 . S
O980 Co960 2.062 . S
O980 C976 1.255 . S
O981 C961 1.259 . S
O981 Co962 2.021 . S
H982 C973 0.930 1_556 S
H983 C972 0.931 . S
O984 Co960 2.117 . S
O984 C961 1.258 . S
O985 Co960 2.020 . S
O985 C987 1.256 . S
O986 Co962 2.062 . S
O986 C987 1.255 . S
C987 O985 1.256 . S
C987 O986 1.255 . S
H988 C967 0.931 1_455 S
H989 C975 0.931 . S
Co990 N995 2.057 . S
Co990 O1007 2.021 . S
Co990 O1010 2.062 . S
Co990 O1014 2.117 . S
Co990 O1015 2.020 . S
C991 O1011 1.259 . S
C991 O1014 1.258 . S
Co992 N1001 2.057 . S
Co992 O1008 2.117 . S
Co992 O1009 2.020 . S
Co992 O1011 2.021 . S
Co992 O1016 2.062 . S
C993 N995 1.316 . S
C993 N996 1.347 . S
C993 H998 0.931 . S
C994 N995 1.375 . S
C994 C997 1.350 . S
C994 H999 0.930 . S
N995 Co990 2.057 . S
N995 C993 1.316 . S
N995 C994 1.375 . S
N996 C993 1.347 . S
N996 C997 1.373 . S
C997 C994 1.350 . S
C997 N996 1.373 . S
C997 H1018 0.931 . S
H998 C993 0.931 . S
H999 C994 0.930 . S
C1000 O1007 1.259 . S
C1000 O1008 1.258 . S
N1001 Co992 2.057 . S
N1001 C1002 1.316 1_554 S
N1001 C1003 1.375 1_554 S
C1002 N1001 1.316 1_556 S
C1002 N1004 1.347 . S
C1002 H1013 0.931 . S
C1003 N1001 1.375 1_556 S
C1003 C1005 1.350 . S
C1003 H1012 0.930 1_556 S
N1004 C1002 1.347 . S
N1004 C1005 1.373 . S
C1005 C1003 1.350 . S
C1005 N1004 1.373 . S
C1005 H1019 0.931 . S
C1006 O1009 1.256 . S
C1006 O1010 1.255 . S
O1007 Co990 2.021 . S
O1007 C1000 1.259 . S
O1008 Co992 2.117 . S
O1008 C1000 1.258 . S
O1009 Co992 2.020 . S
O1009 C1006 1.256 . S
O1010 Co990 2.062 . S
O1010 C1006 1.255 . S
O1011 C991 1.259 . S
O1011 Co992 2.021 . S
H1012 C1003 0.930 1_554 S
H1013 C1002 0.931 . S
O1014 Co990 2.117 . S
O1014 C991 1.258 . S
O1015 Co990 2.020 . S
O1015 C1017 1.256 . S
O1016 Co992 2.062 . S
O1016 C1017 1.255 . S
C1017 O1015 1.256 . S
C1017 O1016 1.255 . S
H1018 C997 0.931 . S
H1019 C1005 0.931 . S
Co1020 N1025 2.057 . S
Co1020 O1037 2.021 . S
Co1020 O1040 2.062 . S
Co1020 O1044 2.117 . S
Co1020 O1045 2.020 . S
C1021 O1041 1.259 . S
C1021 O1044 1.258 . S
Co1022 N1031 2.057 . S
Co1022 O1038 2.117 . S
Co1022 O1039 2.020 . S
Co1022 O1041 2.021 . S
Co1022 O1046 2.062 . S
C1023 N1025 1.316 . S
C1023 N1026 1.347 . S
C1023 H1028 0.931 . S
C1024 N1025 1.375 . S
C1024 C1027 1.350 . S
C1024 H1029 0.930 . S
N1025 Co1020 2.057 . S
N1025 C1023 1.316 . S
N1025 C1024 1.375 . S
N1026 C1023 1.347 . S
N1026 C1027 1.373 . S
C1027 C1024 1.350 . S
C1027 N1026 1.373 . S
C1027 H1048 0.931 . S
H1028 C1023 0.931 . S
H1029 C1024 0.930 . S
C1030 O1037 1.259 . S
C1030 O1038 1.258 . S
N1031 Co1022 2.057 . S
N1031 C1032 1.316 1_554 S
N1031 C1033 1.375 1_554 S
C1032 N1031 1.316 1_556 S
C1032 N1034 1.347 . S
C1032 H1043 0.931 . S
C1033 N1031 1.375 1_556 S
C1033 C1035 1.350 . S
C1033 H1042 0.930 1_556 S
N1034 C1032 1.347 . S
N1034 C1035 1.373 . S
C1035 C1033 1.350 . S
C1035 N1034 1.373 . S
C1035 H1049 0.931 . S
C1036 O1039 1.256 . S
C1036 O1040 1.255 . S
O1037 Co1020 2.021 . S
O1037 C1030 1.259 . S
O1038 Co1022 2.117 . S
O1038 C1030 1.258 . S
O1039 Co1022 2.020 . S
O1039 C1036 1.256 . S
O1040 Co1020 2.062 . S
O1040 C1036 1.255 . S
O1041 C1021 1.259 . S
O1041 Co1022 2.021 . S
H1042 C1033 0.930 1_554 S
H1043 C1032 0.931 . S
O1044 Co1020 2.117 . S
O1044 C1021 1.258 . S
O1045 Co1020 2.020 . S
O1045 C1047 1.256 . S
O1046 Co1022 2.062 . S
O1046 C1047 1.255 . S
C1047 O1045 1.256 . S
C1047 O1046 1.255 . S
H1048 C1027 0.931 . S
H1049 C1035 0.931 . S
Co1050 N1055 2.057 . S
Co1050 O1067 2.021 . S
Co1050 O1070 2.062 . S
Co1050 O1074 2.117 . S
Co1050 O1075 2.020 . S
C1051 O1071 1.259 . S
C1051 O1074 1.258 . S
Co1052 N1061 2.057 . S
Co1052 O1068 2.117 . S
Co1052 O1069 2.020 . S
Co1052 O1071 2.021 . S
Co1052 O1076 2.062 . S
C1053 N1055 1.316 . S
C1053 N1056 1.347 . S
C1053 H1058 0.931 . S
C1054 N1055 1.375 . S
C1054 C1057 1.350 . S
C1054 H1059 0.930 . S
N1055 Co1050 2.057 . S
N1055 C1053 1.316 . S
N1055 C1054 1.375 . S
N1056 C1053 1.347 . S
N1056 C1057 1.373 . S
C1057 C1054 1.350 . S
C1057 N1056 1.373 . S
C1057 H1078 0.931 . S
H1058 C1053 0.931 . S
H1059 C1054 0.930 . S
C1060 O1067 1.259 . S
C1060 O1068 1.258 . S
N1061 Co1052 2.057 . S
N1061 C1062 1.316 1_554 S
N1061 C1063 1.375 1_554 S
C1062 N1061 1.316 1_556 S
C1062 N1064 1.347 . S
C1062 H1073 0.931 . S
C1063 N1061 1.375 1_556 S
C1063 C1065 1.350 . S
C1063 H1072 0.930 1_556 S
N1064 C1062 1.347 . S
N1064 C1065 1.373 . S
C1065 C1063 1.350 . S
C1065 N1064 1.373 . S
C1065 H1079 0.931 . S
C1066 O1069 1.256 . S
C1066 O1070 1.255 . S
O1067 Co1050 2.021 . S
O1067 C1060 1.259 . S
O1068 Co1052 2.117 . S
O1068 C1060 1.258 . S
O1069 Co1052 2.020 . S
O1069 C1066 1.256 . S
O1070 Co1050 2.062 . S
O1070 C1066 1.255 . S
O1071 C1051 1.259 . S
O1071 Co1052 2.021 . S
H1072 C1063 0.930 1_554 S
H1073 C1062 0.931 . S
O1074 Co1050 2.117 . S
O1074 C1051 1.258 . S
O1075 Co1050 2.020 . S
O1075 C1077 1.256 . S
O1076 Co1052 2.062 . S
O1076 C1077 1.255 . S
C1077 O1075 1.256 . S
C1077 O1076 1.255 . S
H1078 C1057 0.931 . S
H1079 C1065 0.931 . S
C460 C10 0.929 1_554 S
C490 C40 0.930 1_554 S
C70 C520 0.930 1_556 S
C100 C730 0.931 . S
C130 C760 0.931 . S
C160 C790 0.931 . S
C991 C181 0.930 . S
C1021 C211 0.930 . S
C241 C1051 0.931 . S
C541 C271 0.930 . S
C301 C571 0.931 . S
C331 C601 0.931 . S
C820 C370 0.930 . S
C400 C850 0.931 1_565 S
C880 C430 0.931 1_655 S
C901 C631 0.931 . S
C931 C661 0.930 1_545 S
C691 C961 0.931 1_455 S
C16 C136 2.170 1_455 S
C46 C166 2.170 . S
C76 C106 2.170 1_565 S
C207 C327 2.169 1_655 S
C237 C357 2.169 . S
C267 C297 2.170 1_545 S
C376 C496 2.169 . S
C526 C406 2.169 . S
C436 C466 2.169 . S
C567 C687 2.169 . S
C597 C717 2.169 . S
C657 C627 2.169 . S
C736 C856 2.169 . S
C886 C766 2.169 . S
C796 C826 2.169 . S
C927 C1047 2.169 1_556 S
C957 C1077 2.169 1_556 S
C987 C1017 2.169 1_556 S
C316 N6 1.767 . S
N36 C346 1.768 . S
N66 C286 1.767 . S
N96 C256 1.767 1_556 S
N126 C196 1.766 1_556 S
C226 N156 1.767 1_554 S
N194 C147 1.766 . S
C177 N224 1.766 . S
N254 C117 1.766 . S
N284 C87 1.766 . S
C27 N314 1.765 . S
C57 N344 1.765 . S
C676 N366 1.767 1_556 S
C706 N396 1.766 1_556 S
C646 N426 1.766 1_556 S
C616 N456 1.766 . S
N486 C556 1.766 . S
C586 N516 1.767 . S
C507 N554 1.766 . S
N584 C537 1.766 . S
N614 C477 1.766 . S
C447 N644 1.766 . S
N674 C387 1.766 . S
N704 C417 1.766 . S
N726 C1036 1.766 . S
N756 C1066 1.767 . S
C1006 N786 1.766 . S
C976 N816 1.766 . S
N846 C916 1.766 . S
C946 N876 1.766 . S
N914 C867 1.766 . S
C897 N944 1.767 . S
N974 C837 1.767 . S
N1004 C807 1.766 . S
C747 N1034 1.766 . S
C777 N1064 1.766 . S
N14 N134 1.448 1_655 S
N164 N44 1.448 . S
N74 N104 1.448 1_545 S
N186 N306 1.449 1_455 S
N336 N216 1.449 . S
N246 N276 1.449 1_565 S
N494 N374 1.449 . S
N524 N404 1.449 . S
N464 N434 1.449 . S
N666 N546 1.449 . S
N576 N696 1.449 . S
N636 N606 1.449 . S
N854 N734 1.449 1_554 S
N764 N884 1.449 1_556 S
N794 N824 1.449 1_556 S
N1026 N906 1.449 . S
N936 N1056 1.449 . S
N966 N996 1.449 . S
C1 C190 1.997 1_455 S
C31 C220 1.997 . S
C250 C61 1.996 1_545 S
C280 C91 1.998 1_565 S
C121 C310 1.998 1_655 S
C151 C340 1.998 . S
C550 C361 1.998 . S
C391 C580 1.998 . S
C610 C421 1.998 . S
C640 C451 1.998 . S
C670 C481 1.998 . S
C700 C511 1.998 . S
C910 C721 1.998 . S
C751 C940 1.998 . S
C970 C781 1.998 . S
C1000 C811 1.998 . S
C1030 C841 1.998 . S
C871 C1060 1.998 . S
