# Generated by pormake.
# Topology wme, (6)-cn, num edge types: 1
# Building blocks:
#     Node 0, Type 0, BuildingBlock: PAMTUU_clean_sbu_0, # of connection points: 6
#     Node 1, Type 0, BuildingBlock: PAMTUU_clean_sbu_0, # of connection points: 6
#     Node 2, Type 0, BuildingBlock: PAMTUU_clean_sbu_0, # of connection points: 6
#     Node 3, Type 0, BuildingBlock: PAMTUU_clean_sbu_0, # of connection points: 6
#     Node 4, Type 0, BuildingBlock: PAMTUU_clean_sbu_0, # of connection points: 6
#     Node 5, Type 0, BuildingBlock: PAMTUU_clean_sbu_0, # of connection points: 6
#     Node 6, Type 0, BuildingBlock: PAMTUU_clean_sbu_0, # of connection points: 6
#     Node 7, Type 0, BuildingBlock: PAMTUU_clean_sbu_0, # of connection points: 6
#     Node 8, Type 0, BuildingBlock: PAMTUU_clean_sbu_0, # of connection points: 6
#     Node 9, Type 0, BuildingBlock: PAMTUU_clean_sbu_0, # of connection points: 6
#     Node 10, Type 0, BuildingBlock: PAMTUU_clean_sbu_0, # of connection points: 6
#     Node 11, Type 0, BuildingBlock: PAMTUU_clean_sbu_0, # of connection points: 6
#     Edge 12, Type (0, 0), BuildingBlock: CIFDUS_clean_linker_0, # of connection points: 2
#     Edge 13, Type (0, 0), BuildingBlock: CIFDUS_clean_linker_0, # of connection points: 2
#     Edge 14, Type (0, 0), BuildingBlock: CIFDUS_clean_linker_0, # of connection points: 2
#     Edge 15, Type (0, 0), BuildingBlock: CIFDUS_clean_linker_0, # of connection points: 2
#     Edge 16, Type (0, 0), BuildingBlock: CIFDUS_clean_linker_0, # of connection points: 2
#     Edge 17, Type (0, 0), BuildingBlock: CIFDUS_clean_linker_0, # of connection points: 2
#     Edge 18, Type (0, 0), BuildingBlock: CIFDUS_clean_linker_0, # of connection points: 2
#     Edge 19, Type (0, 0), BuildingBlock: CIFDUS_clean_linker_0, # of connection points: 2
#     Edge 20, Type (0, 0), BuildingBlock: CIFDUS_clean_linker_0, # of connection points: 2
#     Edge 21, Type (0, 0), BuildingBlock: CIFDUS_clean_linker_0, # of connection points: 2
#     Edge 22, Type (0, 0), BuildingBlock: CIFDUS_clean_linker_0, # of connection points: 2
#     Edge 23, Type (0, 0), BuildingBlock: CIFDUS_clean_linker_0, # of connection points: 2
#     Edge 24, Type (0, 0), BuildingBlock: CIFDUS_clean_linker_0, # of connection points: 2
#     Edge 25, Type (0, 0), BuildingBlock: CIFDUS_clean_linker_0, # of connection points: 2
#     Edge 26, Type (0, 0), BuildingBlock: CIFDUS_clean_linker_0, # of connection points: 2
#     Edge 27, Type (0, 0), BuildingBlock: CIFDUS_clean_linker_0, # of connection points: 2
#     Edge 28, Type (0, 0), BuildingBlock: CIFDUS_clean_linker_0, # of connection points: 2
#     Edge 29, Type (0, 0), BuildingBlock: CIFDUS_clean_linker_0, # of connection points: 2
#     Edge 30, Type (0, 0), BuildingBlock: CIFDUS_clean_linker_0, # of connection points: 2
#     Edge 31, Type (0, 0), BuildingBlock: CIFDUS_clean_linker_0, # of connection points: 2
#     Edge 32, Type (0, 0), BuildingBlock: CIFDUS_clean_linker_0, # of connection points: 2
#     Edge 33, Type (0, 0), BuildingBlock: CIFDUS_clean_linker_0, # of connection points: 2
#     Edge 34, Type (0, 0), BuildingBlock: CIFDUS_clean_linker_0, # of connection points: 2
#     Edge 35, Type (0, 0), BuildingBlock: CIFDUS_clean_linker_0, # of connection points: 2
#     Edge 36, Type (0, 0), BuildingBlock: CIFDUS_clean_linker_0, # of connection points: 2
#     Edge 37, Type (0, 0), BuildingBlock: CIFDUS_clean_linker_0, # of connection points: 2
#     Edge 38, Type (0, 0), BuildingBlock: CIFDUS_clean_linker_0, # of connection points: 2
#     Edge 39, Type (0, 0), BuildingBlock: CIFDUS_clean_linker_0, # of connection points: 2
#     Edge 40, Type (0, 0), BuildingBlock: CIFDUS_clean_linker_0, # of connection points: 2
#     Edge 41, Type (0, 0), BuildingBlock: CIFDUS_clean_linker_0, # of connection points: 2
#     Edge 42, Type (0, 0), BuildingBlock: CIFDUS_clean_linker_0, # of connection points: 2
#     Edge 43, Type (0, 0), BuildingBlock: CIFDUS_clean_linker_0, # of connection points: 2
#     Edge 44, Type (0, 0), BuildingBlock: CIFDUS_clean_linker_0, # of connection points: 2
#     Edge 45, Type (0, 0), BuildingBlock: CIFDUS_clean_linker_0, # of connection points: 2
#     Edge 46, Type (0, 0), BuildingBlock: CIFDUS_clean_linker_0, # of connection points: 2
#     Edge 47, Type (0, 0), BuildingBlock: CIFDUS_clean_linker_0, # of connection points: 2
# Relax obj value: 0.091
# Max RMSD: 0.210
# Mean RMSD: 0.210
data_MOF--net-wme--node1-PAMTUU_clean_sbu_0--edge1-CIFDUS_clean_linker_0
_symmetry_space_group_name_H-M    P1
_symmetry_Int_Tables_number       1
_symmetry_cell_setting            triclinic
loop_
_symmetry_equiv_pos_as_xyz
'x, y, z'
_cell_length_a     36.114667
_cell_length_b     36.124425
_cell_length_c     46.027106
_cell_angle_alpha  90.116382
_cell_angle_beta   89.922324
_cell_angle_gamma 120.30524
loop_
_atom_site_label
_atom_site_type_symbol
_atom_site_fract_x
_atom_site_fract_y
_atom_site_fract_z
_atom_type_partial_charge
Tb0 Tb 0.26109 0.32897 0.12644 0.0
Tb1 Tb 0.21664 0.38294 0.09809 0.0
C2 C 0.22495 0.37502 0.16608 0.0
C3 C 0.27247 0.23485 0.14456 0.0
C4 C 0.23795 0.14505 0.14342 0.0
C5 C 0.28205 0.17327 0.13898 0.0
C6 C 0.29909 0.21767 0.13957 0.0
C7 C 0.22848 0.2069 0.14954 0.0
C8 C 0.21142 0.16236 0.14919 0.0
C9 C 0.29055 0.28154 0.14178 0.0
O10 O 0.19592 0.28069 0.11349 0.0
O11 O 0.16344 0.32161 0.1104 0.0
O12 O 0.22299 0.34355 0.06431 0.0
O13 O 0.28439 0.35271 0.08344 0.0
O14 O 0.1662 0.39581 0.09624 0.0
O15 O 0.21938 0.42625 0.06642 0.0
O16 O 0.2839 0.42988 0.10443 0.0
O17 O 0.31087 0.39589 0.13314 0.0
O18 O 0.23197 0.34294 0.16266 0.0
O19 O 0.22331 0.39784 0.14436 0.0
C20 C 0.16165 0.28458 0.11197 0.0
O21 O 0.29204 0.29494 0.11537 0.0
O22 O 0.27723 0.30002 0.16 0.0
C23 C 0.25778 0.34092 0.06171 0.0
C24 C 0.18723 0.46603 0.08208 0.0
C25 C 0.1883 0.54307 0.09514 0.0
C26 C 0.16058 0.51491 0.0737 0.0
C27 C 0.16009 0.47677 0.06726 0.0
C28 C 0.21499 0.4939 0.10348 0.0
C29 C 0.21558 0.53211 0.10991 0.0
C30 C 0.18464 0.42473 0.07609 0.0
C31 C 0.31411 0.43034 0.12069 0.0
H32 H 0.30342 0.16099 0.13484 0.0
H33 H 0.33302 0.23865 0.13547 0.0
H34 H 0.2072 0.21946 0.15301 0.0
H35 H 0.17728 0.14147 0.15247 0.0
H36 H 0.13962 0.52259 0.06162 0.0
H37 H 0.13829 0.45552 0.05078 0.0
H38 H 0.23585 0.48588 0.11538 0.0
H39 H 0.23699 0.55277 0.12675 0.0
Tb40 Tb 0.96704 0.26279 0.63853 0.0
Tb41 Tb 0.87358 0.22823 0.60609 0.0
C42 C 0.88508 0.2482 0.67395 0.0
C43 C 0.0718 0.27053 0.65234 0.0
C44 C 0.13453 0.24879 0.63784 0.0
C45 C 0.14653 0.29112 0.64548 0.0
C46 C 0.11545 0.30183 0.65273 0.0
C47 C 0.05963 0.22823 0.64455 0.0
C48 C 0.09073 0.21742 0.63754 0.0
C49 C 0.03948 0.28276 0.65934 0.0
O50 O 0.94033 0.19502 0.62648 0.0
O51 O 0.87044 0.17632 0.63097 0.0
O52 O 0.91716 0.22464 0.57416 0.0
O53 O 0.97873 0.27932 0.59335 0.0
O54 O 0.8117 0.17735 0.59609 0.0
O55 O 0.83524 0.23975 0.57742 0.0
O56 O 0.9074 0.29747 0.60421 0.0
O57 O 0.95628 0.31724 0.64159 0.0
O58 O 0.92326 0.25203 0.67375 0.0
O59 O 0.86205 0.24256 0.65034 0.0
C60 C 0.89996 0.1656 0.63068 0.0
O61 O 1.03374 0.30535 0.63974 0.0
O62 O 1.00313 0.25274 0.66994 0.0
C63 C 0.95807 0.25395 0.57167 0.0
C64 C 0.76062 0.19966 0.58754 0.0
C65 C 0.68131 0.19571 0.59805 0.0
C66 C 0.69028 0.16575 0.61084 0.0
C67 C 0.72951 0.1677 0.60566 0.0
C68 C 0.75136 0.2292 0.57451 0.0
C69 C 0.71233 0.22735 0.57976 0.0
C70 C 0.80194 0.20174 0.58108 0.0
C71 C 0.93315 0.32555 0.62343 0.0
H72 H 0.18003 0.31591 0.64616 0.0
H73 H 0.12551 0.33465 0.65857 0.0
H74 H 1.02609 0.20353 0.64372 0.0
H75 H 0.08047 0.18466 0.63143 0.0
H76 H 0.66722 0.14113 0.62517 0.0
H77 H 0.73537 0.14414 0.61585 0.0
H78 H 0.77429 0.25375 0.56007 0.0
H79 H 0.70622 0.25047 0.56913 0.0
Tb80 Tb 0.73651 0.94832 0.1333 0.0
Tb81 Tb 0.68293 0.85161 0.10411 0.0
C82 C 0.68145 0.86886 0.17154 0.0
C83 C 0.83205 0.0511 0.15014 0.0
C84 C 0.92209 0.10258 0.14491 0.0
C85 C 0.90137 0.10186 0.171 0.0
C86 C 0.85671 0.0764 0.17355 0.0
C87 C 0.85274 0.05139 0.12419 0.0
C88 C 0.89723 0.07706 0.12154 0.0
C89 C 0.78536 1.0223 0.1535 0.0
O90 O 0.77197 0.91531 0.14089 0.0
O91 O 0.7506 0.87193 0.10097 0.0
O92 O 0.70066 0.89781 0.06873 0.0
O93 O 0.76055 0.95317 0.08959 0.0
O94 O 0.6767 0.79085 0.09986 0.0
O95 O 0.63369 0.80595 0.07736 0.0
O96 O 0.63476 0.86692 0.11802 0.0
O97 O 0.6755 0.94067 0.11836 0.0
O98 O 0.69151 0.90856 0.16636 0.0
O99 O 0.68358 0.84436 0.15115 0.0
C100 C 0.7776 0.89092 0.1224 0.0
O101 O 0.76218 1.01489 0.13013 0.0
O102 O 0.77405 0.98718 0.16792 0.0
C103 C 0.7362 0.93529 0.06685 0.0
C104 C 0.60525 0.73334 0.09295 0.0
C105 C 0.53633 0.64993 0.1059 0.0
C106 C 0.52896 0.68012 0.09168 0.0
C107 C 0.56296 0.72123 0.08525 0.0
C108 C 0.61263 0.7033 0.10732 0.0
C109 C 0.57862 0.66221 0.11379 0.0
C110 C 0.64187 0.7758 0.08435 0.0
C111 C 0.638 0.90484 0.11726 0.0
H112 H 0.91961 0.12144 0.18931 0.0
H113 H 0.84145 0.07622 0.19388 0.0
H114 H 0.83459 0.03145 0.10601 0.0
H115 H 0.91226 0.0765 0.10129 0.0
H116 H 0.49699 0.67166 0.08476 0.0
H117 H 0.55613 0.74325 0.07376 0.0
H118 H 0.64485 0.71133 0.11328 0.0
H119 H 0.58553 0.64004 0.12498 0.0
Tb120 Tb 0.81664 0.73418 0.63859 0.0
Tb121 Tb 0.8553 0.6775 0.60809 0.0
C122 C 0.83802 0.673 0.67564 0.0
C123 C 0.81534 0.83392 0.65525 0.0
C124 C 0.85069 0.92354 0.6491 0.0
C125 C 0.81793 0.90002 0.66949 0.0
C126 C 0.80049 0.85571 0.67251 0.0
C127 C 0.84828 0.85715 0.63507 0.0
C128 C 0.86585 0.90153 0.63206 0.0
C129 C 0.79689 0.78725 0.65881 0.0
O130 O 0.88136 0.7777 0.62239 0.0
O131 O 0.90703 0.7327 0.6293 0.0
O132 O 0.85043 0.71836 0.57463 0.0
O133 O 0.79317 0.71874 0.59492 0.0
O134 O 0.90849 0.6692 0.60242 0.0
O135 O 0.85035 0.63101 0.57823 0.0
O136 O 0.78668 0.63393 0.61132 0.0
O137 O 0.76253 0.66837 0.64216 0.0
O138 O 0.83352 0.70688 0.67437 0.0
O139 O 0.84239 0.65396 0.65255 0.0
C140 C 0.91369 0.77156 0.62682 0.0
O141 O 0.77933 0.76377 0.63583 0.0
O142 O 0.82101 0.7756 0.6723 0.0
C143 C 0.81743 0.72434 0.57246 0.0
C144 C 0.89 0.59796 0.59254 0.0
C145 C 0.89497 0.52413 0.60569 0.0
C146 C 0.92859 0.55884 0.59086 0.0
C147 C 0.92603 0.59534 0.58429 0.0
C148 C 0.85693 0.56396 0.60814 0.0
C149 C 0.85931 0.52733 0.61452 0.0
C150 C 0.88784 0.63659 0.58512 0.0
C151 C 0.75667 0.63423 0.62749 0.0
H152 H 0.8059 0.91592 0.6833 0.0
H153 H 0.77537 0.83845 0.68837 0.0
H154 H 0.86023 0.84091 0.62152 0.0
H155 H 0.89068 0.91843 0.61597 0.0
H156 H 0.95624 0.55722 0.58351 0.0
H157 H 0.95205 0.6214 0.57244 0.0
H158 H 0.82911 0.56554 0.61516 0.0
H159 H 0.83309 0.50133 0.62625 0.0
Tb160 Tb 0.11875 0.80535 0.13192 0.0
Tb161 Tb 0.21249 0.8421 0.09959 0.0
C162 C 0.20063 0.83399 0.16809 0.0
C163 C 1.01225 0.79152 0.14654 0.0
C164 C 0.94902 0.81316 0.1339 0.0
C165 C 0.95274 0.80025 0.16206 0.0
C166 C 0.984 0.78935 0.16828 0.0
C167 C 1.00898 0.80498 0.11852 0.0
C168 C 0.97745 0.81534 0.1122 0.0
C169 C 0.04545 0.7805 0.15323 0.0
O170 O 0.15299 0.87563 0.13389 0.0
O171 O 0.19358 0.88951 0.09286 0.0
O172 O 0.16252 0.80879 0.0665 0.0
O173 O 0.11072 0.81857 0.08764 0.0
O174 O 0.27533 0.89343 0.09336 0.0
O175 O 0.25271 0.8334 0.07085 0.0
O176 O 0.19751 0.78135 0.11827 0.0
O177 O 0.1242 0.7497 0.11889 0.0
O178 O 0.16032 0.80419 0.16495 0.0
O179 O 0.22384 0.85754 0.14602 0.0
C180 C 0.17705 0.90212 0.11327 0.0
O181 O 0.05301 0.75997 0.13292 0.0
O182 O 0.08088 0.81115 0.16444 0.0
C183 C 0.12529 0.80723 0.06543 0.0
C184 C 0.32585 0.87177 0.08414 0.0
C185 C 0.4031 0.87323 0.09709 0.0
C186 C 0.40194 0.90018 0.07551 0.0
C187 C 0.36366 0.89939 0.06911 0.0
C188 C 0.32684 0.84526 0.106 0.0
C189 C 0.36509 0.84592 0.11238 0.0
C190 C 0.28576 0.87092 0.07669 0.0
C191 C 0.1593 0.74697 0.11843 0.0
H192 H 0.93111 0.79806 0.17917 0.0
H193 H 0.98616 0.77927 0.19006 0.0
H194 H 1.03089 0.80764 0.1015 0.0
H195 H 0.97574 0.82572 0.09043 0.0
H196 H 0.43039 0.92118 0.06307 0.0
H197 H 0.3635 0.92011 0.05218 0.0
H198 H 0.29801 0.82392 0.11801 0.0
H199 H 0.36493 0.82513 0.12936 0.0
Tb200 Tb 0.3444 0.11013 0.63188 0.0
Tb201 Tb 0.39659 0.20634 0.60159 0.0
C202 C 0.39688 0.19105 0.66941 0.0
C203 C 0.25313 1.00187 0.64865 0.0
C204 C 0.16604 0.93702 0.64218 0.0
C205 C 0.17712 0.9748 0.65771 0.0
C206 C 0.22016 1.00688 0.66091 0.0
C207 C 0.24203 0.96435 0.63294 0.0
C208 C 0.19908 0.93243 0.62962 0.0
C209 C 0.29896 0.03533 0.65173 0.0
O210 O 0.30598 0.14064 0.63807 0.0
O211 O 0.3291 0.1865 0.59912 0.0
O212 O 0.37791 0.15854 0.56666 0.0
O213 O 0.31866 0.10473 0.58902 0.0
O214 O 0.40564 0.26849 0.59832 0.0
O215 O 0.44415 0.25009 0.57318 0.0
O216 O 0.44504 0.19277 0.61718 0.0
O217 O 0.40575 0.11922 0.61614 0.0
O218 O 0.38823 0.15165 0.6648 0.0
O219 O 0.39443 0.21456 0.6485 0.0
C220 C 0.30122 0.16602 0.61991 0.0
O221 O 0.32237 0.04422 0.62833 0.0
O222 O 0.30768 0.06996 0.66615 0.0
C223 C 0.34245 0.12078 0.56591 0.0
C224 C 0.47769 0.32183 0.59017 0.0
C225 C 0.55278 0.39925 0.60559 0.0
C226 C 0.52043 0.39983 0.58893 0.0
C227 C 0.48332 0.36148 0.58125 0.0
C228 C 0.50927 0.3211 0.60751 0.0
C229 C 0.54648 0.35939 0.61505 0.0
C230 C 0.43879 0.28169 0.58133 0.0
C231 C 0.44288 0.15542 0.61596 0.0
H232 H 0.1526 0.97923 0.66793 0.0
H233 H 0.22752 0.03544 0.67313 0.0
H234 H 0.26667 0.95967 0.62313 0.0
H235 H 0.19177 0.90413 0.6171 0.0
H236 H 0.5244 0.42985 0.58104 0.0
H237 H 0.45921 0.36275 0.568 0.0
H238 H 0.50537 0.29091 0.61498 0.0
H239 H 0.57048 0.35777 0.62819 0.0
Tb240 Tb 0.73484 0.80563 0.37871 0.0
Tb241 Tb 0.68018 0.84538 0.40981 0.0
C242 C 0.68443 0.83655 0.34139 0.0
C243 C 0.82692 0.79019 0.36383 0.0
C244 C 0.91243 0.81157 0.37533 0.0
C245 C 0.88078 0.76907 0.3688 0.0
C246 C 0.8385 0.75854 0.36306 0.0
C247 C 0.85835 0.83267 0.37042 0.0
C248 C 0.90074 0.8433 0.37592 0.0
C249 C 0.78177 0.77812 0.35894 0.0
O250 O 0.77263 0.87578 0.37511 0.0
O251 O 0.74727 0.89286 0.41553 0.0
O252 O 0.69537 0.81129 0.44282 0.0
O253 O 0.75771 0.82248 0.42258 0.0
O254 O 0.66937 0.89692 0.4157 0.0
O255 O 0.63215 0.83769 0.43913 0.0
O256 O 0.63292 0.7861 0.38982 0.0
O257 O 0.6711 0.75102 0.39025 0.0
O258 O 0.69437 0.80654 0.34468 0.0
O259 O 0.68466 0.8602 0.36334 0.0
C260 C 0.77611 0.90367 0.39498 0.0
O261 O 0.75628 0.76133 0.38118 0.0
O262 O 0.77519 0.80613 0.3456 0.0
C263 C 0.73187 0.81153 0.44479 0.0
C264 C 0.59618 0.875 0.42551 0.0
C265 C 0.5197 0.87619 0.41377 0.0
C266 C 0.55881 0.90669 0.4011 0.0
C267 C 0.59661 0.90612 0.40691 0.0
C268 C 0.55718 0.84493 0.43845 0.0
C269 C 0.51944 0.84541 0.43259 0.0
C270 C 0.6362 0.87463 0.43242 0.0
C271 C 0.6343 0.75056 0.38907 0.0
H272 H 0.88878 0.74395 0.3679 0.0
H273 H 0.81473 0.72556 0.35819 0.0
H274 H 0.85006 0.85759 0.37155 0.0
H275 H 0.9242 0.8762 0.38122 0.0
H276 H 0.56012 0.93067 0.38638 0.0
H277 H 0.62616 0.93012 0.39681 0.0
H278 H 0.5558 0.82101 0.45328 0.0
H279 H 0.49008 0.82194 0.44316 0.0
Tb280 Tb 0.9459 0.71036 0.87898 0.0
Tb281 Tb 0.85265 0.65635 0.91262 0.0
C282 C 0.86292 0.65715 0.84404 0.0
C283 C 0.05283 0.80189 0.86313 0.0
C284 C 0.11692 0.88727 0.8752 0.0
C285 C 0.11279 0.86999 0.84715 0.0
C286 C 0.08109 0.82756 0.84121 0.0
C287 C 0.05655 0.8193 0.89103 0.0
C288 C 0.08848 0.86142 0.89707 0.0
C289 C 1.019 0.75744 0.8568 0.0
O290 O 0.91268 0.74694 0.87609 0.0
O291 O 0.87326 0.72364 0.91788 0.0
O292 O 0.90282 0.67423 0.94559 0.0
O293 O 0.95559 0.73396 0.92282 0.0
O294 O 0.79056 0.64635 0.91888 0.0
O295 O 0.81176 0.60849 0.94192 0.0
O296 O 0.86545 0.6086 0.89465 0.0
O297 O 0.93891 0.64894 0.89253 0.0
O298 O 0.90279 0.6664 0.8468 0.0
O299 O 0.841 0.65948 0.8662 0.0
C300 C 0.88998 0.75152 0.89668 0.0
O301 O 1.01123 0.72963 0.87733 0.0
O302 O 0.98365 0.75279 0.84578 0.0
C303 C 0.94068 0.70955 0.94576 0.0
C304 C 0.73885 0.57424 0.92822 0.0
C305 C 0.66107 0.49849 0.91476 0.0
C306 C 0.6627 0.5262 0.93692 0.0
C307 C 0.70125 0.56367 0.94358 0.0
C308 C 0.73736 0.54718 0.90578 0.0
C309 C 0.69887 0.50963 0.89915 0.0
C310 C 0.77929 0.61347 0.93579 0.0
C311 C 0.90311 0.61148 0.89363 0.0
H312 H 0.13441 0.88914 0.82991 0.0
H313 H 0.07857 0.81482 0.81951 0.0
H314 H 1.03463 0.80041 0.90817 0.0
H315 H 0.09048 0.87401 0.91875 0.0
H316 H 0.63441 0.51842 0.9496 0.0
H317 H 0.70178 0.58424 0.96094 0.0
H318 H 0.76602 0.55498 0.8935 0.0
H319 H 0.6987 0.48936 0.88172 0.0
Tb320 Tb 0.26318 0.9527 0.37577 0.0
Tb321 Tb 0.22092 0.85634 0.40599 0.0
C322 C 0.23661 0.87222 0.33785 0.0
C323 C 0.27913 0.0603 0.36309 0.0
C324 C 0.25509 0.12206 0.37507 0.0
C325 C 0.2699 0.11937 0.34729 0.0
C326 C 0.28202 0.08886 0.3414 0.0
C327 C 0.26364 0.06249 0.39069 0.0
C328 C 0.25215 0.0933 0.3967 0.0
C329 C 0.29121 0.02769 0.35669 0.0
O330 O 0.19373 0.92022 0.37006 0.0
O331 O 0.17178 0.874 0.40878 0.0
O332 O 0.25012 0.90424 0.44083 0.0
O333 O 0.24369 0.95754 0.41906 0.0
O334 O 0.1691 0.79313 0.40943 0.0
O335 O 0.22623 0.81442 0.43504 0.0
O336 O 0.28341 0.87161 0.39003 0.0
O337 O 0.31651 0.94507 0.39092 0.0
O338 O 0.26594 0.9125 0.34211 0.0
O339 O 0.21142 0.84778 0.35895 0.0
C340 C 0.16376 0.89425 0.38829 0.0
O341 O 0.30883 1.01831 0.37799 0.0
O342 O 0.26238 0.99332 0.3433 0.0
C343 C 0.25193 0.94157 0.44189 0.0
C344 C 0.18925 0.74176 0.42013 0.0
C345 C 0.18878 0.66463 0.40791 0.0
C346 C 0.21717 0.70294 0.3933 0.0
C347 C 0.21735 0.74111 0.39932 0.0
C348 C 0.16059 0.70367 0.43448 0.0
C349 C 0.1603 0.6655 0.42845 0.0
C350 C 0.18949 0.78175 0.42731 0.0
C351 C 0.31827 0.90948 0.39116 0.0
H352 H 0.27266 0.14124 0.33024 0.0
H353 H 0.29356 0.0875 0.31991 0.0
H354 H 0.2602 0.04025 0.40761 0.0
H355 H 0.24029 0.0942 0.41817 0.0
H356 H 0.23918 0.70342 0.3771 0.0
H357 H 0.23956 0.77015 0.38785 0.0
H358 H 0.13864 0.70352 0.45062 0.0
H359 H 0.13841 0.63688 0.4404 0.0
Tb360 Tb 0.32741 0.23697 0.87699 0.0
Tb361 Tb 0.38159 0.19547 0.90683 0.0
C362 C 0.38503 0.21529 0.83935 0.0
C363 C 0.23053 0.24282 0.85975 0.0
C364 C 0.14034 0.20605 0.86428 0.0
C365 C 0.15882 0.20009 0.8391 0.0
C366 C 0.20337 0.21842 0.83681 0.0
C367 C 0.21203 0.2488 0.88494 0.0
C368 C 0.16753 0.23065 0.88717 0.0
C369 C 0.27769 0.261 0.85746 0.0
O370 O 0.29337 0.1683 0.86864 0.0
O371 O 0.31407 0.14673 0.90896 0.0
O372 O 0.3643 0.22571 0.94144 0.0
O373 O 0.303 0.21573 0.92029 0.0
O374 O 0.38995 0.14206 0.90999 0.0
O375 O 0.42916 0.19923 0.93502 0.0
O376 O 0.4295 0.25922 0.89281 0.0
O377 O 0.38828 0.29138 0.89211 0.0
O378 O 0.37306 0.24357 0.84412 0.0
O379 O 0.38318 0.18886 0.85974 0.0
C380 C 0.28774 0.13821 0.88705 0.0
O381 O 0.30015 0.27619 0.88121 0.0
O382 O 0.29032 0.23871 0.84244 0.0
C383 C 0.3282 0.22631 0.94289 0.0
C384 C 0.46157 0.16018 0.91812 0.0
C385 C 0.53553 0.15656 0.90255 0.0
C386 C 0.52982 0.19028 0.89272 0.0
C387 C 0.49315 0.19199 0.90033 0.0
C388 C 0.46657 0.12597 0.92737 0.0
C389 C 0.50313 0.12409 0.91962 0.0
C390 C 0.42316 0.16196 0.92695 0.0
C391 C 0.42595 0.29369 0.89342 0.0
H392 H 0.13889 0.18189 0.82091 0.0
H393 H 0.21657 0.21342 0.81703 0.0
H394 H 0.23184 0.26737 0.90307 0.0
H395 H 0.15435 0.2356 0.90697 0.0
H396 H 0.5539 0.21555 0.87925 0.0
H397 H 0.48968 0.21839 0.89258 0.0
H398 H 0.4424 0.10093 0.94094 0.0
H399 H 0.50668 0.09795 0.92779 0.0
Tb400 Tb 0.11485 0.33077 0.37338 0.0
Tb401 Tb 0.21094 0.38461 0.4042 0.0
C402 C 0.19621 0.384 0.3362 0.0
C403 C 1.01019 0.23674 0.35507 0.0
C404 C 0.95298 0.14726 0.35922 0.0
C405 C 0.95169 0.17056 0.33512 0.0
C406 C 0.97999 0.21487 0.33311 0.0
C407 C 1.01178 0.21362 0.37908 0.0
C408 C 0.98335 0.16941 0.3812 0.0
C409 C 0.04096 0.28316 0.3523 0.0
O410 O 0.14765 0.29474 0.36691 0.0
O411 O 0.19083 0.31695 0.40703 0.0
O412 O 0.16276 0.36573 0.43859 0.0
O413 O 0.10845 0.30592 0.41689 0.0
O414 O 0.27198 0.3919 0.40979 0.0
O415 O 0.25467 0.43339 0.43222 0.0
O416 O 0.19649 0.43278 0.38894 0.0
O417 O 0.12274 0.39214 0.38803 0.0
O418 O 0.15659 0.37503 0.34053 0.0
O419 O 0.21998 0.38263 0.35741 0.0
C420 C 0.1723 0.28979 0.38554 0.0
O421 O 0.04832 0.30604 0.37583 0.0
O422 O 0.0764 0.2933 0.33856 0.0
C423 C 0.12544 0.32987 0.43992 0.0
C424 C 0.32854 0.46163 0.42137 0.0
C425 C 0.4137 0.52932 0.41176 0.0
C426 C 0.4011 0.50896 0.43898 0.0
C427 C 0.35906 0.47556 0.44368 0.0
C428 C 0.34059 0.48187 0.39417 0.0
C429 C 0.38276 0.51547 0.38943 0.0
C430 C 0.2851 0.42494 0.4269 0.0
C431 C 0.15859 0.42965 0.38915 0.0
H432 H 0.92846 0.15461 0.31794 0.0
H433 H 0.97841 0.23205 0.31433 0.0
H434 H 1.03523 0.2297 0.39612 0.0
H435 H 0.98563 0.15243 0.39985 0.0
H436 H 0.42363 0.51915 0.45685 0.0
H437 H 0.35043 0.46038 0.46483 0.0
H438 H 0.31754 0.47144 0.37659 0.0
H439 H 0.39131 0.53012 0.36813 0.0
Tb440 Tb 0.80015 0.08885 0.86699 0.0
Tb441 Tb 0.83595 0.18385 0.89832 0.0
C442 C 0.81454 0.1704 0.83098 0.0
C443 C 0.79609 0.98623 0.85016 0.0
C444 C 0.82783 0.92951 0.85756 0.0
C445 C 0.80666 0.92909 0.83179 0.0
C446 C 0.79096 0.95716 0.82816 0.0
C447 C 0.81704 0.98679 0.87599 0.0
C448 C 0.83259 0.95855 0.87972 0.0
C449 C 0.78122 1.01698 0.84529 0.0
O450 O 0.86676 0.1136 0.88094 0.0
O451 O 0.88799 0.18397 0.87545 0.0
O452 O 0.83724 0.13996 0.93092 0.0
O453 O 0.78257 0.07794 0.91202 0.0
O454 O 0.88698 0.24689 0.90417 0.0
O455 O 0.82922 0.22291 0.92936 0.0
O456 O 0.76688 0.15385 0.89833 0.0
O457 O 0.74465 0.09823 0.86514 0.0
O458 O 0.81157 0.13262 0.83164 0.0
O459 O 0.82027 0.19401 0.8543 0.0
C460 C 0.89737 0.15369 0.87788 0.0
O461 O 0.75995 1.02182 0.86642 0.0
O462 O 0.80956 0.05371 0.83429 0.0
C463 C 0.80761 0.09922 0.93369 0.0
C464 C 0.86604 0.29658 0.9173 0.0
C465 C 0.86798 0.37465 0.90705 0.0
C466 C 0.83959 0.33728 0.89151 0.0
C467 C 0.8387 0.2986 0.89655 0.0
C468 C 0.89453 0.33369 0.93268 0.0
C469 C 0.89554 0.37237 0.92762 0.0
C470 C 0.86595 0.2564 0.92279 0.0
C471 C 0.73754 0.12428 0.88138 0.0
H472 H 0.80192 0.9068 0.81445 0.0
H473 H 0.77504 0.95636 0.80803 0.0
H474 H 0.82174 1.00935 0.89315 0.0
H475 H 0.8491 0.96003 0.8997 0.0
H476 H 0.81827 0.33799 0.87528 0.0
H477 H 0.81671 0.27031 0.88426 0.0
H478 H 0.91596 0.33273 0.94873 0.0
H479 H 0.91736 0.4003 0.94025 0.0
H480 H 0.15311 0.94307 0.15302 0.0
H481 H 0.22734 0.96466 0.07468 0.0
H482 H 0.25158 0.04077 0.07689 0.0
H483 H 0.25429 0.10203 0.10173 0.0
H484 H 0.18048 0.08199 0.1798 0.0
H485 H 0.15326 1.0047 0.17683 0.0
C486 C 0.17432 0.96435 0.13631 0.0
C487 C 0.18847 0.94789 0.11382 0.0
C488 C 0.18842 1.00855 0.13768 0.0
C489 C 0.21591 0.97614 0.09234 0.0
C490 C 0.22995 1.01987 0.09357 0.0
C491 C 0.23239 0.08077 0.11818 0.0
C492 C 0.21984 0.09784 0.14113 0.0
C493 C 0.2169 0.03651 0.11631 0.0
C494 C 0.19062 0.0697 0.16189 0.0
C495 C 0.17518 0.02551 0.16025 0.0
H496 H 0.29181 0.23037 0.59728 0.0
H497 H 0.22885 0.11868 0.65233 0.0
H498 H 0.17099 0.13348 0.66184 0.0
H499 H 0.13975 0.1799 0.65621 0.0
H500 H 0.20386 0.2926 0.60229 0.0
H501 H 0.25983 0.27577 0.5908 0.0
C502 C 0.26523 0.20899 0.61113 0.0
C503 C 0.26473 0.17344 0.62404 0.0
C504 C 0.23241 0.21808 0.61692 0.0
C505 C 0.23019 0.14635 0.64217 0.0
C506 C 0.19705 0.1548 0.64764 0.0
C507 C 0.16575 0.20051 0.64171 0.0
C508 C 0.16769 0.23752 0.6302 0.0
C509 C 0.19805 0.19082 0.63539 0.0
C510 C 0.20189 0.26421 0.61173 0.0
C511 C 0.23381 0.2545 0.60504 0.0
H512 H 0.96513 0.15426 0.0995 0.0
H513 H 0.98502 0.11413 0.18333 0.0
H514 H 0.06246 0.16316 0.17892 0.0
H515 H 0.12415 0.22167 0.15255 0.0
H516 H 0.10231 0.26425 0.07036 0.0
H517 H 1.02636 0.20936 0.0723 0.0
C518 C 0.98646 0.15575 0.11661 0.0
C519 C 0.96932 0.13069 0.14173 0.0
C520 C 1.03074 0.18435 0.11409 0.0
C521 C 0.99738 0.1335 0.16393 0.0
C522 C 0.04167 0.16136 0.16134 0.0
C523 C 0.10279 0.218 0.13482 0.0
C524 C 0.11856 0.24633 0.11115 0.0
C525 C 0.05871 0.18745 0.1367 0.0
C526 C 0.09067 0.24231 0.08859 0.0
C527 C 0.04727 0.21121 0.08981 0.0
H528 H 0.80565 0.96509 0.64835 0.0
H529 H 0.93446 0.98779 0.64057 0.0
H530 H 0.96178 0.06465 0.63409 0.0
H531 H 0.94872 0.12603 0.63093 0.0
H532 H 0.81866 0.1005 0.63951 0.0
H533 H 0.79277 1.02485 0.64573 0.0
C534 C 0.83981 0.98681 0.6456 0.0
C535 C 0.86786 0.97051 0.64515 0.0
C536 C 0.85527 0.03083 0.64202 0.0
C537 C 0.91196 0.99927 0.64081 0.0
C538 C 0.92767 0.04333 0.63724 0.0
C539 C 0.91478 0.1039 0.6342 0.0
C540 C 0.88591 0.11942 0.63472 0.0
C541 C 0.89959 0.05961 0.63782 0.0
C542 C 0.84193 0.08999 0.63898 0.0
C543 C 0.82685 0.04641 0.64255 0.0
H544 H 0.92918 0.86484 0.16496 0.0
H545 H 0.89456 0.78716 0.08747 0.0
H546 H 0.83939 0.80534 0.07639 0.0
H547 H 0.79981 0.84204 0.08941 0.0
H548 H 0.83563 0.92057 0.16675 0.0
H549 H 0.89135 0.90338 0.17709 0.0
C550 C 0.90937 0.85174 0.14574 0.0
C551 C 0.91576 0.82452 0.12716 0.0
C552 C 0.87794 0.86254 0.13942 0.0
C553 C 0.89038 0.80836 0.10205 0.0
C554 C 0.85876 0.81864 0.09575 0.0
C555 C 0.81994 0.85559 0.10844 0.0
C556 C 0.81326 0.88243 0.12729 0.0
C557 C 0.85213 0.8456 0.11434 0.0
C558 C 0.83985 0.89977 0.15182 0.0
C559 C 0.87176 0.88989 0.15784 0.0
H560 H 0.9856 0.76735 0.6354 0.0
H561 H 0.94252 0.85806 0.62307 0.0
H562 H 1.01674 0.91742 0.62674 0.0
H563 H 0.09419 0.94331 0.63314 0.0
H564 H 0.13521 0.85109 0.64643 0.0
H565 H 0.06143 0.79264 0.64232 0.0
C566 C 0.99222 0.80006 0.6335 0.0
C567 C 0.95837 0.80812 0.62894 0.0
C568 C 1.03474 0.83384 0.63565 0.0
C569 C 0.96786 0.85084 0.62655 0.0
C570 C 1.01033 0.88481 0.62866 0.0
C571 C 0.08694 0.91044 0.63536 0.0
C572 C 0.12048 0.90177 0.63988 0.0
C573 C 0.04408 0.87668 0.63322 0.0
C574 C 0.11037 0.85886 0.6424 0.0
C575 C 0.06806 0.82532 0.64026 0.0
H576 H 0.08989 0.82966 0.41179 0.0
H577 H 0.13773 0.94067 0.35628 0.0
H578 H 0.06467 0.92574 0.34809 0.0
H579 H 0.98676 0.87975 0.35529 0.0
H580 H 0.9389 0.76788 0.40985 0.0
H581 H 1.01218 0.78441 0.41963 0.0
C582 C 0.08442 0.85083 0.3981 0.0
C583 C 0.11941 0.88629 0.38471 0.0
C584 C 0.04217 0.84171 0.3931 0.0
C585 C 0.11151 0.91308 0.36681 0.0
C586 C 0.06967 0.90457 0.3621 0.0
C587 C 0.9924 0.85923 0.36954 0.0
C588 C 0.9573 0.82254 0.38173 0.0
C589 C 1.0347 0.86878 0.37493 0.0
C590 C 0.96523 0.796 0.39987 0.0
C591 C 1.00717 0.80555 0.40559 0.0
H592 H 0.13742 0.95867 0.84371 0.0
H593 H 0.17148 0.91651 0.92155 0.0
H594 H 0.22655 0.99042 0.93264 0.0
H595 H 0.2658 0.06698 0.91979 0.0
H596 H 0.23064 0.10891 0.84213 0.0
H597 H 0.17539 0.03533 0.83151 0.0
C598 C 0.15713 0.96569 0.86299 0.0
C599 C 0.15054 0.93218 0.8817 0.0
C600 C 0.18849 1.00827 0.86934 0.0
C601 C 0.1758 0.94181 0.90688 0.0
C602 C 0.20735 0.98403 0.91319 0.0
C603 C 0.24595 0.0601 0.90061 0.0
C604 C 0.25261 0.09358 0.88179 0.0
C605 C 0.21403 1.01755 0.89456 0.0
C606 C 0.2264 0.08392 0.85705 0.0
C607 C 0.19476 0.04174 0.85087 0.0
H608 H 0.22085 0.26815 0.41924 0.0
H609 H 0.14515 0.23243 0.3407 0.0
H610 H 0.16424 0.17797 0.3305 0.0
H611 H 0.20374 0.14125 0.3431 0.0
H612 H 0.27835 0.17568 0.42189 0.0
H613 H 0.25834 0.22962 0.43275 0.0
C614 C 0.2083 0.24831 0.39998 0.0
C615 C 0.1817 0.25466 0.38077 0.0
C616 C 0.21938 0.21684 0.39417 0.0
C617 C 0.16569 0.22844 0.35594 0.0
C618 C 0.17669 0.19726 0.34998 0.0
C619 C 0.21576 0.16075 0.36256 0.0
C620 C 0.24267 0.15467 0.38157 0.0
C621 C 0.20382 0.19143 0.36878 0.0
C622 C 0.25743 0.17964 0.40697 0.0
C623 C 0.24608 0.21055 0.41315 0.0
H624 H 0.09881 0.24579 0.88457 0.0
H625 H 0.07558 0.12589 0.84818 0.0
H626 H 0.99803 0.09755 0.85042 0.0
H627 H 0.93634 0.10791 0.86169 0.0
H628 H 0.96211 0.22961 0.89671 0.0
H629 H 0.03861 0.25562 0.89655 0.0
C630 C 0.07683 0.21324 0.87748 0.0
C631 C 0.09307 0.18804 0.86632 0.0
C632 C 1.03246 0.19736 0.87861 0.0
C633 C 0.06399 0.14617 0.85666 0.0
C634 C 1.0196 0.12987 0.85806 0.0
C635 C 0.95878 0.13993 0.86948 0.0
C636 C 0.94343 0.16679 0.87904 0.0
C637 C 1.00336 0.15528 0.86883 0.0
C638 C 0.97296 0.20835 0.88892 0.0
C639 C 1.01684 0.22334 0.8889 0.0
H640 H 0.90882 0.10188 0.40698 0.0
H641 H 0.92896 0.08653 0.31641 0.0
H642 H 0.87814 1.00951 0.31976 0.0
H643 H 0.82607 0.94658 0.34816 0.0
H644 H 0.80503 0.96301 0.43842 0.0
H645 H 0.85853 0.03909 0.43555 0.0
C646 C 0.90249 0.08164 0.38804 0.0
C647 C 0.9227 0.10011 0.36148 0.0
C648 C 0.87305 0.03738 0.39008 0.0
C649 C 0.9135 0.07335 0.33705 0.0
C650 C 0.8846 0.02921 0.33899 0.0
C651 C 0.83359 0.96671 0.36728 0.0
C652 C 0.81151 0.94898 0.39347 0.0
C653 C 0.86392 1.01086 0.36535 0.0
C654 C 0.82136 0.97573 0.41795 0.0
C655 C 0.85196 1.01934 0.41634 0.0
H656 H 0.9027 0.80445 0.85076 0.0
H657 H 0.85402 0.77725 0.93854 0.0
H658 H 0.83211 0.83082 0.93462 0.0
H659 H 0.82331 0.88292 0.9055 0.0
H660 H 0.87091 0.90935 0.8175 0.0
H661 H 0.89629 0.85849 0.82224 0.0
C662 C 0.88771 0.81053 0.86915 0.0
C663 C 0.88002 0.78668 0.89489 0.0
C664 C 0.87454 0.84103 0.86663 0.0
C665 C 0.86026 0.79491 0.91841 0.0
C666 C 0.84763 0.82557 0.9162 0.0
C667 C 0.8397 0.87795 0.88747 0.0
C668 C 0.84491 0.89982 0.86112 0.0
C669 C 0.8541 0.84845 0.8903 0.0
C670 C 0.86581 0.89251 0.83788 0.0
C671 C 0.88057 0.86357 0.84063 0.0
H672 H 0.22522 0.73102 0.11894 0.0
H673 H 0.08717 0.66727 0.1131 0.0
H674 H 0.08385 0.59846 0.10609 0.0
H675 H 0.12053 0.5568 0.09995 0.0
H676 H 0.2587 0.62187 0.10482 0.0
H677 H 0.26141 0.68966 0.11414 0.0
C678 C 0.19426 0.70213 0.11632 0.0
C679 C 0.15648 0.70452 0.11648 0.0
C680 C 0.19261 0.66283 0.11205 0.0
C681 C 0.11678 0.66652 0.11312 0.0
C682 C 0.11487 0.62714 0.109 0.0
C683 C 0.15125 0.58585 0.10291 0.0
C684 C 0.18937 0.58409 0.10162 0.0
C685 C 0.15264 0.62498 0.10808 0.0
C686 C 0.22883 0.62203 0.10601 0.0
C687 C 0.23044 0.66093 0.11118 0.0
H688 H 0.60029 0.12546 0.60015 0.0
H689 H 0.66949 0.2633 0.6088 0.0
H690 H 0.60223 0.26267 0.61563 0.0
H691 H 0.52405 0.22366 0.61794 0.0
H692 H 0.45371 0.08576 0.60956 0.0
H693 H 0.52117 0.08578 0.60426 0.0
C694 C 0.60067 0.1553 0.60386 0.0
C695 C 0.64 0.19442 0.6037 0.0
C696 C 0.56168 0.15475 0.60781 0.0
C697 C 0.63976 0.23281 0.60829 0.0
C698 C 0.60128 0.23248 0.61236 0.0
C699 C 0.52327 0.19347 0.61506 0.0
C700 C 0.48365 0.15476 0.61407 0.0
C701 C 0.56207 0.19372 0.61189 0.0
C702 C 0.48361 0.11607 0.61041 0.0
C703 C 0.52223 0.11606 0.60733 0.0
H704 H 0.45503 0.62552 0.12352 0.0
H705 H 0.53619 0.57402 0.10096 0.0
H706 H 0.4759 0.50118 0.10723 0.0
H707 H 0.39802 0.45155 0.11506 0.0
H708 H 0.31689 0.50423 0.134 0.0
H709 H 0.37889 0.57672 0.13327 0.0
C710 C 0.4596 0.59842 0.11987 0.0
C711 C 0.50019 0.6055 0.11157 0.0
C712 C 0.42457 0.55656 0.1229 0.0
C713 C 0.50551 0.56978 0.10761 0.0
C714 C 0.47091 0.52797 0.11102 0.0
C715 C 0.39427 0.47895 0.11962 0.0
C716 C 0.3531 0.47268 0.12469 0.0
C717 C 0.43006 0.52088 0.11821 0.0
C718 C 0.34837 0.50839 0.13006 0.0
C719 C 0.38376 0.54985 0.12952 0.0
H720 H 0.96123 0.51375 0.62505 0.0
H721 H 0.82983 0.44313 0.59566 0.0
H722 H 0.83014 0.37611 0.59983 0.0
H723 H 0.8679 0.33771 0.6097 0.0
H724 H 0.99868 0.4057 0.64004 0.0
H725 H 0.99846 0.47366 0.63781 0.0
C726 C 0.93271 0.48363 0.61962 0.0
C727 C 0.89552 0.48353 0.61003 0.0
C728 C 0.93303 0.44485 0.62216 0.0
C729 C 0.85867 0.44419 0.60338 0.0
C730 C 0.85889 0.40582 0.6056 0.0
C731 C 0.89651 0.36739 0.61582 0.0
C732 C 0.93353 0.36678 0.62459 0.0
C733 C 0.89593 0.40584 0.61465 0.0
C734 C 0.96986 0.40536 0.63313 0.0
C735 C 0.96972 0.44417 0.63173 0.0
H736 H 0.55571 0.83802 0.11774 0.0
H737 H 0.62988 0.97604 0.1113 0.0
H738 H 0.56395 0.97856 0.10519 0.0
H739 H 0.48514 0.94137 0.10054 0.0
H740 H 0.41177 0.80332 0.10642 0.0
H741 H 0.47746 0.80122 0.11423 0.0
C742 C 0.55763 0.86877 0.11511 0.0
C743 C 0.59793 0.90679 0.11491 0.0
C744 C 0.51962 0.87001 0.11153 0.0
C745 C 0.59945 0.94623 0.11156 0.0
C746 C 0.5617 0.94771 0.108 0.0
C747 C 0.48354 0.91081 0.10341 0.0
C748 C 0.44341 0.87255 0.10287 0.0
C749 C 0.52161 0.90977 0.10772 0.0
C750 C 0.442 0.83331 0.10709 0.0
C751 C 0.47964 0.83203 0.11137 0.0
H752 H 0.7423 0.55437 0.61748 0.0
H753 H 0.67646 0.62253 0.63913 0.0
H754 H 0.60722 0.55554 0.63506 0.0
H755 H 0.56543 0.47788 0.6227 0.0
H756 H 0.63335 0.41158 0.60121 0.0
H757 H 0.70166 0.47756 0.60798 0.0
C758 C 0.71285 0.55473 0.62142 0.0
C759 C 0.7146 0.59361 0.62829 0.0
C760 C 0.67345 0.51632 0.61898 0.0
C761 C 0.67608 0.59312 0.63383 0.0
C762 C 0.63649 0.55483 0.63134 0.0
C763 C 0.59521 0.47794 0.61954 0.0
C764 C 0.5941 0.43964 0.61143 0.0
C765 C 0.63475 0.5163 0.62346 0.0
C766 C 0.63307 0.44026 0.60777 0.0
C767 C 0.67224 0.4781 0.61147 0.0
H768 H 0.3328 0.84261 0.39072 0.0
H769 H 0.39847 0.98065 0.3973 0.0
H770 H 0.46672 0.98275 0.40397 0.0
H771 H 0.50735 0.94495 0.40991 0.0
H772 H 0.44062 0.80692 0.40314 0.0
H773 H 0.37321 0.80539 0.39484 0.0
C774 C 0.36198 0.8733 0.39347 0.0
C775 C 0.36029 0.91144 0.39356 0.0
C776 C 0.401 0.87426 0.39749 0.0
C777 C 0.39866 0.95077 0.39711 0.0
C778 C 0.43775 0.95199 0.40099 0.0
C779 C 0.47815 0.91458 0.40629 0.0
C780 C 0.47913 0.87606 0.4074 0.0
C781 C 0.43927 0.91389 0.40147 0.0
C782 C 0.4408 0.83699 0.40293 0.0
C783 C 0.40221 0.83608 0.39801 0.0
H784 H 0.57897 0.48412 0.91218 0.0
H785 H 0.65208 0.42003 0.90402 0.0
H786 H 0.58632 0.35197 0.89557 0.0
H787 H 0.50819 0.31009 0.89208 0.0
H788 H 0.43399 0.37299 0.90076 0.0
H789 H 0.50001 0.44191 0.90753 0.0
C790 C 0.58049 0.45523 0.90867 0.0
C791 C 0.6206 0.45737 0.90873 0.0
C792 C 0.54234 0.41591 0.90396 0.0
C793 C 0.62188 0.41961 0.90371 0.0
C794 C 0.5842 0.38054 0.89906 0.0
C795 C 0.50626 0.33881 0.89535 0.0
C796 C 0.46594 0.33613 0.89599 0.0
C797 C 0.54427 0.37826 0.89931 0.0
C798 C 0.46443 0.37393 0.90013 0.0
C799 C 0.50223 0.41341 0.90408 0.0
H800 H 0.12095 0.58233 0.40352 0.0
H801 H 0.25925 0.65604 0.40045 0.0
H802 H 0.2619 0.5905 0.39332 0.0
H803 H 0.22542 0.51217 0.38959 0.0
H804 H 0.08715 0.43778 0.39332 0.0
H805 H 0.0842 0.50356 0.39875 0.0
C806 C 0.1517 0.58408 0.40142 0.0
C807 C 0.18985 0.62432 0.40254 0.0
C808 C 0.15306 0.54606 0.39752 0.0
C809 C 0.22933 0.62579 0.39931 0.0
C810 C 0.23091 0.58821 0.39542 0.0
C811 C 0.19453 0.51017 0.39148 0.0
C812 C 0.15656 0.4698 0.39111 0.0
C813 C 0.19303 0.54815 0.39468 0.0
C814 C 0.11694 0.46822 0.39352 0.0
C815 C 0.11521 0.50591 0.39669 0.0
H816 H 0.72391 0.18987 0.89102 0.0
H817 H 0.65692 0.05505 0.87012 0.0
H818 H 0.58798 0.05306 0.87405 0.0
H819 H 0.54693 0.08964 0.88603 0.0
H820 H 0.61642 0.22477 0.90658 0.0
H821 H 0.6842 0.22659 0.90008 0.0
C822 C 0.69426 0.15991 0.88727 0.0
C823 C 0.69553 0.12247 0.88069 0.0
C824 C 0.65517 0.15913 0.88957 0.0
C825 C 0.65683 0.08428 0.87526 0.0
C826 C 0.61745 0.08315 0.87766 0.0
C827 C 0.57695 0.11944 0.88903 0.0
C828 C 0.57645 0.15706 0.89679 0.0
C829 C 0.6162 0.12031 0.88525 0.0
C830 C 0.61569 0.1955 0.90027 0.0
C831 C 0.65455 0.19654 0.89674 0.0
H832 H 0.44047 0.604 0.38203 0.0
H833 H 0.48861 0.53562 0.43115 0.0
H834 H 0.56168 0.59628 0.42663 0.0
H835 H 0.61193 0.67113 0.41106 0.0
H836 H 0.56227 0.73891 0.3628 0.0
H837 H 0.49054 0.67615 0.36407 0.0
C838 C 0.46695 0.60198 0.39135 0.0
C839 C 0.45872 0.56521 0.40708 0.0
C840 C 0.50898 0.63711 0.38879 0.0
C841 C 0.49368 0.5637 0.41932 0.0
C842 C 0.53564 0.59836 0.41662 0.0
C843 C 0.58551 0.67179 0.40041 0.0
C844 C 0.59256 0.70978 0.38694 0.0
C845 C 0.54371 0.63558 0.40174 0.0
C846 C 0.55779 0.71024 0.37351 0.0
C847 C 0.51663 0.67433 0.37424 0.0
H848 H 0.83556 0.52986 0.89241 0.0
H849 H 0.97389 0.60199 0.89653 0.0
H850 H 0.97532 0.53516 0.9003 0.0
H851 H 0.93702 0.45615 0.90375 0.0
H852 H 0.79866 0.38506 0.90036 0.0
H853 H 0.79769 0.45165 0.89465 0.0
C854 C 0.86615 0.53117 0.89402 0.0
C855 C 0.90459 0.5711 0.89429 0.0
C856 C 0.86674 0.49271 0.89629 0.0
C857 C 0.9438 0.57183 0.89627 0.0
C858 C 0.94464 0.53358 0.89849 0.0
C859 C 0.90665 0.45525 0.90188 0.0
C860 C 0.86795 0.41551 0.90251 0.0
C861 C 0.90627 0.49383 0.8988 0.0
C862 C 0.82894 0.41499 0.89959 0.0
C863 C 0.82832 0.45313 0.89651 0.0
H864 H 0.16512 0.4038 0.28834 0.0
H865 H 0.26293 0.37629 0.31609 0.0
H866 H 0.28191 0.37352 0.26566 0.0
H867 H 0.26618 0.37194 0.21379 0.0
H868 H 0.17066 0.40187 0.18526 0.0
H869 H 0.1554 0.41091 0.23593 0.0
C870 C 0.19098 0.39778 0.28335 0.0
C871 C 0.21218 0.38971 0.30598 0.0
C872 C 0.20182 0.39624 0.2542 0.0
C873 C 0.24601 0.38255 0.29916 0.0
C874 C 0.25675 0.38069 0.27029 0.0
C875 C 0.24224 0.38077 0.21871 0.0
C876 C 0.21899 0.38553 0.19604 0.0
C877 C 0.2341 0.38632 0.24768 0.0
C878 C 0.18876 0.39787 0.20249 0.0
C879 C 0.17997 0.40288 0.2314 0.0
H880 H 0.80936 0.18824 0.69692 0.0
H881 H 0.92424 0.30774 0.71594 0.0
H882 H 0.90735 0.29833 0.76781 0.0
H883 H 0.86774 0.24906 0.80802 0.0
H884 H 0.75731 0.12601 0.78876 0.0
H885 H 0.76379 0.14381 0.73715 0.0
C886 C 0.82963 0.2129 0.7124 0.0
C887 C 0.86782 0.24859 0.70284 0.0
C888 C 0.82083 0.20613 0.74233 0.0
C889 C 0.89454 0.28003 0.723 0.0
C890 C 0.88509 0.27448 0.75265 0.0
C891 C 0.84434 0.22692 0.79256 0.0
C892 C 0.81231 0.1863 0.80196 0.0
C893 C 0.84948 0.23662 0.7627 0.0
C894 C 0.78241 0.15744 0.78182 0.0
C895 C 0.78621 0.1675 0.75231 0.0
H896 H 0.67815 0.91135 0.21956 0.0
H897 H 0.66415 0.79064 0.19167 0.0
H898 H 0.6595 0.76842 0.24213 0.0
H899 H 0.66692 0.78613 0.29383 0.0
H900 H 0.68267 0.90731 0.32207 0.0
H901 H 0.67852 0.92618 0.27168 0.0
C902 C 0.67353 0.87994 0.22445 0.0
C903 C 0.67217 0.853 0.2018 0.0
C904 C 0.67148 0.86754 0.25356 0.0
C905 C 0.66571 0.81224 0.20861 0.0
C906 C 0.66315 0.7995 0.23749 0.0
C907 C 0.66907 0.81655 0.28904 0.0
C908 C 0.67579 0.84557 0.31164 0.0
C909 C 0.66723 0.82739 0.26009 0.0
C910 C 0.67772 0.88448 0.30508 0.0
C911 C 0.67553 0.89537 0.27626 0.0
H912 H 0.7944 0.67356 0.72292 0.0
H913 H 0.88532 0.6375 0.69363 0.0
H914 H 0.89735 0.62404 0.74395 0.0
H915 H 0.88877 0.63193 0.79631 0.0
H916 H 0.79746 0.66794 0.82517 0.0
H917 H 0.77817 0.67128 0.77483 0.0
C918 C 0.81641 0.66216 0.72757 0.0
C919 C 0.83959 0.65725 0.70483 0.0
C920 C 0.82318 0.65472 0.7564 0.0
C921 C 0.8673 0.64164 0.71089 0.0
C922 C 0.87433 0.63421 0.73963 0.0
C923 C 0.86414 0.63981 0.79158 0.0
C924 C 0.8451 0.65041 0.81438 0.0
C925 C 0.85349 0.64206 0.76259 0.0
C926 C 0.8127 0.65981 0.80802 0.0
C927 C 0.80186 0.66201 0.77923 0.0
H928 H 0.16635 0.7855 0.21635 0.0
H929 H 0.27477 0.90435 0.1869 0.0
H930 H 0.29788 0.92484 0.23718 0.0
H931 H 0.28296 0.91224 0.2894 0.0
H932 H 0.17339 0.79392 0.31857 0.0
H933 H 0.15534 0.76991 0.26835 0.0
C934 C 0.19531 0.81574 0.22084 0.0
C935 C 0.21843 0.84365 0.19789 0.0
C936 C 0.20804 0.82755 0.24975 0.0
C937 C 0.25624 0.88234 0.20414 0.0
C938 C 0.26937 0.89417 0.2329 0.0
C939 C 0.25537 0.88098 0.28486 0.0
C940 C 0.22921 0.85523 0.30779 0.0
C941 C 0.24483 0.86754 0.25589 0.0
C942 C 0.19393 0.8146 0.30141 0.0
C943 C 0.18349 0.80085 0.27266 0.0
H944 H 0.39504 0.2652 0.79241 0.0
H945 H 0.40192 0.15419 0.819 0.0
H946 H 0.41134 0.1399 0.76856 0.0
H947 H 0.40947 0.15414 0.71682 0.0
H948 H 0.40076 0.26402 0.69002 0.0
H949 H 0.40089 0.28382 0.74076 0.0
C950 C 0.39908 0.23813 0.78726 0.0
C951 C 0.397 0.21039 0.80945 0.0
C952 C 0.40394 0.22974 0.75817 0.0
C953 C 0.40296 0.17587 0.80237 0.0
C954 C 0.40825 0.16757 0.7735 0.0
C955 C 0.40814 0.18275 0.72201 0.0
C956 C 0.40438 0.20713 0.69964 0.0
C957 C 0.40751 0.19356 0.75119 0.0
C958 C 0.40336 0.24446 0.70679 0.0
C959 C 0.40324 0.25572 0.73582 0.0
H960 H 0.26286 0.24296 0.94901 0.0
H961 H 0.37169 0.2519 0.99446 0.0
H962 H 0.35976 0.28899 0.03461 0.0
H963 H 0.32022 0.3207 0.05599 0.0
H964 H 0.2111 0.31189 0.01115 0.0
H965 H 0.22196 0.2734 0.97115 0.0
C966 C 0.28378 0.25256 0.96781 0.0
C967 C 0.31816 0.24446 0.96868 0.0
C968 C 0.27709 0.27445 0.99066 0.0
C969 C 0.34496 0.25749 0.99319 0.0
C970 C 0.33829 0.27894 0.0161 0.0
C971 C 0.29875 0.31057 0.03747 0.0
C972 C 0.26497 0.3195 0.03654 0.0
C973 C 0.30482 0.28802 0.01488 0.0
C974 C 0.23746 0.30573 0.01238 0.0
C975 C 0.24356 0.28354 0.98959 0.0
H976 H 0.04116 0.26867 0.44759 0.0
H977 H 0.15323 0.36326 0.49407 0.0
H978 H 0.11121 0.34655 0.53864 0.0
H979 H 0.04304 0.30775 0.56382 0.0
H980 H 0.92946 0.21421 0.51824 0.0
H981 H 0.97204 0.22784 0.47371 0.0
C982 C 0.05655 0.28537 0.46753 0.0
C983 C 0.10048 0.31728 0.46742 0.0
C984 C 1.03194 0.27602 0.4931 0.0
C985 C 0.11964 0.33872 0.49344 0.0
C986 C 0.09558 0.3292 0.51895 0.0
C987 C 1.02722 0.29014 0.54424 0.0
C988 C 0.9828 0.26014 0.54443 0.0
C989 C 0.0517 0.29836 0.51891 0.0
C990 C 0.96343 0.23756 0.51876 0.0
C991 C 0.98782 0.24539 0.49331 0.0
H992 H 0.79652 1.01941 0.0581 0.0
H993 H 0.70137 0.90583 0.01323 0.0
H994 H 0.71627 0.94676 0.96834 0.0
H995 H 0.75383 1.01444 0.94246 0.0
H996 H 0.84814 0.12926 0.98658 0.0
H997 H 0.83599 0.08784 0.03137 0.0
C998 C 0.77934 1.00343 0.03845 0.0
C999 C 0.74783 0.95943 0.0391 0.0
C1000 C 0.78765 0.02737 0.01273 0.0
C1001 C 0.72568 0.93951 0.01343 0.0
C1002 C 0.73414 0.96294 0.98775 0.0
C1003 C 0.77188 0.03076 0.9618 0.0
C1004 C 0.8017 0.07518 0.96113 0.0
C1005 C 0.76462 1.0069 0.98728 0.0
C1006 C 0.82489 0.09525 0.98646 0.0
C1007 C 0.81794 0.07154 0.01205 0.0
H1008 H 0.75104 0.7377 0.56394 0.0
H1009 H 0.86121 0.74664 0.52027 0.0
H1010 H 0.84483 0.77563 0.47712 0.0
H1011 H 0.79936 0.79863 0.45233 0.0
H1012 H 0.68944 0.78916 0.49682 0.0
H1013 H 0.70618 0.76042 0.5396 0.0
C1014 C 0.77166 0.74582 0.54505 0.0
C1015 C 0.80744 0.73991 0.54541 0.0
C1016 C 0.76227 0.76267 0.52064 0.0
C1017 C 0.83348 0.75069 0.52059 0.0
C1018 C 0.82417 0.76741 0.49598 0.0
C1019 C 0.77913 0.79058 0.47143 0.0
C1020 C 0.74318 0.79628 0.47137 0.0
C1021 C 0.78874 0.77369 0.49587 0.0
C1022 C 0.71728 0.78528 0.49626 0.0
C1023 C 0.72679 0.76873 0.52069 0.0
H1024 H 1.02694 0.74959 0.94584 0.0
H1025 H 0.91768 0.69728 1.00329 0.0
H1026 H 0.96591 0.72304 0.04544 0.0
H1027 H 0.03893 0.76206 0.06548 0.0
H1028 H 0.14818 0.81218 0.0081 0.0
H1029 H 0.09994 0.78547 0.96598 0.0
C1030 C 1.01367 0.74406 0.9676 0.0
C1031 C 0.96884 0.72228 0.97154 0.0
C1032 C 0.04153 0.75852 0.99152 0.0
C1033 C 0.95203 0.71409 0.99979 0.0
C1034 C 0.9796 0.72892 0.0238 0.0
C1035 C 0.05221 0.76743 0.04373 0.0
C1036 C 0.09705 0.78978 0.03977 0.0
C1037 C 1.02434 0.75152 0.01986 0.0
C1038 C 0.11382 0.79528 0.0116 0.0
C1039 C 0.08626 0.78009 0.9876 0.0
H1040 H 0.30024 0.02763 0.44402 0.0
H1041 H 0.23744 0.91596 0.4989 0.0
H1042 H 0.2596 0.96226 0.54211 0.0
H1043 H 0.29558 0.03429 0.56382 0.0
H1044 H 0.36145 0.14589 0.50896 0.0
H1045 H 0.33884 0.09959 0.46581 0.0
C1046 C 0.29101 1.01344 0.46544 0.0
C1047 C 0.26649 0.96849 0.46834 0.0
C1048 C 0.30433 0.04018 0.48998 0.0
C1049 C 0.25609 0.95043 0.49619 0.0
C1050 C 0.26865 0.9769 0.52081 0.0
C1051 C 0.30485 0.0486 0.5424 0.0
C1052 C 0.32969 0.09359 0.53951 0.0
C1053 C 0.2925 1.02179 0.5179 0.0
C1054 C 0.34223 0.11146 0.51171 0.0
C1055 C 0.32929 0.085 0.4871 0.0
loop_
_geom_bond_atom_site_label_1
_geom_bond_atom_site_label_2
_geom_bond_distance
_geom_bond_site_symmetry_2
_ccdc_geom_bond_type
Tb0 C9 2.764 . S
Tb0 O10 2.325 . S
Tb0 O13 2.303 . S
Tb0 O17 2.322 . S
Tb0 O18 2.349 . S
Tb0 O21 2.415 . S
Tb0 O22 2.399 . S
Tb1 O11 2.322 . S
Tb1 O12 2.349 . S
Tb1 O14 2.415 . S
Tb1 O15 2.399 . S
Tb1 O16 2.325 . S
Tb1 O19 2.303 . S
Tb1 C30 2.764 . S
C2 O18 1.261 . S
C2 O19 1.257 . S
C3 C6 1.358 . S
C3 C7 1.332 . S
C3 C9 1.504 . S
C4 C5 1.373 . S
C4 C8 1.308 . S
C5 C4 1.373 . S
C5 C6 1.429 . S
C5 H32 0.932 . S
C6 C3 1.358 . S
C6 C5 1.429 . S
C6 H33 0.930 . S
C7 C3 1.332 . S
C7 C8 1.394 . S
C7 H34 0.932 . S
C8 C4 1.308 . S
C8 C7 1.394 . S
C8 H35 0.929 . S
C9 Tb0 2.764 . S
C9 C3 1.504 . S
C9 O21 1.239 . S
C9 O22 1.263 . S
O10 Tb0 2.325 . S
O10 C20 1.236 . S
O11 Tb1 2.322 . S
O11 C20 1.257 . S
O12 Tb1 2.349 . S
O12 C23 1.261 . S
O13 Tb0 2.303 . S
O13 C23 1.257 . S
O14 Tb1 2.415 . S
O14 C30 1.239 . S
O15 Tb1 2.399 . S
O15 C30 1.263 . S
O16 Tb1 2.325 . S
O16 C31 1.236 . S
O17 Tb0 2.322 . S
O17 C31 1.257 . S
O18 Tb0 2.349 . S
O18 C2 1.261 . S
O19 Tb1 2.303 . S
O19 C2 1.257 . S
C20 O10 1.236 . S
C20 O11 1.257 . S
O21 Tb0 2.415 . S
O21 C9 1.239 . S
O22 Tb0 2.399 . S
O22 C9 1.263 . S
C23 O12 1.261 . S
C23 O13 1.257 . S
C24 C27 1.358 . S
C24 C28 1.332 . S
C24 C30 1.504 . S
C25 C26 1.373 . S
C25 C29 1.308 . S
C26 C25 1.373 . S
C26 C27 1.429 . S
C26 H36 0.932 . S
C27 C24 1.358 . S
C27 C26 1.429 . S
C27 H37 0.930 . S
C28 C24 1.332 . S
C28 C29 1.394 . S
C28 H38 0.932 . S
C29 C25 1.308 . S
C29 C28 1.394 . S
C29 H39 0.929 . S
C30 Tb1 2.764 . S
C30 O14 1.239 . S
C30 O15 1.263 . S
C30 C24 1.504 . S
C31 O16 1.236 . S
C31 O17 1.257 . S
H32 C5 0.932 . S
H33 C6 0.930 . S
H34 C7 0.932 . S
H35 C8 0.929 . S
H36 C26 0.932 . S
H37 C27 0.930 . S
H38 C28 0.932 . S
H39 C29 0.929 . S
Tb40 C49 2.764 . S
Tb40 O50 2.325 . S
Tb40 O53 2.303 . S
Tb40 O57 2.322 . S
Tb40 O58 2.349 . S
Tb40 O61 2.415 . S
Tb40 O62 2.399 . S
Tb41 O51 2.322 . S
Tb41 O52 2.349 . S
Tb41 O54 2.415 . S
Tb41 O55 2.399 . S
Tb41 O56 2.325 . S
Tb41 O59 2.303 . S
Tb41 C70 2.764 . S
C42 O58 1.261 . S
C42 O59 1.257 . S
C43 C46 1.358 . S
C43 C47 1.332 . S
C43 C49 1.504 1_455 S
C44 C45 1.373 . S
C44 C48 1.308 . S
C45 C44 1.373 . S
C45 C46 1.429 . S
C45 H72 0.932 . S
C46 C43 1.358 . S
C46 C45 1.429 . S
C46 H73 0.930 . S
C47 C43 1.332 . S
C47 C48 1.394 . S
C47 H74 0.932 . S
C48 C44 1.308 . S
C48 C47 1.394 . S
C48 H75 0.929 . S
C49 Tb40 2.764 . S
C49 C43 1.504 1_655 S
C49 O61 1.239 . S
C49 O62 1.263 . S
O50 Tb40 2.325 . S
O50 C60 1.236 . S
O51 Tb41 2.322 . S
O51 C60 1.257 . S
O52 Tb41 2.349 . S
O52 C63 1.261 . S
O53 Tb40 2.303 . S
O53 C63 1.257 . S
O54 Tb41 2.415 . S
O54 C70 1.239 . S
O55 Tb41 2.399 . S
O55 C70 1.263 . S
O56 Tb41 2.325 . S
O56 C71 1.236 . S
O57 Tb40 2.322 . S
O57 C71 1.257 . S
O58 Tb40 2.349 . S
O58 C42 1.261 . S
O59 Tb41 2.303 . S
O59 C42 1.257 . S
C60 O50 1.236 . S
C60 O51 1.257 . S
O61 Tb40 2.415 . S
O61 C49 1.239 . S
O62 Tb40 2.399 . S
O62 C49 1.263 . S
C63 O52 1.261 . S
C63 O53 1.257 . S
C64 C67 1.358 . S
C64 C68 1.332 . S
C64 C70 1.504 . S
C65 C66 1.373 . S
C65 C69 1.308 . S
C66 C65 1.373 . S
C66 C67 1.429 . S
C66 H76 0.932 . S
C67 C64 1.358 . S
C67 C66 1.429 . S
C67 H77 0.930 . S
C68 C64 1.332 . S
C68 C69 1.394 . S
C68 H78 0.932 . S
C69 C65 1.308 . S
C69 C68 1.394 . S
C69 H79 0.929 . S
C70 Tb41 2.764 . S
C70 O54 1.239 . S
C70 O55 1.263 . S
C70 C64 1.504 . S
C71 O56 1.236 . S
C71 O57 1.257 . S
H72 C45 0.932 . S
H73 C46 0.930 . S
H74 C47 0.932 . S
H75 C48 0.929 . S
H76 C66 0.932 . S
H77 C67 0.930 . S
H78 C68 0.932 . S
H79 C69 0.929 . S
Tb80 C89 2.764 . S
Tb80 O90 2.325 . S
Tb80 O93 2.303 . S
Tb80 O97 2.322 . S
Tb80 O98 2.349 . S
Tb80 O101 2.415 . S
Tb80 O102 2.399 . S
Tb81 O91 2.322 . S
Tb81 O92 2.349 . S
Tb81 O94 2.415 . S
Tb81 O95 2.399 . S
Tb81 O96 2.325 . S
Tb81 O99 2.303 . S
Tb81 C110 2.764 . S
C82 O98 1.261 . S
C82 O99 1.257 . S
C83 C86 1.358 . S
C83 C87 1.332 . S
C83 C89 1.504 1_545 S
C84 C85 1.373 . S
C84 C88 1.308 . S
C85 C84 1.373 . S
C85 C86 1.429 . S
C85 H112 0.932 . S
C86 C83 1.358 . S
C86 C85 1.429 . S
C86 H113 0.930 . S
C87 C83 1.332 . S
C87 C88 1.394 . S
C87 H114 0.932 . S
C88 C84 1.308 . S
C88 C87 1.394 . S
C88 H115 0.929 . S
C89 Tb80 2.764 . S
C89 C83 1.504 1_565 S
C89 O101 1.239 . S
C89 O102 1.263 . S
O90 Tb80 2.325 . S
O90 C100 1.236 . S
O91 Tb81 2.322 . S
O91 C100 1.257 . S
O92 Tb81 2.349 . S
O92 C103 1.261 . S
O93 Tb80 2.303 . S
O93 C103 1.257 . S
O94 Tb81 2.415 . S
O94 C110 1.239 . S
O95 Tb81 2.399 . S
O95 C110 1.263 . S
O96 Tb81 2.325 . S
O96 C111 1.236 . S
O97 Tb80 2.322 . S
O97 C111 1.257 . S
O98 Tb80 2.349 . S
O98 C82 1.261 . S
O99 Tb81 2.303 . S
O99 C82 1.257 . S
C100 O90 1.236 . S
C100 O91 1.257 . S
O101 Tb80 2.415 . S
O101 C89 1.239 . S
O102 Tb80 2.399 . S
O102 C89 1.263 . S
C103 O92 1.261 . S
C103 O93 1.257 . S
C104 C107 1.358 . S
C104 C108 1.332 . S
C104 C110 1.504 . S
C105 C106 1.373 . S
C105 C109 1.308 . S
C106 C105 1.373 . S
C106 C107 1.429 . S
C106 H116 0.932 . S
C107 C104 1.358 . S
C107 C106 1.429 . S
C107 H117 0.930 . S
C108 C104 1.332 . S
C108 C109 1.394 . S
C108 H118 0.932 . S
C109 C105 1.308 . S
C109 C108 1.394 . S
C109 H119 0.929 . S
C110 Tb81 2.764 . S
C110 O94 1.239 . S
C110 O95 1.263 . S
C110 C104 1.504 . S
C111 O96 1.236 . S
C111 O97 1.257 . S
H112 C85 0.932 . S
H113 C86 0.930 . S
H114 C87 0.932 . S
H115 C88 0.929 . S
H116 C106 0.932 . S
H117 C107 0.930 . S
H118 C108 0.932 . S
H119 C109 0.929 . S
Tb120 C129 2.764 . S
Tb120 O130 2.325 . S
Tb120 O133 2.303 . S
Tb120 O137 2.322 . S
Tb120 O138 2.349 . S
Tb120 O141 2.415 . S
Tb120 O142 2.399 . S
Tb121 O131 2.322 . S
Tb121 O132 2.349 . S
Tb121 O134 2.415 . S
Tb121 O135 2.399 . S
Tb121 O136 2.325 . S
Tb121 O139 2.303 . S
Tb121 C150 2.764 . S
C122 O138 1.261 . S
C122 O139 1.257 . S
C123 C126 1.358 . S
C123 C127 1.332 . S
C123 C129 1.504 . S
C124 C125 1.373 . S
C124 C128 1.308 . S
C125 C124 1.373 . S
C125 C126 1.429 . S
C125 H152 0.932 . S
C126 C123 1.358 . S
C126 C125 1.429 . S
C126 H153 0.930 . S
C127 C123 1.332 . S
C127 C128 1.394 . S
C127 H154 0.932 . S
C128 C124 1.308 . S
C128 C127 1.394 . S
C128 H155 0.929 . S
C129 Tb120 2.764 . S
C129 C123 1.504 . S
C129 O141 1.239 . S
C129 O142 1.263 . S
O130 Tb120 2.325 . S
O130 C140 1.236 . S
O131 Tb121 2.322 . S
O131 C140 1.257 . S
O132 Tb121 2.349 . S
O132 C143 1.261 . S
O133 Tb120 2.303 . S
O133 C143 1.257 . S
O134 Tb121 2.415 . S
O134 C150 1.239 . S
O135 Tb121 2.399 . S
O135 C150 1.263 . S
O136 Tb121 2.325 . S
O136 C151 1.236 . S
O137 Tb120 2.322 . S
O137 C151 1.257 . S
O138 Tb120 2.349 . S
O138 C122 1.261 . S
O139 Tb121 2.303 . S
O139 C122 1.257 . S
C140 O130 1.236 . S
C140 O131 1.257 . S
O141 Tb120 2.415 . S
O141 C129 1.239 . S
O142 Tb120 2.399 . S
O142 C129 1.263 . S
C143 O132 1.261 . S
C143 O133 1.257 . S
C144 C147 1.358 . S
C144 C148 1.332 . S
C144 C150 1.504 . S
C145 C146 1.373 . S
C145 C149 1.308 . S
C146 C145 1.373 . S
C146 C147 1.429 . S
C146 H156 0.932 . S
C147 C144 1.358 . S
C147 C146 1.429 . S
C147 H157 0.930 . S
C148 C144 1.332 . S
C148 C149 1.394 . S
C148 H158 0.932 . S
C149 C145 1.308 . S
C149 C148 1.394 . S
C149 H159 0.929 . S
C150 Tb121 2.764 . S
C150 O134 1.239 . S
C150 O135 1.263 . S
C150 C144 1.504 . S
C151 O136 1.236 . S
C151 O137 1.257 . S
H152 C125 0.932 . S
H153 C126 0.930 . S
H154 C127 0.932 . S
H155 C128 0.929 . S
H156 C146 0.932 . S
H157 C147 0.930 . S
H158 C148 0.932 . S
H159 C149 0.929 . S
Tb160 C169 2.764 . S
Tb160 O170 2.325 . S
Tb160 O173 2.303 . S
Tb160 O177 2.322 . S
Tb160 O178 2.349 . S
Tb160 O181 2.415 . S
Tb160 O182 2.399 . S
Tb161 O171 2.322 . S
Tb161 O172 2.349 . S
Tb161 O174 2.415 . S
Tb161 O175 2.399 . S
Tb161 O176 2.325 . S
Tb161 O179 2.303 . S
Tb161 C190 2.764 . S
C162 O178 1.261 . S
C162 O179 1.257 . S
C163 C166 1.358 . S
C163 C167 1.332 . S
C163 C169 1.504 1_655 S
C164 C165 1.373 . S
C164 C168 1.308 . S
C165 C164 1.373 . S
C165 C166 1.429 . S
C165 H192 0.932 . S
C166 C163 1.358 . S
C166 C165 1.429 . S
C166 H193 0.930 . S
C167 C163 1.332 . S
C167 C168 1.394 . S
C167 H194 0.932 . S
C168 C164 1.308 . S
C168 C167 1.394 . S
C168 H195 0.929 . S
C169 Tb160 2.764 . S
C169 C163 1.504 1_455 S
C169 O181 1.239 . S
C169 O182 1.263 . S
O170 Tb160 2.325 . S
O170 C180 1.236 . S
O171 Tb161 2.322 . S
O171 C180 1.257 . S
O172 Tb161 2.349 . S
O172 C183 1.261 . S
O173 Tb160 2.303 . S
O173 C183 1.257 . S
O174 Tb161 2.415 . S
O174 C190 1.239 . S
O175 Tb161 2.399 . S
O175 C190 1.263 . S
O176 Tb161 2.325 . S
O176 C191 1.236 . S
O177 Tb160 2.322 . S
O177 C191 1.257 . S
O178 Tb160 2.349 . S
O178 C162 1.261 . S
O179 Tb161 2.303 . S
O179 C162 1.257 . S
C180 O170 1.236 . S
C180 O171 1.257 . S
O181 Tb160 2.415 . S
O181 C169 1.239 . S
O182 Tb160 2.399 . S
O182 C169 1.263 . S
C183 O172 1.261 . S
C183 O173 1.257 . S
C184 C187 1.358 . S
C184 C188 1.332 . S
C184 C190 1.504 . S
C185 C186 1.373 . S
C185 C189 1.308 . S
C186 C185 1.373 . S
C186 C187 1.429 . S
C186 H196 0.932 . S
C187 C184 1.358 . S
C187 C186 1.429 . S
C187 H197 0.930 . S
C188 C184 1.332 . S
C188 C189 1.394 . S
C188 H198 0.932 . S
C189 C185 1.308 . S
C189 C188 1.394 . S
C189 H199 0.929 . S
C190 Tb161 2.764 . S
C190 O174 1.239 . S
C190 O175 1.263 . S
C190 C184 1.504 . S
C191 O176 1.236 . S
C191 O177 1.257 . S
H192 C165 0.932 . S
H193 C166 0.930 . S
H194 C167 0.932 . S
H195 C168 0.929 . S
H196 C186 0.932 . S
H197 C187 0.930 . S
H198 C188 0.932 . S
H199 C189 0.929 . S
Tb200 C209 2.764 . S
Tb200 O210 2.325 . S
Tb200 O213 2.303 . S
Tb200 O217 2.322 . S
Tb200 O218 2.349 . S
Tb200 O221 2.415 . S
Tb200 O222 2.399 . S
Tb201 O211 2.322 . S
Tb201 O212 2.349 . S
Tb201 O214 2.415 . S
Tb201 O215 2.399 . S
Tb201 O216 2.325 . S
Tb201 O219 2.303 . S
Tb201 C230 2.764 . S
C202 O218 1.261 . S
C202 O219 1.257 . S
C203 C206 1.358 . S
C203 C207 1.332 . S
C203 C209 1.504 1_565 S
C204 C205 1.373 . S
C204 C208 1.308 . S
C205 C204 1.373 . S
C205 C206 1.429 . S
C205 H232 0.932 . S
C206 C203 1.358 . S
C206 C205 1.429 . S
C206 H233 0.930 . S
C207 C203 1.332 . S
C207 C208 1.394 . S
C207 H234 0.932 . S
C208 C204 1.308 . S
C208 C207 1.394 . S
C208 H235 0.929 . S
C209 Tb200 2.764 . S
C209 C203 1.504 1_545 S
C209 O221 1.239 . S
C209 O222 1.263 . S
O210 Tb200 2.325 . S
O210 C220 1.236 . S
O211 Tb201 2.322 . S
O211 C220 1.257 . S
O212 Tb201 2.349 . S
O212 C223 1.261 . S
O213 Tb200 2.303 . S
O213 C223 1.257 . S
O214 Tb201 2.415 . S
O214 C230 1.239 . S
O215 Tb201 2.399 . S
O215 C230 1.263 . S
O216 Tb201 2.325 . S
O216 C231 1.236 . S
O217 Tb200 2.322 . S
O217 C231 1.257 . S
O218 Tb200 2.349 . S
O218 C202 1.261 . S
O219 Tb201 2.303 . S
O219 C202 1.257 . S
C220 O210 1.236 . S
C220 O211 1.257 . S
O221 Tb200 2.415 . S
O221 C209 1.239 . S
O222 Tb200 2.399 . S
O222 C209 1.263 . S
C223 O212 1.261 . S
C223 O213 1.257 . S
C224 C227 1.358 . S
C224 C228 1.332 . S
C224 C230 1.504 . S
C225 C226 1.373 . S
C225 C229 1.308 . S
C226 C225 1.373 . S
C226 C227 1.429 . S
C226 H236 0.932 . S
C227 C224 1.358 . S
C227 C226 1.429 . S
C227 H237 0.930 . S
C228 C224 1.332 . S
C228 C229 1.394 . S
C228 H238 0.932 . S
C229 C225 1.308 . S
C229 C228 1.394 . S
C229 H239 0.929 . S
C230 Tb201 2.764 . S
C230 O214 1.239 . S
C230 O215 1.263 . S
C230 C224 1.504 . S
C231 O216 1.236 . S
C231 O217 1.257 . S
H232 C205 0.932 . S
H233 C206 0.930 . S
H234 C207 0.932 . S
H235 C208 0.929 . S
H236 C226 0.932 . S
H237 C227 0.930 . S
H238 C228 0.932 . S
H239 C229 0.929 . S
Tb240 C249 2.764 . S
Tb240 O250 2.325 . S
Tb240 O253 2.303 . S
Tb240 O257 2.322 . S
Tb240 O258 2.349 . S
Tb240 O261 2.415 . S
Tb240 O262 2.399 . S
Tb241 O251 2.322 . S
Tb241 O252 2.349 . S
Tb241 O254 2.415 . S
Tb241 O255 2.399 . S
Tb241 O256 2.325 . S
Tb241 O259 2.303 . S
Tb241 C270 2.764 . S
C242 O258 1.261 . S
C242 O259 1.257 . S
C243 C246 1.358 . S
C243 C247 1.332 . S
C243 C249 1.504 . S
C244 C245 1.373 . S
C244 C248 1.308 . S
C245 C244 1.373 . S
C245 C246 1.429 . S
C245 H272 0.932 . S
C246 C243 1.358 . S
C246 C245 1.429 . S
C246 H273 0.930 . S
C247 C243 1.332 . S
C247 C248 1.394 . S
C247 H274 0.932 . S
C248 C244 1.308 . S
C248 C247 1.394 . S
C248 H275 0.929 . S
C249 Tb240 2.764 . S
C249 C243 1.504 . S
C249 O261 1.239 . S
C249 O262 1.263 . S
O250 Tb240 2.325 . S
O250 C260 1.236 . S
O251 Tb241 2.322 . S
O251 C260 1.257 . S
O252 Tb241 2.349 . S
O252 C263 1.261 . S
O253 Tb240 2.303 . S
O253 C263 1.257 . S
O254 Tb241 2.415 . S
O254 C270 1.239 . S
O255 Tb241 2.399 . S
O255 C270 1.263 . S
O256 Tb241 2.325 . S
O256 C271 1.236 . S
O257 Tb240 2.322 . S
O257 C271 1.257 . S
O258 Tb240 2.349 . S
O258 C242 1.261 . S
O259 Tb241 2.303 . S
O259 C242 1.257 . S
C260 O250 1.236 . S
C260 O251 1.257 . S
O261 Tb240 2.415 . S
O261 C249 1.239 . S
O262 Tb240 2.399 . S
O262 C249 1.263 . S
C263 O252 1.261 . S
C263 O253 1.257 . S
C264 C267 1.358 . S
C264 C268 1.332 . S
C264 C270 1.504 . S
C265 C266 1.373 . S
C265 C269 1.308 . S
C266 C265 1.373 . S
C266 C267 1.429 . S
C266 H276 0.932 . S
C267 C264 1.358 . S
C267 C266 1.429 . S
C267 H277 0.930 . S
C268 C264 1.332 . S
C268 C269 1.394 . S
C268 H278 0.932 . S
C269 C265 1.308 . S
C269 C268 1.394 . S
C269 H279 0.929 . S
C270 Tb241 2.764 . S
C270 O254 1.239 . S
C270 O255 1.263 . S
C270 C264 1.504 . S
C271 O256 1.236 . S
C271 O257 1.257 . S
H272 C245 0.932 . S
H273 C246 0.930 . S
H274 C247 0.932 . S
H275 C248 0.929 . S
H276 C266 0.932 . S
H277 C267 0.930 . S
H278 C268 0.932 . S
H279 C269 0.929 . S
Tb280 C289 2.764 . S
Tb280 O290 2.325 . S
Tb280 O293 2.303 . S
Tb280 O297 2.322 . S
Tb280 O298 2.349 . S
Tb280 O301 2.415 . S
Tb280 O302 2.399 . S
Tb281 O291 2.322 . S
Tb281 O292 2.349 . S
Tb281 O294 2.415 . S
Tb281 O295 2.399 . S
Tb281 O296 2.325 . S
Tb281 O299 2.303 . S
Tb281 C310 2.764 . S
C282 O298 1.261 . S
C282 O299 1.257 . S
C283 C286 1.358 . S
C283 C287 1.332 . S
C283 C289 1.504 1_455 S
C284 C285 1.373 . S
C284 C288 1.308 . S
C285 C284 1.373 . S
C285 C286 1.429 . S
C285 H312 0.932 . S
C286 C283 1.358 . S
C286 C285 1.429 . S
C286 H313 0.930 . S
C287 C283 1.332 . S
C287 C288 1.394 . S
C287 H314 0.932 . S
C288 C284 1.308 . S
C288 C287 1.394 . S
C288 H315 0.929 . S
C289 Tb280 2.764 . S
C289 C283 1.504 1_655 S
C289 O301 1.239 . S
C289 O302 1.263 . S
O290 Tb280 2.325 . S
O290 C300 1.236 . S
O291 Tb281 2.322 . S
O291 C300 1.257 . S
O292 Tb281 2.349 . S
O292 C303 1.261 . S
O293 Tb280 2.303 . S
O293 C303 1.257 . S
O294 Tb281 2.415 . S
O294 C310 1.239 . S
O295 Tb281 2.399 . S
O295 C310 1.263 . S
O296 Tb281 2.325 . S
O296 C311 1.236 . S
O297 Tb280 2.322 . S
O297 C311 1.257 . S
O298 Tb280 2.349 . S
O298 C282 1.261 . S
O299 Tb281 2.303 . S
O299 C282 1.257 . S
C300 O290 1.236 . S
C300 O291 1.257 . S
O301 Tb280 2.415 . S
O301 C289 1.239 . S
O302 Tb280 2.399 . S
O302 C289 1.263 . S
C303 O292 1.261 . S
C303 O293 1.257 . S
C304 C307 1.358 . S
C304 C308 1.332 . S
C304 C310 1.504 . S
C305 C306 1.373 . S
C305 C309 1.308 . S
C306 C305 1.373 . S
C306 C307 1.429 . S
C306 H316 0.932 . S
C307 C304 1.358 . S
C307 C306 1.429 . S
C307 H317 0.930 . S
C308 C304 1.332 . S
C308 C309 1.394 . S
C308 H318 0.932 . S
C309 C305 1.308 . S
C309 C308 1.394 . S
C309 H319 0.929 . S
C310 Tb281 2.764 . S
C310 O294 1.239 . S
C310 O295 1.263 . S
C310 C304 1.504 . S
C311 O296 1.236 . S
C311 O297 1.257 . S
H312 C285 0.932 . S
H313 C286 0.930 . S
H314 C287 0.932 . S
H315 C288 0.929 . S
H316 C306 0.932 . S
H317 C307 0.930 . S
H318 C308 0.932 . S
H319 C309 0.929 . S
Tb320 C329 2.764 . S
Tb320 O330 2.325 . S
Tb320 O333 2.303 . S
Tb320 O337 2.322 . S
Tb320 O338 2.349 . S
Tb320 O341 2.415 . S
Tb320 O342 2.399 . S
Tb321 O331 2.322 . S
Tb321 O332 2.349 . S
Tb321 O334 2.415 . S
Tb321 O335 2.399 . S
Tb321 O336 2.325 . S
Tb321 O339 2.303 . S
Tb321 C350 2.764 . S
C322 O338 1.261 . S
C322 O339 1.257 . S
C323 C326 1.358 . S
C323 C327 1.332 . S
C323 C329 1.504 1_545 S
C324 C325 1.373 . S
C324 C328 1.308 . S
C325 C324 1.373 . S
C325 C326 1.429 . S
C325 H352 0.932 . S
C326 C323 1.358 . S
C326 C325 1.429 . S
C326 H353 0.930 . S
C327 C323 1.332 . S
C327 C328 1.394 . S
C327 H354 0.932 . S
C328 C324 1.308 . S
C328 C327 1.394 . S
C328 H355 0.929 . S
C329 Tb320 2.764 . S
C329 C323 1.504 1_565 S
C329 O341 1.239 . S
C329 O342 1.263 . S
O330 Tb320 2.325 . S
O330 C340 1.236 . S
O331 Tb321 2.322 . S
O331 C340 1.257 . S
O332 Tb321 2.349 . S
O332 C343 1.261 . S
O333 Tb320 2.303 . S
O333 C343 1.257 . S
O334 Tb321 2.415 . S
O334 C350 1.239 . S
O335 Tb321 2.399 . S
O335 C350 1.263 . S
O336 Tb321 2.325 . S
O336 C351 1.236 . S
O337 Tb320 2.322 . S
O337 C351 1.257 . S
O338 Tb320 2.349 . S
O338 C322 1.261 . S
O339 Tb321 2.303 . S
O339 C322 1.257 . S
C340 O330 1.236 . S
C340 O331 1.257 . S
O341 Tb320 2.415 . S
O341 C329 1.239 . S
O342 Tb320 2.399 . S
O342 C329 1.263 . S
C343 O332 1.261 . S
C343 O333 1.257 . S
C344 C347 1.358 . S
C344 C348 1.332 . S
C344 C350 1.504 . S
C345 C346 1.373 . S
C345 C349 1.308 . S
C346 C345 1.373 . S
C346 C347 1.429 . S
C346 H356 0.932 . S
C347 C344 1.358 . S
C347 C346 1.429 . S
C347 H357 0.930 . S
C348 C344 1.332 . S
C348 C349 1.394 . S
C348 H358 0.932 . S
C349 C345 1.308 . S
C349 C348 1.394 . S
C349 H359 0.929 . S
C350 Tb321 2.764 . S
C350 O334 1.239 . S
C350 O335 1.263 . S
C350 C344 1.504 . S
C351 O336 1.236 . S
C351 O337 1.257 . S
H352 C325 0.932 . S
H353 C326 0.930 . S
H354 C327 0.932 . S
H355 C328 0.929 . S
H356 C346 0.932 . S
H357 C347 0.930 . S
H358 C348 0.932 . S
H359 C349 0.929 . S
Tb360 C369 2.764 . S
Tb360 O370 2.325 . S
Tb360 O373 2.303 . S
Tb360 O377 2.322 . S
Tb360 O378 2.349 . S
Tb360 O381 2.415 . S
Tb360 O382 2.399 . S
Tb361 O371 2.322 . S
Tb361 O372 2.349 . S
Tb361 O374 2.415 . S
Tb361 O375 2.399 . S
Tb361 O376 2.325 . S
Tb361 O379 2.303 . S
Tb361 C390 2.764 . S
C362 O378 1.261 . S
C362 O379 1.257 . S
C363 C366 1.358 . S
C363 C367 1.332 . S
C363 C369 1.504 . S
C364 C365 1.373 . S
C364 C368 1.308 . S
C365 C364 1.373 . S
C365 C366 1.429 . S
C365 H392 0.932 . S
C366 C363 1.358 . S
C366 C365 1.429 . S
C366 H393 0.930 . S
C367 C363 1.332 . S
C367 C368 1.394 . S
C367 H394 0.932 . S
C368 C364 1.308 . S
C368 C367 1.394 . S
C368 H395 0.929 . S
C369 Tb360 2.764 . S
C369 C363 1.504 . S
C369 O381 1.239 . S
C369 O382 1.263 . S
O370 Tb360 2.325 . S
O370 C380 1.236 . S
O371 Tb361 2.322 . S
O371 C380 1.257 . S
O372 Tb361 2.349 . S
O372 C383 1.261 . S
O373 Tb360 2.303 . S
O373 C383 1.257 . S
O374 Tb361 2.415 . S
O374 C390 1.239 . S
O375 Tb361 2.399 . S
O375 C390 1.263 . S
O376 Tb361 2.325 . S
O376 C391 1.236 . S
O377 Tb360 2.322 . S
O377 C391 1.257 . S
O378 Tb360 2.349 . S
O378 C362 1.261 . S
O379 Tb361 2.303 . S
O379 C362 1.257 . S
C380 O370 1.236 . S
C380 O371 1.257 . S
O381 Tb360 2.415 . S
O381 C369 1.239 . S
O382 Tb360 2.399 . S
O382 C369 1.263 . S
C383 O372 1.261 . S
C383 O373 1.257 . S
C384 C387 1.358 . S
C384 C388 1.332 . S
C384 C390 1.504 . S
C385 C386 1.373 . S
C385 C389 1.308 . S
C386 C385 1.373 . S
C386 C387 1.429 . S
C386 H396 0.932 . S
C387 C384 1.358 . S
C387 C386 1.429 . S
C387 H397 0.930 . S
C388 C384 1.332 . S
C388 C389 1.394 . S
C388 H398 0.932 . S
C389 C385 1.308 . S
C389 C388 1.394 . S
C389 H399 0.929 . S
C390 Tb361 2.764 . S
C390 O374 1.239 . S
C390 O375 1.263 . S
C390 C384 1.504 . S
C391 O376 1.236 . S
C391 O377 1.257 . S
H392 C365 0.932 . S
H393 C366 0.930 . S
H394 C367 0.932 . S
H395 C368 0.929 . S
H396 C386 0.932 . S
H397 C387 0.930 . S
H398 C388 0.932 . S
H399 C389 0.929 . S
Tb400 C409 2.764 . S
Tb400 O410 2.325 . S
Tb400 O413 2.303 . S
Tb400 O417 2.322 . S
Tb400 O418 2.349 . S
Tb400 O421 2.415 . S
Tb400 O422 2.399 . S
Tb401 O411 2.322 . S
Tb401 O412 2.349 . S
Tb401 O414 2.415 . S
Tb401 O415 2.399 . S
Tb401 O416 2.325 . S
Tb401 O419 2.303 . S
Tb401 C430 2.764 . S
C402 O418 1.261 . S
C402 O419 1.257 . S
C403 C406 1.358 . S
C403 C407 1.332 . S
C403 C409 1.504 1_655 S
C404 C405 1.373 . S
C404 C408 1.308 . S
C405 C404 1.373 . S
C405 C406 1.429 . S
C405 H432 0.932 . S
C406 C403 1.358 . S
C406 C405 1.429 . S
C406 H433 0.930 . S
C407 C403 1.332 . S
C407 C408 1.394 . S
C407 H434 0.932 . S
C408 C404 1.308 . S
C408 C407 1.394 . S
C408 H435 0.929 . S
C409 Tb400 2.764 . S
C409 C403 1.504 1_455 S
C409 O421 1.239 . S
C409 O422 1.263 . S
O410 Tb400 2.325 . S
O410 C420 1.236 . S
O411 Tb401 2.322 . S
O411 C420 1.257 . S
O412 Tb401 2.349 . S
O412 C423 1.261 . S
O413 Tb400 2.303 . S
O413 C423 1.257 . S
O414 Tb401 2.415 . S
O414 C430 1.239 . S
O415 Tb401 2.399 . S
O415 C430 1.263 . S
O416 Tb401 2.325 . S
O416 C431 1.236 . S
O417 Tb400 2.322 . S
O417 C431 1.257 . S
O418 Tb400 2.349 . S
O418 C402 1.261 . S
O419 Tb401 2.303 . S
O419 C402 1.257 . S
C420 O410 1.236 . S
C420 O411 1.257 . S
O421 Tb400 2.415 . S
O421 C409 1.239 . S
O422 Tb400 2.399 . S
O422 C409 1.263 . S
C423 O412 1.261 . S
C423 O413 1.257 . S
C424 C427 1.358 . S
C424 C428 1.332 . S
C424 C430 1.504 . S
C425 C426 1.373 . S
C425 C429 1.308 . S
C426 C425 1.373 . S
C426 C427 1.429 . S
C426 H436 0.932 . S
C427 C424 1.358 . S
C427 C426 1.429 . S
C427 H437 0.930 . S
C428 C424 1.332 . S
C428 C429 1.394 . S
C428 H438 0.932 . S
C429 C425 1.308 . S
C429 C428 1.394 . S
C429 H439 0.929 . S
C430 Tb401 2.764 . S
C430 O414 1.239 . S
C430 O415 1.263 . S
C430 C424 1.504 . S
C431 O416 1.236 . S
C431 O417 1.257 . S
H432 C405 0.932 . S
H433 C406 0.930 . S
H434 C407 0.932 . S
H435 C408 0.929 . S
H436 C426 0.932 . S
H437 C427 0.930 . S
H438 C428 0.932 . S
H439 C429 0.929 . S
Tb440 C449 2.764 . S
Tb440 O450 2.325 . S
Tb440 O453 2.303 . S
Tb440 O457 2.322 . S
Tb440 O458 2.349 . S
Tb440 O461 2.415 . S
Tb440 O462 2.399 . S
Tb441 O451 2.322 . S
Tb441 O452 2.349 . S
Tb441 O454 2.415 . S
Tb441 O455 2.399 . S
Tb441 O456 2.325 . S
Tb441 O459 2.303 . S
Tb441 C470 2.764 . S
C442 O458 1.261 . S
C442 O459 1.257 . S
C443 C446 1.358 . S
C443 C447 1.332 . S
C443 C449 1.504 1_565 S
C444 C445 1.373 . S
C444 C448 1.308 . S
C445 C444 1.373 . S
C445 C446 1.429 . S
C445 H472 0.932 . S
C446 C443 1.358 . S
C446 C445 1.429 . S
C446 H473 0.930 . S
C447 C443 1.332 . S
C447 C448 1.394 . S
C447 H474 0.932 . S
C448 C444 1.308 . S
C448 C447 1.394 . S
C448 H475 0.929 . S
C449 Tb440 2.764 . S
C449 C443 1.504 1_545 S
C449 O461 1.239 . S
C449 O462 1.263 . S
O450 Tb440 2.325 . S
O450 C460 1.236 . S
O451 Tb441 2.322 . S
O451 C460 1.257 . S
O452 Tb441 2.349 . S
O452 C463 1.261 . S
O453 Tb440 2.303 . S
O453 C463 1.257 . S
O454 Tb441 2.415 . S
O454 C470 1.239 . S
O455 Tb441 2.399 . S
O455 C470 1.263 . S
O456 Tb441 2.325 . S
O456 C471 1.236 . S
O457 Tb440 2.322 . S
O457 C471 1.257 . S
O458 Tb440 2.349 . S
O458 C442 1.261 . S
O459 Tb441 2.303 . S
O459 C442 1.257 . S
C460 O450 1.236 . S
C460 O451 1.257 . S
O461 Tb440 2.415 . S
O461 C449 1.239 . S
O462 Tb440 2.399 . S
O462 C449 1.263 . S
C463 O452 1.261 . S
C463 O453 1.257 . S
C464 C467 1.358 . S
C464 C468 1.332 . S
C464 C470 1.504 . S
C465 C466 1.373 . S
C465 C469 1.308 . S
C466 C465 1.373 . S
C466 C467 1.429 . S
C466 H476 0.932 . S
C467 C464 1.358 . S
C467 C466 1.429 . S
C467 H477 0.930 . S
C468 C464 1.332 . S
C468 C469 1.394 . S
C468 H478 0.932 . S
C469 C465 1.308 . S
C469 C468 1.394 . S
C469 H479 0.929 . S
C470 Tb441 2.764 . S
C470 O454 1.239 . S
C470 O455 1.263 . S
C470 C464 1.504 . S
C471 O456 1.236 . S
C471 O457 1.257 . S
H472 C445 0.932 . S
H473 C446 0.930 . S
H474 C447 0.932 . S
H475 C448 0.929 . S
H476 C466 0.932 . S
H477 C467 0.930 . S
H478 C468 0.932 . S
H479 C469 0.929 . S
H480 C486 0.930 . S
H481 C489 0.930 . S
H482 C490 0.930 . S
H483 C491 0.930 . S
H484 C494 0.930 . S
H485 C495 0.930 1_565 S
C486 H480 0.930 . S
C486 C487 1.355 . S
C486 C488 1.415 . S
C487 C486 1.355 . S
C487 C489 1.419 . S
C488 C486 1.415 . S
C488 C493 1.425 . S
C488 C495 1.409 1_565 S
C489 H481 0.930 . S
C489 C487 1.419 . S
C489 C490 1.362 . S
C490 H482 0.930 . S
C490 C489 1.362 . S
C490 C493 1.409 . S
C491 H483 0.930 . S
C491 C492 1.355 . S
C491 C493 1.415 1_545 S
C492 C491 1.355 . S
C492 C494 1.419 . S
C493 C488 1.425 . S
C493 C490 1.409 . S
C493 C491 1.415 1_565 S
C494 H484 0.930 . S
C494 C492 1.419 . S
C494 C495 1.362 . S
C495 H485 0.930 1_545 S
C495 C488 1.409 1_545 S
C495 C494 1.362 . S
H496 C502 0.930 . S
H497 C505 0.930 . S
H498 C506 0.930 . S
H499 C507 0.930 . S
H500 C510 0.930 . S
H501 C511 0.930 . S
C502 H496 0.930 . S
C502 C503 1.355 . S
C502 C504 1.415 . S
C503 C502 1.355 . S
C503 C505 1.419 . S
C504 C502 1.415 . S
C504 C509 1.425 . S
C504 C511 1.409 . S
C505 H497 0.930 . S
C505 C503 1.419 . S
C505 C506 1.362 . S
C506 H498 0.930 . S
C506 C505 1.362 . S
C506 C509 1.409 . S
C507 H499 0.930 . S
C507 C508 1.355 . S
C507 C509 1.415 . S
C508 C507 1.355 . S
C508 C510 1.419 . S
C509 C504 1.425 . S
C509 C506 1.409 . S
C509 C507 1.415 . S
C510 H500 0.930 . S
C510 C508 1.419 . S
C510 C511 1.362 . S
C511 H501 0.930 . S
C511 C504 1.409 . S
C511 C510 1.362 . S
H512 C518 0.930 . S
H513 C521 0.930 . S
H514 C522 0.930 . S
H515 C523 0.930 . S
H516 C526 0.930 . S
H517 C527 0.930 1_655 S
C518 H512 0.930 . S
C518 C519 1.355 . S
C518 C520 1.415 . S
C519 C518 1.355 . S
C519 C521 1.419 . S
C520 C518 1.415 . S
C520 C525 1.425 1_655 S
C520 C527 1.409 1_655 S
C521 H513 0.930 . S
C521 C519 1.419 . S
C521 C522 1.362 1_655 S
C522 H514 0.930 . S
C522 C521 1.362 1_455 S
C522 C525 1.409 . S
C523 H515 0.930 . S
C523 C524 1.355 . S
C523 C525 1.415 . S
C524 C523 1.355 . S
C524 C526 1.419 . S
C525 C520 1.425 1_455 S
C525 C522 1.409 . S
C525 C523 1.415 . S
C526 H516 0.930 . S
C526 C524 1.419 . S
C526 C527 1.362 . S
C527 H517 0.930 1_455 S
C527 C520 1.409 1_455 S
C527 C526 1.362 . S
H528 C534 0.930 . S
H529 C537 0.930 . S
H530 C538 0.930 1_545 S
H531 C539 0.930 . S
H532 C542 0.930 . S
H533 C543 0.930 . S
C534 H528 0.930 . S
C534 C535 1.355 . S
C534 C536 1.409 1_565 S
C535 C534 1.355 . S
C535 C537 1.419 . S
C536 C534 1.409 1_545 S
C536 C541 1.425 . S
C536 C543 1.414 . S
C537 H529 0.930 . S
C537 C535 1.419 . S
C537 C538 1.362 . S
C538 H530 0.930 1_565 S
C538 C537 1.362 . S
C538 C541 1.409 1_565 S
C539 H531 0.930 . S
C539 C540 1.355 . S
C539 C541 1.415 . S
C540 C539 1.355 . S
C540 C542 1.419 . S
C541 C536 1.425 . S
C541 C538 1.409 1_545 S
C541 C539 1.415 . S
C542 H532 0.930 . S
C542 C540 1.419 . S
C542 C543 1.362 . S
C543 H533 0.930 . S
C543 C536 1.414 . S
C543 C542 1.362 . S
H544 C550 0.930 . S
H545 C553 0.930 . S
H546 C554 0.930 . S
H547 C555 0.930 . S
H548 C558 0.930 . S
H549 C559 0.930 . S
C550 H544 0.930 . S
C550 C551 1.355 . S
C550 C552 1.415 . S
C551 C550 1.355 . S
C551 C553 1.419 . S
C552 C550 1.415 . S
C552 C557 1.425 . S
C552 C559 1.409 . S
C553 H545 0.930 . S
C553 C551 1.419 . S
C553 C554 1.362 . S
C554 H546 0.930 . S
C554 C553 1.362 . S
C554 C557 1.409 . S
C555 H547 0.930 . S
C555 C556 1.355 . S
C555 C557 1.415 . S
C556 C555 1.355 . S
C556 C558 1.419 . S
C557 C552 1.425 . S
C557 C554 1.409 . S
C557 C555 1.415 . S
C558 H548 0.930 . S
C558 C556 1.419 . S
C558 C559 1.362 . S
C559 H549 0.930 . S
C559 C552 1.409 . S
C559 C558 1.362 . S
H560 C566 0.930 . S
H561 C569 0.930 . S
H562 C570 0.930 . S
H563 C571 0.930 . S
H564 C574 0.930 . S
H565 C575 0.930 . S
C566 H560 0.930 . S
C566 C567 1.355 . S
C566 C568 1.415 . S
C567 C566 1.355 . S
C567 C569 1.419 . S
C568 C566 1.415 . S
C568 C573 1.425 . S
C568 C575 1.409 1_655 S
C569 H561 0.930 . S
C569 C567 1.419 . S
C569 C570 1.362 . S
C570 H562 0.930 . S
C570 C569 1.362 . S
C570 C573 1.409 . S
C571 H563 0.930 . S
C571 C572 1.355 . S
C571 C573 1.415 1_455 S
C572 C571 1.355 . S
C572 C574 1.419 . S
C573 C568 1.425 . S
C573 C570 1.409 . S
C573 C571 1.415 1_655 S
C574 H564 0.930 . S
C574 C572 1.419 . S
C574 C575 1.362 . S
C575 H565 0.930 . S
C575 C568 1.409 1_455 S
C575 C574 1.362 . S
H576 C582 0.930 . S
H577 C585 0.930 . S
H578 C586 0.930 . S
H579 C587 0.930 . S
H580 C590 0.930 . S
H581 C591 0.930 . S
C582 H576 0.930 . S
C582 C583 1.355 . S
C582 C584 1.415 . S
C583 C582 1.355 . S
C583 C585 1.419 . S
C584 C582 1.415 . S
C584 C589 1.425 . S
C584 C591 1.409 1_455 S
C585 H577 0.930 . S
C585 C583 1.419 . S
C585 C586 1.362 . S
C586 H578 0.930 . S
C586 C585 1.362 . S
C586 C589 1.409 . S
C587 H579 0.930 . S
C587 C588 1.355 . S
C587 C589 1.415 1_655 S
C588 C587 1.355 . S
C588 C590 1.419 . S
C589 C584 1.425 . S
C589 C586 1.409 . S
C589 C587 1.415 1_455 S
C590 H580 0.930 . S
C590 C588 1.419 . S
C590 C591 1.362 . S
C591 H581 0.930 . S
C591 C584 1.409 1_655 S
C591 C590 1.362 . S
H592 C598 0.930 . S
H593 C601 0.930 . S
H594 C602 0.930 . S
H595 C603 0.930 . S
H596 C606 0.930 . S
H597 C607 0.930 . S
C598 H592 0.930 . S
C598 C599 1.355 . S
C598 C600 1.415 1_565 S
C599 C598 1.355 . S
C599 C601 1.419 . S
C600 C598 1.415 1_545 S
C600 C605 1.425 . S
C600 C607 1.409 . S
C601 H593 0.930 . S
C601 C599 1.419 . S
C601 C602 1.362 . S
C602 H594 0.930 . S
C602 C601 1.362 . S
C602 C605 1.409 1_565 S
C603 H595 0.930 . S
C603 C604 1.355 . S
C603 C605 1.415 . S
C604 C603 1.355 . S
C604 C606 1.419 . S
C605 C600 1.425 . S
C605 C602 1.409 1_545 S
C605 C603 1.415 . S
C606 H596 0.930 . S
C606 C604 1.419 . S
C606 C607 1.362 . S
C607 H597 0.930 . S
C607 C600 1.409 . S
C607 C606 1.362 . S
H608 C614 0.930 . S
H609 C617 0.930 . S
H610 C618 0.930 . S
H611 C619 0.930 . S
H612 C622 0.930 . S
H613 C623 0.930 . S
C614 H608 0.930 . S
C614 C615 1.355 . S
C614 C616 1.415 . S
C615 C614 1.355 . S
C615 C617 1.419 . S
C616 C614 1.415 . S
C616 C621 1.425 . S
C616 C623 1.409 . S
C617 H609 0.930 . S
C617 C615 1.419 . S
C617 C618 1.362 . S
C618 H610 0.930 . S
C618 C617 1.362 . S
C618 C621 1.409 . S
C619 H611 0.930 . S
C619 C620 1.355 . S
C619 C621 1.415 . S
C620 C619 1.355 . S
C620 C622 1.419 . S
C621 C616 1.425 . S
C621 C618 1.409 . S
C621 C619 1.415 . S
C622 H612 0.930 . S
C622 C620 1.419 . S
C622 C623 1.362 . S
C623 H613 0.930 . S
C623 C616 1.409 . S
C623 C622 1.362 . S
H624 C630 0.930 . S
H625 C633 0.930 . S
H626 C634 0.930 . S
H627 C635 0.930 . S
H628 C638 0.930 . S
H629 C639 0.930 1_455 S
C630 H624 0.930 . S
C630 C631 1.355 . S
C630 C632 1.415 . S
C631 C630 1.355 . S
C631 C633 1.419 . S
C632 C630 1.415 . S
C632 C637 1.425 1_455 S
C632 C639 1.409 1_455 S
C633 H625 0.930 . S
C633 C631 1.419 . S
C633 C634 1.362 1_455 S
C634 H626 0.930 . S
C634 C633 1.362 1_655 S
C634 C637 1.409 . S
C635 H627 0.930 . S
C635 C636 1.355 . S
C635 C637 1.415 . S
C636 C635 1.355 . S
C636 C638 1.419 . S
C637 C632 1.425 1_655 S
C637 C634 1.409 . S
C637 C635 1.415 . S
C638 H628 0.930 . S
C638 C636 1.419 . S
C638 C639 1.362 . S
C639 H629 0.930 1_655 S
C639 C632 1.409 1_655 S
C639 C638 1.362 . S
H640 C646 0.930 . S
H641 C649 0.930 . S
H642 C650 0.930 . S
H643 C651 0.930 . S
H644 C654 0.930 . S
H645 C655 0.930 . S
C646 H640 0.930 . S
C646 C647 1.355 . S
C646 C648 1.415 . S
C647 C646 1.355 . S
C647 C649 1.419 . S
C648 C646 1.415 . S
C648 C653 1.425 1_545 S
C648 C655 1.409 1_545 S
C649 H641 0.930 . S
C649 C647 1.419 . S
C649 C650 1.362 1_545 S
C650 H642 0.930 . S
C650 C649 1.362 1_565 S
C650 C653 1.409 . S
C651 H643 0.930 . S
C651 C652 1.355 . S
C651 C653 1.415 . S
C652 C651 1.355 . S
C652 C654 1.419 . S
C653 C648 1.425 1_565 S
C653 C650 1.409 . S
C653 C651 1.415 . S
C654 H644 0.930 . S
C654 C652 1.419 . S
C654 C655 1.362 . S
C655 H645 0.930 . S
C655 C648 1.409 1_565 S
C655 C654 1.362 . S
H656 C662 0.930 . S
H657 C665 0.930 . S
H658 C666 0.930 . S
H659 C667 0.930 . S
H660 C670 0.930 . S
H661 C671 0.930 . S
C662 H656 0.930 . S
C662 C663 1.355 . S
C662 C664 1.415 . S
C663 C662 1.355 . S
C663 C665 1.419 . S
C664 C662 1.415 . S
C664 C669 1.425 . S
C664 C671 1.409 . S
C665 H657 0.930 . S
C665 C663 1.419 . S
C665 C666 1.362 . S
C666 H658 0.930 . S
C666 C665 1.362 . S
C666 C669 1.409 . S
C667 H659 0.930 . S
C667 C668 1.355 . S
C667 C669 1.415 . S
C668 C667 1.355 . S
C668 C670 1.419 . S
C669 C664 1.425 . S
C669 C666 1.409 . S
C669 C667 1.415 . S
C670 H660 0.930 . S
C670 C668 1.419 . S
C670 C671 1.362 . S
C671 H661 0.930 . S
C671 C664 1.409 . S
C671 C670 1.362 . S
H672 C678 0.930 . S
H673 C681 0.930 . S
H674 C682 0.930 . S
H675 C683 0.930 . S
H676 C686 0.930 . S
H677 C687 0.930 . S
C678 H672 0.930 . S
C678 C679 1.355 . S
C678 C680 1.415 . S
C679 C678 1.355 . S
C679 C681 1.419 . S
C680 C678 1.415 . S
C680 C685 1.425 . S
C680 C687 1.409 . S
C681 H673 0.930 . S
C681 C679 1.419 . S
C681 C682 1.362 . S
C682 H674 0.930 . S
C682 C681 1.362 . S
C682 C685 1.409 . S
C683 H675 0.930 . S
C683 C684 1.355 . S
C683 C685 1.415 . S
C684 C683 1.355 . S
C684 C686 1.419 . S
C685 C680 1.425 . S
C685 C682 1.409 . S
C685 C683 1.415 . S
C686 H676 0.930 . S
C686 C684 1.419 . S
C686 C687 1.362 . S
C687 H677 0.930 . S
C687 C680 1.409 . S
C687 C686 1.362 . S
H688 C694 0.930 . S
H689 C697 0.930 . S
H690 C698 0.930 . S
H691 C699 0.930 . S
H692 C702 0.930 . S
H693 C703 0.930 . S
C694 H688 0.930 . S
C694 C695 1.355 . S
C694 C696 1.415 . S
C695 C694 1.355 . S
C695 C697 1.419 . S
C696 C694 1.415 . S
C696 C701 1.425 . S
C696 C703 1.409 . S
C697 H689 0.930 . S
C697 C695 1.419 . S
C697 C698 1.362 . S
C698 H690 0.930 . S
C698 C697 1.362 . S
C698 C701 1.409 . S
C699 H691 0.930 . S
C699 C700 1.355 . S
C699 C701 1.415 . S
C700 C699 1.355 . S
C700 C702 1.419 . S
C701 C696 1.425 . S
C701 C698 1.409 . S
C701 C699 1.415 . S
C702 H692 0.930 . S
C702 C700 1.419 . S
C702 C703 1.362 . S
C703 H693 0.930 . S
C703 C696 1.409 . S
C703 C702 1.362 . S
H704 C710 0.930 . S
H705 C713 0.930 . S
H706 C714 0.930 . S
H707 C715 0.930 . S
H708 C718 0.930 . S
H709 C719 0.930 . S
C710 H704 0.930 . S
C710 C711 1.355 . S
C710 C712 1.415 . S
C711 C710 1.355 . S
C711 C713 1.419 . S
C712 C710 1.415 . S
C712 C717 1.425 . S
C712 C719 1.409 . S
C713 H705 0.930 . S
C713 C711 1.419 . S
C713 C714 1.362 . S
C714 H706 0.930 . S
C714 C713 1.362 . S
C714 C717 1.409 . S
C715 H707 0.930 . S
C715 C716 1.355 . S
C715 C717 1.415 . S
C716 C715 1.355 . S
C716 C718 1.419 . S
C717 C712 1.425 . S
C717 C714 1.409 . S
C717 C715 1.415 . S
C718 H708 0.930 . S
C718 C716 1.419 . S
C718 C719 1.362 . S
C719 H709 0.930 . S
C719 C712 1.409 . S
C719 C718 1.362 . S
H720 C726 0.930 . S
H721 C729 0.930 . S
H722 C730 0.930 . S
H723 C731 0.930 . S
H724 C734 0.930 . S
H725 C735 0.930 . S
C726 H720 0.930 . S
C726 C727 1.355 . S
C726 C728 1.415 . S
C727 C726 1.355 . S
C727 C729 1.419 . S
C728 C726 1.415 . S
C728 C733 1.425 . S
C728 C735 1.409 . S
C729 H721 0.930 . S
C729 C727 1.419 . S
C729 C730 1.362 . S
C730 H722 0.930 . S
C730 C729 1.362 . S
C730 C733 1.409 . S
C731 H723 0.930 . S
C731 C732 1.355 . S
C731 C733 1.415 . S
C732 C731 1.355 . S
C732 C734 1.419 . S
C733 C728 1.425 . S
C733 C730 1.409 . S
C733 C731 1.415 . S
C734 H724 0.930 . S
C734 C732 1.419 . S
C734 C735 1.362 . S
C735 H725 0.930 . S
C735 C728 1.409 . S
C735 C734 1.362 . S
H736 C742 0.930 . S
H737 C745 0.930 . S
H738 C746 0.930 . S
H739 C747 0.930 . S
H740 C750 0.930 . S
H741 C751 0.930 . S
C742 H736 0.930 . S
C742 C743 1.355 . S
C742 C744 1.415 . S
C743 C742 1.355 . S
C743 C745 1.419 . S
C744 C742 1.415 . S
C744 C749 1.425 . S
C744 C751 1.409 . S
C745 H737 0.930 . S
C745 C743 1.419 . S
C745 C746 1.362 . S
C746 H738 0.930 . S
C746 C745 1.362 . S
C746 C749 1.409 . S
C747 H739 0.930 . S
C747 C748 1.355 . S
C747 C749 1.415 . S
C748 C747 1.355 . S
C748 C750 1.419 . S
C749 C744 1.425 . S
C749 C746 1.409 . S
C749 C747 1.415 . S
C750 H740 0.930 . S
C750 C748 1.419 . S
C750 C751 1.362 . S
C751 H741 0.930 . S
C751 C744 1.409 . S
C751 C750 1.362 . S
H752 C758 0.930 . S
H753 C761 0.930 . S
H754 C762 0.930 . S
H755 C763 0.930 . S
H756 C766 0.930 . S
H757 C767 0.930 . S
C758 H752 0.930 . S
C758 C759 1.355 . S
C758 C760 1.415 . S
C759 C758 1.355 . S
C759 C761 1.419 . S
C760 C758 1.415 . S
C760 C765 1.425 . S
C760 C767 1.409 . S
C761 H753 0.930 . S
C761 C759 1.419 . S
C761 C762 1.362 . S
C762 H754 0.930 . S
C762 C761 1.362 . S
C762 C765 1.409 . S
C763 H755 0.930 . S
C763 C764 1.355 . S
C763 C765 1.415 . S
C764 C763 1.355 . S
C764 C766 1.419 . S
C765 C760 1.425 . S
C765 C762 1.409 . S
C765 C763 1.415 . S
C766 H756 0.930 . S
C766 C764 1.419 . S
C766 C767 1.362 . S
C767 H757 0.930 . S
C767 C760 1.409 . S
C767 C766 1.362 . S
H768 C774 0.930 . S
H769 C777 0.930 . S
H770 C778 0.930 . S
H771 C779 0.930 . S
H772 C782 0.930 . S
H773 C783 0.930 . S
C774 H768 0.930 . S
C774 C775 1.355 . S
C774 C776 1.415 . S
C775 C774 1.355 . S
C775 C777 1.419 . S
C776 C774 1.415 . S
C776 C781 1.425 . S
C776 C783 1.409 . S
C777 H769 0.930 . S
C777 C775 1.419 . S
C777 C778 1.362 . S
C778 H770 0.930 . S
C778 C777 1.362 . S
C778 C781 1.409 . S
C779 H771 0.930 . S
C779 C780 1.355 . S
C779 C781 1.415 . S
C780 C779 1.355 . S
C780 C782 1.419 . S
C781 C776 1.425 . S
C781 C778 1.409 . S
C781 C779 1.415 . S
C782 H772 0.930 . S
C782 C780 1.419 . S
C782 C783 1.362 . S
C783 H773 0.930 . S
C783 C776 1.409 . S
C783 C782 1.362 . S
H784 C790 0.930 . S
H785 C793 0.930 . S
H786 C794 0.930 . S
H787 C795 0.930 . S
H788 C798 0.930 . S
H789 C799 0.930 . S
C790 H784 0.930 . S
C790 C791 1.355 . S
C790 C792 1.415 . S
C791 C790 1.355 . S
C791 C793 1.419 . S
C792 C790 1.415 . S
C792 C797 1.425 . S
C792 C799 1.409 . S
C793 H785 0.930 . S
C793 C791 1.419 . S
C793 C794 1.362 . S
C794 H786 0.930 . S
C794 C793 1.362 . S
C794 C797 1.409 . S
C795 H787 0.930 . S
C795 C796 1.355 . S
C795 C797 1.415 . S
C796 C795 1.355 . S
C796 C798 1.419 . S
C797 C792 1.425 . S
C797 C794 1.409 . S
C797 C795 1.415 . S
C798 H788 0.930 . S
C798 C796 1.419 . S
C798 C799 1.362 . S
C799 H789 0.930 . S
C799 C792 1.409 . S
C799 C798 1.362 . S
H800 C806 0.930 . S
H801 C809 0.930 . S
H802 C810 0.930 . S
H803 C811 0.930 . S
H804 C814 0.930 . S
H805 C815 0.930 . S
C806 H800 0.930 . S
C806 C807 1.355 . S
C806 C808 1.415 . S
C807 C806 1.355 . S
C807 C809 1.419 . S
C808 C806 1.415 . S
C808 C813 1.425 . S
C808 C815 1.409 . S
C809 H801 0.930 . S
C809 C807 1.419 . S
C809 C810 1.362 . S
C810 H802 0.930 . S
C810 C809 1.362 . S
C810 C813 1.409 . S
C811 H803 0.930 . S
C811 C812 1.355 . S
C811 C813 1.415 . S
C812 C811 1.355 . S
C812 C814 1.419 . S
C813 C808 1.425 . S
C813 C810 1.409 . S
C813 C811 1.415 . S
C814 H804 0.930 . S
C814 C812 1.419 . S
C814 C815 1.362 . S
C815 H805 0.930 . S
C815 C808 1.409 . S
C815 C814 1.362 . S
H816 C822 0.930 . S
H817 C825 0.930 . S
H818 C826 0.930 . S
H819 C827 0.930 . S
H820 C830 0.930 . S
H821 C831 0.930 . S
C822 H816 0.930 . S
C822 C823 1.355 . S
C822 C824 1.415 . S
C823 C822 1.355 . S
C823 C825 1.419 . S
C824 C822 1.415 . S
C824 C829 1.425 . S
C824 C831 1.409 . S
C825 H817 0.930 . S
C825 C823 1.419 . S
C825 C826 1.362 . S
C826 H818 0.930 . S
C826 C825 1.362 . S
C826 C829 1.409 . S
C827 H819 0.930 . S
C827 C828 1.355 . S
C827 C829 1.415 . S
C828 C827 1.355 . S
C828 C830 1.419 . S
C829 C824 1.425 . S
C829 C826 1.409 . S
C829 C827 1.415 . S
C830 H820 0.930 . S
C830 C828 1.419 . S
C830 C831 1.362 . S
C831 H821 0.930 . S
C831 C824 1.409 . S
C831 C830 1.362 . S
H832 C838 0.930 . S
H833 C841 0.930 . S
H834 C842 0.930 . S
H835 C843 0.930 . S
H836 C846 0.930 . S
H837 C847 0.930 . S
C838 H832 0.930 . S
C838 C839 1.355 . S
C838 C840 1.415 . S
C839 C838 1.355 . S
C839 C841 1.419 . S
C840 C838 1.415 . S
C840 C845 1.425 . S
C840 C847 1.409 . S
C841 H833 0.930 . S
C841 C839 1.419 . S
C841 C842 1.362 . S
C842 H834 0.930 . S
C842 C841 1.362 . S
C842 C845 1.409 . S
C843 H835 0.930 . S
C843 C844 1.355 . S
C843 C845 1.415 . S
C844 C843 1.355 . S
C844 C846 1.419 . S
C845 C840 1.425 . S
C845 C842 1.409 . S
C845 C843 1.415 . S
C846 H836 0.930 . S
C846 C844 1.419 . S
C846 C847 1.362 . S
C847 H837 0.930 . S
C847 C840 1.409 . S
C847 C846 1.362 . S
H848 C854 0.930 . S
H849 C857 0.930 . S
H850 C858 0.930 . S
H851 C859 0.930 . S
H852 C862 0.930 . S
H853 C863 0.930 . S
C854 H848 0.930 . S
C854 C855 1.355 . S
C854 C856 1.415 . S
C855 C854 1.355 . S
C855 C857 1.419 . S
C856 C854 1.415 . S
C856 C861 1.425 . S
C856 C863 1.409 . S
C857 H849 0.930 . S
C857 C855 1.419 . S
C857 C858 1.362 . S
C858 H850 0.930 . S
C858 C857 1.362 . S
C858 C861 1.409 . S
C859 H851 0.930 . S
C859 C860 1.355 . S
C859 C861 1.415 . S
C860 C859 1.355 . S
C860 C862 1.419 . S
C861 C856 1.425 . S
C861 C858 1.409 . S
C861 C859 1.415 . S
C862 H852 0.930 . S
C862 C860 1.419 . S
C862 C863 1.362 . S
C863 H853 0.930 . S
C863 C856 1.409 . S
C863 C862 1.362 . S
H864 C870 0.930 . S
H865 C873 0.930 . S
H866 C874 0.930 . S
H867 C875 0.930 . S
H868 C878 0.930 . S
H869 C879 0.930 . S
C870 H864 0.930 . S
C870 C871 1.355 . S
C870 C872 1.415 . S
C871 C870 1.355 . S
C871 C873 1.419 . S
C872 C870 1.415 . S
C872 C877 1.425 . S
C872 C879 1.409 . S
C873 H865 0.930 . S
C873 C871 1.419 . S
C873 C874 1.362 . S
C874 H866 0.930 . S
C874 C873 1.362 . S
C874 C877 1.409 . S
C875 H867 0.930 . S
C875 C876 1.355 . S
C875 C877 1.415 . S
C876 C875 1.355 . S
C876 C878 1.419 . S
C877 C872 1.425 . S
C877 C874 1.409 . S
C877 C875 1.415 . S
C878 H868 0.930 . S
C878 C876 1.419 . S
C878 C879 1.362 . S
C879 H869 0.930 . S
C879 C872 1.409 . S
C879 C878 1.362 . S
H880 C886 0.930 . S
H881 C889 0.930 . S
H882 C890 0.930 . S
H883 C891 0.930 . S
H884 C894 0.930 . S
H885 C895 0.930 . S
C886 H880 0.930 . S
C886 C887 1.355 . S
C886 C888 1.415 . S
C887 C886 1.355 . S
C887 C889 1.419 . S
C888 C886 1.415 . S
C888 C893 1.425 . S
C888 C895 1.409 . S
C889 H881 0.930 . S
C889 C887 1.419 . S
C889 C890 1.362 . S
C890 H882 0.930 . S
C890 C889 1.362 . S
C890 C893 1.409 . S
C891 H883 0.930 . S
C891 C892 1.355 . S
C891 C893 1.415 . S
C892 C891 1.355 . S
C892 C894 1.419 . S
C893 C888 1.425 . S
C893 C890 1.409 . S
C893 C891 1.415 . S
C894 H884 0.930 . S
C894 C892 1.419 . S
C894 C895 1.362 . S
C895 H885 0.930 . S
C895 C888 1.409 . S
C895 C894 1.362 . S
H896 C902 0.930 . S
H897 C905 0.930 . S
H898 C906 0.930 . S
H899 C907 0.930 . S
H900 C910 0.930 . S
H901 C911 0.930 . S
C902 H896 0.930 . S
C902 C903 1.355 . S
C902 C904 1.415 . S
C903 C902 1.355 . S
C903 C905 1.419 . S
C904 C902 1.415 . S
C904 C909 1.425 . S
C904 C911 1.409 . S
C905 H897 0.930 . S
C905 C903 1.419 . S
C905 C906 1.362 . S
C906 H898 0.930 . S
C906 C905 1.362 . S
C906 C909 1.409 . S
C907 H899 0.930 . S
C907 C908 1.355 . S
C907 C909 1.415 . S
C908 C907 1.355 . S
C908 C910 1.419 . S
C909 C904 1.425 . S
C909 C906 1.409 . S
C909 C907 1.415 . S
C910 H900 0.930 . S
C910 C908 1.419 . S
C910 C911 1.362 . S
C911 H901 0.930 . S
C911 C904 1.409 . S
C911 C910 1.362 . S
H912 C918 0.930 . S
H913 C921 0.930 . S
H914 C922 0.930 . S
H915 C923 0.930 . S
H916 C926 0.930 . S
H917 C927 0.930 . S
C918 H912 0.930 . S
C918 C919 1.355 . S
C918 C920 1.415 . S
C919 C918 1.355 . S
C919 C921 1.419 . S
C920 C918 1.415 . S
C920 C925 1.425 . S
C920 C927 1.409 . S
C921 H913 0.930 . S
C921 C919 1.419 . S
C921 C922 1.362 . S
C922 H914 0.930 . S
C922 C921 1.362 . S
C922 C925 1.409 . S
C923 H915 0.930 . S
C923 C924 1.355 . S
C923 C925 1.415 . S
C924 C923 1.355 . S
C924 C926 1.419 . S
C925 C920 1.425 . S
C925 C922 1.409 . S
C925 C923 1.415 . S
C926 H916 0.930 . S
C926 C924 1.419 . S
C926 C927 1.362 . S
C927 H917 0.930 . S
C927 C920 1.409 . S
C927 C926 1.362 . S
H928 C934 0.930 . S
H929 C937 0.930 . S
H930 C938 0.930 . S
H931 C939 0.930 . S
H932 C942 0.930 . S
H933 C943 0.930 . S
C934 H928 0.930 . S
C934 C935 1.355 . S
C934 C936 1.415 . S
C935 C934 1.355 . S
C935 C937 1.419 . S
C936 C934 1.415 . S
C936 C941 1.425 . S
C936 C943 1.409 . S
C937 H929 0.930 . S
C937 C935 1.419 . S
C937 C938 1.362 . S
C938 H930 0.930 . S
C938 C937 1.362 . S
C938 C941 1.409 . S
C939 H931 0.930 . S
C939 C940 1.355 . S
C939 C941 1.415 . S
C940 C939 1.355 . S
C940 C942 1.419 . S
C941 C936 1.425 . S
C941 C938 1.409 . S
C941 C939 1.415 . S
C942 H932 0.930 . S
C942 C940 1.419 . S
C942 C943 1.362 . S
C943 H933 0.930 . S
C943 C936 1.409 . S
C943 C942 1.362 . S
H944 C950 0.930 . S
H945 C953 0.930 . S
H946 C954 0.930 . S
H947 C955 0.930 . S
H948 C958 0.930 . S
H949 C959 0.930 . S
C950 H944 0.930 . S
C950 C951 1.355 . S
C950 C952 1.415 . S
C951 C950 1.355 . S
C951 C953 1.419 . S
C952 C950 1.415 . S
C952 C957 1.425 . S
C952 C959 1.409 . S
C953 H945 0.930 . S
C953 C951 1.419 . S
C953 C954 1.362 . S
C954 H946 0.930 . S
C954 C953 1.362 . S
C954 C957 1.409 . S
C955 H947 0.930 . S
C955 C956 1.355 . S
C955 C957 1.415 . S
C956 C955 1.355 . S
C956 C958 1.419 . S
C957 C952 1.425 . S
C957 C954 1.409 . S
C957 C955 1.415 . S
C958 H948 0.930 . S
C958 C956 1.419 . S
C958 C959 1.362 . S
C959 H949 0.930 . S
C959 C952 1.409 . S
C959 C958 1.362 . S
H960 C966 0.930 . S
H961 C969 0.930 . S
H962 C970 0.930 . S
H963 C971 0.930 . S
H964 C974 0.930 . S
H965 C975 0.930 . S
C966 H960 0.930 . S
C966 C967 1.355 . S
C966 C968 1.415 . S
C967 C966 1.355 . S
C967 C969 1.419 . S
C968 C966 1.415 . S
C968 C973 1.425 1_556 S
C968 C975 1.409 1_556 S
C969 H961 0.930 . S
C969 C967 1.419 . S
C969 C970 1.362 . S
C970 H962 0.930 . S
C970 C969 1.362 . S
C970 C973 1.409 1_556 S
C971 H963 0.930 . S
C971 C972 1.355 . S
C971 C973 1.415 . S
C972 C971 1.355 . S
C972 C974 1.419 . S
C973 C968 1.425 1_554 S
C973 C970 1.409 1_554 S
C973 C971 1.415 . S
C974 H964 0.930 . S
C974 C972 1.419 . S
C974 C975 1.362 . S
C975 H965 0.930 . S
C975 C968 1.409 1_554 S
C975 C974 1.362 . S
H976 C982 0.930 . S
H977 C985 0.930 . S
H978 C986 0.930 . S
H979 C987 0.930 . S
H980 C990 0.930 . S
H981 C991 0.930 . S
C982 H976 0.930 . S
C982 C983 1.355 . S
C982 C984 1.423 . S
C983 C982 1.355 . S
C983 C985 1.419 . S
C984 C982 1.423 . S
C984 C989 1.417 1_455 S
C984 C991 1.405 1_455 S
C985 H977 0.930 . S
C985 C983 1.419 . S
C985 C986 1.362 . S
C986 H978 0.930 . S
C986 C985 1.362 . S
C986 C989 1.405 1_455 S
C987 H979 0.930 . S
C987 C988 1.355 . S
C987 C989 1.423 . S
C988 C987 1.355 . S
C988 C990 1.419 . S
C989 C984 1.417 1_655 S
C989 C986 1.405 1_655 S
C989 C987 1.423 . S
C990 H980 0.930 . S
C990 C988 1.419 . S
C990 C991 1.362 . S
C991 H981 0.930 . S
C991 C984 1.405 1_655 S
C991 C990 1.362 . S
H992 C998 0.930 . S
H993 C1001 0.930 . S
H994 C1002 0.930 1_545 S
H995 C1003 0.930 . S
H996 C1006 0.930 . S
H997 C1007 0.930 1_565 S
C998 H992 0.930 . S
C998 C999 1.355 . S
C998 C1000 1.415 1_554 S
C999 C998 1.355 . S
C999 C1001 1.419 . S
C1000 C998 1.415 1_556 S
C1000 C1005 1.425 1_566 S
C1000 C1007 1.409 1_565 S
C1001 H993 0.930 . S
C1001 C999 1.419 . S
C1001 C1002 1.362 . S
C1002 H994 0.930 1_565 S
C1002 C1001 1.362 . S
C1002 C1005 1.409 1_565 S
C1003 H995 0.930 . S
C1003 C1004 1.355 . S
C1003 C1005 1.415 1_556 S
C1004 C1003 1.355 . S
C1004 C1006 1.419 . S
C1005 C1000 1.425 1_544 S
C1005 C1002 1.409 1_545 S
C1005 C1003 1.415 1_554 S
C1006 H996 0.930 . S
C1006 C1004 1.419 . S
C1006 C1007 1.362 . S
C1007 H997 0.930 1_545 S
C1007 C1000 1.409 1_545 S
C1007 C1006 1.362 . S
H1008 C1014 0.930 . S
H1009 C1017 0.930 . S
H1010 C1018 0.930 . S
H1011 C1019 0.930 . S
H1012 C1022 0.930 . S
H1013 C1023 0.930 . S
C1014 H1008 0.930 . S
C1014 C1015 1.355 . S
C1014 C1016 1.415 . S
C1015 C1014 1.355 . S
C1015 C1017 1.419 . S
C1016 C1014 1.415 . S
C1016 C1021 1.425 . S
C1016 C1023 1.409 . S
C1017 H1009 0.930 . S
C1017 C1015 1.419 . S
C1017 C1018 1.362 . S
C1018 H1010 0.930 . S
C1018 C1017 1.362 . S
C1018 C1021 1.409 . S
C1019 H1011 0.930 . S
C1019 C1020 1.355 . S
C1019 C1021 1.415 . S
C1020 C1019 1.355 . S
C1020 C1022 1.419 . S
C1021 C1016 1.425 . S
C1021 C1018 1.409 . S
C1021 C1019 1.415 . S
C1022 H1012 0.930 . S
C1022 C1020 1.419 . S
C1022 C1023 1.362 . S
C1023 H1013 0.930 . S
C1023 C1016 1.409 . S
C1023 C1022 1.362 . S
H1024 C1030 0.930 . S
H1025 C1033 0.930 . S
H1026 C1034 0.930 . S
H1027 C1035 0.930 . S
H1028 C1038 0.930 . S
H1029 C1039 0.930 . S
C1030 H1024 0.930 . S
C1030 C1031 1.355 . S
C1030 C1032 1.415 . S
C1031 C1030 1.355 . S
C1031 C1033 1.419 . S
C1032 C1030 1.415 . S
C1032 C1037 1.425 1_656 S
C1032 C1039 1.409 1_655 S
C1033 H1025 0.930 . S
C1033 C1031 1.419 . S
C1033 C1034 1.362 1_556 S
C1034 H1026 0.930 . S
C1034 C1033 1.362 1_554 S
C1034 C1037 1.409 1_655 S
C1035 H1027 0.930 . S
C1035 C1036 1.355 . S
C1035 C1037 1.415 . S
C1036 C1035 1.355 . S
C1036 C1038 1.419 . S
C1037 C1032 1.425 1_454 S
C1037 C1034 1.409 1_455 S
C1037 C1035 1.415 . S
C1038 H1028 0.930 . S
C1038 C1036 1.419 . S
C1038 C1039 1.362 1_554 S
C1039 H1029 0.930 . S
C1039 C1032 1.409 1_455 S
C1039 C1038 1.362 1_556 S
H1040 C1046 0.930 . S
H1041 C1049 0.930 . S
H1042 C1050 0.930 . S
H1043 C1051 0.930 . S
H1044 C1054 0.930 . S
H1045 C1055 0.930 . S
C1046 H1040 0.930 . S
C1046 C1047 1.355 . S
C1046 C1048 1.415 . S
C1047 C1046 1.355 . S
C1047 C1049 1.419 . S
C1048 C1046 1.415 . S
C1048 C1053 1.425 1_565 S
C1048 C1055 1.409 1_565 S
C1049 H1041 0.930 . S
C1049 C1047 1.419 . S
C1049 C1050 1.362 . S
C1050 H1042 0.930 . S
C1050 C1049 1.362 . S
C1050 C1053 1.409 1_565 S
C1051 H1043 0.930 . S
C1051 C1052 1.355 . S
C1051 C1053 1.415 . S
C1052 C1051 1.355 . S
C1052 C1054 1.419 . S
C1053 C1048 1.425 1_545 S
C1053 C1050 1.409 1_545 S
C1053 C1051 1.415 . S
C1054 H1044 0.930 . S
C1054 C1052 1.419 . S
C1054 C1055 1.362 . S
C1055 H1045 0.930 . S
C1055 C1048 1.409 1_545 S
C1055 C1054 1.362 . S
C487 C180 1.247 . S
C492 C4 1.262 . S
C503 C220 1.298 . S
C508 C44 1.307 . S
C519 C84 1.300 . S
C524 C20 1.291 . S
C535 C124 1.255 . S
C540 C60 1.239 . S
C551 C164 1.269 . S
C556 C100 1.255 . S
C567 C140 1.244 . S
C572 C204 1.259 . S
C583 C340 1.313 . S
C588 C244 1.321 . S
C599 C284 1.316 . S
C604 C380 1.308 . S
C615 C420 1.249 . S
C620 C324 1.264 . S
C631 C364 1.268 . S
C636 C460 1.254 . S
C647 C404 1.314 . S
C652 C260 1.306 . S
C663 C300 1.296 . S
C668 C444 1.305 . S
C679 C191 1.567 . S
C684 C25 1.577 . S
C695 C65 1.583 . S
C700 C231 1.572 . S
C711 C105 1.576 . S
C716 C31 1.569 . S
C727 C145 1.605 . S
C732 C71 1.596 . S
C743 C111 1.575 . S
C748 C185 1.586 . S
C759 C151 1.567 . S
C764 C225 1.576 . S
C775 C351 1.567 . S
C780 C265 1.575 . S
C791 C305 1.615 . S
C796 C391 1.607 . S
C807 C345 1.611 . S
C812 C431 1.609 . S
C823 C471 1.588 . S
C828 C385 1.592 . S
C839 C425 1.581 . S
C844 C271 1.576 . S
C855 C311 1.611 . S
C860 C465 1.613 . S
C871 C402 1.607 . S
C876 C2 1.648 . S
C887 C42 1.623 . S
C892 C442 1.613 . S
C903 C82 1.669 . S
C908 C242 1.616 . S
C919 C122 1.674 . S
C924 C282 1.619 . S
C935 C162 1.634 . S
C940 C322 1.684 . S
C951 C362 1.618 . S
C956 C202 1.672 . S
C967 C383 2.265 . S
C972 C23 2.275 . S
C983 C423 2.276 . S
C988 C63 2.287 . S
C999 C103 2.262 . S
C1004 C463 2.271 . S
C1015 C143 2.292 . S
C1020 C263 2.291 . S
C1031 C303 2.270 . S
C1036 C183 2.281 . S
C1047 C343 2.271 . S
C1052 C223 2.282 . S
