# Generated by pormake.
# Topology bcg, (8)-cn, num edge types: 1
# Building blocks:
#     Node 0, Type 0, BuildingBlock: XADDAJ01_clean_sbu_3, # of connection points: 8
#     Node 1, Type 0, BuildingBlock: XADDAJ01_clean_sbu_3, # of connection points: 8
#     Node 2, Type 0, BuildingBlock: XADDAJ01_clean_sbu_3, # of connection points: 8
#     Node 3, Type 0, BuildingBlock: XADDAJ01_clean_sbu_3, # of connection points: 8
#     Edge 4, Type (0, 0), BuildingBlock: EZIPEK_clean_linker_0, # of connection points: 2
#     Edge 5, Type (0, 0), BuildingBlock: EZIPEK_clean_linker_0, # of connection points: 2
#     Edge 6, Type (0, 0), BuildingBlock: EZIPEK_clean_linker_0, # of connection points: 2
#     Edge 7, Type (0, 0), BuildingBlock: EZIPEK_clean_linker_0, # of connection points: 2
#     Edge 8, Type (0, 0), BuildingBlock: EZIPEK_clean_linker_0, # of connection points: 2
#     Edge 9, Type (0, 0), BuildingBlock: EZIPEK_clean_linker_0, # of connection points: 2
#     Edge 10, Type (0, 0), BuildingBlock: EZIPEK_clean_linker_0, # of connection points: 2
#     Edge 11, Type (0, 0), BuildingBlock: EZIPEK_clean_linker_0, # of connection points: 2
#     Edge 12, Type (0, 0), BuildingBlock: EZIPEK_clean_linker_0, # of connection points: 2
#     Edge 13, Type (0, 0), BuildingBlock: EZIPEK_clean_linker_0, # of connection points: 2
#     Edge 14, Type (0, 0), BuildingBlock: EZIPEK_clean_linker_0, # of connection points: 2
#     Edge 15, Type (0, 0), BuildingBlock: EZIPEK_clean_linker_0, # of connection points: 2
#     Edge 16, Type (0, 0), BuildingBlock: EZIPEK_clean_linker_0, # of connection points: 2
#     Edge 17, Type (0, 0), BuildingBlock: EZIPEK_clean_linker_0, # of connection points: 2
#     Edge 18, Type (0, 0), BuildingBlock: EZIPEK_clean_linker_0, # of connection points: 2
#     Edge 19, Type (0, 0), BuildingBlock: EZIPEK_clean_linker_0, # of connection points: 2
# Relax obj value: 0.195
# Max RMSD: 0.287
# Mean RMSD: 0.287
data_MOF--net-bcg--node1-XADDAJ01_clean_sbu_3--edge1-EZIPEK_clean_linker_0
_symmetry_space_group_name_H-M    P1
_symmetry_Int_Tables_number       1
_symmetry_cell_setting            triclinic
loop_
_symmetry_equiv_pos_as_xyz
'x, y, z'
_cell_length_a     17.036231
_cell_length_b     12.499855
_cell_length_c     25.60853
_cell_angle_alpha  77.746696
_cell_angle_beta   89.363509
_cell_angle_gamma 89.699329
loop_
_atom_site_label
_atom_site_type_symbol
_atom_site_fract_x
_atom_site_fract_y
_atom_site_fract_z
_atom_type_partial_charge
C0 C 0.07535 0.17933 0.09277 0.0
C1 C 1.02242 0.13135 0.06316 0.0
C2 C 0.94478 0.11433 0.08106 0.0
C3 C 0.9263 0.12056 0.13362 0.0
C4 C 0.97911 0.16407 0.16439 0.0
C5 C 0.05366 0.19651 0.14328 0.0
O6 O 0.23849 0.02041 0.98867 0.0
Tb7 Tb 0.23284 0.19222 0.99227 0.0
Tb8 Tb 0.36474 0.02927 0.07114 0.0
O9 O 0.16236 0.20077 0.92125 0.0
O10 O 0.25409 -0.06034 0.07497 0.0
O11 O 0.14734 0.28422 1.02137 0.0
C12 C 0.4483 0.0073 0.99351 0.0
O13 O 0.20689 0.14621 0.07403 0.0
O14 O 0.35902 0.2013 0.07085 0.0
O15 O 0.34234 0.28367 0.98587 0.0
C16 C 0.15064 0.21965 0.06933 0.0
C17 C 0.39572 0.03386 0.18917 0.0
O18 O 0.31916 0.02178 0.19294 0.0
C19 C 0.21705 -0.05624 0.02951 0.0
C20 C 0.38525 0.27143 0.02916 0.0
O21 O 0.43098 0.02622 0.14403 0.0
C22 C 0.52033 0.05529 0.96742 0.0
C23 C 0.60777 0.09305 0.88992 0.0
C24 C 0.53678 0.05026 0.91393 0.0
C25 C 0.57546 0.09952 0.99699 0.0
C26 C 0.65088 0.12265 0.97611 0.0
C27 C 0.66292 0.13132 0.92134 0.0
C28 C 0.19514 0.20091 0.87455 0.0
O29 O 0.27146 0.21435 0.86928 0.0
O30 O 0.4554 -0.05499 0.04187 0.0
O31 O 0.38789 0.07367 0.98893 0.0
H32 H 1.04036 0.11479 0.02494 0.0
H33 H 0.86757 0.10068 0.14946 0.0
H34 H 0.09462 0.23392 0.16603 0.0
H35 H 0.49497 0.01369 0.89135 0.0
H36 H 0.56225 0.10482 0.03785 0.0
H37 H 0.71945 0.15811 0.90363 0.0
C38 C 0.57616 0.71995 0.07143 0.0
C39 C 0.51291 0.69283 0.04209 0.0
C40 C 0.43709 0.68284 0.06445 0.0
C41 C 0.42645 0.69569 0.1172 0.0
C42 C 0.49043 0.69803 0.15158 0.0
C43 C 0.56485 0.72067 0.1261 0.0
O44 O 0.73029 0.52022 0.98687 0.0
Tb45 Tb 0.7512 0.69255 0.98306 0.0
Tb46 Tb 0.85666 0.52715 0.06679 0.0
O47 O 0.71393 0.72378 0.90028 0.0
O48 O 0.73725 0.4627 0.07529 0.0
O49 O 0.65662 0.79381 0.99429 0.0
C50 C 0.93702 0.48083 0.9924 0.0
O51 O 0.71253 0.68365 0.06204 0.0
O52 O 0.87452 0.69533 0.07145 0.0
O53 O 0.8674 0.7677 0.98401 0.0
C54 C 0.65398 0.75086 0.04599 0.0
C55 C 0.88274 0.52725 0.18204 0.0
O56 O 0.80653 0.5437 0.17875 0.0
C57 C 0.69947 0.46319 0.03079 0.0
C58 C 0.90183 0.765 0.03017 0.0
O59 O 0.91994 0.50321 0.14094 0.0
C60 C 1.014 0.51001 0.96692 0.0
C61 C 0.10155 0.5209 0.88887 0.0
C62 C 1.02718 0.49863 0.91406 0.0
C63 C 0.07407 0.5503 0.9942 0.0
C64 C 0.15079 0.55549 0.97351 0.0
C65 C 0.16417 0.52985 0.92331 0.0
C66 C 0.73127 0.65474 0.86932 0.0
O67 O 0.78301 0.57655 0.88471 0.0
O68 O 0.93705 0.42115 0.04161 0.0
O69 O 0.88452 0.55958 0.98509 0.0
H70 H 0.5217 0.68454 1.00139 0.0
H71 H 0.3667 0.69881 0.13122 0.0
H72 H 0.61436 0.74338 0.14719 0.0
H73 H 0.97912 0.47043 0.89328 0.0
H74 H 0.06188 0.57196 0.03229 0.0
H75 H 0.22441 0.52238 0.91219 0.0
C76 C 0.07711 0.52886 0.46694 0.0
C77 C 1.01493 0.56924 0.49367 0.0
C78 C 0.93786 0.57085 0.47381 0.0
C79 C 0.92744 0.53943 0.42449 0.0
C80 C 0.99243 0.52535 0.39218 0.0
C81 C 0.06733 0.51786 0.41432 0.0
O82 O 0.2281 0.71041 0.55969 0.0
Tb83 Tb 0.24051 0.53812 0.56167 0.0
Tb84 Tb 0.36735 0.73016 0.47898 0.0
O85 O 0.20701 0.51211 0.6455 0.0
O86 O 0.24825 0.79539 0.47352 0.0
O87 O 0.14908 0.44284 0.54359 0.0
C88 C 0.44185 0.76625 0.55667 0.0
O89 O 0.21019 0.56288 0.48105 0.0
O90 O 0.36836 0.55928 0.47803 0.0
O91 O 0.35552 0.46421 0.56131 0.0
C92 C 0.15179 0.49353 0.4929 0.0
C93 C 0.42009 0.78148 0.36003 0.0
O94 O 0.36985 0.863 0.3554 0.0
C95 C 0.20289 0.77706 0.51655 0.0
C96 C 0.39863 0.48993 0.51799 0.0
O97 O 0.43657 0.72432 0.40777 0.0
C98 C 0.5157 0.73455 0.58483 0.0
C99 C 0.5951 0.72855 0.66304 0.0
C100 C 0.52151 0.7402 0.6388 0.0
C101 C 0.58113 0.70011 0.55868 0.0
C102 C 0.65633 0.69771 0.58155 0.0
C103 C 0.66219 0.72547 0.63155 0.0
C104 C 0.13815 0.48081 0.66686 0.0
O105 O 0.08367 0.44765 0.63822 0.0
O106 O 0.44732 0.82864 0.50809 0.0
O107 O 0.3889 0.68874 0.56102 0.0
H108 H 1.02606 0.59373 0.53106 0.0
H109 H 0.86893 0.53665 0.40862 0.0
H110 H 0.11803 0.50297 0.39085 0.0
H111 H 0.46976 0.75369 0.66159 0.0
H112 H 0.57417 0.68154 0.51952 0.0
H113 H 0.71939 0.73129 0.64889 0.0
C114 C 0.58539 0.06763 0.47147 0.0
C115 C 0.51484 0.06612 0.50041 0.0
C116 C 0.44581 0.10938 0.47461 0.0
C117 C 0.44546 0.13518 0.41835 0.0
C118 C 0.5119 0.11747 0.38812 0.0
C119 C 0.58392 0.09787 0.41514 0.0
O120 O 0.72905 0.2554 0.56156 0.0
Tb121 Tb 0.75164 0.08438 0.56407 0.0
Tb122 Tb 0.8596 0.21962 0.48503 0.0
O123 O 0.70867 0.06392 0.64532 0.0
O124 O 0.74969 0.30992 0.47395 0.0
O125 O 0.6571 -0.01223 0.55079 0.0
C126 C 0.94447 0.26361 0.55601 0.0
O127 O 0.72111 0.09357 0.48442 0.0
O128 O 0.88205 0.05038 0.48329 0.0
O129 O 0.86173 -0.00791 0.57112 0.0
C130 C 0.6598 0.03052 0.49895 0.0
C131 C 0.86921 0.20507 0.37225 0.0
O132 O 0.80535 0.14906 0.38851 0.0
C133 C 0.71343 0.32453 0.51716 0.0
C134 C 0.89756 -0.02089 0.52722 0.0
O135 O 0.90561 0.25512 0.405 0.0
C136 C 1.01515 0.21997 0.586 0.0
C137 C 0.0796 0.15671 0.67185 0.0
C138 C 1.01076 0.18177 0.64181 0.0
C139 C 0.08773 0.22095 0.55984 0.0
C140 C 0.15391 0.17341 0.58756 0.0
C141 C 0.14933 0.14277 0.64364 0.0
C142 C 0.7315 0.13038 0.67585 0.0
O143 O 0.78599 0.20375 0.65892 0.0
O144 O 0.95294 0.31003 0.50489 0.0
O145 O 0.8809 0.20379 0.56657 0.0
H146 H 0.51411 0.03698 0.54341 0.0
H147 H 0.39102 0.16176 0.39815 0.0
H148 H 0.63783 0.09639 0.39242 0.0
H149 H 0.95417 0.17658 0.66178 0.0
H150 H 0.09223 0.25304 0.51713 0.0
H151 H 0.20182 0.11236 0.66541 0.0
C152 C 0.74266 0.03422 0.05076 0.0
C153 C 0.72175 0.12538 1.0094 0.0
C154 C 0.85792 0.18906 1.00309 0.0
C155 C 0.87806 0.10192 0.0461 0.0
N156 N 0.84598 -0.072 0.10182 0.0
N157 N 0.75482 0.3039 0.95793 0.0
C158 C 0.82195 0.0205 0.06693 0.0
C159 C 0.77823 0.2071 0.98957 0.0
N160 N 0.6874 -0.03648 0.07715 0.0
N161 N 0.91407 0.25173 0.97277 0.0
H162 H 0.696 0.32138 0.94885 0.0
H163 H 0.79226 0.36995 0.94501 0.0
H164 H 0.97365 0.24695 0.98021 0.0
H165 H 0.90199 0.30235 0.93585 0.0
H166 H 0.69712 -0.08768 0.11424 0.0
H167 H 0.63024 -0.04235 0.06506 0.0
H168 H 0.90393 -0.08301 0.11451 0.0
H169 H 0.8113 0.85887 0.11433 0.0
C170 C 0.26151 0.68794 0.9712 0.0
C171 C 0.21854 0.59656 1.00026 0.0
C172 C 0.32665 0.55255 0.0633 0.0
C173 C 0.36786 0.64728 0.03664 0.0
N174 N 0.37554 0.80475 0.96373 0.0
N175 N 0.20268 0.45908 0.08175 0.0
C176 C 0.3358 0.71451 0.98991 0.0
C177 C 0.24858 0.53429 0.04875 0.0
N178 N 0.23122 0.74852 0.92494 0.0
N179 N 0.36394 0.47688 0.10138 0.0
H180 H 0.14549 0.44136 0.0731 0.0
H181 H 0.2183 0.42189 0.1206 0.0
H182 H 0.42301 0.48346 0.11055 0.0
H183 H 0.33888 0.40272 0.11998 0.0
H184 H 0.26368 0.80318 0.89667 0.0
H185 H 0.17282 0.74255 0.91407 0.0
H186 H 0.35088 0.86721 0.93514 0.0
H187 H 0.43413 0.81784 0.97072 0.0
C188 C 0.74542 0.7154 0.50012 0.0
C189 C 0.72872 0.66533 0.55428 0.0
C190 C 0.85328 0.56113 0.55806 0.0
C191 C 0.86844 0.60796 0.50303 0.0
N192 N 0.82395 0.72623 0.42117 0.0
N193 N 0.77424 0.55013 0.63731 0.0
C194 C 0.81283 0.68347 0.47423 0.0
C195 C 0.78495 0.59167 0.5838 0.0
N196 N 0.7014 0.80201 0.47421 0.0
N197 N 0.89986 0.47916 0.58537 0.0
H198 H 0.71974 0.54329 0.6564 0.0
H199 H 0.82019 0.52226 0.66327 0.0
H200 H 0.95303 0.45583 0.57157 0.0
H201 H 0.88353 0.42728 0.62122 0.0
H202 H 0.7179 0.8533 0.43823 0.0
H203 H 0.65168 0.83108 0.49021 0.0
H204 H 0.7788 0.7573 0.39508 0.0
H205 H 0.87893 0.73099 0.40347 0.0
C206 C 0.22772 0.1048 0.51401 0.0
C207 C 0.22857 0.15815 0.55809 0.0
C208 C 0.37176 0.179 0.54819 0.0
C209 C 0.37194 0.12152 0.50566 0.0
N210 N 0.30077 0.01468 0.45394 0.0
N211 N 0.30234 0.25605 0.6134 0.0
C212 C 0.29978 0.08156 0.48985 0.0
C213 C 0.30085 0.19622 0.57444 0.0
N214 N 0.15826 0.07237 0.49618 0.0
N215 N 0.43757 0.22531 0.56325 0.0
H216 H 0.25242 0.29075 0.62695 0.0
H217 H 0.35442 0.27673 0.62994 0.0
H218 H 0.4923 0.22751 0.54457 0.0
H219 H 0.4923 0.22751 0.54457 0.0
H220 H 0.15071 0.05564 0.45849 0.0
H221 H 0.10643 0.06384 0.51839 0.0
H222 H 0.25156 -0.00811 0.43545 0.0
H223 H 0.35166 -0.02355 0.44405 0.0
C224 C 0.59525 0.3258 0.0718 0.0
C225 C 0.62043 0.41111 0.02958 0.0
C226 C 0.50178 0.38034 0.98164 0.0
C227 C 0.46706 0.31828 0.02922 0.0
N228 N 0.48352 0.2645 0.12643 0.0
N229 N 0.57722 0.54231 0.95027 0.0
C230 C 0.51428 0.29987 0.0765 0.0
C231 C 0.56788 0.44568 0.9861 0.0
N232 N 0.64734 0.26687 0.10676 0.0
N233 N 0.47603 0.37455 0.93205 0.0
H234 H 0.61558 0.6025 0.95637 0.0
H235 H 0.537 0.56998 0.91989 0.0
H236 H 0.44016 0.31225 0.92496 0.0
H237 H 0.50196 0.41956 0.89728 0.0
H238 H 0.62994 0.19947 0.13606 0.0
H239 H 0.70796 0.27473 0.10162 0.0
H240 H 0.51757 0.25774 0.16061 0.0
H241 H 0.42397 0.25975 0.13468 0.0
C242 C 0.60789 0.40935 0.56537 0.0
C243 C 0.64437 0.39965 0.51639 0.0
C244 C 0.52353 0.45849 0.46855 0.0
C245 C 0.48446 0.46345 0.51762 0.0
N246 N 0.49349 0.45237 0.61314 0.0
N247 N 0.64837 0.47361 0.42167 0.0
C248 C 0.52808 0.4426 0.56604 0.0
C249 C 0.60603 0.44332 0.46795 0.0
N250 N 0.65171 0.39561 0.61066 0.0
N251 N 0.48198 0.45824 0.42323 0.0
H252 H 0.70952 0.47717 0.42137 0.0
H253 H 0.62326 0.51081 0.38542 0.0
H254 H 0.42108 0.45266 0.42255 0.0
H255 H 0.50846 0.44841 0.3877 0.0
H256 H 0.63057 0.40391 0.64782 0.0
H257 H 0.71237 0.3864 0.61018 0.0
H258 H 0.51067 0.40656 0.65006 0.0
H259 H 0.44816 0.50708 0.61564 0.0
C260 C 0.11409 0.80433 0.07087 0.0
C261 C 0.14118 -0.11675 0.02653 0.0
C262 C 1.00805 -0.1025 0.98925 0.0
C263 C 0.97996 0.81984 0.03383 0.0
N264 N 1.00407 0.7367 0.12732 0.0
N265 N 0.11919 -0.04528 0.93239 0.0
C266 C 1.03223 0.78271 0.07758 0.0
C267 C 0.08982 -0.08379 0.98246 0.0
N268 N 0.16696 0.74347 0.10453 0.0
N269 N 0.95656 -0.04015 0.955 0.0
H270 H 0.17873 -0.04828 0.92372 0.0
H271 H 0.08397 -0.0299 0.89856 0.0
H272 H 0.8961 -0.04229 0.962 0.0
H273 H 0.97459 0.02475 0.92458 0.0
H274 H 0.151 0.67651 0.13443 0.0
H275 H 0.22728 0.74901 0.09719 0.0
H276 H 1.0397 0.71609 0.1608 0.0
H277 H 0.94513 0.73753 0.13768 0.0
C278 C 1.01195 0.86759 0.57279 0.0
C279 C 0.96571 -0.09819 0.52663 0.0
C280 C 0.07138 0.83898 0.47286 0.0
C281 C 0.12192 0.82427 0.51782 0.0
N282 N 0.14382 0.85958 0.60582 0.0
N283 N 0.94393 -0.10381 0.43453 0.0
C284 C 0.09301 0.84713 0.56665 0.0
C285 C 0.99384 -0.1184 0.47687 0.0
N286 N 0.97894 0.85099 0.62263 0.0
N287 N 0.09657 0.81033 0.42682 0.0
H288 H 0.88381 -0.09174 0.43863 0.0
H289 H 0.95964 -0.10864 0.39583 0.0
H290 H 0.14402 0.75866 0.42499 0.0
H291 H 0.07018 0.8354 0.38995 0.0
H292 H 1.01088 0.8221 0.65728 0.0
H293 H 0.91846 0.84799 0.62901 0.0
H294 H 0.12561 -0.11437 0.63998 0.0
H295 H 0.20464 0.86044 0.60075 0.0
C296 C 0.45067 0.18944 0.29786 0.0
C297 C 0.50139 0.11244 0.32989 0.0
C298 C 0.50746 0.01435 0.25567 0.0
C299 C 0.43951 0.07074 0.23284 0.0
N300 N 0.34855 0.22131 0.23162 0.0
N301 N 0.57824 -0.05586 0.33429 0.0
C302 C 0.41174 0.16125 0.2537 0.0
C303 C 0.53138 0.025 0.30724 0.0
N304 N 0.44192 0.29122 0.30864 0.0
N305 N 0.54747 -0.05521 0.23039 0.0
H306 H 0.59264 -0.06798 0.37448 0.0
H307 H 0.59264 -0.06798 0.37448 0.0
H308 H 0.5317 -0.07097 0.19366 0.0
H309 H 0.5998 -0.09287 0.24541 0.0
H310 H 0.41137 0.35452 0.28399 0.0
H311 H 0.47324 0.31523 0.33897 0.0
H312 H 0.32067 0.27892 0.24954 0.0
H313 H 0.32195 0.21126 0.19656 0.0
C314 C 0.53797 0.6855 0.24913 0.0
C315 C 0.47661 0.68621 0.21195 0.0
C316 C 0.38031 0.70679 0.28059 0.0
C317 C 0.44119 0.73533 0.31243 0.0
N318 N 0.57855 0.71735 0.33573 0.0
N319 N 0.35366 0.58946 0.22014 0.0
C320 C 0.52049 0.71135 0.30013 0.0
C321 C 0.40048 0.66599 0.23484 0.0
N322 N 0.60955 0.64818 0.23696 0.0
N323 N 0.30324 0.7119 0.29513 0.0
H324 H 0.3743 0.54047 0.19465 0.0
H325 H 0.3004 0.56398 0.23912 0.0
H326 H 0.28478 0.72702 0.33184 0.0
H327 H 0.25776 0.70231 0.26954 0.0
H328 H 0.65746 0.63484 0.26249 0.0
H329 H 0.65746 0.63484 0.26249 0.0
H330 H 0.63821 0.71652 0.32683 0.0
H331 H 0.56737 0.72795 0.37435 0.0
C332 C 0.64336 0.79661 0.73978 0.0
C333 C 0.60586 0.71214 0.72154 0.0
C334 C 0.64673 0.58319 0.80333 0.0
C335 C 0.69305 0.66767 0.81675 0.0
N336 N 0.75391 0.84326 0.78477 0.0
N337 N 0.5734 0.52119 0.73437 0.0
C338 C 0.69622 0.77077 0.78176 0.0
C339 C 0.60731 0.60394 0.75322 0.0
N340 N 0.63291 -0.09719 0.71535 0.0
N341 N 0.64002 0.48444 0.83815 0.0
H342 H 0.53968 0.53637 0.69991 0.0
H343 H 0.58076 0.43851 0.75148 0.0
H344 H 0.66821 0.46675 0.87482 0.0
H345 H 0.60346 0.42186 0.83209 0.0
H346 H 0.59255 -0.07205 0.68472 0.0
H347 H 0.59255 -0.07205 0.68472 0.0
H348 H 0.80048 0.82646 0.8115 0.0
H349 H 0.80048 0.82646 0.8115 0.0
C350 C 0.70824 0.05013 0.82528 0.0
C351 C 0.63169 0.08963 0.83399 0.0
C352 C 0.61744 0.14833 0.73672 0.0
C353 C 0.69753 0.12119 0.72981 0.0
N354 N 0.82232 0.05824 0.77126 0.0
N355 N 0.52015 0.1995 0.79668 0.0
C356 C 0.74402 0.07913 0.77489 0.0
C357 C 0.58743 0.14434 0.78932 0.0
N358 N 0.74952 -0.01641 0.86472 0.0
N359 N 0.5701 0.17836 0.6933 0.0
H360 H 0.49774 0.20345 0.83423 0.0
H361 H 0.49062 0.25034 0.76547 0.0
H362 H 0.59047 0.18647 0.65411 0.0
H363 H 0.5095 0.18742 0.69645 0.0
H364 H 0.72646 -0.05089 0.90244 0.0
H365 H 0.72646 -0.05089 0.90244 0.0
H366 H 0.85478 0.07335 0.73568 0.0
H367 H 0.85478 0.07335 0.73568 0.0
C368 C 0.94412 0.62977 0.30465 0.0
C369 C 0.9813 0.53458 0.33372 0.0
C370 C 0.98627 0.4658 0.25129 0.0
C371 C 0.92534 0.53954 0.23062 0.0
N372 N 0.8545 0.7067 0.23484 0.0
N373 N 0.04993 0.36586 0.33178 0.0
C374 C 0.90615 0.62593 0.25653 0.0
C375 C 1.00777 0.45411 0.30595 0.0
N376 N 0.95232 0.72657 0.32033 0.0
N377 N 1.0221 0.40929 0.21783 0.0
H378 H 0.05876 0.34853 0.37289 0.0
H379 H 0.0725 0.30583 0.31333 0.0
H380 H 0.07136 0.35964 0.22771 0.0
H381 H 0.07136 0.35964 0.22771 0.0
H382 H 0.93255 0.80129 0.29796 0.0
H383 H 0.98772 0.73268 0.35246 0.0
H384 H 0.83245 0.7629 0.25616 0.0
H385 H 0.83261 0.71678 0.19631 0.0
C386 C 0.85788 0.25109 0.27397 0.0
C387 C 0.90144 0.20231 0.3194 0.0
C388 C 0.99333 0.12267 0.26398 0.0
C389 C 0.95333 0.17894 0.21778 0.0
N390 N 0.84366 0.29672 0.18012 0.0
N391 N 1.0155 0.10247 0.3588 0.0
C392 C 0.88476 0.24205 0.22302 0.0
C393 C 0.97063 0.14118 0.31481 0.0
N394 N 0.79141 0.3103 0.27895 0.0
N395 N 0.04893 0.04543 0.25978 0.0
H396 H 0.99996 0.1112 0.39714 0.0
H397 H 0.07134 0.06919 0.35687 0.0
H398 H 0.06517 0.02571 0.2236 0.0
H399 H 0.07344 -0.00731 0.29257 0.0
H400 H 0.75707 0.34603 0.24631 0.0
H401 H 0.77106 0.3249 0.31539 0.0
H402 H 0.86028 0.30365 0.14025 0.0
H403 H 0.86028 0.30365 0.14025 0.0
C404 C 0.17483 0.0858 0.80546 0.0
C405 C 0.14877 0.17139 0.83032 0.0
C406 C 0.05227 0.22682 0.75926 0.0
C407 C 0.0834 0.14699 0.73178 0.0
N408 N 0.13906 -0.03358 0.74655 0.0
N409 N 1.04112 0.29315 0.84054 0.0
C410 C 0.13322 0.0651 0.76096 0.0
C411 C 0.07958 0.22976 0.81111 0.0
N412 N 0.23908 0.02385 0.82376 0.0
N413 N 0.99913 0.30501 0.7378 0.0
H414 H 0.05743 0.29876 0.8788 0.0
H415 H 0.98947 0.33537 0.82759 0.0
H416 H 0.97655 0.31797 0.69946 0.0
H417 H 0.97655 0.31797 0.69946 0.0
H418 H 0.26487 -0.0305 0.80285 0.0
H419 H 0.26862 0.02935 0.85847 0.0
H420 H 0.16982 -0.10001 0.76866 0.0
H421 H 0.10456 -0.05162 0.71616 0.0
C422 C 0.18489 0.46063 0.76017 0.0
C423 C 0.12339 0.49005 0.72321 0.0
C424 C 0.04916 0.55978 0.79241 0.0
C425 C 0.11259 0.5293 0.8286 0.0
N426 N 0.25377 0.54763 0.81923 0.0
N427 N 1.00308 0.59209 0.70013 0.0
C428 C 0.18528 0.50475 0.80619 0.0
C429 C 0.0566 0.54695 0.73802 0.0
N430 N 0.24541 0.39532 0.75057 0.0
N431 N 0.98494 0.60666 0.81057 0.0
H432 H 1.0092 0.59038 0.65986 0.0
H433 H 0.9548 0.63854 0.70685 0.0
H434 H 0.93355 0.62903 0.7893 0.0
H435 H 0.93355 0.62903 0.7893 0.0
H436 H 0.29068 0.37286 0.77792 0.0
H437 H 0.24567 0.35562 0.71859 0.0
H438 H 0.30736 0.5338 0.80156 0.0
H439 H 0.25365 0.61483 0.83745 0.0
loop_
_geom_bond_atom_site_label_1
_geom_bond_atom_site_label_2
_geom_bond_distance
_geom_bond_site_symmetry_2
_ccdc_geom_bond_type
C0 C1 1.386 1_455 S
C0 C5 1.384 . S
C0 C16 1.497 . S
C1 C0 1.386 1_655 S
C1 C2 1.393 . S
C1 H32 0.932 . S
C2 C1 1.393 . S
C2 C3 1.387 . S
C3 C2 1.387 . S
C3 C4 1.392 . S
C3 H33 0.930 . S
C4 C3 1.392 . S
C4 C5 1.402 1_655 S
C5 C0 1.384 . S
C5 C4 1.402 1_455 S
C5 H34 0.930 . S
O6 Tb7 2.288 . S
O6 C19 1.257 1_556 S
Tb7 O6 2.288 . S
Tb7 O9 2.303 . S
Tb7 O11 2.430 . S
Tb7 O13 2.459 1_556 S
Tb7 O15 2.301 . S
Tb7 C16 2.808 1_556 S
Tb8 O10 2.301 1_545 S
Tb8 C12 2.808 1_554 S
Tb8 O14 2.288 . S
Tb8 O21 2.303 . S
Tb8 O30 2.430 . S
Tb8 O31 2.459 1_554 S
O9 Tb7 2.303 . S
O9 C28 1.255 . S
O10 Tb8 2.301 1_565 S
O10 C19 1.237 1_565 S
O11 Tb7 2.430 . S
O11 C16 1.248 1_556 S
C12 Tb8 2.808 1_556 S
C12 C22 1.497 . S
C12 O30 1.248 1_556 S
C12 O31 1.260 . S
O13 Tb7 2.459 1_554 S
O13 C16 1.260 . S
O14 Tb8 2.288 . S
O14 C20 1.257 . S
O15 Tb7 2.301 . S
O15 C20 1.237 1_556 S
C16 C0 1.497 . S
C16 Tb7 2.808 1_554 S
C16 O11 1.248 1_554 S
C16 O13 1.260 . S
C17 O18 1.255 . S
C17 O21 1.255 . S
O18 C17 1.255 . S
C19 O6 1.257 1_554 S
C19 O10 1.237 1_545 S
C20 O14 1.257 . S
C20 O15 1.237 1_554 S
O21 Tb8 2.303 . S
O21 C17 1.255 . S
C22 C12 1.497 . S
C22 C24 1.384 . S
C22 C25 1.386 . S
C23 C24 1.402 . S
C23 C27 1.392 . S
C24 C22 1.384 . S
C24 C23 1.402 . S
C24 H35 0.930 . S
C25 C22 1.386 . S
C25 C26 1.393 . S
C25 H36 0.932 . S
C26 C25 1.393 . S
C26 C27 1.387 . S
C27 C23 1.392 . S
C27 C26 1.387 . S
C27 H37 0.930 . S
C28 O9 1.255 . S
C28 O29 1.255 . S
O29 C28 1.255 . S
O30 Tb8 2.430 . S
O30 C12 1.248 1_554 S
O31 Tb8 2.459 1_556 S
O31 C12 1.260 . S
H32 C1 0.932 . S
H33 C3 0.930 . S
H34 C5 0.930 . S
H35 C24 0.930 . S
H36 C25 0.932 . S
H37 C27 0.930 . S
C38 C39 1.386 . S
C38 C43 1.384 . S
C38 C54 1.497 . S
C39 C38 1.386 . S
C39 C40 1.393 . S
C39 H70 0.932 . S
C40 C39 1.393 . S
C40 C41 1.387 . S
C41 C40 1.387 . S
C41 C42 1.392 . S
C41 H71 0.930 . S
C42 C41 1.392 . S
C42 C43 1.402 . S
C43 C38 1.384 . S
C43 C42 1.402 . S
C43 H72 0.930 . S
O44 Tb45 2.288 . S
O44 C57 1.257 1_556 S
Tb45 O44 2.288 . S
Tb45 O47 2.303 . S
Tb45 O49 2.430 . S
Tb45 O51 2.459 1_556 S
Tb45 O53 2.301 1_565 S
Tb45 C54 2.808 1_556 S
Tb46 O48 2.301 . S
Tb46 C50 2.808 1_554 S
Tb46 O52 2.288 . S
Tb46 O59 2.303 . S
Tb46 O68 2.430 . S
Tb46 O69 2.459 1_554 S
O47 Tb45 2.303 . S
O47 C66 1.255 . S
O48 Tb46 2.301 . S
O48 C57 1.237 . S
O49 Tb45 2.430 . S
O49 C54 1.248 1_556 S
C50 Tb46 2.808 1_556 S
C50 C60 1.497 . S
C50 O68 1.248 1_556 S
C50 O69 1.260 . S
O51 Tb45 2.459 1_554 S
O51 C54 1.260 . S
O52 Tb46 2.288 . S
O52 C58 1.257 . S
O53 Tb45 2.301 1_545 S
O53 C58 1.237 1_546 S
C54 C38 1.497 . S
C54 Tb45 2.808 1_554 S
C54 O49 1.248 1_554 S
C54 O51 1.260 . S
C55 O56 1.255 . S
C55 O59 1.255 . S
O56 C55 1.255 . S
C57 O44 1.257 1_554 S
C57 O48 1.237 . S
C58 O52 1.257 . S
C58 O53 1.237 1_564 S
O59 Tb46 2.303 . S
O59 C55 1.255 . S
C60 C50 1.497 . S
C60 C62 1.384 . S
C60 C63 1.386 1_655 S
C61 C62 1.402 1_455 S
C61 C65 1.392 . S
C62 C60 1.384 . S
C62 C61 1.402 1_655 S
C62 H73 0.930 . S
C63 C60 1.386 1_455 S
C63 C64 1.393 . S
C63 H74 0.932 . S
C64 C63 1.393 . S
C64 C65 1.387 . S
C65 C61 1.392 . S
C65 C64 1.387 . S
C65 H75 0.930 . S
C66 O47 1.255 . S
C66 O67 1.255 . S
O67 C66 1.255 . S
O68 Tb46 2.430 . S
O68 C50 1.248 1_554 S
O69 Tb46 2.459 1_556 S
O69 C50 1.260 . S
H70 C39 0.932 . S
H71 C41 0.930 . S
H72 C43 0.930 . S
H73 C62 0.930 . S
H74 C63 0.932 . S
H75 C65 0.930 . S
C76 C77 1.386 1_455 S
C76 C81 1.384 . S
C76 C92 1.497 . S
C77 C76 1.386 1_655 S
C77 C78 1.393 . S
C77 H108 0.932 . S
C78 C77 1.393 . S
C78 C79 1.387 . S
C79 C78 1.387 . S
C79 C80 1.392 . S
C79 H109 0.930 . S
C80 C79 1.392 . S
C80 C81 1.402 1_655 S
C81 C76 1.384 . S
C81 C80 1.402 1_455 S
C81 H110 0.930 . S
O82 Tb83 2.288 . S
O82 C95 1.257 . S
Tb83 O82 2.288 . S
Tb83 O85 2.303 . S
Tb83 O87 2.430 . S
Tb83 O89 2.459 . S
Tb83 O91 2.301 . S
Tb83 C92 2.808 . S
Tb84 O86 2.301 1_565 S
Tb84 C88 2.808 . S
Tb84 O90 2.288 . S
Tb84 O97 2.303 . S
Tb84 O106 2.430 . S
Tb84 O107 2.459 . S
O85 Tb83 2.303 . S
O85 C104 1.255 . S
O86 Tb84 2.301 1_545 S
O86 C95 1.237 1_545 S
O87 Tb83 2.430 . S
O87 C92 1.248 . S
C88 Tb84 2.808 . S
C88 C98 1.497 . S
C88 O106 1.248 . S
C88 O107 1.260 . S
O89 Tb83 2.459 . S
O89 C92 1.260 . S
O90 Tb84 2.288 . S
O90 C96 1.257 . S
O91 Tb83 2.301 . S
O91 C96 1.237 . S
C92 C76 1.497 . S
C92 Tb83 2.808 . S
C92 O87 1.248 . S
C92 O89 1.260 . S
C93 O94 1.255 . S
C93 O97 1.255 . S
O94 C93 1.255 . S
C95 O82 1.257 . S
C95 O86 1.237 1_565 S
C96 O90 1.257 . S
C96 O91 1.237 . S
O97 Tb84 2.303 . S
O97 C93 1.255 . S
C98 C88 1.497 . S
C98 C100 1.384 . S
C98 C101 1.386 . S
C99 C100 1.402 . S
C99 C103 1.392 . S
C100 C98 1.384 . S
C100 C99 1.402 . S
C100 H111 0.930 . S
C101 C98 1.386 . S
C101 C102 1.393 . S
C101 H112 0.932 . S
C102 C101 1.393 . S
C102 C103 1.387 . S
C103 C99 1.392 . S
C103 C102 1.387 . S
C103 H113 0.930 . S
C104 O85 1.255 . S
C104 O105 1.255 . S
O105 C104 1.255 . S
O106 Tb84 2.430 . S
O106 C88 1.248 . S
O107 Tb84 2.459 . S
O107 C88 1.260 . S
H108 C77 0.932 . S
H109 C79 0.930 . S
H110 C81 0.930 . S
H111 C100 0.930 . S
H112 C101 0.932 . S
H113 C103 0.930 . S
C114 C115 1.386 . S
C114 C119 1.384 . S
C114 C130 1.497 . S
C115 C114 1.386 . S
C115 C116 1.393 . S
C115 H146 0.932 . S
C116 C115 1.393 . S
C116 C117 1.387 . S
C117 C116 1.387 . S
C117 C118 1.392 . S
C117 H147 0.930 . S
C118 C117 1.392 . S
C118 C119 1.402 . S
C119 C114 1.384 . S
C119 C118 1.402 . S
C119 H148 0.930 . S
O120 Tb121 2.288 . S
O120 C133 1.257 . S
Tb121 O120 2.288 . S
Tb121 O123 2.303 . S
Tb121 O125 2.430 . S
Tb121 O127 2.459 . S
Tb121 O129 2.301 1_545 S
Tb121 C130 2.808 . S
Tb122 O124 2.301 . S
Tb122 C126 2.808 . S
Tb122 O128 2.288 . S
Tb122 O135 2.303 . S
Tb122 O144 2.430 . S
Tb122 O145 2.459 . S
O123 Tb121 2.303 . S
O123 C142 1.255 . S
O124 Tb122 2.301 . S
O124 C133 1.237 . S
O125 Tb121 2.430 . S
O125 C130 1.248 . S
C126 Tb122 2.808 . S
C126 C136 1.497 . S
C126 O144 1.248 . S
C126 O145 1.260 . S
O127 Tb121 2.459 . S
O127 C130 1.260 . S
O128 Tb122 2.288 . S
O128 C134 1.257 . S
O129 Tb121 2.301 1_565 S
O129 C134 1.237 1_565 S
C130 C114 1.497 . S
C130 Tb121 2.808 . S
C130 O125 1.248 . S
C130 O127 1.260 . S
C131 O132 1.255 . S
C131 O135 1.255 . S
O132 C131 1.255 . S
C133 O120 1.257 . S
C133 O124 1.237 . S
C134 O128 1.257 . S
C134 O129 1.237 1_545 S
O135 Tb122 2.303 . S
O135 C131 1.255 . S
C136 C126 1.497 . S
C136 C138 1.384 . S
C136 C139 1.386 1_655 S
C137 C138 1.402 1_455 S
C137 C141 1.392 . S
C138 C136 1.384 . S
C138 C137 1.402 1_655 S
C138 H149 0.930 . S
C139 C136 1.386 1_455 S
C139 C140 1.393 . S
C139 H150 0.932 . S
C140 C139 1.393 . S
C140 C141 1.387 . S
C141 C137 1.392 . S
C141 C140 1.387 . S
C141 H151 0.930 . S
C142 O123 1.255 . S
C142 O143 1.255 . S
O143 C142 1.255 . S
O144 Tb122 2.430 . S
O144 C126 1.248 . S
O145 Tb122 2.459 . S
O145 C126 1.260 . S
H146 C115 0.932 . S
H147 C117 0.930 . S
H148 C119 0.930 . S
H149 C138 0.930 . S
H150 C139 0.932 . S
H151 C141 0.930 . S
C152 C153 1.363 1_554 S
C152 C158 1.379 . S
C152 N160 1.356 . S
C153 C152 1.363 1_556 S
C153 C159 1.363 . S
C154 C155 1.363 1_556 S
C154 C159 1.379 . S
C154 N161 1.356 . S
C155 C154 1.363 1_554 S
C155 C158 1.363 . S
N156 C158 1.356 . S
N156 H168 0.984 . S
N156 H169 0.985 . S
N157 C159 1.356 . S
N157 H162 0.984 . S
N157 H163 0.985 . S
C158 C152 1.379 . S
C158 C155 1.363 . S
C158 N156 1.356 . S
C159 C153 1.363 . S
C159 C154 1.379 . S
C159 N157 1.356 . S
N160 C152 1.356 . S
N160 H166 0.984 1_545 S
N160 H167 0.984 1_554 S
N161 C154 1.356 . S
N161 H164 0.984 1_556 S
N161 H165 0.985 . S
H162 N157 0.984 . S
H163 N157 0.985 . S
H164 N161 0.984 1_554 S
H165 N161 0.985 . S
H166 N160 0.984 1_565 S
H167 N160 0.984 1_556 S
H168 N156 0.984 . S
H169 N156 0.985 . S
C170 C171 1.363 . S
C170 C176 1.379 . S
C170 N178 1.356 . S
C171 C170 1.363 . S
C171 C177 1.363 1_556 S
C172 C173 1.363 . S
C172 C177 1.379 . S
C172 N179 1.356 . S
C173 C172 1.363 . S
C173 C176 1.363 1_554 S
N174 C176 1.356 . S
N174 H186 0.984 1_565 S
N174 H187 0.985 1_556 S
N175 C177 1.356 . S
N175 H180 0.984 1_554 S
N175 H181 0.985 . S
C176 C170 1.379 . S
C176 C173 1.363 1_556 S
C176 N174 1.356 . S
C177 C171 1.363 1_554 S
C177 C172 1.379 . S
C177 N175 1.356 . S
N178 C170 1.356 . S
N178 H184 0.984 . S
N178 H185 0.984 . S
N179 C172 1.356 . S
N179 H182 0.984 . S
N179 H183 0.985 . S
H180 N175 0.984 1_556 S
H181 N175 0.985 . S
H182 N179 0.984 . S
H183 N179 0.985 . S
H184 N178 0.984 . S
H185 N178 0.984 . S
H186 N174 0.984 1_545 S
H187 N174 0.985 1_554 S
C188 C189 1.363 . S
C188 C194 1.379 . S
C188 N196 1.356 . S
C189 C188 1.363 . S
C189 C195 1.363 . S
C190 C191 1.363 . S
C190 C195 1.379 . S
C190 N197 1.356 . S
C191 C190 1.363 . S
C191 C194 1.363 . S
N192 C194 1.356 . S
N192 H204 0.984 . S
N192 H205 0.985 . S
N193 C195 1.356 . S
N193 H198 0.984 . S
N193 H199 0.985 . S
C194 C188 1.379 . S
C194 C191 1.363 . S
C194 N192 1.356 . S
C195 C189 1.363 . S
C195 C190 1.379 . S
C195 N193 1.356 . S
N196 C188 1.356 . S
N196 H202 0.984 1_565 S
N196 H203 0.984 . S
N197 C190 1.356 . S
N197 H200 0.984 . S
N197 H201 0.985 . S
H198 N193 0.984 . S
H199 N193 0.985 . S
H200 N197 0.984 . S
H201 N197 0.985 . S
H202 N196 0.984 1_545 S
H203 N196 0.984 . S
H204 N192 0.984 . S
H205 N192 0.985 . S
C206 C207 1.363 . S
C206 C212 1.379 . S
C206 N214 1.356 . S
C207 C206 1.363 . S
C207 C213 1.363 . S
C208 C209 1.363 . S
C208 C213 1.379 . S
C208 N215 1.356 . S
C209 C208 1.363 . S
C209 C212 1.363 . S
N210 C212 1.356 . S
N210 H222 0.984 . S
N210 H223 0.985 . S
N211 C213 1.356 . S
N211 H216 0.984 . S
N211 H217 0.985 . S
C212 C206 1.379 . S
C212 C209 1.363 . S
C212 N210 1.356 . S
C213 C207 1.363 . S
C213 C208 1.379 . S
C213 N211 1.356 . S
N214 C206 1.356 . S
N214 H220 0.984 . S
N214 H221 0.984 . S
N215 C208 1.356 . S
N215 H218 0.984 . S
N215 H219 0.985 . S
H216 N211 0.984 . S
H217 N211 0.985 . S
H218 N215 0.984 . S
H219 N215 0.985 . S
H220 N214 0.984 . S
H221 N214 0.984 . S
H222 N210 0.984 . S
H223 N210 0.985 . S
C224 C225 1.363 . S
C224 C230 1.379 . S
C224 N232 1.356 . S
C225 C224 1.363 . S
C225 C231 1.363 1_554 S
C226 C227 1.363 1_556 S
C226 C231 1.379 . S
C226 N233 1.356 . S
C227 C226 1.363 1_554 S
C227 C230 1.363 . S
N228 C230 1.356 . S
N228 H240 0.984 . S
N228 H241 0.985 . S
N229 C231 1.356 . S
N229 H234 0.984 . S
N229 H235 0.985 . S
C230 C224 1.379 . S
C230 C227 1.363 . S
C230 N228 1.356 . S
C231 C225 1.363 1_556 S
C231 C226 1.379 . S
C231 N229 1.356 . S
N232 C224 1.356 . S
N232 H238 0.984 . S
N232 H239 0.984 . S
N233 C226 1.356 . S
N233 H236 0.984 . S
N233 H237 0.985 . S
H234 N229 0.984 . S
H235 N229 0.985 . S
H236 N233 0.984 . S
H237 N233 0.985 . S
H238 N232 0.984 . S
H239 N232 0.984 . S
H240 N228 0.984 . S
H241 N228 0.985 . S
C242 C243 1.363 . S
C242 C248 1.379 . S
C242 N250 1.356 . S
C243 C242 1.363 . S
C243 C249 1.363 . S
C244 C245 1.363 . S
C244 C249 1.379 . S
C244 N251 1.356 . S
C245 C244 1.363 . S
C245 C248 1.363 . S
N246 C248 1.356 . S
N246 H258 0.984 . S
N246 H259 0.985 . S
N247 C249 1.356 . S
N247 H252 0.984 . S
N247 H253 0.985 . S
C248 C242 1.379 . S
C248 C245 1.363 . S
C248 N246 1.356 . S
C249 C243 1.363 . S
C249 C244 1.379 . S
C249 N247 1.356 . S
N250 C242 1.356 . S
N250 H256 0.984 . S
N250 H257 0.984 . S
N251 C244 1.356 . S
N251 H254 0.984 . S
N251 H255 0.985 . S
H252 N247 0.984 . S
H253 N247 0.985 . S
H254 N251 0.984 . S
H255 N251 0.985 . S
H256 N250 0.984 . S
H257 N250 0.984 . S
H258 N246 0.984 . S
H259 N246 0.985 . S
C260 C261 1.363 1_565 S
C260 C266 1.379 1_455 S
C260 N268 1.356 . S
C261 C260 1.363 1_545 S
C261 C267 1.363 1_554 S
C262 C263 1.363 1_546 S
C262 C267 1.379 1_655 S
C262 N269 1.356 . S
C263 C262 1.363 1_564 S
C263 C266 1.363 . S
N264 C266 1.356 . S
N264 H276 0.984 . S
N264 H277 0.985 . S
N265 C267 1.356 . S
N265 H270 0.984 . S
N265 H271 0.985 . S
C266 C260 1.379 1_655 S
C266 C263 1.363 . S
C266 N264 1.356 . S
C267 C261 1.363 1_556 S
C267 C262 1.379 1_455 S
C267 N265 1.356 . S
N268 C260 1.356 . S
N268 H274 0.984 . S
N268 H275 0.984 . S
N269 C262 1.356 . S
N269 H272 0.984 . S
N269 H273 0.985 . S
H270 N265 0.984 . S
H271 N265 0.985 . S
H272 N269 0.984 . S
H273 N269 0.985 . S
H274 N268 0.984 . S
H275 N268 0.984 . S
H276 N264 0.984 . S
H277 N264 0.985 . S
C278 C279 1.363 . S
C278 C284 1.379 1_655 S
C278 N286 1.356 . S
C279 C278 1.363 . S
C279 C285 1.363 1_545 S
C280 C281 1.363 . S
C280 C285 1.379 1_455 S
C280 N287 1.356 . S
C281 C280 1.363 . S
C281 C284 1.363 1_565 S
N282 C284 1.356 . S
N282 H294 0.984 . S
N282 H295 0.985 . S
N283 C285 1.356 . S
N283 H288 0.984 . S
N283 H289 0.985 . S
C284 C278 1.379 1_455 S
C284 C281 1.363 1_545 S
C284 N282 1.356 . S
C285 C279 1.363 1_565 S
C285 C280 1.379 1_655 S
C285 N283 1.356 . S
N286 C278 1.356 . S
N286 H292 0.984 . S
N286 H293 0.984 . S
N287 C280 1.356 . S
N287 H290 0.984 . S
N287 H291 0.985 . S
H288 N283 0.984 . S
H289 N283 0.985 . S
H290 N287 0.984 . S
H291 N287 0.985 . S
H292 N286 0.984 . S
H293 N286 0.984 . S
H294 N282 0.984 . S
H295 N282 0.985 . S
C296 C297 1.363 . S
C296 C302 1.379 . S
C296 N304 1.356 . S
C297 C296 1.363 . S
C297 C303 1.363 . S
C298 C299 1.363 . S
C298 C303 1.379 . S
C298 N305 1.356 1_545 S
C299 C298 1.363 . S
C299 C302 1.363 . S
N300 C302 1.356 . S
N300 H312 0.984 . S
N300 H313 0.985 . S
N301 C303 1.356 1_565 S
N301 H306 0.984 . S
N301 H307 0.985 . S
C302 C296 1.379 . S
C302 C299 1.363 . S
C302 N300 1.356 . S
C303 C297 1.363 . S
C303 C298 1.379 . S
C303 N301 1.356 1_545 S
N304 C296 1.356 . S
N304 H310 0.984 . S
N304 H311 0.984 . S
N305 C298 1.356 1_565 S
N305 H308 0.984 1_565 S
N305 H309 0.985 . S
H306 N301 0.984 . S
H307 N301 0.985 . S
H308 N305 0.984 1_545 S
H309 N305 0.985 . S
H310 N304 0.984 . S
H311 N304 0.984 . S
H312 N300 0.984 . S
H313 N300 0.985 . S
C314 C315 1.363 . S
C314 C320 1.379 . S
C314 N322 1.356 1_565 S
C315 C314 1.363 . S
C315 C321 1.363 . S
C316 C317 1.363 . S
C316 C321 1.379 . S
C316 N323 1.356 . S
C317 C316 1.363 . S
C317 C320 1.363 . S
N318 C320 1.356 1_545 S
N318 H330 0.984 . S
N318 H331 0.984 1_545 S
N319 C321 1.356 . S
N319 H324 0.984 . S
N319 H325 0.985 . S
C320 C314 1.379 . S
C320 C317 1.363 . S
C320 N318 1.356 1_565 S
C321 C315 1.363 . S
C321 C316 1.379 . S
C321 N319 1.356 . S
N322 C314 1.356 1_545 S
N322 H328 0.984 . S
N322 H329 0.984 . S
N323 C316 1.356 . S
N323 H326 0.984 . S
N323 H327 0.985 . S
H324 N319 0.984 . S
H325 N319 0.985 . S
H326 N323 0.984 . S
H327 N323 0.985 . S
H328 N322 0.984 . S
H329 N322 0.984 . S
H330 N318 0.984 . S
H331 N318 0.984 1_565 S
C332 C333 1.363 . S
C332 C338 1.379 . S
C332 N340 1.356 1_565 S
C333 C332 1.363 . S
C333 C339 1.363 . S
C334 C335 1.363 . S
C334 C339 1.379 . S
C334 N341 1.356 . S
C335 C334 1.363 . S
C335 C338 1.363 . S
N336 C338 1.356 1_545 S
N336 H348 0.984 . S
N336 H349 0.985 . S
N337 C339 1.356 . S
N337 H342 0.984 . S
N337 H343 0.985 . S
C338 C332 1.379 . S
C338 C335 1.363 . S
C338 N336 1.356 1_565 S
C339 C333 1.363 . S
C339 C334 1.379 . S
C339 N337 1.356 . S
N340 C332 1.356 1_545 S
N340 H346 0.984 . S
N340 H347 0.984 . S
N341 C334 1.356 . S
N341 H344 0.984 . S
N341 H345 0.985 . S
H342 N337 0.984 . S
H343 N337 0.985 . S
H344 N341 0.984 . S
H345 N341 0.985 . S
H346 N340 0.984 . S
H347 N340 0.984 . S
H348 N336 0.984 . S
H349 N336 0.985 . S
C350 C351 1.363 . S
C350 C356 1.379 . S
C350 N358 1.356 1_545 S
C351 C350 1.363 . S
C351 C357 1.363 . S
C352 C353 1.363 . S
C352 C357 1.379 . S
C352 N359 1.356 . S
C353 C352 1.363 . S
C353 C356 1.363 . S
N354 C356 1.356 1_565 S
N354 H366 0.984 . S
N354 H367 0.985 . S
N355 C357 1.356 . S
N355 H360 0.984 . S
N355 H361 0.985 . S
C356 C350 1.379 . S
C356 C353 1.363 . S
C356 N354 1.356 1_545 S
C357 C351 1.363 . S
C357 C352 1.379 . S
C357 N355 1.356 . S
N358 C350 1.356 1_565 S
N358 H364 0.984 . S
N358 H365 0.984 . S
N359 C352 1.356 . S
N359 H362 0.984 . S
N359 H363 0.985 . S
H360 N355 0.984 . S
H361 N355 0.985 . S
H362 N359 0.984 . S
H363 N359 0.985 . S
H364 N358 0.984 . S
H365 N358 0.984 . S
H366 N354 0.984 . S
H367 N354 0.985 . S
C368 C369 1.363 . S
C368 C374 1.379 . S
C368 N376 1.356 . S
C369 C368 1.363 . S
C369 C375 1.362 1_655 S
C370 C371 1.363 . S
C370 C375 1.376 1_655 S
C370 N377 1.356 . S
C371 C370 1.363 . S
C371 C374 1.363 . S
N372 C374 1.356 . S
N372 H384 0.984 . S
N372 H385 0.985 . S
N373 C375 1.360 . S
N373 H378 0.984 . S
N373 H379 0.985 . S
C374 C368 1.379 . S
C374 C371 1.363 . S
C374 N372 1.356 . S
C375 C369 1.362 1_455 S
C375 C370 1.376 1_455 S
C375 N373 1.360 . S
N376 C368 1.356 . S
N376 H382 0.984 . S
N376 H383 0.984 . S
N377 C370 1.356 . S
N377 H380 0.984 . S
N377 H381 0.985 . S
H378 N373 0.984 . S
H379 N373 0.985 . S
H380 N377 0.984 . S
H381 N377 0.985 . S
H382 N376 0.984 . S
H383 N376 0.984 . S
H384 N372 0.984 . S
H385 N372 0.985 . S
C386 C387 1.363 . S
C386 C392 1.379 . S
C386 N394 1.356 . S
C387 C386 1.363 . S
C387 C393 1.363 . S
C388 C389 1.363 1_455 S
C388 C393 1.379 1_455 S
C388 N395 1.356 . S
C389 C388 1.363 1_655 S
C389 C392 1.363 . S
N390 C392 1.356 . S
N390 H402 0.984 . S
N390 H403 0.985 . S
N391 C393 1.356 . S
N391 H396 0.984 . S
N391 H397 0.985 1_655 S
C392 C386 1.379 . S
C392 C389 1.363 . S
C392 N390 1.356 . S
C393 C387 1.363 . S
C393 C388 1.379 1_655 S
C393 N391 1.356 . S
N394 C386 1.356 . S
N394 H400 0.984 . S
N394 H401 0.984 . S
N395 C388 1.356 . S
N395 H398 0.984 . S
N395 H399 0.985 . S
H396 N391 0.984 . S
H397 N391 0.985 1_455 S
H398 N395 0.984 . S
H399 N395 0.985 . S
H400 N394 0.984 . S
H401 N394 0.984 . S
H402 N390 0.984 . S
H403 N390 0.985 . S
C404 C405 1.363 . S
C404 C410 1.379 . S
C404 N412 1.356 . S
C405 C404 1.363 . S
C405 C411 1.363 . S
C406 C407 1.363 1_655 S
C406 C411 1.379 1_655 S
C406 N413 1.356 . S
C407 C406 1.363 1_455 S
C407 C410 1.363 . S
N408 C410 1.356 . S
N408 H420 0.984 . S
N408 H421 0.985 . S
N409 C411 1.356 . S
N409 H414 0.984 . S
N409 H415 0.985 1_455 S
C410 C404 1.379 . S
C410 C407 1.363 . S
C410 N408 1.356 . S
C411 C405 1.363 . S
C411 C406 1.379 1_455 S
C411 N409 1.356 . S
N412 C404 1.356 . S
N412 H418 0.984 . S
N412 H419 0.984 . S
N413 C406 1.356 . S
N413 H416 0.984 . S
N413 H417 0.985 . S
H414 N409 0.984 . S
H415 N409 0.985 1_655 S
H416 N413 0.984 . S
H417 N413 0.985 . S
H418 N412 0.984 . S
H419 N412 0.984 . S
H420 N408 0.984 . S
H421 N408 0.985 . S
C422 C423 1.363 . S
C422 C428 1.379 . S
C422 N430 1.356 . S
C423 C422 1.363 . S
C423 C429 1.363 . S
C424 C425 1.363 1_655 S
C424 C429 1.379 1_655 S
C424 N431 1.356 . S
C425 C424 1.363 1_455 S
C425 C428 1.363 . S
N426 C428 1.356 . S
N426 H438 0.984 . S
N426 H439 0.985 . S
N427 C429 1.356 . S
N427 H432 0.984 . S
N427 H433 0.985 1_455 S
C428 C422 1.379 . S
C428 C425 1.363 . S
C428 N426 1.356 . S
C429 C423 1.363 . S
C429 C424 1.379 1_455 S
C429 N427 1.356 . S
N430 C422 1.356 . S
N430 H436 0.984 . S
N430 H437 0.984 . S
N431 C424 1.356 . S
N431 H434 0.984 . S
N431 H435 0.985 . S
H432 N427 0.984 . S
H433 N427 0.985 1_655 S
H434 N431 0.984 . S
H435 N431 0.985 . S
H436 N430 0.984 . S
H437 N430 0.984 . S
H438 N426 0.984 . S
H439 N426 0.985 . S
C153 C26 2.573 . S
C155 C2 2.573 . S
C171 C64 2.573 . S
C173 C40 2.573 . S
C189 C102 2.573 . S
C191 C78 2.573 . S
C207 C140 2.573 . S
C209 C116 2.573 . S
C225 C57 1.870 . S
C227 C20 1.870 . S
C243 C133 1.870 . S
C245 C96 1.870 . S
C261 C19 1.870 . S
C263 C58 1.870 . S
C279 C134 1.870 . S
C281 C95 1.870 . S
C297 C118 1.308 . S
C299 C17 1.339 . S
C315 C42 1.308 . S
C317 C93 1.339 . S
C333 C99 1.308 . S
C335 C66 1.339 . S
C351 C23 1.308 . S
C353 C142 1.339 . S
C369 C80 1.308 . S
C371 C55 1.339 . S
C387 C131 1.339 . S
C389 C4 1.308 . S
C405 C28 1.339 . S
C407 C137 1.308 . S
C423 C104 1.339 . S
C425 C61 1.308 . S
