# Generated by pormake.
# Topology etf, (3)-cn, num edge types: 1
# Building blocks:
#     Node 0, Type 0, BuildingBlock: OLANEW_clean_sbu_2, # of connection points: 3
#     Node 1, Type 0, BuildingBlock: OLANEW_clean_sbu_2, # of connection points: 3
#     Node 2, Type 0, BuildingBlock: OLANEW_clean_sbu_2, # of connection points: 3
#     Node 3, Type 0, BuildingBlock: OLANEW_clean_sbu_2, # of connection points: 3
#     Node 4, Type 0, BuildingBlock: OLANEW_clean_sbu_2, # of connection points: 3
#     Node 5, Type 0, BuildingBlock: OLANEW_clean_sbu_2, # of connection points: 3
#     Node 6, Type 0, BuildingBlock: OLANEW_clean_sbu_2, # of connection points: 3
#     Node 7, Type 0, BuildingBlock: OLANEW_clean_sbu_2, # of connection points: 3
#     Node 8, Type 0, BuildingBlock: OLANEW_clean_sbu_2, # of connection points: 3
#     Node 9, Type 0, BuildingBlock: OLANEW_clean_sbu_2, # of connection points: 3
#     Node 10, Type 0, BuildingBlock: OLANEW_clean_sbu_2, # of connection points: 3
#     Node 11, Type 0, BuildingBlock: OLANEW_clean_sbu_2, # of connection points: 3
#     Node 12, Type 0, BuildingBlock: OLANEW_clean_sbu_2, # of connection points: 3
#     Node 13, Type 0, BuildingBlock: OLANEW_clean_sbu_2, # of connection points: 3
#     Node 14, Type 0, BuildingBlock: OLANEW_clean_sbu_2, # of connection points: 3
#     Node 15, Type 0, BuildingBlock: OLANEW_clean_sbu_2, # of connection points: 3
#     Node 16, Type 0, BuildingBlock: OLANEW_clean_sbu_2, # of connection points: 3
#     Node 17, Type 0, BuildingBlock: OLANEW_clean_sbu_2, # of connection points: 3
#     Node 18, Type 0, BuildingBlock: OLANEW_clean_sbu_2, # of connection points: 3
#     Node 19, Type 0, BuildingBlock: OLANEW_clean_sbu_2, # of connection points: 3
#     Node 20, Type 0, BuildingBlock: OLANEW_clean_sbu_2, # of connection points: 3
#     Node 21, Type 0, BuildingBlock: OLANEW_clean_sbu_2, # of connection points: 3
#     Node 22, Type 0, BuildingBlock: OLANEW_clean_sbu_2, # of connection points: 3
#     Node 23, Type 0, BuildingBlock: OLANEW_clean_sbu_2, # of connection points: 3
#     Node 24, Type 0, BuildingBlock: OLANEW_clean_sbu_2, # of connection points: 3
#     Node 25, Type 0, BuildingBlock: OLANEW_clean_sbu_2, # of connection points: 3
#     Node 26, Type 0, BuildingBlock: OLANEW_clean_sbu_2, # of connection points: 3
#     Node 27, Type 0, BuildingBlock: OLANEW_clean_sbu_2, # of connection points: 3
#     Node 28, Type 0, BuildingBlock: OLANEW_clean_sbu_2, # of connection points: 3
#     Node 29, Type 0, BuildingBlock: OLANEW_clean_sbu_2, # of connection points: 3
#     Node 30, Type 0, BuildingBlock: OLANEW_clean_sbu_2, # of connection points: 3
#     Node 31, Type 0, BuildingBlock: OLANEW_clean_sbu_2, # of connection points: 3
#     Node 32, Type 0, BuildingBlock: OLANEW_clean_sbu_2, # of connection points: 3
#     Node 33, Type 0, BuildingBlock: OLANEW_clean_sbu_2, # of connection points: 3
#     Node 34, Type 0, BuildingBlock: OLANEW_clean_sbu_2, # of connection points: 3
#     Node 35, Type 0, BuildingBlock: OLANEW_clean_sbu_2, # of connection points: 3
#     Edge 36, Type (0, 0), BuildingBlock: MIFKUJ_clean_linker_0, # of connection points: 2
#     Edge 37, Type (0, 0), BuildingBlock: MIFKUJ_clean_linker_0, # of connection points: 2
#     Edge 38, Type (0, 0), BuildingBlock: MIFKUJ_clean_linker_0, # of connection points: 2
#     Edge 39, Type (0, 0), BuildingBlock: MIFKUJ_clean_linker_0, # of connection points: 2
#     Edge 40, Type (0, 0), BuildingBlock: MIFKUJ_clean_linker_0, # of connection points: 2
#     Edge 41, Type (0, 0), BuildingBlock: MIFKUJ_clean_linker_0, # of connection points: 2
#     Edge 42, Type (0, 0), BuildingBlock: MIFKUJ_clean_linker_0, # of connection points: 2
#     Edge 43, Type (0, 0), BuildingBlock: MIFKUJ_clean_linker_0, # of connection points: 2
#     Edge 44, Type (0, 0), BuildingBlock: MIFKUJ_clean_linker_0, # of connection points: 2
#     Edge 45, Type (0, 0), BuildingBlock: MIFKUJ_clean_linker_0, # of connection points: 2
#     Edge 46, Type (0, 0), BuildingBlock: MIFKUJ_clean_linker_0, # of connection points: 2
#     Edge 47, Type (0, 0), BuildingBlock: MIFKUJ_clean_linker_0, # of connection points: 2
#     Edge 48, Type (0, 0), BuildingBlock: MIFKUJ_clean_linker_0, # of connection points: 2
#     Edge 49, Type (0, 0), BuildingBlock: MIFKUJ_clean_linker_0, # of connection points: 2
#     Edge 50, Type (0, 0), BuildingBlock: MIFKUJ_clean_linker_0, # of connection points: 2
#     Edge 51, Type (0, 0), BuildingBlock: MIFKUJ_clean_linker_0, # of connection points: 2
#     Edge 52, Type (0, 0), BuildingBlock: MIFKUJ_clean_linker_0, # of connection points: 2
#     Edge 53, Type (0, 0), BuildingBlock: MIFKUJ_clean_linker_0, # of connection points: 2
#     Edge 54, Type (0, 0), BuildingBlock: MIFKUJ_clean_linker_0, # of connection points: 2
#     Edge 55, Type (0, 0), BuildingBlock: MIFKUJ_clean_linker_0, # of connection points: 2
#     Edge 56, Type (0, 0), BuildingBlock: MIFKUJ_clean_linker_0, # of connection points: 2
#     Edge 57, Type (0, 0), BuildingBlock: MIFKUJ_clean_linker_0, # of connection points: 2
#     Edge 58, Type (0, 0), BuildingBlock: MIFKUJ_clean_linker_0, # of connection points: 2
#     Edge 59, Type (0, 0), BuildingBlock: MIFKUJ_clean_linker_0, # of connection points: 2
#     Edge 60, Type (0, 0), BuildingBlock: MIFKUJ_clean_linker_0, # of connection points: 2
#     Edge 61, Type (0, 0), BuildingBlock: MIFKUJ_clean_linker_0, # of connection points: 2
#     Edge 62, Type (0, 0), BuildingBlock: MIFKUJ_clean_linker_0, # of connection points: 2
#     Edge 63, Type (0, 0), BuildingBlock: MIFKUJ_clean_linker_0, # of connection points: 2
#     Edge 64, Type (0, 0), BuildingBlock: MIFKUJ_clean_linker_0, # of connection points: 2
#     Edge 65, Type (0, 0), BuildingBlock: MIFKUJ_clean_linker_0, # of connection points: 2
#     Edge 66, Type (0, 0), BuildingBlock: MIFKUJ_clean_linker_0, # of connection points: 2
#     Edge 67, Type (0, 0), BuildingBlock: MIFKUJ_clean_linker_0, # of connection points: 2
#     Edge 68, Type (0, 0), BuildingBlock: MIFKUJ_clean_linker_0, # of connection points: 2
#     Edge 69, Type (0, 0), BuildingBlock: MIFKUJ_clean_linker_0, # of connection points: 2
#     Edge 70, Type (0, 0), BuildingBlock: MIFKUJ_clean_linker_0, # of connection points: 2
#     Edge 71, Type (0, 0), BuildingBlock: MIFKUJ_clean_linker_0, # of connection points: 2
#     Edge 72, Type (0, 0), BuildingBlock: MIFKUJ_clean_linker_0, # of connection points: 2
#     Edge 73, Type (0, 0), BuildingBlock: MIFKUJ_clean_linker_0, # of connection points: 2
#     Edge 74, Type (0, 0), BuildingBlock: MIFKUJ_clean_linker_0, # of connection points: 2
#     Edge 75, Type (0, 0), BuildingBlock: MIFKUJ_clean_linker_0, # of connection points: 2
#     Edge 76, Type (0, 0), BuildingBlock: MIFKUJ_clean_linker_0, # of connection points: 2
#     Edge 77, Type (0, 0), BuildingBlock: MIFKUJ_clean_linker_0, # of connection points: 2
#     Edge 78, Type (0, 0), BuildingBlock: MIFKUJ_clean_linker_0, # of connection points: 2
#     Edge 79, Type (0, 0), BuildingBlock: MIFKUJ_clean_linker_0, # of connection points: 2
#     Edge 80, Type (0, 0), BuildingBlock: MIFKUJ_clean_linker_0, # of connection points: 2
#     Edge 81, Type (0, 0), BuildingBlock: MIFKUJ_clean_linker_0, # of connection points: 2
#     Edge 82, Type (0, 0), BuildingBlock: MIFKUJ_clean_linker_0, # of connection points: 2
#     Edge 83, Type (0, 0), BuildingBlock: MIFKUJ_clean_linker_0, # of connection points: 2
#     Edge 84, Type (0, 0), BuildingBlock: MIFKUJ_clean_linker_0, # of connection points: 2
#     Edge 85, Type (0, 0), BuildingBlock: MIFKUJ_clean_linker_0, # of connection points: 2
#     Edge 86, Type (0, 0), BuildingBlock: MIFKUJ_clean_linker_0, # of connection points: 2
#     Edge 87, Type (0, 0), BuildingBlock: MIFKUJ_clean_linker_0, # of connection points: 2
#     Edge 88, Type (0, 0), BuildingBlock: MIFKUJ_clean_linker_0, # of connection points: 2
#     Edge 89, Type (0, 0), BuildingBlock: MIFKUJ_clean_linker_0, # of connection points: 2
# Relax obj value: 0.001
# Max RMSD: 0.057
# Mean RMSD: 0.057
data_MOF--net-etf--node1-OLANEW_clean_sbu_2--edge1-MIFKUJ_clean_linker_0
_symmetry_space_group_name_H-M    P1
_symmetry_Int_Tables_number       1
_symmetry_cell_setting            triclinic
loop_
_symmetry_equiv_pos_as_xyz
'x, y, z'
_cell_length_a     132.94124
_cell_length_b     132.93332
_cell_length_c     59.797772
_cell_angle_alpha  89.989717
_cell_angle_beta   89.989239
_cell_angle_gamma 119.99319
loop_
_atom_site_label
_atom_site_type_symbol
_atom_site_fract_x
_atom_site_fract_y
_atom_site_fract_z
_atom_type_partial_charge
O0 O 0.0978 0.31623 0.20909 0.0
Cd1 Cd 0.08869 0.30955 0.24577 0.0
O2 O 0.10238 0.33434 0.21525 0.0
Cd3 Cd 0.09049 0.32905 0.24356 0.0
O4 O 0.07218 0.3201 0.25306 0.0
C5 C 0.06536 0.3127 0.23888 0.0
O6 O 0.0698 0.31089 0.22074 0.0
C7 C 0.10289 0.32681 0.20293 0.0
C8 C 0.10386 0.30786 0.27573 0.0
O9 O 0.09654 0.29903 0.26439 0.0
O10 O 0.10395 0.31747 0.27301 0.0
O11 O 0.68629 0.77669 0.18678 0.0
Cd12 Cd 0.69268 0.77245 0.22211 0.0
O13 O 0.6677 0.76506 0.19361 0.0
Cd14 Cd 0.6719 0.75648 0.22003 0.0
O15 O 0.68003 0.74639 0.22978 0.0
C16 C 0.68639 0.74563 0.21479 0.0
O17 O 0.68755 0.75089 0.19555 0.0
C18 C 0.6757 0.77276 0.18145 0.0
C19 C 0.69041 0.78574 0.25565 0.0
O20 O 0.69991 0.78956 0.24469 0.0
O21 O 0.68208 0.77551 0.25113 0.0
O22 O 0.23463 0.9008 0.19446 0.0
Cd23 Cd 0.23958 0.90559 0.23396 0.0
O24 O 0.25162 0.90274 0.186 0.0
Cd25 Cd 0.25941 0.91253 0.21652 0.0
O26 O 0.26811 0.93008 0.2304 0.0
C27 C 0.26234 0.93533 0.2312 0.0
O28 O 0.25136 0.92973 0.22521 0.0
C29 C 0.24129 0.89984 0.1804 0.0
C30 C 0.22115 0.89117 0.26203 0.0
O31 O 0.22249 0.90092 0.25527 0.0
O32 O 0.22853 0.88825 0.25555 0.0
O33 O 0.31847 0.09441 0.28346 0.0
Cd34 Cd 0.31379 0.08611 0.24584 0.0
O35 O 0.33598 0.09658 0.28258 0.0
Cd36 Cd 0.3314 0.08429 0.25503 0.0
O37 O 0.32433 0.0662 0.24491 0.0
C38 C 0.31374 0.05911 0.24938 0.0
O39 O 0.30742 0.06308 0.25852 0.0
C40 C 0.32845 0.09831 0.29221 0.0
C41 C 0.31247 0.10173 0.21652 0.0
O42 O 0.30336 0.09378 0.22626 0.0
O43 O 0.32217 0.10218 0.2204 0.0
O44 O 0.89529 0.22677 0.29295 0.0
Cd45 Cd 0.90074 0.23194 0.25382 0.0
O46 O 0.90873 0.22201 0.29855 0.0
Cd47 Cd 0.9179 0.22909 0.26714 0.0
O48 O 0.93524 0.24088 0.25413 0.0
C49 C 0.94141 0.2497 0.26632 0.0
O50 O 0.93672 0.25127 0.28438 0.0
C51 C 0.9001 0.22273 0.30563 0.0
C52 C 0.88665 0.21328 0.22605 0.0
O53 O 0.89641 0.21479 0.23315 0.0
O54 O 0.88363 0.22066 0.23189 0.0
O55 O 0.78554 0.67385 0.29064 0.0
Cd56 Cd 0.77973 0.67298 0.25158 0.0
O57 O 0.78011 0.68647 0.29973 0.0
Cd58 Cd 0.77273 0.68708 0.26755 0.0
O59 O 0.76063 0.69116 0.25079 0.0
C60 C 0.75163 0.68893 0.26204 0.0
O61 O 0.75009 0.68391 0.28166 0.0
C62 C 0.78457 0.68031 0.30515 0.0
C63 C 0.79783 0.67673 0.2229 0.0
O64 O 0.79641 0.68516 0.2292 0.0
O65 O 0.79062 0.66652 0.23004 0.0
O66 O 0.88102 0.63232 0.80813 0.0
Cd67 Cd 0.87409 0.62269 0.77202 0.0
O68 O 0.89712 0.64589 0.79294 0.0
Cd69 Cd 0.91486 0.66069 0.79205 0.0
O70 O 0.93291 0.67324 0.78383 0.0
C71 C 0.94108 0.67531 0.79739 0.0
O72 O 0.93852 0.67006 0.81691 0.0
C73 C 0.89085 0.64149 0.81024 0.0
C74 C 0.85876 0.62812 0.75063 0.0
O75 O 0.85516 0.62007 0.76541 0.0
O76 O 0.86965 0.63371 0.74614 0.0
O77 O 0.35475 0.23719 0.79456 0.0
Cd78 Cd 0.35986 0.23948 0.75489 0.0
O79 O 0.34042 0.23993 0.78502 0.0
Cd80 Cd 0.32618 0.2435 0.78993 0.0
O81 O 0.31473 0.25062 0.78403 0.0
C82 C 0.31837 0.25892 0.77005 0.0
O83 O 0.32856 0.2626 0.76063 0.0
C84 C 0.34602 0.23811 0.80018 0.0
C85 C 0.35834 0.21976 0.73515 0.0
O86 O 0.36792 0.2277 0.74351 0.0
O87 O 0.34944 0.22108 0.73642 0.0
O88 O 0.75825 0.11418 0.80395 0.0
Cd89 Cd 0.75556 0.11619 0.76406 0.0
O90 O 0.75626 0.09725 0.79569 0.0
Cd91 Cd 0.75409 0.08006 0.80212 0.0
O92 O 0.75108 0.06234 0.80133 0.0
C93 C 0.744 0.05454 0.81461 0.0
O94 O 0.73856 0.05728 0.82965 0.0
C95 C 0.75791 0.10489 0.81029 0.0
C96 C 0.7749 0.13447 0.74341 0.0
O97 O 0.76677 0.1359 0.7515 0.0
O98 O 0.77394 0.12442 0.74533 0.0
O99 O 0.66733 0.9056 0.69558 0.0
Cd100 Cd 0.67103 0.91025 0.73538 0.0
O101 O 0.6849 0.90857 0.68911 0.0
Cd102 Cd 0.69123 0.91663 0.72175 0.0
O103 O 0.69863 0.9311 0.74538 0.0
C104 C 0.70794 0.94011 0.73934 0.0
O105 O 0.71271 0.93992 0.72023 0.0
C106 C 0.67467 0.90537 0.68226 0.0
C107 C 0.66653 0.89053 0.75985 0.0
O108 O 0.65857 0.89312 0.75649 0.0
O109 O 0.67665 0.89732 0.7518 0.0
O110 O 0.11399 0.74796 0.68429 0.0
Cd111 Cd 0.11722 0.74398 0.72271 0.0
O112 O 0.09745 0.74618 0.695 0.0
Cd113 Cd 0.08021 0.74438 0.6922 0.0
O114 O 0.0622 0.73848 0.70168 0.0
C115 C 0.05958 0.73549 0.72199 0.0
O116 O 0.06774 0.73639 0.73564 0.0
C117 C 0.10476 0.74811 0.6795 0.0
C118 C 0.12901 0.76425 0.74798 0.0
O119 O 0.13454 0.76023 0.73707 0.0
O120 O 0.11789 0.75867 0.74691 0.0
O121 O 0.23341 0.35499 0.7121 0.0
Cd122 Cd 0.23515 0.36023 0.75166 0.0
O123 O 0.23542 0.34033 0.72266 0.0
Cd124 Cd 0.23855 0.3258 0.71804 0.0
O125 O 0.24523 0.31382 0.72047 0.0
C126 C 0.2552 0.31691 0.71238 0.0
O127 O 0.26089 0.32698 0.70214 0.0
C128 C 0.2341 0.34607 0.70705 0.0
C129 C 0.21586 0.36052 0.76917 0.0
O130 O 0.22443 0.36973 0.76097 0.0
O131 O 0.21634 0.35113 0.76877 0.0
O132 O 0.7743 0.65266 0.5451 0.0
Cd133 Cd 0.76402 0.64387 0.57994 0.0
O134 O 0.7683 0.66534 0.54323 0.0
Cd135 Cd 0.75582 0.65737 0.57038 0.0
O136 O 0.73768 0.64746 0.58086 0.0
C137 C 0.73083 0.63979 0.56713 0.0
O138 O 0.73516 0.63811 0.54867 0.0
C139 C 0.77439 0.66122 0.53542 0.0
C140 C 0.77876 0.64197 0.61069 0.0
O141 O 0.77328 0.63408 0.59595 0.0
O142 O 0.77721 0.65074 0.61102 0.0
O143 O 0.35312 0.11677 0.534 0.0
Cd144 Cd 0.35641 0.1127 0.57238 0.0
O145 O 0.33419 0.10511 0.53524 0.0
Cd146 Cd 0.33594 0.0974 0.56608 0.0
O147 O 0.34358 0.0876 0.58013 0.0
C148 C 0.3431 0.0796 0.56775 0.0
O149 O 0.33756 0.07742 0.54859 0.0
C150 C 0.34319 0.11262 0.52484 0.0
C151 C 0.3561 0.12864 0.60228 0.0
O152 O 0.36565 0.13032 0.59363 0.0
O153 O 0.34671 0.11937 0.59687 0.0
O154 O 0.88219 0.23358 0.54741 0.0
Cd155 Cd 0.88346 0.24136 0.58503 0.0
O156 O 0.89929 0.23486 0.55012 0.0
Cd157 Cd 0.90424 0.24645 0.57886 0.0
O158 O 0.91282 0.26478 0.58815 0.0
C159 C 0.91682 0.2717 0.57162 0.0
O160 O 0.91547 0.26732 0.55141 0.0
C161 C 0.88991 0.23161 0.53938 0.0
C162 C 0.86665 0.22462 0.6131 0.0
O163 O 0.86473 0.23189 0.60258 0.0
O164 O 0.87654 0.22531 0.61045 0.0
O165 O 0.99749 0.44407 0.61922 0.0
Cd166 Cd 0.99612 0.43749 0.5806 0.0
O167 O 0.98001 0.42996 0.62801 0.0
Cd168 Cd 0.97706 0.41992 0.59746 0.0
O169 O 0.97111 0.40214 0.58657 0.0
C170 C 0.96868 0.39504 0.60267 0.0
O171 O 0.97004 0.39899 0.62324 0.0
C172 C 0.98928 0.43921 0.63332 0.0
C173 C 0.99191 0.45142 0.55161 0.0
O174 O 0.98352 0.44203 0.55969 0.0
O175 O 0.00229 0.45416 0.55711 0.0
O176 O 0.57629 0.54777 0.63212 0.0
Cd177 Cd 0.58509 0.54864 0.59569 0.0
O178 O 0.57048 0.55999 0.62224 0.0
Cd179 Cd 0.5818 0.56536 0.59306 0.0
O180 O 0.59988 0.57452 0.58217 0.0
C181 C 0.60685 0.58207 0.59596 0.0
O182 O 0.60263 0.58387 0.61444 0.0
C183 C 0.57071 0.553 0.6365 0.0
C184 C 0.56841 0.53337 0.56557 0.0
O185 O 0.57453 0.53027 0.57707 0.0
O186 O 0.57024 0.54373 0.56817 0.0
O187 O 0.43677 7e-05 0.63799 0.0
Cd188 Cd 0.43193 0.00137 0.59903 0.0
O189 O 0.43386 0.01423 0.64875 0.0
Cd190 Cd 0.42757 0.01715 0.6171 0.0
O191 O 0.4171 0.02401 0.60285 0.0
C192 C 0.41684 0.03181 0.6147 0.0
O193 O 0.42301 0.03517 0.63317 0.0
C194 C 0.43678 0.0067 0.6533 0.0
C195 C 0.45017 0.00567 0.57021 0.0
O196 O 0.44912 0.01403 0.57824 0.0
O197 O 0.44258 0.99528 0.57577 0.0
O198 O 0.54978 0.97364 0.14155 0.0
Cd199 Cd 0.54645 0.96702 0.10271 0.0
O200 O 0.56702 0.98708 0.13065 0.0
Cd201 Cd 0.58501 0.00128 0.13309 0.0
O202 O 0.60327 0.01293 0.12471 0.0
C203 C 0.60644 0.01211 0.10505 0.0
O204 O 0.59865 0.00455 0.0912 0.0
C205 C 0.5596 0.98236 0.14626 0.0
C206 C 0.52803 0.96801 0.08261 0.0
O207 O 0.52647 0.95869 0.09212 0.0
O208 O 0.53829 0.97689 0.08281 0.0
O209 O 0.02837 0.57253 0.12731 0.0
Cd210 Cd 0.03471 0.57383 0.08854 0.0
O211 O 0.014 0.57434 0.11411 0.0
Cd212 Cd 0.99938 0.57746 0.11636 0.0
O213 O 0.98733 0.58405 0.11423 0.0
C214 C 0.99044 0.59398 0.12251 0.0
O215 O 0.00058 0.59966 0.13252 0.0
C216 C 0.01931 0.57324 0.13079 0.0
C217 C 0.03112 0.55286 0.07099 0.0
O218 O 0.04082 0.56008 0.08007 0.0
O219 O 0.02306 0.55548 0.07049 0.0
O220 O 0.43732 0.45417 0.12175 0.0
Cd221 Cd 0.43628 0.45688 0.08156 0.0
O222 O 0.42745 0.43551 0.1152 0.0
Cd223 Cd 0.41918 0.4168 0.1213 0.0
O224 O 0.41046 0.39803 0.11586 0.0
C225 C 0.40348 0.394 0.09944 0.0
O226 O 0.40174 0.40119 0.08717 0.0
C227 C 0.43244 0.44382 0.1291 0.0
C228 C 0.45628 0.47576 0.06415 0.0
O229 O 0.44779 0.4769 0.07114 0.0
O230 O 0.45536 0.46571 0.06565 0.0
O231 O 0.30541 0.21147 0.03732 0.0
Cd232 Cd 0.30017 0.20761 0.07685 0.0
O233 O 0.31885 0.22881 0.04781 0.0
Cd234 Cd 0.33247 0.247 0.04421 0.0
O235 O 0.34425 0.26555 0.04963 0.0
C236 C 0.34273 0.27303 0.03927 0.0
O237 O 0.33424 0.26945 0.02466 0.0
C238 C 0.31373 0.22148 0.03222 0.0
C239 C 0.30298 0.18978 0.09472 0.0
O240 O 0.29318 0.18772 0.0867 0.0
O241 O 0.31147 0.20025 0.09403 0.0
O242 O 0.78775 0.09158 0.04494 0.0
Cd243 Cd 0.79239 0.08948 0.08357 0.0
O244 O 0.77109 0.08891 0.05728 0.0
Cd245 Cd 0.75325 0.08553 0.05466 0.0
O246 O 0.73478 0.07932 0.05949 0.0
C247 C 0.72731 0.07299 0.04496 0.0
O248 O 0.73085 0.07049 0.02635 0.0
C249 C 0.77796 0.09072 0.04101 0.0
C250 C 0.80834 0.11055 0.10314 0.0
O251 O 0.81172 0.1042 0.09326 0.0
O252 O 0.79742 0.10697 0.1036 0.0
O253 O 0.91675 0.69872 0.03442 0.0
Cd254 Cd 0.9195 0.70681 0.07209 0.0
O255 O 0.91921 0.68495 0.04865 0.0
Cd256 Cd 0.92194 0.67001 0.04892 0.0
O257 O 0.92745 0.65744 0.05696 0.0
C258 C 0.93538 0.66041 0.07158 0.0
O259 O 0.93978 0.67072 0.08083 0.0
C260 C 0.91729 0.68953 0.0317 0.0
C261 C 0.89857 0.70081 0.09339 0.0
O262 O 0.90404 0.71026 0.08217 0.0
O263 O 0.90297 0.69416 0.09441 0.0
O264 O 0.42631 0.9772 0.89584 0.0
Cd265 Cd 0.4195 0.97211 0.93438 0.0
O266 O 0.42154 0.99082 0.89423 0.0
Cd267 Cd 0.41145 0.98554 0.92518 0.0
O268 O 0.39508 0.97845 0.94354 0.0
C269 C 0.38876 0.9829 0.93934 0.0
O270 O 0.39269 0.99172 0.92544 0.0
C271 C 0.42622 0.98548 0.88534 0.0
C272 C 0.43645 0.97143 0.96078 0.0
O273 O 0.42841 0.96221 0.95152 0.0
O274 O 0.43642 0.98095 0.95772 0.0
O275 O 0.01613 0.44671 0.87344 0.0
Cd276 Cd 0.02023 0.44159 0.91028 0.0
O277 O 0.99847 0.4316 0.87218 0.0
Cd278 Cd 0.00209 0.4233 0.90003 0.0
O279 O 0.01006 0.41329 0.91141 0.0
C280 C 0.01301 0.40879 0.89581 0.0
O281 O 0.01088 0.41034 0.87501 0.0
C282 C 0.00634 0.44106 0.86372 0.0
C283 C 0.02128 0.45745 0.94201 0.0
O284 O 0.03049 0.45886 0.9323 0.0
O285 O 0.01159 0.44844 0.93696 0.0
O286 O 0.56559 0.57346 0.87681 0.0
Cd287 Cd 0.57013 0.5813 0.91476 0.0
O288 O 0.55642 0.58286 0.86819 0.0
Cd289 Cd 0.56269 0.59422 0.89734 0.0
O290 O 0.5731 0.61216 0.90873 0.0
C291 C 0.5805 0.619 0.89457 0.0
O292 O 0.58147 0.61471 0.87541 0.0
C293 C 0.55954 0.57554 0.86311 0.0
C294 C 0.55299 0.5659 0.94401 0.0
O295 O 0.55229 0.57428 0.93498 0.0
O296 O 0.56189 0.56494 0.93948 0.0
O297 O 0.64122 0.77413 0.94747 0.0
Cd298 Cd 0.63598 0.76793 0.90867 0.0
O299 O 0.65941 0.77861 0.94299 0.0
Cd300 Cd 0.65485 0.76827 0.91256 0.0
O301 O 0.64601 0.74986 0.90391 0.0
C302 C 0.63999 0.7432 0.91979 0.0
O303 O 0.63946 0.74789 0.93878 0.0
C304 C 0.6515 0.77853 0.95509 0.0
C305 C 0.64086 0.78704 0.88192 0.0
O306 O 0.63087 0.78094 0.89105 0.0
O307 O 0.64851 0.78401 0.88522 0.0
O308 O 0.2071 0.8883 0.93813 0.0
Cd309 Cd 0.20329 0.89046 0.89894 0.0
O310 O 0.2245 0.90337 0.93355 0.0
Cd311 Cd 0.24226 0.9155 0.94445 0.0
O312 O 0.26079 0.92631 0.95146 0.0
C313 C 0.2659 0.92273 0.96446 0.0
O314 O 0.2598 0.91255 0.97415 0.0
C315 C 0.21695 0.89553 0.94619 0.0
C316 C 0.19097 0.86931 0.8766 0.0
O317 O 0.2021 0.87479 0.87716 0.0
O318 O 0.18567 0.87381 0.88677 0.0
O319 O 0.1146 0.35918 0.9647 0.0
Cd320 Cd 0.10993 0.36313 0.9273 0.0
O321 O 0.10336 0.34026 0.9617 0.0
Cd322 Cd 0.09483 0.3425 0.93258 0.0
O323 O 0.08359 0.34916 0.92172 0.0
C324 C 0.08008 0.353 0.93761 0.0
O325 O 0.08339 0.35252 0.9581 0.0
C326 C 0.11086 0.34904 0.97261 0.0
C327 C 0.12557 0.3631 0.89626 0.0
O328 O 0.12738 0.37255 0.90556 0.0
O329 O 0.11627 0.35368 0.90141 0.0
O330 O 0.21028 0.304 0.47071 0.0
Cd331 Cd 0.20717 0.29849 0.43122 0.0
O332 O 0.22777 0.31724 0.46061 0.0
Cd333 Cd 0.24598 0.33081 0.46403 0.0
O334 O 0.26439 0.34204 0.45627 0.0
C335 C 0.26923 0.33758 0.44481 0.0
O336 O 0.26305 0.32662 0.43891 0.0
C337 C 0.22025 0.31232 0.47599 0.0
C338 C 0.18927 0.30039 0.41102 0.0
O339 O 0.1874 0.29077 0.41964 0.0
O340 O 0.19957 0.30916 0.41229 0.0
O341 O 0.6584 0.8786 0.43702 0.0
Cd342 Cd 0.65613 0.87601 0.39657 0.0
O343 O 0.64892 0.88805 0.43454 0.0
Cd344 Cd 0.64163 0.89895 0.44437 0.0
O345 O 0.63415 0.9103 0.44219 0.0
C346 C 0.64021 0.92029 0.43343 0.0
O347 O 0.65085 0.92355 0.42688 0.0
C348 C 0.65414 0.88417 0.44653 0.0
C349 C 0.6634 0.8611 0.37997 0.0
O350 O 0.67052 0.87203 0.3818 0.0
O351 O 0.65286 0.85723 0.38618 0.0
O352 O 0.10111 0.79134 0.4496 0.0
Cd353 Cd 0.09994 0.79679 0.41099 0.0
O354 O 0.09588 0.77401 0.43666 0.0
Cd355 Cd 0.08978 0.75539 0.4387 0.0
O356 O 0.08127 0.73663 0.43337 0.0
C357 C 0.07104 0.73162 0.42543 0.0
O358 O 0.06608 0.73786 0.42133 0.0
C359 C 0.0986 0.78092 0.45318 0.0
C360 C 0.12118 0.81277 0.39187 0.0
O361 O 0.11488 0.81615 0.40196 0.0
O362 O 0.11753 0.80184 0.39118 0.0
O363 O 0.97088 0.54893 0.36216 0.0
Cd364 Cd 0.96413 0.54472 0.40089 0.0
O365 O 0.98397 0.56627 0.37346 0.0
Cd366 Cd 0.99773 0.58443 0.37041 0.0
O367 O 0.00968 0.60305 0.37444 0.0
C368 C 0.00585 0.61 0.37156 0.0
O369 O 0.99495 0.60576 0.36561 0.0
C370 C 0.97936 0.55895 0.35767 0.0
C371 C 0.96921 0.529 0.42173 0.0
O372 O 0.9595 0.52551 0.41167 0.0
O373 O 0.97655 0.53992 0.42175 0.0
O374 O 0.45101 0.43459 0.3735 0.0
Cd375 Cd 0.45267 0.43215 0.41361 0.0
O376 O 0.4323 0.42579 0.37943 0.0
Cd377 Cd 0.41381 0.41895 0.37283 0.0
O378 O 0.39506 0.41108 0.37742 0.0
C379 C 0.38842 0.40033 0.37351 0.0
O380 O 0.39297 0.39423 0.3658 0.0
C381 C 0.44079 0.43058 0.36586 0.0
C382 C 0.47291 0.44978 0.43306 0.0
O383 O 0.47247 0.44053 0.42553 0.0
O384 O 0.46383 0.45075 0.43107 0.0
O385 O 0.56954 0.03135 0.37646 0.0
Cd386 Cd 0.57112 0.03786 0.41522 0.0
O387 O 0.57197 0.01726 0.38917 0.0
Cd388 Cd 0.57541 0.00285 0.38624 0.0
O389 O 0.58123 0.99017 0.3888 0.0
C390 C 0.59171 0.99331 0.38403 0.0
O391 O 0.59859 0.00399 0.37707 0.0
C392 C 0.57049 0.02245 0.37272 0.0
C393 C 0.54986 0.03132 0.43567 0.0
O394 O 0.5556 0.04114 0.42575 0.0
O395 O 0.55409 0.02452 0.43563 0.0
H396 H 0.10149 0.31244 0.16891 0.0
H397 H 0.10756 0.31781 0.13022 0.0
H398 H 0.12271 0.35406 0.14737 0.0
H399 H 0.11633 0.34872 0.18605 0.0
H400 H 0.1089 0.34934 0.11379 0.0
H401 H 0.13953 0.34182 0.12998 0.0
H402 H 0.14871 0.33094 0.14433 0.0
H403 H 0.12883 0.30326 0.09813 0.0
H404 H 0.1194 0.31389 0.08371 0.0
H405 H 0.12497 0.366 0.00208 0.0
H406 H 0.12823 0.36355 0.04142 0.0
H407 H 0.10787 0.32635 0.03409 0.0
H408 H 0.10459 0.32868 0.99467 0.0
H409 H 0.12715 0.33358 0.06291 0.0
H410 H 0.09473 0.3401 0.0514 0.0
H411 H 0.0855 0.35094 0.03711 0.0
H412 H 0.10927 0.38081 0.07535 0.0
H413 H 0.11875 0.37018 0.08961 0.0
C414 C 0.10633 0.32157 0.16458 0.0
C415 C 0.10833 0.33015 0.18053 0.0
C416 C 0.10987 0.32464 0.14242 0.0
C417 C 0.11566 0.33635 0.13584 0.0
C418 C 0.11824 0.34496 0.15203 0.0
C419 C 0.11459 0.3419 0.17415 0.0
C420 C 0.11774 0.33948 0.11177 0.0
C421 C 0.11317 0.34613 0.10283 0.0
C422 C 0.12304 0.33506 0.09727 0.0
C423 C 0.1287 0.32863 0.10587 0.0
C424 C 0.13705 0.33337 0.12299 0.0
C425 C 0.14231 0.32726 0.13112 0.0
C426 C 0.13934 0.31641 0.12217 0.0
C427 C 0.13112 0.31167 0.10505 0.0
C428 C 0.12583 0.31774 0.09687 0.0
C429 C 0.12136 0.35728 0.00868 0.0
C430 C 0.11437 0.34753 0.9953 0.0
C431 C 0.12324 0.35591 0.03118 0.0
C432 C 0.11816 0.34478 0.04069 0.0
C433 C 0.11186 0.33502 0.02704 0.0
C434 C 0.10994 0.33637 0.00454 0.0
C435 C 0.11827 0.34335 0.06522 0.0
C436 C 0.12314 0.33698 0.07412 0.0
C437 C 0.11328 0.34803 0.07978 0.0
C438 C 0.10753 0.35439 0.07135 0.0
C439 C 0.09805 0.34901 0.05661 0.0
C440 C 0.09276 0.35511 0.04854 0.0
C441 C 0.09682 0.36657 0.05526 0.0
C442 C 0.10615 0.37194 0.07012 0.0
C443 C 0.11148 0.36588 0.07821 0.0
H444 H 0.09272 0.37129 0.049 0.0
H445 H 0.14342 0.31169 0.12849 0.0
H446 H 0.6905 0.78617 0.14832 0.0
H447 H 0.68542 0.79049 0.11184 0.0
H448 H 0.6492 0.77248 0.13043 0.0
H449 H 0.6542 0.76781 0.16683 0.0
H450 H 0.6517 0.76501 0.09204 0.0
H451 H 0.66496 0.80262 0.12242 0.0
H452 H 0.67823 0.8208 0.1421 0.0
H453 H 0.70438 0.82885 0.09213 0.0
H454 H 0.69133 0.81063 0.0723 0.0
H455 H 0.63598 0.77657 0.98725 0.0
H456 H 0.6394 0.77922 0.02751 0.0
H457 H 0.67577 0.79128 0.01696 0.0
H458 H 0.67247 0.78869 0.97664 0.0
H459 H 0.67139 0.8029 0.05248 0.0
H460 H 0.65891 0.76384 0.02613 0.0
H461 H 0.6456 0.74568 0.0064 0.0
H462 H 0.6177 0.74061 0.04979 0.0
H463 H 0.63082 0.75886 0.06956 0.0
C464 C 0.68147 0.78327 0.14481 0.0
C465 C 0.67274 0.77657 0.16043 0.0
C466 C 0.67858 0.78583 0.12396 0.0
C467 C 0.66693 0.78191 0.11842 0.0
C468 C 0.65825 0.7756 0.13433 0.0
C469 C 0.66112 0.77294 0.15513 0.0
C470 C 0.66376 0.78337 0.09532 0.0
C471 C 0.65581 0.77336 0.08363 0.0
C472 C 0.66929 0.79421 0.08411 0.0
C473 C 0.67718 0.80521 0.09595 0.0
C474 C 0.67357 0.80822 0.11571 0.0
C475 C 0.68105 0.81854 0.12688 0.0
C476 C 0.69215 0.82596 0.11839 0.0
C477 C 0.69578 0.82309 0.09869 0.0
C478 C 0.68834 0.81277 0.08745 0.0
C479 C 0.64476 0.78004 0.9934 0.0
C480 C 0.65392 0.78224 0.97876 0.0
C481 C 0.64669 0.78155 0.01643 0.0
C482 C 0.6578 0.78529 0.02517 0.0
C483 C 0.66713 0.78838 0.01051 0.0
C484 C 0.66521 0.78682 0.98748 0.0
C485 C 0.65943 0.78456 0.04946 0.0
C486 C 0.66713 0.79464 0.06122 0.0
C487 C 0.65365 0.7738 0.06085 0.0
C488 C 0.6458 0.76278 0.04913 0.0
C489 C 0.64991 0.7589 0.03134 0.0
C490 C 0.64241 0.74859 0.02017 0.0
C491 C 0.6308 0.74201 0.02679 0.0
C492 C 0.62669 0.74573 0.04465 0.0
C493 C 0.63415 0.75605 0.05584 0.0
H494 H 0.62501 0.73403 0.01812 0.0
H495 H 0.69793 0.83395 0.12707 0.0
H496 H 0.25116 0.89282 0.14837 0.0
H497 H 0.24632 0.88979 0.10858 0.0
H498 H 0.21845 0.897 0.11952 0.0
H499 H 0.22292 0.89955 0.15939 0.0
H500 H 0.21191 0.88116 0.08952 0.0
H501 H 0.24619 0.91816 0.10097 0.0
H502 H 0.26611 0.93169 0.11388 0.0
H503 H 0.2793 0.91471 0.07188 0.0
H504 H 0.25943 0.90097 0.05895 0.0
H505 H 0.22895 0.91347 0.97495 0.0
H506 H 0.23261 0.91241 0.01463 0.0
H507 H 0.21433 0.87496 0.01077 0.0
H508 H 0.21038 0.87604 0.97106 0.0
H509 H 0.24402 0.90516 0.03707 0.0
H510 H 0.20141 0.8632 0.0603 0.0
H511 H 0.18096 0.85219 0.04805 0.0
H512 H 0.18348 0.88342 0.0217 0.0
H513 H 0.20388 0.89463 0.03404 0.0
C514 C 0.24388 0.89358 0.14233 0.0
C515 C 0.23749 0.89653 0.15698 0.0
C516 C 0.24116 0.89191 0.11956 0.0
C517 C 0.23219 0.89344 0.11093 0.0
C518 C 0.22543 0.8958 0.12574 0.0
C519 C 0.22801 0.89728 0.14855 0.0
C520 C 0.23024 0.89326 0.08642 0.0
C521 C 0.21894 0.88636 0.07804 0.0
C522 C 0.23936 0.90022 0.07142 0.0
C523 C 0.25131 0.90845 0.07921 0.0
C524 C 0.25333 0.91725 0.09463 0.0
C525 C 0.26461 0.92497 0.10193 0.0
C526 C 0.27396 0.92404 0.09376 0.0
C527 C 0.27205 0.9154 0.07824 0.0
C528 C 0.26078 0.90765 0.07091 0.0
C529 C 0.22588 0.90502 0.98249 0.0
C530 C 0.21953 0.89484 0.96993 0.0
C531 C 0.22792 0.90442 0.00521 0.0
C532 C 0.22368 0.89361 0.01581 0.0
C533 C 0.21751 0.8834 0.00312 0.0
C534 C 0.2153 0.88402 0.98044 0.0
C535 C 0.22567 0.89312 0.04015 0.0
C536 C 0.23699 0.89986 0.0485 0.0
C537 C 0.21649 0.88636 0.0552 0.0
C538 C 0.20421 0.87972 0.04785 0.0
C539 C 0.19758 0.86772 0.05194 0.0
C540 C 0.18601 0.86144 0.04498 0.0
C541 C 0.18094 0.86709 0.03403 0.0
C542 C 0.18743 0.87904 0.0301 0.0
C543 C 0.199 0.88536 0.03705 0.0
H544 H 0.17198 0.86222 0.02864 0.0
H545 H 0.28269 0.93002 0.09942 0.0
H546 H 0.31303 0.0983 0.32244 0.0
H547 H 0.3169 0.10505 0.36107 0.0
H548 H 0.35349 0.11798 0.3509 0.0
H549 H 0.34961 0.11086 0.31243 0.0
H550 H 0.34683 0.10527 0.38604 0.0
H551 H 0.34183 0.13637 0.36039 0.0
H552 H 0.33232 0.14576 0.34098 0.0
H553 H 0.30269 0.12822 0.38416 0.0
H554 H 0.31194 0.11859 0.40363 0.0
H555 H 0.36088 0.12593 0.496 0.0
H556 H 0.35946 0.1278 0.45566 0.0
H557 H 0.32211 0.10775 0.45986 0.0
H558 H 0.32341 0.10579 0.50028 0.0
H559 H 0.3308 0.12643 0.42762 0.0
H560 H 0.33526 0.09366 0.44929 0.0
H561 H 0.34503 0.08454 0.46876 0.0
H562 H 0.37639 0.10614 0.43216 0.0
H563 H 0.36684 0.1155 0.41271 0.0
C564 C 0.32193 0.10277 0.32829 0.0
C565 C 0.33101 0.10396 0.31443 0.0
C566 C 0.32415 0.1067 0.35039 0.0
C567 C 0.33551 0.1121 0.35893 0.0
C568 C 0.34465 0.11381 0.34473 0.0
C569 C 0.34242 0.10974 0.32273 0.0
C570 C 0.33767 0.11479 0.38317 0.0
C571 C 0.34355 0.11015 0.39495 0.0
C572 C 0.33316 0.12091 0.39502 0.0
C573 C 0.32755 0.12669 0.38337 0.0
C574 C 0.33325 0.13444 0.36564 0.0
C575 C 0.32791 0.13982 0.35464 0.0
C576 C 0.3169 0.13757 0.3613 0.0
C577 C 0.31121 0.12995 0.37901 0.0
C578 C 0.31651 0.12454 0.39005 0.0
C579 C 0.35234 0.12212 0.48847 0.0
C580 C 0.34226 0.11555 0.50132 0.0
C581 C 0.35156 0.12322 0.4654 0.0
C582 C 0.34069 0.1178 0.45481 0.0
C583 C 0.33058 0.112 0.46777 0.0
C584 C 0.33135 0.11084 0.49085 0.0
C585 C 0.33993 0.11692 0.43014 0.0
C586 C 0.33425 0.12178 0.41843 0.0
C587 C 0.34468 0.11107 0.41824 0.0
C588 C 0.35038 0.10537 0.42976 0.0
C589 C 0.34427 0.09652 0.44554 0.0
C590 C 0.34976 0.0913 0.45654 0.0
C591 C 0.36134 0.09478 0.45175 0.0
C592 C 0.36743 0.10347 0.43589 0.0
C593 C 0.36198 0.10873 0.42486 0.0
H594 H 0.36557 0.09073 0.46029 0.0
H595 H 0.31278 0.14174 0.35277 0.0
H596 H 0.87274 0.22695 0.50887 0.0
H597 H 0.87236 0.22183 0.46952 0.0
H598 H 0.90358 0.22001 0.47903 0.0
H599 H 0.90415 0.22532 0.51825 0.0
H600 H 0.90604 0.23388 0.44546 0.0
H601 H 0.87725 0.19561 0.46769 0.0
H602 H 0.85921 0.18067 0.4856 0.0
H603 H 0.83911 0.18979 0.44268 0.0
H604 H 0.85705 0.2049 0.4247 0.0
H605 H 0.90981 0.21569 0.33781 0.0
H606 H 0.90571 0.21378 0.37782 0.0
H607 H 0.87812 0.2214 0.36733 0.0
H608 H 0.88216 0.22338 0.32709 0.0
H609 H 0.87331 0.2037 0.40106 0.0
H610 H 0.90227 0.24279 0.381 0.0
H611 H 0.92034 0.25762 0.36297 0.0
H612 H 0.94011 0.24669 0.40254 0.0
H613 H 0.92213 0.23166 0.42056 0.0
C614 C 0.8794 0.22523 0.50271 0.0
C615 C 0.88855 0.22666 0.51666 0.0
C616 C 0.87914 0.22226 0.4802 0.0
C617 C 0.88794 0.22053 0.47131 0.0
C618 C 0.89673 0.22135 0.48551 0.0
C619 C 0.89703 0.22437 0.50795 0.0
C620 C 0.8887 0.21911 0.44687 0.0
C621 C 0.89894 0.22713 0.43588 0.0
C622 C 0.87932 0.21054 0.43421 0.0
C623 C 0.86851 0.20147 0.44499 0.0
C624 C 0.86899 0.1945 0.4622 0.0
C625 C 0.85878 0.18599 0.47234 0.0
C626 C 0.84802 0.1843 0.46532 0.0
C627 C 0.84745 0.19111 0.44811 0.0
C628 C 0.85764 0.19964 0.43793 0.0
C629 C 0.90272 0.21677 0.34388 0.0
C630 C 0.89641 0.21985 0.32926 0.0
C631 C 0.9004 0.21566 0.36677 0.0
C632 C 0.89171 0.21757 0.37549 0.0
C633 C 0.88487 0.21989 0.36086 0.0
C634 C 0.88723 0.22107 0.3379 0.0
C635 C 0.89066 0.21838 0.39997 0.0
C636 C 0.88039 0.21035 0.41083 0.0
C637 C 0.90001 0.22693 0.41263 0.0
C638 C 0.91084 0.23602 0.40194 0.0
C639 C 0.91046 0.24348 0.38571 0.0
C640 C 0.92069 0.25193 0.37552 0.0
C641 C 0.93136 0.25307 0.38156 0.0
C642 C 0.93184 0.24578 0.39785 0.0
C643 C 0.92163 0.2373 0.40807 0.0
H644 H 0.93927 0.25963 0.37366 0.0
H645 H 0.84013 0.17771 0.47319 0.0
H646 H 0.7942 0.6681 0.32352 0.0
H647 H 0.79785 0.66659 0.36319 0.0
H648 H 0.78592 0.6905 0.37967 0.0
H649 H 0.78253 0.69226 0.34025 0.0
H650 H 0.80384 0.69445 0.40551 0.0
H651 H 0.7677 0.66069 0.3818 0.0
H652 H 0.75582 0.64327 0.35883 0.0
H653 H 0.77621 0.62835 0.38114 0.0
H654 H 0.7883 0.64575 0.40405 0.0
H655 H 0.77574 0.67887 0.5098 0.0
H656 H 0.78296 0.68385 0.47165 0.0
H657 H 0.79414 0.65847 0.47372 0.0
H658 H 0.78673 0.65328 0.51192 0.0
H659 H 0.78077 0.65513 0.43857 0.0
H660 H 0.81407 0.68773 0.46918 0.0
H661 H 0.82503 0.70506 0.49285 0.0
H662 H 0.80949 0.72226 0.45853 0.0
H663 H 0.7983 0.70498 0.43486 0.0
C664 C 0.7925 0.67315 0.33557 0.0
C665 C 0.78794 0.68019 0.32872 0.0
C666 C 0.79458 0.67227 0.35824 0.0
C667 C 0.792 0.67831 0.37443 0.0
C668 C 0.78798 0.68576 0.36749 0.0
C669 C 0.78598 0.6867 0.34491 0.0
C670 C 0.79255 0.67627 0.39868 0.0
C671 C 0.79881 0.68586 0.4128 0.0
C672 C 0.78624 0.66502 0.40812 0.0
C673 C 0.77898 0.65457 0.39438 0.0
C674 C 0.7697 0.65373 0.38166 0.0
C675 C 0.76292 0.64386 0.36868 0.0
C676 C 0.76529 0.63473 0.36846 0.0
C677 C 0.77441 0.63544 0.38128 0.0
C678 C 0.78122 0.6453 0.39426 0.0
C679 C 0.77994 0.6745 0.50236 0.0
C680 C 0.78055 0.66559 0.51386 0.0
C681 C 0.78415 0.67742 0.48054 0.0
C682 C 0.78915 0.67158 0.46983 0.0
C683 C 0.79032 0.6631 0.48167 0.0
C684 C 0.78609 0.66016 0.50352 0.0
C685 C 0.7918 0.67337 0.44556 0.0
C686 C 0.78609 0.66371 0.43139 0.0
C687 C 0.79854 0.68457 0.43614 0.0
C688 C 0.8053 0.69502 0.45029 0.0
C689 C 0.81292 0.69518 0.46677 0.0
C690 C 0.81919 0.705 0.48018 0.0
C691 C 0.81795 0.71475 0.47721 0.0
C692 C 0.81045 0.7147 0.4608 0.0
C693 C 0.80416 0.7049 0.44735 0.0
H694 H 0.82281 0.72234 0.48762 0.0
H695 H 0.76003 0.62709 0.35841 0.0
H696 H 0.88586 0.62995 0.84974 0.0
H697 H 0.8915 0.63813 0.88725 0.0
H698 H 0.91011 0.67263 0.8592 0.0
H699 H 0.90458 0.66444 0.82153 0.0
H700 H 0.92219 0.67062 0.89271 0.0
H701 H 0.88295 0.66193 0.88228 0.0
H702 H 0.8622 0.64979 0.87291 0.0
H703 H 0.85794 0.62628 0.92614 0.0
H704 H 0.87871 0.63821 0.93564 0.0
H705 H 0.92323 0.70107 0.99204 0.0
H706 H 0.91996 0.69278 0.95439 0.0
H707 H 0.90449 0.65836 0.9826 0.0
H708 H 0.90761 0.6666 0.0203 0.0
H709 H 0.89119 0.66038 0.9492 0.0
H710 H 0.93079 0.67 0.96009 0.0
H711 H 0.95147 0.68279 0.96928 0.0
H712 H 0.95488 0.70543 0.91498 0.0
H713 H 0.93417 0.69286 0.90565 0.0
C714 C 0.89121 0.63928 0.85156 0.0
C715 C 0.89486 0.64656 0.83269 0.0
C716 C 0.8944 0.64395 0.87301 0.0
C717 C 0.90109 0.65601 0.87609 0.0
C718 C 0.90497 0.66329 0.85723 0.0
C719 C 0.90187 0.6586 0.8357 0.0
C720 C 0.90377 0.661 0.899 0.0
C721 C 0.9154 0.66849 0.90497 0.0
C722 C 0.89492 0.65808 0.91515 0.0
C723 C 0.88242 0.6509 0.90953 0.0
C724 C 0.87761 0.65412 0.89188 0.0
C725 C 0.86584 0.64729 0.88657 0.0
C726 C 0.85876 0.63725 0.89889 0.0
C727 C 0.86343 0.63405 0.91659 0.0
C728 C 0.8752 0.64085 0.92196 0.0
C729 C 0.91923 0.69174 0.9902 0.0
C730 C 0.91586 0.68449 0.0091 0.0
C731 C 0.91742 0.68703 0.96871 0.0
C732 C 0.9121 0.67497 0.96572 0.0
C733 C 0.9087 0.6677 0.98457 0.0
C734 C 0.91061 0.67242 0.0061 0.0
C735 C 0.90959 0.66993 0.94291 0.0
C736 C 0.89798 0.66246 0.93695 0.0
C737 C 0.91843 0.67297 0.92675 0.0
C738 C 0.9309 0.68054 0.93231 0.0
C739 C 0.93592 0.67776 0.95023 0.0
C740 C 0.94766 0.68496 0.95544 0.0
C741 C 0.95448 0.69493 0.94276 0.0
C742 C 0.94959 0.69771 0.92481 0.0
C743 C 0.93785 0.69054 0.91954 0.0
H744 H 0.96356 0.7005 0.94682 0.0
H745 H 0.84965 0.63197 0.89475 0.0
H746 H 0.32425 0.22896 0.81799 0.0
H747 H 0.31899 0.22727 0.85755 0.0
H748 H 0.35525 0.2439 0.87561 0.0
H749 H 0.36049 0.24526 0.83607 0.0
H750 H 0.34381 0.22645 0.90142 0.0
H751 H 0.33855 0.25798 0.87838 0.0
H752 H 0.33103 0.26798 0.85483 0.0
H753 H 0.29608 0.24247 0.87237 0.0
H754 H 0.30338 0.23221 0.89579 0.0
H755 H 0.33546 0.23584 0.01536 0.0
H756 H 0.34108 0.23993 0.97595 0.0
H757 H 0.30545 0.21748 0.95627 0.0
H758 H 0.29976 0.21344 0.99567 0.0
H759 H 0.3169 0.23871 0.93194 0.0
H760 H 0.32281 0.20706 0.95403 0.0
H761 H 0.33081 0.19753 0.97768 0.0
H762 H 0.36547 0.22453 0.96214 0.0
H763 H 0.35766 0.2343 0.93864 0.0
C764 C 0.3311 0.23243 0.8304 0.0
C765 C 0.34279 0.23741 0.82398 0.0
C766 C 0.32809 0.23146 0.85303 0.0
C767 C 0.33673 0.23566 0.86963 0.0
C768 C 0.34842 0.24062 0.86316 0.0
C769 C 0.35141 0.24142 0.84057 0.0
C770 C 0.3336 0.2345 0.89376 0.0
C771 C 0.33809 0.22933 0.90809 0.0
C772 C 0.32594 0.23804 0.90252 0.0
C773 C 0.32152 0.24427 0.88869 0.0
C774 C 0.32926 0.25446 0.87711 0.0
C775 C 0.32503 0.26018 0.86379 0.0
C776 C 0.31308 0.25585 0.86206 0.0
C777 C 0.30533 0.24581 0.87371 0.0
C778 C 0.30951 0.24004 0.88703 0.0
C779 C 0.32879 0.23199 0.00267 0.0
C780 C 0.31715 0.22445 0.00857 0.0
C781 C 0.33203 0.23424 0.98017 0.0
C782 C 0.32368 0.22899 0.96323 0.0
C783 C 0.31201 0.22165 0.9691 0.0
C784 C 0.30879 0.21931 0.99158 0.0
C785 C 0.32716 0.23072 0.93937 0.0
C786 C 0.3227 0.23595 0.92516 0.0
C787 C 0.33495 0.22737 0.93074 0.0
C788 C 0.33965 0.22147 0.94478 0.0
C789 C 0.33213 0.21101 0.95581 0.0
C790 C 0.33663 0.20556 0.96916 0.0
C791 C 0.34864 0.21044 0.97147 0.0
C792 C 0.35617 0.22077 0.96037 0.0
C793 C 0.35171 0.22626 0.94703 0.0
H794 H 0.35211 0.2062 0.98181 0.0
H795 H 0.30983 0.26028 0.85172 0.0
H796 H 0.75119 0.11286 0.8459 0.0
H797 H 0.75334 0.10996 0.88565 0.0
H798 H 0.76987 0.09014 0.86851 0.0
H799 H 0.76778 0.09306 0.8288 0.0
H800 H 0.7545 0.07978 0.90165 0.0
H801 H 0.78568 0.11836 0.88582 0.0
H802 H 0.79445 0.13852 0.87218 0.0
H803 H 0.77441 0.14537 0.91974 0.0
H804 H 0.7654 0.12519 0.93347 0.0
H805 H 0.78397 0.08364 0.00324 0.0
H806 H 0.77901 0.08543 0.96457 0.0
H807 H 0.75983 0.1017 0.98763 0.0
H808 H 0.76483 0.10001 0.02638 0.0
H809 H 0.77523 0.11359 0.95241 0.0
H810 H 0.74499 0.07514 0.96978 0.0
H811 H 0.73664 0.05506 0.98358 0.0
H812 H 0.75535 0.04802 0.93326 0.0
H813 H 0.76396 0.06813 0.91936 0.0
C814 C 0.75526 0.10786 0.85064 0.0
C815 C 0.75912 0.10299 0.83425 0.0
C816 C 0.7565 0.10623 0.87334 0.0
C817 C 0.76182 0.09987 0.88007 0.0
C818 C 0.76565 0.09498 0.86371 0.0
C819 C 0.76436 0.09657 0.841 0.0
C820 C 0.76354 0.09845 0.90414 0.0
C821 C 0.75914 0.08718 0.91269 0.0
C822 C 0.76935 0.10809 0.91869 0.0
C823 C 0.77477 0.12023 0.9105 0.0
C824 C 0.78307 0.12414 0.89325 0.0
C825 C 0.7881 0.13557 0.88553 0.0
C826 C 0.78496 0.14321 0.89505 0.0
C827 C 0.77681 0.13944 0.91236 0.0
C828 C 0.77175 0.128 0.92012 0.0
C829 C 0.77863 0.08753 6e-05 0.0
C830 C 0.77461 0.0915 0.01781 0.0
C831 C 0.77577 0.0885 0.978 0.0
C832 C 0.76895 0.09358 0.97329 0.0
C833 C 0.76502 0.09767 0.99097 0.0
C834 C 0.76777 0.09658 0.01308 0.0
C835 C 0.76629 0.09494 0.94981 0.0
C836 C 0.77052 0.1062 0.94139 0.0
C837 C 0.76038 0.0853 0.93538 0.0
C838 C 0.75521 0.07318 0.94366 0.0
C839 C 0.74741 0.06934 0.96178 0.0
C840 C 0.74261 0.05795 0.9696 0.0
C841 C 0.74549 0.05028 0.95934 0.0
C842 C 0.75314 0.05398 0.9412 0.0
C843 C 0.75798 0.06537 0.93334 0.0
H844 H 0.74176 0.04145 0.96541 0.0
H845 H 0.78886 0.15206 0.88905 0.0
H846 H 0.67162 0.88573 0.47246 0.0
H847 H 0.67393 0.88854 0.51288 0.0
H848 H 0.64206 0.88961 0.51635 0.0
H849 H 0.63973 0.88684 0.47581 0.0
H850 H 0.65833 0.90618 0.5419 0.0
H851 H 0.64304 0.86541 0.53274 0.0
H852 H 0.64183 0.84765 0.51727 0.0
H853 H 0.6757 0.85785 0.54334 0.0
H854 H 0.67718 0.87576 0.55871 0.0
H855 H 0.6547 0.90083 0.66057 0.0
H856 H 0.65012 0.8964 0.62092 0.0
H857 H 0.68289 0.89777 0.61072 0.0
H858 H 0.68755 0.90218 0.65032 0.0
H859 H 0.66473 0.87918 0.58916 0.0
H860 H 0.68017 0.92049 0.59652 0.0
H861 H 0.68107 0.93809 0.61215 0.0
H862 H 0.64627 0.9264 0.58968 0.0
H863 H 0.6451 0.90864 0.57418 0.0
C864 C 0.66511 0.88659 0.48183 0.0
C865 C 0.65558 0.88623 0.47092 0.0
C866 C 0.66641 0.88814 0.50494 0.0
C867 C 0.65809 0.88914 0.5177 0.0
C868 C 0.64861 0.8889 0.50683 0.0
C869 C 0.64734 0.88742 0.48363 0.0
C870 C 0.65938 0.89052 0.54236 0.0
C871 C 0.65953 0.90016 0.55228 0.0
C872 C 0.66112 0.88277 0.55588 0.0
C873 C 0.66026 0.87198 0.54671 0.0
C874 C 0.65027 0.86391 0.53503 0.0
C875 C 0.64953 0.85381 0.5263 0.0
C876 C 0.65869 0.85164 0.52927 0.0
C877 C 0.66861 0.85955 0.54103 0.0
C878 C 0.6694 0.86967 0.54978 0.0
C879 C 0.6609 0.90011 0.64994 0.0
C880 C 0.67152 0.90192 0.6586 0.0
C881 C 0.65828 0.89762 0.62727 0.0
C882 C 0.66622 0.89688 0.61286 0.0
C883 C 0.67666 0.89832 0.62157 0.0
C884 C 0.67932 0.90088 0.6442 0.0
C885 C 0.6638 0.89489 0.58858 0.0
C886 C 0.66344 0.88513 0.57876 0.0
C887 C 0.6618 0.90249 0.57518 0.0
C888 C 0.6625 0.91318 0.58442 0.0
C889 C 0.67267 0.92163 0.59508 0.0
C890 C 0.67324 0.93164 0.60388 0.0
C891 C 0.66372 0.93335 0.60197 0.0
C892 C 0.65363 0.92506 0.59119 0.0
C893 C 0.65301 0.91502 0.58238 0.0
H894 H 0.66418 0.94111 0.60879 0.0
H895 H 0.6581 0.84381 0.52251 0.0
H896 H 0.11199 0.74244 0.64157 0.0
H897 H 0.10991 0.74725 0.60307 0.0
H898 H 0.09136 0.76418 0.62633 0.0
H899 H 0.0932 0.75912 0.66493 0.0
H900 H 0.08173 0.75274 0.58926 0.0
H901 H 0.12053 0.77976 0.61184 0.0
H902 H 0.14 0.78612 0.62728 0.0
H903 H 0.14646 0.76791 0.57504 0.0
H904 H 0.12695 0.7613 0.55945 0.0
H905 H 0.09243 0.78779 0.49111 0.0
H906 H 0.09243 0.78133 0.52953 0.0
H907 H 0.10488 0.75888 0.50579 0.0
H908 H 0.10489 0.7653 0.46735 0.0
H909 H 0.11736 0.77325 0.5429 0.0
H910 H 0.078 0.7467 0.52032 0.0
H911 H 0.05874 0.74143 0.50515 0.0
H912 H 0.05374 0.76036 0.55801 0.0
H913 H 0.07306 0.7659 0.57331 0.0
C914 C 0.10738 0.74711 0.63845 0.0
C915 C 0.10269 0.75035 0.65623 0.0
C916 C 0.10625 0.7499 0.61645 0.0
C917 C 0.10067 0.75627 0.6118 0.0
C918 C 0.0957 0.75925 0.62949 0.0
C919 C 0.09669 0.75631 0.65154 0.0
C920 C 0.10031 0.76005 0.58855 0.0
C921 C 0.08955 0.75736 0.57925 0.0
C922 C 0.11049 0.76596 0.57531 0.0
C923 C 0.12224 0.76994 0.5846 0.0
C924 C 0.12607 0.77704 0.60374 0.0
C925 C 0.13712 0.7807 0.61251 0.0
C926 C 0.14445 0.7774 0.60218 0.0
C927 C 0.14076 0.77045 0.58303 0.0
C928 C 0.12972 0.76675 0.57421 0.0
C929 C 0.09512 0.78144 0.49411 0.0
C930 C 0.09848 0.7769 0.47625 0.0
C931 C 0.09507 0.77773 0.516 0.0
C932 C 0.09855 0.76955 0.52042 0.0
C933 C 0.10207 0.76513 0.50266 0.0
C934 C 0.10197 0.76871 0.48072 0.0
C935 C 0.09881 0.76585 0.54368 0.0
C936 C 0.10956 0.76861 0.55297 0.0
C937 C 0.08867 0.76017 0.55696 0.0
C938 C 0.07703 0.75682 0.54782 0.0
C939 C 0.07284 0.74983 0.52859 0.0
C940 C 0.0619 0.74678 0.51999 0.0
C941 C 0.05503 0.75058 0.53057 0.0
C942 C 0.05908 0.75743 0.54981 0.0
C943 C 0.07002 0.76052 0.55846 0.0
H944 H 0.04656 0.74821 0.52389 0.0
H945 H 0.153 0.78024 0.60899 0.0
H946 H 0.2246 0.32421 0.68959 0.0
H947 H 0.22366 0.31881 0.65027 0.0
H948 H 0.24172 0.35505 0.63174 0.0
H949 H 0.24243 0.36045 0.67107 0.0
H950 H 0.22453 0.34385 0.60496 0.0
H951 H 0.2552 0.33779 0.63045 0.0
H952 H 0.2647 0.33014 0.65508 0.0
H953 H 0.23844 0.29524 0.63915 0.0
H954 H 0.22875 0.30268 0.61445 0.0
H955 H 0.23481 0.3341 0.49243 0.0
H956 H 0.23855 0.34003 0.53173 0.0
H957 H 0.21519 0.30472 0.55218 0.0
H958 H 0.21149 0.29872 0.51291 0.0
H959 H 0.23609 0.31588 0.5774 0.0
H960 H 0.20545 0.32272 0.55231 0.0
H961 H 0.19663 0.33096 0.52736 0.0
H962 H 0.22412 0.36542 0.54261 0.0
H963 H 0.23319 0.35737 0.56742 0.0
C964 C 0.22857 0.33102 0.67717 0.0
C965 C 0.23377 0.34275 0.68339 0.0
C966 C 0.22802 0.32793 0.65467 0.0
C967 C 0.23282 0.33652 0.638 0.0
C968 C 0.23799 0.34826 0.64425 0.0
C969 C 0.2384 0.35134 0.66672 0.0
C970 C 0.232 0.33327 0.614 0.0
C971 C 0.22727 0.3379 0.59892 0.0
C972 C 0.23535 0.32533 0.60609 0.0
C973 C 0.2412 0.3208 0.62075 0.0
C974 C 0.25142 0.32848 0.63229 0.0
C975 C 0.25684 0.32419 0.64624 0.0
C976 C 0.25215 0.31221 0.64877 0.0
C977 C 0.24205 0.30451 0.63721 0.0
C978 C 0.23661 0.30877 0.62318 0.0
C979 C 0.23068 0.32756 0.50529 0.0
C980 C 0.22297 0.31592 0.49962 0.0
C981 C 0.23273 0.33098 0.52772 0.0
C982 C 0.22713 0.32281 0.54483 0.0
C983 C 0.21963 0.31114 0.53922 0.0
C984 C 0.21748 0.30775 0.5168 0.0
C985 C 0.22867 0.32649 0.56856 0.0
C986 C 0.23348 0.32192 0.58353 0.0
C987 C 0.22553 0.33459 0.57636 0.0
C988 C 0.22006 0.33944 0.56152 0.0
C989 C 0.20966 0.33205 0.55019 0.0
C990 C 0.20461 0.33669 0.5361 0.0
C991 C 0.20983 0.3487 0.53335 0.0
C992 C 0.2201 0.35611 0.54473 0.0
C993 C 0.22519 0.35152 0.55881 0.0
H994 H 0.2059 0.35228 0.52244 0.0
H995 H 0.25634 0.3089 0.65963 0.0
H996 H 0.00811 0.45832 0.65145 0.0
H997 H 0.01157 0.46368 0.69102 0.0
H998 H 0.9776 0.43513 0.70736 0.0
H999 H 0.97396 0.4299 0.66798 0.0
H1000 H 0.98275 0.45329 0.73372 0.0
H1001 H 0.002 0.4323 0.70915 0.0
H1002 H 0.01552 0.42922 0.68576 0.0
H1003 H 0.04395 0.46184 0.70777 0.0
H1004 H 0.03056 0.46517 0.7311 0.0
H1005 H 0.9866 0.43098 0.83831 0.0
H1006 H 0.98436 0.43576 0.79996 0.0
H1007 H 0.01946 0.46465 0.8007 0.0
H1008 H 0.02184 0.45985 0.83909 0.0
H1009 H 0.01587 0.45084 0.76581 0.0
H1010 H 0.99643 0.46935 0.79701 0.0
H1011 H 0.98253 0.4714 0.82114 0.0
H1012 H 0.95407 0.44274 0.78766 0.0
H1013 H 0.9678 0.44039 0.76354 0.0
C1014 C 0.00129 0.45332 0.66342 0.0
C1015 C 0.99083 0.44358 0.65658 0.0
C1016 C 0.00329 0.45638 0.68604 0.0
C1017 C 0.99492 0.44967 0.70219 0.0
C1018 C 0.9842 0.44042 0.69522 0.0
C1019 C 0.98216 0.4374 0.67265 0.0
C1020 C 0.99762 0.45146 0.72643 0.0
C1021 C 0.98999 0.45276 0.74079 0.0
C1022 C 0.00723 0.45106 0.7356 0.0
C1023 C 0.01527 0.44905 0.72162 0.0
C1024 C 0.01113 0.43886 0.70886 0.0
C1025 C 0.01876 0.43706 0.69564 0.0
C1026 C 0.03058 0.44535 0.69522 0.0
C1027 C 0.03479 0.45544 0.70807 0.0
C1028 C 0.02719 0.45729 0.72129 0.0
C1029 C 0.99379 0.43848 0.8305 0.0
C1030 C 0.00443 0.44497 0.84172 0.0
C1031 C 0.99246 0.44126 0.80859 0.0
C1032 C 0.00172 0.45061 0.79749 0.0
C1033 C 0.0122 0.45741 0.80897 0.0
C1034 C 0.01353 0.45465 0.83092 0.0
C1035 C 0.00084 0.45239 0.77324 0.0
C1036 C 0.00881 0.4517 0.75883 0.0
C1037 C 0.99148 0.45326 0.7641 0.0
C1038 C 0.98317 0.45466 0.77853 0.0
C1039 C 0.98721 0.46343 0.79489 0.0
C1040 C 0.97936 0.46465 0.80855 0.0
C1041 C 0.96743 0.4572 0.80595 0.0
C1042 C 0.96332 0.44851 0.78965 0.0
C1043 C 0.97113 0.44724 0.77595 0.0
H1044 H 0.96136 0.45817 0.81655 0.0
H1045 H 0.03648 0.44395 0.68498 0.0
H1046 H 0.55683 0.56155 0.6505 0.0
H1047 H 0.55093 0.5624 0.68882 0.0
H1048 H 0.56733 0.54329 0.71173 0.0
H1049 H 0.57301 0.54215 0.67339 0.0
H1050 H 0.54789 0.53733 0.73547 0.0
H1051 H 0.58193 0.57275 0.71269 0.0
H1052 H 0.59333 0.5898 0.68853 0.0
H1053 H 0.56904 0.60153 0.70083 0.0
H1054 H 0.5574 0.58445 0.72483 0.0
H1055 H 0.5654 0.56004 0.84588 0.0
H1056 H 0.56325 0.55331 0.80721 0.0
H1057 H 0.54572 0.57223 0.79063 0.0
H1058 H 0.54789 0.57907 0.82916 0.0
H1059 H 0.5638 0.57764 0.76325 0.0
H1060 H 0.53104 0.54283 0.79041 0.0
H1061 H 0.52051 0.52595 0.81535 0.0
H1062 H 0.54324 0.51321 0.79608 0.0
H1063 H 0.55402 0.53011 0.77125 0.0
C1064 C 0.559 0.55734 0.66362 0.0
C1065 C 0.56555 0.55193 0.65893 0.0
C1066 C 0.55564 0.55785 0.68552 0.0
C1067 C 0.55891 0.55312 0.70318 0.0
C1068 C 0.56475 0.54704 0.69837 0.0
C1069 C 0.56803 0.54643 0.67643 0.0
C1070 C 0.55726 0.55547 0.72675 0.0
C1071 C 0.5514 0.54613 0.74162 0.0
C1072 C 0.56172 0.56697 0.73468 0.0
C1073 C 0.56873 0.57726 0.72033 0.0
C1074 C 0.57898 0.57892 0.7101 0.0
C1075 C 0.58549 0.5886 0.69646 0.0
C1076 C 0.58189 0.59672 0.69309 0.0
C1077 C 0.5718 0.59521 0.70342 0.0
C1078 C 0.56524 0.58554 0.71704 0.0
C1079 C 0.56091 0.56262 0.83411 0.0
C1080 C 0.55691 0.57018 0.84058 0.0
C1081 C 0.55964 0.55871 0.81203 0.0
C1082 C 0.5543 0.56225 0.79606 0.0
C1083 C 0.54987 0.5694 0.80269 0.0
C1084 C 0.55112 0.5733 0.82475 0.0
C1085 C 0.55441 0.5595 0.77207 0.0
C1086 C 0.56008 0.5688 0.75711 0.0
C1087 C 0.54988 0.54799 0.76421 0.0
C1088 C 0.5434 0.5378 0.7791 0.0
C1089 C 0.53386 0.53648 0.79162 0.0
C1090 C 0.52783 0.5269 0.80571 0.0
C1091 C 0.53122 0.51853 0.80733 0.0
C1092 C 0.54063 0.51971 0.79482 0.0
C1093 C 0.5467 0.52928 0.78071 0.0
H1094 H 0.52654 0.51111 0.81825 0.0
H1095 H 0.58695 0.60421 0.68253 0.0
H1096 H 0.43739 0.01948 0.68947 0.0
H1097 H 0.43979 0.0161 0.72854 0.0
H1098 H 0.44471 0.98751 0.70981 0.0
H1099 H 0.44205 0.99069 0.6704 0.0
H1100 H 0.42928 0.98128 0.74234 0.0
H1101 H 0.46739 0.01288 0.73139 0.0
H1102 H 0.48254 0.03226 0.71872 0.0
H1103 H 0.46902 0.04828 0.76248 0.0
H1104 H 0.45369 0.02899 0.77519 0.0
H1105 H 0.43472 0.97444 0.85918 0.0
H1106 H 0.44063 0.97838 0.81989 0.0
H1107 H 0.43407 0.00704 0.82006 0.0
H1108 H 0.42827 0.00327 0.85924 0.0
H1109 H 0.45371 0.0122 0.79657 0.0
H1110 H 0.41371 0.98053 0.80129 0.0
H1111 H 0.39825 0.96117 0.81343 0.0
H1112 H 0.41566 0.94538 0.78077 0.0
H1113 H 0.4313 0.96468 0.76867 0.0
C1114 C 0.43913 0.01255 0.69354 0.0
C1115 C 0.43948 0.00532 0.67676 0.0
C1116 C 0.44059 0.01069 0.71595 0.0
C1117 C 0.44258 0.00164 0.72214 0.0
C1118 C 0.44323 0.99457 0.70541 0.0
C1119 C 0.44173 0.99641 0.68289 0.0
C1120 C 0.44294 0.99906 0.74619 0.0
C1121 C 0.43486 0.98796 0.75412 0.0
C1122 C 0.45008 0.00782 0.76164 0.0
C1123 C 0.45934 0.01946 0.75417 0.0
C1124 C 0.4676 0.02053 0.73822 0.0
C1125 C 0.47623 0.0315 0.73104 0.0
C1126 C 0.47673 0.04149 0.73977 0.0
C1127 C 0.46862 0.04053 0.75573 0.0
C1128 C 0.45997 0.02958 0.76296 0.0
C1129 C 0.43468 0.98168 0.85093 0.0
C1130 C 0.43091 0.98848 0.8623 0.0
C1131 C 0.43803 0.98389 0.82847 0.0
C1132 C 0.43766 0.99292 0.817 0.0
C1133 C 0.43442 3e-05 0.8286 0.0
C1134 C 0.43105 0.99782 0.85099 0.0
C1135 C 0.43985 0.99455 0.79259 0.0
C1136 C 0.44838 0.00546 0.78466 0.0
C1137 C 0.43314 0.98563 0.77711 0.0
C1138 C 0.42374 0.97404 0.78433 0.0
C1139 C 0.41428 0.97294 0.79686 0.0
C1140 C 0.40548 0.96198 0.8037 0.0
C1141 C 0.406 0.95205 0.79794 0.0
C1142 C 0.41529 0.95307 0.78526 0.0
C1143 C 0.42412 0.96402 0.7784 0.0
H1144 H 0.39917 0.94358 0.80325 0.0
H1145 H 0.48342 0.04998 0.73419 0.0
H1146 H 0.56118 0.00018 0.35754 0.0
H1147 H 0.56075 0.99378 0.31906 0.0
H1148 H 0.57873 0.0295 0.29705 0.0
H1149 H 0.57894 0.03589 0.33552 0.0
H1150 H 0.56194 0.01733 0.26979 0.0
H1151 H 0.59246 0.01264 0.30115 0.0
H1152 H 0.60166 0.00584 0.32843 0.0
H1153 H 0.57632 0.97042 0.31372 0.0
H1154 H 0.5669 0.97701 0.28647 0.0
H1155 H 0.57362 0.00472 0.16056 0.0
H1156 H 0.57696 0.01185 0.19913 0.0
H1157 H 0.55433 0.977 0.22297 0.0
H1158 H 0.55108 0.96981 0.18444 0.0
H1159 H 0.57462 0.98928 0.24877 0.0
H1160 H 0.54386 0.99452 0.21847 0.0
H1161 H 0.53508 0.00168 0.19098 0.0
H1162 H 0.56187 0.0368 0.20378 0.0
H1163 H 0.5709 0.02982 0.23114 0.0
C1164 C 0.56523 0.00666 0.34455 0.0
C1165 C 0.5703 0.01853 0.34955 0.0
C1166 C 0.56497 0.003 0.32254 0.0
C1167 C 0.56993 0.01116 0.30516 0.0
C1168 C 0.57489 0.02303 0.31015 0.0
C1169 C 0.57502 0.02668 0.33212 0.0
C1170 C 0.56955 0.00731 0.28167 0.0
C1171 C 0.56492 0.01136 0.26518 0.0
C1172 C 0.57322 0.99933 0.27564 0.0
C1173 C 0.57892 0.99533 0.29189 0.0
C1174 C 0.5888 0.0034 0.30383 0.0
C1175 C 0.59406 0.99958 0.31927 0.0
C1176 C 0.58956 0.9877 0.32285 0.0
C1177 C 0.5798 0.97962 0.31094 0.0
C1178 C 0.57451 0.98339 0.29546 0.0
C1179 C 0.56959 0.99854 0.17403 0.0
C1180 C 0.56221 0.98669 0.16951 0.0
C1181 C 0.57141 0.00264 0.19604 0.0
C1182 C 0.56586 0.99495 0.21388 0.0
C1183 C 0.55872 0.98307 0.20944 0.0
C1184 C 0.55682 0.97899 0.18744 0.0
C1185 C 0.56705 0.99933 0.23709 0.0
C1186 C 0.57178 0.99534 0.25347 0.0
C1187 C 0.56358 0.00744 0.24303 0.0
C1188 C 0.55812 0.01164 0.22666 0.0
C1189 C 0.54793 0.00376 0.21528 0.0
C1190 C 0.5429 0.00779 0.19975 0.0
C1191 C 0.54793 0.01968 0.19558 0.0
C1192 C 0.55799 0.02758 0.20699 0.0
C1193 C 0.56306 0.0236 0.22253 0.0
H1194 H 0.54402 0.02278 0.18356 0.0
H1195 H 0.59364 0.98476 0.33481 0.0
H1196 H 0.99698 0.56386 0.14583 0.0
H1197 H 0.9905 0.56326 0.1843 0.0
H1198 H 0.02617 0.58151 0.20645 0.0
H1199 H 0.03266 0.58198 0.16798 0.0
H1200 H 0.01423 0.56408 0.23249 0.0
H1201 H 0.00876 0.59477 0.20454 0.0
H1202 H 0.00165 0.6045 0.17922 0.0
H1203 H 0.96643 0.5783 0.19298 0.0
H1204 H 0.97332 0.56837 0.21834 0.0
H1205 H 0.00161 0.57334 0.34325 0.0
H1206 H 0.00855 0.57744 0.30458 0.0
H1207 H 0.97368 0.55483 0.28088 0.0
H1208 H 0.96666 0.55086 0.31955 0.0
H1209 H 0.98557 0.57552 0.25614 0.0
H1210 H 0.99158 0.5447 0.28318 0.0
H1211 H 0.99901 0.53561 0.30938 0.0
H1212 H 0.03393 0.56304 0.29727 0.0
H1213 H 0.02667 0.57238 0.27122 0.0
C1214 C 0.00344 0.56799 0.15882 0.0
C1215 C 0.01533 0.57316 0.15388 0.0
C1216 C 0.99972 0.56762 0.18084 0.0
C1217 C 0.00784 0.57253 0.19828 0.0
C1218 C 0.01974 0.57771 0.1933 0.0
C1219 C 0.02344 0.57797 0.17133 0.0
C1220 C 0.00394 0.57162 0.22187 0.0
C1221 C 0.00813 0.5668 0.23768 0.0
C1222 C 0.99576 0.57489 0.22863 0.0
C1223 C 0.99157 0.58077 0.21319 0.0
C1224 C 0.9995 0.59102 0.20203 0.0
C1225 C 0.99551 0.59659 0.18771 0.0
C1226 C 0.9836 0.59199 0.18442 0.0
C1227 C 0.97565 0.58184 0.19551 0.0
C1228 C 0.9796 0.57625 0.20991 0.0
C1229 C 0.99538 0.56949 0.32981 0.0
C1230 C 0.98357 0.56192 0.3344 0.0
C1231 C 0.99937 0.57173 0.30773 0.0
C1232 C 0.99162 0.56641 0.28989 0.0
C1233 C 0.97978 0.55905 0.29442 0.0
C1234 C 0.97581 0.55674 0.31649 0.0
C1235 C 0.99593 0.56805 0.26655 0.0
C1236 C 0.99176 0.57294 0.25085 0.0
C1237 C 0.0042 0.56492 0.25987 0.0
C1238 C 0.00857 0.5593 0.27545 0.0
C1239 C 0.00083 0.54884 0.28625 0.0
C1240 C 0.00501 0.54364 0.30105 0.0
C1241 C 0.01693 0.54877 0.30504 0.0
C1242 C 0.02469 0.55909 0.29419 0.0
C1243 C 0.02055 0.56434 0.2794 0.0
H1244 H 0.02015 0.54472 0.31649 0.0
H1245 H 0.98052 0.59632 0.17335 0.0
H1246 H 0.42219 0.416 0.33971 0.0
H1247 H 0.41968 0.4178 0.29963 0.0
H1248 H 0.45321 0.449 0.29721 0.0
H1249 H 0.45563 0.4474 0.33737 0.0
H1250 H 0.4367 0.45131 0.27403 0.0
H1251 H 0.4501 0.42368 0.27935 0.0
H1252 H 0.4494 0.40576 0.29249 0.0
H1253 H 0.41568 0.38526 0.26291 0.0
H1254 H 0.41612 0.40308 0.24984 0.0
H1255 H 0.44909 0.4576 0.15888 0.0
H1256 H 0.44947 0.45471 0.19915 0.0
H1257 H 0.41677 0.42265 0.19451 0.0
H1258 H 0.41637 0.42551 0.15415 0.0
H1259 H 0.43133 0.42009 0.22155 0.0
H1260 H 0.41807 0.44735 0.21461 0.0
H1261 H 0.41843 0.46511 0.20152 0.0
H1262 H 0.45117 0.4861 0.23431 0.0
H1263 H 0.45109 0.46845 0.24735 0.0
C1264 C 0.4289 0.42339 0.33077 0.0
C1265 C 0.43901 0.43168 0.34177 0.0
C1266 C 0.42753 0.42431 0.30779 0.0
C1267 C 0.43628 0.43351 0.29543 0.0
C1268 C 0.44633 0.44185 0.30644 0.0
C1269 C 0.44773 0.4409 0.32936 0.0
C1270 C 0.43508 0.43443 0.27096 0.0
C1271 C 0.43564 0.44454 0.26251 0.0
C1272 C 0.43335 0.42544 0.25604 0.0
C1273 C 0.43309 0.41472 0.26384 0.0
C1274 C 0.4425 0.41536 0.27581 0.0
C1275 C 0.44215 0.40521 0.28321 0.0
C1276 C 0.43249 0.39438 0.2786 0.0
C1277 C 0.42316 0.39366 0.26651 0.0
C1278 C 0.42345 0.40378 0.25909 0.0
C1279 C 0.442 0.44991 0.16643 0.0
C1280 C 0.43278 0.4417 0.15329 0.0
C1281 C 0.4422 0.44829 0.18946 0.0
C1282 C 0.43307 0.43853 0.19991 0.0
C1283 C 0.42392 0.43022 0.18679 0.0
C1284 C 0.42375 0.43181 0.16368 0.0
C1285 C 0.43311 0.43706 0.22453 0.0
C1286 C 0.43231 0.42684 0.23303 0.0
C1287 C 0.43455 0.44593 0.23954 0.0
C1288 C 0.43462 0.45657 0.23179 0.0
C1289 C 0.42539 0.45575 0.21889 0.0
C1290 C 0.42554 0.4658 0.2115 0.0
C1291 C 0.43483 0.47673 0.21704 0.0
C1292 C 0.44398 0.47763 0.23002 0.0
C1293 C 0.44389 0.46761 0.23743 0.0
H1294 H 0.43493 0.4845 0.2113 0.0
H1295 H 0.43224 0.38653 0.28434 0.0
H1296 H 0.05299 0.31611 0.27178 0.0
H1297 H 0.03186 0.30628 0.27597 0.0
H1298 H 0.02782 0.2855 0.21761 0.0
H1299 H 0.04887 0.29543 0.21304 0.0
H1300 H 0.01298 0.29331 0.21619 0.0
H1301 H 0.02434 0.27438 0.27101 0.0
H1302 H 0.03528 0.2734 0.30344 0.0
H1303 H 0.02077 0.28936 0.34485 0.0
H1304 H 0.00986 0.29057 0.31257 0.0
H1305 H 0.95438 0.24809 0.23231 0.0
H1306 H 0.97539 0.25988 0.22704 0.0
H1307 H 0.97776 0.28056 0.28452 0.0
H1308 H 0.95681 0.26876 0.29006 0.0
H1309 H 0.99343 0.27352 0.2867 0.0
H1310 H 0.98135 0.29162 0.23195 0.0
H1311 H 0.97034 0.29238 0.19944 0.0
H1312 H 0.98606 0.27773 0.15778 0.0
H1313 H 0.99705 0.27673 0.19013 0.0
C1314 C 0.0476 0.30941 0.2599 0.0
C1315 C 0.05261 0.30653 0.24211 0.0
C1316 C 0.03553 0.30378 0.26234 0.0
C1317 C 0.02826 0.29508 0.2472 0.0
C1318 C 0.03325 0.29221 0.22945 0.0
C1319 C 0.0453 0.29787 0.22693 0.0
C1320 C 0.01543 0.28898 0.24971 0.0
C1321 C 0.00869 0.28887 0.23152 0.0
C1322 C 0.00985 0.28342 0.26989 0.0
C1323 C 0.01638 0.28268 0.28932 0.0
C1324 C 0.02356 0.27776 0.28699 0.0
C1325 C 0.02974 0.27715 0.30535 0.0
C1326 C 0.02875 0.28135 0.32617 0.0
C1327 C 0.02155 0.28613 0.3287 0.0
C1328 C 0.01536 0.28677 0.31038 0.0
C1329 C 0.95935 0.25523 0.24368 0.0
C1330 C 0.95392 0.25745 0.26166 0.0
C1331 C 0.97136 0.26199 0.2406 0.0
C1332 C 0.97814 0.27113 0.25535 0.0
C1333 C 0.9727 0.27353 0.27298 0.0
C1334 C 0.96071 0.26679 0.27607 0.0
C1335 C 0.99097 0.2778 0.25314 0.0
C1336 C 0.99772 0.27801 0.27139 0.0
C1337 C 0.99654 0.28341 0.233 0.0
C1338 C 0.98994 0.284 0.21352 0.0
C1339 C 0.98239 0.28847 0.2159 0.0
C1340 C 0.97617 0.28896 0.19749 0.0
C1341 C 0.97748 0.28508 0.17657 0.0
C1342 C 0.98504 0.28072 0.17401 0.0
C1343 C 0.99128 0.2802 0.19236 0.0
H1344 H 0.97266 0.28547 0.16234 0.0
H1345 H 0.03354 0.28086 0.34037 0.0
H1346 H 0.73256 0.68668 0.28376 0.0
H1347 H 0.72055 0.69501 0.27324 0.0
H1348 H 0.74043 0.70855 0.21258 0.0
H1349 H 0.75269 0.70042 0.22325 0.0
H1350 H 0.73837 0.7249 0.23368 0.0
H1351 H 0.71214 0.6858 0.21168 0.0
H1352 H 0.70054 0.66452 0.21584 0.0
H1353 H 0.68145 0.66842 0.2698 0.0
H1354 H 0.69304 0.68974 0.26618 0.0
H1355 H 0.70173 0.74385 0.18709 0.0
H1356 H 0.71192 0.73311 0.19348 0.0
H1357 H 0.69503 0.72163 0.25752 0.0
H1358 H 0.68472 0.73235 0.25124 0.0
H1359 H 0.69528 0.70391 0.23311 0.0
H1360 H 0.72228 0.74305 0.25588 0.0
H1361 H 0.73383 0.76431 0.25128 0.0
H1362 H 0.75146 0.76009 0.19501 0.0
H1363 H 0.73989 0.73879 0.19909 0.0
C1364 C 0.73431 0.69131 0.26804 0.0
C1365 C 0.74362 0.69293 0.25439 0.0
C1366 C 0.72738 0.69602 0.26198 0.0
C1367 C 0.72953 0.70234 0.24203 0.0
C1368 C 0.73862 0.7037 0.22806 0.0
C1369 C 0.7456 0.69902 0.23414 0.0
C1370 C 0.72282 0.7082 0.23662 0.0
C1371 C 0.72895 0.72025 0.23314 0.0
C1372 C 0.71052 0.7022 0.23652 0.0
C1373 C 0.70353 0.68938 0.23878 0.0
C1374 C 0.70553 0.68213 0.22456 0.0
C1375 C 0.69895 0.67006 0.22679 0.0
C1376 C 0.69028 0.66512 0.24311 0.0
C1377 C 0.68817 0.67225 0.25719 0.0
C1378 C 0.69474 0.68433 0.25503 0.0
C1379 C 0.70015 0.73904 0.20254 0.0
C1380 C 0.69245 0.739 0.21872 0.0
C1381 C 0.706 0.73292 0.20617 0.0
C1382 C 0.7043 0.72666 0.22604 0.0
C1383 C 0.69647 0.72642 0.24207 0.0
C1384 C 0.69063 0.73259 0.2385 0.0
C1385 C 0.71087 0.72055 0.23021 0.0
C1386 C 0.7047 0.70849 0.23351 0.0
C1387 C 0.72315 0.72651 0.23008 0.0
C1388 C 0.73014 0.73932 0.22765 0.0
C1389 C 0.72855 0.74665 0.24241 0.0
C1390 C 0.73511 0.75871 0.23992 0.0
C1391 C 0.74335 0.76355 0.22283 0.0
C1392 C 0.74506 0.75633 0.20822 0.0
C1393 C 0.73852 0.74427 0.21063 0.0
H1394 H 0.74842 0.77288 0.22093 0.0
H1395 H 0.68519 0.65578 0.24481 0.0
H1396 H 0.29102 0.0421 0.25244 0.0
H1397 H 0.28305 0.02114 0.25026 0.0
H1398 H 0.31737 0.02644 0.23817 0.0
H1399 H 0.32537 0.04748 0.23968 0.0
H1400 H 0.30228 0.00964 0.21249 0.0
H1401 H 0.30434 0.01838 0.29038 0.0
H1402 H 0.30111 0.02672 0.3246 0.0
H1403 H 0.26422 0.00567 0.31592 0.0
H1404 H 0.26722 0.99732 0.28145 0.0
H1405 H 0.28566 0.9507 0.23503 0.0
H1406 H 0.29514 0.97181 0.23951 0.0
H1407 H 0.26164 0.96949 0.24303 0.0
H1408 H 0.2521 0.94842 0.23854 0.0
H1409 H 0.2774 0.98476 0.2744 0.0
H1410 H 0.27589 0.97681 0.19516 0.0
H1411 H 0.27957 0.96842 0.1615 0.0
H1412 H 0.31627 0.98804 0.174 0.0
H1413 H 0.31279 0.99643 0.20793 0.0
C1414 C 0.29687 0.03882 0.24918 0.0
C1415 C 0.30884 0.04646 0.24638 0.0
C1416 C 0.29231 0.02682 0.24808 0.0
C1417 C 0.29965 0.0222 0.24456 0.0
C1418 C 0.31155 0.02981 0.24104 0.0
C1419 C 0.31611 0.04183 0.24191 0.0
C1420 C 0.29488 0.00943 0.24469 0.0
C1421 C 0.297 0.00424 0.22621 0.0
C1422 C 0.28786 0.00232 0.26245 0.0
C1423 C 0.28601 0.0073 0.28322 0.0
C1424 C 0.29554 0.01559 0.29567 0.0
C1425 C 0.29375 0.02031 0.31513 0.0
C1426 C 0.28247 0.01675 0.3224 0.0
C1427 C 0.27295 0.00843 0.31026 0.0
C1428 C 0.27469 0.00369 0.29077 0.0
C1429 C 0.28031 0.95467 0.23703 0.0
C1430 C 0.26812 0.9479 0.23628 0.0
C1431 C 0.28574 0.96673 0.23949 0.0
C1432 C 0.27908 0.9722 0.24133 0.0
C1433 C 0.26693 0.96542 0.24157 0.0
C1434 C 0.26149 0.95339 0.23894 0.0
C1435 C 0.28473 0.98503 0.24215 0.0
C1436 C 0.28276 0.99021 0.2608 0.0
C1437 C 0.29197 0.99213 0.22466 0.0
C1438 C 0.29407 0.98714 0.20421 0.0
C1439 C 0.28474 0.97926 0.19083 0.0
C1440 C 0.28679 0.97452 0.17169 0.0
C1441 C 0.29815 0.97766 0.16565 0.0
C1442 C 0.30748 0.98559 0.17872 0.0
C1443 C 0.30547 0.99035 0.1979 0.0
H1444 H 0.29972 0.97398 0.15082 0.0
H1445 H 0.2811 0.02041 0.33748 0.0
H1446 H 0.05132 0.7276 0.76394 0.0
H1447 H 0.03127 0.7185 0.77696 0.0
H1448 H 0.0203 0.72292 0.7116 0.0
H1449 H 0.04044 0.73214 0.69839 0.0
H1450 H 0.0096 0.72818 0.74555 0.0
H1451 H 0.01634 0.69701 0.72616 0.0
H1452 H 0.02671 0.68596 0.72685 0.0
H1453 H 0.02125 0.68103 0.79772 0.0
H1454 H 0.01098 0.69219 0.7975 0.0
H1455 H 0.94934 0.68682 0.7577 0.0
H1456 H 0.96957 0.69826 0.74574 0.0
H1457 H 0.98084 0.69251 0.80971 0.0
H1458 H 0.96062 0.68091 0.82172 0.0
H1459 H 0.99144 0.68819 0.77629 0.0
H1460 H 0.98436 0.71906 0.79573 0.0
H1461 H 0.97402 0.73013 0.79511 0.0
H1462 H 0.98004 0.73567 0.72446 0.0
H1463 H 0.99028 0.72448 0.7246 0.0
C1464 C 0.04467 0.7267 0.75231 0.0
C1465 C 0.04748 0.73052 0.73006 0.0
C1466 C 0.0332 0.72147 0.75979 0.0
C1467 C 0.02428 0.7199 0.74517 0.0
C1468 C 0.02707 0.72402 0.72313 0.0
C1469 C 0.03856 0.72925 0.7156 0.0
C1470 C 0.01202 0.71366 0.7528 0.0
C1471 C 0.00556 0.71938 0.75201 0.0
C1472 C 0.00685 0.70228 0.76167 0.0
C1473 C 0.01299 0.69553 0.76184 0.0
C1474 C 0.01743 0.69365 0.74192 0.0
C1475 C 0.02328 0.68735 0.74222 0.0
C1476 C 0.02466 0.68283 0.76233 0.0
C1477 C 0.02018 0.68456 0.78216 0.0
C1478 C 0.01434 0.69086 0.78196 0.0
C1479 C 0.95612 0.68807 0.76932 0.0
C1480 C 0.95335 0.68292 0.79066 0.0
C1481 C 0.96769 0.69466 0.76248 0.0
C1482 C 0.97673 0.69631 0.77688 0.0
C1483 C 0.974 0.69134 0.79832 0.0
C1484 C 0.96243 0.68474 0.80517 0.0
C1485 C 0.989 0.70272 0.76921 0.0
C1486 C 0.99546 0.69701 0.7699 0.0
C1487 C 0.99415 0.7141 0.76028 0.0
C1488 C 0.98799 0.72083 0.76014 0.0
C1489 C 0.98339 0.72255 0.78002 0.0
C1490 C 0.97757 0.72886 0.77977 0.0
C1491 C 0.97635 0.73357 0.75975 0.0
C1492 C 0.98098 0.732 0.73995 0.0
C1493 C 0.9868 0.72568 0.74011 0.0
H1494 H 0.97184 0.73846 0.75959 0.0
H1495 H 0.02919 0.67795 0.76253 0.0
H1496 H 0.32421 0.27709 0.7417 0.0
H1497 H 0.3127 0.28607 0.73178 0.0
H1498 H 0.28507 0.26209 0.77495 0.0
H1499 H 0.29654 0.25295 0.7849 0.0
H1500 H 0.27692 0.26477 0.7343 0.0
H1501 H 0.30228 0.28935 0.79197 0.0
H1502 H 0.32105 0.30145 0.81084 0.0
H1503 H 0.33331 0.32452 0.75443 0.0
H1504 H 0.31466 0.31246 0.73507 0.0
H1505 H 0.24684 0.29682 0.73666 0.0
H1506 H 0.25687 0.28614 0.74556 0.0
H1507 H 0.28614 0.31015 0.7056 0.0
H1508 H 0.27623 0.32097 0.69684 0.0
H1509 H 0.29301 0.30706 0.74575 0.0
H1510 H 0.26769 0.2824 0.68789 0.0
H1511 H 0.24892 0.27029 0.66901 0.0
H1512 H 0.23655 0.24739 0.72567 0.0
H1513 H 0.25519 0.25947 0.74505 0.0
C1514 C 0.31569 0.27371 0.74913 0.0
C1515 C 0.31132 0.26433 0.76418 0.0
C1516 C 0.30913 0.27888 0.74347 0.0
C1517 C 0.29808 0.27483 0.7528 0.0
C1518 C 0.29359 0.26536 0.76759 0.0
C1519 C 0.30018 0.26018 0.77332 0.0
C1520 C 0.2913 0.28057 0.74712 0.0
C1521 C 0.28035 0.27398 0.7371 0.0
C1522 C 0.29589 0.29263 0.75035 0.0
C1523 C 0.3071 0.29994 0.76199 0.0
C1524 C 0.30901 0.29695 0.78351 0.0
C1525 C 0.31962 0.30382 0.79431 0.0
C1526 C 0.32838 0.31374 0.78382 0.0
C1527 C 0.32653 0.31683 0.76252 0.0
C1528 C 0.31593 0.30999 0.75164 0.0
C1529 C 0.25536 0.29976 0.72956 0.0
C1530 C 0.26077 0.30979 0.71614 0.0
C1531 C 0.26107 0.29362 0.73462 0.0
C1532 C 0.27224 0.29732 0.72618 0.0
C1533 C 0.27754 0.30716 0.71235 0.0
C1534 C 0.27185 0.31332 0.70732 0.0
C1535 C 0.27867 0.2913 0.73267 0.0
C1536 C 0.28956 0.29784 0.74294 0.0
C1537 C 0.27401 0.27921 0.72965 0.0
C1538 C 0.2628 0.27191 0.71802 0.0
C1539 C 0.26093 0.27484 0.69641 0.0
C1540 C 0.25032 0.26797 0.6856 0.0
C1541 C 0.24153 0.2581 0.69616 0.0
C1542 C 0.24335 0.25505 0.71753 0.0
C1543 C 0.25395 0.26191 0.72842 0.0
H1544 H 0.23333 0.25279 0.68776 0.0
H1545 H 0.33659 0.31904 0.79221 0.0
H1546 H 0.69971 0.94395 0.77862 0.0
H1547 H 0.7066 0.96253 0.79781 0.0
H1548 H 0.7336 0.97953 0.74838 0.0
H1549 H 0.72694 0.96103 0.72941 0.0
H1550 H 0.74161 0.9881 0.78923 0.0
H1551 H 0.70783 0.97955 0.74454 0.0
H1552 H 0.68739 0.9677 0.73273 0.0
H1553 H 0.67605 0.96915 0.79929 0.0
H1554 H 0.69645 0.98089 0.81156 0.0
H1555 H 0.75357 0.04606 0.78497 0.0
H1556 H 0.74815 0.02584 0.77878 0.0
H1557 H 0.72303 0.01517 0.83215 0.0
H1558 H 0.7283 0.03543 0.83829 0.0
H1559 H 0.71367 0.00241 0.79546 0.0
H1560 H 0.74778 0.01363 0.83852 0.0
H1561 H 0.76829 0.02581 0.84953 0.0
H1562 H 0.77919 0.01969 0.78585 0.0
H1563 H 0.75874 0.00761 0.77431 0.0
C1564 C 0.7072 0.95162 0.772 0.0
C1565 C 0.7127 0.95103 0.75235 0.0
C1566 C 0.71111 0.96224 0.78295 0.0
C1567 C 0.72051 0.97245 0.77433 0.0
C1568 C 0.72632 0.97177 0.75532 0.0
C1569 C 0.72246 0.96118 0.74443 0.0
C1570 C 0.72391 0.98397 0.78416 0.0
C1571 C 0.73552 0.99126 0.79053 0.0
C1572 C 0.7159 0.98798 0.7864 0.0
C1573 C 0.70365 0.98097 0.77902 0.0
C1574 C 0.70098 0.97726 0.75669 0.0
C1575 C 0.6894 0.97058 0.74991 0.0
C1576 C 0.68043 0.96764 0.76527 0.0
C1577 C 0.68301 0.97141 0.78742 0.0
C1578 C 0.69457 0.97808 0.7943 0.0
C1579 C 0.74697 0.03944 0.79557 0.0
C1580 C 0.74134 0.04236 0.81208 0.0
C1581 C 0.74393 0.02787 0.79209 0.0
C1582 C 0.73526 0.01899 0.80515 0.0
C1583 C 0.72977 0.02189 0.82192 0.0
C1584 C 0.73281 0.03348 0.82543 0.0
C1585 C 0.73143 0.00665 0.80013 0.0
C1586 C 0.71973 0.99921 0.7946 0.0
C1587 C 0.73938 0.00253 0.7986 0.0
C1588 C 0.75171 0.00977 0.8055 0.0
C1589 C 0.75455 0.01495 0.82679 0.0
C1590 C 0.76616 0.02182 0.83314 0.0
C1591 C 0.77504 0.02354 0.81839 0.0
C1592 C 0.7723 0.01836 0.79726 0.0
C1593 C 0.7607 0.01148 0.79082 0.0
H1594 H 0.78403 0.02887 0.82334 0.0
H1595 H 0.67148 0.96247 0.75998 0.0
H1596 H 0.71414 0.62282 0.54101 0.0
H1597 H 0.69312 0.613 0.546 0.0
H1598 H 0.69763 0.63254 0.60643 0.0
H1599 H 0.71874 0.64231 0.60175 0.0
H1600 H 0.68123 0.61007 0.61163 0.0
H1601 H 0.68983 0.64008 0.55781 0.0
H1602 H 0.69818 0.65125 0.52316 0.0
H1603 H 0.67745 0.62064 0.48398 0.0
H1604 H 0.66909 0.60924 0.51843 0.0
H1605 H 0.62367 0.59902 0.62184 0.0
H1606 H 0.64467 0.60871 0.61665 0.0
H1607 H 0.63988 0.5889 0.5565 0.0
H1608 H 0.61878 0.57924 0.56139 0.0
H1609 H 0.6564 0.61142 0.55108 0.0
H1610 H 0.64773 0.58145 0.60514 0.0
H1611 H 0.63932 0.57041 0.63989 0.0
H1612 H 0.66016 0.60112 0.67875 0.0
H1613 H 0.66859 0.61239 0.6442 0.0
C1614 C 0.71069 0.62501 0.55544 0.0
C1615 C 0.71812 0.6334 0.57092 0.0
C1616 C 0.69865 0.61942 0.5582 0.0
C1617 C 0.6938 0.62218 0.57639 0.0
C1618 C 0.7012 0.63032 0.59222 0.0
C1619 C 0.71326 0.6359 0.5895 0.0
C1620 C 0.68101 0.6166 0.57878 0.0
C1621 C 0.67581 0.6105 0.59852 0.0
C1622 C 0.67392 0.61694 0.56145 0.0
C1623 C 0.67892 0.62378 0.54071 0.0
C1624 C 0.68712 0.63571 0.54181 0.0
C1625 C 0.69185 0.64208 0.52221 0.0
C1626 C 0.68837 0.63665 0.50139 0.0
C1627 C 0.68015 0.62483 0.50013 0.0
C1628 C 0.67541 0.61841 0.51968 0.0
C1629 C 0.62706 0.59673 0.60745 0.0
C1630 C 0.61955 0.5883 0.59209 0.0
C1631 C 0.63908 0.60225 0.60457 0.0
C1632 C 0.64384 0.59939 0.5864 0.0
C1633 C 0.63638 0.5912 0.5707 0.0
C1634 C 0.62433 0.58568 0.57353 0.0
C1635 C 0.65662 0.60489 0.58392 0.0
C1636 C 0.66182 0.61099 0.56418 0.0
C1637 C 0.66371 0.60456 0.60126 0.0
C1638 C 0.65871 0.59779 0.62207 0.0
C1639 C 0.65046 0.58587 0.62109 0.0
C1640 C 0.6457 0.57957 0.64075 0.0
C1641 C 0.64918 0.58507 0.66151 0.0
C1642 C 0.65746 0.59687 0.66265 0.0
C1643 C 0.66224 0.60322 0.64304 0.0
H1644 H 0.64548 0.58017 0.67672 0.0
H1645 H 0.69204 0.6416 0.48623 0.0
H1646 H 0.35765 0.08387 0.60335 0.0
H1647 H 0.36967 0.07509 0.6109 0.0
H1648 H 0.35543 0.05317 0.55289 0.0
H1649 H 0.34331 0.06182 0.5453 0.0
H1650 H 0.3575 0.04134 0.58834 0.0
H1651 H 0.3814 0.07704 0.54934 0.0
H1652 H 0.39044 0.09808 0.54237 0.0
H1653 H 0.40772 0.10523 0.60591 0.0
H1654 H 0.39864 0.08422 0.61341 0.0
H1655 H 0.40146 0.0256 0.57977 0.0
H1656 H 0.38849 0.03321 0.57119 0.0
H1657 H 0.40211 0.05641 0.62765 0.0
H1658 H 0.41513 0.04898 0.63617 0.0
H1659 H 0.40023 0.06737 0.5915 0.0
H1660 H 0.37599 0.03156 0.63069 0.0
H1661 H 0.36684 0.0105 0.63755 0.0
H1662 H 0.3502 0.00352 0.57337 0.0
H1663 H 0.35938 0.02455 0.56599 0.0
C1664 C 0.35698 0.0771 0.59233 0.0
C1665 C 0.34959 0.0736 0.57363 0.0
C1666 C 0.36389 0.07213 0.59661 0.0
C1667 C 0.36356 0.0636 0.58226 0.0
C1668 C 0.35584 0.05976 0.56412 0.0
C1669 C 0.34895 0.06474 0.55979 0.0
C1670 C 0.37155 0.05899 0.58571 0.0
C1671 C 0.36685 0.047 0.58876 0.0
C1672 C 0.38373 0.06641 0.58653 0.0
C1673 C 0.38925 0.07905 0.58203 0.0
C1674 C 0.38706 0.0831 0.56191 0.0
C1675 C 0.3922 0.09502 0.55784 0.0
C1676 C 0.39963 0.10299 0.57371 0.0
C1677 C 0.40195 0.09905 0.59365 0.0
C1678 C 0.39682 0.08713 0.59781 0.0
C1679 C 0.40173 0.03236 0.59028 0.0
C1680 C 0.4093 0.03665 0.60869 0.0
C1681 C 0.39427 0.03666 0.58543 0.0
C1682 C 0.39425 0.04529 0.59894 0.0
C1683 C 0.40197 0.04974 0.61702 0.0
C1684 C 0.40939 0.04545 0.62189 0.0
C1685 C 0.38619 0.04972 0.59439 0.0
C1686 C 0.39088 0.06169 0.59106 0.0
C1687 C 0.37401 0.04227 0.59328 0.0
C1688 C 0.36847 0.02963 0.59769 0.0
C1689 C 0.37046 0.02553 0.61796 0.0
C1690 C 0.36525 0.0136 0.62196 0.0
C1691 C 0.35797 0.00567 0.60588 0.0
C1692 C 0.35586 0.00967 0.58579 0.0
C1693 C 0.36105 0.02159 0.5817 0.0
H1694 H 0.35394 0.99644 0.60901 0.0
H1695 H 0.4036 0.11221 0.57054 0.0
H1696 H 0.96186 0.37789 0.63385 0.0
H1697 H 0.95398 0.35718 0.62758 0.0
H1698 H 0.9575 0.36299 0.55631 0.0
H1699 H 0.96523 0.38381 0.56245 0.0
H1700 H 0.93683 0.3449 0.56638 0.0
H1701 H 0.97613 0.35697 0.5855 0.0
H1702 H 0.99406 0.36656 0.60799 0.0
H1703 H 0.97606 0.34444 0.66372 0.0
H1704 H 0.95797 0.33482 0.64166 0.0
H1705 H 0.92586 0.28842 0.53934 0.0
H1706 H 0.93537 0.30943 0.54415 0.0
H1707 H 0.93074 0.30496 0.61557 0.0
H1708 H 0.92128 0.28385 0.61094 0.0
H1709 H 0.95253 0.32245 0.60429 0.0
H1710 H 0.91306 0.3109 0.58502 0.0
H1711 H 0.89529 0.30132 0.56207 0.0
H1712 H 0.914 0.32259 0.50587 0.0
H1713 H 0.93193 0.3322 0.52842 0.0
C1714 C 0.96102 0.3748 0.61681 0.0
C1715 C 0.9642 0.38251 0.59863 0.0
C1716 C 0.95657 0.36295 0.61327 0.0
C1717 C 0.9553 0.35855 0.59149 0.0
C1718 C 0.95845 0.36621 0.57327 0.0
C1719 C 0.96288 0.3781 0.5768 0.0
C1720 C 0.95031 0.34589 0.58783 0.0
C1721 C 0.94039 0.34003 0.57436 0.0
C1722 C 0.95479 0.33948 0.59866 0.0
C1723 C 0.96566 0.34524 0.61198 0.0
C1724 C 0.97597 0.35421 0.60261 0.0
C1725 C 0.98617 0.35964 0.61527 0.0
C1726 C 0.98619 0.35613 0.63729 0.0
C1727 C 0.97602 0.34716 0.64667 0.0
C1728 C 0.9658 0.3417 0.63409 0.0
C1729 C 0.92686 0.29188 0.5561 0.0
C1730 C 0.92275 0.28445 0.57476 0.0
C1731 C 0.93227 0.3039 0.5588 0.0
C1732 C 0.93363 0.30875 0.58019 0.0
C1733 C 0.92975 0.30139 0.59891 0.0
C1734 C 0.92431 0.28933 0.59623 0.0
C1735 C 0.93904 0.3215 0.58295 0.0
C1736 C 0.94902 0.32736 0.59624 0.0
C1737 C 0.93465 0.32792 0.57189 0.0
C1738 C 0.92386 0.32219 0.55834 0.0
C1739 C 0.91341 0.31347 0.56772 0.0
C1740 C 0.9033 0.30805 0.55479 0.0
C1741 C 0.90352 0.31132 0.53251 0.0
C1742 C 0.91385 0.32005 0.52313 0.0
C1743 C 0.92398 0.3255 0.53597 0.0
H1744 H 0.89569 0.30711 0.52253 0.0
H1745 H 0.9941 0.36035 0.64706 0.0
H1746 H 0.62479 0.02867 0.12922 0.0
H1747 H 0.64514 0.03991 0.11759 0.0
H1748 H 0.63617 0.02297 0.05327 0.0
H1749 H 0.61588 0.01164 0.06479 0.0
H1750 H 0.65488 0.02314 0.0707 0.0
H1751 H 0.64249 0.05095 0.05867 0.0
H1752 H 0.6337 0.06284 0.06879 0.0
H1753 H 0.65917 0.07958 0.12046 0.0
H1754 H 0.66802 0.06766 0.11084 0.0
H1755 H 0.70901 0.05873 0.01805 0.0
H1756 H 0.68831 0.04931 0.02697 0.0
H1757 H 0.69646 0.06604 0.0915 0.0
H1758 H 0.71716 0.07564 0.0826 0.0
H1759 H 0.67804 0.06617 0.07311 0.0
H1760 H 0.68995 0.03796 0.08619 0.0
H1761 H 0.69875 0.02602 0.07643 0.0
H1762 H 0.67409 0.00998 0.02321 0.0
H1763 H 0.66524 0.02194 0.03247 0.0
C1764 C 0.62714 0.02738 0.11256 0.0
C1765 C 0.61871 0.01925 0.09794 0.0
C1766 C 0.63876 0.03385 0.1059 0.0
C1767 C 0.64216 0.03234 0.08449 0.0
C1768 C 0.63375 0.02428 0.06986 0.0
C1769 C 0.62214 0.01782 0.07648 0.0
C1770 C 0.65453 0.03887 0.07758 0.0
C1771 C 0.65989 0.03256 0.0709 0.0
C1772 C 0.66115 0.05115 0.07836 0.0
C1773 C 0.65585 0.05833 0.08417 0.0
C1774 C 0.64616 0.05709 0.07231 0.0
C1775 C 0.64118 0.06385 0.07793 0.0
C1776 C 0.64586 0.07194 0.0953 0.0
C1777 C 0.65555 0.0733 0.10703 0.0
C1778 C 0.66056 0.06655 0.10149 0.0
C1779 C 0.7064 0.06047 0.03408 0.0
C1780 C 0.71474 0.06787 0.04968 0.0
C1781 C 0.69457 0.05505 0.03918 0.0
C1782 C 0.69085 0.05683 0.06004 0.0
C1783 C 0.69913 0.06451 0.07533 0.0
C1784 C 0.71097 0.06996 0.07023 0.0
C1785 C 0.67836 0.05043 0.06622 0.0
C1786 C 0.673 0.05676 0.07282 0.0
C1787 C 0.67173 0.03816 0.06542 0.0
C1788 C 0.67701 0.03093 0.05987 0.0
C1789 C 0.68646 0.03195 0.07229 0.0
C1790 C 0.69145 0.02517 0.06687 0.0
C1791 C 0.687 0.01727 0.04917 0.0
C1792 C 0.67754 0.01611 0.03689 0.0
C1793 C 0.67253 0.02288 0.04223 0.0
H1794 H 0.69088 0.01203 0.045 0.0
H1795 H 0.64199 0.07717 0.09962 0.0
H1796 H 0.9945 0.61489 0.13869 0.0
H1797 H 0.9833 0.62455 0.1315 0.0
H1798 H 0.95877 0.59516 0.09247 0.0
H1799 H 0.97002 0.58548 0.09936 0.0
H1800 H 0.96558 0.6154 0.07084 0.0
H1801 H 0.95151 0.60011 0.14365 0.0
H1802 H 0.95325 0.59636 0.18343 0.0
H1803 H 0.97074 0.63297 0.19695 0.0
H1804 H 0.96931 0.63697 0.15715 0.0
H1805 H 0.92751 0.63807 0.05745 0.0
H1806 H 0.93506 0.62526 0.06768 0.0
H1807 H 0.96071 0.65209 0.11005 0.0
H1808 H 0.95308 0.66483 0.10029 0.0
H1809 H 0.95162 0.63149 0.13026 0.0
H1810 H 0.96755 0.64684 0.05745 0.0
H1811 H 0.96668 0.65092 0.01747 0.0
H1812 H 0.94618 0.61436 0.00411 0.0
H1813 H 0.9468 0.61008 0.04408 0.0
C1814 C 0.98668 0.61044 0.1287 0.0
C1815 C 0.98318 0.59944 0.11953 0.0
C1816 C 0.98025 0.61595 0.1247 0.0
C1817 C 0.97016 0.61054 0.11156 0.0
C1818 C 0.96654 0.59948 0.10265 0.0
C1819 C 0.97296 0.59395 0.10667 0.0
C1820 C 0.96369 0.61667 0.10634 0.0
C1821 C 0.96233 0.61872 0.08383 0.0
C1822 C 0.95968 0.62122 0.1233 0.0
C1823 C 0.96038 0.61884 0.14735 0.0
C1824 C 0.9558 0.60737 0.15507 0.0
C1825 C 0.95673 0.6052 0.17763 0.0
C1826 C 0.96212 0.61442 0.1927 0.0
C1827 C 0.96657 0.62584 0.18525 0.0
C1828 C 0.9657 0.62806 0.16269 0.0
C1829 C 0.93474 0.64123 0.06899 0.0
C1830 C 0.93974 0.6525 0.07795 0.0
C1831 C 0.93906 0.63391 0.07478 0.0
C1832 C 0.94854 0.63776 0.08944 0.0
C1833 C 0.95339 0.64892 0.09872 0.0
C1834 C 0.94904 0.65622 0.09304 0.0
C1835 C 0.95363 0.63033 0.09476 0.0
C1836 C 0.95475 0.62804 0.11728 0.0
C1837 C 0.95747 0.62559 0.07781 0.0
C1838 C 0.95711 0.62815 0.05378 0.0
C1839 C 0.96278 0.63968 0.04601 0.0
C1840 C 0.96235 0.64203 0.02335 0.0
C1841 C 0.95635 0.63291 0.00827 0.0
C1842 C 0.9508 0.62142 0.01581 0.0
C1843 C 0.9512 0.61903 0.03846 0.0
H1844 H 0.95602 0.63474 0.99073 0.0
H1845 H 0.96284 0.61273 0.21016 0.0
H1846 H 0.35997 0.28317 0.07062 0.0
H1847 H 0.37112 0.30372 0.08073 0.0
H1848 H 0.35292 0.31174 0.03048 0.0
H1849 H 0.3418 0.29123 0.0201 0.0
H1850 H 0.37608 0.32742 0.03048 0.0
H1851 H 0.3453 0.3098 0.08485 0.0
H1852 H 0.33351 0.29563 0.11396 0.0
H1853 H 0.36382 0.30728 0.15506 0.0
H1854 H 0.37582 0.32143 0.12605 0.0
H1855 H 0.38771 0.38279 0.06617 0.0
H1856 H 0.37834 0.36228 0.05612 0.0
H1857 H 0.3967 0.35635 0.10927 0.0
H1858 H 0.406 0.37688 0.11972 0.0
H1859 H 0.37441 0.33954 0.10824 0.0
H1860 H 0.40512 0.35775 0.05482 0.0
H1861 H 0.41701 0.37193 0.02581 0.0
H1862 H 0.38718 0.35921 0.98301 0.0
H1863 H 0.37507 0.34505 0.01189 0.0
C1864 C 0.35838 0.28931 0.06162 0.0
C1865 C 0.34994 0.28554 0.04462 0.0
C1866 C 0.36473 0.30104 0.06749 0.0
C1867 C 0.36274 0.30924 0.05655 0.0
C1868 C 0.35457 0.30556 0.03917 0.0
C1869 C 0.3482 0.29382 0.0333 0.0
C1870 C 0.36904 0.32161 0.06345 0.0
C1871 C 0.37562 0.33009 0.04742 0.0
C1872 C 0.36868 0.32506 0.0857 0.0
C1873 C 0.36147 0.31658 0.10318 0.0
C1874 C 0.34946 0.30927 0.10002 0.0
C1875 C 0.34274 0.30126 0.11652 0.0
C1876 C 0.34792 0.30053 0.13632 0.0
C1877 C 0.35982 0.30784 0.1397 0.0
C1878 C 0.36659 0.31586 0.12324 0.0
C1879 C 0.38977 0.37714 0.07576 0.0
C1880 C 0.39765 0.38149 0.0937 0.0
C1881 C 0.38444 0.36542 0.0699 0.0
C1882 C 0.38695 0.35781 0.08171 0.0
C1883 C 0.39467 0.36207 0.09987 0.0
C1884 C 0.39999 0.37381 0.10579 0.0
C1885 C 0.38139 0.34538 0.07523 0.0
C1886 C 0.37494 0.33689 0.09133 0.0
C1887 C 0.3819 0.34192 0.05305 0.0
C1888 C 0.38916 0.35041 0.03561 0.0
C1889 C 0.40107 0.35803 0.03929 0.0
C1890 C 0.40786 0.36606 0.02286 0.0
C1891 C 0.40285 0.36649 0.0026 0.0
C1892 C 0.39105 0.35888 0.99872 0.0
C1893 C 0.38422 0.35084 0.0151 0.0
H1894 H 0.40812 0.37271 0.9899 0.0
H1895 H 0.3427 0.29432 0.14908 0.0
H1896 H 0.37292 0.98986 0.93171 0.0
H1897 H 0.35254 0.98001 0.94264 0.0
H1898 H 0.35685 0.95401 0.97759 0.0
H1899 H 0.37729 0.96374 0.96633 0.0
H1900 H 0.33848 0.94412 0.95119 0.0
H1901 H 0.35225 0.9739 0.00624 0.0
H1902 H 0.36294 0.99386 0.0211 0.0
H1903 H 0.34214 0.00333 0.9811 0.0
H1904 H 0.33143 0.98347 0.96575 0.0
H1905 H 0.27979 0.91667 0.9878 0.0
H1906 H 0.30102 0.92728 0.98982 0.0
H1907 H 0.30213 0.95472 0.94949 0.0
H1908 H 0.28094 0.94423 0.94749 0.0
H1909 H 0.31798 0.96323 0.98387 0.0
H1910 H 0.30616 0.9342 0.92566 0.0
H1911 H 0.29559 0.9143 0.91045 0.0
H1912 H 0.313 0.90355 0.95692 0.0
H1913 H 0.32358 0.92336 0.97261 0.0
C1914 C 0.3696 0.98213 0.94197 0.0
C1915 C 0.37674 0.97757 0.94806 0.0
C1916 C 0.35794 0.97654 0.94834 0.0
C1917 C 0.35317 0.96632 0.96113 0.0
C1918 C 0.36035 0.9619 0.96776 0.0
C1919 C 0.37203 0.96749 0.96134 0.0
C1920 C 0.34052 0.95982 0.96598 0.0
C1921 C 0.33404 0.94824 0.95883 0.0
C1922 C 0.33467 0.96524 0.97551 0.0
C1923 C 0.34108 0.9772 0.98472 0.0
C1924 C 0.35001 0.98026 0.00048 0.0
C1925 C 0.35606 0.99155 0.00902 0.0
C1926 C 0.35323 0.99986 0.00202 0.0
C1927 C 0.34432 0.99689 0.9865 0.0
C1928 C 0.33825 0.98561 0.9779 0.0
C1929 C 0.28454 0.92501 0.97953 0.0
C1930 C 0.27867 0.92955 0.96729 0.0
C1931 C 0.29667 0.93105 0.98068 0.0
C1932 C 0.30315 0.94172 0.96959 0.0
C1933 C 0.2973 0.94649 0.95815 0.0
C1934 C 0.28518 0.94045 0.95694 0.0
C1935 C 0.31601 0.94764 0.9688 0.0
C1936 C 0.32248 0.9591 0.97663 0.0
C1937 C 0.32188 0.94212 0.95992 0.0
C1938 C 0.31555 0.93022 0.95048 0.0
C1939 C 0.30766 0.92757 0.93276 0.0
C1940 C 0.30168 0.91631 0.92403 0.0
C1941 C 0.30359 0.90766 0.93277 0.0
C1942 C 0.31151 0.91025 0.95021 0.0
C1943 C 0.31751 0.92149 0.95901 0.0
H1944 H 0.29896 0.89895 0.92598 0.0
H1945 H 0.35793 0.0086 0.00865 0.0
H1946 H 0.01924 0.40429 0.93673 0.0
H1947 H 0.02989 0.39405 0.94429 0.0
H1948 H 0.03128 0.38843 0.87357 0.0
H1949 H 0.02051 0.39848 0.8659 0.0
H1950 H 0.02624 0.36921 0.89692 0.0
H1951 H 0.05467 0.40989 0.90069 0.0
H1952 H 0.06294 0.43005 0.91403 0.0
H1953 H 0.06358 0.41899 0.98123 0.0
H1954 H 0.05517 0.39873 0.96833 0.0
H1955 H 0.07196 0.35587 0.89732 0.0
H1956 H 0.05981 0.36463 0.89069 0.0
H1957 H 0.05896 0.37016 0.96159 0.0
H1958 H 0.07118 0.36159 0.96833 0.0
H1959 H 0.06343 0.38916 0.93867 0.0
H1960 H 0.03544 0.34849 0.93468 0.0
H1961 H 0.0272 0.32835 0.92123 0.0
H1962 H 0.02577 0.33936 0.85438 0.0
H1963 H 0.03415 0.3596 0.86738 0.0
C1964 C 0.02177 0.40083 0.9228 0.0
C1965 C 0.01908 0.40226 0.9007 0.0
C1966 C 0.02789 0.39502 0.92714 0.0
C1967 C 0.0315 0.3906 0.90946 0.0
C1968 C 0.02859 0.39178 0.88746 0.0
C1969 C 0.02246 0.39757 0.88311 0.0
C1970 C 0.0385 0.38494 0.91379 0.0
C1971 C 0.03443 0.37361 0.90583 0.0
C1972 C 0.04908 0.3906 0.9258 0.0
C1973 C 0.05418 0.40278 0.93358 0.0
C1974 C 0.05649 0.41174 0.91834 0.0
C1975 C 0.06122 0.42319 0.92581 0.0
C1976 C 0.06375 0.42579 0.94847 0.0
C1977 C 0.0616 0.41696 0.96369 0.0
C1978 C 0.05686 0.40549 0.9563 0.0
C1979 C 0.06915 0.35892 0.9115 0.0
C1980 C 0.07254 0.35803 0.93335 0.0
C1981 C 0.06217 0.36387 0.9077 0.0
C1982 C 0.05839 0.36795 0.92568 0.0
C1983 C 0.06177 0.36707 0.94748 0.0
C1984 C 0.06874 0.36214 0.95129 0.0
C1985 C 0.05117 0.37342 0.92181 0.0
C1986 C 0.05521 0.38473 0.92982 0.0
C1987 C 0.04058 0.36774 0.90984 0.0
C1988 C 0.03553 0.35558 0.90197 0.0
C1989 C 0.03346 0.34663 0.91708 0.0
C1990 C 0.02875 0.3352 0.90954 0.0
C1991 C 0.02599 0.33258 0.88696 0.0
C1992 C 0.02792 0.3414 0.87187 0.0
C1993 C 0.03264 0.35285 0.87931 0.0
H1994 H 0.02235 0.32372 0.88115 0.0
H1995 H 0.06741 0.43466 0.95423 0.0
H1996 H 0.58047 0.63096 0.93194 0.0
H1997 H 0.59114 0.65203 0.93756 0.0
H1998 H 0.60661 0.65668 0.87219 0.0
H1999 H 0.59618 0.6357 0.86662 0.0
H2000 H 0.62235 0.67086 0.90176 0.0
H2001 H 0.58339 0.66071 0.88104 0.0
H2002 H 0.56204 0.6501 0.88431 0.0
H2003 H 0.56462 0.66373 0.95048 0.0
H2004 H 0.586 0.67431 0.94771 0.0
H2005 H 0.64036 0.73046 0.88402 0.0
H2006 H 0.63071 0.70928 0.88096 0.0
H2007 H 0.61656 0.70587 0.94726 0.0
H2008 H 0.62606 0.72697 0.9504 0.0
H2009 H 0.60034 0.69106 0.9184 0.0
H2010 H 0.63936 0.70179 0.93851 0.0
H2011 H 0.6607 0.71243 0.93502 0.0
H2012 H 0.65801 0.69778 0.86979 0.0
H2013 H 0.63664 0.68718 0.87276 0.0
C2014 C 0.5862 0.63647 0.91883 0.0
C2015 C 0.58741 0.63165 0.89877 0.0
C2016 C 0.59226 0.64851 0.92202 0.0
C2017 C 0.59954 0.65594 0.90515 0.0
C2018 C 0.60102 0.65112 0.88541 0.0
C2019 C 0.59501 0.63911 0.88224 0.0
C2020 C 0.60541 0.66875 0.90771 0.0
C2021 C 0.61752 0.67529 0.90517 0.0
C2022 C 0.59915 0.67451 0.91259 0.0
C2023 C 0.5863 0.6682 0.91425 0.0
C2024 C 0.57941 0.66138 0.89635 0.0
C2025 C 0.5673 0.65538 0.8981 0.0
C2026 C 0.56198 0.65622 0.91761 0.0
C2027 C 0.56875 0.66308 0.93539 0.0
C2028 C 0.58087 0.66908 0.93373 0.0
C2029 C 0.63517 0.7252 0.89793 0.0
C2030 C 0.63399 0.7304 0.91746 0.0
C2031 C 0.62971 0.7131 0.8962 0.0
C2032 C 0.62302 0.706 0.91399 0.0
C2033 C 0.6217 0.71118 0.93336 0.0
C2034 C 0.62716 0.72325 0.93512 0.0
C2035 C 0.61726 0.69317 0.91237 0.0
C2036 C 0.60517 0.68663 0.91508 0.0
C2037 C 0.62354 0.68741 0.9076 0.0
C2038 C 0.63639 0.69378 0.90577 0.0
C2039 C 0.64332 0.70091 0.92334 0.0
C2040 C 0.65542 0.70692 0.92148 0.0
C2041 C 0.66071 0.70581 0.90218 0.0
C2042 C 0.6539 0.69865 0.88472 0.0
C2043 C 0.64179 0.69263 0.8865 0.0
H2044 H 0.67008 0.71047 0.90076 0.0
H2045 H 0.5526 0.65157 0.91894 0.0
H2046 H 0.3766 0.41006 0.39281 0.0
H2047 H 0.35618 0.40025 0.40401 0.0
H2048 H 0.35151 0.36787 0.37831 0.0
H2049 H 0.37189 0.37761 0.36688 0.0
H2050 H 0.33346 0.37113 0.36714 0.0
H2051 H 0.35506 0.37351 0.43367 0.0
H2052 H 0.37011 0.38355 0.46248 0.0
H2053 H 0.3547 0.40411 0.48062 0.0
H2054 H 0.33964 0.39429 0.4517 0.0
H2055 H 0.28203 0.33031 0.42133 0.0
H2056 H 0.30205 0.34192 0.40852 0.0
H2057 H 0.30422 0.37245 0.43853 0.0
H2058 H 0.28417 0.36082 0.4518 0.0
H2059 H 0.3234 0.37131 0.447 0.0
H2060 H 0.30118 0.36833 0.38205 0.0
H2061 H 0.2861 0.35841 0.35325 0.0
H2062 H 0.30258 0.33931 0.33189 0.0
H2063 H 0.31767 0.349 0.36078 0.0
C2064 C 0.37122 0.40086 0.3894 0.0
C2065 C 0.3759 0.3946 0.37906 0.0
C2066 C 0.35956 0.39527 0.3959 0.0
C2067 C 0.35237 0.38331 0.39225 0.0
C2068 C 0.35692 0.37711 0.38133 0.0
C2069 C 0.36858 0.38269 0.37486 0.0
C2070 C 0.34016 0.37717 0.4002 0.0
C2071 C 0.33126 0.37107 0.38462 0.0
C2072 C 0.33728 0.37737 0.42293 0.0
C2073 C 0.34631 0.38325 0.44036 0.0
C2074 C 0.35494 0.38023 0.44368 0.0
C2075 C 0.36346 0.38587 0.46005 0.0
C2076 C 0.36338 0.39448 0.47332 0.0
C2077 C 0.35476 0.39745 0.4703 0.0
C2078 C 0.34623 0.39185 0.45393 0.0
C2079 C 0.28674 0.33949 0.42525 0.0
C2080 C 0.28148 0.34464 0.43752 0.0
C2081 C 0.29818 0.34614 0.41779 0.0
C2082 C 0.30458 0.3581 0.42224 0.0
C2083 C 0.29942 0.36324 0.43482 0.0
C2084 C 0.28797 0.35659 0.44236 0.0
C2085 C 0.31668 0.36515 0.41396 0.0
C2086 C 0.32557 0.37143 0.42947 0.0
C2087 C 0.31955 0.36515 0.39115 0.0
C2088 C 0.3105 0.35932 0.37371 0.0
C2089 C 0.30154 0.36195 0.37132 0.0
C2090 C 0.293 0.35638 0.35496 0.0
C2091 C 0.29337 0.34822 0.34078 0.0
C2092 C 0.3023 0.34563 0.3429 0.0
C2093 C 0.31086 0.35116 0.35925 0.0
H2094 H 0.28675 0.34392 0.32813 0.0
H2095 H 0.36998 0.39884 0.48599 0.0
H2096 H 0.61795 0.91547 0.44153 0.0
H2097 H 0.60951 0.92771 0.4331 0.0
H2098 H 0.64254 0.95437 0.40757 0.0
H2099 H 0.65108 0.94225 0.4161 0.0
H2100 H 0.63239 0.96341 0.43383 0.0
H2101 H 0.62121 0.93682 0.37207 0.0
H2102 H 0.61251 0.91757 0.35412 0.0
H2103 H 0.57936 0.90832 0.38275 0.0
H2104 H 0.58791 0.92747 0.40114 0.0
H2105 H 0.61371 0.99749 0.37599 0.0
H2106 H 0.62163 0.98481 0.38426 0.0
H2107 H 0.58817 0.9585 0.40875 0.0
H2108 H 0.58013 0.97108 0.40029 0.0
H2109 H 0.59827 0.94911 0.38351 0.0
H2110 H 0.60935 0.97569 0.44502 0.0
H2111 H 0.61799 0.9949 0.46312 0.0
H2112 H 0.65127 0.00411 0.43524 0.0
H2113 H 0.64279 0.985 0.41671 0.0
C2114 C 0.62344 0.92396 0.43422 0.0
C2115 C 0.63518 0.92786 0.42939 0.0
C2116 C 0.61858 0.93092 0.42932 0.0
C2117 C 0.62536 0.94189 0.41945 0.0
C2118 C 0.63714 0.94592 0.41513 0.0
C2119 C 0.642 0.93896 0.41998 0.0
C2120 C 0.62017 0.94915 0.41347 0.0
C2121 C 0.62502 0.96034 0.42261 0.0
C2122 C 0.61039 0.94504 0.39925 0.0
C2123 C 0.60522 0.93353 0.38817 0.0
C2124 C 0.61208 0.93064 0.37469 0.0
C2125 C 0.60718 0.91976 0.36441 0.0
C2126 C 0.5954 0.91171 0.36734 0.0
C2127 C 0.58849 0.91455 0.38052 0.0
C2128 C 0.59336 0.92542 0.39086 0.0
C2129 C 0.60801 0.98899 0.38304 0.0
C2130 C 0.59631 0.98534 0.38768 0.0
C2131 C 0.61257 0.98177 0.38783 0.0
C2132 C 0.60554 0.97079 0.39747 0.0
C2133 C 0.59376 0.96696 0.40141 0.0
C2134 C 0.58919 0.97418 0.39661 0.0
C2135 C 0.61053 0.96339 0.40379 0.0
C2136 C 0.60563 0.95218 0.39475 0.0
C2137 C 0.62027 0.96747 0.41814 0.0
C2138 C 0.6254 0.97896 0.4293 0.0
C2139 C 0.61849 0.98185 0.4426 0.0
C2140 C 0.62336 0.99271 0.45296 0.0
C2141 C 0.63517 0.00074 0.45028 0.0
C2142 C 0.64213 0.9979 0.43727 0.0
C2143 C 0.63729 0.98705 0.42686 0.0
H2144 H 0.63892 0.00914 0.45832 0.0
H2145 H 0.59162 0.90329 0.35936 0.0
H2146 H 0.02838 0.62147 0.38634 0.0
H2147 H 0.04037 0.64216 0.39486 0.0
H2148 H 0.01224 0.64766 0.37541 0.0
H2149 H 0.00025 0.62704 0.36663 0.0
H2150 H 0.03275 0.66442 0.35889 0.0
H2151 H 0.01795 0.64597 0.43022 0.0
H2152 H 0.01447 0.63202 0.46054 0.0
H2153 H 0.05123 0.64662 0.46917 0.0
H2154 H 0.05493 0.66057 0.43868 0.0
H2155 H 0.04919 0.71854 0.40839 0.0
H2156 H 0.03918 0.69796 0.39871 0.0
H2157 H 0.06888 0.69562 0.42043 0.0
H2158 H 0.07894 0.71624 0.43049 0.0
H2159 H 0.04888 0.67734 0.43507 0.0
H2160 H 0.06375 0.69648 0.36514 0.0
H2161 H 0.06729 0.71049 0.33491 0.0
H2162 H 0.03059 0.69463 0.32346 0.0
H2163 H 0.02682 0.68062 0.35385 0.0
C2164 C 0.02476 0.62709 0.38378 0.0
C2165 C 0.01333 0.62259 0.37589 0.0
C2166 C 0.03161 0.63891 0.38875 0.0
C2167 C 0.02715 0.64643 0.38601 0.0
C2168 C 0.01585 0.64201 0.37767 0.0
C2169 C 0.009 0.6302 0.37272 0.0
C2170 C 0.03418 0.6589 0.39201 0.0
C2171 C 0.03618 0.66724 0.3756 0.0
C2172 C 0.03893 0.66259 0.41366 0.0
C2173 C 0.03672 0.65422 0.43201 0.0
C2174 C 0.02529 0.64614 0.43846 0.0
C2175 C 0.02328 0.63825 0.4557 0.0
C2176 C 0.03262 0.63841 0.46673 0.0
C2177 C 0.044 0.64649 0.46059 0.0
C2178 C 0.04606 0.65439 0.44334 0.0
C2179 C 0.05361 0.71367 0.41115 0.0
C2180 C 0.06489 0.71906 0.42012 0.0
C2181 C 0.04789 0.7019 0.4055 0.0
C2182 C 0.05335 0.69529 0.40853 0.0
C2183 C 0.06453 0.70058 0.41788 0.0
C2184 C 0.07027 0.71236 0.42357 0.0
C2185 C 0.04732 0.68285 0.40202 0.0
C2186 C 0.04552 0.67452 0.41831 0.0
C2187 C 0.04277 0.67917 0.38025 0.0
C2188 C 0.045 0.68756 0.36191 0.0
C2189 C 0.05643 0.69603 0.35629 0.0
C2190 C 0.05848 0.70396 0.33911 0.0
C2191 C 0.04917 0.70346 0.32731 0.0
C2192 C 0.03779 0.69501 0.33263 0.0
C2193 C 0.03569 0.68706 0.34982 0.0
H2194 H 0.05078 0.70961 0.314 0.0
H2195 H 0.03104 0.63229 0.48008 0.0
H2196 H 0.16779 0.28268 0.39931 0.0
H2197 H 0.15282 0.284 0.37788 0.0
H2198 H 0.17456 0.32124 0.3747 0.0
H2199 H 0.18964 0.32001 0.39603 0.0
H2200 H 0.15099 0.31367 0.38468 0.0
H2201 H 0.17362 0.30638 0.33093 0.0
H2202 H 0.18281 0.29579 0.31524 0.0
H2203 H 0.14944 0.2649 0.30977 0.0
H2204 H 0.14006 0.27528 0.32573 0.0
H2205 H 0.12258 0.32559 0.2968 0.0
H2206 H 0.13652 0.32422 0.32137 0.0
H2207 H 0.11754 0.28689 0.3148 0.0
H2208 H 0.10378 0.28824 0.28963 0.0
H2209 H 0.13958 0.29434 0.31063 0.0
H2210 H 0.11663 0.30122 0.36342 0.0
H2211 H 0.10709 0.31133 0.37977 0.0
H2212 H 0.14024 0.34221 0.38811 0.0
H2213 H 0.14998 0.33232 0.37152 0.0
C2214 C 0.16936 0.29116 0.3942 0.0
C2215 C 0.17993 0.30124 0.39927 0.0
C2216 C 0.16081 0.29189 0.38191 0.0
C2217 C 0.16264 0.30271 0.37458 0.0
C2218 C 0.17301 0.31282 0.38021 0.0
C2219 C 0.18162 0.31209 0.39232 0.0
C2220 C 0.15388 0.30343 0.36041 0.0
C2221 C 0.14856 0.30957 0.36837 0.0
C2222 C 0.15054 0.29782 0.33941 0.0
C2223 C 0.15616 0.29157 0.32975 0.0
C2224 C 0.16825 0.2973 0.32656 0.0
C2225 C 0.1735 0.29134 0.31758 0.0
C2226 C 0.16672 0.27967 0.31157 0.0
C2227 C 0.15468 0.27394 0.31447 0.0
C2228 C 0.1494 0.27986 0.32346 0.0
C2229 C 0.12134 0.31708 0.30067 0.0
C2230 C 0.11207 0.30702 0.29128 0.0
C2231 C 0.12929 0.3163 0.31484 0.0
C2232 C 0.12801 0.30543 0.32021 0.0
C2233 C 0.11871 0.29537 0.31092 0.0
C2234 C 0.11084 0.29615 0.29657 0.0
C2235 C 0.13658 0.30457 0.33486 0.0
C2236 C 0.14191 0.29842 0.32697 0.0
C2237 C 0.13985 0.31009 0.35602 0.0
C2238 C 0.13402 0.31606 0.36602 0.0
C2239 C 0.12188 0.31019 0.36858 0.0
C2240 C 0.11644 0.31588 0.37792 0.0
C2241 C 0.12305 0.32741 0.38492 0.0
C2242 C 0.13513 0.33328 0.38265 0.0
C2243 C 0.14062 0.32763 0.3733 0.0
H2244 H 0.11882 0.3318 0.39215 0.0
H2245 H 0.17079 0.27507 0.30461 0.0
H2246 H 0.68516 0.86666 0.36591 0.0
H2247 H 0.69107 0.85384 0.34821 0.0
H2248 H 0.65608 0.82506 0.35428 0.0
H2249 H 0.65013 0.83777 0.37232 0.0
H2250 H 0.67184 0.81852 0.36415 0.0
H2251 H 0.66575 0.83966 0.30517 0.0
H2252 H 0.6687 0.85722 0.28541 0.0
H2253 H 0.70506 0.8689 0.27858 0.0
H2254 H 0.70235 0.85147 0.29857 0.0
H2255 H 0.67092 0.78051 0.27975 0.0
H2256 H 0.66784 0.79337 0.3044 0.0
H2257 H 0.70326 0.82054 0.29374 0.0
H2258 H 0.70635 0.80778 0.26873 0.0
H2259 H 0.68869 0.82848 0.28785 0.0
H2260 H 0.69444 0.80639 0.34423 0.0
H2261 H 0.69132 0.7887 0.36366 0.0
H2262 H 0.65563 0.77863 0.37522 0.0
H2263 H 0.65848 0.79619 0.35558 0.0
C2264 C 0.67873 0.85758 0.36362 0.0
C2265 C 0.66715 0.85325 0.37037 0.0
C2266 C 0.68212 0.85028 0.35345 0.0
C2267 C 0.67398 0.83854 0.34966 0.0
C2268 C 0.6625 0.8341 0.35702 0.0
C2269 C 0.65911 0.84139 0.36725 0.0
C2270 C 0.67728 0.83095 0.33729 0.0
C2271 C 0.67544 0.82063 0.34739 0.0
C2272 C 0.68224 0.83386 0.31565 0.0
C2273 C 0.68387 0.84433 0.30358 0.0
C2274 C 0.67439 0.84602 0.29961 0.0
C2275 C 0.67601 0.85594 0.28834 0.0
C2276 C 0.68706 0.86418 0.2808 0.0
C2277 C 0.69651 0.86251 0.28446 0.0
C2278 C 0.69493 0.85261 0.29574 0.0
C2279 C 0.6781 0.78918 0.28285 0.0
C2280 C 0.68887 0.79314 0.27222 0.0
C2281 C 0.67635 0.7965 0.29705 0.0
C2282 C 0.68535 0.80789 0.30107 0.0
C2283 C 0.69619 0.81178 0.29089 0.0
C2284 C 0.69795 0.80446 0.27664 0.0
C2285 C 0.6832 0.81598 0.31462 0.0
C2286 C 0.68522 0.8264 0.30471 0.0
C2287 C 0.6784 0.81314 0.33641 0.0
C2288 C 0.67665 0.80257 0.34826 0.0
C2289 C 0.6859 0.80036 0.35076 0.0
C2290 C 0.68418 0.79036 0.36184 0.0
C2291 C 0.67328 0.78253 0.37063 0.0
C2292 C 0.66407 0.7847 0.36839 0.0
C2293 C 0.66573 0.79468 0.35731 0.0
H2294 H 0.67197 0.7748 0.3792 0.0
H2295 H 0.6883 0.87186 0.27208 0.0
H2296 H 0.12985 0.83608 0.38608 0.0
H2297 H 0.14733 0.84974 0.36556 0.0
H2298 H 0.15472 0.82226 0.3516 0.0
H2299 H 0.13725 0.80853 0.37211 0.0
H2300 H 0.17436 0.84287 0.36422 0.0
H2301 H 0.14265 0.83016 0.31215 0.0
H2302 H 0.12354 0.82661 0.29922 0.0
H2303 H 0.13508 0.86299 0.30502 0.0
H2304 H 0.15423 0.86673 0.31829 0.0
H2305 H 0.21465 0.86908 0.27548 0.0
H2306 H 0.19818 0.85624 0.2991 0.0
H2307 H 0.18904 0.883 0.30589 0.0
H2308 H 0.20534 0.89579 0.28179 0.0
H2309 H 0.17036 0.86302 0.29786 0.0
H2310 H 0.20215 0.87609 0.34899 0.0
H2311 H 0.22126 0.8799 0.36249 0.0
H2312 H 0.20977 0.84345 0.35939 0.0
H2313 H 0.19062 0.83944 0.34557 0.0
C2314 C 0.13523 0.83295 0.37878 0.0
C2315 C 0.13213 0.8212 0.38063 0.0
C2316 C 0.14519 0.84076 0.367 0.0
C2317 C 0.15225 0.83698 0.35687 0.0
C2318 C 0.14938 0.82535 0.35926 0.0
C2319 C 0.13938 0.81751 0.37093 0.0
C2320 C 0.16244 0.84509 0.34326 0.0
C2321 C 0.17349 0.84719 0.34955 0.0
C2322 C 0.16132 0.85093 0.32448 0.0
C2323 C 0.14983 0.8487 0.31644 0.0
C2324 C 0.14108 0.83739 0.31085 0.0
C2325 C 0.13025 0.83534 0.30342 0.0
C2326 C 0.12809 0.84456 0.30136 0.0
C2327 C 0.13677 0.85585 0.30666 0.0
C2328 C 0.14761 0.85794 0.31412 0.0
C2329 C 0.20917 0.87225 0.28206 0.0
C2330 C 0.21132 0.88347 0.27677 0.0
C2331 C 0.19978 0.86492 0.29568 0.0
C2332 C 0.19245 0.8687 0.30455 0.0
C2333 C 0.19458 0.87989 0.29928 0.0
C2334 C 0.20392 0.8872 0.28553 0.0
C2335 C 0.18235 0.86086 0.31877 0.0
C2336 C 0.17128 0.85878 0.31257 0.0
C2337 C 0.18348 0.8551 0.33772 0.0
C2338 C 0.19498 0.85748 0.34604 0.0
C2339 C 0.20372 0.8689 0.35102 0.0
C2340 C 0.21456 0.87109 0.35876 0.0
C2341 C 0.21674 0.86193 0.36174 0.0
C2342 C 0.20807 0.85054 0.35704 0.0
C2343 C 0.19722 0.84831 0.34928 0.0
H2344 H 0.22513 0.86364 0.36774 0.0
H2345 H 0.11969 0.84297 0.29561 0.0
H2346 H 0.29303 0.10158 0.20117 0.0
H2347 H 0.29207 0.11627 0.17807 0.0
H2348 H 0.32948 0.13606 0.17552 0.0
H2349 H 0.33053 0.1214 0.19857 0.0
H2350 H 0.31952 0.14936 0.18678 0.0
H2351 H 0.31505 0.12178 0.13033 0.0
H2352 H 0.30638 0.10241 0.1129 0.0
H2353 H 0.27328 0.10069 0.1099 0.0
H2354 H 0.28172 0.11999 0.12761 0.0
H2355 H 0.3231 0.19071 0.10802 0.0
H2356 H 0.32525 0.17548 0.12645 0.0
H2357 H 0.28813 0.15259 0.12381 0.0
H2358 H 0.28596 0.16767 0.10476 0.0
H2359 H 0.29864 0.14087 0.11435 0.0
H2360 H 0.3023 0.1675 0.17228 0.0
H2361 H 0.31033 0.18655 0.19082 0.0
H2362 H 0.34409 0.18972 0.19242 0.0
H2363 H 0.33628 0.17074 0.17361 0.0
C2364 C 0.30106 0.10902 0.19557 0.0
C2365 C 0.31186 0.11033 0.2017 0.0
C2366 C 0.30049 0.11738 0.18231 0.0
C2367 C 0.31071 0.12721 0.17498 0.0
C2368 C 0.3215 0.12852 0.18098 0.0
C2369 C 0.32208 0.12012 0.19409 0.0
C2370 C 0.31012 0.13634 0.16178 0.0
C2371 C 0.31513 0.14757 0.17076 0.0
C2372 C 0.3041 0.13389 0.1412 0.0
C2373 C 0.299 0.12229 0.13049 0.0
C2374 C 0.3059 0.11723 0.12613 0.0
C2375 C 0.30103 0.10627 0.11616 0.0
C2376 C 0.28928 0.10031 0.11034 0.0
C2377 C 0.28238 0.10531 0.11443 0.0
C2378 C 0.28721 0.11627 0.12441 0.0
C2379 C 0.3154 0.18242 0.11128 0.0
C2380 C 0.30435 0.18042 0.10505 0.0
C2381 C 0.31664 0.17373 0.12191 0.0
C2382 C 0.30683 0.16295 0.12689 0.0
C2383 C 0.29582 0.16085 0.12019 0.0
C2384 C 0.29459 0.16948 0.10935 0.0
C2385 C 0.30801 0.15393 0.13938 0.0
C2386 C 0.30309 0.1427 0.1303 0.0
C2387 C 0.31402 0.15635 0.16001 0.0
C2388 C 0.31873 0.16776 0.17133 0.0
C2389 C 0.31146 0.1723 0.17643 0.0
C2390 C 0.31596 0.18308 0.18701 0.0
C2391 C 0.32772 0.18936 0.19273 0.0
C2392 C 0.33499 0.18485 0.18794 0.0
C2393 C 0.33053 0.17408 0.17733 0.0
H2394 H 0.33119 0.1977 0.20093 0.0
H2395 H 0.28553 0.09183 0.10262 0.0
H2396 H 0.80411 0.12685 0.12187 0.0
H2397 H 0.81795 0.14476 0.14097 0.0
H2398 H 0.84539 0.13712 0.12842 0.0
H2399 H 0.83161 0.11917 0.1093 0.0
H2400 H 0.84487 0.14336 0.17218 0.0
H2401 H 0.84438 0.1578 0.09876 0.0
H2402 H 0.83526 0.16055 0.06518 0.0
H2403 H 0.82094 0.17729 0.10485 0.0
H2404 H 0.82984 0.17448 0.13874 0.0
H2405 H 0.89154 0.19744 0.20731 0.0
H2406 H 0.87867 0.18045 0.18485 0.0
H2407 H 0.85152 0.1891 0.19072 0.0
H2408 H 0.86445 0.20628 0.2127 0.0
H2409 H 0.85214 0.18236 0.14955 0.0
H2410 H 0.85165 0.16751 0.22286 0.0
H2411 H 0.86007 0.16449 0.25719 0.0
H2412 H 0.87535 0.14822 0.21887 0.0
H2413 H 0.86714 0.15129 0.18425 0.0
C2414 C 0.8131 0.129 0.12308 0.0
C2415 C 0.81676 0.12159 0.11406 0.0
C2416 C 0.821 0.13926 0.13392 0.0
C2417 C 0.83271 0.1423 0.13597 0.0
C2418 C 0.83639 0.13493 0.12698 0.0
C2419 C 0.82851 0.1247 0.11601 0.0
C2420 C 0.84103 0.153 0.14806 0.0
C2421 C 0.84661 0.15192 0.16705 0.0
C2422 C 0.84301 0.1641 0.1417 0.0
C2423 C 0.83769 0.16583 0.12133 0.0
C2424 C 0.83921 0.16198 0.10036 0.0
C2425 C 0.83409 0.16357 0.08126 0.0
C2426 C 0.8275 0.16906 0.08289 0.0
C2427 C 0.82604 0.17302 0.10362 0.0
C2428 C 0.83112 0.17144 0.12277 0.0
C2429 C 0.88284 0.19575 0.20377 0.0
C2430 C 0.87899 0.20317 0.21189 0.0
C2431 C 0.87547 0.186 0.191 0.0
C2432 C 0.86405 0.18339 0.18638 0.0
C2433 C 0.86028 0.19092 0.19409 0.0
C2434 C 0.86767 0.20072 0.20671 0.0
C2435 C 0.856 0.17274 0.17373 0.0
C2436 C 0.85045 0.17382 0.15466 0.0
C2437 C 0.85395 0.16161 0.18014 0.0
C2438 C 0.85888 0.15974 0.20093 0.0
C2439 C 0.85688 0.16337 0.22173 0.0
C2440 C 0.8616 0.16163 0.24125 0.0
C2441 C 0.86827 0.15619 0.24021 0.0
C2442 C 0.8702 0.15245 0.21965 0.0
C2443 C 0.8655 0.15418 0.20007 0.0
H2444 H 0.87191 0.15486 0.25533 0.0
H2445 H 0.82355 0.17029 0.06809 0.0
H2446 H 0.80468 0.66121 0.21097 0.0
H2447 H 0.82126 0.66478 0.18763 0.0
H2448 H 0.82965 0.70031 0.17811 0.0
H2449 H 0.8131 0.69683 0.20146 0.0
H2450 H 0.8308 0.68966 0.13866 0.0
H2451 H 0.84482 0.69473 0.21453 0.0
H2452 H 0.84442 0.68884 0.25378 0.0
H2453 H 0.84699 0.65938 0.23227 0.0
H2454 H 0.84724 0.66501 0.19285 0.0
H2455 H 0.88852 0.71426 0.09871 0.0
H2456 H 0.8708 0.70947 0.11926 0.0
H2457 H 0.86598 0.67564 0.13488 0.0
H2458 H 0.88388 0.68049 0.11483 0.0
H2459 H 0.86249 0.68472 0.17071 0.0
H2460 H 0.84905 0.67952 0.09523 0.0
H2461 H 0.84905 0.68479 0.05569 0.0
H2462 H 0.84485 0.71351 0.07559 0.0
H2463 H 0.84499 0.70851 0.11528 0.0
C2464 C 0.81002 0.66978 0.20385 0.0
C2465 C 0.80761 0.67876 0.20815 0.0
C2466 C 0.8195 0.6718 0.19057 0.0
C2467 C 0.82672 0.68283 0.18131 0.0
C2468 C 0.82418 0.69174 0.18513 0.0
C2469 C 0.81475 0.68974 0.19854 0.0
C2470 C 0.83707 0.68515 0.168 0.0
C2471 C 0.83781 0.68871 0.14569 0.0
C2472 C 0.84602 0.68359 0.17705 0.0
C2473 C 0.84593 0.68022 0.20074 0.0
C2474 C 0.8452 0.68694 0.21816 0.0
C2475 C 0.84502 0.68366 0.24044 0.0
C2476 C 0.84564 0.67373 0.24551 0.0
C2477 C 0.84648 0.66707 0.22831 0.0
C2478 C 0.84666 0.6703 0.20601 0.0
C2479 C 0.88366 0.70577 0.10641 0.0
C2480 C 0.8876 0.69775 0.10512 0.0
C2481 C 0.87349 0.70302 0.11807 0.0
C2482 C 0.86696 0.69213 0.12839 0.0
C2483 C 0.87086 0.68409 0.12704 0.0
C2484 C 0.88108 0.68687 0.11553 0.0
C2485 C 0.85629 0.68928 0.14125 0.0
C2486 C 0.85549 0.68562 0.16354 0.0
C2487 C 0.84723 0.69066 0.1321 0.0
C2488 C 0.84714 0.6937 0.10824 0.0
C2489 C 0.84822 0.68702 0.09118 0.0
C2490 C 0.84818 0.68994 0.06874 0.0
C2491 C 0.84698 0.6995 0.06313 0.0
C2492 C 0.84579 0.70612 0.07996 0.0
C2493 C 0.84584 0.70324 0.10243 0.0
H2494 H 0.84694 0.70175 0.04575 0.0
H2495 H 0.8455 0.6712 0.26277 0.0
H2496 H 0.78715 0.62698 0.60898 0.0
H2497 H 0.80041 0.62546 0.63514 0.0
H2498 H 0.80139 0.65296 0.67513 0.0
H2499 H 0.78843 0.65481 0.6485 0.0
H2500 H 0.8221 0.65612 0.67256 0.0
H2501 H 0.78536 0.62377 0.69115 0.0
H2502 H 0.7665 0.60607 0.68451 0.0
H2503 H 0.78398 0.58847 0.66016 0.0
H2504 H 0.80295 0.60611 0.66638 0.0
H2505 H 0.83626 0.62108 0.76172 0.0
H2506 H 0.82245 0.6246 0.74109 0.0
H2507 H 0.84864 0.64377 0.69122 0.0
H2508 H 0.8626 0.64068 0.71226 0.0
H2509 H 0.81325 0.61781 0.70284 0.0
H2510 H 0.84423 0.66366 0.66564 0.0
H2511 H 0.86193 0.68176 0.67644 0.0
H2512 H 0.85394 0.67318 0.74583 0.0
H2513 H 0.83612 0.65511 0.73547 0.0
C2514 C 0.79016 0.63269 0.62337 0.0
C2515 C 0.7867 0.64098 0.62673 0.0
C2516 C 0.79771 0.63178 0.63839 0.0
C2517 C 0.80176 0.63896 0.65736 0.0
C2518 C 0.79837 0.64731 0.66065 0.0
C2519 C 0.79094 0.64834 0.64545 0.0
C2520 C 0.80962 0.63782 0.67355 0.0
C2521 C 0.82015 0.64775 0.67924 0.0
C2522 C 0.80696 0.62695 0.68278 0.0
C2523 C 0.79557 0.6163 0.67907 0.0
C2524 C 0.78518 0.61615 0.68424 0.0
C2525 C 0.77447 0.60612 0.68057 0.0
C2526 C 0.77404 0.59616 0.67188 0.0
C2527 C 0.78433 0.5962 0.66688 0.0
C2528 C 0.79506 0.6062 0.6705 0.0
C2529 C 0.83911 0.62615 0.74648 0.0
C2530 C 0.85053 0.63063 0.73864 0.0
C2531 C 0.83119 0.62813 0.73466 0.0
C2532 C 0.8345 0.63455 0.71468 0.0
C2533 C 0.84592 0.63903 0.70684 0.0
C2534 C 0.85389 0.6372 0.71883 0.0
C2535 C 0.82587 0.63608 0.7015 0.0
C2536 C 0.81519 0.62621 0.69631 0.0
C2537 C 0.82823 0.64706 0.69335 0.0
C2538 C 0.83889 0.65797 0.69975 0.0
C2539 C 0.84623 0.66566 0.6832 0.0
C2540 C 0.85629 0.67591 0.68925 0.0
C2541 C 0.85908 0.6786 0.7118 0.0
C2542 C 0.85179 0.67106 0.72837 0.0
C2543 C 0.84172 0.66081 0.72242 0.0
H2544 H 0.86687 0.68654 0.71645 0.0
H2545 H 0.76574 0.58841 0.66905 0.0
H2546 H 0.37466 0.14786 0.62025 0.0
H2547 H 0.37432 0.16234 0.64499 0.0
H2548 H 0.33687 0.14341 0.644 0.0
H2549 H 0.33712 0.12888 0.61923 0.0
H2550 H 0.34604 0.16681 0.63632 0.0
H2551 H 0.35067 0.14249 0.68966 0.0
H2552 H 0.35971 0.13186 0.70585 0.0
H2553 H 0.39193 0.16386 0.71354 0.0
H2554 H 0.38313 0.17467 0.69709 0.0
H2555 H 0.33892 0.20042 0.71982 0.0
H2556 H 0.33795 0.18404 0.69936 0.0
H2557 H 0.37521 0.19978 0.7036 0.0
H2558 H 0.37622 0.21603 0.7246 0.0
H2559 H 0.36537 0.17723 0.71046 0.0
H2560 H 0.3615 0.20147 0.65553 0.0
H2561 H 0.353 0.21242 0.63847 0.0
H2562 H 0.32006 0.18103 0.63275 0.0
H2563 H 0.32833 0.16991 0.65004 0.0
C2564 C 0.36635 0.14674 0.62537 0.0
C2565 C 0.35592 0.13722 0.61778 0.0
C2566 C 0.36617 0.155 0.63958 0.0
C2567 C 0.35557 0.15389 0.64645 0.0
C2568 C 0.34514 0.1444 0.63891 0.0
C2569 C 0.34531 0.1361 0.62481 0.0
C2570 C 0.35539 0.16286 0.66091 0.0
C2571 C 0.3501 0.16897 0.6527 0.0
C2572 C 0.36095 0.16585 0.68199 0.0
C2573 C 0.36626 0.15938 0.69194 0.0
C2574 C 0.35971 0.14725 0.69462 0.0
C2575 C 0.36479 0.14119 0.70389 0.0
C2576 C 0.3764 0.14718 0.71067 0.0
C2577 C 0.38294 0.15923 0.70826 0.0
C2578 C 0.37791 0.16533 0.69898 0.0
C2579 C 0.34691 0.20037 0.7165 0.0
C2580 C 0.35766 0.20957 0.72371 0.0
C2581 C 0.34634 0.19102 0.70472 0.0
C2582 C 0.35652 0.19077 0.6996 0.0
C2583 C 0.36724 0.19979 0.7073 0.0
C2584 C 0.3678 0.20909 0.71927 0.0
C2585 C 0.35607 0.18125 0.68584 0.0
C2586 C 0.36125 0.17504 0.69414 0.0
C2587 C 0.35049 0.17822 0.66473 0.0
C2588 C 0.3455 0.18488 0.65429 0.0
C2589 C 0.35242 0.19692 0.65079 0.0
C2590 C 0.34765 0.20315 0.64105 0.0
C2591 C 0.33599 0.19743 0.63459 0.0
C2592 C 0.32908 0.18546 0.6378 0.0
C2593 C 0.33381 0.17918 0.64755 0.0
H2594 H 0.33231 0.20228 0.62705 0.0
H2595 H 0.38031 0.14247 0.71785 0.0
H2596 H 0.86671 0.20596 0.63221 0.0
H2597 H 0.8516 0.19081 0.65553 0.0
H2598 H 0.8312 0.20772 0.65039 0.0
H2599 H 0.84624 0.22288 0.62696 0.0
H2600 H 0.8325 0.20065 0.69412 0.0
H2601 H 0.82389 0.18477 0.61948 0.0
H2602 H 0.82838 0.17892 0.58341 0.0
H2603 H 0.83636 0.15529 0.61733 0.0
H2604 H 0.83208 0.16113 0.65366 0.0
H2605 H 0.77785 0.15562 0.73141 0.0
H2606 H 0.79403 0.17106 0.71069 0.0
H2607 H 0.81094 0.15056 0.70851 0.0
H2608 H 0.7946 0.13492 0.72868 0.0
H2609 H 0.81208 0.15954 0.66921 0.0
H2610 H 0.8204 0.17461 0.74354 0.0
H2611 H 0.81647 0.18045 0.78018 0.0
H2612 H 0.80987 0.20549 0.74816 0.0
H2613 H 0.81361 0.19969 0.71128 0.0
C2614 C 0.85903 0.20648 0.63608 0.0
C2615 C 0.85766 0.2156 0.62767 0.0
C2616 C 0.85039 0.1978 0.64936 0.0
C2617 C 0.84026 0.19812 0.65455 0.0
C2618 C 0.83896 0.20733 0.64656 0.0
C2619 C 0.84754 0.21595 0.6331 0.0
C2620 C 0.83094 0.18877 0.6681 0.0
C2621 C 0.82793 0.19167 0.68861 0.0
C2622 C 0.82524 0.17703 0.66114 0.0
C2623 C 0.82779 0.17348 0.63931 0.0
C2624 C 0.8267 0.17841 0.61927 0.0
C2625 C 0.82919 0.17507 0.59877 0.0
C2626 C 0.83269 0.16676 0.59809 0.0
C2627 C 0.83367 0.16174 0.61789 0.0
C2628 C 0.83121 0.16505 0.63844 0.0
C2629 C 0.78504 0.15442 0.72664 0.0
C2630 C 0.78495 0.14404 0.73173 0.0
C2631 C 0.79432 0.16329 0.71488 0.0
C2632 C 0.80379 0.16205 0.70827 0.0
C2633 C 0.80374 0.15172 0.71343 0.0
C2634 C 0.79441 0.1428 0.72502 0.0
C2635 C 0.81356 0.17138 0.69534 0.0
C2636 C 0.81666 0.16849 0.67488 0.0
C2637 C 0.81943 0.18312 0.70247 0.0
C2638 C 0.81718 0.18664 0.72463 0.0
C2639 C 0.81803 0.1813 0.74429 0.0
C2640 C 0.81585 0.18461 0.76511 0.0
C2641 C 0.8129 0.19331 0.76649 0.0
C2642 C 0.81215 0.19874 0.74706 0.0
C2643 C 0.8143 0.19545 0.7262 0.0
H2644 H 0.81121 0.19587 0.78262 0.0
H2645 H 0.83461 0.16419 0.5822 0.0
H2646 H 0.62642 0.79547 0.87162 0.0
H2647 H 0.63105 0.81289 0.85012 0.0
H2648 H 0.66596 0.8195 0.83995 0.0
H2649 H 0.66144 0.80214 0.86168 0.0
H2650 H 0.66584 0.83897 0.85226 0.0
H2651 H 0.64636 0.80895 0.79773 0.0
H2652 H 0.63053 0.79055 0.78267 0.0
H2653 H 0.6068 0.80345 0.78891 0.0
H2654 H 0.62246 0.82188 0.80431 0.0
H2655 H 0.68143 0.88248 0.76886 0.0
H2656 H 0.67724 0.86482 0.78913 0.0
H2657 H 0.64196 0.85703 0.79969 0.0
H2658 H 0.64603 0.87458 0.77916 0.0
H2659 H 0.64259 0.83806 0.7866 0.0
H2660 H 0.66199 0.86792 0.84183 0.0
H2661 H 0.67781 0.88629 0.85706 0.0
H2662 H 0.70169 0.87365 0.84954 0.0
H2663 H 0.68604 0.85526 0.83398 0.0
C2664 C 0.63507 0.80059 0.86474 0.0
C2665 C 0.64356 0.7974 0.86832 0.0
C2666 C 0.63769 0.81053 0.85238 0.0
C2667 C 0.64882 0.81744 0.84325 0.0
C2668 C 0.65732 0.81429 0.84683 0.0
C2669 C 0.6547 0.80434 0.85918 0.0
C2670 C 0.65165 0.82808 0.83037 0.0
C2671 C 0.66087 0.83875 0.83769 0.0
C2672 C 0.645 0.82782 0.81168 0.0
C2673 C 0.63556 0.81676 0.80237 0.0
C2674 C 0.63774 0.80783 0.79606 0.0
C2675 C 0.62881 0.7974 0.78743 0.0
C2676 C 0.61766 0.79582 0.78489 0.0
C2677 C 0.61543 0.80468 0.79092 0.0
C2678 C 0.62434 0.81512 0.79958 0.0
C2679 C 0.67279 0.87702 0.77554 0.0
C2680 C 0.66407 0.87995 0.77245 0.0
C2681 C 0.67041 0.86695 0.78719 0.0
C2682 C 0.65931 0.85966 0.79613 0.0
C2683 C 0.65059 0.86253 0.79295 0.0
C2684 C 0.65294 0.87259 0.78128 0.0
C2685 C 0.65675 0.84897 0.80855 0.0
C2686 C 0.64758 0.83828 0.80114 0.0
C2687 C 0.66345 0.84921 0.82716 0.0
C2688 C 0.67287 0.86026 0.83653 0.0
C2689 C 0.67064 0.8691 0.84325 0.0
C2690 C 0.67957 0.87951 0.85198 0.0
C2691 C 0.69076 0.88115 0.85421 0.0
C2692 C 0.69303 0.87237 0.84777 0.0
C2693 C 0.68413 0.86195 0.83902 0.0
H2694 H 0.69766 0.88921 0.86097 0.0
H2695 H 0.61075 0.78774 0.7782 0.0
H2696 H 0.11974 0.77497 0.77266 0.0
H2697 H 0.13014 0.79266 0.79498 0.0
H2698 H 0.1628 0.79555 0.77606 0.0
H2699 H 0.15247 0.77778 0.7539 0.0
H2700 H 0.16217 0.79935 0.82023 0.0
H2701 H 0.15373 0.81277 0.75203 0.0
H2702 H 0.14126 0.81302 0.72177 0.0
H2703 H 0.12157 0.82029 0.76946 0.0
H2704 H 0.13383 0.81993 0.80006 0.0
H2705 H 0.19974 0.85779 0.85306 0.0
H2706 H 0.18895 0.83972 0.83201 0.0
H2707 H 0.15667 0.83762 0.85124 0.0
H2708 H 0.16741 0.85578 0.87211 0.0
H2709 H 0.15685 0.83327 0.80742 0.0
H2710 H 0.16544 0.82014 0.87558 0.0
H2711 H 0.17793 0.81994 0.90586 0.0
H2712 H 0.19729 0.81212 0.85838 0.0
H2713 H 0.18501 0.81244 0.82775 0.0
C2714 C 0.12914 0.77937 0.77322 0.0
C2715 C 0.13528 0.77498 0.76145 0.0
C2716 C 0.13507 0.7895 0.78593 0.0
C2717 C 0.14725 0.79549 0.787 0.0
C2718 C 0.1534 0.79107 0.77544 0.0
C2719 C 0.14748 0.78094 0.76274 0.0
C2720 C 0.15359 0.80632 0.80028 0.0
C2721 C 0.16112 0.80682 0.81725 0.0
C2722 C 0.152 0.81596 0.79674 0.0
C2723 C 0.14463 0.8162 0.77836 0.0
C2724 C 0.14668 0.81433 0.75609 0.0
C2725 C 0.13966 0.81451 0.73887 0.0
C2726 C 0.13061 0.81664 0.7437 0.0
C2727 C 0.12858 0.81862 0.76575 0.0
C2728 C 0.13556 0.81844 0.78303 0.0
C2729 C 0.19034 0.85347 0.85289 0.0
C2730 C 0.18443 0.85821 0.8643 0.0
C2731 C 0.18418 0.84311 0.84091 0.0
C2732 C 0.172 0.83725 0.84024 0.0
C2733 C 0.16607 0.84199 0.85156 0.0
C2734 C 0.17223 0.85235 0.86353 0.0
C2735 C 0.16545 0.82632 0.82735 0.0
C2736 C 0.15788 0.82579 0.81044 0.0
C2737 C 0.167 0.81665 0.83095 0.0
C2738 C 0.17437 0.81643 0.84934 0.0
C2739 C 0.17242 0.81847 0.87157 0.0
C2740 C 0.17945 0.81832 0.8888 0.0
C2741 C 0.18841 0.81605 0.88404 0.0
C2742 C 0.19035 0.8139 0.86204 0.0
C2743 C 0.18335 0.81405 0.84474 0.0
H2744 H 0.19384 0.81593 0.8974 0.0
H2745 H 0.12518 0.81678 0.73034 0.0
H2746 H 0.2135 0.37951 0.77695 0.0
H2747 H 0.19756 0.38009 0.79615 0.0
H2748 H 0.17976 0.34287 0.80411 0.0
H2749 H 0.19567 0.34219 0.7849 0.0
H2750 H 0.16498 0.35109 0.79131 0.0
H2751 H 0.19437 0.35933 0.84686 0.0
H2752 H 0.21413 0.36978 0.86268 0.0
H2753 H 0.21345 0.40172 0.86108 0.0
H2754 H 0.19373 0.39149 0.84495 0.0
H2755 H 0.12564 0.34423 0.87828 0.0
H2756 H 0.14041 0.3441 0.85418 0.0
H2757 H 0.15954 0.38158 0.85437 0.0
H2758 H 0.14495 0.38177 0.87897 0.0
H2759 H 0.17366 0.37364 0.86177 0.0
H2760 H 0.14406 0.36555 0.80771 0.0
H2761 H 0.12436 0.35533 0.79156 0.0
H2762 H 0.12539 0.32357 0.78966 0.0
H2763 H 0.14504 0.33356 0.80609 0.0
C2764 C 0.20616 0.37143 0.78263 0.0
C2765 C 0.20589 0.36081 0.77952 0.0
C2766 C 0.19708 0.37178 0.79364 0.0
C2767 C 0.18754 0.36153 0.80173 0.0
C2768 C 0.18705 0.35088 0.79801 0.0
C2769 C 0.19617 0.35052 0.7871 0.0
C2770 C 0.17829 0.36197 0.81477 0.0
C2771 C 0.16683 0.35592 0.80684 0.0
C2772 C 0.18078 0.3685 0.83473 0.0
C2773 C 0.19263 0.37466 0.84448 0.0
C2774 C 0.19847 0.3686 0.84971 0.0
C2775 C 0.20966 0.37448 0.85876 0.0
C2776 C 0.21506 0.38641 0.86283 0.0
C2777 C 0.20926 0.39248 0.85789 0.0
C2778 C 0.19808 0.38665 0.84881 0.0
C2779 C 0.13294 0.35245 0.87304 0.0
C2780 C 0.13413 0.36301 0.88055 0.0
C2781 C 0.14136 0.35236 0.85916 0.0
C2782 C 0.15103 0.36283 0.85223 0.0
C2783 C 0.15215 0.37339 0.85948 0.0
C2784 C 0.14379 0.37348 0.87351 0.0
C2785 C 0.16028 0.36277 0.83835 0.0
C2786 C 0.17177 0.36887 0.84616 0.0
C2787 C 0.1578 0.35633 0.81823 0.0
C2788 C 0.14598 0.35029 0.80833 0.0
C2789 C 0.14005 0.35637 0.80401 0.0
C2790 C 0.1289 0.35062 0.79478 0.0
C2791 C 0.12362 0.3388 0.78964 0.0
C2792 C 0.12949 0.33272 0.79368 0.0
C2793 C 0.14064 0.33842 0.80293 0.0
H2794 H 0.11498 0.33436 0.78248 0.0
H2795 H 0.22372 0.39095 0.86985 0.0
H2796 H 0.95454 0.50579 0.42867 0.0
H2797 H 0.95852 0.49228 0.44933 0.0
H2798 H 0.99352 0.51985 0.46194 0.0
H2799 H 0.98962 0.53343 0.44128 0.0
H2800 H 0.99243 0.49921 0.44922 0.0
H2801 H 0.97396 0.51208 0.5022 0.0
H2802 H 0.95851 0.51565 0.51587 0.0
H2803 H 0.93368 0.47923 0.5109 0.0
H2804 H 0.94896 0.47548 0.4969 0.0
H2805 H 0.00745 0.47327 0.53697 0.0
H2806 H 0.00361 0.48598 0.51343 0.0
H2807 H 0.96757 0.45933 0.50854 0.0
H2808 H 0.97129 0.4467 0.53266 0.0
H2809 H 0.969 0.47927 0.51643 0.0
H2810 H 0.9872 0.46605 0.46432 0.0
H2811 H 0.00238 0.46222 0.45011 0.0
H2812 H 0.02732 0.49868 0.45248 0.0
H2813 H 0.01232 0.50271 0.46699 0.0
C2814 C 0.9631 0.50898 0.43574 0.0
C2815 C 0.97175 0.5207 0.43343 0.0
C2816 C 0.96535 0.50125 0.4476 0.0
C2817 C 0.97628 0.5051 0.45733 0.0
C2818 C 0.98502 0.51672 0.45457 0.0
C2819 C 0.98276 0.52447 0.44283 0.0
C2820 C 0.97853 0.49706 0.47079 0.0
C2821 C 0.98741 0.49493 0.46406 0.0
C2822 C 0.97177 0.49128 0.48981 0.0
C2823 C 0.96258 0.49352 0.49828 0.0
C2824 C 0.96518 0.50485 0.50384 0.0
C2825 C 0.95646 0.5069 0.51168 0.0
C2826 C 0.94512 0.49768 0.51419 0.0
C2827 C 0.94247 0.48637 0.50892 0.0
C2828 C 0.95116 0.48428 0.50105 0.0
C2829 C 0.99872 0.47009 0.5308 0.0
C2830 C 0.98967 0.45896 0.53667 0.0
C2831 C 0.99654 0.47735 0.51722 0.0
C2832 C 0.98533 0.47357 0.50893 0.0
C2833 C 0.97629 0.46244 0.51471 0.0
C2834 C 0.97844 0.45522 0.52846 0.0
C2835 C 0.98292 0.48136 0.49489 0.0
C2836 C 0.97401 0.48347 0.50153 0.0
C2837 C 0.98961 0.48706 0.4757 0.0
C2838 C 0.99865 0.48467 0.46694 0.0
C2839 C 0.99594 0.47324 0.46197 0.0
C2840 C 0.00451 0.47103 0.45384 0.0
C2841 C 0.01581 0.4802 0.45045 0.0
C2842 C 0.01856 0.49159 0.45514 0.0
C2843 C 0.01003 0.49384 0.4633 0.0
H2844 H 0.02244 0.47847 0.44415 0.0
H2845 H 0.93838 0.49928 0.52027 0.0
H2846 H 0.49239 0.44897 0.44464 0.0
H2847 H 0.50929 0.46357 0.4653 0.0
H2848 H 0.49421 0.4857 0.46783 0.0
H2849 H 0.47725 0.47115 0.44718 0.0
H2850 H 0.51791 0.49772 0.45751 0.0
H2851 H 0.49222 0.47025 0.5123 0.0
H2852 H 0.48011 0.45075 0.52852 0.0
H2853 H 0.50994 0.44637 0.53298 0.0
H2854 H 0.5222 0.4658 0.51649 0.0
H2855 H 0.55164 0.53603 0.54449 0.0
H2856 H 0.53617 0.52215 0.52013 0.0
H2857 H 0.54929 0.49844 0.52679 0.0
H2858 H 0.56456 0.51213 0.55177 0.0
H2859 H 0.52689 0.48709 0.53138 0.0
H2860 H 0.55288 0.51455 0.47787 0.0
H2861 H 0.56521 0.53388 0.46112 0.0
H2862 H 0.53545 0.53815 0.45333 0.0
H2863 H 0.52296 0.5189 0.47031 0.0
C2864 C 0.49269 0.45698 0.44945 0.0
C2865 C 0.48344 0.45888 0.44438 0.0
C2866 C 0.50234 0.46529 0.46131 0.0
C2867 C 0.50294 0.47566 0.46826 0.0
C2868 C 0.4939 0.47774 0.46262 0.0
C2869 C 0.4842 0.4694 0.4509 0.0
C2870 C 0.51282 0.48416 0.48201 0.0
C2871 C 0.51983 0.49546 0.47377 0.0
C2872 C 0.51546 0.48109 0.50295 0.0
C2873 C 0.5081 0.46943 0.51294 0.0
C2874 C 0.49618 0.46509 0.51656 0.0
C2875 C 0.48929 0.45406 0.52584 0.0
C2876 C 0.49425 0.44731 0.53172 0.0
C2877 C 0.50611 0.4516 0.52838 0.0
C2878 C 0.51303 0.46263 0.51909 0.0
C2879 C 0.55128 0.52788 0.54066 0.0
C2880 C 0.55933 0.52518 0.55004 0.0
C2881 C 0.54246 0.51998 0.52662 0.0
C2882 C 0.54164 0.5093 0.52134 0.0
C2883 C 0.54974 0.50662 0.53059 0.0
C2884 C 0.55848 0.51447 0.54484 0.0
C2885 C 0.53208 0.50072 0.50692 0.0
C2886 C 0.52508 0.48939 0.51506 0.0
C2887 C 0.52952 0.50375 0.48581 0.0
C2888 C 0.537 0.51533 0.47556 0.0
C2889 C 0.54898 0.51965 0.47275 0.0
C2890 C 0.55599 0.53059 0.46318 0.0
C2891 C 0.55112 0.53725 0.45622 0.0
C2892 C 0.53921 0.53298 0.45875 0.0
C2893 C 0.53216 0.52205 0.46833 0.0
H2894 H 0.55657 0.54572 0.44881 0.0
H2895 H 0.4889 0.43877 0.5389 0.0
H2896 H 0.45629 0.9901 0.55479 0.0
H2897 H 0.47266 0.99397 0.53051 0.0
H2898 H 0.48241 0.03013 0.5271 0.0
H2899 H 0.46607 0.02636 0.55142 0.0
H2900 H 0.4829 0.02074 0.48551 0.0
H2901 H 0.49712 0.02243 0.5604 0.0
H2902 H 0.49665 0.01497 0.59838 0.0
H2903 H 0.49779 0.98573 0.57083 0.0
H2904 H 0.49811 0.99294 0.53265 0.0
H2905 H 0.54032 0.04501 0.44394 0.0
H2906 H 0.52272 0.03997 0.46516 0.0
H2907 H 0.51678 0.00525 0.47496 0.0
H2908 H 0.53457 0.01034 0.45428 0.0
H2909 H 0.51378 0.0132 0.51267 0.0
H2910 H 0.50015 0.01134 0.43807 0.0
H2911 H 0.50023 0.0182 0.39972 0.0
H2912 H 0.4974 0.0468 0.42568 0.0
H2913 H 0.49746 0.0402 0.46421 0.0
C2914 C 0.4619 0.99888 0.54884 0.0
C2915 C 0.45991 0.00794 0.55511 0.0
C2916 C 0.47126 0.00107 0.53501 0.0
C2917 C 0.47878 0.01235 0.52715 0.0
C2918 C 0.4767 0.02137 0.533 0.0
C2919 C 0.46739 0.0192 0.54697 0.0
C2920 C 0.48894 0.01479 0.5131 0.0
C2921 C 0.48973 0.01923 0.49149 0.0
C2922 C 0.49766 0.01248 0.52073 0.0
C2923 C 0.49751 0.00816 0.54367 0.0
C2924 C 0.49717 0.01436 0.56244 0.0
C2925 C 0.49695 0.01019 0.584 0.0
C2926 C 0.49716 0.99987 0.58701 0.0
C2927 C 0.49762 0.99372 0.56847 0.0
C2928 C 0.49782 0.99784 0.54687 0.0
C2929 C 0.53522 0.03627 0.45047 0.0
C2930 C 0.53884 0.02807 0.44742 0.0
C2931 C 0.52512 0.03338 0.46252 0.0
C2932 C 0.51833 0.02218 0.47146 0.0
C2933 C 0.52187 0.01394 0.46823 0.0
C2934 C 0.53203 0.01686 0.45635 0.0
C2935 C 0.50781 0.01921 0.48495 0.0
C2936 C 0.50694 0.01467 0.50654 0.0
C2937 C 0.49897 0.02133 0.47719 0.0
C2938 C 0.49892 0.02533 0.45404 0.0
C2939 C 0.49964 0.01914 0.43561 0.0
C2940 C 0.49964 0.02298 0.41384 0.0
C2941 C 0.49885 0.03295 0.41027 0.0
C2942 C 0.49803 0.03909 0.42847 0.0
C2943 C 0.49803 0.0353 0.45028 0.0
H2944 H 0.49885 0.0359 0.3934 0.0
H2945 H 0.49699 0.99665 0.60372 0.0
H2946 H 0.52784 0.98708 0.06598 0.0
H2947 H 0.51195 0.98764 0.04645 0.0
H2948 H 0.49052 0.95054 0.05397 0.0
H2949 H 0.50633 0.94989 0.07361 0.0
H2950 H 0.49063 0.95836 0.01052 0.0
H2951 H 0.48525 0.96756 0.08591 0.0
H2952 H 0.49139 0.97852 0.12131 0.0
H2953 H 0.49961 0.00994 0.08637 0.0
H2954 H 0.49368 0.99919 0.0507 0.0
H2955 H 0.4372 0.95232 0.97529 0.0
H2956 H 0.45253 0.95184 0.99696 0.0
H2957 H 0.47191 0.98931 0.99798 0.0
H2958 H 0.45642 0.98985 0.9769 0.0
H2959 H 0.473 0.98139 0.03733 0.0
H2960 H 0.47907 0.97312 0.96234 0.0
H2961 H 0.47381 0.96297 0.92604 0.0
H2962 H 0.46544 0.93093 0.95864 0.0
H2963 H 0.47051 0.94086 0.9952 0.0
C2964 C 0.51973 0.97904 0.06357 0.0
C2965 C 0.51834 0.96843 0.07136 0.0
C2966 C 0.51065 0.97939 0.05247 0.0
C2967 C 0.50005 0.96914 0.04889 0.0
C2968 C 0.49864 0.95854 0.0566 0.0
C2969 C 0.50767 0.9582 0.06788 0.0
C2970 C 0.49051 0.96943 0.03664 0.0
C2971 C 0.48664 0.96325 0.01651 0.0
C2972 C 0.4856 0.97613 0.04415 0.0
C2973 C 0.48913 0.98259 0.0656 0.0
C2974 C 0.48846 0.97682 0.08575 0.0
C2975 C 0.49189 0.98299 0.10587 0.0
C2976 C 0.49592 0.99492 0.10608 0.0
C2977 C 0.4965 0.0007 0.08617 0.0
C2978 C 0.4931 0.99457 0.06601 0.0
C2979 C 0.44472 0.96046 0.98016 0.0
C2980 C 0.44562 0.97112 0.97429 0.0
C2981 C 0.4535 0.96017 0.99246 0.0
C2982 C 0.46348 0.97054 0.99879 0.0
C2983 C 0.46431 0.9812 0.99326 0.0
C2984 C 0.45546 0.98149 0.98116 0.0
C2985 C 0.47304 0.97027 0.01115 0.0
C2986 C 0.47695 0.97647 0.03129 0.0
C2987 C 0.4781 0.96372 0.00349 0.0
C2988 C 0.47506 0.95771 0.98153 0.0
C2989 C 0.47602 0.96389 0.96179 0.0
C2990 C 0.47309 0.95818 0.94116 0.0
C2991 C 0.46927 0.9463 0.94004 0.0
C2992 C 0.46839 0.94012 0.95954 0.0
C2993 C 0.4713 0.94579 0.98022 0.0
H2994 H 0.467 0.9419 0.92406 0.0
H2995 H 0.49856 0.99968 0.12167 0.0
H2996 H 0.00308 0.45875 0.96011 0.0
H2997 H 0.00397 0.47388 0.98472 0.0
H2998 H 0.04138 0.49096 0.98472 0.0
H2999 H 0.04058 0.4759 0.96004 0.0
H3000 H 0.03171 0.48983 0.02738 0.0
H3001 H 0.02891 0.50103 0.95169 0.0
H3002 H 0.01999 0.49802 0.91433 0.0
H3003 H 0.98837 0.49296 0.94397 0.0
H3004 H 0.99705 0.49578 0.98155 0.0
H3005 H 0.04748 0.54658 0.06311 0.0
H3006 H 0.04486 0.52921 0.04399 0.0
H3007 H 0.00824 0.51705 0.03681 0.0
H3008 H 0.01088 0.5346 0.05533 0.0
H3009 H 0.01637 0.51464 0.9991 0.0
H3010 H 0.01896 0.50444 0.07444 0.0
H3011 H 0.02725 0.50694 0.11227 0.0
H3012 H 0.0582 0.50933 0.08472 0.0
H3013 H 0.05017 0.50701 0.04667 0.0
C3014 C 0.0115 0.46568 0.96548 0.0
C3015 C 0.02177 0.46617 0.95802 0.0
C3016 C 0.01198 0.47432 0.97949 0.0
C3017 C 0.02274 0.48357 0.98638 0.0
C3018 C 0.03299 0.48389 0.97958 0.0
C3019 C 0.03252 0.4753 0.96541 0.0
C3020 C 0.02334 0.49318 -7e-05 0.0
C3021 C 0.02846 0.49534 0.02118 0.0
C3022 C 0.01879 0.50013 0.99202 0.0
C3023 C 0.01358 0.49849 0.96943 0.0
C3024 C 0.02002 0.49918 0.95025 0.0
C3025 C 0.01502 0.49752 0.92903 0.0
C3026 C 0.00361 0.49526 0.92678 0.0
C3027 C 0.9972 0.49469 0.94574 0.0
C3028 C 0.00216 0.49632 0.967 0.0
C3029 C 0.03885 0.54016 0.05764 0.0
C3030 C 0.02939 0.54197 0.06072 0.0
C3031 C 0.03734 0.53019 0.0468 0.0
C3032 C 0.02632 0.52173 0.03918 0.0
C3033 C 0.01683 0.52345 0.04254 0.0
C3034 C 0.01835 0.53348 0.05317 0.0
C3035 C 0.02482 0.5114 0.02668 0.0
C3036 C 0.01954 0.5091 0.00552 0.0
C3037 C 0.02913 0.50426 0.03481 0.0
C3038 C 0.034 0.50565 0.05768 0.0
C3039 C 0.02757 0.50559 0.07642 0.0
C3040 C 0.03222 0.50696 0.09791 0.0
C3041 C 0.04326 0.50832 0.10089 0.0
C3042 C 0.04966 0.50829 0.08239 0.0
C3043 C 0.04506 0.50693 0.06086 0.0
H3044 H 0.04684 0.50938 0.11755 0.0
H3045 H 0.99975 0.49399 0.91034 0.0
H3046 H 0.47622 0.47643 0.05034 0.0
H3047 H 0.49308 0.49255 0.0323 0.0
H3048 H 0.47684 0.51359 0.03709 0.0
H3049 H 0.45991 0.49749 0.05508 0.0
H3050 H 0.48546 0.51417 0.99528 0.0
H3051 H 0.49906 0.51889 0.07103 0.0
H3052 H 0.50338 0.5126 0.10679 0.0
H3053 H 0.52689 0.50431 0.07331 0.0
H3054 H 0.5226 0.5104 0.03727 0.0
H3055 H 0.53409 0.5667 0.95981 0.0
H3056 H 0.51815 0.55213 0.98247 0.0
H3057 H 0.53456 0.53115 0.9835 0.0
H3058 H 0.55068 0.54582 0.96133 0.0
H3059 H 0.52582 0.53094 0.02336 0.0
H3060 H 0.51181 0.52507 0.94784 0.0
H3061 H 0.50743 0.53073 0.91143 0.0
H3062 H 0.48459 0.54035 0.9436 0.0
H3063 H 0.48895 0.53489 0.98026 0.0
C3064 C 0.47626 0.4845 0.04769 0.0
C3065 C 0.46672 0.48568 0.05414 0.0
C3066 C 0.48593 0.49373 0.03746 0.0
C3067 C 0.48625 0.50429 0.0335 0.0
C3068 C 0.47677 0.50551 0.04002 0.0
C3069 C 0.46712 0.49631 0.05035 0.0
C3070 C 0.49628 0.51392 0.02181 0.0
C3071 C 0.49427 0.51798 0.0016 0.0
C3072 C 0.50779 0.51864 0.02975 0.0
C3073 C 0.51042 0.51501 0.05142 0.0
C3074 C 0.50508 0.51564 0.07126 0.0
C3075 C 0.50754 0.51212 0.09158 0.0
C3076 C 0.51538 0.50803 0.09231 0.0
C3077 C 0.52081 0.50747 0.07272 0.0
C3078 C 0.51838 0.51097 0.05234 0.0
C3079 C 0.53434 0.55901 0.96496 0.0
C3080 C 0.54362 0.55738 0.95865 0.0
C3081 C 0.5252 0.55067 0.97784 0.0
C3082 C 0.52506 0.54045 0.98438 0.0
C3083 C 0.53446 0.53895 0.97861 0.0
C3084 C 0.54366 0.54733 0.96588 0.0
C3085 C 0.515 0.5312 0.99679 0.0
C3086 C 0.517 0.52719 0.0171 0.0
C3087 C 0.50347 0.52644 0.98884 0.0
C3088 C 0.5008 0.52969 0.96681 0.0
C3089 C 0.50592 0.52848 0.94717 0.0
C3090 C 0.50343 0.53163 0.92648 0.0
C3091 C 0.49576 0.53593 0.92521 0.0
C3092 C 0.49054 0.53704 0.94461 0.0
C3093 C 0.49301 0.53391 0.96535 0.0
H3094 H 0.49384 0.53837 0.90918 0.0
H3095 H 0.51727 0.50532 0.10806 0.0
loop_
_geom_bond_atom_site_label_1
_geom_bond_atom_site_label_2
_geom_bond_distance
_geom_bond_site_symmetry_2
_ccdc_geom_bond_type
O0 Cd1 2.300 . S
O0 C7 1.275 . S
Cd1 O0 2.300 . S
Cd1 O9 2.381 . S
Cd1 O10 2.378 . S
O2 Cd3 2.385 . S
O2 C7 1.255 . S
Cd3 O2 2.385 . S
Cd3 O4 2.317 . S
O4 Cd3 2.317 . S
O4 C5 1.232 . S
C5 O4 1.232 . S
C5 O6 1.218 . S
O6 C5 1.218 . S
C7 O0 1.275 . S
C7 O2 1.255 . S
C8 O9 1.258 . S
C8 O10 1.256 . S
O9 Cd1 2.381 . S
O9 C8 1.258 . S
O10 Cd1 2.378 . S
O10 C8 1.256 . S
O11 Cd12 2.300 . S
O11 C18 1.275 . S
Cd12 O11 2.300 . S
Cd12 O20 2.381 . S
Cd12 O21 2.378 . S
O13 Cd14 2.385 . S
O13 C18 1.255 . S
Cd14 O13 2.385 . S
Cd14 O15 2.317 . S
O15 Cd14 2.317 . S
O15 C16 1.232 . S
C16 O15 1.232 . S
C16 O17 1.218 . S
O17 C16 1.218 . S
C18 O11 1.275 . S
C18 O13 1.255 . S
C19 O20 1.258 . S
C19 O21 1.256 . S
O20 Cd12 2.381 . S
O20 C19 1.258 . S
O21 Cd12 2.378 . S
O21 C19 1.256 . S
O22 Cd23 2.300 . S
O22 C29 1.275 . S
Cd23 O22 2.300 . S
Cd23 O31 2.381 . S
Cd23 O32 2.378 . S
O24 Cd25 2.385 . S
O24 C29 1.255 . S
Cd25 O24 2.385 . S
Cd25 O26 2.317 . S
O26 Cd25 2.317 . S
O26 C27 1.232 . S
C27 O26 1.232 . S
C27 O28 1.218 . S
O28 C27 1.218 . S
C29 O22 1.275 . S
C29 O24 1.255 . S
C30 O31 1.258 . S
C30 O32 1.256 . S
O31 Cd23 2.381 . S
O31 C30 1.258 . S
O32 Cd23 2.378 . S
O32 C30 1.256 . S
O33 Cd34 2.300 . S
O33 C40 1.275 . S
Cd34 O33 2.300 . S
Cd34 O42 2.381 . S
Cd34 O43 2.378 . S
O35 Cd36 2.385 . S
O35 C40 1.255 . S
Cd36 O35 2.385 . S
Cd36 O37 2.317 . S
O37 Cd36 2.317 . S
O37 C38 1.232 . S
C38 O37 1.232 . S
C38 O39 1.218 . S
O39 C38 1.218 . S
C40 O33 1.275 . S
C40 O35 1.255 . S
C41 O42 1.258 . S
C41 O43 1.256 . S
O42 Cd34 2.381 . S
O42 C41 1.258 . S
O43 Cd34 2.378 . S
O43 C41 1.256 . S
O44 Cd45 2.300 . S
O44 C51 1.275 . S
Cd45 O44 2.300 . S
Cd45 O53 2.381 . S
Cd45 O54 2.378 . S
O46 Cd47 2.385 . S
O46 C51 1.255 . S
Cd47 O46 2.385 . S
Cd47 O48 2.317 . S
O48 Cd47 2.317 . S
O48 C49 1.232 . S
C49 O48 1.232 . S
C49 O50 1.218 . S
O50 C49 1.218 . S
C51 O44 1.275 . S
C51 O46 1.255 . S
C52 O53 1.258 . S
C52 O54 1.256 . S
O53 Cd45 2.381 . S
O53 C52 1.258 . S
O54 Cd45 2.378 . S
O54 C52 1.256 . S
O55 Cd56 2.300 . S
O55 C62 1.275 . S
Cd56 O55 2.300 . S
Cd56 O64 2.381 . S
Cd56 O65 2.378 . S
O57 Cd58 2.385 . S
O57 C62 1.255 . S
Cd58 O57 2.385 . S
Cd58 O59 2.317 . S
O59 Cd58 2.317 . S
O59 C60 1.232 . S
C60 O59 1.232 . S
C60 O61 1.218 . S
O61 C60 1.218 . S
C62 O55 1.275 . S
C62 O57 1.255 . S
C63 O64 1.258 . S
C63 O65 1.256 . S
O64 Cd56 2.381 . S
O64 C63 1.258 . S
O65 Cd56 2.378 . S
O65 C63 1.256 . S
O66 Cd67 2.300 . S
O66 C73 1.275 . S
Cd67 O66 2.300 . S
Cd67 O75 2.381 . S
Cd67 O76 2.378 . S
O68 Cd69 2.385 . S
O68 C73 1.255 . S
Cd69 O68 2.385 . S
Cd69 O70 2.317 . S
O70 Cd69 2.317 . S
O70 C71 1.232 . S
C71 O70 1.232 . S
C71 O72 1.218 . S
O72 C71 1.218 . S
C73 O66 1.275 . S
C73 O68 1.255 . S
C74 O75 1.258 . S
C74 O76 1.256 . S
O75 Cd67 2.381 . S
O75 C74 1.258 . S
O76 Cd67 2.378 . S
O76 C74 1.256 . S
O77 Cd78 2.300 . S
O77 C84 1.275 . S
Cd78 O77 2.300 . S
Cd78 O86 2.381 . S
Cd78 O87 2.378 . S
O79 Cd80 2.385 . S
O79 C84 1.255 . S
Cd80 O79 2.385 . S
Cd80 O81 2.317 . S
O81 Cd80 2.317 . S
O81 C82 1.232 . S
C82 O81 1.232 . S
C82 O83 1.218 . S
O83 C82 1.218 . S
C84 O77 1.275 . S
C84 O79 1.255 . S
C85 O86 1.258 . S
C85 O87 1.256 . S
O86 Cd78 2.381 . S
O86 C85 1.258 . S
O87 Cd78 2.378 . S
O87 C85 1.256 . S
O88 Cd89 2.300 . S
O88 C95 1.275 . S
Cd89 O88 2.300 . S
Cd89 O97 2.381 . S
Cd89 O98 2.378 . S
O90 Cd91 2.385 . S
O90 C95 1.255 . S
Cd91 O90 2.385 . S
Cd91 O92 2.317 . S
O92 Cd91 2.317 . S
O92 C93 1.232 . S
C93 O92 1.232 . S
C93 O94 1.218 . S
O94 C93 1.218 . S
C95 O88 1.275 . S
C95 O90 1.255 . S
C96 O97 1.258 . S
C96 O98 1.256 . S
O97 Cd89 2.381 . S
O97 C96 1.258 . S
O98 Cd89 2.378 . S
O98 C96 1.256 . S
O99 Cd100 2.300 . S
O99 C106 1.275 . S
Cd100 O99 2.300 . S
Cd100 O108 2.381 . S
Cd100 O109 2.378 . S
O101 Cd102 2.385 . S
O101 C106 1.255 . S
Cd102 O101 2.385 . S
Cd102 O103 2.317 . S
O103 Cd102 2.317 . S
O103 C104 1.232 . S
C104 O103 1.232 . S
C104 O105 1.218 . S
O105 C104 1.218 . S
C106 O99 1.275 . S
C106 O101 1.255 . S
C107 O108 1.258 . S
C107 O109 1.256 . S
O108 Cd100 2.381 . S
O108 C107 1.258 . S
O109 Cd100 2.378 . S
O109 C107 1.256 . S
O110 Cd111 2.300 . S
O110 C117 1.275 . S
Cd111 O110 2.300 . S
Cd111 O119 2.381 . S
Cd111 O120 2.378 . S
O112 Cd113 2.385 . S
O112 C117 1.255 . S
Cd113 O112 2.385 . S
Cd113 O114 2.317 . S
O114 Cd113 2.317 . S
O114 C115 1.232 . S
C115 O114 1.232 . S
C115 O116 1.218 . S
O116 C115 1.218 . S
C117 O110 1.275 . S
C117 O112 1.255 . S
C118 O119 1.258 . S
C118 O120 1.256 . S
O119 Cd111 2.381 . S
O119 C118 1.258 . S
O120 Cd111 2.378 . S
O120 C118 1.256 . S
O121 Cd122 2.300 . S
O121 C128 1.275 . S
Cd122 O121 2.300 . S
Cd122 O130 2.381 . S
Cd122 O131 2.378 . S
O123 Cd124 2.385 . S
O123 C128 1.255 . S
Cd124 O123 2.385 . S
Cd124 O125 2.317 . S
O125 Cd124 2.317 . S
O125 C126 1.232 . S
C126 O125 1.232 . S
C126 O127 1.218 . S
O127 C126 1.218 . S
C128 O121 1.275 . S
C128 O123 1.255 . S
C129 O130 1.258 . S
C129 O131 1.256 . S
O130 Cd122 2.381 . S
O130 C129 1.258 . S
O131 Cd122 2.378 . S
O131 C129 1.256 . S
O132 Cd133 2.300 . S
O132 C139 1.275 . S
Cd133 O132 2.300 . S
Cd133 O141 2.381 . S
Cd133 O142 2.378 . S
O134 Cd135 2.385 . S
O134 C139 1.255 . S
Cd135 O134 2.385 . S
Cd135 O136 2.317 . S
O136 Cd135 2.317 . S
O136 C137 1.232 . S
C137 O136 1.232 . S
C137 O138 1.218 . S
O138 C137 1.218 . S
C139 O132 1.275 . S
C139 O134 1.255 . S
C140 O141 1.258 . S
C140 O142 1.256 . S
O141 Cd133 2.381 . S
O141 C140 1.258 . S
O142 Cd133 2.378 . S
O142 C140 1.256 . S
O143 Cd144 2.300 . S
O143 C150 1.275 . S
Cd144 O143 2.300 . S
Cd144 O152 2.381 . S
Cd144 O153 2.378 . S
O145 Cd146 2.385 . S
O145 C150 1.255 . S
Cd146 O145 2.385 . S
Cd146 O147 2.317 . S
O147 Cd146 2.317 . S
O147 C148 1.232 . S
C148 O147 1.232 . S
C148 O149 1.218 . S
O149 C148 1.218 . S
C150 O143 1.275 . S
C150 O145 1.255 . S
C151 O152 1.258 . S
C151 O153 1.256 . S
O152 Cd144 2.381 . S
O152 C151 1.258 . S
O153 Cd144 2.378 . S
O153 C151 1.256 . S
O154 Cd155 2.300 . S
O154 C161 1.275 . S
Cd155 O154 2.300 . S
Cd155 O163 2.381 . S
Cd155 O164 2.378 . S
O156 Cd157 2.385 . S
O156 C161 1.255 . S
Cd157 O156 2.385 . S
Cd157 O158 2.317 . S
O158 Cd157 2.317 . S
O158 C159 1.232 . S
C159 O158 1.232 . S
C159 O160 1.218 . S
O160 C159 1.218 . S
C161 O154 1.275 . S
C161 O156 1.255 . S
C162 O163 1.258 . S
C162 O164 1.256 . S
O163 Cd155 2.381 . S
O163 C162 1.258 . S
O164 Cd155 2.378 . S
O164 C162 1.256 . S
O165 Cd166 2.300 . S
O165 C172 1.275 . S
Cd166 O165 2.300 . S
Cd166 O174 2.380 . S
Cd166 O175 2.378 1_655 S
O167 Cd168 2.406 . S
O167 C172 1.233 1_455 S
Cd168 O167 2.406 . S
Cd168 O169 2.317 1_455 S
O169 Cd168 2.317 1_655 S
O169 C170 1.232 . S
C170 O169 1.232 . S
C170 O171 1.218 . S
O171 C170 1.218 . S
C172 O165 1.275 . S
C172 O167 1.233 1_655 S
C173 O174 1.258 . S
C173 O175 1.256 1_655 S
O174 Cd166 2.380 . S
O174 C173 1.258 . S
O175 Cd166 2.378 1_455 S
O175 C173 1.256 1_455 S
O176 Cd177 2.300 . S
O176 C183 1.275 . S
Cd177 O176 2.300 . S
Cd177 O185 2.381 . S
Cd177 O186 2.378 . S
O178 Cd179 2.385 . S
O178 C183 1.255 . S
Cd179 O178 2.385 . S
Cd179 O180 2.317 . S
O180 Cd179 2.317 . S
O180 C181 1.232 . S
C181 O180 1.232 . S
C181 O182 1.218 . S
O182 C181 1.218 . S
C183 O176 1.275 . S
C183 O178 1.255 . S
C184 O185 1.258 . S
C184 O186 1.256 . S
O185 Cd177 2.381 . S
O185 C184 1.258 . S
O186 Cd177 2.378 . S
O186 C184 1.256 . S
O187 Cd188 2.302 1_545 S
O187 C194 1.275 . S
Cd188 O187 2.302 1_565 S
Cd188 O196 2.379 1_565 S
Cd188 O197 2.376 . S
O189 Cd190 2.375 . S
O189 C194 1.260 1_565 S
Cd190 O189 2.375 . S
Cd190 O191 2.317 1_565 S
O191 Cd190 2.317 1_545 S
O191 C192 1.232 . S
C192 O191 1.232 . S
C192 O193 1.218 . S
O193 C192 1.218 . S
C194 O187 1.275 . S
C194 O189 1.260 1_545 S
C195 O196 1.258 . S
C195 O197 1.256 1_545 S
O196 Cd188 2.379 1_545 S
O196 C195 1.258 . S
O197 Cd188 2.376 . S
O197 C195 1.256 1_565 S
O198 Cd199 2.339 . S
O198 C205 1.287 . S
Cd199 O198 2.339 . S
Cd199 O207 2.381 1_545 S
Cd199 O208 2.378 . S
O200 Cd201 2.385 . S
O200 C205 1.255 . S
Cd201 O200 2.385 . S
Cd201 O202 2.317 . S
O202 Cd201 2.317 . S
O202 C203 1.232 . S
C203 O202 1.232 . S
C203 O204 1.218 . S
O204 C203 1.218 . S
C205 O198 1.287 . S
C205 O200 1.255 . S
C206 O207 1.258 1_545 S
C206 O208 1.256 . S
O207 Cd199 2.381 1_565 S
O207 C206 1.258 1_565 S
O208 Cd199 2.378 . S
O208 C206 1.256 . S
O209 Cd210 2.332 . S
O209 C216 1.334 . S
Cd210 O209 2.332 . S
Cd210 O218 2.381 1_655 S
Cd210 O219 2.378 . S
O211 Cd212 2.385 . S
O211 C216 1.255 . S
Cd212 O211 2.385 . S
Cd212 O213 2.317 . S
O213 Cd212 2.317 . S
O213 C214 1.232 . S
C214 O213 1.232 . S
C214 O215 1.218 . S
O215 C214 1.218 . S
C216 O209 1.334 . S
C216 O211 1.255 . S
C217 O218 1.258 1_655 S
C217 O219 1.256 . S
O218 Cd210 2.381 1_455 S
O218 C217 1.258 1_455 S
O219 Cd210 2.378 . S
O219 C217 1.256 . S
O220 Cd221 2.300 . S
O220 C227 1.275 . S
Cd221 O220 2.300 . S
Cd221 O229 2.381 . S
Cd221 O230 2.378 . S
O222 Cd223 2.385 . S
O222 C227 1.255 . S
Cd223 O222 2.385 . S
Cd223 O224 2.317 . S
O224 Cd223 2.317 . S
O224 C225 1.232 . S
C225 O224 1.232 . S
C225 O226 1.218 . S
O226 C225 1.218 . S
C227 O220 1.275 . S
C227 O222 1.255 . S
C228 O229 1.258 . S
C228 O230 1.256 . S
O229 Cd221 2.381 . S
O229 C228 1.258 . S
O230 Cd221 2.378 . S
O230 C228 1.256 . S
O231 Cd232 2.300 . S
O231 C238 1.275 . S
Cd232 O231 2.300 . S
Cd232 O240 2.381 . S
Cd232 O241 2.378 . S
O233 Cd234 2.385 . S
O233 C238 1.255 . S
Cd234 O233 2.385 . S
Cd234 O235 2.317 . S
O235 Cd234 2.317 . S
O235 C236 1.232 . S
C236 O235 1.232 . S
C236 O237 1.218 . S
O237 C236 1.218 . S
C238 O231 1.275 . S
C238 O233 1.255 . S
C239 O240 1.258 . S
C239 O241 1.256 . S
O240 Cd232 2.381 . S
O240 C239 1.258 . S
O241 Cd232 2.378 . S
O241 C239 1.256 . S
O242 Cd243 2.300 . S
O242 C249 1.275 . S
Cd243 O242 2.300 . S
Cd243 O251 2.381 . S
Cd243 O252 2.378 . S
O244 Cd245 2.385 . S
O244 C249 1.255 . S
Cd245 O244 2.385 . S
Cd245 O246 2.317 . S
O246 Cd245 2.317 . S
O246 C247 1.232 . S
C247 O246 1.232 . S
C247 O248 1.218 . S
O248 C247 1.218 . S
C249 O242 1.275 . S
C249 O244 1.255 . S
C250 O251 1.258 . S
C250 O252 1.256 . S
O251 Cd243 2.381 . S
O251 C250 1.258 . S
O252 Cd243 2.378 . S
O252 C250 1.256 . S
O253 Cd254 2.300 . S
O253 C260 1.275 . S
Cd254 O253 2.300 . S
Cd254 O262 2.381 . S
Cd254 O263 2.378 . S
O255 Cd256 2.385 . S
O255 C260 1.255 . S
Cd256 O255 2.385 . S
Cd256 O257 2.317 . S
O257 Cd256 2.317 . S
O257 C258 1.232 . S
C258 O257 1.232 . S
C258 O259 1.218 . S
O259 C258 1.218 . S
C260 O253 1.275 . S
C260 O255 1.255 . S
C261 O262 1.258 . S
C261 O263 1.256 . S
O262 Cd254 2.381 . S
O262 C261 1.258 . S
O263 Cd254 2.378 . S
O263 C261 1.256 . S
O264 Cd265 2.302 . S
O264 C271 1.275 . S
Cd265 O264 2.302 . S
Cd265 O273 2.385 . S
Cd265 O274 2.379 1_565 S
O266 Cd267 2.403 . S
O266 C271 1.237 1_545 S
Cd267 O266 2.403 . S
Cd267 O268 2.317 1_545 S
O268 Cd267 2.317 1_565 S
O268 C269 1.232 . S
C269 O268 1.232 . S
C269 O270 1.218 . S
O270 C269 1.218 . S
C271 O264 1.275 . S
C271 O266 1.237 1_565 S
C272 O273 1.258 . S
C272 O274 1.256 1_565 S
O273 Cd265 2.385 . S
O273 C272 1.258 . S
O274 Cd265 2.379 1_545 S
O274 C272 1.256 1_545 S
O275 Cd276 2.299 . S
O275 C282 1.275 . S
Cd276 O275 2.299 . S
Cd276 O284 2.384 . S
Cd276 O285 2.382 1_455 S
O277 Cd278 2.376 . S
O277 C282 1.259 1_655 S
Cd278 O277 2.376 . S
Cd278 O279 2.317 1_655 S
O279 Cd278 2.317 1_455 S
O279 C280 1.232 . S
C280 O279 1.232 . S
C280 O281 1.218 . S
O281 C280 1.218 . S
C282 O275 1.275 . S
C282 O277 1.259 1_455 S
C283 O284 1.258 . S
C283 O285 1.256 1_455 S
O284 Cd276 2.384 . S
O284 C283 1.258 . S
O285 Cd276 2.382 1_655 S
O285 C283 1.256 1_655 S
O286 Cd287 2.300 . S
O286 C293 1.275 . S
Cd287 O286 2.300 . S
Cd287 O295 2.381 . S
Cd287 O296 2.378 . S
O288 Cd289 2.385 . S
O288 C293 1.255 . S
Cd289 O288 2.385 . S
Cd289 O290 2.317 . S
O290 Cd289 2.317 . S
O290 C291 1.232 . S
C291 O290 1.232 . S
C291 O292 1.218 . S
O292 C291 1.218 . S
C293 O286 1.275 . S
C293 O288 1.255 . S
C294 O295 1.258 . S
C294 O296 1.256 . S
O295 Cd287 2.381 . S
O295 C294 1.258 . S
O296 Cd287 2.378 . S
O296 C294 1.256 . S
O297 Cd298 2.300 . S
O297 C304 1.275 . S
Cd298 O297 2.300 . S
Cd298 O306 2.381 . S
Cd298 O307 2.378 . S
O299 Cd300 2.385 . S
O299 C304 1.255 . S
Cd300 O299 2.385 . S
Cd300 O301 2.317 . S
O301 Cd300 2.317 . S
O301 C302 1.232 . S
C302 O301 1.232 . S
C302 O303 1.218 . S
O303 C302 1.218 . S
C304 O297 1.275 . S
C304 O299 1.255 . S
C305 O306 1.258 . S
C305 O307 1.256 . S
O306 Cd298 2.381 . S
O306 C305 1.258 . S
O307 Cd298 2.378 . S
O307 C305 1.256 . S
O308 Cd309 2.300 . S
O308 C315 1.275 . S
Cd309 O308 2.300 . S
Cd309 O317 2.381 . S
Cd309 O318 2.378 . S
O310 Cd311 2.385 . S
O310 C315 1.255 . S
Cd311 O310 2.385 . S
Cd311 O312 2.317 . S
O312 Cd311 2.317 . S
O312 C313 1.232 . S
C313 O312 1.232 . S
C313 O314 1.218 . S
O314 C313 1.218 . S
C315 O308 1.275 . S
C315 O310 1.255 . S
C316 O317 1.258 . S
C316 O318 1.256 . S
O317 Cd309 2.381 . S
O317 C316 1.258 . S
O318 Cd309 2.378 . S
O318 C316 1.256 . S
O319 Cd320 2.300 . S
O319 C326 1.275 . S
Cd320 O319 2.300 . S
Cd320 O328 2.381 . S
Cd320 O329 2.378 . S
O321 Cd322 2.385 . S
O321 C326 1.255 . S
Cd322 O321 2.385 . S
Cd322 O323 2.317 . S
O323 Cd322 2.317 . S
O323 C324 1.232 . S
C324 O323 1.232 . S
C324 O325 1.218 . S
O325 C324 1.218 . S
C326 O319 1.275 . S
C326 O321 1.255 . S
C327 O328 1.258 . S
C327 O329 1.256 . S
O328 Cd320 2.381 . S
O328 C327 1.258 . S
O329 Cd320 2.378 . S
O329 C327 1.256 . S
O330 Cd331 2.300 . S
O330 C337 1.275 . S
Cd331 O330 2.300 . S
Cd331 O339 2.381 . S
Cd331 O340 2.378 . S
O332 Cd333 2.385 . S
O332 C337 1.255 . S
Cd333 O332 2.385 . S
Cd333 O334 2.317 . S
O334 Cd333 2.317 . S
O334 C335 1.232 . S
C335 O334 1.232 . S
C335 O336 1.218 . S
O336 C335 1.218 . S
C337 O330 1.275 . S
C337 O332 1.255 . S
C338 O339 1.258 . S
C338 O340 1.256 . S
O339 Cd331 2.381 . S
O339 C338 1.258 . S
O340 Cd331 2.378 . S
O340 C338 1.256 . S
O341 Cd342 2.300 . S
O341 C348 1.275 . S
Cd342 O341 2.300 . S
Cd342 O350 2.381 . S
Cd342 O351 2.378 . S
O343 Cd344 2.385 . S
O343 C348 1.255 . S
Cd344 O343 2.385 . S
Cd344 O345 2.317 . S
O345 Cd344 2.317 . S
O345 C346 1.232 . S
C346 O345 1.232 . S
C346 O347 1.218 . S
O347 C346 1.218 . S
C348 O341 1.275 . S
C348 O343 1.255 . S
C349 O350 1.258 . S
C349 O351 1.256 . S
O350 Cd342 2.381 . S
O350 C349 1.258 . S
O351 Cd342 2.378 . S
O351 C349 1.256 . S
O352 Cd353 2.300 . S
O352 C359 1.275 . S
Cd353 O352 2.300 . S
Cd353 O361 2.381 . S
Cd353 O362 2.378 . S
O354 Cd355 2.385 . S
O354 C359 1.255 . S
Cd355 O354 2.385 . S
Cd355 O356 2.317 . S
O356 Cd355 2.317 . S
O356 C357 1.232 . S
C357 O356 1.232 . S
C357 O358 1.218 . S
O358 C357 1.218 . S
C359 O352 1.275 . S
C359 O354 1.255 . S
C360 O361 1.258 . S
C360 O362 1.256 . S
O361 Cd353 2.381 . S
O361 C360 1.258 . S
O362 Cd353 2.378 . S
O362 C360 1.256 . S
O363 Cd364 2.343 . S
O363 C370 1.289 . S
Cd364 O363 2.343 . S
Cd364 O372 2.381 1_455 S
Cd364 O373 2.378 . S
O365 Cd366 2.385 . S
O365 C370 1.255 . S
Cd366 O365 2.385 . S
Cd366 O367 2.317 . S
O367 Cd366 2.317 . S
O367 C368 1.232 . S
C368 O367 1.232 . S
C368 O369 1.218 . S
O369 C368 1.218 . S
C370 O363 1.289 . S
C370 O365 1.255 . S
C371 O372 1.258 1_455 S
C371 O373 1.256 . S
O372 Cd364 2.381 1_655 S
O372 C371 1.258 1_655 S
O373 Cd364 2.378 . S
O373 C371 1.256 . S
O374 Cd375 2.300 . S
O374 C381 1.275 . S
Cd375 O374 2.300 . S
Cd375 O383 2.381 . S
Cd375 O384 2.378 . S
O376 Cd377 2.385 . S
O376 C381 1.255 . S
Cd377 O376 2.385 . S
Cd377 O378 2.317 . S
O378 Cd377 2.317 . S
O378 C379 1.232 . S
C379 O378 1.232 . S
C379 O380 1.218 . S
O380 C379 1.218 . S
C381 O374 1.275 . S
C381 O376 1.255 . S
C382 O383 1.258 . S
C382 O384 1.256 . S
O383 Cd375 2.381 . S
O383 C382 1.258 . S
O384 Cd375 2.378 . S
O384 C382 1.256 . S
O385 Cd386 2.335 . S
O385 C392 1.339 . S
Cd386 O385 2.335 . S
Cd386 O394 2.381 1_565 S
Cd386 O395 2.378 . S
O387 Cd388 2.385 . S
O387 C392 1.255 . S
Cd388 O387 2.385 . S
Cd388 O389 2.317 . S
O389 Cd388 2.317 . S
O389 C390 1.232 . S
C390 O389 1.232 . S
C390 O391 1.218 . S
O391 C390 1.218 . S
C392 O385 1.339 . S
C392 O387 1.255 . S
C393 O394 1.258 1_565 S
C393 O395 1.256 . S
O394 Cd386 2.381 1_545 S
O394 C393 1.258 1_545 S
O395 Cd386 2.378 . S
O395 C393 1.256 . S
H396 C414 0.951 . S
H397 C416 0.951 . S
H398 C418 0.950 . S
H399 C419 0.950 . S
H400 C421 0.950 . S
H401 C424 0.950 . S
H402 C425 0.950 . S
H403 C427 0.950 . S
H404 C428 0.950 . S
H405 C429 0.951 1_556 S
H406 C431 0.951 . S
H407 C433 0.950 . S
H408 C434 0.950 . S
H409 C436 0.950 . S
H410 C439 0.950 . S
H411 C440 0.950 . S
H412 C442 0.950 . S
H413 C443 0.950 . S
C414 H396 0.951 . S
C414 C415 1.366 . S
C414 C416 1.388 . S
C415 C414 1.366 . S
C415 C419 1.385 . S
C416 H397 0.951 . S
C416 C414 1.388 . S
C416 C417 1.366 . S
C417 C416 1.366 . S
C417 C418 1.414 . S
C417 C420 1.499 . S
C418 H398 0.950 . S
C418 C417 1.414 . S
C418 C419 1.374 . S
C419 H399 0.950 . S
C419 C415 1.385 . S
C419 C418 1.374 . S
C420 C417 1.499 . S
C420 C421 1.373 . S
C420 C422 1.389 . S
C421 H400 0.950 . S
C421 C420 1.373 . S
C421 C437 1.377 . S
C422 C420 1.389 . S
C422 C423 1.524 . S
C422 C436 1.377 . S
C423 C422 1.524 . S
C423 C424 1.397 . S
C423 C428 1.363 . S
C424 H401 0.950 . S
C424 C423 1.397 . S
C424 C425 1.334 . S
C425 H402 0.950 . S
C425 C424 1.334 . S
C425 C426 1.287 . S
C426 C425 1.287 . S
C426 C427 1.524 . S
C426 H445 0.913 . S
C427 H403 0.950 . S
C427 C426 1.524 . S
C427 C428 1.415 . S
C428 H404 0.950 . S
C428 C423 1.363 . S
C428 C427 1.415 . S
C429 H405 0.951 1_554 S
C429 C430 1.366 1_554 S
C429 C431 1.388 . S
C430 C429 1.366 1_556 S
C430 C434 1.385 . S
C431 H406 0.951 . S
C431 C429 1.388 . S
C431 C432 1.366 . S
C432 C431 1.366 . S
C432 C433 1.414 . S
C432 C435 1.499 . S
C433 H407 0.950 . S
C433 C432 1.414 . S
C433 C434 1.374 1_554 S
C434 H408 0.950 . S
C434 C430 1.385 . S
C434 C433 1.374 1_556 S
C435 C432 1.499 . S
C435 C436 1.373 . S
C435 C437 1.389 . S
C436 H409 0.950 . S
C436 C422 1.377 . S
C436 C435 1.373 . S
C437 C421 1.377 . S
C437 C435 1.389 . S
C437 C438 1.524 . S
C438 C437 1.524 . S
C438 C439 1.397 . S
C438 C443 1.363 . S
C439 H410 0.950 . S
C439 C438 1.397 . S
C439 C440 1.334 . S
C440 H411 0.950 . S
C440 C439 1.334 . S
C440 C441 1.287 . S
C441 C440 1.287 . S
C441 C442 1.524 . S
C441 H444 0.999 . S
C442 H412 0.950 . S
C442 C441 1.524 . S
C442 C443 1.415 . S
C443 H413 0.950 . S
C443 C438 1.363 . S
C443 C442 1.415 . S
H444 C441 0.999 . S
H445 C426 0.913 . S
H446 C464 0.951 . S
H447 C466 0.951 . S
H448 C468 0.950 . S
H449 C469 0.950 . S
H450 C471 0.950 . S
H451 C474 0.950 . S
H452 C475 0.950 . S
H453 C477 0.950 . S
H454 C478 0.950 . S
H455 C479 0.951 1_556 S
H456 C481 0.951 . S
H457 C483 0.950 . S
H458 C484 0.950 . S
H459 C486 0.950 . S
H460 C489 0.950 . S
H461 C490 0.950 . S
H462 C492 0.950 . S
H463 C493 0.950 . S
C464 H446 0.951 . S
C464 C465 1.366 . S
C464 C466 1.388 . S
C465 C464 1.366 . S
C465 C469 1.385 . S
C466 H447 0.951 . S
C466 C464 1.388 . S
C466 C467 1.366 . S
C467 C466 1.366 . S
C467 C468 1.414 . S
C467 C470 1.499 . S
C468 H448 0.950 . S
C468 C467 1.414 . S
C468 C469 1.374 . S
C469 H449 0.950 . S
C469 C465 1.385 . S
C469 C468 1.374 . S
C470 C467 1.499 . S
C470 C471 1.373 . S
C470 C472 1.389 . S
C471 H450 0.950 . S
C471 C470 1.373 . S
C471 C487 1.377 . S
C472 C470 1.389 . S
C472 C473 1.524 . S
C472 C486 1.377 . S
C473 C472 1.524 . S
C473 C474 1.397 . S
C473 C478 1.363 . S
C474 H451 0.950 . S
C474 C473 1.397 . S
C474 C475 1.334 . S
C475 H452 0.950 . S
C475 C474 1.334 . S
C475 C476 1.287 . S
C476 C475 1.287 . S
C476 C477 1.524 . S
C476 H495 0.913 . S
C477 H453 0.950 . S
C477 C476 1.524 . S
C477 C478 1.415 . S
C478 H454 0.950 . S
C478 C473 1.363 . S
C478 C477 1.415 . S
C479 H455 0.951 1_554 S
C479 C480 1.366 1_554 S
C479 C481 1.388 . S
C480 C479 1.366 1_556 S
C480 C484 1.385 . S
C481 H456 0.951 . S
C481 C479 1.388 . S
C481 C482 1.366 . S
C482 C481 1.366 . S
C482 C483 1.414 . S
C482 C485 1.499 . S
C483 H457 0.950 . S
C483 C482 1.414 . S
C483 C484 1.374 1_554 S
C484 H458 0.950 . S
C484 C480 1.385 . S
C484 C483 1.374 1_556 S
C485 C482 1.499 . S
C485 C486 1.373 . S
C485 C487 1.389 . S
C486 H459 0.950 . S
C486 C472 1.377 . S
C486 C485 1.373 . S
C487 C471 1.377 . S
C487 C485 1.389 . S
C487 C488 1.524 . S
C488 C487 1.524 . S
C488 C489 1.397 . S
C488 C493 1.363 . S
C489 H460 0.950 . S
C489 C488 1.397 . S
C489 C490 1.334 . S
C490 H461 0.950 . S
C490 C489 1.334 . S
C490 C491 1.287 . S
C491 C490 1.287 . S
C491 C492 1.524 . S
C491 H494 0.999 . S
C492 H462 0.950 . S
C492 C491 1.524 . S
C492 C493 1.415 . S
C493 H463 0.950 . S
C493 C488 1.363 . S
C493 C492 1.415 . S
H494 C491 0.999 . S
H495 C476 0.913 . S
H496 C514 0.951 . S
H497 C516 0.951 . S
H498 C518 0.950 . S
H499 C519 0.950 . S
H500 C521 0.950 . S
H501 C524 0.950 . S
H502 C525 0.950 . S
H503 C527 0.950 . S
H504 C528 0.950 . S
H505 C529 0.951 . S
H506 C531 0.951 . S
H507 C533 0.950 . S
H508 C534 0.950 1_556 S
H509 C536 0.950 . S
H510 C539 0.950 . S
H511 C540 0.950 . S
H512 C542 0.950 . S
H513 C543 0.950 . S
C514 H496 0.951 . S
C514 C515 1.366 . S
C514 C516 1.388 . S
C515 C514 1.366 . S
C515 C519 1.385 . S
C516 H497 0.951 . S
C516 C514 1.388 . S
C516 C517 1.366 . S
C517 C516 1.366 . S
C517 C518 1.414 . S
C517 C520 1.499 . S
C518 H498 0.950 . S
C518 C517 1.414 . S
C518 C519 1.374 . S
C519 H499 0.950 . S
C519 C515 1.385 . S
C519 C518 1.374 . S
C520 C517 1.499 . S
C520 C521 1.373 . S
C520 C522 1.389 . S
C521 H500 0.950 . S
C521 C520 1.373 . S
C521 C537 1.377 . S
C522 C520 1.389 . S
C522 C523 1.524 . S
C522 C536 1.377 . S
C523 C522 1.524 . S
C523 C524 1.397 . S
C523 C528 1.363 . S
C524 H501 0.950 . S
C524 C523 1.397 . S
C524 C525 1.334 . S
C525 H502 0.950 . S
C525 C524 1.334 . S
C525 C526 1.287 . S
C526 C525 1.287 . S
C526 C527 1.524 . S
C526 H545 0.913 . S
C527 H503 0.950 . S
C527 C526 1.524 . S
C527 C528 1.415 . S
C528 H504 0.950 . S
C528 C523 1.363 . S
C528 C527 1.415 . S
C529 H505 0.951 . S
C529 C530 1.366 . S
C529 C531 1.388 1_556 S
C530 C529 1.366 . S
C530 C534 1.385 1_556 S
C531 H506 0.951 . S
C531 C529 1.388 1_554 S
C531 C532 1.366 . S
C532 C531 1.366 . S
C532 C533 1.414 . S
C532 C535 1.499 . S
C533 H507 0.950 . S
C533 C532 1.414 . S
C533 C534 1.374 . S
C534 H508 0.950 1_554 S
C534 C530 1.385 1_554 S
C534 C533 1.374 . S
C535 C532 1.499 . S
C535 C536 1.373 . S
C535 C537 1.389 . S
C536 H509 0.950 . S
C536 C522 1.377 . S
C536 C535 1.373 . S
C537 C521 1.377 . S
C537 C535 1.389 . S
C537 C538 1.524 . S
C538 C537 1.524 . S
C538 C539 1.397 . S
C538 C543 1.363 . S
C539 H510 0.950 . S
C539 C538 1.397 . S
C539 C540 1.334 . S
C540 H511 0.950 . S
C540 C539 1.334 . S
C540 C541 1.287 . S
C541 C540 1.287 . S
C541 C542 1.524 . S
C541 H544 0.999 . S
C542 H512 0.950 . S
C542 C541 1.524 . S
C542 C543 1.415 . S
C543 H513 0.950 . S
C543 C538 1.363 . S
C543 C542 1.415 . S
H544 C541 0.999 . S
H545 C526 0.913 . S
H546 C564 0.951 . S
H547 C566 0.951 . S
H548 C568 0.950 . S
H549 C569 0.950 . S
H550 C571 0.950 . S
H551 C574 0.950 . S
H552 C575 0.950 . S
H553 C577 0.950 . S
H554 C578 0.950 . S
H555 C579 0.951 . S
H556 C581 0.951 . S
H557 C583 0.950 . S
H558 C584 0.950 . S
H559 C586 0.950 . S
H560 C589 0.950 . S
H561 C590 0.950 . S
H562 C592 0.950 . S
H563 C593 0.950 . S
C564 H546 0.951 . S
C564 C565 1.366 . S
C564 C566 1.388 . S
C565 C564 1.366 . S
C565 C569 1.385 . S
C566 H547 0.951 . S
C566 C564 1.388 . S
C566 C567 1.366 . S
C567 C566 1.366 . S
C567 C568 1.414 . S
C567 C570 1.499 . S
C568 H548 0.950 . S
C568 C567 1.414 . S
C568 C569 1.374 . S
C569 H549 0.950 . S
C569 C565 1.385 . S
C569 C568 1.374 . S
C570 C567 1.499 . S
C570 C571 1.373 . S
C570 C572 1.389 . S
C571 H550 0.950 . S
C571 C570 1.373 . S
C571 C587 1.377 . S
C572 C570 1.389 . S
C572 C573 1.524 . S
C572 C586 1.377 . S
C573 C572 1.524 . S
C573 C574 1.397 . S
C573 C578 1.363 . S
C574 H551 0.950 . S
C574 C573 1.397 . S
C574 C575 1.334 . S
C575 H552 0.950 . S
C575 C574 1.334 . S
C575 C576 1.287 . S
C576 C575 1.287 . S
C576 C577 1.524 . S
C576 H595 0.913 . S
C577 H553 0.950 . S
C577 C576 1.524 . S
C577 C578 1.415 . S
C578 H554 0.950 . S
C578 C573 1.363 . S
C578 C577 1.415 . S
C579 H555 0.951 . S
C579 C580 1.366 . S
C579 C581 1.388 . S
C580 C579 1.366 . S
C580 C584 1.385 . S
C581 H556 0.951 . S
C581 C579 1.388 . S
C581 C582 1.366 . S
C582 C581 1.366 . S
C582 C583 1.414 . S
C582 C585 1.499 . S
C583 H557 0.950 . S
C583 C582 1.414 . S
C583 C584 1.374 . S
C584 H558 0.950 . S
C584 C580 1.385 . S
C584 C583 1.374 . S
C585 C582 1.499 . S
C585 C586 1.373 . S
C585 C587 1.389 . S
C586 H559 0.950 . S
C586 C572 1.377 . S
C586 C585 1.373 . S
C587 C571 1.377 . S
C587 C585 1.389 . S
C587 C588 1.524 . S
C588 C587 1.524 . S
C588 C589 1.397 . S
C588 C593 1.363 . S
C589 H560 0.950 . S
C589 C588 1.397 . S
C589 C590 1.334 . S
C590 H561 0.950 . S
C590 C589 1.334 . S
C590 C591 1.287 . S
C591 C590 1.287 . S
C591 C592 1.524 . S
C591 H594 0.999 . S
C592 H562 0.950 . S
C592 C591 1.524 . S
C592 C593 1.415 . S
C593 H563 0.950 . S
C593 C588 1.363 . S
C593 C592 1.415 . S
H594 C591 0.999 . S
H595 C576 0.913 . S
H596 C614 0.951 . S
H597 C616 0.951 . S
H598 C618 0.950 . S
H599 C619 0.950 . S
H600 C621 0.950 . S
H601 C624 0.950 . S
H602 C625 0.950 . S
H603 C627 0.950 . S
H604 C628 0.950 . S
H605 C629 0.951 . S
H606 C631 0.951 . S
H607 C633 0.950 . S
H608 C634 0.950 . S
H609 C636 0.950 . S
H610 C639 0.950 . S
H611 C640 0.950 . S
H612 C642 0.950 . S
H613 C643 0.950 . S
C614 H596 0.951 . S
C614 C615 1.366 . S
C614 C616 1.388 . S
C615 C614 1.366 . S
C615 C619 1.385 . S
C616 H597 0.951 . S
C616 C614 1.388 . S
C616 C617 1.366 . S
C617 C616 1.366 . S
C617 C618 1.414 . S
C617 C620 1.499 . S
C618 H598 0.950 . S
C618 C617 1.414 . S
C618 C619 1.374 . S
C619 H599 0.950 . S
C619 C615 1.385 . S
C619 C618 1.374 . S
C620 C617 1.499 . S
C620 C621 1.373 . S
C620 C622 1.389 . S
C621 H600 0.950 . S
C621 C620 1.373 . S
C621 C637 1.377 . S
C622 C620 1.389 . S
C622 C623 1.524 . S
C622 C636 1.377 . S
C623 C622 1.524 . S
C623 C624 1.397 . S
C623 C628 1.363 . S
C624 H601 0.950 . S
C624 C623 1.397 . S
C624 C625 1.334 . S
C625 H602 0.950 . S
C625 C624 1.334 . S
C625 C626 1.287 . S
C626 C625 1.287 . S
C626 C627 1.524 . S
C626 H645 0.913 . S
C627 H603 0.950 . S
C627 C626 1.524 . S
C627 C628 1.415 . S
C628 H604 0.950 . S
C628 C623 1.363 . S
C628 C627 1.415 . S
C629 H605 0.951 . S
C629 C630 1.366 . S
C629 C631 1.388 . S
C630 C629 1.366 . S
C630 C634 1.385 . S
C631 H606 0.951 . S
C631 C629 1.388 . S
C631 C632 1.366 . S
C632 C631 1.366 . S
C632 C633 1.414 . S
C632 C635 1.499 . S
C633 H607 0.950 . S
C633 C632 1.414 . S
C633 C634 1.374 . S
C634 H608 0.950 . S
C634 C630 1.385 . S
C634 C633 1.374 . S
C635 C632 1.499 . S
C635 C636 1.373 . S
C635 C637 1.389 . S
C636 H609 0.950 . S
C636 C622 1.377 . S
C636 C635 1.373 . S
C637 C621 1.377 . S
C637 C635 1.389 . S
C637 C638 1.524 . S
C638 C637 1.524 . S
C638 C639 1.397 . S
C638 C643 1.363 . S
C639 H610 0.950 . S
C639 C638 1.397 . S
C639 C640 1.334 . S
C640 H611 0.950 . S
C640 C639 1.334 . S
C640 C641 1.287 . S
C641 C640 1.287 . S
C641 C642 1.524 . S
C641 H644 0.999 . S
C642 H612 0.950 . S
C642 C641 1.524 . S
C642 C643 1.415 . S
C643 H613 0.950 . S
C643 C638 1.363 . S
C643 C642 1.415 . S
H644 C641 0.999 . S
H645 C626 0.913 . S
H646 C664 0.951 . S
H647 C666 0.951 . S
H648 C668 0.950 . S
H649 C669 0.950 . S
H650 C671 0.950 . S
H651 C674 0.950 . S
H652 C675 0.950 . S
H653 C677 0.950 . S
H654 C678 0.950 . S
H655 C679 0.951 . S
H656 C681 0.951 . S
H657 C683 0.950 . S
H658 C684 0.950 . S
H659 C686 0.950 . S
H660 C689 0.950 . S
H661 C690 0.950 . S
H662 C692 0.950 . S
H663 C693 0.950 . S
C664 H646 0.951 . S
C664 C665 1.366 . S
C664 C666 1.388 . S
C665 C664 1.366 . S
C665 C669 1.385 . S
C666 H647 0.951 . S
C666 C664 1.388 . S
C666 C667 1.366 . S
C667 C666 1.366 . S
C667 C668 1.414 . S
C667 C670 1.499 . S
C668 H648 0.950 . S
C668 C667 1.414 . S
C668 C669 1.374 . S
C669 H649 0.950 . S
C669 C665 1.385 . S
C669 C668 1.374 . S
C670 C667 1.499 . S
C670 C671 1.373 . S
C670 C672 1.389 . S
C671 H650 0.950 . S
C671 C670 1.373 . S
C671 C687 1.377 . S
C672 C670 1.389 . S
C672 C673 1.524 . S
C672 C686 1.377 . S
C673 C672 1.524 . S
C673 C674 1.397 . S
C673 C678 1.363 . S
C674 H651 0.950 . S
C674 C673 1.397 . S
C674 C675 1.334 . S
C675 H652 0.950 . S
C675 C674 1.334 . S
C675 C676 1.287 . S
C676 C675 1.287 . S
C676 C677 1.524 . S
C676 H695 0.913 . S
C677 H653 0.950 . S
C677 C676 1.524 . S
C677 C678 1.415 . S
C678 H654 0.950 . S
C678 C673 1.363 . S
C678 C677 1.415 . S
C679 H655 0.951 . S
C679 C680 1.366 . S
C679 C681 1.388 . S
C680 C679 1.366 . S
C680 C684 1.385 . S
C681 H656 0.951 . S
C681 C679 1.388 . S
C681 C682 1.366 . S
C682 C681 1.366 . S
C682 C683 1.414 . S
C682 C685 1.499 . S
C683 H657 0.950 . S
C683 C682 1.414 . S
C683 C684 1.374 . S
C684 H658 0.950 . S
C684 C680 1.385 . S
C684 C683 1.374 . S
C685 C682 1.499 . S
C685 C686 1.373 . S
C685 C687 1.389 . S
C686 H659 0.950 . S
C686 C672 1.377 . S
C686 C685 1.373 . S
C687 C671 1.377 . S
C687 C685 1.389 . S
C687 C688 1.524 . S
C688 C687 1.524 . S
C688 C689 1.397 . S
C688 C693 1.363 . S
C689 H660 0.950 . S
C689 C688 1.397 . S
C689 C690 1.334 . S
C690 H661 0.950 . S
C690 C689 1.334 . S
C690 C691 1.287 . S
C691 C690 1.287 . S
C691 C692 1.524 . S
C691 H694 0.999 . S
C692 H662 0.950 . S
C692 C691 1.524 . S
C692 C693 1.415 . S
C693 H663 0.950 . S
C693 C688 1.363 . S
C693 C692 1.415 . S
H694 C691 0.999 . S
H695 C676 0.913 . S
H696 C714 0.951 . S
H697 C716 0.951 . S
H698 C718 0.950 . S
H699 C719 0.950 . S
H700 C721 0.950 . S
H701 C724 0.950 . S
H702 C725 0.950 . S
H703 C727 0.950 . S
H704 C728 0.950 . S
H705 C729 0.965 . S
H706 C731 0.951 . S
H707 C733 0.950 . S
H708 C734 0.926 1_554 S
H709 C736 0.950 . S
H710 C739 0.950 . S
H711 C740 0.950 . S
H712 C742 0.950 . S
H713 C743 0.950 . S
C714 H696 0.951 . S
C714 C715 1.366 . S
C714 C716 1.388 . S
C715 C714 1.366 . S
C715 C719 1.385 . S
C716 H697 0.951 . S
C716 C714 1.388 . S
C716 C717 1.366 . S
C717 C716 1.366 . S
C717 C718 1.414 . S
C717 C720 1.499 . S
C718 H698 0.950 . S
C718 C717 1.414 . S
C718 C719 1.374 . S
C719 H699 0.950 . S
C719 C715 1.385 . S
C719 C718 1.374 . S
C720 C717 1.499 . S
C720 C721 1.373 . S
C720 C722 1.389 . S
C721 H700 0.950 . S
C721 C720 1.373 . S
C721 C737 1.377 . S
C722 C720 1.389 . S
C722 C723 1.524 . S
C722 C736 1.377 . S
C723 C722 1.524 . S
C723 C724 1.397 . S
C723 C728 1.363 . S
C724 H701 0.950 . S
C724 C723 1.397 . S
C724 C725 1.334 . S
C725 H702 0.950 . S
C725 C724 1.334 . S
C725 C726 1.287 . S
C726 C725 1.287 . S
C726 C727 1.524 . S
C726 H745 0.913 . S
C727 H703 0.950 . S
C727 C726 1.524 . S
C727 C728 1.415 . S
C728 H704 0.950 . S
C728 C723 1.363 . S
C728 C727 1.415 . S
C729 H705 0.965 . S
C729 C730 1.378 . S
C729 C731 1.362 1_554 S
C730 C729 1.378 . S
C730 C734 1.357 1_554 S
C731 H706 0.951 . S
C731 C729 1.362 1_556 S
C731 C732 1.366 . S
C732 C731 1.366 . S
C732 C733 1.414 . S
C732 C735 1.499 . S
C733 H707 0.950 . S
C733 C732 1.414 . S
C733 C734 1.427 . S
C734 H708 0.926 1_556 S
C734 C730 1.357 1_556 S
C734 C733 1.427 . S
C735 C732 1.499 . S
C735 C736 1.373 . S
C735 C737 1.389 . S
C736 H709 0.950 . S
C736 C722 1.377 . S
C736 C735 1.373 . S
C737 C721 1.377 . S
C737 C735 1.389 . S
C737 C738 1.524 . S
C738 C737 1.524 . S
C738 C739 1.397 . S
C738 C743 1.363 . S
C739 H710 0.950 . S
C739 C738 1.397 . S
C739 C740 1.334 . S
C740 H711 0.950 . S
C740 C739 1.334 . S
C740 C741 1.287 . S
C741 C740 1.287 . S
C741 C742 1.524 . S
C741 H744 0.999 . S
C742 H712 0.950 . S
C742 C741 1.524 . S
C742 C743 1.415 . S
C743 H713 0.950 . S
C743 C738 1.363 . S
C743 C742 1.415 . S
H744 C741 0.999 . S
H745 C726 0.913 . S
H746 C764 0.951 . S
H747 C766 0.951 . S
H748 C768 0.950 . S
H749 C769 0.950 . S
H750 C771 0.950 . S
H751 C774 0.950 . S
H752 C775 0.950 . S
H753 C777 0.950 . S
H754 C778 0.950 . S
H755 C779 0.951 1_554 S
H756 C781 0.951 . S
H757 C783 0.950 . S
H758 C784 0.950 . S
H759 C786 0.950 . S
H760 C789 0.950 . S
H761 C790 0.950 . S
H762 C792 0.950 . S
H763 C793 0.950 . S
C764 H746 0.951 . S
C764 C765 1.366 . S
C764 C766 1.388 . S
C765 C764 1.366 . S
C765 C769 1.385 . S
C766 H747 0.951 . S
C766 C764 1.388 . S
C766 C767 1.366 . S
C767 C766 1.366 . S
C767 C768 1.414 . S
C767 C770 1.499 . S
C768 H748 0.950 . S
C768 C767 1.414 . S
C768 C769 1.374 . S
C769 H749 0.950 . S
C769 C765 1.385 . S
C769 C768 1.374 . S
C770 C767 1.499 . S
C770 C771 1.373 . S
C770 C772 1.389 . S
C771 H750 0.950 . S
C771 C770 1.373 . S
C771 C787 1.377 . S
C772 C770 1.389 . S
C772 C773 1.524 . S
C772 C786 1.377 . S
C773 C772 1.524 . S
C773 C774 1.397 . S
C773 C778 1.363 . S
C774 H751 0.950 . S
C774 C773 1.397 . S
C774 C775 1.334 . S
C775 H752 0.950 . S
C775 C774 1.334 . S
C775 C776 1.287 . S
C776 C775 1.287 . S
C776 C777 1.524 . S
C776 H795 0.913 . S
C777 H753 0.950 . S
C777 C776 1.524 . S
C777 C778 1.415 . S
C778 H754 0.950 . S
C778 C773 1.363 . S
C778 C777 1.415 . S
C779 H755 0.951 1_556 S
C779 C780 1.366 1_556 S
C779 C781 1.388 . S
C780 C779 1.366 1_554 S
C780 C784 1.385 . S
C781 H756 0.951 . S
C781 C779 1.388 . S
C781 C782 1.366 . S
C782 C781 1.366 . S
C782 C783 1.414 . S
C782 C785 1.499 . S
C783 H757 0.950 . S
C783 C782 1.414 . S
C783 C784 1.374 1_556 S
C784 H758 0.950 . S
C784 C780 1.385 . S
C784 C783 1.374 1_554 S
C785 C782 1.499 . S
C785 C786 1.373 . S
C785 C787 1.389 . S
C786 H759 0.950 . S
C786 C772 1.377 . S
C786 C785 1.373 . S
C787 C771 1.377 . S
C787 C785 1.389 . S
C787 C788 1.524 . S
C788 C787 1.524 . S
C788 C789 1.397 . S
C788 C793 1.363 . S
C789 H760 0.950 . S
C789 C788 1.397 . S
C789 C790 1.334 . S
C790 H761 0.950 . S
C790 C789 1.334 . S
C790 C791 1.287 . S
C791 C790 1.287 . S
C791 C792 1.524 . S
C791 H794 0.999 . S
C792 H762 0.950 . S
C792 C791 1.524 . S
C792 C793 1.415 . S
C793 H763 0.950 . S
C793 C788 1.363 . S
C793 C792 1.415 . S
H794 C791 0.999 . S
H795 C776 0.913 . S
H796 C814 0.951 . S
H797 C816 0.951 . S
H798 C818 0.950 . S
H799 C819 0.950 . S
H800 C821 0.950 . S
H801 C824 0.950 . S
H802 C825 0.950 . S
H803 C827 0.950 . S
H804 C828 0.950 . S
H805 C829 0.951 . S
H806 C831 0.951 . S
H807 C833 0.950 . S
H808 C834 0.950 1_554 S
H809 C836 0.950 . S
H810 C839 0.950 . S
H811 C840 0.950 . S
H812 C842 0.950 . S
H813 C843 0.950 . S
C814 H796 0.951 . S
C814 C815 1.366 . S
C814 C816 1.388 . S
C815 C814 1.366 . S
C815 C819 1.385 . S
C816 H797 0.951 . S
C816 C814 1.388 . S
C816 C817 1.366 . S
C817 C816 1.366 . S
C817 C818 1.414 . S
C817 C820 1.499 . S
C818 H798 0.950 . S
C818 C817 1.414 . S
C818 C819 1.374 . S
C819 H799 0.950 . S
C819 C815 1.385 . S
C819 C818 1.374 . S
C820 C817 1.499 . S
C820 C821 1.373 . S
C820 C822 1.389 . S
C821 H800 0.950 . S
C821 C820 1.373 . S
C821 C837 1.377 . S
C822 C820 1.389 . S
C822 C823 1.524 . S
C822 C836 1.377 . S
C823 C822 1.524 . S
C823 C824 1.397 . S
C823 C828 1.363 . S
C824 H801 0.950 . S
C824 C823 1.397 . S
C824 C825 1.334 . S
C825 H802 0.950 . S
C825 C824 1.334 . S
C825 C826 1.287 . S
C826 C825 1.287 . S
C826 C827 1.524 . S
C826 H845 0.913 . S
C827 H803 0.950 . S
C827 C826 1.524 . S
C827 C828 1.415 . S
C828 H804 0.950 . S
C828 C823 1.363 . S
C828 C827 1.415 . S
C829 H805 0.951 . S
C829 C830 1.366 . S
C829 C831 1.388 1_554 S
C830 C829 1.366 . S
C830 C834 1.385 1_554 S
C831 H806 0.951 . S
C831 C829 1.388 1_556 S
C831 C832 1.366 . S
C832 C831 1.366 . S
C832 C833 1.414 . S
C832 C835 1.499 . S
C833 H807 0.950 . S
C833 C832 1.414 . S
C833 C834 1.374 . S
C834 H808 0.950 1_556 S
C834 C830 1.385 1_556 S
C834 C833 1.374 . S
C835 C832 1.499 . S
C835 C836 1.373 . S
C835 C837 1.389 . S
C836 H809 0.950 . S
C836 C822 1.377 . S
C836 C835 1.373 . S
C837 C821 1.377 . S
C837 C835 1.389 . S
C837 C838 1.524 . S
C838 C837 1.524 . S
C838 C839 1.397 . S
C838 C843 1.363 . S
C839 H810 0.950 . S
C839 C838 1.397 . S
C839 C840 1.334 . S
C840 H811 0.950 . S
C840 C839 1.334 . S
C840 C841 1.287 . S
C841 C840 1.287 . S
C841 C842 1.524 . S
C841 H844 0.999 . S
C842 H812 0.950 . S
C842 C841 1.524 . S
C842 C843 1.415 . S
C843 H813 0.950 . S
C843 C838 1.363 . S
C843 C842 1.415 . S
H844 C841 0.999 . S
H845 C826 0.913 . S
H846 C864 0.951 . S
H847 C866 0.951 . S
H848 C868 0.950 . S
H849 C869 0.950 . S
H850 C871 0.950 . S
H851 C874 0.950 . S
H852 C875 0.950 . S
H853 C877 0.950 . S
H854 C878 0.950 . S
H855 C879 0.951 . S
H856 C881 0.951 . S
H857 C883 0.950 . S
H858 C884 0.950 . S
H859 C886 0.950 . S
H860 C889 0.950 . S
H861 C890 0.950 . S
H862 C892 0.950 . S
H863 C893 0.950 . S
C864 H846 0.951 . S
C864 C865 1.366 . S
C864 C866 1.388 . S
C865 C864 1.366 . S
C865 C869 1.385 . S
C866 H847 0.951 . S
C866 C864 1.388 . S
C866 C867 1.366 . S
C867 C866 1.366 . S
C867 C868 1.414 . S
C867 C870 1.499 . S
C868 H848 0.950 . S
C868 C867 1.414 . S
C868 C869 1.374 . S
C869 H849 0.950 . S
C869 C865 1.385 . S
C869 C868 1.374 . S
C870 C867 1.499 . S
C870 C871 1.373 . S
C870 C872 1.389 . S
C871 H850 0.950 . S
C871 C870 1.373 . S
C871 C887 1.377 . S
C872 C870 1.389 . S
C872 C873 1.524 . S
C872 C886 1.377 . S
C873 C872 1.524 . S
C873 C874 1.397 . S
C873 C878 1.363 . S
C874 H851 0.950 . S
C874 C873 1.397 . S
C874 C875 1.334 . S
C875 H852 0.950 . S
C875 C874 1.334 . S
C875 C876 1.287 . S
C876 C875 1.287 . S
C876 C877 1.524 . S
C876 H895 0.913 . S
C877 H853 0.950 . S
C877 C876 1.524 . S
C877 C878 1.415 . S
C878 H854 0.950 . S
C878 C873 1.363 . S
C878 C877 1.415 . S
C879 H855 0.951 . S
C879 C880 1.366 . S
C879 C881 1.388 . S
C880 C879 1.366 . S
C880 C884 1.385 . S
C881 H856 0.951 . S
C881 C879 1.388 . S
C881 C882 1.366 . S
C882 C881 1.366 . S
C882 C883 1.414 . S
C882 C885 1.499 . S
C883 H857 0.950 . S
C883 C882 1.414 . S
C883 C884 1.374 . S
C884 H858 0.950 . S
C884 C880 1.385 . S
C884 C883 1.374 . S
C885 C882 1.499 . S
C885 C886 1.373 . S
C885 C887 1.389 . S
C886 H859 0.950 . S
C886 C872 1.377 . S
C886 C885 1.373 . S
C887 C871 1.377 . S
C887 C885 1.389 . S
C887 C888 1.524 . S
C888 C887 1.524 . S
C888 C889 1.397 . S
C888 C893 1.363 . S
C889 H860 0.950 . S
C889 C888 1.397 . S
C889 C890 1.334 . S
C890 H861 0.950 . S
C890 C889 1.334 . S
C890 C891 1.287 . S
C891 C890 1.287 . S
C891 C892 1.524 . S
C891 H894 0.999 . S
C892 H862 0.950 . S
C892 C891 1.524 . S
C892 C893 1.415 . S
C893 H863 0.950 . S
C893 C888 1.363 . S
C893 C892 1.415 . S
H894 C891 0.999 . S
H895 C876 0.913 . S
H896 C914 0.951 . S
H897 C916 0.951 . S
H898 C918 0.950 . S
H899 C919 0.950 . S
H900 C921 0.950 . S
H901 C924 0.950 . S
H902 C925 0.950 . S
H903 C927 0.950 . S
H904 C928 0.950 . S
H905 C929 0.951 . S
H906 C931 0.951 . S
H907 C933 0.950 . S
H908 C934 0.950 . S
H909 C936 0.950 . S
H910 C939 0.950 . S
H911 C940 0.950 . S
H912 C942 0.950 . S
H913 C943 0.950 . S
C914 H896 0.951 . S
C914 C915 1.366 . S
C914 C916 1.388 . S
C915 C914 1.366 . S
C915 C919 1.385 . S
C916 H897 0.951 . S
C916 C914 1.388 . S
C916 C917 1.366 . S
C917 C916 1.366 . S
C917 C918 1.414 . S
C917 C920 1.499 . S
C918 H898 0.950 . S
C918 C917 1.414 . S
C918 C919 1.374 . S
C919 H899 0.950 . S
C919 C915 1.385 . S
C919 C918 1.374 . S
C920 C917 1.499 . S
C920 C921 1.373 . S
C920 C922 1.389 . S
C921 H900 0.950 . S
C921 C920 1.373 . S
C921 C937 1.377 . S
C922 C920 1.389 . S
C922 C923 1.524 . S
C922 C936 1.377 . S
C923 C922 1.524 . S
C923 C924 1.397 . S
C923 C928 1.363 . S
C924 H901 0.950 . S
C924 C923 1.397 . S
C924 C925 1.334 . S
C925 H902 0.950 . S
C925 C924 1.334 . S
C925 C926 1.287 . S
C926 C925 1.287 . S
C926 C927 1.524 . S
C926 H945 0.913 . S
C927 H903 0.950 . S
C927 C926 1.524 . S
C927 C928 1.415 . S
C928 H904 0.950 . S
C928 C923 1.363 . S
C928 C927 1.415 . S
C929 H905 0.951 . S
C929 C930 1.366 . S
C929 C931 1.388 . S
C930 C929 1.366 . S
C930 C934 1.385 . S
C931 H906 0.951 . S
C931 C929 1.388 . S
C931 C932 1.366 . S
C932 C931 1.366 . S
C932 C933 1.414 . S
C932 C935 1.499 . S
C933 H907 0.950 . S
C933 C932 1.414 . S
C933 C934 1.374 . S
C934 H908 0.950 . S
C934 C930 1.385 . S
C934 C933 1.374 . S
C935 C932 1.499 . S
C935 C936 1.373 . S
C935 C937 1.389 . S
C936 H909 0.950 . S
C936 C922 1.377 . S
C936 C935 1.373 . S
C937 C921 1.377 . S
C937 C935 1.389 . S
C937 C938 1.524 . S
C938 C937 1.524 . S
C938 C939 1.397 . S
C938 C943 1.363 . S
C939 H910 0.950 . S
C939 C938 1.397 . S
C939 C940 1.334 . S
C940 H911 0.950 . S
C940 C939 1.334 . S
C940 C941 1.287 . S
C941 C940 1.287 . S
C941 C942 1.524 . S
C941 H944 0.999 . S
C942 H912 0.950 . S
C942 C941 1.524 . S
C942 C943 1.415 . S
C943 H913 0.950 . S
C943 C938 1.363 . S
C943 C942 1.415 . S
H944 C941 0.999 . S
H945 C926 0.913 . S
H946 C964 0.951 . S
H947 C966 0.951 . S
H948 C968 0.950 . S
H949 C969 0.950 . S
H950 C971 0.950 . S
H951 C974 0.950 . S
H952 C975 0.950 . S
H953 C977 0.950 . S
H954 C978 0.950 . S
H955 C979 0.951 . S
H956 C981 0.951 . S
H957 C983 0.950 . S
H958 C984 0.950 . S
H959 C986 0.950 . S
H960 C989 0.950 . S
H961 C990 0.950 . S
H962 C992 0.950 . S
H963 C993 0.950 . S
C964 H946 0.951 . S
C964 C965 1.366 . S
C964 C966 1.388 . S
C965 C964 1.366 . S
C965 C969 1.385 . S
C966 H947 0.951 . S
C966 C964 1.388 . S
C966 C967 1.366 . S
C967 C966 1.366 . S
C967 C968 1.414 . S
C967 C970 1.499 . S
C968 H948 0.950 . S
C968 C967 1.414 . S
C968 C969 1.374 . S
C969 H949 0.950 . S
C969 C965 1.385 . S
C969 C968 1.374 . S
C970 C967 1.499 . S
C970 C971 1.373 . S
C970 C972 1.389 . S
C971 H950 0.950 . S
C971 C970 1.373 . S
C971 C987 1.377 . S
C972 C970 1.389 . S
C972 C973 1.524 . S
C972 C986 1.377 . S
C973 C972 1.524 . S
C973 C974 1.397 . S
C973 C978 1.363 . S
C974 H951 0.950 . S
C974 C973 1.397 . S
C974 C975 1.334 . S
C975 H952 0.950 . S
C975 C974 1.334 . S
C975 C976 1.287 . S
C976 C975 1.287 . S
C976 C977 1.524 . S
C976 H995 0.913 . S
C977 H953 0.950 . S
C977 C976 1.524 . S
C977 C978 1.415 . S
C978 H954 0.950 . S
C978 C973 1.363 . S
C978 C977 1.415 . S
C979 H955 0.951 . S
C979 C980 1.366 . S
C979 C981 1.388 . S
C980 C979 1.366 . S
C980 C984 1.385 . S
C981 H956 0.951 . S
C981 C979 1.388 . S
C981 C982 1.366 . S
C982 C981 1.366 . S
C982 C983 1.414 . S
C982 C985 1.499 . S
C983 H957 0.950 . S
C983 C982 1.414 . S
C983 C984 1.374 . S
C984 H958 0.950 . S
C984 C980 1.385 . S
C984 C983 1.374 . S
C985 C982 1.499 . S
C985 C986 1.373 . S
C985 C987 1.389 . S
C986 H959 0.950 . S
C986 C972 1.377 . S
C986 C985 1.373 . S
C987 C971 1.377 . S
C987 C985 1.389 . S
C987 C988 1.524 . S
C988 C987 1.524 . S
C988 C989 1.397 . S
C988 C993 1.363 . S
C989 H960 0.950 . S
C989 C988 1.397 . S
C989 C990 1.334 . S
C990 H961 0.950 . S
C990 C989 1.334 . S
C990 C991 1.287 . S
C991 C990 1.287 . S
C991 C992 1.524 . S
C991 H994 0.999 . S
C992 H962 0.950 . S
C992 C991 1.524 . S
C992 C993 1.415 . S
C993 H963 0.950 . S
C993 C988 1.363 . S
C993 C992 1.415 . S
H994 C991 0.999 . S
H995 C976 0.913 . S
H996 C1014 0.963 1_455 S
H997 C1016 0.941 . S
H998 C1018 0.950 . S
H999 C1019 0.950 . S
H1000 C1021 0.950 . S
H1001 C1024 0.950 . S
H1002 C1025 0.950 . S
H1003 C1027 0.950 . S
H1004 C1028 0.950 . S
H1005 C1029 0.960 1_655 S
H1006 C1031 0.940 . S
H1007 C1033 0.950 . S
H1008 C1034 0.950 . S
H1009 C1036 0.950 . S
H1010 C1039 0.950 . S
H1011 C1040 0.950 . S
H1012 C1042 0.950 . S
H1013 C1043 0.950 . S
C1014 H996 0.963 1_655 S
C1014 C1015 1.360 . S
C1014 C1016 1.382 1_655 S
C1015 C1014 1.360 . S
C1015 C1019 1.385 . S
C1016 H997 0.941 . S
C1016 C1014 1.382 1_455 S
C1016 C1017 1.391 1_455 S
C1017 C1016 1.391 1_655 S
C1017 C1018 1.414 . S
C1017 C1020 1.504 . S
C1018 H998 0.950 . S
C1018 C1017 1.414 . S
C1018 C1019 1.374 . S
C1019 H999 0.950 . S
C1019 C1015 1.385 . S
C1019 C1018 1.374 . S
C1020 C1017 1.504 . S
C1020 C1021 1.401 . S
C1020 C1022 1.363 1_655 S
C1021 H1000 0.950 . S
C1021 C1020 1.401 . S
C1021 C1037 1.377 . S
C1022 C1020 1.363 1_455 S
C1022 C1023 1.524 . S
C1022 C1036 1.377 . S
C1023 C1022 1.524 . S
C1023 C1024 1.397 . S
C1023 C1028 1.363 . S
C1024 H1001 0.950 . S
C1024 C1023 1.397 . S
C1024 C1025 1.334 . S
C1025 H1002 0.950 . S
C1025 C1024 1.334 . S
C1025 C1026 1.287 . S
C1026 C1025 1.287 . S
C1026 C1027 1.524 . S
C1026 H1045 0.913 . S
C1027 H1003 0.950 . S
C1027 C1026 1.524 . S
C1027 C1028 1.415 . S
C1028 H1004 0.950 . S
C1028 C1023 1.363 . S
C1028 C1027 1.415 . S
C1029 H1005 0.960 1_455 S
C1029 C1030 1.361 . S
C1029 C1031 1.382 1_455 S
C1030 C1029 1.361 . S
C1030 C1034 1.385 . S
C1031 H1006 0.940 . S
C1031 C1029 1.382 1_655 S
C1031 C1032 1.394 1_655 S
C1032 C1031 1.394 1_455 S
C1032 C1033 1.414 . S
C1032 C1035 1.503 . S
C1033 H1007 0.950 . S
C1033 C1032 1.414 . S
C1033 C1034 1.374 . S
C1034 H1008 0.950 . S
C1034 C1030 1.385 . S
C1034 C1033 1.374 . S
C1035 C1032 1.503 . S
C1035 C1036 1.395 . S
C1035 C1037 1.369 1_455 S
C1036 H1009 0.950 . S
C1036 C1022 1.377 . S
C1036 C1035 1.395 . S
C1037 C1021 1.377 . S
C1037 C1035 1.369 1_655 S
C1037 C1038 1.524 . S
C1038 C1037 1.524 . S
C1038 C1039 1.397 . S
C1038 C1043 1.363 . S
C1039 H1010 0.950 . S
C1039 C1038 1.397 . S
C1039 C1040 1.334 . S
C1040 H1011 0.950 . S
C1040 C1039 1.334 . S
C1040 C1041 1.287 . S
C1041 C1040 1.287 . S
C1041 C1042 1.524 . S
C1041 H1044 0.999 . S
C1042 H1012 0.950 . S
C1042 C1041 1.524 . S
C1042 C1043 1.415 . S
C1043 H1013 0.950 . S
C1043 C1038 1.363 . S
C1043 C1042 1.415 . S
H1044 C1041 0.999 . S
H1045 C1026 0.913 . S
H1046 C1064 0.951 . S
H1047 C1066 0.951 . S
H1048 C1068 0.950 . S
H1049 C1069 0.950 . S
H1050 C1071 0.950 . S
H1051 C1074 0.950 . S
H1052 C1075 0.950 . S
H1053 C1077 0.950 . S
H1054 C1078 0.950 . S
H1055 C1079 0.951 . S
H1056 C1081 0.951 . S
H1057 C1083 0.950 . S
H1058 C1084 0.950 . S
H1059 C1086 0.950 . S
H1060 C1089 0.950 . S
H1061 C1090 0.950 . S
H1062 C1092 0.950 . S
H1063 C1093 0.950 . S
C1064 H1046 0.951 . S
C1064 C1065 1.366 . S
C1064 C1066 1.388 . S
C1065 C1064 1.366 . S
C1065 C1069 1.385 . S
C1066 H1047 0.951 . S
C1066 C1064 1.388 . S
C1066 C1067 1.366 . S
C1067 C1066 1.366 . S
C1067 C1068 1.414 . S
C1067 C1070 1.499 . S
C1068 H1048 0.950 . S
C1068 C1067 1.414 . S
C1068 C1069 1.374 . S
C1069 H1049 0.950 . S
C1069 C1065 1.385 . S
C1069 C1068 1.374 . S
C1070 C1067 1.499 . S
C1070 C1071 1.373 . S
C1070 C1072 1.389 . S
C1071 H1050 0.950 . S
C1071 C1070 1.373 . S
C1071 C1087 1.377 . S
C1072 C1070 1.389 . S
C1072 C1073 1.524 . S
C1072 C1086 1.377 . S
C1073 C1072 1.524 . S
C1073 C1074 1.397 . S
C1073 C1078 1.363 . S
C1074 H1051 0.950 . S
C1074 C1073 1.397 . S
C1074 C1075 1.334 . S
C1075 H1052 0.950 . S
C1075 C1074 1.334 . S
C1075 C1076 1.287 . S
C1076 C1075 1.287 . S
C1076 C1077 1.524 . S
C1076 H1095 0.913 . S
C1077 H1053 0.950 . S
C1077 C1076 1.524 . S
C1077 C1078 1.415 . S
C1078 H1054 0.950 . S
C1078 C1073 1.363 . S
C1078 C1077 1.415 . S
C1079 H1055 0.951 . S
C1079 C1080 1.366 . S
C1079 C1081 1.388 . S
C1080 C1079 1.366 . S
C1080 C1084 1.385 . S
C1081 H1056 0.951 . S
C1081 C1079 1.388 . S
C1081 C1082 1.366 . S
C1082 C1081 1.366 . S
C1082 C1083 1.414 . S
C1082 C1085 1.499 . S
C1083 H1057 0.950 . S
C1083 C1082 1.414 . S
C1083 C1084 1.374 . S
C1084 H1058 0.950 . S
C1084 C1080 1.385 . S
C1084 C1083 1.374 . S
C1085 C1082 1.499 . S
C1085 C1086 1.373 . S
C1085 C1087 1.389 . S
C1086 H1059 0.950 . S
C1086 C1072 1.377 . S
C1086 C1085 1.373 . S
C1087 C1071 1.377 . S
C1087 C1085 1.389 . S
C1087 C1088 1.524 . S
C1088 C1087 1.524 . S
C1088 C1089 1.397 . S
C1088 C1093 1.363 . S
C1089 H1060 0.950 . S
C1089 C1088 1.397 . S
C1089 C1090 1.334 . S
C1090 H1061 0.950 . S
C1090 C1089 1.334 . S
C1090 C1091 1.287 . S
C1091 C1090 1.287 . S
C1091 C1092 1.524 . S
C1091 H1094 0.999 . S
C1092 H1062 0.950 . S
C1092 C1091 1.524 . S
C1092 C1093 1.415 . S
C1093 H1063 0.950 . S
C1093 C1088 1.363 . S
C1093 C1092 1.415 . S
H1094 C1091 0.999 . S
H1095 C1076 0.913 . S
H1096 C1114 0.951 . S
H1097 C1116 0.951 . S
H1098 C1118 0.950 . S
H1099 C1119 0.950 . S
H1100 C1121 0.950 . S
H1101 C1124 0.950 . S
H1102 C1125 0.950 . S
H1103 C1127 0.950 . S
H1104 C1128 0.950 . S
H1105 C1129 0.951 . S
H1106 C1131 0.951 . S
H1107 C1133 0.950 . S
H1108 C1134 0.950 . S
H1109 C1136 0.950 . S
H1110 C1139 0.950 . S
H1111 C1140 0.950 . S
H1112 C1142 0.950 . S
H1113 C1143 0.950 . S
C1114 H1096 0.951 . S
C1114 C1115 1.366 . S
C1114 C1116 1.388 . S
C1115 C1114 1.366 . S
C1115 C1119 1.385 . S
C1116 H1097 0.951 . S
C1116 C1114 1.388 . S
C1116 C1117 1.366 . S
C1117 C1116 1.366 . S
C1117 C1118 1.414 . S
C1117 C1120 1.499 . S
C1118 H1098 0.950 . S
C1118 C1117 1.414 . S
C1118 C1119 1.374 . S
C1119 H1099 0.950 . S
C1119 C1115 1.385 . S
C1119 C1118 1.374 . S
C1120 C1117 1.499 . S
C1120 C1121 1.373 1_545 S
C1120 C1122 1.389 . S
C1121 H1100 0.950 . S
C1121 C1120 1.373 1_565 S
C1121 C1137 1.377 . S
C1122 C1120 1.389 . S
C1122 C1123 1.524 . S
C1122 C1136 1.377 . S
C1123 C1122 1.524 . S
C1123 C1124 1.397 . S
C1123 C1128 1.363 . S
C1124 H1101 0.950 . S
C1124 C1123 1.397 . S
C1124 C1125 1.334 . S
C1125 H1102 0.950 . S
C1125 C1124 1.334 . S
C1125 C1126 1.287 . S
C1126 C1125 1.287 . S
C1126 C1127 1.524 . S
C1126 H1145 0.913 . S
C1127 H1103 0.950 . S
C1127 C1126 1.524 . S
C1127 C1128 1.415 . S
C1128 H1104 0.950 . S
C1128 C1123 1.363 . S
C1128 C1127 1.415 . S
C1129 H1105 0.951 . S
C1129 C1130 1.366 . S
C1129 C1131 1.388 . S
C1130 C1129 1.366 . S
C1130 C1134 1.385 . S
C1131 H1106 0.951 . S
C1131 C1129 1.388 . S
C1131 C1132 1.366 . S
C1132 C1131 1.366 . S
C1132 C1133 1.414 . S
C1132 C1135 1.499 . S
C1133 H1107 0.950 . S
C1133 C1132 1.414 . S
C1133 C1134 1.374 . S
C1134 H1108 0.950 . S
C1134 C1130 1.385 . S
C1134 C1133 1.374 . S
C1135 C1132 1.499 . S
C1135 C1136 1.373 1_565 S
C1135 C1137 1.389 . S
C1136 H1109 0.950 . S
C1136 C1122 1.377 . S
C1136 C1135 1.373 1_545 S
C1137 C1121 1.377 . S
C1137 C1135 1.389 . S
C1137 C1138 1.524 . S
C1138 C1137 1.524 . S
C1138 C1139 1.397 . S
C1138 C1143 1.363 . S
C1139 H1110 0.950 . S
C1139 C1138 1.397 . S
C1139 C1140 1.334 . S
C1140 H1111 0.950 . S
C1140 C1139 1.334 . S
C1140 C1141 1.287 . S
C1141 C1140 1.287 . S
C1141 C1142 1.524 . S
C1141 H1144 0.999 . S
C1142 H1112 0.950 . S
C1142 C1141 1.524 . S
C1142 C1143 1.415 . S
C1143 H1113 0.950 . S
C1143 C1138 1.363 . S
C1143 C1142 1.415 . S
H1144 C1141 0.999 . S
H1145 C1126 0.913 . S
H1146 C1164 0.951 . S
H1147 C1166 0.951 . S
H1148 C1168 0.950 . S
H1149 C1169 0.950 . S
H1150 C1171 0.942 . S
H1151 C1174 0.950 . S
H1152 C1175 0.950 . S
H1153 C1177 0.950 . S
H1154 C1178 0.950 . S
H1155 C1179 0.951 . S
H1156 C1181 0.951 . S
H1157 C1183 0.950 . S
H1158 C1184 0.950 . S
H1159 C1186 0.942 . S
H1160 C1189 0.950 . S
H1161 C1190 0.950 . S
H1162 C1192 0.950 . S
H1163 C1193 0.950 . S
C1164 H1146 0.951 . S
C1164 C1165 1.366 . S
C1164 C1166 1.388 . S
C1165 C1164 1.366 . S
C1165 C1169 1.385 1_565 S
C1166 H1147 0.951 . S
C1166 C1164 1.388 . S
C1166 C1167 1.366 . S
C1167 C1166 1.366 . S
C1167 C1168 1.414 1_565 S
C1167 C1170 1.502 . S
C1168 H1148 0.950 . S
C1168 C1167 1.414 1_545 S
C1168 C1169 1.374 . S
C1169 H1149 0.950 . S
C1169 C1165 1.385 1_545 S
C1169 C1168 1.374 . S
C1170 C1167 1.502 . S
C1170 C1171 1.362 1_565 S
C1170 C1172 1.387 . S
C1171 H1150 0.942 . S
C1171 C1170 1.362 1_545 S
C1171 C1187 1.376 . S
C1172 C1170 1.387 . S
C1172 C1173 1.546 1_565 S
C1172 C1186 1.376 . S
C1173 C1172 1.546 1_545 S
C1173 C1174 1.404 . S
C1173 C1178 1.351 1_545 S
C1174 H1151 0.950 . S
C1174 C1173 1.404 . S
C1174 C1175 1.334 . S
C1175 H1152 0.950 . S
C1175 C1174 1.334 . S
C1175 C1176 1.287 . S
C1176 C1175 1.287 . S
C1176 C1177 1.524 1_545 S
C1176 H1195 0.913 . S
C1177 H1153 0.950 . S
C1177 C1176 1.524 1_565 S
C1177 C1178 1.415 . S
C1178 H1154 0.950 . S
C1178 C1173 1.351 1_565 S
C1178 C1177 1.415 . S
C1179 H1155 0.951 . S
C1179 C1180 1.366 . S
C1179 C1181 1.388 . S
C1180 C1179 1.366 . S
C1180 C1184 1.385 1_545 S
C1181 H1156 0.951 . S
C1181 C1179 1.388 . S
C1181 C1182 1.366 . S
C1182 C1181 1.366 . S
C1182 C1183 1.414 1_545 S
C1182 C1185 1.500 . S
C1183 H1157 0.950 . S
C1183 C1182 1.414 1_565 S
C1183 C1184 1.374 . S
C1184 H1158 0.950 . S
C1184 C1180 1.385 1_565 S
C1184 C1183 1.374 . S
C1185 C1182 1.500 . S
C1185 C1186 1.362 1_545 S
C1185 C1187 1.387 . S
C1186 H1159 0.942 . S
C1186 C1172 1.376 . S
C1186 C1185 1.362 1_565 S
C1187 C1171 1.376 . S
C1187 C1185 1.387 . S
C1187 C1188 1.546 1_545 S
C1188 C1187 1.546 1_565 S
C1188 C1189 1.417 . S
C1188 C1193 1.332 1_565 S
C1189 H1160 0.950 . S
C1189 C1188 1.417 . S
C1189 C1190 1.334 . S
C1190 H1161 0.950 . S
C1190 C1189 1.334 . S
C1190 C1191 1.287 . S
C1191 C1190 1.287 . S
C1191 C1192 1.524 1_565 S
C1191 H1194 0.999 . S
C1192 H1162 0.950 . S
C1192 C1191 1.524 1_545 S
C1192 C1193 1.415 . S
C1193 H1163 0.950 . S
C1193 C1188 1.332 1_545 S
C1193 C1192 1.415 . S
H1194 C1191 0.999 . S
H1195 C1176 0.913 . S
H1196 C1214 0.951 . S
H1197 C1216 0.951 . S
H1198 C1218 0.950 . S
H1199 C1219 0.950 . S
H1200 C1221 0.950 . S
H1201 C1224 0.950 . S
H1202 C1225 0.950 . S
H1203 C1227 0.950 . S
H1204 C1228 0.950 . S
H1205 C1229 0.951 . S
H1206 C1231 0.951 . S
H1207 C1233 0.950 . S
H1208 C1234 0.950 . S
H1209 C1236 0.950 . S
H1210 C1239 0.950 . S
H1211 C1240 0.950 . S
H1212 C1242 0.950 . S
H1213 C1243 0.950 . S
C1214 H1196 0.951 . S
C1214 C1215 1.366 . S
C1214 C1216 1.388 . S
C1215 C1214 1.366 . S
C1215 C1219 1.385 1_655 S
C1216 H1197 0.951 . S
C1216 C1214 1.388 . S
C1216 C1217 1.366 . S
C1217 C1216 1.366 . S
C1217 C1218 1.414 1_655 S
C1217 C1220 1.499 . S
C1218 H1198 0.950 . S
C1218 C1217 1.414 1_455 S
C1218 C1219 1.374 . S
C1219 H1199 0.950 . S
C1219 C1215 1.385 1_455 S
C1219 C1218 1.374 . S
C1220 C1217 1.499 . S
C1220 C1221 1.373 1_655 S
C1220 C1222 1.389 . S
C1221 H1200 0.950 . S
C1221 C1220 1.373 1_455 S
C1221 C1237 1.377 . S
C1222 C1220 1.389 . S
C1222 C1223 1.524 . S
C1222 C1236 1.377 . S
C1223 C1222 1.524 . S
C1223 C1224 1.397 . S
C1223 C1228 1.363 . S
C1224 H1201 0.950 . S
C1224 C1223 1.397 . S
C1224 C1225 1.334 . S
C1225 H1202 0.950 . S
C1225 C1224 1.334 . S
C1225 C1226 1.287 . S
C1226 C1225 1.287 . S
C1226 C1227 1.524 . S
C1226 H1245 0.913 . S
C1227 H1203 0.950 . S
C1227 C1226 1.524 . S
C1227 C1228 1.415 . S
C1228 H1204 0.950 . S
C1228 C1223 1.363 . S
C1228 C1227 1.415 . S
C1229 H1205 0.951 . S
C1229 C1230 1.366 . S
C1229 C1231 1.388 . S
C1230 C1229 1.366 . S
C1230 C1234 1.385 1_455 S
C1231 H1206 0.951 . S
C1231 C1229 1.388 . S
C1231 C1232 1.366 . S
C1232 C1231 1.366 . S
C1232 C1233 1.414 1_455 S
C1232 C1235 1.499 . S
C1233 H1207 0.950 . S
C1233 C1232 1.414 1_655 S
C1233 C1234 1.374 . S
C1234 H1208 0.950 . S
C1234 C1230 1.385 1_655 S
C1234 C1233 1.374 . S
C1235 C1232 1.499 . S
C1235 C1236 1.373 1_455 S
C1235 C1237 1.389 . S
C1236 H1209 0.950 . S
C1236 C1222 1.377 . S
C1236 C1235 1.373 1_655 S
C1237 C1221 1.377 . S
C1237 C1235 1.389 . S
C1237 C1238 1.524 . S
C1238 C1237 1.524 . S
C1238 C1239 1.397 . S
C1238 C1243 1.363 . S
C1239 H1210 0.950 . S
C1239 C1238 1.397 . S
C1239 C1240 1.334 . S
C1240 H1211 0.950 . S
C1240 C1239 1.334 . S
C1240 C1241 1.287 . S
C1241 C1240 1.287 . S
C1241 C1242 1.524 . S
C1241 H1244 0.999 . S
C1242 H1212 0.950 . S
C1242 C1241 1.524 . S
C1242 C1243 1.415 . S
C1243 H1213 0.950 . S
C1243 C1238 1.363 . S
C1243 C1242 1.415 . S
H1244 C1241 0.999 . S
H1245 C1226 0.913 . S
H1246 C1264 0.951 . S
H1247 C1266 0.951 . S
H1248 C1268 0.950 . S
H1249 C1269 0.950 . S
H1250 C1271 0.950 . S
H1251 C1274 0.950 . S
H1252 C1275 0.950 . S
H1253 C1277 0.950 . S
H1254 C1278 0.950 . S
H1255 C1279 0.951 . S
H1256 C1281 0.951 . S
H1257 C1283 0.950 . S
H1258 C1284 0.950 . S
H1259 C1286 0.950 . S
H1260 C1289 0.950 . S
H1261 C1290 0.950 . S
H1262 C1292 0.950 . S
H1263 C1293 0.950 . S
C1264 H1246 0.951 . S
C1264 C1265 1.366 . S
C1264 C1266 1.388 . S
C1265 C1264 1.366 . S
C1265 C1269 1.385 . S
C1266 H1247 0.951 . S
C1266 C1264 1.388 . S
C1266 C1267 1.366 . S
C1267 C1266 1.366 . S
C1267 C1268 1.414 . S
C1267 C1270 1.499 . S
C1268 H1248 0.950 . S
C1268 C1267 1.414 . S
C1268 C1269 1.374 . S
C1269 H1249 0.950 . S
C1269 C1265 1.385 . S
C1269 C1268 1.374 . S
C1270 C1267 1.499 . S
C1270 C1271 1.373 . S
C1270 C1272 1.389 . S
C1271 H1250 0.950 . S
C1271 C1270 1.373 . S
C1271 C1287 1.377 . S
C1272 C1270 1.389 . S
C1272 C1273 1.524 . S
C1272 C1286 1.377 . S
C1273 C1272 1.524 . S
C1273 C1274 1.397 . S
C1273 C1278 1.363 . S
C1274 H1251 0.950 . S
C1274 C1273 1.397 . S
C1274 C1275 1.334 . S
C1275 H1252 0.950 . S
C1275 C1274 1.334 . S
C1275 C1276 1.287 . S
C1276 C1275 1.287 . S
C1276 C1277 1.524 . S
C1276 H1295 0.913 . S
C1277 H1253 0.950 . S
C1277 C1276 1.524 . S
C1277 C1278 1.415 . S
C1278 H1254 0.950 . S
C1278 C1273 1.363 . S
C1278 C1277 1.415 . S
C1279 H1255 0.951 . S
C1279 C1280 1.366 . S
C1279 C1281 1.388 . S
C1280 C1279 1.366 . S
C1280 C1284 1.385 . S
C1281 H1256 0.951 . S
C1281 C1279 1.388 . S
C1281 C1282 1.366 . S
C1282 C1281 1.366 . S
C1282 C1283 1.414 . S
C1282 C1285 1.499 . S
C1283 H1257 0.950 . S
C1283 C1282 1.414 . S
C1283 C1284 1.374 . S
C1284 H1258 0.950 . S
C1284 C1280 1.385 . S
C1284 C1283 1.374 . S
C1285 C1282 1.499 . S
C1285 C1286 1.373 . S
C1285 C1287 1.389 . S
C1286 H1259 0.950 . S
C1286 C1272 1.377 . S
C1286 C1285 1.373 . S
C1287 C1271 1.377 . S
C1287 C1285 1.389 . S
C1287 C1288 1.524 . S
C1288 C1287 1.524 . S
C1288 C1289 1.397 . S
C1288 C1293 1.363 . S
C1289 H1260 0.950 . S
C1289 C1288 1.397 . S
C1289 C1290 1.334 . S
C1290 H1261 0.950 . S
C1290 C1289 1.334 . S
C1290 C1291 1.287 . S
C1291 C1290 1.287 . S
C1291 C1292 1.524 . S
C1291 H1294 0.999 . S
C1292 H1262 0.950 . S
C1292 C1291 1.524 . S
C1292 C1293 1.415 . S
C1293 H1263 0.950 . S
C1293 C1288 1.363 . S
C1293 C1292 1.415 . S
H1294 C1291 0.999 . S
H1295 C1276 0.913 . S
H1296 C1314 0.951 . S
H1297 C1316 0.951 . S
H1298 C1318 0.950 . S
H1299 C1319 0.950 . S
H1300 C1321 0.950 . S
H1301 C1324 0.950 . S
H1302 C1325 0.950 . S
H1303 C1327 0.950 . S
H1304 C1328 0.950 . S
H1305 C1329 0.951 . S
H1306 C1331 0.951 . S
H1307 C1333 0.950 . S
H1308 C1334 0.950 . S
H1309 C1336 0.950 . S
H1310 C1339 0.950 . S
H1311 C1340 0.950 . S
H1312 C1342 0.950 . S
H1313 C1343 0.950 . S
C1314 H1296 0.951 . S
C1314 C1315 1.366 . S
C1314 C1316 1.388 . S
C1315 C1314 1.366 . S
C1315 C1319 1.385 . S
C1316 H1297 0.951 . S
C1316 C1314 1.388 . S
C1316 C1317 1.366 . S
C1317 C1316 1.366 . S
C1317 C1318 1.414 . S
C1317 C1320 1.499 . S
C1318 H1298 0.950 . S
C1318 C1317 1.414 . S
C1318 C1319 1.374 . S
C1319 H1299 0.950 . S
C1319 C1315 1.385 . S
C1319 C1318 1.374 . S
C1320 C1317 1.499 . S
C1320 C1321 1.373 . S
C1320 C1322 1.389 . S
C1321 H1300 0.950 . S
C1321 C1320 1.373 . S
C1321 C1337 1.377 1_455 S
C1322 C1320 1.389 . S
C1322 C1323 1.524 . S
C1322 C1336 1.377 1_455 S
C1323 C1322 1.524 . S
C1323 C1324 1.397 . S
C1323 C1328 1.363 . S
C1324 H1301 0.950 . S
C1324 C1323 1.397 . S
C1324 C1325 1.334 . S
C1325 H1302 0.950 . S
C1325 C1324 1.334 . S
C1325 C1326 1.287 . S
C1326 C1325 1.287 . S
C1326 C1327 1.524 . S
C1326 H1345 0.913 . S
C1327 H1303 0.950 . S
C1327 C1326 1.524 . S
C1327 C1328 1.415 . S
C1328 H1304 0.950 . S
C1328 C1323 1.363 . S
C1328 C1327 1.415 . S
C1329 H1305 0.951 . S
C1329 C1330 1.366 . S
C1329 C1331 1.388 . S
C1330 C1329 1.366 . S
C1330 C1334 1.385 . S
C1331 H1306 0.951 . S
C1331 C1329 1.388 . S
C1331 C1332 1.366 . S
C1332 C1331 1.366 . S
C1332 C1333 1.414 . S
C1332 C1335 1.499 . S
C1333 H1307 0.950 . S
C1333 C1332 1.414 . S
C1333 C1334 1.374 . S
C1334 H1308 0.950 . S
C1334 C1330 1.385 . S
C1334 C1333 1.374 . S
C1335 C1332 1.499 . S
C1335 C1336 1.373 . S
C1335 C1337 1.389 . S
C1336 H1309 0.950 . S
C1336 C1322 1.377 1_655 S
C1336 C1335 1.373 . S
C1337 C1321 1.377 1_655 S
C1337 C1335 1.389 . S
C1337 C1338 1.524 . S
C1338 C1337 1.524 . S
C1338 C1339 1.397 . S
C1338 C1343 1.363 . S
C1339 H1310 0.950 . S
C1339 C1338 1.397 . S
C1339 C1340 1.334 . S
C1340 H1311 0.950 . S
C1340 C1339 1.334 . S
C1340 C1341 1.287 . S
C1341 C1340 1.287 . S
C1341 C1342 1.524 . S
C1341 H1344 0.999 . S
C1342 H1312 0.950 . S
C1342 C1341 1.524 . S
C1342 C1343 1.415 . S
C1343 H1313 0.950 . S
C1343 C1338 1.363 . S
C1343 C1342 1.415 . S
H1344 C1341 0.999 . S
H1345 C1326 0.913 . S
H1346 C1364 0.951 . S
H1347 C1366 0.951 . S
H1348 C1368 0.950 . S
H1349 C1369 0.950 . S
H1350 C1371 0.950 . S
H1351 C1374 0.950 . S
H1352 C1375 0.950 . S
H1353 C1377 0.950 . S
H1354 C1378 0.950 . S
H1355 C1379 0.951 . S
H1356 C1381 0.951 . S
H1357 C1383 0.950 . S
H1358 C1384 0.950 . S
H1359 C1386 0.950 . S
H1360 C1389 0.950 . S
H1361 C1390 0.950 . S
H1362 C1392 0.950 . S
H1363 C1393 0.950 . S
C1364 H1346 0.951 . S
C1364 C1365 1.366 . S
C1364 C1366 1.388 . S
C1365 C1364 1.366 . S
C1365 C1369 1.385 . S
C1366 H1347 0.951 . S
C1366 C1364 1.388 . S
C1366 C1367 1.366 . S
C1367 C1366 1.366 . S
C1367 C1368 1.414 . S
C1367 C1370 1.499 . S
C1368 H1348 0.950 . S
C1368 C1367 1.414 . S
C1368 C1369 1.374 . S
C1369 H1349 0.950 . S
C1369 C1365 1.385 . S
C1369 C1368 1.374 . S
C1370 C1367 1.499 . S
C1370 C1371 1.373 . S
C1370 C1372 1.389 . S
C1371 H1350 0.950 . S
C1371 C1370 1.373 . S
C1371 C1387 1.377 . S
C1372 C1370 1.389 . S
C1372 C1373 1.524 . S
C1372 C1386 1.377 . S
C1373 C1372 1.524 . S
C1373 C1374 1.397 . S
C1373 C1378 1.363 . S
C1374 H1351 0.950 . S
C1374 C1373 1.397 . S
C1374 C1375 1.334 . S
C1375 H1352 0.950 . S
C1375 C1374 1.334 . S
C1375 C1376 1.287 . S
C1376 C1375 1.287 . S
C1376 C1377 1.524 . S
C1376 H1395 0.913 . S
C1377 H1353 0.950 . S
C1377 C1376 1.524 . S
C1377 C1378 1.415 . S
C1378 H1354 0.950 . S
C1378 C1373 1.363 . S
C1378 C1377 1.415 . S
C1379 H1355 0.951 . S
C1379 C1380 1.366 . S
C1379 C1381 1.388 . S
C1380 C1379 1.366 . S
C1380 C1384 1.385 . S
C1381 H1356 0.951 . S
C1381 C1379 1.388 . S
C1381 C1382 1.366 . S
C1382 C1381 1.366 . S
C1382 C1383 1.414 . S
C1382 C1385 1.499 . S
C1383 H1357 0.950 . S
C1383 C1382 1.414 . S
C1383 C1384 1.374 . S
C1384 H1358 0.950 . S
C1384 C1380 1.385 . S
C1384 C1383 1.374 . S
C1385 C1382 1.499 . S
C1385 C1386 1.373 . S
C1385 C1387 1.389 . S
C1386 H1359 0.950 . S
C1386 C1372 1.377 . S
C1386 C1385 1.373 . S
C1387 C1371 1.377 . S
C1387 C1385 1.389 . S
C1387 C1388 1.524 . S
C1388 C1387 1.524 . S
C1388 C1389 1.397 . S
C1388 C1393 1.363 . S
C1389 H1360 0.950 . S
C1389 C1388 1.397 . S
C1389 C1390 1.334 . S
C1390 H1361 0.950 . S
C1390 C1389 1.334 . S
C1390 C1391 1.287 . S
C1391 C1390 1.287 . S
C1391 C1392 1.524 . S
C1391 H1394 0.999 . S
C1392 H1362 0.950 . S
C1392 C1391 1.524 . S
C1392 C1393 1.415 . S
C1393 H1363 0.950 . S
C1393 C1388 1.363 . S
C1393 C1392 1.415 . S
H1394 C1391 0.999 . S
H1395 C1376 0.913 . S
H1396 C1414 0.951 . S
H1397 C1416 0.951 . S
H1398 C1418 0.950 . S
H1399 C1419 0.950 . S
H1400 C1421 0.950 . S
H1401 C1424 0.950 . S
H1402 C1425 0.950 . S
H1403 C1427 0.950 . S
H1404 C1428 0.950 . S
H1405 C1429 0.951 . S
H1406 C1431 0.951 . S
H1407 C1433 0.950 . S
H1408 C1434 0.950 . S
H1409 C1436 0.950 . S
H1410 C1439 0.950 . S
H1411 C1440 0.950 . S
H1412 C1442 0.950 . S
H1413 C1443 0.950 . S
C1414 H1396 0.951 . S
C1414 C1415 1.366 . S
C1414 C1416 1.388 . S
C1415 C1414 1.366 . S
C1415 C1419 1.385 . S
C1416 H1397 0.951 . S
C1416 C1414 1.388 . S
C1416 C1417 1.366 . S
C1417 C1416 1.366 . S
C1417 C1418 1.414 . S
C1417 C1420 1.499 . S
C1418 H1398 0.950 . S
C1418 C1417 1.414 . S
C1418 C1419 1.374 . S
C1419 H1399 0.950 . S
C1419 C1415 1.385 . S
C1419 C1418 1.374 . S
C1420 C1417 1.499 . S
C1420 C1421 1.373 . S
C1420 C1422 1.389 . S
C1421 H1400 0.950 . S
C1421 C1420 1.373 . S
C1421 C1437 1.377 1_545 S
C1422 C1420 1.389 . S
C1422 C1423 1.524 . S
C1422 C1436 1.377 1_545 S
C1423 C1422 1.524 . S
C1423 C1424 1.397 . S
C1423 C1428 1.363 . S
C1424 H1401 0.950 . S
C1424 C1423 1.397 . S
C1424 C1425 1.334 . S
C1425 H1402 0.950 . S
C1425 C1424 1.334 . S
C1425 C1426 1.287 . S
C1426 C1425 1.287 . S
C1426 C1427 1.524 . S
C1426 H1445 0.913 . S
C1427 H1403 0.950 . S
C1427 C1426 1.524 . S
C1427 C1428 1.415 . S
C1428 H1404 0.950 . S
C1428 C1423 1.363 . S
C1428 C1427 1.415 . S
C1429 H1405 0.951 . S
C1429 C1430 1.366 . S
C1429 C1431 1.388 . S
C1430 C1429 1.366 . S
C1430 C1434 1.385 . S
C1431 H1406 0.951 . S
C1431 C1429 1.388 . S
C1431 C1432 1.366 . S
C1432 C1431 1.366 . S
C1432 C1433 1.414 . S
C1432 C1435 1.499 . S
C1433 H1407 0.950 . S
C1433 C1432 1.414 . S
C1433 C1434 1.374 . S
C1434 H1408 0.950 . S
C1434 C1430 1.385 . S
C1434 C1433 1.374 . S
C1435 C1432 1.499 . S
C1435 C1436 1.373 . S
C1435 C1437 1.389 . S
C1436 H1409 0.950 . S
C1436 C1422 1.377 1_565 S
C1436 C1435 1.373 . S
C1437 C1421 1.377 1_565 S
C1437 C1435 1.389 . S
C1437 C1438 1.524 . S
C1438 C1437 1.524 . S
C1438 C1439 1.397 . S
C1438 C1443 1.363 . S
C1439 H1410 0.950 . S
C1439 C1438 1.397 . S
C1439 C1440 1.334 . S
C1440 H1411 0.950 . S
C1440 C1439 1.334 . S
C1440 C1441 1.287 . S
C1441 C1440 1.287 . S
C1441 C1442 1.524 . S
C1441 H1444 0.999 . S
C1442 H1412 0.950 . S
C1442 C1441 1.524 . S
C1442 C1443 1.415 . S
C1443 H1413 0.950 . S
C1443 C1438 1.363 . S
C1443 C1442 1.415 . S
H1444 C1441 0.999 . S
H1445 C1426 0.913 . S
H1446 C1464 0.951 . S
H1447 C1466 0.951 . S
H1448 C1468 0.950 . S
H1449 C1469 0.950 . S
H1450 C1471 0.950 . S
H1451 C1474 0.950 . S
H1452 C1475 0.950 . S
H1453 C1477 0.950 . S
H1454 C1478 0.950 . S
H1455 C1479 0.951 . S
H1456 C1481 0.951 . S
H1457 C1483 0.950 . S
H1458 C1484 0.950 . S
H1459 C1486 0.950 . S
H1460 C1489 0.950 . S
H1461 C1490 0.950 . S
H1462 C1492 0.950 . S
H1463 C1493 0.950 . S
C1464 H1446 0.951 . S
C1464 C1465 1.366 . S
C1464 C1466 1.388 . S
C1465 C1464 1.366 . S
C1465 C1469 1.385 . S
C1466 H1447 0.951 . S
C1466 C1464 1.388 . S
C1466 C1467 1.366 . S
C1467 C1466 1.366 . S
C1467 C1468 1.414 . S
C1467 C1470 1.499 . S
C1468 H1448 0.950 . S
C1468 C1467 1.414 . S
C1468 C1469 1.374 . S
C1469 H1449 0.950 . S
C1469 C1465 1.385 . S
C1469 C1468 1.374 . S
C1470 C1467 1.499 . S
C1470 C1471 1.373 . S
C1470 C1472 1.389 . S
C1471 H1450 0.950 . S
C1471 C1470 1.373 . S
C1471 C1487 1.377 1_455 S
C1472 C1470 1.389 . S
C1472 C1473 1.524 . S
C1472 C1486 1.377 1_455 S
C1473 C1472 1.524 . S
C1473 C1474 1.397 . S
C1473 C1478 1.363 . S
C1474 H1451 0.950 . S
C1474 C1473 1.397 . S
C1474 C1475 1.334 . S
C1475 H1452 0.950 . S
C1475 C1474 1.334 . S
C1475 C1476 1.287 . S
C1476 C1475 1.287 . S
C1476 C1477 1.524 . S
C1476 H1495 0.913 . S
C1477 H1453 0.950 . S
C1477 C1476 1.524 . S
C1477 C1478 1.415 . S
C1478 H1454 0.950 . S
C1478 C1473 1.363 . S
C1478 C1477 1.415 . S
C1479 H1455 0.951 . S
C1479 C1480 1.366 . S
C1479 C1481 1.388 . S
C1480 C1479 1.366 . S
C1480 C1484 1.385 . S
C1481 H1456 0.951 . S
C1481 C1479 1.388 . S
C1481 C1482 1.366 . S
C1482 C1481 1.366 . S
C1482 C1483 1.414 . S
C1482 C1485 1.499 . S
C1483 H1457 0.950 . S
C1483 C1482 1.414 . S
C1483 C1484 1.374 . S
C1484 H1458 0.950 . S
C1484 C1480 1.385 . S
C1484 C1483 1.374 . S
C1485 C1482 1.499 . S
C1485 C1486 1.373 . S
C1485 C1487 1.389 . S
C1486 H1459 0.950 . S
C1486 C1472 1.377 1_655 S
C1486 C1485 1.373 . S
C1487 C1471 1.377 1_655 S
C1487 C1485 1.389 . S
C1487 C1488 1.524 . S
C1488 C1487 1.524 . S
C1488 C1489 1.397 . S
C1488 C1493 1.363 . S
C1489 H1460 0.950 . S
C1489 C1488 1.397 . S
C1489 C1490 1.334 . S
C1490 H1461 0.950 . S
C1490 C1489 1.334 . S
C1490 C1491 1.287 . S
C1491 C1490 1.287 . S
C1491 C1492 1.524 . S
C1491 H1494 0.999 . S
C1492 H1462 0.950 . S
C1492 C1491 1.524 . S
C1492 C1493 1.415 . S
C1493 H1463 0.950 . S
C1493 C1488 1.363 . S
C1493 C1492 1.415 . S
H1494 C1491 0.999 . S
H1495 C1476 0.913 . S
H1496 C1514 0.951 . S
H1497 C1516 0.951 . S
H1498 C1518 0.950 . S
H1499 C1519 0.950 . S
H1500 C1521 0.950 . S
H1501 C1524 0.950 . S
H1502 C1525 0.950 . S
H1503 C1527 0.950 . S
H1504 C1528 0.950 . S
H1505 C1529 0.951 . S
H1506 C1531 0.951 . S
H1507 C1533 0.950 . S
H1508 C1534 0.950 . S
H1509 C1536 0.950 . S
H1510 C1539 0.950 . S
H1511 C1540 0.950 . S
H1512 C1542 0.950 . S
H1513 C1543 0.950 . S
C1514 H1496 0.951 . S
C1514 C1515 1.366 . S
C1514 C1516 1.388 . S
C1515 C1514 1.366 . S
C1515 C1519 1.385 . S
C1516 H1497 0.951 . S
C1516 C1514 1.388 . S
C1516 C1517 1.366 . S
C1517 C1516 1.366 . S
C1517 C1518 1.414 . S
C1517 C1520 1.499 . S
C1518 H1498 0.950 . S
C1518 C1517 1.414 . S
C1518 C1519 1.374 . S
C1519 H1499 0.950 . S
C1519 C1515 1.385 . S
C1519 C1518 1.374 . S
C1520 C1517 1.499 . S
C1520 C1521 1.373 . S
C1520 C1522 1.389 . S
C1521 H1500 0.950 . S
C1521 C1520 1.373 . S
C1521 C1537 1.377 . S
C1522 C1520 1.389 . S
C1522 C1523 1.524 . S
C1522 C1536 1.377 . S
C1523 C1522 1.524 . S
C1523 C1524 1.397 . S
C1523 C1528 1.363 . S
C1524 H1501 0.950 . S
C1524 C1523 1.397 . S
C1524 C1525 1.334 . S
C1525 H1502 0.950 . S
C1525 C1524 1.334 . S
C1525 C1526 1.287 . S
C1526 C1525 1.287 . S
C1526 C1527 1.524 . S
C1526 H1545 0.913 . S
C1527 H1503 0.950 . S
C1527 C1526 1.524 . S
C1527 C1528 1.415 . S
C1528 H1504 0.950 . S
C1528 C1523 1.363 . S
C1528 C1527 1.415 . S
C1529 H1505 0.951 . S
C1529 C1530 1.366 . S
C1529 C1531 1.388 . S
C1530 C1529 1.366 . S
C1530 C1534 1.385 . S
C1531 H1506 0.951 . S
C1531 C1529 1.388 . S
C1531 C1532 1.366 . S
C1532 C1531 1.366 . S
C1532 C1533 1.414 . S
C1532 C1535 1.499 . S
C1533 H1507 0.950 . S
C1533 C1532 1.414 . S
C1533 C1534 1.374 . S
C1534 H1508 0.950 . S
C1534 C1530 1.385 . S
C1534 C1533 1.374 . S
C1535 C1532 1.499 . S
C1535 C1536 1.373 . S
C1535 C1537 1.389 . S
C1536 H1509 0.950 . S
C1536 C1522 1.377 . S
C1536 C1535 1.373 . S
C1537 C1521 1.377 . S
C1537 C1535 1.389 . S
C1537 C1538 1.524 . S
C1538 C1537 1.524 . S
C1538 C1539 1.397 . S
C1538 C1543 1.363 . S
C1539 H1510 0.950 . S
C1539 C1538 1.397 . S
C1539 C1540 1.334 . S
C1540 H1511 0.950 . S
C1540 C1539 1.334 . S
C1540 C1541 1.287 . S
C1541 C1540 1.287 . S
C1541 C1542 1.524 . S
C1541 H1544 0.999 . S
C1542 H1512 0.950 . S
C1542 C1541 1.524 . S
C1542 C1543 1.415 . S
C1543 H1513 0.950 . S
C1543 C1538 1.363 . S
C1543 C1542 1.415 . S
H1544 C1541 0.999 . S
H1545 C1526 0.913 . S
H1546 C1564 0.951 . S
H1547 C1566 0.951 . S
H1548 C1568 0.950 . S
H1549 C1569 0.950 . S
H1550 C1571 0.950 . S
H1551 C1574 0.950 . S
H1552 C1575 0.950 . S
H1553 C1577 0.950 . S
H1554 C1578 0.950 . S
H1555 C1579 0.951 . S
H1556 C1581 0.951 . S
H1557 C1583 0.950 . S
H1558 C1584 0.950 . S
H1559 C1586 0.950 . S
H1560 C1589 0.950 . S
H1561 C1590 0.950 . S
H1562 C1592 0.950 . S
H1563 C1593 0.950 . S
C1564 H1546 0.951 . S
C1564 C1565 1.366 . S
C1564 C1566 1.388 . S
C1565 C1564 1.366 . S
C1565 C1569 1.385 . S
C1566 H1547 0.951 . S
C1566 C1564 1.388 . S
C1566 C1567 1.366 . S
C1567 C1566 1.366 . S
C1567 C1568 1.414 . S
C1567 C1570 1.499 . S
C1568 H1548 0.950 . S
C1568 C1567 1.414 . S
C1568 C1569 1.374 . S
C1569 H1549 0.950 . S
C1569 C1565 1.385 . S
C1569 C1568 1.374 . S
C1570 C1567 1.499 . S
C1570 C1571 1.373 . S
C1570 C1572 1.389 . S
C1571 H1550 0.950 . S
C1571 C1570 1.373 . S
C1571 C1587 1.377 1_565 S
C1572 C1570 1.389 . S
C1572 C1573 1.524 . S
C1572 C1586 1.377 1_565 S
C1573 C1572 1.524 . S
C1573 C1574 1.397 . S
C1573 C1578 1.363 . S
C1574 H1551 0.950 . S
C1574 C1573 1.397 . S
C1574 C1575 1.334 . S
C1575 H1552 0.950 . S
C1575 C1574 1.334 . S
C1575 C1576 1.287 . S
C1576 C1575 1.287 . S
C1576 C1577 1.524 . S
C1576 H1595 0.913 . S
C1577 H1553 0.950 . S
C1577 C1576 1.524 . S
C1577 C1578 1.415 . S
C1578 H1554 0.950 . S
C1578 C1573 1.363 . S
C1578 C1577 1.415 . S
C1579 H1555 0.951 . S
C1579 C1580 1.366 . S
C1579 C1581 1.388 . S
C1580 C1579 1.366 . S
C1580 C1584 1.385 . S
C1581 H1556 0.951 . S
C1581 C1579 1.388 . S
C1581 C1582 1.366 . S
C1582 C1581 1.366 . S
C1582 C1583 1.414 . S
C1582 C1585 1.499 . S
C1583 H1557 0.950 . S
C1583 C1582 1.414 . S
C1583 C1584 1.374 . S
C1584 H1558 0.950 . S
C1584 C1580 1.385 . S
C1584 C1583 1.374 . S
C1585 C1582 1.499 . S
C1585 C1586 1.373 . S
C1585 C1587 1.389 . S
C1586 H1559 0.950 . S
C1586 C1572 1.377 1_545 S
C1586 C1585 1.373 . S
C1587 C1571 1.377 1_545 S
C1587 C1585 1.389 . S
C1587 C1588 1.524 . S
C1588 C1587 1.524 . S
C1588 C1589 1.397 . S
C1588 C1593 1.363 . S
C1589 H1560 0.950 . S
C1589 C1588 1.397 . S
C1589 C1590 1.334 . S
C1590 H1561 0.950 . S
C1590 C1589 1.334 . S
C1590 C1591 1.287 . S
C1591 C1590 1.287 . S
C1591 C1592 1.524 . S
C1591 H1594 0.999 . S
C1592 H1562 0.950 . S
C1592 C1591 1.524 . S
C1592 C1593 1.415 . S
C1593 H1563 0.950 . S
C1593 C1588 1.363 . S
C1593 C1592 1.415 . S
H1594 C1591 0.999 . S
H1595 C1576 0.913 . S
H1596 C1614 0.951 . S
H1597 C1616 0.951 . S
H1598 C1618 0.950 . S
H1599 C1619 0.950 . S
H1600 C1621 0.950 . S
H1601 C1624 0.950 . S
H1602 C1625 0.950 . S
H1603 C1627 0.950 . S
H1604 C1628 0.950 . S
H1605 C1629 0.951 . S
H1606 C1631 0.951 . S
H1607 C1633 0.950 . S
H1608 C1634 0.950 . S
H1609 C1636 0.950 . S
H1610 C1639 0.950 . S
H1611 C1640 0.950 . S
H1612 C1642 0.950 . S
H1613 C1643 0.950 . S
C1614 H1596 0.951 . S
C1614 C1615 1.366 . S
C1614 C1616 1.388 . S
C1615 C1614 1.366 . S
C1615 C1619 1.385 . S
C1616 H1597 0.951 . S
C1616 C1614 1.388 . S
C1616 C1617 1.366 . S
C1617 C1616 1.366 . S
C1617 C1618 1.414 . S
C1617 C1620 1.499 . S
C1618 H1598 0.950 . S
C1618 C1617 1.414 . S
C1618 C1619 1.374 . S
C1619 H1599 0.950 . S
C1619 C1615 1.385 . S
C1619 C1618 1.374 . S
C1620 C1617 1.499 . S
C1620 C1621 1.373 . S
C1620 C1622 1.389 . S
C1621 H1600 0.950 . S
C1621 C1620 1.373 . S
C1621 C1637 1.377 . S
C1622 C1620 1.389 . S
C1622 C1623 1.524 . S
C1622 C1636 1.377 . S
C1623 C1622 1.524 . S
C1623 C1624 1.397 . S
C1623 C1628 1.363 . S
C1624 H1601 0.950 . S
C1624 C1623 1.397 . S
C1624 C1625 1.334 . S
C1625 H1602 0.950 . S
C1625 C1624 1.334 . S
C1625 C1626 1.287 . S
C1626 C1625 1.287 . S
C1626 C1627 1.524 . S
C1626 H1645 0.913 . S
C1627 H1603 0.950 . S
C1627 C1626 1.524 . S
C1627 C1628 1.415 . S
C1628 H1604 0.950 . S
C1628 C1623 1.363 . S
C1628 C1627 1.415 . S
C1629 H1605 0.951 . S
C1629 C1630 1.366 . S
C1629 C1631 1.388 . S
C1630 C1629 1.366 . S
C1630 C1634 1.385 . S
C1631 H1606 0.951 . S
C1631 C1629 1.388 . S
C1631 C1632 1.366 . S
C1632 C1631 1.366 . S
C1632 C1633 1.414 . S
C1632 C1635 1.499 . S
C1633 H1607 0.950 . S
C1633 C1632 1.414 . S
C1633 C1634 1.374 . S
C1634 H1608 0.950 . S
C1634 C1630 1.385 . S
C1634 C1633 1.374 . S
C1635 C1632 1.499 . S
C1635 C1636 1.373 . S
C1635 C1637 1.389 . S
C1636 H1609 0.950 . S
C1636 C1622 1.377 . S
C1636 C1635 1.373 . S
C1637 C1621 1.377 . S
C1637 C1635 1.389 . S
C1637 C1638 1.524 . S
C1638 C1637 1.524 . S
C1638 C1639 1.397 . S
C1638 C1643 1.363 . S
C1639 H1610 0.950 . S
C1639 C1638 1.397 . S
C1639 C1640 1.334 . S
C1640 H1611 0.950 . S
C1640 C1639 1.334 . S
C1640 C1641 1.287 . S
C1641 C1640 1.287 . S
C1641 C1642 1.524 . S
C1641 H1644 0.999 . S
C1642 H1612 0.950 . S
C1642 C1641 1.524 . S
C1642 C1643 1.415 . S
C1643 H1613 0.950 . S
C1643 C1638 1.363 . S
C1643 C1642 1.415 . S
H1644 C1641 0.999 . S
H1645 C1626 0.913 . S
H1646 C1664 0.951 . S
H1647 C1666 0.951 . S
H1648 C1668 0.950 . S
H1649 C1669 0.950 . S
H1650 C1671 0.950 . S
H1651 C1674 0.950 . S
H1652 C1675 0.950 . S
H1653 C1677 0.950 . S
H1654 C1678 0.950 . S
H1655 C1679 0.951 . S
H1656 C1681 0.951 . S
H1657 C1683 0.950 . S
H1658 C1684 0.950 . S
H1659 C1686 0.950 . S
H1660 C1689 0.950 . S
H1661 C1690 0.950 . S
H1662 C1692 0.950 . S
H1663 C1693 0.950 . S
C1664 H1646 0.951 . S
C1664 C1665 1.366 . S
C1664 C1666 1.388 . S
C1665 C1664 1.366 . S
C1665 C1669 1.385 . S
C1666 H1647 0.951 . S
C1666 C1664 1.388 . S
C1666 C1667 1.366 . S
C1667 C1666 1.366 . S
C1667 C1668 1.414 . S
C1667 C1670 1.499 . S
C1668 H1648 0.950 . S
C1668 C1667 1.414 . S
C1668 C1669 1.374 . S
C1669 H1649 0.950 . S
C1669 C1665 1.385 . S
C1669 C1668 1.374 . S
C1670 C1667 1.499 . S
C1670 C1671 1.373 . S
C1670 C1672 1.389 . S
C1671 H1650 0.950 . S
C1671 C1670 1.373 . S
C1671 C1687 1.377 . S
C1672 C1670 1.389 . S
C1672 C1673 1.524 . S
C1672 C1686 1.377 . S
C1673 C1672 1.524 . S
C1673 C1674 1.397 . S
C1673 C1678 1.363 . S
C1674 H1651 0.950 . S
C1674 C1673 1.397 . S
C1674 C1675 1.334 . S
C1675 H1652 0.950 . S
C1675 C1674 1.334 . S
C1675 C1676 1.287 . S
C1676 C1675 1.287 . S
C1676 C1677 1.524 . S
C1676 H1695 0.913 . S
C1677 H1653 0.950 . S
C1677 C1676 1.524 . S
C1677 C1678 1.415 . S
C1678 H1654 0.950 . S
C1678 C1673 1.363 . S
C1678 C1677 1.415 . S
C1679 H1655 0.951 . S
C1679 C1680 1.366 . S
C1679 C1681 1.388 . S
C1680 C1679 1.366 . S
C1680 C1684 1.385 . S
C1681 H1656 0.951 . S
C1681 C1679 1.388 . S
C1681 C1682 1.366 . S
C1682 C1681 1.366 . S
C1682 C1683 1.414 . S
C1682 C1685 1.499 . S
C1683 H1657 0.950 . S
C1683 C1682 1.414 . S
C1683 C1684 1.374 . S
C1684 H1658 0.950 . S
C1684 C1680 1.385 . S
C1684 C1683 1.374 . S
C1685 C1682 1.499 . S
C1685 C1686 1.373 . S
C1685 C1687 1.389 . S
C1686 H1659 0.950 . S
C1686 C1672 1.377 . S
C1686 C1685 1.373 . S
C1687 C1671 1.377 . S
C1687 C1685 1.389 . S
C1687 C1688 1.524 . S
C1688 C1687 1.524 . S
C1688 C1689 1.397 . S
C1688 C1693 1.363 . S
C1689 H1660 0.950 . S
C1689 C1688 1.397 . S
C1689 C1690 1.334 . S
C1690 H1661 0.950 . S
C1690 C1689 1.334 . S
C1690 C1691 1.287 . S
C1691 C1690 1.287 . S
C1691 C1692 1.524 . S
C1691 H1694 0.999 . S
C1692 H1662 0.950 . S
C1692 C1691 1.524 . S
C1692 C1693 1.415 . S
C1693 H1663 0.950 . S
C1693 C1688 1.363 . S
C1693 C1692 1.415 . S
H1694 C1691 0.999 . S
H1695 C1676 0.913 . S
H1696 C1714 0.951 . S
H1697 C1716 0.951 . S
H1698 C1718 0.950 . S
H1699 C1719 0.950 . S
H1700 C1721 0.950 . S
H1701 C1724 0.950 . S
H1702 C1725 0.950 . S
H1703 C1727 0.950 . S
H1704 C1728 0.950 . S
H1705 C1729 0.951 . S
H1706 C1731 0.951 . S
H1707 C1733 0.950 . S
H1708 C1734 0.950 . S
H1709 C1736 0.950 . S
H1710 C1739 0.950 . S
H1711 C1740 0.950 . S
H1712 C1742 0.950 . S
H1713 C1743 0.950 . S
C1714 H1696 0.951 . S
C1714 C1715 1.366 . S
C1714 C1716 1.388 . S
C1715 C1714 1.366 . S
C1715 C1719 1.385 . S
C1716 H1697 0.951 . S
C1716 C1714 1.388 . S
C1716 C1717 1.366 . S
C1717 C1716 1.366 . S
C1717 C1718 1.414 . S
C1717 C1720 1.499 . S
C1718 H1698 0.950 . S
C1718 C1717 1.414 . S
C1718 C1719 1.374 . S
C1719 H1699 0.950 . S
C1719 C1715 1.385 . S
C1719 C1718 1.374 . S
C1720 C1717 1.499 . S
C1720 C1721 1.373 . S
C1720 C1722 1.389 . S
C1721 H1700 0.950 . S
C1721 C1720 1.373 . S
C1721 C1737 1.377 . S
C1722 C1720 1.389 . S
C1722 C1723 1.524 . S
C1722 C1736 1.377 . S
C1723 C1722 1.524 . S
C1723 C1724 1.397 . S
C1723 C1728 1.363 . S
C1724 H1701 0.950 . S
C1724 C1723 1.397 . S
C1724 C1725 1.334 . S
C1725 H1702 0.950 . S
C1725 C1724 1.334 . S
C1725 C1726 1.287 . S
C1726 C1725 1.287 . S
C1726 C1727 1.524 . S
C1726 H1745 0.913 . S
C1727 H1703 0.950 . S
C1727 C1726 1.524 . S
C1727 C1728 1.415 . S
C1728 H1704 0.950 . S
C1728 C1723 1.363 . S
C1728 C1727 1.415 . S
C1729 H1705 0.951 . S
C1729 C1730 1.366 . S
C1729 C1731 1.388 . S
C1730 C1729 1.366 . S
C1730 C1734 1.385 . S
C1731 H1706 0.951 . S
C1731 C1729 1.388 . S
C1731 C1732 1.366 . S
C1732 C1731 1.366 . S
C1732 C1733 1.414 . S
C1732 C1735 1.499 . S
C1733 H1707 0.950 . S
C1733 C1732 1.414 . S
C1733 C1734 1.374 . S
C1734 H1708 0.950 . S
C1734 C1730 1.385 . S
C1734 C1733 1.374 . S
C1735 C1732 1.499 . S
C1735 C1736 1.373 . S
C1735 C1737 1.389 . S
C1736 H1709 0.950 . S
C1736 C1722 1.377 . S
C1736 C1735 1.373 . S
C1737 C1721 1.377 . S
C1737 C1735 1.389 . S
C1737 C1738 1.524 . S
C1738 C1737 1.524 . S
C1738 C1739 1.397 . S
C1738 C1743 1.363 . S
C1739 H1710 0.950 . S
C1739 C1738 1.397 . S
C1739 C1740 1.334 . S
C1740 H1711 0.950 . S
C1740 C1739 1.334 . S
C1740 C1741 1.287 . S
C1741 C1740 1.287 . S
C1741 C1742 1.524 . S
C1741 H1744 0.999 . S
C1742 H1712 0.950 . S
C1742 C1741 1.524 . S
C1742 C1743 1.415 . S
C1743 H1713 0.950 . S
C1743 C1738 1.363 . S
C1743 C1742 1.415 . S
H1744 C1741 0.999 . S
H1745 C1726 0.913 . S
H1746 C1764 0.951 . S
H1747 C1766 0.951 . S
H1748 C1768 0.950 . S
H1749 C1769 0.950 . S
H1750 C1771 0.950 . S
H1751 C1774 0.950 . S
H1752 C1775 0.950 . S
H1753 C1777 0.950 . S
H1754 C1778 0.950 . S
H1755 C1779 0.951 . S
H1756 C1781 0.951 . S
H1757 C1783 0.950 . S
H1758 C1784 0.950 . S
H1759 C1786 0.950 . S
H1760 C1789 0.950 . S
H1761 C1790 0.950 . S
H1762 C1792 0.950 . S
H1763 C1793 0.950 . S
C1764 H1746 0.951 . S
C1764 C1765 1.366 . S
C1764 C1766 1.388 . S
C1765 C1764 1.366 . S
C1765 C1769 1.385 . S
C1766 H1747 0.951 . S
C1766 C1764 1.388 . S
C1766 C1767 1.366 . S
C1767 C1766 1.366 . S
C1767 C1768 1.414 . S
C1767 C1770 1.499 . S
C1768 H1748 0.950 . S
C1768 C1767 1.414 . S
C1768 C1769 1.374 . S
C1769 H1749 0.950 . S
C1769 C1765 1.385 . S
C1769 C1768 1.374 . S
C1770 C1767 1.499 . S
C1770 C1771 1.373 . S
C1770 C1772 1.389 . S
C1771 H1750 0.950 . S
C1771 C1770 1.373 . S
C1771 C1787 1.377 . S
C1772 C1770 1.389 . S
C1772 C1773 1.524 . S
C1772 C1786 1.377 . S
C1773 C1772 1.524 . S
C1773 C1774 1.397 . S
C1773 C1778 1.363 . S
C1774 H1751 0.950 . S
C1774 C1773 1.397 . S
C1774 C1775 1.334 . S
C1775 H1752 0.950 . S
C1775 C1774 1.334 . S
C1775 C1776 1.287 . S
C1776 C1775 1.287 . S
C1776 C1777 1.524 . S
C1776 H1795 0.913 . S
C1777 H1753 0.950 . S
C1777 C1776 1.524 . S
C1777 C1778 1.415 . S
C1778 H1754 0.950 . S
C1778 C1773 1.363 . S
C1778 C1777 1.415 . S
C1779 H1755 0.951 . S
C1779 C1780 1.366 . S
C1779 C1781 1.388 . S
C1780 C1779 1.366 . S
C1780 C1784 1.385 . S
C1781 H1756 0.951 . S
C1781 C1779 1.388 . S
C1781 C1782 1.366 . S
C1782 C1781 1.366 . S
C1782 C1783 1.414 . S
C1782 C1785 1.499 . S
C1783 H1757 0.950 . S
C1783 C1782 1.414 . S
C1783 C1784 1.374 . S
C1784 H1758 0.950 . S
C1784 C1780 1.385 . S
C1784 C1783 1.374 . S
C1785 C1782 1.499 . S
C1785 C1786 1.373 . S
C1785 C1787 1.389 . S
C1786 H1759 0.950 . S
C1786 C1772 1.377 . S
C1786 C1785 1.373 . S
C1787 C1771 1.377 . S
C1787 C1785 1.389 . S
C1787 C1788 1.524 . S
C1788 C1787 1.524 . S
C1788 C1789 1.397 . S
C1788 C1793 1.363 . S
C1789 H1760 0.950 . S
C1789 C1788 1.397 . S
C1789 C1790 1.334 . S
C1790 H1761 0.950 . S
C1790 C1789 1.334 . S
C1790 C1791 1.287 . S
C1791 C1790 1.287 . S
C1791 C1792 1.524 . S
C1791 H1794 0.999 . S
C1792 H1762 0.950 . S
C1792 C1791 1.524 . S
C1792 C1793 1.415 . S
C1793 H1763 0.950 . S
C1793 C1788 1.363 . S
C1793 C1792 1.415 . S
H1794 C1791 0.999 . S
H1795 C1776 0.913 . S
H1796 C1814 0.951 . S
H1797 C1816 0.951 . S
H1798 C1818 0.950 . S
H1799 C1819 0.950 . S
H1800 C1821 0.950 . S
H1801 C1824 0.950 . S
H1802 C1825 0.950 . S
H1803 C1827 0.950 . S
H1804 C1828 0.950 . S
H1805 C1829 0.951 . S
H1806 C1831 0.951 . S
H1807 C1833 0.950 . S
H1808 C1834 0.950 . S
H1809 C1836 0.950 . S
H1810 C1839 0.950 . S
H1811 C1840 0.950 . S
H1812 C1842 0.950 . S
H1813 C1843 0.950 . S
C1814 H1796 0.951 . S
C1814 C1815 1.366 . S
C1814 C1816 1.388 . S
C1815 C1814 1.366 . S
C1815 C1819 1.385 . S
C1816 H1797 0.951 . S
C1816 C1814 1.388 . S
C1816 C1817 1.366 . S
C1817 C1816 1.366 . S
C1817 C1818 1.414 . S
C1817 C1820 1.499 . S
C1818 H1798 0.950 . S
C1818 C1817 1.414 . S
C1818 C1819 1.374 . S
C1819 H1799 0.950 . S
C1819 C1815 1.385 . S
C1819 C1818 1.374 . S
C1820 C1817 1.499 . S
C1820 C1821 1.373 . S
C1820 C1822 1.389 . S
C1821 H1800 0.950 . S
C1821 C1820 1.373 . S
C1821 C1837 1.377 . S
C1822 C1820 1.389 . S
C1822 C1823 1.524 . S
C1822 C1836 1.377 . S
C1823 C1822 1.524 . S
C1823 C1824 1.397 . S
C1823 C1828 1.363 . S
C1824 H1801 0.950 . S
C1824 C1823 1.397 . S
C1824 C1825 1.334 . S
C1825 H1802 0.950 . S
C1825 C1824 1.334 . S
C1825 C1826 1.287 . S
C1826 C1825 1.287 . S
C1826 C1827 1.524 . S
C1826 H1845 0.913 . S
C1827 H1803 0.950 . S
C1827 C1826 1.524 . S
C1827 C1828 1.415 . S
C1828 H1804 0.950 . S
C1828 C1823 1.363 . S
C1828 C1827 1.415 . S
C1829 H1805 0.951 . S
C1829 C1830 1.366 . S
C1829 C1831 1.388 . S
C1830 C1829 1.366 . S
C1830 C1834 1.385 . S
C1831 H1806 0.951 . S
C1831 C1829 1.388 . S
C1831 C1832 1.366 . S
C1832 C1831 1.366 . S
C1832 C1833 1.414 . S
C1832 C1835 1.499 . S
C1833 H1807 0.950 . S
C1833 C1832 1.414 . S
C1833 C1834 1.374 . S
C1834 H1808 0.950 . S
C1834 C1830 1.385 . S
C1834 C1833 1.374 . S
C1835 C1832 1.499 . S
C1835 C1836 1.373 . S
C1835 C1837 1.389 . S
C1836 H1809 0.950 . S
C1836 C1822 1.377 . S
C1836 C1835 1.373 . S
C1837 C1821 1.377 . S
C1837 C1835 1.389 . S
C1837 C1838 1.524 . S
C1838 C1837 1.524 . S
C1838 C1839 1.397 . S
C1838 C1843 1.363 . S
C1839 H1810 0.950 . S
C1839 C1838 1.397 . S
C1839 C1840 1.334 . S
C1840 H1811 0.950 . S
C1840 C1839 1.334 . S
C1840 C1841 1.287 . S
C1841 C1840 1.287 . S
C1841 C1842 1.524 . S
C1841 H1844 1.036 . S
C1842 H1812 0.950 . S
C1842 C1841 1.524 . S
C1842 C1843 1.415 . S
C1843 H1813 0.950 . S
C1843 C1838 1.363 . S
C1843 C1842 1.415 . S
H1844 C1841 1.036 . S
H1845 C1826 0.913 . S
H1846 C1864 0.951 . S
H1847 C1866 0.951 . S
H1848 C1868 0.950 . S
H1849 C1869 0.950 . S
H1850 C1871 0.950 . S
H1851 C1874 0.950 . S
H1852 C1875 0.950 . S
H1853 C1877 0.950 . S
H1854 C1878 0.950 . S
H1855 C1879 0.951 . S
H1856 C1881 0.951 . S
H1857 C1883 0.950 . S
H1858 C1884 0.950 . S
H1859 C1886 0.950 . S
H1860 C1889 0.950 . S
H1861 C1890 0.950 . S
H1862 C1892 0.950 1_556 S
H1863 C1893 0.950 . S
C1864 H1846 0.951 . S
C1864 C1865 1.366 . S
C1864 C1866 1.388 . S
C1865 C1864 1.366 . S
C1865 C1869 1.385 . S
C1866 H1847 0.951 . S
C1866 C1864 1.388 . S
C1866 C1867 1.366 . S
C1867 C1866 1.366 . S
C1867 C1868 1.414 . S
C1867 C1870 1.499 . S
C1868 H1848 0.950 . S
C1868 C1867 1.414 . S
C1868 C1869 1.374 . S
C1869 H1849 0.950 . S
C1869 C1865 1.385 . S
C1869 C1868 1.374 . S
C1870 C1867 1.499 . S
C1870 C1871 1.373 . S
C1870 C1872 1.389 . S
C1871 H1850 0.950 . S
C1871 C1870 1.373 . S
C1871 C1887 1.377 . S
C1872 C1870 1.389 . S
C1872 C1873 1.524 . S
C1872 C1886 1.377 . S
C1873 C1872 1.524 . S
C1873 C1874 1.397 . S
C1873 C1878 1.363 . S
C1874 H1851 0.950 . S
C1874 C1873 1.397 . S
C1874 C1875 1.334 . S
C1875 H1852 0.950 . S
C1875 C1874 1.334 . S
C1875 C1876 1.287 . S
C1876 C1875 1.287 . S
C1876 C1877 1.524 . S
C1876 H1895 0.913 . S
C1877 H1853 0.950 . S
C1877 C1876 1.524 . S
C1877 C1878 1.415 . S
C1878 H1854 0.950 . S
C1878 C1873 1.363 . S
C1878 C1877 1.415 . S
C1879 H1855 0.951 . S
C1879 C1880 1.366 . S
C1879 C1881 1.388 . S
C1880 C1879 1.366 . S
C1880 C1884 1.385 . S
C1881 H1856 0.951 . S
C1881 C1879 1.388 . S
C1881 C1882 1.366 . S
C1882 C1881 1.366 . S
C1882 C1883 1.414 . S
C1882 C1885 1.499 . S
C1883 H1857 0.950 . S
C1883 C1882 1.414 . S
C1883 C1884 1.374 . S
C1884 H1858 0.950 . S
C1884 C1880 1.385 . S
C1884 C1883 1.374 . S
C1885 C1882 1.499 . S
C1885 C1886 1.373 . S
C1885 C1887 1.389 . S
C1886 H1859 0.950 . S
C1886 C1872 1.377 . S
C1886 C1885 1.373 . S
C1887 C1871 1.377 . S
C1887 C1885 1.389 . S
C1887 C1888 1.524 . S
C1888 C1887 1.524 . S
C1888 C1889 1.397 . S
C1888 C1893 1.363 . S
C1889 H1860 0.950 . S
C1889 C1888 1.397 . S
C1889 C1890 1.334 . S
C1890 H1861 0.950 . S
C1890 C1889 1.334 . S
C1890 C1891 1.287 . S
C1891 C1890 1.287 . S
C1891 C1892 1.524 . S
C1891 H1894 0.999 1_554 S
C1892 H1862 0.950 1_554 S
C1892 C1891 1.524 . S
C1892 C1893 1.415 . S
C1893 H1863 0.950 . S
C1893 C1888 1.363 . S
C1893 C1892 1.415 . S
H1894 C1891 0.999 1_556 S
H1895 C1876 0.913 . S
H1896 C1914 0.951 . S
H1897 C1916 0.951 . S
H1898 C1918 0.950 . S
H1899 C1919 0.950 . S
H1900 C1921 0.950 . S
H1901 C1924 0.950 . S
H1902 C1925 0.950 . S
H1903 C1927 0.950 . S
H1904 C1928 0.950 . S
H1905 C1929 0.951 . S
H1906 C1931 0.951 . S
H1907 C1933 0.950 . S
H1908 C1934 0.950 . S
H1909 C1936 0.950 . S
H1910 C1939 0.950 . S
H1911 C1940 0.950 . S
H1912 C1942 0.950 . S
H1913 C1943 0.950 . S
C1914 H1896 0.951 . S
C1914 C1915 1.366 . S
C1914 C1916 1.388 . S
C1915 C1914 1.366 . S
C1915 C1919 1.385 . S
C1916 H1897 0.951 . S
C1916 C1914 1.388 . S
C1916 C1917 1.366 . S
C1917 C1916 1.366 . S
C1917 C1918 1.414 . S
C1917 C1920 1.499 . S
C1918 H1898 0.950 . S
C1918 C1917 1.414 . S
C1918 C1919 1.374 . S
C1919 H1899 0.950 . S
C1919 C1915 1.385 . S
C1919 C1918 1.374 . S
C1920 C1917 1.499 . S
C1920 C1921 1.373 . S
C1920 C1922 1.389 . S
C1921 H1900 0.950 . S
C1921 C1920 1.373 . S
C1921 C1937 1.377 . S
C1922 C1920 1.389 . S
C1922 C1923 1.524 . S
C1922 C1936 1.377 . S
C1923 C1922 1.524 . S
C1923 C1924 1.397 . S
C1923 C1928 1.363 . S
C1924 H1901 0.950 . S
C1924 C1923 1.397 . S
C1924 C1925 1.334 . S
C1925 H1902 0.950 . S
C1925 C1924 1.334 . S
C1925 C1926 1.287 . S
C1926 C1925 1.287 . S
C1926 C1927 1.524 . S
C1926 H1945 0.913 . S
C1927 H1903 0.950 . S
C1927 C1926 1.524 . S
C1927 C1928 1.415 . S
C1928 H1904 0.950 . S
C1928 C1923 1.363 . S
C1928 C1927 1.415 . S
C1929 H1905 0.951 . S
C1929 C1930 1.366 . S
C1929 C1931 1.388 . S
C1930 C1929 1.366 . S
C1930 C1934 1.385 . S
C1931 H1906 0.951 . S
C1931 C1929 1.388 . S
C1931 C1932 1.366 . S
C1932 C1931 1.366 . S
C1932 C1933 1.414 . S
C1932 C1935 1.499 . S
C1933 H1907 0.950 . S
C1933 C1932 1.414 . S
C1933 C1934 1.374 . S
C1934 H1908 0.950 . S
C1934 C1930 1.385 . S
C1934 C1933 1.374 . S
C1935 C1932 1.499 . S
C1935 C1936 1.373 . S
C1935 C1937 1.389 . S
C1936 H1909 0.950 . S
C1936 C1922 1.377 . S
C1936 C1935 1.373 . S
C1937 C1921 1.377 . S
C1937 C1935 1.389 . S
C1937 C1938 1.524 . S
C1938 C1937 1.524 . S
C1938 C1939 1.397 . S
C1938 C1943 1.363 . S
C1939 H1910 0.950 . S
C1939 C1938 1.397 . S
C1939 C1940 1.334 . S
C1940 H1911 0.950 . S
C1940 C1939 1.334 . S
C1940 C1941 1.287 . S
C1941 C1940 1.287 . S
C1941 C1942 1.524 . S
C1941 H1944 0.999 . S
C1942 H1912 0.950 . S
C1942 C1941 1.524 . S
C1942 C1943 1.415 . S
C1943 H1913 0.950 . S
C1943 C1938 1.363 . S
C1943 C1942 1.415 . S
H1944 C1941 0.999 . S
H1945 C1926 0.913 . S
H1946 C1964 0.951 . S
H1947 C1966 0.951 . S
H1948 C1968 0.950 . S
H1949 C1969 0.950 . S
H1950 C1971 0.950 . S
H1951 C1974 0.950 . S
H1952 C1975 0.950 . S
H1953 C1977 0.950 . S
H1954 C1978 0.950 . S
H1955 C1979 0.951 . S
H1956 C1981 0.951 . S
H1957 C1983 0.950 . S
H1958 C1984 0.950 . S
H1959 C1986 0.950 . S
H1960 C1989 0.950 . S
H1961 C1990 0.950 . S
H1962 C1992 0.950 . S
H1963 C1993 0.950 . S
C1964 H1946 0.951 . S
C1964 C1965 1.366 . S
C1964 C1966 1.388 . S
C1965 C1964 1.366 . S
C1965 C1969 1.385 . S
C1966 H1947 0.951 . S
C1966 C1964 1.388 . S
C1966 C1967 1.366 . S
C1967 C1966 1.366 . S
C1967 C1968 1.414 . S
C1967 C1970 1.499 . S
C1968 H1948 0.950 . S
C1968 C1967 1.414 . S
C1968 C1969 1.374 . S
C1969 H1949 0.950 . S
C1969 C1965 1.385 . S
C1969 C1968 1.374 . S
C1970 C1967 1.499 . S
C1970 C1971 1.373 . S
C1970 C1972 1.389 . S
C1971 H1950 0.950 . S
C1971 C1970 1.373 . S
C1971 C1987 1.377 . S
C1972 C1970 1.389 . S
C1972 C1973 1.524 . S
C1972 C1986 1.377 . S
C1973 C1972 1.524 . S
C1973 C1974 1.397 . S
C1973 C1978 1.363 . S
C1974 H1951 0.950 . S
C1974 C1973 1.397 . S
C1974 C1975 1.334 . S
C1975 H1952 0.950 . S
C1975 C1974 1.334 . S
C1975 C1976 1.287 . S
C1976 C1975 1.287 . S
C1976 C1977 1.524 . S
C1976 H1995 0.913 . S
C1977 H1953 0.950 . S
C1977 C1976 1.524 . S
C1977 C1978 1.415 . S
C1978 H1954 0.950 . S
C1978 C1973 1.363 . S
C1978 C1977 1.415 . S
C1979 H1955 0.951 . S
C1979 C1980 1.366 . S
C1979 C1981 1.388 . S
C1980 C1979 1.366 . S
C1980 C1984 1.385 . S
C1981 H1956 0.951 . S
C1981 C1979 1.388 . S
C1981 C1982 1.366 . S
C1982 C1981 1.366 . S
C1982 C1983 1.414 . S
C1982 C1985 1.499 . S
C1983 H1957 0.950 . S
C1983 C1982 1.414 . S
C1983 C1984 1.374 . S
C1984 H1958 0.950 . S
C1984 C1980 1.385 . S
C1984 C1983 1.374 . S
C1985 C1982 1.499 . S
C1985 C1986 1.373 . S
C1985 C1987 1.389 . S
C1986 H1959 0.950 . S
C1986 C1972 1.377 . S
C1986 C1985 1.373 . S
C1987 C1971 1.377 . S
C1987 C1985 1.389 . S
C1987 C1988 1.524 . S
C1988 C1987 1.524 . S
C1988 C1989 1.397 . S
C1988 C1993 1.363 . S
C1989 H1960 0.950 . S
C1989 C1988 1.397 . S
C1989 C1990 1.334 . S
C1990 H1961 0.950 . S
C1990 C1989 1.334 . S
C1990 C1991 1.287 . S
C1991 C1990 1.287 . S
C1991 C1992 1.524 . S
C1991 H1994 0.999 . S
C1992 H1962 0.950 . S
C1992 C1991 1.524 . S
C1992 C1993 1.415 . S
C1993 H1963 0.950 . S
C1993 C1988 1.363 . S
C1993 C1992 1.415 . S
H1994 C1991 0.999 . S
H1995 C1976 0.913 . S
H1996 C2014 0.951 . S
H1997 C2016 0.951 . S
H1998 C2018 0.950 . S
H1999 C2019 0.950 . S
H2000 C2021 0.950 . S
H2001 C2024 0.950 . S
H2002 C2025 0.950 . S
H2003 C2027 0.950 . S
H2004 C2028 0.950 . S
H2005 C2029 0.951 . S
H2006 C2031 0.951 . S
H2007 C2033 0.950 . S
H2008 C2034 0.950 . S
H2009 C2036 0.950 . S
H2010 C2039 0.950 . S
H2011 C2040 0.950 . S
H2012 C2042 0.950 . S
H2013 C2043 0.950 . S
C2014 H1996 0.951 . S
C2014 C2015 1.366 . S
C2014 C2016 1.388 . S
C2015 C2014 1.366 . S
C2015 C2019 1.385 . S
C2016 H1997 0.951 . S
C2016 C2014 1.388 . S
C2016 C2017 1.366 . S
C2017 C2016 1.366 . S
C2017 C2018 1.414 . S
C2017 C2020 1.499 . S
C2018 H1998 0.950 . S
C2018 C2017 1.414 . S
C2018 C2019 1.374 . S
C2019 H1999 0.950 . S
C2019 C2015 1.385 . S
C2019 C2018 1.374 . S
C2020 C2017 1.499 . S
C2020 C2021 1.373 . S
C2020 C2022 1.389 . S
C2021 H2000 0.950 . S
C2021 C2020 1.373 . S
C2021 C2037 1.377 . S
C2022 C2020 1.389 . S
C2022 C2023 1.524 . S
C2022 C2036 1.377 . S
C2023 C2022 1.524 . S
C2023 C2024 1.397 . S
C2023 C2028 1.363 . S
C2024 H2001 0.950 . S
C2024 C2023 1.397 . S
C2024 C2025 1.334 . S
C2025 H2002 0.950 . S
C2025 C2024 1.334 . S
C2025 C2026 1.287 . S
C2026 C2025 1.287 . S
C2026 C2027 1.524 . S
C2026 H2045 0.913 . S
C2027 H2003 0.950 . S
C2027 C2026 1.524 . S
C2027 C2028 1.415 . S
C2028 H2004 0.950 . S
C2028 C2023 1.363 . S
C2028 C2027 1.415 . S
C2029 H2005 0.951 . S
C2029 C2030 1.366 . S
C2029 C2031 1.388 . S
C2030 C2029 1.366 . S
C2030 C2034 1.385 . S
C2031 H2006 0.951 . S
C2031 C2029 1.388 . S
C2031 C2032 1.366 . S
C2032 C2031 1.366 . S
C2032 C2033 1.414 . S
C2032 C2035 1.499 . S
C2033 H2007 0.950 . S
C2033 C2032 1.414 . S
C2033 C2034 1.374 . S
C2034 H2008 0.950 . S
C2034 C2030 1.385 . S
C2034 C2033 1.374 . S
C2035 C2032 1.499 . S
C2035 C2036 1.373 . S
C2035 C2037 1.389 . S
C2036 H2009 0.950 . S
C2036 C2022 1.377 . S
C2036 C2035 1.373 . S
C2037 C2021 1.377 . S
C2037 C2035 1.389 . S
C2037 C2038 1.524 . S
C2038 C2037 1.524 . S
C2038 C2039 1.397 . S
C2038 C2043 1.363 . S
C2039 H2010 0.950 . S
C2039 C2038 1.397 . S
C2039 C2040 1.334 . S
C2040 H2011 0.950 . S
C2040 C2039 1.334 . S
C2040 C2041 1.287 . S
C2041 C2040 1.287 . S
C2041 C2042 1.524 . S
C2041 H2044 0.999 . S
C2042 H2012 0.950 . S
C2042 C2041 1.524 . S
C2042 C2043 1.415 . S
C2043 H2013 0.950 . S
C2043 C2038 1.363 . S
C2043 C2042 1.415 . S
H2044 C2041 0.999 . S
H2045 C2026 0.913 . S
H2046 C2064 0.951 . S
H2047 C2066 0.951 . S
H2048 C2068 0.950 . S
H2049 C2069 0.950 . S
H2050 C2071 0.950 . S
H2051 C2074 0.950 . S
H2052 C2075 0.950 . S
H2053 C2077 0.950 . S
H2054 C2078 0.950 . S
H2055 C2079 0.951 . S
H2056 C2081 0.951 . S
H2057 C2083 0.950 . S
H2058 C2084 0.950 . S
H2059 C2086 0.950 . S
H2060 C2089 0.950 . S
H2061 C2090 0.950 . S
H2062 C2092 0.950 . S
H2063 C2093 0.950 . S
C2064 H2046 0.951 . S
C2064 C2065 1.366 . S
C2064 C2066 1.388 . S
C2065 C2064 1.366 . S
C2065 C2069 1.385 . S
C2066 H2047 0.951 . S
C2066 C2064 1.388 . S
C2066 C2067 1.366 . S
C2067 C2066 1.366 . S
C2067 C2068 1.414 . S
C2067 C2070 1.499 . S
C2068 H2048 0.950 . S
C2068 C2067 1.414 . S
C2068 C2069 1.374 . S
C2069 H2049 0.950 . S
C2069 C2065 1.385 . S
C2069 C2068 1.374 . S
C2070 C2067 1.499 . S
C2070 C2071 1.373 . S
C2070 C2072 1.389 . S
C2071 H2050 0.950 . S
C2071 C2070 1.373 . S
C2071 C2087 1.377 . S
C2072 C2070 1.389 . S
C2072 C2073 1.524 . S
C2072 C2086 1.377 . S
C2073 C2072 1.524 . S
C2073 C2074 1.397 . S
C2073 C2078 1.363 . S
C2074 H2051 0.950 . S
C2074 C2073 1.397 . S
C2074 C2075 1.334 . S
C2075 H2052 0.950 . S
C2075 C2074 1.334 . S
C2075 C2076 1.287 . S
C2076 C2075 1.287 . S
C2076 C2077 1.524 . S
C2076 H2095 0.913 . S
C2077 H2053 0.950 . S
C2077 C2076 1.524 . S
C2077 C2078 1.415 . S
C2078 H2054 0.950 . S
C2078 C2073 1.363 . S
C2078 C2077 1.415 . S
C2079 H2055 0.951 . S
C2079 C2080 1.366 . S
C2079 C2081 1.388 . S
C2080 C2079 1.366 . S
C2080 C2084 1.385 . S
C2081 H2056 0.951 . S
C2081 C2079 1.388 . S
C2081 C2082 1.366 . S
C2082 C2081 1.366 . S
C2082 C2083 1.414 . S
C2082 C2085 1.499 . S
C2083 H2057 0.950 . S
C2083 C2082 1.414 . S
C2083 C2084 1.374 . S
C2084 H2058 0.950 . S
C2084 C2080 1.385 . S
C2084 C2083 1.374 . S
C2085 C2082 1.499 . S
C2085 C2086 1.373 . S
C2085 C2087 1.389 . S
C2086 H2059 0.950 . S
C2086 C2072 1.377 . S
C2086 C2085 1.373 . S
C2087 C2071 1.377 . S
C2087 C2085 1.389 . S
C2087 C2088 1.524 . S
C2088 C2087 1.524 . S
C2088 C2089 1.397 . S
C2088 C2093 1.363 . S
C2089 H2060 0.950 . S
C2089 C2088 1.397 . S
C2089 C2090 1.334 . S
C2090 H2061 0.950 . S
C2090 C2089 1.334 . S
C2090 C2091 1.287 . S
C2091 C2090 1.287 . S
C2091 C2092 1.524 . S
C2091 H2094 0.999 . S
C2092 H2062 0.950 . S
C2092 C2091 1.524 . S
C2092 C2093 1.415 . S
C2093 H2063 0.950 . S
C2093 C2088 1.363 . S
C2093 C2092 1.415 . S
H2094 C2091 0.999 . S
H2095 C2076 0.913 . S
H2096 C2114 0.951 . S
H2097 C2116 0.951 . S
H2098 C2118 0.950 . S
H2099 C2119 0.950 . S
H2100 C2121 0.950 . S
H2101 C2124 0.950 . S
H2102 C2125 0.950 . S
H2103 C2127 0.950 . S
H2104 C2128 0.950 . S
H2105 C2129 0.951 . S
H2106 C2131 0.951 . S
H2107 C2133 0.950 . S
H2108 C2134 0.950 . S
H2109 C2136 0.950 . S
H2110 C2139 0.950 . S
H2111 C2140 0.950 . S
H2112 C2142 0.950 . S
H2113 C2143 0.950 . S
C2114 H2096 0.951 . S
C2114 C2115 1.366 . S
C2114 C2116 1.388 . S
C2115 C2114 1.366 . S
C2115 C2119 1.385 . S
C2116 H2097 0.951 . S
C2116 C2114 1.388 . S
C2116 C2117 1.366 . S
C2117 C2116 1.366 . S
C2117 C2118 1.414 . S
C2117 C2120 1.499 . S
C2118 H2098 0.950 . S
C2118 C2117 1.414 . S
C2118 C2119 1.374 . S
C2119 H2099 0.950 . S
C2119 C2115 1.385 . S
C2119 C2118 1.374 . S
C2120 C2117 1.499 . S
C2120 C2121 1.373 . S
C2120 C2122 1.389 . S
C2121 H2100 0.950 . S
C2121 C2120 1.373 . S
C2121 C2137 1.377 . S
C2122 C2120 1.389 . S
C2122 C2123 1.524 . S
C2122 C2136 1.377 . S
C2123 C2122 1.524 . S
C2123 C2124 1.397 . S
C2123 C2128 1.363 . S
C2124 H2101 0.950 . S
C2124 C2123 1.397 . S
C2124 C2125 1.334 . S
C2125 H2102 0.950 . S
C2125 C2124 1.334 . S
C2125 C2126 1.287 . S
C2126 C2125 1.287 . S
C2126 C2127 1.524 . S
C2126 H2145 0.913 . S
C2127 H2103 0.950 . S
C2127 C2126 1.524 . S
C2127 C2128 1.415 . S
C2128 H2104 0.950 . S
C2128 C2123 1.363 . S
C2128 C2127 1.415 . S
C2129 H2105 0.951 . S
C2129 C2130 1.366 . S
C2129 C2131 1.388 . S
C2130 C2129 1.366 . S
C2130 C2134 1.385 . S
C2131 H2106 0.951 . S
C2131 C2129 1.388 . S
C2131 C2132 1.366 . S
C2132 C2131 1.366 . S
C2132 C2133 1.414 . S
C2132 C2135 1.499 . S
C2133 H2107 0.950 . S
C2133 C2132 1.414 . S
C2133 C2134 1.374 . S
C2134 H2108 0.950 . S
C2134 C2130 1.385 . S
C2134 C2133 1.374 . S
C2135 C2132 1.499 . S
C2135 C2136 1.373 . S
C2135 C2137 1.389 . S
C2136 H2109 0.950 . S
C2136 C2122 1.377 . S
C2136 C2135 1.373 . S
C2137 C2121 1.377 . S
C2137 C2135 1.389 . S
C2137 C2138 1.524 . S
C2138 C2137 1.524 . S
C2138 C2139 1.397 . S
C2138 C2143 1.363 . S
C2139 H2110 0.950 . S
C2139 C2138 1.397 . S
C2139 C2140 1.334 . S
C2140 H2111 0.950 . S
C2140 C2139 1.334 . S
C2140 C2141 1.287 . S
C2141 C2140 1.287 . S
C2141 C2142 1.524 . S
C2141 H2144 0.999 . S
C2142 H2112 0.950 . S
C2142 C2141 1.524 . S
C2142 C2143 1.415 . S
C2143 H2113 0.950 . S
C2143 C2138 1.363 . S
C2143 C2142 1.415 . S
H2144 C2141 0.999 . S
H2145 C2126 0.913 . S
H2146 C2164 0.951 . S
H2147 C2166 0.951 . S
H2148 C2168 0.950 . S
H2149 C2169 0.950 . S
H2150 C2171 0.950 . S
H2151 C2174 0.950 . S
H2152 C2175 0.950 . S
H2153 C2177 0.950 . S
H2154 C2178 0.950 . S
H2155 C2179 0.951 . S
H2156 C2181 0.951 . S
H2157 C2183 0.950 . S
H2158 C2184 0.950 . S
H2159 C2186 0.950 . S
H2160 C2189 0.950 . S
H2161 C2190 0.950 . S
H2162 C2192 0.950 . S
H2163 C2193 0.950 . S
C2164 H2146 0.951 . S
C2164 C2165 1.366 . S
C2164 C2166 1.388 . S
C2165 C2164 1.366 . S
C2165 C2169 1.385 . S
C2166 H2147 0.951 . S
C2166 C2164 1.388 . S
C2166 C2167 1.366 . S
C2167 C2166 1.366 . S
C2167 C2168 1.414 . S
C2167 C2170 1.499 . S
C2168 H2148 0.950 . S
C2168 C2167 1.414 . S
C2168 C2169 1.374 . S
C2169 H2149 0.950 . S
C2169 C2165 1.385 . S
C2169 C2168 1.374 . S
C2170 C2167 1.499 . S
C2170 C2171 1.373 . S
C2170 C2172 1.389 . S
C2171 H2150 0.950 . S
C2171 C2170 1.373 . S
C2171 C2187 1.377 . S
C2172 C2170 1.389 . S
C2172 C2173 1.524 . S
C2172 C2186 1.377 . S
C2173 C2172 1.524 . S
C2173 C2174 1.397 . S
C2173 C2178 1.363 . S
C2174 H2151 0.950 . S
C2174 C2173 1.397 . S
C2174 C2175 1.334 . S
C2175 H2152 0.950 . S
C2175 C2174 1.334 . S
C2175 C2176 1.287 . S
C2176 C2175 1.287 . S
C2176 C2177 1.524 . S
C2176 H2195 0.913 . S
C2177 H2153 0.950 . S
C2177 C2176 1.524 . S
C2177 C2178 1.415 . S
C2178 H2154 0.950 . S
C2178 C2173 1.363 . S
C2178 C2177 1.415 . S
C2179 H2155 0.951 . S
C2179 C2180 1.366 . S
C2179 C2181 1.388 . S
C2180 C2179 1.366 . S
C2180 C2184 1.385 . S
C2181 H2156 0.951 . S
C2181 C2179 1.388 . S
C2181 C2182 1.366 . S
C2182 C2181 1.366 . S
C2182 C2183 1.414 . S
C2182 C2185 1.499 . S
C2183 H2157 0.950 . S
C2183 C2182 1.414 . S
C2183 C2184 1.374 . S
C2184 H2158 0.950 . S
C2184 C2180 1.385 . S
C2184 C2183 1.374 . S
C2185 C2182 1.499 . S
C2185 C2186 1.373 . S
C2185 C2187 1.389 . S
C2186 H2159 0.950 . S
C2186 C2172 1.377 . S
C2186 C2185 1.373 . S
C2187 C2171 1.377 . S
C2187 C2185 1.389 . S
C2187 C2188 1.524 . S
C2188 C2187 1.524 . S
C2188 C2189 1.397 . S
C2188 C2193 1.363 . S
C2189 H2160 0.950 . S
C2189 C2188 1.397 . S
C2189 C2190 1.334 . S
C2190 H2161 0.950 . S
C2190 C2189 1.334 . S
C2190 C2191 1.287 . S
C2191 C2190 1.287 . S
C2191 C2192 1.524 . S
C2191 H2194 0.999 . S
C2192 H2162 0.950 . S
C2192 C2191 1.524 . S
C2192 C2193 1.415 . S
C2193 H2163 0.950 . S
C2193 C2188 1.363 . S
C2193 C2192 1.415 . S
H2194 C2191 0.999 . S
H2195 C2176 0.913 . S
H2196 C2214 0.951 . S
H2197 C2216 0.951 . S
H2198 C2218 0.950 . S
H2199 C2219 0.950 . S
H2200 C2221 0.950 . S
H2201 C2224 0.950 . S
H2202 C2225 0.950 . S
H2203 C2227 0.950 . S
H2204 C2228 0.950 . S
H2205 C2229 0.951 . S
H2206 C2231 0.951 . S
H2207 C2233 0.950 . S
H2208 C2234 0.950 . S
H2209 C2236 0.950 . S
H2210 C2239 0.950 . S
H2211 C2240 0.950 . S
H2212 C2242 0.950 . S
H2213 C2243 0.950 . S
C2214 H2196 0.951 . S
C2214 C2215 1.366 . S
C2214 C2216 1.388 . S
C2215 C2214 1.366 . S
C2215 C2219 1.385 . S
C2216 H2197 0.951 . S
C2216 C2214 1.388 . S
C2216 C2217 1.366 . S
C2217 C2216 1.366 . S
C2217 C2218 1.414 . S
C2217 C2220 1.499 . S
C2218 H2198 0.950 . S
C2218 C2217 1.414 . S
C2218 C2219 1.374 . S
C2219 H2199 0.950 . S
C2219 C2215 1.385 . S
C2219 C2218 1.374 . S
C2220 C2217 1.499 . S
C2220 C2221 1.373 . S
C2220 C2222 1.389 . S
C2221 H2200 0.950 . S
C2221 C2220 1.373 . S
C2221 C2237 1.377 . S
C2222 C2220 1.389 . S
C2222 C2223 1.524 . S
C2222 C2236 1.377 . S
C2223 C2222 1.524 . S
C2223 C2224 1.397 . S
C2223 C2228 1.363 . S
C2224 H2201 0.950 . S
C2224 C2223 1.397 . S
C2224 C2225 1.334 . S
C2225 H2202 0.950 . S
C2225 C2224 1.334 . S
C2225 C2226 1.287 . S
C2226 C2225 1.287 . S
C2226 C2227 1.524 . S
C2226 H2245 0.913 . S
C2227 H2203 0.950 . S
C2227 C2226 1.524 . S
C2227 C2228 1.415 . S
C2228 H2204 0.950 . S
C2228 C2223 1.363 . S
C2228 C2227 1.415 . S
C2229 H2205 0.951 . S
C2229 C2230 1.366 . S
C2229 C2231 1.388 . S
C2230 C2229 1.366 . S
C2230 C2234 1.385 . S
C2231 H2206 0.951 . S
C2231 C2229 1.388 . S
C2231 C2232 1.366 . S
C2232 C2231 1.366 . S
C2232 C2233 1.414 . S
C2232 C2235 1.499 . S
C2233 H2207 0.950 . S
C2233 C2232 1.414 . S
C2233 C2234 1.374 . S
C2234 H2208 0.950 . S
C2234 C2230 1.385 . S
C2234 C2233 1.374 . S
C2235 C2232 1.499 . S
C2235 C2236 1.373 . S
C2235 C2237 1.389 . S
C2236 H2209 0.950 . S
C2236 C2222 1.377 . S
C2236 C2235 1.373 . S
C2237 C2221 1.377 . S
C2237 C2235 1.389 . S
C2237 C2238 1.524 . S
C2238 C2237 1.524 . S
C2238 C2239 1.397 . S
C2238 C2243 1.363 . S
C2239 H2210 0.950 . S
C2239 C2238 1.397 . S
C2239 C2240 1.334 . S
C2240 H2211 0.950 . S
C2240 C2239 1.334 . S
C2240 C2241 1.287 . S
C2241 C2240 1.287 . S
C2241 C2242 1.524 . S
C2241 H2244 0.999 . S
C2242 H2212 0.950 . S
C2242 C2241 1.524 . S
C2242 C2243 1.415 . S
C2243 H2213 0.950 . S
C2243 C2238 1.363 . S
C2243 C2242 1.415 . S
H2244 C2241 0.999 . S
H2245 C2226 0.913 . S
H2246 C2264 0.951 . S
H2247 C2266 0.951 . S
H2248 C2268 0.950 . S
H2249 C2269 0.950 . S
H2250 C2271 0.950 . S
H2251 C2274 0.950 . S
H2252 C2275 0.950 . S
H2253 C2277 0.950 . S
H2254 C2278 0.950 . S
H2255 C2279 0.951 . S
H2256 C2281 0.951 . S
H2257 C2283 0.950 . S
H2258 C2284 0.950 . S
H2259 C2286 0.950 . S
H2260 C2289 0.950 . S
H2261 C2290 0.950 . S
H2262 C2292 0.950 . S
H2263 C2293 0.950 . S
C2264 H2246 0.951 . S
C2264 C2265 1.366 . S
C2264 C2266 1.388 . S
C2265 C2264 1.366 . S
C2265 C2269 1.385 . S
C2266 H2247 0.951 . S
C2266 C2264 1.388 . S
C2266 C2267 1.366 . S
C2267 C2266 1.366 . S
C2267 C2268 1.414 . S
C2267 C2270 1.499 . S
C2268 H2248 0.950 . S
C2268 C2267 1.414 . S
C2268 C2269 1.374 . S
C2269 H2249 0.950 . S
C2269 C2265 1.385 . S
C2269 C2268 1.374 . S
C2270 C2267 1.499 . S
C2270 C2271 1.373 . S
C2270 C2272 1.389 . S
C2271 H2250 0.950 . S
C2271 C2270 1.373 . S
C2271 C2287 1.377 . S
C2272 C2270 1.389 . S
C2272 C2273 1.524 . S
C2272 C2286 1.377 . S
C2273 C2272 1.524 . S
C2273 C2274 1.397 . S
C2273 C2278 1.363 . S
C2274 H2251 0.950 . S
C2274 C2273 1.397 . S
C2274 C2275 1.334 . S
C2275 H2252 0.950 . S
C2275 C2274 1.334 . S
C2275 C2276 1.287 . S
C2276 C2275 1.287 . S
C2276 C2277 1.524 . S
C2276 H2295 0.913 . S
C2277 H2253 0.950 . S
C2277 C2276 1.524 . S
C2277 C2278 1.415 . S
C2278 H2254 0.950 . S
C2278 C2273 1.363 . S
C2278 C2277 1.415 . S
C2279 H2255 0.951 . S
C2279 C2280 1.366 . S
C2279 C2281 1.388 . S
C2280 C2279 1.366 . S
C2280 C2284 1.385 . S
C2281 H2256 0.951 . S
C2281 C2279 1.388 . S
C2281 C2282 1.366 . S
C2282 C2281 1.366 . S
C2282 C2283 1.414 . S
C2282 C2285 1.499 . S
C2283 H2257 0.950 . S
C2283 C2282 1.414 . S
C2283 C2284 1.374 . S
C2284 H2258 0.950 . S
C2284 C2280 1.385 . S
C2284 C2283 1.374 . S
C2285 C2282 1.499 . S
C2285 C2286 1.373 . S
C2285 C2287 1.389 . S
C2286 H2259 0.950 . S
C2286 C2272 1.377 . S
C2286 C2285 1.373 . S
C2287 C2271 1.377 . S
C2287 C2285 1.389 . S
C2287 C2288 1.524 . S
C2288 C2287 1.524 . S
C2288 C2289 1.397 . S
C2288 C2293 1.363 . S
C2289 H2260 0.950 . S
C2289 C2288 1.397 . S
C2289 C2290 1.334 . S
C2290 H2261 0.950 . S
C2290 C2289 1.334 . S
C2290 C2291 1.287 . S
C2291 C2290 1.287 . S
C2291 C2292 1.524 . S
C2291 H2294 0.999 . S
C2292 H2262 0.950 . S
C2292 C2291 1.524 . S
C2292 C2293 1.415 . S
C2293 H2263 0.950 . S
C2293 C2288 1.363 . S
C2293 C2292 1.415 . S
H2294 C2291 0.999 . S
H2295 C2276 0.913 . S
H2296 C2314 0.951 . S
H2297 C2316 0.951 . S
H2298 C2318 0.950 . S
H2299 C2319 0.950 . S
H2300 C2321 0.950 . S
H2301 C2324 0.950 . S
H2302 C2325 0.950 . S
H2303 C2327 0.950 . S
H2304 C2328 0.950 . S
H2305 C2329 0.951 . S
H2306 C2331 0.951 . S
H2307 C2333 0.950 . S
H2308 C2334 0.950 . S
H2309 C2336 0.950 . S
H2310 C2339 0.950 . S
H2311 C2340 0.950 . S
H2312 C2342 0.950 . S
H2313 C2343 0.950 . S
C2314 H2296 0.951 . S
C2314 C2315 1.366 . S
C2314 C2316 1.388 . S
C2315 C2314 1.366 . S
C2315 C2319 1.385 . S
C2316 H2297 0.951 . S
C2316 C2314 1.388 . S
C2316 C2317 1.366 . S
C2317 C2316 1.366 . S
C2317 C2318 1.414 . S
C2317 C2320 1.499 . S
C2318 H2298 0.950 . S
C2318 C2317 1.414 . S
C2318 C2319 1.374 . S
C2319 H2299 0.950 . S
C2319 C2315 1.385 . S
C2319 C2318 1.374 . S
C2320 C2317 1.499 . S
C2320 C2321 1.373 . S
C2320 C2322 1.389 . S
C2321 H2300 0.950 . S
C2321 C2320 1.373 . S
C2321 C2337 1.377 . S
C2322 C2320 1.389 . S
C2322 C2323 1.524 . S
C2322 C2336 1.377 . S
C2323 C2322 1.524 . S
C2323 C2324 1.397 . S
C2323 C2328 1.363 . S
C2324 H2301 0.950 . S
C2324 C2323 1.397 . S
C2324 C2325 1.334 . S
C2325 H2302 0.950 . S
C2325 C2324 1.334 . S
C2325 C2326 1.287 . S
C2326 C2325 1.287 . S
C2326 C2327 1.524 . S
C2326 H2345 0.913 . S
C2327 H2303 0.950 . S
C2327 C2326 1.524 . S
C2327 C2328 1.415 . S
C2328 H2304 0.950 . S
C2328 C2323 1.363 . S
C2328 C2327 1.415 . S
C2329 H2305 0.951 . S
C2329 C2330 1.366 . S
C2329 C2331 1.388 . S
C2330 C2329 1.366 . S
C2330 C2334 1.385 . S
C2331 H2306 0.951 . S
C2331 C2329 1.388 . S
C2331 C2332 1.366 . S
C2332 C2331 1.366 . S
C2332 C2333 1.414 . S
C2332 C2335 1.499 . S
C2333 H2307 0.950 . S
C2333 C2332 1.414 . S
C2333 C2334 1.374 . S
C2334 H2308 0.950 . S
C2334 C2330 1.385 . S
C2334 C2333 1.374 . S
C2335 C2332 1.499 . S
C2335 C2336 1.373 . S
C2335 C2337 1.389 . S
C2336 H2309 0.950 . S
C2336 C2322 1.377 . S
C2336 C2335 1.373 . S
C2337 C2321 1.377 . S
C2337 C2335 1.389 . S
C2337 C2338 1.524 . S
C2338 C2337 1.524 . S
C2338 C2339 1.397 . S
C2338 C2343 1.363 . S
C2339 H2310 0.950 . S
C2339 C2338 1.397 . S
C2339 C2340 1.334 . S
C2340 H2311 0.950 . S
C2340 C2339 1.334 . S
C2340 C2341 1.287 . S
C2341 C2340 1.287 . S
C2341 C2342 1.524 . S
C2341 H2344 0.999 . S
C2342 H2312 0.950 . S
C2342 C2341 1.524 . S
C2342 C2343 1.415 . S
C2343 H2313 0.950 . S
C2343 C2338 1.363 . S
C2343 C2342 1.415 . S
H2344 C2341 0.999 . S
H2345 C2326 0.913 . S
H2346 C2364 0.951 . S
H2347 C2366 0.951 . S
H2348 C2368 0.950 . S
H2349 C2369 0.950 . S
H2350 C2371 0.950 . S
H2351 C2374 0.950 . S
H2352 C2375 0.950 . S
H2353 C2377 0.950 . S
H2354 C2378 0.950 . S
H2355 C2379 0.951 . S
H2356 C2381 0.951 . S
H2357 C2383 0.950 . S
H2358 C2384 0.950 . S
H2359 C2386 0.950 . S
H2360 C2389 0.950 . S
H2361 C2390 0.950 . S
H2362 C2392 0.950 . S
H2363 C2393 0.950 . S
C2364 H2346 0.951 . S
C2364 C2365 1.366 . S
C2364 C2366 1.388 . S
C2365 C2364 1.366 . S
C2365 C2369 1.385 . S
C2366 H2347 0.951 . S
C2366 C2364 1.388 . S
C2366 C2367 1.366 . S
C2367 C2366 1.366 . S
C2367 C2368 1.414 . S
C2367 C2370 1.499 . S
C2368 H2348 0.950 . S
C2368 C2367 1.414 . S
C2368 C2369 1.374 . S
C2369 H2349 0.950 . S
C2369 C2365 1.385 . S
C2369 C2368 1.374 . S
C2370 C2367 1.499 . S
C2370 C2371 1.373 . S
C2370 C2372 1.389 . S
C2371 H2350 0.950 . S
C2371 C2370 1.373 . S
C2371 C2387 1.377 . S
C2372 C2370 1.389 . S
C2372 C2373 1.524 . S
C2372 C2386 1.377 . S
C2373 C2372 1.524 . S
C2373 C2374 1.397 . S
C2373 C2378 1.363 . S
C2374 H2351 0.950 . S
C2374 C2373 1.397 . S
C2374 C2375 1.334 . S
C2375 H2352 0.950 . S
C2375 C2374 1.334 . S
C2375 C2376 1.287 . S
C2376 C2375 1.287 . S
C2376 C2377 1.524 . S
C2376 H2395 0.913 . S
C2377 H2353 0.950 . S
C2377 C2376 1.524 . S
C2377 C2378 1.415 . S
C2378 H2354 0.950 . S
C2378 C2373 1.363 . S
C2378 C2377 1.415 . S
C2379 H2355 0.951 . S
C2379 C2380 1.366 . S
C2379 C2381 1.388 . S
C2380 C2379 1.366 . S
C2380 C2384 1.385 . S
C2381 H2356 0.951 . S
C2381 C2379 1.388 . S
C2381 C2382 1.366 . S
C2382 C2381 1.366 . S
C2382 C2383 1.414 . S
C2382 C2385 1.499 . S
C2383 H2357 0.950 . S
C2383 C2382 1.414 . S
C2383 C2384 1.374 . S
C2384 H2358 0.950 . S
C2384 C2380 1.385 . S
C2384 C2383 1.374 . S
C2385 C2382 1.499 . S
C2385 C2386 1.373 . S
C2385 C2387 1.389 . S
C2386 H2359 0.950 . S
C2386 C2372 1.377 . S
C2386 C2385 1.373 . S
C2387 C2371 1.377 . S
C2387 C2385 1.389 . S
C2387 C2388 1.524 . S
C2388 C2387 1.524 . S
C2388 C2389 1.397 . S
C2388 C2393 1.363 . S
C2389 H2360 0.950 . S
C2389 C2388 1.397 . S
C2389 C2390 1.334 . S
C2390 H2361 0.950 . S
C2390 C2389 1.334 . S
C2390 C2391 1.287 . S
C2391 C2390 1.287 . S
C2391 C2392 1.524 . S
C2391 H2394 0.999 . S
C2392 H2362 0.950 . S
C2392 C2391 1.524 . S
C2392 C2393 1.415 . S
C2393 H2363 0.950 . S
C2393 C2388 1.363 . S
C2393 C2392 1.415 . S
H2394 C2391 0.999 . S
H2395 C2376 0.913 . S
H2396 C2414 0.951 . S
H2397 C2416 0.951 . S
H2398 C2418 0.950 . S
H2399 C2419 0.950 . S
H2400 C2421 0.950 . S
H2401 C2424 0.950 . S
H2402 C2425 0.950 . S
H2403 C2427 0.950 . S
H2404 C2428 0.950 . S
H2405 C2429 0.951 . S
H2406 C2431 0.951 . S
H2407 C2433 0.950 . S
H2408 C2434 0.950 . S
H2409 C2436 0.950 . S
H2410 C2439 0.950 . S
H2411 C2440 0.950 . S
H2412 C2442 0.950 . S
H2413 C2443 0.950 . S
C2414 H2396 0.951 . S
C2414 C2415 1.366 . S
C2414 C2416 1.388 . S
C2415 C2414 1.366 . S
C2415 C2419 1.385 . S
C2416 H2397 0.951 . S
C2416 C2414 1.388 . S
C2416 C2417 1.366 . S
C2417 C2416 1.366 . S
C2417 C2418 1.414 . S
C2417 C2420 1.499 . S
C2418 H2398 0.950 . S
C2418 C2417 1.414 . S
C2418 C2419 1.374 . S
C2419 H2399 0.950 . S
C2419 C2415 1.385 . S
C2419 C2418 1.374 . S
C2420 C2417 1.499 . S
C2420 C2421 1.373 . S
C2420 C2422 1.389 . S
C2421 H2400 0.950 . S
C2421 C2420 1.373 . S
C2421 C2437 1.377 . S
C2422 C2420 1.389 . S
C2422 C2423 1.524 . S
C2422 C2436 1.377 . S
C2423 C2422 1.524 . S
C2423 C2424 1.397 . S
C2423 C2428 1.363 . S
C2424 H2401 0.950 . S
C2424 C2423 1.397 . S
C2424 C2425 1.334 . S
C2425 H2402 0.950 . S
C2425 C2424 1.334 . S
C2425 C2426 1.287 . S
C2426 C2425 1.287 . S
C2426 C2427 1.524 . S
C2426 H2445 0.913 . S
C2427 H2403 0.950 . S
C2427 C2426 1.524 . S
C2427 C2428 1.415 . S
C2428 H2404 0.950 . S
C2428 C2423 1.363 . S
C2428 C2427 1.415 . S
C2429 H2405 0.951 . S
C2429 C2430 1.366 . S
C2429 C2431 1.388 . S
C2430 C2429 1.366 . S
C2430 C2434 1.385 . S
C2431 H2406 0.951 . S
C2431 C2429 1.388 . S
C2431 C2432 1.366 . S
C2432 C2431 1.366 . S
C2432 C2433 1.414 . S
C2432 C2435 1.499 . S
C2433 H2407 0.950 . S
C2433 C2432 1.414 . S
C2433 C2434 1.374 . S
C2434 H2408 0.950 . S
C2434 C2430 1.385 . S
C2434 C2433 1.374 . S
C2435 C2432 1.499 . S
C2435 C2436 1.373 . S
C2435 C2437 1.389 . S
C2436 H2409 0.950 . S
C2436 C2422 1.377 . S
C2436 C2435 1.373 . S
C2437 C2421 1.377 . S
C2437 C2435 1.389 . S
C2437 C2438 1.524 . S
C2438 C2437 1.524 . S
C2438 C2439 1.397 . S
C2438 C2443 1.363 . S
C2439 H2410 0.950 . S
C2439 C2438 1.397 . S
C2439 C2440 1.334 . S
C2440 H2411 0.950 . S
C2440 C2439 1.334 . S
C2440 C2441 1.287 . S
C2441 C2440 1.287 . S
C2441 C2442 1.524 . S
C2441 H2444 0.999 . S
C2442 H2412 0.950 . S
C2442 C2441 1.524 . S
C2442 C2443 1.415 . S
C2443 H2413 0.950 . S
C2443 C2438 1.363 . S
C2443 C2442 1.415 . S
H2444 C2441 0.999 . S
H2445 C2426 0.913 . S
H2446 C2464 0.951 . S
H2447 C2466 0.951 . S
H2448 C2468 0.950 . S
H2449 C2469 0.950 . S
H2450 C2471 0.950 . S
H2451 C2474 0.950 . S
H2452 C2475 0.950 . S
H2453 C2477 0.950 . S
H2454 C2478 0.950 . S
H2455 C2479 0.951 . S
H2456 C2481 0.951 . S
H2457 C2483 0.950 . S
H2458 C2484 0.950 . S
H2459 C2486 0.950 . S
H2460 C2489 0.950 . S
H2461 C2490 0.950 . S
H2462 C2492 0.950 . S
H2463 C2493 0.950 . S
C2464 H2446 0.951 . S
C2464 C2465 1.366 . S
C2464 C2466 1.388 . S
C2465 C2464 1.366 . S
C2465 C2469 1.385 . S
C2466 H2447 0.951 . S
C2466 C2464 1.388 . S
C2466 C2467 1.366 . S
C2467 C2466 1.366 . S
C2467 C2468 1.414 . S
C2467 C2470 1.499 . S
C2468 H2448 0.950 . S
C2468 C2467 1.414 . S
C2468 C2469 1.374 . S
C2469 H2449 0.950 . S
C2469 C2465 1.385 . S
C2469 C2468 1.374 . S
C2470 C2467 1.499 . S
C2470 C2471 1.373 . S
C2470 C2472 1.389 . S
C2471 H2450 0.950 . S
C2471 C2470 1.373 . S
C2471 C2487 1.377 . S
C2472 C2470 1.389 . S
C2472 C2473 1.524 . S
C2472 C2486 1.377 . S
C2473 C2472 1.524 . S
C2473 C2474 1.397 . S
C2473 C2478 1.363 . S
C2474 H2451 0.950 . S
C2474 C2473 1.397 . S
C2474 C2475 1.334 . S
C2475 H2452 0.950 . S
C2475 C2474 1.334 . S
C2475 C2476 1.287 . S
C2476 C2475 1.287 . S
C2476 C2477 1.524 . S
C2476 H2495 0.913 . S
C2477 H2453 0.950 . S
C2477 C2476 1.524 . S
C2477 C2478 1.415 . S
C2478 H2454 0.950 . S
C2478 C2473 1.363 . S
C2478 C2477 1.415 . S
C2479 H2455 0.951 . S
C2479 C2480 1.366 . S
C2479 C2481 1.388 . S
C2480 C2479 1.366 . S
C2480 C2484 1.385 . S
C2481 H2456 0.951 . S
C2481 C2479 1.388 . S
C2481 C2482 1.366 . S
C2482 C2481 1.366 . S
C2482 C2483 1.414 . S
C2482 C2485 1.499 . S
C2483 H2457 0.950 . S
C2483 C2482 1.414 . S
C2483 C2484 1.374 . S
C2484 H2458 0.950 . S
C2484 C2480 1.385 . S
C2484 C2483 1.374 . S
C2485 C2482 1.499 . S
C2485 C2486 1.373 . S
C2485 C2487 1.389 . S
C2486 H2459 0.950 . S
C2486 C2472 1.377 . S
C2486 C2485 1.373 . S
C2487 C2471 1.377 . S
C2487 C2485 1.389 . S
C2487 C2488 1.524 . S
C2488 C2487 1.524 . S
C2488 C2489 1.397 . S
C2488 C2493 1.363 . S
C2489 H2460 0.950 . S
C2489 C2488 1.397 . S
C2489 C2490 1.334 . S
C2490 H2461 0.950 . S
C2490 C2489 1.334 . S
C2490 C2491 1.287 . S
C2491 C2490 1.287 . S
C2491 C2492 1.524 . S
C2491 H2494 0.999 . S
C2492 H2462 0.950 . S
C2492 C2491 1.524 . S
C2492 C2493 1.415 . S
C2493 H2463 0.950 . S
C2493 C2488 1.363 . S
C2493 C2492 1.415 . S
H2494 C2491 0.999 . S
H2495 C2476 0.913 . S
H2496 C2514 0.951 . S
H2497 C2516 0.951 . S
H2498 C2518 0.950 . S
H2499 C2519 0.950 . S
H2500 C2521 0.950 . S
H2501 C2524 0.950 . S
H2502 C2525 0.950 . S
H2503 C2527 0.950 . S
H2504 C2528 0.950 . S
H2505 C2529 0.951 . S
H2506 C2531 0.951 . S
H2507 C2533 0.950 . S
H2508 C2534 0.950 . S
H2509 C2536 0.950 . S
H2510 C2539 0.950 . S
H2511 C2540 0.950 . S
H2512 C2542 0.950 . S
H2513 C2543 0.950 . S
C2514 H2496 0.951 . S
C2514 C2515 1.366 . S
C2514 C2516 1.388 . S
C2515 C2514 1.366 . S
C2515 C2519 1.385 . S
C2516 H2497 0.951 . S
C2516 C2514 1.388 . S
C2516 C2517 1.366 . S
C2517 C2516 1.366 . S
C2517 C2518 1.414 . S
C2517 C2520 1.499 . S
C2518 H2498 0.950 . S
C2518 C2517 1.414 . S
C2518 C2519 1.374 . S
C2519 H2499 0.950 . S
C2519 C2515 1.385 . S
C2519 C2518 1.374 . S
C2520 C2517 1.499 . S
C2520 C2521 1.373 . S
C2520 C2522 1.389 . S
C2521 H2500 0.950 . S
C2521 C2520 1.373 . S
C2521 C2537 1.377 . S
C2522 C2520 1.389 . S
C2522 C2523 1.524 . S
C2522 C2536 1.377 . S
C2523 C2522 1.524 . S
C2523 C2524 1.397 . S
C2523 C2528 1.363 . S
C2524 H2501 0.950 . S
C2524 C2523 1.397 . S
C2524 C2525 1.334 . S
C2525 H2502 0.950 . S
C2525 C2524 1.334 . S
C2525 C2526 1.287 . S
C2526 C2525 1.287 . S
C2526 C2527 1.524 . S
C2526 H2545 0.913 . S
C2527 H2503 0.950 . S
C2527 C2526 1.524 . S
C2527 C2528 1.415 . S
C2528 H2504 0.950 . S
C2528 C2523 1.363 . S
C2528 C2527 1.415 . S
C2529 H2505 0.951 . S
C2529 C2530 1.366 . S
C2529 C2531 1.388 . S
C2530 C2529 1.366 . S
C2530 C2534 1.385 . S
C2531 H2506 0.951 . S
C2531 C2529 1.388 . S
C2531 C2532 1.366 . S
C2532 C2531 1.366 . S
C2532 C2533 1.414 . S
C2532 C2535 1.499 . S
C2533 H2507 0.950 . S
C2533 C2532 1.414 . S
C2533 C2534 1.374 . S
C2534 H2508 0.950 . S
C2534 C2530 1.385 . S
C2534 C2533 1.374 . S
C2535 C2532 1.499 . S
C2535 C2536 1.373 . S
C2535 C2537 1.389 . S
C2536 H2509 0.950 . S
C2536 C2522 1.377 . S
C2536 C2535 1.373 . S
C2537 C2521 1.377 . S
C2537 C2535 1.389 . S
C2537 C2538 1.524 . S
C2538 C2537 1.524 . S
C2538 C2539 1.397 . S
C2538 C2543 1.363 . S
C2539 H2510 0.950 . S
C2539 C2538 1.397 . S
C2539 C2540 1.334 . S
C2540 H2511 0.950 . S
C2540 C2539 1.334 . S
C2540 C2541 1.287 . S
C2541 C2540 1.287 . S
C2541 C2542 1.524 . S
C2541 H2544 0.999 . S
C2542 H2512 0.950 . S
C2542 C2541 1.524 . S
C2542 C2543 1.415 . S
C2543 H2513 0.950 . S
C2543 C2538 1.363 . S
C2543 C2542 1.415 . S
H2544 C2541 0.999 . S
H2545 C2526 0.913 . S
H2546 C2564 0.951 . S
H2547 C2566 0.951 . S
H2548 C2568 0.950 . S
H2549 C2569 0.950 . S
H2550 C2571 0.950 . S
H2551 C2574 0.950 . S
H2552 C2575 0.950 . S
H2553 C2577 0.950 . S
H2554 C2578 0.950 . S
H2555 C2579 0.951 . S
H2556 C2581 0.951 . S
H2557 C2583 0.950 . S
H2558 C2584 0.950 . S
H2559 C2586 0.950 . S
H2560 C2589 0.950 . S
H2561 C2590 0.950 . S
H2562 C2592 0.950 . S
H2563 C2593 0.950 . S
C2564 H2546 0.951 . S
C2564 C2565 1.366 . S
C2564 C2566 1.388 . S
C2565 C2564 1.366 . S
C2565 C2569 1.385 . S
C2566 H2547 0.951 . S
C2566 C2564 1.388 . S
C2566 C2567 1.366 . S
C2567 C2566 1.366 . S
C2567 C2568 1.414 . S
C2567 C2570 1.499 . S
C2568 H2548 0.950 . S
C2568 C2567 1.414 . S
C2568 C2569 1.374 . S
C2569 H2549 0.950 . S
C2569 C2565 1.385 . S
C2569 C2568 1.374 . S
C2570 C2567 1.499 . S
C2570 C2571 1.373 . S
C2570 C2572 1.389 . S
C2571 H2550 0.950 . S
C2571 C2570 1.373 . S
C2571 C2587 1.377 . S
C2572 C2570 1.389 . S
C2572 C2573 1.524 . S
C2572 C2586 1.377 . S
C2573 C2572 1.524 . S
C2573 C2574 1.397 . S
C2573 C2578 1.363 . S
C2574 H2551 0.950 . S
C2574 C2573 1.397 . S
C2574 C2575 1.334 . S
C2575 H2552 0.950 . S
C2575 C2574 1.334 . S
C2575 C2576 1.287 . S
C2576 C2575 1.287 . S
C2576 C2577 1.524 . S
C2576 H2595 0.913 . S
C2577 H2553 0.950 . S
C2577 C2576 1.524 . S
C2577 C2578 1.415 . S
C2578 H2554 0.950 . S
C2578 C2573 1.363 . S
C2578 C2577 1.415 . S
C2579 H2555 0.951 . S
C2579 C2580 1.366 . S
C2579 C2581 1.388 . S
C2580 C2579 1.366 . S
C2580 C2584 1.385 . S
C2581 H2556 0.951 . S
C2581 C2579 1.388 . S
C2581 C2582 1.366 . S
C2582 C2581 1.366 . S
C2582 C2583 1.414 . S
C2582 C2585 1.499 . S
C2583 H2557 0.950 . S
C2583 C2582 1.414 . S
C2583 C2584 1.374 . S
C2584 H2558 0.950 . S
C2584 C2580 1.385 . S
C2584 C2583 1.374 . S
C2585 C2582 1.499 . S
C2585 C2586 1.373 . S
C2585 C2587 1.389 . S
C2586 H2559 0.950 . S
C2586 C2572 1.377 . S
C2586 C2585 1.373 . S
C2587 C2571 1.377 . S
C2587 C2585 1.389 . S
C2587 C2588 1.524 . S
C2588 C2587 1.524 . S
C2588 C2589 1.397 . S
C2588 C2593 1.363 . S
C2589 H2560 0.950 . S
C2589 C2588 1.397 . S
C2589 C2590 1.334 . S
C2590 H2561 0.950 . S
C2590 C2589 1.334 . S
C2590 C2591 1.287 . S
C2591 C2590 1.287 . S
C2591 C2592 1.524 . S
C2591 H2594 0.999 . S
C2592 H2562 0.950 . S
C2592 C2591 1.524 . S
C2592 C2593 1.415 . S
C2593 H2563 0.950 . S
C2593 C2588 1.363 . S
C2593 C2592 1.415 . S
H2594 C2591 0.999 . S
H2595 C2576 0.913 . S
H2596 C2614 0.951 . S
H2597 C2616 0.951 . S
H2598 C2618 0.950 . S
H2599 C2619 0.950 . S
H2600 C2621 0.950 . S
H2601 C2624 0.950 . S
H2602 C2625 0.950 . S
H2603 C2627 0.950 . S
H2604 C2628 0.950 . S
H2605 C2629 0.951 . S
H2606 C2631 0.951 . S
H2607 C2633 0.950 . S
H2608 C2634 0.950 . S
H2609 C2636 0.950 . S
H2610 C2639 0.950 . S
H2611 C2640 0.950 . S
H2612 C2642 0.950 . S
H2613 C2643 0.950 . S
C2614 H2596 0.951 . S
C2614 C2615 1.366 . S
C2614 C2616 1.388 . S
C2615 C2614 1.366 . S
C2615 C2619 1.385 . S
C2616 H2597 0.951 . S
C2616 C2614 1.388 . S
C2616 C2617 1.366 . S
C2617 C2616 1.366 . S
C2617 C2618 1.414 . S
C2617 C2620 1.499 . S
C2618 H2598 0.950 . S
C2618 C2617 1.414 . S
C2618 C2619 1.374 . S
C2619 H2599 0.950 . S
C2619 C2615 1.385 . S
C2619 C2618 1.374 . S
C2620 C2617 1.499 . S
C2620 C2621 1.373 . S
C2620 C2622 1.389 . S
C2621 H2600 0.950 . S
C2621 C2620 1.373 . S
C2621 C2637 1.377 . S
C2622 C2620 1.389 . S
C2622 C2623 1.524 . S
C2622 C2636 1.377 . S
C2623 C2622 1.524 . S
C2623 C2624 1.397 . S
C2623 C2628 1.363 . S
C2624 H2601 0.950 . S
C2624 C2623 1.397 . S
C2624 C2625 1.334 . S
C2625 H2602 0.950 . S
C2625 C2624 1.334 . S
C2625 C2626 1.287 . S
C2626 C2625 1.287 . S
C2626 C2627 1.524 . S
C2626 H2645 0.913 . S
C2627 H2603 0.950 . S
C2627 C2626 1.524 . S
C2627 C2628 1.415 . S
C2628 H2604 0.950 . S
C2628 C2623 1.363 . S
C2628 C2627 1.415 . S
C2629 H2605 0.951 . S
C2629 C2630 1.366 . S
C2629 C2631 1.388 . S
C2630 C2629 1.366 . S
C2630 C2634 1.385 . S
C2631 H2606 0.951 . S
C2631 C2629 1.388 . S
C2631 C2632 1.366 . S
C2632 C2631 1.366 . S
C2632 C2633 1.414 . S
C2632 C2635 1.499 . S
C2633 H2607 0.950 . S
C2633 C2632 1.414 . S
C2633 C2634 1.374 . S
C2634 H2608 0.950 . S
C2634 C2630 1.385 . S
C2634 C2633 1.374 . S
C2635 C2632 1.499 . S
C2635 C2636 1.373 . S
C2635 C2637 1.389 . S
C2636 H2609 0.950 . S
C2636 C2622 1.377 . S
C2636 C2635 1.373 . S
C2637 C2621 1.377 . S
C2637 C2635 1.389 . S
C2637 C2638 1.524 . S
C2638 C2637 1.524 . S
C2638 C2639 1.397 . S
C2638 C2643 1.363 . S
C2639 H2610 0.950 . S
C2639 C2638 1.397 . S
C2639 C2640 1.334 . S
C2640 H2611 0.950 . S
C2640 C2639 1.334 . S
C2640 C2641 1.287 . S
C2641 C2640 1.287 . S
C2641 C2642 1.524 . S
C2641 H2644 0.999 . S
C2642 H2612 0.950 . S
C2642 C2641 1.524 . S
C2642 C2643 1.415 . S
C2643 H2613 0.950 . S
C2643 C2638 1.363 . S
C2643 C2642 1.415 . S
H2644 C2641 0.999 . S
H2645 C2626 0.913 . S
H2646 C2664 0.951 . S
H2647 C2666 0.951 . S
H2648 C2668 0.950 . S
H2649 C2669 0.950 . S
H2650 C2671 0.950 . S
H2651 C2674 0.950 . S
H2652 C2675 0.950 . S
H2653 C2677 0.950 . S
H2654 C2678 0.950 . S
H2655 C2679 0.951 . S
H2656 C2681 0.951 . S
H2657 C2683 0.950 . S
H2658 C2684 0.950 . S
H2659 C2686 0.950 . S
H2660 C2689 0.950 . S
H2661 C2690 0.950 . S
H2662 C2692 0.950 . S
H2663 C2693 0.950 . S
C2664 H2646 0.951 . S
C2664 C2665 1.366 . S
C2664 C2666 1.388 . S
C2665 C2664 1.366 . S
C2665 C2669 1.385 . S
C2666 H2647 0.951 . S
C2666 C2664 1.388 . S
C2666 C2667 1.366 . S
C2667 C2666 1.366 . S
C2667 C2668 1.414 . S
C2667 C2670 1.499 . S
C2668 H2648 0.950 . S
C2668 C2667 1.414 . S
C2668 C2669 1.374 . S
C2669 H2649 0.950 . S
C2669 C2665 1.385 . S
C2669 C2668 1.374 . S
C2670 C2667 1.499 . S
C2670 C2671 1.373 . S
C2670 C2672 1.389 . S
C2671 H2650 0.950 . S
C2671 C2670 1.373 . S
C2671 C2687 1.377 . S
C2672 C2670 1.389 . S
C2672 C2673 1.524 . S
C2672 C2686 1.377 . S
C2673 C2672 1.524 . S
C2673 C2674 1.397 . S
C2673 C2678 1.363 . S
C2674 H2651 0.950 . S
C2674 C2673 1.397 . S
C2674 C2675 1.334 . S
C2675 H2652 0.950 . S
C2675 C2674 1.334 . S
C2675 C2676 1.287 . S
C2676 C2675 1.287 . S
C2676 C2677 1.524 . S
C2676 H2695 0.913 . S
C2677 H2653 0.950 . S
C2677 C2676 1.524 . S
C2677 C2678 1.415 . S
C2678 H2654 0.950 . S
C2678 C2673 1.363 . S
C2678 C2677 1.415 . S
C2679 H2655 0.951 . S
C2679 C2680 1.366 . S
C2679 C2681 1.388 . S
C2680 C2679 1.366 . S
C2680 C2684 1.385 . S
C2681 H2656 0.951 . S
C2681 C2679 1.388 . S
C2681 C2682 1.366 . S
C2682 C2681 1.366 . S
C2682 C2683 1.414 . S
C2682 C2685 1.499 . S
C2683 H2657 0.950 . S
C2683 C2682 1.414 . S
C2683 C2684 1.374 . S
C2684 H2658 0.950 . S
C2684 C2680 1.385 . S
C2684 C2683 1.374 . S
C2685 C2682 1.499 . S
C2685 C2686 1.373 . S
C2685 C2687 1.389 . S
C2686 H2659 0.950 . S
C2686 C2672 1.377 . S
C2686 C2685 1.373 . S
C2687 C2671 1.377 . S
C2687 C2685 1.389 . S
C2687 C2688 1.524 . S
C2688 C2687 1.524 . S
C2688 C2689 1.397 . S
C2688 C2693 1.363 . S
C2689 H2660 0.950 . S
C2689 C2688 1.397 . S
C2689 C2690 1.334 . S
C2690 H2661 0.950 . S
C2690 C2689 1.334 . S
C2690 C2691 1.287 . S
C2691 C2690 1.287 . S
C2691 C2692 1.524 . S
C2691 H2694 0.999 . S
C2692 H2662 0.950 . S
C2692 C2691 1.524 . S
C2692 C2693 1.415 . S
C2693 H2663 0.950 . S
C2693 C2688 1.363 . S
C2693 C2692 1.415 . S
H2694 C2691 0.999 . S
H2695 C2676 0.913 . S
H2696 C2714 0.951 . S
H2697 C2716 0.951 . S
H2698 C2718 0.950 . S
H2699 C2719 0.950 . S
H2700 C2721 0.950 . S
H2701 C2724 0.950 . S
H2702 C2725 0.950 . S
H2703 C2727 0.950 . S
H2704 C2728 0.950 . S
H2705 C2729 0.951 . S
H2706 C2731 0.951 . S
H2707 C2733 0.950 . S
H2708 C2734 0.950 . S
H2709 C2736 0.950 . S
H2710 C2739 0.950 . S
H2711 C2740 0.950 . S
H2712 C2742 0.950 . S
H2713 C2743 0.950 . S
C2714 H2696 0.951 . S
C2714 C2715 1.366 . S
C2714 C2716 1.388 . S
C2715 C2714 1.366 . S
C2715 C2719 1.385 . S
C2716 H2697 0.951 . S
C2716 C2714 1.388 . S
C2716 C2717 1.366 . S
C2717 C2716 1.366 . S
C2717 C2718 1.414 . S
C2717 C2720 1.499 . S
C2718 H2698 0.950 . S
C2718 C2717 1.414 . S
C2718 C2719 1.374 . S
C2719 H2699 0.950 . S
C2719 C2715 1.385 . S
C2719 C2718 1.374 . S
C2720 C2717 1.499 . S
C2720 C2721 1.373 . S
C2720 C2722 1.389 . S
C2721 H2700 0.950 . S
C2721 C2720 1.373 . S
C2721 C2737 1.377 . S
C2722 C2720 1.389 . S
C2722 C2723 1.524 . S
C2722 C2736 1.377 . S
C2723 C2722 1.524 . S
C2723 C2724 1.397 . S
C2723 C2728 1.363 . S
C2724 H2701 0.950 . S
C2724 C2723 1.397 . S
C2724 C2725 1.334 . S
C2725 H2702 0.950 . S
C2725 C2724 1.334 . S
C2725 C2726 1.287 . S
C2726 C2725 1.287 . S
C2726 C2727 1.524 . S
C2726 H2745 0.913 . S
C2727 H2703 0.950 . S
C2727 C2726 1.524 . S
C2727 C2728 1.415 . S
C2728 H2704 0.950 . S
C2728 C2723 1.363 . S
C2728 C2727 1.415 . S
C2729 H2705 0.951 . S
C2729 C2730 1.366 . S
C2729 C2731 1.388 . S
C2730 C2729 1.366 . S
C2730 C2734 1.385 . S
C2731 H2706 0.951 . S
C2731 C2729 1.388 . S
C2731 C2732 1.366 . S
C2732 C2731 1.366 . S
C2732 C2733 1.414 . S
C2732 C2735 1.499 . S
C2733 H2707 0.950 . S
C2733 C2732 1.414 . S
C2733 C2734 1.374 . S
C2734 H2708 0.950 . S
C2734 C2730 1.385 . S
C2734 C2733 1.374 . S
C2735 C2732 1.499 . S
C2735 C2736 1.373 . S
C2735 C2737 1.389 . S
C2736 H2709 0.950 . S
C2736 C2722 1.377 . S
C2736 C2735 1.373 . S
C2737 C2721 1.377 . S
C2737 C2735 1.389 . S
C2737 C2738 1.524 . S
C2738 C2737 1.524 . S
C2738 C2739 1.397 . S
C2738 C2743 1.363 . S
C2739 H2710 0.950 . S
C2739 C2738 1.397 . S
C2739 C2740 1.334 . S
C2740 H2711 0.950 . S
C2740 C2739 1.334 . S
C2740 C2741 1.287 . S
C2741 C2740 1.287 . S
C2741 C2742 1.524 . S
C2741 H2744 0.999 . S
C2742 H2712 0.950 . S
C2742 C2741 1.524 . S
C2742 C2743 1.415 . S
C2743 H2713 0.950 . S
C2743 C2738 1.363 . S
C2743 C2742 1.415 . S
H2744 C2741 0.999 . S
H2745 C2726 0.913 . S
H2746 C2764 0.951 . S
H2747 C2766 0.951 . S
H2748 C2768 0.950 . S
H2749 C2769 0.950 . S
H2750 C2771 0.950 . S
H2751 C2774 0.950 . S
H2752 C2775 0.950 . S
H2753 C2777 0.950 . S
H2754 C2778 0.950 . S
H2755 C2779 0.951 . S
H2756 C2781 0.951 . S
H2757 C2783 0.950 . S
H2758 C2784 0.950 . S
H2759 C2786 0.950 . S
H2760 C2789 0.950 . S
H2761 C2790 0.950 . S
H2762 C2792 0.950 . S
H2763 C2793 0.950 . S
C2764 H2746 0.951 . S
C2764 C2765 1.366 . S
C2764 C2766 1.388 . S
C2765 C2764 1.366 . S
C2765 C2769 1.385 . S
C2766 H2747 0.951 . S
C2766 C2764 1.388 . S
C2766 C2767 1.366 . S
C2767 C2766 1.366 . S
C2767 C2768 1.414 . S
C2767 C2770 1.499 . S
C2768 H2748 0.950 . S
C2768 C2767 1.414 . S
C2768 C2769 1.374 . S
C2769 H2749 0.950 . S
C2769 C2765 1.385 . S
C2769 C2768 1.374 . S
C2770 C2767 1.499 . S
C2770 C2771 1.373 . S
C2770 C2772 1.389 . S
C2771 H2750 0.950 . S
C2771 C2770 1.373 . S
C2771 C2787 1.377 . S
C2772 C2770 1.389 . S
C2772 C2773 1.524 . S
C2772 C2786 1.377 . S
C2773 C2772 1.524 . S
C2773 C2774 1.397 . S
C2773 C2778 1.363 . S
C2774 H2751 0.950 . S
C2774 C2773 1.397 . S
C2774 C2775 1.334 . S
C2775 H2752 0.950 . S
C2775 C2774 1.334 . S
C2775 C2776 1.287 . S
C2776 C2775 1.287 . S
C2776 C2777 1.524 . S
C2776 H2795 0.913 . S
C2777 H2753 0.950 . S
C2777 C2776 1.524 . S
C2777 C2778 1.415 . S
C2778 H2754 0.950 . S
C2778 C2773 1.363 . S
C2778 C2777 1.415 . S
C2779 H2755 0.951 . S
C2779 C2780 1.366 . S
C2779 C2781 1.388 . S
C2780 C2779 1.366 . S
C2780 C2784 1.385 . S
C2781 H2756 0.951 . S
C2781 C2779 1.388 . S
C2781 C2782 1.366 . S
C2782 C2781 1.366 . S
C2782 C2783 1.414 . S
C2782 C2785 1.499 . S
C2783 H2757 0.950 . S
C2783 C2782 1.414 . S
C2783 C2784 1.374 . S
C2784 H2758 0.950 . S
C2784 C2780 1.385 . S
C2784 C2783 1.374 . S
C2785 C2782 1.499 . S
C2785 C2786 1.373 . S
C2785 C2787 1.389 . S
C2786 H2759 0.950 . S
C2786 C2772 1.377 . S
C2786 C2785 1.373 . S
C2787 C2771 1.377 . S
C2787 C2785 1.389 . S
C2787 C2788 1.524 . S
C2788 C2787 1.524 . S
C2788 C2789 1.397 . S
C2788 C2793 1.363 . S
C2789 H2760 0.950 . S
C2789 C2788 1.397 . S
C2789 C2790 1.334 . S
C2790 H2761 0.950 . S
C2790 C2789 1.334 . S
C2790 C2791 1.287 . S
C2791 C2790 1.287 . S
C2791 C2792 1.524 . S
C2791 H2794 0.999 . S
C2792 H2762 0.950 . S
C2792 C2791 1.524 . S
C2792 C2793 1.415 . S
C2793 H2763 0.950 . S
C2793 C2788 1.363 . S
C2793 C2792 1.415 . S
H2794 C2791 0.999 . S
H2795 C2776 0.913 . S
H2796 C2814 0.951 . S
H2797 C2816 0.951 . S
H2798 C2818 0.950 . S
H2799 C2819 0.950 . S
H2800 C2821 0.950 . S
H2801 C2824 0.950 . S
H2802 C2825 0.950 . S
H2803 C2827 0.950 . S
H2804 C2828 0.950 . S
H2805 C2829 0.951 . S
H2806 C2831 0.951 . S
H2807 C2833 0.950 . S
H2808 C2834 0.950 . S
H2809 C2836 0.950 . S
H2810 C2839 0.950 . S
H2811 C2840 0.950 . S
H2812 C2842 0.950 . S
H2813 C2843 0.950 . S
C2814 H2796 0.951 . S
C2814 C2815 1.366 1_655 S
C2814 C2816 1.388 . S
C2815 C2814 1.366 1_455 S
C2815 C2819 1.385 . S
C2816 H2797 0.951 . S
C2816 C2814 1.388 . S
C2816 C2817 1.316 1_655 S
C2817 C2816 1.316 1_455 S
C2817 C2818 1.437 . S
C2817 C2820 1.517 . S
C2818 H2798 0.950 . S
C2818 C2817 1.437 . S
C2818 C2819 1.374 . S
C2819 H2799 0.950 . S
C2819 C2815 1.385 . S
C2819 C2818 1.374 . S
C2820 C2817 1.517 . S
C2820 C2821 1.408 . S
C2820 C2822 1.370 1_455 S
C2821 H2800 0.950 . S
C2821 C2820 1.408 . S
C2821 C2837 1.377 . S
C2822 C2820 1.370 1_655 S
C2822 C2823 1.524 . S
C2822 C2836 1.377 . S
C2823 C2822 1.524 . S
C2823 C2824 1.397 . S
C2823 C2828 1.363 . S
C2824 H2801 0.950 . S
C2824 C2823 1.397 . S
C2824 C2825 1.334 . S
C2825 H2802 0.950 . S
C2825 C2824 1.334 . S
C2825 C2826 1.287 . S
C2826 C2825 1.287 . S
C2826 C2827 1.524 . S
C2826 H2845 0.913 . S
C2827 H2803 0.950 . S
C2827 C2826 1.524 . S
C2827 C2828 1.415 . S
C2828 H2804 0.950 . S
C2828 C2823 1.363 . S
C2828 C2827 1.415 . S
C2829 H2805 0.951 . S
C2829 C2830 1.366 1_455 S
C2829 C2831 1.388 . S
C2830 C2829 1.366 1_655 S
C2830 C2834 1.385 . S
C2831 H2806 0.951 . S
C2831 C2829 1.388 . S
C2831 C2832 1.309 1_455 S
C2832 C2831 1.309 1_655 S
C2832 C2833 1.441 . S
C2832 C2835 1.517 . S
C2833 H2807 0.950 . S
C2833 C2832 1.441 . S
C2833 C2834 1.374 . S
C2834 H2808 0.950 . S
C2834 C2830 1.385 . S
C2834 C2833 1.374 . S
C2835 C2832 1.517 . S
C2835 C2836 1.419 . S
C2835 C2837 1.364 1_655 S
C2836 H2809 0.950 . S
C2836 C2822 1.377 . S
C2836 C2835 1.419 . S
C2837 C2821 1.377 . S
C2837 C2835 1.364 1_455 S
C2837 C2838 1.524 . S
C2838 C2837 1.524 . S
C2838 C2839 1.397 . S
C2838 C2843 1.363 . S
C2839 H2810 0.950 . S
C2839 C2838 1.397 . S
C2839 C2840 1.334 . S
C2840 H2811 0.950 . S
C2840 C2839 1.334 . S
C2840 C2841 1.287 . S
C2841 C2840 1.287 . S
C2841 C2842 1.524 . S
C2841 H2844 0.999 . S
C2842 H2812 0.950 . S
C2842 C2841 1.524 . S
C2842 C2843 1.415 . S
C2843 H2813 0.950 . S
C2843 C2838 1.363 . S
C2843 C2842 1.415 . S
H2844 C2841 0.999 . S
H2845 C2826 0.913 . S
H2846 C2864 0.951 . S
H2847 C2866 0.951 . S
H2848 C2868 0.950 . S
H2849 C2869 0.950 . S
H2850 C2871 0.950 . S
H2851 C2874 0.950 . S
H2852 C2875 0.950 . S
H2853 C2877 0.950 . S
H2854 C2878 0.950 . S
H2855 C2879 0.951 . S
H2856 C2881 0.951 . S
H2857 C2883 0.950 . S
H2858 C2884 0.950 . S
H2859 C2886 0.950 . S
H2860 C2889 0.950 . S
H2861 C2890 0.950 . S
H2862 C2892 0.950 . S
H2863 C2893 0.950 . S
C2864 H2846 0.951 . S
C2864 C2865 1.366 . S
C2864 C2866 1.388 . S
C2865 C2864 1.366 . S
C2865 C2869 1.385 . S
C2866 H2847 0.951 . S
C2866 C2864 1.388 . S
C2866 C2867 1.366 . S
C2867 C2866 1.366 . S
C2867 C2868 1.414 . S
C2867 C2870 1.499 . S
C2868 H2848 0.950 . S
C2868 C2867 1.414 . S
C2868 C2869 1.374 . S
C2869 H2849 0.950 . S
C2869 C2865 1.385 . S
C2869 C2868 1.374 . S
C2870 C2867 1.499 . S
C2870 C2871 1.373 . S
C2870 C2872 1.389 . S
C2871 H2850 0.950 . S
C2871 C2870 1.373 . S
C2871 C2887 1.377 . S
C2872 C2870 1.389 . S
C2872 C2873 1.524 . S
C2872 C2886 1.377 . S
C2873 C2872 1.524 . S
C2873 C2874 1.397 . S
C2873 C2878 1.363 . S
C2874 H2851 0.950 . S
C2874 C2873 1.397 . S
C2874 C2875 1.334 . S
C2875 H2852 0.950 . S
C2875 C2874 1.334 . S
C2875 C2876 1.287 . S
C2876 C2875 1.287 . S
C2876 C2877 1.524 . S
C2876 H2895 0.913 . S
C2877 H2853 0.950 . S
C2877 C2876 1.524 . S
C2877 C2878 1.415 . S
C2878 H2854 0.950 . S
C2878 C2873 1.363 . S
C2878 C2877 1.415 . S
C2879 H2855 0.951 . S
C2879 C2880 1.366 . S
C2879 C2881 1.388 . S
C2880 C2879 1.366 . S
C2880 C2884 1.385 . S
C2881 H2856 0.951 . S
C2881 C2879 1.388 . S
C2881 C2882 1.366 . S
C2882 C2881 1.366 . S
C2882 C2883 1.414 . S
C2882 C2885 1.499 . S
C2883 H2857 0.950 . S
C2883 C2882 1.414 . S
C2883 C2884 1.374 . S
C2884 H2858 0.950 . S
C2884 C2880 1.385 . S
C2884 C2883 1.374 . S
C2885 C2882 1.499 . S
C2885 C2886 1.373 . S
C2885 C2887 1.389 . S
C2886 H2859 0.950 . S
C2886 C2872 1.377 . S
C2886 C2885 1.373 . S
C2887 C2871 1.377 . S
C2887 C2885 1.389 . S
C2887 C2888 1.524 . S
C2888 C2887 1.524 . S
C2888 C2889 1.397 . S
C2888 C2893 1.363 . S
C2889 H2860 0.950 . S
C2889 C2888 1.397 . S
C2889 C2890 1.334 . S
C2890 H2861 0.950 . S
C2890 C2889 1.334 . S
C2890 C2891 1.287 . S
C2891 C2890 1.287 . S
C2891 C2892 1.524 . S
C2891 H2894 0.999 . S
C2892 H2862 0.950 . S
C2892 C2891 1.524 . S
C2892 C2893 1.415 . S
C2893 H2863 0.950 . S
C2893 C2888 1.363 . S
C2893 C2892 1.415 . S
H2894 C2891 0.999 . S
H2895 C2876 0.913 . S
H2896 C2914 0.951 . S
H2897 C2916 0.951 . S
H2898 C2918 0.950 . S
H2899 C2919 0.950 . S
H2900 C2921 0.950 . S
H2901 C2924 0.950 . S
H2902 C2925 0.950 . S
H2903 C2927 0.950 . S
H2904 C2928 0.950 . S
H2905 C2929 0.951 . S
H2906 C2931 0.951 . S
H2907 C2933 0.950 . S
H2908 C2934 0.950 . S
H2909 C2936 0.950 . S
H2910 C2939 0.950 . S
H2911 C2940 0.950 . S
H2912 C2942 0.950 . S
H2913 C2943 0.950 . S
C2914 H2896 0.951 . S
C2914 C2915 1.366 1_565 S
C2914 C2916 1.388 . S
C2915 C2914 1.366 1_545 S
C2915 C2919 1.385 . S
C2916 H2897 0.951 . S
C2916 C2914 1.388 . S
C2916 C2917 1.376 1_565 S
C2917 C2916 1.376 1_545 S
C2917 C2918 1.429 . S
C2917 C2920 1.480 1_545 S
C2918 H2898 0.950 . S
C2918 C2917 1.429 . S
C2918 C2919 1.374 . S
C2919 H2899 0.950 . S
C2919 C2915 1.385 . S
C2919 C2918 1.374 . S
C2920 C2917 1.480 1_565 S
C2920 C2921 1.376 1_565 S
C2920 C2922 1.385 . S
C2921 H2900 0.950 . S
C2921 C2920 1.376 1_545 S
C2921 C2937 1.377 . S
C2922 C2920 1.385 . S
C2922 C2923 1.524 . S
C2922 C2936 1.377 . S
C2923 C2922 1.524 . S
C2923 C2924 1.397 . S
C2923 C2928 1.363 . S
C2924 H2901 0.950 . S
C2924 C2923 1.397 . S
C2924 C2925 1.334 . S
C2925 H2902 0.950 . S
C2925 C2924 1.334 . S
C2925 C2926 1.287 . S
C2926 C2925 1.287 . S
C2926 C2927 1.524 . S
C2926 H2945 0.913 . S
C2927 H2903 0.950 . S
C2927 C2926 1.524 . S
C2927 C2928 1.415 . S
C2928 H2904 0.950 . S
C2928 C2923 1.363 . S
C2928 C2927 1.415 . S
C2929 H2905 0.951 . S
C2929 C2930 1.366 1_545 S
C2929 C2931 1.388 . S
C2930 C2929 1.366 1_565 S
C2930 C2934 1.385 . S
C2931 H2906 0.951 . S
C2931 C2929 1.388 . S
C2931 C2932 1.382 1_545 S
C2932 C2931 1.382 1_565 S
C2932 C2933 1.436 . S
C2932 C2935 1.468 . S
C2933 H2907 0.950 . S
C2933 C2932 1.436 . S
C2933 C2934 1.374 . S
C2934 H2908 0.950 . S
C2934 C2930 1.385 . S
C2934 C2933 1.374 . S
C2935 C2932 1.468 . S
C2935 C2936 1.373 . S
C2935 C2937 1.390 1_565 S
C2936 H2909 0.950 . S
C2936 C2922 1.377 . S
C2936 C2935 1.373 . S
C2937 C2921 1.377 . S
C2937 C2935 1.390 1_545 S
C2937 C2938 1.524 . S
C2938 C2937 1.524 . S
C2938 C2939 1.397 . S
C2938 C2943 1.363 . S
C2939 H2910 0.950 . S
C2939 C2938 1.397 . S
C2939 C2940 1.334 . S
C2940 H2911 0.950 . S
C2940 C2939 1.334 . S
C2940 C2941 1.287 . S
C2941 C2940 1.287 . S
C2941 C2942 1.524 . S
C2941 H2944 0.999 . S
C2942 H2912 0.950 . S
C2942 C2941 1.524 . S
C2942 C2943 1.415 . S
C2943 H2913 0.950 . S
C2943 C2938 1.363 . S
C2943 C2942 1.415 . S
H2944 C2941 0.999 . S
H2945 C2926 0.913 . S
H2946 C2964 0.951 . S
H2947 C2966 0.951 . S
H2948 C2968 0.921 1_556 S
H2949 C2969 0.950 . S
H2950 C2971 0.950 . S
H2951 C2974 0.950 . S
H2952 C2975 0.950 . S
H2953 C2977 0.950 . S
H2954 C2978 1.026 . S
H2955 C2979 0.951 . S
H2956 C2981 0.951 . S
H2957 C2983 0.921 1_554 S
H2958 C2984 0.950 . S
H2959 C2986 0.950 . S
H2960 C2989 0.950 . S
H2961 C2990 0.950 . S
H2962 C2992 0.950 . S
H2963 C2993 1.004 . S
C2964 H2946 0.951 . S
C2964 C2965 1.366 . S
C2964 C2966 1.388 . S
C2965 C2964 1.366 . S
C2965 C2969 1.385 1_545 S
C2966 H2947 0.951 . S
C2966 C2964 1.388 . S
C2966 C2967 1.381 . S
C2967 C2966 1.381 . S
C2967 C2968 1.382 1_545 S
C2967 C2970 1.529 1_545 S
C2968 H2948 0.921 1_554 S
C2968 C2967 1.382 1_565 S
C2968 C2969 1.374 . S
C2969 H2949 0.950 . S
C2969 C2965 1.385 1_565 S
C2969 C2968 1.374 . S
C2970 C2967 1.529 1_565 S
C2970 C2971 1.364 1_564 S
C2970 C2972 1.386 . S
C2971 H2950 0.950 . S
C2971 C2970 1.364 1_546 S
C2971 C2987 1.377 . S
C2972 C2970 1.386 . S
C2972 C2973 1.524 . S
C2972 C2986 1.377 . S
C2973 C2972 1.524 . S
C2973 C2974 1.397 . S
C2973 C2978 1.363 . S
C2974 H2951 0.950 . S
C2974 C2973 1.397 . S
C2974 C2975 1.334 . S
C2975 H2952 0.950 . S
C2975 C2974 1.334 . S
C2975 C2976 1.287 . S
C2976 C2975 1.287 . S
C2976 C2977 1.524 . S
C2976 H2995 0.913 . S
C2977 H2953 0.950 . S
C2977 C2976 1.524 . S
C2977 C2978 1.415 . S
C2978 H2954 1.026 . S
C2978 C2973 1.363 . S
C2978 C2977 1.415 . S
C2979 H2955 0.951 . S
C2979 C2980 1.366 . S
C2979 C2981 1.388 . S
C2980 C2979 1.366 . S
C2980 C2984 1.385 1_565 S
C2981 H2956 0.951 . S
C2981 C2979 1.388 . S
C2981 C2982 1.390 . S
C2982 C2981 1.390 . S
C2982 C2983 1.367 1_565 S
C2982 C2985 1.529 1_565 S
C2983 H2957 0.921 1_556 S
C2983 C2982 1.367 1_545 S
C2983 C2984 1.374 . S
C2984 H2958 0.950 . S
C2984 C2980 1.385 1_545 S
C2984 C2983 1.374 . S
C2985 C2982 1.529 1_545 S
C2985 C2986 1.371 1_546 S
C2985 C2987 1.388 . S
C2986 H2959 0.950 . S
C2986 C2972 1.377 . S
C2986 C2985 1.371 1_564 S
C2987 C2971 1.377 . S
C2987 C2985 1.388 . S
C2987 C2988 1.524 . S
C2988 C2987 1.524 . S
C2988 C2989 1.397 . S
C2988 C2993 1.363 . S
C2989 H2960 0.950 . S
C2989 C2988 1.397 . S
C2989 C2990 1.334 . S
C2990 H2961 0.950 . S
C2990 C2989 1.334 . S
C2990 C2991 1.287 . S
C2991 C2990 1.287 . S
C2991 C2992 1.524 . S
C2991 H2994 0.999 . S
C2992 H2962 0.950 . S
C2992 C2991 1.524 . S
C2992 C2993 1.415 . S
C2993 H2963 1.004 . S
C2993 C2988 1.363 . S
C2993 C2992 1.415 . S
H2994 C2991 0.999 . S
H2995 C2976 0.913 . S
H2996 C3014 0.951 . S
H2997 C3016 0.951 . S
H2998 C3018 0.950 . S
H2999 C3019 0.950 . S
H3000 C3021 0.950 . S
H3001 C3024 0.950 . S
H3002 C3025 0.950 . S
H3003 C3027 0.950 . S
H3004 C3028 0.950 . S
H3005 C3029 0.951 . S
H3006 C3031 0.951 . S
H3007 C3033 0.950 . S
H3008 C3034 0.950 . S
H3009 C3036 0.950 . S
H3010 C3039 0.950 . S
H3011 C3040 0.950 . S
H3012 C3042 0.950 . S
H3013 C3043 0.950 . S
C3014 H2996 0.951 . S
C3014 C3015 1.366 1_655 S
C3014 C3016 1.388 . S
C3015 C3014 1.366 1_455 S
C3015 C3019 1.385 . S
C3016 H2997 0.951 . S
C3016 C3014 1.388 . S
C3016 C3017 1.366 1_655 S
C3017 C3016 1.366 1_455 S
C3017 C3018 1.414 . S
C3017 C3020 1.499 . S
C3018 H2998 0.950 . S
C3018 C3017 1.414 . S
C3018 C3019 1.374 . S
C3019 H2999 0.950 . S
C3019 C3015 1.385 . S
C3019 C3018 1.374 . S
C3020 C3017 1.499 . S
C3020 C3021 1.373 1_556 S
C3020 C3022 1.389 1_455 S
C3021 H3000 0.950 . S
C3021 C3020 1.373 1_554 S
C3021 C3037 1.377 . S
C3022 C3020 1.389 1_655 S
C3022 C3023 1.524 . S
C3022 C3036 1.377 . S
C3023 C3022 1.524 . S
C3023 C3024 1.397 1_655 S
C3023 C3028 1.363 . S
C3024 H3001 0.950 . S
C3024 C3023 1.397 1_455 S
C3024 C3025 1.334 . S
C3025 H3002 0.950 . S
C3025 C3024 1.334 . S
C3025 C3026 1.287 1_455 S
C3026 C3025 1.287 1_655 S
C3026 C3027 1.524 . S
C3026 H3045 0.913 . S
C3027 H3003 0.950 . S
C3027 C3026 1.524 . S
C3027 C3028 1.415 . S
C3028 H3004 0.950 . S
C3028 C3023 1.363 . S
C3028 C3027 1.415 . S
C3029 H3005 0.951 . S
C3029 C3030 1.366 1_455 S
C3029 C3031 1.388 . S
C3030 C3029 1.366 1_655 S
C3030 C3034 1.385 . S
C3031 H3006 0.951 . S
C3031 C3029 1.388 . S
C3031 C3032 1.366 1_455 S
C3032 C3031 1.366 1_655 S
C3032 C3033 1.414 . S
C3032 C3035 1.499 . S
C3033 H3007 0.950 . S
C3033 C3032 1.414 . S
C3033 C3034 1.374 . S
C3034 H3008 0.950 . S
C3034 C3030 1.385 . S
C3034 C3033 1.374 . S
C3035 C3032 1.499 . S
C3035 C3036 1.373 1_554 S
C3035 C3037 1.389 1_655 S
C3036 H3009 0.950 . S
C3036 C3022 1.377 . S
C3036 C3035 1.373 1_556 S
C3037 C3021 1.377 . S
C3037 C3035 1.389 1_455 S
C3037 C3038 1.524 . S
C3038 C3037 1.524 . S
C3038 C3039 1.397 1_455 S
C3038 C3043 1.363 . S
C3039 H3010 0.950 . S
C3039 C3038 1.397 1_655 S
C3039 C3040 1.334 . S
C3040 H3011 0.950 . S
C3040 C3039 1.334 . S
C3040 C3041 1.287 1_655 S
C3041 C3040 1.287 1_455 S
C3041 C3042 1.524 . S
C3041 H3044 0.999 . S
C3042 H3012 0.950 . S
C3042 C3041 1.524 . S
C3042 C3043 1.415 . S
C3043 H3013 0.950 . S
C3043 C3038 1.363 . S
C3043 C3042 1.415 . S
H3044 C3041 0.999 . S
H3045 C3026 0.913 . S
H3046 C3064 0.951 . S
H3047 C3066 0.951 . S
H3048 C3068 0.950 . S
H3049 C3069 0.950 . S
H3050 C3071 0.950 . S
H3051 C3074 0.950 . S
H3052 C3075 0.950 . S
H3053 C3077 0.950 . S
H3054 C3078 0.950 . S
H3055 C3079 0.951 . S
H3056 C3081 0.951 . S
H3057 C3083 0.950 . S
H3058 C3084 0.950 . S
H3059 C3086 0.950 . S
H3060 C3089 0.950 . S
H3061 C3090 0.950 . S
H3062 C3092 0.950 . S
H3063 C3093 0.950 . S
C3064 H3046 0.951 . S
C3064 C3065 1.366 . S
C3064 C3066 1.388 . S
C3065 C3064 1.366 . S
C3065 C3069 1.385 . S
C3066 H3047 0.951 . S
C3066 C3064 1.388 . S
C3066 C3067 1.366 . S
C3067 C3066 1.366 . S
C3067 C3068 1.414 . S
C3067 C3070 1.499 . S
C3068 H3048 0.950 . S
C3068 C3067 1.414 . S
C3068 C3069 1.374 . S
C3069 H3049 0.950 . S
C3069 C3065 1.385 . S
C3069 C3068 1.374 . S
C3070 C3067 1.499 . S
C3070 C3071 1.373 1_554 S
C3070 C3072 1.389 . S
C3071 H3050 0.950 . S
C3071 C3070 1.373 1_556 S
C3071 C3087 1.377 . S
C3072 C3070 1.389 . S
C3072 C3073 1.524 . S
C3072 C3086 1.377 . S
C3073 C3072 1.524 . S
C3073 C3074 1.397 . S
C3073 C3078 1.363 . S
C3074 H3051 0.950 . S
C3074 C3073 1.397 . S
C3074 C3075 1.334 . S
C3075 H3052 0.950 . S
C3075 C3074 1.334 . S
C3075 C3076 1.287 . S
C3076 C3075 1.287 . S
C3076 C3077 1.524 . S
C3076 H3095 0.913 . S
C3077 H3053 0.950 . S
C3077 C3076 1.524 . S
C3077 C3078 1.415 . S
C3078 H3054 0.950 . S
C3078 C3073 1.363 . S
C3078 C3077 1.415 . S
C3079 H3055 0.951 . S
C3079 C3080 1.366 . S
C3079 C3081 1.388 . S
C3080 C3079 1.366 . S
C3080 C3084 1.385 . S
C3081 H3056 0.951 . S
C3081 C3079 1.388 . S
C3081 C3082 1.366 . S
C3082 C3081 1.366 . S
C3082 C3083 1.414 . S
C3082 C3085 1.499 . S
C3083 H3057 0.950 . S
C3083 C3082 1.414 . S
C3083 C3084 1.374 . S
C3084 H3058 0.950 . S
C3084 C3080 1.385 . S
C3084 C3083 1.374 . S
C3085 C3082 1.499 . S
C3085 C3086 1.373 1_556 S
C3085 C3087 1.389 . S
C3086 H3059 0.950 . S
C3086 C3072 1.377 . S
C3086 C3085 1.373 1_554 S
C3087 C3071 1.377 . S
C3087 C3085 1.389 . S
C3087 C3088 1.524 . S
C3088 C3087 1.524 . S
C3088 C3089 1.397 . S
C3088 C3093 1.363 . S
C3089 H3060 0.950 . S
C3089 C3088 1.397 . S
C3089 C3090 1.334 . S
C3090 H3061 0.950 . S
C3090 C3089 1.334 . S
C3090 C3091 1.287 . S
C3091 C3090 1.287 . S
C3091 C3092 1.524 . S
C3091 H3094 0.999 . S
C3092 H3062 0.950 . S
C3092 C3091 1.524 . S
C3092 C3093 1.415 . S
C3093 H3063 0.950 . S
C3093 C3088 1.363 . S
C3093 C3092 1.415 . S
H3094 C3091 0.999 . S
H3095 C3076 0.913 . S
C415 C7 1.552 . S
C430 C326 1.552 . S
C465 C18 1.552 . S
C480 C304 1.552 . S
C515 C29 1.551 . S
C530 C315 1.551 . S
C565 C40 1.552 . S
C580 C150 1.552 . S
C615 C161 1.552 . S
C630 C51 1.551 . S
C665 C62 1.552 . S
C680 C139 1.552 . S
C715 C73 1.508 . S
C730 C260 1.508 . S
C765 C84 1.509 . S
C780 C238 1.509 . S
C815 C95 1.508 . S
C830 C249 1.507 . S
C865 C348 1.509 . S
C880 C106 1.509 . S
C915 C117 1.508 . S
C930 C359 1.507 . S
C965 C128 1.508 . S
C980 C337 1.509 . S
C1015 C172 1.552 . S
C1030 C282 1.552 . S
C1065 C183 1.551 . S
C1080 C293 1.551 . S
C1115 C194 1.551 . S
C1130 C271 1.551 . S
C1165 C392 1.507 . S
C1180 C205 1.508 . S
C1215 C216 1.508 . S
C1230 C370 1.509 . S
C1265 C381 1.507 . S
C1280 C227 1.508 . S
C1315 C5 1.391 . S
C1330 C49 1.391 . S
C1365 C60 1.391 . S
C1380 C16 1.390 . S
C1415 C38 1.391 . S
C1430 C27 1.391 . S
C1465 C115 1.310 . S
C1480 C71 1.311 . S
C1515 C82 1.310 . S
C1530 C126 1.311 . S
C1565 C104 1.309 . S
C1580 C93 1.311 . S
C1615 C137 1.391 . S
C1630 C181 1.390 . S
C1665 C148 1.389 . S
C1680 C192 1.390 . S
C1715 C170 1.392 . S
C1730 C159 1.390 . S
C1765 C203 1.310 . S
C1780 C247 1.309 . S
C1815 C214 1.309 . S
C1830 C258 1.310 . S
C1865 C236 1.308 . S
C1880 C225 1.309 . S
C1915 C269 1.391 . S
C1930 C313 1.390 . S
C1965 C280 1.389 . S
C1980 C324 1.391 . S
C2015 C291 1.390 . S
C2030 C302 1.391 . S
C2065 C379 1.309 . S
C2080 C335 1.309 . S
C2115 C346 1.308 . S
C2130 C390 1.308 . S
C2165 C368 1.309 . S
C2180 C357 1.309 . S
C2215 C338 1.553 . S
C2230 C8 1.581 . S
C2265 C349 1.552 . S
C2280 C19 1.581 . S
C2315 C360 1.552 . S
C2330 C30 1.581 . S
C2365 C41 1.581 . S
C2380 C239 1.552 . S
C2415 C250 1.552 . S
C2430 C52 1.581 . S
C2465 C63 1.581 . S
C2480 C261 1.552 . S
C2515 C140 1.581 . S
C2530 C74 1.553 . S
C2565 C151 1.581 . S
C2580 C85 1.553 . S
C2615 C162 1.581 . S
C2630 C96 1.552 . S
C2665 C305 1.581 . S
C2680 C107 1.553 . S
C2715 C118 1.553 . S
C2730 C316 1.581 . S
C2765 C129 1.552 . S
C2780 C327 1.581 . S
C2815 C371 1.552 . S
C2830 C173 1.581 . S
C2865 C382 1.552 . S
C2880 C184 1.581 . S
C2915 C195 1.582 . S
C2930 C393 1.553 . S
C2965 C206 1.552 . S
C2980 C272 1.581 . S
C3015 C283 1.581 . S
C3030 C217 1.552 . S
C3065 C228 1.552 . S
C3080 C294 1.581 . S
