# Generated by pormake.
# Topology whk, (6)-cn, num edge types: 1
# Building blocks:
#     Node 0, Type 0, BuildingBlock: OJICUG_clean_sbu_0, # of connection points: 6
#     Node 1, Type 0, BuildingBlock: OJICUG_clean_sbu_0, # of connection points: 6
#     Node 2, Type 0, BuildingBlock: OJICUG_clean_sbu_0, # of connection points: 6
#     Node 3, Type 0, BuildingBlock: OJICUG_clean_sbu_0, # of connection points: 6
#     Node 4, Type 0, BuildingBlock: OJICUG_clean_sbu_0, # of connection points: 6
#     Node 5, Type 0, BuildingBlock: OJICUG_clean_sbu_0, # of connection points: 6
#     Node 6, Type 0, BuildingBlock: OJICUG_clean_sbu_0, # of connection points: 6
#     Node 7, Type 0, BuildingBlock: OJICUG_clean_sbu_0, # of connection points: 6
#     Node 8, Type 0, BuildingBlock: OJICUG_clean_sbu_0, # of connection points: 6
#     Node 9, Type 0, BuildingBlock: OJICUG_clean_sbu_0, # of connection points: 6
#     Node 10, Type 0, BuildingBlock: OJICUG_clean_sbu_0, # of connection points: 6
#     Node 11, Type 0, BuildingBlock: OJICUG_clean_sbu_0, # of connection points: 6
#     Node 12, Type 0, BuildingBlock: OJICUG_clean_sbu_0, # of connection points: 6
#     Node 13, Type 0, BuildingBlock: OJICUG_clean_sbu_0, # of connection points: 6
#     Node 14, Type 0, BuildingBlock: OJICUG_clean_sbu_0, # of connection points: 6
#     Node 15, Type 0, BuildingBlock: OJICUG_clean_sbu_0, # of connection points: 6
#     Edge 16, Type (0, 0), BuildingBlock: UVAHIK_clean_linker_0, # of connection points: 2
#     Edge 17, Type (0, 0), BuildingBlock: UVAHIK_clean_linker_0, # of connection points: 2
#     Edge 18, Type (0, 0), BuildingBlock: UVAHIK_clean_linker_0, # of connection points: 2
#     Edge 19, Type (0, 0), BuildingBlock: UVAHIK_clean_linker_0, # of connection points: 2
#     Edge 20, Type (0, 0), BuildingBlock: UVAHIK_clean_linker_0, # of connection points: 2
#     Edge 21, Type (0, 0), BuildingBlock: UVAHIK_clean_linker_0, # of connection points: 2
#     Edge 22, Type (0, 0), BuildingBlock: UVAHIK_clean_linker_0, # of connection points: 2
#     Edge 23, Type (0, 0), BuildingBlock: UVAHIK_clean_linker_0, # of connection points: 2
#     Edge 24, Type (0, 0), BuildingBlock: UVAHIK_clean_linker_0, # of connection points: 2
#     Edge 25, Type (0, 0), BuildingBlock: UVAHIK_clean_linker_0, # of connection points: 2
#     Edge 26, Type (0, 0), BuildingBlock: UVAHIK_clean_linker_0, # of connection points: 2
#     Edge 27, Type (0, 0), BuildingBlock: UVAHIK_clean_linker_0, # of connection points: 2
#     Edge 28, Type (0, 0), BuildingBlock: UVAHIK_clean_linker_0, # of connection points: 2
#     Edge 29, Type (0, 0), BuildingBlock: UVAHIK_clean_linker_0, # of connection points: 2
#     Edge 30, Type (0, 0), BuildingBlock: UVAHIK_clean_linker_0, # of connection points: 2
#     Edge 31, Type (0, 0), BuildingBlock: UVAHIK_clean_linker_0, # of connection points: 2
#     Edge 32, Type (0, 0), BuildingBlock: UVAHIK_clean_linker_0, # of connection points: 2
#     Edge 33, Type (0, 0), BuildingBlock: UVAHIK_clean_linker_0, # of connection points: 2
#     Edge 34, Type (0, 0), BuildingBlock: UVAHIK_clean_linker_0, # of connection points: 2
#     Edge 35, Type (0, 0), BuildingBlock: UVAHIK_clean_linker_0, # of connection points: 2
#     Edge 36, Type (0, 0), BuildingBlock: UVAHIK_clean_linker_0, # of connection points: 2
#     Edge 37, Type (0, 0), BuildingBlock: UVAHIK_clean_linker_0, # of connection points: 2
#     Edge 38, Type (0, 0), BuildingBlock: UVAHIK_clean_linker_0, # of connection points: 2
#     Edge 39, Type (0, 0), BuildingBlock: UVAHIK_clean_linker_0, # of connection points: 2
#     Edge 40, Type (0, 0), BuildingBlock: UVAHIK_clean_linker_0, # of connection points: 2
#     Edge 41, Type (0, 0), BuildingBlock: UVAHIK_clean_linker_0, # of connection points: 2
#     Edge 42, Type (0, 0), BuildingBlock: UVAHIK_clean_linker_0, # of connection points: 2
#     Edge 43, Type (0, 0), BuildingBlock: UVAHIK_clean_linker_0, # of connection points: 2
#     Edge 44, Type (0, 0), BuildingBlock: UVAHIK_clean_linker_0, # of connection points: 2
#     Edge 45, Type (0, 0), BuildingBlock: UVAHIK_clean_linker_0, # of connection points: 2
#     Edge 46, Type (0, 0), BuildingBlock: UVAHIK_clean_linker_0, # of connection points: 2
#     Edge 47, Type (0, 0), BuildingBlock: UVAHIK_clean_linker_0, # of connection points: 2
#     Edge 48, Type (0, 0), BuildingBlock: UVAHIK_clean_linker_0, # of connection points: 2
#     Edge 49, Type (0, 0), BuildingBlock: UVAHIK_clean_linker_0, # of connection points: 2
#     Edge 50, Type (0, 0), BuildingBlock: UVAHIK_clean_linker_0, # of connection points: 2
#     Edge 51, Type (0, 0), BuildingBlock: UVAHIK_clean_linker_0, # of connection points: 2
#     Edge 52, Type (0, 0), BuildingBlock: UVAHIK_clean_linker_0, # of connection points: 2
#     Edge 53, Type (0, 0), BuildingBlock: UVAHIK_clean_linker_0, # of connection points: 2
#     Edge 54, Type (0, 0), BuildingBlock: UVAHIK_clean_linker_0, # of connection points: 2
#     Edge 55, Type (0, 0), BuildingBlock: UVAHIK_clean_linker_0, # of connection points: 2
#     Edge 56, Type (0, 0), BuildingBlock: UVAHIK_clean_linker_0, # of connection points: 2
#     Edge 57, Type (0, 0), BuildingBlock: UVAHIK_clean_linker_0, # of connection points: 2
#     Edge 58, Type (0, 0), BuildingBlock: UVAHIK_clean_linker_0, # of connection points: 2
#     Edge 59, Type (0, 0), BuildingBlock: UVAHIK_clean_linker_0, # of connection points: 2
#     Edge 60, Type (0, 0), BuildingBlock: UVAHIK_clean_linker_0, # of connection points: 2
#     Edge 61, Type (0, 0), BuildingBlock: UVAHIK_clean_linker_0, # of connection points: 2
#     Edge 62, Type (0, 0), BuildingBlock: UVAHIK_clean_linker_0, # of connection points: 2
#     Edge 63, Type (0, 0), BuildingBlock: UVAHIK_clean_linker_0, # of connection points: 2
# Relax obj value: 0.277
# Max RMSD: 0.215
# Mean RMSD: 0.215
data_MOF--net-whk--node1-OJICUG_clean_sbu_0--edge1-UVAHIK_clean_linker_0
_symmetry_space_group_name_H-M    P1
_symmetry_Int_Tables_number       1
_symmetry_cell_setting            triclinic
loop_
_symmetry_equiv_pos_as_xyz
'x, y, z'
_cell_length_a     46.215302
_cell_length_b     46.241204
_cell_length_c     69.438292
_cell_angle_alpha  90.019723
_cell_angle_beta   89.982129
_cell_angle_gamma 89.989353
loop_
_atom_site_label
_atom_site_type_symbol
_atom_site_fract_x
_atom_site_fract_y
_atom_site_fract_z
_atom_type_partial_charge
Sc0 Sc 0.57012 0.14864 0.38932 0.0
Sc1 Sc 0.58245 0.219 0.3736 0.0
Sc2 Sc 0.52833 0.20467 0.40723 0.0
O3 O 0.55973 0.19086 0.38966 0.0
C4 C 0.50303 0.14613 0.38854 0.0
C5 C 0.58029 0.16739 0.34518 0.0
C6 C 0.51775 0.24458 0.37161 0.0
C7 C 0.63013 0.17858 0.39157 0.0
C8 C 0.55752 0.15809 0.43353 0.0
C9 C 0.57588 0.25448 0.41196 0.0
O10 O 0.5267 0.13737 0.3811 0.0
O11 O 0.57506 0.19413 0.34783 0.0
O12 O 0.50737 0.22767 0.38432 0.0
O13 O 0.61283 0.16018 0.39876 0.0
O14 O 0.5485 0.18385 0.43158 0.0
O15 O 0.59218 0.24569 0.39839 0.0
O16 O 0.55995 0.14106 0.41927 0.0
O17 O 0.62269 0.19622 0.3784 0.0
O18 O 0.55119 0.24351 0.41547 0.0
O19 O 0.58241 0.14958 0.35911 0.0
O20 O 0.50169 0.16747 0.40021 0.0
O21 O 0.54458 0.24507 0.36729 0.0
Sc22 Sc 0.35135 0.56829 0.38972 0.0
Sc23 Sc 0.27866 0.5733 0.37551 0.0
Sc24 Sc 0.29995 0.52193 0.40996 0.0
O25 O 0.3099 0.55425 0.39156 0.0
C26 C 0.35896 0.50068 0.38982 0.0
C27 C 0.32998 0.57477 0.34582 0.0
C28 C 0.25896 0.50694 0.37471 0.0
C29 C 0.31656 0.62634 0.39065 0.0
C30 C 0.3462 0.55592 0.4347 0.0
C31 C 0.24627 0.56498 0.41566 0.0
O32 O 0.36631 0.52532 0.38325 0.0
O33 O 0.30334 0.56999 0.34918 0.0
O34 O 0.27515 0.49913 0.38859 0.0
O35 O 0.33787 0.61156 0.39669 0.0
O36 O 0.32242 0.54233 0.43356 0.0
O37 O 0.25069 0.57923 0.40024 0.0
O38 O 0.36063 0.56308 0.4199 0.0
O39 O 0.29586 0.61573 0.38085 0.0
O40 O 0.26152 0.54321 0.42041 0.0
O41 O 0.34869 0.57661 0.35918 0.0
O42 O 0.33731 0.49707 0.40098 0.0
O43 O 0.25751 0.53295 0.36882 0.0
Sc44 Sc 0.93146 0.35084 0.3945 0.0
Sc45 Sc 0.91775 0.2777 0.38265 0.0
Sc46 Sc 0.97311 0.2957 0.41523 0.0
O47 O 0.94087 0.308 0.39727 0.0
C48 C -0.00028 0.35165 0.39437 0.0
C49 C 0.91966 0.32827 0.35154 0.0
C50 C 0.98252 0.25383 0.37925 0.0
C51 C 0.86974 0.32152 0.39829 0.0
C52 C 0.94374 0.34556 0.43964 0.0
C53 C 0.92749 0.24509 0.42266 0.0
O54 O 0.97586 0.36166 0.38811 0.0
O55 O 0.91829 0.30165 0.35598 0.0
O56 O 0.99193 0.26821 0.3936 0.0
O57 O 0.88659 0.34282 0.40118 0.0
O58 O 0.95599 0.32102 0.4387 0.0
O59 O 0.91306 0.24947 0.40735 0.0
O60 O 0.93687 0.35991 0.42473 0.0
O61 O 0.87769 0.29763 0.39091 0.0
O62 O 0.94963 0.2599 0.42702 0.0
O63 O 0.92382 0.34808 0.36391 0.0
O64 O 0.00119 0.3297 0.40536 0.0
O65 O 0.95627 0.25484 0.37364 0.0
Sc66 Sc 0.19971 0.97655 0.4121 0.0
Sc67 Sc 0.22115 0.92146 0.38013 0.0
Sc68 Sc 0.14719 0.93239 0.39059 0.0
O69 O 0.18945 0.94362 0.39408 0.0
C70 C 0.14951 0.94606 0.43562 0.0
C71 C 0.2511 0.93219 0.42099 0.0
C72 C 0.17848 0.87213 0.39533 0.0
C73 C 0.24356 0.98672 0.37724 0.0
C74 C 0.14373 0.00047 0.38964 0.0
C75 C 0.17202 0.92097 0.34809 0.0
O76 O 0.17364 0.95917 0.43513 0.0
O77 O 0.24793 0.91787 0.40551 0.0
O78 O 0.15654 0.8882 0.39794 0.0
O79 O 0.22797 0.99586 0.39109 0.0
O80 O 0.13518 0.97598 0.38355 0.0
O81 O 0.19856 0.92113 0.3529 0.0
O82 O 0.16515 0.00339 0.40103 0.0
O83 O 0.24355 0.96046 0.37164 0.0
O84 O 0.15164 0.9241 0.36019 0.0
O85 O 0.2356 0.95405 0.42506 0.0
O86 O 0.1363 0.93821 0.42047 0.0
O87 O 0.2022 0.88079 0.38806 0.0
Sc88 Sc 0.06935 0.85121 0.11756 0.0
Sc89 Sc 0.08271 0.77729 0.12762 0.0
Sc90 Sc 0.02635 0.7975 0.09634 0.0
O91 O 0.05935 0.8086 0.11403 0.0
C92 C 0.00096 0.85254 0.11888 0.0
C93 C 0.08143 0.82624 0.15992 0.0
C94 C 0.01826 0.75286 0.13096 0.0
C95 C 0.13071 0.82158 0.11265 0.0
C96 C 0.05514 0.84865 0.07259 0.0
C97 C 0.07209 0.7478 0.08656 0.0
O98 O 0.02522 0.86254 0.12445 0.0
O99 O 0.08266 0.79979 0.15494 0.0
O100 O 0.00844 0.76832 0.11728 0.0
O101 O 0.11397 0.84309 0.1103 0.0
O102 O 0.04197 0.82457 0.0733 0.0
O103 O 0.08674 0.75082 0.10194 0.0
O104 O 0.06371 0.86176 0.08761 0.0
O105 O 0.1227 0.79747 0.11962 0.0
O106 O 0.04981 0.76291 0.08296 0.0
O107 O 0.0773 0.84664 0.14798 0.0
O108 O -0.00128 0.83059 0.10794 0.0
O109 O 0.04461 0.75353 0.13634 0.0
Sc110 Sc 0.70271 0.02075 0.09284 0.0
Sc111 Sc 0.71989 0.07621 0.12534 0.0
Sc112 Sc 0.64743 0.06355 0.1119 0.0
O113 O 0.6901 0.05335 0.11024 0.0
C114 C 0.65458 0.04998 0.06717 0.0
C115 C 0.75357 0.06655 0.08593 0.0
C116 C 0.67715 0.12451 0.10876 0.0
C117 C 0.7436 0.01132 0.12891 0.0
C118 C 0.64534 0.99569 0.11292 0.0
C119 C 0.66848 0.07516 0.15539 0.0
O120 O 0.67947 0.03859 0.06871 0.0
O121 O 0.74781 0.08211 0.10055 0.0
O122 O 0.65671 0.10758 0.10404 0.0
O123 O 0.72816 0.0013 0.11528 0.0
O124 O 0.63598 0.01974 0.11931 0.0
O125 O 0.69544 0.07359 0.1518 0.0
O126 O 0.66717 0.99373 0.1018 0.0
O127 O 0.74367 0.03793 0.13367 0.0
O128 O 0.64936 0.07351 0.14226 0.0
O129 O 0.7399 0.04343 0.08214 0.0
O130 O 0.63907 0.05603 0.08173 0.0
O131 O 0.69955 0.11657 0.118 0.0
Sc132 Sc 0.4714 0.69813 0.09225 0.0
Sc133 Sc 0.41891 0.71674 0.12651 0.0
Sc134 Sc 0.42803 0.64449 0.1122 0.0
O135 O 0.43972 0.68658 0.11056 0.0
C136 C 0.43977 0.65088 0.06735 0.0
C137 C 0.42653 0.7503 0.08693 0.0
C138 C 0.36839 0.67643 0.11049 0.0
C139 C 0.48467 0.73879 0.12779 0.0
C140 C 0.49559 0.64017 0.11207 0.0
C141 C 0.41928 0.66539 0.15603 0.0
O142 O 0.45102 0.67584 0.06857 0.0
O143 O 0.41157 0.74461 0.10186 0.0
O144 O 0.38453 0.65614 0.10439 0.0
O145 O 0.49337 0.72264 0.11411 0.0
O146 O 0.47166 0.63191 0.11936 0.0
O147 O 0.42343 0.69215 0.15278 0.0
O148 O 0.49749 0.66136 0.10038 0.0
O149 O 0.45836 0.73977 0.13325 0.0
O150 O 0.41822 0.64675 0.14257 0.0
O151 O 0.44923 0.73626 0.08253 0.0
O152 O 0.43511 0.63533 0.08209 0.0
O153 O 0.37742 0.69718 0.12095 0.0
Sc154 Sc 0.79888 0.47077 0.09822 0.0
Sc155 Sc 0.7777 0.41863 0.13221 0.0
Sc156 Sc 0.85135 0.42698 0.11995 0.0
O157 O 0.80925 0.43901 0.117 0.0
C158 C 0.84738 0.43766 0.07463 0.0
C159 C 0.74698 0.42612 0.09142 0.0
C160 C 0.81877 0.3671 0.11852 0.0
C161 C 0.75582 0.48432 0.13274 0.0
C162 C 0.85629 0.49498 0.11877 0.0
C163 C 0.8277 0.42031 0.1633 0.0
O164 O 0.82347 0.45116 0.07526 0.0
O165 O 0.75086 0.4121 0.10697 0.0
O166 O 0.84034 0.38262 0.11383 0.0
O167 O 0.77206 0.49253 0.11898 0.0
O168 O 0.86486 0.47086 0.12553 0.0
O169 O 0.80096 0.4218 0.15907 0.0
O170 O 0.83443 0.49733 0.10772 0.0
O171 O 0.75515 0.45833 0.13878 0.0
O172 O 0.84762 0.42069 0.15067 0.0
O173 O 0.76201 0.44812 0.08694 0.0
O174 O 0.8612 0.43066 0.08972 0.0
O175 O 0.79631 0.37697 0.12679 0.0
Sc176 Sc 0.46941 0.79687 0.59751 0.0
Sc177 Sc 0.41492 0.77599 0.63007 0.0
Sc178 Sc 0.42563 0.84985 0.61898 0.0
O179 O 0.43682 0.80751 0.61571 0.0
C180 C 0.49403 0.85287 0.6194 0.0
C181 C 0.47988 0.7524 0.63196 0.0
C182 C 0.41631 0.82547 0.66185 0.0
C183 C 0.42415 0.74629 0.58892 0.0
C184 C 0.43862 0.84713 0.57387 0.0
C185 C 0.365 0.81851 0.61571 0.0
O186 O 0.49663 0.83072 0.60865 0.0
O187 O 0.45385 0.7531 0.63795 0.0
O188 O 0.41879 0.84569 0.64957 0.0
O189 O 0.44602 0.76171 0.58476 0.0
O190 O 0.43003 0.86011 0.58893 0.0
O191 O 0.374 0.79509 0.62316 0.0
O192 O 0.45247 0.82343 0.57454 0.0
O193 O 0.41012 0.74926 0.60457 0.0
O194 O 0.38109 0.84022 0.61238 0.0
O195 O 0.48888 0.76791 0.61805 0.0
O196 O 0.46964 0.86242 0.62511 0.0
O197 O 0.41611 0.79885 0.65721 0.0
Sc198 Sc 0.64489 0.42611 0.61581 0.0
Sc199 Sc 0.71769 0.42251 0.6302 0.0
Sc200 Sc 0.69588 0.47258 0.5949 0.0
O201 O 0.68622 0.44064 0.61378 0.0
C202 C 0.65004 0.43684 0.57056 0.0
C203 C 0.68066 0.36832 0.61602 0.0
C204 C 0.74994 0.43003 0.58982 0.0
C205 C 0.66597 0.42171 0.65988 0.0
C206 C 0.63663 0.49398 0.61451 0.0
C207 C 0.73688 0.48898 0.63007 0.0
O208 O 0.63629 0.429 0.58548 0.0
O209 O 0.70156 0.37971 0.62519 0.0
O210 O 0.73403 0.45103 0.58458 0.0
O211 O 0.64724 0.41984 0.64654 0.0
O212 O 0.65874 0.49755 0.60379 0.0
O213 O 0.73781 0.46334 0.63666 0.0
O214 O 0.62906 0.46935 0.62104 0.0
O215 O 0.69272 0.42578 0.65647 0.0
O216 O 0.72129 0.49607 0.61572 0.0
O217 O 0.65883 0.38246 0.61009 0.0
O218 O 0.67298 0.45187 0.5715 0.0
O219 O 0.74613 0.41654 0.60562 0.0
Sc220 Sc 0.06579 0.6426 0.61129 0.0
Sc221 Sc 0.07618 0.71611 0.62342 0.0
Sc222 Sc 0.02199 0.69593 0.59049 0.0
O223 O 0.05453 0.68496 0.60859 0.0
C224 C 0.05344 0.64725 0.56612 0.0
C225 C 0.12614 0.67442 0.60792 0.0
C226 C 0.06607 0.74806 0.58325 0.0
C227 C 0.07599 0.66554 0.65441 0.0
C228 C 0.9976 0.63894 0.61133 0.0
C229 C 0.01058 0.73774 0.62621 0.0
O230 O 0.0608 0.63318 0.58105 0.0
O231 O 0.11714 0.69764 0.6157 0.0
O232 O 0.04431 0.73268 0.57883 0.0
O233 O 0.07337 0.64568 0.64188 0.0
O234 O 0.99522 0.66069 0.60022 0.0
O235 O 0.03681 0.73793 0.63189 0.0
O236 O 0.02186 0.63014 0.61774 0.0
O237 O 0.07575 0.69227 0.65014 0.0
O238 O 0.00179 0.72264 0.61203 0.0
O239 O 0.1102 0.65261 0.60453 0.0
O240 O 0.04024 0.6713 0.56707 0.0
O241 O 0.08047 0.74411 0.59862 0.0
Sc242 Sc 0.84931 0.0623 0.6162 0.0
Sc243 Sc 0.77624 0.07786 0.62721 0.0
Sc244 Sc 0.79371 0.02116 0.59559 0.0
O245 O 0.80635 0.05364 0.61322 0.0
C246 C 0.84447 0.04886 0.57121 0.0
C247 C 0.82167 0.12443 0.61173 0.0
C248 C 0.74477 0.0683 0.58688 0.0
C249 C 0.82582 0.0754 0.65887 0.0
C250 C 0.84909 0.99419 0.61706 0.0
C251 C 0.75062 0.01382 0.63096 0.0
O252 O 0.85887 0.05561 0.58614 0.0
O253 O 0.79769 0.11724 0.61931 0.0
O254 O 0.75838 0.04507 0.58326 0.0
O255 O 0.84588 0.07114 0.64666 0.0
O256 O 0.82726 0.99275 0.60593 0.0
O257 O 0.75145 0.04037 0.63588 0.0
O258 O 0.85922 0.01802 0.62325 0.0
O259 O 0.79923 0.07659 0.65424 0.0
O260 O 0.76581 0.00339 0.61732 0.0
O261 O 0.84243 0.10698 0.60876 0.0
O262 O 0.81959 0.0373 0.57213 0.0
O263 O 0.74958 0.08331 0.60187 0.0
Sc264 Sc 0.93001 0.14554 0.88948 0.0
Sc265 Sc 0.91682 0.2191 0.87891 0.0
Sc266 Sc 0.97389 0.19939 0.9098 0.0
O267 O 0.94037 0.18808 0.89254 0.0
C268 C 0.94506 0.14914 0.93428 0.0
C269 C 0.86887 0.1753 0.89457 0.0
C270 C 0.92842 0.24945 0.91951 0.0
C271 C 0.9173 0.16971 0.84699 0.0
C272 C -0.0017 0.14354 0.88757 0.0
C273 C 0.98141 0.24328 0.87477 0.0
O274 O 0.93656 0.13555 0.91944 0.0
O275 O 0.87682 0.19916 0.88721 0.0
O276 O 0.95102 0.2347 0.92291 0.0
O277 O 0.92124 0.1495 0.85911 0.0
O278 O 0.00113 0.16546 0.89851 0.0
O279 O 0.95487 0.24252 0.86983 0.0
O280 O 0.97378 0.13414 0.8821 0.0
O281 O 0.91657 0.19627 0.85175 0.0
O282 O 0.99172 0.2279 0.88835 0.0
O283 O 0.88562 0.15387 0.89716 0.0
O284 O 0.9581 0.17327 0.93329 0.0
O285 O 0.91318 0.2458 0.90445 0.0
Sc286 Sc 0.34998 0.93321 0.89295 0.0
Sc287 Sc 0.27653 0.92166 0.88124 0.0
Sc288 Sc 0.29608 0.97718 0.91335 0.0
O289 O 0.30747 0.94414 0.89567 0.0
C290 C 0.34539 0.94697 0.93794 0.0
C291 C 0.31875 0.87272 0.89743 0.0
C292 C 0.24448 0.93291 0.92138 0.0
C293 C 0.32717 0.92109 0.8501 0.0
C294 C 0.35274 0.00145 0.89193 0.0
C295 C 0.25412 0.98673 0.87733 0.0
O296 O 0.35924 0.93884 0.9231 0.0
O297 O 0.29504 0.88134 0.89015 0.0
O298 O 0.26 0.95456 0.92581 0.0
O299 O 0.34708 0.9251 0.86242 0.0
O300 O 0.33069 0.00424 0.90279 0.0
O301 O 0.25498 0.9605 0.8717 0.0
O302 O 0.36197 0.97699 0.88623 0.0
O303 O 0.30051 0.92052 0.85458 0.0
O304 O 0.26841 0.996 0.89176 0.0
O305 O 0.34076 0.88875 0.8999 0.0
O306 O 0.3214 0.96028 0.93691 0.0
O307 O 0.24819 0.91868 0.90591 0.0
Sc308 Sc 0.56795 0.34997 0.89366 0.0
Sc309 Sc 0.57678 0.27832 0.8781 0.0
Sc310 Sc 0.52488 0.29557 0.91307 0.0
O311 O 0.55625 0.30784 0.8947 0.0
C312 C 0.55677 0.34199 0.93847 0.0
C313 C 0.62759 0.31788 0.8945 0.0
C314 C 0.56982 0.2433 0.9172 0.0
C315 C 0.57618 0.33074 0.84944 0.0
C316 C 0.50038 0.35419 0.89433 0.0
C317 C 0.51095 0.25635 0.8769 0.0
O318 O 0.56125 0.35805 0.92394 0.0
O319 O 0.61834 0.29756 0.88376 0.0
O320 O 0.54721 0.25716 0.92204 0.0
O321 O 0.57742 0.3489 0.86317 0.0
O322 O 0.49871 0.33261 0.9057 0.0
O323 O 0.53714 0.25582 0.87116 0.0
O324 O 0.52418 0.36271 0.88697 0.0
O325 O 0.57198 0.30389 0.8523 0.0
O326 O 0.50253 0.2717 0.89106 0.0
O327 O 0.61158 0.33802 0.90101 0.0
O328 O 0.54559 0.31704 0.93693 0.0
O329 O 0.58447 0.24949 0.90223 0.0
Sc330 Sc 0.1959 0.52313 0.90776 0.0
Sc331 Sc 0.21887 0.57456 0.87373 0.0
Sc332 Sc 0.14503 0.56878 0.88592 0.0
O333 O 0.18665 0.55529 0.88896 0.0
C334 C 0.13795 0.50082 0.88697 0.0
C335 C 0.23898 0.50835 0.87343 0.0
C336 C 0.16893 0.57422 0.84256 0.0
C337 C 0.24893 0.56641 0.91472 0.0
C338 C 0.14836 0.5579 0.93126 0.0
C339 C 0.17942 0.62758 0.88702 0.0
O340 O 0.15973 0.49751 0.89799 0.0
O341 O 0.24019 0.53423 0.86726 0.0
O342 O 0.149 0.57456 0.85519 0.0
O343 O 0.23318 0.54492 0.91925 0.0
O344 O 0.13508 0.56579 0.91615 0.0
O345 O 0.20162 0.6168 0.87896 0.0
O346 O 0.17157 0.54323 0.93067 0.0
O347 O 0.2457 0.5803 0.89904 0.0
O348 O 0.15733 0.61288 0.89179 0.0
O349 O 0.22251 0.50064 0.8872 0.0
O350 O 0.13023 0.52537 0.88044 0.0
O351 O 0.19561 0.57202 0.84681 0.0
C352 C 0.59232 0.12731 0.3221 0.0
C353 C 0.58611 0.15672 0.32533 0.0
C354 C 0.60005 0.11747 0.30377 0.0
C355 C 0.59788 0.13642 0.25198 0.0
H356 H 0.66105 0.08144 0.24827 0.0
C357 C 0.67895 0.08627 0.19023 0.0
C358 C 0.6588 0.08097 0.17546 0.0
C359 C 0.66964 0.0942 0.2087 0.0
C360 C 0.64349 0.09691 0.24903 0.0
H361 H 0.58253 0.19867 0.31153 0.0
H362 H 0.59614 0.18147 0.27957 0.0
H363 H 0.64536 0.09853 0.27982 0.0
H364 H 0.6129 0.07895 0.16887 0.0
H365 H 0.59681 0.09239 0.201 0.0
H366 H 0.59642 0.13527 0.22118 0.0
C367 C 0.59482 0.16599 0.29124 0.0
C368 C 0.63425 0.10646 0.26714 0.0
C369 C 0.5871 0.17588 0.30961 0.0
C370 C 0.62911 0.08302 0.1798 0.0
C371 C 0.61983 0.09094 0.19822 0.0
C372 C 0.60707 0.12681 0.23387 0.0
C373 C 0.60176 0.13672 0.28815 0.0
C374 C 0.61134 0.12636 0.26885 0.0
C375 C 0.63996 0.09703 0.21284 0.0
C376 C 0.63001 0.10694 0.23216 0.0
H377 H 0.59165 0.11184 0.33379 0.0
H378 H 0.60473 0.0947 0.30184 0.0
H379 H 0.58004 0.15156 0.25276 0.0
H380 H 0.70197 0.085 0.18745 0.0
H381 H 0.68575 0.09894 0.21957 0.0
C382 C 0.40845 0.62597 0.17978 0.0
C383 C 0.41349 0.65546 0.17604 0.0
C384 C 0.40038 0.61665 0.19814 0.0
C385 C 0.36487 0.60591 0.23417 0.0
H386 H 0.40021 0.63707 0.28033 0.0
C387 C 0.31946 0.5846 0.31081 0.0
C388 C 0.33961 0.58045 0.32574 0.0
C389 C 0.32868 0.5928 0.29238 0.0
C390 C 0.39025 0.62797 0.26758 0.0
H391 H 0.41477 0.69814 0.18901 0.0
H392 H 0.40063 0.6818 0.22111 0.0
H393 H 0.4169 0.65333 0.24882 0.0
H394 H 0.38545 0.58056 0.33264 0.0
H395 H 0.40139 0.59437 0.30058 0.0
H396 H 0.33851 0.58025 0.25291 0.0
C397 C 0.40306 0.66589 0.20977 0.0
C398 C 0.39961 0.63756 0.24952 0.0
C399 C 0.41111 0.67527 0.19134 0.0
C400 C 0.36924 0.58378 0.32159 0.0
C401 C 0.37842 0.59193 0.3032 0.0
C402 C 0.35547 0.59638 0.25223 0.0
C403 C 0.39716 0.63651 0.2133 0.0
C404 C 0.38711 0.62657 0.23258 0.0
C405 C 0.35826 0.597 0.28844 0.0
C406 C 0.36811 0.6072 0.26917 0.0
H407 H 0.41022 0.60999 0.16843 0.0
H408 H 0.39656 0.5938 0.20044 0.0
H409 H 0.3545 0.59727 0.22143 0.0
H410 H 0.29647 0.58235 0.31348 0.0
H411 H 0.31254 0.59671 0.28139 0.0
C412 C 0.89507 0.32031 0.31988 0.0
C413 C 0.91371 0.33693 0.33138 0.0
C414 C 0.88665 0.33007 0.30166 0.0
C415 C 0.88432 0.3974 0.27164 0.0
H416 H 0.86298 0.34308 0.23154 0.0
C417 C 0.86347 0.42391 0.19034 0.0
C418 C 0.83613 0.41519 0.18359 0.0
C419 C 0.87279 0.41611 0.2088 0.0
C420 C 0.86879 0.35843 0.24268 0.0
H421 H 0.93925 0.37616 0.33247 0.0
H422 H 0.92607 0.3924 0.30028 0.0
H423 H 0.88184 0.32504 0.26202 0.0
H424 H 0.79702 0.39179 0.19098 0.0
H425 H 0.81379 0.37742 0.22304 0.0
H426 H 0.87236 0.43075 0.25162 0.0
C427 C 0.91681 0.37242 0.30555 0.0
C428 C 0.87944 0.34816 0.26024 0.0
C429 C 0.92468 0.36298 0.32397 0.0
C430 C 0.81807 0.39906 0.19584 0.0
C431 C 0.82769 0.39066 0.2141 0.0
C432 C 0.87431 0.40765 0.25388 0.0
C433 C 0.89718 0.35642 0.29424 0.0
C434 C 0.88709 0.36745 0.27511 0.0
C435 C 0.85523 0.39886 0.22064 0.0
C436 C 0.86618 0.38823 0.23936 0.0
H437 H 0.88593 0.30033 0.32529 0.0
H438 H 0.8711 0.31727 0.29372 0.0
H439 H 0.88933 0.41305 0.28274 0.0
H440 H 0.87786 0.43633 0.18122 0.0
H441 H 0.89414 0.42261 0.21357 0.0
C442 C 0.18185 0.89641 0.31659 0.0
C443 C 0.16417 0.91447 0.32787 0.0
C444 C 0.17266 0.88719 0.29839 0.0
C445 C 0.12694 0.90466 0.25761 0.0
H446 H 0.12099 0.82194 0.24939 0.0
C447 C 0.0759 0.85972 0.18804 0.0
C448 C 0.08734 0.83414 0.18022 0.0
C449 C 0.08395 0.86892 0.20647 0.0
C450 C 0.12294 0.8451 0.25122 0.0
H451 H 0.1236 0.938 0.32859 0.0
H452 H 0.10811 0.92275 0.29642 0.0
H453 H 0.13961 0.8403 0.27988 0.0
H454 H 0.11596 0.79797 0.18565 0.0
H455 H 0.13106 0.81451 0.21734 0.0
H456 H 0.11157 0.90981 0.22883 0.0
C457 C 0.12882 0.91541 0.30185 0.0
C458 C 0.13349 0.85557 0.26877 0.0
C459 C 0.13768 0.92409 0.32023 0.0
C460 C 0.10651 0.81761 0.19138 0.0
C461 C 0.11509 0.82713 0.20965 0.0
C462 C 0.11698 0.89424 0.23989 0.0
C463 C 0.14595 0.8964 0.29094 0.0
C464 C 0.13548 0.88542 0.27214 0.0
C465 C 0.10423 0.85316 0.21739 0.0
C466 C 0.11466 0.86426 0.23643 0.0
H467 H 0.20225 0.88843 0.32214 0.0
H468 H 0.18629 0.87264 0.29018 0.0
H469 H 0.12845 0.9278 0.25985 0.0
H470 H 0.06089 0.87281 0.17982 0.0
H471 H 0.07437 0.88858 0.21203 0.0
C472 C 0.36214 0.92424 0.82252 0.0
C473 C 0.33568 0.91429 0.83003 0.0
C474 C 0.3714 0.91551 0.80422 0.0
C475 C 0.36851 0.85537 0.77146 0.0
H476 H 0.38693 0.90954 0.7307 0.0
C477 C 0.39327 0.81669 0.69397 0.0
C478 C 0.41118 0.83366 0.68218 0.0
C479 C 0.38533 0.82633 0.71233 0.0
C480 C 0.38253 0.89401 0.74198 0.0
H481 H 0.29814 0.88755 0.82419 0.0
H482 H 0.31482 0.87168 0.79243 0.0
H483 H 0.37048 0.92755 0.76183 0.0
H484 H 0.43611 0.87326 0.68075 0.0
H485 H 0.42381 0.88928 0.71312 0.0
H486 H 0.38156 0.82182 0.75218 0.0
C487 C 0.3281 0.88652 0.80065 0.0
C488 C 0.37283 0.90444 0.75977 0.0
C489 C 0.3185 0.89579 0.81874 0.0
C490 C 0.42206 0.85982 0.68947 0.0
C491 C 0.41468 0.86915 0.70799 0.0
C492 C 0.37883 0.84493 0.75384 0.0
C493 C 0.35473 0.89612 0.79331 0.0
C494 C 0.36547 0.8852 0.77458 0.0
C495 C 0.39562 0.85291 0.71956 0.0
C496 C 0.38577 0.86406 0.73873 0.0
H497 H 0.37584 0.9385 0.83089 0.0
H498 H 0.39204 0.92315 0.79885 0.0
H499 H 0.36328 0.84013 0.78278 0.0
H500 H 0.38426 0.79659 0.68865 0.0
H501 H 0.37026 0.81331 0.72052 0.0
C502 C 0.58431 0.3218 0.81403 0.0
C503 C 0.58187 0.34124 0.82954 0.0
C504 C 0.5923 0.33163 0.7957 0.0
C505 C 0.63003 0.39233 0.77171 0.0
H506 H 0.59529 0.36098 0.72541 0.0
C507 C 0.67618 0.41301 0.69509 0.0
C508 C 0.65618 0.41679 0.68003 0.0
C509 C 0.66677 0.40527 0.71357 0.0
C510 C 0.60507 0.37016 0.73819 0.0
H511 H 0.58502 0.38652 0.83762 0.0
H512 H 0.59854 0.40353 0.80574 0.0
H513 H 0.57848 0.34456 0.75683 0.0
H514 H 0.61038 0.41663 0.67297 0.0
H515 H 0.59414 0.40359 0.70509 0.0
H516 H 0.65638 0.4182 0.75305 0.0
C517 C 0.59482 0.38062 0.80781 0.0
C518 C 0.59565 0.36048 0.75622 0.0
C519 C 0.58682 0.37083 0.8261 0.0
C520 C 0.6265 0.41367 0.68411 0.0
C521 C 0.61713 0.40597 0.70254 0.0
C522 C 0.63951 0.40197 0.75367 0.0
C523 C 0.59806 0.36111 0.79244 0.0
C524 C 0.60797 0.37146 0.77321 0.0
C525 C 0.63715 0.40114 0.71742 0.0
C526 C 0.62711 0.39105 0.73668 0.0
H527 H 0.58076 0.29887 0.81612 0.0
H528 H 0.59479 0.31597 0.78422 0.0
H529 H 0.64028 0.401 0.78449 0.0
H530 H 0.69919 0.41513 0.69249 0.0
H531 H 0.6828 0.40157 0.72468 0.0
C532 C 0.10019 0.67401 0.68617 0.0
C533 C 0.08209 0.65691 0.67454 0.0
C534 C 0.109 0.66417 0.7043 0.0
C535 C 0.09054 0.62064 0.74508 0.0
H536 H 0.17257 0.60621 0.75179 0.0
C537 C 0.1334 0.57019 0.81547 0.0
C538 C 0.16058 0.57917 0.82225 0.0
C539 C 0.12411 0.57771 0.79697 0.0
C540 C 0.14966 0.61055 0.75039 0.0
H541 H 0.05806 0.61669 0.67311 0.0
H542 H 0.07256 0.60012 0.70525 0.0
H543 H 0.15478 0.62523 0.72126 0.0
H544 H 0.19945 0.60288 0.81493 0.0
H545 H 0.18288 0.61724 0.78312 0.0
H546 H 0.08521 0.60754 0.77433 0.0
C547 C 0.08026 0.62084 0.70009 0.0
C548 C 0.13951 0.62127 0.73281 0.0
C549 C 0.07202 0.63032 0.68175 0.0
C550 C 0.17854 0.59531 0.80999 0.0
C551 C 0.16897 0.60346 0.79166 0.0
C552 C 0.10072 0.61059 0.76284 0.0
C553 C 0.09929 0.63742 0.71132 0.0
C554 C 0.10989 0.62634 0.73001 0.0
C555 C 0.14143 0.5951 0.78493 0.0
C556 C 0.13047 0.60529 0.76579 0.0
H557 H 0.10852 0.69444 0.68094 0.0
H558 H 0.12364 0.67732 0.71278 0.0
H559 H 0.06759 0.62456 0.74324 0.0
H560 H 0.11917 0.55754 0.82457 0.0
H561 H 0.10316 0.57004 0.79223 0.0
C562 C 0.81698 0.10019 0.69039 0.0
C563 C 0.83414 0.0818 0.67904 0.0
C564 C 0.82641 0.10914 0.70858 0.0
C565 C 0.89358 0.11386 0.73861 0.0
H566 H 0.83865 0.13351 0.77875 0.0
C567 C 0.92204 0.13553 0.81914 0.0
C568 C 0.9112 0.16155 0.82677 0.0
C569 C 0.91396 0.12635 0.80071 0.0
C570 C 0.85419 0.12824 0.7676 0.0
H571 H 0.87406 0.05727 0.67823 0.0
H572 H 0.8898 0.07142 0.71035 0.0
H573 H 0.82116 0.11418 0.74826 0.0
H574 H 0.88363 0.19848 0.82096 0.0
H575 H 0.86886 0.18192 0.78892 0.0
H576 H 0.9266 0.12686 0.75857 0.0
C577 C 0.86959 0.08005 0.70497 0.0
C578 C 0.84421 0.11728 0.75004 0.0
C579 C 0.86043 0.07162 0.68659 0.0
C580 C 0.89252 0.17846 0.81543 0.0
C581 C 0.88391 0.16892 0.79717 0.0
C582 C 0.90355 0.12421 0.75635 0.0
C583 C 0.85302 0.09944 0.7161 0.0
C584 C 0.86373 0.11012 0.73518 0.0
C585 C 0.89435 0.14267 0.78974 0.0
C586 C 0.88392 0.13172 0.77093 0.0
H587 H 0.79678 0.10873 0.68488 0.0
H588 H 0.81317 0.12446 0.7164 0.0
H589 H 0.90937 0.10928 0.7275 0.0
H590 H 0.93649 0.12207 0.82754 0.0
H591 H 0.92224 0.106 0.79528 0.0
C592 C 0.44903 0.14484 0.38767 0.0
C593 C 0.47559 0.13151 0.38335 0.0
C594 C 0.42296 0.13131 0.38316 0.0
C595 C 0.38971 0.07255 0.35431 0.0
H596 H 0.33085 0.07678 0.39401 0.0
C597 C 0.29117 0.99555 0.36104 0.0
C598 C 0.26582 0.0066 0.36951 0.0
C599 C 0.31537 0.0133 0.35848 0.0
C600 C 0.34676 0.07584 0.38257 0.0
H601 H 0.49552 0.09372 0.37043 0.0
H602 H 0.44976 0.06962 0.363 0.0
H603 H 0.37628 0.10195 0.3985 0.0
H604 H 0.24479 0.04567 0.3797 0.0
H605 H 0.28673 0.07667 0.37485 0.0
H606 H 0.36011 0.04553 0.33869 0.0
C607 C 0.44922 0.09082 0.36963 0.0
C608 C 0.37292 0.09024 0.38518 0.0
C609 C 0.47543 0.10452 0.37401 0.0
C610 C 0.26416 0.03637 0.37346 0.0
C611 C 0.28824 0.0541 0.37078 0.0
C612 C 0.36342 0.05797 0.35172 0.0
C613 C 0.42269 0.10394 0.37438 0.0
C614 C 0.39475 0.08879 0.37112 0.0
C615 C 0.31455 0.04244 0.36422 0.0
C616 C 0.34168 0.05946 0.36586 0.0
H617 H 0.44827 0.16587 0.39454 0.0
H618 H 0.40295 0.14234 0.38664 0.0
H619 H 0.406 0.07123 0.34314 0.0
H620 H 0.29318 0.97272 0.35779 0.0
H621 H 0.33531 0.00365 0.35338 0.0
C622 C 0.40003 0.4773 0.37184 0.0
C623 C 0.37533 0.47474 0.38357 0.0
C624 C 0.4147 0.45263 0.36544 0.0
C625 C 0.4057 0.37379 0.35838 0.0
H626 H 0.48896 0.37106 0.36473 0.0
C627 C 0.46948 0.26897 0.36953 0.0
C628 C 0.49866 0.26757 0.36386 0.0
C629 C 0.45322 0.29392 0.36621 0.0
C630 C 0.4658 0.37159 0.36238 0.0
H631 H 0.34671 0.44407 0.39768 0.0
H632 H 0.37242 0.40132 0.38671 0.0
H633 H 0.46327 0.41613 0.37058 0.0
H634 H 0.53266 0.29024 0.34842 0.0
H635 H 0.50409 0.3336 0.34243 0.0
H636 H 0.40814 0.32899 0.35075 0.0
C637 C 0.38023 0.42236 0.38225 0.0
C638 C 0.45106 0.39745 0.36582 0.0
C639 C 0.36567 0.44695 0.38872 0.0
C640 C 0.51035 0.29065 0.35319 0.0
C641 C 0.49405 0.31562 0.34987 0.0
C642 C 0.42044 0.34794 0.35488 0.0
C643 C 0.40487 0.42491 0.37053 0.0
C644 C 0.42078 0.3986 0.3644 0.0
C645 C 0.46573 0.318 0.35709 0.0
C646 C 0.45058 0.34633 0.35738 0.0
H647 H 0.40802 0.49834 0.36752 0.0
H648 H 0.43358 0.45524 0.35636 0.0
H649 H 0.38238 0.3742 0.3568 0.0
H650 H 0.45964 0.25153 0.37762 0.0
H651 H 0.43151 0.29499 0.37204 0.0
C652 C 0.02781 0.39171 0.37836 0.0
C653 C 0.0273 0.36519 0.38827 0.0
C654 C 0.05419 0.40422 0.37295 0.0
C655 C 0.13103 0.40341 0.38669 0.0
H656 H 0.14298 0.44413 0.33853 0.0
C657 C 0.23942 0.45658 0.37261 0.0
C658 C 0.23737 0.48591 0.3675 0.0
C659 C 0.2156 0.43829 0.37052 0.0
C660 C 0.13994 0.4328 0.35202 0.0
H661 H 0.05417 0.33048 0.39949 0.0
H662 H 0.0997 0.35205 0.38993 0.0
H663 H 0.09674 0.41992 0.34463 0.0
H664 H 0.20973 0.51819 0.35418 0.0
H665 H 0.16813 0.48648 0.35091 0.0
H666 H 0.17359 0.41673 0.39443 0.0
C667 C 0.07986 0.36354 0.38671 0.0
C668 C 0.11345 0.41906 0.35554 0.0
C669 C 0.05366 0.35117 0.39218 0.0
C670 C 0.21203 0.49575 0.35839 0.0
C671 C 0.18811 0.47751 0.35645 0.0
C672 C 0.15736 0.41705 0.38318 0.0
C673 C 0.08051 0.39039 0.37729 0.0
C674 C 0.10869 0.40436 0.37299 0.0
C675 C 0.18919 0.44901 0.36343 0.0
C676 C 0.16213 0.43208 0.36588 0.0
H677 H 0.00789 0.40301 0.37504 0.0
H678 H 0.05399 0.42506 0.36584 0.0
H679 H 0.12789 0.39281 0.40044 0.0
H680 H 0.2588 0.44816 0.37936 0.0
H681 H 0.21735 0.41617 0.37551 0.0
C682 C 0.10429 0.02477 0.37072 0.0
C683 C 0.12847 0.02682 0.38295 0.0
C684 C 0.08991 0.04967 0.36451 0.0
C685 C 0.09771 0.12924 0.36013 0.0
H686 H 0.01429 0.12948 0.36592 0.0
C687 C 0.03128 0.23073 0.37627 0.0
C688 C 0.00216 0.23217 0.37049 0.0
C689 C 0.0482 0.20674 0.37164 0.0
C690 C 0.03749 0.12969 0.36371 0.0
H691 H 0.15677 0.05684 0.39792 0.0
H692 H 0.13147 0.10008 0.38733 0.0
H693 H 0.0409 0.0846 0.37007 0.0
H694 H 0.96893 0.21081 0.35357 0.0
H695 H -0.00135 0.16904 0.34532 0.0
H696 H 0.09432 0.17465 0.35448 0.0
C697 C 0.12385 0.07924 0.38232 0.0
C698 C 0.05277 0.10392 0.36617 0.0
C699 C 0.13818 0.05438 0.38856 0.0
C700 C 0.99118 0.2103 0.35844 0.0
C701 C 0.00814 0.18625 0.35381 0.0
C702 C 0.08241 0.15504 0.35764 0.0
C703 C 0.09945 0.07717 0.37033 0.0
C704 C 0.08311 0.10359 0.36498 0.0
C705 C 0.03642 0.18365 0.36107 0.0
C706 C 0.0522 0.15572 0.35998 0.0
H707 H 0.09631 0.00392 0.36599 0.0
H708 H 0.07129 0.0474 0.35517 0.0
H709 H 0.12105 0.12953 0.35875 0.0
H710 H 0.04059 0.24733 0.38538 0.0
H711 H 0.06985 0.20543 0.37753 0.0
C712 C 0.9738 0.89458 0.1332 0.0
C713 C 0.97387 0.86648 0.12546 0.0
C714 C 0.94767 0.90793 0.13828 0.0
C715 C 0.87056 0.90451 0.12578 0.0
H716 H 0.86012 0.95592 0.16936 0.0
C717 C 0.76316 0.96182 0.13516 0.0
C718 C 0.76552 0.9919 0.13748 0.0
C719 C 0.78684 0.94392 0.13879 0.0
C720 C 0.86274 0.94159 0.15715 0.0
H721 H 0.94676 0.8297 0.11816 0.0
H722 H 0.90161 0.85272 0.12721 0.0
H723 H 0.90594 0.92991 0.16541 0.0
H724 H 0.79367 0.02648 0.14726 0.0
H725 H 0.83515 0.99535 0.15314 0.0
H726 H 0.82806 0.91659 0.11708 0.0
C727 C 0.92154 0.86479 0.12889 0.0
C728 C 0.88898 0.9268 0.15485 0.0
C729 C 0.94748 0.85159 0.1237 0.0
C730 C 0.79115 0.00339 0.14527 0.0
C731 C 0.81498 0.98549 0.1487 0.0
C732 C 0.84451 0.91921 0.12806 0.0
C733 C 0.92122 0.89333 0.1358 0.0
C734 C 0.89319 0.90824 0.13905 0.0
C735 C 0.81348 0.95576 0.14458 0.0
C736 C 0.84029 0.93809 0.14367 0.0
H737 H 0.99379 0.90656 0.13481 0.0
H738 H 0.94811 0.93002 0.14346 0.0
H739 H 0.87329 0.89091 0.11321 0.0
H740 H 0.74352 0.95225 0.12949 0.0
H741 H 0.78476 0.92096 0.13601 0.0
C742 C 0.53488 0.75817 0.13146 0.0
C743 C 0.50515 0.76055 0.13542 0.0
C744 C 0.55319 0.78182 0.13412 0.0
C745 C 0.55811 0.8574 0.15265 0.0
H746 H 0.60275 0.86853 0.10595 0.0
C747 C 0.60382 0.96854 0.12796 0.0
C748 C 0.63103 0.96847 0.11889 0.0
C749 C 0.59041 0.94246 0.13301 0.0
C750 C 0.59085 0.86564 0.11925 0.0
H751 H 0.47194 0.7887 0.14718 0.0
H752 H 0.50379 0.83007 0.15146 0.0
H753 H 0.57738 0.82336 0.11096 0.0
H754 H 0.66611 0.94094 0.10895 0.0
H755 H 0.64302 0.89589 0.11793 0.0
H756 H 0.57121 0.9003 0.16059 0.0
C757 C 0.51302 0.80992 0.1464 0.0
C758 C 0.57635 0.83962 0.12217 0.0
C759 C 0.49472 0.78615 0.1439 0.0
C760 C 0.6449 0.94186 0.11556 0.0
C761 C 0.63165 0.91595 0.12071 0.0
C762 C 0.57272 0.88357 0.14971 0.0
C763 C 0.54213 0.80842 0.14063 0.0
C764 C 0.55966 0.83519 0.13883 0.0
C765 C 0.60405 0.91586 0.12917 0.0
C766 C 0.58913 0.88799 0.13291 0.0
H767 H 0.54371 0.73858 0.12522 0.0
H768 H 0.57573 0.77976 0.13006 0.0
H769 H 0.54548 0.8546 0.16565 0.0
H770 H 0.59262 0.98868 0.1308 0.0
H771 H 0.56903 0.94309 0.13938 0.0
C772 C 0.52275 0.59941 0.12805 0.0
C773 C 0.52284 0.62564 0.1178 0.0
C774 C 0.54887 0.58614 0.13325 0.0
C775 C 0.62568 0.58465 0.11888 0.0
H776 H 0.63765 0.54537 0.16757 0.0
C777 C 0.73481 0.53409 0.13443 0.0
C778 C 0.7334 0.50475 0.1396 0.0
C779 C 0.71045 0.55175 0.13613 0.0
C780 C 0.63458 0.5563 0.15393 0.0
H781 H 0.55051 0.65906 0.10574 0.0
H782 H 0.59555 0.63628 0.11498 0.0
H783 H 0.59147 0.56966 0.16124 0.0
H784 H 0.7062 0.4718 0.15261 0.0
H785 H 0.66365 0.50253 0.15528 0.0
H786 H 0.66828 0.57107 0.11133 0.0
C787 C 0.57545 0.6255 0.11859 0.0
C788 C 0.60813 0.57005 0.15026 0.0
C789 C 0.54953 0.63859 0.1133 0.0
C790 C 0.70802 0.49428 0.14838 0.0
C791 C 0.68357 0.51192 0.14995 0.0
C792 C 0.65199 0.57107 0.12255 0.0
C793 C 0.57551 0.59893 0.12837 0.0
C794 C 0.60342 0.58435 0.13266 0.0
C795 C 0.68414 0.54039 0.14291 0.0
C796 C 0.65679 0.55669 0.14008 0.0
H797 H 0.50257 0.58895 0.13182 0.0
H798 H 0.5482 0.56555 0.14067 0.0
H799 H 0.62259 0.59485 0.105 0.0
H800 H 0.75417 0.54299 0.12793 0.0
H801 H 0.71176 0.57387 0.13107 0.0
C802 C 0.01075 0.70444 0.14632 0.0
C803 C -0.00097 0.73012 0.13876 0.0
C804 C 0.99328 0.68003 0.14883 0.0
C805 C 0.92939 0.64961 0.1258 0.0
H806 H 0.93584 0.58875 0.16395 0.0
C807 C 0.85855 0.54882 0.12089 0.0
C808 C 0.87169 0.52186 0.12421 0.0
C809 C 0.87283 0.57441 0.12552 0.0
C810 C 0.934 0.6055 0.15313 0.0
H811 H 0.95926 0.75141 0.13017 0.0
H812 H 0.92875 0.7091 0.13496 0.0
H813 H 0.96219 0.63424 0.16856 0.0
H814 H 0.90996 0.5007 0.13555 0.0
H815 H 0.93537 0.54569 0.1432 0.0
H816 H 0.90208 0.62099 0.11004 0.0
C817 C 0.95158 0.70752 0.13835 0.0
C818 C 0.94896 0.63155 0.15581 0.0
C819 C 0.96903 0.7318 0.1357 0.0
C820 C 0.89929 0.52112 0.13273 0.0
C821 C 0.91375 0.54688 0.13724 0.0
C822 C 0.91462 0.6237 0.12309 0.0
C823 C 0.96378 0.68098 0.14395 0.0
C824 C 0.94674 0.6539 0.14216 0.0
C825 C 0.9008 0.57381 0.13342 0.0
C826 C 0.91665 0.60133 0.13671 0.0
H827 H 0.03379 0.70244 0.14884 0.0
H828 H 0.00332 0.65991 0.15319 0.0
H829 H 0.92787 0.66601 0.11471 0.0
H830 H 0.83709 0.55026 0.11469 0.0
H831 H 0.86194 0.59474 0.1228 0.0
C832 C 0.73049 0.96478 0.63762 0.0
C833 C 0.72815 0.99494 0.63939 0.0
C834 C 0.70654 0.94713 0.64097 0.0
C835 C 0.62995 0.94527 0.65768 0.0
H836 H 0.62142 0.89377 0.61396 0.0
C837 C 0.52025 0.8958 0.63326 0.0
C838 C 0.52084 0.86759 0.6257 0.0
C839 C 0.54604 0.9098 0.6383 0.0
C840 C 0.62357 0.9076 0.62648 0.0
H841 H 0.69971 0.03005 0.64786 0.0
H842 H 0.65771 -0.00074 0.6533 0.0
H843 H 0.66627 0.91991 0.61835 0.0
H844 H 0.5488 0.83137 0.61859 0.0
H845 H 0.59337 0.85547 0.62763 0.0
H846 H 0.58664 0.93323 0.66543 0.0
C847 C 0.67808 0.98919 0.6495 0.0
C848 C 0.64939 0.92257 0.62904 0.0
C849 C 0.70218 0.00686 0.64635 0.0
C850 C 0.54757 0.85331 0.624 0.0
C851 C 0.57318 0.86715 0.62917 0.0
C852 C 0.60396 0.93015 0.65512 0.0
C853 C 0.67967 0.95932 0.64591 0.0
C854 C 0.65291 0.94169 0.64459 0.0
C855 C 0.57282 0.89575 0.63598 0.0
C856 C 0.60049 0.91123 0.63942 0.0
H857 H 0.75038 0.95492 0.63259 0.0
H858 H 0.70864 0.92407 0.6386 0.0
H859 H 0.63203 0.95983 0.66982 0.0
H860 H 0.49999 0.90734 0.63481 0.0
H861 H 0.54505 0.93192 0.64338 0.0
C862 C 0.62939 0.54764 0.61433 0.0
C863 C 0.62013 0.52009 0.62035 0.0
C864 C 0.61507 0.5725 0.62052 0.0
C865 C 0.54538 0.59868 0.63835 0.0
H866 H 0.58988 0.66742 0.65057 0.0
C867 C 0.48832 0.70699 0.65093 0.0
C868 C 0.49933 0.72942 0.63936 0.0
C869 C 0.5045 0.68187 0.65405 0.0
C870 C 0.57715 0.64841 0.64724 0.0
H871 H 0.58825 0.49727 0.63756 0.0
H872 H 0.56306 0.54093 0.64825 0.0
H873 H 0.61479 0.62167 0.64485 0.0
H874 H 0.5372 0.74416 0.62366 0.0
H875 H 0.56518 0.70049 0.62899 0.0
H876 H 0.50783 0.62555 0.63999 0.0
C877 C 0.58148 0.54309 0.63871 0.0
C878 C 0.5914 0.62223 0.64393 0.0
C879 C 0.59592 0.51809 0.63258 0.0
C880 C 0.52789 0.72725 0.6325 0.0
C881 C 0.54405 0.70219 0.63565 0.0
C882 C 0.53112 0.62487 0.64163 0.0
C883 C 0.59107 0.57057 0.63285 0.0
C884 C 0.57572 0.59727 0.6389 0.0
C885 C 0.53207 0.67873 0.64576 0.0
C886 C 0.5469 0.65021 0.64559 0.0
H887 H 0.6479 0.55013 0.60492 0.0
H888 H 0.62264 0.5933 0.61541 0.0
H889 H 0.53271 0.5799 0.63438 0.0
H890 H 0.46651 0.70798 0.6566 0.0
H891 H 0.49491 0.66439 0.66223 0.0
C892 C 0.94374 0.63365 0.61044 0.0
C893 C 0.97063 0.62437 0.61765 0.0
C894 C 0.91808 0.62109 0.61686 0.0
C895 C 0.88905 0.55495 0.63851 0.0
H896 H 0.8202 0.60214 0.64456 0.0
C897 C 0.77931 0.50154 0.65094 0.0
C898 C 0.75847 0.5101 0.6373 0.0
C899 C 0.80401 0.5183 0.65407 0.0
C900 C 0.83925 0.5887 0.643 0.0
H901 H 0.99147 0.59447 0.63735 0.0
H902 H 0.94643 0.57245 0.64855 0.0
H903 H 0.86691 0.6253 0.63892 0.0
H904 H 0.7458 0.54466 0.61789 0.0
H905 H 0.78881 0.57372 0.62331 0.0
H906 H 0.86134 0.51833 0.64193 0.0
C907 C 0.94538 0.58942 0.63783 0.0
C908 C 0.86598 0.60193 0.63971 0.0
C909 C 0.97117 0.60204 0.6314 0.0
C910 C 0.76148 0.53723 0.62837 0.0
C911 C 0.78616 0.554 0.63153 0.0
C912 C 0.86235 0.54173 0.64184 0.0
C913 C 0.91854 0.59893 0.63068 0.0
C914 C 0.89103 0.58515 0.63685 0.0
C915 C 0.8083 0.54404 0.64373 0.0
C916 C 0.83702 0.55842 0.64359 0.0
H917 H 0.94238 0.65073 0.59981 0.0
H918 H 0.89784 0.62849 0.61073 0.0
H919 H 0.90785 0.54139 0.63621 0.0
H920 H 0.77757 0.48096 0.6583 0.0
H921 H 0.82043 0.51038 0.66387 0.0
C922 C 0.89037 0.96633 0.63171 0.0
C923 C 0.86288 0.9667 0.62304 0.0
C924 C 0.90364 0.94004 0.63641 0.0
C925 C 0.90221 0.86365 0.62184 0.0
H926 H 0.95034 0.85163 0.66687 0.0
C927 C 0.96038 0.75654 0.63097 0.0
C928 C 0.99022 0.75913 0.63443 0.0
C929 C 0.94189 0.77986 0.63436 0.0
C930 C 0.93695 0.85469 0.65424 0.0
H931 H 0.82712 0.93977 0.61352 0.0
H932 H 0.85 0.89427 0.62193 0.0
H933 H 0.92393 0.89721 0.66311 0.0
H934 H 0.0236 0.78727 0.64592 0.0
H935 H 0.99145 0.82812 0.65144 0.0
H936 H 0.91563 0.82181 0.6126 0.0
C937 C 0.86166 0.91417 0.62466 0.0
C938 C 0.92192 0.8808 0.65206 0.0
C939 C 0.84853 0.94032 0.61985 0.0
C940 C 0.00072 0.78457 0.64305 0.0
C941 C 0.98224 0.80803 0.64626 0.0
C942 C 0.91714 0.8377 0.62401 0.0
C943 C 0.88959 0.91365 0.63263 0.0
C944 C 0.90455 0.88561 0.63574 0.0
C945 C 0.95289 0.80636 0.64107 0.0
C946 C 0.93488 0.83294 0.64014 0.0
H947 H 0.90196 0.98627 0.63442 0.0
H948 H 0.92527 0.94036 0.6424 0.0
H949 H 0.88956 0.86685 0.60889 0.0
H950 H 0.95153 0.73704 0.62463 0.0
H951 H 0.91921 0.77762 0.63072 0.0
C952 C 0.0232 0.10456 0.86848 0.0
C953 C 0.02486 0.12877 0.88071 0.0
C954 C 0.04838 0.0907 0.86217 0.0
C955 C 0.128 0.10015 0.8579 0.0
H956 H 0.1298 0.01674 0.86321 0.0
C957 C 0.23035 0.03523 0.8747 0.0
C958 C 0.23249 0.00635 0.86851 0.0
C959 C 0.20616 0.05186 0.86998 0.0
C960 C 0.12958 0.03996 0.86116 0.0
H961 H 0.05447 0.15762 0.89559 0.0
H962 H 0.09809 0.13321 0.88488 0.0
H963 H 0.0843 0.04238 0.86723 0.0
H964 H 0.21225 0.97336 0.85078 0.0
H965 H 0.17017 0.00253 0.84246 0.0
H966 H 0.17361 0.09774 0.85265 0.0
C967 C 0.07739 0.12519 0.87991 0.0
C968 C 0.10344 0.05468 0.86351 0.0
C969 C 0.05229 0.13901 0.88622 0.0
C970 C 0.21119 0.99541 0.85599 0.0
C971 C 0.18696 0.01205 0.8513 0.0
C972 C 0.15416 0.08542 0.85556 0.0
C973 C 0.07575 0.10078 0.8679 0.0
C974 C 0.10253 0.085 0.8625 0.0
C975 C 0.18361 0.04 0.85894 0.0
C976 C 0.15539 0.05523 0.85774 0.0
H977 H 0.00246 0.09619 0.86382 0.0
H978 H 0.04642 0.07206 0.85281 0.0
H979 H 0.12786 0.1235 0.85665 0.0
H980 H 0.24646 0.0445 0.8842 0.0
H981 H 0.20425 0.07328 0.87617 0.0
C982 C 0.35793 0.05538 0.89126 0.0
C983 C 0.36763 0.028 0.88523 0.0
C984 C 0.37154 0.08048 0.88477 0.0
C985 C 0.44096 0.10646 0.8662 0.0
H986 H 0.39729 0.17663 0.85654 0.0
C987 C 0.50014 0.21349 0.85597 0.0
C988 C 0.49038 0.23503 0.86874 0.0
C989 C 0.48291 0.18941 0.85197 0.0
C990 C 0.40977 0.15718 0.85911 0.0
H991 H 0.39907 0.00569 0.86734 0.0
H992 H 0.42281 0.04963 0.85603 0.0
H993 H 0.37173 0.13104 0.86165 0.0
H994 H 0.45354 0.24965 0.88556 0.0
H995 H 0.42378 0.20766 0.87875 0.0
H996 H 0.47892 0.13263 0.86442 0.0
C997 C 0.40478 0.05156 0.86592 0.0
C998 C 0.39515 0.13111 0.8621 0.0
C999 C 0.39116 0.02639 0.87241 0.0
C1000 C 0.46193 0.23333 0.87585 0.0
C1001 C 0.44473 0.20927 0.87184 0.0
C1002 C 0.45556 0.13249 0.8632 0.0
C1003 C 0.39516 0.07888 0.87208 0.0
C1004 C 0.41058 0.10564 0.86623 0.0
C1005 C 0.45556 0.18643 0.86058 0.0
C1006 C 0.44011 0.15829 0.86017 0.0
H1007 H 0.33987 0.05752 0.9011 0.0
H1008 H 0.36393 0.10116 0.89008 0.0
H1009 H 0.45349 0.08731 0.86954 0.0
H1010 H 0.5218 0.21424 0.85002 0.0
H1011 H 0.4916 0.17241 0.84292 0.0
C1012 C 0.47275 0.3945 0.87816 0.0
C1013 C 0.47298 0.3688 0.889 0.0
C1014 C 0.44648 0.40763 0.87313 0.0
C1015 C 0.37017 0.4102 0.8886 0.0
H1016 H 0.35634 0.44549 0.83878 0.0
C1017 C 0.26015 0.45856 0.87286 0.0
C1018 C 0.26119 0.48752 0.86677 0.0
C1019 C 0.28459 0.44097 0.87139 0.0
C1020 C 0.35994 0.43568 0.85274 0.0
H1021 H 0.44563 0.33632 0.90246 0.0
H1022 H 0.40037 0.35886 0.89355 0.0
H1023 H 0.4029 0.42203 0.84529 0.0
H1024 H 0.28772 0.51963 0.85229 0.0
H1025 H 0.33038 0.48904 0.84999 0.0
H1026 H 0.32772 0.42405 0.89627 0.0
C1027 C 0.42035 0.3693 0.88929 0.0
C1028 C 0.38661 0.42242 0.8565 0.0
C1029 C 0.44642 0.35634 0.89438 0.0
C1030 C 0.28619 0.49749 0.85727 0.0
C1031 C 0.31071 0.47992 0.8559 0.0
C1032 C 0.34365 0.42329 0.88484 0.0
C1033 C 0.42001 0.39525 0.87881 0.0
C1034 C 0.39197 0.40954 0.8745 0.0
C1035 C 0.3106 0.45201 0.86388 0.0
C1036 C 0.33817 0.43619 0.86689 0.0
H1037 H 0.49281 0.40458 0.8737 0.0
H1038 H 0.44692 0.42775 0.86516 0.0
H1039 H 0.37379 0.40109 0.90276 0.0
H1040 H 0.24109 0.45001 0.87993 0.0
H1041 H 0.28364 0.41924 0.87718 0.0
C1042 C 0.09705 0.47672 0.8692 0.0
C1043 C 0.12181 0.47464 0.88091 0.0
C1044 C 0.08251 0.45178 0.86315 0.0
C1045 C 0.09195 0.37266 0.85739 0.0
H1046 H 0.0088 0.36959 0.86431 0.0
C1047 C 0.98822 0.28819 0.85501 0.0
C1048 C 0.00019 0.26603 0.86639 0.0
C1049 C 0.00419 0.31312 0.85092 0.0
C1050 C 0.03192 0.3702 0.86181 0.0
H1051 H 0.15068 0.44453 0.89533 0.0
H1052 H 0.12522 0.40136 0.88499 0.0
H1053 H 0.03417 0.41517 0.86893 0.0
H1054 H 0.03938 0.25147 0.88065 0.0
H1055 H 0.06698 0.29483 0.87367 0.0
H1056 H 0.08981 0.32743 0.85094 0.0
C1057 C 0.11726 0.42222 0.88025 0.0
C1058 C 0.04647 0.39635 0.86453 0.0
C1059 C 0.13169 0.44706 0.88636 0.0
C1060 C 0.02933 0.2682 0.87202 0.0
C1061 C 0.04528 0.29308 0.86791 0.0
C1062 C 0.0774 0.34651 0.85464 0.0
C1063 C 0.09254 0.42426 0.86858 0.0
C1064 C 0.07673 0.39765 0.86293 0.0
C1065 C 0.03248 0.31632 0.85803 0.0
C1066 C 0.04732 0.34479 0.85739 0.0
H1067 H 0.08891 0.4976 0.86465 0.0
H1068 H 0.06355 0.45401 0.85411 0.0
H1069 H 0.11524 0.37315 0.85568 0.0
H1070 H 0.96592 0.28717 0.85026 0.0
H1071 H 0.99393 0.33044 0.84295 0.0
C1072 C 0.6572 0.19005 0.42133 0.0
C1073 C 0.6575 0.18468 0.40139 0.0
C1074 C 0.67951 0.20599 0.42983 0.0
C1075 C 0.71459 0.2675 0.42221 0.0
H1076 H 0.7935 0.24686 0.43515 0.0
C1077 C 0.81668 0.31955 0.39451 0.0
C1078 C 0.84074 0.32201 0.40662 0.0
C1079 C 0.79042 0.30962 0.40185 0.0
C1080 C 0.77133 0.25307 0.43221 0.0
H1081 H 0.68217 0.18904 0.37506 0.0
H1082 H 0.72189 0.21566 0.39013 0.0
H1083 H 0.75636 0.20918 0.43362 0.0
H1084 H 0.85636 0.31804 0.43588 0.0
H1085 H 0.81049 0.29952 0.44865 0.0
H1086 H 0.73019 0.31079 0.41848 0.0
C1087 C 0.70427 0.20793 0.39906 0.0
C1088 C 0.75022 0.23152 0.43131 0.0
C1089 C 0.68173 0.19265 0.39048 0.0
C1090 C 0.83774 0.31677 0.42643 0.0
C1091 C 0.81167 0.30609 0.4337 0.0
C1092 C 0.73578 0.28896 0.42275 0.0
C1093 C 0.70256 0.21587 0.41852 0.0
C1094 C 0.72209 0.23851 0.42551 0.0
C1095 C 0.78827 0.3012 0.42125 0.0
C1096 C 0.76456 0.28164 0.42688 0.0
H1097 H 0.63839 0.1846 0.42992 0.0
H1098 H 0.67781 0.21226 0.44482 0.0
H1099 H 0.69294 0.27312 0.41751 0.0
H1100 H 0.81885 0.32298 0.37914 0.0
H1101 H 0.77277 0.30564 0.39193 0.0
C1102 C 0.31262 0.66077 0.41788 0.0
C1103 C 0.31209 0.65572 0.39791 0.0
C1104 C 0.29765 0.68438 0.42562 0.0
C1105 C 0.23133 0.71649 0.41748 0.0
H1106 H 0.25424 0.79394 0.4323 0.0
C1107 C 0.1798 0.81909 0.39183 0.0
C1108 C 0.17879 0.84334 0.40382 0.0
C1109 C 0.18979 0.7928 0.39902 0.0
C1110 C 0.24739 0.77213 0.42886 0.0
H1111 H 0.29876 0.67263 0.37024 0.0
H1112 H 0.27342 0.71428 0.38371 0.0
H1113 H 0.29089 0.75584 0.42989 0.0
H1114 H 0.18545 0.85944 0.43276 0.0
H1115 H 0.20389 0.81342 0.44529 0.0
H1116 H 0.1884 0.73326 0.41454 0.0
C1117 C 0.28491 0.69984 0.39334 0.0
C1118 C 0.26837 0.75048 0.42743 0.0
C1119 C 0.29951 0.67624 0.38565 0.0
C1120 C 0.18566 0.84065 0.42342 0.0
C1121 C 0.19629 0.8145 0.43054 0.0
C1122 C 0.21044 0.7381 0.41876 0.0
C1123 C 0.28254 0.70308 0.41335 0.0
C1124 C 0.26057 0.72302 0.42078 0.0
C1125 C 0.19962 0.79078 0.41815 0.0
C1126 C 0.2186 0.76643 0.42342 0.0
H1127 H 0.32186 0.64491 0.42758 0.0
H1128 H 0.29593 0.68667 0.44111 0.0
H1129 H 0.22505 0.69527 0.41231 0.0
H1130 H 0.17509 0.82105 0.37659 0.0
H1131 H 0.19255 0.77491 0.3891 0.0
C1132 C 0.31663 0.68822 0.11414 0.0
C1133 C 0.33963 0.68027 0.10211 0.0
C1134 C 0.29291 0.70288 0.10656 0.0
C1135 C 0.24379 0.72747 0.07658 0.0
H1136 H 0.26821 0.80613 0.08767 0.0
C1137 C 0.16086 0.81699 0.08371 0.0
C1138 C 0.15922 0.82184 0.10364 0.0
C1139 C 0.18593 0.80522 0.07568 0.0
C1140 C 0.26134 0.78447 0.08388 0.0
H1141 H 0.35523 0.67914 0.07268 0.0
H1142 H 0.31381 0.7058 0.05949 0.0
H1143 H 0.30397 0.76702 0.08722 0.0
H1144 H 0.1827 0.82115 0.13054 0.0
H1145 H 0.22718 0.80205 0.11637 0.0
H1146 H 0.20085 0.74453 0.07459 0.0
C1147 C 0.31389 0.69996 0.0746 0.0
C1148 C 0.28167 0.76218 0.08362 0.0
C1149 C 0.33737 0.68461 0.08213 0.0
C1150 C 0.18384 0.81808 0.11509 0.0
C1151 C 0.20916 0.80709 0.10697 0.0
C1152 C 0.22351 0.74986 0.07645 0.0
C1153 C 0.29228 0.71023 0.08697 0.0
C1154 C 0.27273 0.73346 0.08091 0.0
C1155 C 0.20973 0.79893 0.08747 0.0
C1156 C 0.23197 0.77824 0.08111 0.0
H1157 H 0.31823 0.68544 0.1296 0.0
H1158 H 0.27644 0.71095 0.11629 0.0
H1159 H 0.23656 0.70535 0.07476 0.0
H1160 H 0.14177 0.81923 0.07476 0.0
H1161 H 0.18591 0.79884 0.06066 0.0
C1162 C 0.81667 0.33364 0.09083 0.0
C1163 C 0.81621 0.33772 0.1109 0.0
C1164 C 0.80211 0.31012 0.08265 0.0
C1165 C 0.73615 0.27876 0.08953 0.0
H1166 H 0.75685 0.20061 0.07486 0.0
C1167 C 0.67953 0.17738 0.11297 0.0
C1168 C 0.67809 0.15355 0.1006 0.0
C1169 C 0.69079 0.2035 0.10636 0.0
C1170 C 0.75067 0.22263 0.07827 0.0
H1171 H 0.80353 0.31922 0.13824 0.0
H1172 H 0.77911 0.27758 0.12398 0.0
H1173 H 0.79481 0.23725 0.07835 0.0
H1174 H 0.68523 0.13822 0.07152 0.0
H1175 H 0.70599 0.18389 0.06006 0.0
H1176 H 0.69247 0.26361 0.09139 0.0
C1177 C 0.79026 0.29267 0.11462 0.0
C1178 C 0.77239 0.24343 0.08032 0.0
C1179 C 0.80438 0.31626 0.12276 0.0
C1180 C 0.68571 0.15668 0.08114 0.0
C1181 C 0.69771 0.18262 0.07464 0.0
C1182 C 0.71453 0.25797 0.08767 0.0
C1183 C 0.7876 0.29046 0.09456 0.0
C1184 C 0.76528 0.27117 0.08683 0.0
C1185 C 0.70154 0.20575 0.08747 0.0
C1186 C 0.72182 0.2294 0.08298 0.0
H1187 H 0.82523 0.35028 0.08143 0.0
H1188 H 0.80006 0.30872 0.06713 0.0
H1189 H 0.73041 0.30017 0.09462 0.0
H1190 H 0.67423 0.17509 0.12809 0.0
H1191 H 0.69386 0.22092 0.1166 0.0
C1192 C 0.15693 0.6839 0.57987 0.0
C1193 C 0.15489 0.6759 0.59932 0.0
C1194 C 0.18202 0.69716 0.57299 0.0
C1195 C 0.25703 0.71689 0.58304 0.0
H1196 H 0.23218 0.79696 0.57907 0.0
C1197 C 0.31278 0.80883 0.61868 0.0
C1198 C 0.33617 0.81724 0.60715 0.0
C1199 C 0.28871 0.79575 0.61032 0.0
C1200 C 0.23941 0.77468 0.57948 0.0
H1201 H 0.17767 0.6727 0.6264 0.0
H1202 H 0.22224 0.69445 0.61415 0.0
H1203 H 0.19647 0.75795 0.57648 0.0
H1204 H 0.35225 0.82086 0.57794 0.0
H1205 H 0.31024 0.79695 0.56334 0.0
H1206 H 0.29969 0.73378 0.58731 0.0
C1207 C 0.20451 0.69069 0.60425 0.0
C1208 C 0.21914 0.7524 0.57797 0.0
C1209 C 0.17915 0.67818 0.61126 0.0
C1210 C 0.33405 0.81508 0.58701 0.0
C1211 C 0.31024 0.80129 0.57868 0.0
C1212 C 0.27735 0.73912 0.58414 0.0
C1213 C 0.20544 0.70182 0.58543 0.0
C1214 C 0.22765 0.72348 0.58071 0.0
C1215 C 0.28816 0.79041 0.59043 0.0
C1216 C 0.2684 0.7681 0.58326 0.0
H1217 H 0.13809 0.68285 0.57059 0.0
H1218 H 0.18228 0.70582 0.55849 0.0
H1219 H 0.26393 0.69478 0.58537 0.0
H1220 H 0.31434 0.80982 0.63424 0.0
H1221 H 0.27191 0.78714 0.61958 0.0
C1222 C 0.82174 0.17736 0.61557 0.0
C1223 C 0.82283 0.15332 0.60338 0.0
C1224 C 0.8119 0.20382 0.60855 0.0
C1225 C 0.75451 0.22449 0.57824 0.0
H1226 H 0.77445 0.30084 0.59704 0.0
C1227 C 0.68536 0.33312 0.5893 0.0
C1228 C 0.68557 0.33876 0.60921 0.0
C1229 C 0.7013 0.30988 0.58189 0.0
C1230 C 0.76883 0.27977 0.59129 0.0
H1231 H 0.81673 0.13789 0.57423 0.0
H1232 H 0.79865 0.18421 0.56199 0.0
H1233 H 0.81202 0.26381 0.59454 0.0
H1234 H 0.69934 0.32312 0.63711 0.0
H1235 H 0.72639 0.28214 0.62423 0.0
H1236 H 0.71073 0.23996 0.5767 0.0
C1237 C 0.80601 0.18283 0.57678 0.0
C1238 C 0.79026 0.25871 0.58983 0.0
C1239 C 0.8165 0.1565 0.58373 0.0
C1240 C 0.69879 0.31903 0.62174 0.0
C1241 C 0.71444 0.29585 0.61438 0.0
C1242 C 0.733 0.24562 0.57978 0.0
C1243 C 0.80228 0.20624 0.5894 0.0
C1244 C 0.78296 0.23047 0.58434 0.0
C1245 C 0.71713 0.29218 0.59442 0.0
C1246 C 0.73989 0.27284 0.58727 0.0
H1247 H 0.82602 0.17505 0.63083 0.0
H1248 H 0.80891 0.22143 0.61866 0.0
H1249 H 0.74827 0.20276 0.57414 0.0
H1250 H 0.67566 0.34838 0.57938 0.0
H1251 H 0.70321 0.30724 0.56644 0.0
C1252 C 0.83774 0.18021 0.9231 0.0
C1253 C 0.84013 0.17502 0.90325 0.0
C1254 C 0.81202 0.19121 0.93071 0.0
C1255 C 0.73611 0.20941 0.92024 0.0
H1256 H 0.75751 0.28843 0.93283 0.0
C1257 C 0.6788 0.30435 0.89036 0.0
C1258 C 0.65653 0.31365 0.90257 0.0
C1259 C 0.70228 0.28925 0.89787 0.0
C1260 C 0.75116 0.26629 0.92999 0.0
H1261 H 0.81749 0.17445 0.87604 0.0
H1262 H 0.77204 0.19237 0.8894 0.0
H1263 H 0.79425 0.25025 0.93359 0.0
H1264 H 0.6422 0.31688 0.93223 0.0
H1265 H 0.68344 0.28981 0.94536 0.0
H1266 H 0.69352 0.22598 0.91519 0.0
C1267 C 0.78988 0.18812 0.89911 0.0
C1268 C 0.77203 0.24444 0.93047 0.0
C1269 C 0.81578 0.17784 0.89144 0.0
C1270 C 0.65948 0.31034 0.92261 0.0
C1271 C 0.68283 0.29471 0.93011 0.0
C1272 C 0.71522 0.23115 0.92002 0.0
C1273 C 0.78836 0.1965 0.91856 0.0
C1274 C 0.76495 0.21619 0.92455 0.0
C1275 C 0.70352 0.28299 0.91761 0.0
C1276 C 0.72301 0.25988 0.92394 0.0
H1277 H 0.85659 0.17865 0.93233 0.0
H1278 H 0.81132 0.19769 0.9457 0.0
H1279 H 0.73025 0.18783 0.91557 0.0
H1280 H 0.67671 0.3064 0.87488 0.0
H1281 H 0.71812 0.2802 0.88806 0.0
C1282 C 0.31904 0.81978 0.89349 0.0
C1283 C 0.31846 0.84379 0.90572 0.0
C1284 C 0.30828 0.79332 0.89988 0.0
C1285 C 0.24739 0.77243 0.92732 0.0
H1286 H 0.26936 0.69613 0.90947 0.0
C1287 C 0.18113 0.66249 0.91399 0.0
C1288 C 0.18271 0.65721 0.89407 0.0
C1289 C 0.1959 0.68605 0.92197 0.0
C1290 C 0.26314 0.71719 0.91494 0.0
H1291 H 0.30842 0.8592 0.93438 0.0
H1292 H 0.28896 0.81285 0.94552 0.0
H1293 H 0.30648 0.73332 0.91341 0.0
H1294 H 0.19764 0.67369 0.86666 0.0
H1295 H 0.22262 0.71526 0.88051 0.0
H1296 H 0.20363 0.75676 0.92717 0.0
C1297 C 0.29818 0.81426 0.9312 0.0
C1298 C 0.2843 0.73835 0.91721 0.0
C1299 C 0.30945 0.84061 0.92489 0.0
C1300 C 0.19601 0.67754 0.88202 0.0
C1301 C 0.21046 0.70107 0.88994 0.0
C1302 C 0.22617 0.75121 0.92497 0.0
C1303 C 0.29618 0.79086 0.91841 0.0
C1304 C 0.27638 0.76656 0.9224 0.0
C1305 C 0.21189 0.70443 0.90997 0.0
C1306 C 0.23387 0.72399 0.91785 0.0
H1307 H 0.3254 0.82211 0.87855 0.0
H1308 H 0.30667 0.77571 0.88963 0.0
H1309 H 0.24068 0.79413 0.93117 0.0
H1310 H 0.17137 0.64674 0.92355 0.0
H1311 H 0.19688 0.68843 0.93747 0.0
C1312 C 0.57713 0.1193 0.45501 0.0
C1313 C 0.56899 0.14835 0.45241 0.0
C1314 C 0.59301 0.1109 0.47115 0.0
C1315 C 0.61763 0.13221 0.51981 0.0
H1316 H 0.68396 0.08478 0.50662 0.0
C1317 C 0.71075 0.10611 0.57371 0.0
C1318 C 0.72254 0.07807 0.57287 0.0
C1319 C 0.69052 0.11527 0.55995 0.0
C1320 C 0.66536 0.09768 0.51066 0.0
H1321 H 0.56967 0.19098 0.46549 0.0
H1322 H 0.59745 0.17617 0.49377 0.0
H1323 H 0.65005 0.09894 0.48165 0.0
H1324 H 0.72149 0.03743 0.55721 0.0
H1325 H 0.68611 0.05312 0.53365 0.0
H1326 H 0.63308 0.13079 0.54893 0.0
C1327 C 0.59145 0.15995 0.48325 0.0
C1328 C 0.64589 0.10581 0.49631 0.0
C1329 C 0.5755 0.16841 0.46704 0.0
C1330 C 0.71319 0.05928 0.55821 0.0
C1331 C 0.69294 0.06835 0.5446 0.0
C1332 C 0.63712 0.12391 0.53426 0.0
C1333 C 0.6012 0.13129 0.48513 0.0
C1334 C 0.62166 0.12295 0.5007 0.0
C1335 C 0.6816 0.09655 0.54511 0.0
C1336 C 0.66111 0.10632 0.52987 0.0
H1337 H 0.57227 0.10318 0.44416 0.0
H1338 H 0.59965 0.08851 0.47241 0.0
H1339 H 0.59914 0.1454 0.52363 0.0
H1340 H 0.71752 0.12117 0.58477 0.0
H1341 H 0.68242 0.13721 0.56069 0.0
C1342 C 0.38893 0.7087 0.57673 0.0
C1343 C 0.41514 0.72393 0.57477 0.0
C1344 C 0.38065 0.68815 0.56291 0.0
C1345 C 0.39491 0.66825 0.51217 0.0
H1346 H 0.36094 0.59425 0.52554 0.0
C1347 C 0.38326 0.58035 0.4553 0.0
C1348 C 0.35582 0.56747 0.45359 0.0
C1349 C 0.39042 0.59653 0.47157 0.0
C1350 C 0.37025 0.61491 0.52162 0.0
H1351 H 0.45352 0.72873 0.55697 0.0
H1352 H 0.43937 0.69302 0.53331 0.0
H1353 H 0.37261 0.6291 0.55103 0.0
H1354 H 0.31515 0.55984 0.46838 0.0
H1355 H 0.32778 0.5882 0.49689 0.0
H1356 H 0.39277 0.65429 0.4829 0.0
C1357 C 0.42483 0.69729 0.54522 0.0
C1358 C 0.37683 0.6349 0.53619 0.0
C1359 C 0.43302 0.71776 0.5589 0.0
C1360 C 0.33649 0.56943 0.46922 0.0
C1361 C 0.34369 0.5857 0.48556 0.0
C1362 C 0.38849 0.64835 0.49772 0.0
C1363 C 0.39843 0.68246 0.54688 0.0
C1364 C 0.38963 0.66165 0.53161 0.0
C1365 C 0.37033 0.6003 0.48656 0.0
C1366 C 0.37646 0.6213 0.50225 0.0
H1367 H 0.37462 0.71292 0.58876 0.0
H1368 H 0.36009 0.67721 0.56455 0.0
H1369 H 0.40403 0.68893 0.50807 0.0
H1370 H 0.39884 0.57903 0.44367 0.0
H1371 H 0.41139 0.60694 0.47213 0.0
C1372 C 0.92209 0.38448 0.46013 0.0
C1373 C 0.93301 0.3562 0.45851 0.0
C1374 C 0.90613 0.39277 0.47627 0.0
C1375 C 0.88435 0.37322 0.52597 0.0
H1376 H 0.81331 0.41202 0.51129 0.0
C1377 C 0.78796 0.39445 0.57872 0.0
C1378 C 0.77374 0.4212 0.5767 0.0
C1379 C 0.80938 0.38605 0.56552 0.0
C1380 C 0.83318 0.40154 0.51572 0.0
H1381 H 0.93749 0.31514 0.47336 0.0
H1382 H 0.90946 0.32971 0.50158 0.0
H1383 H 0.8485 0.39942 0.48676 0.0
H1384 H 0.7719 0.46056 0.55968 0.0
H1385 H 0.80919 0.44621 0.53712 0.0
H1386 H 0.86872 0.37542 0.55506 0.0
C1387 C 0.91335 0.34544 0.49032 0.0
C1388 C 0.85342 0.39434 0.50163 0.0
C1389 C 0.92946 0.33712 0.47413 0.0
C1390 C 0.78201 0.43961 0.56156 0.0
C1391 C 0.80339 0.43133 0.54852 0.0
C1392 C 0.86403 0.38057 0.54018 0.0
C1393 C 0.90056 0.373 0.49119 0.0
C1394 C 0.87939 0.3804 0.50656 0.0
C1395 C 0.81701 0.40427 0.55009 0.0
C1396 C 0.83834 0.39512 0.53521 0.0
H1397 H 0.92469 0.39986 0.4485 0.0
H1398 H 0.89716 0.41441 0.47674 0.0
H1399 H 0.90415 0.36243 0.5302 0.0
H1400 H 0.78209 0.37973 0.59021 0.0
H1401 H 0.81935 0.36499 0.56708 0.0
C1402 C 0.0561 0.77939 0.55464 0.0
C1403 C 0.07457 0.77163 0.56988 0.0
C1404 C 0.06384 0.8012 0.54177 0.0
C1405 C 0.11272 0.8638 0.53469 0.0
H1406 H 0.09495 0.84996 0.4809 0.0
C1407 C 0.15682 0.93172 0.47017 0.0
C1408 C 0.13823 0.93532 0.4543 0.0
C1409 C 0.14812 0.91523 0.48608 0.0
C1410 C 0.09969 0.85441 0.49589 0.0
H1411 H 0.11567 0.78111 0.58359 0.0
H1412 H 0.12946 0.81901 0.56078 0.0
H1413 H 0.08277 0.81358 0.50473 0.0
H1414 H 0.09497 0.92686 0.44356 0.0
H1415 H 0.07972 0.89869 0.47135 0.0
H1416 H 0.13017 0.90462 0.52556 0.0
C1417 C 0.10875 0.80838 0.55903 0.0
C1418 C 0.09273 0.83349 0.50958 0.0
C1419 C 0.10091 0.78655 0.57203 0.0
C1420 C 0.10997 0.92421 0.45541 0.0
C1421 C 0.10129 0.90788 0.47129 0.0
C1422 C 0.11983 0.8848 0.5209 0.0
C1423 C 0.09038 0.81576 0.54363 0.0
C1424 C 0.09887 0.83798 0.52917 0.0
C1425 C 0.12066 0.90215 0.48641 0.0
C1426 C 0.1131 0.88041 0.50137 0.0
H1427 H 0.03548 0.76867 0.55262 0.0
H1428 H 0.04888 0.80671 0.53034 0.0
H1429 H 0.11758 0.86802 0.54968 0.0
H1430 H 0.17877 0.9399 0.46976 0.0
H1431 H 0.16354 0.91122 0.49751 0.0
C1432 C 0.21456 0.94121 0.95102 0.0
C1433 C 0.2209 0.92425 0.93473 0.0
C1434 C 0.19226 0.9334 0.96356 0.0
C1435 C 0.14957 0.87104 0.97991 0.0
H1436 H 0.10042 0.93026 1.00219 0.0
C1437 C 0.0638 0.84253 0.03708 0.0
C1438 C 0.06462 0.86009 0.05363 0.0
C1439 C 0.07801 0.85107 0.0202 0.0
C1440 C 0.11399 0.91347 0.99613 0.0
H1441 H 0.20861 0.88561 0.91896 0.0
H1442 H 0.16965 0.87201 0.94093 0.0
H1443 H 0.13546 0.94331 0.97739 0.0
H1444 H 0.0793 0.90137 0.06487 0.0
H1445 H 0.10398 0.9161 0.03562 0.0
H1446 H 0.12871 0.84133 0.99901 0.0
C1447 C 0.18209 0.89132 0.94398 0.0
C1448 C 0.13411 0.92095 0.98194 0.0
C1449 C 0.20436 0.8992 0.93135 0.0
C1450 C 0.07827 0.88722 0.05245 0.0
C1451 C 0.09236 0.89576 0.0356 0.0
C1452 C 0.12948 0.86356 0.99413 0.0
C1453 C 0.17574 0.9084 0.9602 0.0
C1454 C 0.15254 0.89994 0.97394 0.0
C1455 C 0.09318 0.87742 0.01946 0.0
C1456 C 0.11184 0.88479 1.00268 0.0
H1457 H 0.22681 0.96061 0.95415 0.0
H1458 H 0.18829 0.94676 0.9761 0.0
H1459 H 0.16362 0.85438 0.97418 0.0
H1460 H 0.0535 0.8215 0.03743 0.0
H1461 H 0.07783 0.83665 0.00791 0.0
C1462 C 0.66478 0.06579 0.03321 0.0
C1463 C 0.64475 0.06062 0.0481 0.0
C1464 C 0.65674 0.08179 0.01694 0.0
C1465 C 0.60458 0.13854 0.00445 0.0
H1466 H 0.63009 0.12683 0.95181 0.0
C1467 C 0.55977 0.20822 0.94369 0.0
C1468 C 0.57914 0.2192 0.92989 0.0
C1469 C 0.56841 0.18682 0.95658 0.0
C1470 C 0.62306 0.1305 0.96649 0.0
H1471 H 0.59992 0.0659 0.05668 0.0
H1472 H 0.58583 0.09313 0.02823 0.0
H1473 H 0.64319 0.09151 0.9767 0.0
H1474 H 0.6227 0.21554 0.91851 0.0
H1475 H 0.638 0.17811 0.94138 0.0
H1476 H 0.58479 0.17747 0.99453 0.0
C1477 C 0.60796 0.0856 0.02936 0.0
C1478 C 0.63048 0.11025 0.98071 0.0
C1479 C 0.61599 0.06978 0.04562 0.0
C1480 C 0.60724 0.20754 0.92895 0.0
C1481 C 0.61598 0.18606 0.94201 0.0
C1482 C 0.59726 0.15866 0.99033 0.0
C1483 C 0.6285 0.09283 0.01522 0.0
C1484 C 0.62098 0.11391 0.99982 0.0
C1485 C 0.59674 0.17586 0.95619 0.0
C1486 C 0.60605 0.15476 0.97113 0.0
H1487 H 0.68714 0.05913 0.03468 0.0
H1488 H 0.67308 0.08699 0.00631 0.0
H1489 H 0.59765 0.14253 0.01912 0.0
H1490 H 0.53782 0.21629 0.94468 0.0
H1491 H 0.55282 0.17898 0.967 0.0
C1492 C 0.27897 0.55731 0.94407 0.0
C1493 C 0.27177 0.57541 0.92853 0.0
C1494 C 0.29963 0.56574 0.95757 0.0
C1495 C 0.36029 0.61638 0.96656 0.0
H1496 H 0.34311 0.59811 0.01985 0.0
C1497 C 0.42435 0.66006 0.03312 0.0
C1498 C 0.42809 0.64075 0.0486 0.0
C1499 C 0.40814 0.65194 0.01693 0.0
C1500 C 0.34845 0.60306 0.00502 0.0
H1501 H 0.28118 0.61657 0.91489 0.0
H1502 H 0.31711 0.63156 0.93879 0.0
H1503 H 0.30865 0.58527 0.9949 0.0
H1504 H 0.41966 0.59698 0.05841 0.0
H1505 H 0.39183 0.58288 0.03024 0.0
H1506 H 0.40007 0.63463 0.97698 0.0
C1507 C 0.30691 0.61061 0.94032 0.0
C1508 C 0.32866 0.5957 0.99068 0.0
C1509 C 0.28622 0.60206 0.92667 0.0
C1510 C 0.41698 0.61255 0.0469 0.0
C1511 C 0.40084 0.6045 0.03079 0.0
C1512 C 0.38013 0.62392 0.981 0.0
C1513 C 0.31359 0.59265 0.95607 0.0
C1514 C 0.33444 0.60189 0.97124 0.0
C1515 C 0.39536 0.62439 0.01594 0.0
C1516 C 0.37455 0.61698 1.00037 0.0
H1517 H 0.26861 0.53648 0.94588 0.0
H1518 H 0.30469 0.55106 0.96925 0.0
H1519 H 0.36549 0.62133 0.95172 0.0
H1520 H 0.43254 0.68197 0.03394 0.0
H1521 H 0.4043 0.66775 0.00572 0.0
C1522 C 0.88535 0.41319 0.05472 0.0
C1523 C 0.85784 0.42606 0.05594 0.0
C1524 C 0.89328 0.39721 0.0385 0.0
C1525 C 0.87465 0.37961 0.98791 0.0
H1526 H 0.90983 0.30603 1.00095 0.0
C1527 C 0.89341 0.28676 0.93231 0.0
C1528 C 0.91975 0.27163 0.93389 0.0
C1529 C 0.88536 0.3071 0.94631 0.0
C1530 C 0.90034 0.32661 0.997 0.0
H1531 H 0.81783 0.43374 0.0404 0.0
H1532 H 0.83174 0.4057 0.01205 0.0
H1533 H 0.89785 0.34006 0.02637 0.0
H1534 H 0.95852 0.26674 0.95128 0.0
H1535 H 0.9447 0.30214 0.97531 0.0
H1536 H 0.87719 0.36588 0.95842 0.0
C1537 C 0.84717 0.40808 0.02368 0.0
C1538 C 0.89351 0.34618 0.01159 0.0
C1539 C 0.83921 0.42418 0.03995 0.0
C1540 C 0.93795 0.27769 0.94962 0.0
C1541 C 0.92996 0.29795 0.96351 0.0
C1542 C 0.88158 0.35996 0.97322 0.0
C1543 C 0.87391 0.3936 0.02308 0.0
C1544 C 0.88087 0.37304 0.00725 0.0
C1545 C 0.90345 0.31271 0.96218 0.0
C1546 C 0.8948 0.33334 0.97761 0.0
H1547 H 0.9004 0.41443 0.06665 0.0
H1548 H 0.91433 0.38692 0.03828 0.0
H1549 H 0.86495 0.40015 0.9841 0.0
H1550 H 0.87884 0.28263 0.92041 0.0
H1551 H 0.8647 0.31796 0.94494 0.0
C1552 C 0.41482 0.88543 0.55386 0.0
C1553 C 0.42859 0.85835 0.55497 0.0
C1554 C 0.40054 0.89395 0.53707 0.0
C1555 C 0.36344 0.86204 0.49542 0.0
H1556 H 0.35801 0.94189 0.47878 0.0
C1557 C 0.29047 0.89813 0.43175 0.0
C1558 C 0.27404 0.92336 0.4348 0.0
C1559 C 0.31218 0.89009 0.44475 0.0
C1560 C 0.35918 0.91951 0.48331 0.0
H1561 H 0.43952 0.81972 0.53876 0.0
H1562 H 0.41484 0.83481 0.50934 0.0
H1563 H 0.39259 0.9286 0.50379 0.0
H1564 H 0.26774 0.95986 0.45404 0.0
H1565 H 0.30533 0.94574 0.47665 0.0
H1566 H 0.32963 0.85307 0.47518 0.0
C1567 C 0.41476 0.84924 0.52163 0.0
C1568 C 0.37904 0.91189 0.49763 0.0
C1569 C 0.42917 0.84073 0.53845 0.0
C1570 C 0.27992 0.94032 0.45116 0.0
C1571 C 0.30168 0.93235 0.46408 0.0
C1572 C 0.34361 0.86967 0.48106 0.0
C1573 C 0.39961 0.87562 0.52093 0.0
C1574 C 0.38104 0.88316 0.50412 0.0
C1575 C 0.3181 0.90717 0.46104 0.0
C1576 C 0.34085 0.89859 0.47511 0.0
H1577 H 0.41395 0.89962 0.56626 0.0
H1578 H 0.38894 0.9143 0.53713 0.0
H1579 H 0.36408 0.83979 0.50025 0.0
H1580 H 0.28657 0.88452 0.41932 0.0
H1581 H 0.32456 0.87065 0.44193 0.0
C1582 C 0.61819 0.40428 0.55111 0.0
C1583 C 0.64046 0.42498 0.55169 0.0
C1584 C 0.61135 0.38999 0.53404 0.0
C1585 C 0.64167 0.37112 0.48612 0.0
H1586 H 0.56329 0.34401 0.47818 0.0
C1587 C 0.61354 0.2796 0.43191 0.0
C1588 C 0.58545 0.27868 0.42425 0.0
C1589 C 0.62103 0.30085 0.44543 0.0
C1590 C 0.58526 0.35175 0.47979 0.0
H1591 H 0.67232 0.44756 0.53436 0.0
H1592 H 0.65958 0.42327 0.50425 0.0
H1593 H 0.5735 0.37635 0.50456 0.0
H1594 H 0.54391 0.30022 0.42346 0.0
H1595 H 0.55732 0.33822 0.4459 0.0
H1596 H 0.65313 0.34725 0.4608 0.0
C1597 C 0.64791 0.4176 0.51723 0.0
C1598 C 0.59124 0.37001 0.49528 0.0
C1599 C 0.65502 0.43177 0.53447 0.0
C1600 C 0.56558 0.30023 0.42942 0.0
C1601 C 0.57326 0.32187 0.44246 0.0
C1602 C 0.63558 0.35318 0.47034 0.0
C1603 C 0.62623 0.39618 0.51685 0.0
C1604 C 0.61962 0.37942 0.49899 0.0
C1605 C 0.60075 0.32198 0.45122 0.0
C1606 C 0.60732 0.34282 0.46713 0.0
H1607 H 0.60661 0.39818 0.56405 0.0
H1608 H 0.59497 0.37327 0.53455 0.0
H1609 H 0.66386 0.37771 0.48853 0.0
H1610 H 0.62921 0.26308 0.42816 0.0
H1611 H 0.64232 0.29991 0.45189 0.0
C1612 C 0.21498 0.55645 0.44462 0.0
C1613 C 0.22232 0.5738 0.42871 0.0
C1614 C 0.19257 0.56444 0.45702 0.0
C1615 C 0.1512 0.62734 0.47408 0.0
H1616 H 0.10028 0.56848 0.49493 0.0
C1617 C 0.0644 0.65523 0.53103 0.0
C1618 C 0.06412 0.63681 0.54716 0.0
C1619 C 0.07923 0.6473 0.51424 0.0
C1620 C 0.11436 0.58518 0.48929 0.0
H1621 H 0.21166 0.61337 0.41347 0.0
H1622 H 0.17245 0.62734 0.43523 0.0
H1623 H 0.13534 0.55559 0.47012 0.0
H1624 H 0.07779 0.59481 0.55776 0.0
H1625 H 0.10352 0.58113 0.52866 0.0
H1626 H 0.13075 0.65677 0.49362 0.0
C1627 C 0.1842 0.60753 0.43807 0.0
C1628 C 0.13448 0.57778 0.47508 0.0
C1629 C 0.2066 0.59944 0.42555 0.0
C1630 C 0.07755 0.6096 0.54566 0.0
C1631 C 0.09225 0.60166 0.52889 0.0
C1632 C 0.13108 0.63474 0.48833 0.0
C1633 C 0.17689 0.59006 0.45392 0.0
C1634 C 0.15357 0.59863 0.46759 0.0
C1635 C 0.09396 0.62072 0.51315 0.0
C1636 C 0.11281 0.61361 0.49639 0.0
H1637 H 0.22656 0.53658 0.44758 0.0
H1638 H 0.18789 0.55073 0.46927 0.0
H1639 H 0.16574 0.64387 0.46875 0.0
H1640 H 0.05433 0.67636 0.53164 0.0
H1641 H 0.07977 0.66231 0.50227 0.0
C1642 C 0.88388 0.06963 0.55076 0.0
C1643 C 0.8554 0.05922 0.55235 0.0
C1644 C 0.89237 0.08569 0.53471 0.0
C1645 C 0.8726 0.10917 0.4854 0.0
H1646 H 0.91137 0.17972 0.50108 0.0
C1647 C 0.89201 0.20729 0.43411 0.0
C1648 C 0.91874 0.22159 0.436 0.0
C1649 C 0.88403 0.18554 0.44715 0.0
C1650 C 0.90092 0.15999 0.49636 0.0
H1651 H 0.81423 0.05553 0.5375 0.0
H1652 H 0.82915 0.08371 0.50948 0.0
H1653 H 0.89935 0.14352 0.52505 0.0
H1654 H 0.95839 0.22343 0.45276 0.0
H1655 H 0.94476 0.18559 0.47506 0.0
H1656 H 0.87422 0.12596 0.4566 0.0
C1657 C 0.84487 0.07938 0.52067 0.0
C1658 C 0.89406 0.13917 0.51013 0.0
C1659 C 0.83635 0.06319 0.53675 0.0
C1660 C 0.93746 0.21324 0.45097 0.0
C1661 C 0.92959 0.19154 0.46385 0.0
C1662 C 0.87962 0.13006 0.47152 0.0
C1663 C 0.8726 0.09182 0.51989 0.0
C1664 C 0.88006 0.11341 0.50483 0.0
C1665 C 0.90266 0.17765 0.4623 0.0
C1666 C 0.8941 0.15562 0.47686 0.0
H1667 H 0.89923 0.06669 0.56238 0.0
H1668 H 0.91413 0.09439 0.5343 0.0
H1669 H 0.86177 0.08954 0.48089 0.0
H1670 H 0.87708 0.21317 0.42275 0.0
H1671 H 0.86304 0.1754 0.44563 0.0
C1672 C 0.92425 0.11015 0.95503 0.0
C1673 C 0.93511 0.13842 0.95329 0.0
C1674 C 0.90862 0.10192 0.97133 0.0
C1675 C 0.88711 0.1224 0.02104 0.0
H1676 H 0.81637 0.08261 0.00692 0.0
C1677 C 0.79048 0.10258 0.07383 0.0
C1678 C 0.77699 0.07536 0.07249 0.0
C1679 C 0.81178 0.11073 0.06049 0.0
C1680 C 0.83615 0.09341 0.01119 0.0
H1681 H 0.93992 0.17952 0.96806 0.0
H1682 H 0.9124 0.16511 0.9965 0.0
H1683 H 0.85144 0.09469 0.9822 0.0
H1684 H 0.77623 0.03504 0.0564 0.0
H1685 H 0.81318 0.04907 0.03354 0.0
H1686 H 0.8714 0.12115 0.05015 0.0
C1687 C 0.91611 0.1493 0.98525 0.0
C1688 C 0.85634 0.10027 0.997 0.0
C1689 C 0.93194 0.15754 0.96894 0.0
C1690 C 0.78579 0.05632 0.05781 0.0
C1691 C 0.80698 0.06441 0.04459 0.0
C1692 C 0.8668 0.11545 0.03534 0.0
C1693 C 0.90328 0.12178 0.98625 0.0
C1694 C 0.88222 0.11456 1.00174 0.0
C1695 C 0.81996 0.09183 0.04556 0.0
C1696 C 0.84123 0.10058 0.03056 0.0
H1697 H 0.92658 0.09477 0.94336 0.0
H1698 H 0.89967 0.08028 0.97189 0.0
H1699 H 0.90683 0.13344 0.02514 0.0
H1700 H 0.78424 0.11778 0.08496 0.0
H1701 H 0.82129 0.13208 0.06156 0.0
C1702 C 0.38387 0.92528 0.95872 0.0
C1703 C 0.35565 0.93629 0.95689 0.0
C1704 C 0.39172 0.90901 0.97482 0.0
C1705 C 0.37036 0.88577 0.02398 0.0
H1706 H 0.41015 0.81546 0.00892 0.0
C1707 C 0.3903 0.78749 0.07546 0.0
C1708 C 0.41758 0.77414 0.07389 0.0
C1709 C 0.38204 0.80918 0.06242 0.0
C1710 C 0.39934 0.83511 0.01345 0.0
H1711 H 0.31423 0.94068 0.97133 0.0
H1712 H 0.32798 0.91208 0.99946 0.0
H1713 H 0.39833 0.85137 0.9847 0.0
H1714 H 0.45789 0.77403 0.05777 0.0
H1715 H 0.44369 0.81164 0.03547 0.0
H1716 H 0.37138 0.8691 0.05285 0.0
C1717 C 0.34404 0.91614 0.98842 0.0
C1718 C 0.39262 0.85577 0.99955 0.0
C1719 C 0.33618 0.9326 0.9723 0.0
C1720 C 0.43656 0.78346 0.05932 0.0
C1721 C 0.42838 0.80503 0.04643 0.0
C1722 C 0.37717 0.86498 0.03799 0.0
C1723 C 0.37152 0.90318 0.98946 0.0
C1724 C 0.37838 0.88153 0.00463 0.0
C1725 C 0.40089 0.81788 0.04759 0.0
C1726 C 0.39208 0.83957 0.03288 0.0
H1727 H 0.39952 0.92799 0.94724 0.0
H1728 H 0.41332 0.89997 0.97542 0.0
H1729 H 0.35932 0.90537 0.02834 0.0
H1730 H 0.37514 0.78084 0.0865 0.0
H1731 H 0.36065 0.81858 0.06364 0.0
C1732 C 0.71577 0.43529 0.06267 0.0
C1733 C 0.72417 0.41675 0.07772 0.0
C1734 C 0.69521 0.42659 0.04919 0.0
C1735 C 0.63668 0.37395 0.03948 0.0
H1736 H 0.65247 0.39539 0.98652 0.0
C1737 C 0.57293 0.33165 0.97239 0.0
C1738 C 0.56848 0.35156 0.95734 0.0
C1739 C 0.58912 0.33944 0.98865 0.0
C1740 C 0.64751 0.38954 1.00126 0.0
H1741 H 0.71697 0.37458 0.09053 0.0
H1742 H 0.68115 0.35915 0.06663 0.0
H1743 H 0.68678 0.40824 0.01155 0.0
H1744 H 0.57557 0.39596 0.94838 0.0
H1745 H 0.60333 0.40953 0.97671 0.0
H1746 H 0.5974 0.35486 0.02889 0.0
C1747 C 0.69037 0.38061 0.06549 0.0
C1748 C 0.66722 0.39689 0.01564 0.0
C1749 C 0.71097 0.38941 0.07914 0.0
C1750 C 0.57884 0.37995 0.95955 0.0
C1751 C 0.59493 0.3877 0.97575 0.0
C1752 C 0.6169 0.36644 0.02499 0.0
C1753 C 0.68255 0.39901 0.05021 0.0
C1754 C 0.66192 0.38959 0.03497 0.0
C1755 C 0.60115 0.36728 0.99015 0.0
C1756 C 0.62195 0.37455 0.00576 0.0
H1757 H 0.72513 0.45666 0.06123 0.0
H1758 H 0.68922 0.4416 0.0379 0.0
H1759 H 0.63188 0.36811 0.05424 0.0
H1760 H 0.56533 0.30957 0.97115 0.0
H1761 H 0.59355 0.32322 0.9995 0.0
C1762 C 0.06346 0.72099 0.05579 0.0
C1763 C 0.0809 0.72581 0.07208 0.0
C1764 C 0.0714 0.70075 0.04188 0.0
C1765 C 0.11683 0.63651 0.0328 0.0
H1766 H 0.10423 0.65813 0.97951 0.0
C1767 C 0.15679 0.57032 0.96611 0.0
C1768 C 0.13834 0.56984 0.94997 0.0
C1769 C 0.14964 0.58674 0.98241 0.0
C1770 C 0.10755 0.65157 0.99432 0.0
H1771 H 0.12042 0.71266 0.08651 0.0
H1772 H 0.13447 0.6773 0.06194 0.0
H1773 H 0.09349 0.69257 0.00493 0.0
H1774 H 0.0968 0.58433 0.93905 0.0
H1775 H 0.08426 0.61243 0.96744 0.0
H1776 H 0.13117 0.59542 0.02195 0.0
C1777 C 0.11445 0.68916 0.06014 0.0
C1778 C 0.10144 0.67137 0.00891 0.0
C1779 C 0.10646 0.70952 0.07416 0.0
C1780 C 0.1117 0.58445 0.95108 0.0
C1781 C 0.10459 0.60075 0.96732 0.0
C1782 C 0.12307 0.61663 0.01811 0.0
C1783 C 0.09709 0.68476 0.04375 0.0
C1784 C 0.10556 0.66399 0.02835 0.0
C1785 C 0.12391 0.60296 0.98288 0.0
C1786 C 0.11806 0.62383 0.99871 0.0
H1787 H 0.0435 0.73286 0.0537 0.0
H1788 H 0.05721 0.69752 0.02966 0.0
H1789 H 0.12011 0.63011 0.04764 0.0
H1790 H 0.17752 0.5594 0.96576 0.0
H1791 H 0.16498 0.58798 0.99417 0.0
loop_
_geom_bond_atom_site_label_1
_geom_bond_atom_site_label_2
_geom_bond_distance
_geom_bond_site_symmetry_2
_ccdc_geom_bond_type
Sc0 O3 2.025 . S
Sc0 O10 2.105 . S
Sc0 O13 2.105 . S
Sc0 O16 2.105 . S
Sc0 O19 2.105 . S
Sc1 O3 2.025 . S
Sc1 O11 2.105 . S
Sc1 O15 2.105 . S
Sc1 O17 2.105 . S
Sc1 O21 2.105 . S
Sc2 O3 2.025 . S
Sc2 O12 2.105 . S
Sc2 O14 2.105 . S
Sc2 O18 2.105 . S
Sc2 O20 2.105 . S
O3 Sc0 2.025 . S
O3 Sc1 2.025 . S
O3 Sc2 2.025 . S
C4 O10 1.268 . S
C4 O20 1.268 . S
C5 O11 1.268 . S
C5 O19 1.268 . S
C6 O12 1.268 . S
C6 O21 1.268 . S
C7 O13 1.268 . S
C7 O17 1.268 . S
C8 O14 1.268 . S
C8 O16 1.268 . S
C9 O15 1.268 . S
C9 O18 1.268 . S
O10 Sc0 2.105 . S
O10 C4 1.268 . S
O11 Sc1 2.105 . S
O11 C5 1.268 . S
O12 Sc2 2.105 . S
O12 C6 1.268 . S
O13 Sc0 2.105 . S
O13 C7 1.268 . S
O14 Sc2 2.105 . S
O14 C8 1.268 . S
O15 Sc1 2.105 . S
O15 C9 1.268 . S
O16 Sc0 2.105 . S
O16 C8 1.268 . S
O17 Sc1 2.105 . S
O17 C7 1.268 . S
O18 Sc2 2.105 . S
O18 C9 1.268 . S
O19 Sc0 2.105 . S
O19 C5 1.268 . S
O20 Sc2 2.105 . S
O20 C4 1.268 . S
O21 Sc1 2.105 . S
O21 C6 1.268 . S
Sc22 O25 2.025 . S
Sc22 O32 2.105 . S
Sc22 O35 2.105 . S
Sc22 O38 2.105 . S
Sc22 O41 2.105 . S
Sc23 O25 2.025 . S
Sc23 O33 2.105 . S
Sc23 O37 2.105 . S
Sc23 O39 2.105 . S
Sc23 O43 2.105 . S
Sc24 O25 2.025 . S
Sc24 O34 2.105 . S
Sc24 O36 2.105 . S
Sc24 O40 2.105 . S
Sc24 O42 2.105 . S
O25 Sc22 2.025 . S
O25 Sc23 2.025 . S
O25 Sc24 2.025 . S
C26 O32 1.268 . S
C26 O42 1.268 . S
C27 O33 1.268 . S
C27 O41 1.268 . S
C28 O34 1.268 . S
C28 O43 1.268 . S
C29 O35 1.268 . S
C29 O39 1.268 . S
C30 O36 1.268 . S
C30 O38 1.268 . S
C31 O37 1.268 . S
C31 O40 1.268 . S
O32 Sc22 2.105 . S
O32 C26 1.268 . S
O33 Sc23 2.105 . S
O33 C27 1.268 . S
O34 Sc24 2.105 . S
O34 C28 1.268 . S
O35 Sc22 2.105 . S
O35 C29 1.268 . S
O36 Sc24 2.105 . S
O36 C30 1.268 . S
O37 Sc23 2.105 . S
O37 C31 1.268 . S
O38 Sc22 2.105 . S
O38 C30 1.268 . S
O39 Sc23 2.105 . S
O39 C29 1.268 . S
O40 Sc24 2.105 . S
O40 C31 1.268 . S
O41 Sc22 2.105 . S
O41 C27 1.268 . S
O42 Sc24 2.105 . S
O42 C26 1.268 . S
O43 Sc23 2.105 . S
O43 C28 1.268 . S
Sc44 O47 2.025 . S
Sc44 O54 2.105 . S
Sc44 O57 2.105 . S
Sc44 O60 2.105 . S
Sc44 O63 2.105 . S
Sc45 O47 2.025 . S
Sc45 O55 2.105 . S
Sc45 O59 2.105 . S
Sc45 O61 2.105 . S
Sc45 O65 2.105 . S
Sc46 O47 2.025 . S
Sc46 O56 2.105 . S
Sc46 O58 2.105 . S
Sc46 O62 2.105 . S
Sc46 O64 2.105 . S
O47 Sc44 2.025 . S
O47 Sc45 2.025 . S
O47 Sc46 2.025 . S
C48 O54 1.268 . S
C48 O64 1.268 . S
C49 O55 1.268 . S
C49 O63 1.268 . S
C50 O56 1.268 . S
C50 O65 1.268 . S
C51 O57 1.268 . S
C51 O61 1.268 . S
C52 O58 1.268 . S
C52 O60 1.268 . S
C53 O59 1.268 . S
C53 O62 1.268 . S
O54 Sc44 2.105 . S
O54 C48 1.268 . S
O55 Sc45 2.105 . S
O55 C49 1.268 . S
O56 Sc46 2.105 . S
O56 C50 1.268 . S
O57 Sc44 2.105 . S
O57 C51 1.268 . S
O58 Sc46 2.105 . S
O58 C52 1.268 . S
O59 Sc45 2.105 . S
O59 C53 1.268 . S
O60 Sc44 2.105 . S
O60 C52 1.268 . S
O61 Sc45 2.105 . S
O61 C51 1.268 . S
O62 Sc46 2.105 . S
O62 C53 1.268 . S
O63 Sc44 2.105 . S
O63 C49 1.268 . S
O64 Sc46 2.105 . S
O64 C48 1.268 . S
O65 Sc45 2.105 . S
O65 C50 1.268 . S
Sc66 O69 2.025 . S
Sc66 O76 2.105 . S
Sc66 O79 2.105 . S
Sc66 O82 2.105 . S
Sc66 O85 2.105 . S
Sc67 O69 2.025 . S
Sc67 O77 2.105 . S
Sc67 O81 2.105 . S
Sc67 O83 2.105 . S
Sc67 O87 2.105 . S
Sc68 O69 2.025 . S
Sc68 O78 2.105 . S
Sc68 O80 2.105 . S
Sc68 O84 2.105 . S
Sc68 O86 2.105 . S
O69 Sc66 2.025 . S
O69 Sc67 2.025 . S
O69 Sc68 2.025 . S
C70 O76 1.268 . S
C70 O86 1.268 . S
C71 O77 1.268 . S
C71 O85 1.268 . S
C72 O78 1.268 . S
C72 O87 1.268 . S
C73 O79 1.268 . S
C73 O83 1.268 . S
C74 O80 1.268 . S
C74 O82 1.268 . S
C75 O81 1.268 . S
C75 O84 1.268 . S
O76 Sc66 2.105 . S
O76 C70 1.268 . S
O77 Sc67 2.105 . S
O77 C71 1.268 . S
O78 Sc68 2.105 . S
O78 C72 1.268 . S
O79 Sc66 2.105 . S
O79 C73 1.268 . S
O80 Sc68 2.105 . S
O80 C74 1.268 . S
O81 Sc67 2.105 . S
O81 C75 1.268 . S
O82 Sc66 2.105 . S
O82 C74 1.268 . S
O83 Sc67 2.105 . S
O83 C73 1.268 . S
O84 Sc68 2.105 . S
O84 C75 1.268 . S
O85 Sc66 2.105 . S
O85 C71 1.268 . S
O86 Sc68 2.105 . S
O86 C70 1.268 . S
O87 Sc67 2.105 . S
O87 C72 1.268 . S
Sc88 O91 2.025 . S
Sc88 O98 2.105 . S
Sc88 O101 2.105 . S
Sc88 O104 2.105 . S
Sc88 O107 2.105 . S
Sc89 O91 2.025 . S
Sc89 O99 2.105 . S
Sc89 O103 2.105 . S
Sc89 O105 2.105 . S
Sc89 O109 2.105 . S
Sc90 O91 2.025 . S
Sc90 O100 2.105 . S
Sc90 O102 2.105 . S
Sc90 O106 2.105 . S
Sc90 O108 2.105 . S
O91 Sc88 2.025 . S
O91 Sc89 2.025 . S
O91 Sc90 2.025 . S
C92 O98 1.268 . S
C92 O108 1.268 . S
C93 O99 1.268 . S
C93 O107 1.268 . S
C94 O100 1.268 . S
C94 O109 1.268 . S
C95 O101 1.268 . S
C95 O105 1.268 . S
C96 O102 1.268 . S
C96 O104 1.268 . S
C97 O103 1.268 . S
C97 O106 1.268 . S
O98 Sc88 2.105 . S
O98 C92 1.268 . S
O99 Sc89 2.105 . S
O99 C93 1.268 . S
O100 Sc90 2.105 . S
O100 C94 1.268 . S
O101 Sc88 2.105 . S
O101 C95 1.268 . S
O102 Sc90 2.105 . S
O102 C96 1.268 . S
O103 Sc89 2.105 . S
O103 C97 1.268 . S
O104 Sc88 2.105 . S
O104 C96 1.268 . S
O105 Sc89 2.105 . S
O105 C95 1.268 . S
O106 Sc90 2.105 . S
O106 C97 1.268 . S
O107 Sc88 2.105 . S
O107 C93 1.268 . S
O108 Sc90 2.105 . S
O108 C92 1.268 . S
O109 Sc89 2.105 . S
O109 C94 1.268 . S
Sc110 O113 2.025 . S
Sc110 O120 2.105 . S
Sc110 O123 2.105 . S
Sc110 O126 2.105 . S
Sc110 O129 2.105 . S
Sc111 O113 2.025 . S
Sc111 O121 2.105 . S
Sc111 O125 2.105 . S
Sc111 O127 2.105 . S
Sc111 O131 2.105 . S
Sc112 O113 2.025 . S
Sc112 O122 2.105 . S
Sc112 O124 2.105 . S
Sc112 O128 2.105 . S
Sc112 O130 2.105 . S
O113 Sc110 2.025 . S
O113 Sc111 2.025 . S
O113 Sc112 2.025 . S
C114 O120 1.268 . S
C114 O130 1.268 . S
C115 O121 1.268 . S
C115 O129 1.268 . S
C116 O122 1.268 . S
C116 O131 1.268 . S
C117 O123 1.268 . S
C117 O127 1.268 . S
C118 O124 1.268 . S
C118 O126 1.268 . S
C119 O125 1.268 . S
C119 O128 1.268 . S
O120 Sc110 2.105 . S
O120 C114 1.268 . S
O121 Sc111 2.105 . S
O121 C115 1.268 . S
O122 Sc112 2.105 . S
O122 C116 1.268 . S
O123 Sc110 2.105 . S
O123 C117 1.268 . S
O124 Sc112 2.105 . S
O124 C118 1.268 . S
O125 Sc111 2.105 . S
O125 C119 1.268 . S
O126 Sc110 2.105 . S
O126 C118 1.268 . S
O127 Sc111 2.105 . S
O127 C117 1.268 . S
O128 Sc112 2.105 . S
O128 C119 1.268 . S
O129 Sc110 2.105 . S
O129 C115 1.268 . S
O130 Sc112 2.105 . S
O130 C114 1.268 . S
O131 Sc111 2.105 . S
O131 C116 1.268 . S
Sc132 O135 2.025 . S
Sc132 O142 2.105 . S
Sc132 O145 2.105 . S
Sc132 O148 2.105 . S
Sc132 O151 2.105 . S
Sc133 O135 2.025 . S
Sc133 O143 2.105 . S
Sc133 O147 2.105 . S
Sc133 O149 2.105 . S
Sc133 O153 2.105 . S
Sc134 O135 2.025 . S
Sc134 O144 2.105 . S
Sc134 O146 2.105 . S
Sc134 O150 2.105 . S
Sc134 O152 2.105 . S
O135 Sc132 2.025 . S
O135 Sc133 2.025 . S
O135 Sc134 2.025 . S
C136 O142 1.268 . S
C136 O152 1.268 . S
C137 O143 1.268 . S
C137 O151 1.268 . S
C138 O144 1.268 . S
C138 O153 1.268 . S
C139 O145 1.268 . S
C139 O149 1.268 . S
C140 O146 1.268 . S
C140 O148 1.268 . S
C141 O147 1.268 . S
C141 O150 1.268 . S
O142 Sc132 2.105 . S
O142 C136 1.268 . S
O143 Sc133 2.105 . S
O143 C137 1.268 . S
O144 Sc134 2.105 . S
O144 C138 1.268 . S
O145 Sc132 2.105 . S
O145 C139 1.268 . S
O146 Sc134 2.105 . S
O146 C140 1.268 . S
O147 Sc133 2.105 . S
O147 C141 1.268 . S
O148 Sc132 2.105 . S
O148 C140 1.268 . S
O149 Sc133 2.105 . S
O149 C139 1.268 . S
O150 Sc134 2.105 . S
O150 C141 1.268 . S
O151 Sc132 2.105 . S
O151 C137 1.268 . S
O152 Sc134 2.105 . S
O152 C136 1.268 . S
O153 Sc133 2.105 . S
O153 C138 1.268 . S
Sc154 O157 2.025 . S
Sc154 O164 2.105 . S
Sc154 O167 2.105 . S
Sc154 O170 2.105 . S
Sc154 O173 2.105 . S
Sc155 O157 2.025 . S
Sc155 O165 2.105 . S
Sc155 O169 2.105 . S
Sc155 O171 2.105 . S
Sc155 O175 2.105 . S
Sc156 O157 2.025 . S
Sc156 O166 2.105 . S
Sc156 O168 2.105 . S
Sc156 O172 2.105 . S
Sc156 O174 2.105 . S
O157 Sc154 2.025 . S
O157 Sc155 2.025 . S
O157 Sc156 2.025 . S
C158 O164 1.268 . S
C158 O174 1.268 . S
C159 O165 1.268 . S
C159 O173 1.268 . S
C160 O166 1.268 . S
C160 O175 1.268 . S
C161 O167 1.268 . S
C161 O171 1.268 . S
C162 O168 1.268 . S
C162 O170 1.268 . S
C163 O169 1.268 . S
C163 O172 1.268 . S
O164 Sc154 2.105 . S
O164 C158 1.268 . S
O165 Sc155 2.105 . S
O165 C159 1.268 . S
O166 Sc156 2.105 . S
O166 C160 1.268 . S
O167 Sc154 2.105 . S
O167 C161 1.268 . S
O168 Sc156 2.105 . S
O168 C162 1.268 . S
O169 Sc155 2.105 . S
O169 C163 1.268 . S
O170 Sc154 2.105 . S
O170 C162 1.268 . S
O171 Sc155 2.105 . S
O171 C161 1.268 . S
O172 Sc156 2.105 . S
O172 C163 1.268 . S
O173 Sc154 2.105 . S
O173 C159 1.268 . S
O174 Sc156 2.105 . S
O174 C158 1.268 . S
O175 Sc155 2.105 . S
O175 C160 1.268 . S
Sc176 O179 2.025 . S
Sc176 O186 2.105 . S
Sc176 O189 2.105 . S
Sc176 O192 2.105 . S
Sc176 O195 2.105 . S
Sc177 O179 2.025 . S
Sc177 O187 2.105 . S
Sc177 O191 2.105 . S
Sc177 O193 2.105 . S
Sc177 O197 2.105 . S
Sc178 O179 2.025 . S
Sc178 O188 2.105 . S
Sc178 O190 2.105 . S
Sc178 O194 2.105 . S
Sc178 O196 2.105 . S
O179 Sc176 2.025 . S
O179 Sc177 2.025 . S
O179 Sc178 2.025 . S
C180 O186 1.268 . S
C180 O196 1.268 . S
C181 O187 1.268 . S
C181 O195 1.268 . S
C182 O188 1.268 . S
C182 O197 1.268 . S
C183 O189 1.268 . S
C183 O193 1.268 . S
C184 O190 1.268 . S
C184 O192 1.268 . S
C185 O191 1.268 . S
C185 O194 1.268 . S
O186 Sc176 2.105 . S
O186 C180 1.268 . S
O187 Sc177 2.105 . S
O187 C181 1.268 . S
O188 Sc178 2.105 . S
O188 C182 1.268 . S
O189 Sc176 2.105 . S
O189 C183 1.268 . S
O190 Sc178 2.105 . S
O190 C184 1.268 . S
O191 Sc177 2.105 . S
O191 C185 1.268 . S
O192 Sc176 2.105 . S
O192 C184 1.268 . S
O193 Sc177 2.105 . S
O193 C183 1.268 . S
O194 Sc178 2.105 . S
O194 C185 1.268 . S
O195 Sc176 2.105 . S
O195 C181 1.268 . S
O196 Sc178 2.105 . S
O196 C180 1.268 . S
O197 Sc177 2.105 . S
O197 C182 1.268 . S
Sc198 O201 2.025 . S
Sc198 O208 2.105 . S
Sc198 O211 2.105 . S
Sc198 O214 2.105 . S
Sc198 O217 2.105 . S
Sc199 O201 2.025 . S
Sc199 O209 2.105 . S
Sc199 O213 2.105 . S
Sc199 O215 2.105 . S
Sc199 O219 2.105 . S
Sc200 O201 2.025 . S
Sc200 O210 2.105 . S
Sc200 O212 2.105 . S
Sc200 O216 2.105 . S
Sc200 O218 2.105 . S
O201 Sc198 2.025 . S
O201 Sc199 2.025 . S
O201 Sc200 2.025 . S
C202 O208 1.268 . S
C202 O218 1.268 . S
C203 O209 1.268 . S
C203 O217 1.268 . S
C204 O210 1.268 . S
C204 O219 1.268 . S
C205 O211 1.268 . S
C205 O215 1.268 . S
C206 O212 1.268 . S
C206 O214 1.268 . S
C207 O213 1.268 . S
C207 O216 1.268 . S
O208 Sc198 2.105 . S
O208 C202 1.268 . S
O209 Sc199 2.105 . S
O209 C203 1.268 . S
O210 Sc200 2.105 . S
O210 C204 1.268 . S
O211 Sc198 2.105 . S
O211 C205 1.268 . S
O212 Sc200 2.105 . S
O212 C206 1.268 . S
O213 Sc199 2.105 . S
O213 C207 1.268 . S
O214 Sc198 2.105 . S
O214 C206 1.268 . S
O215 Sc199 2.105 . S
O215 C205 1.268 . S
O216 Sc200 2.105 . S
O216 C207 1.268 . S
O217 Sc198 2.105 . S
O217 C203 1.268 . S
O218 Sc200 2.105 . S
O218 C202 1.268 . S
O219 Sc199 2.105 . S
O219 C204 1.268 . S
Sc220 O223 2.025 . S
Sc220 O230 2.105 . S
Sc220 O233 2.105 . S
Sc220 O236 2.105 . S
Sc220 O239 2.105 . S
Sc221 O223 2.025 . S
Sc221 O231 2.105 . S
Sc221 O235 2.105 . S
Sc221 O237 2.105 . S
Sc221 O241 2.105 . S
Sc222 O223 2.025 . S
Sc222 O232 2.105 . S
Sc222 O234 2.105 . S
Sc222 O238 2.105 . S
Sc222 O240 2.105 . S
O223 Sc220 2.025 . S
O223 Sc221 2.025 . S
O223 Sc222 2.025 . S
C224 O230 1.268 . S
C224 O240 1.268 . S
C225 O231 1.268 . S
C225 O239 1.268 . S
C226 O232 1.268 . S
C226 O241 1.268 . S
C227 O233 1.268 . S
C227 O237 1.268 . S
C228 O234 1.268 . S
C228 O236 1.268 . S
C229 O235 1.268 . S
C229 O238 1.268 . S
O230 Sc220 2.105 . S
O230 C224 1.268 . S
O231 Sc221 2.105 . S
O231 C225 1.268 . S
O232 Sc222 2.105 . S
O232 C226 1.268 . S
O233 Sc220 2.105 . S
O233 C227 1.268 . S
O234 Sc222 2.105 . S
O234 C228 1.268 . S
O235 Sc221 2.105 . S
O235 C229 1.268 . S
O236 Sc220 2.105 . S
O236 C228 1.268 . S
O237 Sc221 2.105 . S
O237 C227 1.268 . S
O238 Sc222 2.105 . S
O238 C229 1.268 . S
O239 Sc220 2.105 . S
O239 C225 1.268 . S
O240 Sc222 2.105 . S
O240 C224 1.268 . S
O241 Sc221 2.105 . S
O241 C226 1.268 . S
Sc242 O245 2.025 . S
Sc242 O252 2.105 . S
Sc242 O255 2.105 . S
Sc242 O258 2.105 . S
Sc242 O261 2.105 . S
Sc243 O245 2.025 . S
Sc243 O253 2.105 . S
Sc243 O257 2.105 . S
Sc243 O259 2.105 . S
Sc243 O263 2.105 . S
Sc244 O245 2.025 . S
Sc244 O254 2.105 . S
Sc244 O256 2.105 . S
Sc244 O260 2.105 . S
Sc244 O262 2.105 . S
O245 Sc242 2.025 . S
O245 Sc243 2.025 . S
O245 Sc244 2.025 . S
C246 O252 1.268 . S
C246 O262 1.268 . S
C247 O253 1.268 . S
C247 O261 1.268 . S
C248 O254 1.268 . S
C248 O263 1.268 . S
C249 O255 1.268 . S
C249 O259 1.268 . S
C250 O256 1.268 . S
C250 O258 1.268 . S
C251 O257 1.268 . S
C251 O260 1.268 . S
O252 Sc242 2.105 . S
O252 C246 1.268 . S
O253 Sc243 2.105 . S
O253 C247 1.268 . S
O254 Sc244 2.105 . S
O254 C248 1.268 . S
O255 Sc242 2.105 . S
O255 C249 1.268 . S
O256 Sc244 2.105 . S
O256 C250 1.268 . S
O257 Sc243 2.105 . S
O257 C251 1.268 . S
O258 Sc242 2.105 . S
O258 C250 1.268 . S
O259 Sc243 2.105 . S
O259 C249 1.268 . S
O260 Sc244 2.105 . S
O260 C251 1.268 . S
O261 Sc242 2.105 . S
O261 C247 1.268 . S
O262 Sc244 2.105 . S
O262 C246 1.268 . S
O263 Sc243 2.105 . S
O263 C248 1.268 . S
Sc264 O267 2.025 . S
Sc264 O274 2.105 . S
Sc264 O277 2.105 . S
Sc264 O280 2.105 . S
Sc264 O283 2.105 . S
Sc265 O267 2.025 . S
Sc265 O275 2.105 . S
Sc265 O279 2.105 . S
Sc265 O281 2.105 . S
Sc265 O285 2.105 . S
Sc266 O267 2.025 . S
Sc266 O276 2.105 . S
Sc266 O278 2.105 . S
Sc266 O282 2.105 . S
Sc266 O284 2.105 . S
O267 Sc264 2.025 . S
O267 Sc265 2.025 . S
O267 Sc266 2.025 . S
C268 O274 1.268 . S
C268 O284 1.268 . S
C269 O275 1.268 . S
C269 O283 1.268 . S
C270 O276 1.268 . S
C270 O285 1.268 . S
C271 O277 1.268 . S
C271 O281 1.268 . S
C272 O278 1.268 . S
C272 O280 1.268 . S
C273 O279 1.268 . S
C273 O282 1.268 . S
O274 Sc264 2.105 . S
O274 C268 1.268 . S
O275 Sc265 2.105 . S
O275 C269 1.268 . S
O276 Sc266 2.105 . S
O276 C270 1.268 . S
O277 Sc264 2.105 . S
O277 C271 1.268 . S
O278 Sc266 2.105 . S
O278 C272 1.268 . S
O279 Sc265 2.105 . S
O279 C273 1.268 . S
O280 Sc264 2.105 . S
O280 C272 1.268 . S
O281 Sc265 2.105 . S
O281 C271 1.268 . S
O282 Sc266 2.105 . S
O282 C273 1.268 . S
O283 Sc264 2.105 . S
O283 C269 1.268 . S
O284 Sc266 2.105 . S
O284 C268 1.268 . S
O285 Sc265 2.105 . S
O285 C270 1.268 . S
Sc286 O289 2.025 . S
Sc286 O296 2.105 . S
Sc286 O299 2.105 . S
Sc286 O302 2.105 . S
Sc286 O305 2.105 . S
Sc287 O289 2.025 . S
Sc287 O297 2.105 . S
Sc287 O301 2.105 . S
Sc287 O303 2.105 . S
Sc287 O307 2.105 . S
Sc288 O289 2.025 . S
Sc288 O298 2.105 . S
Sc288 O300 2.105 . S
Sc288 O304 2.105 . S
Sc288 O306 2.105 . S
O289 Sc286 2.025 . S
O289 Sc287 2.025 . S
O289 Sc288 2.025 . S
C290 O296 1.268 . S
C290 O306 1.268 . S
C291 O297 1.268 . S
C291 O305 1.268 . S
C292 O298 1.268 . S
C292 O307 1.268 . S
C293 O299 1.268 . S
C293 O303 1.268 . S
C294 O300 1.268 . S
C294 O302 1.268 . S
C295 O301 1.268 . S
C295 O304 1.268 . S
O296 Sc286 2.105 . S
O296 C290 1.268 . S
O297 Sc287 2.105 . S
O297 C291 1.268 . S
O298 Sc288 2.105 . S
O298 C292 1.268 . S
O299 Sc286 2.105 . S
O299 C293 1.268 . S
O300 Sc288 2.105 . S
O300 C294 1.268 . S
O301 Sc287 2.105 . S
O301 C295 1.268 . S
O302 Sc286 2.105 . S
O302 C294 1.268 . S
O303 Sc287 2.105 . S
O303 C293 1.268 . S
O304 Sc288 2.105 . S
O304 C295 1.268 . S
O305 Sc286 2.105 . S
O305 C291 1.268 . S
O306 Sc288 2.105 . S
O306 C290 1.268 . S
O307 Sc287 2.105 . S
O307 C292 1.268 . S
Sc308 O311 2.025 . S
Sc308 O318 2.105 . S
Sc308 O321 2.105 . S
Sc308 O324 2.105 . S
Sc308 O327 2.105 . S
Sc309 O311 2.025 . S
Sc309 O319 2.105 . S
Sc309 O323 2.105 . S
Sc309 O325 2.105 . S
Sc309 O329 2.105 . S
Sc310 O311 2.025 . S
Sc310 O320 2.105 . S
Sc310 O322 2.105 . S
Sc310 O326 2.105 . S
Sc310 O328 2.105 . S
O311 Sc308 2.025 . S
O311 Sc309 2.025 . S
O311 Sc310 2.025 . S
C312 O318 1.268 . S
C312 O328 1.268 . S
C313 O319 1.268 . S
C313 O327 1.268 . S
C314 O320 1.268 . S
C314 O329 1.268 . S
C315 O321 1.268 . S
C315 O325 1.268 . S
C316 O322 1.268 . S
C316 O324 1.268 . S
C317 O323 1.268 . S
C317 O326 1.268 . S
O318 Sc308 2.105 . S
O318 C312 1.268 . S
O319 Sc309 2.105 . S
O319 C313 1.268 . S
O320 Sc310 2.105 . S
O320 C314 1.268 . S
O321 Sc308 2.105 . S
O321 C315 1.268 . S
O322 Sc310 2.105 . S
O322 C316 1.268 . S
O323 Sc309 2.105 . S
O323 C317 1.268 . S
O324 Sc308 2.105 . S
O324 C316 1.268 . S
O325 Sc309 2.105 . S
O325 C315 1.268 . S
O326 Sc310 2.105 . S
O326 C317 1.268 . S
O327 Sc308 2.105 . S
O327 C313 1.268 . S
O328 Sc310 2.105 . S
O328 C312 1.268 . S
O329 Sc309 2.105 . S
O329 C314 1.268 . S
Sc330 O333 2.025 . S
Sc330 O340 2.105 . S
Sc330 O343 2.105 . S
Sc330 O346 2.105 . S
Sc330 O349 2.105 . S
Sc331 O333 2.025 . S
Sc331 O341 2.105 . S
Sc331 O345 2.105 . S
Sc331 O347 2.105 . S
Sc331 O351 2.105 . S
Sc332 O333 2.025 . S
Sc332 O342 2.105 . S
Sc332 O344 2.105 . S
Sc332 O348 2.105 . S
Sc332 O350 2.105 . S
O333 Sc330 2.025 . S
O333 Sc331 2.025 . S
O333 Sc332 2.025 . S
C334 O340 1.268 . S
C334 O350 1.268 . S
C335 O341 1.268 . S
C335 O349 1.268 . S
C336 O342 1.268 . S
C336 O351 1.268 . S
C337 O343 1.268 . S
C337 O347 1.268 . S
C338 O344 1.268 . S
C338 O346 1.268 . S
C339 O345 1.268 . S
C339 O348 1.268 . S
O340 Sc330 2.105 . S
O340 C334 1.268 . S
O341 Sc331 2.105 . S
O341 C335 1.268 . S
O342 Sc332 2.105 . S
O342 C336 1.268 . S
O343 Sc330 2.105 . S
O343 C337 1.268 . S
O344 Sc332 2.105 . S
O344 C338 1.268 . S
O345 Sc331 2.105 . S
O345 C339 1.268 . S
O346 Sc330 2.105 . S
O346 C338 1.268 . S
O347 Sc331 2.105 . S
O347 C337 1.268 . S
O348 Sc332 2.105 . S
O348 C339 1.268 . S
O349 Sc330 2.105 . S
O349 C335 1.268 . S
O350 Sc332 2.105 . S
O350 C334 1.268 . S
O351 Sc331 2.105 . S
O351 C336 1.268 . S
C352 C353 1.349 . S
C352 C354 1.327 . S
C352 H377 0.950 . S
C353 C352 1.349 . S
C353 C369 1.349 . S
C354 C352 1.327 . S
C354 C373 1.429 . S
C354 H378 0.950 . S
C355 C372 1.574 . S
C355 C374 1.368 . S
C355 H379 0.949 . S
H356 C360 0.949 . S
C357 C358 1.349 . S
C357 C359 1.327 . S
C357 H380 0.950 . S
C358 C357 1.349 . S
C358 C370 1.349 . S
C359 C357 1.327 . S
C359 C375 1.429 . S
C359 H381 0.950 . S
C360 H356 0.949 . S
C360 C368 1.574 . S
C360 C376 1.368 . S
H361 C369 0.950 . S
H362 C367 0.950 . S
H363 C368 0.949 . S
H364 C370 0.950 . S
H365 C371 0.950 . S
H366 C372 0.949 . S
C367 H362 0.950 . S
C367 C369 1.327 . S
C367 C373 1.429 . S
C368 C360 1.574 . S
C368 H363 0.949 . S
C368 C374 1.368 . S
C369 C353 1.349 . S
C369 H361 0.950 . S
C369 C367 1.327 . S
C370 C358 1.349 . S
C370 H364 0.950 . S
C370 C371 1.327 . S
C371 H365 0.950 . S
C371 C370 1.327 . S
C371 C375 1.429 . S
C372 C355 1.574 . S
C372 H366 0.949 . S
C372 C376 1.368 . S
C373 C354 1.429 . S
C373 C367 1.429 . S
C373 C374 1.523 . S
C374 C355 1.368 . S
C374 C368 1.368 . S
C374 C373 1.523 . S
C375 C359 1.429 . S
C375 C371 1.429 . S
C375 C376 1.523 . S
C376 C360 1.368 . S
C376 C372 1.368 . S
C376 C375 1.523 . S
H377 C352 0.950 . S
H378 C354 0.950 . S
H379 C355 0.949 . S
H380 C357 0.950 . S
H381 C359 0.950 . S
C382 C383 1.349 . S
C382 C384 1.327 . S
C382 H407 0.950 . S
C383 C382 1.349 . S
C383 C399 1.349 . S
C384 C382 1.327 . S
C384 C403 1.429 . S
C384 H408 0.950 . S
C385 C402 1.574 . S
C385 C404 1.368 . S
C385 H409 0.949 . S
H386 C390 0.949 . S
C387 C388 1.349 . S
C387 C389 1.327 . S
C387 H410 0.950 . S
C388 C387 1.349 . S
C388 C400 1.349 . S
C389 C387 1.327 . S
C389 C405 1.429 . S
C389 H411 0.950 . S
C390 H386 0.949 . S
C390 C398 1.574 . S
C390 C406 1.368 . S
H391 C399 0.950 . S
H392 C397 0.950 . S
H393 C398 0.949 . S
H394 C400 0.950 . S
H395 C401 0.950 . S
H396 C402 0.949 . S
C397 H392 0.950 . S
C397 C399 1.327 . S
C397 C403 1.429 . S
C398 C390 1.574 . S
C398 H393 0.949 . S
C398 C404 1.368 . S
C399 C383 1.349 . S
C399 H391 0.950 . S
C399 C397 1.327 . S
C400 C388 1.349 . S
C400 H394 0.950 . S
C400 C401 1.327 . S
C401 H395 0.950 . S
C401 C400 1.327 . S
C401 C405 1.429 . S
C402 C385 1.574 . S
C402 H396 0.949 . S
C402 C406 1.368 . S
C403 C384 1.429 . S
C403 C397 1.429 . S
C403 C404 1.523 . S
C404 C385 1.368 . S
C404 C398 1.368 . S
C404 C403 1.523 . S
C405 C389 1.429 . S
C405 C401 1.429 . S
C405 C406 1.523 . S
C406 C390 1.368 . S
C406 C402 1.368 . S
C406 C405 1.523 . S
H407 C382 0.950 . S
H408 C384 0.950 . S
H409 C385 0.949 . S
H410 C387 0.950 . S
H411 C389 0.950 . S
C412 C413 1.349 . S
C412 C414 1.327 . S
C412 H437 0.950 . S
C413 C412 1.349 . S
C413 C429 1.349 . S
C414 C412 1.327 . S
C414 C433 1.429 . S
C414 H438 0.950 . S
C415 C432 1.574 . S
C415 C434 1.368 . S
C415 H439 0.949 . S
H416 C420 0.949 . S
C417 C418 1.349 . S
C417 C419 1.327 . S
C417 H440 0.950 . S
C418 C417 1.349 . S
C418 C430 1.349 . S
C419 C417 1.327 . S
C419 C435 1.429 . S
C419 H441 0.950 . S
C420 H416 0.949 . S
C420 C428 1.574 . S
C420 C436 1.368 . S
H421 C429 0.950 . S
H422 C427 0.950 . S
H423 C428 0.949 . S
H424 C430 0.950 . S
H425 C431 0.950 . S
H426 C432 0.949 . S
C427 H422 0.950 . S
C427 C429 1.327 . S
C427 C433 1.429 . S
C428 C420 1.574 . S
C428 H423 0.949 . S
C428 C434 1.368 . S
C429 C413 1.349 . S
C429 H421 0.950 . S
C429 C427 1.327 . S
C430 C418 1.349 . S
C430 H424 0.950 . S
C430 C431 1.327 . S
C431 H425 0.950 . S
C431 C430 1.327 . S
C431 C435 1.429 . S
C432 C415 1.574 . S
C432 H426 0.949 . S
C432 C436 1.368 . S
C433 C414 1.429 . S
C433 C427 1.429 . S
C433 C434 1.523 . S
C434 C415 1.368 . S
C434 C428 1.368 . S
C434 C433 1.523 . S
C435 C419 1.429 . S
C435 C431 1.429 . S
C435 C436 1.523 . S
C436 C420 1.368 . S
C436 C432 1.368 . S
C436 C435 1.523 . S
H437 C412 0.950 . S
H438 C414 0.950 . S
H439 C415 0.949 . S
H440 C417 0.950 . S
H441 C419 0.950 . S
C442 C443 1.349 . S
C442 C444 1.327 . S
C442 H467 0.950 . S
C443 C442 1.349 . S
C443 C459 1.349 . S
C444 C442 1.327 . S
C444 C463 1.429 . S
C444 H468 0.950 . S
C445 C462 1.574 . S
C445 C464 1.368 . S
C445 H469 0.949 . S
H446 C450 0.949 . S
C447 C448 1.349 . S
C447 C449 1.327 . S
C447 H470 0.950 . S
C448 C447 1.349 . S
C448 C460 1.349 . S
C449 C447 1.327 . S
C449 C465 1.429 . S
C449 H471 0.950 . S
C450 H446 0.949 . S
C450 C458 1.574 . S
C450 C466 1.368 . S
H451 C459 0.950 . S
H452 C457 0.950 . S
H453 C458 0.949 . S
H454 C460 0.950 . S
H455 C461 0.950 . S
H456 C462 0.949 . S
C457 H452 0.950 . S
C457 C459 1.327 . S
C457 C463 1.429 . S
C458 C450 1.574 . S
C458 H453 0.949 . S
C458 C464 1.368 . S
C459 C443 1.349 . S
C459 H451 0.950 . S
C459 C457 1.327 . S
C460 C448 1.349 . S
C460 H454 0.950 . S
C460 C461 1.327 . S
C461 H455 0.950 . S
C461 C460 1.327 . S
C461 C465 1.429 . S
C462 C445 1.574 . S
C462 H456 0.949 . S
C462 C466 1.368 . S
C463 C444 1.429 . S
C463 C457 1.429 . S
C463 C464 1.523 . S
C464 C445 1.368 . S
C464 C458 1.368 . S
C464 C463 1.523 . S
C465 C449 1.429 . S
C465 C461 1.429 . S
C465 C466 1.523 . S
C466 C450 1.368 . S
C466 C462 1.368 . S
C466 C465 1.523 . S
H467 C442 0.950 . S
H468 C444 0.950 . S
H469 C445 0.949 . S
H470 C447 0.950 . S
H471 C449 0.950 . S
C472 C473 1.349 . S
C472 C474 1.327 . S
C472 H497 0.950 . S
C473 C472 1.349 . S
C473 C489 1.349 . S
C474 C472 1.327 . S
C474 C493 1.429 . S
C474 H498 0.950 . S
C475 C492 1.574 . S
C475 C494 1.368 . S
C475 H499 0.949 . S
H476 C480 0.949 . S
C477 C478 1.349 . S
C477 C479 1.327 . S
C477 H500 0.950 . S
C478 C477 1.349 . S
C478 C490 1.349 . S
C479 C477 1.327 . S
C479 C495 1.429 . S
C479 H501 0.950 . S
C480 H476 0.949 . S
C480 C488 1.574 . S
C480 C496 1.368 . S
H481 C489 0.950 . S
H482 C487 0.950 . S
H483 C488 0.949 . S
H484 C490 0.950 . S
H485 C491 0.950 . S
H486 C492 0.949 . S
C487 H482 0.950 . S
C487 C489 1.327 . S
C487 C493 1.429 . S
C488 C480 1.574 . S
C488 H483 0.949 . S
C488 C494 1.368 . S
C489 C473 1.349 . S
C489 H481 0.950 . S
C489 C487 1.327 . S
C490 C478 1.349 . S
C490 H484 0.950 . S
C490 C491 1.327 . S
C491 H485 0.950 . S
C491 C490 1.327 . S
C491 C495 1.429 . S
C492 C475 1.574 . S
C492 H486 0.949 . S
C492 C496 1.368 . S
C493 C474 1.429 . S
C493 C487 1.429 . S
C493 C494 1.523 . S
C494 C475 1.368 . S
C494 C488 1.368 . S
C494 C493 1.523 . S
C495 C479 1.429 . S
C495 C491 1.429 . S
C495 C496 1.523 . S
C496 C480 1.368 . S
C496 C492 1.368 . S
C496 C495 1.523 . S
H497 C472 0.950 . S
H498 C474 0.950 . S
H499 C475 0.949 . S
H500 C477 0.950 . S
H501 C479 0.950 . S
C502 C503 1.349 . S
C502 C504 1.327 . S
C502 H527 0.950 . S
C503 C502 1.349 . S
C503 C519 1.349 . S
C504 C502 1.327 . S
C504 C523 1.429 . S
C504 H528 0.950 . S
C505 C522 1.574 . S
C505 C524 1.368 . S
C505 H529 0.949 . S
H506 C510 0.949 . S
C507 C508 1.349 . S
C507 C509 1.327 . S
C507 H530 0.950 . S
C508 C507 1.349 . S
C508 C520 1.349 . S
C509 C507 1.327 . S
C509 C525 1.429 . S
C509 H531 0.950 . S
C510 H506 0.949 . S
C510 C518 1.574 . S
C510 C526 1.368 . S
H511 C519 0.950 . S
H512 C517 0.950 . S
H513 C518 0.949 . S
H514 C520 0.950 . S
H515 C521 0.950 . S
H516 C522 0.949 . S
C517 H512 0.950 . S
C517 C519 1.327 . S
C517 C523 1.429 . S
C518 C510 1.574 . S
C518 H513 0.949 . S
C518 C524 1.368 . S
C519 C503 1.349 . S
C519 H511 0.950 . S
C519 C517 1.327 . S
C520 C508 1.349 . S
C520 H514 0.950 . S
C520 C521 1.327 . S
C521 H515 0.950 . S
C521 C520 1.327 . S
C521 C525 1.429 . S
C522 C505 1.574 . S
C522 H516 0.949 . S
C522 C526 1.368 . S
C523 C504 1.429 . S
C523 C517 1.429 . S
C523 C524 1.523 . S
C524 C505 1.368 . S
C524 C518 1.368 . S
C524 C523 1.523 . S
C525 C509 1.429 . S
C525 C521 1.429 . S
C525 C526 1.523 . S
C526 C510 1.368 . S
C526 C522 1.368 . S
C526 C525 1.523 . S
H527 C502 0.950 . S
H528 C504 0.950 . S
H529 C505 0.949 . S
H530 C507 0.950 . S
H531 C509 0.950 . S
C532 C533 1.349 . S
C532 C534 1.327 . S
C532 H557 0.950 . S
C533 C532 1.349 . S
C533 C549 1.349 . S
C534 C532 1.327 . S
C534 C553 1.429 . S
C534 H558 0.950 . S
C535 C552 1.574 . S
C535 C554 1.368 . S
C535 H559 0.949 . S
H536 C540 0.949 . S
C537 C538 1.349 . S
C537 C539 1.327 . S
C537 H560 0.950 . S
C538 C537 1.349 . S
C538 C550 1.349 . S
C539 C537 1.327 . S
C539 C555 1.429 . S
C539 H561 0.950 . S
C540 H536 0.949 . S
C540 C548 1.574 . S
C540 C556 1.368 . S
H541 C549 0.950 . S
H542 C547 0.950 . S
H543 C548 0.949 . S
H544 C550 0.950 . S
H545 C551 0.950 . S
H546 C552 0.949 . S
C547 H542 0.950 . S
C547 C549 1.327 . S
C547 C553 1.429 . S
C548 C540 1.574 . S
C548 H543 0.949 . S
C548 C554 1.368 . S
C549 C533 1.349 . S
C549 H541 0.950 . S
C549 C547 1.327 . S
C550 C538 1.349 . S
C550 H544 0.950 . S
C550 C551 1.327 . S
C551 H545 0.950 . S
C551 C550 1.327 . S
C551 C555 1.429 . S
C552 C535 1.574 . S
C552 H546 0.949 . S
C552 C556 1.368 . S
C553 C534 1.429 . S
C553 C547 1.429 . S
C553 C554 1.523 . S
C554 C535 1.368 . S
C554 C548 1.368 . S
C554 C553 1.523 . S
C555 C539 1.429 . S
C555 C551 1.429 . S
C555 C556 1.523 . S
C556 C540 1.368 . S
C556 C552 1.368 . S
C556 C555 1.523 . S
H557 C532 0.950 . S
H558 C534 0.950 . S
H559 C535 0.949 . S
H560 C537 0.950 . S
H561 C539 0.950 . S
C562 C563 1.349 . S
C562 C564 1.327 . S
C562 H587 0.950 . S
C563 C562 1.349 . S
C563 C579 1.349 . S
C564 C562 1.327 . S
C564 C583 1.429 . S
C564 H588 0.950 . S
C565 C582 1.574 . S
C565 C584 1.368 . S
C565 H589 0.949 . S
H566 C570 0.949 . S
C567 C568 1.349 . S
C567 C569 1.327 . S
C567 H590 0.950 . S
C568 C567 1.349 . S
C568 C580 1.349 . S
C569 C567 1.327 . S
C569 C585 1.429 . S
C569 H591 0.950 . S
C570 H566 0.949 . S
C570 C578 1.574 . S
C570 C586 1.368 . S
H571 C579 0.950 . S
H572 C577 0.950 . S
H573 C578 0.949 . S
H574 C580 0.950 . S
H575 C581 0.950 . S
H576 C582 0.949 . S
C577 H572 0.950 . S
C577 C579 1.327 . S
C577 C583 1.429 . S
C578 C570 1.574 . S
C578 H573 0.949 . S
C578 C584 1.368 . S
C579 C563 1.349 . S
C579 H571 0.950 . S
C579 C577 1.327 . S
C580 C568 1.349 . S
C580 H574 0.950 . S
C580 C581 1.327 . S
C581 H575 0.950 . S
C581 C580 1.327 . S
C581 C585 1.429 . S
C582 C565 1.574 . S
C582 H576 0.949 . S
C582 C586 1.368 . S
C583 C564 1.429 . S
C583 C577 1.429 . S
C583 C584 1.523 . S
C584 C565 1.368 . S
C584 C578 1.368 . S
C584 C583 1.523 . S
C585 C569 1.429 . S
C585 C581 1.429 . S
C585 C586 1.523 . S
C586 C570 1.368 . S
C586 C582 1.368 . S
C586 C585 1.523 . S
H587 C562 0.950 . S
H588 C564 0.950 . S
H589 C565 0.949 . S
H590 C567 0.950 . S
H591 C569 0.950 . S
C592 C593 1.349 . S
C592 C594 1.327 . S
C592 H617 0.950 . S
C593 C592 1.349 . S
C593 C609 1.349 . S
C594 C592 1.327 . S
C594 C613 1.429 . S
C594 H618 0.950 . S
C595 C612 1.574 . S
C595 C614 1.368 . S
C595 H619 0.949 . S
H596 C600 0.949 . S
C597 C598 1.349 . S
C597 C599 1.327 . S
C597 H620 0.950 1_545 S
C598 C597 1.349 . S
C598 C610 1.349 . S
C599 C597 1.327 . S
C599 C615 1.429 . S
C599 H621 0.950 . S
C600 H596 0.949 . S
C600 C608 1.574 . S
C600 C616 1.368 . S
H601 C609 0.950 . S
H602 C607 0.950 . S
H603 C608 0.949 . S
H604 C610 0.950 . S
H605 C611 0.950 . S
H606 C612 0.949 . S
C607 H602 0.950 . S
C607 C609 1.327 . S
C607 C613 1.429 . S
C608 C600 1.574 . S
C608 H603 0.949 . S
C608 C614 1.368 . S
C609 C593 1.349 . S
C609 H601 0.950 . S
C609 C607 1.327 . S
C610 C598 1.349 . S
C610 H604 0.950 . S
C610 C611 1.327 . S
C611 H605 0.950 . S
C611 C610 1.327 . S
C611 C615 1.429 . S
C612 C595 1.574 . S
C612 H606 0.949 . S
C612 C616 1.368 . S
C613 C594 1.429 . S
C613 C607 1.429 . S
C613 C614 1.523 . S
C614 C595 1.368 . S
C614 C608 1.368 . S
C614 C613 1.523 . S
C615 C599 1.429 . S
C615 C611 1.429 . S
C615 C616 1.523 . S
C616 C600 1.368 . S
C616 C612 1.368 . S
C616 C615 1.523 . S
H617 C592 0.950 . S
H618 C594 0.950 . S
H619 C595 0.949 . S
H620 C597 0.950 1_565 S
H621 C599 0.950 . S
C622 C623 1.349 . S
C622 C624 1.327 . S
C622 H647 0.950 . S
C623 C622 1.349 . S
C623 C639 1.349 . S
C624 C622 1.327 . S
C624 C643 1.429 . S
C624 H648 0.950 . S
C625 C642 1.574 . S
C625 C644 1.368 . S
C625 H649 0.949 . S
H626 C630 0.949 . S
C627 C628 1.349 . S
C627 C629 1.327 . S
C627 H650 0.950 . S
C628 C627 1.349 . S
C628 C640 1.349 . S
C629 C627 1.327 . S
C629 C645 1.429 . S
C629 H651 0.950 . S
C630 H626 0.949 . S
C630 C638 1.574 . S
C630 C646 1.368 . S
H631 C639 0.950 . S
H632 C637 0.950 . S
H633 C638 0.949 . S
H634 C640 0.950 . S
H635 C641 0.950 . S
H636 C642 0.949 . S
C637 H632 0.950 . S
C637 C639 1.327 . S
C637 C643 1.429 . S
C638 C630 1.574 . S
C638 H633 0.949 . S
C638 C644 1.368 . S
C639 C623 1.349 . S
C639 H631 0.950 . S
C639 C637 1.327 . S
C640 C628 1.349 . S
C640 H634 0.950 . S
C640 C641 1.327 . S
C641 H635 0.950 . S
C641 C640 1.327 . S
C641 C645 1.429 . S
C642 C625 1.574 . S
C642 H636 0.949 . S
C642 C646 1.368 . S
C643 C624 1.429 . S
C643 C637 1.429 . S
C643 C644 1.523 . S
C644 C625 1.368 . S
C644 C638 1.368 . S
C644 C643 1.523 . S
C645 C629 1.429 . S
C645 C641 1.429 . S
C645 C646 1.523 . S
C646 C630 1.368 . S
C646 C642 1.368 . S
C646 C645 1.523 . S
H647 C622 0.950 . S
H648 C624 0.950 . S
H649 C625 0.949 . S
H650 C627 0.950 . S
H651 C629 0.950 . S
C652 C653 1.349 . S
C652 C654 1.327 . S
C652 H677 0.970 . S
C653 C652 1.349 . S
C653 C669 1.349 . S
C654 C652 1.327 . S
C654 C673 1.429 . S
C654 H678 0.950 . S
C655 C672 1.574 . S
C655 C674 1.368 . S
C655 H679 0.949 . S
H656 C660 0.949 . S
C657 C658 1.349 . S
C657 C659 1.327 . S
C657 H680 0.950 . S
C658 C657 1.349 . S
C658 C670 1.349 . S
C659 C657 1.327 . S
C659 C675 1.429 . S
C659 H681 0.950 . S
C660 H656 0.949 . S
C660 C668 1.574 . S
C660 C676 1.368 . S
H661 C669 0.950 . S
H662 C667 0.950 . S
H663 C668 0.949 . S
H664 C670 0.950 . S
H665 C671 0.950 . S
H666 C672 0.949 . S
C667 H662 0.950 . S
C667 C669 1.327 . S
C667 C673 1.429 . S
C668 C660 1.574 . S
C668 H663 0.949 . S
C668 C674 1.368 . S
C669 C653 1.349 . S
C669 H661 0.950 . S
C669 C667 1.327 . S
C670 C658 1.349 . S
C670 H664 0.950 . S
C670 C671 1.327 . S
C671 H665 0.950 . S
C671 C670 1.327 . S
C671 C675 1.429 . S
C672 C655 1.574 . S
C672 H666 0.949 . S
C672 C676 1.368 . S
C673 C654 1.429 . S
C673 C667 1.429 . S
C673 C674 1.523 . S
C674 C655 1.368 . S
C674 C668 1.368 . S
C674 C673 1.523 . S
C675 C659 1.429 . S
C675 C671 1.429 . S
C675 C676 1.523 . S
C676 C660 1.368 . S
C676 C672 1.368 . S
C676 C675 1.523 . S
H677 C652 0.970 . S
H678 C654 0.950 . S
H679 C655 0.949 . S
H680 C657 0.950 . S
H681 C659 0.950 . S
C682 C683 1.349 . S
C682 C684 1.327 . S
C682 H707 0.950 1_545 S
C683 C682 1.349 . S
C683 C699 1.349 . S
C684 C682 1.327 . S
C684 C703 1.429 . S
C684 H708 0.950 . S
C685 C702 1.574 . S
C685 C704 1.368 . S
C685 H709 0.949 . S
H686 C690 0.949 . S
C687 C688 1.349 . S
C687 C689 1.327 . S
C687 H710 0.950 . S
C688 C687 1.349 . S
C688 C700 1.349 . S
C689 C687 1.327 . S
C689 C705 1.429 . S
C689 H711 0.950 . S
C690 H686 0.949 . S
C690 C698 1.574 . S
C690 C706 1.368 . S
H691 C699 0.950 . S
H692 C697 0.950 . S
H693 C698 0.949 . S
H694 C700 0.950 1_655 S
H695 C701 0.950 . S
H696 C702 0.949 . S
C697 H692 0.950 . S
C697 C699 1.327 . S
C697 C703 1.429 . S
C698 C690 1.574 . S
C698 H693 0.949 . S
C698 C704 1.368 . S
C699 C683 1.349 . S
C699 H691 0.950 . S
C699 C697 1.327 . S
C700 C688 1.349 . S
C700 H694 0.950 1_455 S
C700 C701 1.327 . S
C701 H695 0.950 . S
C701 C700 1.327 . S
C701 C705 1.429 . S
C702 C685 1.574 . S
C702 H696 0.949 . S
C702 C706 1.368 . S
C703 C684 1.429 . S
C703 C697 1.429 . S
C703 C704 1.523 . S
C704 C685 1.368 . S
C704 C698 1.368 . S
C704 C703 1.523 . S
C705 C689 1.429 . S
C705 C701 1.429 . S
C705 C706 1.523 . S
C706 C690 1.368 . S
C706 C702 1.368 . S
C706 C705 1.523 . S
H707 C682 0.950 1_565 S
H708 C684 0.950 . S
H709 C685 0.949 . S
H710 C687 0.950 . S
H711 C689 0.950 . S
C712 C713 1.349 . S
C712 C714 1.327 . S
C712 H737 0.937 1_655 S
C713 C712 1.349 . S
C713 C729 1.349 . S
C714 C712 1.327 . S
C714 C733 1.429 . S
C714 H738 0.950 . S
C715 C732 1.574 . S
C715 C734 1.368 . S
C715 H739 0.949 . S
H716 C720 0.949 . S
C717 C718 1.349 . S
C717 C719 1.327 . S
C717 H740 0.950 . S
C718 C717 1.349 . S
C718 C730 1.349 . S
C719 C717 1.327 . S
C719 C735 1.429 . S
C719 H741 0.950 . S
C720 H716 0.949 . S
C720 C728 1.574 . S
C720 C736 1.368 . S
H721 C729 0.950 . S
H722 C727 0.950 . S
H723 C728 0.949 . S
H724 C730 0.950 1_545 S
H725 C731 0.950 . S
H726 C732 0.949 . S
C727 H722 0.950 . S
C727 C729 1.327 . S
C727 C733 1.429 . S
C728 C720 1.574 . S
C728 H723 0.949 . S
C728 C734 1.368 . S
C729 C713 1.349 . S
C729 H721 0.950 . S
C729 C727 1.327 . S
C730 C718 1.349 . S
C730 H724 0.950 1_565 S
C730 C731 1.327 . S
C731 H725 0.950 . S
C731 C730 1.327 . S
C731 C735 1.429 . S
C732 C715 1.574 . S
C732 H726 0.949 . S
C732 C736 1.368 . S
C733 C714 1.429 . S
C733 C727 1.429 . S
C733 C734 1.523 . S
C734 C715 1.368 . S
C734 C728 1.368 . S
C734 C733 1.523 . S
C735 C719 1.429 . S
C735 C731 1.429 . S
C735 C736 1.523 . S
C736 C720 1.368 . S
C736 C732 1.368 . S
C736 C735 1.523 . S
H737 C712 0.937 1_455 S
H738 C714 0.950 . S
H739 C715 0.949 . S
H740 C717 0.950 . S
H741 C719 0.950 . S
C742 C743 1.349 . S
C742 C744 1.327 . S
C742 H767 0.950 . S
C743 C742 1.349 . S
C743 C759 1.349 . S
C744 C742 1.327 . S
C744 C763 1.429 . S
C744 H768 0.950 . S
C745 C762 1.574 . S
C745 C764 1.368 . S
C745 H769 0.949 . S
H746 C750 0.949 . S
C747 C748 1.349 . S
C747 C749 1.327 . S
C747 H770 0.950 . S
C748 C747 1.349 . S
C748 C760 1.349 . S
C749 C747 1.327 . S
C749 C765 1.429 . S
C749 H771 0.950 . S
C750 H746 0.949 . S
C750 C758 1.574 . S
C750 C766 1.368 . S
H751 C759 0.950 . S
H752 C757 0.950 . S
H753 C758 0.949 . S
H754 C760 0.950 . S
H755 C761 0.950 . S
H756 C762 0.949 . S
C757 H752 0.950 . S
C757 C759 1.327 . S
C757 C763 1.429 . S
C758 C750 1.574 . S
C758 H753 0.949 . S
C758 C764 1.368 . S
C759 C743 1.349 . S
C759 H751 0.950 . S
C759 C757 1.327 . S
C760 C748 1.349 . S
C760 H754 0.950 . S
C760 C761 1.327 . S
C761 H755 0.950 . S
C761 C760 1.327 . S
C761 C765 1.429 . S
C762 C745 1.574 . S
C762 H756 0.949 . S
C762 C766 1.368 . S
C763 C744 1.429 . S
C763 C757 1.429 . S
C763 C764 1.523 . S
C764 C745 1.368 . S
C764 C758 1.368 . S
C764 C763 1.523 . S
C765 C749 1.429 . S
C765 C761 1.429 . S
C765 C766 1.523 . S
C766 C750 1.368 . S
C766 C762 1.368 . S
C766 C765 1.523 . S
H767 C742 0.950 . S
H768 C744 0.950 . S
H769 C745 0.949 . S
H770 C747 0.950 . S
H771 C749 0.950 . S
C772 C773 1.349 . S
C772 C774 1.327 . S
C772 H797 0.950 . S
C773 C772 1.349 . S
C773 C789 1.349 . S
C774 C772 1.327 . S
C774 C793 1.429 . S
C774 H798 0.950 . S
C775 C792 1.574 . S
C775 C794 1.368 . S
C775 H799 0.949 . S
H776 C780 0.949 . S
C777 C778 1.349 . S
C777 C779 1.327 . S
C777 H800 0.950 . S
C778 C777 1.349 . S
C778 C790 1.349 . S
C779 C777 1.327 . S
C779 C795 1.429 . S
C779 H801 0.950 . S
C780 H776 0.949 . S
C780 C788 1.574 . S
C780 C796 1.368 . S
H781 C789 0.950 . S
H782 C787 0.950 . S
H783 C788 0.949 . S
H784 C790 0.950 . S
H785 C791 0.950 . S
H786 C792 0.949 . S
C787 H782 0.950 . S
C787 C789 1.327 . S
C787 C793 1.429 . S
C788 C780 1.574 . S
C788 H783 0.949 . S
C788 C794 1.368 . S
C789 C773 1.349 . S
C789 H781 0.950 . S
C789 C787 1.327 . S
C790 C778 1.349 . S
C790 H784 0.950 . S
C790 C791 1.327 . S
C791 H785 0.950 . S
C791 C790 1.327 . S
C791 C795 1.429 . S
C792 C775 1.574 . S
C792 H786 0.949 . S
C792 C796 1.368 . S
C793 C774 1.429 . S
C793 C787 1.429 . S
C793 C794 1.523 . S
C794 C775 1.368 . S
C794 C788 1.368 . S
C794 C793 1.523 . S
C795 C779 1.429 . S
C795 C791 1.429 . S
C795 C796 1.523 . S
C796 C780 1.368 . S
C796 C792 1.368 . S
C796 C795 1.523 . S
H797 C772 0.950 . S
H798 C774 0.950 . S
H799 C775 0.949 . S
H800 C777 0.950 . S
H801 C779 0.950 . S
C802 C803 1.349 . S
C802 C804 1.327 . S
C802 H827 0.950 . S
C803 C802 1.349 . S
C803 C819 1.349 . S
C804 C802 1.327 . S
C804 C823 1.429 . S
C804 H828 0.950 . S
C805 C822 1.574 . S
C805 C824 1.368 . S
C805 H829 0.949 . S
H806 C810 0.949 . S
C807 C808 1.349 . S
C807 C809 1.327 . S
C807 H830 0.950 . S
C808 C807 1.349 . S
C808 C820 1.349 . S
C809 C807 1.327 . S
C809 C825 1.429 . S
C809 H831 0.950 . S
C810 H806 0.949 . S
C810 C818 1.574 . S
C810 C826 1.368 . S
H811 C819 0.950 1_455 S
H812 C817 0.950 . S
H813 C818 0.949 . S
H814 C820 0.950 . S
H815 C821 0.950 . S
H816 C822 0.949 . S
C817 H812 0.950 . S
C817 C819 1.327 . S
C817 C823 1.429 . S
C818 C810 1.574 . S
C818 H813 0.949 . S
C818 C824 1.368 . S
C819 C803 1.349 . S
C819 H811 0.950 1_655 S
C819 C817 1.327 . S
C820 C808 1.349 . S
C820 H814 0.950 . S
C820 C821 1.327 . S
C821 H815 0.950 . S
C821 C820 1.327 . S
C821 C825 1.429 . S
C822 C805 1.574 . S
C822 H816 0.949 . S
C822 C826 1.368 . S
C823 C804 1.429 . S
C823 C817 1.429 . S
C823 C824 1.523 . S
C824 C805 1.368 . S
C824 C818 1.368 . S
C824 C823 1.523 . S
C825 C809 1.429 . S
C825 C821 1.429 . S
C825 C826 1.523 . S
C826 C810 1.368 . S
C826 C822 1.368 . S
C826 C825 1.523 . S
H827 C802 0.950 . S
H828 C804 0.950 . S
H829 C805 0.949 . S
H830 C807 0.950 . S
H831 C809 0.950 . S
C832 C833 1.349 . S
C832 C834 1.327 . S
C832 H857 0.950 . S
C833 C832 1.349 . S
C833 C849 1.349 . S
C834 C832 1.327 . S
C834 C853 1.429 . S
C834 H858 0.950 . S
C835 C852 1.574 . S
C835 C854 1.368 . S
C835 H859 0.949 . S
H836 C840 0.949 . S
C837 C838 1.349 . S
C837 C839 1.327 . S
C837 H860 0.950 . S
C838 C837 1.349 . S
C838 C850 1.349 . S
C839 C837 1.327 . S
C839 C855 1.429 . S
C839 H861 0.950 . S
C840 H836 0.949 . S
C840 C848 1.574 . S
C840 C856 1.368 . S
H841 C849 0.950 1_545 S
H842 C847 0.950 . S
H843 C848 0.949 . S
H844 C850 0.950 . S
H845 C851 0.950 . S
H846 C852 0.949 . S
C847 H842 0.950 . S
C847 C849 1.327 . S
C847 C853 1.429 . S
C848 C840 1.574 . S
C848 H843 0.949 . S
C848 C854 1.368 . S
C849 C833 1.349 . S
C849 H841 0.950 1_565 S
C849 C847 1.327 . S
C850 C838 1.349 . S
C850 H844 0.950 . S
C850 C851 1.327 . S
C851 H845 0.950 . S
C851 C850 1.327 . S
C851 C855 1.429 . S
C852 C835 1.574 . S
C852 H846 0.949 . S
C852 C856 1.368 . S
C853 C834 1.429 . S
C853 C847 1.429 . S
C853 C854 1.523 . S
C854 C835 1.368 . S
C854 C848 1.368 . S
C854 C853 1.523 . S
C855 C839 1.429 . S
C855 C851 1.429 . S
C855 C856 1.523 . S
C856 C840 1.368 . S
C856 C852 1.368 . S
C856 C855 1.523 . S
H857 C832 0.950 . S
H858 C834 0.950 . S
H859 C835 0.949 . S
H860 C837 0.950 . S
H861 C839 0.950 . S
C862 C863 1.349 . S
C862 C864 1.327 . S
C862 H887 0.950 . S
C863 C862 1.349 . S
C863 C879 1.349 . S
C864 C862 1.327 . S
C864 C883 1.429 . S
C864 H888 0.950 . S
C865 C882 1.574 . S
C865 C884 1.368 . S
C865 H889 0.949 . S
H866 C870 0.949 . S
C867 C868 1.349 . S
C867 C869 1.327 . S
C867 H890 0.950 . S
C868 C867 1.349 . S
C868 C880 1.349 . S
C869 C867 1.327 . S
C869 C885 1.429 . S
C869 H891 0.950 . S
C870 H866 0.949 . S
C870 C878 1.574 . S
C870 C886 1.368 . S
H871 C879 0.950 . S
H872 C877 0.950 . S
H873 C878 0.949 . S
H874 C880 0.950 . S
H875 C881 0.950 . S
H876 C882 0.949 . S
C877 H872 0.950 . S
C877 C879 1.327 . S
C877 C883 1.429 . S
C878 C870 1.574 . S
C878 H873 0.949 . S
C878 C884 1.368 . S
C879 C863 1.349 . S
C879 H871 0.950 . S
C879 C877 1.327 . S
C880 C868 1.349 . S
C880 H874 0.950 . S
C880 C881 1.327 . S
C881 H875 0.950 . S
C881 C880 1.327 . S
C881 C885 1.429 . S
C882 C865 1.574 . S
C882 H876 0.949 . S
C882 C886 1.368 . S
C883 C864 1.429 . S
C883 C877 1.429 . S
C883 C884 1.523 . S
C884 C865 1.368 . S
C884 C878 1.368 . S
C884 C883 1.523 . S
C885 C869 1.429 . S
C885 C881 1.429 . S
C885 C886 1.523 . S
C886 C870 1.368 . S
C886 C882 1.368 . S
C886 C885 1.523 . S
H887 C862 0.950 . S
H888 C864 0.950 . S
H889 C865 0.949 . S
H890 C867 0.950 . S
H891 C869 0.950 . S
C892 C893 1.349 . S
C892 C894 1.327 . S
C892 H917 0.950 . S
C893 C892 1.349 . S
C893 C909 1.349 . S
C894 C892 1.327 . S
C894 C913 1.429 . S
C894 H918 0.950 . S
C895 C912 1.574 . S
C895 C914 1.368 . S
C895 H919 0.949 . S
H896 C900 0.949 . S
C897 C898 1.349 . S
C897 C899 1.327 . S
C897 H920 0.950 . S
C898 C897 1.349 . S
C898 C910 1.349 . S
C899 C897 1.327 . S
C899 C915 1.429 . S
C899 H921 0.950 . S
C900 H896 0.949 . S
C900 C908 1.574 . S
C900 C916 1.368 . S
H901 C909 0.949 1_455 S
H902 C907 0.950 . S
H903 C908 0.949 . S
H904 C910 0.950 . S
H905 C911 0.950 . S
H906 C912 0.949 . S
C907 H902 0.950 . S
C907 C909 1.327 . S
C907 C913 1.429 . S
C908 C900 1.574 . S
C908 H903 0.949 . S
C908 C914 1.368 . S
C909 C893 1.349 . S
C909 H901 0.949 1_655 S
C909 C907 1.327 . S
C910 C898 1.349 . S
C910 H904 0.950 . S
C910 C911 1.327 . S
C911 H905 0.950 . S
C911 C910 1.327 . S
C911 C915 1.429 . S
C912 C895 1.574 . S
C912 H906 0.949 . S
C912 C916 1.368 . S
C913 C894 1.429 . S
C913 C907 1.429 . S
C913 C914 1.523 . S
C914 C895 1.368 . S
C914 C908 1.368 . S
C914 C913 1.523 . S
C915 C899 1.429 . S
C915 C911 1.429 . S
C915 C916 1.523 . S
C916 C900 1.368 . S
C916 C912 1.368 . S
C916 C915 1.523 . S
H917 C892 0.950 . S
H918 C894 0.950 . S
H919 C895 0.949 . S
H920 C897 0.950 . S
H921 C899 0.950 . S
C922 C923 1.349 . S
C922 C924 1.327 . S
C922 H947 0.950 . S
C923 C922 1.349 . S
C923 C939 1.349 . S
C924 C922 1.327 . S
C924 C943 1.429 . S
C924 H948 0.950 . S
C925 C942 1.574 . S
C925 C944 1.368 . S
C925 H949 0.949 . S
H926 C930 0.949 . S
C927 C928 1.349 . S
C927 C929 1.327 . S
C927 H950 0.950 1_655 S
C928 C927 1.349 . S
C928 C940 1.349 . S
C929 C927 1.327 . S
C929 C945 1.429 . S
C929 H951 0.950 . S
C930 H926 0.949 . S
C930 C938 1.574 . S
C930 C946 1.368 . S
H931 C939 0.950 . S
H932 C937 0.950 . S
H933 C938 0.949 . S
H934 C940 0.950 . S
H935 C941 0.950 . S
H936 C942 0.949 . S
C937 H932 0.950 . S
C937 C939 1.327 . S
C937 C943 1.429 . S
C938 C930 1.574 . S
C938 H933 0.949 . S
C938 C944 1.368 . S
C939 C923 1.349 . S
C939 H931 0.950 . S
C939 C937 1.327 . S
C940 C928 1.349 . S
C940 H934 0.950 . S
C940 C941 1.327 . S
C941 H935 0.950 . S
C941 C940 1.327 . S
C941 C945 1.429 . S
C942 C925 1.574 . S
C942 H936 0.949 . S
C942 C946 1.368 . S
C943 C924 1.429 . S
C943 C937 1.429 . S
C943 C944 1.523 . S
C944 C925 1.368 . S
C944 C938 1.368 . S
C944 C943 1.523 . S
C945 C929 1.429 . S
C945 C941 1.429 . S
C945 C946 1.523 . S
C946 C930 1.368 . S
C946 C942 1.368 . S
C946 C945 1.523 . S
H947 C922 0.950 . S
H948 C924 0.950 . S
H949 C925 0.949 . S
H950 C927 0.950 1_455 S
H951 C929 0.950 . S
C952 C953 1.349 . S
C952 C954 1.327 . S
C952 H977 0.950 1_455 S
C953 C952 1.349 . S
C953 C969 1.349 . S
C954 C952 1.327 . S
C954 C973 1.429 . S
C954 H978 0.950 . S
C955 C972 1.574 . S
C955 C974 1.368 . S
C955 H979 0.949 . S
H956 C960 0.949 . S
C957 C958 1.349 . S
C957 C959 1.327 . S
C957 H980 0.950 . S
C958 C957 1.349 . S
C958 C970 1.349 . S
C959 C957 1.327 . S
C959 C975 1.429 . S
C959 H981 0.950 . S
C960 H956 0.949 . S
C960 C968 1.574 . S
C960 C976 1.368 . S
H961 C969 0.950 . S
H962 C967 0.950 . S
H963 C968 0.949 . S
H964 C970 0.950 1_565 S
H965 C971 0.950 . S
H966 C972 0.949 . S
C967 H962 0.950 . S
C967 C969 1.327 . S
C967 C973 1.429 . S
C968 C960 1.574 . S
C968 H963 0.949 . S
C968 C974 1.368 . S
C969 C953 1.349 . S
C969 H961 0.950 . S
C969 C967 1.327 . S
C970 C958 1.349 . S
C970 H964 0.950 1_545 S
C970 C971 1.327 . S
C971 H965 0.950 . S
C971 C970 1.327 . S
C971 C975 1.429 . S
C972 C955 1.574 . S
C972 H966 0.949 . S
C972 C976 1.368 . S
C973 C954 1.429 . S
C973 C967 1.429 . S
C973 C974 1.523 . S
C974 C955 1.368 . S
C974 C968 1.368 . S
C974 C973 1.523 . S
C975 C959 1.429 . S
C975 C971 1.429 . S
C975 C976 1.523 . S
C976 C960 1.368 . S
C976 C972 1.368 . S
C976 C975 1.523 . S
H977 C952 0.950 1_655 S
H978 C954 0.950 . S
H979 C955 0.949 . S
H980 C957 0.950 . S
H981 C959 0.950 . S
C982 C983 1.349 . S
C982 C984 1.327 . S
C982 H1007 0.950 . S
C983 C982 1.349 . S
C983 C999 1.349 . S
C984 C982 1.327 . S
C984 C1003 1.429 . S
C984 H1008 0.950 . S
C985 C1002 1.574 . S
C985 C1004 1.368 . S
C985 H1009 0.949 . S
H986 C990 0.949 . S
C987 C988 1.349 . S
C987 C989 1.327 . S
C987 H1010 0.950 . S
C988 C987 1.349 . S
C988 C1000 1.349 . S
C989 C987 1.327 . S
C989 C1005 1.429 . S
C989 H1011 0.950 . S
C990 H986 0.949 . S
C990 C998 1.574 . S
C990 C1006 1.368 . S
H991 C999 0.950 1_565 S
H992 C997 0.950 . S
H993 C998 0.949 . S
H994 C1000 0.950 . S
H995 C1001 0.950 . S
H996 C1002 0.949 . S
C997 H992 0.950 . S
C997 C999 1.327 . S
C997 C1003 1.429 . S
C998 C990 1.574 . S
C998 H993 0.949 . S
C998 C1004 1.368 . S
C999 C983 1.349 . S
C999 H991 0.950 1_545 S
C999 C997 1.327 . S
C1000 C988 1.349 . S
C1000 H994 0.950 . S
C1000 C1001 1.327 . S
C1001 H995 0.950 . S
C1001 C1000 1.327 . S
C1001 C1005 1.429 . S
C1002 C985 1.574 . S
C1002 H996 0.949 . S
C1002 C1006 1.368 . S
C1003 C984 1.429 . S
C1003 C997 1.429 . S
C1003 C1004 1.523 . S
C1004 C985 1.368 . S
C1004 C998 1.368 . S
C1004 C1003 1.523 . S
C1005 C989 1.429 . S
C1005 C1001 1.429 . S
C1005 C1006 1.523 . S
C1006 C990 1.368 . S
C1006 C1002 1.368 . S
C1006 C1005 1.523 . S
H1007 C982 0.950 . S
H1008 C984 0.950 . S
H1009 C985 0.949 . S
H1010 C987 0.950 . S
H1011 C989 0.950 . S
C1012 C1013 1.349 . S
C1012 C1014 1.327 . S
C1012 H1037 0.950 . S
C1013 C1012 1.349 . S
C1013 C1029 1.349 . S
C1014 C1012 1.327 . S
C1014 C1033 1.429 . S
C1014 H1038 0.950 . S
C1015 C1032 1.574 . S
C1015 C1034 1.368 . S
C1015 H1039 0.949 . S
H1016 C1020 0.949 . S
C1017 C1018 1.349 . S
C1017 C1019 1.327 . S
C1017 H1040 0.950 . S
C1018 C1017 1.349 . S
C1018 C1030 1.349 . S
C1019 C1017 1.327 . S
C1019 C1035 1.429 . S
C1019 H1041 0.950 . S
C1020 H1016 0.949 . S
C1020 C1028 1.574 . S
C1020 C1036 1.368 . S
H1021 C1029 0.950 . S
H1022 C1027 0.950 . S
H1023 C1028 0.949 . S
H1024 C1030 0.950 . S
H1025 C1031 0.950 . S
H1026 C1032 0.949 . S
C1027 H1022 0.950 . S
C1027 C1029 1.327 . S
C1027 C1033 1.429 . S
C1028 C1020 1.574 . S
C1028 H1023 0.949 . S
C1028 C1034 1.368 . S
C1029 C1013 1.349 . S
C1029 H1021 0.950 . S
C1029 C1027 1.327 . S
C1030 C1018 1.349 . S
C1030 H1024 0.950 . S
C1030 C1031 1.327 . S
C1031 H1025 0.950 . S
C1031 C1030 1.327 . S
C1031 C1035 1.429 . S
C1032 C1015 1.574 . S
C1032 H1026 0.949 . S
C1032 C1036 1.368 . S
C1033 C1014 1.429 . S
C1033 C1027 1.429 . S
C1033 C1034 1.523 . S
C1034 C1015 1.368 . S
C1034 C1028 1.368 . S
C1034 C1033 1.523 . S
C1035 C1019 1.429 . S
C1035 C1031 1.429 . S
C1035 C1036 1.523 . S
C1036 C1020 1.368 . S
C1036 C1032 1.368 . S
C1036 C1035 1.523 . S
H1037 C1012 0.950 . S
H1038 C1014 0.950 . S
H1039 C1015 0.949 . S
H1040 C1017 0.950 . S
H1041 C1019 0.950 . S
C1042 C1043 1.349 . S
C1042 C1044 1.327 . S
C1042 H1067 0.950 . S
C1043 C1042 1.349 . S
C1043 C1059 1.349 . S
C1044 C1042 1.327 . S
C1044 C1063 1.429 . S
C1044 H1068 0.950 . S
C1045 C1062 1.574 . S
C1045 C1064 1.368 . S
C1045 H1069 0.949 . S
H1046 C1050 0.949 . S
C1047 C1048 1.349 . S
C1047 C1049 1.327 . S
C1047 H1070 0.950 . S
C1048 C1047 1.349 . S
C1048 C1060 1.349 . S
C1049 C1047 1.327 . S
C1049 C1065 1.429 . S
C1049 H1071 0.950 . S
C1050 H1046 0.949 . S
C1050 C1058 1.574 . S
C1050 C1066 1.368 . S
H1051 C1059 0.950 . S
H1052 C1057 0.950 . S
H1053 C1058 0.949 . S
H1054 C1060 0.950 1_655 S
H1055 C1061 0.950 . S
H1056 C1062 0.949 . S
C1057 H1052 0.950 . S
C1057 C1059 1.327 . S
C1057 C1063 1.429 . S
C1058 C1050 1.574 . S
C1058 H1053 0.949 . S
C1058 C1064 1.368 . S
C1059 C1043 1.349 . S
C1059 H1051 0.950 . S
C1059 C1057 1.327 . S
C1060 C1048 1.349 . S
C1060 H1054 0.950 1_455 S
C1060 C1061 1.327 . S
C1061 H1055 0.950 . S
C1061 C1060 1.327 . S
C1061 C1065 1.429 . S
C1062 C1045 1.574 . S
C1062 H1056 0.949 . S
C1062 C1066 1.368 . S
C1063 C1044 1.429 . S
C1063 C1057 1.429 . S
C1063 C1064 1.523 . S
C1064 C1045 1.368 . S
C1064 C1058 1.368 . S
C1064 C1063 1.523 . S
C1065 C1049 1.429 . S
C1065 C1061 1.429 . S
C1065 C1066 1.523 . S
C1066 C1050 1.368 . S
C1066 C1062 1.368 . S
C1066 C1065 1.523 . S
H1067 C1042 0.950 . S
H1068 C1044 0.950 . S
H1069 C1045 0.949 . S
H1070 C1047 0.950 . S
H1071 C1049 0.950 . S
C1072 C1073 1.349 . S
C1072 C1074 1.327 . S
C1072 H1097 0.950 . S
C1073 C1072 1.349 . S
C1073 C1089 1.349 . S
C1074 C1072 1.327 . S
C1074 C1093 1.429 . S
C1074 H1098 0.950 . S
C1075 C1092 1.574 . S
C1075 C1094 1.368 . S
C1075 H1099 0.949 . S
H1076 C1080 0.949 . S
C1077 C1078 1.349 . S
C1077 C1079 1.327 . S
C1077 H1100 0.950 . S
C1078 C1077 1.349 . S
C1078 C1090 1.349 . S
C1079 C1077 1.327 . S
C1079 C1095 1.429 . S
C1079 H1101 0.950 . S
C1080 H1076 0.949 . S
C1080 C1088 1.574 . S
C1080 C1096 1.368 . S
H1081 C1089 0.950 . S
H1082 C1087 0.950 . S
H1083 C1088 0.949 . S
H1084 C1090 0.950 . S
H1085 C1091 0.950 . S
H1086 C1092 0.949 . S
C1087 H1082 0.950 . S
C1087 C1089 1.327 . S
C1087 C1093 1.429 . S
C1088 C1080 1.574 . S
C1088 H1083 0.949 . S
C1088 C1094 1.368 . S
C1089 C1073 1.349 . S
C1089 H1081 0.950 . S
C1089 C1087 1.327 . S
C1090 C1078 1.349 . S
C1090 H1084 0.950 . S
C1090 C1091 1.327 . S
C1091 H1085 0.950 . S
C1091 C1090 1.327 . S
C1091 C1095 1.429 . S
C1092 C1075 1.574 . S
C1092 H1086 0.949 . S
C1092 C1096 1.368 . S
C1093 C1074 1.429 . S
C1093 C1087 1.429 . S
C1093 C1094 1.523 . S
C1094 C1075 1.368 . S
C1094 C1088 1.368 . S
C1094 C1093 1.523 . S
C1095 C1079 1.429 . S
C1095 C1091 1.429 . S
C1095 C1096 1.523 . S
C1096 C1080 1.368 . S
C1096 C1092 1.368 . S
C1096 C1095 1.523 . S
H1097 C1072 0.950 . S
H1098 C1074 0.950 . S
H1099 C1075 0.949 . S
H1100 C1077 0.950 . S
H1101 C1079 0.950 . S
C1102 C1103 1.349 . S
C1102 C1104 1.327 . S
C1102 H1127 0.950 . S
C1103 C1102 1.349 . S
C1103 C1119 1.349 . S
C1104 C1102 1.327 . S
C1104 C1123 1.429 . S
C1104 H1128 0.950 . S
C1105 C1122 1.574 . S
C1105 C1124 1.368 . S
C1105 H1129 0.949 . S
H1106 C1110 0.949 . S
C1107 C1108 1.349 . S
C1107 C1109 1.327 . S
C1107 H1130 0.950 . S
C1108 C1107 1.349 . S
C1108 C1120 1.349 . S
C1109 C1107 1.327 . S
C1109 C1125 1.429 . S
C1109 H1131 0.950 . S
C1110 H1106 0.949 . S
C1110 C1118 1.574 . S
C1110 C1126 1.368 . S
H1111 C1119 0.950 . S
H1112 C1117 0.950 . S
H1113 C1118 0.949 . S
H1114 C1120 0.950 . S
H1115 C1121 0.950 . S
H1116 C1122 0.949 . S
C1117 H1112 0.950 . S
C1117 C1119 1.327 . S
C1117 C1123 1.429 . S
C1118 C1110 1.574 . S
C1118 H1113 0.949 . S
C1118 C1124 1.368 . S
C1119 C1103 1.349 . S
C1119 H1111 0.950 . S
C1119 C1117 1.327 . S
C1120 C1108 1.349 . S
C1120 H1114 0.950 . S
C1120 C1121 1.327 . S
C1121 H1115 0.950 . S
C1121 C1120 1.327 . S
C1121 C1125 1.429 . S
C1122 C1105 1.574 . S
C1122 H1116 0.949 . S
C1122 C1126 1.368 . S
C1123 C1104 1.429 . S
C1123 C1117 1.429 . S
C1123 C1124 1.523 . S
C1124 C1105 1.368 . S
C1124 C1118 1.368 . S
C1124 C1123 1.523 . S
C1125 C1109 1.429 . S
C1125 C1121 1.429 . S
C1125 C1126 1.523 . S
C1126 C1110 1.368 . S
C1126 C1122 1.368 . S
C1126 C1125 1.523 . S
H1127 C1102 0.950 . S
H1128 C1104 0.950 . S
H1129 C1105 0.949 . S
H1130 C1107 0.950 . S
H1131 C1109 0.950 . S
C1132 C1133 1.349 . S
C1132 C1134 1.327 . S
C1132 H1157 0.950 . S
C1133 C1132 1.349 . S
C1133 C1149 1.349 . S
C1134 C1132 1.327 . S
C1134 C1153 1.429 . S
C1134 H1158 0.950 . S
C1135 C1152 1.574 . S
C1135 C1154 1.368 . S
C1135 H1159 0.949 . S
H1136 C1140 0.949 . S
C1137 C1138 1.349 . S
C1137 C1139 1.327 . S
C1137 H1160 0.950 . S
C1138 C1137 1.349 . S
C1138 C1150 1.349 . S
C1139 C1137 1.327 . S
C1139 C1155 1.429 . S
C1139 H1161 0.950 . S
C1140 H1136 0.949 . S
C1140 C1148 1.574 . S
C1140 C1156 1.368 . S
H1141 C1149 0.950 . S
H1142 C1147 0.950 . S
H1143 C1148 0.949 . S
H1144 C1150 0.950 . S
H1145 C1151 0.950 . S
H1146 C1152 0.949 . S
C1147 H1142 0.950 . S
C1147 C1149 1.327 . S
C1147 C1153 1.429 . S
C1148 C1140 1.574 . S
C1148 H1143 0.949 . S
C1148 C1154 1.368 . S
C1149 C1133 1.349 . S
C1149 H1141 0.950 . S
C1149 C1147 1.327 . S
C1150 C1138 1.349 . S
C1150 H1144 0.950 . S
C1150 C1151 1.327 . S
C1151 H1145 0.950 . S
C1151 C1150 1.327 . S
C1151 C1155 1.429 . S
C1152 C1135 1.574 . S
C1152 H1146 0.949 . S
C1152 C1156 1.368 . S
C1153 C1134 1.429 . S
C1153 C1147 1.429 . S
C1153 C1154 1.523 . S
C1154 C1135 1.368 . S
C1154 C1148 1.368 . S
C1154 C1153 1.523 . S
C1155 C1139 1.429 . S
C1155 C1151 1.429 . S
C1155 C1156 1.523 . S
C1156 C1140 1.368 . S
C1156 C1152 1.368 . S
C1156 C1155 1.523 . S
H1157 C1132 0.950 . S
H1158 C1134 0.950 . S
H1159 C1135 0.949 . S
H1160 C1137 0.950 . S
H1161 C1139 0.950 . S
C1162 C1163 1.349 . S
C1162 C1164 1.327 . S
C1162 H1187 0.950 . S
C1163 C1162 1.349 . S
C1163 C1179 1.349 . S
C1164 C1162 1.327 . S
C1164 C1183 1.429 . S
C1164 H1188 0.950 . S
C1165 C1182 1.574 . S
C1165 C1184 1.368 . S
C1165 H1189 0.949 . S
H1166 C1170 0.949 . S
C1167 C1168 1.349 . S
C1167 C1169 1.327 . S
C1167 H1190 0.950 . S
C1168 C1167 1.349 . S
C1168 C1180 1.349 . S
C1169 C1167 1.327 . S
C1169 C1185 1.429 . S
C1169 H1191 0.950 . S
C1170 H1166 0.949 . S
C1170 C1178 1.574 . S
C1170 C1186 1.368 . S
H1171 C1179 0.950 . S
H1172 C1177 0.950 . S
H1173 C1178 0.949 . S
H1174 C1180 0.950 . S
H1175 C1181 0.950 . S
H1176 C1182 0.949 . S
C1177 H1172 0.950 . S
C1177 C1179 1.327 . S
C1177 C1183 1.429 . S
C1178 C1170 1.574 . S
C1178 H1173 0.949 . S
C1178 C1184 1.368 . S
C1179 C1163 1.349 . S
C1179 H1171 0.950 . S
C1179 C1177 1.327 . S
C1180 C1168 1.349 . S
C1180 H1174 0.950 . S
C1180 C1181 1.327 . S
C1181 H1175 0.950 . S
C1181 C1180 1.327 . S
C1181 C1185 1.429 . S
C1182 C1165 1.574 . S
C1182 H1176 0.949 . S
C1182 C1186 1.368 . S
C1183 C1164 1.429 . S
C1183 C1177 1.429 . S
C1183 C1184 1.523 . S
C1184 C1165 1.368 . S
C1184 C1178 1.368 . S
C1184 C1183 1.523 . S
C1185 C1169 1.429 . S
C1185 C1181 1.429 . S
C1185 C1186 1.523 . S
C1186 C1170 1.368 . S
C1186 C1182 1.368 . S
C1186 C1185 1.523 . S
H1187 C1162 0.950 . S
H1188 C1164 0.950 . S
H1189 C1165 0.949 . S
H1190 C1167 0.950 . S
H1191 C1169 0.950 . S
C1192 C1193 1.349 . S
C1192 C1194 1.327 . S
C1192 H1217 0.950 . S
C1193 C1192 1.349 . S
C1193 C1209 1.349 . S
C1194 C1192 1.327 . S
C1194 C1213 1.429 . S
C1194 H1218 0.950 . S
C1195 C1212 1.574 . S
C1195 C1214 1.368 . S
C1195 H1219 0.949 . S
H1196 C1200 0.949 . S
C1197 C1198 1.349 . S
C1197 C1199 1.327 . S
C1197 H1220 0.950 . S
C1198 C1197 1.349 . S
C1198 C1210 1.349 . S
C1199 C1197 1.327 . S
C1199 C1215 1.429 . S
C1199 H1221 0.950 . S
C1200 H1196 0.949 . S
C1200 C1208 1.574 . S
C1200 C1216 1.368 . S
H1201 C1209 0.950 . S
H1202 C1207 0.950 . S
H1203 C1208 0.949 . S
H1204 C1210 0.950 . S
H1205 C1211 0.950 . S
H1206 C1212 0.949 . S
C1207 H1202 0.950 . S
C1207 C1209 1.327 . S
C1207 C1213 1.429 . S
C1208 C1200 1.574 . S
C1208 H1203 0.949 . S
C1208 C1214 1.368 . S
C1209 C1193 1.349 . S
C1209 H1201 0.950 . S
C1209 C1207 1.327 . S
C1210 C1198 1.349 . S
C1210 H1204 0.950 . S
C1210 C1211 1.327 . S
C1211 H1205 0.950 . S
C1211 C1210 1.327 . S
C1211 C1215 1.429 . S
C1212 C1195 1.574 . S
C1212 H1206 0.949 . S
C1212 C1216 1.368 . S
C1213 C1194 1.429 . S
C1213 C1207 1.429 . S
C1213 C1214 1.523 . S
C1214 C1195 1.368 . S
C1214 C1208 1.368 . S
C1214 C1213 1.523 . S
C1215 C1199 1.429 . S
C1215 C1211 1.429 . S
C1215 C1216 1.523 . S
C1216 C1200 1.368 . S
C1216 C1212 1.368 . S
C1216 C1215 1.523 . S
H1217 C1192 0.950 . S
H1218 C1194 0.950 . S
H1219 C1195 0.949 . S
H1220 C1197 0.950 . S
H1221 C1199 0.950 . S
C1222 C1223 1.349 . S
C1222 C1224 1.327 . S
C1222 H1247 0.950 . S
C1223 C1222 1.349 . S
C1223 C1239 1.349 . S
C1224 C1222 1.327 . S
C1224 C1243 1.429 . S
C1224 H1248 0.950 . S
C1225 C1242 1.574 . S
C1225 C1244 1.368 . S
C1225 H1249 0.949 . S
H1226 C1230 0.949 . S
C1227 C1228 1.349 . S
C1227 C1229 1.327 . S
C1227 H1250 0.950 . S
C1228 C1227 1.349 . S
C1228 C1240 1.349 . S
C1229 C1227 1.327 . S
C1229 C1245 1.429 . S
C1229 H1251 0.950 . S
C1230 H1226 0.949 . S
C1230 C1238 1.574 . S
C1230 C1246 1.368 . S
H1231 C1239 0.950 . S
H1232 C1237 0.950 . S
H1233 C1238 0.949 . S
H1234 C1240 0.950 . S
H1235 C1241 0.950 . S
H1236 C1242 0.949 . S
C1237 H1232 0.950 . S
C1237 C1239 1.327 . S
C1237 C1243 1.429 . S
C1238 C1230 1.574 . S
C1238 H1233 0.949 . S
C1238 C1244 1.368 . S
C1239 C1223 1.349 . S
C1239 H1231 0.950 . S
C1239 C1237 1.327 . S
C1240 C1228 1.349 . S
C1240 H1234 0.950 . S
C1240 C1241 1.327 . S
C1241 H1235 0.950 . S
C1241 C1240 1.327 . S
C1241 C1245 1.429 . S
C1242 C1225 1.574 . S
C1242 H1236 0.949 . S
C1242 C1246 1.368 . S
C1243 C1224 1.429 . S
C1243 C1237 1.429 . S
C1243 C1244 1.523 . S
C1244 C1225 1.368 . S
C1244 C1238 1.368 . S
C1244 C1243 1.523 . S
C1245 C1229 1.429 . S
C1245 C1241 1.429 . S
C1245 C1246 1.523 . S
C1246 C1230 1.368 . S
C1246 C1242 1.368 . S
C1246 C1245 1.523 . S
H1247 C1222 0.950 . S
H1248 C1224 0.950 . S
H1249 C1225 0.949 . S
H1250 C1227 0.950 . S
H1251 C1229 0.950 . S
C1252 C1253 1.349 . S
C1252 C1254 1.327 . S
C1252 H1277 0.950 . S
C1253 C1252 1.349 . S
C1253 C1269 1.349 . S
C1254 C1252 1.327 . S
C1254 C1273 1.429 . S
C1254 H1278 0.950 . S
C1255 C1272 1.574 . S
C1255 C1274 1.368 . S
C1255 H1279 0.949 . S
H1256 C1260 0.949 . S
C1257 C1258 1.349 . S
C1257 C1259 1.327 . S
C1257 H1280 0.950 . S
C1258 C1257 1.349 . S
C1258 C1270 1.349 . S
C1259 C1257 1.327 . S
C1259 C1275 1.429 . S
C1259 H1281 0.950 . S
C1260 H1256 0.949 . S
C1260 C1268 1.574 . S
C1260 C1276 1.368 . S
H1261 C1269 0.950 . S
H1262 C1267 0.950 . S
H1263 C1268 0.949 . S
H1264 C1270 0.950 . S
H1265 C1271 0.950 . S
H1266 C1272 0.949 . S
C1267 H1262 0.950 . S
C1267 C1269 1.327 . S
C1267 C1273 1.429 . S
C1268 C1260 1.574 . S
C1268 H1263 0.949 . S
C1268 C1274 1.368 . S
C1269 C1253 1.349 . S
C1269 H1261 0.950 . S
C1269 C1267 1.327 . S
C1270 C1258 1.349 . S
C1270 H1264 0.950 . S
C1270 C1271 1.327 . S
C1271 H1265 0.950 . S
C1271 C1270 1.327 . S
C1271 C1275 1.429 . S
C1272 C1255 1.574 . S
C1272 H1266 0.949 . S
C1272 C1276 1.368 . S
C1273 C1254 1.429 . S
C1273 C1267 1.429 . S
C1273 C1274 1.523 . S
C1274 C1255 1.368 . S
C1274 C1268 1.368 . S
C1274 C1273 1.523 . S
C1275 C1259 1.429 . S
C1275 C1271 1.429 . S
C1275 C1276 1.523 . S
C1276 C1260 1.368 . S
C1276 C1272 1.368 . S
C1276 C1275 1.523 . S
H1277 C1252 0.950 . S
H1278 C1254 0.950 . S
H1279 C1255 0.949 . S
H1280 C1257 0.950 . S
H1281 C1259 0.950 . S
C1282 C1283 1.349 . S
C1282 C1284 1.327 . S
C1282 H1307 0.950 . S
C1283 C1282 1.349 . S
C1283 C1299 1.349 . S
C1284 C1282 1.327 . S
C1284 C1303 1.429 . S
C1284 H1308 0.950 . S
C1285 C1302 1.574 . S
C1285 C1304 1.368 . S
C1285 H1309 0.949 . S
H1286 C1290 0.949 . S
C1287 C1288 1.349 . S
C1287 C1289 1.327 . S
C1287 H1310 0.950 . S
C1288 C1287 1.349 . S
C1288 C1300 1.349 . S
C1289 C1287 1.327 . S
C1289 C1305 1.429 . S
C1289 H1311 0.950 . S
C1290 H1286 0.949 . S
C1290 C1298 1.574 . S
C1290 C1306 1.368 . S
H1291 C1299 0.950 . S
H1292 C1297 0.950 . S
H1293 C1298 0.949 . S
H1294 C1300 0.950 . S
H1295 C1301 0.950 . S
H1296 C1302 0.949 . S
C1297 H1292 0.950 . S
C1297 C1299 1.327 . S
C1297 C1303 1.429 . S
C1298 C1290 1.574 . S
C1298 H1293 0.949 . S
C1298 C1304 1.368 . S
C1299 C1283 1.349 . S
C1299 H1291 0.950 . S
C1299 C1297 1.327 . S
C1300 C1288 1.349 . S
C1300 H1294 0.950 . S
C1300 C1301 1.327 . S
C1301 H1295 0.950 . S
C1301 C1300 1.327 . S
C1301 C1305 1.429 . S
C1302 C1285 1.574 . S
C1302 H1296 0.949 . S
C1302 C1306 1.368 . S
C1303 C1284 1.429 . S
C1303 C1297 1.429 . S
C1303 C1304 1.523 . S
C1304 C1285 1.368 . S
C1304 C1298 1.368 . S
C1304 C1303 1.523 . S
C1305 C1289 1.429 . S
C1305 C1301 1.429 . S
C1305 C1306 1.523 . S
C1306 C1290 1.368 . S
C1306 C1302 1.368 . S
C1306 C1305 1.523 . S
H1307 C1282 0.950 . S
H1308 C1284 0.950 . S
H1309 C1285 0.949 . S
H1310 C1287 0.950 . S
H1311 C1289 0.950 . S
C1312 C1313 1.349 . S
C1312 C1314 1.327 . S
C1312 H1337 0.950 . S
C1313 C1312 1.349 . S
C1313 C1329 1.349 . S
C1314 C1312 1.327 . S
C1314 C1333 1.429 . S
C1314 H1338 0.950 . S
C1315 C1332 1.574 . S
C1315 C1334 1.368 . S
C1315 H1339 0.949 . S
H1316 C1320 0.949 . S
C1317 C1318 1.349 . S
C1317 C1319 1.327 . S
C1317 H1340 0.950 . S
C1318 C1317 1.349 . S
C1318 C1330 1.349 . S
C1319 C1317 1.327 . S
C1319 C1335 1.429 . S
C1319 H1341 0.950 . S
C1320 H1316 0.949 . S
C1320 C1328 1.574 . S
C1320 C1336 1.368 . S
H1321 C1329 0.950 . S
H1322 C1327 0.950 . S
H1323 C1328 0.949 . S
H1324 C1330 0.950 . S
H1325 C1331 0.950 . S
H1326 C1332 0.949 . S
C1327 H1322 0.950 . S
C1327 C1329 1.327 . S
C1327 C1333 1.429 . S
C1328 C1320 1.574 . S
C1328 H1323 0.949 . S
C1328 C1334 1.368 . S
C1329 C1313 1.349 . S
C1329 H1321 0.950 . S
C1329 C1327 1.327 . S
C1330 C1318 1.349 . S
C1330 H1324 0.950 . S
C1330 C1331 1.327 . S
C1331 H1325 0.950 . S
C1331 C1330 1.327 . S
C1331 C1335 1.429 . S
C1332 C1315 1.574 . S
C1332 H1326 0.949 . S
C1332 C1336 1.368 . S
C1333 C1314 1.429 . S
C1333 C1327 1.429 . S
C1333 C1334 1.523 . S
C1334 C1315 1.368 . S
C1334 C1328 1.368 . S
C1334 C1333 1.523 . S
C1335 C1319 1.429 . S
C1335 C1331 1.429 . S
C1335 C1336 1.523 . S
C1336 C1320 1.368 . S
C1336 C1332 1.368 . S
C1336 C1335 1.523 . S
H1337 C1312 0.950 . S
H1338 C1314 0.950 . S
H1339 C1315 0.949 . S
H1340 C1317 0.950 . S
H1341 C1319 0.950 . S
C1342 C1343 1.349 . S
C1342 C1344 1.327 . S
C1342 H1367 0.950 . S
C1343 C1342 1.349 . S
C1343 C1359 1.349 . S
C1344 C1342 1.327 . S
C1344 C1363 1.429 . S
C1344 H1368 0.950 . S
C1345 C1362 1.574 . S
C1345 C1364 1.368 . S
C1345 H1369 0.949 . S
H1346 C1350 0.949 . S
C1347 C1348 1.349 . S
C1347 C1349 1.327 . S
C1347 H1370 0.950 . S
C1348 C1347 1.349 . S
C1348 C1360 1.349 . S
C1349 C1347 1.327 . S
C1349 C1365 1.429 . S
C1349 H1371 0.950 . S
C1350 H1346 0.949 . S
C1350 C1358 1.574 . S
C1350 C1366 1.368 . S
H1351 C1359 0.950 . S
H1352 C1357 0.950 . S
H1353 C1358 0.949 . S
H1354 C1360 0.950 . S
H1355 C1361 0.950 . S
H1356 C1362 0.949 . S
C1357 H1352 0.950 . S
C1357 C1359 1.327 . S
C1357 C1363 1.429 . S
C1358 C1350 1.574 . S
C1358 H1353 0.949 . S
C1358 C1364 1.368 . S
C1359 C1343 1.349 . S
C1359 H1351 0.950 . S
C1359 C1357 1.327 . S
C1360 C1348 1.349 . S
C1360 H1354 0.950 . S
C1360 C1361 1.327 . S
C1361 H1355 0.950 . S
C1361 C1360 1.327 . S
C1361 C1365 1.429 . S
C1362 C1345 1.574 . S
C1362 H1356 0.949 . S
C1362 C1366 1.368 . S
C1363 C1344 1.429 . S
C1363 C1357 1.429 . S
C1363 C1364 1.523 . S
C1364 C1345 1.368 . S
C1364 C1358 1.368 . S
C1364 C1363 1.523 . S
C1365 C1349 1.429 . S
C1365 C1361 1.429 . S
C1365 C1366 1.523 . S
C1366 C1350 1.368 . S
C1366 C1362 1.368 . S
C1366 C1365 1.523 . S
H1367 C1342 0.950 . S
H1368 C1344 0.950 . S
H1369 C1345 0.949 . S
H1370 C1347 0.950 . S
H1371 C1349 0.950 . S
C1372 C1373 1.349 . S
C1372 C1374 1.327 . S
C1372 H1397 0.950 . S
C1373 C1372 1.349 . S
C1373 C1389 1.349 . S
C1374 C1372 1.327 . S
C1374 C1393 1.429 . S
C1374 H1398 0.950 . S
C1375 C1392 1.574 . S
C1375 C1394 1.368 . S
C1375 H1399 0.949 . S
H1376 C1380 0.949 . S
C1377 C1378 1.349 . S
C1377 C1379 1.327 . S
C1377 H1400 0.950 . S
C1378 C1377 1.349 . S
C1378 C1390 1.349 . S
C1379 C1377 1.327 . S
C1379 C1395 1.429 . S
C1379 H1401 0.950 . S
C1380 H1376 0.949 . S
C1380 C1388 1.574 . S
C1380 C1396 1.368 . S
H1381 C1389 0.950 . S
H1382 C1387 0.950 . S
H1383 C1388 0.949 . S
H1384 C1390 0.950 . S
H1385 C1391 0.950 . S
H1386 C1392 0.949 . S
C1387 H1382 0.950 . S
C1387 C1389 1.327 . S
C1387 C1393 1.429 . S
C1388 C1380 1.574 . S
C1388 H1383 0.949 . S
C1388 C1394 1.368 . S
C1389 C1373 1.349 . S
C1389 H1381 0.950 . S
C1389 C1387 1.327 . S
C1390 C1378 1.349 . S
C1390 H1384 0.950 . S
C1390 C1391 1.327 . S
C1391 H1385 0.950 . S
C1391 C1390 1.327 . S
C1391 C1395 1.429 . S
C1392 C1375 1.574 . S
C1392 H1386 0.949 . S
C1392 C1396 1.368 . S
C1393 C1374 1.429 . S
C1393 C1387 1.429 . S
C1393 C1394 1.523 . S
C1394 C1375 1.368 . S
C1394 C1388 1.368 . S
C1394 C1393 1.523 . S
C1395 C1379 1.429 . S
C1395 C1391 1.429 . S
C1395 C1396 1.523 . S
C1396 C1380 1.368 . S
C1396 C1392 1.368 . S
C1396 C1395 1.523 . S
H1397 C1372 0.950 . S
H1398 C1374 0.950 . S
H1399 C1375 0.949 . S
H1400 C1377 0.950 . S
H1401 C1379 0.950 . S
C1402 C1403 1.349 . S
C1402 C1404 1.327 . S
C1402 H1427 0.950 . S
C1403 C1402 1.349 . S
C1403 C1419 1.349 . S
C1404 C1402 1.327 . S
C1404 C1423 1.429 . S
C1404 H1428 0.950 . S
C1405 C1422 1.574 . S
C1405 C1424 1.368 . S
C1405 H1429 0.949 . S
H1406 C1410 0.949 . S
C1407 C1408 1.349 . S
C1407 C1409 1.327 . S
C1407 H1430 0.950 . S
C1408 C1407 1.349 . S
C1408 C1420 1.349 . S
C1409 C1407 1.327 . S
C1409 C1425 1.429 . S
C1409 H1431 0.950 . S
C1410 H1406 0.949 . S
C1410 C1418 1.574 . S
C1410 C1426 1.368 . S
H1411 C1419 0.950 . S
H1412 C1417 0.950 . S
H1413 C1418 0.949 . S
H1414 C1420 0.950 . S
H1415 C1421 0.950 . S
H1416 C1422 0.949 . S
C1417 H1412 0.950 . S
C1417 C1419 1.327 . S
C1417 C1423 1.429 . S
C1418 C1410 1.574 . S
C1418 H1413 0.949 . S
C1418 C1424 1.368 . S
C1419 C1403 1.349 . S
C1419 H1411 0.950 . S
C1419 C1417 1.327 . S
C1420 C1408 1.349 . S
C1420 H1414 0.950 . S
C1420 C1421 1.327 . S
C1421 H1415 0.950 . S
C1421 C1420 1.327 . S
C1421 C1425 1.429 . S
C1422 C1405 1.574 . S
C1422 H1416 0.949 . S
C1422 C1426 1.368 . S
C1423 C1404 1.429 . S
C1423 C1417 1.429 . S
C1423 C1424 1.523 . S
C1424 C1405 1.368 . S
C1424 C1418 1.368 . S
C1424 C1423 1.523 . S
C1425 C1409 1.429 . S
C1425 C1421 1.429 . S
C1425 C1426 1.523 . S
C1426 C1410 1.368 . S
C1426 C1422 1.368 . S
C1426 C1425 1.523 . S
H1427 C1402 0.950 . S
H1428 C1404 0.950 . S
H1429 C1405 0.949 . S
H1430 C1407 0.950 . S
H1431 C1409 0.950 . S
C1432 C1433 1.349 . S
C1432 C1434 1.327 . S
C1432 H1457 0.950 . S
C1433 C1432 1.349 . S
C1433 C1449 1.349 . S
C1434 C1432 1.327 . S
C1434 C1453 1.429 . S
C1434 H1458 0.950 . S
C1435 C1452 1.574 1_556 S
C1435 C1454 1.368 . S
C1435 H1459 0.949 . S
H1436 C1440 0.949 . S
C1437 C1438 1.349 . S
C1437 C1439 1.327 . S
C1437 H1460 0.950 . S
C1438 C1437 1.349 . S
C1438 C1450 1.349 . S
C1439 C1437 1.327 . S
C1439 C1455 1.429 . S
C1439 H1461 0.950 . S
C1440 H1436 0.949 . S
C1440 C1448 1.574 1_554 S
C1440 C1456 1.368 . S
H1441 C1449 0.950 . S
H1442 C1447 0.950 . S
H1443 C1448 0.949 . S
H1444 C1450 0.950 . S
H1445 C1451 0.950 . S
H1446 C1452 0.949 . S
C1447 H1442 0.950 . S
C1447 C1449 1.327 . S
C1447 C1453 1.429 . S
C1448 C1440 1.574 1_556 S
C1448 H1443 0.949 . S
C1448 C1454 1.368 . S
C1449 C1433 1.349 . S
C1449 H1441 0.950 . S
C1449 C1447 1.327 . S
C1450 C1438 1.349 . S
C1450 H1444 0.950 . S
C1450 C1451 1.327 . S
C1451 H1445 0.950 . S
C1451 C1450 1.327 . S
C1451 C1455 1.429 . S
C1452 C1435 1.574 1_554 S
C1452 H1446 0.949 . S
C1452 C1456 1.368 . S
C1453 C1434 1.429 . S
C1453 C1447 1.429 . S
C1453 C1454 1.523 . S
C1454 C1435 1.368 . S
C1454 C1448 1.368 . S
C1454 C1453 1.523 . S
C1455 C1439 1.429 . S
C1455 C1451 1.429 . S
C1455 C1456 1.523 . S
C1456 C1440 1.368 . S
C1456 C1452 1.368 . S
C1456 C1455 1.523 . S
H1457 C1432 0.950 . S
H1458 C1434 0.950 . S
H1459 C1435 0.949 . S
H1460 C1437 0.950 . S
H1461 C1439 0.950 . S
C1462 C1463 1.349 . S
C1462 C1464 1.327 . S
C1462 H1487 0.950 . S
C1463 C1462 1.349 . S
C1463 C1479 1.349 . S
C1464 C1462 1.327 . S
C1464 C1483 1.429 . S
C1464 H1488 0.950 . S
C1465 C1482 1.574 1_554 S
C1465 C1484 1.368 . S
C1465 H1489 0.949 . S
H1466 C1470 0.949 . S
C1467 C1468 1.349 . S
C1467 C1469 1.327 . S
C1467 H1490 0.950 . S
C1468 C1467 1.349 . S
C1468 C1480 1.349 . S
C1469 C1467 1.327 . S
C1469 C1485 1.429 . S
C1469 H1491 0.950 . S
C1470 H1466 0.949 . S
C1470 C1478 1.544 1_556 S
C1470 C1486 1.368 . S
H1471 C1479 0.950 . S
H1472 C1477 0.950 . S
H1473 C1478 0.958 . S
H1474 C1480 0.950 . S
H1475 C1481 0.950 . S
H1476 C1482 0.949 . S
C1477 H1472 0.950 . S
C1477 C1479 1.327 . S
C1477 C1483 1.429 . S
C1478 C1470 1.544 1_554 S
C1478 H1473 0.958 . S
C1478 C1484 1.389 . S
C1479 C1463 1.349 . S
C1479 H1471 0.950 . S
C1479 C1477 1.327 . S
C1480 C1468 1.349 . S
C1480 H1474 0.950 . S
C1480 C1481 1.327 . S
C1481 H1475 0.950 . S
C1481 C1480 1.327 . S
C1481 C1485 1.429 . S
C1482 C1465 1.574 1_556 S
C1482 H1476 0.949 . S
C1482 C1486 1.368 . S
C1483 C1464 1.429 . S
C1483 C1477 1.429 . S
C1483 C1484 1.523 . S
C1484 C1465 1.368 . S
C1484 C1478 1.389 . S
C1484 C1483 1.523 . S
C1485 C1469 1.429 . S
C1485 C1481 1.429 . S
C1485 C1486 1.523 . S
C1486 C1470 1.368 . S
C1486 C1482 1.368 . S
C1486 C1485 1.523 . S
H1487 C1462 0.950 . S
H1488 C1464 0.950 . S
H1489 C1465 0.949 . S
H1490 C1467 0.950 . S
H1491 C1469 0.950 . S
C1492 C1493 1.349 . S
C1492 C1494 1.327 . S
C1492 H1517 0.950 . S
C1493 C1492 1.349 . S
C1493 C1509 1.349 . S
C1494 C1492 1.327 . S
C1494 C1513 1.429 . S
C1494 H1518 0.950 . S
C1495 C1512 1.574 1_556 S
C1495 C1514 1.368 . S
C1495 H1519 0.949 . S
H1496 C1500 0.949 . S
C1497 C1498 1.349 . S
C1497 C1499 1.327 . S
C1497 H1520 0.950 . S
C1498 C1497 1.349 . S
C1498 C1510 1.349 . S
C1499 C1497 1.327 . S
C1499 C1515 1.429 . S
C1499 H1521 0.950 . S
C1500 H1496 0.949 . S
C1500 C1508 1.574 1_554 S
C1500 C1516 1.368 . S
H1501 C1509 0.950 . S
H1502 C1507 0.950 . S
H1503 C1508 0.949 . S
H1504 C1510 0.950 . S
H1505 C1511 0.950 . S
H1506 C1512 0.949 . S
C1507 H1502 0.950 . S
C1507 C1509 1.327 . S
C1507 C1513 1.429 . S
C1508 C1500 1.574 1_556 S
C1508 H1503 0.949 . S
C1508 C1514 1.368 . S
C1509 C1493 1.349 . S
C1509 H1501 0.950 . S
C1509 C1507 1.327 . S
C1510 C1498 1.349 . S
C1510 H1504 0.950 . S
C1510 C1511 1.327 . S
C1511 H1505 0.950 . S
C1511 C1510 1.327 . S
C1511 C1515 1.429 . S
C1512 C1495 1.574 1_554 S
C1512 H1506 0.949 . S
C1512 C1516 1.368 . S
C1513 C1494 1.429 . S
C1513 C1507 1.429 . S
C1513 C1514 1.523 . S
C1514 C1495 1.368 . S
C1514 C1508 1.368 . S
C1514 C1513 1.523 . S
C1515 C1499 1.429 . S
C1515 C1511 1.429 . S
C1515 C1516 1.523 . S
C1516 C1500 1.368 . S
C1516 C1512 1.368 . S
C1516 C1515 1.523 . S
H1517 C1492 0.950 . S
H1518 C1494 0.950 . S
H1519 C1495 0.949 . S
H1520 C1497 0.950 . S
H1521 C1499 0.950 . S
C1522 C1523 1.349 . S
C1522 C1524 1.327 . S
C1522 H1547 0.950 . S
C1523 C1522 1.349 . S
C1523 C1539 1.349 . S
C1524 C1522 1.327 . S
C1524 C1543 1.429 . S
C1524 H1548 0.950 . S
C1525 C1542 1.583 . S
C1525 C1544 1.361 1_556 S
C1525 H1549 0.947 1_556 S
H1526 C1530 0.949 . S
C1527 C1528 1.349 . S
C1527 C1529 1.327 . S
C1527 H1550 0.950 . S
C1528 C1527 1.349 . S
C1528 C1540 1.349 . S
C1529 C1527 1.327 . S
C1529 C1545 1.429 . S
C1529 H1551 0.950 . S
C1530 H1526 0.949 . S
C1530 C1538 1.574 1_556 S
C1530 C1546 1.368 . S
H1531 C1539 0.950 . S
H1532 C1537 0.950 . S
H1533 C1538 0.949 . S
H1534 C1540 0.950 . S
H1535 C1541 0.950 . S
H1536 C1542 0.949 . S
C1537 H1532 0.950 . S
C1537 C1539 1.327 . S
C1537 C1543 1.429 . S
C1538 C1530 1.574 1_554 S
C1538 H1533 0.949 . S
C1538 C1544 1.368 . S
C1539 C1523 1.349 . S
C1539 H1531 0.950 . S
C1539 C1537 1.327 . S
C1540 C1528 1.349 . S
C1540 H1534 0.950 . S
C1540 C1541 1.327 . S
C1541 H1535 0.950 . S
C1541 C1540 1.327 . S
C1541 C1545 1.429 . S
C1542 C1525 1.583 . S
C1542 H1536 0.949 . S
C1542 C1546 1.368 . S
C1543 C1524 1.429 . S
C1543 C1537 1.429 . S
C1543 C1544 1.523 . S
C1544 C1525 1.361 1_554 S
C1544 C1538 1.368 . S
C1544 C1543 1.523 . S
C1545 C1529 1.429 . S
C1545 C1541 1.429 . S
C1545 C1546 1.523 . S
C1546 C1530 1.368 . S
C1546 C1542 1.368 . S
C1546 C1545 1.523 . S
H1547 C1522 0.950 . S
H1548 C1524 0.950 . S
H1549 C1525 0.947 1_554 S
H1550 C1527 0.950 . S
H1551 C1529 0.950 . S
C1552 C1553 1.349 . S
C1552 C1554 1.327 . S
C1552 H1577 0.950 . S
C1553 C1552 1.349 . S
C1553 C1569 1.349 . S
C1554 C1552 1.327 . S
C1554 C1573 1.429 . S
C1554 H1578 0.950 . S
C1555 C1572 1.574 . S
C1555 C1574 1.368 . S
C1555 H1579 0.949 . S
H1556 C1560 0.949 . S
C1557 C1558 1.349 . S
C1557 C1559 1.327 . S
C1557 H1580 0.950 . S
C1558 C1557 1.349 . S
C1558 C1570 1.349 . S
C1559 C1557 1.327 . S
C1559 C1575 1.429 . S
C1559 H1581 0.950 . S
C1560 H1556 0.949 . S
C1560 C1568 1.574 . S
C1560 C1576 1.368 . S
H1561 C1569 0.950 . S
H1562 C1567 0.950 . S
H1563 C1568 0.949 . S
H1564 C1570 0.950 . S
H1565 C1571 0.950 . S
H1566 C1572 0.949 . S
C1567 H1562 0.950 . S
C1567 C1569 1.327 . S
C1567 C1573 1.429 . S
C1568 C1560 1.574 . S
C1568 H1563 0.949 . S
C1568 C1574 1.368 . S
C1569 C1553 1.349 . S
C1569 H1561 0.950 . S
C1569 C1567 1.327 . S
C1570 C1558 1.349 . S
C1570 H1564 0.950 . S
C1570 C1571 1.327 . S
C1571 H1565 0.950 . S
C1571 C1570 1.327 . S
C1571 C1575 1.429 . S
C1572 C1555 1.574 . S
C1572 H1566 0.949 . S
C1572 C1576 1.368 . S
C1573 C1554 1.429 . S
C1573 C1567 1.429 . S
C1573 C1574 1.523 . S
C1574 C1555 1.368 . S
C1574 C1568 1.368 . S
C1574 C1573 1.523 . S
C1575 C1559 1.429 . S
C1575 C1571 1.429 . S
C1575 C1576 1.523 . S
C1576 C1560 1.368 . S
C1576 C1572 1.368 . S
C1576 C1575 1.523 . S
H1577 C1552 0.950 . S
H1578 C1554 0.950 . S
H1579 C1555 0.949 . S
H1580 C1557 0.950 . S
H1581 C1559 0.950 . S
C1582 C1583 1.349 . S
C1582 C1584 1.327 . S
C1582 H1607 0.950 . S
C1583 C1582 1.349 . S
C1583 C1599 1.349 . S
C1584 C1582 1.327 . S
C1584 C1603 1.429 . S
C1584 H1608 0.950 . S
C1585 C1602 1.574 . S
C1585 C1604 1.368 . S
C1585 H1609 0.949 . S
H1586 C1590 0.949 . S
C1587 C1588 1.349 . S
C1587 C1589 1.327 . S
C1587 H1610 0.950 . S
C1588 C1587 1.349 . S
C1588 C1600 1.349 . S
C1589 C1587 1.327 . S
C1589 C1605 1.429 . S
C1589 H1611 0.950 . S
C1590 H1586 0.949 . S
C1590 C1598 1.574 . S
C1590 C1606 1.368 . S
H1591 C1599 0.950 . S
H1592 C1597 0.950 . S
H1593 C1598 0.949 . S
H1594 C1600 0.950 . S
H1595 C1601 0.950 . S
H1596 C1602 0.949 . S
C1597 H1592 0.950 . S
C1597 C1599 1.327 . S
C1597 C1603 1.429 . S
C1598 C1590 1.574 . S
C1598 H1593 0.949 . S
C1598 C1604 1.368 . S
C1599 C1583 1.349 . S
C1599 H1591 0.950 . S
C1599 C1597 1.327 . S
C1600 C1588 1.349 . S
C1600 H1594 0.950 . S
C1600 C1601 1.327 . S
C1601 H1595 0.950 . S
C1601 C1600 1.327 . S
C1601 C1605 1.429 . S
C1602 C1585 1.574 . S
C1602 H1596 0.949 . S
C1602 C1606 1.368 . S
C1603 C1584 1.429 . S
C1603 C1597 1.429 . S
C1603 C1604 1.523 . S
C1604 C1585 1.368 . S
C1604 C1598 1.368 . S
C1604 C1603 1.523 . S
C1605 C1589 1.429 . S
C1605 C1601 1.429 . S
C1605 C1606 1.523 . S
C1606 C1590 1.368 . S
C1606 C1602 1.368 . S
C1606 C1605 1.523 . S
H1607 C1582 0.950 . S
H1608 C1584 0.950 . S
H1609 C1585 0.949 . S
H1610 C1587 0.950 . S
H1611 C1589 0.950 . S
C1612 C1613 1.349 . S
C1612 C1614 1.327 . S
C1612 H1637 0.950 . S
C1613 C1612 1.349 . S
C1613 C1629 1.349 . S
C1614 C1612 1.327 . S
C1614 C1633 1.429 . S
C1614 H1638 0.950 . S
C1615 C1632 1.574 . S
C1615 C1634 1.368 . S
C1615 H1639 0.949 . S
H1616 C1620 0.949 . S
C1617 C1618 1.349 . S
C1617 C1619 1.327 . S
C1617 H1640 0.950 . S
C1618 C1617 1.349 . S
C1618 C1630 1.349 . S
C1619 C1617 1.327 . S
C1619 C1635 1.429 . S
C1619 H1641 0.950 . S
C1620 H1616 0.949 . S
C1620 C1628 1.574 . S
C1620 C1636 1.368 . S
H1621 C1629 0.950 . S
H1622 C1627 0.950 . S
H1623 C1628 0.949 . S
H1624 C1630 0.950 . S
H1625 C1631 0.950 . S
H1626 C1632 0.949 . S
C1627 H1622 0.950 . S
C1627 C1629 1.327 . S
C1627 C1633 1.429 . S
C1628 C1620 1.574 . S
C1628 H1623 0.949 . S
C1628 C1634 1.368 . S
C1629 C1613 1.349 . S
C1629 H1621 0.950 . S
C1629 C1627 1.327 . S
C1630 C1618 1.349 . S
C1630 H1624 0.950 . S
C1630 C1631 1.327 . S
C1631 H1625 0.950 . S
C1631 C1630 1.327 . S
C1631 C1635 1.429 . S
C1632 C1615 1.574 . S
C1632 H1626 0.949 . S
C1632 C1636 1.368 . S
C1633 C1614 1.429 . S
C1633 C1627 1.429 . S
C1633 C1634 1.523 . S
C1634 C1615 1.368 . S
C1634 C1628 1.368 . S
C1634 C1633 1.523 . S
C1635 C1619 1.429 . S
C1635 C1631 1.429 . S
C1635 C1636 1.523 . S
C1636 C1620 1.368 . S
C1636 C1632 1.368 . S
C1636 C1635 1.523 . S
H1637 C1612 0.950 . S
H1638 C1614 0.950 . S
H1639 C1615 0.949 . S
H1640 C1617 0.950 . S
H1641 C1619 0.950 . S
C1642 C1643 1.349 . S
C1642 C1644 1.327 . S
C1642 H1667 0.950 . S
C1643 C1642 1.349 . S
C1643 C1659 1.349 . S
C1644 C1642 1.327 . S
C1644 C1663 1.429 . S
C1644 H1668 0.950 . S
C1645 C1662 1.574 . S
C1645 C1664 1.368 . S
C1645 H1669 0.949 . S
H1646 C1650 0.949 . S
C1647 C1648 1.349 . S
C1647 C1649 1.327 . S
C1647 H1670 0.950 . S
C1648 C1647 1.349 . S
C1648 C1660 1.349 . S
C1649 C1647 1.327 . S
C1649 C1665 1.429 . S
C1649 H1671 0.950 . S
C1650 H1646 0.949 . S
C1650 C1658 1.574 . S
C1650 C1666 1.368 . S
H1651 C1659 0.950 . S
H1652 C1657 0.950 . S
H1653 C1658 0.949 . S
H1654 C1660 0.950 . S
H1655 C1661 0.950 . S
H1656 C1662 0.949 . S
C1657 H1652 0.950 . S
C1657 C1659 1.327 . S
C1657 C1663 1.429 . S
C1658 C1650 1.574 . S
C1658 H1653 0.949 . S
C1658 C1664 1.368 . S
C1659 C1643 1.349 . S
C1659 H1651 0.950 . S
C1659 C1657 1.327 . S
C1660 C1648 1.349 . S
C1660 H1654 0.950 . S
C1660 C1661 1.327 . S
C1661 H1655 0.950 . S
C1661 C1660 1.327 . S
C1661 C1665 1.429 . S
C1662 C1645 1.574 . S
C1662 H1656 0.949 . S
C1662 C1666 1.368 . S
C1663 C1644 1.429 . S
C1663 C1657 1.429 . S
C1663 C1664 1.523 . S
C1664 C1645 1.368 . S
C1664 C1658 1.368 . S
C1664 C1663 1.523 . S
C1665 C1649 1.429 . S
C1665 C1661 1.429 . S
C1665 C1666 1.523 . S
C1666 C1650 1.368 . S
C1666 C1662 1.368 . S
C1666 C1665 1.523 . S
H1667 C1642 0.950 . S
H1668 C1644 0.950 . S
H1669 C1645 0.949 . S
H1670 C1647 0.950 . S
H1671 C1649 0.950 . S
C1672 C1673 1.349 . S
C1672 C1674 1.327 . S
C1672 H1697 0.950 . S
C1673 C1672 1.349 . S
C1673 C1689 1.349 . S
C1674 C1672 1.327 . S
C1674 C1693 1.429 . S
C1674 H1698 0.950 . S
C1675 C1692 1.574 1_556 S
C1675 C1694 1.368 . S
C1675 H1699 0.949 . S
H1676 C1680 0.949 . S
C1677 C1678 1.349 . S
C1677 C1679 1.327 . S
C1677 H1700 0.950 . S
C1678 C1677 1.349 . S
C1678 C1690 1.349 . S
C1679 C1677 1.327 . S
C1679 C1695 1.429 . S
C1679 H1701 0.950 . S
C1680 H1676 0.949 . S
C1680 C1688 1.574 1_554 S
C1680 C1696 1.368 . S
H1681 C1689 0.950 . S
H1682 C1687 0.950 . S
H1683 C1688 0.949 . S
H1684 C1690 0.950 . S
H1685 C1691 0.950 . S
H1686 C1692 0.949 . S
C1687 H1682 0.950 . S
C1687 C1689 1.327 . S
C1687 C1693 1.429 . S
C1688 C1680 1.574 1_556 S
C1688 H1683 0.949 . S
C1688 C1694 1.368 . S
C1689 C1673 1.349 . S
C1689 H1681 0.950 . S
C1689 C1687 1.327 . S
C1690 C1678 1.349 . S
C1690 H1684 0.950 . S
C1690 C1691 1.327 . S
C1691 H1685 0.950 . S
C1691 C1690 1.327 . S
C1691 C1695 1.429 . S
C1692 C1675 1.574 1_554 S
C1692 H1686 0.949 . S
C1692 C1696 1.368 . S
C1693 C1674 1.429 . S
C1693 C1687 1.429 . S
C1693 C1694 1.523 . S
C1694 C1675 1.368 . S
C1694 C1688 1.368 . S
C1694 C1693 1.523 . S
C1695 C1679 1.429 . S
C1695 C1691 1.429 . S
C1695 C1696 1.523 . S
C1696 C1680 1.368 . S
C1696 C1692 1.368 . S
C1696 C1695 1.523 . S
H1697 C1672 0.950 . S
H1698 C1674 0.950 . S
H1699 C1675 0.949 . S
H1700 C1677 0.950 . S
H1701 C1679 0.950 . S
C1702 C1703 1.349 . S
C1702 C1704 1.327 . S
C1702 H1727 0.950 . S
C1703 C1702 1.349 . S
C1703 C1719 1.349 . S
C1704 C1702 1.327 . S
C1704 C1723 1.429 . S
C1704 H1728 0.950 . S
C1705 C1722 1.574 . S
C1705 C1724 1.368 1_554 S
C1705 H1729 0.949 . S
H1706 C1710 0.949 . S
C1707 C1708 1.349 . S
C1707 C1709 1.327 . S
C1707 H1730 0.950 . S
C1708 C1707 1.349 . S
C1708 C1720 1.349 . S
C1709 C1707 1.327 . S
C1709 C1725 1.429 . S
C1709 H1731 0.950 . S
C1710 H1706 0.949 . S
C1710 C1718 1.574 1_554 S
C1710 C1726 1.368 . S
H1711 C1719 0.950 . S
H1712 C1717 0.950 . S
H1713 C1718 0.949 . S
H1714 C1720 0.950 . S
H1715 C1721 0.950 . S
H1716 C1722 0.949 . S
C1717 H1712 0.950 . S
C1717 C1719 1.327 . S
C1717 C1723 1.429 . S
C1718 C1710 1.574 1_556 S
C1718 H1713 0.949 . S
C1718 C1724 1.368 . S
C1719 C1703 1.349 . S
C1719 H1711 0.950 . S
C1719 C1717 1.327 . S
C1720 C1708 1.349 . S
C1720 H1714 0.950 . S
C1720 C1721 1.327 . S
C1721 H1715 0.950 . S
C1721 C1720 1.327 . S
C1721 C1725 1.429 . S
C1722 C1705 1.574 . S
C1722 H1716 0.949 . S
C1722 C1726 1.368 . S
C1723 C1704 1.429 . S
C1723 C1717 1.429 . S
C1723 C1724 1.523 . S
C1724 C1705 1.368 1_556 S
C1724 C1718 1.368 . S
C1724 C1723 1.523 . S
C1725 C1709 1.429 . S
C1725 C1721 1.429 . S
C1725 C1726 1.523 . S
C1726 C1710 1.368 . S
C1726 C1722 1.368 . S
C1726 C1725 1.523 . S
H1727 C1702 0.950 . S
H1728 C1704 0.950 . S
H1729 C1705 0.949 . S
H1730 C1707 0.950 . S
H1731 C1709 0.950 . S
C1732 C1733 1.349 . S
C1732 C1734 1.327 . S
C1732 H1757 0.950 . S
C1733 C1732 1.349 . S
C1733 C1749 1.349 . S
C1734 C1732 1.327 . S
C1734 C1753 1.429 . S
C1734 H1758 0.950 . S
C1735 C1752 1.574 . S
C1735 C1754 1.368 . S
C1735 H1759 0.949 . S
H1736 C1740 0.949 . S
C1737 C1738 1.349 . S
C1737 C1739 1.327 . S
C1737 H1760 0.950 . S
C1738 C1737 1.349 . S
C1738 C1750 1.349 . S
C1739 C1737 1.327 . S
C1739 C1755 1.429 . S
C1739 H1761 0.950 . S
C1740 H1736 0.949 . S
C1740 C1748 1.574 1_556 S
C1740 C1756 1.368 . S
H1741 C1749 0.950 . S
H1742 C1747 0.950 . S
H1743 C1748 0.949 . S
H1744 C1750 0.950 . S
H1745 C1751 0.950 . S
H1746 C1752 0.949 . S
C1747 H1742 0.950 . S
C1747 C1749 1.327 . S
C1747 C1753 1.429 . S
C1748 C1740 1.574 1_554 S
C1748 H1743 0.949 . S
C1748 C1754 1.368 . S
C1749 C1733 1.349 . S
C1749 H1741 0.950 . S
C1749 C1747 1.327 . S
C1750 C1738 1.349 . S
C1750 H1744 0.950 . S
C1750 C1751 1.327 . S
C1751 H1745 0.950 . S
C1751 C1750 1.327 . S
C1751 C1755 1.429 . S
C1752 C1735 1.574 . S
C1752 H1746 0.949 . S
C1752 C1756 1.368 1_554 S
C1753 C1734 1.429 . S
C1753 C1747 1.429 . S
C1753 C1754 1.523 . S
C1754 C1735 1.368 . S
C1754 C1748 1.368 . S
C1754 C1753 1.523 . S
C1755 C1739 1.429 . S
C1755 C1751 1.429 . S
C1755 C1756 1.523 . S
C1756 C1740 1.368 . S
C1756 C1752 1.368 1_556 S
C1756 C1755 1.523 . S
H1757 C1732 0.950 . S
H1758 C1734 0.950 . S
H1759 C1735 0.949 . S
H1760 C1737 0.950 . S
H1761 C1739 0.950 . S
C1762 C1763 1.349 . S
C1762 C1764 1.327 . S
C1762 H1787 0.950 . S
C1763 C1762 1.349 . S
C1763 C1779 1.349 . S
C1764 C1762 1.327 . S
C1764 C1783 1.429 . S
C1764 H1788 0.950 . S
C1765 C1782 1.574 1_554 S
C1765 C1784 1.368 . S
C1765 H1789 0.949 . S
H1766 C1770 0.949 . S
C1767 C1768 1.349 . S
C1767 C1769 1.327 . S
C1767 H1790 0.950 . S
C1768 C1767 1.349 . S
C1768 C1780 1.349 . S
C1769 C1767 1.327 . S
C1769 C1785 1.429 . S
C1769 H1791 0.950 . S
C1770 H1766 0.949 . S
C1770 C1778 1.574 1_556 S
C1770 C1786 1.368 . S
H1771 C1779 0.950 . S
H1772 C1777 0.950 . S
H1773 C1778 0.949 . S
H1774 C1780 0.950 . S
H1775 C1781 0.950 . S
H1776 C1782 0.949 . S
C1777 H1772 0.950 . S
C1777 C1779 1.327 . S
C1777 C1783 1.429 . S
C1778 C1770 1.574 1_554 S
C1778 H1773 0.949 . S
C1778 C1784 1.368 . S
C1779 C1763 1.349 . S
C1779 H1771 0.950 . S
C1779 C1777 1.327 . S
C1780 C1768 1.349 . S
C1780 H1774 0.950 . S
C1780 C1781 1.327 . S
C1781 H1775 0.950 . S
C1781 C1780 1.327 . S
C1781 C1785 1.429 . S
C1782 C1765 1.574 1_556 S
C1782 H1776 0.949 . S
C1782 C1786 1.368 . S
C1783 C1764 1.429 . S
C1783 C1777 1.429 . S
C1783 C1784 1.523 . S
C1784 C1765 1.368 . S
C1784 C1778 1.368 . S
C1784 C1783 1.523 . S
C1785 C1769 1.429 . S
C1785 C1781 1.429 . S
C1785 C1786 1.523 . S
C1786 C1770 1.368 . S
C1786 C1782 1.368 . S
C1786 C1785 1.523 . S
H1787 C1762 0.950 . S
H1788 C1764 0.950 . S
H1789 C1765 0.949 . S
H1790 C1767 0.950 . S
H1791 C1769 0.950 . S
C353 C5 2.356 . S
C358 C119 2.356 . S
C383 C141 2.356 . S
C388 C27 2.356 . S
C413 C49 2.356 . S
C418 C163 2.356 . S
C443 C75 2.356 . S
C448 C93 2.356 . S
C473 C293 2.356 . S
C478 C182 2.356 . S
C503 C315 2.356 . S
C508 C205 2.356 . S
C533 C227 2.356 . S
C538 C336 2.356 . S
C563 C249 2.356 . S
C568 C271 2.356 . S
C593 C4 1.608 . S
C598 C73 1.527 1_545 S
C623 C26 1.608 . S
C628 C6 1.527 . S
C653 C48 1.608 1_455 S
C658 C28 1.527 . S
C683 C74 1.608 1_545 S
C688 C50 1.527 1_455 S
C713 C92 1.608 1_655 S
C718 C117 1.527 1_565 S
C743 C139 1.527 . S
C748 C118 1.608 1_565 S
C773 C140 1.608 . S
C778 C161 1.527 . S
C803 C94 1.527 1_655 S
C808 C162 1.608 . S
C833 C251 1.527 1_565 S
C838 C180 1.608 . S
C863 C206 1.608 . S
C868 C181 1.527 . S
C893 C228 1.608 1_655 S
C898 C207 1.527 . S
C923 C250 1.608 1_565 S
C928 C229 1.527 1_655 S
C953 C272 1.608 1_455 S
C958 C295 1.527 1_545 S
C983 C294 1.608 1_545 S
C988 C317 1.527 . S
C1013 C316 1.608 . S
C1018 C335 1.527 . S
C1043 C334 1.608 . S
C1048 C273 1.527 1_455 S
C1073 C7 0.371 . S
C1078 C51 0.371 . S
C1103 C29 0.371 . S
C1108 C72 0.371 . S
C1133 C138 0.371 . S
C1138 C95 0.371 . S
C1163 C160 0.371 . S
C1168 C116 0.371 . S
C1193 C225 0.371 . S
C1198 C185 0.371 . S
C1223 C247 0.371 . S
C1228 C203 0.371 . S
C1253 C269 0.371 . S
C1258 C313 0.371 . S
C1283 C291 0.371 . S
C1288 C339 0.371 . S
C1313 C8 1.095 . S
C1318 C248 1.091 . S
C1343 C183 1.091 . S
C1348 C30 1.095 . S
C1373 C52 1.095 . S
C1378 C204 1.091 . S
C1403 C226 1.091 . S
C1408 C70 1.095 . S
C1433 C292 1.091 . S
C1438 C96 1.095 . S
C1463 C114 1.095 . S
C1468 C314 1.091 . S
C1493 C337 1.091 . S
C1498 C136 1.095 . S
C1523 C158 1.095 . S
C1528 C270 1.091 . S
C1553 C184 1.095 . S
C1558 C71 1.091 . S
C1583 C202 1.095 . S
C1588 C9 1.091 . S
C1613 C31 1.091 . S
C1618 C224 1.095 . S
C1643 C246 1.095 . S
C1648 C53 1.091 . S
C1673 C268 1.095 . S
C1678 C115 1.091 . S
C1703 C290 1.095 . S
C1708 C137 1.091 . S
C1733 C159 1.091 . S
C1738 C312 1.095 . S
C1763 C97 1.091 . S
C1768 C338 1.095 . S
