# Generated by pormake.
# Topology lcs, (4)-cn, num edge types: 1
# Building blocks:
#     Node 0, Type 0, BuildingBlock: CEKHIL_clean_sbu_0, # of connection points: 4
#     Node 1, Type 0, BuildingBlock: CEKHIL_clean_sbu_0, # of connection points: 4
#     Node 2, Type 0, BuildingBlock: CEKHIL_clean_sbu_0, # of connection points: 4
#     Node 3, Type 0, BuildingBlock: CEKHIL_clean_sbu_0, # of connection points: 4
#     Node 4, Type 0, BuildingBlock: CEKHIL_clean_sbu_0, # of connection points: 4
#     Node 5, Type 0, BuildingBlock: CEKHIL_clean_sbu_0, # of connection points: 4
#     Node 6, Type 0, BuildingBlock: CEKHIL_clean_sbu_0, # of connection points: 4
#     Node 7, Type 0, BuildingBlock: CEKHIL_clean_sbu_0, # of connection points: 4
#     Node 8, Type 0, BuildingBlock: CEKHIL_clean_sbu_0, # of connection points: 4
#     Node 9, Type 0, BuildingBlock: CEKHIL_clean_sbu_0, # of connection points: 4
#     Node 10, Type 0, BuildingBlock: CEKHIL_clean_sbu_0, # of connection points: 4
#     Node 11, Type 0, BuildingBlock: CEKHIL_clean_sbu_0, # of connection points: 4
#     Node 12, Type 0, BuildingBlock: CEKHIL_clean_sbu_0, # of connection points: 4
#     Node 13, Type 0, BuildingBlock: CEKHIL_clean_sbu_0, # of connection points: 4
#     Node 14, Type 0, BuildingBlock: CEKHIL_clean_sbu_0, # of connection points: 4
#     Node 15, Type 0, BuildingBlock: CEKHIL_clean_sbu_0, # of connection points: 4
#     Node 16, Type 0, BuildingBlock: CEKHIL_clean_sbu_0, # of connection points: 4
#     Node 17, Type 0, BuildingBlock: CEKHIL_clean_sbu_0, # of connection points: 4
#     Node 18, Type 0, BuildingBlock: CEKHIL_clean_sbu_0, # of connection points: 4
#     Node 19, Type 0, BuildingBlock: CEKHIL_clean_sbu_0, # of connection points: 4
#     Node 20, Type 0, BuildingBlock: CEKHIL_clean_sbu_0, # of connection points: 4
#     Node 21, Type 0, BuildingBlock: CEKHIL_clean_sbu_0, # of connection points: 4
#     Node 22, Type 0, BuildingBlock: CEKHIL_clean_sbu_0, # of connection points: 4
#     Node 23, Type 0, BuildingBlock: CEKHIL_clean_sbu_0, # of connection points: 4
#     Edge 24, Type (0, 0), BuildingBlock: OJICUG_clean_linker_0, # of connection points: 2
#     Edge 25, Type (0, 0), BuildingBlock: OJICUG_clean_linker_0, # of connection points: 2
#     Edge 26, Type (0, 0), BuildingBlock: OJICUG_clean_linker_0, # of connection points: 2
#     Edge 27, Type (0, 0), BuildingBlock: OJICUG_clean_linker_0, # of connection points: 2
#     Edge 28, Type (0, 0), BuildingBlock: OJICUG_clean_linker_0, # of connection points: 2
#     Edge 29, Type (0, 0), BuildingBlock: OJICUG_clean_linker_0, # of connection points: 2
#     Edge 30, Type (0, 0), BuildingBlock: OJICUG_clean_linker_0, # of connection points: 2
#     Edge 31, Type (0, 0), BuildingBlock: OJICUG_clean_linker_0, # of connection points: 2
#     Edge 32, Type (0, 0), BuildingBlock: OJICUG_clean_linker_0, # of connection points: 2
#     Edge 33, Type (0, 0), BuildingBlock: OJICUG_clean_linker_0, # of connection points: 2
#     Edge 34, Type (0, 0), BuildingBlock: OJICUG_clean_linker_0, # of connection points: 2
#     Edge 35, Type (0, 0), BuildingBlock: OJICUG_clean_linker_0, # of connection points: 2
#     Edge 36, Type (0, 0), BuildingBlock: OJICUG_clean_linker_0, # of connection points: 2
#     Edge 37, Type (0, 0), BuildingBlock: OJICUG_clean_linker_0, # of connection points: 2
#     Edge 38, Type (0, 0), BuildingBlock: OJICUG_clean_linker_0, # of connection points: 2
#     Edge 39, Type (0, 0), BuildingBlock: OJICUG_clean_linker_0, # of connection points: 2
#     Edge 40, Type (0, 0), BuildingBlock: OJICUG_clean_linker_0, # of connection points: 2
#     Edge 41, Type (0, 0), BuildingBlock: OJICUG_clean_linker_0, # of connection points: 2
#     Edge 42, Type (0, 0), BuildingBlock: OJICUG_clean_linker_0, # of connection points: 2
#     Edge 43, Type (0, 0), BuildingBlock: OJICUG_clean_linker_0, # of connection points: 2
#     Edge 44, Type (0, 0), BuildingBlock: OJICUG_clean_linker_0, # of connection points: 2
#     Edge 45, Type (0, 0), BuildingBlock: OJICUG_clean_linker_0, # of connection points: 2
#     Edge 46, Type (0, 0), BuildingBlock: OJICUG_clean_linker_0, # of connection points: 2
#     Edge 47, Type (0, 0), BuildingBlock: OJICUG_clean_linker_0, # of connection points: 2
#     Edge 48, Type (0, 0), BuildingBlock: OJICUG_clean_linker_0, # of connection points: 2
#     Edge 49, Type (0, 0), BuildingBlock: OJICUG_clean_linker_0, # of connection points: 2
#     Edge 50, Type (0, 0), BuildingBlock: OJICUG_clean_linker_0, # of connection points: 2
#     Edge 51, Type (0, 0), BuildingBlock: OJICUG_clean_linker_0, # of connection points: 2
#     Edge 52, Type (0, 0), BuildingBlock: OJICUG_clean_linker_0, # of connection points: 2
#     Edge 53, Type (0, 0), BuildingBlock: OJICUG_clean_linker_0, # of connection points: 2
#     Edge 54, Type (0, 0), BuildingBlock: OJICUG_clean_linker_0, # of connection points: 2
#     Edge 55, Type (0, 0), BuildingBlock: OJICUG_clean_linker_0, # of connection points: 2
#     Edge 56, Type (0, 0), BuildingBlock: OJICUG_clean_linker_0, # of connection points: 2
#     Edge 57, Type (0, 0), BuildingBlock: OJICUG_clean_linker_0, # of connection points: 2
#     Edge 58, Type (0, 0), BuildingBlock: OJICUG_clean_linker_0, # of connection points: 2
#     Edge 59, Type (0, 0), BuildingBlock: OJICUG_clean_linker_0, # of connection points: 2
#     Edge 60, Type (0, 0), BuildingBlock: OJICUG_clean_linker_0, # of connection points: 2
#     Edge 61, Type (0, 0), BuildingBlock: OJICUG_clean_linker_0, # of connection points: 2
#     Edge 62, Type (0, 0), BuildingBlock: OJICUG_clean_linker_0, # of connection points: 2
#     Edge 63, Type (0, 0), BuildingBlock: OJICUG_clean_linker_0, # of connection points: 2
#     Edge 64, Type (0, 0), BuildingBlock: OJICUG_clean_linker_0, # of connection points: 2
#     Edge 65, Type (0, 0), BuildingBlock: OJICUG_clean_linker_0, # of connection points: 2
#     Edge 66, Type (0, 0), BuildingBlock: OJICUG_clean_linker_0, # of connection points: 2
#     Edge 67, Type (0, 0), BuildingBlock: OJICUG_clean_linker_0, # of connection points: 2
#     Edge 68, Type (0, 0), BuildingBlock: OJICUG_clean_linker_0, # of connection points: 2
#     Edge 69, Type (0, 0), BuildingBlock: OJICUG_clean_linker_0, # of connection points: 2
#     Edge 70, Type (0, 0), BuildingBlock: OJICUG_clean_linker_0, # of connection points: 2
#     Edge 71, Type (0, 0), BuildingBlock: OJICUG_clean_linker_0, # of connection points: 2
# Relax obj value: 0.003
# Max RMSD: 0.026
# Mean RMSD: 0.022
data_MOF--net-lcs--node1-CEKHIL_clean_sbu_0--edge1-OJICUG_clean_linker_0
_symmetry_space_group_name_H-M    P1
_symmetry_Int_Tables_number       1
_symmetry_cell_setting            triclinic
loop_
_symmetry_equiv_pos_as_xyz
'x, y, z'
_cell_length_a     35.645351
_cell_length_b     35.241247
_cell_length_c     35.232255
_cell_angle_alpha  91.013351
_cell_angle_beta   90.363248
_cell_angle_gamma 90.765493
loop_
_atom_site_label
_atom_site_type_symbol
_atom_site_fract_x
_atom_site_fract_y
_atom_site_fract_z
_atom_type_partial_charge
Co0 Co 0.01699 0.27309 0.39139 0.0
O1 O 0.97087 0.29924 0.38318 0.0
O2 O 0.98397 0.26699 0.43474 0.0
C3 C 0.05358 0.32267 0.37285 0.0
O4 O 0.0624 0.24427 0.411 0.0
Co5 Co 0.07115 0.25728 0.32496 0.0
O6 O 0.10478 0.23693 0.36438 0.0
C7 C 1.00227 0.21024 0.33252 0.0
C8 C 0.96097 0.28889 0.41681 0.0
C9 C 0.0943 0.23288 0.39857 0.0
O10 O 0.99582 0.22515 0.36553 0.0
O11 O 0.02855 0.22205 0.31091 0.0
O12 O 0.04131 0.32102 0.40739 0.0
O13 O 0.04189 0.29578 0.35023 0.0
Co14 Co 0.03483 0.75427 0.64636 0.0
O15 O 0.08359 0.73285 0.65538 0.0
O16 O 0.04976 0.72155 0.60372 0.0
C17 C 0.05389 0.81304 0.66449 0.0
O18 O 0.98381 0.77395 0.62673 0.0
Co19 Co 0.99175 0.79377 0.71239 0.0
O20 O 0.96217 0.81551 0.67048 0.0
C21 C 0.99369 0.70963 0.70646 0.0
C22 C 0.08125 0.71705 0.62205 0.0
C23 C 0.9607 0.80004 0.63753 0.0
O24 O 1.00914 0.71079 0.67341 0.0
O25 O 0.98795 0.73929 0.72704 0.0
O26 O 0.05923 0.80128 0.62984 0.0
O27 O 0.03897 0.78884 0.68694 0.0
Co28 Co 0.5167 0.77383 0.8903 0.0
O29 O 0.47053 0.80003 0.88247 0.0
O30 O 0.48387 0.76742 0.93375 0.0
C31 C 0.55327 0.82352 0.87197 0.0
O32 O 0.56218 0.74489 0.90953 0.0
Co33 Co 0.57047 0.75835 0.82353 0.0
O34 O 0.60425 0.73764 0.86263 0.0
C35 C 0.50171 0.71119 0.83118 0.0
C36 C 0.46078 0.78942 0.91606 0.0
C37 C 0.59398 0.73345 0.89686 0.0
O38 O 0.4954 0.72602 0.86426 0.0
O39 O 0.52789 0.72308 0.8095 0.0
O40 O 0.54109 0.82163 0.90652 0.0
O41 O 0.54145 0.79682 0.84918 0.0
Co42 Co 0.53527 0.25163 0.1467 0.0
O43 O 0.58409 0.23047 0.15618 0.0
O44 O 0.55064 0.21854 0.10445 0.0
C45 C 0.55405 0.31066 0.16435 0.0
O46 O 0.4842 0.27097 0.12664 0.0
Co47 Co 0.49192 0.29156 0.21235 0.0
O48 O 0.46212 0.31251 0.1702 0.0
C49 C 0.49407 0.20741 0.20712 0.0
C50 C 0.58205 0.21434 0.123 0.0
C51 C 0.46082 0.29688 0.13732 0.0
O52 O 0.50958 0.20832 0.17408 0.0
O53 O 0.4883 0.23724 0.22745 0.0
O54 O 0.55959 0.29859 0.12984 0.0
O55 O 0.53915 0.2866 0.18695 0.0
Co56 Co 0.02632 0.76641 0.14002 0.0
O57 O 0.07412 0.79061 0.15051 0.0
O58 O 0.05815 0.76304 0.09577 0.0
C59 C 0.99232 0.81464 0.16481 0.0
O60 O 0.97968 0.7404 0.11712 0.0
Co61 Co 0.96976 0.7447 0.20176 0.0
O62 O 0.93301 0.74111 0.15945 0.0
C63 C 0.03395 0.69416 0.18582 0.0
C64 C 0.08266 0.78281 0.11548 0.0
C65 C 0.94498 0.73548 0.12592 0.0
O66 O 0.04511 0.71622 0.15924 0.0
O67 O 1.00546 0.70125 0.20667 0.0
O68 O 1.00505 0.81606 0.13044 0.0
O69 O 1.002 0.78531 0.18399 0.0
Co70 Co 0.5062 0.75908 0.3893 0.0
O71 O 0.45889 0.73304 0.38091 0.0
O72 O 0.49027 0.73199 0.4349 0.0
C73 C 0.48606 0.81408 0.36414 0.0
O74 O 0.55623 0.78368 0.40778 0.0
Co75 Co 0.54966 0.78805 0.3188 0.0
O76 O 0.58693 0.80634 0.35694 0.0
C77 C 0.54799 0.7067 0.33572 0.0
C78 C 0.4603 0.7219 0.41564 0.0
C79 C 0.58494 0.80018 0.39243 0.0
O80 O 0.53415 0.71361 0.3688 0.0
O81 O 0.55181 0.73178 0.31016 0.0
O82 O 0.47961 0.80632 0.3994 0.0
O83 O 0.50237 0.7877 0.34489 0.0
Co84 Co 0.52661 0.26795 0.63993 0.0
O85 O 0.57411 0.29275 0.65047 0.0
O86 O 0.55874 0.26452 0.59589 0.0
C87 C 0.49198 0.31605 0.66409 0.0
O88 O 0.48034 0.24128 0.617 0.0
Co89 Co 0.4699 0.24631 0.7016 0.0
O90 O 0.43343 0.24222 0.65908 0.0
C91 C 0.53455 0.19613 0.68635 0.0
C92 C 0.58292 0.28474 0.61556 0.0
C93 C 0.44561 0.23629 0.62567 0.0
O94 O 0.54576 0.21811 0.65972 0.0
O95 O 0.50587 0.20315 0.70695 0.0
O96 O 0.50489 0.3173 0.62978 0.0
O97 O 0.50187 0.287 0.68358 0.0
Co98 Co 1.00728 0.26138 0.8893 0.0
O99 O 0.95985 0.2354 0.88205 0.0
O100 O 0.992 0.23455 0.93548 0.0
C101 C 0.98642 0.31612 0.86401 0.0
O102 O 0.05801 0.28625 0.9059 0.0
Co103 Co 0.04785 0.28923 0.81631 0.0
O104 O 0.08416 0.31107 0.85357 0.0
C105 C 0.04807 0.20831 0.8354 0.0
C106 C 0.96171 0.22437 0.91674 0.0
C107 C 0.08483 0.30453 0.88908 0.0
O108 O 0.03478 0.21571 0.86861 0.0
O109 O 0.05106 0.23285 0.80921 0.0
O110 O 0.98085 0.30885 0.89954 0.0
O111 O 1.00213 0.2894 0.84479 0.0
Co112 Co 0.3914 0.99698 0.27827 0.0
O113 O 0.38009 0.94783 0.2985 0.0
O114 O 0.43417 0.96424 0.27243 0.0
C115 C 0.36888 0.02923 0.32945 0.0
O116 O 0.41499 0.04507 0.25669 0.0
Co117 Co 0.33056 0.057 0.26302 0.0
O118 O 0.37403 0.09253 0.26387 0.0
C119 C 0.3437 0.99512 0.20608 0.0
C120 C 0.41453 0.93924 0.29068 0.0
C121 C 0.40673 0.08047 0.2566 0.0
O122 O 0.37063 0.98153 0.22618 0.0
O123 O 0.32395 0.02339 0.21693 0.0
O124 O 0.40244 0.01548 0.33 0.0
O125 O 0.3493 0.02139 0.29928 0.0
Co126 Co 0.26303 0.13188 0.50232 0.0
O127 O 0.21589 0.12159 0.47687 0.0
O128 O 0.23171 0.17639 0.50449 0.0
C129 C 0.29856 0.10654 0.45549 0.0
O130 O 0.30915 0.15442 0.52938 0.0
Co131 Co 0.31644 0.06907 0.52685 0.0
O132 O 0.3542 0.11071 0.53176 0.0
C133 C 0.2503 0.08594 0.57419 0.0
C134 C 0.2075 0.15665 0.48435 0.0
C135 C 0.34323 0.14472 0.53597 0.0
O136 O 0.24217 0.11343 0.55207 0.0
O137 O 0.27776 0.06362 0.56797 0.0
O138 O 0.28627 0.14094 0.45339 0.0
O139 O 0.28721 0.08751 0.48447 0.0
Co140 Co 0.14061 0.0104 0.77715 0.0
O141 O 0.13022 0.98523 0.82437 0.0
O142 O 0.18383 0.98175 0.79335 0.0
C143 C 0.1163 0.06632 0.79595 0.0
O144 O 0.16283 0.03341 0.72884 0.0
Co145 Co 0.07797 0.04376 0.72618 0.0
O146 O 0.1198 0.06832 0.69899 0.0
C147 C 0.09296 0.96138 0.72325 0.0
C148 C 0.16422 0.97261 0.8229 0.0
C149 C 0.15317 0.05637 0.70243 0.0
O150 O 0.12045 0.96553 0.74692 0.0
O151 O 0.07194 0.98849 0.71278 0.0
O152 O 0.15035 0.0577 0.80568 0.0
O153 O 0.09765 0.04049 0.77727 0.0
Co154 Co 0.27225 0.88028 0.99856 0.0
O155 O 0.31918 0.88993 0.97374 0.0
O156 O 0.30521 0.83723 1.00406 0.0
C157 C 0.23646 0.90027 0.94924 0.0
O158 O 0.2264 0.85889 0.02595 0.0
Co159 Co 0.21681 0.94535 0.01624 0.0
O160 O 0.18385 0.90467 0.03582 0.0
C161 C 0.28559 0.93762 0.06291 0.0
C162 C 0.32887 0.85607 0.98341 0.0
C163 C 0.19454 0.87047 0.0383 0.0
O164 O 0.29201 0.90478 0.04769 0.0
O165 O 0.25949 0.95928 0.05128 0.0
O166 O 0.2497 0.86613 0.94918 0.0
O167 O 0.24705 0.92172 0.97746 0.0
Co168 Co 0.28899 0.37896 0.01261 0.0
O169 O 0.3361 0.38794 0.03883 0.0
O170 O 0.30554 0.33325 0.03874 0.0
C171 C 0.30888 0.40575 0.95812 0.0
O172 O 0.23963 0.35912 0.98729 0.0
Co173 Co 0.243 0.44711 0.98367 0.0
O174 O 0.2135 0.4076 0.95609 0.0
C175 C 0.24202 0.42844 0.0652 0.0
C176 C 0.33517 0.35292 0.04922 0.0
C177 C 0.21444 0.37272 0.96481 0.0
O178 O 0.26081 0.39799 0.05869 0.0
O179 O 0.23442 0.45255 0.03959 0.0
O180 O 0.31603 0.37055 0.96527 0.0
O181 O 0.29182 0.42414 0.98472 0.0
Co182 Co 0.76099 0.12363 0.01745 0.0
O183 O 0.71239 0.1131 0.03926 0.0
O184 O 0.74578 0.16498 0.05158 0.0
C185 C 0.74148 0.10714 0.95822 0.0
O186 O 0.81177 0.14496 0.9978 0.0
Co187 Co 0.80465 0.05956 0.97563 0.0
O188 O 0.83491 0.10223 0.95601 0.0
C189 C 0.80313 0.06298 0.05987 0.0
C190 C 0.71439 0.14614 0.05575 0.0
C191 C 0.83576 0.13488 0.97213 0.0
O192 O 0.78728 0.09574 0.05976 0.0
O193 O 0.80892 0.04334 0.02958 0.0
O194 O 0.73557 0.14105 0.97167 0.0
O195 O 0.75718 0.08417 0.98126 0.0
Co196 Co 0.14694 0.51987 0.26709 0.0
O197 O 0.15149 0.56686 0.23987 0.0
O198 O 0.10042 0.53065 0.24097 0.0
C199 C 0.17232 0.54396 0.32108 0.0
O200 O 0.13046 0.47066 0.29292 0.0
Co201 Co 0.21486 0.47725 0.29958 0.0
O202 O 0.17708 0.44955 0.32983 0.0
C203 C 0.19769 0.47205 0.21715 0.0
C204 C 0.1165 0.56204 0.23037 0.0
C205 C 0.14311 0.44834 0.31852 0.0
O206 O 0.1671 0.49054 0.22221 0.0
O207 O 0.22121 0.46576 0.2439 0.0
O208 O 0.13706 0.54875 0.3134 0.0
O209 O 0.19154 0.52635 0.29543 0.0
Co210 Co 0.78789 0.88002 0.51304 0.0
O211 O 0.83519 0.89015 0.53864 0.0
O212 O 0.80527 0.83508 0.53963 0.0
C213 C 0.80655 0.90614 0.4578 0.0
O214 O 0.73887 0.85849 0.48876 0.0
Co215 Co 0.73952 0.94587 0.48353 0.0
O216 O 0.70677 0.90561 0.46138 0.0
C217 C 0.74092 0.92958 0.56547 0.0
C218 C 0.83472 0.85525 0.54955 0.0
C219 C 0.71072 0.87084 0.46939 0.0
O220 O 0.75992 0.89925 0.55917 0.0
O221 O 0.73254 0.95303 0.53952 0.0
O222 O 0.81442 0.87126 0.4656 0.0
O223 O 0.78936 0.92479 0.48418 0.0
Co224 Co 0.8998 0.99277 0.27301 0.0
O225 O 0.91051 0.97317 0.32239 0.0
O226 O 0.85636 0.99805 0.30549 0.0
C227 C 0.92307 0.94163 0.24136 0.0
O228 O 0.8773 0.01359 0.22415 0.0
Co229 Co 0.96257 0.00843 0.21454 0.0
O230 O 0.92012 0.00629 0.17811 0.0
C231 C 0.94694 0.0658 0.27525 0.0
C232 C 0.87592 0.98036 0.33079 0.0
C233 C 0.88688 0.01324 0.18898 0.0
O234 O 0.91986 0.04528 0.28839 0.0
O235 O 0.96767 0.05511 0.24758 0.0
O236 O 0.8893 0.94086 0.25478 0.0
O237 O 0.94251 0.97195 0.24943 0.0
Co238 Co 0.25886 0.62401 0.51629 0.0
O239 O 0.21007 0.61447 0.53799 0.0
O240 O 0.2441 0.6661 0.54967 0.0
C241 C 0.23967 0.60684 0.45721 0.0
O242 O 0.30995 0.64427 0.49655 0.0
Co243 Co 0.30194 0.55852 0.4761 0.0
O244 O 0.33255 0.6005 0.45553 0.0
C245 C 0.29956 0.56346 0.56021 0.0
C246 C 0.21248 0.6477 0.55404 0.0
C247 C 0.33375 0.63345 0.471 0.0
O248 O 0.28451 0.59657 0.55925 0.0
O249 O 0.30524 0.54307 0.53039 0.0
O250 O 0.23399 0.64101 0.47007 0.0
O251 O 0.25482 0.58402 0.48077 0.0
Co252 Co 0.39889 0.4937 0.77238 0.0
O253 O 0.41078 0.47386 0.82143 0.0
O254 O 0.35618 0.49861 0.80584 0.0
C255 C 0.42177 0.44283 0.73997 0.0
O256 O 0.37509 0.51467 0.72423 0.0
Co257 Co 0.4599 0.50999 0.71227 0.0
O258 O 0.41658 0.50773 0.6769 0.0
C259 C 0.44562 0.56698 0.77376 0.0
C260 C 0.37633 0.48086 0.83061 0.0
C261 C 0.38367 0.5145 0.6888 0.0
O262 O 0.41903 0.54624 0.78756 0.0
O263 O 0.46562 0.55652 0.74544 0.0
O264 O 0.3883 0.44182 0.75411 0.0
O265 O 0.44118 0.47327 0.74766 0.0
Co266 Co 0.64728 0.02158 0.76806 0.0
O267 O 0.65199 0.06877 0.74118 0.0
O268 O 0.6008 0.03273 0.74206 0.0
C269 C 0.67288 0.04519 0.82221 0.0
O270 O 0.6306 0.97221 0.79351 0.0
Co271 Co 0.71503 0.97841 0.80016 0.0
O272 O 0.67717 0.95043 0.83006 0.0
C273 C 0.69782 0.97395 0.71771 0.0
C274 C 0.617 0.06413 0.73163 0.0
C275 C 0.64319 0.9495 0.8188 0.0
O276 O 0.66729 0.99249 0.72293 0.0
O277 O 0.72133 0.96739 0.74439 0.0
O278 O 0.63762 0.05018 0.81463 0.0
O279 O 0.69195 0.02767 0.79639 0.0
Co280 Co 0.76226 0.63226 1.00137 0.0
O281 O 0.71539 0.62196 0.97545 0.0
O282 O 0.73069 0.67662 1.00364 0.0
C283 C 0.79821 0.6075 0.95458 0.0
O284 O 0.80813 0.65475 0.02898 0.0
Co285 Co 0.81576 0.5694 0.02566 0.0
O286 O 0.85334 0.61117 0.03084 0.0
C287 C 0.74927 0.58563 0.07275 0.0
C288 C 0.70678 0.65693 0.98309 0.0
C289 C 0.84224 0.6451 0.03543 0.0
O290 O 0.74112 0.61326 0.05081 0.0
O291 O 0.77688 0.5635 0.06651 0.0
O292 O 0.78582 0.64187 0.9527 0.0
O293 O 0.78673 0.58817 0.98331 0.0
Co294 Co 0.89174 0.4987 0.77739 0.0
O295 O 0.88046 0.4496 0.79779 0.0
O296 O 0.93455 0.46597 0.77171 0.0
C297 C 0.86916 0.53104 0.82846 0.0
O298 O 0.91527 0.54677 0.7557 0.0
Co299 Co 0.83081 0.55857 0.76194 0.0
O300 O 0.87421 0.59417 0.76273 0.0
C301 C 0.84411 0.49661 0.70514 0.0
C302 C 0.91492 0.44103 0.79007 0.0
C303 C 0.90694 0.58215 0.75552 0.0
O304 O 0.87101 0.48307 0.72532 0.0
O305 O 0.82433 0.52489 0.71589 0.0
O306 O 0.90274 0.51735 0.82906 0.0
O307 O 0.84959 0.5231 0.79831 0.0
Co308 Co 0.77254 0.38109 0.49805 0.0
O309 O 0.81953 0.39028 0.47319 0.0
O310 O 0.80528 0.33793 0.50398 0.0
C311 C 0.73687 0.40079 0.4485 0.0
O312 O 0.72652 0.36024 0.52558 0.0
Co313 Co 0.71757 0.44674 0.51507 0.0
O314 O 0.68442 0.4065 0.53519 0.0
C315 C 0.78617 0.43891 0.56196 0.0
C316 C 0.82906 0.35647 0.48319 0.0
C317 C 0.69481 0.37223 0.53795 0.0
O318 O 0.79238 0.40591 0.54699 0.0
O319 O 0.76026 0.46067 0.55011 0.0
O320 O 0.74996 0.3666 0.44877 0.0
O321 O 0.74758 0.42247 0.4765 0.0
Co322 Co 0.64013 0.50908 0.27569 0.0
O323 O 0.63001 0.48412 0.32307 0.0
O324 O 0.68351 0.48062 0.29186 0.0
C325 C 0.61582 0.56501 0.29443 0.0
O326 O 0.66207 0.53197 0.22719 0.0
Co327 Co 0.57716 0.54192 0.22489 0.0
O328 O 0.61875 0.56664 0.19747 0.0
C329 C 0.59244 0.45961 0.22216 0.0
C330 C 0.66405 0.47163 0.32157 0.0
C331 C 0.65219 0.55486 0.20078 0.0
O332 O 0.61997 0.464 0.24575 0.0
O333 O 0.57129 0.48659 0.21162 0.0
O334 O 0.64993 0.55647 0.30396 0.0
O335 O 0.59707 0.53909 0.27595 0.0
C336 C 0.12182 0.40611 0.37095 0.0
C337 C 0.11859 0.41771 0.33308 0.0
H338 H 0.10317 0.36731 0.41346 0.0
C339 C 0.0937 0.39792 0.30855 0.0
H340 H 0.14091 0.42081 0.39042 0.0
C341 C 0.07317 0.36656 0.32138 0.0
C342 C 0.07626 0.3551 0.35927 0.0
H343 H 0.09098 0.40597 0.27914 0.0
H344 H 0.05453 0.35153 0.30172 0.0
C345 C 0.10036 0.3755 0.3841 0.0
C346 C 0.92184 0.85202 0.61173 0.0
C347 C 0.93033 0.81319 0.6119 0.0
H348 H 0.88552 0.89541 0.59202 0.0
C349 C 0.90704 0.78774 0.59107 0.0
H350 H 0.93908 0.87234 0.62765 0.0
C351 C 0.87535 0.80097 0.57132 0.0
C352 C 0.86697 0.83995 0.57138 0.0
H353 H 0.91255 0.75759 0.59114 0.0
H354 H 0.85763 0.7808 0.5558 0.0
C355 C 0.89096 0.86524 0.59144 0.0
C356 C 0.46661 0.6336 0.76457 0.0
C357 C 0.45352 0.60573 0.78942 0.0
H358 H 0.49073 0.68871 0.75813 0.0
C359 C 0.45121 0.61489 0.82839 0.0
H360 H 0.46797 0.62786 0.73429 0.0
C361 C 0.46461 0.65036 0.84235 0.0
C362 C 0.48021 0.67708 0.81742 0.0
H363 H 0.44107 0.59401 0.84819 0.0
H364 H 0.46471 0.65596 0.87267 0.0
C365 C 0.4796 0.66867 0.77829 0.0
C366 C 0.65187 0.2071 0.11866 0.0
C367 C 0.6156 0.19565 0.10646 0.0
H368 H 0.71147 0.20118 0.11187 0.0
C369 C 0.61228 0.16732 0.07812 0.0
H370 H 0.65544 0.22914 0.14026 0.0
C371 C 0.64447 0.1506 0.06267 0.0
C372 C 0.68074 0.16261 0.07434 0.0
H373 H 0.58486 0.15794 0.06808 0.0
H374 H 0.64092 0.12885 0.04079 0.0
C375 C 0.68404 0.19121 0.10239 0.0
C376 C 0.05586 0.59479 0.21836 0.0
C377 C 0.0949 0.59333 0.21357 0.0
H378 H 1.00619 0.62796 0.21383 0.0
C379 C 0.11343 0.62427 0.19684 0.0
H380 H 0.04079 0.57157 0.23138 0.0
C381 C 0.09348 0.6565 0.18626 0.0
C382 C 0.05476 0.65877 0.1931 0.0
H383 H 0.14354 0.624 0.19286 0.0
H384 H 0.10862 0.68025 0.17428 0.0
C385 C 0.0361 0.62728 0.20862 0.0
C386 C 0.65382 0.81396 0.39826 0.0
C387 C 0.61831 0.81217 0.41568 0.0
H388 H 0.71119 0.83292 0.40226 0.0
C389 C 0.61535 0.82459 0.45367 0.0
H390 H 0.65731 0.80429 0.36915 0.0
C391 C 0.6466 0.84107 0.47265 0.0
C392 C 0.68146 0.84444 0.45431 0.0
H393 H 0.5885 0.82371 0.46787 0.0
H394 H 0.64303 0.85303 0.50091 0.0
C395 C 0.68493 0.82987 0.41732 0.0
C396 C 0.48034 0.38558 0.67092 0.0
C397 C 0.47165 0.3482 0.68143 0.0
H398 H 0.47196 0.44496 0.68194 0.0
C399 C 0.44511 0.34215 0.71004 0.0
H400 H 0.50091 0.39103 0.64911 0.0
C401 C 0.42769 0.37299 0.72796 0.0
C402 C 0.43755 0.4104 0.71853 0.0
H403 H 0.43794 0.31361 0.71863 0.0
H404 H 0.40755 0.36761 0.7502 0.0
C405 C 0.46393 0.41642 0.68977 0.0
C406 C 0.90518 0.18281 0.90744 0.0
C407 C 0.92988 0.20194 0.93275 0.0
H408 H 0.8564 0.14742 0.90013 0.0
C409 C 0.92202 0.20089 0.9719 0.0
H410 H 0.9101 0.18302 0.87713 0.0
C411 C 0.89014 0.18093 0.98516 0.0
C412 C 0.86608 0.16121 0.95952 0.0
H413 H 0.94024 0.21568 0.99211 0.0
H414 H 0.88505 0.17984 0.0154 0.0
C415 C 0.87411 0.16254 0.9206 0.0
C416 C 0.34472 0.0595 0.43002 0.0
C417 C 0.31892 0.08851 0.42367 0.0
H418 H 0.38184 0.01875 0.40488 0.0
C419 C 0.31111 0.0991 0.3862 0.0
H420 H 0.3512 0.05086 0.45865 0.0
C421 C 0.32761 0.08 0.35556 0.0
C422 C 0.35327 0.05089 0.36183 0.0
H423 H 0.29114 0.12123 0.38049 0.0
H424 H 0.3202 0.08795 0.32694 0.0
C425 C 0.36229 0.04129 0.39934 0.0
C426 C 0.21338 0.04571 0.66679 0.0
C427 C 0.18035 0.06645 0.67219 0.0
H428 H 0.26112 0.03522 0.63167 0.0
C429 C 0.17161 0.09483 0.64604 0.0
H430 H 0.22094 0.02353 0.6862 0.0
C431 C 0.19454 0.1015 0.61472 0.0
C432 C 0.22685 0.07985 0.60849 0.0
H433 H 0.1465 0.11153 0.64928 0.0
H434 H 0.18644 0.12319 0.595 0.0
C435 C 0.23628 0.05224 0.63527 0.0
C436 C 0.20816 0.92396 0.8486 0.0
C437 C 0.18058 0.95145 0.85483 0.0
H438 H 0.24652 0.88503 0.87383 0.0
C439 C 0.16983 0.96008 0.8923 0.0
H440 H 0.21691 0.91677 0.82001 0.0
C441 C 0.18751 0.94285 0.923 0.0
C442 C 0.21528 0.9156 0.91682 0.0
H443 H 0.1488 0.98132 0.89794 0.0
H444 H 0.17971 0.95108 0.95163 0.0
C445 C 0.22489 0.90568 0.87933 0.0
C446 C 0.30809 0.99045 0.10524 0.0
C447 C 0.30721 0.95133 0.09684 0.0
H448 H 0.32058 0.03448 0.14574 0.0
C449 C 0.32308 0.92643 0.12321 0.0
H450 H 0.29682 0.01059 0.08543 0.0
C451 C 0.33707 0.94042 0.15838 0.0
C452 C 0.33511 0.97939 0.16756 0.0
H453 H 0.32281 0.89612 0.11757 0.0
H454 H 0.34744 0.92066 0.17904 0.0
C455 C 0.32169 1.0042 0.13999 0.0
C456 C 0.39153 0.36227 0.09097 0.0
C457 C 0.36719 0.33714 0.07113 0.0
H458 H 0.43987 0.36916 0.12686 0.0
C459 C 0.37522 0.29807 0.07123 0.0
H460 H 0.38642 0.39252 0.09145 0.0
C461 C 0.40688 0.28465 0.09096 0.0
C462 C 0.43054 0.31001 0.11153 0.0
H463 H 0.35725 0.27801 0.05588 0.0
H464 H 0.4121 0.25445 0.09122 0.0
C465 C 0.42239 0.3489 0.11114 0.0
C466 C 0.94562 0.8409 0.21085 0.0
C467 C 0.97248 0.8469 0.18253 0.0
H468 H 0.90798 0.86646 0.25087 0.0
C469 C 0.98185 0.88428 0.17259 0.0
H470 H 0.93794 0.81235 0.21901 0.0
C471 C 0.96571 0.91514 0.19162 0.0
C472 C 0.93891 0.90918 0.22 0.0
H473 H 1.00269 0.88967 0.15102 0.0
H474 H 0.9742 0.94366 0.18417 0.0
C475 C 0.92846 0.8718 0.22894 0.0
C476 C 0.18287 0.69327 0.60062 0.0
C477 C 0.17912 0.66471 0.57258 0.0
H478 H 0.15483 0.73137 0.63876 0.0
C479 C 0.1427 0.65308 0.56107 0.0
H480 H 0.21043 0.70294 0.60998 0.0
C481 C 0.11078 0.67006 0.57674 0.0
C482 C 0.11453 0.69826 0.60515 0.0
H483 H 0.13884 0.63137 0.53918 0.0
H484 H 0.08322 0.66093 0.56687 0.0
C485 C 0.15094 0.70942 0.61712 0.0
C486 C 0.96292 0.67274 0.75772 0.0
C487 C 0.9782 0.67335 0.72093 0.0
H488 H 0.92823 0.64326 0.79715 0.0
C489 C 0.97431 0.6407 0.69756 0.0
H490 H 0.96577 0.69698 0.7769 0.0
C491 C 0.95324 0.60932 0.70985 0.0
C492 C 0.93557 0.61051 0.74538 0.0
H493 H 0.98573 0.64016 0.66914 0.0
H494 H 0.94872 0.58528 0.69069 0.0
C495 C 0.94147 0.64193 0.76955 0.0
C496 C 0.15828 0.15691 0.43386 0.0
C497 C 0.17466 0.17436 0.4662 0.0
H498 H 0.12035 0.16233 0.38692 0.0
C499 C 0.16185 0.21021 0.47817 0.0
H500 H 0.16761 0.12943 0.42374 0.0
C501 C 0.13398 0.22869 0.45739 0.0
C502 C 0.11938 0.21196 0.42389 0.0
H503 H 0.17403 0.22435 0.50295 0.0
H504 H 0.12522 0.25674 0.46639 0.0
C505 C 0.13133 0.17575 0.41265 0.0
C506 C 0.57234 0.41639 0.16872 0.0
C507 C 0.58426 0.4214 0.20663 0.0
H508 H 0.55421 0.37677 0.12509 0.0
C509 C 0.58719 0.38976 0.22993 0.0
H510 H 0.57006 0.44049 0.15021 0.0
C511 C 0.57717 0.35377 0.21591 0.0
C512 C 0.56523 0.34872 0.17807 0.0
H513 H 0.59617 0.39299 0.25926 0.0
H514 H 0.57893 0.32981 0.23467 0.0
C515 C 0.56344 0.38012 0.15433 0.0
C516 C 0.38046 0.85524 0.9363 0.0
C517 C 0.36337 0.83886 0.96796 0.0
H518 H 0.42375 0.85203 0.89496 0.0
C519 C 0.37846 0.80546 0.98274 0.0
H520 H 0.36941 0.88075 0.92396 0.0
C521 C 0.41032 0.78904 0.9662 0.0
C522 C 0.42686 0.8053 0.93409 0.0
H523 H 0.36575 0.79214 0.00706 0.0
H524 H 0.42171 0.76353 0.97821 0.0
C525 C 0.41149 0.83851 0.91941 0.0
C526 C 0.91825 0.39362 0.8414 0.0
C527 C 0.93257 0.40772 0.80727 0.0
H528 H 0.9249 0.35457 0.8867 0.0
C529 C 0.96544 0.39204 0.79225 0.0
H530 H 0.89331 0.40558 0.85401 0.0
C531 C 0.98327 0.3623 0.81079 0.0
C532 C 0.96919 0.34874 0.84526 0.0
H533 H 0.97725 0.40267 0.76619 0.0
H534 H 1.00822 0.35016 0.7984 0.0
C535 C 0.93664 0.3648 0.86044 0.0
C536 C 0.40848 0.16843 0.54986 0.0
C537 C 0.36953 0.17269 0.55368 0.0
H538 H 0.46324 0.18613 0.56898 0.0
C539 C 0.35604 0.20142 0.57795 0.0
H540 H 0.41965 0.14663 0.53121 0.0
C541 C 0.38095 0.2235 0.6001 0.0
C542 C 0.41983 0.21792 0.5977 0.0
H543 H 0.32617 0.2053 0.58157 0.0
H544 H 0.36974 0.24405 0.62011 0.0
C545 C 0.43343 0.19117 0.57132 0.0
C546 C 0.58956 0.65271 0.35109 0.0
C547 C 0.56294 0.66893 0.32698 0.0
H548 H 0.6284 0.60738 0.35886 0.0
C549 C 0.55396 0.65091 0.29223 0.0
H550 H 0.59733 0.66659 0.37773 0.0
C551 C 0.57108 0.61694 0.28182 0.0
C552 C 0.59846 0.60119 0.30537 0.0
H553 H 0.53379 0.66325 0.27306 0.0
H554 H 0.56345 0.6034 0.25498 0.0
C555 C 0.60764 0.6193 0.34008 0.0
C556 C 0.13313 0.83235 0.11555 0.0
C557 C 0.11568 0.80083 0.09754 0.0
H558 H 0.17142 0.87928 0.11031 0.0
C559 C 0.12722 0.79008 0.06079 0.0
H560 H 0.12483 0.84153 0.14374 0.0
C561 C 0.15466 0.81144 0.04192 0.0
C562 C 0.17013 0.84427 0.05926 0.0
H563 H 0.1142 0.76596 0.04619 0.0
H564 H 0.16232 0.8035 0.01318 0.0
C565 C 0.15968 0.8541 0.0964 0.0
C566 C 0.74562 0.92245 0.63614 0.0
C567 C 0.72825 0.93859 0.60452 0.0
H568 H 0.74977 0.92107 0.69672 0.0
C569 C 0.69938 0.96486 0.61049 0.0
H570 H 0.76793 0.90215 0.63251 0.0
C571 C 0.68874 0.97548 0.6472 0.0
C572 C 0.70702 0.96042 0.67885 0.0
H573 H 0.68514 0.9776 0.58673 0.0
H574 H 0.66687 0.99628 0.65069 0.0
C575 C 0.73529 0.93344 0.67293 0.0
C576 C 0.87403 0.93034 0.37958 0.0
C577 C 0.85842 0.96327 0.36449 0.0
H578 H 0.86918 0.88598 0.41991 0.0
C579 C 0.8249 0.97715 0.3799 0.0
H580 H 0.89952 0.91858 0.36796 0.0
C581 C 0.80774 0.95864 0.41034 0.0
C582 C 0.82319 0.92532 0.42485 0.0
H583 H 0.81211 1.00228 0.36855 0.0
H584 H 0.78223 0.97008 0.42222 0.0
C585 C 0.85638 0.91133 0.40904 0.0
C586 C 0.83833 0.01331 0.09438 0.0
C587 C 0.81878 0.0478 0.09567 0.0
H588 H 0.87505 0.97565 0.12298 0.0
C589 C 0.81771 0.06836 0.13029 0.0
H590 H 0.83957 0.99625 0.06855 0.0
C591 C 0.83774 0.05575 0.16207 0.0
C592 C 0.85943 0.02281 0.15937 0.0
H593 H 0.80282 0.09489 0.13238 0.0
H594 H 0.83815 0.07294 0.18787 0.0
C595 C 0.85869 1.00126 0.12563 0.0
C596 C 0.72424 0.04614 0.87064 0.0
C597 C 0.6909 0.06147 0.85658 0.0
H598 H 0.76642 0.0487 0.91426 0.0
C599 C 0.67554 0.09333 0.8749 0.0
H600 H 0.7367 0.02167 0.85689 0.0
C601 C 0.69315 0.10949 0.90695 0.0
C602 C 0.72584 0.09342 0.9217 0.0
H603 H 0.65006 0.10592 0.8643 0.0
H604 H 0.68045 0.13369 0.92094 0.0
C605 C 0.7413 0.06168 0.90327 0.0
C606 C 0.63235 0.67693 0.90986 0.0
C607 C 0.61919 0.71242 0.92199 0.0
H608 H 0.66937 0.6311 0.92042 0.0
C609 C 0.63249 0.72831 0.95642 0.0
H610 H 0.62236 0.66413 0.88342 0.0
C611 C 0.66025 0.70978 0.97733 0.0
C612 C 0.67417 0.67465 0.96456 0.0
H613 H 0.62277 0.75578 0.96616 0.0
H614 H 0.67142 0.7233 1.00291 0.0
C615 C 0.65912 0.65799 0.93118 0.0
C616 C 0.10784 0.12101 0.84109 0.0
C617 C 0.09899 0.10263 0.80643 0.0
H618 H 0.09714 0.16859 0.87826 0.0
C619 C 0.07186 0.11821 0.78248 0.0
H620 H 0.12839 0.10922 0.86019 0.0
C621 C 0.05462 0.15223 0.79244 0.0
C622 C 0.06324 0.17052 0.82713 0.0
H623 H 0.06448 0.10448 0.75566 0.0
H624 H 0.03462 0.16436 0.77296 0.0
C625 C 0.08964 0.15451 0.85164 0.0
C626 C 0.91175 0.33806 0.41953 0.0
C627 C 0.92702 0.30496 0.43458 0.0
H628 H 0.86976 0.38043 0.42357 0.0
C629 C 0.91037 0.28905 0.46681 0.0
H630 H 0.92409 0.35133 0.39498 0.0
C631 C 0.8785 0.3057 0.48311 0.0
C632 C 0.86352 0.33899 0.46796 0.0
H633 H 0.92168 0.26365 0.4791 0.0
H634 H 0.86571 0.29266 0.50754 0.0
C635 C 0.88071 0.35501 0.43618 0.0
C636 C 0.62175 0.90681 0.87078 0.0
C637 C 0.61854 0.91879 0.83305 0.0
H638 H 0.60301 0.86763 0.91291 0.0
C639 C 0.5936 0.89931 0.80834 0.0
H640 H 0.64088 0.92126 0.89039 0.0
C641 C 0.57298 0.86786 0.82086 0.0
C642 C 0.57605 0.85601 0.85864 0.0
H643 H 0.59089 0.90765 0.77901 0.0
H644 H 0.55429 0.85307 0.80107 0.0
C645 C 0.60021 0.87611 0.88363 0.0
C646 C 0.96515 0.14943 0.34367 0.0
C647 C 0.98084 0.1761 0.31874 0.0
H648 H 0.94175 0.09302 0.34954 0.0
C649 C 0.98044 0.16759 0.27963 0.0
H650 H 0.9651 0.1551 0.37397 0.0
C651 C 0.96763 0.13244 0.26595 0.0
C652 C 0.95449 0.10462 0.29081 0.0
H653 H 0.99163 0.18759 0.25948 0.0
H654 H 0.9692 0.12658 0.2357 0.0
C655 C 0.95192 0.11389 0.32974 0.0
C656 C 0.55644 0.09687 0.71919 0.0
C657 C 0.59553 0.09551 0.71481 0.0
H658 H 0.50673 0.1299 0.71412 0.0
C659 C 0.61416 0.12652 0.69831 0.0
H660 H 0.54127 0.0736 0.732 0.0
C661 C 0.59424 0.15871 0.68753 0.0
C662 C 0.55544 0.16086 0.69393 0.0
H663 H 0.64431 0.12632 0.69464 0.0
H664 H 0.60944 0.18251 0.67572 0.0
C665 C 0.5367 0.12931 0.70925 0.0
C666 C 0.18097 0.34939 0.90731 0.0
C667 C 0.18503 0.34812 0.94679 0.0
H668 H 0.14724 0.33696 0.85874 0.0
C669 C 0.1566 0.33029 0.96797 0.0
H670 H 0.20209 0.36341 0.89033 0.0
C671 C 0.12401 0.31531 0.94975 0.0
C672 C 0.11938 0.31811 0.9101 0.0
H673 H 0.15863 0.32976 0.99864 0.0
H674 H 0.10212 0.30265 0.96673 0.0
C675 C 0.14897 0.33453 0.88929 0.0
C676 C 0.41955 0.69989 0.47036 0.0
C677 C 0.42835 0.69958 0.4314 0.0
H678 H 0.38167 0.68025 0.51367 0.0
C679 C 0.40457 0.67923 0.40617 0.0
H680 H 0.43707 0.71568 0.49047 0.0
C681 C 0.37343 0.65906 0.41931 0.0
C682 C 0.3644 0.65917 0.45807 0.0
H683 H 0.41031 0.67843 0.376 0.0
H684 H 0.35637 0.64299 0.39897 0.0
C685 C 0.38757 0.68015 0.48355 0.0
C686 C 0.82776 0.58167 0.85464 0.0
C687 C 0.85346 0.55258 0.86087 0.0
H688 H 0.79109 0.62266 0.87966 0.0
C689 C 0.8624 0.54284 0.89835 0.0
H690 H 0.82042 0.58972 0.82604 0.0
C691 C 0.84468 0.56084 0.92906 0.0
C692 C 0.81881 0.5898 0.92275 0.0
H693 H 0.88199 0.52032 0.90386 0.0
H694 H 0.85108 0.55207 0.95766 0.0
C695 C 0.81111 0.60057 0.88532 0.0
C696 C 0.71248 0.54476 0.16512 0.0
C697 C 0.67924 0.56514 0.17048 0.0
H698 H 0.76042 0.53486 0.1301 0.0
C699 C 0.67023 0.59344 0.14433 0.0
H700 H 0.72026 0.52266 0.18453 0.0
C701 C 0.69315 0.6004 0.11308 0.0
C702 C 0.72572 0.57916 0.10691 0.0
H703 H 0.64493 0.60986 0.14753 0.0
H704 H 0.68487 0.62204 0.09336 0.0
C705 C 0.73538 0.55159 0.13366 0.0
C706 C 0.68788 0.44313 0.42194 0.0
C707 C 0.71564 0.41584 0.41596 0.0
H708 H 0.64902 0.48125 0.39658 0.0
C709 C 0.72512 0.4055 0.37854 0.0
H710 H 0.68019 0.45168 0.4505 0.0
C711 C 0.70824 0.42339 0.34765 0.0
C712 C 0.68064 0.4509 0.35368 0.0
H713 H 0.74673 0.38479 0.3732 0.0
H714 H 0.71687 0.41587 0.3191 0.0
C715 C 0.67006 0.45998 0.39109 0.0
C716 C 0.82232 0.50559 0.63896 0.0
C717 C 0.8356 0.48081 0.66662 0.0
H718 H 0.79759 0.51193 0.58432 0.0
C719 C 0.83745 0.44182 0.65755 0.0
H720 H 0.8213 0.53589 0.64463 0.0
C721 C 0.82349 0.42778 0.62238 0.0
C722 C 0.80776 0.45266 0.5959 0.0
H723 H 0.84771 0.42207 0.67829 0.0
H724 H 0.82314 0.39746 0.61682 0.0
C725 C 0.80875 0.4918 0.6042 0.0
C726 C 0.45368 0.1071 0.21125 0.0
C727 C 0.43542 0.10878 0.24646 0.0
H728 H 0.48681 0.1374 0.17065 0.0
C729 C 0.44091 0.14053 0.27027 0.0
H730 H 0.44953 0.08278 0.19238 0.0
C731 C 0.46253 0.17118 0.25837 0.0
C732 C 0.47841 0.1713 0.22182 0.0
H733 H 0.42723 0.14223 0.29763 0.0
H734 H 0.46504 0.19568 0.27727 0.0
C735 C 0.47492 0.13833 0.19885 0.0
C736 C 0.06371 0.88248 0.65491 0.0
C737 C 0.06524 0.85093 0.67848 0.0
H738 H 0.07072 0.94283 0.65116 0.0
C739 C 0.07713 0.85568 0.71637 0.0
H740 H 0.05453 0.87936 0.62563 0.0
C741 C 0.08734 0.89152 0.73061 0.0
C742 C 0.08467 0.92331 0.70748 0.0
H743 H 0.0787 0.83159 0.73498 0.0
H744 H 0.09626 0.89453 0.75998 0.0
C745 C 0.0728 0.9186 0.66952 0.0
C746 C 0.43596 0.86238 0.36041 0.0
C747 C 0.46877 0.84668 0.34541 0.0
H748 H 0.39246 0.90296 0.35398 0.0
C749 C 0.48308 0.86064 0.31121 0.0
H750 H 0.42403 0.85184 0.38646 0.0
C751 C 0.46523 0.89044 0.29278 0.0
C752 C 0.43214 0.9058 0.30766 0.0
H753 H 0.50823 0.84877 0.29896 0.0
H754 H 0.47723 0.9014 0.26695 0.0
C755 C 0.41758 0.89127 0.34148 0.0
C756 C 0.85508 0.70102 0.07845 0.0
C757 C 0.8685 0.67293 0.05342 0.0
H758 H 0.86894 0.74283 0.12138 0.0
C759 C 0.90744 0.66902 0.04908 0.0
H760 H 0.82522 0.70459 0.08248 0.0
C761 C 0.93246 0.69146 0.07076 0.0
C762 C 0.91898 0.71754 0.09786 0.0
H763 H 0.91854 0.64771 0.02983 0.0
H764 H 0.96228 0.68667 0.06795 0.0
C765 C 0.88008 0.7228 0.10081 0.0
C766 C 0.63196 0.33566 0.61484 0.0
C767 C 0.61581 0.30303 0.59765 0.0
H768 H 0.66921 0.3833 0.60882 0.0
C769 C 0.62852 0.29123 0.56162 0.0
H770 H 0.6227 0.34567 0.64244 0.0
C771 C 0.65595 0.31254 0.54267 0.0
C772 C 0.67017 0.34638 0.55912 0.0
H773 H 0.61649 0.26625 0.54767 0.0
H774 H 0.66462 0.30368 0.5145 0.0
C775 C 0.65844 0.35735 0.59556 0.0
C776 C 0.19978 0.46303 0.10999 0.0
C777 C 0.2288 0.43691 0.10415 0.0
H778 H 0.16692 0.49424 0.15003 0.0
C779 C 0.24596 0.42066 0.13582 0.0
H780 H 0.1857 0.47584 0.08617 0.0
C781 C 0.23535 0.43151 0.17257 0.0
C782 C 0.20701 0.45844 0.17837 0.0
H783 H 0.26838 0.40047 0.13227 0.0
H784 H 0.24972 0.41912 0.19643 0.0
C785 C 0.18885 0.47349 0.14664 0.0
C786 C 0.37534 0.43047 0.87911 0.0
C787 C 0.35953 0.46355 0.86455 0.0
H788 H 0.371 0.38575 0.91917 0.0
C789 C 0.32631 0.47737 0.88065 0.0
H790 H 0.40061 0.41876 0.86694 0.0
C791 C 0.30961 0.45865 0.91119 0.0
C792 C 0.32521 0.42516 0.92516 0.0
H793 H 0.31336 0.50261 0.86973 0.0
H794 H 0.2843 0.47004 0.92356 0.0
C795 C 0.35812 0.41124 0.90871 0.0
C796 C 0.33057 0.51244 0.5968 0.0
C797 C 0.31449 0.54875 0.59651 0.0
H798 H 0.36508 0.47342 0.62647 0.0
C799 C 0.31667 0.57146 0.62977 0.0
H800 H 0.32907 0.49375 0.57209 0.0
C801 C 0.33687 0.5591 0.66151 0.0
C802 C 0.35537 0.52415 0.66013 0.0
H803 H 0.30454 0.59947 0.6306 0.0
H804 H 0.34013 0.57787 0.68603 0.0
C805 C 0.35112 0.50054 0.62803 0.0
C806 C 0.17479 0.59268 0.37316 0.0
C807 C 0.19014 0.5605 0.35541 0.0
H808 H 0.17942 0.63349 0.41881 0.0
C809 C 0.22317 0.54506 0.37005 0.0
H810 H 0.14955 0.60536 0.36209 0.0
C811 C 0.23991 0.5608 0.40275 0.0
C812 C 0.22444 0.59284 0.42063 0.0
H813 H 0.2356 0.52035 0.35672 0.0
H814 H 0.26477 0.54774 0.41423 0.0
C815 C 0.1921 0.60903 0.40526 0.0
loop_
_geom_bond_atom_site_label_1
_geom_bond_atom_site_label_2
_geom_bond_distance
_geom_bond_site_symmetry_2
_ccdc_geom_bond_type
Co0 O1 2.197 1_455 S
Co0 O2 2.078 1_455 S
Co0 O4 2.021 . S
Co0 O10 2.013 1_455 S
Co0 O12 2.146 . S
Co0 O13 2.254 . S
O1 Co0 2.197 1_655 S
O1 C8 1.247 . S
O2 Co0 2.078 1_655 S
O2 C8 1.261 . S
C3 O12 1.247 . S
C3 O13 1.272 . S
O4 Co0 2.021 . S
O4 C9 1.259 . S
Co5 O6 2.061 . S
Co5 O11 2.052 . S
Co5 O13 2.135 . S
O6 Co5 2.061 . S
O6 C9 1.235 . S
C7 O10 1.238 . S
C7 O11 1.241 1_655 S
C8 O1 1.247 . S
C8 O2 1.261 . S
C9 O4 1.259 . S
C9 O6 1.235 . S
O10 Co0 2.013 1_655 S
O10 C7 1.238 . S
O11 Co5 2.052 . S
O11 C7 1.241 1_455 S
O12 Co0 2.146 . S
O12 C3 1.247 . S
O13 Co0 2.254 . S
O13 C3 1.272 . S
O13 Co5 2.135 . S
Co14 O15 2.216 . S
Co14 O16 2.091 . S
Co14 O18 2.004 1_455 S
Co14 O24 2.021 1_455 S
Co14 O26 2.137 . S
Co14 O27 2.244 . S
O15 Co14 2.216 . S
O15 C22 1.247 . S
O16 Co14 2.091 . S
O16 C22 1.261 . S
C17 O26 1.247 . S
C17 O27 1.272 . S
O18 Co14 2.004 1_655 S
O18 C23 1.259 . S
Co19 O20 2.061 . S
Co19 O25 2.052 . S
Co19 O27 2.135 1_655 S
O20 Co19 2.061 . S
O20 C23 1.235 . S
C21 O24 1.238 . S
C21 O25 1.241 . S
C22 O15 1.247 . S
C22 O16 1.261 . S
C23 O18 1.259 . S
C23 O20 1.235 . S
O24 Co14 2.021 1_655 S
O24 C21 1.238 . S
O25 Co19 2.052 . S
O25 C21 1.241 . S
O26 Co14 2.137 . S
O26 C17 1.247 . S
O27 Co14 2.244 . S
O27 C17 1.272 . S
O27 Co19 2.135 1_455 S
Co28 O29 2.216 . S
Co28 O30 2.091 . S
Co28 O32 2.004 . S
Co28 O38 2.021 . S
Co28 O40 2.137 . S
Co28 O41 2.244 . S
O29 Co28 2.216 . S
O29 C36 1.247 . S
O30 Co28 2.091 . S
O30 C36 1.261 . S
C31 O40 1.247 . S
C31 O41 1.272 . S
O32 Co28 2.004 . S
O32 C37 1.259 . S
Co33 O34 2.061 . S
Co33 O39 2.052 . S
Co33 O41 2.135 . S
O34 Co33 2.061 . S
O34 C37 1.235 . S
C35 O38 1.238 . S
C35 O39 1.241 . S
C36 O29 1.247 . S
C36 O30 1.261 . S
C37 O32 1.259 . S
C37 O34 1.235 . S
O38 Co28 2.021 . S
O38 C35 1.238 . S
O39 Co33 2.052 . S
O39 C35 1.241 . S
O40 Co28 2.137 . S
O40 C31 1.247 . S
O41 Co28 2.244 . S
O41 C31 1.272 . S
O41 Co33 2.135 . S
Co42 O43 2.216 . S
Co42 O44 2.091 . S
Co42 O46 2.004 . S
Co42 O52 2.021 . S
Co42 O54 2.137 . S
Co42 O55 2.244 . S
O43 Co42 2.216 . S
O43 C50 1.247 . S
O44 Co42 2.091 . S
O44 C50 1.261 . S
C45 O54 1.247 . S
C45 O55 1.272 . S
O46 Co42 2.004 . S
O46 C51 1.259 . S
Co47 O48 2.061 . S
Co47 O53 2.052 . S
Co47 O55 2.135 . S
O48 Co47 2.061 . S
O48 C51 1.235 . S
C49 O52 1.238 . S
C49 O53 1.241 . S
C50 O43 1.247 . S
C50 O44 1.261 . S
C51 O46 1.259 . S
C51 O48 1.235 . S
O52 Co42 2.021 . S
O52 C49 1.238 . S
O53 Co47 2.052 . S
O53 C49 1.241 . S
O54 Co42 2.137 . S
O54 C45 1.247 . S
O55 Co42 2.244 . S
O55 C45 1.272 . S
O55 Co47 2.135 . S
Co56 O57 2.216 . S
Co56 O58 2.091 . S
Co56 O60 2.004 1_455 S
Co56 O66 2.021 . S
Co56 O68 2.137 1_455 S
Co56 O69 2.244 1_455 S
O57 Co56 2.216 . S
O57 C64 1.247 . S
O58 Co56 2.091 . S
O58 C64 1.261 . S
C59 O68 1.247 . S
C59 O69 1.272 . S
O60 Co56 2.004 1_655 S
O60 C65 1.259 . S
Co61 O62 2.061 . S
Co61 O67 2.052 1_655 S
Co61 O69 2.135 . S
O62 Co61 2.061 . S
O62 C65 1.235 . S
C63 O66 1.238 . S
C63 O67 1.241 . S
C64 O57 1.247 . S
C64 O58 1.261 . S
C65 O60 1.259 . S
C65 O62 1.235 . S
O66 Co56 2.021 . S
O66 C63 1.238 . S
O67 Co61 2.052 1_455 S
O67 C63 1.241 . S
O68 Co56 2.137 1_655 S
O68 C59 1.247 . S
O69 Co56 2.244 1_655 S
O69 C59 1.272 . S
O69 Co61 2.135 . S
Co70 O71 2.216 . S
Co70 O72 2.091 . S
Co70 O74 2.004 . S
Co70 O80 2.021 . S
Co70 O82 2.137 . S
Co70 O83 2.244 . S
O71 Co70 2.216 . S
O71 C78 1.247 . S
O72 Co70 2.091 . S
O72 C78 1.261 . S
C73 O82 1.247 . S
C73 O83 1.272 . S
O74 Co70 2.004 . S
O74 C79 1.259 . S
Co75 O76 2.061 . S
Co75 O81 2.052 . S
Co75 O83 2.135 . S
O76 Co75 2.061 . S
O76 C79 1.235 . S
C77 O80 1.238 . S
C77 O81 1.241 . S
C78 O71 1.247 . S
C78 O72 1.261 . S
C79 O74 1.259 . S
C79 O76 1.235 . S
O80 Co70 2.021 . S
O80 C77 1.238 . S
O81 Co75 2.052 . S
O81 C77 1.241 . S
O82 Co70 2.137 . S
O82 C73 1.247 . S
O83 Co70 2.244 . S
O83 C73 1.272 . S
O83 Co75 2.135 . S
Co84 O85 2.216 . S
Co84 O86 2.091 . S
Co84 O88 2.004 . S
Co84 O94 2.021 . S
Co84 O96 2.137 . S
Co84 O97 2.244 . S
O85 Co84 2.216 . S
O85 C92 1.247 . S
O86 Co84 2.091 . S
O86 C92 1.261 . S
C87 O96 1.247 . S
C87 O97 1.272 . S
O88 Co84 2.004 . S
O88 C93 1.259 . S
Co89 O90 2.061 . S
Co89 O95 2.052 . S
Co89 O97 2.135 . S
O90 Co89 2.061 . S
O90 C93 1.235 . S
C91 O94 1.238 . S
C91 O95 1.241 . S
C92 O85 1.247 . S
C92 O86 1.261 . S
C93 O88 1.259 . S
C93 O90 1.235 . S
O94 Co84 2.021 . S
O94 C91 1.238 . S
O95 Co89 2.052 . S
O95 C91 1.241 . S
O96 Co84 2.137 . S
O96 C87 1.247 . S
O97 Co84 2.244 . S
O97 C87 1.272 . S
O97 Co89 2.135 . S
Co98 O99 2.216 . S
Co98 O100 2.091 . S
Co98 O102 2.004 1_655 S
Co98 O108 2.021 1_655 S
Co98 O110 2.137 . S
Co98 O111 2.243 1_655 S
O99 Co98 2.216 . S
O99 C106 1.247 . S
O100 Co98 2.091 . S
O100 C106 1.261 . S
C101 O110 1.247 . S
C101 O111 1.266 1_655 S
O102 Co98 2.004 1_455 S
O102 C107 1.259 . S
Co103 O104 2.061 . S
Co103 O109 2.052 . S
Co103 O111 2.142 . S
O104 Co103 2.061 . S
O104 C107 1.235 . S
C105 O108 1.238 . S
C105 O109 1.241 . S
C106 O99 1.247 . S
C106 O100 1.261 . S
C107 O102 1.259 . S
C107 O104 1.235 . S
O108 Co98 2.021 1_455 S
O108 C105 1.238 . S
O109 Co103 2.052 . S
O109 C105 1.241 . S
O110 Co98 2.137 . S
O110 C101 1.247 . S
O111 Co98 2.243 1_455 S
O111 C101 1.266 1_455 S
O111 Co103 2.142 . S
Co112 O113 2.216 . S
Co112 O114 2.091 . S
Co112 O116 2.004 1_565 S
Co112 O122 2.021 . S
Co112 O124 2.137 1_565 S
Co112 O125 2.244 1_565 S
O113 Co112 2.216 . S
O113 C120 1.247 . S
O114 Co112 2.091 . S
O114 C120 1.261 . S
C115 O124 1.247 . S
C115 O125 1.272 . S
O116 Co112 2.004 1_545 S
O116 C121 1.259 . S
Co117 O118 2.061 . S
Co117 O123 2.052 . S
Co117 O125 2.135 . S
O118 Co117 2.061 . S
O118 C121 1.235 . S
C119 O122 1.238 . S
C119 O123 1.241 1_565 S
C120 O113 1.247 . S
C120 O114 1.261 . S
C121 O116 1.259 . S
C121 O118 1.235 . S
O122 Co112 2.021 . S
O122 C119 1.238 . S
O123 Co117 2.052 . S
O123 C119 1.241 1_545 S
O124 Co112 2.137 1_545 S
O124 C115 1.247 . S
O125 Co112 2.244 1_545 S
O125 C115 1.272 . S
O125 Co117 2.135 . S
Co126 O127 2.216 . S
Co126 O128 2.091 . S
Co126 O130 2.004 . S
Co126 O136 2.021 . S
Co126 O138 2.137 . S
Co126 O139 2.244 . S
O127 Co126 2.216 . S
O127 C134 1.247 . S
O128 Co126 2.091 . S
O128 C134 1.261 . S
C129 O138 1.247 . S
C129 O139 1.272 . S
O130 Co126 2.004 . S
O130 C135 1.259 . S
Co131 O132 2.061 . S
Co131 O137 2.052 . S
Co131 O139 2.135 . S
O132 Co131 2.061 . S
O132 C135 1.235 . S
C133 O136 1.238 . S
C133 O137 1.241 . S
C134 O127 1.247 . S
C134 O128 1.261 . S
C135 O130 1.259 . S
C135 O132 1.235 . S
O136 Co126 2.021 . S
O136 C133 1.238 . S
O137 Co131 2.052 . S
O137 C133 1.241 . S
O138 Co126 2.137 . S
O138 C129 1.247 . S
O139 Co126 2.244 . S
O139 C129 1.272 . S
O139 Co131 2.135 . S
Co140 O141 2.216 1_545 S
Co140 O142 2.091 1_545 S
Co140 O144 2.004 . S
Co140 O150 2.021 1_545 S
Co140 O152 2.137 . S
Co140 O153 2.244 . S
O141 Co140 2.216 1_565 S
O141 C148 1.247 . S
O142 Co140 2.091 1_565 S
O142 C148 1.261 . S
C143 O152 1.247 . S
C143 O153 1.272 . S
O144 Co140 2.004 . S
O144 C149 1.259 . S
Co145 O146 2.061 . S
Co145 O151 2.052 1_545 S
Co145 O153 2.135 . S
O146 Co145 2.061 . S
O146 C149 1.235 . S
C147 O150 1.238 . S
C147 O151 1.241 . S
C148 O141 1.247 . S
C148 O142 1.261 . S
C149 O144 1.259 . S
C149 O146 1.235 . S
O150 Co140 2.021 1_565 S
O150 C147 1.238 . S
O151 Co145 2.052 1_565 S
O151 C147 1.241 . S
O152 Co140 2.137 . S
O152 C143 1.247 . S
O153 Co140 2.244 . S
O153 C143 1.272 . S
O153 Co145 2.135 . S
Co154 O155 2.216 1_554 S
Co154 O156 2.091 1_554 S
Co154 O158 2.004 . S
Co154 O164 2.021 . S
Co154 O166 2.137 1_554 S
Co154 O167 2.244 1_554 S
O155 Co154 2.216 1_556 S
O155 C162 1.247 . S
O156 Co154 2.091 1_556 S
O156 C162 1.261 . S
C157 O166 1.247 . S
C157 O167 1.272 . S
O158 Co154 2.004 . S
O158 C163 1.259 . S
Co159 O160 2.061 . S
Co159 O165 2.052 . S
Co159 O167 2.135 1_554 S
O160 Co159 2.061 . S
O160 C163 1.235 . S
C161 O164 1.238 . S
C161 O165 1.241 . S
C162 O155 1.247 . S
C162 O156 1.261 . S
C163 O158 1.259 . S
C163 O160 1.235 . S
O164 Co154 2.021 . S
O164 C161 1.238 . S
O165 Co159 2.052 . S
O165 C161 1.241 . S
O166 Co154 2.137 1_556 S
O166 C157 1.247 . S
O167 Co154 2.244 1_556 S
O167 C157 1.272 . S
O167 Co159 2.135 1_556 S
Co168 O169 2.216 . S
Co168 O170 2.091 . S
Co168 O172 2.004 1_554 S
Co168 O178 2.021 . S
Co168 O180 2.137 1_554 S
Co168 O181 2.244 1_554 S
O169 Co168 2.216 . S
O169 C176 1.247 . S
O170 Co168 2.091 . S
O170 C176 1.261 . S
C171 O180 1.247 . S
C171 O181 1.272 . S
O172 Co168 2.004 1_556 S
O172 C177 1.259 . S
Co173 O174 2.061 . S
Co173 O179 2.052 1_556 S
Co173 O181 2.135 . S
O174 Co173 2.061 . S
O174 C177 1.235 . S
C175 O178 1.238 . S
C175 O179 1.241 . S
C176 O169 1.247 . S
C176 O170 1.261 . S
C177 O172 1.259 . S
C177 O174 1.235 . S
O178 Co168 2.021 . S
O178 C175 1.238 . S
O179 Co173 2.052 1_554 S
O179 C175 1.241 . S
O180 Co168 2.137 1_556 S
O180 C171 1.247 . S
O181 Co168 2.244 1_556 S
O181 C171 1.272 . S
O181 Co173 2.135 . S
Co182 O183 2.216 . S
Co182 O184 2.091 . S
Co182 O186 2.004 1_554 S
Co182 O192 2.021 . S
Co182 O194 2.137 1_554 S
Co182 O195 2.244 1_554 S
O183 Co182 2.216 . S
O183 C190 1.247 . S
O184 Co182 2.091 . S
O184 C190 1.261 . S
C185 O194 1.247 . S
C185 O195 1.272 . S
O186 Co182 2.004 1_556 S
O186 C191 1.259 . S
Co187 O188 2.061 . S
Co187 O193 2.052 1_556 S
Co187 O195 2.135 . S
O188 Co187 2.061 . S
O188 C191 1.235 . S
C189 O192 1.238 . S
C189 O193 1.241 . S
C190 O183 1.247 . S
C190 O184 1.261 . S
C191 O186 1.259 . S
C191 O188 1.235 . S
O192 Co182 2.021 . S
O192 C189 1.238 . S
O193 Co187 2.052 1_554 S
O193 C189 1.241 . S
O194 Co182 2.137 1_556 S
O194 C185 1.247 . S
O195 Co182 2.244 1_556 S
O195 C185 1.272 . S
O195 Co187 2.135 . S
Co196 O197 2.216 . S
Co196 O198 2.091 . S
Co196 O200 2.004 . S
Co196 O206 2.021 . S
Co196 O208 2.137 . S
Co196 O209 2.244 . S
O197 Co196 2.216 . S
O197 C204 1.247 . S
O198 Co196 2.091 . S
O198 C204 1.261 . S
C199 O208 1.247 . S
C199 O209 1.272 . S
O200 Co196 2.004 . S
O200 C205 1.259 . S
Co201 O202 2.061 . S
Co201 O207 2.052 . S
Co201 O209 2.135 . S
O202 Co201 2.061 . S
O202 C205 1.235 . S
C203 O206 1.238 . S
C203 O207 1.241 . S
C204 O197 1.247 . S
C204 O198 1.261 . S
C205 O200 1.259 . S
C205 O202 1.235 . S
O206 Co196 2.021 . S
O206 C203 1.238 . S
O207 Co201 2.052 . S
O207 C203 1.241 . S
O208 Co196 2.137 . S
O208 C199 1.247 . S
O209 Co196 2.244 . S
O209 C199 1.272 . S
O209 Co201 2.135 . S
Co210 O211 2.216 . S
Co210 O212 2.091 . S
Co210 O214 2.004 . S
Co210 O220 2.021 . S
Co210 O222 2.137 . S
Co210 O223 2.244 . S
O211 Co210 2.216 . S
O211 C218 1.247 . S
O212 Co210 2.091 . S
O212 C218 1.261 . S
C213 O222 1.247 . S
C213 O223 1.272 . S
O214 Co210 2.004 . S
O214 C219 1.259 . S
Co215 O216 2.061 . S
Co215 O221 2.052 . S
Co215 O223 2.135 . S
O216 Co215 2.061 . S
O216 C219 1.235 . S
C217 O220 1.238 . S
C217 O221 1.241 . S
C218 O211 1.247 . S
C218 O212 1.261 . S
C219 O214 1.259 . S
C219 O216 1.235 . S
O220 Co210 2.021 . S
O220 C217 1.238 . S
O221 Co215 2.052 . S
O221 C217 1.241 . S
O222 Co210 2.137 . S
O222 C213 1.247 . S
O223 Co210 2.244 . S
O223 C213 1.272 . S
O223 Co215 2.135 . S
Co224 O225 2.216 . S
Co224 O226 2.091 . S
Co224 O228 2.004 1_565 S
Co224 O234 2.021 1_565 S
Co224 O236 2.137 . S
Co224 O237 2.244 . S
O225 Co224 2.216 . S
O225 C232 1.247 . S
O226 Co224 2.091 . S
O226 C232 1.261 . S
C227 O236 1.247 . S
C227 O237 1.272 . S
O228 Co224 2.004 1_545 S
O228 C233 1.259 . S
Co229 O230 2.061 . S
Co229 O235 2.052 . S
Co229 O237 2.135 1_545 S
O230 Co229 2.061 . S
O230 C233 1.235 . S
C231 O234 1.238 . S
C231 O235 1.241 . S
C232 O225 1.247 . S
C232 O226 1.261 . S
C233 O228 1.259 . S
C233 O230 1.235 . S
O234 Co224 2.021 1_545 S
O234 C231 1.238 . S
O235 Co229 2.052 . S
O235 C231 1.241 . S
O236 Co224 2.137 . S
O236 C227 1.247 . S
O237 Co224 2.244 . S
O237 C227 1.272 . S
O237 Co229 2.135 1_565 S
Co238 O239 2.216 . S
Co238 O240 2.091 . S
Co238 O242 2.004 . S
Co238 O248 2.021 . S
Co238 O250 2.137 . S
Co238 O251 2.244 . S
O239 Co238 2.216 . S
O239 C246 1.247 . S
O240 Co238 2.091 . S
O240 C246 1.261 . S
C241 O250 1.247 . S
C241 O251 1.272 . S
O242 Co238 2.004 . S
O242 C247 1.259 . S
Co243 O244 2.061 . S
Co243 O249 2.052 . S
Co243 O251 2.135 . S
O244 Co243 2.061 . S
O244 C247 1.235 . S
C245 O248 1.238 . S
C245 O249 1.241 . S
C246 O239 1.247 . S
C246 O240 1.261 . S
C247 O242 1.259 . S
C247 O244 1.235 . S
O248 Co238 2.021 . S
O248 C245 1.238 . S
O249 Co243 2.052 . S
O249 C245 1.241 . S
O250 Co238 2.137 . S
O250 C241 1.247 . S
O251 Co238 2.244 . S
O251 C241 1.272 . S
O251 Co243 2.135 . S
Co252 O253 2.216 . S
Co252 O254 2.091 . S
Co252 O256 2.004 . S
Co252 O262 2.021 . S
Co252 O264 2.137 . S
Co252 O265 2.244 . S
O253 Co252 2.216 . S
O253 C260 1.247 . S
O254 Co252 2.091 . S
O254 C260 1.261 . S
C255 O264 1.247 . S
C255 O265 1.272 . S
O256 Co252 2.004 . S
O256 C261 1.259 . S
Co257 O258 2.061 . S
Co257 O263 2.052 . S
Co257 O265 2.135 . S
O258 Co257 2.061 . S
O258 C261 1.235 . S
C259 O262 1.238 . S
C259 O263 1.241 . S
C260 O253 1.247 . S
C260 O254 1.261 . S
C261 O256 1.259 . S
C261 O258 1.235 . S
O262 Co252 2.021 . S
O262 C259 1.238 . S
O263 Co257 2.052 . S
O263 C259 1.241 . S
O264 Co252 2.137 . S
O264 C255 1.247 . S
O265 Co252 2.244 . S
O265 C255 1.272 . S
O265 Co257 2.135 . S
Co266 O267 2.216 . S
Co266 O268 2.091 . S
Co266 O270 2.004 1_545 S
Co266 O276 2.021 1_545 S
Co266 O278 2.137 . S
Co266 O279 2.244 . S
O267 Co266 2.216 . S
O267 C274 1.247 . S
O268 Co266 2.091 . S
O268 C274 1.261 . S
C269 O278 1.247 . S
C269 O279 1.272 . S
O270 Co266 2.004 1_565 S
O270 C275 1.259 . S
Co271 O272 2.061 . S
Co271 O277 2.052 . S
Co271 O279 2.135 1_565 S
O272 Co271 2.061 . S
O272 C275 1.235 . S
C273 O276 1.238 . S
C273 O277 1.241 . S
C274 O267 1.247 . S
C274 O268 1.261 . S
C275 O270 1.259 . S
C275 O272 1.235 . S
O276 Co266 2.021 1_565 S
O276 C273 1.238 . S
O277 Co271 2.052 . S
O277 C273 1.241 . S
O278 Co266 2.137 . S
O278 C269 1.247 . S
O279 Co266 2.244 . S
O279 C269 1.272 . S
O279 Co271 2.135 1_545 S
Co280 O281 2.216 . S
Co280 O282 2.091 . S
Co280 O284 2.004 1_556 S
Co280 O290 2.021 1_556 S
Co280 O292 2.137 . S
Co280 O293 2.244 . S
O281 Co280 2.216 . S
O281 C288 1.247 . S
O282 Co280 2.091 . S
O282 C288 1.261 . S
C283 O292 1.247 . S
C283 O293 1.272 . S
O284 Co280 2.004 1_554 S
O284 C289 1.259 . S
Co285 O286 2.061 . S
Co285 O291 2.052 . S
Co285 O293 2.135 1_554 S
O286 Co285 2.061 . S
O286 C289 1.235 . S
C287 O290 1.238 . S
C287 O291 1.241 . S
C288 O281 1.247 . S
C288 O282 1.261 . S
C289 O284 1.259 . S
C289 O286 1.235 . S
O290 Co280 2.021 1_554 S
O290 C287 1.238 . S
O291 Co285 2.052 . S
O291 C287 1.241 . S
O292 Co280 2.137 . S
O292 C283 1.247 . S
O293 Co280 2.244 . S
O293 C283 1.272 . S
O293 Co285 2.135 1_556 S
Co294 O295 2.216 . S
Co294 O296 2.091 . S
Co294 O298 2.004 . S
Co294 O304 2.021 . S
Co294 O306 2.137 . S
Co294 O307 2.244 . S
O295 Co294 2.216 . S
O295 C302 1.247 . S
O296 Co294 2.091 . S
O296 C302 1.261 . S
C297 O306 1.247 . S
C297 O307 1.272 . S
O298 Co294 2.004 . S
O298 C303 1.259 . S
Co299 O300 2.061 . S
Co299 O305 2.052 . S
Co299 O307 2.135 . S
O300 Co299 2.061 . S
O300 C303 1.235 . S
C301 O304 1.238 . S
C301 O305 1.241 . S
C302 O295 1.247 . S
C302 O296 1.261 . S
C303 O298 1.259 . S
C303 O300 1.235 . S
O304 Co294 2.021 . S
O304 C301 1.238 . S
O305 Co299 2.052 . S
O305 C301 1.241 . S
O306 Co294 2.137 . S
O306 C297 1.247 . S
O307 Co294 2.244 . S
O307 C297 1.272 . S
O307 Co299 2.135 . S
Co308 O309 2.216 . S
Co308 O310 2.091 . S
Co308 O312 2.004 . S
Co308 O318 2.021 . S
Co308 O320 2.137 . S
Co308 O321 2.244 . S
O309 Co308 2.216 . S
O309 C316 1.247 . S
O310 Co308 2.091 . S
O310 C316 1.261 . S
C311 O320 1.247 . S
C311 O321 1.272 . S
O312 Co308 2.004 . S
O312 C317 1.259 . S
Co313 O314 2.061 . S
Co313 O319 2.052 . S
Co313 O321 2.135 . S
O314 Co313 2.061 . S
O314 C317 1.235 . S
C315 O318 1.238 . S
C315 O319 1.241 . S
C316 O309 1.247 . S
C316 O310 1.261 . S
C317 O312 1.259 . S
C317 O314 1.235 . S
O318 Co308 2.021 . S
O318 C315 1.238 . S
O319 Co313 2.052 . S
O319 C315 1.241 . S
O320 Co308 2.137 . S
O320 C311 1.247 . S
O321 Co308 2.244 . S
O321 C311 1.272 . S
O321 Co313 2.135 . S
Co322 O323 2.216 . S
Co322 O324 2.091 . S
Co322 O326 2.004 . S
Co322 O332 2.021 . S
Co322 O334 2.137 . S
Co322 O335 2.244 . S
O323 Co322 2.216 . S
O323 C330 1.247 . S
O324 Co322 2.091 . S
O324 C330 1.261 . S
C325 O334 1.247 . S
C325 O335 1.272 . S
O326 Co322 2.004 . S
O326 C331 1.259 . S
Co327 O328 2.061 . S
Co327 O333 2.052 . S
Co327 O335 2.135 . S
O328 Co327 2.061 . S
O328 C331 1.235 . S
C329 O332 1.238 . S
C329 O333 1.241 . S
C330 O323 1.247 . S
C330 O324 1.261 . S
C331 O326 1.259 . S
C331 O328 1.235 . S
O332 Co322 2.021 . S
O332 C329 1.238 . S
O333 Co327 2.052 . S
O333 C329 1.241 . S
O334 Co322 2.137 . S
O334 C325 1.247 . S
O335 Co322 2.244 . S
O335 C325 1.272 . S
O335 Co327 2.135 . S
C336 C337 1.387 . S
C336 H340 0.950 . S
C336 C345 1.390 . S
C337 C336 1.387 . S
C337 C339 1.387 . S
H338 C345 0.950 . S
C339 C337 1.387 . S
C339 C341 1.390 . S
C339 H343 0.950 . S
H340 C336 0.950 . S
C341 C339 1.390 . S
C341 C342 1.387 . S
C341 H344 0.950 . S
C342 C341 1.387 . S
C342 C345 1.387 . S
H343 C339 0.950 . S
H344 C341 0.950 . S
C345 C336 1.390 . S
C345 H338 0.950 . S
C345 C342 1.387 . S
C346 C347 1.387 . S
C346 H350 0.950 . S
C346 C355 1.390 . S
C347 C346 1.387 . S
C347 C349 1.387 . S
H348 C355 0.950 . S
C349 C347 1.387 . S
C349 C351 1.390 . S
C349 H353 0.950 . S
H350 C346 0.950 . S
C351 C349 1.390 . S
C351 C352 1.387 . S
C351 H354 0.950 . S
C352 C351 1.387 . S
C352 C355 1.387 . S
H353 C349 0.950 . S
H354 C351 0.950 . S
C355 C346 1.390 . S
C355 H348 0.950 . S
C355 C352 1.387 . S
C356 C357 1.387 . S
C356 H360 0.950 . S
C356 C365 1.390 . S
C357 C356 1.387 . S
C357 C359 1.387 . S
H358 C365 0.950 . S
C359 C357 1.387 . S
C359 C361 1.390 . S
C359 H363 0.950 . S
H360 C356 0.950 . S
C361 C359 1.390 . S
C361 C362 1.387 . S
C361 H364 0.950 . S
C362 C361 1.387 . S
C362 C365 1.387 . S
H363 C359 0.950 . S
H364 C361 0.950 . S
C365 C356 1.390 . S
C365 H358 0.950 . S
C365 C362 1.387 . S
C366 C367 1.387 . S
C366 H370 0.950 . S
C366 C375 1.390 . S
C367 C366 1.387 . S
C367 C369 1.387 . S
H368 C375 0.950 . S
C369 C367 1.387 . S
C369 C371 1.390 . S
C369 H373 0.950 . S
H370 C366 0.950 . S
C371 C369 1.390 . S
C371 C372 1.387 . S
C371 H374 0.950 . S
C372 C371 1.387 . S
C372 C375 1.387 . S
H373 C369 0.950 . S
H374 C371 0.950 . S
C375 C366 1.390 . S
C375 H368 0.950 . S
C375 C372 1.387 . S
C376 C377 1.387 . S
C376 H380 0.950 . S
C376 C385 1.390 . S
C377 C376 1.387 . S
C377 C379 1.387 . S
H378 C385 0.950 . S
C379 C377 1.387 . S
C379 C381 1.390 . S
C379 H383 0.950 . S
H380 C376 0.950 . S
C381 C379 1.390 . S
C381 C382 1.387 . S
C381 H384 0.950 . S
C382 C381 1.387 . S
C382 C385 1.387 . S
H383 C379 0.950 . S
H384 C381 0.950 . S
C385 C376 1.390 . S
C385 H378 0.950 . S
C385 C382 1.387 . S
C386 C387 1.387 . S
C386 H390 0.950 . S
C386 C395 1.390 . S
C387 C386 1.387 . S
C387 C389 1.387 . S
H388 C395 0.950 . S
C389 C387 1.387 . S
C389 C391 1.390 . S
C389 H393 0.950 . S
H390 C386 0.950 . S
C391 C389 1.390 . S
C391 C392 1.387 . S
C391 H394 0.950 . S
C392 C391 1.387 . S
C392 C395 1.387 . S
H393 C389 0.950 . S
H394 C391 0.950 . S
C395 C386 1.390 . S
C395 H388 0.950 . S
C395 C392 1.387 . S
C396 C397 1.387 . S
C396 H400 0.950 . S
C396 C405 1.390 . S
C397 C396 1.387 . S
C397 C399 1.387 . S
H398 C405 0.950 . S
C399 C397 1.387 . S
C399 C401 1.390 . S
C399 H403 0.950 . S
H400 C396 0.950 . S
C401 C399 1.390 . S
C401 C402 1.387 . S
C401 H404 0.950 . S
C402 C401 1.387 . S
C402 C405 1.387 . S
H403 C399 0.950 . S
H404 C401 0.950 . S
C405 C396 1.390 . S
C405 H398 0.950 . S
C405 C402 1.387 . S
C406 C407 1.387 . S
C406 H410 0.950 . S
C406 C415 1.390 . S
C407 C406 1.387 . S
C407 C409 1.387 . S
H408 C415 0.950 . S
C409 C407 1.387 . S
C409 C411 1.390 . S
C409 H413 0.950 . S
H410 C406 0.950 . S
C411 C409 1.390 . S
C411 C412 1.387 . S
C411 H414 0.940 1_556 S
C412 C411 1.387 . S
C412 C415 1.387 . S
H413 C409 0.950 . S
H414 C411 0.940 1_554 S
C415 C406 1.390 . S
C415 H408 0.950 . S
C415 C412 1.387 . S
C416 C417 1.387 . S
C416 H420 0.950 . S
C416 C425 1.390 . S
C417 C416 1.387 . S
C417 C419 1.387 . S
H418 C425 0.950 1_565 S
C419 C417 1.387 . S
C419 C421 1.390 . S
C419 H423 0.950 . S
H420 C416 0.950 . S
C421 C419 1.390 . S
C421 C422 1.387 . S
C421 H424 0.950 . S
C422 C421 1.387 . S
C422 C425 1.387 . S
H423 C419 0.950 . S
H424 C421 0.950 . S
C425 C416 1.390 . S
C425 H418 0.950 1_545 S
C425 C422 1.387 . S
C426 C427 1.387 . S
C426 H430 0.950 . S
C426 C435 1.390 . S
C427 C426 1.387 . S
C427 C429 1.387 . S
H428 C435 0.950 . S
C429 C427 1.387 . S
C429 C431 1.390 . S
C429 H433 0.950 . S
H430 C426 0.950 . S
C431 C429 1.390 . S
C431 C432 1.387 . S
C431 H434 0.950 . S
C432 C431 1.387 . S
C432 C435 1.387 . S
H433 C429 0.950 . S
H434 C431 0.950 . S
C435 C426 1.390 . S
C435 H428 0.950 . S
C435 C432 1.387 . S
C436 C437 1.387 . S
C436 H440 0.950 . S
C436 C445 1.390 . S
C437 C436 1.387 . S
C437 C439 1.387 . S
H438 C445 0.950 . S
C439 C437 1.387 . S
C439 C441 1.390 . S
C439 H443 0.950 1_565 S
H440 C436 0.950 . S
C441 C439 1.390 . S
C441 C442 1.387 . S
C441 H444 0.950 . S
C442 C441 1.387 . S
C442 C445 1.387 . S
H443 C439 0.950 1_545 S
H444 C441 0.950 . S
C445 C436 1.390 . S
C445 H438 0.950 . S
C445 C442 1.387 . S
C446 C447 1.387 . S
C446 H450 0.950 . S
C446 C455 1.390 . S
C447 C446 1.387 . S
C447 C449 1.387 . S
H448 C455 0.961 . S
C449 C447 1.387 . S
C449 C451 1.390 . S
C449 H453 0.950 . S
H450 C446 0.950 . S
C451 C449 1.390 . S
C451 C452 1.387 . S
C451 H454 0.950 . S
C452 C451 1.387 . S
C452 C455 1.387 . S
H453 C449 0.950 . S
H454 C451 0.950 . S
C455 C446 1.390 . S
C455 H448 0.961 . S
C455 C452 1.387 . S
C456 C457 1.387 . S
C456 H460 0.950 . S
C456 C465 1.390 . S
C457 C456 1.387 . S
C457 C459 1.387 . S
H458 C465 0.950 . S
C459 C457 1.387 . S
C459 C461 1.390 . S
C459 H463 0.950 . S
H460 C456 0.950 . S
C461 C459 1.390 . S
C461 C462 1.387 . S
C461 H464 0.950 . S
C462 C461 1.387 . S
C462 C465 1.387 . S
H463 C459 0.950 . S
H464 C461 0.950 . S
C465 C456 1.390 . S
C465 H458 0.950 . S
C465 C462 1.387 . S
C466 C467 1.387 . S
C466 H470 0.950 . S
C466 C475 1.390 . S
C467 C466 1.387 . S
C467 C469 1.387 . S
H468 C475 0.950 . S
C469 C467 1.387 . S
C469 C471 1.390 . S
C469 H473 0.950 . S
H470 C466 0.950 . S
C471 C469 1.390 . S
C471 C472 1.387 . S
C471 H474 0.950 . S
C472 C471 1.387 . S
C472 C475 1.387 . S
H473 C469 0.950 . S
H474 C471 0.950 . S
C475 C466 1.390 . S
C475 H468 0.950 . S
C475 C472 1.387 . S
C476 C477 1.387 . S
C476 H480 0.950 . S
C476 C485 1.390 . S
C477 C476 1.387 . S
C477 C479 1.387 . S
H478 C485 0.950 . S
C479 C477 1.387 . S
C479 C481 1.390 . S
C479 H483 0.950 . S
H480 C476 0.950 . S
C481 C479 1.390 . S
C481 C482 1.387 . S
C481 H484 0.950 . S
C482 C481 1.387 . S
C482 C485 1.387 . S
H483 C479 0.950 . S
H484 C481 0.950 . S
C485 C476 1.390 . S
C485 H478 0.950 . S
C485 C482 1.387 . S
C486 C487 1.387 . S
C486 H490 0.950 . S
C486 C495 1.390 . S
C487 C486 1.387 . S
C487 C489 1.387 . S
H488 C495 0.950 . S
C489 C487 1.387 . S
C489 C491 1.390 . S
C489 H493 0.950 . S
H490 C486 0.950 . S
C491 C489 1.390 . S
C491 C492 1.387 . S
C491 H494 0.950 . S
C492 C491 1.387 . S
C492 C495 1.387 . S
H493 C489 0.950 . S
H494 C491 0.950 . S
C495 C486 1.390 . S
C495 H488 0.950 . S
C495 C492 1.387 . S
C496 C497 1.387 . S
C496 H500 0.950 . S
C496 C505 1.390 . S
C497 C496 1.387 . S
C497 C499 1.387 . S
H498 C505 0.950 . S
C499 C497 1.387 . S
C499 C501 1.390 . S
C499 H503 0.950 . S
H500 C496 0.950 . S
C501 C499 1.390 . S
C501 C502 1.387 . S
C501 H504 0.950 . S
C502 C501 1.387 . S
C502 C505 1.387 . S
H503 C499 0.950 . S
H504 C501 0.950 . S
C505 C496 1.390 . S
C505 H498 0.950 . S
C505 C502 1.387 . S
C506 C507 1.387 . S
C506 H510 0.950 . S
C506 C515 1.390 . S
C507 C506 1.387 . S
C507 C509 1.387 . S
H508 C515 0.950 . S
C509 C507 1.387 . S
C509 C511 1.390 . S
C509 H513 0.950 . S
H510 C506 0.950 . S
C511 C509 1.390 . S
C511 C512 1.387 . S
C511 H514 0.950 . S
C512 C511 1.387 . S
C512 C515 1.387 . S
H513 C509 0.950 . S
H514 C511 0.950 . S
C515 C506 1.390 . S
C515 H508 0.950 . S
C515 C512 1.387 . S
C516 C517 1.387 . S
C516 H520 0.950 . S
C516 C525 1.390 . S
C517 C516 1.387 . S
C517 C519 1.387 . S
H518 C525 0.950 . S
C519 C517 1.387 . S
C519 C521 1.390 . S
C519 H523 0.950 . S
H520 C516 0.950 . S
C521 C519 1.390 . S
C521 C522 1.387 . S
C521 H524 0.950 . S
C522 C521 1.387 . S
C522 C525 1.387 . S
H523 C519 0.950 . S
H524 C521 0.950 . S
C525 C516 1.390 . S
C525 H518 0.950 . S
C525 C522 1.387 . S
C526 C527 1.387 . S
C526 H530 0.950 . S
C526 C535 1.390 . S
C527 C526 1.387 . S
C527 C529 1.387 . S
H528 C535 0.950 . S
C529 C527 1.387 . S
C529 C531 1.390 . S
C529 H533 0.950 . S
H530 C526 0.950 . S
C531 C529 1.390 . S
C531 C532 1.387 . S
C531 H534 0.950 . S
C532 C531 1.387 . S
C532 C535 1.387 . S
H533 C529 0.950 . S
H534 C531 0.950 . S
C535 C526 1.390 . S
C535 H528 0.950 . S
C535 C532 1.387 . S
C536 C537 1.387 . S
C536 H540 0.950 . S
C536 C545 1.390 . S
C537 C536 1.387 . S
C537 C539 1.387 . S
H538 C545 0.950 . S
C539 C537 1.387 . S
C539 C541 1.390 . S
C539 H543 0.950 . S
H540 C536 0.950 . S
C541 C539 1.390 . S
C541 C542 1.387 . S
C541 H544 0.950 . S
C542 C541 1.387 . S
C542 C545 1.387 . S
H543 C539 0.950 . S
H544 C541 0.950 . S
C545 C536 1.390 . S
C545 H538 0.950 . S
C545 C542 1.387 . S
C546 C547 1.387 . S
C546 H550 0.950 . S
C546 C555 1.390 . S
C547 C546 1.387 . S
C547 C549 1.387 . S
H548 C555 0.950 . S
C549 C547 1.387 . S
C549 C551 1.390 . S
C549 H553 0.950 . S
H550 C546 0.950 . S
C551 C549 1.390 . S
C551 C552 1.387 . S
C551 H554 0.950 . S
C552 C551 1.387 . S
C552 C555 1.387 . S
H553 C549 0.950 . S
H554 C551 0.950 . S
C555 C546 1.390 . S
C555 H548 0.950 . S
C555 C552 1.387 . S
C556 C557 1.387 . S
C556 H560 0.950 . S
C556 C565 1.390 . S
C557 C556 1.387 . S
C557 C559 1.387 . S
H558 C565 0.950 . S
C559 C557 1.387 . S
C559 C561 1.390 . S
C559 H563 0.950 . S
H560 C556 0.950 . S
C561 C559 1.390 . S
C561 C562 1.387 . S
C561 H564 0.950 . S
C562 C561 1.387 . S
C562 C565 1.387 . S
H563 C559 0.950 . S
H564 C561 0.950 . S
C565 C556 1.390 . S
C565 H558 0.950 . S
C565 C562 1.387 . S
C566 C567 1.387 . S
C566 H570 0.950 . S
C566 C575 1.390 . S
C567 C566 1.387 . S
C567 C569 1.387 . S
H568 C575 0.950 . S
C569 C567 1.387 . S
C569 C571 1.390 . S
C569 H573 0.950 . S
H570 C566 0.950 . S
C571 C569 1.390 . S
C571 C572 1.387 . S
C571 H574 0.950 1_565 S
C572 C571 1.387 . S
C572 C575 1.387 . S
H573 C569 0.950 . S
H574 C571 0.950 1_545 S
C575 C566 1.390 . S
C575 H568 0.950 . S
C575 C572 1.387 . S
C576 C577 1.387 . S
C576 H580 0.950 . S
C576 C585 1.390 . S
C577 C576 1.387 . S
C577 C579 1.387 . S
H578 C585 0.950 . S
C579 C577 1.387 . S
C579 C581 1.390 . S
C579 H583 0.950 1_565 S
H580 C576 0.950 . S
C581 C579 1.390 . S
C581 C582 1.387 . S
C581 H584 0.950 . S
C582 C581 1.387 . S
C582 C585 1.387 . S
H583 C579 0.950 1_545 S
H584 C581 0.950 . S
C585 C576 1.390 . S
C585 H578 0.950 . S
C585 C582 1.387 . S
C586 C587 1.387 . S
C586 H590 0.950 . S
C586 C595 1.390 . S
C587 C586 1.387 . S
C587 C589 1.387 . S
H588 C595 0.950 . S
C589 C587 1.387 . S
C589 C591 1.390 . S
C589 H593 0.950 . S
H590 C586 0.950 . S
C591 C589 1.390 . S
C591 C592 1.387 . S
C591 H594 0.950 . S
C592 C591 1.387 . S
C592 C595 1.387 . S
H593 C589 0.950 . S
H594 C591 0.950 . S
C595 C586 1.390 . S
C595 H588 0.950 . S
C595 C592 1.387 . S
C596 C597 1.387 . S
C596 H600 0.950 . S
C596 C605 1.390 . S
C597 C596 1.387 . S
C597 C599 1.387 . S
H598 C605 0.950 . S
C599 C597 1.387 . S
C599 C601 1.390 . S
C599 H603 0.950 . S
H600 C596 0.950 . S
C601 C599 1.390 . S
C601 C602 1.387 . S
C601 H604 0.950 . S
C602 C601 1.387 . S
C602 C605 1.387 . S
H603 C599 0.950 . S
H604 C601 0.950 . S
C605 C596 1.390 . S
C605 H598 0.950 . S
C605 C602 1.387 . S
C606 C607 1.387 . S
C606 H610 0.950 . S
C606 C615 1.390 . S
C607 C606 1.387 . S
C607 C609 1.387 . S
H608 C615 0.950 . S
C609 C607 1.387 . S
C609 C611 1.390 . S
C609 H613 0.950 . S
H610 C606 0.950 . S
C611 C609 1.390 . S
C611 C612 1.387 . S
C611 H614 0.950 1_556 S
C612 C611 1.387 . S
C612 C615 1.387 . S
H613 C609 0.950 . S
H614 C611 0.950 1_554 S
C615 C606 1.390 . S
C615 H608 0.950 . S
C615 C612 1.387 . S
C616 C617 1.387 . S
C616 H620 0.950 . S
C616 C625 1.390 . S
C617 C616 1.387 . S
C617 C619 1.387 . S
H618 C625 0.950 . S
C619 C617 1.387 . S
C619 C621 1.390 . S
C619 H623 0.950 . S
H620 C616 0.950 . S
C621 C619 1.390 . S
C621 C622 1.387 . S
C621 H624 0.950 . S
C622 C621 1.387 . S
C622 C625 1.387 . S
H623 C619 0.950 . S
H624 C621 0.950 . S
C625 C616 1.390 . S
C625 H618 0.950 . S
C625 C622 1.387 . S
C626 C627 1.387 . S
C626 H630 0.950 . S
C626 C635 1.390 . S
C627 C626 1.387 . S
C627 C629 1.387 . S
H628 C635 0.950 . S
C629 C627 1.387 . S
C629 C631 1.390 . S
C629 H633 0.950 . S
H630 C626 0.950 . S
C631 C629 1.390 . S
C631 C632 1.387 . S
C631 H634 0.950 . S
C632 C631 1.387 . S
C632 C635 1.387 . S
H633 C629 0.950 . S
H634 C631 0.950 . S
C635 C626 1.390 . S
C635 H628 0.950 . S
C635 C632 1.387 . S
C636 C637 1.387 . S
C636 H640 0.950 . S
C636 C645 1.390 . S
C637 C636 1.387 . S
C637 C639 1.387 . S
H638 C645 0.950 . S
C639 C637 1.387 . S
C639 C641 1.390 . S
C639 H643 0.950 . S
H640 C636 0.950 . S
C641 C639 1.390 . S
C641 C642 1.387 . S
C641 H644 0.950 . S
C642 C641 1.387 . S
C642 C645 1.387 . S
H643 C639 0.950 . S
H644 C641 0.950 . S
C645 C636 1.390 . S
C645 H638 0.950 . S
C645 C642 1.387 . S
C646 C647 1.387 . S
C646 H650 0.950 . S
C646 C655 1.390 . S
C647 C646 1.387 . S
C647 C649 1.387 . S
H648 C655 0.950 . S
C649 C647 1.387 . S
C649 C651 1.390 . S
C649 H653 0.950 . S
H650 C646 0.950 . S
C651 C649 1.390 . S
C651 C652 1.387 . S
C651 H654 0.950 . S
C652 C651 1.387 . S
C652 C655 1.387 . S
H653 C649 0.950 . S
H654 C651 0.950 . S
C655 C646 1.390 . S
C655 H648 0.950 . S
C655 C652 1.387 . S
C656 C657 1.387 . S
C656 H660 0.950 . S
C656 C665 1.390 . S
C657 C656 1.387 . S
C657 C659 1.387 . S
H658 C665 0.950 . S
C659 C657 1.387 . S
C659 C661 1.390 . S
C659 H663 0.950 . S
H660 C656 0.950 . S
C661 C659 1.390 . S
C661 C662 1.387 . S
C661 H664 0.950 . S
C662 C661 1.387 . S
C662 C665 1.387 . S
H663 C659 0.950 . S
H664 C661 0.950 . S
C665 C656 1.390 . S
C665 H658 0.950 . S
C665 C662 1.387 . S
C666 C667 1.387 . S
C666 H670 0.950 . S
C666 C675 1.390 . S
C667 C666 1.387 . S
C667 C669 1.387 . S
H668 C675 0.950 . S
C669 C667 1.387 . S
C669 C671 1.390 . S
C669 H673 0.950 1_556 S
H670 C666 0.950 . S
C671 C669 1.390 . S
C671 C672 1.387 . S
C671 H674 0.950 . S
C672 C671 1.387 . S
C672 C675 1.387 . S
H673 C669 0.950 1_554 S
H674 C671 0.950 . S
C675 C666 1.390 . S
C675 H668 0.950 . S
C675 C672 1.387 . S
C676 C677 1.387 . S
C676 H680 0.950 . S
C676 C685 1.390 . S
C677 C676 1.387 . S
C677 C679 1.387 . S
H678 C685 0.950 . S
C679 C677 1.387 . S
C679 C681 1.390 . S
C679 H683 0.950 . S
H680 C676 0.950 . S
C681 C679 1.390 . S
C681 C682 1.387 . S
C681 H684 0.950 . S
C682 C681 1.387 . S
C682 C685 1.387 . S
H683 C679 0.950 . S
H684 C681 0.950 . S
C685 C676 1.390 . S
C685 H678 0.950 . S
C685 C682 1.387 . S
C686 C687 1.387 . S
C686 H690 0.950 . S
C686 C695 1.390 . S
C687 C686 1.387 . S
C687 C689 1.387 . S
H688 C695 0.950 . S
C689 C687 1.387 . S
C689 C691 1.390 . S
C689 H693 0.950 . S
H690 C686 0.950 . S
C691 C689 1.390 . S
C691 C692 1.387 . S
C691 H694 0.950 . S
C692 C691 1.387 . S
C692 C695 1.387 . S
H693 C689 0.950 . S
H694 C691 0.950 . S
C695 C686 1.390 . S
C695 H688 0.950 . S
C695 C692 1.387 . S
C696 C697 1.387 . S
C696 H700 0.950 . S
C696 C705 1.390 . S
C697 C696 1.387 . S
C697 C699 1.387 . S
H698 C705 0.950 . S
C699 C697 1.387 . S
C699 C701 1.390 . S
C699 H703 0.950 . S
H700 C696 0.950 . S
C701 C699 1.390 . S
C701 C702 1.387 . S
C701 H704 0.950 . S
C702 C701 1.387 . S
C702 C705 1.387 . S
H703 C699 0.950 . S
H704 C701 0.950 . S
C705 C696 1.390 . S
C705 H698 0.950 . S
C705 C702 1.387 . S
C706 C707 1.387 . S
C706 H710 0.950 . S
C706 C715 1.390 . S
C707 C706 1.387 . S
C707 C709 1.387 . S
H708 C715 0.950 . S
C709 C707 1.387 . S
C709 C711 1.390 . S
C709 H713 0.950 . S
H710 C706 0.950 . S
C711 C709 1.390 . S
C711 C712 1.387 . S
C711 H714 0.950 . S
C712 C711 1.387 . S
C712 C715 1.387 . S
H713 C709 0.950 . S
H714 C711 0.950 . S
C715 C706 1.390 . S
C715 H708 0.950 . S
C715 C712 1.387 . S
C716 C717 1.387 . S
C716 H720 0.950 . S
C716 C725 1.390 . S
C717 C716 1.387 . S
C717 C719 1.387 . S
H718 C725 0.950 . S
C719 C717 1.387 . S
C719 C721 1.390 . S
C719 H723 0.950 . S
H720 C716 0.950 . S
C721 C719 1.390 . S
C721 C722 1.387 . S
C721 H724 0.950 . S
C722 C721 1.387 . S
C722 C725 1.387 . S
H723 C719 0.950 . S
H724 C721 0.950 . S
C725 C716 1.390 . S
C725 H718 0.950 . S
C725 C722 1.387 . S
C726 C727 1.387 . S
C726 H730 0.950 . S
C726 C735 1.390 . S
C727 C726 1.387 . S
C727 C729 1.387 . S
H728 C735 0.950 . S
C729 C727 1.387 . S
C729 C731 1.390 . S
C729 H733 0.950 . S
H730 C726 0.950 . S
C731 C729 1.390 . S
C731 C732 1.387 . S
C731 H734 0.950 . S
C732 C731 1.387 . S
C732 C735 1.387 . S
H733 C729 0.950 . S
H734 C731 0.950 . S
C735 C726 1.390 . S
C735 H728 0.950 . S
C735 C732 1.387 . S
C736 C737 1.387 . S
C736 H740 0.950 . S
C736 C745 1.390 . S
C737 C736 1.387 . S
C737 C739 1.387 . S
H738 C745 0.950 . S
C739 C737 1.387 . S
C739 C741 1.390 . S
C739 H743 0.950 . S
H740 C736 0.950 . S
C741 C739 1.390 . S
C741 C742 1.387 . S
C741 H744 0.950 . S
C742 C741 1.387 . S
C742 C745 1.387 . S
H743 C739 0.950 . S
H744 C741 0.950 . S
C745 C736 1.390 . S
C745 H738 0.950 . S
C745 C742 1.387 . S
C746 C747 1.387 . S
C746 H750 0.950 . S
C746 C755 1.390 . S
C747 C746 1.387 . S
C747 C749 1.387 . S
H748 C755 0.950 . S
C749 C747 1.387 . S
C749 C751 1.390 . S
C749 H753 0.950 . S
H750 C746 0.950 . S
C751 C749 1.390 . S
C751 C752 1.387 . S
C751 H754 0.950 . S
C752 C751 1.387 . S
C752 C755 1.387 . S
H753 C749 0.950 . S
H754 C751 0.950 . S
C755 C746 1.390 . S
C755 H748 0.950 . S
C755 C752 1.387 . S
C756 C757 1.387 . S
C756 H760 0.950 . S
C756 C765 1.390 . S
C757 C756 1.387 . S
C757 C759 1.387 . S
H758 C765 0.950 . S
C759 C757 1.387 . S
C759 C761 1.390 . S
C759 H763 0.950 . S
H760 C756 0.950 . S
C761 C759 1.390 . S
C761 C762 1.387 . S
C761 H764 0.950 . S
C762 C761 1.387 . S
C762 C765 1.387 . S
H763 C759 0.950 . S
H764 C761 0.950 . S
C765 C756 1.390 . S
C765 H758 0.950 . S
C765 C762 1.387 . S
C766 C767 1.387 . S
C766 H770 0.950 . S
C766 C775 1.390 . S
C767 C766 1.387 . S
C767 C769 1.387 . S
H768 C775 0.950 . S
C769 C767 1.387 . S
C769 C771 1.390 . S
C769 H773 0.950 . S
H770 C766 0.950 . S
C771 C769 1.390 . S
C771 C772 1.387 . S
C771 H774 0.950 . S
C772 C771 1.387 . S
C772 C775 1.387 . S
H773 C769 0.950 . S
H774 C771 0.950 . S
C775 C766 1.390 . S
C775 H768 0.950 . S
C775 C772 1.387 . S
C776 C777 1.387 . S
C776 H780 0.950 . S
C776 C785 1.390 . S
C777 C776 1.387 . S
C777 C779 1.387 . S
H778 C785 0.950 . S
C779 C777 1.387 . S
C779 C781 1.390 . S
C779 H783 0.950 . S
H780 C776 0.950 . S
C781 C779 1.390 . S
C781 C782 1.387 . S
C781 H784 0.950 . S
C782 C781 1.387 . S
C782 C785 1.387 . S
H783 C779 0.950 . S
H784 C781 0.950 . S
C785 C776 1.390 . S
C785 H778 0.950 . S
C785 C782 1.387 . S
C786 C787 1.387 . S
C786 H790 0.950 . S
C786 C795 1.390 . S
C787 C786 1.387 . S
C787 C789 1.387 . S
H788 C795 0.950 . S
C789 C787 1.387 . S
C789 C791 1.390 . S
C789 H793 0.950 . S
H790 C786 0.950 . S
C791 C789 1.390 . S
C791 C792 1.387 . S
C791 H794 0.950 . S
C792 C791 1.387 . S
C792 C795 1.387 . S
H793 C789 0.950 . S
H794 C791 0.950 . S
C795 C786 1.390 . S
C795 H788 0.950 . S
C795 C792 1.387 . S
C796 C797 1.387 . S
C796 H800 0.950 . S
C796 C805 1.390 . S
C797 C796 1.387 . S
C797 C799 1.387 . S
H798 C805 0.950 . S
C799 C797 1.387 . S
C799 C801 1.390 . S
C799 H803 0.950 . S
H800 C796 0.950 . S
C801 C799 1.390 . S
C801 C802 1.387 . S
C801 H804 0.950 . S
C802 C801 1.387 . S
C802 C805 1.387 . S
H803 C799 0.950 . S
H804 C801 0.950 . S
C805 C796 1.390 . S
C805 H798 0.950 . S
C805 C802 1.387 . S
C806 C807 1.387 . S
C806 H810 0.950 . S
C806 C815 1.390 . S
C807 C806 1.387 . S
C807 C809 1.387 . S
H808 C815 0.950 . S
C809 C807 1.387 . S
C809 C811 1.390 . S
C809 H813 0.950 . S
H810 C806 0.950 . S
C811 C809 1.390 . S
C811 C812 1.387 . S
C811 H814 0.950 . S
C812 C811 1.387 . S
C812 C815 1.387 . S
H813 C809 0.950 . S
H814 C811 0.950 . S
C815 C806 1.390 . S
C815 H808 0.950 . S
C815 C812 1.387 . S
C337 C205 1.519 . S
C342 C3 1.525 . S
C347 C23 1.496 . S
C352 C218 1.507 . S
C357 C259 1.500 . S
C362 C35 1.512 . S
C367 C50 1.510 . S
C372 C190 1.509 . S
C377 C204 1.553 . S
C382 C63 1.539 . S
C387 C79 1.510 . S
C392 C219 1.508 . S
C397 C87 1.524 . S
C402 C255 1.527 . S
C407 C106 1.506 . S
C412 C191 1.495 . S
C417 C129 1.527 . S
C422 C115 1.531 . S
C427 C149 1.566 . S
C432 C133 1.556 . S
C437 C148 1.511 . S
C442 C157 1.507 . S
C447 C161 1.509 . S
C452 C119 1.496 . S
C457 C176 1.507 . S
C462 C51 1.496 . S
C467 C59 1.524 . S
C472 C227 1.528 . S
C477 C246 1.509 . S
C482 C22 1.510 . S
C487 C21 1.461 . S
C492 C303 1.469 . S
C497 C134 1.445 . S
C502 C9 1.437 . S
C507 C329 1.449 . S
C512 C45 1.463 . S
C517 C162 1.436 . S
C522 C36 1.436 . S
C527 C302 1.478 . S
C532 C101 1.472 . S
C537 C135 1.451 . S
C542 C93 1.451 . S
C547 C77 1.440 . S
C552 C325 1.463 . S
C557 C64 1.438 . S
C562 C163 1.428 . S
C567 C217 1.446 . S
C572 C273 1.445 . S
C577 C232 1.477 . S
C582 C213 1.471 . S
C587 C189 1.462 . S
C592 C233 1.472 . S
C597 C269 1.463 . S
C602 C185 1.457 . S
C607 C37 1.437 . S
C612 C288 1.446 . S
C617 C143 1.463 . S
C622 C105 1.440 . S
C627 C8 1.436 . S
C632 C316 1.436 . S
C637 C275 1.519 . S
C642 C31 1.525 . S
C647 C7 1.511 . S
C652 C231 1.501 . S
C657 C274 1.553 . S
C662 C91 1.537 . S
C667 C177 1.508 . S
C672 C107 1.510 . S
C677 C78 1.506 . S
C682 C247 1.496 . S
C687 C297 1.530 . S
C692 C283 1.527 . S
C697 C331 1.566 . S
C702 C287 1.555 . S
C707 C311 1.507 . S
C712 C330 1.511 . S
C717 C301 1.496 . S
C722 C315 1.509 . S
C727 C121 1.471 . S
C732 C49 1.460 . S
C737 C17 1.463 . S
C742 C147 1.449 . S
C747 C73 1.472 . S
C752 C120 1.478 . S
C757 C289 1.452 . S
C762 C65 1.451 . S
C767 C92 1.438 . S
C772 C317 1.428 . S
C777 C175 1.448 . S
C782 C203 1.447 . S
C787 C260 1.477 . S
C792 C171 1.472 . S
C797 C245 1.463 . S
C802 C261 1.471 . S
C807 C199 1.463 . S
C812 C241 1.458 . S
