# Generated by pormake.
# Topology ukd, (4)-cn, num edge types: 1
# Building blocks:
#     Node 0, Type 0, BuildingBlock: QUQFOY_clean_sbu_1, # of connection points: 4
#     Node 1, Type 0, BuildingBlock: QUQFOY_clean_sbu_1, # of connection points: 4
#     Node 2, Type 0, BuildingBlock: QUQFOY_clean_sbu_1, # of connection points: 4
#     Node 3, Type 0, BuildingBlock: QUQFOY_clean_sbu_1, # of connection points: 4
#     Node 4, Type 0, BuildingBlock: QUQFOY_clean_sbu_1, # of connection points: 4
#     Node 5, Type 0, BuildingBlock: QUQFOY_clean_sbu_1, # of connection points: 4
#     Node 6, Type 0, BuildingBlock: QUQFOY_clean_sbu_1, # of connection points: 4
#     Node 7, Type 0, BuildingBlock: QUQFOY_clean_sbu_1, # of connection points: 4
#     Node 8, Type 0, BuildingBlock: QUQFOY_clean_sbu_1, # of connection points: 4
#     Node 9, Type 0, BuildingBlock: QUQFOY_clean_sbu_1, # of connection points: 4
#     Node 10, Type 0, BuildingBlock: QUQFOY_clean_sbu_1, # of connection points: 4
#     Node 11, Type 0, BuildingBlock: QUQFOY_clean_sbu_1, # of connection points: 4
#     Node 12, Type 0, BuildingBlock: QUQFOY_clean_sbu_1, # of connection points: 4
#     Node 13, Type 0, BuildingBlock: QUQFOY_clean_sbu_1, # of connection points: 4
#     Node 14, Type 0, BuildingBlock: QUQFOY_clean_sbu_1, # of connection points: 4
#     Node 15, Type 0, BuildingBlock: QUQFOY_clean_sbu_1, # of connection points: 4
#     Node 16, Type 0, BuildingBlock: QUQFOY_clean_sbu_1, # of connection points: 4
#     Node 17, Type 0, BuildingBlock: QUQFOY_clean_sbu_1, # of connection points: 4
#     Node 18, Type 0, BuildingBlock: QUQFOY_clean_sbu_1, # of connection points: 4
#     Node 19, Type 0, BuildingBlock: QUQFOY_clean_sbu_1, # of connection points: 4
#     Node 20, Type 0, BuildingBlock: QUQFOY_clean_sbu_1, # of connection points: 4
#     Node 21, Type 0, BuildingBlock: QUQFOY_clean_sbu_1, # of connection points: 4
#     Node 22, Type 0, BuildingBlock: QUQFOY_clean_sbu_1, # of connection points: 4
#     Node 23, Type 0, BuildingBlock: QUQFOY_clean_sbu_1, # of connection points: 4
#     Node 24, Type 0, BuildingBlock: QUQFOY_clean_sbu_1, # of connection points: 4
#     Node 25, Type 0, BuildingBlock: QUQFOY_clean_sbu_1, # of connection points: 4
#     Node 26, Type 0, BuildingBlock: QUQFOY_clean_sbu_1, # of connection points: 4
#     Node 27, Type 0, BuildingBlock: QUQFOY_clean_sbu_1, # of connection points: 4
#     Node 28, Type 0, BuildingBlock: QUQFOY_clean_sbu_1, # of connection points: 4
#     Node 29, Type 0, BuildingBlock: QUQFOY_clean_sbu_1, # of connection points: 4
#     Node 30, Type 0, BuildingBlock: QUQFOY_clean_sbu_1, # of connection points: 4
#     Node 31, Type 0, BuildingBlock: QUQFOY_clean_sbu_1, # of connection points: 4
#     Edge 32, Type (0, 0), BuildingBlock: KIFKEQ_clean_linker_1, # of connection points: 2
#     Edge 33, Type (0, 0), BuildingBlock: KIFKEQ_clean_linker_1, # of connection points: 2
#     Edge 34, Type (0, 0), BuildingBlock: KIFKEQ_clean_linker_1, # of connection points: 2
#     Edge 35, Type (0, 0), BuildingBlock: KIFKEQ_clean_linker_1, # of connection points: 2
#     Edge 36, Type (0, 0), BuildingBlock: KIFKEQ_clean_linker_1, # of connection points: 2
#     Edge 37, Type (0, 0), BuildingBlock: KIFKEQ_clean_linker_1, # of connection points: 2
#     Edge 38, Type (0, 0), BuildingBlock: KIFKEQ_clean_linker_1, # of connection points: 2
#     Edge 39, Type (0, 0), BuildingBlock: KIFKEQ_clean_linker_1, # of connection points: 2
#     Edge 40, Type (0, 0), BuildingBlock: KIFKEQ_clean_linker_1, # of connection points: 2
#     Edge 41, Type (0, 0), BuildingBlock: KIFKEQ_clean_linker_1, # of connection points: 2
#     Edge 42, Type (0, 0), BuildingBlock: KIFKEQ_clean_linker_1, # of connection points: 2
#     Edge 43, Type (0, 0), BuildingBlock: KIFKEQ_clean_linker_1, # of connection points: 2
#     Edge 44, Type (0, 0), BuildingBlock: KIFKEQ_clean_linker_1, # of connection points: 2
#     Edge 45, Type (0, 0), BuildingBlock: KIFKEQ_clean_linker_1, # of connection points: 2
#     Edge 46, Type (0, 0), BuildingBlock: KIFKEQ_clean_linker_1, # of connection points: 2
#     Edge 47, Type (0, 0), BuildingBlock: KIFKEQ_clean_linker_1, # of connection points: 2
#     Edge 48, Type (0, 0), BuildingBlock: KIFKEQ_clean_linker_1, # of connection points: 2
#     Edge 49, Type (0, 0), BuildingBlock: KIFKEQ_clean_linker_1, # of connection points: 2
#     Edge 50, Type (0, 0), BuildingBlock: KIFKEQ_clean_linker_1, # of connection points: 2
#     Edge 51, Type (0, 0), BuildingBlock: KIFKEQ_clean_linker_1, # of connection points: 2
#     Edge 52, Type (0, 0), BuildingBlock: KIFKEQ_clean_linker_1, # of connection points: 2
#     Edge 53, Type (0, 0), BuildingBlock: KIFKEQ_clean_linker_1, # of connection points: 2
#     Edge 54, Type (0, 0), BuildingBlock: KIFKEQ_clean_linker_1, # of connection points: 2
#     Edge 55, Type (0, 0), BuildingBlock: KIFKEQ_clean_linker_1, # of connection points: 2
#     Edge 56, Type (0, 0), BuildingBlock: KIFKEQ_clean_linker_1, # of connection points: 2
#     Edge 57, Type (0, 0), BuildingBlock: KIFKEQ_clean_linker_1, # of connection points: 2
#     Edge 58, Type (0, 0), BuildingBlock: KIFKEQ_clean_linker_1, # of connection points: 2
#     Edge 59, Type (0, 0), BuildingBlock: KIFKEQ_clean_linker_1, # of connection points: 2
#     Edge 60, Type (0, 0), BuildingBlock: KIFKEQ_clean_linker_1, # of connection points: 2
#     Edge 61, Type (0, 0), BuildingBlock: KIFKEQ_clean_linker_1, # of connection points: 2
#     Edge 62, Type (0, 0), BuildingBlock: KIFKEQ_clean_linker_1, # of connection points: 2
#     Edge 63, Type (0, 0), BuildingBlock: KIFKEQ_clean_linker_1, # of connection points: 2
#     Edge 64, Type (0, 0), BuildingBlock: KIFKEQ_clean_linker_1, # of connection points: 2
#     Edge 65, Type (0, 0), BuildingBlock: KIFKEQ_clean_linker_1, # of connection points: 2
#     Edge 66, Type (0, 0), BuildingBlock: KIFKEQ_clean_linker_1, # of connection points: 2
#     Edge 67, Type (0, 0), BuildingBlock: KIFKEQ_clean_linker_1, # of connection points: 2
#     Edge 68, Type (0, 0), BuildingBlock: KIFKEQ_clean_linker_1, # of connection points: 2
#     Edge 69, Type (0, 0), BuildingBlock: KIFKEQ_clean_linker_1, # of connection points: 2
#     Edge 70, Type (0, 0), BuildingBlock: KIFKEQ_clean_linker_1, # of connection points: 2
#     Edge 71, Type (0, 0), BuildingBlock: KIFKEQ_clean_linker_1, # of connection points: 2
#     Edge 72, Type (0, 0), BuildingBlock: KIFKEQ_clean_linker_1, # of connection points: 2
#     Edge 73, Type (0, 0), BuildingBlock: KIFKEQ_clean_linker_1, # of connection points: 2
#     Edge 74, Type (0, 0), BuildingBlock: KIFKEQ_clean_linker_1, # of connection points: 2
#     Edge 75, Type (0, 0), BuildingBlock: KIFKEQ_clean_linker_1, # of connection points: 2
#     Edge 76, Type (0, 0), BuildingBlock: KIFKEQ_clean_linker_1, # of connection points: 2
#     Edge 77, Type (0, 0), BuildingBlock: KIFKEQ_clean_linker_1, # of connection points: 2
#     Edge 78, Type (0, 0), BuildingBlock: KIFKEQ_clean_linker_1, # of connection points: 2
#     Edge 79, Type (0, 0), BuildingBlock: KIFKEQ_clean_linker_1, # of connection points: 2
#     Edge 80, Type (0, 0), BuildingBlock: KIFKEQ_clean_linker_1, # of connection points: 2
#     Edge 81, Type (0, 0), BuildingBlock: KIFKEQ_clean_linker_1, # of connection points: 2
#     Edge 82, Type (0, 0), BuildingBlock: KIFKEQ_clean_linker_1, # of connection points: 2
#     Edge 83, Type (0, 0), BuildingBlock: KIFKEQ_clean_linker_1, # of connection points: 2
#     Edge 84, Type (0, 0), BuildingBlock: KIFKEQ_clean_linker_1, # of connection points: 2
#     Edge 85, Type (0, 0), BuildingBlock: KIFKEQ_clean_linker_1, # of connection points: 2
#     Edge 86, Type (0, 0), BuildingBlock: KIFKEQ_clean_linker_1, # of connection points: 2
#     Edge 87, Type (0, 0), BuildingBlock: KIFKEQ_clean_linker_1, # of connection points: 2
#     Edge 88, Type (0, 0), BuildingBlock: KIFKEQ_clean_linker_1, # of connection points: 2
#     Edge 89, Type (0, 0), BuildingBlock: KIFKEQ_clean_linker_1, # of connection points: 2
#     Edge 90, Type (0, 0), BuildingBlock: KIFKEQ_clean_linker_1, # of connection points: 2
#     Edge 91, Type (0, 0), BuildingBlock: KIFKEQ_clean_linker_1, # of connection points: 2
#     Edge 92, Type (0, 0), BuildingBlock: KIFKEQ_clean_linker_1, # of connection points: 2
#     Edge 93, Type (0, 0), BuildingBlock: KIFKEQ_clean_linker_1, # of connection points: 2
#     Edge 94, Type (0, 0), BuildingBlock: KIFKEQ_clean_linker_1, # of connection points: 2
#     Edge 95, Type (0, 0), BuildingBlock: KIFKEQ_clean_linker_1, # of connection points: 2
# Relax obj value: 0.008
# Max RMSD: 0.047
# Mean RMSD: 0.047
data_MOF--net-ukd--node1-QUQFOY_clean_sbu_1--edge1-KIFKEQ_clean_linker_1
_symmetry_space_group_name_H-M    P1
_symmetry_Int_Tables_number       1
_symmetry_cell_setting            triclinic
loop_
_symmetry_equiv_pos_as_xyz
'x, y, z'
_cell_length_a     46.994207
_cell_length_b     46.9759
_cell_length_c     79.850911
_cell_angle_alpha  89.986202
_cell_angle_beta   89.994605
_cell_angle_gamma 90.003936
loop_
_atom_site_label
_atom_site_type_symbol
_atom_site_fract_x
_atom_site_fract_y
_atom_site_fract_z
_atom_type_partial_charge
O0 O 0.1967 0.16591 0.37547 0.0
Cd1 Cd 0.23008 0.19442 0.37441 0.0
Cd2 Cd 0.20427 0.20784 0.34475 0.0
O3 O 0.1796 0.17236 0.35 0.0
O4 O 0.25911 0.18021 0.39068 0.0
O5 O 0.26605 0.18083 0.36327 0.0
C6 C 0.27509 0.17414 0.37805 0.0
C7 C 0.22307 0.21661 0.31811 0.0
C8 C 0.17913 0.15935 0.36398 0.0
C9 C 0.20486 0.25259 0.37201 0.0
O10 O 0.19522 0.24433 0.35796 0.0
O11 O 0.22112 0.23647 0.38053 0.0
O12 O 0.19615 0.21839 0.32099 0.0
O13 O 0.23935 0.20832 0.33022 0.0
O14 O 0.09978 0.94767 0.62645 0.0
Cd15 Cd 0.0711 0.98088 0.62518 0.0
Cd16 Cd 0.05827 0.95505 0.59558 0.0
O17 O 0.09406 0.93088 0.60086 0.0
O18 O 0.08508 0.01037 0.64123 0.0
O19 O 0.08451 0.01666 0.61376 0.0
C20 C 0.09113 0.02609 0.62847 0.0
C21 C 0.04929 0.97394 0.569 0.0
C22 C 0.10677 0.93033 0.61493 0.0
C23 C 0.0133 0.95511 0.62269 0.0
O24 O 0.02185 0.94542 0.60871 0.0
O25 O 0.02909 0.9717 0.6312 0.0
O26 O 0.04794 0.94695 0.57179 0.0
O27 O 0.05729 0.99025 0.58115 0.0
O28 O 0.32101 0.84905 0.87472 0.0
Cd29 Cd 0.28703 0.8212 0.87426 0.0
Cd30 Cd 0.3133 0.80567 0.84448 0.0
O31 O 0.3391 0.84034 0.84969 0.0
O32 O 0.25857 0.83672 0.89048 0.0
O33 O 0.25106 0.83491 0.86314 0.0
C34 C 0.2424 0.8424 0.87786 0.0
C35 C 0.29794 0.79568 0.81719 0.0
C36 C 0.33928 0.85428 0.86336 0.0
C37 C 0.31045 0.7623 0.8728 0.0
O38 O 0.31986 0.76952 0.85851 0.0
O39 O 0.29516 0.7794 0.88126 0.0
O40 O 0.32408 0.79232 0.82161 0.0
O41 O 0.28058 0.8063 0.82808 0.0
O42 O 0.41571 0.07289 0.12236 0.0
Cd43 Cd 0.44388 0.03917 0.12306 0.0
Cd44 Cd 0.46056 0.06529 0.09311 0.0
O45 O 0.42606 0.09159 0.09772 0.0
O46 O 0.42703 0.01292 0.14005 0.0
O47 O 0.43145 1.00152 0.11332 0.0
C48 C 0.42256 0.99492 0.12815 0.0
C49 C 0.47102 0.04927 0.06603 0.0
C50 C 0.41118 0.09139 0.11104 0.0
C51 C 0.5029 0.06248 0.12207 0.0
O52 O 0.49629 0.07138 0.10755 0.0
O53 O 0.48531 0.04779 0.13056 0.0
O54 O 0.4748 0.07543 0.07033 0.0
O55 O 0.45981 0.03228 0.07692 0.0
O56 O 0.19481 0.85364 0.15337 0.0
Cd57 Cd 0.22827 0.82526 0.15231 0.0
Cd58 Cd 0.20183 0.80747 0.18203 0.0
O59 O 0.1756 0.84219 0.1777 0.0
O60 O 0.25437 0.84246 0.13537 0.0
O61 O 0.26619 0.8371 0.16196 0.0
C62 C 0.27261 0.84638 0.1472 0.0
C63 C 0.21788 0.79631 0.20904 0.0
C64 C 0.17611 0.85769 0.16463 0.0
C65 C 0.20463 0.76629 0.15249 0.0
O66 O 0.19587 0.7722 0.16714 0.0
O67 O 0.21922 0.78426 0.14422 0.0
O68 O 0.19174 0.79258 0.2047 0.0
O69 O 0.23484 0.80782 0.19824 0.0
O70 O 0.41808 0.94758 0.4003 0.0
Cd71 Cd 0.44601 0.9814 0.40189 0.0
Cd72 Cd 0.45871 0.95534 0.43151 0.0
O73 O 0.42336 0.93071 0.42591 0.0
O74 O 0.43182 0.01063 0.38574 0.0
O75 O 0.43154 0.01685 0.41321 0.0
C76 C 0.42512 0.02618 0.39845 0.0
C77 C 0.46728 0.97386 0.45823 0.0
C78 C 0.41108 0.93003 0.41171 0.0
C79 C 0.50417 0.95659 0.40468 0.0
O80 O 0.49543 0.94643 0.41851 0.0
O81 O 0.48834 0.97315 0.39618 0.0
O82 O 0.46887 0.94693 0.45529 0.0
O83 O 0.45919 0.99029 0.44615 0.0
O84 O 0.31794 0.16806 0.64929 0.0
Cd85 Cd 0.2845 0.19643 0.65084 0.0
Cd86 Cd 0.31043 0.20889 0.68049 0.0
O87 O 0.33468 0.17325 0.67493 0.0
O88 O 0.25495 0.18244 0.63483 0.0
O89 O 0.24902 0.18247 0.66233 0.0
C90 C 0.23948 0.176 0.64763 0.0
C91 C 0.29212 0.21753 0.70726 0.0
C92 C 0.33531 0.16088 0.66076 0.0
C93 C 0.3098 0.25437 0.65364 0.0
O94 O 0.31971 0.24556 0.66751 0.0
O95 O 0.29321 0.23866 0.64508 0.0
O96 O 0.31903 0.21895 0.70426 0.0
O97 O 0.27557 0.20962 0.6952 0.0
O98 O 0.10108 0.06963 0.90056 0.0
Cd99 Cd 0.07256 0.03625 0.90143 0.0
Cd100 Cd 0.0584 0.0623 0.931 0.0
O101 O 0.09403 0.08689 0.92593 0.0
O102 O 0.08715 1.00725 0.88524 0.0
O103 O 0.08607 1.0003 0.91265 0.0
C104 C 0.09308 0.9913 0.89792 0.0
C105 C 0.04912 0.04382 0.95767 0.0
C106 C 0.10738 0.08725 0.91207 0.0
C107 C 0.01431 0.06142 0.90334 0.0
O108 O 0.02221 0.07114 0.91744 0.0
O109 O 0.03066 0.04514 0.89498 0.0
O110 O 0.04735 0.07071 0.95465 0.0
O111 O 0.05763 0.02739 0.9457 0.0
O112 O 0.81823 0.77032 0.66773 0.0
Cd113 Cd 0.81164 0.80674 0.68149 0.0
Cd114 Cd 0.78515 0.82142 0.65169 0.0
O115 O 0.79285 0.77934 0.64512 0.0
O116 O 0.8225 0.7938 0.70444 0.0
O117 O 0.77893 0.80749 0.69792 0.0
C118 C 0.79633 0.79706 0.70885 0.0
C119 C 0.74071 0.84307 0.64816 0.0
C120 C 0.80846 0.76258 0.65361 0.0
C121 C 0.8376 0.85468 0.66207 0.0
O122 O 0.81937 0.84894 0.65078 0.0
O123 O 0.83732 0.84137 0.67596 0.0
O124 O 0.75659 0.83685 0.6355 0.0
O125 O 0.74951 0.8358 0.66289 0.0
O126 O 0.91693 0.07101 0.40193 0.0
Cd127 Cd 0.94489 0.0371 0.40261 0.0
Cd128 Cd 0.95996 0.0637 0.43231 0.0
O129 O 0.92523 0.08933 0.42694 0.0
O130 O 0.92965 1.00842 0.38644 0.0
O131 O 0.93117 1.0012 0.41381 0.0
C132 C 0.9239 0.99235 0.39909 0.0
C133 C 0.96972 0.0481 0.45958 0.0
C134 C 0.91145 0.08934 0.41321 0.0
C135 C 1.00375 0.06061 0.40427 0.0
O136 O 0.99626 0.07031 0.41845 0.0
O137 O 0.98681 0.04512 0.39582 0.0
O138 O 0.97299 0.07433 0.45527 0.0
O139 O 0.95925 0.03081 0.4486 0.0
O140 O 0.69429 0.24591 0.16903 0.0
Cd141 Cd 0.70313 0.20938 0.18224 0.0
Cd142 Cd 0.72888 0.19581 0.15261 0.0
O143 O 0.7203 0.23794 0.14652 0.0
O144 O 0.69516 0.21999 0.20599 0.0
O145 O 0.73828 0.20978 0.19668 0.0
C146 C 0.7221 0.21816 0.2088 0.0
C147 C 0.77374 0.17526 0.14898 0.0
C148 C 0.70411 0.25415 0.15502 0.0
C149 C 0.67778 0.16099 0.16308 0.0
O150 O 0.69535 0.16746 0.15157 0.0
O151 O 0.67831 0.17402 0.17704 0.0
O152 O 0.75783 0.18146 0.13634 0.0
O153 O 0.76471 0.18197 0.16376 0.0
O154 O 0.60172 0.94646 0.90024 0.0
Cd155 Cd 0.57311 0.97979 0.90034 0.0
Cd156 Cd 0.55885 0.9546 0.93024 0.0
O157 O 0.59413 0.92937 0.92559 0.0
O158 O 0.58877 1.00696 0.88346 0.0
O159 O 0.58543 0.01719 0.91041 0.0
C160 C 0.59361 0.02449 0.89556 0.0
C161 C 0.54961 0.97362 0.95676 0.0
C162 C 0.60771 0.92885 0.91181 0.0
C163 C 0.51493 0.95473 0.90237 0.0
O164 O 0.52267 0.9458 0.91669 0.0
O165 O 0.53143 0.97038 0.8937 0.0
O166 O 0.5475 0.94671 0.95388 0.0
O167 O 0.5584 0.98976 0.94471 0.0
O168 O 0.82171 0.24533 0.85699 0.0
Cd169 Cd 0.81357 0.20893 0.84348 0.0
Cd170 Cd 0.78758 0.19487 0.87325 0.0
O171 O 0.79642 0.23676 0.87973 0.0
O172 O 0.8221 0.22015 0.81988 0.0
O173 O 0.77886 0.20907 0.82862 0.0
C174 C 0.79531 0.21789 0.81673 0.0
C175 C 0.74295 0.17411 0.87787 0.0
C176 C 0.81225 0.25323 0.87116 0.0
C177 C 0.83911 0.16048 0.86244 0.0
O178 O 0.82114 0.16654 0.8738 0.0
O179 O 0.83887 0.17383 0.84857 0.0
O180 O 0.76022 0.17928 0.89005 0.0
O181 O 0.75048 0.18206 0.86302 0.0
O182 O 0.59564 0.07168 0.6269 0.0
Cd183 Cd 0.56916 0.03676 0.62518 0.0
Cd184 Cd 0.5568 0.06232 0.59516 0.0
O185 O 0.59233 0.0868 0.60079 0.0
O186 O 0.5842 1.0078 0.64125 0.0
O187 O 0.58476 1.00189 0.61375 0.0
C188 C 0.59133 0.99255 0.62849 0.0
C189 C 0.54729 0.04671 0.56785 0.0
C190 C 0.60341 0.08854 0.6153 0.0
C191 C 0.51099 0.06014 0.62218 0.0
O192 O 0.52003 0.07043 0.60846 0.0
O193 O 0.52668 0.04362 0.63077 0.0
O194 O 0.54491 0.0731 0.572 0.0
O195 O 0.55681 0.0292 0.579 0.0
O196 O 0.69582 0.77237 0.35931 0.0
Cd197 Cd 0.70536 0.80895 0.34629 0.0
Cd198 Cd 0.73092 0.82161 0.37597 0.0
O199 O 0.722 0.77947 0.38184 0.0
O200 O 0.69742 0.79878 0.32246 0.0
O201 O 0.74061 0.80828 0.33192 0.0
C202 C 0.72441 0.8003 0.31971 0.0
C203 C 0.77586 0.84213 0.37933 0.0
C204 C 0.70548 0.76371 0.37327 0.0
C205 C 0.68021 0.85705 0.36577 0.0
O206 O 0.69749 0.84999 0.3773 0.0
O207 O 0.68097 0.84456 0.35163 0.0
O208 O 0.76025 0.83574 0.39208 0.0
O209 O 0.76653 0.83552 0.3646 0.0
O210 O 0.91597 0.94794 0.12469 0.0
Cd211 Cd 0.94388 0.98184 0.12447 0.0
Cd212 Cd 0.96042 0.95507 0.09491 0.0
O213 O 0.92583 0.92904 0.10003 0.0
O214 O 0.9281 0.01 0.14076 0.0
O215 O 0.93044 0.01807 0.1135 0.0
C216 C 0.92272 0.02645 0.12823 0.0
C217 C 0.97065 0.9705 0.06764 0.0
C218 C 0.91129 0.92928 0.11348 0.0
C219 C 1.00292 0.95857 0.12366 0.0
O220 O 0.99632 0.94912 0.10927 0.0
O221 O 0.98538 0.97366 0.13192 0.0
O222 O 0.9743 0.9444 0.07212 0.0
O223 O 0.95966 0.98776 0.07846 0.0
O224 O 0.69747 0.66588 0.8758 0.0
Cd225 Cd 0.73096 0.69425 0.87463 0.0
Cd226 Cd 0.7048 0.70801 0.84514 0.0
O227 O 0.68009 0.67256 0.85042 0.0
O228 O 0.76021 0.67981 0.89069 0.0
O229 O 0.76668 0.68062 0.86324 0.0
C230 C 0.77596 0.6738 0.87795 0.0
C231 C 0.72327 0.71709 0.81846 0.0
C232 C 0.67973 0.65946 0.86437 0.0
C233 C 0.70607 0.75255 0.87251 0.0
O234 O 0.69614 0.74443 0.8585 0.0
O235 O 0.72236 0.73629 0.8809 0.0
O236 O 0.69638 0.71884 0.82146 0.0
O237 O 0.73968 0.70862 0.83045 0.0
O238 O 0.60042 0.44892 0.12749 0.0
Cd239 Cd 0.57234 0.4826 0.12655 0.0
Cd240 Cd 0.55817 0.457 0.09693 0.0
O241 O 0.59348 0.43199 0.10203 0.0
O242 O 0.58714 0.51153 0.14269 0.0
O243 O 0.58615 0.51836 0.11527 0.0
C244 C 0.5932 0.52738 0.12999 0.0
C245 C 0.54906 0.47539 0.07021 0.0
C246 C 0.60663 0.4313 0.11596 0.0
C247 C 0.514 0.45796 0.12456 0.0
O248 O 0.52184 0.44839 0.11041 0.0
O249 O 0.53044 0.47399 0.13301 0.0
O250 O 0.54713 0.44853 0.07328 0.0
O251 O 0.55766 0.49184 0.08216 0.0
O252 O 0.82048 0.35093 0.3754 0.0
Cd253 Cd 0.78679 0.32273 0.37493 0.0
Cd254 Cd 0.81304 0.30774 0.34513 0.0
O255 O 0.83848 0.34268 0.35031 0.0
O256 O 0.75822 0.33791 0.39118 0.0
O257 O 0.75073 0.33623 0.36383 0.0
C258 C 0.74202 0.34357 0.37857 0.0
C259 C 0.79715 0.29779 0.31795 0.0
C260 C 0.83859 0.35651 0.36402 0.0
C261 C 0.8107 0.26404 0.37326 0.0
O262 O 0.8201 0.27153 0.35901 0.0
O263 O 0.79522 0.2809 0.38176 0.0
O264 O 0.82344 0.29468 0.32214 0.0
O265 O 0.77994 0.30819 0.329 0.0
O266 O 0.9177 0.57167 0.62487 0.0
Cd267 Cd 0.94638 0.53845 0.62343 0.0
Cd268 Cd 0.9591 0.56465 0.59396 0.0
O269 O 0.92329 0.58874 0.59932 0.0
O270 O 0.9324 0.50869 0.63933 0.0
O271 O 0.93275 0.50297 0.61181 0.0
C272 C 0.92618 0.49328 0.62647 0.0
C273 C 0.968 0.54552 0.56744 0.0
C274 C 0.91062 0.5891 0.61341 0.0
C275 C 1.00427 0.56412 0.6209 0.0
O276 O 0.99557 0.57418 0.60704 0.0
O277 O 0.98853 0.54735 0.62933 0.0
O278 O 0.96933 0.57254 0.57013 0.0
O279 O 0.96 0.52933 0.57966 0.0
O280 O 0.69894 0.34944 0.64903 0.0
Cd281 Cd 0.73296 0.32188 0.64867 0.0
Cd282 Cd 0.70785 0.30418 0.67876 0.0
O283 O 0.68041 0.33782 0.67353 0.0
O284 O 0.76104 0.33834 0.63256 0.0
O285 O 0.76914 0.33499 0.6598 0.0
C286 C 0.77748 0.3433 0.64516 0.0
C287 C 0.72267 0.29471 0.70625 0.0
C288 C 0.6802 0.35303 0.66032 0.0
C289 C 0.71188 0.26203 0.64978 0.0
O290 O 0.70393 0.26768 0.66462 0.0
O291 O 0.72459 0.2806 0.64094 0.0
O292 O 0.69693 0.29001 0.70146 0.0
O293 O 0.73986 0.30634 0.69563 0.0
O294 O 0.91772 0.44675 0.89933 0.0
Cd295 Cd 0.94607 0.48023 0.90061 0.0
Cd296 Cd 0.95894 0.45469 0.93027 0.0
O297 O 0.92355 0.43 0.92493 0.0
O298 O 0.93189 0.50959 0.88453 0.0
O299 O 0.93229 0.51586 0.912 0.0
C300 C 0.92564 0.52523 0.89729 0.0
C301 C 0.96732 0.47382 0.95685 0.0
C302 C 0.9109 0.42931 0.91084 0.0
C303 C 1.00411 0.45507 0.90327 0.0
O304 O 0.99559 0.44545 0.91728 0.0
O305 O 0.98819 0.47139 0.89467 0.0
O306 O 0.96912 0.44684 0.9541 0.0
O307 O 0.95923 0.48995 0.94464 0.0
O308 O 0.82223 0.66758 0.15319 0.0
Cd309 Cd 0.78853 0.69576 0.15352 0.0
Cd310 Cd 0.81525 0.71171 0.18306 0.0
O311 O 0.84104 0.67699 0.17793 0.0
O312 O 0.76004 0.68029 0.13732 0.0
O313 O 0.75237 0.68252 0.16463 0.0
C314 C 0.74373 0.67496 0.14992 0.0
C315 C 0.79944 0.72174 0.21025 0.0
C316 C 0.84077 0.66261 0.16443 0.0
C317 C 0.81217 0.75467 0.15459 0.0
O318 O 0.82166 0.74774 0.16891 0.0
O319 O 0.79689 0.73738 0.14626 0.0
O320 O 0.82564 0.7252 0.20597 0.0
O321 O 0.78229 0.71101 0.19929 0.0
O322 O 0.59798 0.57029 0.40121 0.0
Cd323 Cd 0.57038 0.53614 0.40224 0.0
Cd324 Cd 0.55592 0.56273 0.43202 0.0
O325 O 0.59055 0.58835 0.42638 0.0
O326 O 0.58558 0.50744 0.38607 0.0
O327 O 0.58475 0.50055 0.41349 0.0
C328 C 0.59185 0.49163 0.39875 0.0
C329 C 0.54656 0.54732 0.45939 0.0
C330 C 0.60381 0.58854 0.41247 0.0
C331 C 0.51158 0.55947 0.40426 0.0
O332 O 0.51939 0.56931 0.41835 0.0
O333 O 0.5283 0.54385 0.39575 0.0
O334 O 0.54324 0.57351 0.45503 0.0
O335 O 0.55684 0.52995 0.4484 0.0
O336 O 0.31956 0.27113 0.1668 0.0
Cd337 Cd 0.31353 0.30658 0.18154 0.0
Cd338 Cd 0.28735 0.32389 0.15169 0.0
O339 O 0.29612 0.28271 0.14384 0.0
O340 O 0.3238 0.2919 0.20422 0.0
O341 O 0.28063 0.307 0.19783 0.0
C342 C 0.29769 0.29561 0.20862 0.0
C343 C 0.24315 0.34533 0.14666 0.0
C344 C 0.31076 0.26492 0.15221 0.0
C345 C 0.33958 0.35631 0.16383 0.0
O346 O 0.32106 0.35199 0.15251 0.0
O347 O 0.33979 0.34123 0.17707 0.0
O348 O 0.2612 0.34105 0.13477 0.0
O349 O 0.24967 0.33617 0.16144 0.0
O350 O 0.41771 0.57049 0.90242 0.0
Cd351 Cd 0.44573 0.53665 0.9031 0.0
Cd352 Cd 0.46074 0.56355 0.93286 0.0
O353 O 0.42595 0.58904 0.92738 0.0
O354 O 0.43058 0.50818 0.88677 0.0
O355 O 0.43185 0.50062 0.91411 0.0
C356 C 0.42465 0.49198 0.89933 0.0
C357 C 0.47046 0.54823 0.9602 0.0
C358 C 0.41216 0.58888 0.91366 0.0
C359 C 0.50456 0.56033 0.90481 0.0
O360 O 0.49704 0.57007 0.91897 0.0
O361 O 0.48766 0.54477 0.89637 0.0
O362 O 0.47375 0.5744 0.95579 0.0
O363 O 0.46003 0.53082 0.94928 0.0
O364 O 0.19802 0.74626 0.6674 0.0
Cd365 Cd 0.20684 0.70939 0.68029 0.0
Cd366 Cd 0.23269 0.69681 0.65067 0.0
O367 O 0.22445 0.73917 0.64496 0.0
O368 O 0.19834 0.7194 0.70408 0.0
O369 O 0.24168 0.70954 0.69501 0.0
C370 C 0.22523 0.71759 0.70708 0.0
C371 C 0.27753 0.67591 0.64761 0.0
C372 C 0.20802 0.75502 0.65353 0.0
C373 C 0.1813 0.66194 0.66042 0.0
O374 O 0.19886 0.66891 0.649 0.0
O375 O 0.18206 0.67418 0.67463 0.0
O376 O 0.26226 0.68252 0.63476 0.0
O377 O 0.26789 0.68243 0.66228 0.0
O378 O 0.09978 0.44684 0.40049 0.0
Cd379 Cd 0.07205 0.48089 0.4014 0.0
Cd380 Cd 0.05744 0.45446 0.43113 0.0
O381 O 0.09202 0.42872 0.42561 0.0
O382 O 0.08719 0.50968 0.38527 0.0
O383 O 0.08603 0.51663 0.41267 0.0
C384 C 0.09316 0.5256 0.39795 0.0
C385 C 0.04794 0.47024 0.45839 0.0
C386 C 0.10544 0.42854 0.41176 0.0
C387 C 0.01327 0.45746 0.40331 0.0
O388 O 0.02096 0.44778 0.41745 0.0
O389 O 0.03007 0.47298 0.39478 0.0
O390 O 0.04466 0.44398 0.45417 0.0
O391 O 0.05832 0.48746 0.44734 0.0
O392 O 0.32172 0.7453 0.358 0.0
Cd393 Cd 0.31238 0.70874 0.34492 0.0
Cd394 Cd 0.2865 0.69584 0.37455 0.0
O395 O 0.29539 0.73799 0.38047 0.0
O396 O 0.32031 0.71901 0.3211 0.0
O397 O 0.27715 0.70931 0.33053 0.0
C398 C 0.29334 0.71737 0.31833 0.0
C399 C 0.24153 0.67543 0.37802 0.0
C400 C 0.31191 0.75387 0.37195 0.0
C401 C 0.33724 0.66036 0.36433 0.0
O402 O 0.31983 0.66729 0.37582 0.0
O403 O 0.33675 0.6731 0.35026 0.0
O404 O 0.25725 0.68174 0.39073 0.0
O405 O 0.25077 0.68205 0.36327 0.0
O406 O 0.10165 0.57362 0.12206 0.0
Cd407 Cd 0.0735 0.53992 0.12299 0.0
Cd408 Cd 0.056 0.56606 0.09322 0.0
O409 O 0.09041 0.59261 0.09764 0.0
O410 O 0.09069 0.51371 0.13988 0.0
O411 O 0.08559 0.50217 0.11323 0.0
C412 C 0.09477 0.49561 0.12799 0.0
C413 C 0.04524 0.5499 0.0662 0.0
C414 C 0.10571 0.59231 0.11078 0.0
C415 C 0.01442 0.56316 0.12254 0.0
O416 O 0.02053 0.57192 0.10792 0.0
O417 O 0.03234 0.54866 0.1309 0.0
O418 O 0.04133 0.57603 0.0705 0.0
O419 O 0.05672 0.53301 0.07704 0.0
O420 O 0.19894 0.26953 0.8586 0.0
Cd421 Cd 0.20543 0.306 0.84485 0.0
Cd422 Cd 0.23191 0.3207 0.87474 0.0
O423 O 0.22411 0.27862 0.88128 0.0
O424 O 0.19434 0.29314 0.82192 0.0
O425 O 0.23798 0.30678 0.8283 0.0
C426 C 0.22046 0.29641 0.81743 0.0
C427 C 0.27638 0.34218 0.87843 0.0
C428 C 0.20863 0.26182 0.87274 0.0
C429 C 0.17957 0.35404 0.86428 0.0
O430 O 0.19778 0.34832 0.87558 0.0
O431 O 0.17981 0.34065 0.85042 0.0
O432 O 0.26038 0.33595 0.89103 0.0
O433 O 0.26767 0.33504 0.86366 0.0
O434 O 0.41752 0.44742 0.62683 0.0
Cd435 Cd 0.44619 0.48062 0.62573 0.0
Cd436 Cd 0.45913 0.45519 0.59595 0.0
O437 O 0.42341 0.43084 0.6012 0.0
O438 O 0.43205 0.51008 0.64176 0.0
O439 O 0.43291 0.51643 0.6143 0.0
C440 C 0.42611 0.52581 0.62899 0.0
C441 C 0.46812 0.47391 0.56931 0.0
C442 C 0.41064 0.43015 0.61525 0.0
C443 C 0.50399 0.45491 0.6232 0.0
O444 O 0.49556 0.44562 0.6091 0.0
O445 O 0.48812 0.47122 0.63184 0.0
O446 O 0.46952 0.44695 0.57218 0.0
O447 O 0.46007 0.49029 0.58142 0.0
H448 H 0.14219 0.42541 0.38535 0.0
H449 H 0.11543 0.37946 0.42952 0.0
H450 H 0.17118 0.38502 0.37687 0.0
H451 H 0.14409 0.33871 0.4208 0.0
H452 H 0.211 0.27392 0.40393 0.0
H453 H 0.19179 0.31868 0.41493 0.0
H454 H 0.1582 0.33874 0.36597 0.0
H455 H 0.17752 0.29469 0.35502 0.0
C456 C 0.14269 0.4068 0.39335 0.0
C457 C 0.12614 0.40555 0.40801 0.0
C458 C 0.15926 0.38358 0.38844 0.0
C459 C 0.15961 0.35845 0.398 0.0
C460 C 0.14441 0.35778 0.41318 0.0
C461 C 0.12787 0.38112 0.41815 0.0
C462 C 0.19985 0.28812 0.3955 0.0
C463 C 0.19572 0.28065 0.37861 0.0
C464 C 0.1887 0.31366 0.40182 0.0
C465 C 0.17348 0.33232 0.39134 0.0
C466 C 0.17016 0.32513 0.37436 0.0
C467 C 0.18108 0.29968 0.3681 0.0
H468 H 0.97177 0.92706 0.60564 0.0
H469 H 0.9915 0.96133 0.6545 0.0
H470 H 0.92779 0.90739 0.61647 0.0
H471 H 0.94682 0.94176 0.66538 0.0
H472 H 0.88643 0.86504 0.67997 0.0
H473 H 0.92713 0.89385 0.67131 0.0
H474 H 0.88125 0.92026 0.6271 0.0
H475 H 0.84092 0.89113 0.63552 0.0
C476 C 0.96657 0.93072 0.61868 0.0
C477 C 0.98528 0.94569 0.62921 0.0
C478 C 0.94115 0.91959 0.62487 0.0
C479 C 0.9337 0.92305 0.64179 0.0
C480 C 0.95206 0.93857 0.6523 0.0
C481 C 0.97754 0.94993 0.64605 0.0
C482 C 0.88486 0.87735 0.66854 0.0
C483 C 0.86056 0.8754 0.65831 0.0
C484 C 0.90816 0.89398 0.66362 0.0
C485 C 0.9076 0.90903 0.64839 0.0
C486 C 0.88261 0.90844 0.63872 0.0
C487 C 0.85942 0.8918 0.6436 0.0
H488 H 0.37313 0.58999 0.88838 0.0
H489 H 0.40332 0.63899 0.93058 0.0
H490 H 0.34299 0.62955 0.87991 0.0
H491 H 0.37361 0.67897 0.92181 0.0
H492 H 0.30638 0.74323 0.90535 0.0
H493 H 0.32587 0.69895 0.91688 0.0
H494 H 0.35444 0.67474 0.86746 0.0
H495 H 0.33476 0.71823 0.85603 0.0
C496 C 0.37316 0.60913 0.89595 0.0
C497 C 0.39097 0.61146 0.91002 0.0
C498 C 0.35593 0.63186 0.89105 0.0
C499 C 0.35623 0.65763 0.90001 0.0
C500 C 0.37274 0.65939 0.91467 0.0
C501 C 0.38989 0.63651 0.91965 0.0
C502 C 0.3164 0.72817 0.89695 0.0
C503 C 0.31912 0.73434 0.87978 0.0
C504 C 0.32774 0.70292 0.90356 0.0
C505 C 0.34174 0.68327 0.89311 0.0
C506 C 0.34346 0.6891 0.87587 0.0
C507 C 0.33233 0.71425 0.86931 0.0
H508 H 0.52182 0.05773 0.15463 0.0
H509 H 0.54728 0.08655 0.10546 0.0
H510 H 0.56652 0.07607 0.16622 0.0
H511 H 0.59111 0.10516 0.11696 0.0
H512 H 0.67603 0.12242 0.13757 0.0
H513 H 0.63604 0.09285 0.12909 0.0
H514 H 0.58771 0.1229 0.17159 0.0
H515 H 0.62814 0.15191 0.18037 0.0
C516 C 0.53703 0.06765 0.14628 0.0
C517 C 0.53089 0.07078 0.12914 0.0
C518 C 0.56254 0.07831 0.15293 0.0
C519 C 0.58246 0.09208 0.14253 0.0
C520 C 0.57658 0.09429 0.12533 0.0
C521 C 0.55121 0.0838 0.11873 0.0
C522 C 0.65705 0.12239 0.14527 0.0
C523 C 0.65513 0.13986 0.1595 0.0
C524 C 0.63406 0.10551 0.14037 0.0
C525 C 0.60844 0.10589 0.14947 0.0
C526 C 0.60714 0.12197 0.16432 0.0
C527 C 0.6303 0.13872 0.16931 0.0
H528 H 0.18316 0.72016 0.16868 0.0
H529 H 0.20657 0.74999 0.11937 0.0
H530 H 0.16433 0.67677 0.15662 0.0
H531 H 0.18785 0.70586 0.10719 0.0
H532 H 0.14789 0.59295 0.13421 0.0
H533 H 0.17734 0.6331 0.14255 0.0
H534 H 0.14016 0.68417 0.10324 0.0
H535 H 0.11104 0.64364 0.0946 0.0
C536 C 0.18465 0.71729 0.15524 0.0
C537 C 0.19625 0.73866 0.14499 0.0
C538 C 0.17403 0.69222 0.14832 0.0
C539 C 0.17463 0.68775 0.13092 0.0
C540 C 0.18693 0.70875 0.12063 0.0
C541 C 0.1978 0.73391 0.12761 0.0
C542 C 0.14629 0.61258 0.12715 0.0
C543 C 0.12677 0.61522 0.1139 0.0
C544 C 0.16313 0.63564 0.13197 0.0
C545 C 0.16073 0.66201 0.12377 0.0
C546 C 0.14262 0.66413 0.10979 0.0
C547 C 0.12583 0.64092 0.10488 0.0
H548 H 0.5455 0.92832 0.42177 0.0
H549 H 0.52677 0.96423 0.37317 0.0
H550 H 0.58983 0.90929 0.41109 0.0
H551 H 0.57186 0.94535 0.36245 0.0
H552 H 0.63231 0.86902 0.3474 0.0
H553 H 0.59172 0.89798 0.35601 0.0
H554 H 0.63656 0.92206 0.40105 0.0
H555 H 0.67675 0.89269 0.39268 0.0
C556 C 0.55101 0.9325 0.40883 0.0
C557 C 0.53245 0.9477 0.39831 0.0
C558 C 0.57664 0.92174 0.40272 0.0
C559 C 0.58449 0.92583 0.38591 0.0
C560 C 0.56632 0.94166 0.37544 0.0
C561 C 0.5406 0.95262 0.3816 0.0
C562 C 0.63369 0.88089 0.359 0.0
C563 C 0.6576 0.87816 0.36948 0.0
C564 C 0.61045 0.8976 0.3639 0.0
C565 C 0.61071 0.912 0.37935 0.0
C566 C 0.63541 0.91074 0.38925 0.0
C567 C 0.65852 0.89397 0.38441 0.0
H568 H 0.3381 0.29553 0.67085 0.0
H569 H 0.30277 0.27703 0.62209 0.0
H570 H 0.35751 0.3398 0.66026 0.0
H571 H 0.32203 0.32203 0.61146 0.0
H572 H 0.37457 0.42676 0.64197 0.0
H573 H 0.34498 0.38661 0.65018 0.0
H574 H 0.36961 0.34174 0.60525 0.0
H575 H 0.3988 0.38228 0.5968 0.0
C576 C 0.33414 0.30108 0.65789 0.0
C577 C 0.31898 0.2826 0.6473 0.0
C578 C 0.34511 0.32666 0.65184 0.0
C579 C 0.34128 0.33455 0.63501 0.0
C580 C 0.32551 0.31646 0.62446 0.0
C581 C 0.31434 0.29078 0.63057 0.0
C582 C 0.37336 0.40853 0.63369 0.0
C583 C 0.3894 0.40759 0.61884 0.0
C584 C 0.35647 0.38545 0.63844 0.0
C585 C 0.3553 0.36075 0.62852 0.0
C586 C 0.36992 0.36048 0.61315 0.0
C587 C 0.38677 0.38369 0.60834 0.0
H588 H 0.99381 0.05519 0.87123 0.0
H589 H 0.97169 0.08861 0.91994 0.0
H590 H 0.94924 0.07417 0.85984 0.0
H591 H 0.92782 0.1077 0.90861 0.0
H592 H 0.84164 0.12328 0.88864 0.0
H593 H 0.8819 0.09431 0.89734 0.0
H594 H 0.92901 0.12182 0.8538 0.0
H595 H 0.88836 0.15047 0.84485 0.0
C596 C 0.97935 0.06628 0.87954 0.0
C597 C 0.98638 0.07045 0.89649 0.0
C598 C 0.95393 0.07729 0.87299 0.0
C599 C 0.93493 0.09241 0.88331 0.0
C600 C 0.94169 0.0958 0.90034 0.0
C601 C 0.96704 0.08501 0.90683 0.0
C602 C 0.86039 0.12285 0.88075 0.0
C603 C 0.8619 0.13955 0.86616 0.0
C604 C 0.88354 0.10631 0.88579 0.0
C605 C 0.90887 0.10613 0.87643 0.0
C606 C 0.90978 0.12138 0.86127 0.0
C607 C 0.8865 0.1379 0.85617 0.0
H608 H 0.89937 0.638 0.59579 0.0
H609 H 0.87329 0.59065 0.63957 0.0
H610 H 0.86946 0.67778 0.60455 0.0
H611 H 0.84284 0.62998 0.64804 0.0
H612 H 0.83423 0.71954 0.67057 0.0
H613 H 0.85383 0.67582 0.65944 0.0
H614 H 0.82212 0.69742 0.61026 0.0
H615 H 0.80277 0.74198 0.62146 0.0
C616 C 0.88677 0.63581 0.60708 0.0
C617 C 0.8891 0.61133 0.61713 0.0
C618 C 0.86949 0.65859 0.61206 0.0
C619 C 0.85406 0.65727 0.62714 0.0
C620 C 0.85495 0.63198 0.63656 0.0
C621 C 0.87234 0.60936 0.63166 0.0
C622 C 0.83109 0.71494 0.65741 0.0
C623 C 0.81707 0.73442 0.6469 0.0
C624 C 0.84217 0.68964 0.65103 0.0
C625 C 0.83956 0.68301 0.63394 0.0
C626 C 0.82471 0.70201 0.62346 0.0
C627 C 0.81346 0.72743 0.6299 0.0
H628 H 0.13005 0.14926 0.34632 0.0
H629 H 0.17685 0.12173 0.38999 0.0
H630 H 0.08959 0.12022 0.35506 0.0
H631 H 0.13681 0.0922 0.39845 0.0
H632 H 0.02404 0.05465 0.37207 0.0
H633 H 0.06891 0.07313 0.36079 0.0
H634 H 0.09122 0.10468 0.40988 0.0
H635 H 0.04716 0.08599 0.42109 0.0
C636 C 0.13197 0.13651 0.35757 0.0
C637 C 0.15651 0.1382 0.36761 0.0
C638 C 0.1088 0.11975 0.36254 0.0
C639 C 0.10977 0.10422 0.3776 0.0
C640 C 0.13509 0.10441 0.38698 0.0
C641 C 0.15811 0.12127 0.38209 0.0
C642 C 0.03879 0.06514 0.38047 0.0
C643 C 0.03193 0.06895 0.39747 0.0
C644 C 0.06439 0.07588 0.37399 0.0
C645 C 0.08371 0.09038 0.38442 0.0
C646 C 0.07714 0.09326 0.40151 0.0
C647 C 0.05166 0.08271 0.40793 0.0
H648 H 0.6434 0.42771 0.14232 0.0
H649 H 0.61684 0.38277 0.09777 0.0
H650 H 0.67218 0.38704 0.15061 0.0
H651 H 0.64525 0.34172 0.1063 0.0
H652 H 0.67698 0.29632 0.17203 0.0
H653 H 0.65844 0.34078 0.16119 0.0
H654 H 0.69257 0.321 0.11232 0.0
H655 H 0.71098 0.27581 0.12321 0.0
C656 C 0.64393 0.40927 0.13419 0.0
C657 C 0.62746 0.40836 0.1195 0.0
C658 C 0.66036 0.38589 0.13898 0.0
C659 C 0.66063 0.36093 0.12928 0.0
C660 C 0.64561 0.36065 0.11404 0.0
C661 C 0.62923 0.38416 0.10918 0.0
C662 C 0.68082 0.30145 0.159 0.0
C663 C 0.69537 0.28239 0.14848 0.0
C664 C 0.67036 0.32714 0.1528 0.0
C665 C 0.67408 0.33454 0.13589 0.0
C666 C 0.6892 0.31582 0.12539 0.0
C667 C 0.69988 0.29004 0.13165 0.0
H668 H 0.49443 0.95924 0.87015 0.0
H669 H 0.47217 0.92883 0.91953 0.0
H670 H 0.44973 0.93986 0.85918 0.0
H671 H 0.42822 0.90931 0.90862 0.0
H672 H 0.34204 0.89259 0.889 0.0
H673 H 0.38237 0.92195 0.89714 0.0
H674 H 0.42935 0.8921 0.8541 0.0
H675 H 0.38864 0.8631 0.8457 0.0
C676 C 0.47992 0.94873 0.87869 0.0
C677 C 0.48695 0.9455 0.89571 0.0
C678 C 0.45442 0.93749 0.87239 0.0
C679 C 0.43536 0.92307 0.88302 0.0
C680 C 0.44212 0.92065 0.9001 0.0
C681 C 0.46753 0.93169 0.90635 0.0
C682 C 0.36079 0.89256 0.88111 0.0
C683 C 0.36224 0.87515 0.86682 0.0
C684 C 0.38397 0.90934 0.88582 0.0
C685 C 0.40927 0.90902 0.87643 0.0
C686 C 0.41014 0.89295 0.86157 0.0
C687 C 0.38684 0.87622 0.8568 0.0
H688 H 0.89999 0.38079 0.92889 0.0
H689 H 0.87447 0.42622 0.8843 0.0
H690 H 0.87126 0.34009 0.92019 0.0
H691 H 0.84527 0.38593 0.87586 0.0
H692 H 0.80557 0.2746 0.90305 0.0
H693 H 0.82418 0.31961 0.91405 0.0
H694 H 0.85814 0.33977 0.86519 0.0
H695 H 0.83933 0.29555 0.85423 0.0
C696 C 0.88775 0.38237 0.91743 0.0
C697 C 0.88991 0.40659 0.90715 0.0
C698 C 0.87117 0.35906 0.91248 0.0
C699 C 0.85631 0.35957 0.89719 0.0
C700 C 0.85697 0.38458 0.88752 0.0
C701 C 0.87363 0.40774 0.8924 0.0
C702 C 0.81667 0.28889 0.89464 0.0
C703 C 0.82105 0.28139 0.87778 0.0
C704 C 0.82747 0.31457 0.90096 0.0
C705 C 0.84262 0.33334 0.8905 0.0
C706 C 0.8462 0.32612 0.87356 0.0
C707 C 0.83558 0.30054 0.86729 0.0
H708 H 0.33878 0.12574 0.6336 0.0
H709 H 0.383 0.14824 0.67916 0.0
H710 H 0.37873 0.09604 0.62523 0.0
H711 H 0.42335 0.11898 0.67055 0.0
H712 H 0.48778 0.05237 0.65353 0.0
H713 H 0.44273 0.07158 0.66406 0.0
H714 H 0.4257 0.10796 0.61539 0.0
H715 H 0.47 0.08857 0.60488 0.0
C716 C 0.35691 0.12415 0.64192 0.0
C717 C 0.35783 0.13971 0.65695 0.0
C718 C 0.37989 0.10718 0.63708 0.0
C719 C 0.40446 0.10548 0.64708 0.0
C720 C 0.40471 0.11968 0.66259 0.0
C721 C 0.38161 0.13658 0.66749 0.0
C722 C 0.47416 0.0641 0.64504 0.0
C723 C 0.48258 0.06903 0.62838 0.0
C724 C 0.44845 0.07526 0.6511 0.0
C725 C 0.43058 0.09132 0.64058 0.0
C726 C 0.43866 0.09536 0.6238 0.0
C727 C 0.46427 0.08439 0.61779 0.0
H728 H 0.71149 0.74175 0.40506 0.0
H729 H 0.67748 0.72228 0.3561 0.0
H730 H 0.6916 0.69714 0.41586 0.0
H731 H 0.65748 0.67838 0.36686 0.0
H732 H 0.64023 0.59164 0.3859 0.0
H733 H 0.6697 0.63174 0.37751 0.0
H734 H 0.64361 0.67783 0.42171 0.0
H735 H 0.61447 0.63735 0.43035 0.0
C736 C 0.70008 0.72786 0.39657 0.0
C737 C 0.696 0.73565 0.37973 0.0
C738 C 0.68854 0.70242 0.40278 0.0
C739 C 0.67296 0.68417 0.39223 0.0
C740 C 0.6697 0.69166 0.3753 0.0
C741 C 0.68102 0.71702 0.36914 0.0
C742 C 0.64103 0.61014 0.39398 0.0
C743 C 0.62464 0.6114 0.40869 0.0
C744 C 0.65788 0.63319 0.38912 0.0
C745 C 0.65868 0.65818 0.3988 0.0
C746 C 0.64359 0.65886 0.41401 0.0
C747 C 0.62677 0.63569 0.41892 0.0
H748 H 0.17583 0.89991 0.14121 0.0
H749 H 0.12498 0.86371 0.18095 0.0
H750 H 0.13605 0.92994 0.13299 0.0
H751 H 0.08483 0.89347 0.17245 0.0
H752 H 0.01995 0.9609 0.15662 0.0
H753 H 0.06402 0.94171 0.1686 0.0
H754 H 0.09195 0.91744 0.11907 0.0
H755 H 0.04857 0.9367 0.10721 0.0
C756 C 0.15625 0.89858 0.14833 0.0
C757 C 0.15345 0.87906 0.16157 0.0
C758 C 0.13341 0.91576 0.14357 0.0
C759 C 0.1071 0.91375 0.15186 0.0
C760 C 0.10484 0.89563 0.16583 0.0
C761 C 0.12782 0.87848 0.17067 0.0
C762 C 0.03577 0.9519 0.1483 0.0
C763 C 0.03069 0.95022 0.13097 0.0
C764 C 0.06089 0.94074 0.15517 0.0
C765 C 0.08152 0.92805 0.1448 0.0
C766 C 0.07677 0.92741 0.12742 0.0
C767 C 0.05172 0.93829 0.12062 0.0
H768 H 0.71238 0.77353 0.9045 0.0
H769 H 0.67948 0.79517 0.85559 0.0
H770 H 0.6938 0.81852 0.91558 0.0
H771 H 0.66081 0.83945 0.86661 0.0
H772 H 0.64552 0.92594 0.88595 0.0
H773 H 0.67458 0.88546 0.87769 0.0
H774 H 0.64616 0.83913 0.92132 0.0
H775 H 0.61743 0.87999 0.92983 0.0
C776 C 0.7015 0.78798 0.89608 0.0
C777 C 0.69732 0.78069 0.87917 0.0
C778 C 0.69073 0.81364 0.90245 0.0
C779 C 0.67587 0.83261 0.89198 0.0
C780 C 0.67252 0.8256 0.87499 0.0
C781 C 0.68305 0.80002 0.86868 0.0
C782 C 0.64579 0.90732 0.89395 0.0
C783 C 0.62879 0.90606 0.90842 0.0
C784 C 0.66238 0.88406 0.88917 0.0
C785 C 0.6623 0.85887 0.89868 0.0
C786 C 0.64679 0.85825 0.91374 0.0
C787 C 0.63023 0.88164 0.91859 0.0
H788 H 0.4946 0.46157 0.15702 0.0
H789 H 0.47045 0.43319 0.10754 0.0
H790 H 0.45025 0.44187 0.16831 0.0
H791 H 0.42674 0.41346 0.11876 0.0
H792 H 0.38971 0.36372 0.18103 0.0
H793 H 0.43017 0.39324 0.17271 0.0
H794 H 0.38132 0.42646 0.13128 0.0
H795 H 0.34122 0.39674 0.13934 0.0
C796 C 0.47971 0.45149 0.14853 0.0
C797 C 0.48611 0.44886 0.13139 0.0
C798 C 0.45442 0.44006 0.15502 0.0
C799 C 0.43494 0.42613 0.14444 0.0
C800 C 0.44103 0.4244 0.12724 0.0
C801 C 0.46626 0.43556 0.12081 0.0
C802 C 0.38744 0.37772 0.17033 0.0
C803 C 0.36239 0.3775 0.16069 0.0
C804 C 0.4106 0.39472 0.1656 0.0
C805 C 0.4091 0.41186 0.15118 0.0
C806 C 0.38336 0.41304 0.14224 0.0
C807 C 0.36033 0.39604 0.14691 0.0
H808 H 0.90251 0.13905 0.43051 0.0
H809 H 0.87286 0.09126 0.3877 0.0
H810 H 0.87313 0.17937 0.42192 0.0
H811 H 0.84306 0.13118 0.37939 0.0
H812 H 0.80622 0.2442 0.40563 0.0
H813 H 0.8255 0.19962 0.41688 0.0
H814 H 0.85497 0.17669 0.36744 0.0
H815 H 0.83552 0.22048 0.35627 0.0
C816 C 0.88927 0.1369 0.41948 0.0
C817 C 0.89041 0.11209 0.40964 0.0
C818 C 0.87231 0.15999 0.4146 0.0
C819 C 0.85605 0.15867 0.39982 0.0
C820 C 0.85581 0.13314 0.39063 0.0
C821 C 0.87284 0.1102 0.39544 0.0
C822 C 0.81642 0.22938 0.39716 0.0
C823 C 0.81944 0.23599 0.38007 0.0
C824 C 0.82763 0.20395 0.40362 0.0
C825 C 0.84179 0.18456 0.39307 0.0
C826 C 0.84385 0.19085 0.37591 0.0
C827 C 0.83285 0.21617 0.36951 0.0
H828 H 0.17707 0.62744 0.63302 0.0
H829 H 0.1334 0.64984 0.67878 0.0
H830 H 0.13646 0.59882 0.62443 0.0
H831 H 0.09242 0.62162 0.66997 0.0
H832 H 0.04523 0.59336 0.60405 0.0
H833 H 0.08963 0.61218 0.61478 0.0
H834 H 0.07222 0.57454 0.66308 0.0
H835 H 0.02708 0.55587 0.65232 0.0
C836 C 0.15892 0.62604 0.64134 0.0
C837 C 0.15836 0.64128 0.65649 0.0
C838 C 0.13557 0.60971 0.63638 0.0
C839 C 0.11098 0.6083 0.64638 0.0
C840 C 0.11106 0.62213 0.662 0.0
C841 C 0.13453 0.63842 0.66702 0.0
C842 C 0.05087 0.58882 0.61693 0.0
C843 C 0.03247 0.5732 0.62734 0.0
C844 C 0.07653 0.59945 0.62306 0.0
C845 C 0.08459 0.59481 0.63979 0.0
C846 C 0.06653 0.57865 0.65016 0.0
C847 C 0.04077 0.56782 0.64397 0.0
H848 H 0.61824 0.1082 0.64607 0.0
H849 H 0.6349 0.12108 0.59344 0.0
H850 H 0.64858 0.14801 0.65292 0.0
H851 H 0.66701 0.1603 0.60031 0.0
H852 H 0.69054 0.25124 0.61868 0.0
H853 H 0.66775 0.20737 0.6093 0.0
H854 H 0.69355 0.16601 0.6553 0.0
H855 H 0.71423 0.21053 0.66501 0.0
C856 C 0.62893 0.11919 0.63594 0.0
C857 C 0.62407 0.11146 0.6192 0.0
C858 C 0.64668 0.14202 0.63988 0.0
C859 C 0.66065 0.15753 0.62721 0.0
C860 C 0.65638 0.14925 0.61043 0.0
C861 C 0.6381 0.12663 0.60646 0.0
C862 C 0.69171 0.23253 0.62658 0.0
C863 C 0.70385 0.23424 0.64261 0.0
C864 C 0.6787 0.20728 0.62122 0.0
C865 C 0.67814 0.18306 0.63166 0.0
C866 C 0.69251 0.18437 0.64713 0.0
C867 C 0.70474 0.20978 0.65265 0.0
H868 H 0.13071 0.3643 0.84639 0.0
H869 H 0.17648 0.39086 0.89065 0.0
H870 H 0.09015 0.39339 0.85495 0.0
H871 H 0.13631 0.42028 0.89896 0.0
H872 H 0.04584 0.42763 0.92049 0.0
H873 H 0.08983 0.40787 0.90974 0.0
H874 H 0.07056 0.44131 0.86063 0.0
H875 H 0.02586 0.46095 0.87143 0.0
C876 C 0.13237 0.37678 0.85776 0.0
C877 C 0.15669 0.37488 0.86797 0.0
C878 C 0.10916 0.39357 0.86262 0.0
C879 C 0.10983 0.40885 0.87777 0.0
C880 C 0.13486 0.4083 0.88741 0.0
C881 C 0.15795 0.39148 0.8826 0.0
C882 C 0.051 0.43107 0.90743 0.0
C883 C 0.03221 0.44577 0.89681 0.0
C884 C 0.07642 0.41989 0.90128 0.0
C885 C 0.08379 0.42303 0.88432 0.0
C886 C 0.06538 0.43835 0.87374 0.0
C887 C 0.03988 0.44975 0.87994 0.0
H888 H 0.90404 0.87872 0.09675 0.0
H889 H 0.87121 0.92792 0.13818 0.0
H890 H 0.87494 0.83825 0.10547 0.0
H891 H 0.84176 0.88783 0.14662 0.0
H892 H 0.80833 0.77298 0.12189 0.0
H893 H 0.82717 0.8174 0.11015 0.0
H894 H 0.85458 0.84309 0.15952 0.0
H895 H 0.83562 0.79941 0.17117 0.0
C896 C 0.89015 0.88114 0.10748 0.0
C897 C 0.89033 0.9064 0.11693 0.0
C898 C 0.87337 0.85796 0.11244 0.0
C899 C 0.85635 0.85966 0.1269 0.0
C900 C 0.85511 0.88561 0.13564 0.0
C901 C 0.87194 0.90864 0.13075 0.0
C902 C 0.81797 0.78838 0.13023 0.0
C903 C 0.82057 0.78258 0.14745 0.0
C904 C 0.82893 0.8137 0.1235 0.0
C905 C 0.84237 0.83382 0.13389 0.0
C906 C 0.84401 0.82834 0.15117 0.0
C907 C 0.8333 0.8031 0.15784 0.0
H908 H 0.4908 0.55349 0.37218 0.0
H909 H 0.46859 0.58525 0.42126 0.0
H910 H 0.44606 0.57251 0.36104 0.0
H911 H 0.42468 0.60451 0.41018 0.0
H912 H 0.33921 0.62305 0.39049 0.0
H913 H 0.37882 0.59293 0.39891 0.0
H914 H 0.42612 0.61982 0.3553 0.0
H915 H 0.38607 0.64943 0.3466 0.0
C916 C 0.47627 0.56417 0.38062 0.0
C917 C 0.48336 0.56796 0.39759 0.0
C918 C 0.45075 0.57524 0.37422 0.0
C919 C 0.43175 0.59006 0.38471 0.0
C920 C 0.43851 0.59286 0.40177 0.0
C921 C 0.46391 0.58198 0.40811 0.0
C922 C 0.35787 0.62222 0.38254 0.0
C923 C 0.35962 0.63899 0.36799 0.0
C924 C 0.38064 0.60502 0.38741 0.0
C925 C 0.40587 0.60432 0.37795 0.0
C926 C 0.40698 0.61972 0.36284 0.0
C927 C 0.38404 0.63682 0.35789 0.0
H928 H 0.36957 0.09196 0.13482 0.0
H929 H 0.40493 0.1424 0.09463 0.0
H930 H 0.33969 0.13183 0.14308 0.0
H931 H 0.37542 0.18267 0.1032 0.0
H932 H 0.33273 0.21927 0.16862 0.0
H933 H 0.35196 0.1759 0.15678 0.0
H934 H 0.32768 0.20381 0.10725 0.0
H935 H 0.3086 0.24795 0.1192 0.0
C936 C 0.37076 0.11148 0.12762 0.0
C937 C 0.38998 0.11413 0.11422 0.0
C938 C 0.35368 0.13438 0.1324 0.0
C939 C 0.35553 0.16062 0.124 0.0
C940 C 0.37338 0.16273 0.10991 0.0
C941 C 0.39039 0.13968 0.10504 0.0
C942 C 0.33115 0.21614 0.15521 0.0
C943 C 0.31925 0.2372 0.14486 0.0
C944 C 0.342 0.19107 0.14842 0.0
C945 C 0.34133 0.18629 0.13105 0.0
C946 C 0.32869 0.20695 0.12067 0.0
C947 C 0.3176 0.23212 0.12752 0.0
H948 H 0.54795 0.58577 0.92162 0.0
H949 H 0.5248 0.55451 0.87259 0.0
H950 H 0.59193 0.60464 0.91039 0.0
H951 H 0.56958 0.57317 0.86128 0.0
H952 H 0.67752 0.62185 0.89039 0.0
H953 H 0.63753 0.59229 0.89889 0.0
H954 H 0.59012 0.62035 0.85558 0.0
H955 H 0.63053 0.64942 0.8468 0.0
C956 C 0.55243 0.58255 0.90845 0.0
C957 C 0.53271 0.56875 0.898 0.0
C958 C 0.57786 0.5932 0.90202 0.0
C959 C 0.58439 0.5904 0.88492 0.0
C960 C 0.56509 0.57587 0.87449 0.0
C961 C 0.53954 0.56502 0.88098 0.0
C962 C 0.65876 0.6214 0.88252 0.0
C963 C 0.65709 0.63834 0.86804 0.0
C964 C 0.63576 0.60452 0.88744 0.0
C965 C 0.6104 0.60432 0.87809 0.0
C966 C 0.60936 0.61988 0.86304 0.0
C967 C 0.6325 0.63667 0.85804 0.0
H968 H 0.18008 0.79638 0.67078 0.0
H969 H 0.21505 0.77759 0.62196 0.0
H970 H 0.16062 0.84059 0.66016 0.0
H971 H 0.19576 0.82256 0.6113 0.0
H972 H 0.11883 0.88239 0.5966 0.0
H973 H 0.14824 0.84207 0.60512 0.0
H974 H 0.17266 0.88735 0.64995 0.0
H975 H 0.14281 0.92726 0.64167 0.0
C976 C 0.18397 0.80186 0.6578 0.0
C977 C 0.19901 0.78331 0.6472 0.0
C978 C 0.17297 0.82742 0.65173 0.0
C979 C 0.17665 0.83521 0.63487 0.0
C980 C 0.19237 0.81706 0.62433 0.0
C981 C 0.20357 0.79141 0.63045 0.0
C982 C 0.13085 0.88393 0.60813 0.0
C983 C 0.12809 0.90788 0.61858 0.0
C984 C 0.14783 0.86085 0.61298 0.0
C985 C 0.16248 0.8613 0.62835 0.0
C986 C 0.16116 0.88605 0.63822 0.0
C987 C 0.14412 0.909 0.63343 0.0
H988 H 0.96975 0.43293 0.42045 0.0
H989 H 0.99318 0.46212 0.37101 0.0
H990 H 0.92584 0.41356 0.40941 0.0
H991 H 0.94849 0.44293 0.35989 0.0
H992 H 0.8881 0.36558 0.34655 0.0
H993 H 0.92833 0.39519 0.35497 0.0
H994 H 0.88027 0.42543 0.39752 0.0
H995 H 0.84044 0.39539 0.38938 0.0
C996 C 0.96534 0.4356 0.40723 0.0
C997 C 0.98511 0.44894 0.3966 0.0
C998 C 0.93995 0.42466 0.4009 0.0
C999 C 0.93356 0.4267 0.38375 0.0
C1000 C 0.95289 0.44082 0.37314 0.0
C1001 C 0.97838 0.45198 0.37953 0.0
C1002 C 0.88595 0.37891 0.35754 0.0
C1003 C 0.86122 0.37773 0.36745 0.0
C1004 C 0.90898 0.39601 0.36233 0.0
C1005 C 0.90769 0.41237 0.37707 0.0
C1006 C 0.88222 0.4126 0.3863 0.0
C1007 C 0.85933 0.39543 0.3816 0.0
H1008 H 0.30429 0.77632 0.40351 0.0
H1009 H 0.34079 0.79506 0.35506 0.0
H1010 H 0.32332 0.82125 0.41436 0.0
H1011 H 0.35999 0.83925 0.36588 0.0
H1012 H 0.39908 0.88189 0.42991 0.0
H1013 H 0.37053 0.84115 0.42105 0.0
H1014 H 0.34718 0.88599 0.37587 0.0
H1015 H 0.37614 0.92634 0.38449 0.0
C1016 C 0.31609 0.7901 0.39514 0.0
C1017 C 0.32109 0.78202 0.37843 0.0
C1018 C 0.32713 0.81574 0.40138 0.0
C1019 C 0.34315 0.83389 0.39099 0.0
C1020 C 0.34739 0.82607 0.37419 0.0
C1021 C 0.33654 0.80053 0.368 0.0
C1022 C 0.38747 0.88324 0.41822 0.0
C1023 C 0.39027 0.90722 0.40779 0.0
C1024 C 0.371 0.85991 0.41317 0.0
C1025 C 0.35691 0.86013 0.39763 0.0
C1026 C 0.35827 0.88486 0.38774 0.0
C1027 C 0.3748 0.90806 0.39273 0.0
H1028 H 0.96888 0.58552 0.10621 0.0
H1029 H 0.99724 0.56022 0.1555 0.0
H1030 H 0.92546 0.60446 0.11811 0.0
H1031 H 0.95302 0.57896 0.16751 0.0
H1032 H 0.84148 0.62197 0.14004 0.0
H1033 H 0.88132 0.59224 0.13153 0.0
H1034 H 0.93186 0.62634 0.17201 0.0
H1035 H 0.89162 0.65562 0.18084 0.0
C1036 C 0.96567 0.58362 0.1196 0.0
C1037 C 0.98667 0.57149 0.12991 0.0
C1038 C 0.94056 0.5943 0.12643 0.0
C1039 C 0.93566 0.59321 0.14378 0.0
C1040 C 0.95625 0.58031 0.1541 0.0
C1041 C 0.98148 0.56942 0.14722 0.0
C1042 C 0.86092 0.62283 0.14731 0.0
C1043 C 0.8635 0.64151 0.16097 0.0
C1044 C 0.88382 0.60584 0.14238 0.0
C1045 C 0.90997 0.60727 0.1509 0.0
C1046 C 0.91199 0.6246 0.16522 0.0
C1047 C 0.88895 0.6415 0.17024 0.0
H1048 H 0.18374 0.21847 0.85561 0.0
H1049 H 0.21367 0.24141 0.90497 0.0
H1050 H 0.16438 0.17453 0.86663 0.0
H1051 H 0.19452 0.19666 0.91606 0.0
H1052 H 0.11733 0.13638 0.92973 0.0
H1053 H 0.14705 0.17652 0.92127 0.0
H1054 H 0.17593 0.12884 0.87825 0.0
H1055 H 0.14574 0.08912 0.88643 0.0
C1056 C 0.18659 0.21394 0.86881 0.0
C1057 C 0.20013 0.2336 0.87942 0.0
C1058 C 0.17565 0.18853 0.87512 0.0
C1059 C 0.1779 0.18198 0.89225 0.0
C1060 C 0.19224 0.20119 0.90283 0.0
C1061 C 0.20337 0.22671 0.89646 0.0
C1062 C 0.1304 0.13429 0.91863 0.0
C1063 C 0.12878 0.10972 0.90861 0.0
C1064 C 0.14756 0.15727 0.91381 0.0
C1065 C 0.16355 0.15608 0.89893 0.0
C1066 C 0.16338 0.13072 0.88958 0.0
C1067 C 0.14613 0.10789 0.89431 0.0
H1068 H 0.5246 0.45793 0.65543 0.0
H1069 H 0.54651 0.42953 0.6056 0.0
H1070 H 0.56918 0.43769 0.66609 0.0
H1071 H 0.59044 0.4093 0.61619 0.0
H1072 H 0.67705 0.39302 0.63562 0.0
H1073 H 0.63641 0.42233 0.62803 0.0
H1074 H 0.58938 0.38889 0.67013 0.0
H1075 H 0.63039 0.35974 0.67797 0.0
C1076 C 0.53904 0.44771 0.64673 0.0
C1077 C 0.53195 0.44528 0.62967 0.0
C1078 C 0.56444 0.43597 0.65286 0.0
C1079 C 0.58338 0.42193 0.64199 0.0
C1080 C 0.57658 0.42031 0.62488 0.0
C1081 C 0.55123 0.43177 0.61882 0.0
C1082 C 0.65822 0.39213 0.64343 0.0
C1083 C 0.65686 0.37368 0.65727 0.0
C1084 C 0.63487 0.40891 0.63903 0.0
C1085 C 0.6095 0.40761 0.64831 0.0
C1086 C 0.60866 0.39047 0.66275 0.0
C1087 C 0.63213 0.37367 0.6672 0.0
H1088 H 0.32588 0.26145 0.23066 0.0
H1089 H 0.24628 0.30585 0.22375 0.0
H1090 H 0.30825 0.24109 0.25662 0.0
H1091 H 0.22896 0.28652 0.25022 0.0
H1092 H 0.19427 0.22525 0.28888 0.0
H1093 H 0.21262 0.2443 0.26268 0.0
H1094 H 0.29658 0.24999 0.28459 0.0
H1095 H 0.27833 0.22969 0.31054 0.0
C1096 C 0.30472 0.26725 0.23483 0.0
C1097 C 0.28747 0.28528 0.22511 0.0
C1098 C 0.29462 0.25563 0.24981 0.0
C1099 C 0.26707 0.26199 0.25561 0.0
C1100 C 0.25005 0.2806 0.24603 0.0
C1101 C 0.26006 0.29195 0.23091 0.0
C1102 C 0.21672 0.23029 0.28803 0.0
C1103 C 0.23486 0.22588 0.30178 0.0
C1104 C 0.22722 0.24154 0.27304 0.0
C1105 C 0.2561 0.24907 0.27146 0.0
C1106 C 0.27432 0.24417 0.28518 0.0
C1107 C 0.26385 0.23255 0.30012 0.0
H1108 H 0.03488 0.02897 0.5617 0.0
H1109 H 0.04146 0.94536 0.53961 0.0
H1110 H 0.01418 0.04712 0.53584 0.0
H1111 H 0.02205 0.96365 0.51348 0.0
H1112 H 0.9603 0.99632 0.47447 0.0
H1113 H 0.97962 0.97911 0.50097 0.0
H1114 H 0.02285 0.0595 0.508 0.0
H1115 H 1.00245 0.07698 0.48203 0.0
C1116 C 0.03241 0.01459 0.5512 0.0
C1117 C 0.03979 0.98574 0.55271 0.0
C1118 C 0.02056 0.02499 0.53632 0.0
C1119 C 0.01616 1.00686 0.52249 0.0
C1120 C 0.0244 0.97816 0.52392 0.0
C1121 C 0.03587 0.9677 0.53887 0.0
C1122 C 0.97368 0.01037 0.4818 0.0
C1123 C 0.97974 0.03803 0.47616 0.0
C1124 C 0.98504 1.00043 0.49693 0.0
C1125 C 1.00308 0.01778 0.50668 0.0
C1126 C 0.00876 0.0456 0.50106 0.0
C1127 C 0.99711 0.05562 0.48607 0.0
H1128 H 0.19611 0.72535 0.73629 0.0
H1129 H 0.28024 0.7312 0.71486 0.0
H1130 H 0.21401 0.74426 0.76263 0.0
H1131 H 0.29804 0.75141 0.74093 0.0
H1132 H 0.32685 0.76258 0.79495 0.0
H1133 H 0.30969 0.74242 0.76884 0.0
H1134 H 0.22964 0.78643 0.77537 0.0
H1135 H 0.2465 0.80552 0.802 0.0
C1136 C 0.21848 0.73066 0.73722 0.0
C1137 C 0.23678 0.72669 0.7235 0.0
C1138 C 0.22873 0.74184 0.75229 0.0
C1139 C 0.25748 0.74975 0.75397 0.0
C1140 C 0.27586 0.74528 0.74027 0.0
C1141 C 0.26567 0.73371 0.72526 0.0
C1142 C 0.30563 0.76813 0.79077 0.0
C1143 C 0.28803 0.78567 0.80057 0.0
C1144 C 0.29579 0.75662 0.7757 0.0
C1145 C 0.26817 0.76261 0.7699 0.0
C1146 C 0.25081 0.78077 0.77955 0.0
C1147 C 0.26055 0.792 0.79476 0.0
H1148 H 0.50517 0.07719 0.04389 0.0
H1149 H 0.46033 0.99787 0.05101 0.0
H1150 H 0.52533 0.0593 0.01795 0.0
H1151 H 0.47943 0.98029 0.02455 0.0
H1152 H 0.54054 0.94501 0.986 0.0
H1153 H 0.52149 0.96362 1.01213 0.0
H1154 H 0.51641 0.04752 0.99002 0.0
H1155 H 0.53675 0.029 0.96415 0.0
C1156 C 0.49922 0.05605 0.03976 0.0
C1157 C 0.48114 0.03893 0.04953 0.0
C1158 C 0.51072 0.04579 0.02479 0.0
C1159 C 0.50418 0.01824 0.01906 0.0
C1160 C 0.4855 1.00138 0.02868 0.0
C1161 C 0.47428 0.01153 0.04379 0.0
C1162 C 0.53563 0.9675 0.98679 0.0
C1163 C 0.54023 0.98555 0.97302 0.0
C1164 C 0.52437 0.97815 1.00174 0.0
C1165 C 0.51703 1.00709 1.00324 0.0
C1166 C 0.5221 0.02521 0.98949 0.0
C1167 C 0.53373 0.0146 0.9746 0.0
H1168 H 0.32188 0.72583 0.28899 0.0
H1169 H 0.23804 0.7305 0.31092 0.0
H1170 H 0.30333 0.74481 0.26282 0.0
H1171 H 0.21958 0.75073 0.285 0.0
H1172 H 0.26942 0.80647 0.22401 0.0
H1173 H 0.28695 0.7871 0.25042 0.0
H1174 H 0.20768 0.74174 0.25705 0.0
H1175 H 0.18985 0.76213 0.23114 0.0
C1176 C 0.29943 0.73089 0.28821 0.0
C1177 C 0.28142 0.72658 0.30203 0.0
C1178 C 0.28882 0.74211 0.27324 0.0
C1179 C 0.25995 0.74969 0.27174 0.0
C1180 C 0.24184 0.74487 0.28553 0.0
C1181 C 0.25242 0.73329 0.30045 0.0
C1182 C 0.25569 0.79257 0.23121 0.0
C1183 C 0.22823 0.78593 0.22549 0.0
C1184 C 0.26582 0.7812 0.2463 0.0
C1185 C 0.24886 0.7626 0.25592 0.0
C1186 C 0.22126 0.75627 0.2502 0.0
C1187 C 0.21104 0.7679 0.23525 0.0
H1188 H 0.48219 0.02868 0.46564 0.0
H1189 H 0.47449 0.94506 0.48761 0.0
H1190 H 0.50301 0.04646 0.49154 0.0
H1191 H 0.49395 0.963 0.5138 0.0
H1192 H 0.55572 0.99466 0.55306 0.0
H1193 H 0.53626 0.97776 0.52654 0.0
H1194 H 0.49475 0.059 0.51929 0.0
H1195 H 0.51536 0.07616 0.54526 0.0
C1196 C 0.48441 0.01423 0.47613 0.0
C1197 C 0.4767 0.98548 0.47457 0.0
C1198 C 0.49633 0.02442 0.49105 0.0
C1199 C 0.50045 1.00618 0.50486 0.0
C1200 C 0.49184 0.97759 0.50338 0.0
C1201 C 0.48033 0.96733 0.48839 0.0
C1202 C 0.5427 0.00896 0.54568 0.0
C1203 C 0.5372 0.03677 0.55125 0.0
C1204 C 0.53124 0.9992 0.53053 0.0
C1205 C 0.51364 0.01688 0.52071 0.0
C1206 C 0.5085 0.04483 0.52627 0.0
C1207 C 0.52028 0.05468 0.54126 0.0
H1208 H 0.19107 0.26387 0.79512 0.0
H1209 H 0.27192 0.30586 0.80217 0.0
H1210 H 0.20794 0.24362 0.76897 0.0
H1211 H 0.28851 0.2867 0.7755 0.0
H1212 H 0.32132 0.2251 0.73645 0.0
H1213 H 0.30364 0.24434 0.76276 0.0
H1214 H 0.21972 0.25243 0.74105 0.0
H1215 H 0.23728 0.2319 0.71501 0.0
C1216 C 0.21233 0.2692 0.79092 0.0
C1217 C 0.23016 0.28648 0.80075 0.0
C1218 C 0.22201 0.25764 0.77584 0.0
C1219 C 0.2497 0.26333 0.77002 0.0
C1220 C 0.26728 0.28127 0.77969 0.0
C1221 C 0.25769 0.29255 0.79492 0.0
C1222 C 0.29902 0.2307 0.73738 0.0
C1223 C 0.28068 0.22688 0.72366 0.0
C1224 C 0.28891 0.24207 0.75243 0.0
C1225 C 0.26025 0.25033 0.7541 0.0
C1226 C 0.24182 0.24603 0.7404 0.0
C1227 C 0.25188 0.23428 0.72541 0.0
H1228 H 0.04031 0.07299 0.98676 0.0
H1229 H 0.03587 0.98866 0.96545 0.0
H1230 H 0.02127 0.05495 1.01304 0.0
H1231 H 0.01554 0.97071 0.99146 0.0
H1232 H 1.00433 0.94195 0.04552 0.0
H1233 H 0.02442 0.95927 0.01942 0.0
H1234 H 0.97928 0.03877 0.02573 0.0
H1235 H 0.96027 0.02176 0.05234 0.0
C1236 C 0.03526 0.05055 0.9877 0.0
C1237 C 0.03969 0.03224 0.97403 0.0
C1238 C 0.024 0.04022 1.00274 0.0
C1239 C 0.01648 0.01135 1.00444 0.0
C1240 C 0.02136 0.99297 0.99079 0.0
C1241 C 0.033 1.00326 0.97581 0.0
C1242 C 0.99853 0.96308 0.0413 0.0
C1243 C 0.98069 0.98049 0.05104 0.0
C1244 C 0.00999 0.97301 0.02623 0.0
C1245 C 1.00366 1.00053 0.02036 0.0
C1246 C 0.9852 0.01769 0.02996 0.0
C1247 C 0.97402 1.00786 0.04516 0.0
H1248 H 0.82531 0.76405 0.73111 0.0
H1249 H 0.74482 0.8067 0.72401 0.0
H1250 H 0.80808 0.74358 0.75712 0.0
H1251 H 0.72789 0.78733 0.75056 0.0
H1252 H 0.69428 0.72552 0.78927 0.0
H1253 H 0.71229 0.74504 0.76311 0.0
H1254 H 0.79617 0.75194 0.78502 0.0
H1255 H 0.77828 0.7311 0.8109 0.0
C1256 C 0.80405 0.76949 0.73527 0.0
C1257 C 0.78643 0.78702 0.72546 0.0
C1258 C 0.79417 0.7578 0.75028 0.0
C1259 C 0.76648 0.7636 0.75604 0.0
C1260 C 0.74911 0.7818 0.74641 0.0
C1261 C 0.75889 0.7932 0.73124 0.0
C1262 C 0.71665 0.73091 0.78842 0.0
C1263 C 0.73487 0.72666 0.80214 0.0
C1264 C 0.72695 0.74245 0.77345 0.0
C1265 C 0.7557 0.75046 0.77188 0.0
C1266 C 0.77401 0.74574 0.78559 0.0
C1267 C 0.76375 0.73381 0.80049 0.0
H1268 H 0.69367 0.22626 0.2382 0.0
H1269 H 0.77724 0.2321 0.21602 0.0
H1270 H 0.71216 0.24561 0.26429 0.0
H1271 H 0.79561 0.25276 0.24183 0.0
H1272 H 0.82572 0.26474 0.29554 0.0
H1273 H 0.80802 0.24425 0.26965 0.0
H1274 H 0.72792 0.28795 0.27673 0.0
H1275 H 0.74534 0.30733 0.30315 0.0
C1276 C 0.71604 0.23167 0.23892 0.0
C1277 C 0.73401 0.22756 0.22506 0.0
C1278 C 0.72662 0.24311 0.25384 0.0
C1279 C 0.75538 0.25115 0.25523 0.0
C1280 C 0.77344 0.24655 0.24139 0.0
C1281 C 0.76292 0.23471 0.22654 0.0
C1282 C 0.80438 0.27015 0.29152 0.0
C1283 C 0.78693 0.28768 0.30143 0.0
C1284 C 0.79423 0.25845 0.27658 0.0
C1285 C 0.76643 0.26425 0.271 0.0
C1286 C 0.74922 0.28243 0.28074 0.0
C1287 C 0.75928 0.29383 0.29584 0.0
H1288 H 0.74004 0.23002 0.80864 0.0
H1289 H 0.8248 0.22743 0.78784 0.0
H1290 H 0.72215 0.25008 0.78253 0.0
H1291 H 0.80685 0.24622 0.76148 0.0
H1292 H 0.77317 0.30658 0.72202 0.0
H1293 H 0.78997 0.28803 0.7488 0.0
H1294 H 0.71154 0.24085 0.75445 0.0
H1295 H 0.69439 0.26043 0.72818 0.0
C1296 C 0.75476 0.23324 0.79837 0.0
C1297 C 0.78383 0.22714 0.80032 0.0
C1298 C 0.74451 0.24473 0.78335 0.0
C1299 C 0.76303 0.25005 0.76982 0.0
C1300 C 0.792 0.24313 0.77169 0.0
C1301 C 0.80228 0.23202 0.78677 0.0
C1302 C 0.75944 0.29249 0.7291 0.0
C1303 C 0.73243 0.28507 0.72298 0.0
C1304 C 0.76917 0.28158 0.74439 0.0
C1305 C 0.75226 0.26267 0.75384 0.0
C1306 C 0.72506 0.25563 0.74775 0.0
C1307 C 0.71523 0.2668 0.73259 0.0
H1308 H 0.77956 0.78644 0.31241 0.0
H1309 H 0.69596 0.79244 0.29029 0.0
H1310 H 0.79793 0.7661 0.28651 0.0
H1311 H 0.71445 0.77338 0.26412 0.0
H1312 H 0.74771 0.71192 0.2251 0.0
H1313 H 0.7303 0.73107 0.25158 0.0
H1314 H 0.81024 0.77506 0.25866 0.0
H1315 H 0.82793 0.75485 0.23269 0.0
C1316 C 0.76523 0.78392 0.3019 0.0
C1317 C 0.73631 0.79104 0.30341 0.0
C1318 C 0.77575 0.77228 0.28699 0.0
C1319 C 0.75769 0.76781 0.27315 0.0
C1320 C 0.72892 0.77579 0.27458 0.0
C1321 C 0.71834 0.78706 0.28955 0.0
C1322 C 0.76162 0.72545 0.23242 0.0
C1323 C 0.78922 0.73177 0.2268 0.0
C1324 C 0.75156 0.73671 0.24755 0.0
C1325 C 0.76873 0.75489 0.25732 0.0
C1326 C 0.79648 0.76086 0.25171 0.0
C1327 C 0.80663 0.74932 0.23672 0.0
H1328 H 0.54061 0.44621 0.0411 0.0
H1329 H 0.53548 0.53045 0.06246 0.0
H1330 H 0.5215 0.46415 0.01482 0.0
H1331 H 0.51503 0.54829 0.03646 0.0
H1332 H 0.50358 0.57711 0.98245 0.0
H1333 H 0.52373 0.55992 1.00855 0.0
H1334 H 0.4795 0.47994 1.00207 0.0
H1335 H 0.46046 0.49683 0.97544 0.0
C1336 C 0.53539 0.46861 0.04016 0.0
C1337 C 0.53965 0.48693 0.05385 0.0
C1338 C 0.52408 0.47888 0.02513 0.0
C1339 C 0.51633 0.50769 0.02344 0.0
C1340 C 0.52104 0.52608 0.03711 0.0
C1341 C 0.53274 0.51586 0.05208 0.0
C1342 C 0.49798 0.55591 0.98664 0.0
C1343 C 0.48041 0.53833 0.97684 0.0
C1344 C 0.50948 0.54605 1.00171 0.0
C1345 C 0.50343 0.51843 1.00753 0.0
C1346 C 0.48521 0.5011 0.99788 0.0
C1347 C 0.47401 0.51087 0.98267 0.0
H1348 H 0.0573 0.52219 0.4731 0.0
H1349 H 0.01532 0.44153 0.48098 0.0
H1350 H 0.03791 0.53966 0.49952 0.0
H1351 H 0.99484 0.45926 0.50687 0.0
H1352 H 0.98249 0.49043 0.5604 0.0
H1353 H 1.00333 0.47201 0.53466 0.0
H1354 H 0.99542 0.5552 0.51191 0.0
H1355 H 0.97587 0.57376 0.53794 0.0
C1356 C 0.04395 0.50819 0.48048 0.0
C1357 C 0.03795 0.48046 0.47495 0.0
C1358 C 0.03254 0.51828 0.49556 0.0
C1359 C 0.01452 0.50101 0.50537 0.0
C1360 C 0.00891 0.47311 0.49988 0.0
C1361 C 0.02061 0.46294 0.48494 0.0
C1362 C 0.98498 0.50469 0.54984 0.0
C1363 C 0.97754 0.53355 0.55122 0.0
C1364 C 0.99691 0.49413 0.53502 0.0
C1365 C 1.00135 0.5121 0.52112 0.0
C1366 C 0.99305 0.54081 0.52242 0.0
C1367 C 0.98149 0.55142 0.5373 0.0
H1368 H 0.05579 0.49836 0.05129 0.0
H1369 H 0.01108 0.57771 0.04401 0.0
H1370 H 0.03667 0.48067 0.02486 0.0
H1371 H 0.99095 0.55972 0.01808 0.0
H1372 H 0.98016 0.5292 0.96424 0.0
H1373 H 1.00018 0.54781 0.99016 0.0
H1374 H 0.99451 0.46405 1.01241 0.0
H1375 H 0.97574 0.44535 0.98623 0.0
C1376 C 0.04187 0.51201 0.04405 0.0
C1377 C 0.03505 0.53946 0.04973 0.0
C1378 C 0.03064 0.50179 0.02895 0.0
C1379 C 0.01201 0.51864 0.01928 0.0
C1380 C 1.0055 0.54622 0.02497 0.0
C1381 C 0.017 0.55654 0.03993 0.0
C1382 C 0.98296 0.51485 0.97473 0.0
C1383 C 0.97639 0.48581 0.97316 0.0
C1384 C 0.99442 0.52551 0.98965 0.0
C1385 C 0.99925 0.50745 1.00345 0.0
C1386 C 0.9918 0.47853 1.00198 0.0
C1387 C 0.9807 0.46783 0.987 0.0
H1388 H 0.55622 0.49566 0.47439 0.0
H1389 H 0.51408 0.57633 0.48191 0.0
H1390 H 0.53725 0.47865 0.50102 0.0
H1391 H 0.49403 0.55904 0.50802 0.0
H1392 H 0.48243 0.5289 0.56182 0.0
H1393 H 0.50291 0.54687 0.53586 0.0
H1394 H 0.49505 0.46319 0.51376 0.0
H1395 H 0.47588 0.44509 0.53999 0.0
C1396 C 0.54292 0.50976 0.48174 0.0
C1397 C 0.53676 0.53736 0.47604 0.0
C1398 C 0.53176 0.49993 0.49695 0.0
C1399 C 0.51382 0.51733 0.50673 0.0
C1400 C 0.50804 0.54509 0.50106 0.0
C1401 C 0.51949 0.55502 0.48599 0.0
C1402 C 0.48486 0.51444 0.55136 0.0
C1403 C 0.47754 0.48558 0.55298 0.0
C1404 C 0.49658 0.52474 0.53641 0.0
C1405 C 0.50092 0.50651 0.52262 0.0
C1406 C 0.49276 0.47779 0.52417 0.0
C1407 C 0.48142 0.46744 0.53917 0.0
H1408 H 0.30718 0.16998 0.40644 0.0
H1409 H 0.30272 0.14077 0.35529 0.0
H1410 H 0.34764 0.13874 0.41148 0.0
H1411 H 0.34192 0.10819 0.36047 0.0
H1412 H 0.42111 0.05892 0.3703 0.0
H1413 H 0.38929 0.09895 0.36532 0.0
H1414 H 0.35759 0.09141 0.41601 0.0
H1415 H 0.39072 0.05266 0.42115 0.0
C1416 C 0.31497 0.15692 0.39624 0.0
C1417 C 0.30174 0.15779 0.38048 0.0
C1418 C 0.33804 0.13873 0.39916 0.0
C1419 C 0.34807 0.12042 0.3865 0.0
C1420 C 0.33531 0.12213 0.37054 0.0
C1421 C 0.31264 0.14077 0.36753 0.0
C1422 C 0.40767 0.06623 0.38044 0.0
C1423 C 0.40838 0.05261 0.3961 0.0
C1424 C 0.38914 0.08904 0.37756 0.0
C1425 C 0.37035 0.09843 0.39015 0.0
C1426 C 0.37189 0.08531 0.40601 0.0
C1427 C 0.39085 0.06289 0.40899 0.0
H1428 H 0.12434 0.05332 0.60546 0.0
H1429 H 0.09528 0.0588 0.65661 0.0
H1430 H 0.15693 0.09262 0.61034 0.0
H1431 H 0.12654 0.09936 0.66134 0.0
H1432 H 0.21289 0.1422 0.6706 0.0
H1433 H 0.17393 0.1092 0.66574 0.0
H1434 H 0.16628 0.1401 0.61488 0.0
H1435 H 0.20651 0.17179 0.61958 0.0
C1436 C 0.12437 0.06349 0.61764 0.0
C1437 C 0.1074 0.05283 0.63068 0.0
C1438 C 0.14302 0.08623 0.62046 0.0
C1439 C 0.14479 0.09929 0.63633 0.0
C1440 C 0.1265 0.08952 0.64909 0.0
C1441 C 0.1083 0.0664 0.64635 0.0
C1442 C 0.20259 0.14219 0.65846 0.0
C1443 C 0.2129 0.15944 0.64545 0.0
C1444 C 0.18005 0.1233 0.65564 0.0
C1445 C 0.16684 0.12157 0.63981 0.0
C1446 C 0.17626 0.14012 0.6271 0.0
C1447 C 0.19918 0.15856 0.62983 0.0
H1448 H 0.2103 0.84698 0.90621 0.0
H1449 H 0.21518 0.87595 0.85502 0.0
H1450 H 0.17 0.87844 0.91114 0.0
H1451 H 0.1762 0.90884 0.86011 0.0
H1452 H 0.09735 0.95878 0.8697 0.0
H1453 H 0.12901 0.9186 0.86479 0.0
H1454 H 0.15997 0.9256 0.91567 0.0
H1455 H 0.12693 0.96443 0.92073 0.0
C1456 C 0.20264 0.86006 0.89598 0.0
C1457 C 0.21593 0.85903 0.88024 0.0
C1458 C 0.17967 0.87839 0.89884 0.0
C1459 C 0.1698 0.89673 0.88614 0.0
C1460 C 0.18265 0.89489 0.8702 0.0
C1461 C 0.20521 0.87608 0.86726 0.0
C1462 C 0.11059 0.95131 0.8799 0.0
C1463 C 0.10968 0.96478 0.89559 0.0
C1464 C 0.12903 0.92841 0.87705 0.0
C1465 C 0.14759 0.91882 0.88972 0.0
C1466 C 0.14586 0.93183 0.90561 0.0
C1467 C 0.12694 0.95431 0.90854 0.0
H1468 H 0.28855 0.87252 0.11818 0.0
H1469 H 0.31607 0.85826 0.1691 0.0
H1470 H 0.32821 0.90475 0.11378 0.0
H1471 H 0.35659 0.88987 0.16452 0.0
H1472 H 0.40985 0.95186 0.10613 0.0
H1473 H 0.37785 0.91165 0.11072 0.0
H1474 H 0.3642 0.9395 0.16168 0.0
H1475 H 0.39682 0.97885 0.15727 0.0
C1476 C 0.30342 0.87582 0.12837 0.0
C1477 C 0.29896 0.86297 0.14405 0.0
C1478 C 0.32638 0.89422 0.12579 0.0
C1479 C 0.34567 0.90016 0.1388 0.0
C1480 C 0.34192 0.88625 0.15429 0.0
C1481 C 0.31879 0.86794 0.1569 0.0
C1482 C 0.40036 0.94909 0.11839 0.0
C1483 C 0.40579 0.96868 0.13129 0.0
C1484 C 0.38182 0.92614 0.121 0.0
C1485 C 0.36813 0.92235 0.13654 0.0
C1486 C 0.37454 0.94137 0.14961 0.0
C1487 C 0.39317 0.96415 0.14704 0.0
H1488 H 0.70888 0.84849 0.61975 0.0
H1489 H 0.71367 0.8766 0.6711 0.0
H1490 H 0.66894 0.88045 0.61489 0.0
H1491 H 0.67499 0.9099 0.66611 0.0
H1492 H 0.59576 0.95965 0.65656 0.0
H1493 H 0.62768 0.91963 0.66134 0.0
H1494 H 0.65937 0.92795 0.61069 0.0
H1495 H 0.62613 0.9667 0.60574 0.0
C1496 C 0.70128 0.86148 0.63003 0.0
C1497 C 0.71444 0.86006 0.6458 0.0
C1498 C 0.67852 0.88009 0.62721 0.0
C1499 C 0.66871 0.89828 0.64 0.0
C1500 C 0.68142 0.89608 0.65595 0.0
C1501 C 0.7038 0.87702 0.65884 0.0
C1502 C 0.60925 0.95255 0.64638 0.0
C1503 C 0.60847 0.96635 0.63078 0.0
C1504 C 0.62783 0.92973 0.64916 0.0
C1505 C 0.6466 0.92051 0.63651 0.0
C1506 C 0.64508 0.93391 0.62072 0.0
C1507 C 0.62606 0.95633 0.61786 0.0
H1508 H 0.89062 0.96491 0.42199 0.0
H1509 H 0.91943 0.96018 0.37077 0.0
H1510 H 0.85801 0.92565 0.41696 0.0
H1511 H 0.88822 0.91965 0.36589 0.0
H1512 H 0.80231 0.87625 0.35648 0.0
H1513 H 0.841 0.90949 0.36147 0.0
H1514 H 0.8487 0.87828 0.41226 0.0
H1515 H 0.80868 0.84637 0.40744 0.0
C1516 C 0.89052 0.95492 0.40976 0.0
C1517 C 0.90743 0.96576 0.39675 0.0
C1518 C 0.87186 0.93221 0.40685 0.0
C1519 C 0.87006 0.91935 0.39092 0.0
C1520 C 0.88826 0.92934 0.37819 0.0
C1521 C 0.90644 0.95244 0.38101 0.0
C1522 C 0.81256 0.87624 0.36864 0.0
C1523 C 0.80233 0.85883 0.38159 0.0
C1524 C 0.83495 0.89527 0.37153 0.0
C1525 C 0.8481 0.89699 0.38737 0.0
C1526 C 0.83876 0.87829 0.40004 0.0
C1527 C 0.81597 0.85971 0.39723 0.0
H1528 H 0.8063 0.17156 0.12076 0.0
H1529 H 0.80058 0.14103 0.1716 0.0
H1530 H 0.84655 0.14008 0.11568 0.0
H1531 H 0.83949 0.10816 0.16636 0.0
H1532 H 0.91815 0.05818 0.1567 0.0
H1533 H 0.88668 0.09842 0.16182 0.0
H1534 H 0.8564 0.09295 0.11073 0.0
H1535 H 0.88931 0.05403 0.10548 0.0
C1536 C 0.81377 0.15815 0.13088 0.0
C1537 C 0.80026 0.15873 0.14657 0.0
C1538 C 0.83671 0.13981 0.12794 0.0
C1539 C 0.84631 0.12105 0.1405 0.0
C1540 C 0.83325 0.12245 0.15639 0.0
C1541 C 0.81073 0.14126 0.15942 0.0
C1542 C 0.90509 0.06599 0.14651 0.0
C1543 C 0.90614 0.05293 0.1307 0.0
C1544 C 0.88677 0.08892 0.14947 0.0
C1545 C 0.86845 0.09895 0.1368 0.0
C1546 C 0.87033 0.08636 0.1208 0.0
C1547 C 0.88915 0.06384 0.11776 0.0
H1548 H 0.60556 0.06748 0.91776 0.0
H1549 H 0.61963 0.04106 0.86663 0.0
H1550 H 0.63727 0.10801 0.91348 0.0
H1551 H 0.65207 0.08063 0.86254 0.0
H1552 H 0.70038 0.16164 0.85549 0.0
H1553 H 0.65989 0.12987 0.85972 0.0
H1554 H 0.68652 0.11592 0.9109 0.0
H1555 H 0.72604 0.14843 0.90684 0.0
C1556 C 0.61524 0.07044 0.90558 0.0
C1557 C 0.61016 0.05093 0.89258 0.0
C1558 C 0.63362 0.09357 0.90314 0.0
C1559 C 0.64758 0.09759 0.88769 0.0
C1560 C 0.64153 0.07862 0.87453 0.0
C1561 C 0.62298 0.0557 0.87692 0.0
C1562 C 0.69727 0.15213 0.86772 0.0
C1563 C 0.71655 0.15748 0.88079 0.0
C1564 C 0.67416 0.13372 0.87013 0.0
C1565 C 0.66994 0.11998 0.88563 0.0
C1566 C 0.68868 0.12629 0.89886 0.0
C1567 C 0.71157 0.14487 0.89649 0.0
H1568 H 0.80301 0.64037 0.85499 0.0
H1569 H 0.80866 0.66962 0.90609 0.0
H1570 H 0.84222 0.60768 0.85989 0.0
H1571 H 0.84915 0.63829 0.91084 0.0
H1572 H 0.89197 0.552 0.92023 0.0
H1573 H 0.85899 0.59094 0.91532 0.0
H1574 H 0.88964 0.59823 0.8644 0.0
H1575 H 0.92131 0.55799 0.86915 0.0
C1576 C 0.8132 0.64036 0.86716 0.0
C1577 C 0.80262 0.6574 0.88018 0.0
C1578 C 0.83589 0.62165 0.87 0.0
C1579 C 0.84898 0.61993 0.88586 0.0
C1580 C 0.83928 0.63829 0.89859 0.0
C1581 C 0.8162 0.65653 0.89584 0.0
C1582 C 0.89192 0.56221 0.90807 0.0
C1583 C 0.90908 0.5518 0.89505 0.0
C1584 C 0.87303 0.58475 0.90522 0.0
C1585 C 0.87123 0.59785 0.88936 0.0
C1586 C 0.8897 0.58833 0.87664 0.0
C1587 C 0.90814 0.5654 0.8794 0.0
H1588 H 0.71608 0.64185 0.1728 0.0
H1589 H 0.71169 0.67059 0.12156 0.0
H1590 H 0.67677 0.60934 0.16774 0.0
H1591 H 0.67107 0.63953 0.11663 0.0
H1592 H 0.62735 0.55381 0.10716 0.0
H1593 H 0.66068 0.59242 0.11219 0.0
H1594 H 0.6295 0.60003 0.16299 0.0
H1595 H 0.59754 0.56007 0.15813 0.0
C1596 C 0.70614 0.64176 0.16056 0.0
C1597 C 0.71709 0.65861 0.14755 0.0
C1598 C 0.6834 0.62317 0.15762 0.0
C1599 C 0.6706 0.62138 0.14167 0.0
C1600 C 0.6807 0.63955 0.12895 0.0
C1601 C 0.70385 0.65765 0.1318 0.0
C1602 C 0.62738 0.56403 0.11933 0.0
C1603 C 0.60997 0.55379 0.13228 0.0
C1604 C 0.64646 0.58638 0.12224 0.0
C1605 C 0.64821 0.59948 0.1381 0.0
C1606 C 0.6295 0.59013 0.15076 0.0
C1607 C 0.61089 0.56737 0.14793 0.0
H1608 H 0.71455 0.37694 0.35575 0.0
H1609 H 0.71001 0.34805 0.40696 0.0
H1610 H 0.67546 0.40968 0.36087 0.0
H1611 H 0.66961 0.37938 0.41194 0.0
H1612 H 0.62616 0.46519 0.42151 0.0
H1613 H 0.65945 0.42656 0.41642 0.0
H1614 H 0.62821 0.41915 0.36563 0.0
H1615 H 0.59629 0.45911 0.37055 0.0
C1616 C 0.70463 0.37705 0.368 0.0
C1617 C 0.71547 0.36007 0.38098 0.0
C1618 C 0.68201 0.39578 0.37096 0.0
C1619 C 0.66923 0.3976 0.38692 0.0
C1620 C 0.67923 0.37933 0.39962 0.0
C1621 C 0.70225 0.36108 0.39674 0.0
C1622 C 0.62618 0.45502 0.40933 0.0
C1623 C 0.60875 0.46531 0.39641 0.0
C1624 C 0.64523 0.43267 0.40639 0.0
C1625 C 0.64694 0.4196 0.39051 0.0
C1626 C 0.62825 0.42902 0.37787 0.0
C1627 C 0.60966 0.45179 0.38073 0.0
H1628 H 0.89205 0.46726 0.60349 0.0
H1629 H 0.92247 0.45959 0.65426 0.0
H1630 H 0.85921 0.42814 0.60818 0.0
H1631 H 0.891 0.41911 0.65877 0.0
H1632 H 0.80503 0.37583 0.66836 0.0
H1633 H 0.84392 0.40897 0.66357 0.0
H1634 H 0.84939 0.3808 0.61207 0.0
H1635 H 0.80917 0.3491 0.61674 0.0
C1636 C 0.89227 0.45663 0.61553 0.0
C1637 C 0.9097 0.46662 0.62853 0.0
C1638 C 0.87347 0.43398 0.61824 0.0
C1639 C 0.87203 0.4203 0.63395 0.0
C1640 C 0.89076 0.42943 0.64665 0.0
C1641 C 0.90909 0.45249 0.64403 0.0
C1642 C 0.81483 0.3765 0.65608 0.0
C1643 C 0.80392 0.36003 0.6429 0.0
C1644 C 0.83733 0.39546 0.6533 0.0
C1645 C 0.84993 0.398 0.63733 0.0
C1646 C 0.8399 0.38021 0.62441 0.0
C1647 C 0.81698 0.36174 0.62711 0.0
H1648 H 0.12091 0.47948 0.15697 0.0
H1649 H 0.10672 0.45231 0.10598 0.0
H1650 H 0.15312 0.43978 0.16129 0.0
H1651 H 0.13831 0.41175 0.11048 0.0
H1652 H 0.22717 0.37139 0.11763 0.0
H1653 H 0.1879 0.40413 0.11331 0.0
H1654 H 0.15999 0.39007 0.16423 0.0
H1655 H 0.20012 0.35793 0.16872 0.0
C1656 C 0.12422 0.46469 0.14676 0.0
C1657 C 0.11139 0.46925 0.13108 0.0
C1658 C 0.14261 0.4417 0.14928 0.0
C1659 C 0.14856 0.4225 0.13622 0.0
C1660 C 0.13468 0.42636 0.12075 0.0
C1661 C 0.11639 0.44952 0.11819 0.0
C1662 C 0.21248 0.37497 0.12787 0.0
C1663 C 0.21696 0.36219 0.14358 0.0
C1664 C 0.18975 0.39367 0.12535 0.0
C1665 C 0.17073 0.4 0.13844 0.0
C1666 C 0.17448 0.38616 0.15394 0.0
C1667 C 0.19738 0.36755 0.1565 0.0
H1668 H 0.42031 0.46008 0.87089 0.0
H1669 H 0.39085 0.46461 0.92199 0.0
H1670 H 0.38887 0.41983 0.86575 0.0
H1671 H 0.35801 0.42566 0.9167 0.0
H1672 H 0.30851 0.34659 0.90678 0.0
H1673 H 0.34844 0.37845 0.91189 0.0
H1674 H 0.34174 0.40976 0.86106 0.0
H1675 H 0.30313 0.37651 0.8558 0.0
C1676 C 0.40713 0.45236 0.88105 0.0
C1677 C 0.40802 0.46553 0.89683 0.0
C1678 C 0.38881 0.42941 0.87807 0.0
C1679 C 0.37037 0.41945 0.8907 0.0
C1680 C 0.37205 0.43218 0.90667 0.0
C1681 C 0.39084 0.45472 0.90973 0.0
C1682 C 0.31598 0.35996 0.89663 0.0
C1683 C 0.30267 0.35908 0.8809 0.0
C1684 C 0.33874 0.37852 0.8996 0.0
C1685 C 0.34835 0.39721 0.887 0.0
C1686 C 0.33548 0.39554 0.87107 0.0
C1687 C 0.31314 0.37651 0.86802 0.0
H1688 H 0.39317 0.55305 0.60586 0.0
H1689 H 0.42144 0.55842 0.65716 0.0
H1690 H 0.36043 0.59227 0.61061 0.0
H1691 H 0.39003 0.59891 0.66177 0.0
H1692 H 0.30368 0.64189 0.67065 0.0
H1693 H 0.3426 0.60879 0.66594 0.0
H1694 H 0.35095 0.63971 0.61512 0.0
H1695 H 0.31076 0.67151 0.61967 0.0
C1696 C 0.39294 0.56318 0.61804 0.0
C1697 C 0.40973 0.55252 0.63116 0.0
C1698 C 0.3742 0.58587 0.6208 0.0
C1699 C 0.37216 0.59889 0.63667 0.0
C1700 C 0.39027 0.5891 0.64951 0.0
C1701 C 0.40856 0.56603 0.64683 0.0
C1702 C 0.31411 0.64186 0.65855 0.0
C1703 C 0.30402 0.65916 0.64551 0.0
C1704 C 0.33664 0.62291 0.65582 0.0
C1705 C 0.35005 0.62116 0.64005 0.0
C1706 C 0.34083 0.63973 0.6273 0.0
C1707 C 0.31792 0.65824 0.62994 0.0
H1708 H 0.09742 0.55801 0.3697 0.0
H1709 H 0.12678 0.55272 0.42079 0.0
H1710 H 0.12873 0.59847 0.36481 0.0
H1711 H 0.15947 0.5919 0.41575 0.0
H1712 H 0.20898 0.6711 0.40623 0.0
H1713 H 0.1689 0.6393 0.41113 0.0
H1714 H 0.17596 0.60843 0.36025 0.0
H1715 H 0.21473 0.64156 0.35519 0.0
C1716 C 0.11055 0.56561 0.37992 0.0
C1717 C 0.10969 0.55215 0.39562 0.0
C1718 C 0.12878 0.58868 0.37708 0.0
C1719 C 0.14716 0.59848 0.38977 0.0
C1720 C 0.14549 0.58548 0.40567 0.0
C1721 C 0.12678 0.56281 0.40859 0.0
C1722 C 0.20154 0.65786 0.39603 0.0
C1723 C 0.21503 0.6588 0.38034 0.0
C1724 C 0.1787 0.63934 0.39887 0.0
C1725 C 0.16917 0.62077 0.3862 0.0
C1726 C 0.18217 0.62255 0.37031 0.0
C1727 C 0.2046 0.64152 0.36738 0.0
loop_
_geom_bond_atom_site_label_1
_geom_bond_atom_site_label_2
_geom_bond_distance
_geom_bond_site_symmetry_2
_ccdc_geom_bond_type
O0 Cd1 2.223 . S
O0 C8 1.315 . S
Cd1 O0 2.223 . S
Cd1 O4 2.297 . S
Cd1 O5 2.439 . S
Cd1 O11 2.240 . S
Cd2 O3 2.240 . S
Cd2 O10 2.223 . S
Cd2 O12 2.297 . S
Cd2 O13 2.439 . S
O3 Cd2 2.240 . S
O3 C8 1.279 . S
O4 Cd1 2.297 . S
O4 C6 1.247 . S
O5 Cd1 2.439 . S
O5 C6 1.208 . S
C6 O4 1.247 . S
C6 O5 1.208 . S
C7 O12 1.247 . S
C7 O13 1.208 . S
C8 O0 1.315 . S
C8 O3 1.279 . S
C9 O10 1.315 . S
C9 O11 1.279 . S
O10 Cd2 2.223 . S
O10 C9 1.315 . S
O11 Cd1 2.240 . S
O11 C9 1.279 . S
O12 Cd2 2.297 . S
O12 C7 1.247 . S
O13 Cd2 2.439 . S
O13 C7 1.208 . S
O14 Cd15 2.223 . S
O14 C22 1.315 . S
Cd15 O14 2.223 . S
Cd15 O18 2.297 . S
Cd15 O19 2.439 . S
Cd15 O25 2.240 . S
Cd16 O17 2.240 . S
Cd16 O24 2.223 . S
Cd16 O26 2.297 . S
Cd16 O27 2.439 . S
O17 Cd16 2.240 . S
O17 C22 1.279 . S
O18 Cd15 2.297 . S
O18 C20 1.247 . S
O19 Cd15 2.439 . S
O19 C20 1.208 . S
C20 O18 1.247 . S
C20 O19 1.208 . S
C21 O26 1.247 . S
C21 O27 1.208 . S
C22 O14 1.315 . S
C22 O17 1.279 . S
C23 O24 1.315 . S
C23 O25 1.279 . S
O24 Cd16 2.223 . S
O24 C23 1.315 . S
O25 Cd15 2.240 . S
O25 C23 1.279 . S
O26 Cd16 2.297 . S
O26 C21 1.247 . S
O27 Cd16 2.439 . S
O27 C21 1.208 . S
O28 Cd29 2.223 . S
O28 C36 1.315 . S
Cd29 O28 2.223 . S
Cd29 O32 2.297 . S
Cd29 O33 2.439 . S
Cd29 O39 2.240 . S
Cd30 O31 2.240 . S
Cd30 O38 2.223 . S
Cd30 O40 2.297 . S
Cd30 O41 2.439 . S
O31 Cd30 2.240 . S
O31 C36 1.279 . S
O32 Cd29 2.297 . S
O32 C34 1.247 . S
O33 Cd29 2.439 . S
O33 C34 1.208 . S
C34 O32 1.247 . S
C34 O33 1.208 . S
C35 O40 1.247 . S
C35 O41 1.208 . S
C36 O28 1.315 . S
C36 O31 1.279 . S
C37 O38 1.315 . S
C37 O39 1.279 . S
O38 Cd30 2.223 . S
O38 C37 1.315 . S
O39 Cd29 2.240 . S
O39 C37 1.279 . S
O40 Cd30 2.297 . S
O40 C35 1.247 . S
O41 Cd30 2.439 . S
O41 C35 1.208 . S
O42 Cd43 2.223 . S
O42 C50 1.315 . S
Cd43 O42 2.223 . S
Cd43 O46 2.297 . S
Cd43 O47 2.439 . S
Cd43 O53 2.240 . S
Cd44 O45 2.240 . S
Cd44 O52 2.223 . S
Cd44 O54 2.297 . S
Cd44 O55 2.439 . S
O45 Cd44 2.240 . S
O45 C50 1.279 . S
O46 Cd43 2.297 . S
O46 C48 1.247 . S
O47 Cd43 2.439 . S
O47 C48 1.208 . S
C48 O46 1.247 . S
C48 O47 1.208 . S
C49 O54 1.247 . S
C49 O55 1.208 . S
C50 O42 1.315 . S
C50 O45 1.279 . S
C51 O52 1.315 . S
C51 O53 1.279 . S
O52 Cd44 2.223 . S
O52 C51 1.315 . S
O53 Cd43 2.240 . S
O53 C51 1.279 . S
O54 Cd44 2.297 . S
O54 C49 1.247 . S
O55 Cd44 2.439 . S
O55 C49 1.208 . S
O56 Cd57 2.223 . S
O56 C64 1.315 . S
Cd57 O56 2.223 . S
Cd57 O60 2.297 . S
Cd57 O61 2.439 . S
Cd57 O67 2.240 . S
Cd58 O59 2.240 . S
Cd58 O66 2.223 . S
Cd58 O68 2.297 . S
Cd58 O69 2.439 . S
O59 Cd58 2.240 . S
O59 C64 1.279 . S
O60 Cd57 2.297 . S
O60 C62 1.247 . S
O61 Cd57 2.439 . S
O61 C62 1.208 . S
C62 O60 1.247 . S
C62 O61 1.208 . S
C63 O68 1.247 . S
C63 O69 1.208 . S
C64 O56 1.315 . S
C64 O59 1.279 . S
C65 O66 1.315 . S
C65 O67 1.279 . S
O66 Cd58 2.223 . S
O66 C65 1.315 . S
O67 Cd57 2.240 . S
O67 C65 1.279 . S
O68 Cd58 2.297 . S
O68 C63 1.247 . S
O69 Cd58 2.439 . S
O69 C63 1.208 . S
O70 Cd71 2.223 . S
O70 C78 1.315 . S
Cd71 O70 2.223 . S
Cd71 O74 2.297 . S
Cd71 O75 2.439 . S
Cd71 O81 2.240 . S
Cd72 O73 2.240 . S
Cd72 O80 2.223 . S
Cd72 O82 2.297 . S
Cd72 O83 2.439 . S
O73 Cd72 2.240 . S
O73 C78 1.279 . S
O74 Cd71 2.297 . S
O74 C76 1.247 . S
O75 Cd71 2.439 . S
O75 C76 1.208 . S
C76 O74 1.247 . S
C76 O75 1.208 . S
C77 O82 1.247 . S
C77 O83 1.208 . S
C78 O70 1.315 . S
C78 O73 1.279 . S
C79 O80 1.315 . S
C79 O81 1.279 . S
O80 Cd72 2.223 . S
O80 C79 1.315 . S
O81 Cd71 2.240 . S
O81 C79 1.279 . S
O82 Cd72 2.297 . S
O82 C77 1.247 . S
O83 Cd72 2.439 . S
O83 C77 1.208 . S
O84 Cd85 2.223 . S
O84 C92 1.315 . S
Cd85 O84 2.223 . S
Cd85 O88 2.297 . S
Cd85 O89 2.439 . S
Cd85 O95 2.240 . S
Cd86 O87 2.240 . S
Cd86 O94 2.223 . S
Cd86 O96 2.297 . S
Cd86 O97 2.439 . S
O87 Cd86 2.240 . S
O87 C92 1.279 . S
O88 Cd85 2.297 . S
O88 C90 1.247 . S
O89 Cd85 2.439 . S
O89 C90 1.208 . S
C90 O88 1.247 . S
C90 O89 1.208 . S
C91 O96 1.247 . S
C91 O97 1.208 . S
C92 O84 1.315 . S
C92 O87 1.279 . S
C93 O94 1.315 . S
C93 O95 1.279 . S
O94 Cd86 2.223 . S
O94 C93 1.315 . S
O95 Cd85 2.240 . S
O95 C93 1.279 . S
O96 Cd86 2.297 . S
O96 C91 1.247 . S
O97 Cd86 2.439 . S
O97 C91 1.208 . S
O98 Cd99 2.223 . S
O98 C106 1.315 . S
Cd99 O98 2.223 . S
Cd99 O102 2.297 . S
Cd99 O103 2.439 . S
Cd99 O109 2.240 . S
Cd100 O101 2.240 . S
Cd100 O108 2.223 . S
Cd100 O110 2.297 . S
Cd100 O111 2.439 . S
O101 Cd100 2.240 . S
O101 C106 1.279 . S
O102 Cd99 2.297 . S
O102 C104 1.247 . S
O103 Cd99 2.439 . S
O103 C104 1.208 . S
C104 O102 1.247 . S
C104 O103 1.208 . S
C105 O110 1.247 . S
C105 O111 1.208 . S
C106 O98 1.315 . S
C106 O101 1.279 . S
C107 O108 1.315 . S
C107 O109 1.279 . S
O108 Cd100 2.223 . S
O108 C107 1.315 . S
O109 Cd99 2.240 . S
O109 C107 1.279 . S
O110 Cd100 2.297 . S
O110 C105 1.247 . S
O111 Cd100 2.439 . S
O111 C105 1.208 . S
O112 Cd113 2.223 . S
O112 C120 1.315 . S
Cd113 O112 2.223 . S
Cd113 O116 2.297 . S
Cd113 O117 2.439 . S
Cd113 O123 2.240 . S
Cd114 O115 2.240 . S
Cd114 O122 2.223 . S
Cd114 O124 2.297 . S
Cd114 O125 2.439 . S
O115 Cd114 2.240 . S
O115 C120 1.279 . S
O116 Cd113 2.297 . S
O116 C118 1.247 . S
O117 Cd113 2.439 . S
O117 C118 1.208 . S
C118 O116 1.247 . S
C118 O117 1.208 . S
C119 O124 1.247 . S
C119 O125 1.208 . S
C120 O112 1.315 . S
C120 O115 1.279 . S
C121 O122 1.315 . S
C121 O123 1.279 . S
O122 Cd114 2.223 . S
O122 C121 1.315 . S
O123 Cd113 2.240 . S
O123 C121 1.279 . S
O124 Cd114 2.297 . S
O124 C119 1.247 . S
O125 Cd114 2.439 . S
O125 C119 1.208 . S
O126 Cd127 2.223 . S
O126 C134 1.315 . S
Cd127 O126 2.223 . S
Cd127 O130 2.297 . S
Cd127 O131 2.439 . S
Cd127 O137 2.240 . S
Cd128 O129 2.240 . S
Cd128 O136 2.223 . S
Cd128 O138 2.297 . S
Cd128 O139 2.439 . S
O129 Cd128 2.240 . S
O129 C134 1.279 . S
O130 Cd127 2.297 . S
O130 C132 1.247 . S
O131 Cd127 2.439 . S
O131 C132 1.208 . S
C132 O130 1.247 . S
C132 O131 1.208 . S
C133 O138 1.247 . S
C133 O139 1.208 . S
C134 O126 1.315 . S
C134 O129 1.279 . S
C135 O136 1.315 . S
C135 O137 1.279 . S
O136 Cd128 2.223 . S
O136 C135 1.315 . S
O137 Cd127 2.240 . S
O137 C135 1.279 . S
O138 Cd128 2.297 . S
O138 C133 1.247 . S
O139 Cd128 2.439 . S
O139 C133 1.208 . S
O140 Cd141 2.223 . S
O140 C148 1.315 . S
Cd141 O140 2.223 . S
Cd141 O144 2.297 . S
Cd141 O145 2.439 . S
Cd141 O151 2.240 . S
Cd142 O143 2.240 . S
Cd142 O150 2.223 . S
Cd142 O152 2.297 . S
Cd142 O153 2.439 . S
O143 Cd142 2.240 . S
O143 C148 1.279 . S
O144 Cd141 2.297 . S
O144 C146 1.247 . S
O145 Cd141 2.439 . S
O145 C146 1.208 . S
C146 O144 1.247 . S
C146 O145 1.208 . S
C147 O152 1.247 . S
C147 O153 1.208 . S
C148 O140 1.315 . S
C148 O143 1.279 . S
C149 O150 1.315 . S
C149 O151 1.279 . S
O150 Cd142 2.223 . S
O150 C149 1.315 . S
O151 Cd141 2.240 . S
O151 C149 1.279 . S
O152 Cd142 2.297 . S
O152 C147 1.247 . S
O153 Cd142 2.439 . S
O153 C147 1.208 . S
O154 Cd155 2.223 . S
O154 C162 1.315 . S
Cd155 O154 2.223 . S
Cd155 O158 2.297 . S
Cd155 O159 2.439 . S
Cd155 O165 2.240 . S
Cd156 O157 2.240 . S
Cd156 O164 2.223 . S
Cd156 O166 2.297 . S
Cd156 O167 2.439 . S
O157 Cd156 2.240 . S
O157 C162 1.279 . S
O158 Cd155 2.297 . S
O158 C160 1.247 . S
O159 Cd155 2.439 . S
O159 C160 1.208 . S
C160 O158 1.247 . S
C160 O159 1.208 . S
C161 O166 1.247 . S
C161 O167 1.208 . S
C162 O154 1.315 . S
C162 O157 1.279 . S
C163 O164 1.315 . S
C163 O165 1.279 . S
O164 Cd156 2.223 . S
O164 C163 1.315 . S
O165 Cd155 2.240 . S
O165 C163 1.279 . S
O166 Cd156 2.297 . S
O166 C161 1.247 . S
O167 Cd156 2.439 . S
O167 C161 1.208 . S
O168 Cd169 2.223 . S
O168 C176 1.315 . S
Cd169 O168 2.223 . S
Cd169 O172 2.297 . S
Cd169 O173 2.439 . S
Cd169 O179 2.240 . S
Cd170 O171 2.240 . S
Cd170 O178 2.223 . S
Cd170 O180 2.297 . S
Cd170 O181 2.439 . S
O171 Cd170 2.240 . S
O171 C176 1.279 . S
O172 Cd169 2.297 . S
O172 C174 1.247 . S
O173 Cd169 2.439 . S
O173 C174 1.208 . S
C174 O172 1.247 . S
C174 O173 1.208 . S
C175 O180 1.247 . S
C175 O181 1.208 . S
C176 O168 1.315 . S
C176 O171 1.279 . S
C177 O178 1.315 . S
C177 O179 1.279 . S
O178 Cd170 2.223 . S
O178 C177 1.315 . S
O179 Cd169 2.240 . S
O179 C177 1.279 . S
O180 Cd170 2.297 . S
O180 C175 1.247 . S
O181 Cd170 2.439 . S
O181 C175 1.208 . S
O182 Cd183 2.223 . S
O182 C190 1.315 . S
Cd183 O182 2.223 . S
Cd183 O186 2.297 . S
Cd183 O187 2.439 . S
Cd183 O193 2.240 . S
Cd184 O185 2.240 . S
Cd184 O192 2.223 . S
Cd184 O194 2.297 . S
Cd184 O195 2.439 . S
O185 Cd184 2.240 . S
O185 C190 1.279 . S
O186 Cd183 2.297 . S
O186 C188 1.247 . S
O187 Cd183 2.439 . S
O187 C188 1.208 . S
C188 O186 1.247 . S
C188 O187 1.208 . S
C189 O194 1.247 . S
C189 O195 1.208 . S
C190 O182 1.315 . S
C190 O185 1.279 . S
C191 O192 1.315 . S
C191 O193 1.279 . S
O192 Cd184 2.223 . S
O192 C191 1.315 . S
O193 Cd183 2.240 . S
O193 C191 1.279 . S
O194 Cd184 2.297 . S
O194 C189 1.247 . S
O195 Cd184 2.439 . S
O195 C189 1.208 . S
O196 Cd197 2.223 . S
O196 C204 1.315 . S
Cd197 O196 2.223 . S
Cd197 O200 2.297 . S
Cd197 O201 2.439 . S
Cd197 O207 2.240 . S
Cd198 O199 2.240 . S
Cd198 O206 2.223 . S
Cd198 O208 2.297 . S
Cd198 O209 2.439 . S
O199 Cd198 2.240 . S
O199 C204 1.279 . S
O200 Cd197 2.297 . S
O200 C202 1.247 . S
O201 Cd197 2.439 . S
O201 C202 1.208 . S
C202 O200 1.247 . S
C202 O201 1.208 . S
C203 O208 1.247 . S
C203 O209 1.208 . S
C204 O196 1.315 . S
C204 O199 1.279 . S
C205 O206 1.315 . S
C205 O207 1.279 . S
O206 Cd198 2.223 . S
O206 C205 1.315 . S
O207 Cd197 2.240 . S
O207 C205 1.279 . S
O208 Cd198 2.297 . S
O208 C203 1.247 . S
O209 Cd198 2.439 . S
O209 C203 1.208 . S
O210 Cd211 2.223 . S
O210 C218 1.315 . S
Cd211 O210 2.223 . S
Cd211 O214 2.297 . S
Cd211 O215 2.439 . S
Cd211 O221 2.240 . S
Cd212 O213 2.240 . S
Cd212 O220 2.223 . S
Cd212 O222 2.297 . S
Cd212 O223 2.439 . S
O213 Cd212 2.240 . S
O213 C218 1.279 . S
O214 Cd211 2.297 . S
O214 C216 1.247 . S
O215 Cd211 2.439 . S
O215 C216 1.208 . S
C216 O214 1.247 . S
C216 O215 1.208 . S
C217 O222 1.247 . S
C217 O223 1.208 . S
C218 O210 1.315 . S
C218 O213 1.279 . S
C219 O220 1.315 . S
C219 O221 1.279 . S
O220 Cd212 2.223 . S
O220 C219 1.315 . S
O221 Cd211 2.240 . S
O221 C219 1.279 . S
O222 Cd212 2.297 . S
O222 C217 1.247 . S
O223 Cd212 2.439 . S
O223 C217 1.208 . S
O224 Cd225 2.223 . S
O224 C232 1.315 . S
Cd225 O224 2.223 . S
Cd225 O228 2.297 . S
Cd225 O229 2.439 . S
Cd225 O235 2.240 . S
Cd226 O227 2.240 . S
Cd226 O234 2.223 . S
Cd226 O236 2.297 . S
Cd226 O237 2.439 . S
O227 Cd226 2.240 . S
O227 C232 1.279 . S
O228 Cd225 2.297 . S
O228 C230 1.247 . S
O229 Cd225 2.439 . S
O229 C230 1.208 . S
C230 O228 1.247 . S
C230 O229 1.208 . S
C231 O236 1.247 . S
C231 O237 1.208 . S
C232 O224 1.315 . S
C232 O227 1.279 . S
C233 O234 1.315 . S
C233 O235 1.279 . S
O234 Cd226 2.223 . S
O234 C233 1.315 . S
O235 Cd225 2.240 . S
O235 C233 1.279 . S
O236 Cd226 2.297 . S
O236 C231 1.247 . S
O237 Cd226 2.439 . S
O237 C231 1.208 . S
O238 Cd239 2.223 . S
O238 C246 1.315 . S
Cd239 O238 2.223 . S
Cd239 O242 2.297 . S
Cd239 O243 2.439 . S
Cd239 O249 2.240 . S
Cd240 O241 2.240 . S
Cd240 O248 2.223 . S
Cd240 O250 2.297 . S
Cd240 O251 2.439 . S
O241 Cd240 2.240 . S
O241 C246 1.279 . S
O242 Cd239 2.297 . S
O242 C244 1.247 . S
O243 Cd239 2.439 . S
O243 C244 1.208 . S
C244 O242 1.247 . S
C244 O243 1.208 . S
C245 O250 1.247 . S
C245 O251 1.208 . S
C246 O238 1.315 . S
C246 O241 1.279 . S
C247 O248 1.315 . S
C247 O249 1.279 . S
O248 Cd240 2.223 . S
O248 C247 1.315 . S
O249 Cd239 2.240 . S
O249 C247 1.279 . S
O250 Cd240 2.297 . S
O250 C245 1.247 . S
O251 Cd240 2.439 . S
O251 C245 1.208 . S
O252 Cd253 2.223 . S
O252 C260 1.315 . S
Cd253 O252 2.223 . S
Cd253 O256 2.297 . S
Cd253 O257 2.439 . S
Cd253 O263 2.240 . S
Cd254 O255 2.240 . S
Cd254 O262 2.223 . S
Cd254 O264 2.297 . S
Cd254 O265 2.439 . S
O255 Cd254 2.240 . S
O255 C260 1.279 . S
O256 Cd253 2.297 . S
O256 C258 1.247 . S
O257 Cd253 2.439 . S
O257 C258 1.208 . S
C258 O256 1.247 . S
C258 O257 1.208 . S
C259 O264 1.247 . S
C259 O265 1.208 . S
C260 O252 1.315 . S
C260 O255 1.279 . S
C261 O262 1.315 . S
C261 O263 1.279 . S
O262 Cd254 2.223 . S
O262 C261 1.315 . S
O263 Cd253 2.240 . S
O263 C261 1.279 . S
O264 Cd254 2.297 . S
O264 C259 1.247 . S
O265 Cd254 2.439 . S
O265 C259 1.208 . S
O266 Cd267 2.223 . S
O266 C274 1.315 . S
Cd267 O266 2.223 . S
Cd267 O270 2.297 . S
Cd267 O271 2.439 . S
Cd267 O277 2.240 . S
Cd268 O269 2.240 . S
Cd268 O276 2.223 . S
Cd268 O278 2.297 . S
Cd268 O279 2.439 . S
O269 Cd268 2.240 . S
O269 C274 1.279 . S
O270 Cd267 2.297 . S
O270 C272 1.247 . S
O271 Cd267 2.439 . S
O271 C272 1.208 . S
C272 O270 1.247 . S
C272 O271 1.208 . S
C273 O278 1.247 . S
C273 O279 1.208 . S
C274 O266 1.315 . S
C274 O269 1.279 . S
C275 O276 1.315 . S
C275 O277 1.279 . S
O276 Cd268 2.223 . S
O276 C275 1.315 . S
O277 Cd267 2.240 . S
O277 C275 1.279 . S
O278 Cd268 2.297 . S
O278 C273 1.247 . S
O279 Cd268 2.439 . S
O279 C273 1.208 . S
O280 Cd281 2.223 . S
O280 C288 1.315 . S
Cd281 O280 2.223 . S
Cd281 O284 2.297 . S
Cd281 O285 2.439 . S
Cd281 O291 2.240 . S
Cd282 O283 2.240 . S
Cd282 O290 2.223 . S
Cd282 O292 2.297 . S
Cd282 O293 2.439 . S
O283 Cd282 2.240 . S
O283 C288 1.279 . S
O284 Cd281 2.297 . S
O284 C286 1.247 . S
O285 Cd281 2.439 . S
O285 C286 1.208 . S
C286 O284 1.247 . S
C286 O285 1.208 . S
C287 O292 1.247 . S
C287 O293 1.208 . S
C288 O280 1.315 . S
C288 O283 1.279 . S
C289 O290 1.315 . S
C289 O291 1.279 . S
O290 Cd282 2.223 . S
O290 C289 1.315 . S
O291 Cd281 2.240 . S
O291 C289 1.279 . S
O292 Cd282 2.297 . S
O292 C287 1.247 . S
O293 Cd282 2.439 . S
O293 C287 1.208 . S
O294 Cd295 2.223 . S
O294 C302 1.315 . S
Cd295 O294 2.223 . S
Cd295 O298 2.297 . S
Cd295 O299 2.439 . S
Cd295 O305 2.240 . S
Cd296 O297 2.240 . S
Cd296 O304 2.223 . S
Cd296 O306 2.297 . S
Cd296 O307 2.439 . S
O297 Cd296 2.240 . S
O297 C302 1.279 . S
O298 Cd295 2.297 . S
O298 C300 1.247 . S
O299 Cd295 2.439 . S
O299 C300 1.208 . S
C300 O298 1.247 . S
C300 O299 1.208 . S
C301 O306 1.247 . S
C301 O307 1.208 . S
C302 O294 1.315 . S
C302 O297 1.279 . S
C303 O304 1.315 . S
C303 O305 1.279 . S
O304 Cd296 2.223 . S
O304 C303 1.315 . S
O305 Cd295 2.240 . S
O305 C303 1.279 . S
O306 Cd296 2.297 . S
O306 C301 1.247 . S
O307 Cd296 2.439 . S
O307 C301 1.208 . S
O308 Cd309 2.223 . S
O308 C316 1.315 . S
Cd309 O308 2.223 . S
Cd309 O312 2.297 . S
Cd309 O313 2.439 . S
Cd309 O319 2.240 . S
Cd310 O311 2.240 . S
Cd310 O318 2.223 . S
Cd310 O320 2.297 . S
Cd310 O321 2.439 . S
O311 Cd310 2.240 . S
O311 C316 1.279 . S
O312 Cd309 2.297 . S
O312 C314 1.247 . S
O313 Cd309 2.439 . S
O313 C314 1.208 . S
C314 O312 1.247 . S
C314 O313 1.208 . S
C315 O320 1.247 . S
C315 O321 1.208 . S
C316 O308 1.315 . S
C316 O311 1.279 . S
C317 O318 1.315 . S
C317 O319 1.279 . S
O318 Cd310 2.223 . S
O318 C317 1.315 . S
O319 Cd309 2.240 . S
O319 C317 1.279 . S
O320 Cd310 2.297 . S
O320 C315 1.247 . S
O321 Cd310 2.439 . S
O321 C315 1.208 . S
O322 Cd323 2.223 . S
O322 C330 1.315 . S
Cd323 O322 2.223 . S
Cd323 O326 2.297 . S
Cd323 O327 2.439 . S
Cd323 O333 2.240 . S
Cd324 O325 2.240 . S
Cd324 O332 2.223 . S
Cd324 O334 2.297 . S
Cd324 O335 2.439 . S
O325 Cd324 2.240 . S
O325 C330 1.279 . S
O326 Cd323 2.297 . S
O326 C328 1.247 . S
O327 Cd323 2.439 . S
O327 C328 1.208 . S
C328 O326 1.247 . S
C328 O327 1.208 . S
C329 O334 1.247 . S
C329 O335 1.208 . S
C330 O322 1.315 . S
C330 O325 1.279 . S
C331 O332 1.315 . S
C331 O333 1.279 . S
O332 Cd324 2.223 . S
O332 C331 1.315 . S
O333 Cd323 2.240 . S
O333 C331 1.279 . S
O334 Cd324 2.297 . S
O334 C329 1.247 . S
O335 Cd324 2.439 . S
O335 C329 1.208 . S
O336 Cd337 2.223 . S
O336 C344 1.315 . S
Cd337 O336 2.223 . S
Cd337 O340 2.297 . S
Cd337 O341 2.439 . S
Cd337 O347 2.240 . S
Cd338 O339 2.240 . S
Cd338 O346 2.223 . S
Cd338 O348 2.297 . S
Cd338 O349 2.439 . S
O339 Cd338 2.240 . S
O339 C344 1.279 . S
O340 Cd337 2.297 . S
O340 C342 1.247 . S
O341 Cd337 2.439 . S
O341 C342 1.208 . S
C342 O340 1.247 . S
C342 O341 1.208 . S
C343 O348 1.247 . S
C343 O349 1.208 . S
C344 O336 1.315 . S
C344 O339 1.279 . S
C345 O346 1.315 . S
C345 O347 1.279 . S
O346 Cd338 2.223 . S
O346 C345 1.315 . S
O347 Cd337 2.240 . S
O347 C345 1.279 . S
O348 Cd338 2.297 . S
O348 C343 1.247 . S
O349 Cd338 2.439 . S
O349 C343 1.208 . S
O350 Cd351 2.223 . S
O350 C358 1.315 . S
Cd351 O350 2.223 . S
Cd351 O354 2.297 . S
Cd351 O355 2.439 . S
Cd351 O361 2.240 . S
Cd352 O353 2.240 . S
Cd352 O360 2.223 . S
Cd352 O362 2.297 . S
Cd352 O363 2.439 . S
O353 Cd352 2.240 . S
O353 C358 1.279 . S
O354 Cd351 2.297 . S
O354 C356 1.247 . S
O355 Cd351 2.439 . S
O355 C356 1.208 . S
C356 O354 1.247 . S
C356 O355 1.208 . S
C357 O362 1.247 . S
C357 O363 1.208 . S
C358 O350 1.315 . S
C358 O353 1.279 . S
C359 O360 1.315 . S
C359 O361 1.279 . S
O360 Cd352 2.223 . S
O360 C359 1.315 . S
O361 Cd351 2.240 . S
O361 C359 1.279 . S
O362 Cd352 2.297 . S
O362 C357 1.247 . S
O363 Cd352 2.439 . S
O363 C357 1.208 . S
O364 Cd365 2.223 . S
O364 C372 1.315 . S
Cd365 O364 2.223 . S
Cd365 O368 2.297 . S
Cd365 O369 2.439 . S
Cd365 O375 2.240 . S
Cd366 O367 2.240 . S
Cd366 O374 2.223 . S
Cd366 O376 2.297 . S
Cd366 O377 2.439 . S
O367 Cd366 2.240 . S
O367 C372 1.279 . S
O368 Cd365 2.297 . S
O368 C370 1.247 . S
O369 Cd365 2.439 . S
O369 C370 1.208 . S
C370 O368 1.247 . S
C370 O369 1.208 . S
C371 O376 1.247 . S
C371 O377 1.208 . S
C372 O364 1.315 . S
C372 O367 1.279 . S
C373 O374 1.315 . S
C373 O375 1.279 . S
O374 Cd366 2.223 . S
O374 C373 1.315 . S
O375 Cd365 2.240 . S
O375 C373 1.279 . S
O376 Cd366 2.297 . S
O376 C371 1.247 . S
O377 Cd366 2.439 . S
O377 C371 1.208 . S
O378 Cd379 2.223 . S
O378 C386 1.315 . S
Cd379 O378 2.223 . S
Cd379 O382 2.297 . S
Cd379 O383 2.439 . S
Cd379 O389 2.240 . S
Cd380 O381 2.240 . S
Cd380 O388 2.223 . S
Cd380 O390 2.297 . S
Cd380 O391 2.439 . S
O381 Cd380 2.240 . S
O381 C386 1.279 . S
O382 Cd379 2.297 . S
O382 C384 1.247 . S
O383 Cd379 2.439 . S
O383 C384 1.208 . S
C384 O382 1.247 . S
C384 O383 1.208 . S
C385 O390 1.247 . S
C385 O391 1.208 . S
C386 O378 1.315 . S
C386 O381 1.279 . S
C387 O388 1.315 . S
C387 O389 1.279 . S
O388 Cd380 2.223 . S
O388 C387 1.315 . S
O389 Cd379 2.240 . S
O389 C387 1.279 . S
O390 Cd380 2.297 . S
O390 C385 1.247 . S
O391 Cd380 2.439 . S
O391 C385 1.208 . S
O392 Cd393 2.223 . S
O392 C400 1.315 . S
Cd393 O392 2.223 . S
Cd393 O396 2.297 . S
Cd393 O397 2.439 . S
Cd393 O403 2.240 . S
Cd394 O395 2.240 . S
Cd394 O402 2.223 . S
Cd394 O404 2.297 . S
Cd394 O405 2.439 . S
O395 Cd394 2.240 . S
O395 C400 1.279 . S
O396 Cd393 2.297 . S
O396 C398 1.247 . S
O397 Cd393 2.439 . S
O397 C398 1.208 . S
C398 O396 1.247 . S
C398 O397 1.208 . S
C399 O404 1.247 . S
C399 O405 1.208 . S
C400 O392 1.315 . S
C400 O395 1.279 . S
C401 O402 1.315 . S
C401 O403 1.279 . S
O402 Cd394 2.223 . S
O402 C401 1.315 . S
O403 Cd393 2.240 . S
O403 C401 1.279 . S
O404 Cd394 2.297 . S
O404 C399 1.247 . S
O405 Cd394 2.439 . S
O405 C399 1.208 . S
O406 Cd407 2.223 . S
O406 C414 1.315 . S
Cd407 O406 2.223 . S
Cd407 O410 2.297 . S
Cd407 O411 2.439 . S
Cd407 O417 2.240 . S
Cd408 O409 2.240 . S
Cd408 O416 2.223 . S
Cd408 O418 2.297 . S
Cd408 O419 2.439 . S
O409 Cd408 2.240 . S
O409 C414 1.279 . S
O410 Cd407 2.297 . S
O410 C412 1.247 . S
O411 Cd407 2.439 . S
O411 C412 1.208 . S
C412 O410 1.247 . S
C412 O411 1.208 . S
C413 O418 1.247 . S
C413 O419 1.208 . S
C414 O406 1.315 . S
C414 O409 1.279 . S
C415 O416 1.315 . S
C415 O417 1.279 . S
O416 Cd408 2.223 . S
O416 C415 1.315 . S
O417 Cd407 2.240 . S
O417 C415 1.279 . S
O418 Cd408 2.297 . S
O418 C413 1.247 . S
O419 Cd408 2.439 . S
O419 C413 1.208 . S
O420 Cd421 2.223 . S
O420 C428 1.315 . S
Cd421 O420 2.223 . S
Cd421 O424 2.297 . S
Cd421 O425 2.439 . S
Cd421 O431 2.240 . S
Cd422 O423 2.240 . S
Cd422 O430 2.223 . S
Cd422 O432 2.297 . S
Cd422 O433 2.439 . S
O423 Cd422 2.240 . S
O423 C428 1.279 . S
O424 Cd421 2.297 . S
O424 C426 1.247 . S
O425 Cd421 2.439 . S
O425 C426 1.208 . S
C426 O424 1.247 . S
C426 O425 1.208 . S
C427 O432 1.247 . S
C427 O433 1.208 . S
C428 O420 1.315 . S
C428 O423 1.279 . S
C429 O430 1.315 . S
C429 O431 1.279 . S
O430 Cd422 2.223 . S
O430 C429 1.315 . S
O431 Cd421 2.240 . S
O431 C429 1.279 . S
O432 Cd422 2.297 . S
O432 C427 1.247 . S
O433 Cd422 2.439 . S
O433 C427 1.208 . S
O434 Cd435 2.223 . S
O434 C442 1.315 . S
Cd435 O434 2.223 . S
Cd435 O438 2.297 . S
Cd435 O439 2.439 . S
Cd435 O445 2.240 . S
Cd436 O437 2.240 . S
Cd436 O444 2.223 . S
Cd436 O446 2.297 . S
Cd436 O447 2.439 . S
O437 Cd436 2.240 . S
O437 C442 1.279 . S
O438 Cd435 2.297 . S
O438 C440 1.247 . S
O439 Cd435 2.439 . S
O439 C440 1.208 . S
C440 O438 1.247 . S
C440 O439 1.208 . S
C441 O446 1.247 . S
C441 O447 1.208 . S
C442 O434 1.315 . S
C442 O437 1.279 . S
C443 O444 1.315 . S
C443 O445 1.279 . S
O444 Cd436 2.223 . S
O444 C443 1.315 . S
O445 Cd435 2.240 . S
O445 C443 1.279 . S
O446 Cd436 2.297 . S
O446 C441 1.247 . S
O447 Cd436 2.439 . S
O447 C441 1.208 . S
H448 C456 0.950 . S
H449 C461 0.950 . S
H450 C458 0.950 . S
H451 C460 0.950 . S
H452 C462 0.950 . S
H453 C464 0.950 . S
H454 C466 0.950 . S
H455 C467 0.950 . S
C456 H448 0.950 . S
C456 C457 1.386 . S
C456 C458 1.391 . S
C457 C456 1.386 . S
C457 C461 1.393 . S
C458 H450 0.950 . S
C458 C456 1.391 . S
C458 C459 1.400 . S
C459 C458 1.400 . S
C459 C460 1.398 . S
C459 C465 1.491 . S
C460 H451 0.950 . S
C460 C459 1.398 . S
C460 C461 1.391 . S
C461 H449 0.950 . S
C461 C457 1.393 . S
C461 C460 1.391 . S
C462 H452 0.950 . S
C462 C463 1.386 . S
C462 C464 1.391 . S
C463 C462 1.386 . S
C463 C467 1.393 . S
C464 H453 0.950 . S
C464 C462 1.391 . S
C464 C465 1.400 . S
C465 C459 1.491 . S
C465 C464 1.400 . S
C465 C466 1.398 . S
C466 H454 0.950 . S
C466 C465 1.398 . S
C466 C467 1.391 . S
C467 H455 0.950 . S
C467 C463 1.393 . S
C467 C466 1.391 . S
H468 C476 0.950 . S
H469 C481 0.934 1_455 S
H470 C478 0.950 . S
H471 C480 0.950 . S
H472 C482 0.950 . S
H473 C484 0.950 . S
H474 C486 0.950 . S
H475 C487 0.950 . S
C476 H468 0.950 . S
C476 C477 1.386 . S
C476 C478 1.391 . S
C477 C476 1.386 . S
C477 C481 1.393 . S
C478 H470 0.950 . S
C478 C476 1.391 . S
C478 C479 1.400 . S
C479 C478 1.400 . S
C479 C480 1.398 . S
C479 C485 1.491 . S
C480 H471 0.950 . S
C480 C479 1.398 . S
C480 C481 1.391 . S
C481 H469 0.934 1_655 S
C481 C477 1.393 . S
C481 C480 1.391 . S
C482 H472 0.950 . S
C482 C483 1.386 . S
C482 C484 1.391 . S
C483 C482 1.386 . S
C483 C487 1.393 . S
C484 H473 0.950 . S
C484 C482 1.391 . S
C484 C485 1.400 . S
C485 C479 1.491 . S
C485 C484 1.400 . S
C485 C486 1.398 . S
C486 H474 0.950 . S
C486 C485 1.398 . S
C486 C487 1.391 . S
C487 H475 0.950 . S
C487 C483 1.393 . S
C487 C486 1.391 . S
H488 C496 0.950 . S
H489 C501 0.950 . S
H490 C498 0.950 . S
H491 C500 0.950 . S
H492 C502 0.950 . S
H493 C504 0.950 . S
H494 C506 0.950 . S
H495 C507 0.950 . S
C496 H488 0.950 . S
C496 C497 1.386 . S
C496 C498 1.391 . S
C497 C496 1.386 . S
C497 C501 1.393 . S
C498 H490 0.950 . S
C498 C496 1.391 . S
C498 C499 1.400 . S
C499 C498 1.400 . S
C499 C500 1.398 . S
C499 C505 1.491 . S
C500 H491 0.950 . S
C500 C499 1.398 . S
C500 C501 1.391 . S
C501 H489 0.950 . S
C501 C497 1.393 . S
C501 C500 1.391 . S
C502 H492 0.950 . S
C502 C503 1.386 . S
C502 C504 1.391 . S
C503 C502 1.386 . S
C503 C507 1.393 . S
C504 H493 0.950 . S
C504 C502 1.391 . S
C504 C505 1.400 . S
C505 C499 1.491 . S
C505 C504 1.400 . S
C505 C506 1.398 . S
C506 H494 0.950 . S
C506 C505 1.398 . S
C506 C507 1.391 . S
C507 H495 0.950 . S
C507 C503 1.393 . S
C507 C506 1.391 . S
H508 C516 0.950 . S
H509 C521 0.950 . S
H510 C518 0.950 . S
H511 C520 0.950 . S
H512 C522 0.950 . S
H513 C524 0.950 . S
H514 C526 0.950 . S
H515 C527 0.950 . S
C516 H508 0.950 . S
C516 C517 1.386 . S
C516 C518 1.391 . S
C517 C516 1.386 . S
C517 C521 1.393 . S
C518 H510 0.950 . S
C518 C516 1.391 . S
C518 C519 1.400 . S
C519 C518 1.400 . S
C519 C520 1.398 . S
C519 C525 1.491 . S
C520 H511 0.950 . S
C520 C519 1.398 . S
C520 C521 1.391 . S
C521 H509 0.950 . S
C521 C517 1.393 . S
C521 C520 1.391 . S
C522 H512 0.950 . S
C522 C523 1.386 . S
C522 C524 1.391 . S
C523 C522 1.386 . S
C523 C527 1.393 . S
C524 H513 0.950 . S
C524 C522 1.391 . S
C524 C525 1.400 . S
C525 C519 1.491 . S
C525 C524 1.400 . S
C525 C526 1.398 . S
C526 H514 0.950 . S
C526 C525 1.398 . S
C526 C527 1.391 . S
C527 H515 0.950 . S
C527 C523 1.393 . S
C527 C526 1.391 . S
H528 C536 0.950 . S
H529 C541 0.950 . S
H530 C538 0.950 . S
H531 C540 0.950 . S
H532 C542 0.950 . S
H533 C544 0.950 . S
H534 C546 0.950 . S
H535 C547 0.950 . S
C536 H528 0.950 . S
C536 C537 1.386 . S
C536 C538 1.391 . S
C537 C536 1.386 . S
C537 C541 1.393 . S
C538 H530 0.950 . S
C538 C536 1.391 . S
C538 C539 1.400 . S
C539 C538 1.400 . S
C539 C540 1.398 . S
C539 C545 1.491 . S
C540 H531 0.950 . S
C540 C539 1.398 . S
C540 C541 1.391 . S
C541 H529 0.950 . S
C541 C537 1.393 . S
C541 C540 1.391 . S
C542 H532 0.950 . S
C542 C543 1.386 . S
C542 C544 1.391 . S
C543 C542 1.386 . S
C543 C547 1.393 . S
C544 H533 0.950 . S
C544 C542 1.391 . S
C544 C545 1.400 . S
C545 C539 1.491 . S
C545 C544 1.400 . S
C545 C546 1.398 . S
C546 H534 0.950 . S
C546 C545 1.398 . S
C546 C547 1.391 . S
C547 H535 0.950 . S
C547 C543 1.393 . S
C547 C546 1.391 . S
H548 C556 0.950 . S
H549 C561 0.950 . S
H550 C558 0.950 . S
H551 C560 0.950 . S
H552 C562 0.950 . S
H553 C564 0.950 . S
H554 C566 0.950 . S
H555 C567 0.950 . S
C556 H548 0.950 . S
C556 C557 1.386 . S
C556 C558 1.391 . S
C557 C556 1.386 . S
C557 C561 1.393 . S
C558 H550 0.950 . S
C558 C556 1.391 . S
C558 C559 1.400 . S
C559 C558 1.400 . S
C559 C560 1.398 . S
C559 C565 1.491 . S
C560 H551 0.950 . S
C560 C559 1.398 . S
C560 C561 1.391 . S
C561 H549 0.950 . S
C561 C557 1.393 . S
C561 C560 1.391 . S
C562 H552 0.950 . S
C562 C563 1.386 . S
C562 C564 1.391 . S
C563 C562 1.386 . S
C563 C567 1.393 . S
C564 H553 0.950 . S
C564 C562 1.391 . S
C564 C565 1.400 . S
C565 C559 1.491 . S
C565 C564 1.400 . S
C565 C566 1.398 . S
C566 H554 0.950 . S
C566 C565 1.398 . S
C566 C567 1.391 . S
C567 H555 0.950 . S
C567 C563 1.393 . S
C567 C566 1.391 . S
H568 C576 0.950 . S
H569 C581 0.950 . S
H570 C578 0.950 . S
H571 C580 0.950 . S
H572 C582 0.950 . S
H573 C584 0.950 . S
H574 C586 0.950 . S
H575 C587 0.950 . S
C576 H568 0.950 . S
C576 C577 1.386 . S
C576 C578 1.391 . S
C577 C576 1.386 . S
C577 C581 1.393 . S
C578 H570 0.950 . S
C578 C576 1.391 . S
C578 C579 1.400 . S
C579 C578 1.400 . S
C579 C580 1.398 . S
C579 C585 1.491 . S
C580 H571 0.950 . S
C580 C579 1.398 . S
C580 C581 1.391 . S
C581 H569 0.950 . S
C581 C577 1.393 . S
C581 C580 1.391 . S
C582 H572 0.950 . S
C582 C583 1.386 . S
C582 C584 1.391 . S
C583 C582 1.386 . S
C583 C587 1.393 . S
C584 H573 0.950 . S
C584 C582 1.391 . S
C584 C585 1.400 . S
C585 C579 1.491 . S
C585 C584 1.400 . S
C585 C586 1.398 . S
C586 H574 0.950 . S
C586 C585 1.398 . S
C586 C587 1.391 . S
C587 H575 0.950 . S
C587 C583 1.393 . S
C587 C586 1.391 . S
H588 C596 0.950 1_455 S
H589 C601 0.950 . S
H590 C598 0.950 . S
H591 C600 0.950 . S
H592 C602 0.950 . S
H593 C604 0.950 . S
H594 C606 0.950 . S
H595 C607 0.950 . S
C596 H588 0.950 1_655 S
C596 C597 1.386 . S
C596 C598 1.391 . S
C597 C596 1.386 . S
C597 C601 1.393 . S
C598 H590 0.950 . S
C598 C596 1.391 . S
C598 C599 1.400 . S
C599 C598 1.400 . S
C599 C600 1.398 . S
C599 C605 1.491 . S
C600 H591 0.950 . S
C600 C599 1.398 . S
C600 C601 1.391 . S
C601 H589 0.950 . S
C601 C597 1.393 . S
C601 C600 1.391 . S
C602 H592 0.950 . S
C602 C603 1.386 . S
C602 C604 1.391 . S
C603 C602 1.386 . S
C603 C607 1.393 . S
C604 H593 0.950 . S
C604 C602 1.391 . S
C604 C605 1.400 . S
C605 C599 1.491 . S
C605 C604 1.400 . S
C605 C606 1.398 . S
C606 H594 0.950 . S
C606 C605 1.398 . S
C606 C607 1.391 . S
C607 H595 0.950 . S
C607 C603 1.393 . S
C607 C606 1.391 . S
H608 C616 0.950 . S
H609 C621 0.950 . S
H610 C618 0.950 . S
H611 C620 0.950 . S
H612 C622 0.950 . S
H613 C624 0.950 . S
H614 C626 0.950 . S
H615 C627 0.950 . S
C616 H608 0.950 . S
C616 C617 1.386 . S
C616 C618 1.391 . S
C617 C616 1.386 . S
C617 C621 1.393 . S
C618 H610 0.950 . S
C618 C616 1.391 . S
C618 C619 1.400 . S
C619 C618 1.400 . S
C619 C620 1.398 . S
C619 C625 1.491 . S
C620 H611 0.950 . S
C620 C619 1.398 . S
C620 C621 1.391 . S
C621 H609 0.950 . S
C621 C617 1.393 . S
C621 C620 1.391 . S
C622 H612 0.950 . S
C622 C623 1.386 . S
C622 C624 1.391 . S
C623 C622 1.386 . S
C623 C627 1.393 . S
C624 H613 0.950 . S
C624 C622 1.391 . S
C624 C625 1.400 . S
C625 C619 1.491 . S
C625 C624 1.400 . S
C625 C626 1.398 . S
C626 H614 0.950 . S
C626 C625 1.398 . S
C626 C627 1.391 . S
C627 H615 0.950 . S
C627 C623 1.393 . S
C627 C626 1.391 . S
H628 C636 0.950 . S
H629 C641 0.950 . S
H630 C638 0.950 . S
H631 C640 0.950 . S
H632 C642 0.950 . S
H633 C644 0.950 . S
H634 C646 0.950 . S
H635 C647 0.950 1_655 S
C636 H628 0.950 . S
C636 C637 1.386 . S
C636 C638 1.391 . S
C637 C636 1.386 . S
C637 C641 1.393 . S
C638 H630 0.950 . S
C638 C636 1.391 . S
C638 C639 1.400 . S
C639 C638 1.400 . S
C639 C640 1.398 . S
C639 C645 1.491 . S
C640 H631 0.950 . S
C640 C639 1.398 . S
C640 C641 1.391 . S
C641 H629 0.950 . S
C641 C637 1.393 . S
C641 C640 1.391 . S
C642 H632 0.950 . S
C642 C643 1.386 . S
C642 C644 1.391 . S
C643 C642 1.386 . S
C643 C647 1.393 . S
C644 H633 0.950 . S
C644 C642 1.391 . S
C644 C645 1.400 . S
C645 C639 1.491 . S
C645 C644 1.400 . S
C645 C646 1.398 . S
C646 H634 0.950 . S
C646 C645 1.398 . S
C646 C647 1.391 . S
C647 H635 0.950 1_455 S
C647 C643 1.393 . S
C647 C646 1.391 . S
H648 C656 0.950 . S
H649 C661 0.950 . S
H650 C658 0.950 . S
H651 C660 0.950 . S
H652 C662 0.950 . S
H653 C664 0.950 . S
H654 C666 0.950 . S
H655 C667 0.950 . S
C656 H648 0.950 . S
C656 C657 1.386 . S
C656 C658 1.391 . S
C657 C656 1.386 . S
C657 C661 1.393 . S
C658 H650 0.950 . S
C658 C656 1.391 . S
C658 C659 1.400 . S
C659 C658 1.400 . S
C659 C660 1.398 . S
C659 C665 1.491 . S
C660 H651 0.950 . S
C660 C659 1.398 . S
C660 C661 1.391 . S
C661 H649 0.950 . S
C661 C657 1.393 . S
C661 C660 1.391 . S
C662 H652 0.950 . S
C662 C663 1.386 . S
C662 C664 1.391 . S
C663 C662 1.386 . S
C663 C667 1.393 . S
C664 H653 0.950 . S
C664 C662 1.391 . S
C664 C665 1.400 . S
C665 C659 1.491 . S
C665 C664 1.400 . S
C665 C666 1.398 . S
C666 H654 0.950 . S
C666 C665 1.398 . S
C666 C667 1.391 . S
C667 H655 0.950 . S
C667 C663 1.393 . S
C667 C666 1.391 . S
H668 C676 0.950 . S
H669 C681 0.950 . S
H670 C678 0.950 . S
H671 C680 0.950 . S
H672 C682 0.950 . S
H673 C684 0.950 . S
H674 C686 0.950 . S
H675 C687 0.950 . S
C676 H668 0.950 . S
C676 C677 1.386 . S
C676 C678 1.391 . S
C677 C676 1.386 . S
C677 C681 1.393 . S
C678 H670 0.950 . S
C678 C676 1.391 . S
C678 C679 1.400 . S
C679 C678 1.400 . S
C679 C680 1.398 . S
C679 C685 1.491 . S
C680 H671 0.950 . S
C680 C679 1.398 . S
C680 C681 1.391 . S
C681 H669 0.950 . S
C681 C677 1.393 . S
C681 C680 1.391 . S
C682 H672 0.950 . S
C682 C683 1.386 . S
C682 C684 1.391 . S
C683 C682 1.386 . S
C683 C687 1.393 . S
C684 H673 0.950 . S
C684 C682 1.391 . S
C684 C685 1.400 . S
C685 C679 1.491 . S
C685 C684 1.400 . S
C685 C686 1.398 . S
C686 H674 0.950 . S
C686 C685 1.398 . S
C686 C687 1.391 . S
C687 H675 0.950 . S
C687 C683 1.393 . S
C687 C686 1.391 . S
H688 C696 0.950 . S
H689 C701 0.950 . S
H690 C698 0.950 . S
H691 C700 0.950 . S
H692 C702 0.950 . S
H693 C704 0.950 . S
H694 C706 0.950 . S
H695 C707 0.950 . S
C696 H688 0.950 . S
C696 C697 1.386 . S
C696 C698 1.391 . S
C697 C696 1.386 . S
C697 C701 1.393 . S
C698 H690 0.950 . S
C698 C696 1.391 . S
C698 C699 1.400 . S
C699 C698 1.400 . S
C699 C700 1.398 . S
C699 C705 1.491 . S
C700 H691 0.950 . S
C700 C699 1.398 . S
C700 C701 1.391 . S
C701 H689 0.950 . S
C701 C697 1.393 . S
C701 C700 1.391 . S
C702 H692 0.950 . S
C702 C703 1.386 . S
C702 C704 1.391 . S
C703 C702 1.386 . S
C703 C707 1.393 . S
C704 H693 0.950 . S
C704 C702 1.391 . S
C704 C705 1.400 . S
C705 C699 1.491 . S
C705 C704 1.400 . S
C705 C706 1.398 . S
C706 H694 0.950 . S
C706 C705 1.398 . S
C706 C707 1.391 . S
C707 H695 0.950 . S
C707 C703 1.393 . S
C707 C706 1.391 . S
H708 C716 0.950 . S
H709 C721 0.950 . S
H710 C718 0.950 . S
H711 C720 0.950 . S
H712 C722 0.950 . S
H713 C724 0.950 . S
H714 C726 0.950 . S
H715 C727 0.950 . S
C716 H708 0.950 . S
C716 C717 1.386 . S
C716 C718 1.391 . S
C717 C716 1.386 . S
C717 C721 1.393 . S
C718 H710 0.950 . S
C718 C716 1.391 . S
C718 C719 1.400 . S
C719 C718 1.400 . S
C719 C720 1.398 . S
C719 C725 1.491 . S
C720 H711 0.950 . S
C720 C719 1.398 . S
C720 C721 1.391 . S
C721 H709 0.950 . S
C721 C717 1.393 . S
C721 C720 1.391 . S
C722 H712 0.950 . S
C722 C723 1.386 . S
C722 C724 1.391 . S
C723 C722 1.386 . S
C723 C727 1.393 . S
C724 H713 0.950 . S
C724 C722 1.391 . S
C724 C725 1.400 . S
C725 C719 1.491 . S
C725 C724 1.400 . S
C725 C726 1.398 . S
C726 H714 0.950 . S
C726 C725 1.398 . S
C726 C727 1.391 . S
C727 H715 0.950 . S
C727 C723 1.393 . S
C727 C726 1.391 . S
H728 C736 0.950 . S
H729 C741 0.950 . S
H730 C738 0.950 . S
H731 C740 0.950 . S
H732 C742 0.950 . S
H733 C744 0.950 . S
H734 C746 0.950 . S
H735 C747 0.950 . S
C736 H728 0.950 . S
C736 C737 1.386 . S
C736 C738 1.391 . S
C737 C736 1.386 . S
C737 C741 1.393 . S
C738 H730 0.950 . S
C738 C736 1.391 . S
C738 C739 1.400 . S
C739 C738 1.400 . S
C739 C740 1.398 . S
C739 C745 1.491 . S
C740 H731 0.950 . S
C740 C739 1.398 . S
C740 C741 1.391 . S
C741 H729 0.950 . S
C741 C737 1.393 . S
C741 C740 1.391 . S
C742 H732 0.950 . S
C742 C743 1.386 . S
C742 C744 1.391 . S
C743 C742 1.386 . S
C743 C747 1.393 . S
C744 H733 0.950 . S
C744 C742 1.391 . S
C744 C745 1.400 . S
C745 C739 1.491 . S
C745 C744 1.400 . S
C745 C746 1.398 . S
C746 H734 0.950 . S
C746 C745 1.398 . S
C746 C747 1.391 . S
C747 H735 0.950 . S
C747 C743 1.393 . S
C747 C746 1.391 . S
H748 C756 0.950 . S
H749 C761 0.950 . S
H750 C758 0.950 . S
H751 C760 0.950 . S
H752 C762 0.950 . S
H753 C764 0.950 . S
H754 C766 0.950 . S
H755 C767 0.950 . S
C756 H748 0.950 . S
C756 C757 1.386 . S
C756 C758 1.391 . S
C757 C756 1.386 . S
C757 C761 1.393 . S
C758 H750 0.950 . S
C758 C756 1.391 . S
C758 C759 1.400 . S
C759 C758 1.400 . S
C759 C760 1.398 . S
C759 C765 1.491 . S
C760 H751 0.950 . S
C760 C759 1.398 . S
C760 C761 1.391 . S
C761 H749 0.950 . S
C761 C757 1.393 . S
C761 C760 1.391 . S
C762 H752 0.950 . S
C762 C763 1.386 . S
C762 C764 1.391 . S
C763 C762 1.386 . S
C763 C767 1.393 . S
C764 H753 0.950 . S
C764 C762 1.391 . S
C764 C765 1.400 . S
C765 C759 1.491 . S
C765 C764 1.400 . S
C765 C766 1.398 . S
C766 H754 0.950 . S
C766 C765 1.398 . S
C766 C767 1.391 . S
C767 H755 0.950 . S
C767 C763 1.393 . S
C767 C766 1.391 . S
H768 C776 0.950 . S
H769 C781 0.950 . S
H770 C778 0.950 . S
H771 C780 0.950 . S
H772 C782 0.950 . S
H773 C784 0.950 . S
H774 C786 0.950 . S
H775 C787 0.950 . S
C776 H768 0.950 . S
C776 C777 1.386 . S
C776 C778 1.391 . S
C777 C776 1.386 . S
C777 C781 1.393 . S
C778 H770 0.950 . S
C778 C776 1.391 . S
C778 C779 1.400 . S
C779 C778 1.400 . S
C779 C780 1.398 . S
C779 C785 1.491 . S
C780 H771 0.950 . S
C780 C779 1.398 . S
C780 C781 1.391 . S
C781 H769 0.950 . S
C781 C777 1.393 . S
C781 C780 1.391 . S
C782 H772 0.950 . S
C782 C783 1.386 . S
C782 C784 1.391 . S
C783 C782 1.386 . S
C783 C787 1.393 . S
C784 H773 0.950 . S
C784 C782 1.391 . S
C784 C785 1.400 . S
C785 C779 1.491 . S
C785 C784 1.400 . S
C785 C786 1.398 . S
C786 H774 0.950 . S
C786 C785 1.398 . S
C786 C787 1.391 . S
C787 H775 0.950 . S
C787 C783 1.393 . S
C787 C786 1.391 . S
H788 C796 0.950 . S
H789 C801 0.950 . S
H790 C798 0.950 . S
H791 C800 0.950 . S
H792 C802 0.950 . S
H793 C804 0.950 . S
H794 C806 0.950 . S
H795 C807 0.950 . S
C796 H788 0.950 . S
C796 C797 1.386 . S
C796 C798 1.391 . S
C797 C796 1.386 . S
C797 C801 1.393 . S
C798 H790 0.950 . S
C798 C796 1.391 . S
C798 C799 1.400 . S
C799 C798 1.400 . S
C799 C800 1.398 . S
C799 C805 1.491 . S
C800 H791 0.950 . S
C800 C799 1.398 . S
C800 C801 1.391 . S
C801 H789 0.950 . S
C801 C797 1.393 . S
C801 C800 1.391 . S
C802 H792 0.950 . S
C802 C803 1.386 . S
C802 C804 1.391 . S
C803 C802 1.386 . S
C803 C807 1.393 . S
C804 H793 0.950 . S
C804 C802 1.391 . S
C804 C805 1.400 . S
C805 C799 1.491 . S
C805 C804 1.400 . S
C805 C806 1.398 . S
C806 H794 0.950 . S
C806 C805 1.398 . S
C806 C807 1.391 . S
C807 H795 0.950 . S
C807 C803 1.393 . S
C807 C806 1.391 . S
H808 C816 0.950 . S
H809 C821 0.950 . S
H810 C818 0.950 . S
H811 C820 0.950 . S
H812 C822 0.950 . S
H813 C824 0.950 . S
H814 C826 0.950 . S
H815 C827 0.950 . S
C816 H808 0.950 . S
C816 C817 1.386 . S
C816 C818 1.391 . S
C817 C816 1.386 . S
C817 C821 1.393 . S
C818 H810 0.950 . S
C818 C816 1.391 . S
C818 C819 1.400 . S
C819 C818 1.400 . S
C819 C820 1.398 . S
C819 C825 1.491 . S
C820 H811 0.950 . S
C820 C819 1.398 . S
C820 C821 1.391 . S
C821 H809 0.950 . S
C821 C817 1.393 . S
C821 C820 1.391 . S
C822 H812 0.950 . S
C822 C823 1.386 . S
C822 C824 1.391 . S
C823 C822 1.386 . S
C823 C827 1.393 . S
C824 H813 0.950 . S
C824 C822 1.391 . S
C824 C825 1.400 . S
C825 C819 1.491 . S
C825 C824 1.400 . S
C825 C826 1.398 . S
C826 H814 0.950 . S
C826 C825 1.398 . S
C826 C827 1.391 . S
C827 H815 0.950 . S
C827 C823 1.393 . S
C827 C826 1.391 . S
H828 C836 0.950 . S
H829 C841 0.950 . S
H830 C838 0.950 . S
H831 C840 0.950 . S
H832 C842 0.950 1_655 S
H833 C844 0.950 . S
H834 C846 0.950 . S
H835 C847 0.950 . S
C836 H828 0.950 . S
C836 C837 1.386 . S
C836 C838 1.391 . S
C837 C836 1.386 . S
C837 C841 1.393 . S
C838 H830 0.950 . S
C838 C836 1.391 . S
C838 C839 1.400 . S
C839 C838 1.400 . S
C839 C840 1.398 . S
C839 C845 1.491 . S
C840 H831 0.950 . S
C840 C839 1.398 . S
C840 C841 1.391 . S
C841 H829 0.950 . S
C841 C837 1.393 . S
C841 C840 1.391 . S
C842 H832 0.950 1_455 S
C842 C843 1.386 . S
C842 C844 1.391 . S
C843 C842 1.386 . S
C843 C847 1.393 . S
C844 H833 0.950 . S
C844 C842 1.391 . S
C844 C845 1.400 . S
C845 C839 1.491 . S
C845 C844 1.400 . S
C845 C846 1.398 . S
C846 H834 0.950 . S
C846 C845 1.398 . S
C846 C847 1.391 . S
C847 H835 0.950 . S
C847 C843 1.393 . S
C847 C846 1.391 . S
H848 C856 0.950 . S
H849 C861 0.950 . S
H850 C858 0.950 . S
H851 C860 0.950 . S
H852 C862 0.950 . S
H853 C864 0.950 . S
H854 C866 0.950 . S
H855 C867 0.950 . S
C856 H848 0.950 . S
C856 C857 1.386 . S
C856 C858 1.391 . S
C857 C856 1.386 . S
C857 C861 1.393 . S
C858 H850 0.950 . S
C858 C856 1.391 . S
C858 C859 1.400 . S
C859 C858 1.400 . S
C859 C860 1.398 . S
C859 C865 1.491 . S
C860 H851 0.950 . S
C860 C859 1.398 . S
C860 C861 1.391 . S
C861 H849 0.950 . S
C861 C857 1.393 . S
C861 C860 1.391 . S
C862 H852 0.950 . S
C862 C863 1.386 . S
C862 C864 1.391 . S
C863 C862 1.386 . S
C863 C867 1.393 . S
C864 H853 0.950 . S
C864 C862 1.391 . S
C864 C865 1.400 . S
C865 C859 1.491 . S
C865 C864 1.400 . S
C865 C866 1.398 . S
C866 H854 0.950 . S
C866 C865 1.398 . S
C866 C867 1.391 . S
C867 H855 0.950 . S
C867 C863 1.393 . S
C867 C866 1.391 . S
H868 C876 0.950 . S
H869 C881 0.950 . S
H870 C878 0.950 . S
H871 C880 0.950 . S
H872 C882 0.950 . S
H873 C884 0.950 . S
H874 C886 0.950 . S
H875 C887 0.950 1_655 S
C876 H868 0.950 . S
C876 C877 1.386 . S
C876 C878 1.391 . S
C877 C876 1.386 . S
C877 C881 1.393 . S
C878 H870 0.950 . S
C878 C876 1.391 . S
C878 C879 1.400 . S
C879 C878 1.400 . S
C879 C880 1.398 . S
C879 C885 1.491 . S
C880 H871 0.950 . S
C880 C879 1.398 . S
C880 C881 1.391 . S
C881 H869 0.950 . S
C881 C877 1.393 . S
C881 C880 1.391 . S
C882 H872 0.950 . S
C882 C883 1.386 . S
C882 C884 1.391 . S
C883 C882 1.386 . S
C883 C887 1.393 . S
C884 H873 0.950 . S
C884 C882 1.391 . S
C884 C885 1.400 . S
C885 C879 1.491 . S
C885 C884 1.400 . S
C885 C886 1.398 . S
C886 H874 0.950 . S
C886 C885 1.398 . S
C886 C887 1.391 . S
C887 H875 0.950 1_455 S
C887 C883 1.393 . S
C887 C886 1.391 . S
H888 C896 0.950 . S
H889 C901 0.950 . S
H890 C898 0.950 . S
H891 C900 0.950 . S
H892 C902 0.950 . S
H893 C904 0.950 . S
H894 C906 0.950 . S
H895 C907 0.950 . S
C896 H888 0.950 . S
C896 C897 1.386 . S
C896 C898 1.391 . S
C897 C896 1.386 . S
C897 C901 1.393 . S
C898 H890 0.950 . S
C898 C896 1.391 . S
C898 C899 1.400 . S
C899 C898 1.400 . S
C899 C900 1.398 . S
C899 C905 1.491 . S
C900 H891 0.950 . S
C900 C899 1.398 . S
C900 C901 1.391 . S
C901 H889 0.950 . S
C901 C897 1.393 . S
C901 C900 1.391 . S
C902 H892 0.950 . S
C902 C903 1.386 . S
C902 C904 1.391 . S
C903 C902 1.386 . S
C903 C907 1.393 . S
C904 H893 0.950 . S
C904 C902 1.391 . S
C904 C905 1.400 . S
C905 C899 1.491 . S
C905 C904 1.400 . S
C905 C906 1.398 . S
C906 H894 0.950 . S
C906 C905 1.398 . S
C906 C907 1.391 . S
C907 H895 0.950 . S
C907 C903 1.393 . S
C907 C906 1.391 . S
H908 C916 0.950 . S
H909 C921 0.950 . S
H910 C918 0.950 . S
H911 C920 0.950 . S
H912 C922 0.950 . S
H913 C924 0.950 . S
H914 C926 0.950 . S
H915 C927 0.950 . S
C916 H908 0.950 . S
C916 C917 1.386 . S
C916 C918 1.391 . S
C917 C916 1.386 . S
C917 C921 1.393 . S
C918 H910 0.950 . S
C918 C916 1.391 . S
C918 C919 1.400 . S
C919 C918 1.400 . S
C919 C920 1.398 . S
C919 C925 1.491 . S
C920 H911 0.950 . S
C920 C919 1.398 . S
C920 C921 1.391 . S
C921 H909 0.950 . S
C921 C917 1.393 . S
C921 C920 1.391 . S
C922 H912 0.950 . S
C922 C923 1.386 . S
C922 C924 1.391 . S
C923 C922 1.386 . S
C923 C927 1.393 . S
C924 H913 0.950 . S
C924 C922 1.391 . S
C924 C925 1.400 . S
C925 C919 1.491 . S
C925 C924 1.400 . S
C925 C926 1.398 . S
C926 H914 0.950 . S
C926 C925 1.398 . S
C926 C927 1.391 . S
C927 H915 0.950 . S
C927 C923 1.393 . S
C927 C926 1.391 . S
H928 C936 0.950 . S
H929 C941 0.950 . S
H930 C938 0.950 . S
H931 C940 0.950 . S
H932 C942 0.950 . S
H933 C944 0.950 . S
H934 C946 0.950 . S
H935 C947 0.950 . S
C936 H928 0.950 . S
C936 C937 1.386 . S
C936 C938 1.391 . S
C937 C936 1.386 . S
C937 C941 1.393 . S
C938 H930 0.950 . S
C938 C936 1.391 . S
C938 C939 1.400 . S
C939 C938 1.400 . S
C939 C940 1.398 . S
C939 C945 1.491 . S
C940 H931 0.950 . S
C940 C939 1.398 . S
C940 C941 1.391 . S
C941 H929 0.950 . S
C941 C937 1.393 . S
C941 C940 1.391 . S
C942 H932 0.950 . S
C942 C943 1.386 . S
C942 C944 1.391 . S
C943 C942 1.386 . S
C943 C947 1.393 . S
C944 H933 0.950 . S
C944 C942 1.391 . S
C944 C945 1.400 . S
C945 C939 1.491 . S
C945 C944 1.400 . S
C945 C946 1.398 . S
C946 H934 0.950 . S
C946 C945 1.398 . S
C946 C947 1.391 . S
C947 H935 0.950 . S
C947 C943 1.393 . S
C947 C946 1.391 . S
H948 C956 0.950 . S
H949 C961 0.950 . S
H950 C958 0.950 . S
H951 C960 0.950 . S
H952 C962 0.950 . S
H953 C964 0.950 . S
H954 C966 0.950 . S
H955 C967 0.950 . S
C956 H948 0.950 . S
C956 C957 1.386 . S
C956 C958 1.391 . S
C957 C956 1.386 . S
C957 C961 1.393 . S
C958 H950 0.950 . S
C958 C956 1.391 . S
C958 C959 1.400 . S
C959 C958 1.400 . S
C959 C960 1.398 . S
C959 C965 1.491 . S
C960 H951 0.950 . S
C960 C959 1.398 . S
C960 C961 1.391 . S
C961 H949 0.950 . S
C961 C957 1.393 . S
C961 C960 1.391 . S
C962 H952 0.950 . S
C962 C963 1.386 . S
C962 C964 1.391 . S
C963 C962 1.386 . S
C963 C967 1.393 . S
C964 H953 0.950 . S
C964 C962 1.391 . S
C964 C965 1.400 . S
C965 C959 1.491 . S
C965 C964 1.400 . S
C965 C966 1.398 . S
C966 H954 0.950 . S
C966 C965 1.398 . S
C966 C967 1.391 . S
C967 H955 0.950 . S
C967 C963 1.393 . S
C967 C966 1.391 . S
H968 C976 0.950 . S
H969 C981 0.950 . S
H970 C978 0.950 . S
H971 C980 0.950 . S
H972 C982 0.950 . S
H973 C984 0.950 . S
H974 C986 0.950 . S
H975 C987 0.950 . S
C976 H968 0.950 . S
C976 C977 1.386 . S
C976 C978 1.391 . S
C977 C976 1.386 . S
C977 C981 1.393 . S
C978 H970 0.950 . S
C978 C976 1.391 . S
C978 C979 1.400 . S
C979 C978 1.400 . S
C979 C980 1.398 . S
C979 C985 1.491 . S
C980 H971 0.950 . S
C980 C979 1.398 . S
C980 C981 1.391 . S
C981 H969 0.950 . S
C981 C977 1.393 . S
C981 C980 1.391 . S
C982 H972 0.950 . S
C982 C983 1.386 . S
C982 C984 1.391 . S
C983 C982 1.386 . S
C983 C987 1.393 . S
C984 H973 0.950 . S
C984 C982 1.391 . S
C984 C985 1.400 . S
C985 C979 1.491 . S
C985 C984 1.400 . S
C985 C986 1.398 . S
C986 H974 0.950 . S
C986 C985 1.398 . S
C986 C987 1.391 . S
C987 H975 0.950 . S
C987 C983 1.393 . S
C987 C986 1.391 . S
H988 C996 0.950 . S
H989 C1001 0.950 . S
H990 C998 0.950 . S
H991 C1000 0.950 . S
H992 C1002 0.950 . S
H993 C1004 0.950 . S
H994 C1006 0.950 . S
H995 C1007 0.950 . S
C996 H988 0.950 . S
C996 C997 1.386 . S
C996 C998 1.391 . S
C997 C996 1.386 . S
C997 C1001 1.393 . S
C998 H990 0.950 . S
C998 C996 1.391 . S
C998 C999 1.400 . S
C999 C998 1.400 . S
C999 C1000 1.398 . S
C999 C1005 1.491 . S
C1000 H991 0.950 . S
C1000 C999 1.398 . S
C1000 C1001 1.391 . S
C1001 H989 0.950 . S
C1001 C997 1.393 . S
C1001 C1000 1.391 . S
C1002 H992 0.950 . S
C1002 C1003 1.386 . S
C1002 C1004 1.391 . S
C1003 C1002 1.386 . S
C1003 C1007 1.393 . S
C1004 H993 0.950 . S
C1004 C1002 1.391 . S
C1004 C1005 1.400 . S
C1005 C999 1.491 . S
C1005 C1004 1.400 . S
C1005 C1006 1.398 . S
C1006 H994 0.950 . S
C1006 C1005 1.398 . S
C1006 C1007 1.391 . S
C1007 H995 0.950 . S
C1007 C1003 1.393 . S
C1007 C1006 1.391 . S
H1008 C1016 0.950 . S
H1009 C1021 0.950 . S
H1010 C1018 0.950 . S
H1011 C1020 0.950 . S
H1012 C1022 0.950 . S
H1013 C1024 0.950 . S
H1014 C1026 0.950 . S
H1015 C1027 0.950 . S
C1016 H1008 0.950 . S
C1016 C1017 1.386 . S
C1016 C1018 1.391 . S
C1017 C1016 1.386 . S
C1017 C1021 1.393 . S
C1018 H1010 0.950 . S
C1018 C1016 1.391 . S
C1018 C1019 1.400 . S
C1019 C1018 1.400 . S
C1019 C1020 1.398 . S
C1019 C1025 1.491 . S
C1020 H1011 0.950 . S
C1020 C1019 1.398 . S
C1020 C1021 1.391 . S
C1021 H1009 0.950 . S
C1021 C1017 1.393 . S
C1021 C1020 1.391 . S
C1022 H1012 0.950 . S
C1022 C1023 1.386 . S
C1022 C1024 1.391 . S
C1023 C1022 1.386 . S
C1023 C1027 1.393 . S
C1024 H1013 0.950 . S
C1024 C1022 1.391 . S
C1024 C1025 1.400 . S
C1025 C1019 1.491 . S
C1025 C1024 1.400 . S
C1025 C1026 1.398 . S
C1026 H1014 0.950 . S
C1026 C1025 1.398 . S
C1026 C1027 1.391 . S
C1027 H1015 0.950 . S
C1027 C1023 1.393 . S
C1027 C1026 1.391 . S
H1028 C1036 0.950 1_455 S
H1029 C1041 0.950 . S
H1030 C1038 0.950 . S
H1031 C1040 0.950 . S
H1032 C1042 0.950 . S
H1033 C1044 0.950 . S
H1034 C1046 0.950 . S
H1035 C1047 0.950 . S
C1036 H1028 0.950 1_655 S
C1036 C1037 1.386 . S
C1036 C1038 1.391 . S
C1037 C1036 1.386 . S
C1037 C1041 1.393 . S
C1038 H1030 0.950 . S
C1038 C1036 1.391 . S
C1038 C1039 1.400 . S
C1039 C1038 1.400 . S
C1039 C1040 1.398 . S
C1039 C1045 1.491 . S
C1040 H1031 0.950 . S
C1040 C1039 1.398 . S
C1040 C1041 1.391 . S
C1041 H1029 0.950 . S
C1041 C1037 1.393 . S
C1041 C1040 1.391 . S
C1042 H1032 0.950 . S
C1042 C1043 1.386 . S
C1042 C1044 1.391 . S
C1043 C1042 1.386 . S
C1043 C1047 1.393 . S
C1044 H1033 0.950 . S
C1044 C1042 1.391 . S
C1044 C1045 1.400 . S
C1045 C1039 1.491 . S
C1045 C1044 1.400 . S
C1045 C1046 1.398 . S
C1046 H1034 0.950 . S
C1046 C1045 1.398 . S
C1046 C1047 1.391 . S
C1047 H1035 0.950 . S
C1047 C1043 1.393 . S
C1047 C1046 1.391 . S
H1048 C1056 0.950 . S
H1049 C1061 0.950 . S
H1050 C1058 0.950 . S
H1051 C1060 0.950 . S
H1052 C1062 0.950 . S
H1053 C1064 0.950 . S
H1054 C1066 0.950 . S
H1055 C1067 0.950 . S
C1056 H1048 0.950 . S
C1056 C1057 1.386 . S
C1056 C1058 1.391 . S
C1057 C1056 1.386 . S
C1057 C1061 1.393 . S
C1058 H1050 0.950 . S
C1058 C1056 1.391 . S
C1058 C1059 1.400 . S
C1059 C1058 1.400 . S
C1059 C1060 1.398 . S
C1059 C1065 1.491 . S
C1060 H1051 0.950 . S
C1060 C1059 1.398 . S
C1060 C1061 1.391 . S
C1061 H1049 0.950 . S
C1061 C1057 1.393 . S
C1061 C1060 1.391 . S
C1062 H1052 0.950 . S
C1062 C1063 1.386 . S
C1062 C1064 1.391 . S
C1063 C1062 1.386 . S
C1063 C1067 1.393 . S
C1064 H1053 0.950 . S
C1064 C1062 1.391 . S
C1064 C1065 1.400 . S
C1065 C1059 1.491 . S
C1065 C1064 1.400 . S
C1065 C1066 1.398 . S
C1066 H1054 0.950 . S
C1066 C1065 1.398 . S
C1066 C1067 1.391 . S
C1067 H1055 0.950 . S
C1067 C1063 1.393 . S
C1067 C1066 1.391 . S
H1068 C1076 0.950 . S
H1069 C1081 0.950 . S
H1070 C1078 0.950 . S
H1071 C1080 0.950 . S
H1072 C1082 0.950 . S
H1073 C1084 0.950 . S
H1074 C1086 0.950 . S
H1075 C1087 0.950 . S
C1076 H1068 0.950 . S
C1076 C1077 1.386 . S
C1076 C1078 1.391 . S
C1077 C1076 1.386 . S
C1077 C1081 1.393 . S
C1078 H1070 0.950 . S
C1078 C1076 1.391 . S
C1078 C1079 1.400 . S
C1079 C1078 1.400 . S
C1079 C1080 1.398 . S
C1079 C1085 1.491 . S
C1080 H1071 0.950 . S
C1080 C1079 1.398 . S
C1080 C1081 1.391 . S
C1081 H1069 0.950 . S
C1081 C1077 1.393 . S
C1081 C1080 1.391 . S
C1082 H1072 0.950 . S
C1082 C1083 1.386 . S
C1082 C1084 1.391 . S
C1083 C1082 1.386 . S
C1083 C1087 1.393 . S
C1084 H1073 0.950 . S
C1084 C1082 1.391 . S
C1084 C1085 1.400 . S
C1085 C1079 1.491 . S
C1085 C1084 1.400 . S
C1085 C1086 1.398 . S
C1086 H1074 0.950 . S
C1086 C1085 1.398 . S
C1086 C1087 1.391 . S
C1087 H1075 0.950 . S
C1087 C1083 1.393 . S
C1087 C1086 1.391 . S
H1088 C1096 0.950 . S
H1089 C1101 0.950 . S
H1090 C1098 0.950 . S
H1091 C1100 0.950 . S
H1092 C1102 0.950 . S
H1093 C1104 0.950 . S
H1094 C1106 0.950 . S
H1095 C1107 0.950 . S
C1096 H1088 0.950 . S
C1096 C1097 1.386 . S
C1096 C1098 1.391 . S
C1097 C1096 1.386 . S
C1097 C1101 1.393 . S
C1098 H1090 0.950 . S
C1098 C1096 1.391 . S
C1098 C1099 1.400 . S
C1099 C1098 1.400 . S
C1099 C1100 1.398 . S
C1099 C1105 1.491 . S
C1100 H1091 0.950 . S
C1100 C1099 1.398 . S
C1100 C1101 1.391 . S
C1101 H1089 0.950 . S
C1101 C1097 1.393 . S
C1101 C1100 1.391 . S
C1102 H1092 0.950 . S
C1102 C1103 1.386 . S
C1102 C1104 1.391 . S
C1103 C1102 1.386 . S
C1103 C1107 1.393 . S
C1104 H1093 0.950 . S
C1104 C1102 1.391 . S
C1104 C1105 1.400 . S
C1105 C1099 1.491 . S
C1105 C1104 1.400 . S
C1105 C1106 1.398 . S
C1106 H1094 0.950 . S
C1106 C1105 1.398 . S
C1106 C1107 1.391 . S
C1107 H1095 0.950 . S
C1107 C1103 1.393 . S
C1107 C1106 1.391 . S
H1108 C1116 0.950 . S
H1109 C1121 0.950 . S
H1110 C1118 0.950 1_545 S
H1111 C1120 0.950 . S
H1112 C1122 0.950 . S
H1113 C1124 0.950 1_565 S
H1114 C1126 0.950 . S
H1115 C1127 0.950 . S
C1116 H1108 0.950 . S
C1116 C1117 1.386 . S
C1116 C1118 1.391 . S
C1117 C1116 1.386 . S
C1117 C1121 1.393 1_455 S
C1118 H1110 0.950 1_565 S
C1118 C1116 1.391 . S
C1118 C1119 1.400 . S
C1119 C1118 1.400 . S
C1119 C1120 1.398 1_455 S
C1119 C1125 1.491 1_465 S
C1120 H1111 0.950 . S
C1120 C1119 1.398 1_655 S
C1120 C1121 1.391 . S
C1121 H1109 0.950 . S
C1121 C1117 1.393 1_655 S
C1121 C1120 1.391 . S
C1122 H1112 0.950 . S
C1122 C1123 1.386 . S
C1122 C1124 1.391 . S
C1123 C1122 1.386 . S
C1123 C1127 1.393 1_655 S
C1124 H1113 0.950 1_545 S
C1124 C1122 1.391 . S
C1124 C1125 1.400 . S
C1125 C1119 1.491 1_645 S
C1125 C1124 1.400 . S
C1125 C1126 1.398 1_655 S
C1126 H1114 0.950 . S
C1126 C1125 1.398 1_455 S
C1126 C1127 1.391 . S
C1127 H1115 0.950 . S
C1127 C1123 1.393 1_455 S
C1127 C1126 1.391 . S
H1128 C1136 0.950 . S
H1129 C1141 0.950 . S
H1130 C1138 0.950 . S
H1131 C1140 0.950 . S
H1132 C1142 0.950 . S
H1133 C1144 0.950 . S
H1134 C1146 0.950 . S
H1135 C1147 0.950 . S
C1136 H1128 0.950 . S
C1136 C1137 1.386 . S
C1136 C1138 1.391 . S
C1137 C1136 1.386 . S
C1137 C1141 1.393 . S
C1138 H1130 0.950 . S
C1138 C1136 1.391 . S
C1138 C1139 1.400 . S
C1139 C1138 1.400 . S
C1139 C1140 1.398 . S
C1139 C1145 1.491 . S
C1140 H1131 0.950 . S
C1140 C1139 1.398 . S
C1140 C1141 1.391 . S
C1141 H1129 0.950 . S
C1141 C1137 1.393 . S
C1141 C1140 1.391 . S
C1142 H1132 0.950 . S
C1142 C1143 1.386 . S
C1142 C1144 1.391 . S
C1143 C1142 1.386 . S
C1143 C1147 1.393 . S
C1144 H1133 0.950 . S
C1144 C1142 1.391 . S
C1144 C1145 1.400 . S
C1145 C1139 1.491 . S
C1145 C1144 1.400 . S
C1145 C1146 1.398 . S
C1146 H1134 0.950 . S
C1146 C1145 1.398 . S
C1146 C1147 1.391 . S
C1147 H1135 0.950 . S
C1147 C1143 1.393 . S
C1147 C1146 1.391 . S
H1148 C1156 0.950 . S
H1149 C1161 0.943 1_565 S
H1150 C1158 0.950 . S
H1151 C1160 0.950 . S
H1152 C1162 0.950 . S
H1153 C1164 0.950 . S
H1154 C1166 0.950 . S
H1155 C1167 0.943 1_545 S
C1156 H1148 0.950 . S
C1156 C1157 1.386 . S
C1156 C1158 1.391 . S
C1157 C1156 1.386 . S
C1157 C1161 1.393 . S
C1158 H1150 0.950 . S
C1158 C1156 1.391 . S
C1158 C1159 1.400 . S
C1159 C1158 1.400 . S
C1159 C1160 1.398 1_545 S
C1159 C1165 1.491 1_544 S
C1160 H1151 0.950 . S
C1160 C1159 1.398 1_565 S
C1160 C1161 1.391 1_565 S
C1161 H1149 0.943 1_545 S
C1161 C1157 1.393 . S
C1161 C1160 1.391 1_545 S
C1162 H1152 0.950 . S
C1162 C1163 1.386 . S
C1162 C1164 1.391 . S
C1163 C1162 1.386 . S
C1163 C1167 1.393 . S
C1164 H1153 0.950 . S
C1164 C1162 1.391 . S
C1164 C1165 1.400 . S
C1165 C1159 1.491 1_566 S
C1165 C1164 1.400 . S
C1165 C1166 1.398 1_565 S
C1166 H1154 0.950 . S
C1166 C1165 1.398 1_545 S
C1166 C1167 1.391 1_545 S
C1167 H1155 0.943 1_565 S
C1167 C1163 1.393 . S
C1167 C1166 1.391 1_565 S
H1168 C1176 0.950 . S
H1169 C1181 0.950 . S
H1170 C1178 0.950 . S
H1171 C1180 0.950 . S
H1172 C1182 0.950 . S
H1173 C1184 0.950 . S
H1174 C1186 0.950 . S
H1175 C1187 0.950 . S
C1176 H1168 0.950 . S
C1176 C1177 1.386 . S
C1176 C1178 1.391 . S
C1177 C1176 1.386 . S
C1177 C1181 1.393 . S
C1178 H1170 0.950 . S
C1178 C1176 1.391 . S
C1178 C1179 1.400 . S
C1179 C1178 1.400 . S
C1179 C1180 1.398 . S
C1179 C1185 1.491 . S
C1180 H1171 0.950 . S
C1180 C1179 1.398 . S
C1180 C1181 1.391 . S
C1181 H1169 0.950 . S
C1181 C1177 1.393 . S
C1181 C1180 1.391 . S
C1182 H1172 0.950 . S
C1182 C1183 1.386 . S
C1182 C1184 1.391 . S
C1183 C1182 1.386 . S
C1183 C1187 1.393 . S
C1184 H1173 0.950 . S
C1184 C1182 1.391 . S
C1184 C1185 1.400 . S
C1185 C1179 1.491 . S
C1185 C1184 1.400 . S
C1185 C1186 1.398 . S
C1186 H1174 0.950 . S
C1186 C1185 1.398 . S
C1186 C1187 1.391 . S
C1187 H1175 0.950 . S
C1187 C1183 1.393 . S
C1187 C1186 1.391 . S
H1188 C1196 0.950 . S
H1189 C1201 0.950 . S
H1190 C1198 0.950 . S
H1191 C1200 0.950 . S
H1192 C1202 0.950 . S
H1193 C1204 0.950 . S
H1194 C1206 0.950 . S
H1195 C1207 0.950 . S
C1196 H1188 0.950 . S
C1196 C1197 1.386 . S
C1196 C1198 1.391 . S
C1197 C1196 1.386 . S
C1197 C1201 1.393 . S
C1198 H1190 0.950 . S
C1198 C1196 1.391 . S
C1198 C1199 1.400 . S
C1199 C1198 1.400 . S
C1199 C1200 1.398 . S
C1199 C1205 1.491 1_565 S
C1200 H1191 0.950 . S
C1200 C1199 1.398 . S
C1200 C1201 1.391 . S
C1201 H1189 0.950 . S
C1201 C1197 1.393 . S
C1201 C1200 1.391 . S
C1202 H1192 0.950 . S
C1202 C1203 1.386 . S
C1202 C1204 1.391 . S
C1203 C1202 1.386 . S
C1203 C1207 1.393 . S
C1204 H1193 0.950 . S
C1204 C1202 1.391 . S
C1204 C1205 1.400 . S
C1205 C1199 1.491 1_545 S
C1205 C1204 1.400 . S
C1205 C1206 1.398 . S
C1206 H1194 0.950 . S
C1206 C1205 1.398 . S
C1206 C1207 1.391 . S
C1207 H1195 0.950 . S
C1207 C1203 1.393 . S
C1207 C1206 1.391 . S
H1208 C1216 0.950 . S
H1209 C1221 0.950 . S
H1210 C1218 0.950 . S
H1211 C1220 0.950 . S
H1212 C1222 0.950 . S
H1213 C1224 0.950 . S
H1214 C1226 0.950 . S
H1215 C1227 0.950 . S
C1216 H1208 0.950 . S
C1216 C1217 1.386 . S
C1216 C1218 1.391 . S
C1217 C1216 1.386 . S
C1217 C1221 1.393 . S
C1218 H1210 0.950 . S
C1218 C1216 1.391 . S
C1218 C1219 1.400 . S
C1219 C1218 1.400 . S
C1219 C1220 1.398 . S
C1219 C1225 1.491 . S
C1220 H1211 0.950 . S
C1220 C1219 1.398 . S
C1220 C1221 1.391 . S
C1221 H1209 0.950 . S
C1221 C1217 1.393 . S
C1221 C1220 1.391 . S
C1222 H1212 0.950 . S
C1222 C1223 1.386 . S
C1222 C1224 1.391 . S
C1223 C1222 1.386 . S
C1223 C1227 1.393 . S
C1224 H1213 0.950 . S
C1224 C1222 1.391 . S
C1224 C1225 1.400 . S
C1225 C1219 1.491 . S
C1225 C1224 1.400 . S
C1225 C1226 1.398 . S
C1226 H1214 0.950 . S
C1226 C1225 1.398 . S
C1226 C1227 1.391 . S
C1227 H1215 0.950 . S
C1227 C1223 1.393 . S
C1227 C1226 1.391 . S
H1228 C1236 0.950 . S
H1229 C1241 0.950 . S
H1230 C1238 0.950 . S
H1231 C1240 0.950 . S
H1232 C1242 0.950 . S
H1233 C1244 0.950 . S
H1234 C1246 0.950 . S
H1235 C1247 0.950 . S
C1236 H1228 0.950 . S
C1236 C1237 1.386 1_655 S
C1236 C1238 1.391 . S
C1237 C1236 1.386 1_455 S
C1237 C1241 1.393 . S
C1238 H1230 0.950 . S
C1238 C1236 1.391 . S
C1238 C1239 1.400 1_655 S
C1239 C1238 1.400 1_455 S
C1239 C1240 1.398 . S
C1239 C1245 1.491 1_446 S
C1240 H1231 0.950 . S
C1240 C1239 1.398 . S
C1240 C1241 1.391 . S
C1241 H1229 0.950 . S
C1241 C1237 1.393 . S
C1241 C1240 1.391 . S
C1242 H1232 0.950 . S
C1242 C1243 1.386 1_455 S
C1242 C1244 1.391 . S
C1243 C1242 1.386 1_655 S
C1243 C1247 1.393 . S
C1244 H1233 0.950 . S
C1244 C1242 1.391 . S
C1244 C1245 1.400 1_455 S
C1245 C1239 1.491 1_664 S
C1245 C1244 1.400 1_655 S
C1245 C1246 1.398 . S
C1246 H1234 0.950 . S
C1246 C1245 1.398 . S
C1246 C1247 1.391 . S
C1247 H1235 0.950 . S
C1247 C1243 1.393 . S
C1247 C1246 1.391 . S
H1248 C1256 0.950 . S
H1249 C1261 0.950 . S
H1250 C1258 0.950 . S
H1251 C1260 0.950 . S
H1252 C1262 0.950 . S
H1253 C1264 0.950 . S
H1254 C1266 0.950 . S
H1255 C1267 0.950 . S
C1256 H1248 0.950 . S
C1256 C1257 1.386 . S
C1256 C1258 1.391 . S
C1257 C1256 1.386 . S
C1257 C1261 1.393 . S
C1258 H1250 0.950 . S
C1258 C1256 1.391 . S
C1258 C1259 1.400 . S
C1259 C1258 1.400 . S
C1259 C1260 1.398 . S
C1259 C1265 1.491 . S
C1260 H1251 0.950 . S
C1260 C1259 1.398 . S
C1260 C1261 1.391 . S
C1261 H1249 0.950 . S
C1261 C1257 1.393 . S
C1261 C1260 1.391 . S
C1262 H1252 0.950 . S
C1262 C1263 1.386 . S
C1262 C1264 1.391 . S
C1263 C1262 1.386 . S
C1263 C1267 1.393 . S
C1264 H1253 0.950 . S
C1264 C1262 1.391 . S
C1264 C1265 1.400 . S
C1265 C1259 1.491 . S
C1265 C1264 1.400 . S
C1265 C1266 1.398 . S
C1266 H1254 0.950 . S
C1266 C1265 1.398 . S
C1266 C1267 1.391 . S
C1267 H1255 0.950 . S
C1267 C1263 1.393 . S
C1267 C1266 1.391 . S
H1268 C1276 0.950 . S
H1269 C1281 0.950 . S
H1270 C1278 0.950 . S
H1271 C1280 0.950 . S
H1272 C1282 0.950 . S
H1273 C1284 0.950 . S
H1274 C1286 0.950 . S
H1275 C1287 0.950 . S
C1276 H1268 0.950 . S
C1276 C1277 1.386 . S
C1276 C1278 1.391 . S
C1277 C1276 1.386 . S
C1277 C1281 1.393 . S
C1278 H1270 0.950 . S
C1278 C1276 1.391 . S
C1278 C1279 1.400 . S
C1279 C1278 1.400 . S
C1279 C1280 1.398 . S
C1279 C1285 1.491 . S
C1280 H1271 0.950 . S
C1280 C1279 1.398 . S
C1280 C1281 1.391 . S
C1281 H1269 0.950 . S
C1281 C1277 1.393 . S
C1281 C1280 1.391 . S
C1282 H1272 0.950 . S
C1282 C1283 1.386 . S
C1282 C1284 1.391 . S
C1283 C1282 1.386 . S
C1283 C1287 1.393 . S
C1284 H1273 0.950 . S
C1284 C1282 1.391 . S
C1284 C1285 1.400 . S
C1285 C1279 1.491 . S
C1285 C1284 1.400 . S
C1285 C1286 1.398 . S
C1286 H1274 0.950 . S
C1286 C1285 1.398 . S
C1286 C1287 1.391 . S
C1287 H1275 0.950 . S
C1287 C1283 1.393 . S
C1287 C1286 1.391 . S
H1288 C1296 0.950 . S
H1289 C1301 0.950 . S
H1290 C1298 0.950 . S
H1291 C1300 0.950 . S
H1292 C1302 0.950 . S
H1293 C1304 0.950 . S
H1294 C1306 0.950 . S
H1295 C1307 0.950 . S
C1296 H1288 0.950 . S
C1296 C1297 1.386 . S
C1296 C1298 1.391 . S
C1297 C1296 1.386 . S
C1297 C1301 1.393 . S
C1298 H1290 0.950 . S
C1298 C1296 1.391 . S
C1298 C1299 1.400 . S
C1299 C1298 1.400 . S
C1299 C1300 1.398 . S
C1299 C1305 1.491 . S
C1300 H1291 0.950 . S
C1300 C1299 1.398 . S
C1300 C1301 1.391 . S
C1301 H1289 0.950 . S
C1301 C1297 1.393 . S
C1301 C1300 1.391 . S
C1302 H1292 0.950 . S
C1302 C1303 1.386 . S
C1302 C1304 1.391 . S
C1303 C1302 1.386 . S
C1303 C1307 1.393 . S
C1304 H1293 0.950 . S
C1304 C1302 1.391 . S
C1304 C1305 1.400 . S
C1305 C1299 1.491 . S
C1305 C1304 1.400 . S
C1305 C1306 1.398 . S
C1306 H1294 0.950 . S
C1306 C1305 1.398 . S
C1306 C1307 1.391 . S
C1307 H1295 0.950 . S
C1307 C1303 1.393 . S
C1307 C1306 1.391 . S
H1308 C1316 0.950 . S
H1309 C1321 0.950 . S
H1310 C1318 0.950 . S
H1311 C1320 0.950 . S
H1312 C1322 0.950 . S
H1313 C1324 0.950 . S
H1314 C1326 0.950 . S
H1315 C1327 0.950 . S
C1316 H1308 0.950 . S
C1316 C1317 1.386 . S
C1316 C1318 1.391 . S
C1317 C1316 1.386 . S
C1317 C1321 1.393 . S
C1318 H1310 0.950 . S
C1318 C1316 1.391 . S
C1318 C1319 1.400 . S
C1319 C1318 1.400 . S
C1319 C1320 1.398 . S
C1319 C1325 1.491 . S
C1320 H1311 0.950 . S
C1320 C1319 1.398 . S
C1320 C1321 1.391 . S
C1321 H1309 0.950 . S
C1321 C1317 1.393 . S
C1321 C1320 1.391 . S
C1322 H1312 0.950 . S
C1322 C1323 1.386 . S
C1322 C1324 1.391 . S
C1323 C1322 1.386 . S
C1323 C1327 1.393 . S
C1324 H1313 0.950 . S
C1324 C1322 1.391 . S
C1324 C1325 1.400 . S
C1325 C1319 1.491 . S
C1325 C1324 1.400 . S
C1325 C1326 1.398 . S
C1326 H1314 0.950 . S
C1326 C1325 1.398 . S
C1326 C1327 1.391 . S
C1327 H1315 0.950 . S
C1327 C1323 1.393 . S
C1327 C1326 1.391 . S
H1328 C1336 0.950 . S
H1329 C1341 0.950 . S
H1330 C1338 0.957 . S
H1331 C1340 0.950 . S
H1332 C1342 0.950 . S
H1333 C1344 0.957 . S
H1334 C1346 0.950 . S
H1335 C1347 0.950 . S
C1336 H1328 0.950 . S
C1336 C1337 1.386 . S
C1336 C1338 1.391 . S
C1337 C1336 1.386 . S
C1337 C1341 1.393 . S
C1338 H1330 0.957 . S
C1338 C1336 1.391 . S
C1338 C1339 1.400 . S
C1339 C1338 1.400 . S
C1339 C1340 1.398 . S
C1339 C1345 1.491 1_554 S
C1340 H1331 0.950 . S
C1340 C1339 1.398 . S
C1340 C1341 1.391 . S
C1341 H1329 0.950 . S
C1341 C1337 1.393 . S
C1341 C1340 1.391 . S
C1342 H1332 0.950 . S
C1342 C1343 1.386 . S
C1342 C1344 1.391 . S
C1343 C1342 1.386 . S
C1343 C1347 1.393 . S
C1344 H1333 0.957 . S
C1344 C1342 1.391 . S
C1344 C1345 1.400 . S
C1345 C1339 1.491 1_556 S
C1345 C1344 1.400 . S
C1345 C1346 1.398 . S
C1346 H1334 0.950 . S
C1346 C1345 1.398 . S
C1346 C1347 1.391 . S
C1347 H1335 0.950 . S
C1347 C1343 1.393 . S
C1347 C1346 1.391 . S
H1348 C1356 0.950 . S
H1349 C1361 0.950 . S
H1350 C1358 0.950 . S
H1351 C1360 0.950 . S
H1352 C1362 0.950 . S
H1353 C1364 0.950 . S
H1354 C1366 0.950 . S
H1355 C1367 0.950 . S
C1356 H1348 0.950 . S
C1356 C1357 1.386 . S
C1356 C1358 1.391 . S
C1357 C1356 1.386 . S
C1357 C1361 1.393 . S
C1358 H1350 0.950 . S
C1358 C1356 1.391 . S
C1358 C1359 1.400 . S
C1359 C1358 1.400 . S
C1359 C1360 1.398 . S
C1359 C1365 1.491 1_455 S
C1360 H1351 0.950 . S
C1360 C1359 1.398 . S
C1360 C1361 1.391 . S
C1361 H1349 0.950 . S
C1361 C1357 1.393 . S
C1361 C1360 1.391 . S
C1362 H1352 0.950 . S
C1362 C1363 1.386 . S
C1362 C1364 1.391 . S
C1363 C1362 1.386 . S
C1363 C1367 1.393 . S
C1364 H1353 0.950 . S
C1364 C1362 1.391 . S
C1364 C1365 1.400 . S
C1365 C1359 1.491 1_655 S
C1365 C1364 1.400 . S
C1365 C1366 1.398 . S
C1366 H1354 0.950 . S
C1366 C1365 1.398 . S
C1366 C1367 1.391 . S
C1367 H1355 0.950 . S
C1367 C1363 1.393 . S
C1367 C1366 1.391 . S
H1368 C1376 0.950 . S
H1369 C1381 0.950 . S
H1370 C1378 0.950 . S
H1371 C1380 0.968 . S
H1372 C1382 0.950 . S
H1373 C1384 0.950 . S
H1374 C1386 0.968 . S
H1375 C1387 0.950 . S
C1376 H1368 0.950 . S
C1376 C1377 1.386 . S
C1376 C1378 1.391 . S
C1377 C1376 1.386 . S
C1377 C1381 1.393 . S
C1378 H1370 0.950 . S
C1378 C1376 1.391 . S
C1378 C1379 1.400 . S
C1379 C1378 1.400 . S
C1379 C1380 1.392 1_455 S
C1379 C1385 1.491 1_454 S
C1380 H1371 0.968 . S
C1380 C1379 1.392 1_655 S
C1380 C1381 1.380 1_655 S
C1381 H1369 0.950 . S
C1381 C1377 1.393 . S
C1381 C1380 1.380 1_455 S
C1382 H1372 0.950 . S
C1382 C1383 1.386 . S
C1382 C1384 1.391 . S
C1383 C1382 1.386 . S
C1383 C1387 1.393 . S
C1384 H1373 0.950 . S
C1384 C1382 1.391 . S
C1384 C1385 1.400 . S
C1385 C1379 1.491 1_656 S
C1385 C1384 1.400 . S
C1385 C1386 1.392 1_655 S
C1386 H1374 0.968 . S
C1386 C1385 1.392 1_455 S
C1386 C1387 1.380 1_455 S
C1387 H1375 0.950 . S
C1387 C1383 1.393 . S
C1387 C1386 1.380 1_655 S
H1388 C1396 0.950 . S
H1389 C1401 0.950 . S
H1390 C1398 0.950 . S
H1391 C1400 0.950 . S
H1392 C1402 0.950 . S
H1393 C1404 0.950 . S
H1394 C1406 0.950 . S
H1395 C1407 0.950 . S
C1396 H1388 0.950 . S
C1396 C1397 1.386 . S
C1396 C1398 1.391 . S
C1397 C1396 1.386 . S
C1397 C1401 1.393 . S
C1398 H1390 0.950 . S
C1398 C1396 1.391 . S
C1398 C1399 1.400 . S
C1399 C1398 1.400 . S
C1399 C1400 1.398 . S
C1399 C1405 1.491 . S
C1400 H1391 0.950 . S
C1400 C1399 1.398 . S
C1400 C1401 1.391 . S
C1401 H1389 0.950 . S
C1401 C1397 1.393 . S
C1401 C1400 1.391 . S
C1402 H1392 0.950 . S
C1402 C1403 1.386 . S
C1402 C1404 1.391 . S
C1403 C1402 1.386 . S
C1403 C1407 1.393 . S
C1404 H1393 0.950 . S
C1404 C1402 1.391 . S
C1404 C1405 1.400 . S
C1405 C1399 1.491 . S
C1405 C1404 1.400 . S
C1405 C1406 1.398 . S
C1406 H1394 0.950 . S
C1406 C1405 1.398 . S
C1406 C1407 1.391 . S
C1407 H1395 0.950 . S
C1407 C1403 1.393 . S
C1407 C1406 1.391 . S
H1408 C1416 0.950 . S
H1409 C1421 0.950 . S
H1410 C1418 0.950 . S
H1411 C1420 0.950 . S
H1412 C1422 0.950 . S
H1413 C1424 0.950 . S
H1414 C1426 0.950 . S
H1415 C1427 0.950 . S
C1416 H1408 0.950 . S
C1416 C1417 1.386 . S
C1416 C1418 1.391 . S
C1417 C1416 1.386 . S
C1417 C1421 1.393 . S
C1418 H1410 0.950 . S
C1418 C1416 1.391 . S
C1418 C1419 1.400 . S
C1419 C1418 1.400 . S
C1419 C1420 1.398 . S
C1419 C1425 1.491 . S
C1420 H1411 0.950 . S
C1420 C1419 1.398 . S
C1420 C1421 1.391 . S
C1421 H1409 0.950 . S
C1421 C1417 1.393 . S
C1421 C1420 1.391 . S
C1422 H1412 0.950 . S
C1422 C1423 1.386 . S
C1422 C1424 1.391 . S
C1423 C1422 1.386 . S
C1423 C1427 1.393 . S
C1424 H1413 0.950 . S
C1424 C1422 1.391 . S
C1424 C1425 1.400 . S
C1425 C1419 1.491 . S
C1425 C1424 1.400 . S
C1425 C1426 1.398 . S
C1426 H1414 0.950 . S
C1426 C1425 1.398 . S
C1426 C1427 1.391 . S
C1427 H1415 0.950 . S
C1427 C1423 1.393 . S
C1427 C1426 1.391 . S
H1428 C1436 0.950 1_565 S
H1429 C1441 0.950 . S
H1430 C1438 0.950 . S
H1431 C1440 0.950 . S
H1432 C1442 0.950 . S
H1433 C1444 0.950 . S
H1434 C1446 0.950 . S
H1435 C1447 0.950 . S
C1436 H1428 0.950 1_545 S
C1436 C1437 1.386 . S
C1436 C1438 1.391 . S
C1437 C1436 1.386 . S
C1437 C1441 1.393 . S
C1438 H1430 0.950 . S
C1438 C1436 1.391 . S
C1438 C1439 1.400 . S
C1439 C1438 1.400 . S
C1439 C1440 1.398 . S
C1439 C1445 1.491 . S
C1440 H1431 0.950 . S
C1440 C1439 1.398 . S
C1440 C1441 1.391 . S
C1441 H1429 0.950 . S
C1441 C1437 1.393 . S
C1441 C1440 1.391 . S
C1442 H1432 0.950 . S
C1442 C1443 1.386 . S
C1442 C1444 1.391 . S
C1443 C1442 1.386 . S
C1443 C1447 1.393 . S
C1444 H1433 0.950 . S
C1444 C1442 1.391 . S
C1444 C1445 1.400 . S
C1445 C1439 1.491 . S
C1445 C1444 1.400 . S
C1445 C1446 1.398 . S
C1446 H1434 0.950 . S
C1446 C1445 1.398 . S
C1446 C1447 1.391 . S
C1447 H1435 0.950 . S
C1447 C1443 1.393 . S
C1447 C1446 1.391 . S
H1448 C1456 0.950 . S
H1449 C1461 0.950 . S
H1450 C1458 0.950 . S
H1451 C1460 0.950 . S
H1452 C1462 0.950 1_545 S
H1453 C1464 0.950 . S
H1454 C1466 0.950 . S
H1455 C1467 0.950 . S
C1456 H1448 0.950 . S
C1456 C1457 1.386 . S
C1456 C1458 1.391 . S
C1457 C1456 1.386 . S
C1457 C1461 1.393 . S
C1458 H1450 0.950 . S
C1458 C1456 1.391 . S
C1458 C1459 1.400 . S
C1459 C1458 1.400 . S
C1459 C1460 1.398 . S
C1459 C1465 1.491 . S
C1460 H1451 0.950 . S
C1460 C1459 1.398 . S
C1460 C1461 1.391 . S
C1461 H1449 0.950 . S
C1461 C1457 1.393 . S
C1461 C1460 1.391 . S
C1462 H1452 0.950 1_565 S
C1462 C1463 1.386 . S
C1462 C1464 1.391 . S
C1463 C1462 1.386 . S
C1463 C1467 1.393 . S
C1464 H1453 0.950 . S
C1464 C1462 1.391 . S
C1464 C1465 1.400 . S
C1465 C1459 1.491 . S
C1465 C1464 1.400 . S
C1465 C1466 1.398 . S
C1466 H1454 0.950 . S
C1466 C1465 1.398 . S
C1466 C1467 1.391 . S
C1467 H1455 0.950 . S
C1467 C1463 1.393 . S
C1467 C1466 1.391 . S
H1468 C1476 0.950 . S
H1469 C1481 0.950 . S
H1470 C1478 0.950 . S
H1471 C1480 0.950 . S
H1472 C1482 0.950 . S
H1473 C1484 0.950 . S
H1474 C1486 0.950 . S
H1475 C1487 0.950 1_545 S
C1476 H1468 0.950 . S
C1476 C1477 1.386 . S
C1476 C1478 1.391 . S
C1477 C1476 1.386 . S
C1477 C1481 1.393 . S
C1478 H1470 0.950 . S
C1478 C1476 1.391 . S
C1478 C1479 1.400 . S
C1479 C1478 1.400 . S
C1479 C1480 1.398 . S
C1479 C1485 1.491 . S
C1480 H1471 0.950 . S
C1480 C1479 1.398 . S
C1480 C1481 1.391 . S
C1481 H1469 0.950 . S
C1481 C1477 1.393 . S
C1481 C1480 1.391 . S
C1482 H1472 0.950 . S
C1482 C1483 1.386 . S
C1482 C1484 1.391 . S
C1483 C1482 1.386 . S
C1483 C1487 1.393 . S
C1484 H1473 0.950 . S
C1484 C1482 1.391 . S
C1484 C1485 1.400 . S
C1485 C1479 1.491 . S
C1485 C1484 1.400 . S
C1485 C1486 1.398 . S
C1486 H1474 0.950 . S
C1486 C1485 1.398 . S
C1486 C1487 1.391 . S
C1487 H1475 0.950 1_565 S
C1487 C1483 1.393 . S
C1487 C1486 1.391 . S
H1488 C1496 0.950 . S
H1489 C1501 0.950 . S
H1490 C1498 0.950 . S
H1491 C1500 0.950 . S
H1492 C1502 0.950 . S
H1493 C1504 0.950 . S
H1494 C1506 0.950 . S
H1495 C1507 0.950 1_545 S
C1496 H1488 0.950 . S
C1496 C1497 1.386 . S
C1496 C1498 1.391 . S
C1497 C1496 1.386 . S
C1497 C1501 1.393 . S
C1498 H1490 0.950 . S
C1498 C1496 1.391 . S
C1498 C1499 1.400 . S
C1499 C1498 1.400 . S
C1499 C1500 1.398 . S
C1499 C1505 1.491 . S
C1500 H1491 0.950 . S
C1500 C1499 1.398 . S
C1500 C1501 1.391 . S
C1501 H1489 0.950 . S
C1501 C1497 1.393 . S
C1501 C1500 1.391 . S
C1502 H1492 0.950 . S
C1502 C1503 1.386 . S
C1502 C1504 1.391 . S
C1503 C1502 1.386 . S
C1503 C1507 1.393 . S
C1504 H1493 0.950 . S
C1504 C1502 1.391 . S
C1504 C1505 1.400 . S
C1505 C1499 1.491 . S
C1505 C1504 1.400 . S
C1505 C1506 1.398 . S
C1506 H1494 0.950 . S
C1506 C1505 1.398 . S
C1506 C1507 1.391 . S
C1507 H1495 0.950 1_565 S
C1507 C1503 1.393 . S
C1507 C1506 1.391 . S
H1508 C1516 0.950 . S
H1509 C1521 0.950 1_545 S
H1510 C1518 0.950 . S
H1511 C1520 0.950 . S
H1512 C1522 0.950 . S
H1513 C1524 0.950 . S
H1514 C1526 0.950 . S
H1515 C1527 0.950 . S
C1516 H1508 0.950 . S
C1516 C1517 1.386 . S
C1516 C1518 1.391 . S
C1517 C1516 1.386 . S
C1517 C1521 1.393 . S
C1518 H1510 0.950 . S
C1518 C1516 1.391 . S
C1518 C1519 1.400 . S
C1519 C1518 1.400 . S
C1519 C1520 1.398 . S
C1519 C1525 1.491 . S
C1520 H1511 0.950 . S
C1520 C1519 1.398 . S
C1520 C1521 1.391 . S
C1521 H1509 0.950 1_565 S
C1521 C1517 1.393 . S
C1521 C1520 1.391 . S
C1522 H1512 0.950 . S
C1522 C1523 1.386 . S
C1522 C1524 1.391 . S
C1523 C1522 1.386 . S
C1523 C1527 1.393 . S
C1524 H1513 0.950 . S
C1524 C1522 1.391 . S
C1524 C1525 1.400 . S
C1525 C1519 1.491 . S
C1525 C1524 1.400 . S
C1525 C1526 1.398 . S
C1526 H1514 0.950 . S
C1526 C1525 1.398 . S
C1526 C1527 1.391 . S
C1527 H1515 0.950 . S
C1527 C1523 1.393 . S
C1527 C1526 1.391 . S
H1528 C1536 0.950 . S
H1529 C1541 0.950 . S
H1530 C1538 0.950 . S
H1531 C1540 0.950 . S
H1532 C1542 0.950 1_565 S
H1533 C1544 0.950 . S
H1534 C1546 0.950 . S
H1535 C1547 0.950 . S
C1536 H1528 0.950 . S
C1536 C1537 1.386 . S
C1536 C1538 1.391 . S
C1537 C1536 1.386 . S
C1537 C1541 1.393 . S
C1538 H1530 0.950 . S
C1538 C1536 1.391 . S
C1538 C1539 1.400 . S
C1539 C1538 1.400 . S
C1539 C1540 1.398 . S
C1539 C1545 1.491 . S
C1540 H1531 0.950 . S
C1540 C1539 1.398 . S
C1540 C1541 1.391 . S
C1541 H1529 0.950 . S
C1541 C1537 1.393 . S
C1541 C1540 1.391 . S
C1542 H1532 0.950 1_545 S
C1542 C1543 1.386 . S
C1542 C1544 1.391 . S
C1543 C1542 1.386 . S
C1543 C1547 1.393 . S
C1544 H1533 0.950 . S
C1544 C1542 1.391 . S
C1544 C1545 1.400 . S
C1545 C1539 1.491 . S
C1545 C1544 1.400 . S
C1545 C1546 1.398 . S
C1546 H1534 0.950 . S
C1546 C1545 1.398 . S
C1546 C1547 1.391 . S
C1547 H1535 0.950 . S
C1547 C1543 1.393 . S
C1547 C1546 1.391 . S
H1548 C1556 0.950 . S
H1549 C1561 0.950 . S
H1550 C1558 0.950 . S
H1551 C1560 0.950 . S
H1552 C1562 0.950 . S
H1553 C1564 0.950 . S
H1554 C1566 0.950 . S
H1555 C1567 0.950 . S
C1556 H1548 0.950 . S
C1556 C1557 1.386 . S
C1556 C1558 1.391 . S
C1557 C1556 1.386 . S
C1557 C1561 1.393 . S
C1558 H1550 0.950 . S
C1558 C1556 1.391 . S
C1558 C1559 1.400 . S
C1559 C1558 1.400 . S
C1559 C1560 1.398 . S
C1559 C1565 1.491 . S
C1560 H1551 0.950 . S
C1560 C1559 1.398 . S
C1560 C1561 1.391 . S
C1561 H1549 0.950 . S
C1561 C1557 1.393 . S
C1561 C1560 1.391 . S
C1562 H1552 0.950 . S
C1562 C1563 1.386 . S
C1562 C1564 1.391 . S
C1563 C1562 1.386 . S
C1563 C1567 1.393 . S
C1564 H1553 0.950 . S
C1564 C1562 1.391 . S
C1564 C1565 1.400 . S
C1565 C1559 1.491 . S
C1565 C1564 1.400 . S
C1565 C1566 1.398 . S
C1566 H1554 0.950 . S
C1566 C1565 1.398 . S
C1566 C1567 1.391 . S
C1567 H1555 0.950 . S
C1567 C1563 1.393 . S
C1567 C1566 1.391 . S
H1568 C1576 0.950 . S
H1569 C1581 0.950 . S
H1570 C1578 0.950 . S
H1571 C1580 0.950 . S
H1572 C1582 0.950 . S
H1573 C1584 0.950 . S
H1574 C1586 0.950 . S
H1575 C1587 0.950 . S
C1576 H1568 0.950 . S
C1576 C1577 1.386 . S
C1576 C1578 1.391 . S
C1577 C1576 1.386 . S
C1577 C1581 1.393 . S
C1578 H1570 0.950 . S
C1578 C1576 1.391 . S
C1578 C1579 1.400 . S
C1579 C1578 1.400 . S
C1579 C1580 1.398 . S
C1579 C1585 1.491 . S
C1580 H1571 0.950 . S
C1580 C1579 1.398 . S
C1580 C1581 1.391 . S
C1581 H1569 0.950 . S
C1581 C1577 1.393 . S
C1581 C1580 1.391 . S
C1582 H1572 0.950 . S
C1582 C1583 1.386 . S
C1582 C1584 1.391 . S
C1583 C1582 1.386 . S
C1583 C1587 1.393 . S
C1584 H1573 0.950 . S
C1584 C1582 1.391 . S
C1584 C1585 1.400 . S
C1585 C1579 1.491 . S
C1585 C1584 1.400 . S
C1585 C1586 1.398 . S
C1586 H1574 0.950 . S
C1586 C1585 1.398 . S
C1586 C1587 1.391 . S
C1587 H1575 0.950 . S
C1587 C1583 1.393 . S
C1587 C1586 1.391 . S
H1588 C1596 0.950 . S
H1589 C1601 0.950 . S
H1590 C1598 0.950 . S
H1591 C1600 0.950 . S
H1592 C1602 0.950 . S
H1593 C1604 0.950 . S
H1594 C1606 0.950 . S
H1595 C1607 0.950 . S
C1596 H1588 0.950 . S
C1596 C1597 1.386 . S
C1596 C1598 1.391 . S
C1597 C1596 1.386 . S
C1597 C1601 1.393 . S
C1598 H1590 0.950 . S
C1598 C1596 1.391 . S
C1598 C1599 1.400 . S
C1599 C1598 1.400 . S
C1599 C1600 1.398 . S
C1599 C1605 1.491 . S
C1600 H1591 0.950 . S
C1600 C1599 1.398 . S
C1600 C1601 1.391 . S
C1601 H1589 0.950 . S
C1601 C1597 1.393 . S
C1601 C1600 1.391 . S
C1602 H1592 0.950 . S
C1602 C1603 1.386 . S
C1602 C1604 1.391 . S
C1603 C1602 1.386 . S
C1603 C1607 1.393 . S
C1604 H1593 0.950 . S
C1604 C1602 1.391 . S
C1604 C1605 1.400 . S
C1605 C1599 1.491 . S
C1605 C1604 1.400 . S
C1605 C1606 1.398 . S
C1606 H1594 0.950 . S
C1606 C1605 1.398 . S
C1606 C1607 1.391 . S
C1607 H1595 0.950 . S
C1607 C1603 1.393 . S
C1607 C1606 1.391 . S
H1608 C1616 0.950 . S
H1609 C1621 0.950 . S
H1610 C1618 0.950 . S
H1611 C1620 0.950 . S
H1612 C1622 0.950 . S
H1613 C1624 0.950 . S
H1614 C1626 0.950 . S
H1615 C1627 0.950 . S
C1616 H1608 0.950 . S
C1616 C1617 1.386 . S
C1616 C1618 1.391 . S
C1617 C1616 1.386 . S
C1617 C1621 1.393 . S
C1618 H1610 0.950 . S
C1618 C1616 1.391 . S
C1618 C1619 1.400 . S
C1619 C1618 1.400 . S
C1619 C1620 1.398 . S
C1619 C1625 1.491 . S
C1620 H1611 0.950 . S
C1620 C1619 1.398 . S
C1620 C1621 1.391 . S
C1621 H1609 0.950 . S
C1621 C1617 1.393 . S
C1621 C1620 1.391 . S
C1622 H1612 0.950 . S
C1622 C1623 1.386 . S
C1622 C1624 1.391 . S
C1623 C1622 1.386 . S
C1623 C1627 1.393 . S
C1624 H1613 0.950 . S
C1624 C1622 1.391 . S
C1624 C1625 1.400 . S
C1625 C1619 1.491 . S
C1625 C1624 1.400 . S
C1625 C1626 1.398 . S
C1626 H1614 0.950 . S
C1626 C1625 1.398 . S
C1626 C1627 1.391 . S
C1627 H1615 0.950 . S
C1627 C1623 1.393 . S
C1627 C1626 1.391 . S
H1628 C1636 0.950 . S
H1629 C1641 0.950 . S
H1630 C1638 0.950 . S
H1631 C1640 0.950 . S
H1632 C1642 0.950 . S
H1633 C1644 0.950 . S
H1634 C1646 0.950 . S
H1635 C1647 0.950 . S
C1636 H1628 0.950 . S
C1636 C1637 1.386 . S
C1636 C1638 1.391 . S
C1637 C1636 1.386 . S
C1637 C1641 1.393 . S
C1638 H1630 0.950 . S
C1638 C1636 1.391 . S
C1638 C1639 1.400 . S
C1639 C1638 1.400 . S
C1639 C1640 1.398 . S
C1639 C1645 1.491 . S
C1640 H1631 0.950 . S
C1640 C1639 1.398 . S
C1640 C1641 1.391 . S
C1641 H1629 0.950 . S
C1641 C1637 1.393 . S
C1641 C1640 1.391 . S
C1642 H1632 0.950 . S
C1642 C1643 1.386 . S
C1642 C1644 1.391 . S
C1643 C1642 1.386 . S
C1643 C1647 1.393 . S
C1644 H1633 0.950 . S
C1644 C1642 1.391 . S
C1644 C1645 1.400 . S
C1645 C1639 1.491 . S
C1645 C1644 1.400 . S
C1645 C1646 1.398 . S
C1646 H1634 0.950 . S
C1646 C1645 1.398 . S
C1646 C1647 1.391 . S
C1647 H1635 0.950 . S
C1647 C1643 1.393 . S
C1647 C1646 1.391 . S
H1648 C1656 0.950 . S
H1649 C1661 0.950 . S
H1650 C1658 0.950 . S
H1651 C1660 0.950 . S
H1652 C1662 0.950 . S
H1653 C1664 0.950 . S
H1654 C1666 0.950 . S
H1655 C1667 0.950 . S
C1656 H1648 0.950 . S
C1656 C1657 1.386 . S
C1656 C1658 1.391 . S
C1657 C1656 1.386 . S
C1657 C1661 1.393 . S
C1658 H1650 0.950 . S
C1658 C1656 1.391 . S
C1658 C1659 1.400 . S
C1659 C1658 1.400 . S
C1659 C1660 1.398 . S
C1659 C1665 1.491 . S
C1660 H1651 0.950 . S
C1660 C1659 1.398 . S
C1660 C1661 1.391 . S
C1661 H1649 0.950 . S
C1661 C1657 1.393 . S
C1661 C1660 1.391 . S
C1662 H1652 0.950 . S
C1662 C1663 1.386 . S
C1662 C1664 1.391 . S
C1663 C1662 1.386 . S
C1663 C1667 1.393 . S
C1664 H1653 0.950 . S
C1664 C1662 1.391 . S
C1664 C1665 1.400 . S
C1665 C1659 1.491 . S
C1665 C1664 1.400 . S
C1665 C1666 1.398 . S
C1666 H1654 0.950 . S
C1666 C1665 1.398 . S
C1666 C1667 1.391 . S
C1667 H1655 0.950 . S
C1667 C1663 1.393 . S
C1667 C1666 1.391 . S
H1668 C1676 0.950 . S
H1669 C1681 0.950 . S
H1670 C1678 0.950 . S
H1671 C1680 0.950 . S
H1672 C1682 0.950 . S
H1673 C1684 0.950 . S
H1674 C1686 0.950 . S
H1675 C1687 0.950 . S
C1676 H1668 0.950 . S
C1676 C1677 1.386 . S
C1676 C1678 1.391 . S
C1677 C1676 1.386 . S
C1677 C1681 1.393 . S
C1678 H1670 0.950 . S
C1678 C1676 1.391 . S
C1678 C1679 1.400 . S
C1679 C1678 1.400 . S
C1679 C1680 1.398 . S
C1679 C1685 1.491 . S
C1680 H1671 0.950 . S
C1680 C1679 1.398 . S
C1680 C1681 1.391 . S
C1681 H1669 0.950 . S
C1681 C1677 1.393 . S
C1681 C1680 1.391 . S
C1682 H1672 0.950 . S
C1682 C1683 1.386 . S
C1682 C1684 1.391 . S
C1683 C1682 1.386 . S
C1683 C1687 1.393 . S
C1684 H1673 0.950 . S
C1684 C1682 1.391 . S
C1684 C1685 1.400 . S
C1685 C1679 1.491 . S
C1685 C1684 1.400 . S
C1685 C1686 1.398 . S
C1686 H1674 0.950 . S
C1686 C1685 1.398 . S
C1686 C1687 1.391 . S
C1687 H1675 0.950 . S
C1687 C1683 1.393 . S
C1687 C1686 1.391 . S
H1688 C1696 0.950 . S
H1689 C1701 0.950 . S
H1690 C1698 0.950 . S
H1691 C1700 0.950 . S
H1692 C1702 0.950 . S
H1693 C1704 0.950 . S
H1694 C1706 0.950 . S
H1695 C1707 0.950 . S
C1696 H1688 0.950 . S
C1696 C1697 1.386 . S
C1696 C1698 1.391 . S
C1697 C1696 1.386 . S
C1697 C1701 1.393 . S
C1698 H1690 0.950 . S
C1698 C1696 1.391 . S
C1698 C1699 1.400 . S
C1699 C1698 1.400 . S
C1699 C1700 1.398 . S
C1699 C1705 1.491 . S
C1700 H1691 0.950 . S
C1700 C1699 1.398 . S
C1700 C1701 1.391 . S
C1701 H1689 0.950 . S
C1701 C1697 1.393 . S
C1701 C1700 1.391 . S
C1702 H1692 0.950 . S
C1702 C1703 1.386 . S
C1702 C1704 1.391 . S
C1703 C1702 1.386 . S
C1703 C1707 1.393 . S
C1704 H1693 0.950 . S
C1704 C1702 1.391 . S
C1704 C1705 1.400 . S
C1705 C1699 1.491 . S
C1705 C1704 1.400 . S
C1705 C1706 1.398 . S
C1706 H1694 0.950 . S
C1706 C1705 1.398 . S
C1706 C1707 1.391 . S
C1707 H1695 0.950 . S
C1707 C1703 1.393 . S
C1707 C1706 1.391 . S
H1708 C1716 0.950 . S
H1709 C1721 0.950 . S
H1710 C1718 0.950 . S
H1711 C1720 0.950 . S
H1712 C1722 0.950 . S
H1713 C1724 0.950 . S
H1714 C1726 0.950 . S
H1715 C1727 0.950 . S
C1716 H1708 0.950 . S
C1716 C1717 1.386 . S
C1716 C1718 1.391 . S
C1717 C1716 1.386 . S
C1717 C1721 1.393 . S
C1718 H1710 0.950 . S
C1718 C1716 1.391 . S
C1718 C1719 1.400 . S
C1719 C1718 1.400 . S
C1719 C1720 1.398 . S
C1719 C1725 1.491 . S
C1720 H1711 0.950 . S
C1720 C1719 1.398 . S
C1720 C1721 1.391 . S
C1721 H1709 0.950 . S
C1721 C1717 1.393 . S
C1721 C1720 1.391 . S
C1722 H1712 0.950 . S
C1722 C1723 1.386 . S
C1722 C1724 1.391 . S
C1723 C1722 1.386 . S
C1723 C1727 1.393 . S
C1724 H1713 0.950 . S
C1724 C1722 1.391 . S
C1724 C1725 1.400 . S
C1725 C1719 1.491 . S
C1725 C1724 1.400 . S
C1725 C1726 1.398 . S
C1726 H1714 0.950 . S
C1726 C1725 1.398 . S
C1726 C1727 1.391 . S
C1727 H1715 0.950 . S
C1727 C1723 1.393 . S
C1727 C1726 1.391 . S
C457 C386 1.541 . S
C463 C9 1.552 . S
C477 C23 1.549 1_655 S
C483 C121 1.544 . S
C497 C358 1.544 . S
C503 C37 1.548 . S
C517 C51 1.554 . S
C523 C149 1.548 . S
C537 C65 1.557 . S
C543 C414 1.542 . S
C557 C79 1.546 . S
C563 C205 1.546 . S
C577 C93 1.556 . S
C583 C442 1.540 . S
C597 C107 1.553 1_655 S
C603 C177 1.548 . S
C617 C274 1.548 . S
C623 C120 1.545 . S
C637 C8 1.554 . S
C643 C135 1.541 1_455 S
C657 C246 1.541 . S
C663 C148 1.557 . S
C677 C163 1.546 . S
C683 C36 1.546 . S
C697 C302 1.556 . S
C703 C176 1.542 . S
C717 C92 1.556 . S
C723 C191 1.543 . S
C737 C204 1.551 . S
C743 C330 1.542 . S
C757 C64 1.555 . S
C763 C219 1.545 1_455 S
C777 C233 1.544 . S
C783 C162 1.556 . S
C797 C247 1.541 . S
C803 C345 1.556 . S
C817 C134 1.541 . S
C823 C261 1.557 . S
C837 C373 1.556 . S
C843 C275 1.542 1_455 S
C857 C190 1.554 . S
C863 C289 1.541 . S
C877 C429 1.549 . S
C883 C303 1.552 1_455 S
C897 C218 1.541 . S
C903 C317 1.557 . S
C917 C331 1.550 . S
C923 C401 1.552 . S
C937 C50 1.540 . S
C943 C344 1.556 . S
C957 C359 1.541 . S
C963 C232 1.555 . S
C977 C372 1.556 . S
C983 C22 1.544 . S
C997 C387 1.546 1_655 S
C1003 C260 1.555 . S
C1017 C400 1.554 . S
C1023 C78 1.540 . S
C1037 C415 1.543 1_655 S
C1043 C316 1.556 . S
C1057 C428 1.555 . S
C1063 C106 1.546 . S
C1077 C443 1.546 . S
C1083 C288 1.547 . S
C1097 C342 1.487 . S
C1103 C7 1.487 . S
C1117 C21 1.469 . S
C1123 C133 1.469 . S
C1137 C370 1.486 . S
C1143 C35 1.486 . S
C1157 C49 1.487 . S
C1163 C161 1.487 . S
C1177 C398 1.487 . S
C1183 C63 1.487 . S
C1197 C77 1.469 . S
C1203 C189 1.469 . S
C1217 C426 1.470 . S
C1223 C91 1.470 . S
C1237 C105 1.486 . S
C1243 C217 1.486 . S
C1257 C118 1.477 . S
C1263 C231 1.477 . S
C1277 C146 1.486 . S
C1283 C259 1.486 . S
C1297 C174 1.481 . S
C1303 C287 1.481 . S
C1317 C202 1.474 . S
C1323 C315 1.474 . S
C1337 C245 1.470 . S
C1343 C357 1.470 . S
C1357 C385 1.477 . S
C1363 C273 1.477 . S
C1377 C413 1.481 . S
C1383 C301 1.481 . S
C1397 C329 1.469 . S
C1403 C441 1.469 . S
C1417 C6 1.404 . S
C1423 C76 1.401 1_545 S
C1437 C20 1.402 1_545 S
C1443 C90 1.405 . S
C1457 C34 1.393 . S
C1463 C104 1.389 1_565 S
C1477 C62 1.405 . S
C1483 C48 1.405 1_565 S
C1497 C119 1.387 . S
C1503 C188 1.389 1_565 S
C1517 C132 1.404 1_565 S
C1523 C203 1.402 . S
C1537 C147 1.404 . S
C1543 C216 1.405 1_545 S
C1557 C160 1.397 1_545 S
C1563 C175 1.393 . S
C1577 C230 1.401 . S
C1583 C300 1.404 . S
C1597 C314 1.400 . S
C1603 C244 1.403 . S
C1617 C258 1.398 . S
C1623 C328 1.402 . S
C1637 C272 1.399 . S
C1643 C286 1.403 . S
C1657 C412 1.397 . S
C1663 C343 1.401 . S
C1677 C356 1.404 . S
C1683 C427 1.405 . S
C1697 C440 1.388 . S
C1703 C371 1.387 . S
C1717 C384 1.387 . S
C1723 C399 1.389 . S
