# Generated by pormake.
# Topology msp, (4)-cn, num edge types: 1
# Building blocks:
#     Node 0, Type 0, BuildingBlock: ICAMEG_clean_sbu_1, # of connection points: 4
#     Node 1, Type 0, BuildingBlock: ICAMEG_clean_sbu_1, # of connection points: 4
#     Node 2, Type 0, BuildingBlock: ICAMEG_clean_sbu_1, # of connection points: 4
#     Node 3, Type 0, BuildingBlock: ICAMEG_clean_sbu_1, # of connection points: 4
#     Node 4, Type 0, BuildingBlock: ICAMEG_clean_sbu_1, # of connection points: 4
#     Node 5, Type 0, BuildingBlock: ICAMEG_clean_sbu_1, # of connection points: 4
#     Node 6, Type 0, BuildingBlock: ICAMEG_clean_sbu_1, # of connection points: 4
#     Node 7, Type 0, BuildingBlock: ICAMEG_clean_sbu_1, # of connection points: 4
#     Edge 8, Type (0, 0), BuildingBlock: KIFKEQ_clean_linker_1, # of connection points: 2
#     Edge 9, Type (0, 0), BuildingBlock: KIFKEQ_clean_linker_1, # of connection points: 2
#     Edge 10, Type (0, 0), BuildingBlock: KIFKEQ_clean_linker_1, # of connection points: 2
#     Edge 11, Type (0, 0), BuildingBlock: KIFKEQ_clean_linker_1, # of connection points: 2
#     Edge 12, Type (0, 0), BuildingBlock: KIFKEQ_clean_linker_1, # of connection points: 2
#     Edge 13, Type (0, 0), BuildingBlock: KIFKEQ_clean_linker_1, # of connection points: 2
#     Edge 14, Type (0, 0), BuildingBlock: KIFKEQ_clean_linker_1, # of connection points: 2
#     Edge 15, Type (0, 0), BuildingBlock: KIFKEQ_clean_linker_1, # of connection points: 2
#     Edge 16, Type (0, 0), BuildingBlock: KIFKEQ_clean_linker_1, # of connection points: 2
#     Edge 17, Type (0, 0), BuildingBlock: KIFKEQ_clean_linker_1, # of connection points: 2
#     Edge 18, Type (0, 0), BuildingBlock: KIFKEQ_clean_linker_1, # of connection points: 2
#     Edge 19, Type (0, 0), BuildingBlock: KIFKEQ_clean_linker_1, # of connection points: 2
#     Edge 20, Type (0, 0), BuildingBlock: KIFKEQ_clean_linker_1, # of connection points: 2
#     Edge 21, Type (0, 0), BuildingBlock: KIFKEQ_clean_linker_1, # of connection points: 2
#     Edge 22, Type (0, 0), BuildingBlock: KIFKEQ_clean_linker_1, # of connection points: 2
#     Edge 23, Type (0, 0), BuildingBlock: KIFKEQ_clean_linker_1, # of connection points: 2
# Relax obj value: 0.052
# Max RMSD: 0.148
# Mean RMSD: 0.148
data_MOF--net-msp--node1-ICAMEG_clean_sbu_1--edge1-KIFKEQ_clean_linker_1
_symmetry_space_group_name_H-M    P1
_symmetry_Int_Tables_number       1
_symmetry_cell_setting            triclinic
loop_
_symmetry_equiv_pos_as_xyz
'x, y, z'
_cell_length_a     27.18598
_cell_length_b     19.255641
_cell_length_c     44.706652
_cell_angle_alpha  90.000709
_cell_angle_beta   103.89644
_cell_angle_gamma 89.992478
loop_
_atom_site_label
_atom_site_type_symbol
_atom_site_fract_x
_atom_site_fract_y
_atom_site_fract_z
_atom_type_partial_charge
Co0 Co 0.06909 0.39046 0.35254 0.0
Co1 Co 0.01026 0.24054 0.36898 0.0
O2 O 0.02751 0.30785 0.34046 0.0
C3 C 0.12514 0.3079 0.31634 0.0
O4 O 0.11386 0.2538 0.33123 0.0
C5 C 0.91131 0.28958 0.33174 0.0
O6 O 0.92791 0.35337 0.33758 0.0
O7 O 0.99305 0.31595 0.3955 0.0
O8 O 0.03163 0.41318 0.3847 0.0
H9 H 0.01305 0.13813 0.47281 0.0
H10 H 0.01907 0.3684 0.28664 0.0
O11 O 0.10899 0.36797 0.32129 0.0
H12 H 0.95112 0.59025 0.31452 0.0
H13 H 0.16327 0.60328 0.33189 0.0
H14 H 0.11783 0.45791 0.41203 0.0
H15 H 0.01358 0.5238 0.35314 0.0
H16 H 0.10968 0.49938 0.31764 0.0
O17 O 0.93897 0.23839 0.34338 0.0
H18 H 0.03545 0.22297 0.43696 0.0
H19 H 0.94597 0.11323 0.36062 0.0
H20 H 0.17111 0.56166 0.42728 0.0
H21 H 0.95701 0.43342 0.24721 0.0
H22 H 0.19423 0.63511 0.38706 0.0
H23 H 0.92271 0.54529 0.26106 0.0
O24 O 0.11936 0.3381 0.38409 0.0
H25 H 0.00835 0.11889 0.26929 0.0
H26 H 0.07453 0.11342 0.38206 0.0
H27 H 0.09967 0.0217 0.35019 0.0
H28 H 0.06667 0.02417 0.29338 0.0
H29 H 0.98493 0.21012 0.30192 0.0
H30 H 0.9223 0.02746 0.39568 0.0
H31 H 0.95606 0.03949 0.45222 0.0
O32 O 0.08085 0.24123 0.39486 0.0
C33 C 0.00558 0.3798 0.40024 0.0
C34 C -0.00185 0.13226 0.44822 0.0
C35 C 0.94716 0.07021 0.40493 0.0
N36 N 0.99216 0.173 0.39672 0.0
C37 C 0.01077 0.18008 0.4278 0.0
C38 C 0.96058 0.11907 0.3852 0.0
C39 C 0.96614 0.07696 0.43665 0.0
C40 C 0.00448 0.41721 0.29277 0.0
N41 N 0.02015 0.44254 0.32206 0.0
C42 C 0.96924 0.45369 0.27039 0.0
C43 C 0.94994 0.5164 0.27819 0.0
C44 C 0.96587 0.54165 0.30819 0.0
C45 C 0.00113 0.50372 0.32997 0.0
C46 C 0.15338 0.57176 0.34962 0.0
C47 C 0.12739 0.48989 0.39437 0.0
C48 C 0.12313 0.5128 0.3417 0.0
N49 N 0.11035 0.47289 0.36397 0.0
C50 C 0.15772 0.54846 0.40316 0.0
C51 C 0.17072 0.58961 0.38058 0.0
C52 C 0.11888 0.28184 0.39906 0.0
C53 C 0.02306 0.1172 0.294 0.0
C54 C 0.06005 0.1149 0.35734 0.0
C55 C 0.07433 0.06274 0.33942 0.0
C56 C 0.05572 0.06409 0.30754 0.0
N57 N 0.0281 0.16692 0.34389 0.0
C58 C 0.00966 0.16853 0.31264 0.0
Co59 Co 0.42 0.37724 0.64629 0.0
Co60 Co 0.49215 0.2464 0.62551 0.0
O61 O 0.46861 0.30135 0.65605 0.0
C62 C 0.37105 0.28181 0.68174 0.0
O63 O 0.38045 0.23223 0.66373 0.0
C64 C 0.58492 0.30016 0.66754 0.0
O65 O 0.56282 0.36123 0.66478 0.0
O66 O 0.5062 0.33163 0.60344 0.0
O67 O 0.4515 0.41145 0.61297 0.0
H68 H 0.50354 0.17799 0.51888 0.0
H69 H 0.47648 0.35633 0.71116 0.0
O70 O 0.38615 0.34355 0.67881 0.0
H71 H 0.52227 0.59165 0.68375 0.0
H72 H 0.31132 0.56789 0.67315 0.0
H73 H 0.3594 0.44098 0.58866 0.0
H74 H 0.46273 0.51971 0.64587 0.0
H75 H 0.37474 0.47384 0.68441 0.0
O76 O 0.56245 0.24837 0.65255 0.0
H77 H 0.47311 0.24703 0.55729 0.0
H78 H 0.56407 0.12787 0.62983 0.0
H79 H 0.29615 0.53496 0.57637 0.0
H80 H 0.53583 0.42673 0.74985 0.0
H81 H 0.27167 0.59911 0.6188 0.0
H82 H 0.55916 0.54522 0.73619 0.0
O83 O 0.37308 0.31991 0.6151 0.0
H84 H 0.49562 0.09683 0.71819 0.0
H85 H 0.43723 0.11407 0.60512 0.0
H86 H 0.41667 0.0095 0.6316 0.0
H87 H 0.44602 1.0004 0.68855 0.0
H88 H 0.51503 0.20067 0.69082 0.0
H89 H 0.5958 0.05788 0.5922 0.0
H90 H 0.56531 0.0826 0.53627 0.0
O91 O 0.42257 0.24345 0.59799 0.0
C92 C 0.48385 0.3904 0.59847 0.0
C93 C 0.51698 0.16656 0.54318 0.0
C94 C 0.56881 0.09922 0.58433 0.0
N95 N 0.51651 0.19115 0.59575 0.0
C96 C 0.49978 0.20536 0.56504 0.0
C97 C 0.5508 0.13912 0.60554 0.0
C98 C 0.55168 0.1131 0.55295 0.0
C99 C 0.48613 0.4081 0.70516 0.0
N100 N 0.46599 0.43405 0.67637 0.0
C101 C 0.51989 0.4476 0.72711 0.0
C102 C 0.53303 0.51405 0.71941 0.0
C103 C 0.51238 0.5401 0.68998 0.0
C104 C 0.47879 0.49908 0.66861 0.0
C105 C 0.32181 0.5405 0.65447 0.0
C106 C 0.34935 0.4691 0.60726 0.0
C107 C 0.35767 0.48717 0.6607 0.0
N108 N 0.3712 0.4525 0.63721 0.0
C109 C 0.31334 0.52209 0.60015 0.0
C110 C 0.29958 0.558 0.62396 0.0
C111 C 0.3799 0.27246 0.5966 0.0
C112 C 0.48278 0.1001 0.69336 0.0
C113 C 0.45007 0.11053 0.6299 0.0
C114 C 0.43838 0.05114 0.64477 0.0
C115 C 0.45488 0.04604 0.67672 0.0
N116 N 0.47759 0.16325 0.64638 0.0
C117 C 0.49383 0.15865 0.67771 0.0
Co118 Co 0.92079 0.61249 0.64881 0.0
Co119 Co 0.9893 0.75088 0.63093 0.0
O120 O 0.96791 0.68969 0.66023 0.0
C121 C 0.87297 0.69952 0.68799 0.0
O122 O 0.88438 0.75293 0.67271 0.0
C123 C 0.08548 0.69793 0.67013 0.0
O124 O 0.06751 0.63483 0.6641 0.0
O125 O 0.00514 0.67014 0.60663 0.0
O126 O 0.95239 0.58578 0.6145 0.0
H127 H -0.00284 0.83634 0.52595 0.0
H128 H 0.97865 0.62776 0.71362 0.0
O129 O 0.8866 0.63859 0.68227 0.0
H130 H 0.02923 0.40031 0.68002 0.0
H131 H 0.81785 0.41043 0.67136 0.0
H132 H 0.8608 0.55388 0.58984 0.0
H133 H 0.96631 0.47297 0.64456 0.0
H134 H 0.87886 0.50697 0.68469 0.0
O135 O 0.05967 0.75014 0.65783 0.0
H136 H 0.96932 0.75932 0.56277 0.0
H137 H 0.0579 0.87367 0.63791 0.0
H138 H 0.79994 0.45755 0.57547 0.0
H139 H 0.04164 0.55689 0.74982 0.0
H140 H 0.77806 0.38508 0.6164 0.0
H141 H 0.06739 0.44225 0.73307 0.0
O142 O 0.87199 0.67156 0.61947 0.0
H143 H 0.99085 0.88667 0.72725 0.0
H144 H 0.93037 0.88176 0.61405 0.0
H145 H 0.90748 0.98046 0.64319 0.0
H146 H 0.93782 0.98332 0.70021 0.0
H147 H 0.01241 0.78863 0.69727 0.0
H148 H 0.08699 0.95164 0.60188 0.0
H149 H 0.05641 0.93336 0.54546 0.0
O150 O 0.91944 0.75301 0.60374 0.0
C151 C 0.98402 0.6108 0.60037 0.0
C152 C 0.01063 0.84497 0.55048 0.0
C153 C 0.0611 0.90963 0.5931 0.0
N154 N 0.01167 0.8123 0.60245 0.0
C155 C 0.9949 0.80163 0.57145 0.0
C156 C 0.04458 0.86522 0.61339 0.0
C157 C 0.04392 0.89935 0.56144 0.0
C158 C 0.98936 0.57769 0.70627 0.0
N159 N 0.96865 0.55431 0.67711 0.0
C160 C 0.02515 0.53785 0.72683 0.0
C161 C 0.03964 0.47363 0.71739 0.0
C162 C 0.01827 0.4501 0.68761 0.0
C163 C 0.98273 0.49148 0.66763 0.0
C164 C 0.8272 0.44149 0.65332 0.0
C165 C 0.85183 0.5222 0.60777 0.0
C166 C 0.86167 0.49626 0.66072 0.0
N167 N 0.87377 0.53557 0.63805 0.0
C168 C 0.81719 0.46787 0.5995 0.0
C169 C 0.80489 0.42729 0.62247 0.0
C170 C 0.87744 0.72188 0.602 0.0
C171 C 0.97752 0.88609 0.70241 0.0
C172 C 0.94363 0.88255 0.63886 0.0
C173 C 0.93064 0.93865 0.65524 0.0
C174 C 0.94771 0.94027 0.68723 0.0
N175 N 0.97293 0.82961 0.65391 0.0
C176 C 0.98981 0.83087 0.68528 0.0
Co177 Co 0.56616 0.63215 0.35445 0.0
Co178 Co 0.50883 0.78089 0.37334 0.0
O179 O 0.52621 0.71646 0.34383 0.0
C180 C 0.6268 0.71726 0.32209 0.0
O181 O 0.61798 0.76874 0.33931 0.0
C182 C 0.41031 0.73451 0.33488 0.0
O183 O 0.42692 0.6706 0.34024 0.0
O184 O 0.49044 0.70322 0.3983 0.0
O185 O 0.52731 0.60641 0.38553 0.0
H186 H 0.51019 0.87394 0.47861 0.0
H187 H 0.51834 0.66204 0.28883 0.0
O188 O 0.60731 0.65774 0.3242 0.0
H189 H 0.44557 0.43874 0.31096 0.0
H190 H 0.65812 0.42072 0.32997 0.0
H191 H 0.61231 0.55742 0.41256 0.0
H192 H 0.50838 0.49982 0.35145 0.0
H193 H 0.60636 0.52686 0.31766 0.0
O194 O 0.43781 0.78531 0.34721 0.0
H195 H 0.53268 0.7922 0.44158 0.0
H196 H 0.44549 0.9089 0.36677 0.0
H197 H 0.66375 0.45137 0.42586 0.0
H198 H 0.45601 0.6024 0.24755 0.0
H199 H 0.68704 0.38225 0.3844 0.0
H200 H 0.41923 0.4899 0.25852 0.0
O201 O 0.61622 0.68022 0.38773 0.0
H202 H 0.5092 0.91218 0.27625 0.0
H203 H 0.57416 0.90646 0.38913 0.0
H204 H 0.59993 1.00172 0.35926 0.0
H205 H 0.56729 0.00506 0.30238 0.0
H206 H 0.48512 0.8174 0.3069 0.0
H207 H 0.42173 0.99164 0.40302 0.0
H208 H 0.45432 0.97455 0.45939 0.0
O209 O 0.57913 0.77729 0.39976 0.0
C210 C 0.50183 0.63875 0.40174 0.0
C211 C 0.49582 0.88203 0.4541 0.0
C212 C 0.44612 0.94802 0.41168 0.0
N213 N 0.49058 0.84588 0.40204 0.0
C214 C 0.50851 0.83598 0.43301 0.0
C215 C 0.45958 0.90088 0.39127 0.0
C216 C 0.46444 0.93843 0.4433 0.0
C217 C 0.5027 0.61289 0.2937 0.0
N218 N 0.5172 0.58418 0.32242 0.0
C219 C 0.46731 0.57949 0.27028 0.0
C220 C 0.44663 0.51641 0.27646 0.0
C221 C 0.46139 0.48768 0.30588 0.0
C222 C 0.49686 0.52257 0.32873 0.0
C223 C 0.64814 0.45033 0.34823 0.0
C224 C 0.62195 0.52737 0.39436 0.0
C225 C 0.61893 0.51053 0.34141 0.0
N226 N 0.60603 0.54803 0.36435 0.0
C227 C 0.65124 0.46746 0.40205 0.0
C228 C 0.66434 0.42875 0.37878 0.0
C229 C 0.61625 0.73502 0.40378 0.0
C230 C 0.52367 0.91139 0.301 0.0
C231 C 0.55997 0.90743 0.36439 0.0
C232 C 0.5746 0.96157 0.3476 0.0
C233 C 0.55626 0.96345 0.31569 0.0
N234 N 0.52789 0.85666 0.34981 0.0
C235 C 0.50993 0.85801 0.31852 0.0
Co236 Co 0.57453 0.86144 0.85836 0.0
Co237 Co 0.50352 0.72304 0.87401 0.0
O238 O 0.52833 0.78368 0.84583 0.0
C239 C 0.62983 0.77144 0.82443 0.0
O240 O 0.61885 0.72012 0.84103 0.0
C241 C 0.41176 0.77812 0.83119 0.0
O242 O 0.43315 0.83963 0.83528 0.0
O243 O 0.48674 0.80392 0.89774 0.0
O244 O 0.53764 0.89083 0.88995 0.0
H245 H 0.48633 0.63715 0.9772 0.0
H246 H 0.52523 0.84266 0.79212 0.0
O247 O 0.6135 0.83245 0.82754 0.0
H248 H 0.46975 0.07301 0.81941 0.0
H249 H 0.68234 0.06108 0.839 0.0
H250 H 0.62656 0.92454 0.91818 0.0
H251 H 0.52738 1.00128 0.85841 0.0
H252 H 0.62269 0.96348 0.82412 0.0
O253 O 0.4342 0.72572 0.8457 0.0
H254 H 0.51826 0.71372 0.94187 0.0
H255 H 0.43329 0.60183 0.86478 0.0
H256 H 0.68592 0.02204 0.93406 0.0
H257 H 0.46796 0.91294 0.7523 0.0
H258 H 0.71422 0.09105 0.89432 0.0
H259 H 0.43986 0.02899 0.76587 0.0
O260 O 0.62031 0.80417 0.8903 0.0
H261 H 0.50759 0.58798 0.7784 0.0
H262 H 0.56011 0.59078 0.89194 0.0
H263 H 0.58416 0.49169 0.86346 0.0
H264 H 0.55778 0.48986 0.80627 0.0
H265 H 0.48486 0.68635 0.80774 0.0
H266 H 0.40009 0.52434 0.89925 0.0
H267 H 0.42678 0.5416 0.95591 0.0
O268 O 0.572 0.71927 0.90279 0.0
C269 C 0.50557 0.86472 0.90347 0.0
C270 C 0.47453 0.62895 0.95256 0.0
C271 C 0.42608 0.56571 0.90881 0.0
N272 N 0.47797 0.66197 0.90132 0.0
C273 C 0.49261 0.67203 0.93244 0.0
C274 C 0.44492 0.60985 0.8894 0.0
C275 C 0.44109 0.5754 0.9406 0.0
C276 C 0.51344 0.89334 0.79812 0.0
N277 N 0.52983 0.91803 0.82749 0.0
C278 C 0.48087 0.93277 0.77552 0.0
C279 C 0.46504 0.99784 0.78316 0.0
C280 C 0.48179 0.02255 0.8132 0.0
C281 C 0.51429 0.98164 0.83521 0.0
C282 C 0.67019 0.03151 0.85652 0.0
C283 C 0.6384 0.95464 0.90074 0.0
C284 C 0.63649 0.97613 0.84824 0.0
N285 N 0.62081 0.93877 0.87025 0.0
C286 C 0.67215 0.00965 0.90987 0.0
C287 C 0.68806 0.0483 0.88757 0.0
C288 C 0.61376 0.75215 0.90659 0.0
C289 C 0.51919 0.58809 0.80331 0.0
C290 C 0.54858 0.59041 0.86705 0.0
C291 C 0.56223 0.53411 0.85105 0.0
C292 C 0.5474 0.53309 0.81897 0.0
N293 N 0.52079 0.64408 0.85153 0.0
C294 C 0.50622 0.6435 0.82007 0.0
Co295 Co 0.91268 0.87979 0.14474 0.0
Co296 Co 0.99523 0.75565 0.1304 0.0
O297 O 0.96612 0.81111 0.15853 0.0
C298 C 0.86977 0.78953 0.18541 0.0
O299 O 0.88483 0.73636 0.17152 0.0
C300 C 0.08395 0.8165 0.17434 0.0
O301 O 0.06036 0.87652 0.17063 0.0
O302 O 0.00847 0.8405 0.10784 0.0
O303 O 0.94283 0.90937 0.11014 0.0
H304 H 0.02163 0.68337 0.02737 0.0
H305 H 0.96878 0.87891 0.21029 0.0
O306 O 0.87987 0.8512 0.17845 0.0
H307 H 0.00247 0.10858 0.17065 0.0
H308 H 0.79207 0.06691 0.1606 0.0
H309 H 0.84892 0.92309 0.08402 0.0
H310 H 0.94637 0.0248 0.13702 0.0
H311 H 0.86083 0.9814 0.17711 0.0
O312 O 0.06359 0.7634 0.15941 0.0
H313 H 0.98408 0.75232 0.06275 0.0
H314 H 0.07125 0.64116 0.1394 0.0
H315 H 0.78031 0.0083 0.06648 0.0
H316 H 0.02478 0.96122 0.24477 0.0
H317 H 0.75145 0.08095 0.10491 0.0
H318 H 0.04245 0.07675 0.22487 0.0
O319 O 0.87043 0.81104 0.11688 0.0
H320 H 0.99522 0.61225 0.22441 0.0
H321 H 0.94644 0.61879 0.11081 0.0
H322 H 0.92669 0.51495 0.13806 0.0
H323 H 0.95117 0.51126 0.19527 0.0
H324 H 0.01386 0.71531 0.19626 0.0
H325 H 0.11004 0.57133 0.10487 0.0
H326 H 0.08509 0.59208 0.0484 0.0
O327 O 0.92773 0.74613 0.10076 0.0
C328 C 0.98012 0.89308 0.09881 0.0
C329 C 0.03267 0.67365 0.05192 0.0
C330 C 0.08233 0.61083 0.09542 0.0
N331 N 0.02507 0.70032 0.10307 0.0
C332 C 0.01141 0.71238 0.07206 0.0
C333 C 0.0603 0.65061 0.11486 0.0
C334 C 0.06831 0.62249 0.06374 0.0
C335 C 0.97564 0.9295 0.20163 0.0
N336 N 0.95426 0.94712 0.17173 0.0
C337 C 0.00757 0.97579 0.22121 0.0
C338 C 0.01747 0.04055 0.21003 0.0
C339 C 0.99516 0.05837 0.17957 0.0
C340 C 0.96351 0.01068 0.16062 0.0
C341 C 0.80443 0.03573 0.14363 0.0
C342 C 0.83684 0.95489 0.10086 0.0
C343 C 0.84331 0.98719 0.15284 0.0
N344 N 0.85925 0.94785 0.13152 0.0
C345 C 0.79786 0.00289 0.0908 0.0
C346 C 0.78165 0.04358 0.11238 0.0
C347 C 0.88234 0.766 0.09893 0.0
C348 C 0.98453 0.61317 0.19947 0.0
C349 C 0.95715 0.61763 0.13571 0.0
C350 C 0.94595 0.55863 0.15101 0.0
C351 C 0.95973 0.55655 0.18311 0.0
N352 N 0.98154 0.67295 0.15191 0.0
C353 C 0.9952 0.67125 0.18339 0.0
Co354 Co 0.41523 0.13569 0.14438 0.0
Co355 Co 0.4964 0.25744 0.12655 0.0
O356 O 0.46764 0.20633 0.15604 0.0
C357 C 0.36902 0.23272 0.18074 0.0
O358 O 0.38016 0.28246 0.16339 0.0
C359 C 0.58498 0.20187 0.17206 0.0
O360 O 0.56175 0.1416 0.16934 0.0
O361 O 0.51047 0.16954 0.10639 0.0
O362 O 0.44601 0.10047 0.11086 0.0
H363 H 0.52296 0.31512 0.02192 0.0
H364 H 0.47072 0.14711 0.20996 0.0
O365 O 0.38217 0.17032 0.17711 0.0
H366 H 0.50672 0.91112 0.17799 0.0
H367 H 0.29637 0.95259 0.16623 0.0
H368 H 0.35238 0.08215 0.08518 0.0
H369 H 0.45075 0.98988 0.14147 0.0
H370 H 0.36407 0.04052 0.17993 0.0
O371 O 0.56459 0.2534 0.15593 0.0
H372 H 0.48576 0.25131 0.05897 0.0
H373 H 0.57148 0.37255 0.13262 0.0
H374 H 0.28483 0.99439 0.07045 0.0
H375 H 0.52648 0.06975 0.24734 0.0
H376 H 0.2564 0.92889 0.11113 0.0
H377 H 0.5452 0.9511 0.23129 0.0
O378 O 0.37239 0.19941 0.11405 0.0
H379 H 0.49379 0.41355 0.21631 0.0
H380 H 0.44671 0.39152 0.10308 0.0
H381 H 0.4257 0.49908 0.12732 0.0
H382 H 0.44934 0.51059 0.18434 0.0
H383 H 0.51375 0.30671 0.19115 0.0
H384 H 0.60992 0.43736 0.0964 0.0
H385 H 0.58551 0.40896 0.04058 0.0
O386 O 0.42901 0.26291 0.09659 0.0
C387 C 0.48287 0.11559 0.09891 0.0
C388 C 0.53375 0.32819 0.04616 0.0
C389 C 0.5826 0.39672 0.08797 0.0
N390 N 0.52602 0.30868 0.09787 0.0
C391 C 0.51268 0.29238 0.06724 0.0
C392 C 0.56077 0.35978 0.10838 0.0
C393 C 0.56888 0.38077 0.05666 0.0
C394 C 0.47812 0.09517 0.20297 0.0
N395 N 0.4574 0.07294 0.17362 0.0
C396 C 0.50991 0.05174 0.22418 0.0
C397 C 0.52041 0.98517 0.21516 0.0
C398 C 0.49892 0.96276 0.18523 0.0
C399 C 0.46737 0.00765 0.16463 0.0
C400 C 0.30857 0.9806 0.14829 0.0
C401 C 0.34053 0.05344 0.10302 0.0
C402 C 0.34686 0.03045 0.15591 0.0
N403 N 0.36262 0.06576 0.13337 0.0
C404 C 0.30213 0.00399 0.09453 0.0
C405 C 0.28615 0.96732 0.11737 0.0
C406 C 0.38392 0.24208 0.09501 0.0
C407 C 0.48347 0.40924 0.19144 0.0
C408 C 0.45708 0.39611 0.12791 0.0
C409 C 0.44516 0.45719 0.1415 0.0
C410 C 0.45845 0.46364 0.17349 0.0
N411 N 0.48175 0.34304 0.14567 0.0
C412 C 0.49486 0.34899 0.17705 0.0
Co413 Co 0.07503 0.12422 0.85536 0.0
Co414 Co 0.00571 0.26636 0.86888 0.0
O415 O 0.02931 0.20206 0.84153 0.0
C416 C 0.12829 0.20836 0.81815 0.0
O417 O 0.11554 0.26246 0.83248 0.0
C418 C 0.91123 0.21376 0.82752 0.0
O419 O 0.92825 0.15041 0.83419 0.0
O420 O 0.98679 0.18813 0.89331 0.0
O421 O 0.03847 0.10015 0.88778 0.0
H422 H 0.98906 0.36097 0.97079 0.0
H423 H 0.02436 0.13723 0.78908 0.0
O424 O 0.11383 0.1478 0.82377 0.0
H425 H 0.96794 0.91198 0.82139 0.0
H426 H 0.18024 0.91847 0.83957 0.0
H427 H 0.1274 0.06663 0.91626 0.0
H428 H 0.02689 0.98609 0.85859 0.0
H429 H 0.12131 0.0162 0.82295 0.0
O430 O 0.93694 0.26572 0.84014 0.0
H431 H 0.01975 0.28005 0.93656 0.0
H432 H 0.93835 0.39066 0.85799 0.0
H433 H 0.18605 0.96913 0.93388 0.0
H434 H 0.96574 0.0645 0.75104 0.0
H435 H 0.21287 0.89429 0.8954 0.0
H436 H 0.93717 0.95097 0.76713 0.0
O437 O 0.12205 0.18358 0.88571 0.0
H438 H 0.01442 0.39433 0.77228 0.0
H439 H 0.06548 0.39642 0.88585 0.0
H440 H 0.09284 0.49165 0.85668 0.0
H441 H 0.06742 0.49091 0.79951 0.0
H442 H 0.9885 0.29968 0.8023 0.0
H443 H 0.90647 0.47253 0.89137 0.0
H444 H 0.93199 0.4581 0.94821 0.0
O445 O 0.07382 0.26871 0.89795 0.0
C446 C 0.00582 0.12784 0.9004 0.0
C447 C 0.97778 0.36793 0.94607 0.0
C448 C 0.93137 0.43047 0.90148 0.0
N449 N 0.98114 0.33084 0.89533 0.0
C450 C 0.99514 0.32236 0.92656 0.0
C451 C 0.94945 0.38385 0.8827 0.0
C452 C 0.94572 0.42237 0.93338 0.0
C453 C 0.01232 0.08768 0.79619 0.0
N454 N 0.02923 0.06572 0.82595 0.0
C455 C 0.97901 0.04684 0.77458 0.0
C456 C 0.96293 0.98319 0.78364 0.0
C457 C 0.98017 0.9613 0.81409 0.0
C458 C 0.01342 0.00356 0.83507 0.0
C459 C 0.16874 0.95061 0.85655 0.0
C460 C 0.1386 0.03398 0.89937 0.0
C461 C 0.13545 0.00608 0.84729 0.0
N462 N 0.12061 0.04669 0.86861 0.0
C463 C 0.17194 0.97898 0.90949 0.0
C464 C 0.18702 0.93706 0.88789 0.0
C465 C 0.11565 0.23612 0.90172 0.0
C466 C 0.02572 0.3953 0.79719 0.0
C467 C 0.05428 0.39568 0.86096 0.0
C468 C 0.0698 0.44983 0.84457 0.0
C469 C 0.05545 0.44944 0.81247 0.0
N470 N 0.0252 0.34267 0.84581 0.0
C471 C 0.01091 0.34201 0.81433 0.0
H472 H 0.0122 0.51869 0.41465 0.0
H473 H 0.97831 0.31932 0.44924 0.0
H474 H 0.00803 0.57255 0.46324 0.0
H475 H 0.97723 0.37191 0.49825 0.0
H476 H 0.93473 0.49361 0.57461 0.0
H477 H 0.9355 0.44115 0.52571 0.0
H478 H 0.05182 0.58529 0.51463 0.0
H479 H 0.04847 0.64122 0.56303 0.0
C480 C 0.0035 0.48634 0.43253 0.0
C481 C 0.99542 0.41456 0.42785 0.0
C482 C 0.0019 0.5171 0.46068 0.0
C483 C 0.99296 0.47679 0.48514 0.0
C484 C 0.98354 0.40528 0.48006 0.0
C485 C 0.98424 0.37481 0.45177 0.0
C486 C 0.96081 0.51416 0.56197 0.0
C487 C 0.99137 0.57217 0.57291 0.0
C488 C 0.96146 0.48352 0.53375 0.0
C489 C 0.99349 0.50885 0.51576 0.0
C490 C 0.02566 0.56515 0.52731 0.0
C491 C 0.02435 0.59671 0.55539 0.0
H492 H 0.50898 0.499 0.41427 0.0
H493 H 0.47297 0.69478 0.4512 0.0
H494 H 0.50539 0.44159 0.46219 0.0
H495 H 0.47212 0.63845 0.49954 0.0
H496 H 0.43186 0.50746 0.57456 0.0
H497 H 0.43138 0.56458 0.52632 0.0
H498 H 0.55106 0.42842 0.51338 0.0
H499 H 0.54932 0.36817 0.56103 0.0
C500 C 0.49986 0.5298 0.43249 0.0
C501 C 0.49124 0.60168 0.42872 0.0
C502 C 0.49858 0.49699 0.46025 0.0
C503 C 0.4893 0.53526 0.48519 0.0
C504 C 0.47891 0.60673 0.48095 0.0
C505 C 0.47944 0.6393 0.45305 0.0
C506 C 0.45846 0.48979 0.56166 0.0
C507 C 0.49045 0.43266 0.57181 0.0
C508 C 0.45832 0.52302 0.53384 0.0
C509 C 0.49081 0.50105 0.5155 0.0
C510 C 0.52448 0.44587 0.52634 0.0
C511 C 0.52407 0.41185 0.55401 0.0
H512 H 0.55701 0.12523 0.06653 0.0
H513 H 0.42196 0.01041 0.07011 0.0
H514 H 0.56033 0.06473 0.01917 0.0
H515 H 0.42338 0.95357 0.02214 0.0
H516 H 0.46286 0.81578 0.94897 0.0
H517 H 0.46071 0.87216 0.9971 0.0
H518 H 0.52181 0.05935 0.96657 0.0
H519 H 0.52675 1.00119 0.91908 0.0
C520 C 0.52817 0.0869 0.05736 0.0
C521 C 0.48926 0.07294 0.07232 0.0
C522 C 0.52959 0.05281 0.02986 0.0
C523 C 0.49173 0.00455 0.01632 0.0
C524 C 0.45365 0.98948 0.0318 0.0
C525 C 0.45271 0.02261 0.05947 0.0
C526 C 0.47534 0.86921 0.9523 0.0
C527 C 0.49522 0.90362 0.93006 0.0
C528 C 0.47402 0.90187 0.98005 0.0
C529 C 0.49162 0.97046 0.98618 0.0
C530 C 0.50922 0.00596 0.96324 0.0
C531 C 0.51133 0.97287 0.93568 0.0
H532 H 0.05465 0.87974 0.06689 0.0
H533 H 0.91891 0.99567 0.06792 0.0
H534 H 0.05859 0.93655 0.01879 0.0
H535 H 0.92107 0.04892 0.01931 0.0
H536 H 0.9626 0.18131 0.94489 0.0
H537 H 0.95946 0.12851 0.99366 0.0
H538 H 0.02022 0.93796 0.966 0.0
H539 H 0.02603 0.99235 0.91789 0.0
C540 C 0.02578 0.91749 0.05699 0.0
C541 C 0.98651 0.9329 0.07145 0.0
C542 C 0.02758 0.94947 0.0291 0.0
C543 C 0.98979 0.99702 0.0147 0.0
C544 C 0.95129 0.01347 0.02964 0.0
C545 C 0.94992 0.9824 0.05766 0.0
C546 C 0.97478 0.1279 0.949 0.0
C547 C 0.99483 0.0914 0.9274 0.0
C548 C 0.9729 0.09734 0.97711 0.0
C549 C 0.99016 0.02889 0.98421 0.0
C550 C 0.0079 0.99132 0.9619 0.0
C551 C 0.01052 0.02226 0.93399 0.0
H552 H 0.62893 0.11665 0.22013 0.0
H553 H 0.65005 0.3111 0.17663 0.0
H554 H 0.70612 0.13806 0.26001 0.0
H555 H 0.72786 0.3314 0.2157 0.0
H556 H 0.8375 0.38355 0.30614 0.0
H557 H 0.75802 0.36105 0.26846 0.0
H558 H 0.79579 0.14288 0.26886 0.0
H559 H 0.87405 0.16498 0.30728 0.0
C560 C 0.6504 0.16351 0.21886 0.0
C561 C 0.63337 0.21215 0.19523 0.0
C562 C 0.69473 0.17579 0.24169 0.0
C563 C 0.72322 0.23672 0.24123 0.0
C564 C 0.70643 0.28468 0.21724 0.0
C565 C 0.66197 0.27272 0.19463 0.0
C566 C 0.82861 0.33075 0.29834 0.0
C567 C 0.86208 0.27613 0.30976 0.0
C568 C 0.78321 0.31784 0.27654 0.0
C569 C 0.77049 0.25011 0.26542 0.0
C570 C 0.80385 0.19548 0.27717 0.0
C571 C 0.84895 0.20828 0.29913 0.0
H572 H 0.64835 0.18885 0.67182 0.0
H573 H 0.63225 0.38666 0.71408 0.0
H574 H 0.72736 0.16826 0.71 0.0
H575 H 0.71031 0.36504 0.75302 0.0
H576 H 0.87637 0.33668 0.80034 0.0
H577 H 0.7992 0.35791 0.76099 0.0
H578 H 0.75952 0.14076 0.7628 0.0
H579 H 0.83816 0.11902 0.80145 0.0
C580 C 0.66168 0.22793 0.68933 0.0
C581 C 0.63414 0.28951 0.68987 0.0
C582 C 0.7068 0.21584 0.71141 0.0
C583 C 0.72524 0.26472 0.73479 0.0
C584 C 0.69776 0.32662 0.73513 0.0
C585 C 0.65288 0.33903 0.71283 0.0
C586 C 0.85116 0.29338 0.79242 0.0
C587 C 0.86336 0.2261 0.80412 0.0
C588 C 0.80666 0.30569 0.76991 0.0
C589 C 0.77285 0.2512 0.7587 0.0
C590 C 0.78499 0.18385 0.77052 0.0
C591 C 0.8299 0.17138 0.79286 0.0
H592 H 0.15868 0.60225 0.69479 0.0
H593 H 0.12207 0.8202 0.69728 0.0
H594 H 0.23797 0.6223 0.73308 0.0
H595 H 0.19983 0.83975 0.73638 0.0
H596 H 0.36577 0.86648 0.78503 0.0
H597 H 0.28852 0.84636 0.7452 0.0
H598 H 0.27033 0.64712 0.78587 0.0
H599 H 0.34859 0.66619 0.82485 0.0
C600 C 0.16748 0.65435 0.70358 0.0
C601 C 0.13419 0.7096 0.69288 0.0
C602 C 0.21277 0.66585 0.72573 0.0
C603 C 0.22545 0.73272 0.73798 0.0
C604 C 0.19198 0.78785 0.72716 0.0
C605 C 0.14712 0.77652 0.70479 0.0
C606 C 0.34508 0.81857 0.78553 0.0
C607 C 0.36324 0.768 0.80811 0.0
C608 C 0.30065 0.80702 0.76272 0.0
C609 C 0.273 0.74496 0.76217 0.0
C610 C 0.291 0.69488 0.78511 0.0
C611 C 0.3357 0.70609 0.80767 0.0
H612 H 0.37341 0.85923 0.31002 0.0
H613 H 0.3366 0.64084 0.3093 0.0
H614 H 0.29541 0.88097 0.27112 0.0
H615 H 0.2576 0.6629 0.27127 0.0
H616 H 0.15039 0.7089 0.17944 0.0
H617 H 0.22852 0.69102 0.21848 0.0
H618 H 0.20539 0.88575 0.26128 0.0
H619 H 0.12775 0.90476 0.22134 0.0
C620 C 0.34831 0.81594 0.30186 0.0
C621 C 0.3613 0.74821 0.31271 0.0
C622 C 0.3034 0.82851 0.27962 0.0
C623 C 0.27017 0.77372 0.26785 0.0
C624 C 0.28272 0.70621 0.27929 0.0
C625 C 0.32787 0.69355 0.30131 0.0
C626 C 0.16206 0.74814 0.19709 0.0
C627 C 0.13284 0.80826 0.1973 0.0
C628 C 0.20673 0.73758 0.21968 0.0
C629 C 0.22315 0.78648 0.24333 0.0
C630 C 0.19425 0.84725 0.24328 0.0
C631 C 0.14966 0.85815 0.22042 0.0
H632 H 0.31306 0.3494 0.18365 0.0
H633 H 0.35131 0.14901 0.22634 0.0
H634 H 0.2533 0.36869 0.21555 0.0
H635 H 0.29339 0.16945 0.25929 0.0
H636 H 0.147 0.18854 0.28947 0.0
H637 H 0.2065 0.17277 0.25716 0.0
H638 H 0.24254 0.39182 0.26514 0.0
H639 H 0.18111 0.40785 0.29629 0.0
C640 C 0.30934 0.30995 0.20024 0.0
C641 C 0.33671 0.2475 0.20233 0.0
C642 C 0.27514 0.3211 0.21867 0.0
C643 C 0.26795 0.27042 0.23992 0.0
C644 C 0.29681 0.20898 0.24269 0.0
C645 C 0.33047 0.19747 0.22399 0.0
C646 C 0.16746 0.23337 0.28416 0.0
C647 C 0.15942 0.2994 0.29544 0.0
C648 C 0.20199 0.22428 0.26584 0.0
C649 C 0.22999 0.28084 0.25872 0.0
C650 C 0.22136 0.34714 0.26976 0.0
C651 C 0.18621 0.35638 0.28772 0.0
H652 H 0.31418 0.16612 0.68468 0.0
H653 H 0.35392 0.36628 0.7273 0.0
H654 H 0.25461 0.14778 0.71676 0.0
H655 H 0.29601 0.3468 0.76037 0.0
H656 H 0.1495 0.32795 0.79101 0.0
H657 H 0.20869 0.34375 0.75843 0.0
H658 H 0.24562 0.12502 0.76686 0.0
H659 H 0.18475 0.10894 0.7983 0.0
C660 C 0.31079 0.20576 0.70126 0.0
C661 C 0.3386 0.26781 0.70332 0.0
C662 C 0.2767 0.19514 0.71979 0.0
C663 C 0.27003 0.246 0.74109 0.0
C664 C 0.29914 0.30715 0.74376 0.0
C665 C 0.33277 0.31809 0.72499 0.0
C666 C 0.1701 0.28322 0.78574 0.0
C667 C 0.16247 0.21724 0.79722 0.0
C668 C 0.20442 0.29232 0.76727 0.0
C669 C 0.23248 0.23581 0.76016 0.0
C670 C 0.22432 0.16963 0.77145 0.0
C671 C 0.18949 0.16039 0.78959 0.0
H672 H 0.68896 0.65785 0.82243 0.0
H673 H 0.64925 0.85845 0.78028 0.0
H674 H 0.74981 0.64096 0.79116 0.0
H675 H 0.70843 0.84033 0.74784 0.0
H676 H 0.85313 0.81996 0.71522 0.0
H677 H 0.79518 0.83669 0.74861 0.0
H678 H 0.75825 0.61787 0.74136 0.0
H679 H 0.81787 0.60093 0.70929 0.0
C680 C 0.69272 0.69798 0.80615 0.0
C681 C 0.66431 0.75953 0.80387 0.0
C682 C 0.72754 0.68818 0.78806 0.0
C683 C 0.73434 0.73929 0.7669 0.0
C684 C 0.70513 0.80039 0.76429 0.0
C685 C 0.67078 0.81057 0.78269 0.0
C686 C 0.83287 0.77542 0.72101 0.0
C687 C 0.84011 0.70915 0.70966 0.0
C688 C 0.79926 0.78505 0.73994 0.0
C689 C 0.77154 0.72877 0.74761 0.0
C690 C 0.77938 0.66234 0.73644 0.0
C691 C 0.81351 0.65258 0.71791 0.0
H692 H 0.8124 0.88606 0.20602 0.0
H693 H 0.85163 0.66824 0.21301 0.0
H694 H 0.75331 0.86773 0.2382 0.0
H695 H 0.79377 0.65017 0.24647 0.0
H696 H 0.68705 0.82938 0.32005 0.0
H697 H 0.74781 0.84516 0.28875 0.0
H698 H 0.70621 0.64525 0.2461 0.0
H699 H 0.64672 0.62824 0.27856 0.0
C700 C 0.809 0.83435 0.21485 0.0
C701 C 0.83675 0.77859 0.20694 0.0
C702 C 0.77515 0.82382 0.23347 0.0
C703 C 0.7686 0.75742 0.24506 0.0
C704 C 0.79709 0.70179 0.23756 0.0
C705 C 0.8306 0.71221 0.21858 0.0
C706 C 0.69073 0.78877 0.30395 0.0
C707 C 0.66195 0.72757 0.30178 0.0
C708 C 0.7255 0.79798 0.28583 0.0
C709 C 0.73202 0.74661 0.26473 0.0
C710 C 0.70289 0.68549 0.26241 0.0
C711 C 0.66841 0.67595 0.28083 0.0
H712 H 0.28848 0.33824 0.57938 0.0
H713 H 0.37622 0.17197 0.55253 0.0
H714 H 0.2276 0.3297 0.52979 0.0
H715 H 0.31402 0.16321 0.50297 0.0
H716 H 0.13815 0.16282 0.43371 0.0
H717 H 0.20121 0.1482 0.48265 0.0
H718 H 0.25938 0.35317 0.47304 0.0
H719 H 0.19763 0.36803 0.4241 0.0
C720 C 0.29429 0.2988 0.56331 0.0
C721 C 0.33777 0.25659 0.56978 0.0
C722 C 0.25946 0.29419 0.53492 0.0
C723 C 0.26691 0.24652 0.51275 0.0
C724 C 0.30792 0.20044 0.51988 0.0
C725 C 0.34333 0.20561 0.5482 0.0
C726 C 0.16512 0.20419 0.44166 0.0
C727 C 0.16246 0.26697 0.42514 0.0
C728 C 0.20102 0.19565 0.4696 0.0
C729 C 0.23419 0.25002 0.48146 0.0
C730 C 0.2336 0.31094 0.46424 0.0
C731 C 0.19837 0.31917 0.43619 0.0
H732 H 0.78843 0.65112 0.5826 0.0
H733 H 0.86981 0.83061 0.56142 0.0
H734 H 0.72686 0.66419 0.53349 0.0
H735 H 0.80695 0.84389 0.51238 0.0
H736 H 0.63632 0.84909 0.44169 0.0
H737 H 0.69857 0.85669 0.49133 0.0
H738 H 0.75382 0.65242 0.47702 0.0
H739 H 0.69299 0.64464 0.42743 0.0
C740 C 0.79267 0.69428 0.5679 0.0
C741 C 0.83461 0.73911 0.57577 0.0
C742 C 0.75747 0.70148 0.53976 0.0
C743 C 0.76295 0.75434 0.51925 0.0
C744 C 0.80233 0.80263 0.52795 0.0
C745 C 0.83815 0.79488 0.55598 0.0
C746 C 0.66245 0.80638 0.44881 0.0
C747 C 0.65928 0.74591 0.4307 0.0
C748 C 0.69787 0.81086 0.47718 0.0
C749 C 0.72998 0.75463 0.48792 0.0
C750 C 0.72876 0.69597 0.4692 0.0
C751 C 0.69409 0.69183 0.44075 0.0
H752 H 0.77964 0.78033 0.08986 0.0
H753 H 0.89476 0.69707 0.0478 0.0
H754 H 0.71558 0.75806 0.04234 0.0
H755 H 0.83059 0.67613 0.00028 0.0
H756 H 0.60842 0.67282 0.95645 0.0
H757 H 0.67401 0.65838 0.00398 0.0
H758 H 0.77918 0.77259 0.96417 0.0
H759 H 0.71358 0.78845 0.91678 0.0
C760 C 0.79116 0.75609 0.07075 0.0
C761 C 0.84241 0.74135 0.07251 0.0
C762 C 0.75445 0.74305 0.04363 0.0
C763 C 0.76844 0.71587 0.01773 0.0
C764 C 0.81908 0.69749 0.01997 0.0
C765 C 0.8557 0.70945 0.04722 0.0
C766 C 0.64573 0.69386 0.95756 0.0
C767 C 0.65559 0.73271 0.93298 0.0
C768 C 0.68314 0.6856 0.9848 0.0
C769 C 0.73133 0.71465 0.98765 0.0
C770 C 0.7423 0.74932 0.9624 0.0
C771 C 0.70468 0.75868 0.93536 0.0
H772 H 0.39632 0.30283 0.04208 0.0
H773 H 0.28133 0.22674 0.086 0.0
H774 H 0.33233 0.31728 0.99392 0.0
H775 H 0.2174 0.24262 0.0378 0.0
H776 H 0.11086 0.3212 0.94989 0.0
H777 H 0.17634 0.33915 0.99713 0.0
H778 H 0.28068 0.21617 0.96022 0.0
H779 H 0.21511 0.1967 0.91309 0.0
C780 C 0.35731 0.29063 0.04172 0.0
C781 C 0.34401 0.2627 0.0678 0.0
C782 C 0.32082 0.29883 0.01411 0.0
C783 C 0.27027 0.28068 0.01227 0.0
C784 C 0.25623 0.25734 0.03879 0.0
C785 C 0.29284 0.24799 0.0663 0.0
C786 C 0.14794 0.29881 0.95155 0.0
C787 C 0.15756 0.25664 0.92787 0.0
C788 C 0.18529 0.30912 0.97863 0.0
C789 C 0.2332 0.27877 0.98221 0.0
C790 C 0.24398 0.24045 0.95784 0.0
C791 C 0.20639 0.22907 0.93096 0.0
loop_
_geom_bond_atom_site_label_1
_geom_bond_atom_site_label_2
_geom_bond_distance
_geom_bond_site_symmetry_2
_ccdc_geom_bond_type
Co0 O2 2.143 . S
Co0 O8 2.074 . S
Co0 O11 2.093 . S
Co0 O24 2.097 . S
Co0 N41 2.151 . S
Co0 N49 2.214 . S
Co1 O2 2.160 . S
Co1 O7 2.058 1_455 S
Co1 O17 2.057 1_455 S
Co1 O32 2.037 . S
Co1 N36 2.145 1_455 S
Co1 N57 2.257 . S
O2 Co0 2.143 . S
O2 Co1 2.160 . S
C3 O4 1.278 . S
C3 O11 1.224 . S
O4 C3 1.278 . S
C5 O6 1.245 . S
C5 O17 1.232 . S
O6 C5 1.245 . S
O7 Co1 2.058 1_655 S
O7 C33 1.269 1_655 S
O8 Co0 2.074 . S
O8 C33 1.257 . S
H9 C34 0.930 . S
H10 C40 0.930 . S
O11 Co0 2.093 . S
O11 C3 1.224 . S
H12 C44 0.929 . S
H13 C46 0.930 . S
H14 C47 0.930 . S
H15 C45 0.929 . S
H16 C48 0.928 . S
O17 Co1 2.057 1_655 S
O17 C5 1.232 . S
H18 C37 0.929 1_455 S
H19 C38 0.929 . S
H20 C50 0.931 . S
H21 C42 0.929 . S
H22 C51 0.930 . S
H23 C43 0.931 . S
O24 Co0 2.097 . S
O24 C52 1.214 . S
H25 C53 0.929 . S
H26 C54 0.929 . S
H27 C55 0.930 . S
H28 C56 0.929 . S
H29 C58 0.930 . S
H30 C35 0.930 . S
H31 C39 0.930 . S
O32 Co1 2.037 . S
O32 C52 1.234 . S
C33 O7 1.269 1_455 S
C33 O8 1.257 . S
C34 H9 0.930 . S
C34 C37 1.388 . S
C34 C39 1.418 . S
C35 H30 0.930 . S
C35 C38 1.404 . S
C35 C39 1.353 . S
N36 Co1 2.145 1_655 S
N36 C37 1.397 . S
N36 C38 1.334 . S
C37 H18 0.929 1_655 S
C37 C34 1.388 . S
C37 N36 1.397 . S
C38 H19 0.929 . S
C38 C35 1.404 . S
C38 N36 1.334 . S
C39 H31 0.930 . S
C39 C34 1.418 . S
C39 C35 1.353 . S
C40 H10 0.930 . S
C40 N41 1.330 . S
C40 C42 1.446 . S
N41 Co0 2.151 . S
N41 C40 1.330 . S
N41 C45 1.418 . S
C42 H21 0.929 . S
C42 C40 1.446 . S
C42 C43 1.332 . S
C43 H23 0.931 . S
C43 C42 1.332 . S
C43 C44 1.267 . S
C44 H12 0.929 . S
C44 C43 1.267 . S
C44 C45 1.251 . S
C45 H15 0.929 . S
C45 N41 1.418 . S
C45 C44 1.251 . S
C46 H13 0.930 . S
C46 C48 1.406 . S
C46 C51 1.261 . S
C47 H14 0.930 . S
C47 N49 1.325 . S
C47 C50 1.357 . S
C48 H16 0.928 . S
C48 C46 1.406 . S
C48 N49 1.261 . S
N49 Co0 2.214 . S
N49 C47 1.325 . S
N49 C48 1.261 . S
C50 H20 0.931 . S
C50 C47 1.357 . S
C50 C51 1.312 . S
C51 H22 0.930 . S
C51 C46 1.261 . S
C51 C50 1.312 . S
C52 O24 1.214 . S
C52 O32 1.234 . S
C53 H25 0.929 . S
C53 C56 1.391 1_545 S
C53 C58 1.391 . S
C54 H26 0.929 . S
C54 C55 1.390 1_545 S
C54 N57 1.391 . S
C55 H27 0.930 . S
C55 C54 1.390 1_565 S
C55 C56 1.392 . S
C56 H28 0.929 . S
C56 C53 1.391 1_565 S
C56 C55 1.392 . S
N57 Co1 2.257 . S
N57 C54 1.391 . S
N57 C58 1.388 . S
C58 H29 0.930 . S
C58 C53 1.391 . S
C58 N57 1.388 . S
Co59 O61 2.143 . S
Co59 O67 2.074 . S
Co59 O70 2.093 . S
Co59 O83 2.097 . S
Co59 N100 2.151 . S
Co59 N108 2.214 . S
Co60 O61 2.160 . S
Co60 O66 2.058 . S
Co60 O76 2.057 . S
Co60 O91 2.037 . S
Co60 N95 2.145 . S
Co60 N116 2.257 . S
O61 Co59 2.143 . S
O61 Co60 2.160 . S
C62 O63 1.278 . S
C62 O70 1.224 . S
O63 C62 1.278 . S
C64 O65 1.245 . S
C64 O76 1.232 . S
O65 C64 1.245 . S
O66 Co60 2.058 . S
O66 C92 1.269 . S
O67 Co59 2.074 . S
O67 C92 1.257 . S
H68 C93 0.930 . S
H69 C99 0.930 . S
O70 Co59 2.093 . S
O70 C62 1.224 . S
H71 C103 0.929 . S
H72 C105 0.930 . S
H73 C106 0.930 . S
H74 C104 0.929 . S
H75 C107 0.928 . S
O76 Co60 2.057 . S
O76 C64 1.232 . S
H77 C96 0.929 . S
H78 C97 0.929 . S
H79 C109 0.931 . S
H80 C101 0.929 . S
H81 C110 0.930 . S
H82 C102 0.931 . S
O83 Co59 2.097 . S
O83 C111 1.214 . S
H84 C112 0.929 . S
H85 C113 0.929 . S
H86 C114 0.930 . S
H87 C115 0.929 . S
H88 C117 0.930 . S
H89 C94 0.930 . S
H90 C98 0.930 . S
O91 Co60 2.037 . S
O91 C111 1.234 . S
C92 O66 1.269 . S
C92 O67 1.257 . S
C93 H68 0.930 . S
C93 C96 1.388 . S
C93 C98 1.418 . S
C94 H89 0.930 . S
C94 C97 1.404 . S
C94 C98 1.353 . S
N95 Co60 2.145 . S
N95 C96 1.397 . S
N95 C97 1.334 . S
C96 H77 0.929 . S
C96 C93 1.388 . S
C96 N95 1.397 . S
C97 H78 0.929 . S
C97 C94 1.404 . S
C97 N95 1.334 . S
C98 H90 0.930 . S
C98 C93 1.418 . S
C98 C94 1.353 . S
C99 H69 0.930 . S
C99 N100 1.330 . S
C99 C101 1.446 . S
N100 Co59 2.151 . S
N100 C99 1.330 . S
N100 C104 1.418 . S
C101 H80 0.929 . S
C101 C99 1.446 . S
C101 C102 1.332 . S
C102 H82 0.931 . S
C102 C101 1.332 . S
C102 C103 1.267 . S
C103 H71 0.929 . S
C103 C102 1.267 . S
C103 C104 1.251 . S
C104 H74 0.929 . S
C104 N100 1.418 . S
C104 C103 1.251 . S
C105 H72 0.930 . S
C105 C107 1.406 . S
C105 C110 1.261 . S
C106 H73 0.930 . S
C106 N108 1.325 . S
C106 C109 1.357 . S
C107 H75 0.928 . S
C107 C105 1.406 . S
C107 N108 1.261 . S
N108 Co59 2.214 . S
N108 C106 1.325 . S
N108 C107 1.261 . S
C109 H79 0.931 . S
C109 C106 1.357 . S
C109 C110 1.312 . S
C110 H81 0.930 . S
C110 C105 1.261 . S
C110 C109 1.312 . S
C111 O83 1.214 . S
C111 O91 1.234 . S
C112 H84 0.929 . S
C112 C115 1.391 1_545 S
C112 C117 1.391 . S
C113 H85 0.929 . S
C113 C114 1.390 1_545 S
C113 N116 1.391 . S
C114 H86 0.930 . S
C114 C113 1.390 1_565 S
C114 C115 1.392 . S
C115 H87 0.929 . S
C115 C112 1.391 1_565 S
C115 C114 1.392 . S
N116 Co60 2.257 . S
N116 C113 1.391 . S
N116 C117 1.388 . S
C117 H88 0.930 . S
C117 C112 1.391 . S
C117 N116 1.388 . S
Co118 O120 2.143 . S
Co118 O126 2.074 . S
Co118 O129 2.093 . S
Co118 O142 2.097 . S
Co118 N159 2.151 . S
Co118 N167 2.214 . S
Co119 O120 2.160 . S
Co119 O125 2.058 1_655 S
Co119 O135 2.057 1_655 S
Co119 O150 2.037 . S
Co119 N154 2.145 1_655 S
Co119 N175 2.257 . S
O120 Co118 2.143 . S
O120 Co119 2.160 . S
C121 O122 1.278 . S
C121 O129 1.224 . S
O122 C121 1.278 . S
C123 O124 1.245 . S
C123 O135 1.232 . S
O124 C123 1.245 . S
O125 Co119 2.058 1_455 S
O125 C151 1.269 1_455 S
O126 Co118 2.074 . S
O126 C151 1.257 . S
H127 C152 0.930 . S
H128 C158 0.930 . S
O129 Co118 2.093 . S
O129 C121 1.224 . S
H130 C162 0.929 . S
H131 C164 0.930 . S
H132 C165 0.930 . S
H133 C163 0.929 . S
H134 C166 0.928 . S
O135 Co119 2.057 1_455 S
O135 C123 1.232 . S
H136 C155 0.929 1_655 S
H137 C156 0.929 . S
H138 C168 0.931 . S
H139 C160 0.929 . S
H140 C169 0.930 . S
H141 C161 0.931 . S
O142 Co118 2.097 . S
O142 C170 1.214 . S
H143 C171 0.929 . S
H144 C172 0.929 . S
H145 C173 0.930 . S
H146 C174 0.929 . S
H147 C176 0.930 . S
H148 C153 0.930 . S
H149 C157 0.930 . S
O150 Co119 2.037 . S
O150 C170 1.234 . S
C151 O125 1.269 1_655 S
C151 O126 1.257 . S
C152 H127 0.930 . S
C152 C155 1.388 . S
C152 C157 1.418 . S
C153 H148 0.930 . S
C153 C156 1.404 . S
C153 C157 1.353 . S
N154 Co119 2.145 1_455 S
N154 C155 1.397 . S
N154 C156 1.334 . S
C155 H136 0.929 1_455 S
C155 C152 1.388 . S
C155 N154 1.397 . S
C156 H137 0.929 . S
C156 C153 1.404 . S
C156 N154 1.334 . S
C157 H149 0.930 . S
C157 C152 1.418 . S
C157 C153 1.353 . S
C158 H128 0.930 . S
C158 N159 1.330 . S
C158 C160 1.446 . S
N159 Co118 2.151 . S
N159 C158 1.330 . S
N159 C163 1.418 . S
C160 H139 0.929 . S
C160 C158 1.446 . S
C160 C161 1.332 . S
C161 H141 0.931 . S
C161 C160 1.332 . S
C161 C162 1.267 . S
C162 H130 0.929 . S
C162 C161 1.267 . S
C162 C163 1.251 . S
C163 H133 0.929 . S
C163 N159 1.418 . S
C163 C162 1.251 . S
C164 H131 0.930 . S
C164 C166 1.406 . S
C164 C169 1.261 . S
C165 H132 0.930 . S
C165 N167 1.325 . S
C165 C168 1.357 . S
C166 H134 0.928 . S
C166 C164 1.406 . S
C166 N167 1.261 . S
N167 Co118 2.214 . S
N167 C165 1.325 . S
N167 C166 1.261 . S
C168 H138 0.931 . S
C168 C165 1.357 . S
C168 C169 1.312 . S
C169 H140 0.930 . S
C169 C164 1.261 . S
C169 C168 1.312 . S
C170 O142 1.214 . S
C170 O150 1.234 . S
C171 H143 0.929 . S
C171 C174 1.391 1_565 S
C171 C176 1.391 . S
C172 H144 0.929 . S
C172 C173 1.390 1_565 S
C172 N175 1.391 . S
C173 H145 0.930 . S
C173 C172 1.390 1_545 S
C173 C174 1.392 . S
C174 H146 0.929 . S
C174 C171 1.391 1_545 S
C174 C173 1.392 . S
N175 Co119 2.257 . S
N175 C172 1.391 . S
N175 C176 1.388 . S
C176 H147 0.930 . S
C176 C171 1.391 . S
C176 N175 1.388 . S
Co177 O179 2.143 . S
Co177 O185 2.074 . S
Co177 O188 2.093 . S
Co177 O201 2.097 . S
Co177 N218 2.151 . S
Co177 N226 2.214 . S
Co178 O179 2.160 . S
Co178 O184 2.058 . S
Co178 O194 2.057 . S
Co178 O209 2.037 . S
Co178 N213 2.145 . S
Co178 N234 2.257 . S
O179 Co177 2.143 . S
O179 Co178 2.160 . S
C180 O181 1.278 . S
C180 O188 1.224 . S
O181 C180 1.278 . S
C182 O183 1.245 . S
C182 O194 1.232 . S
O183 C182 1.245 . S
O184 Co178 2.058 . S
O184 C210 1.269 . S
O185 Co177 2.074 . S
O185 C210 1.257 . S
H186 C211 0.930 . S
H187 C217 0.930 . S
O188 Co177 2.093 . S
O188 C180 1.224 . S
H189 C221 0.929 . S
H190 C223 0.930 . S
H191 C224 0.930 . S
H192 C222 0.929 . S
H193 C225 0.928 . S
O194 Co178 2.057 . S
O194 C182 1.232 . S
H195 C214 0.929 . S
H196 C215 0.929 . S
H197 C227 0.931 . S
H198 C219 0.929 . S
H199 C228 0.930 . S
H200 C220 0.931 . S
O201 Co177 2.097 . S
O201 C229 1.214 . S
H202 C230 0.929 . S
H203 C231 0.929 . S
H204 C232 0.930 . S
H205 C233 0.929 . S
H206 C235 0.930 . S
H207 C212 0.930 . S
H208 C216 0.930 . S
O209 Co178 2.037 . S
O209 C229 1.234 . S
C210 O184 1.269 . S
C210 O185 1.257 . S
C211 H186 0.930 . S
C211 C214 1.388 . S
C211 C216 1.418 . S
C212 H207 0.930 . S
C212 C215 1.404 . S
C212 C216 1.353 . S
N213 Co178 2.145 . S
N213 C214 1.397 . S
N213 C215 1.334 . S
C214 H195 0.929 . S
C214 C211 1.388 . S
C214 N213 1.397 . S
C215 H196 0.929 . S
C215 C212 1.404 . S
C215 N213 1.334 . S
C216 H208 0.930 . S
C216 C211 1.418 . S
C216 C212 1.353 . S
C217 H187 0.930 . S
C217 N218 1.330 . S
C217 C219 1.446 . S
N218 Co177 2.151 . S
N218 C217 1.330 . S
N218 C222 1.418 . S
C219 H198 0.929 . S
C219 C217 1.446 . S
C219 C220 1.332 . S
C220 H200 0.931 . S
C220 C219 1.332 . S
C220 C221 1.267 . S
C221 H189 0.929 . S
C221 C220 1.267 . S
C221 C222 1.251 . S
C222 H192 0.929 . S
C222 N218 1.418 . S
C222 C221 1.251 . S
C223 H190 0.930 . S
C223 C225 1.406 . S
C223 C228 1.261 . S
C224 H191 0.930 . S
C224 N226 1.325 . S
C224 C227 1.357 . S
C225 H193 0.928 . S
C225 C223 1.406 . S
C225 N226 1.261 . S
N226 Co177 2.214 . S
N226 C224 1.325 . S
N226 C225 1.261 . S
C227 H197 0.931 . S
C227 C224 1.357 . S
C227 C228 1.312 . S
C228 H199 0.930 . S
C228 C223 1.261 . S
C228 C227 1.312 . S
C229 O201 1.214 . S
C229 O209 1.234 . S
C230 H202 0.929 . S
C230 C233 1.391 1_565 S
C230 C235 1.391 . S
C231 H203 0.929 . S
C231 C232 1.390 1_565 S
C231 N234 1.391 . S
C232 H204 0.930 . S
C232 C231 1.390 1_545 S
C232 C233 1.392 . S
C233 H205 0.929 . S
C233 C230 1.391 1_545 S
C233 C232 1.392 . S
N234 Co178 2.257 . S
N234 C231 1.391 . S
N234 C235 1.388 . S
C235 H206 0.930 . S
C235 C230 1.391 . S
C235 N234 1.388 . S
Co236 O238 2.143 . S
Co236 O244 2.074 . S
Co236 O247 2.093 . S
Co236 O260 2.097 . S
Co236 N277 2.151 . S
Co236 N285 2.214 . S
Co237 O238 2.160 . S
Co237 O243 2.058 . S
Co237 O253 2.057 . S
Co237 O268 2.037 . S
Co237 N272 2.145 . S
Co237 N293 2.257 . S
O238 Co236 2.143 . S
O238 Co237 2.160 . S
C239 O240 1.278 . S
C239 O247 1.224 . S
O240 C239 1.278 . S
C241 O242 1.245 . S
C241 O253 1.232 . S
O242 C241 1.245 . S
O243 Co237 2.058 . S
O243 C269 1.269 . S
O244 Co236 2.074 . S
O244 C269 1.257 . S
H245 C270 0.930 . S
H246 C276 0.930 . S
O247 Co236 2.093 . S
O247 C239 1.224 . S
H248 C280 0.929 . S
H249 C282 0.930 1_545 S
H250 C283 0.930 . S
H251 C281 0.929 . S
H252 C284 0.928 . S
O253 Co237 2.057 . S
O253 C241 1.232 . S
H254 C273 0.929 . S
H255 C274 0.929 . S
H256 C286 0.931 . S
H257 C278 0.929 . S
H258 C287 0.930 1_545 S
H259 C279 0.931 . S
O260 Co236 2.097 . S
O260 C288 1.214 . S
H261 C289 0.929 . S
H262 C290 0.929 . S
H263 C291 0.930 . S
H264 C292 0.929 . S
H265 C294 0.930 . S
H266 C271 0.930 . S
H267 C275 0.930 . S
O268 Co237 2.037 . S
O268 C288 1.234 . S
C269 O243 1.269 . S
C269 O244 1.257 . S
C270 H245 0.930 . S
C270 C273 1.388 . S
C270 C275 1.418 . S
C271 H266 0.930 . S
C271 C274 1.404 . S
C271 C275 1.353 . S
N272 Co237 2.145 . S
N272 C273 1.397 . S
N272 C274 1.334 . S
C273 H254 0.929 . S
C273 C270 1.388 . S
C273 N272 1.397 . S
C274 H255 0.929 . S
C274 C271 1.404 . S
C274 N272 1.334 . S
C275 H267 0.930 . S
C275 C270 1.418 . S
C275 C271 1.353 . S
C276 H246 0.930 . S
C276 N277 1.330 . S
C276 C278 1.446 . S
N277 Co236 2.151 . S
N277 C276 1.330 . S
N277 C281 1.418 . S
C278 H257 0.929 . S
C278 C276 1.446 . S
C278 C279 1.332 1_565 S
C279 H259 0.931 . S
C279 C278 1.332 1_545 S
C279 C280 1.267 . S
C280 H248 0.929 . S
C280 C279 1.267 . S
C280 C281 1.251 1_545 S
C281 H251 0.929 . S
C281 N277 1.418 . S
C281 C280 1.251 1_565 S
C282 H249 0.930 1_565 S
C282 C284 1.406 . S
C282 C287 1.261 . S
C283 H250 0.930 . S
C283 N285 1.325 . S
C283 C286 1.357 . S
C284 H252 0.928 . S
C284 C282 1.406 . S
C284 N285 1.261 . S
N285 Co236 2.214 . S
N285 C283 1.325 . S
N285 C284 1.261 . S
C286 H256 0.931 . S
C286 C283 1.357 . S
C286 C287 1.312 . S
C287 H258 0.930 1_565 S
C287 C282 1.261 . S
C287 C286 1.312 . S
C288 O260 1.214 . S
C288 O268 1.234 . S
C289 H261 0.929 . S
C289 C292 1.391 . S
C289 C294 1.391 . S
C290 H262 0.929 . S
C290 C291 1.390 . S
C290 N293 1.391 . S
C291 H263 0.930 . S
C291 C290 1.390 . S
C291 C292 1.392 . S
C292 H264 0.929 . S
C292 C289 1.391 . S
C292 C291 1.392 . S
N293 Co237 2.257 . S
N293 C290 1.391 . S
N293 C294 1.388 . S
C294 H265 0.930 . S
C294 C289 1.391 . S
C294 N293 1.388 . S
Co295 O297 2.143 . S
Co295 O303 2.074 . S
Co295 O306 2.093 . S
Co295 O319 2.097 . S
Co295 N336 2.151 . S
Co295 N344 2.214 . S
Co296 O297 2.160 . S
Co296 O302 2.058 1_655 S
Co296 O312 2.057 1_655 S
Co296 O327 2.037 . S
Co296 N331 2.145 1_655 S
Co296 N352 2.257 . S
O297 Co295 2.143 . S
O297 Co296 2.160 . S
C298 O299 1.278 . S
C298 O306 1.224 . S
O299 C298 1.278 . S
C300 O301 1.245 . S
C300 O312 1.232 . S
O301 C300 1.245 . S
O302 Co296 2.058 1_455 S
O302 C328 1.269 1_455 S
O303 Co295 2.074 . S
O303 C328 1.257 . S
H304 C329 0.930 . S
H305 C335 0.930 . S
O306 Co295 2.093 . S
O306 C298 1.224 . S
H307 C339 0.929 . S
H308 C341 0.930 1_545 S
H309 C342 0.930 . S
H310 C340 0.929 . S
H311 C343 0.928 . S
O312 Co296 2.057 1_455 S
O312 C300 1.232 . S
H313 C332 0.929 1_655 S
H314 C333 0.929 . S
H315 C345 0.931 . S
H316 C337 0.929 . S
H317 C346 0.930 1_545 S
H318 C338 0.931 . S
O319 Co295 2.097 . S
O319 C347 1.214 . S
H320 C348 0.929 . S
H321 C349 0.929 . S
H322 C350 0.930 . S
H323 C351 0.929 . S
H324 C353 0.930 . S
H325 C330 0.930 . S
H326 C334 0.930 . S
O327 Co296 2.037 . S
O327 C347 1.234 . S
C328 O302 1.269 1_655 S
C328 O303 1.257 . S
C329 H304 0.930 . S
C329 C332 1.388 . S
C329 C334 1.418 . S
C330 H325 0.930 . S
C330 C333 1.404 . S
C330 C334 1.353 . S
N331 Co296 2.145 1_455 S
N331 C332 1.397 . S
N331 C333 1.334 . S
C332 H313 0.929 1_455 S
C332 C329 1.388 . S
C332 N331 1.397 . S
C333 H314 0.929 . S
C333 C330 1.404 . S
C333 N331 1.334 . S
C334 H326 0.930 . S
C334 C329 1.418 . S
C334 C330 1.353 . S
C335 H305 0.930 . S
C335 N336 1.330 . S
C335 C337 1.446 . S
N336 Co295 2.151 . S
N336 C335 1.330 . S
N336 C340 1.418 . S
C337 H316 0.929 . S
C337 C335 1.446 . S
C337 C338 1.332 1_565 S
C338 H318 0.931 . S
C338 C337 1.332 1_545 S
C338 C339 1.267 . S
C339 H307 0.929 . S
C339 C338 1.267 . S
C339 C340 1.251 1_545 S
C340 H310 0.929 . S
C340 N336 1.418 . S
C340 C339 1.251 1_565 S
C341 H308 0.930 1_565 S
C341 C343 1.406 . S
C341 C346 1.261 . S
C342 H309 0.930 . S
C342 N344 1.325 . S
C342 C345 1.357 . S
C343 H311 0.928 . S
C343 C341 1.406 . S
C343 N344 1.261 . S
N344 Co295 2.214 . S
N344 C342 1.325 . S
N344 C343 1.261 . S
C345 H315 0.931 . S
C345 C342 1.357 . S
C345 C346 1.312 . S
C346 H317 0.930 1_565 S
C346 C341 1.261 . S
C346 C345 1.312 . S
C347 O319 1.214 . S
C347 O327 1.234 . S
C348 H320 0.929 . S
C348 C351 1.391 . S
C348 C353 1.391 . S
C349 H321 0.929 . S
C349 C350 1.390 . S
C349 N352 1.391 . S
C350 H322 0.930 . S
C350 C349 1.390 . S
C350 C351 1.392 . S
C351 H323 0.929 . S
C351 C348 1.391 . S
C351 C350 1.392 . S
N352 Co296 2.257 . S
N352 C349 1.391 . S
N352 C353 1.388 . S
C353 H324 0.930 . S
C353 C348 1.391 . S
C353 N352 1.388 . S
Co354 O356 2.143 . S
Co354 O362 2.074 . S
Co354 O365 2.093 . S
Co354 O378 2.097 . S
Co354 N395 2.151 . S
Co354 N403 2.214 . S
Co355 O356 2.160 . S
Co355 O361 2.058 . S
Co355 O371 2.057 . S
Co355 O386 2.037 . S
Co355 N390 2.145 . S
Co355 N411 2.257 . S
O356 Co354 2.143 . S
O356 Co355 2.160 . S
C357 O358 1.278 . S
C357 O365 1.224 . S
O358 C357 1.278 . S
C359 O360 1.245 . S
C359 O371 1.232 . S
O360 C359 1.245 . S
O361 Co355 2.058 . S
O361 C387 1.269 . S
O362 Co354 2.074 . S
O362 C387 1.257 . S
H363 C388 0.930 . S
H364 C394 0.930 . S
O365 Co354 2.093 . S
O365 C357 1.224 . S
H366 C398 0.929 . S
H367 C400 0.930 1_565 S
H368 C401 0.930 . S
H369 C399 0.929 . S
H370 C402 0.928 . S
O371 Co355 2.057 . S
O371 C359 1.232 . S
H372 C391 0.929 . S
H373 C392 0.929 . S
H374 C404 0.931 . S
H375 C396 0.929 . S
H376 C405 0.930 1_565 S
H377 C397 0.931 . S
O378 Co354 2.097 . S
O378 C406 1.214 . S
H379 C407 0.929 . S
H380 C408 0.929 . S
H381 C409 0.930 . S
H382 C410 0.929 . S
H383 C412 0.930 . S
H384 C389 0.930 . S
H385 C393 0.930 . S
O386 Co355 2.037 . S
O386 C406 1.234 . S
C387 O361 1.269 . S
C387 O362 1.257 . S
C388 H363 0.930 . S
C388 C391 1.388 . S
C388 C393 1.418 . S
C389 H384 0.930 . S
C389 C392 1.404 . S
C389 C393 1.353 . S
N390 Co355 2.145 . S
N390 C391 1.397 . S
N390 C392 1.334 . S
C391 H372 0.929 . S
C391 C388 1.388 . S
C391 N390 1.397 . S
C392 H373 0.929 . S
C392 C389 1.404 . S
C392 N390 1.334 . S
C393 H385 0.930 . S
C393 C388 1.418 . S
C393 C389 1.353 . S
C394 H364 0.930 . S
C394 N395 1.330 . S
C394 C396 1.446 . S
N395 Co354 2.151 . S
N395 C394 1.330 . S
N395 C399 1.418 . S
C396 H375 0.929 . S
C396 C394 1.446 . S
C396 C397 1.332 1_545 S
C397 H377 0.931 . S
C397 C396 1.332 1_565 S
C397 C398 1.267 . S
C398 H366 0.929 . S
C398 C397 1.267 . S
C398 C399 1.251 1_565 S
C399 H369 0.929 . S
C399 N395 1.418 . S
C399 C398 1.251 1_545 S
C400 H367 0.930 1_545 S
C400 C402 1.406 . S
C400 C405 1.261 . S
C401 H368 0.930 . S
C401 N403 1.325 . S
C401 C404 1.357 . S
C402 H370 0.928 . S
C402 C400 1.406 . S
C402 N403 1.261 . S
N403 Co354 2.214 . S
N403 C401 1.325 . S
N403 C402 1.261 . S
C404 H374 0.931 . S
C404 C401 1.357 . S
C404 C405 1.312 . S
C405 H376 0.930 1_545 S
C405 C400 1.261 . S
C405 C404 1.312 . S
C406 O378 1.214 . S
C406 O386 1.234 . S
C407 H379 0.929 . S
C407 C410 1.391 . S
C407 C412 1.391 . S
C408 H380 0.929 . S
C408 C409 1.390 . S
C408 N411 1.391 . S
C409 H381 0.930 . S
C409 C408 1.390 . S
C409 C410 1.392 . S
C410 H382 0.929 . S
C410 C407 1.391 . S
C410 C409 1.392 . S
N411 Co355 2.257 . S
N411 C408 1.391 . S
N411 C412 1.388 . S
C412 H383 0.930 . S
C412 C407 1.391 . S
C412 N411 1.388 . S
Co413 O415 2.143 . S
Co413 O421 2.074 . S
Co413 O424 2.093 . S
Co413 O437 2.097 . S
Co413 N454 2.151 . S
Co413 N462 2.214 . S
Co414 O415 2.160 . S
Co414 O420 2.058 1_455 S
Co414 O430 2.057 1_455 S
Co414 O445 2.037 . S
Co414 N449 2.145 1_455 S
Co414 N470 2.257 . S
O415 Co413 2.143 . S
O415 Co414 2.160 . S
C416 O417 1.278 . S
C416 O424 1.224 . S
O417 C416 1.278 . S
C418 O419 1.245 . S
C418 O430 1.232 . S
O419 C418 1.245 . S
O420 Co414 2.058 1_655 S
O420 C446 1.269 1_655 S
O421 Co413 2.074 . S
O421 C446 1.257 . S
H422 C447 0.930 . S
H423 C453 0.930 . S
O424 Co413 2.093 . S
O424 C416 1.224 . S
H425 C457 0.929 . S
H426 C459 0.930 1_565 S
H427 C460 0.930 . S
H428 C458 0.929 . S
H429 C461 0.928 . S
O430 Co414 2.057 1_655 S
O430 C418 1.232 . S
H431 C450 0.929 1_455 S
H432 C451 0.929 . S
H433 C463 0.931 . S
H434 C455 0.929 . S
H435 C464 0.930 1_565 S
H436 C456 0.931 . S
O437 Co413 2.097 . S
O437 C465 1.214 . S
H438 C466 0.929 . S
H439 C467 0.929 . S
H440 C468 0.930 . S
H441 C469 0.929 . S
H442 C471 0.930 . S
H443 C448 0.930 . S
H444 C452 0.930 . S
O445 Co414 2.037 . S
O445 C465 1.234 . S
C446 O420 1.269 1_455 S
C446 O421 1.257 . S
C447 H422 0.930 . S
C447 C450 1.388 . S
C447 C452 1.418 . S
C448 H443 0.930 . S
C448 C451 1.404 . S
C448 C452 1.353 . S
N449 Co414 2.145 1_655 S
N449 C450 1.397 . S
N449 C451 1.334 . S
C450 H431 0.929 1_655 S
C450 C447 1.388 . S
C450 N449 1.397 . S
C451 H432 0.929 . S
C451 C448 1.404 . S
C451 N449 1.334 . S
C452 H444 0.930 . S
C452 C447 1.418 . S
C452 C448 1.353 . S
C453 H423 0.930 . S
C453 N454 1.330 . S
C453 C455 1.446 . S
N454 Co413 2.151 . S
N454 C453 1.330 . S
N454 C458 1.418 . S
C455 H434 0.929 . S
C455 C453 1.446 . S
C455 C456 1.332 1_545 S
C456 H436 0.931 . S
C456 C455 1.332 1_565 S
C456 C457 1.267 . S
C457 H425 0.929 . S
C457 C456 1.267 . S
C457 C458 1.251 1_565 S
C458 H428 0.929 . S
C458 N454 1.418 . S
C458 C457 1.251 1_545 S
C459 H426 0.930 1_545 S
C459 C461 1.406 . S
C459 C464 1.261 . S
C460 H427 0.930 . S
C460 N462 1.325 . S
C460 C463 1.357 . S
C461 H429 0.928 . S
C461 C459 1.406 . S
C461 N462 1.261 . S
N462 Co413 2.214 . S
N462 C460 1.325 . S
N462 C461 1.261 . S
C463 H433 0.931 . S
C463 C460 1.357 . S
C463 C464 1.312 . S
C464 H435 0.930 1_545 S
C464 C459 1.261 . S
C464 C463 1.312 . S
C465 O437 1.214 . S
C465 O445 1.234 . S
C466 H438 0.929 . S
C466 C469 1.391 . S
C466 C471 1.391 . S
C467 H439 0.929 . S
C467 C468 1.390 . S
C467 N470 1.391 . S
C468 H440 0.930 . S
C468 C467 1.390 . S
C468 C469 1.392 . S
C469 H441 0.929 . S
C469 C466 1.391 . S
C469 C468 1.392 . S
N470 Co414 2.257 . S
N470 C467 1.391 . S
N470 C471 1.388 . S
C471 H442 0.930 . S
C471 C466 1.391 . S
C471 N470 1.388 . S
H472 C480 0.950 . S
H473 C485 0.950 . S
H474 C482 0.950 . S
H475 C484 0.950 . S
H476 C486 0.950 . S
H477 C488 0.950 . S
H478 C490 0.950 . S
H479 C491 0.950 . S
C480 H472 0.950 . S
C480 C481 1.386 . S
C480 C482 1.391 . S
C481 C480 1.386 . S
C481 C485 1.393 1_455 S
C482 H474 0.950 . S
C482 C480 1.391 . S
C482 C483 1.400 . S
C483 C482 1.400 . S
C483 C484 1.398 1_455 S
C483 C489 1.491 1_455 S
C484 H475 0.950 . S
C484 C483 1.398 1_655 S
C484 C485 1.391 . S
C485 H473 0.950 . S
C485 C481 1.393 1_655 S
C485 C484 1.391 . S
C486 H476 0.950 . S
C486 C487 1.386 . S
C486 C488 1.391 . S
C487 C486 1.386 . S
C487 C491 1.393 1_655 S
C488 H477 0.950 . S
C488 C486 1.391 . S
C488 C489 1.400 . S
C489 C483 1.491 1_655 S
C489 C488 1.400 . S
C489 C490 1.398 1_655 S
C490 H478 0.950 . S
C490 C489 1.398 1_455 S
C490 C491 1.391 . S
C491 H479 0.950 . S
C491 C487 1.393 1_455 S
C491 C490 1.391 . S
H492 C500 0.950 . S
H493 C505 0.950 . S
H494 C502 0.950 . S
H495 C504 0.950 . S
H496 C506 0.950 . S
H497 C508 0.950 . S
H498 C510 0.950 . S
H499 C511 0.950 . S
C500 H492 0.950 . S
C500 C501 1.386 . S
C500 C502 1.391 . S
C501 C500 1.386 . S
C501 C505 1.393 . S
C502 H494 0.950 . S
C502 C500 1.391 . S
C502 C503 1.400 . S
C503 C502 1.400 . S
C503 C504 1.398 . S
C503 C509 1.491 . S
C504 H495 0.950 . S
C504 C503 1.398 . S
C504 C505 1.391 . S
C505 H493 0.950 . S
C505 C501 1.393 . S
C505 C504 1.391 . S
C506 H496 0.950 . S
C506 C507 1.386 . S
C506 C508 1.391 . S
C507 C506 1.386 . S
C507 C511 1.393 . S
C508 H497 0.950 . S
C508 C506 1.391 . S
C508 C509 1.400 . S
C509 C503 1.491 . S
C509 C508 1.400 . S
C509 C510 1.398 . S
C510 H498 0.950 . S
C510 C509 1.398 . S
C510 C511 1.391 . S
C511 H499 0.950 . S
C511 C507 1.393 . S
C511 C510 1.391 . S
H512 C520 0.950 . S
H513 C525 0.950 . S
H514 C522 0.950 1_565 S
H515 C524 0.950 1_556 S
H516 C526 0.950 . S
H517 C528 0.950 1_545 S
H518 C530 0.950 1_554 S
H519 C531 0.950 . S
C520 H512 0.950 . S
C520 C521 1.386 . S
C520 C522 1.391 . S
C521 C520 1.386 . S
C521 C525 1.393 . S
C522 H514 0.950 1_545 S
C522 C520 1.391 . S
C522 C523 1.400 . S
C523 C522 1.400 . S
C523 C524 1.398 . S
C523 C529 1.491 1_544 S
C524 H515 0.950 1_554 S
C524 C523 1.398 . S
C524 C525 1.391 . S
C525 H513 0.950 . S
C525 C521 1.393 . S
C525 C524 1.391 . S
C526 H516 0.950 . S
C526 C527 1.386 . S
C526 C528 1.391 . S
C527 C526 1.386 . S
C527 C531 1.393 . S
C528 H517 0.950 1_565 S
C528 C526 1.391 . S
C528 C529 1.400 . S
C529 C523 1.491 1_566 S
C529 C528 1.400 . S
C529 C530 1.398 . S
C530 H518 0.950 1_556 S
C530 C529 1.398 . S
C530 C531 1.391 . S
C531 H519 0.950 . S
C531 C527 1.393 . S
C531 C530 1.391 . S
H532 C540 0.950 1_455 S
H533 C545 0.950 . S
H534 C542 0.950 1_556 S
H535 C544 0.950 . S
H536 C546 0.950 1_655 S
H537 C548 0.950 1_554 S
H538 C550 0.950 . S
H539 C551 0.950 . S
C540 H532 0.950 1_655 S
C540 C541 1.386 . S
C540 C542 1.391 1_655 S
C541 C540 1.386 . S
C541 C545 1.393 . S
C542 H534 0.950 1_554 S
C542 C540 1.391 1_455 S
C542 C543 1.400 1_455 S
C543 C542 1.400 1_655 S
C543 C544 1.398 1_565 S
C543 C549 1.491 1_664 S
C544 H535 0.950 . S
C544 C543 1.398 1_545 S
C544 C545 1.391 1_545 S
C545 H533 0.950 . S
C545 C541 1.393 . S
C545 C544 1.391 1_565 S
C546 H536 0.950 1_455 S
C546 C547 1.386 . S
C546 C548 1.391 1_455 S
C547 C546 1.386 . S
C547 C551 1.393 . S
C548 H537 0.950 1_556 S
C548 C546 1.391 1_655 S
C548 C549 1.400 1_655 S
C549 C543 1.491 1_446 S
C549 C548 1.400 1_455 S
C549 C550 1.398 1_545 S
C550 H538 0.950 . S
C550 C549 1.398 1_565 S
C550 C551 1.391 1_565 S
C551 H539 0.950 . S
C551 C547 1.393 . S
C551 C550 1.391 1_545 S
H552 C560 0.950 . S
H553 C565 0.950 . S
H554 C562 0.950 . S
H555 C564 0.950 . S
H556 C566 0.950 . S
H557 C568 0.950 . S
H558 C570 0.950 . S
H559 C571 0.950 . S
C560 H552 0.950 . S
C560 C561 1.386 . S
C560 C562 1.391 . S
C561 C560 1.386 . S
C561 C565 1.393 . S
C562 H554 0.950 . S
C562 C560 1.391 . S
C562 C563 1.400 . S
C563 C562 1.400 . S
C563 C564 1.398 . S
C563 C569 1.491 . S
C564 H555 0.950 . S
C564 C563 1.398 . S
C564 C565 1.391 . S
C565 H553 0.950 . S
C565 C561 1.393 . S
C565 C564 1.391 . S
C566 H556 0.950 . S
C566 C567 1.386 . S
C566 C568 1.391 . S
C567 C566 1.386 . S
C567 C571 1.393 . S
C568 H557 0.950 . S
C568 C566 1.391 . S
C568 C569 1.400 . S
C569 C563 1.491 . S
C569 C568 1.400 . S
C569 C570 1.398 . S
C570 H558 0.950 . S
C570 C569 1.398 . S
C570 C571 1.391 . S
C571 H559 0.950 . S
C571 C567 1.393 . S
C571 C570 1.391 . S
H572 C580 0.950 . S
H573 C585 0.950 . S
H574 C582 0.950 . S
H575 C584 0.950 . S
H576 C586 0.950 . S
H577 C588 0.950 . S
H578 C590 0.950 . S
H579 C591 0.950 . S
C580 H572 0.950 . S
C580 C581 1.386 . S
C580 C582 1.391 . S
C581 C580 1.386 . S
C581 C585 1.393 . S
C582 H574 0.950 . S
C582 C580 1.391 . S
C582 C583 1.400 . S
C583 C582 1.400 . S
C583 C584 1.398 . S
C583 C589 1.491 . S
C584 H575 0.950 . S
C584 C583 1.398 . S
C584 C585 1.391 . S
C585 H573 0.950 . S
C585 C581 1.393 . S
C585 C584 1.391 . S
C586 H576 0.950 . S
C586 C587 1.386 . S
C586 C588 1.391 . S
C587 C586 1.386 . S
C587 C591 1.393 . S
C588 H577 0.950 . S
C588 C586 1.391 . S
C588 C589 1.400 . S
C589 C583 1.491 . S
C589 C588 1.400 . S
C589 C590 1.398 . S
C590 H578 0.950 . S
C590 C589 1.398 . S
C590 C591 1.391 . S
C591 H579 0.950 . S
C591 C587 1.393 . S
C591 C590 1.391 . S
H592 C600 0.950 . S
H593 C605 0.950 . S
H594 C602 0.950 . S
H595 C604 0.950 . S
H596 C606 0.950 . S
H597 C608 0.950 . S
H598 C610 0.950 . S
H599 C611 0.950 . S
C600 H592 0.950 . S
C600 C601 1.386 . S
C600 C602 1.391 . S
C601 C600 1.386 . S
C601 C605 1.393 . S
C602 H594 0.950 . S
C602 C600 1.391 . S
C602 C603 1.400 . S
C603 C602 1.400 . S
C603 C604 1.398 . S
C603 C609 1.491 . S
C604 H595 0.950 . S
C604 C603 1.398 . S
C604 C605 1.391 . S
C605 H593 0.950 . S
C605 C601 1.393 . S
C605 C604 1.391 . S
C606 H596 0.950 . S
C606 C607 1.386 . S
C606 C608 1.391 . S
C607 C606 1.386 . S
C607 C611 1.393 . S
C608 H597 0.950 . S
C608 C606 1.391 . S
C608 C609 1.400 . S
C609 C603 1.491 . S
C609 C608 1.400 . S
C609 C610 1.398 . S
C610 H598 0.950 . S
C610 C609 1.398 . S
C610 C611 1.391 . S
C611 H599 0.950 . S
C611 C607 1.393 . S
C611 C610 1.391 . S
H612 C620 0.950 . S
H613 C625 0.950 . S
H614 C622 0.950 . S
H615 C624 0.950 . S
H616 C626 0.950 . S
H617 C628 0.950 . S
H618 C630 0.950 . S
H619 C631 0.950 . S
C620 H612 0.950 . S
C620 C621 1.386 . S
C620 C622 1.391 . S
C621 C620 1.386 . S
C621 C625 1.393 . S
C622 H614 0.950 . S
C622 C620 1.391 . S
C622 C623 1.400 . S
C623 C622 1.400 . S
C623 C624 1.398 . S
C623 C629 1.491 . S
C624 H615 0.950 . S
C624 C623 1.398 . S
C624 C625 1.391 . S
C625 H613 0.950 . S
C625 C621 1.393 . S
C625 C624 1.391 . S
C626 H616 0.950 . S
C626 C627 1.386 . S
C626 C628 1.391 . S
C627 C626 1.386 . S
C627 C631 1.393 . S
C628 H617 0.950 . S
C628 C626 1.391 . S
C628 C629 1.400 . S
C629 C623 1.491 . S
C629 C628 1.400 . S
C629 C630 1.398 . S
C630 H618 0.950 . S
C630 C629 1.398 . S
C630 C631 1.391 . S
C631 H619 0.950 . S
C631 C627 1.393 . S
C631 C630 1.391 . S
H632 C640 0.950 . S
H633 C645 0.950 . S
H634 C642 0.950 . S
H635 C644 0.950 . S
H636 C646 0.950 . S
H637 C648 0.950 . S
H638 C650 0.950 . S
H639 C651 0.950 . S
C640 H632 0.950 . S
C640 C641 1.386 . S
C640 C642 1.391 . S
C641 C640 1.386 . S
C641 C645 1.393 . S
C642 H634 0.950 . S
C642 C640 1.391 . S
C642 C643 1.400 . S
C643 C642 1.400 . S
C643 C644 1.398 . S
C643 C649 1.491 . S
C644 H635 0.950 . S
C644 C643 1.398 . S
C644 C645 1.391 . S
C645 H633 0.950 . S
C645 C641 1.393 . S
C645 C644 1.391 . S
C646 H636 0.950 . S
C646 C647 1.386 . S
C646 C648 1.391 . S
C647 C646 1.386 . S
C647 C651 1.393 . S
C648 H637 0.950 . S
C648 C646 1.391 . S
C648 C649 1.400 . S
C649 C643 1.491 . S
C649 C648 1.400 . S
C649 C650 1.398 . S
C650 H638 0.950 . S
C650 C649 1.398 . S
C650 C651 1.391 . S
C651 H639 0.950 . S
C651 C647 1.393 . S
C651 C650 1.391 . S
H652 C660 0.950 . S
H653 C665 0.950 . S
H654 C662 0.950 . S
H655 C664 0.950 . S
H656 C666 0.950 . S
H657 C668 0.950 . S
H658 C670 0.950 . S
H659 C671 0.950 . S
C660 H652 0.950 . S
C660 C661 1.386 . S
C660 C662 1.391 . S
C661 C660 1.386 . S
C661 C665 1.393 . S
C662 H654 0.950 . S
C662 C660 1.391 . S
C662 C663 1.400 . S
C663 C662 1.400 . S
C663 C664 1.398 . S
C663 C669 1.491 . S
C664 H655 0.950 . S
C664 C663 1.398 . S
C664 C665 1.391 . S
C665 H653 0.950 . S
C665 C661 1.393 . S
C665 C664 1.391 . S
C666 H656 0.950 . S
C666 C667 1.386 . S
C666 C668 1.391 . S
C667 C666 1.386 . S
C667 C671 1.393 . S
C668 H657 0.950 . S
C668 C666 1.391 . S
C668 C669 1.400 . S
C669 C663 1.491 . S
C669 C668 1.400 . S
C669 C670 1.398 . S
C670 H658 0.950 . S
C670 C669 1.398 . S
C670 C671 1.391 . S
C671 H659 0.950 . S
C671 C667 1.393 . S
C671 C670 1.391 . S
H672 C680 0.950 . S
H673 C685 0.950 . S
H674 C682 0.950 . S
H675 C684 0.950 . S
H676 C686 0.950 . S
H677 C688 0.950 . S
H678 C690 0.950 . S
H679 C691 0.950 . S
C680 H672 0.950 . S
C680 C681 1.386 . S
C680 C682 1.391 . S
C681 C680 1.386 . S
C681 C685 1.393 . S
C682 H674 0.950 . S
C682 C680 1.391 . S
C682 C683 1.400 . S
C683 C682 1.400 . S
C683 C684 1.398 . S
C683 C689 1.491 . S
C684 H675 0.950 . S
C684 C683 1.398 . S
C684 C685 1.391 . S
C685 H673 0.950 . S
C685 C681 1.393 . S
C685 C684 1.391 . S
C686 H676 0.950 . S
C686 C687 1.386 . S
C686 C688 1.391 . S
C687 C686 1.386 . S
C687 C691 1.393 . S
C688 H677 0.950 . S
C688 C686 1.391 . S
C688 C689 1.400 . S
C689 C683 1.491 . S
C689 C688 1.400 . S
C689 C690 1.398 . S
C690 H678 0.950 . S
C690 C689 1.398 . S
C690 C691 1.391 . S
C691 H679 0.950 . S
C691 C687 1.393 . S
C691 C690 1.391 . S
H692 C700 0.950 . S
H693 C705 0.950 . S
H694 C702 0.950 . S
H695 C704 0.950 . S
H696 C706 0.950 . S
H697 C708 0.950 . S
H698 C710 0.950 . S
H699 C711 0.950 . S
C700 H692 0.950 . S
C700 C701 1.386 . S
C700 C702 1.391 . S
C701 C700 1.386 . S
C701 C705 1.393 . S
C702 H694 0.950 . S
C702 C700 1.391 . S
C702 C703 1.400 . S
C703 C702 1.400 . S
C703 C704 1.398 . S
C703 C709 1.491 . S
C704 H695 0.950 . S
C704 C703 1.398 . S
C704 C705 1.391 . S
C705 H693 0.950 . S
C705 C701 1.393 . S
C705 C704 1.391 . S
C706 H696 0.950 . S
C706 C707 1.386 . S
C706 C708 1.391 . S
C707 C706 1.386 . S
C707 C711 1.393 . S
C708 H697 0.950 . S
C708 C706 1.391 . S
C708 C709 1.400 . S
C709 C703 1.491 . S
C709 C708 1.400 . S
C709 C710 1.398 . S
C710 H698 0.950 . S
C710 C709 1.398 . S
C710 C711 1.391 . S
C711 H699 0.950 . S
C711 C707 1.393 . S
C711 C710 1.391 . S
H712 C720 0.950 . S
H713 C725 0.950 . S
H714 C722 0.950 . S
H715 C724 0.950 . S
H716 C726 0.950 . S
H717 C728 0.950 . S
H718 C730 0.950 . S
H719 C731 0.950 . S
C720 H712 0.950 . S
C720 C721 1.386 . S
C720 C722 1.391 . S
C721 C720 1.386 . S
C721 C725 1.393 . S
C722 H714 0.950 . S
C722 C720 1.391 . S
C722 C723 1.400 . S
C723 C722 1.400 . S
C723 C724 1.398 . S
C723 C729 1.491 . S
C724 H715 0.950 . S
C724 C723 1.398 . S
C724 C725 1.391 . S
C725 H713 0.950 . S
C725 C721 1.393 . S
C725 C724 1.391 . S
C726 H716 0.950 . S
C726 C727 1.386 . S
C726 C728 1.391 . S
C727 C726 1.386 . S
C727 C731 1.393 . S
C728 H717 0.950 . S
C728 C726 1.391 . S
C728 C729 1.400 . S
C729 C723 1.491 . S
C729 C728 1.400 . S
C729 C730 1.398 . S
C730 H718 0.950 . S
C730 C729 1.398 . S
C730 C731 1.391 . S
C731 H719 0.950 . S
C731 C727 1.393 . S
C731 C730 1.391 . S
H732 C740 0.950 . S
H733 C745 0.950 . S
H734 C742 0.950 . S
H735 C744 0.950 . S
H736 C746 0.950 . S
H737 C748 0.950 . S
H738 C750 0.950 . S
H739 C751 0.950 . S
C740 H732 0.950 . S
C740 C741 1.386 . S
C740 C742 1.391 . S
C741 C740 1.386 . S
C741 C745 1.393 . S
C742 H734 0.950 . S
C742 C740 1.391 . S
C742 C743 1.400 . S
C743 C742 1.400 . S
C743 C744 1.398 . S
C743 C749 1.491 . S
C744 H735 0.950 . S
C744 C743 1.398 . S
C744 C745 1.391 . S
C745 H733 0.950 . S
C745 C741 1.393 . S
C745 C744 1.391 . S
C746 H736 0.950 . S
C746 C747 1.386 . S
C746 C748 1.391 . S
C747 C746 1.386 . S
C747 C751 1.393 . S
C748 H737 0.950 . S
C748 C746 1.391 . S
C748 C749 1.400 . S
C749 C743 1.491 . S
C749 C748 1.400 . S
C749 C750 1.398 . S
C750 H738 0.950 . S
C750 C749 1.398 . S
C750 C751 1.391 . S
C751 H739 0.950 . S
C751 C747 1.393 . S
C751 C750 1.391 . S
H752 C760 0.950 . S
H753 C765 0.950 . S
H754 C762 0.950 . S
H755 C764 0.950 1_556 S
H756 C766 0.950 . S
H757 C768 0.950 . S
H758 C770 0.950 1_554 S
H759 C771 0.950 . S
C760 H752 0.950 . S
C760 C761 1.386 . S
C760 C762 1.391 . S
C761 C760 1.386 . S
C761 C765 1.393 . S
C762 H754 0.950 . S
C762 C760 1.391 . S
C762 C763 1.400 . S
C763 C762 1.400 . S
C763 C764 1.398 . S
C763 C769 1.491 1_554 S
C764 H755 0.950 1_554 S
C764 C763 1.398 . S
C764 C765 1.391 . S
C765 H753 0.950 . S
C765 C761 1.393 . S
C765 C764 1.391 . S
C766 H756 0.950 . S
C766 C767 1.386 . S
C766 C768 1.391 . S
C767 C766 1.386 . S
C767 C771 1.393 . S
C768 H757 0.950 . S
C768 C766 1.391 . S
C768 C769 1.400 . S
C769 C763 1.491 1_556 S
C769 C768 1.400 . S
C769 C770 1.398 . S
C770 H758 0.950 1_556 S
C770 C769 1.398 . S
C770 C771 1.391 . S
C771 H759 0.950 . S
C771 C767 1.393 . S
C771 C770 1.391 . S
H772 C780 0.950 . S
H773 C785 0.950 . S
H774 C782 0.950 . S
H775 C784 0.950 . S
H776 C786 0.950 . S
H777 C788 0.950 . S
H778 C790 0.950 . S
H779 C791 0.950 . S
C780 H772 0.950 . S
C780 C781 1.386 . S
C780 C782 1.391 . S
C781 C780 1.386 . S
C781 C785 1.393 . S
C782 H774 0.950 . S
C782 C780 1.391 . S
C782 C783 1.400 . S
C783 C782 1.400 . S
C783 C784 1.398 . S
C783 C789 1.491 1_554 S
C784 H775 0.950 . S
C784 C783 1.398 . S
C784 C785 1.391 . S
C785 H773 0.950 . S
C785 C781 1.393 . S
C785 C784 1.391 . S
C786 H776 0.950 . S
C786 C787 1.386 . S
C786 C788 1.391 . S
C787 C786 1.386 . S
C787 C791 1.393 . S
C788 H777 0.950 . S
C788 C786 1.391 . S
C788 C789 1.400 . S
C789 C783 1.491 1_556 S
C789 C788 1.400 . S
C789 C790 1.398 . S
C790 H778 0.950 . S
C790 C789 1.398 . S
C790 C791 1.391 . S
C791 H779 0.950 . S
C791 C787 1.393 . S
C791 C790 1.391 . S
C481 C33 1.532 . S
C487 C151 1.532 . S
C501 C210 1.524 . S
C507 C92 1.524 . S
C521 C387 1.527 . S
C527 C269 1.527 . S
C541 C328 1.521 . S
C547 C446 1.521 . S
C561 C359 1.712 . S
C567 C5 1.712 . S
C581 C64 1.700 . S
C587 C418 1.700 . S
C601 C123 1.708 . S
C607 C241 1.708 . S
C621 C182 1.713 . S
C627 C300 1.713 . S
C641 C357 1.529 . S
C647 C3 1.529 . S
C661 C62 1.545 . S
C667 C416 1.545 . S
C681 C239 1.544 . S
C687 C121 1.544 . S
C701 C298 1.538 . S
C707 C180 1.538 . S
C721 C111 0.715 . S
C727 C52 0.744 . S
C741 C170 0.744 . S
C747 C229 0.718 . S
C761 C347 0.711 . S
C767 C288 0.743 . S
C781 C406 0.721 . S
C787 C465 0.742 . S
