# Generated by pormake.
# Topology ato, (4)-cn, num edge types: 1
# Building blocks:
#     Node 0, Type 0, BuildingBlock: TATPOV_clean_sbu_0, # of connection points: 4
#     Node 1, Type 0, BuildingBlock: TATPOV_clean_sbu_0, # of connection points: 4
#     Node 2, Type 0, BuildingBlock: TATPOV_clean_sbu_0, # of connection points: 4
#     Node 3, Type 0, BuildingBlock: TATPOV_clean_sbu_0, # of connection points: 4
#     Node 4, Type 0, BuildingBlock: TATPOV_clean_sbu_0, # of connection points: 4
#     Node 5, Type 0, BuildingBlock: TATPOV_clean_sbu_0, # of connection points: 4
#     Node 6, Type 0, BuildingBlock: TATPOV_clean_sbu_0, # of connection points: 4
#     Node 7, Type 0, BuildingBlock: TATPOV_clean_sbu_0, # of connection points: 4
#     Node 8, Type 0, BuildingBlock: TATPOV_clean_sbu_0, # of connection points: 4
#     Node 9, Type 0, BuildingBlock: TATPOV_clean_sbu_0, # of connection points: 4
#     Node 10, Type 0, BuildingBlock: TATPOV_clean_sbu_0, # of connection points: 4
#     Node 11, Type 0, BuildingBlock: TATPOV_clean_sbu_0, # of connection points: 4
#     Node 12, Type 0, BuildingBlock: TATPOV_clean_sbu_0, # of connection points: 4
#     Node 13, Type 0, BuildingBlock: TATPOV_clean_sbu_0, # of connection points: 4
#     Node 14, Type 0, BuildingBlock: TATPOV_clean_sbu_0, # of connection points: 4
#     Node 15, Type 0, BuildingBlock: TATPOV_clean_sbu_0, # of connection points: 4
#     Node 16, Type 0, BuildingBlock: TATPOV_clean_sbu_0, # of connection points: 4
#     Node 17, Type 0, BuildingBlock: TATPOV_clean_sbu_0, # of connection points: 4
#     Node 18, Type 0, BuildingBlock: TATPOV_clean_sbu_0, # of connection points: 4
#     Node 19, Type 0, BuildingBlock: TATPOV_clean_sbu_0, # of connection points: 4
#     Node 20, Type 0, BuildingBlock: TATPOV_clean_sbu_0, # of connection points: 4
#     Node 21, Type 0, BuildingBlock: TATPOV_clean_sbu_0, # of connection points: 4
#     Node 22, Type 0, BuildingBlock: TATPOV_clean_sbu_0, # of connection points: 4
#     Node 23, Type 0, BuildingBlock: TATPOV_clean_sbu_0, # of connection points: 4
#     Node 24, Type 0, BuildingBlock: TATPOV_clean_sbu_0, # of connection points: 4
#     Node 25, Type 0, BuildingBlock: TATPOV_clean_sbu_0, # of connection points: 4
#     Node 26, Type 0, BuildingBlock: TATPOV_clean_sbu_0, # of connection points: 4
#     Node 27, Type 0, BuildingBlock: TATPOV_clean_sbu_0, # of connection points: 4
#     Node 28, Type 0, BuildingBlock: TATPOV_clean_sbu_0, # of connection points: 4
#     Node 29, Type 0, BuildingBlock: TATPOV_clean_sbu_0, # of connection points: 4
#     Node 30, Type 0, BuildingBlock: TATPOV_clean_sbu_0, # of connection points: 4
#     Node 31, Type 0, BuildingBlock: TATPOV_clean_sbu_0, # of connection points: 4
#     Node 32, Type 0, BuildingBlock: TATPOV_clean_sbu_0, # of connection points: 4
#     Node 33, Type 0, BuildingBlock: TATPOV_clean_sbu_0, # of connection points: 4
#     Node 34, Type 0, BuildingBlock: TATPOV_clean_sbu_0, # of connection points: 4
#     Node 35, Type 0, BuildingBlock: TATPOV_clean_sbu_0, # of connection points: 4
#     Edge 36, Type (0, 0), None
#     Edge 37, Type (0, 0), None
#     Edge 38, Type (0, 0), None
#     Edge 39, Type (0, 0), None
#     Edge 40, Type (0, 0), None
#     Edge 41, Type (0, 0), None
#     Edge 42, Type (0, 0), None
#     Edge 43, Type (0, 0), None
#     Edge 44, Type (0, 0), None
#     Edge 45, Type (0, 0), None
#     Edge 46, Type (0, 0), None
#     Edge 47, Type (0, 0), None
#     Edge 48, Type (0, 0), None
#     Edge 49, Type (0, 0), None
#     Edge 50, Type (0, 0), None
#     Edge 51, Type (0, 0), None
#     Edge 52, Type (0, 0), None
#     Edge 53, Type (0, 0), None
#     Edge 54, Type (0, 0), None
#     Edge 55, Type (0, 0), None
#     Edge 56, Type (0, 0), None
#     Edge 57, Type (0, 0), None
#     Edge 58, Type (0, 0), None
#     Edge 59, Type (0, 0), None
#     Edge 60, Type (0, 0), None
#     Edge 61, Type (0, 0), None
#     Edge 62, Type (0, 0), None
#     Edge 63, Type (0, 0), None
#     Edge 64, Type (0, 0), None
#     Edge 65, Type (0, 0), None
#     Edge 66, Type (0, 0), None
#     Edge 67, Type (0, 0), None
#     Edge 68, Type (0, 0), None
#     Edge 69, Type (0, 0), None
#     Edge 70, Type (0, 0), None
#     Edge 71, Type (0, 0), None
#     Edge 72, Type (0, 0), None
#     Edge 73, Type (0, 0), None
#     Edge 74, Type (0, 0), None
#     Edge 75, Type (0, 0), None
#     Edge 76, Type (0, 0), None
#     Edge 77, Type (0, 0), None
#     Edge 78, Type (0, 0), None
#     Edge 79, Type (0, 0), None
#     Edge 80, Type (0, 0), None
#     Edge 81, Type (0, 0), None
#     Edge 82, Type (0, 0), None
#     Edge 83, Type (0, 0), None
#     Edge 84, Type (0, 0), None
#     Edge 85, Type (0, 0), None
#     Edge 86, Type (0, 0), None
#     Edge 87, Type (0, 0), None
#     Edge 88, Type (0, 0), None
#     Edge 89, Type (0, 0), None
#     Edge 90, Type (0, 0), None
#     Edge 91, Type (0, 0), None
#     Edge 92, Type (0, 0), None
#     Edge 93, Type (0, 0), None
#     Edge 94, Type (0, 0), None
#     Edge 95, Type (0, 0), None
#     Edge 96, Type (0, 0), None
#     Edge 97, Type (0, 0), None
#     Edge 98, Type (0, 0), None
#     Edge 99, Type (0, 0), None
#     Edge 100, Type (0, 0), None
#     Edge 101, Type (0, 0), None
#     Edge 102, Type (0, 0), None
#     Edge 103, Type (0, 0), None
#     Edge 104, Type (0, 0), None
#     Edge 105, Type (0, 0), None
#     Edge 106, Type (0, 0), None
#     Edge 107, Type (0, 0), None
# Relax obj value: 0.030
# Max RMSD: 0.055
# Mean RMSD: 0.055
data_MOF--net-ato--node1-TATPOV_clean_sbu_0--edge1-none
_symmetry_space_group_name_H-M    P1
_symmetry_Int_Tables_number       1
_symmetry_cell_setting            triclinic
loop_
_symmetry_equiv_pos_as_xyz
'x, y, z'
_cell_length_a     46.73275
_cell_length_b     47.111325
_cell_length_c     11.098069
_cell_angle_alpha  91.667769
_cell_angle_beta   88.729647
_cell_angle_gamma 120.27304
loop_
_atom_site_label
_atom_site_type_symbol
_atom_site_fract_x
_atom_site_fract_y
_atom_site_fract_z
_atom_type_partial_charge
Zn0 Zn 0.21332 0.03871 0.02954 0.0
Zn1 Zn 0.20219 0.02092 0.25437 0.0
O2 O 0.21097 0.06654 0.29454 0.0
O3 O 0.22753 0.08299 0.10862 0.0
O4 O 0.19286 -0.00248 0.41258 0.0
O5 O 0.16652 0.0113 0.97499 0.0
O6 O 0.15823 -0.00377 0.16463 0.0
C7 C 0.22342 0.08915 0.21758 0.0
C8 C 0.26167 0.02789 0.08994 0.0
O9 O 0.24599 0.0254 0.18851 0.0
O10 O 0.24912 0.02844 0.99096 0.0
C11 C 0.17612 0.00185 0.49544 0.0
O12 O 0.16531 0.02233 0.47925 0.0
C13 C 0.14714 -0.00499 0.05962 0.0
Zn14 Zn 0.86226 0.14339 0.04447 0.0
Zn15 Zn 0.88718 0.1648 0.28054 0.0
O16 O 0.86368 0.11428 0.29043 0.0
O17 O 0.84795 0.09854 0.10245 0.0
O18 O 0.9116 0.18311 0.44183 0.0
O19 O 0.90622 0.16868 0.9705 0.0
O20 O 0.92404 0.18648 0.15594 0.0
C21 C 0.85017 0.09167 0.20981 0.0
C22 C 0.83954 0.18339 0.1721 0.0
O23 O 0.8559 0.18303 0.26206 0.0
O24 O 0.83827 0.16832 0.07433 0.0
C25 C 0.94034 0.18752 0.46338 0.0
O26 O 0.95565 0.17948 0.38053 0.0
C27 C 0.92904 0.18691 0.04257 0.0
Zn28 Zn 0.72363 0.67664 0.06446 0.0
Zn29 Zn 0.73438 0.70607 0.2747 0.0
O30 O 0.78383 0.7252 0.22959 0.0
O31 O 0.77238 0.6999 0.05164 0.0
O32 O 0.73022 0.72545 0.43821 0.0
O33 O 0.70116 0.69546 0.98301 0.0
O34 O 0.71157 0.72166 0.15921 0.0
C35 C 0.7933 0.71873 0.12904 0.0
C36 C 0.70185 0.6302 0.23648 0.0
O37 O 0.71422 0.65638 0.30189 0.0
O38 O 0.70002 0.63144 0.1237 0.0
C39 C 0.70335 0.72492 0.46747 0.0
O40 O 0.67832 0.71161 0.39266 0.0
C41 C 0.70039 0.71671 0.05227 0.0
Zn42 Zn 0.02402 0.25444 0.97689 0.0
Zn43 Zn 0.00778 0.226 0.76673 0.0
O44 O 0.04022 0.20966 0.8059 0.0
O45 O 0.05213 0.23438 0.98486 0.0
O46 O -0.01486 0.20607 0.60352 0.0
O47 O -0.01777 0.23201 0.06294 0.0
O48 O -0.03136 0.20609 0.88615 0.0
C49 C 0.05565 0.21649 0.90569 0.0
C50 C 0.04731 0.30254 0.81154 0.0
O51 O 0.03508 0.27674 0.74366 0.0
O52 O 0.04379 0.30015 0.9245 0.0
C53 C 0.9566 0.20197 0.58012 0.0
O54 O 0.9416 0.211 0.66076 0.0
C55 C 0.96144 0.20945 0.99506 0.0
Zn56 Zn 0.65895 0.77498 1.01334 0.0
Zn57 Zn 0.66525 0.75537 0.77494 0.0
O58 O 0.69113 0.80561 0.7652 0.0
O59 O 0.68752 0.82027 0.95343 0.0
O60 O 0.67301 0.73834 0.61206 0.0
O61 O 0.68033 0.7527 0.08249 0.0
O62 O 0.68232 0.73592 0.89566 0.0
C63 C 0.69829 0.8277 0.84664 0.0
C64 C 0.59725 0.73405 0.88735 0.0
O65 O 0.61504 0.7358 0.79578 0.0
O66 O 0.61007 0.74802 0.98673 0.0
C67 C 0.69989 0.73871 0.58453 0.0
O68 O 0.72437 0.75104 0.66169 0.0
C69 C 0.68707 0.7361 1.00828 0.0
Zn70 Zn 0.10696 0.92319 0.06933 0.0
Zn71 Zn 0.13221 0.95408 0.82364 0.0
O72 O 0.10306 0.90893 0.75412 0.0
O73 O 0.08251 0.88876 0.93493 0.0
O74 O 0.14895 -0.01446 0.68569 0.0
O75 O 0.09412 0.95794 0.12497 0.0
O76 O 0.10257 0.96174 0.93419 0.0
C77 C 0.0835 0.88532 0.82083 0.0
C78 C 0.17623 0.94337 1.00314 0.0
O79 O 0.17026 0.95265 0.90438 0.0
O80 O 0.15456 0.93175 0.08693 0.0
C81 C 0.16681 -0.01776 0.6048 0.0
O82 O 0.17495 0.95953 0.61575 0.0
C83 C 0.11166 -0.0252 0.03781 0.0
Zn84 Zn 0.69074 0.88087 1.01702 0.0
Zn85 Zn 0.69109 0.9054 0.76886 0.0
O86 O 0.70273 0.8699 0.73468 0.0
O87 O 0.7268 0.88208 0.90639 0.0
O88 O 0.69887 0.92845 0.60715 0.0
O89 O 0.70769 0.92557 0.08598 0.0
O90 O 0.71865 0.94184 0.89615 0.0
C91 C 0.71565 0.86243 0.81751 0.0
C92 C 0.62595 0.85829 0.89437 0.0
O93 O 0.6415 0.87867 0.81028 0.0
O94 O 0.64114 0.8544 0.97996 0.0
C95 C 0.71541 0.9595 0.5932 0.0
O96 O 0.72684 -0.02077 0.68797 0.0
C97 C 0.72223 0.94803 1.00965 0.0
Zn98 Zn 0.0219 0.79195 0.85972 0.0
Zn99 Zn 0.00909 0.79359 0.65984 0.0
O100 O 0.04175 0.84285 0.69876 0.0
O101 O 0.06609 0.83068 0.83848 0.0
O102 O -0.00749 0.78695 0.48689 0.0
O103 O -0.01202 0.80007 0.93608 0.0
O104 O -0.03315 0.7781 0.7602 0.0
C105 C 0.0651 0.85181 0.77426 0.0
C106 C 0.03123 0.74719 0.76161 0.0
O107 O 0.03163 0.76519 0.67652 0.0
O108 O 0.01847 0.74804 0.86212 0.0
C109 C -0.03385 0.78721 0.46138 0.0
O110 O 0.95095 0.79498 0.54547 0.0
C111 C 0.96336 0.78642 0.86723 0.0
Zn112 Zn 0.1421 0.22691 0.0596 0.0
Zn113 Zn 0.13405 0.19282 0.8556 0.0
O114 O 0.0902 0.19359 0.85355 0.0
O115 O 0.09991 0.22407 1.01902 0.0
O116 O 0.13646 0.16788 0.70819 0.0
O117 O 0.1441 0.19637 0.17133 0.0
O118 O 0.14833 0.17565 0.99581 0.0
C119 C 0.08217 0.20951 0.9281 0.0
C120 C 0.19015 0.26297 0.88213 0.0
O121 O 0.17116 0.23787 0.81827 0.0
O122 O 0.18471 0.26423 0.99375 0.0
C123 C 0.16478 0.17093 0.68721 0.0
O124 O 0.18861 0.18691 0.76571 0.0
C125 C 0.15146 0.17795 0.11009 0.0
Zn126 Zn 0.8724 0.71486 0.95696 0.0
Zn127 Zn 0.89682 0.746 0.17235 0.0
O128 O 0.85044 0.74147 0.18124 0.0
O129 O 0.83227 0.71606 1.00546 0.0
O130 O 0.92142 0.76998 0.32495 0.0
O131 O 0.90699 0.74949 0.85921 0.0
O132 O 0.92883 0.77108 0.03646 0.0
C133 C 0.82757 0.72763 0.10325 0.0
C134 C 0.88652 0.67753 0.11443 0.0
O135 O 0.89297 0.70154 0.18628 0.0
O136 O 0.87789 0.67729 1.00706 0.0
C137 C 0.95036 0.77472 0.34341 0.0
O138 O -0.03555 0.765 0.2614 0.0
C139 C 0.93076 0.77066 0.92182 0.0
Zn140 Zn 0.23603 0.17884 0.16275 0.0
Zn141 Zn 0.2177 0.17236 0.36667 0.0
O142 O 0.21361 0.1274 0.32872 0.0
O143 O 0.24749 0.14415 0.1722 0.0
O144 O 0.20293 0.17268 0.53931 0.0
O145 O 0.19266 0.16454 0.08848 0.0
O146 O 0.18405 0.17825 0.27011 0.0
C147 C 0.23003 0.12213 0.24672 0.0
C148 C 0.28458 0.22987 0.27572 0.0
O149 O 0.26715 0.20995 0.35853 0.0
O150 O 0.27231 0.22596 0.17208 0.0
C151 C 0.17275 0.16223 0.56817 0.0
O152 O 0.14967 0.14831 0.48588 0.0
C153 C 0.17498 0.17026 0.16105 0.0
Zn154 Zn 0.79711 0.04661 0.03081 0.0
Zn155 Zn 0.76795 0.02476 0.29768 0.0
O156 O 0.8174 0.04887 0.33612 0.0
O157 O 0.82216 0.03649 0.15375 0.0
O158 O 0.74499 0.00376 0.45755 0.0
O159 O 0.76054 0.00342 0.97506 0.0
O160 O 0.74815 -0.01229 0.166 0.0
C161 C 0.83434 0.05688 0.24026 0.0
C162 C 0.76535 0.08032 0.16571 0.0
O163 O 0.7585 0.06111 0.2545 0.0
O164 O 0.78059 0.07864 0.07209 0.0
C165 C 0.72544 0.97301 0.4712 0.0
O166 O 0.71737 0.95289 0.37743 0.0
C167 C 0.74462 -0.01852 0.05237 0.0
Zn168 Zn 0.92913 0.39315 0.34103 0.0
Zn169 Zn 0.91639 0.37779 0.55952 0.0
O170 O 0.90955 0.41732 0.58039 0.0
O171 O 0.92063 0.4288 0.38827 0.0
O172 O 0.90414 0.35591 0.726 0.0
O173 O 0.89582 0.35569 0.25037 0.0
O174 O 0.88296 0.34142 0.44024 0.0
C175 C 0.91413 0.43582 0.49234 0.0
C176 C -0.01264 0.40972 0.43789 0.0
O177 O -0.03233 0.39952 0.52921 0.0
O178 O -0.02386 0.40611 0.33276 0.0
C179 C 0.88454 0.32523 0.74226 0.0
O180 O 0.87257 0.30515 0.64862 0.0
C181 C 0.87707 0.33539 0.3275 0.0
Zn182 Zn 0.5631 0.47819 0.54178 0.0
Zn183 Zn 0.57776 0.48008 0.74278 0.0
O184 O 0.54829 0.43048 0.70309 0.0
O185 O 0.5191 0.43897 0.57298 0.0
O186 O 0.59314 0.48672 0.9157 0.0
O187 O 0.59874 0.47103 0.47395 0.0
O188 O 0.62001 0.49749 0.64399 0.0
C189 C 0.52342 0.41924 0.63381 0.0
C190 C 0.55733 0.52665 0.63868 0.0
O191 O 0.55574 0.50883 0.7263 0.0
O192 O 0.5677 0.52272 0.53723 0.0
C193 C 0.6198 0.48739 0.94254 0.0
O194 O 0.63597 0.48061 0.85922 0.0
C195 C 0.62369 0.48796 0.53936 0.0
Zn196 Zn 0.4469 0.05303 0.31391 0.0
Zn197 Zn 0.45295 0.08451 0.51821 0.0
O198 O 0.49962 0.08944 0.51068 0.0
O199 O 0.49183 0.06198 0.33861 0.0
O200 O 0.44823 0.10745 0.66854 0.0
O201 O 0.43862 0.07941 0.20377 0.0
O202 O 0.43427 0.09903 0.38174 0.0
C203 C 0.50961 0.07679 0.42901 0.0
C204 C 0.40461 0.01172 0.494 0.0
O205 O 0.4211 0.0376 0.55778 0.0
O206 O 0.40889 0.01178 0.38112 0.0
C207 C 0.41912 0.10234 0.69055 0.0
O208 O 0.39545 0.08509 0.61273 0.0
C209 C 0.43006 0.09641 0.26784 0.0
Zn210 Zn 0.71192 0.56315 0.4414 0.0
Zn211 Zn 0.68817 0.53151 0.2303 0.0
O212 O 0.73414 0.53606 0.2183 0.0
O213 O 0.75246 0.56324 0.39075 0.0
O214 O 0.66448 0.50693 0.07902 0.0
O215 O 0.67904 0.52818 0.54182 0.0
O216 O 0.65691 0.50512 0.3665 0.0
C217 C 0.75716 0.55103 0.29464 0.0
C218 C 0.69725 0.59995 0.28633 0.0
O219 O 0.69141 0.57601 0.21475 0.0
O220 O 0.7053 0.60013 0.39443 0.0
C221 C 0.63495 0.50028 0.06069 0.0
O222 O 0.61969 0.5087 0.14246 0.0
C223 C 0.65569 0.50574 0.48128 0.0
Zn224 Zn 0.34573 0.0952 0.21222 0.0
Zn225 Zn 0.36456 0.10172 1.00753 0.0
O226 O 0.36854 0.14674 0.04376 0.0
O227 O 0.33442 0.13 0.19969 0.0
O228 O 0.38031 0.10075 0.83601 0.0
O229 O 0.3883 0.10907 0.29111 0.0
O230 O 0.39755 0.09618 0.10862 0.0
C231 C 0.35205 0.15205 0.1254 0.0
C232 C 0.29781 0.04409 0.0973 0.0
O233 O 0.31516 0.06414 1.01471 0.0
O234 O 0.31002 0.04799 0.20097 0.0
C235 C 0.4106 0.11104 0.80888 0.0
O236 O 0.43342 0.12539 0.89188 0.0
C237 C 0.4061 0.10359 0.2184 0.0
Zn238 Zn 0.79512 0.24034 0.30831 0.0
Zn239 Zn 0.82576 0.26173 0.0374 0.0
O240 O 0.77641 0.2393 0.99755 0.0
O241 O 0.77242 0.25167 0.18032 0.0
O242 O 0.85047 0.28252 0.87885 0.0
O243 O 0.83208 0.283 0.36409 0.0
O244 O 0.84695 0.29731 0.17272 0.0
C245 C 0.75995 0.23112 0.09443 0.0
C246 C 0.8269 0.20602 0.17326 0.0
O247 O 0.8333 0.22445 0.08234 0.0
O248 O 0.81237 0.20861 0.26756 0.0
C249 C 0.8725 0.31265 0.8646 0.0
O250 O 0.88218 0.3331 0.95769 0.0
C251 C 0.84996 0.30394 0.28618 0.0
Zn252 Zn 0.36909 0.23549 0.34337 0.0
Zn253 Zn 0.38091 0.25365 0.12142 0.0
O254 O 0.37183 0.20794 0.07915 0.0
O255 O 0.35453 0.19111 0.26405 0.0
O256 O 0.39072 0.27771 0.9646 0.0
O257 O 0.41578 0.26222 0.40081 0.0
O258 O 0.42513 0.27794 0.21206 0.0
C259 C 0.35887 0.1851 0.15514 0.0
C260 C 0.32078 0.24621 0.28364 0.0
O261 O 0.33668 0.24889 0.18545 0.0
O262 O 0.33323 0.24568 0.38289 0.0
C263 C 0.40507 0.27154 0.87765 0.0
O264 O 0.41289 0.24859 0.88839 0.0
C265 C 0.43573 0.27852 0.31746 0.0
Zn266 Zn 0.73178 0.14476 0.29476 0.0
Zn267 Zn 0.70677 0.12334 0.05849 0.0
O268 O 0.73068 0.17369 0.04481 0.0
O269 O 0.74637 0.18944 0.2326 0.0
O270 O 0.68252 0.10477 0.89798 0.0
O271 O 0.68777 0.12065 0.36899 0.0
O272 O 0.66988 0.10282 0.18359 0.0
C273 C 0.74431 0.19632 0.12508 0.0
C274 C 0.75291 0.10315 0.16832 0.0
O275 O 0.73718 0.10427 0.07784 0.0
O276 O 0.75444 0.11831 0.26615 0.0
C277 C 0.65377 0.10029 0.87671 0.0
O278 O 0.63849 0.10836 0.95953 0.0
C279 C 0.66481 0.10278 0.29682 0.0
Zn280 Zn 0.86025 0.60202 0.33625 0.0
Zn281 Zn 0.85048 0.57173 0.12984 0.0
O282 O 0.80081 0.55201 0.17181 0.0
O283 O 0.81214 0.58023 0.34384 0.0
O284 O 0.85703 0.5525 0.96789 0.0
O285 O 0.88001 0.58343 0.43242 0.0
O286 O 0.87311 0.55849 0.25442 0.0
C287 C 0.79135 0.56012 0.26899 0.0
C288 C 0.8824 0.64751 0.16397 0.0
O289 O 0.86934 0.62107 0.10005 0.0
O290 O 0.88539 0.6468 0.27632 0.0
C291 C 0.88253 0.54977 0.94506 0.0
O292 O 0.90533 0.55868 0.02776 0.0
C293 C 0.88234 0.56291 0.36406 0.0
Zn294 Zn 0.56966 0.03511 0.36107 0.0
Zn295 Zn 0.58653 0.06215 0.5745 0.0
O296 O 0.55282 0.07728 0.54421 0.0
O297 O 0.54206 0.05575 0.36024 0.0
O298 O 0.60895 0.08159 0.73743 0.0
O299 O 0.61147 0.05813 0.27602 0.0
O300 O 0.62539 0.08338 0.45403 0.0
C301 C 0.53778 0.07195 0.44438 0.0
C302 C 0.54862 -0.01403 0.52344 0.0
O303 O 0.56127 0.01134 0.59351 0.0
O304 O 0.55019 -0.01097 0.41054 0.0
C305 C 0.63758 0.0859 0.7601 0.0
O306 O 0.65274 0.0773 0.67862 0.0
C307 C 0.63234 0.0805 0.34427 0.0
Zn308 Zn 0.94232 0.53111 0.41894 0.0
Zn309 Zn 0.92829 0.53057 0.62829 0.0
O310 O 0.91294 0.48047 0.60216 0.0
O311 O 0.93559 0.48779 0.42131 0.0
O312 O 0.91439 0.53822 0.79964 0.0
O313 O 0.90994 0.53446 0.32963 0.0
O314 O 0.90551 0.54804 0.5185 0.0
C315 C 0.92011 0.46916 0.50742 0.0
C316 C -0.00113 0.57402 0.52893 0.0
O317 O -0.01984 0.55921 0.61908 0.0
O318 O -0.01303 0.56911 0.42468 0.0
C319 C 0.88795 0.53916 0.82381 0.0
O320 O 0.86659 0.53296 0.73787 0.0
C321 C 0.89896 0.5467 0.40665 0.0
Zn322 Zn 0.48933 0.35567 0.3305 0.0
Zn323 Zn 0.4521 0.31969 0.55359 0.0
O324 O 0.48144 0.36383 0.62934 0.0
O325 O 0.51719 0.38371 0.47625 0.0
O326 O 0.43174 0.28705 0.68674 0.0
O327 O 0.48986 0.31483 0.25671 0.0
O328 O 0.4804 0.30975 0.44679 0.0
C329 C 0.50846 0.38606 0.58417 0.0
C330 C 0.42035 0.34343 0.37847 0.0
O331 O 0.41816 0.32558 0.46658 0.0
O332 O 0.44653 0.35783 0.31412 0.0
C333 C 0.41564 0.29198 0.77039 0.0
O334 O 0.41111 0.31726 0.76519 0.0
C335 C 0.47125 0.29787 0.34171 0.0
Zn336 Zn 0.49661 0.68912 0.7548 0.0
Zn337 Zn 0.49818 0.66291 1.00425 0.0
O338 O 0.48222 0.6953 0.04284 0.0
O339 O 0.46016 0.68508 0.86816 0.0
O340 O 0.49317 0.63927 0.1611 0.0
O341 O 0.48615 0.64549 0.68852 0.0
O342 O 0.47846 0.62586 0.87351 0.0
C343 C 0.47094 0.70419 0.95876 0.0
C344 C 0.56143 0.71352 0.88245 0.0
O345 O 0.5466 0.69279 0.96576 0.0
O346 O 0.54593 0.71704 0.79686 0.0
C347 C 0.50801 0.62405 0.19005 0.0
O348 O 0.53018 0.62355 0.11663 0.0
C349 C 0.47735 0.62175 0.75887 0.0
Zn350 Zn 0.21655 0.89788 0.87573 0.0
Zn351 Zn 0.229 0.88964 0.06921 0.0
O352 O 0.19642 0.84119 0.02427 0.0
O353 O 0.17415 0.85593 0.88424 0.0
O354 O 0.24753 0.89295 0.23755 0.0
O355 O 0.2496 0.89457 0.7769 0.0
O356 O 0.27056 0.90509 0.95933 0.0
C357 C 0.17442 0.83368 0.94434 0.0
C358 C 0.20353 0.93643 1.00147 0.0
O359 O 0.20304 0.91567 0.07457 0.0
O360 O 0.21914 0.94101 0.90312 0.0
C361 C 0.26848 0.88397 0.25913 0.0
O362 O 0.27689 0.86979 0.17306 0.0
C363 C 0.27336 0.90165 0.84586 0.0
Zn364 Zn 0.12247 0.3751 0.60448 0.0
Zn365 Zn 0.13331 0.4025 0.83511 0.0
O366 O 0.17477 0.39812 0.81773 0.0
O367 O 0.16352 0.37515 0.63528 0.0
O368 O 0.13349 0.4225 1.00221 0.0
O369 O 0.12686 0.41432 0.53219 0.0
O370 O 0.13283 0.43433 0.71811 0.0
C371 C 0.18202 0.38581 0.72653 0.0
C372 C 0.07217 0.33421 0.76342 0.0
O373 O 0.09111 0.35701 0.83721 0.0
O374 O 0.07884 0.33638 0.65189 0.0
C375 C 0.12014 0.44002 0.02471 0.0
O376 O 0.10625 0.44686 0.93726 0.0
C377 C 0.13115 0.43712 0.60519 0.0
Zn378 Zn 0.36749 0.93656 0.74439 0.0
Zn379 Zn 0.33875 0.90755 0.54138 0.0
O380 O 0.37098 0.88923 0.55588 0.0
O381 O 0.39027 0.91132 0.73495 0.0
O382 O 0.30923 0.88678 0.39381 0.0
O383 O 0.33052 0.92393 0.85478 0.0
O384 O 0.30605 0.90194 0.68092 0.0
C385 C 0.39009 0.89433 0.64441 0.0
C386 C 0.38436 -0.01907 0.55416 0.0
O387 O 0.36656 0.95487 0.49264 0.0
O388 O 0.38786 -0.02003 0.66627 0.0
C389 C 0.28631 0.89326 0.37465 0.0
O390 O 0.2811 0.91158 0.45331 0.0
C391 C 0.30468 0.90863 0.79271 0.0
Zn392 Zn 0.07954 0.47989 0.57123 0.0
Zn393 Zn 0.09274 0.47635 0.34685 0.0
O394 O 0.10918 0.52694 0.3658 0.0
O395 O 0.09074 0.52508 0.5518 0.0
O396 O 0.10329 0.46664 0.17394 0.0
O397 O 0.11388 0.47441 0.64295 0.0
O398 O 0.11581 0.45984 0.45408 0.0
C399 C 0.10539 0.54125 0.45925 0.0
C400 C 0.0229 0.43184 0.45543 0.0
O401 O 0.04199 0.44507 0.36455 0.0
O402 O 0.03342 0.44149 0.56114 0.0
C403 C 0.1177 0.45015 0.14987 0.0
O404 O 0.12822 0.43988 0.23804 0.0
C405 C 0.12337 0.4611 0.56434 0.0
Zn406 Zn 0.47705 0.5359 0.70109 0.0
Zn407 Zn 0.49581 0.56248 0.48712 0.0
O408 O 0.45717 0.51869 0.42652 0.0
O409 O 0.44691 0.49565 0.60439 0.0
O410 O 0.51298 0.59006 0.3353 0.0
O411 O 0.46451 0.56694 0.77598 0.0
O412 O 0.4859 0.59147 0.6042 0.0
C413 C 0.4425 0.49343 0.4916 0.0
C414 C 0.53762 0.54287 0.64282 0.0
O415 O 0.53092 0.55138 0.54361 0.0
O416 O 0.52034 0.53945 0.73638 0.0
C417 C 0.49854 0.60538 0.30243 0.0
O418 O 0.47371 0.60324 0.36724 0.0
C419 C 0.47371 0.59118 0.70848 0.0
Zn420 Zn 0.09933 0.61086 0.62755 0.0
Zn421 Zn 0.10032 0.62984 0.41232 0.0
O422 O 0.10705 0.5894 0.39287 0.0
O423 O 0.1232 0.58799 0.57498 0.0
O424 O 0.10842 0.65073 0.24693 0.0
O425 O 0.12319 0.65263 0.71387 0.0
O426 O 0.12466 0.66984 0.53023 0.0
C427 C 0.11672 0.57635 0.46879 0.0
C428 C 0.0348 0.59271 0.53815 0.0
O429 O 0.05154 0.6094 0.44786 0.0
O430 O 0.04892 0.5882 0.62564 0.0
C431 C 0.09629 0.66845 0.21744 0.0
O432 O 0.07702 0.67295 0.29393 0.0
C433 C 0.1307 0.67575 0.64275 0.0
Zn434 Zn 0.38666 0.39732 0.50348 0.0
Zn435 Zn 0.37313 0.40177 0.31229 0.0
O436 O 0.4017 0.45097 0.36412 0.0
O437 O 0.42894 0.43905 0.49269 0.0
O438 O 0.3554 0.39774 0.14295 0.0
O439 O 0.3527 0.40014 0.59753 0.0
O440 O 0.33087 0.38004 0.41949 0.0
C441 C 0.42501 0.46024 0.43989 0.0
C442 C 0.3973 0.35584 0.37949 0.0
O443 O 0.40049 0.37748 0.30522 0.0
O444 O 0.38194 0.35316 0.47702 0.0
C445 C 0.32982 0.39984 0.12259 0.0
O446 O 0.3157 0.40741 0.21149 0.0
C447 C 0.32771 0.38536 0.53116 0.0
Zn448 Zn 0.48274 0.90791 0.73646 0.0
Zn449 Zn 0.47205 0.8811 0.51421 0.0
O450 O 0.427 0.87981 0.54058 0.0
O451 O 0.43711 0.89934 0.72747 0.0
O452 O 0.47172 0.85986 0.34878 0.0
O453 O 0.48962 0.8755 0.81402 0.0
O454 O 0.48073 0.85326 0.63086 0.0
C455 C 0.41799 0.88839 0.63784 0.0
C456 C 0.52677 0.95345 0.57241 0.0
O457 O 0.51007 0.92916 0.50034 0.0
O458 O 0.52073 0.9509 0.68433 0.0
C459 C 0.49314 0.85131 0.32261 0.0
O460 O 0.51559 0.85619 0.4024 0.0
C461 C 0.4869 0.85312 0.74208 0.0
Zn462 Zn 0.23232 0.33537 0.63326 0.0
Zn463 Zn 0.25905 0.3674 0.83593 0.0
O464 O 0.22816 0.38582 0.81576 0.0
O465 O 0.207 0.35817 0.64577 0.0
O466 O 0.28627 0.38861 0.98723 0.0
O467 O 0.27035 0.35201 0.5263 0.0
O468 O 0.29307 0.37789 0.69804 0.0
C469 C 0.20807 0.37763 0.72871 0.0
C470 C 0.21399 0.2925 0.82103 0.0
O471 O 0.22997 0.31937 0.88063 0.0
O472 O 0.21357 0.2921 0.7073 0.0
C473 C 0.31366 0.38965 1.00425 0.0
O474 O 0.32552 0.37809 0.92028 0.0
C475 C 0.29542 0.37168 0.58659 0.0
Zn476 Zn 0.52712 0.79396 0.77091 0.0
Zn477 Zn 0.52159 0.81188 1.01053 0.0
O478 O 0.49589 0.76105 1.01652 0.0
O479 O 0.50073 0.74771 0.82761 0.0
O480 O 0.51556 0.82906 0.17701 0.0
O481 O 0.50243 0.81373 0.70694 0.0
O482 O 0.50306 0.83107 0.89471 0.0
C483 C 0.48953 0.73941 0.93356 0.0
C484 C 0.58983 0.83763 0.88947 0.0
O485 O 0.57219 0.83332 0.98423 0.0
O486 O 0.57664 0.82405 0.78992 0.0
C487 C 0.49364 0.83697 0.20277 0.0
O488 O 0.47209 0.83326 0.12092 0.0
C489 C 0.49626 0.83022 0.78373 0.0
Zn490 Zn 0.11978 0.75446 0.69779 0.0
Zn491 Zn 0.1066 0.72932 0.91512 0.0
O492 O 0.14315 0.77535 0.96628 0.0
O493 O 0.1463 0.79671 0.78886 0.0
O494 O 0.09307 0.70293 0.07067 0.0
O495 O 0.13924 0.72887 0.62542 0.0
O496 O 0.12079 0.70403 0.79858 0.0
C497 C 0.15367 0.80016 0.89941 0.0
C498 C 0.05587 0.73671 0.7593 0.0
O499 O 0.0662 0.73263 0.85962 0.0
O500 O 0.07308 0.7418 0.6644 0.0
C501 C 0.10516 0.6852 0.1008 0.0
O502 O 0.1268 0.68301 0.02958 0.0
C503 C 0.13356 0.70574 0.69434 0.0
loop_
_geom_bond_atom_site_label_1
_geom_bond_atom_site_label_2
_geom_bond_distance
_geom_bond_site_symmetry_2
_ccdc_geom_bond_type
Zn0 O3 2.031 . S
Zn0 O5 2.049 1_554 S
Zn0 O10 2.067 . S
Zn1 O2 1.962 . S
Zn1 O4 1.986 . S
Zn1 O6 1.996 . S
Zn1 O9 1.943 . S
O2 Zn1 1.962 . S
O2 C7 1.254 . S
O3 Zn0 2.031 . S
O3 C7 1.269 . S
O4 Zn1 1.986 . S
O4 C11 1.262 . S
O5 Zn0 2.049 1_556 S
O5 C13 1.260 1_556 S
O6 Zn1 1.996 . S
O6 C13 1.257 . S
C7 O2 1.254 . S
C7 O3 1.269 . S
C8 O9 1.249 . S
C8 O10 1.270 . S
O9 Zn1 1.943 . S
O9 C8 1.249 . S
O10 Zn0 2.067 . S
O10 C8 1.270 . S
C11 O4 1.262 . S
C11 O12 1.232 . S
O12 C11 1.232 . S
C13 O5 1.260 1_554 S
C13 O6 1.257 . S
Zn14 O17 2.031 . S
Zn14 O19 2.049 1_554 S
Zn14 O24 2.067 . S
Zn15 O16 1.962 . S
Zn15 O18 1.986 . S
Zn15 O20 1.996 . S
Zn15 O23 1.943 . S
O16 Zn15 1.962 . S
O16 C21 1.254 . S
O17 Zn14 2.031 . S
O17 C21 1.269 . S
O18 Zn15 1.986 . S
O18 C25 1.262 . S
O19 Zn14 2.049 1_556 S
O19 C27 1.260 1_556 S
O20 Zn15 1.996 . S
O20 C27 1.257 . S
C21 O16 1.254 . S
C21 O17 1.269 . S
C22 O23 1.249 . S
C22 O24 1.270 . S
O23 Zn15 1.943 . S
O23 C22 1.249 . S
O24 Zn14 2.067 . S
O24 C22 1.270 . S
C25 O18 1.262 . S
C25 O26 1.232 . S
O26 C25 1.232 . S
C27 O19 1.260 1_554 S
C27 O20 1.257 . S
Zn28 O31 2.031 . S
Zn28 O33 2.049 1_554 S
Zn28 O38 2.067 . S
Zn29 O30 1.962 . S
Zn29 O32 1.986 . S
Zn29 O34 1.996 . S
Zn29 O37 1.943 . S
O30 Zn29 1.962 . S
O30 C35 1.254 . S
O31 Zn28 2.031 . S
O31 C35 1.269 . S
O32 Zn29 1.986 . S
O32 C39 1.262 . S
O33 Zn28 2.049 1_556 S
O33 C41 1.260 1_556 S
O34 Zn29 1.996 . S
O34 C41 1.257 . S
C35 O30 1.254 . S
C35 O31 1.269 . S
C36 O37 1.249 . S
C36 O38 1.270 . S
O37 Zn29 1.943 . S
O37 C36 1.249 . S
O38 Zn28 2.067 . S
O38 C36 1.270 . S
C39 O32 1.262 . S
C39 O40 1.232 . S
O40 C39 1.232 . S
C41 O33 1.260 1_554 S
C41 O34 1.257 . S
Zn42 O45 2.031 . S
Zn42 O47 2.049 1_556 S
Zn42 O52 2.067 . S
Zn43 O44 1.962 . S
Zn43 O46 1.986 . S
Zn43 O48 1.996 . S
Zn43 O51 1.943 . S
O44 Zn43 1.962 . S
O44 C49 1.254 . S
O45 Zn42 2.031 . S
O45 C49 1.269 . S
O46 Zn43 1.986 . S
O46 C53 1.262 . S
O47 Zn42 2.049 1_554 S
O47 C55 1.260 1_554 S
O48 Zn43 1.996 . S
O48 C55 1.257 . S
C49 O44 1.254 . S
C49 O45 1.269 . S
C50 O51 1.249 . S
C50 O52 1.270 . S
O51 Zn43 1.943 . S
O51 C50 1.249 . S
O52 Zn42 2.067 . S
O52 C50 1.270 . S
C53 O46 1.262 . S
C53 O54 1.232 . S
O54 C53 1.232 . S
C55 O47 1.260 1_556 S
C55 O48 1.257 . S
Zn56 O59 2.031 . S
Zn56 O61 2.049 1_556 S
Zn56 O66 2.067 . S
Zn57 O58 1.962 . S
Zn57 O60 1.986 . S
Zn57 O62 1.996 . S
Zn57 O65 1.943 . S
O58 Zn57 1.962 . S
O58 C63 1.254 . S
O59 Zn56 2.031 . S
O59 C63 1.269 . S
O60 Zn57 1.986 . S
O60 C67 1.262 . S
O61 Zn56 2.049 1_554 S
O61 C69 1.260 1_554 S
O62 Zn57 1.996 . S
O62 C69 1.257 . S
C63 O58 1.254 . S
C63 O59 1.269 . S
C64 O65 1.249 . S
C64 O66 1.270 . S
O65 Zn57 1.943 . S
O65 C64 1.249 . S
O66 Zn56 2.067 . S
O66 C64 1.270 . S
C67 O60 1.262 . S
C67 O68 1.232 . S
O68 C67 1.232 . S
C69 O61 1.260 1_556 S
C69 O62 1.257 . S
Zn70 O73 2.031 . S
Zn70 O75 2.049 1_556 S
Zn70 O80 2.067 . S
Zn71 O72 1.962 . S
Zn71 O74 1.986 . S
Zn71 O76 1.996 . S
Zn71 O79 1.943 . S
O72 Zn71 1.962 . S
O72 C77 1.254 . S
O73 Zn70 2.031 . S
O73 C77 1.269 . S
O74 Zn71 1.986 . S
O74 C81 1.262 . S
O75 Zn70 2.049 1_554 S
O75 C83 1.260 1_554 S
O76 Zn71 1.996 . S
O76 C83 1.257 . S
C77 O72 1.254 . S
C77 O73 1.269 . S
C78 O79 1.249 . S
C78 O80 1.270 . S
O79 Zn71 1.943 . S
O79 C78 1.249 . S
O80 Zn70 2.067 . S
O80 C78 1.270 . S
C81 O74 1.262 . S
C81 O82 1.232 . S
O82 C81 1.232 . S
C83 O75 1.260 1_556 S
C83 O76 1.257 . S
Zn84 O87 2.031 . S
Zn84 O89 2.049 1_556 S
Zn84 O94 2.067 . S
Zn85 O86 1.962 . S
Zn85 O88 1.986 . S
Zn85 O90 1.996 . S
Zn85 O93 1.943 . S
O86 Zn85 1.962 . S
O86 C91 1.254 . S
O87 Zn84 2.031 . S
O87 C91 1.269 . S
O88 Zn85 1.986 . S
O88 C95 1.262 . S
O89 Zn84 2.049 1_554 S
O89 C97 1.260 1_554 S
O90 Zn85 1.996 . S
O90 C97 1.257 . S
C91 O86 1.254 . S
C91 O87 1.269 . S
C92 O93 1.249 . S
C92 O94 1.270 . S
O93 Zn85 1.943 . S
O93 C92 1.249 . S
O94 Zn84 2.067 . S
O94 C92 1.270 . S
C95 O88 1.262 . S
C95 O96 1.232 . S
O96 C95 1.232 . S
C97 O89 1.260 1_556 S
C97 O90 1.257 . S
Zn98 O101 2.031 . S
Zn98 O103 2.049 1_556 S
Zn98 O108 2.067 . S
Zn99 O100 1.962 . S
Zn99 O102 1.986 . S
Zn99 O104 1.996 . S
Zn99 O107 1.943 . S
O100 Zn99 1.962 . S
O100 C105 1.254 . S
O101 Zn98 2.031 . S
O101 C105 1.269 . S
O102 Zn99 1.986 . S
O102 C109 1.262 . S
O103 Zn98 2.049 1_554 S
O103 C111 1.260 1_554 S
O104 Zn99 1.996 . S
O104 C111 1.257 . S
C105 O100 1.254 . S
C105 O101 1.269 . S
C106 O107 1.249 . S
C106 O108 1.270 . S
O107 Zn99 1.943 . S
O107 C106 1.249 . S
O108 Zn98 2.067 . S
O108 C106 1.270 . S
C109 O102 1.262 . S
C109 O110 1.232 . S
O110 C109 1.232 . S
C111 O103 1.260 1_556 S
C111 O104 1.257 . S
Zn112 O115 2.031 . S
Zn112 O117 2.049 1_556 S
Zn112 O122 2.067 . S
Zn113 O114 1.962 . S
Zn113 O116 1.986 . S
Zn113 O118 1.996 . S
Zn113 O121 1.943 . S
O114 Zn113 1.962 . S
O114 C119 1.254 . S
O115 Zn112 2.031 . S
O115 C119 1.269 . S
O116 Zn113 1.986 . S
O116 C123 1.262 . S
O117 Zn112 2.049 1_554 S
O117 C125 1.260 1_554 S
O118 Zn113 1.996 . S
O118 C125 1.257 . S
C119 O114 1.254 . S
C119 O115 1.269 . S
C120 O121 1.249 . S
C120 O122 1.270 . S
O121 Zn113 1.943 . S
O121 C120 1.249 . S
O122 Zn112 2.067 . S
O122 C120 1.270 . S
C123 O116 1.262 . S
C123 O124 1.232 . S
O124 C123 1.232 . S
C125 O117 1.260 1_556 S
C125 O118 1.257 . S
Zn126 O129 2.031 . S
Zn126 O131 2.049 1_554 S
Zn126 O136 2.067 . S
Zn127 O128 1.962 . S
Zn127 O130 1.986 . S
Zn127 O132 1.996 . S
Zn127 O135 1.943 . S
O128 Zn127 1.962 . S
O128 C133 1.254 . S
O129 Zn126 2.031 . S
O129 C133 1.269 . S
O130 Zn127 1.986 . S
O130 C137 1.262 . S
O131 Zn126 2.049 1_556 S
O131 C139 1.260 1_556 S
O132 Zn127 1.996 . S
O132 C139 1.257 . S
C133 O128 1.254 . S
C133 O129 1.269 . S
C134 O135 1.249 . S
C134 O136 1.270 . S
O135 Zn127 1.943 . S
O135 C134 1.249 . S
O136 Zn126 2.067 . S
O136 C134 1.270 . S
C137 O130 1.262 . S
C137 O138 1.232 . S
O138 C137 1.232 . S
C139 O131 1.260 1_554 S
C139 O132 1.257 . S
Zn140 O143 2.031 . S
Zn140 O145 2.049 1_554 S
Zn140 O150 2.067 . S
Zn141 O142 1.962 . S
Zn141 O144 1.986 . S
Zn141 O146 1.996 . S
Zn141 O149 1.943 . S
O142 Zn141 1.962 . S
O142 C147 1.254 . S
O143 Zn140 2.031 . S
O143 C147 1.269 . S
O144 Zn141 1.986 . S
O144 C151 1.262 . S
O145 Zn140 2.049 1_556 S
O145 C153 1.260 1_556 S
O146 Zn141 1.996 . S
O146 C153 1.257 . S
C147 O142 1.254 . S
C147 O143 1.269 . S
C148 O149 1.249 . S
C148 O150 1.270 . S
O149 Zn141 1.943 . S
O149 C148 1.249 . S
O150 Zn140 2.067 . S
O150 C148 1.270 . S
C151 O144 1.262 . S
C151 O152 1.232 . S
O152 C151 1.232 . S
C153 O145 1.260 1_554 S
C153 O146 1.257 . S
Zn154 O157 2.031 . S
Zn154 O159 2.049 1_554 S
Zn154 O164 2.067 . S
Zn155 O156 1.962 . S
Zn155 O158 1.986 . S
Zn155 O160 1.996 . S
Zn155 O163 1.943 . S
O156 Zn155 1.962 . S
O156 C161 1.254 . S
O157 Zn154 2.031 . S
O157 C161 1.269 . S
O158 Zn155 1.986 . S
O158 C165 1.262 . S
O159 Zn154 2.049 1_556 S
O159 C167 1.260 1_556 S
O160 Zn155 1.996 . S
O160 C167 1.257 . S
C161 O156 1.254 . S
C161 O157 1.269 . S
C162 O163 1.249 . S
C162 O164 1.270 . S
O163 Zn155 1.943 . S
O163 C162 1.249 . S
O164 Zn154 2.067 . S
O164 C162 1.270 . S
C165 O158 1.262 . S
C165 O166 1.232 . S
O166 C165 1.232 . S
C167 O159 1.260 1_554 S
C167 O160 1.257 . S
Zn168 O171 2.031 . S
Zn168 O173 2.049 . S
Zn168 O178 2.067 . S
Zn169 O170 1.962 . S
Zn169 O172 1.986 . S
Zn169 O174 1.996 . S
Zn169 O177 1.943 . S
O170 Zn169 1.962 . S
O170 C175 1.254 . S
O171 Zn168 2.031 . S
O171 C175 1.269 . S
O172 Zn169 1.986 . S
O172 C179 1.262 . S
O173 Zn168 2.049 . S
O173 C181 1.260 . S
O174 Zn169 1.996 . S
O174 C181 1.257 . S
C175 O170 1.254 . S
C175 O171 1.269 . S
C176 O177 1.249 . S
C176 O178 1.270 . S
O177 Zn169 1.943 . S
O177 C176 1.249 . S
O178 Zn168 2.067 . S
O178 C176 1.270 . S
C179 O172 1.262 . S
C179 O180 1.232 . S
O180 C179 1.232 . S
C181 O173 1.260 . S
C181 O174 1.257 . S
Zn182 O185 2.031 . S
Zn182 O187 2.049 . S
Zn182 O192 2.067 . S
Zn183 O184 1.962 . S
Zn183 O186 1.986 . S
Zn183 O188 1.996 . S
Zn183 O191 1.943 . S
O184 Zn183 1.962 . S
O184 C189 1.254 . S
O185 Zn182 2.031 . S
O185 C189 1.269 . S
O186 Zn183 1.986 . S
O186 C193 1.262 . S
O187 Zn182 2.049 . S
O187 C195 1.260 . S
O188 Zn183 1.996 . S
O188 C195 1.257 . S
C189 O184 1.254 . S
C189 O185 1.269 . S
C190 O191 1.249 . S
C190 O192 1.270 . S
O191 Zn183 1.943 . S
O191 C190 1.249 . S
O192 Zn182 2.067 . S
O192 C190 1.270 . S
C193 O186 1.262 . S
C193 O194 1.232 . S
O194 C193 1.232 . S
C195 O187 1.260 . S
C195 O188 1.257 . S
Zn196 O199 2.031 . S
Zn196 O201 2.049 . S
Zn196 O206 2.067 . S
Zn197 O198 1.962 . S
Zn197 O200 1.986 . S
Zn197 O202 1.996 . S
Zn197 O205 1.943 . S
O198 Zn197 1.962 . S
O198 C203 1.254 . S
O199 Zn196 2.031 . S
O199 C203 1.269 . S
O200 Zn197 1.986 . S
O200 C207 1.262 . S
O201 Zn196 2.049 . S
O201 C209 1.260 . S
O202 Zn197 1.996 . S
O202 C209 1.257 . S
C203 O198 1.254 . S
C203 O199 1.269 . S
C204 O205 1.249 . S
C204 O206 1.270 . S
O205 Zn197 1.943 . S
O205 C204 1.249 . S
O206 Zn196 2.067 . S
O206 C204 1.270 . S
C207 O200 1.262 . S
C207 O208 1.232 . S
O208 C207 1.232 . S
C209 O201 1.260 . S
C209 O202 1.257 . S
Zn210 O213 2.031 . S
Zn210 O215 2.049 . S
Zn210 O220 2.067 . S
Zn211 O212 1.962 . S
Zn211 O214 1.986 1_554 S
Zn211 O216 1.996 . S
Zn211 O219 1.943 . S
O212 Zn211 1.962 . S
O212 C217 1.254 . S
O213 Zn210 2.031 . S
O213 C217 1.269 . S
O214 Zn211 1.986 1_556 S
O214 C221 1.262 . S
O215 Zn210 2.049 . S
O215 C223 1.260 . S
O216 Zn211 1.996 . S
O216 C223 1.257 . S
C217 O212 1.254 . S
C217 O213 1.269 . S
C218 O219 1.249 . S
C218 O220 1.270 . S
O219 Zn211 1.943 . S
O219 C218 1.249 . S
O220 Zn210 2.067 . S
O220 C218 1.270 . S
C221 O214 1.262 . S
C221 O222 1.232 . S
O222 C221 1.232 . S
C223 O215 1.260 . S
C223 O216 1.257 . S
Zn224 O227 2.031 . S
Zn224 O229 2.049 . S
Zn224 O234 2.067 . S
Zn225 O226 1.962 . S
Zn225 O228 1.986 1_554 S
Zn225 O230 1.996 . S
Zn225 O233 1.943 . S
O226 Zn225 1.962 . S
O226 C231 1.254 . S
O227 Zn224 2.031 . S
O227 C231 1.269 . S
O228 Zn225 1.986 1_556 S
O228 C235 1.262 . S
O229 Zn224 2.049 . S
O229 C237 1.260 . S
O230 Zn225 1.996 . S
O230 C237 1.257 . S
C231 O226 1.254 . S
C231 O227 1.269 . S
C232 O233 1.249 . S
C232 O234 1.270 . S
O233 Zn225 1.943 . S
O233 C232 1.249 . S
O234 Zn224 2.067 . S
O234 C232 1.270 . S
C235 O228 1.262 . S
C235 O236 1.232 . S
O236 C235 1.232 . S
C237 O229 1.260 . S
C237 O230 1.257 . S
Zn238 O241 2.031 . S
Zn238 O243 2.049 . S
Zn238 O248 2.067 . S
Zn239 O240 1.962 . S
Zn239 O242 1.986 1_554 S
Zn239 O244 1.996 . S
Zn239 O247 1.943 . S
O240 Zn239 1.962 . S
O240 C245 1.254 . S
O241 Zn238 2.031 . S
O241 C245 1.269 . S
O242 Zn239 1.986 1_556 S
O242 C249 1.262 . S
O243 Zn238 2.049 . S
O243 C251 1.260 . S
O244 Zn239 1.996 . S
O244 C251 1.257 . S
C245 O240 1.254 . S
C245 O241 1.269 . S
C246 O247 1.249 . S
C246 O248 1.270 . S
O247 Zn239 1.943 . S
O247 C246 1.249 . S
O248 Zn238 2.067 . S
O248 C246 1.270 . S
C249 O242 1.262 . S
C249 O250 1.232 . S
O250 C249 1.232 . S
C251 O243 1.260 . S
C251 O244 1.257 . S
Zn252 O255 2.031 . S
Zn252 O257 2.049 . S
Zn252 O262 2.067 . S
Zn253 O254 1.962 . S
Zn253 O256 1.986 1_554 S
Zn253 O258 1.996 . S
Zn253 O261 1.943 . S
O254 Zn253 1.962 . S
O254 C259 1.254 . S
O255 Zn252 2.031 . S
O255 C259 1.269 . S
O256 Zn253 1.986 1_556 S
O256 C263 1.262 . S
O257 Zn252 2.049 . S
O257 C265 1.260 . S
O258 Zn253 1.996 . S
O258 C265 1.257 . S
C259 O254 1.254 . S
C259 O255 1.269 . S
C260 O261 1.249 . S
C260 O262 1.270 . S
O261 Zn253 1.943 . S
O261 C260 1.249 . S
O262 Zn252 2.067 . S
O262 C260 1.270 . S
C263 O256 1.262 . S
C263 O264 1.232 . S
O264 C263 1.232 . S
C265 O257 1.260 . S
C265 O258 1.257 . S
Zn266 O269 2.031 . S
Zn266 O271 2.049 . S
Zn266 O276 2.067 . S
Zn267 O268 1.962 . S
Zn267 O270 1.986 1_554 S
Zn267 O272 1.996 . S
Zn267 O275 1.943 . S
O268 Zn267 1.962 . S
O268 C273 1.254 . S
O269 Zn266 2.031 . S
O269 C273 1.269 . S
O270 Zn267 1.986 1_556 S
O270 C277 1.262 . S
O271 Zn266 2.049 . S
O271 C279 1.260 . S
O272 Zn267 1.996 . S
O272 C279 1.257 . S
C273 O268 1.254 . S
C273 O269 1.269 . S
C274 O275 1.249 . S
C274 O276 1.270 . S
O275 Zn267 1.943 . S
O275 C274 1.249 . S
O276 Zn266 2.067 . S
O276 C274 1.270 . S
C277 O270 1.262 . S
C277 O278 1.232 . S
O278 C277 1.232 . S
C279 O271 1.260 . S
C279 O272 1.257 . S
Zn280 O283 2.031 . S
Zn280 O285 2.049 . S
Zn280 O290 2.067 . S
Zn281 O282 1.962 . S
Zn281 O284 1.986 1_554 S
Zn281 O286 1.996 . S
Zn281 O289 1.943 . S
O282 Zn281 1.962 . S
O282 C287 1.254 . S
O283 Zn280 2.031 . S
O283 C287 1.269 . S
O284 Zn281 1.986 1_556 S
O284 C291 1.262 . S
O285 Zn280 2.049 . S
O285 C293 1.260 . S
O286 Zn281 1.996 . S
O286 C293 1.257 . S
C287 O282 1.254 . S
C287 O283 1.269 . S
C288 O289 1.249 . S
C288 O290 1.270 . S
O289 Zn281 1.943 . S
O289 C288 1.249 . S
O290 Zn280 2.067 . S
O290 C288 1.270 . S
C291 O284 1.262 . S
C291 O292 1.232 . S
O292 C291 1.232 . S
C293 O285 1.260 . S
C293 O286 1.257 . S
Zn294 O297 2.031 . S
Zn294 O299 2.049 . S
Zn294 O304 2.067 . S
Zn295 O296 1.962 . S
Zn295 O298 1.986 . S
Zn295 O300 1.996 . S
Zn295 O303 1.943 . S
O296 Zn295 1.962 . S
O296 C301 1.254 . S
O297 Zn294 2.031 . S
O297 C301 1.269 . S
O298 Zn295 1.986 . S
O298 C305 1.262 . S
O299 Zn294 2.049 . S
O299 C307 1.260 . S
O300 Zn295 1.996 . S
O300 C307 1.257 . S
C301 O296 1.254 . S
C301 O297 1.269 . S
C302 O303 1.249 . S
C302 O304 1.270 . S
O303 Zn295 1.943 . S
O303 C302 1.249 . S
O304 Zn294 2.067 . S
O304 C302 1.270 . S
C305 O298 1.262 . S
C305 O306 1.232 . S
O306 C305 1.232 . S
C307 O299 1.260 . S
C307 O300 1.257 . S
Zn308 O311 2.031 . S
Zn308 O313 2.049 . S
Zn308 O318 2.067 . S
Zn309 O310 1.962 . S
Zn309 O312 1.986 . S
Zn309 O314 1.996 . S
Zn309 O317 1.943 . S
O310 Zn309 1.962 . S
O310 C315 1.254 . S
O311 Zn308 2.031 . S
O311 C315 1.269 . S
O312 Zn309 1.986 . S
O312 C319 1.262 . S
O313 Zn308 2.049 . S
O313 C321 1.260 . S
O314 Zn309 1.996 . S
O314 C321 1.257 . S
C315 O310 1.254 . S
C315 O311 1.269 . S
C316 O317 1.249 . S
C316 O318 1.270 . S
O317 Zn309 1.943 . S
O317 C316 1.249 . S
O318 Zn308 2.067 . S
O318 C316 1.270 . S
C319 O312 1.262 . S
C319 O320 1.232 . S
O320 C319 1.232 . S
C321 O313 1.260 . S
C321 O314 1.257 . S
Zn322 O325 2.031 . S
Zn322 O327 2.049 . S
Zn322 O332 2.067 . S
Zn323 O324 1.962 . S
Zn323 O326 1.986 . S
Zn323 O328 1.996 . S
Zn323 O331 1.943 . S
O324 Zn323 1.962 . S
O324 C329 1.254 . S
O325 Zn322 2.031 . S
O325 C329 1.269 . S
O326 Zn323 1.986 . S
O326 C333 1.262 . S
O327 Zn322 2.049 . S
O327 C335 1.260 . S
O328 Zn323 1.996 . S
O328 C335 1.257 . S
C329 O324 1.254 . S
C329 O325 1.269 . S
C330 O331 1.249 . S
C330 O332 1.270 . S
O331 Zn323 1.943 . S
O331 C330 1.249 . S
O332 Zn322 2.067 . S
O332 C330 1.270 . S
C333 O326 1.262 . S
C333 O334 1.232 . S
O334 C333 1.232 . S
C335 O327 1.260 . S
C335 O328 1.257 . S
Zn336 O339 2.031 . S
Zn336 O341 2.049 . S
Zn336 O346 2.067 . S
Zn337 O338 1.962 . S
Zn337 O340 1.986 1_556 S
Zn337 O342 1.996 . S
Zn337 O345 1.943 . S
O338 Zn337 1.962 . S
O338 C343 1.254 . S
O339 Zn336 2.031 . S
O339 C343 1.269 . S
O340 Zn337 1.986 1_554 S
O340 C347 1.262 . S
O341 Zn336 2.049 . S
O341 C349 1.260 . S
O342 Zn337 1.996 . S
O342 C349 1.257 . S
C343 O338 1.254 . S
C343 O339 1.269 . S
C344 O345 1.249 . S
C344 O346 1.270 . S
O345 Zn337 1.943 . S
O345 C344 1.249 . S
O346 Zn336 2.067 . S
O346 C344 1.270 . S
C347 O340 1.262 . S
C347 O348 1.232 . S
O348 C347 1.232 . S
C349 O341 1.260 . S
C349 O342 1.257 . S
Zn350 O353 2.031 . S
Zn350 O355 2.049 . S
Zn350 O360 2.067 . S
Zn351 O352 1.962 . S
Zn351 O354 1.986 1_556 S
Zn351 O356 1.996 . S
Zn351 O359 1.943 . S
O352 Zn351 1.962 . S
O352 C357 1.254 . S
O353 Zn350 2.031 . S
O353 C357 1.269 . S
O354 Zn351 1.986 1_554 S
O354 C361 1.262 . S
O355 Zn350 2.049 . S
O355 C363 1.260 . S
O356 Zn351 1.996 . S
O356 C363 1.257 . S
C357 O352 1.254 . S
C357 O353 1.269 . S
C358 O359 1.249 . S
C358 O360 1.270 . S
O359 Zn351 1.943 . S
O359 C358 1.249 . S
O360 Zn350 2.067 . S
O360 C358 1.270 . S
C361 O354 1.262 . S
C361 O362 1.232 . S
O362 C361 1.232 . S
C363 O355 1.260 . S
C363 O356 1.257 . S
Zn364 O367 2.031 . S
Zn364 O369 2.049 . S
Zn364 O374 2.067 . S
Zn365 O366 1.962 . S
Zn365 O368 1.986 1_556 S
Zn365 O370 1.996 . S
Zn365 O373 1.943 . S
O366 Zn365 1.962 . S
O366 C371 1.254 . S
O367 Zn364 2.031 . S
O367 C371 1.269 . S
O368 Zn365 1.986 1_554 S
O368 C375 1.262 . S
O369 Zn364 2.049 . S
O369 C377 1.260 . S
O370 Zn365 1.996 . S
O370 C377 1.257 . S
C371 O366 1.254 . S
C371 O367 1.269 . S
C372 O373 1.249 . S
C372 O374 1.270 . S
O373 Zn365 1.943 . S
O373 C372 1.249 . S
O374 Zn364 2.067 . S
O374 C372 1.270 . S
C375 O368 1.262 . S
C375 O376 1.232 . S
O376 C375 1.232 . S
C377 O369 1.260 . S
C377 O370 1.257 . S
Zn378 O381 2.031 . S
Zn378 O383 2.049 . S
Zn378 O388 2.067 . S
Zn379 O380 1.962 . S
Zn379 O382 1.986 . S
Zn379 O384 1.996 . S
Zn379 O387 1.943 . S
O380 Zn379 1.962 . S
O380 C385 1.254 . S
O381 Zn378 2.031 . S
O381 C385 1.269 . S
O382 Zn379 1.986 . S
O382 C389 1.262 . S
O383 Zn378 2.049 . S
O383 C391 1.260 . S
O384 Zn379 1.996 . S
O384 C391 1.257 . S
C385 O380 1.254 . S
C385 O381 1.269 . S
C386 O387 1.249 . S
C386 O388 1.270 . S
O387 Zn379 1.943 . S
O387 C386 1.249 . S
O388 Zn378 2.067 . S
O388 C386 1.270 . S
C389 O382 1.262 . S
C389 O390 1.232 . S
O390 C389 1.232 . S
C391 O383 1.260 . S
C391 O384 1.257 . S
Zn392 O395 2.031 . S
Zn392 O397 2.049 . S
Zn392 O402 2.067 . S
Zn393 O394 1.962 . S
Zn393 O396 1.986 . S
Zn393 O398 1.996 . S
Zn393 O401 1.943 . S
O394 Zn393 1.962 . S
O394 C399 1.254 . S
O395 Zn392 2.031 . S
O395 C399 1.269 . S
O396 Zn393 1.986 . S
O396 C403 1.262 . S
O397 Zn392 2.049 . S
O397 C405 1.260 . S
O398 Zn393 1.996 . S
O398 C405 1.257 . S
C399 O394 1.254 . S
C399 O395 1.269 . S
C400 O401 1.249 . S
C400 O402 1.270 . S
O401 Zn393 1.943 . S
O401 C400 1.249 . S
O402 Zn392 2.067 . S
O402 C400 1.270 . S
C403 O396 1.262 . S
C403 O404 1.232 . S
O404 C403 1.232 . S
C405 O397 1.260 . S
C405 O398 1.257 . S
Zn406 O409 2.031 . S
Zn406 O411 2.049 . S
Zn406 O416 2.067 . S
Zn407 O408 1.962 . S
Zn407 O410 1.986 . S
Zn407 O412 1.996 . S
Zn407 O415 1.943 . S
O408 Zn407 1.962 . S
O408 C413 1.254 . S
O409 Zn406 2.031 . S
O409 C413 1.269 . S
O410 Zn407 1.986 . S
O410 C417 1.262 . S
O411 Zn406 2.049 . S
O411 C419 1.260 . S
O412 Zn407 1.996 . S
O412 C419 1.257 . S
C413 O408 1.254 . S
C413 O409 1.269 . S
C414 O415 1.249 . S
C414 O416 1.270 . S
O415 Zn407 1.943 . S
O415 C414 1.249 . S
O416 Zn406 2.067 . S
O416 C414 1.270 . S
C417 O410 1.262 . S
C417 O418 1.232 . S
O418 C417 1.232 . S
C419 O411 1.260 . S
C419 O412 1.257 . S
Zn420 O423 2.031 . S
Zn420 O425 2.049 . S
Zn420 O430 2.067 . S
Zn421 O422 1.962 . S
Zn421 O424 1.986 . S
Zn421 O426 1.996 . S
Zn421 O429 1.943 . S
O422 Zn421 1.962 . S
O422 C427 1.254 . S
O423 Zn420 2.031 . S
O423 C427 1.269 . S
O424 Zn421 1.986 . S
O424 C431 1.262 . S
O425 Zn420 2.049 . S
O425 C433 1.260 . S
O426 Zn421 1.996 . S
O426 C433 1.257 . S
C427 O422 1.254 . S
C427 O423 1.269 . S
C428 O429 1.249 . S
C428 O430 1.270 . S
O429 Zn421 1.943 . S
O429 C428 1.249 . S
O430 Zn420 2.067 . S
O430 C428 1.270 . S
C431 O424 1.262 . S
C431 O432 1.232 . S
O432 C431 1.232 . S
C433 O425 1.260 . S
C433 O426 1.257 . S
Zn434 O437 2.031 . S
Zn434 O439 2.049 . S
Zn434 O444 2.067 . S
Zn435 O436 1.962 . S
Zn435 O438 1.986 . S
Zn435 O440 1.996 . S
Zn435 O443 1.943 . S
O436 Zn435 1.962 . S
O436 C441 1.254 . S
O437 Zn434 2.031 . S
O437 C441 1.269 . S
O438 Zn435 1.986 . S
O438 C445 1.262 . S
O439 Zn434 2.049 . S
O439 C447 1.260 . S
O440 Zn435 1.996 . S
O440 C447 1.257 . S
C441 O436 1.254 . S
C441 O437 1.269 . S
C442 O443 1.249 . S
C442 O444 1.270 . S
O443 Zn435 1.943 . S
O443 C442 1.249 . S
O444 Zn434 2.067 . S
O444 C442 1.270 . S
C445 O438 1.262 . S
C445 O446 1.232 . S
O446 C445 1.232 . S
C447 O439 1.260 . S
C447 O440 1.257 . S
Zn448 O451 2.031 . S
Zn448 O453 2.049 . S
Zn448 O458 2.067 . S
Zn449 O450 1.962 . S
Zn449 O452 1.986 . S
Zn449 O454 1.996 . S
Zn449 O457 1.943 . S
O450 Zn449 1.962 . S
O450 C455 1.254 . S
O451 Zn448 2.031 . S
O451 C455 1.269 . S
O452 Zn449 1.986 . S
O452 C459 1.262 . S
O453 Zn448 2.049 . S
O453 C461 1.260 . S
O454 Zn449 1.996 . S
O454 C461 1.257 . S
C455 O450 1.254 . S
C455 O451 1.269 . S
C456 O457 1.249 . S
C456 O458 1.270 . S
O457 Zn449 1.943 . S
O457 C456 1.249 . S
O458 Zn448 2.067 . S
O458 C456 1.270 . S
C459 O452 1.262 . S
C459 O460 1.232 . S
O460 C459 1.232 . S
C461 O453 1.260 . S
C461 O454 1.257 . S
Zn462 O465 2.031 . S
Zn462 O467 2.049 . S
Zn462 O472 2.067 . S
Zn463 O464 1.962 . S
Zn463 O466 1.986 1_556 S
Zn463 O468 1.996 . S
Zn463 O471 1.943 . S
O464 Zn463 1.962 . S
O464 C469 1.254 . S
O465 Zn462 2.031 . S
O465 C469 1.269 . S
O466 Zn463 1.986 1_554 S
O466 C473 1.262 . S
O467 Zn462 2.049 . S
O467 C475 1.260 . S
O468 Zn463 1.996 . S
O468 C475 1.257 . S
C469 O464 1.254 . S
C469 O465 1.269 . S
C470 O471 1.249 . S
C470 O472 1.270 . S
O471 Zn463 1.943 . S
O471 C470 1.249 . S
O472 Zn462 2.067 . S
O472 C470 1.270 . S
C473 O466 1.262 . S
C473 O474 1.232 . S
O474 C473 1.232 . S
C475 O467 1.260 . S
C475 O468 1.257 . S
Zn476 O479 2.031 . S
Zn476 O481 2.049 . S
Zn476 O486 2.067 . S
Zn477 O478 1.962 . S
Zn477 O480 1.986 1_556 S
Zn477 O482 1.996 . S
Zn477 O485 1.943 . S
O478 Zn477 1.962 . S
O478 C483 1.254 . S
O479 Zn476 2.031 . S
O479 C483 1.269 . S
O480 Zn477 1.986 1_554 S
O480 C487 1.262 . S
O481 Zn476 2.049 . S
O481 C489 1.260 . S
O482 Zn477 1.996 . S
O482 C489 1.257 . S
C483 O478 1.254 . S
C483 O479 1.269 . S
C484 O485 1.249 . S
C484 O486 1.270 . S
O485 Zn477 1.943 . S
O485 C484 1.249 . S
O486 Zn476 2.067 . S
O486 C484 1.270 . S
C487 O480 1.262 . S
C487 O488 1.232 . S
O488 C487 1.232 . S
C489 O481 1.260 . S
C489 O482 1.257 . S
Zn490 O493 2.031 . S
Zn490 O495 2.049 . S
Zn490 O500 2.067 . S
Zn491 O492 1.962 . S
Zn491 O494 1.986 1_556 S
Zn491 O496 1.996 . S
Zn491 O499 1.943 . S
O492 Zn491 1.962 . S
O492 C497 1.254 . S
O493 Zn490 2.031 . S
O493 C497 1.269 . S
O494 Zn491 1.986 1_554 S
O494 C501 1.262 . S
O495 Zn490 2.049 . S
O495 C503 1.260 . S
O496 Zn491 1.996 . S
O496 C503 1.257 . S
C497 O492 1.254 . S
C497 O493 1.269 . S
C498 O499 1.249 . S
C498 O500 1.270 . S
O499 Zn491 1.943 . S
O499 C498 1.249 . S
O500 Zn490 2.067 . S
O500 C498 1.270 . S
C501 O494 1.262 . S
C501 O502 1.232 . S
O502 C501 1.232 . S
C503 O495 1.260 . S
C503 O496 1.257 . S
C81 C11 1.602 1_565 S
C53 C25 1.603 1_455 S
C39 C67 1.603 . S
C95 C165 1.602 1_565 S
C109 C137 1.603 1_455 S
C151 C123 1.603 . S
C179 C249 1.602 . S
C193 C221 1.602 . S
C207 C235 1.603 . S
C333 C263 1.602 . S
C277 C305 1.602 . S
C319 C291 1.603 . S
C417 C347 1.602 . S
C389 C361 1.602 . S
C403 C375 1.603 . S
C431 C501 1.603 . S
C445 C473 1.602 . S
C459 C487 1.603 . S
C83 C13 1.207 1_566 S
C27 C55 1.207 1_654 S
C69 C41 1.208 1_556 S
C97 C167 1.207 1_566 S
C111 C139 1.207 1_456 S
C153 C125 1.208 1_554 S
C181 C251 1.207 . S
C223 C195 1.207 . S
C237 C209 1.207 . S
C265 C335 1.207 . S
C279 C307 1.207 . S
C321 C293 1.207 . S
C419 C349 1.207 . S
C363 C391 1.207 . S
C377 C405 1.208 . S
C503 C433 1.207 . S
C475 C447 1.207 . S
C489 C461 1.207 . S
C232 C8 1.446 . S
C246 C22 1.446 . S
C218 C36 1.446 . S
C50 C372 1.446 . S
C64 C344 1.446 . S
C78 C358 1.446 . S
C92 C484 1.446 . S
C106 C498 1.446 . S
C120 C470 1.446 . S
C134 C288 1.446 . S
C260 C148 1.446 . S
C274 C162 1.446 . S
C400 C176 1.446 1_455 S
C190 C414 1.446 . S
C204 C386 1.446 1_545 S
C302 C456 1.446 1_545 S
C316 C428 1.446 1_655 S
C442 C330 1.446 . S
C7 C147 1.358 . S
C161 C21 1.357 . S
C133 C35 1.358 . S
C49 C119 1.357 . S
C63 C91 1.358 . S
C77 C105 1.357 . S
C175 C315 1.358 . S
C329 C189 1.357 . S
C301 C203 1.358 . S
C217 C287 1.358 . S
C231 C259 1.358 . S
C273 C245 1.357 . S
C343 C483 1.358 . S
C497 C357 1.357 . S
C371 C469 1.358 . S
C385 C455 1.358 . S
C427 C399 1.358 . S
C413 C441 1.357 . S
