# Generated by pormake.
# Topology oof, (8)-cn, num edge types: 1
# Building blocks:
#     Node 0, Type 0, BuildingBlock: TAGTUT_clean_sbu_1, # of connection points: 8
#     Node 1, Type 0, BuildingBlock: TAGTUT_clean_sbu_1, # of connection points: 8
#     Node 2, Type 0, BuildingBlock: TAGTUT_clean_sbu_1, # of connection points: 8
#     Node 3, Type 0, BuildingBlock: TAGTUT_clean_sbu_1, # of connection points: 8
#     Edge 4, Type (0, 0), BuildingBlock: ZUJKAS_clean_linker_0, # of connection points: 2
#     Edge 5, Type (0, 0), BuildingBlock: ZUJKAS_clean_linker_0, # of connection points: 2
#     Edge 6, Type (0, 0), BuildingBlock: ZUJKAS_clean_linker_0, # of connection points: 2
#     Edge 7, Type (0, 0), BuildingBlock: ZUJKAS_clean_linker_0, # of connection points: 2
#     Edge 8, Type (0, 0), BuildingBlock: ZUJKAS_clean_linker_0, # of connection points: 2
#     Edge 9, Type (0, 0), BuildingBlock: ZUJKAS_clean_linker_0, # of connection points: 2
#     Edge 10, Type (0, 0), BuildingBlock: ZUJKAS_clean_linker_0, # of connection points: 2
#     Edge 11, Type (0, 0), BuildingBlock: ZUJKAS_clean_linker_0, # of connection points: 2
#     Edge 12, Type (0, 0), BuildingBlock: ZUJKAS_clean_linker_0, # of connection points: 2
#     Edge 13, Type (0, 0), BuildingBlock: ZUJKAS_clean_linker_0, # of connection points: 2
#     Edge 14, Type (0, 0), BuildingBlock: ZUJKAS_clean_linker_0, # of connection points: 2
#     Edge 15, Type (0, 0), BuildingBlock: ZUJKAS_clean_linker_0, # of connection points: 2
#     Edge 16, Type (0, 0), BuildingBlock: ZUJKAS_clean_linker_0, # of connection points: 2
#     Edge 17, Type (0, 0), BuildingBlock: ZUJKAS_clean_linker_0, # of connection points: 2
#     Edge 18, Type (0, 0), BuildingBlock: ZUJKAS_clean_linker_0, # of connection points: 2
#     Edge 19, Type (0, 0), BuildingBlock: ZUJKAS_clean_linker_0, # of connection points: 2
# Relax obj value: 0.054
# Max RMSD: 0.156
# Mean RMSD: 0.156
data_MOF--net-oof--node1-TAGTUT_clean_sbu_1--edge1-ZUJKAS_clean_linker_0
_symmetry_space_group_name_H-M    P1
_symmetry_Int_Tables_number       1
_symmetry_cell_setting            triclinic
loop_
_symmetry_equiv_pos_as_xyz
'x, y, z'
_cell_length_a     19.475279
_cell_length_b     69.637956
_cell_length_c     23.893895
_cell_angle_alpha  91.553898
_cell_angle_beta   102.7237
_cell_angle_gamma 102.75647
loop_
_atom_site_label
_atom_site_type_symbol
_atom_site_fract_x
_atom_site_fract_y
_atom_site_fract_z
_atom_type_partial_charge
C0 C 0.01571 0.11294 0.4365 0.0
C1 C 0.0475 0.08084 0.30012 0.0
C2 C 0.16411 0.15527 0.23649 0.0
Mg3 Mg 0.93425 0.10323 0.30854 0.0
O4 O -0.0055 0.12771 0.30405 0.0
Mg5 Mg 0.10068 0.13059 0.33439 0.0
Mg6 Mg -0.00401 0.13693 0.22631 0.0
O7 O -0.00439 0.14608 0.14824 0.0
Mg8 Mg 0.05015 0.17102 0.13976 0.0
Mg9 Mg 0.88897 0.13972 0.11341 0.0
C10 C 0.82265 0.11989 0.21719 0.0
C11 C 0.93961 0.09821 0.13284 0.0
O12 O 0.07178 0.12225 0.42026 0.0
O13 O 0.95605 0.10475 0.40085 0.0
O14 O 0.0953 0.09695 0.31809 0.0
O15 O 0.98108 0.08091 0.28139 0.0
O16 O 0.83413 0.10753 0.25509 0.0
O17 O 0.87429 0.13273 0.20502 0.0
C18 C 0.06529 0.17408 0.3231 0.0
O19 O 0.02202 0.16867 0.27324 0.0
O20 O 0.09907 0.16238 0.35186 0.0
O21 O 0.92119 0.14677 0.02776 0.0
O22 O 0.03527 0.16553 0.04854 0.0
O23 O 0.88072 0.17215 0.12499 0.0
C24 C 0.97834 0.15583 0.01242 0.0
O25 O 0.98944 0.19284 0.15098 0.0
O26 O 0.14937 0.16809 0.20049 0.0
C27 C 0.92038 0.18965 0.13797 0.0
O28 O 0.11563 0.14055 0.24486 0.0
O29 O 0.97806 0.10564 0.18253 0.0
O30 O 0.90067 0.10799 0.10044 0.0
C31 C 0.02923 0.86884 0.98237 0.0
C32 C 0.08653 0.83469 0.85725 0.0
C33 C 0.18192 0.90352 0.77403 0.0
Mg34 Mg 0.95646 0.85316 0.85555 0.0
O35 O 0.00996 0.87806 0.84581 0.0
Mg36 Mg 0.11688 0.88464 0.88003 0.0
Mg37 Mg 0.00844 0.88702 0.76728 0.0
O38 O 0.00945 0.89612 0.68938 0.0
Mg39 Mg 0.06953 0.9207 0.68529 0.0
Mg40 Mg 0.90331 0.89314 0.65923 0.0
C41 C 0.8415 0.86803 0.75716 0.0
C42 C 0.93948 0.84975 0.67092 0.0
O43 O 0.08589 0.87787 0.9663 0.0
O44 O 0.97202 0.859 0.9468 0.0
O45 O 0.12592 0.85224 0.86951 0.0
O46 O 0.01748 0.8314 0.84469 0.0
O47 O 0.85741 0.8555 0.79378 0.0
O48 O 0.88847 0.88319 0.74898 0.0
C49 C 0.06507 0.92597 0.85998 0.0
O50 O 0.02609 0.91836 0.81063 0.0
O51 O 0.10472 0.91635 0.89232 0.0
O52 O 0.93194 0.90149 0.57304 0.0
O53 O 0.04699 0.91948 0.59306 0.0
O54 O 0.90874 0.92679 0.67541 0.0
C55 C 0.98782 0.91112 0.55714 0.0
O56 O 0.02262 0.94283 0.71344 0.0
O57 O 0.17042 0.916 0.73651 0.0
C58 C 0.95635 0.94291 0.69382 0.0
O59 O 0.13 0.89124 0.78773 0.0
O60 O 0.98278 0.85525 0.72072 0.0
O61 O 0.90536 0.86136 0.64201 0.0
C62 C 0.5215 0.61181 0.43468 0.0
C63 C 0.55071 0.58014 0.29629 0.0
C64 C 0.67072 0.65505 0.2363 0.0
Mg65 Mg 0.43967 0.60306 0.30638 0.0
O66 O 0.50142 0.62749 0.3033 0.0
Mg67 Mg 0.60724 0.62979 0.33316 0.0
Mg68 Mg 0.50323 0.63682 0.22574 0.0
O69 O 0.50247 0.64593 0.14749 0.0
Mg70 Mg 0.55792 0.67053 0.1375 0.0
Mg71 Mg 0.39568 0.63986 0.11298 0.0
C72 C 0.32935 0.62125 0.21854 0.0
C73 C 0.44377 0.59807 0.13254 0.0
O74 O 0.57794 0.62122 0.41906 0.0
O75 O 0.46197 0.60387 0.39855 0.0
O76 O 0.59921 0.59606 0.31515 0.0
O77 O 0.48456 0.58054 0.27764 0.0
O78 O 0.33977 0.6085 0.25543 0.0
O79 O 0.38188 0.63341 0.20526 0.0
C80 C 0.5748 0.67365 0.32325 0.0
O81 O 0.53146 0.66851 0.27329 0.0
O82 O 0.60763 0.6617 0.35171 0.0
O83 O 0.42748 0.64627 0.02672 0.0
O84 O 0.54261 0.66432 0.04644 0.0
O85 O 0.38902 0.67243 0.12365 0.0
C86 C 0.48494 0.65476 0.0108 0.0
O87 O 0.49852 0.69278 0.14761 0.0
O88 O 0.65596 0.66773 0.19983 0.0
C89 C 0.42955 0.68985 0.1355 0.0
O90 O 0.62285 0.64 0.24385 0.0
O91 O 0.4833 0.60551 0.18183 0.0
O92 O 0.40499 0.60794 0.10042 0.0
C93 C 0.52365 0.36921 0.97969 0.0
C94 C 0.58151 0.33433 0.85594 0.0
C95 C 0.67994 0.40365 0.7739 0.0
Mg96 Mg 0.45204 0.35324 0.85284 0.0
O97 O 0.50695 0.37794 0.84302 0.0
Mg98 Mg 0.61357 0.38435 0.87816 0.0
Mg99 Mg 0.50646 0.38689 0.76469 0.0
O100 O 0.50831 0.39605 0.68682 0.0
Mg101 Mg 0.56862 0.42065 0.68315 0.0
Mg102 Mg 0.40219 0.39336 0.65671 0.0
C103 C 0.33853 0.36864 0.7547 0.0
C104 C 0.43672 0.34975 0.668 0.0
O105 O 0.58119 0.3779 0.96423 0.0
O106 O 0.46666 0.35945 0.94376 0.0
O107 O 0.62144 0.35183 0.86797 0.0
O108 O 0.51247 0.3312 0.84318 0.0
O109 O 0.3533 0.356 0.79127 0.0
O110 O 0.38683 0.38339 0.74613 0.0
C111 C 0.56367 0.42584 0.85734 0.0
O112 O 0.52476 0.41826 0.80795 0.0
O113 O 0.60265 0.41613 0.88996 0.0
O114 O 0.43114 0.40198 0.57095 0.0
O115 O 0.54657 0.41972 0.59084 0.0
O116 O 0.40805 0.42698 0.67315 0.0
C117 C 0.48697 0.41162 0.55499 0.0
O118 O 0.52197 0.44289 0.7112 0.0
O119 O 0.66875 0.4161 0.73618 0.0
C120 C 0.45586 0.44307 0.69133 0.0
O121 O 0.62805 0.39093 0.78615 0.0
O122 O 0.47983 0.35511 0.71797 0.0
O123 O 0.40341 0.36153 0.63912 0.0
H124 H 0.86956 0.13653 0.92276 0.0
H125 H 0.8796 0.12828 0.82542 0.0
H126 H 0.10308 0.16033 0.86727 0.0
H127 H 0.09377 0.16891 0.96459 0.0
H128 H 0.02174 0.16691 0.75889 0.0
H129 H -0.00827 0.08704 0.79172 0.0
H130 H 0.92066 0.09739 0.80732 0.0
H131 H 0.01124 0.10571 0.8506 0.0
C132 C 0.9207 0.14202 0.9112 0.0
C133 C 0.98115 0.15319 0.95165 0.0
C134 C 0.92638 0.13716 0.85574 0.0
C135 C -0.00747 0.1433 0.84007 0.0
C136 C 0.05185 0.1553 0.87914 0.0
H137 H 0.13226 0.12801 0.52536 0.0
H138 H 0.13097 0.13369 0.62632 0.0
C139 C 0.04627 0.16022 0.9346 0.0
C140 C 0.00017 0.13701 0.78303 0.0
H141 H -0.0081 0.09633 0.69679 0.0
C142 C 0.01571 0.15152 0.7453 0.0
C143 C -0.0076 0.11689 0.76602 0.0
C144 C 0.97872 0.10084 0.80615 0.0
C145 C 0.02188 0.14638 0.68995 0.0
C146 C 0.01345 0.12625 0.67273 0.0
C147 C -0.00151 0.11174 0.71059 0.0
C148 C 0.01714 0.12005 0.61446 0.0
C149 C 0.03546 0.16244 0.64982 0.0
C150 C 0.95433 0.10956 0.5756 0.0
C151 C 0.95478 0.10619 0.51796 0.0
C152 C 0.01814 0.11334 0.49858 0.0
C153 C 0.08229 0.12258 0.53872 0.0
C154 C 0.08174 0.12588 0.59634 0.0
H155 H 0.02576 0.17654 0.66559 0.0
H156 H 0.09262 0.16521 0.64627 0.0
H157 H 0.00026 0.1579 0.60607 0.0
H158 H 0.90416 0.10484 0.58928 0.0
H159 H 0.90464 0.09886 0.48825 0.0
H160 H 0.09555 0.92893 0.50631 0.0
H161 H 0.09982 0.92402 0.40575 0.0
H162 H 0.88211 0.88789 0.36742 0.0
H163 H 0.87677 0.89276 0.46768 0.0
H164 H 0.08193 0.88489 0.35704 0.0
H165 H 0.88515 0.92373 0.23205 0.0
H166 H 0.92448 0.92964 0.30811 0.0
H167 H 0.85209 0.90815 0.28373 0.0
C168 C 0.04795 0.92027 0.47635 0.0
C169 C 0.98614 0.91101 0.49515 0.0
C170 C 0.05055 0.91752 0.41896 0.0
C171 C -0.00875 0.90566 0.37954 0.0
C172 C 0.92801 0.89733 0.39728 0.0
H173 H 0.91698 0.85447 0.0327 0.0
H174 H 0.90988 0.8624 0.13115 0.0
C175 C 0.92529 0.90004 0.45467 0.0
C176 C -0.00136 0.89998 0.32187 0.0
H177 H 0.9289 0.90168 0.17877 0.0
C178 C 0.04897 0.88867 0.31796 0.0
C179 C 0.95487 0.90483 0.27142 0.0
C180 C 0.90144 0.91739 0.27374 0.0
C181 C 0.05602 0.88177 0.26449 0.0
C182 C 0.01229 0.88661 0.21399 0.0
C183 C 0.96202 0.89796 0.21786 0.0
C184 C 0.01902 0.88046 0.15651 0.0
C185 C 0.109 0.86903 0.26243 0.0
C186 C 0.0832 0.88781 0.13893 0.0
C187 C 0.08767 0.88328 0.08291 0.0
C188 C 0.02768 0.87146 0.04347 0.0
C189 C 0.96417 0.86361 0.06196 0.0
C190 C 0.95983 0.86816 0.11804 0.0
H191 H 0.12465 0.86262 0.30413 0.0
H192 H 0.08592 0.8568 0.22801 0.0
H193 H 0.15881 0.87816 0.25286 0.0
H194 H 0.12904 0.89755 0.168 0.0
H195 H 0.13734 0.8896 0.0701 0.0
H196 H 0.37456 0.63551 0.92215 0.0
H197 H 0.38274 0.62649 0.82481 0.0
H198 H 0.60723 0.65763 0.86411 0.0
H199 H 0.60018 0.66666 0.9618 0.0
H200 H 0.42676 0.65117 0.73891 0.0
H201 H 0.60657 0.60022 0.80998 0.0
H202 H 0.55541 0.60891 0.85569 0.0
H203 H 0.63703 0.62476 0.84513 0.0
C204 C 0.42558 0.64062 0.91007 0.0
C205 C 0.48695 0.65163 0.94996 0.0
C206 C 0.43008 0.63541 0.85451 0.0
C207 C 0.49595 0.64106 0.83814 0.0
C208 C 0.55638 0.65282 0.87671 0.0
H209 H 0.63268 0.62976 0.52463 0.0
H210 H 0.62676 0.63455 0.62491 0.0
C211 C 0.55199 0.65808 0.93228 0.0
C212 C 0.50147 0.6345 0.78066 0.0
H213 H 0.58444 0.6063 0.71106 0.0
C214 C 0.46084 0.64129 0.73266 0.0
C215 C 0.54597 0.62156 0.7732 0.0
C216 C 0.58835 0.61326 0.82363 0.0
C217 C 0.46476 0.63579 0.67693 0.0
C218 C 0.50963 0.62297 0.66946 0.0
C219 C 0.55001 0.61608 0.71739 0.0
C220 C 0.51689 0.61725 0.61185 0.0
C221 C 0.42226 0.64407 0.62648 0.0
C222 C 0.458 0.60522 0.57248 0.0
C223 C 0.46098 0.60246 0.51518 0.0
C224 C 0.52299 0.61175 0.49662 0.0
C225 C 0.58385 0.62258 0.53737 0.0
C226 C 0.58074 0.62531 0.59467 0.0
H227 H 0.40065 0.65645 0.64025 0.0
H228 H 0.45657 0.64939 0.59601 0.0
H229 H 0.3759 0.63224 0.603 0.0
H230 H 0.40868 0.59871 0.58558 0.0
H231 H 0.41351 0.59381 0.48507 0.0
H232 H 0.63222 0.38886 0.06912 0.0
H233 H 0.6222 0.39734 0.16638 0.0
H234 H 0.39793 0.36593 0.12405 0.0
H235 H 0.4073 0.35708 0.02707 0.0
H236 H 0.52571 0.4192 0.19339 0.0
H237 H 0.48189 0.34469 0.27602 0.0
H238 H 0.51701 0.34986 0.21274 0.0
H239 H 0.42172 0.34637 0.20854 0.0
C240 C 0.58102 0.38347 0.08069 0.0
C241 C 0.52053 0.37229 0.0403 0.0
C242 C 0.57541 0.38841 0.13615 0.0
C243 C 0.50949 0.38217 0.15212 0.0
C244 C 0.44953 0.37062 0.11256 0.0
H245 H 0.37098 0.39637 0.46593 0.0
H246 H 0.3718 0.39224 0.36444 0.0
C247 C 0.45506 0.36561 0.05715 0.0
C248 C 0.50253 0.3884 0.20952 0.0
H249 H 0.46512 0.37071 0.33353 0.0
C250 C 0.51267 0.40865 0.22423 0.0
C251 C 0.48524 0.37452 0.24916 0.0
C252 C 0.47643 0.35265 0.23618 0.0
C253 C 0.50525 0.41541 0.27786 0.0
C254 C 0.48807 0.40151 0.31746 0.0
C255 C 0.47765 0.38127 0.30258 0.0
C256 C 0.4841 0.40745 0.37595 0.0
C257 C 0.51499 0.43727 0.29152 0.0
C258 C 0.54657 0.41787 0.41539 0.0
C259 C 0.54645 0.42025 0.47347 0.0
C260 C 0.48398 0.41204 0.49288 0.0
C261 C 0.42023 0.40269 0.45252 0.0
C262 C 0.42043 0.40035 0.3945 0.0
H263 H 0.5089 0.44532 0.25187 0.0
H264 H 0.47535 0.44011 0.3159 0.0
H265 H 0.57016 0.4434 0.31859 0.0
H266 H 0.59651 0.42318 0.40185 0.0
H267 H 0.59633 0.42764 0.50339 0.0
H268 H 0.69948 0.09263 0.21905 0.0
H269 H 0.58235 0.09995 0.21606 0.0
H270 H 0.65895 0.15808 0.16353 0.0
H271 H 0.7769 0.15102 0.16745 0.0
H272 H 0.62452 0.15762 0.27118 0.0
H273 H 0.40288 0.10962 0.10635 0.0
H274 H 0.46322 0.09633 0.1474 0.0
H275 H 0.49643 0.1145 0.10171 0.0
C276 C 0.69058 0.10669 0.20467 0.0
C277 C 0.74776 0.12146 0.19496 0.0
C278 C 0.62342 0.1108 0.20257 0.0
C279 C 0.61266 0.1296 0.19008 0.0
C280 C 0.66675 0.1435 0.17338 0.0
H281 H 0.28113 0.18498 0.23492 0.0
H282 H 0.40251 0.18043 0.23987 0.0
C283 C 0.734 0.1394 0.17542 0.0
C284 C 0.55206 0.13586 0.2062 0.0
H285 H 0.36896 0.12395 0.18526 0.0
C286 C 0.56846 0.15047 0.25197 0.0
C287 C 0.47959 0.12624 0.18151 0.0
C288 C 0.45934 0.11092 0.13116 0.0
C289 C 0.51375 0.15545 0.27464 0.0
C290 C 0.44143 0.14558 0.25054 0.0
C291 C 0.42501 0.13117 0.2043 0.0
C292 C 0.3805 0.15097 0.26858 0.0
C293 C 0.53352 0.17088 0.32463 0.0
C294 C 0.33003 0.13639 0.28693 0.0
C295 C 0.26031 0.13885 0.28367 0.0
C296 C 0.24063 0.15582 0.26121 0.0
C297 C 0.29444 0.17155 0.2511 0.0
C298 C 0.36409 0.16906 0.25437 0.0
H299 H 0.59148 0.17344 0.34717 0.0
H300 H 0.52358 0.18504 0.30847 0.0
H301 H 0.49965 0.1665 0.35605 0.0
H302 H 0.34238 0.12236 0.29828 0.0
H303 H 0.22031 0.12659 0.29274 0.0
H304 H 0.77875 0.89653 0.70697 0.0
H305 H 0.65217 0.89713 0.69738 0.0
H306 H 0.60398 0.83618 0.73628 0.0
H307 H 0.73085 0.83543 0.74657 0.0
H308 H 0.50315 0.87362 0.64705 0.0
H309 H 0.60399 0.87091 0.88355 0.0
H310 H 0.66416 0.87493 0.83525 0.0
H311 H 0.60925 0.85071 0.83744 0.0
C312 C 0.7408 0.883 0.71109 0.0
C313 C 0.76484 0.86618 0.72996 0.0
C314 C 0.66846 0.88336 0.70542 0.0
C315 C 0.62005 0.86688 0.71803 0.0
C316 C 0.64146 0.84911 0.72755 0.0
H317 H 0.22199 0.87085 0.81768 0.0
H318 H 0.33278 0.86108 0.81121 0.0
C319 C 0.71387 0.84876 0.73361 0.0
C320 C 0.5545 0.86982 0.73408 0.0
H321 H 0.48971 0.87764 0.85222 0.0
C322 C 0.49948 0.87424 0.69168 0.0
C323 C 0.55095 0.87074 0.79265 0.0
C324 C 0.6103 0.86671 0.84009 0.0
C325 C 0.44098 0.87996 0.70656 0.0
C326 C 0.43903 0.88164 0.7653 0.0
C327 C 0.49249 0.87649 0.80744 0.0
C328 C 0.38187 0.88904 0.78334 0.0
C329 C 0.38215 0.88439 0.65951 0.0
C330 C 0.37636 0.90848 0.77444 0.0
C331 C 0.31338 0.91417 0.77842 0.0
C332 C 0.25553 0.90039 0.79121 0.0
C333 C 0.26544 0.88176 0.80753 0.0
C334 C 0.32843 0.87608 0.8034 0.0
H335 H 0.38291 0.87796 0.61664 0.0
H336 H 0.32796 0.87856 0.66819 0.0
H337 H 0.39036 0.90062 0.65778 0.0
H338 H 0.4184 0.91875 0.76024 0.0
H339 H 0.30764 0.92874 0.76656 0.0
H340 H 0.73251 0.62628 0.28563 0.0
H341 H 0.85973 0.62607 0.29899 0.0
H342 H 0.90874 0.68751 0.26468 0.0
H343 H 0.78112 0.68781 0.25053 0.0
H344 H 0.92515 0.66214 0.18089 0.0
H345 H 0.06529 0.64582 0.39574 0.0
H346 H 0.97593 0.63029 0.37226 0.0
H347 H 0.98727 0.65652 0.38502 0.0
C348 C 0.77074 0.63999 0.28353 0.0
C349 C 0.74692 0.65685 0.26493 0.0
C350 C 0.84366 0.63989 0.29164 0.0
C351 C 0.89316 0.65673 0.28209 0.0
C352 C 0.87096 0.67437 0.27186 0.0
H353 H 0.29294 0.65509 0.18182 0.0
H354 H 0.18241 0.66478 0.18889 0.0
C355 C 0.79805 0.67446 0.26344 0.0
C356 C 0.9604 0.65432 0.2676 0.0
H357 H 0.1077 0.63542 0.31469 0.0
C358 C 0.96608 0.6567 0.21044 0.0
C359 C 0.01276 0.64704 0.30611 0.0
C360 C 0.01043 0.64494 0.36836 0.0
C361 C 0.02092 0.65095 0.18984 0.0
C362 C 0.07142 0.64288 0.22775 0.0
C363 C 0.06772 0.64132 0.28557 0.0
C364 C 0.12923 0.63595 0.20895 0.0
C365 C 0.02255 0.65274 0.1273 0.0
C366 C 0.13394 0.6163 0.21494 0.0
C367 C 0.19718 0.61072 0.21114 0.0
C368 C 0.25636 0.62481 0.20162 0.0
C369 C 0.24817 0.64389 0.18897 0.0
C370 C 0.18506 0.64949 0.19319 0.0
H371 H 0.97053 0.65492 0.10115 0.0
H372 H 0.06599 0.66565 0.12378 0.0
H373 H 0.03447 0.63938 0.10878 0.0
H374 H 0.09074 0.60566 0.22663 0.0
H375 H 0.20187 0.59586 0.22046 0.0
H376 H 0.72446 0.37218 0.82231 0.0
H377 H 0.84196 0.36487 0.82585 0.0
H378 H 0.92043 0.42315 0.77514 0.0
H379 H 0.80374 0.43072 0.7725 0.0
H380 H 0.87736 0.36558 0.71853 0.0
H381 H 0.09865 0.4129 0.88507 0.0
H382 H 0.00494 0.4081 0.88924 0.0
H383 H 0.03901 0.42644 0.84435 0.0
C384 C 0.76769 0.38378 0.81466 0.0
C385 C 0.7546 0.40185 0.79579 0.0
C386 C 0.83466 0.37953 0.81646 0.0
C387 C 0.88915 0.39342 0.8002 0.0
C388 C 0.87903 0.41231 0.78828 0.0
H389 H 0.28159 0.39714 0.69806 0.0
H390 H 0.15899 0.40102 0.69201 0.0
C391 C 0.81214 0.41656 0.78641 0.0
C392 C 0.94972 0.38712 0.78415 0.0
H393 H 0.1329 0.39894 0.80569 0.0
C394 C 0.93341 0.37265 0.73801 0.0
C395 C 0.0222 0.39662 0.80925 0.0
C396 C 0.04237 0.41175 0.86008 0.0
C397 C 0.98821 0.36774 0.7153 0.0
C398 C 0.06051 0.37755 0.7397 0.0
C399 C 0.07685 0.39178 0.78639 0.0
C400 C 0.12153 0.37232 0.72142 0.0
C401 C 0.96862 0.35247 0.66493 0.0
C402 C 0.13847 0.35428 0.73555 0.0
C403 C 0.20844 0.352 0.73914 0.0
C404 C 0.26198 0.36788 0.72942 0.0
C405 C 0.24179 0.38478 0.70686 0.0
C406 C 0.17176 0.38703 0.70328 0.0
H407 H 0.91053 0.34979 0.64264 0.0
H408 H 0.00214 0.35709 0.63342 0.0
H409 H 0.97931 0.33831 0.6806 0.0
H410 H 0.10023 0.34281 0.74985 0.0
H411 H 0.22216 0.33862 0.75534 0.0
H412 H 0.38097 0.31516 0.71055 0.0
H413 H 0.31845 0.28395 0.65218 0.0
H414 H 0.38764 0.30859 0.50453 0.0
H415 H 0.4498 0.33943 0.56245 0.0
H416 H 0.20487 0.28307 0.55698 0.0
H417 H 0.41749 0.253 0.48992 0.0
H418 H 0.43742 0.27117 0.55016 0.0
H419 H 0.42478 0.27861 0.47777 0.0
C420 C 0.38563 0.31347 0.66642 0.0
C421 C 0.42113 0.3295 0.64112 0.0
C422 C 0.34918 0.29578 0.63289 0.0
C423 C 0.34866 0.29387 0.57395 0.0
C424 C 0.38835 0.30949 0.54999 0.0
H425 H 0.12077 0.20876 0.28084 0.0
H426 H 0.18304 0.23992 0.33952 0.0
C427 C 0.42409 0.32711 0.5832 0.0
C428 C 0.29991 0.27679 0.5356 0.0
H429 H 0.29646 0.24063 0.43476 0.0
C430 C 0.22496 0.27365 0.5307 0.0
C431 C 0.32595 0.26471 0.50057 0.0
C432 C 0.40585 0.2669 0.50516 0.0
C433 C 0.17538 0.25898 0.49119 0.0
C434 C 0.20142 0.24692 0.45611 0.0
C435 C 0.27637 0.25005 0.46105 0.0
C436 C 0.15267 0.22988 0.41758 0.0
C437 C 0.09547 0.25678 0.48662 0.0
C438 C 0.11292 0.21422 0.44135 0.0
C439 C 0.0773 0.19662 0.40796 0.0
C440 C 0.08044 0.19431 0.35005 0.0
C441 C 0.11595 0.21039 0.32495 0.0
C442 C 0.15227 0.22805 0.35866 0.0
H443 H 0.08382 0.27066 0.50203 0.0
H444 H 0.06393 0.25257 0.4416 0.0
H445 H 0.07654 0.24503 0.51387 0.0
H446 H 0.11354 0.21506 0.4868 0.0
H447 H 0.05161 0.18426 0.42857 0.0
H448 H 0.72629 0.33501 0.88142 0.0
H449 H 0.78377 0.30995 0.92813 0.0
H450 H 0.57413 0.27084 0.91234 0.0
H451 H 0.51605 0.29571 0.86505 0.0
H452 H 0.76158 0.29667 0.03217 0.0
H453 H 0.6904 0.23359 0.86702 0.0
H454 H 0.68281 0.25818 0.84911 0.0
H455 H 0.61402 0.24252 0.87738 0.0
C456 C 0.6923 0.32087 0.88629 0.0
C457 C 0.61631 0.31748 0.86962 0.0
C458 C 0.72537 0.30658 0.91338 0.0
C459 C 0.6834 0.28851 0.92396 0.0
C460 C 0.60782 0.28455 0.90403 0.0
H461 H 0.77552 0.18884 0.11304 0.0
H462 H 0.71762 0.21392 0.06692 0.0
C463 C 0.57461 0.29883 0.87682 0.0
C464 C 0.71813 0.27468 0.96049 0.0
H465 H 0.7394 0.2273 0.96316 0.0
C466 C 0.75713 0.28153 0.01695 0.0
C467 C 0.71187 0.25489 0.94086 0.0
C468 C 0.67309 0.24686 0.88012 0.0
C469 C 0.78908 0.26907 0.0545 0.0
C470 C 0.78286 0.24929 0.03485 0.0
C471 C 0.74383 0.24244 0.9784 0.0
C472 C 0.81778 0.23547 0.07129 0.0
C473 C 0.82782 0.2771 0.11524 0.0
C474 C 0.89337 0.23949 0.09122 0.0
C475 C 0.92682 0.2252 0.11811 0.0
C476 C 0.88534 0.20648 0.12497 0.0
C477 C 0.80934 0.20303 0.10841 0.0
C478 C 0.77603 0.21733 0.08165 0.0
H479 H 0.81026 0.29033 0.12841 0.0
H480 H 0.81835 0.26577 0.14623 0.0
H481 H 0.88687 0.28154 0.11794 0.0
H482 H 0.92691 0.25326 0.08307 0.0
H483 H 0.98539 0.22837 0.12981 0.0
H484 H 0.55975 0.6837 0.4284 0.0
H485 H 0.62118 0.71447 0.48737 0.0
H486 H 0.69644 0.73915 0.34206 0.0
H487 H 0.63332 0.7083 0.28245 0.0
H488 H 0.76885 0.7271 0.5102 0.0
H489 H 0.6395 0.78563 0.41301 0.0
H490 H 0.59673 0.75966 0.39776 0.0
H491 H 0.66692 0.77086 0.36302 0.0
C492 C 0.58674 0.69603 0.40841 0.0
C493 C 0.59087 0.69382 0.35072 0.0
C494 C 0.6225 0.71351 0.44229 0.0
C495 C 0.6636 0.72913 0.41932 0.0
C496 C 0.66412 0.72743 0.36054 0.0
H497 H 0.95747 0.8396 0.56682 0.0
H498 H 0.89721 0.80875 0.50792 0.0
C499 C 0.62764 0.70988 0.32633 0.0
C500 C 0.71164 0.74609 0.45855 0.0
H501 H 0.74874 0.79618 0.48453 0.0
C502 C 0.76426 0.74221 0.50473 0.0
C503 C 0.70585 0.76578 0.45132 0.0
C504 C 0.64884 0.7708 0.40394 0.0
C505 C 0.81171 0.7575 0.5434 0.0
C506 C 0.8059 0.77719 0.53618 0.0
C507 C 0.75334 0.78107 0.48997 0.0
C508 C 0.85369 0.79414 0.57556 0.0
C509 C 0.86864 0.7525 0.59089 0.0
C510 C 0.85223 0.79588 0.63412 0.0
C511 C 0.88797 0.81349 0.6683 0.0
C512 C 0.92501 0.82955 0.64407 0.0
C513 C 0.9303 0.82727 0.58669 0.0
C514 C 0.8952 0.80974 0.55284 0.0
H515 H 0.87784 0.73764 0.58199 0.0
H516 H 0.92081 0.7636 0.59696 0.0
H517 H 0.85059 0.75253 0.63181 0.0
H518 H 0.81958 0.78417 0.65239 0.0
H519 H 0.88139 0.81512 0.71191 0.0
H520 H 0.28502 0.68952 0.11019 0.0
H521 H 0.22861 0.7147 0.06314 0.0
H522 H 0.43883 0.75378 0.0818 0.0
H523 H 0.49613 0.72855 0.12812 0.0
H524 H 0.23024 0.75409 0.09015 0.0
H525 H 0.35826 0.74704 0.90692 0.0
H526 H 0.35792 0.72982 0.962 0.0
H527 H 0.42066 0.75354 0.97579 0.0
C528 C 0.31943 0.70361 0.10548 0.0
C529 C 0.39538 0.70683 0.12222 0.0
C530 C 0.28695 0.71799 0.07832 0.0
C531 C 0.32958 0.73588 0.06727 0.0
C532 C 0.40496 0.73985 0.08842 0.0
H533 H 0.23168 0.83575 0.88348 0.0
H534 H 0.28957 0.81084 0.93077 0.0
C535 C 0.43761 0.72547 0.11562 0.0
C536 C 0.29525 0.7498 0.03094 0.0
H537 H 0.28934 0.77121 0.90326 0.0
C538 C 0.24305 0.75781 0.04926 0.0
C539 C 0.31169 0.75456 0.97734 0.0
C540 C 0.36468 0.74568 0.95391 0.0
C541 C 0.20792 0.77073 0.01607 0.0
C542 C 0.22431 0.77547 0.96245 0.0
C543 C 0.27659 0.7675 0.94417 0.0
C544 C 0.18939 0.78924 0.92591 0.0
C545 C 0.15476 0.77958 0.03938 0.0
C546 C 0.11405 0.78494 0.9043 0.0
C547 C 0.08059 0.79914 0.87692 0.0
C548 C 0.12193 0.81795 0.87066 0.0
C549 C 0.19794 0.82152 0.88791 0.0
C550 C 0.23126 0.8073 0.9152 0.0
H551 H 0.16105 0.7782 0.08636 0.0
H552 H 0.16148 0.79544 0.03129 0.0
H553 H 0.09884 0.77171 0.01738 0.0
H554 H 0.08081 0.77088 0.91075 0.0
H555 H 0.02205 0.79579 0.86406 0.0
H556 H 0.03655 0.07617 0.17803 0.0
H557 H 0.0574 0.04675 0.13263 0.0
H558 H 0.8822 0.04754 0.98729 0.0
H559 H 0.85982 0.07668 0.03284 0.0
H560 H 0.8843 1.00952 0.02245 0.0
H561 H 0.15457 0.04913 0.99623 0.0
H562 H 0.14328 0.05014 0.06878 0.0
H563 H 0.0904 0.06185 0.01485 0.0
C564 C 0.00142 0.06989 0.13698 0.0
C565 C 0.94645 0.07888 0.10923 0.0
C566 C 0.01408 0.05319 0.11068 0.0
C567 C 0.97242 0.04518 0.05593 0.0
C568 C 0.91545 0.05355 0.02931 0.0
H569 H 0.96682 0.94769 0.81519 0.0
H570 H 0.94602 0.97716 0.86028 0.0
C571 C 0.90271 0.07023 0.05554 0.0
C572 C 0.98897 0.02838 0.0257 0.0
H573 H 0.12009 0.01472 0.96994 0.0
C574 C 0.93575 1.01067 0.01081 0.0
C575 C 0.0561 0.0299 0.01036 0.0
C576 C 0.11425 0.04882 0.02284 0.0
C577 C 0.9483 0.99433 0.98208 0.0
C578 C 0.01542 0.99585 0.96669 0.0
C579 C 0.06864 0.01357 0.98158 0.0
C580 C 0.03201 0.97904 0.93647 0.0
C581 C 0.89019 0.97541 0.96977 0.0
C582 C 0.08959 0.97085 0.9628 0.0
C583 C 0.10239 0.95416 0.93667 0.0
C584 C 0.05806 0.94531 0.88337 0.0
C585 C 0.00245 0.95412 0.85589 0.0
C586 C -0.01021 0.97085 0.88205 0.0
H587 H 0.85026 0.97506 -0.00325 0.0
H588 H 0.86065 0.97413 0.92397 0.0
H589 H 0.91407 0.96236 0.9774 0.0
H590 H 0.1233 0.977 0.00456 0.0
H591 H 0.14578 0.94785 0.95916 0.0
H592 H 0.15773 0.07643 0.38851 0.0
H593 H 0.14259 0.05131 0.45632 0.0
H594 H 0.95127 0.018 0.33657 0.0
H595 H 0.96566 0.04321 0.2683 0.0
H596 H 0.92458 0.03141 0.4392 0.0
H597 H 0.15328 0.99444 0.48485 0.0
H598 H 0.18112 0.02085 0.48649 0.0
H599 H 0.13166 1.0068 0.42002 0.0
C600 C 0.11465 0.06327 0.37494 0.0
C601 C 0.06158 0.06218 0.32351 0.0
C602 C 0.10579 0.0489 0.41424 0.0
C603 C 0.04488 0.03298 0.40207 0.0
C604 C -0.00188 0.03033 0.34719 0.0
H605 H 0.84646 0.94725 0.60491 0.0
H606 H 0.86193 0.97218 0.53661 0.0
C607 C 0.00694 0.04468 0.30787 0.0
C608 C 0.02337 0.02137 0.44927 0.0
H609 H 0.07997 0.99202 0.55335 0.0
C610 C 0.95825 0.02264 0.46385 0.0
C611 C 0.06776 1.0102 0.48194 0.0
C612 C 0.13706 1.00781 0.46732 0.0
C613 C 0.93679 0.01323 0.5106 0.0
C614 C 0.9812 1.00207 0.54329 0.0
C615 C 0.04629 1.00079 0.52869 0.0
C616 C 0.95979 0.99052 0.59063 0.0
C617 C 0.8675 0.01563 0.52523 0.0
C618 C 0.00658 0.99324 0.6455 0.0
C619 C -0.0024 0.979 0.6851 0.0
C620 C 0.94273 0.96153 0.66977 0.0
C621 C 0.88972 0.96038 0.61825 0.0
C622 C 0.89876 0.97464 0.57868 0.0
H623 H 0.85123 0.02899 0.50763 0.0
H624 H 0.82344 1.00258 0.50611 0.0
H625 H 0.87292 0.01666 0.57252 0.0
H626 H 0.05351 1.00555 0.65594 0.0
H627 H 0.03884 0.98053 0.72471 0.0
H628 H 0.35901 0.57604 0.03499 0.0
H629 H 0.37805 0.54646 0.98918 0.0
H630 H 0.56171 0.54689 0.12859 0.0
H631 H 0.543 0.57642 0.17478 0.0
H632 H 0.49931 0.54377 0.95121 0.0
H633 H 0.45336 0.4893 0.11207 0.0
H634 H 0.42566 0.51238 0.11292 0.0
H635 H 0.51855 0.51176 0.14153 0.0
C636 C 0.40269 0.56966 0.05656 0.0
C637 C 0.44908 0.57858 0.10899 0.0
C638 C 0.41363 0.55276 0.03013 0.0
C639 C 0.47091 0.54431 0.05558 0.0
C640 C 0.5162 0.55286 0.10864 0.0
H641 H 0.64729 0.44811 0.95478 0.0
H642 H 0.62689 0.4776 -7e-05 0.0
C643 C 0.50529 0.56977 0.13514 0.0
C644 C 0.48597 0.52738 0.02478 0.0
H645 H 0.50487 0.47995 0.03716 0.0
C646 C 0.50009 0.52976 0.96985 0.0
C647 C 0.48733 0.50914 0.04918 0.0
C648 C 0.46978 0.50536 0.10693 0.0
C649 C 0.51678 0.51457 0.93915 0.0
C650 C 0.51827 0.49634 0.9636 0.0
C651 C 0.50402 0.49395 0.01848 0.0
C652 C 0.53408 0.47947 0.93308 0.0
C653 C 0.53439 0.51835 0.88142 0.0
C654 C 0.48932 0.47081 0.87995 0.0
C655 C 0.50104 0.45394 0.85378 0.0
C656 C 0.55751 0.44529 0.88041 0.0
C657 C 0.60339 0.45435 0.93288 0.0
C658 C 0.59167 0.47121 0.95893 0.0
H659 H 0.55034 0.5344 0.87611 0.0
H660 H 0.57886 0.51144 0.87565 0.0
H661 H 0.4858 0.51183 0.8468 0.0
H662 H 0.44363 0.47664 0.85966 0.0
H663 H 0.46378 0.4472 0.81403 0.0
H664 H 0.54064 0.48058 0.71895 0.0
H665 H 0.55516 0.50475 0.64818 0.0
H666 H 0.35906 0.47174 0.53316 0.0
H667 H 0.34465 0.44729 0.60321 0.0
H668 H 0.47896 0.4743 0.48798 0.0
H669 H 0.4722 0.54857 0.57254 0.0
H670 H 0.53032 0.53687 0.62214 0.0
H671 H 0.43447 0.52625 0.60266 0.0
C672 C 0.49851 0.47893 0.67985 0.0
C673 C 0.44279 0.46159 0.66619 0.0
C674 C 0.50711 0.4928 0.63914 0.0
C675 C 0.45904 0.48984 0.58477 0.0
C676 C 0.39743 0.47416 0.57453 0.0
H677 H 0.46506 0.54285 0.26501 0.0
H678 H 0.4509 0.51774 0.33329 0.0
C679 C 0.38879 0.46028 0.61521 0.0
C680 C 0.47922 0.50096 0.53626 0.0
H681 H 0.52735 0.54733 0.49311 0.0
C682 C 0.48888 0.49028 0.48883 0.0
C683 C 0.49315 0.52178 0.53769 0.0
C684 C 0.48137 0.53404 0.58623 0.0
C685 C 0.51298 0.49986 0.44327 0.0
C686 C 0.52726 0.52069 0.4449 0.0
C687 C 0.51741 0.53135 0.49223 0.0
C688 C 0.54801 0.53191 0.39677 0.0
C689 C 0.5242 0.48764 0.39439 0.0
C690 C 0.6102 0.54743 0.40766 0.0
C691 C 0.61863 0.56184 0.36845 0.0
C692 C 0.56384 0.56121 0.31841 0.0
C693 C 0.50771 0.54398 0.30355 0.0
C694 C 0.49934 0.52958 0.3428 0.0
H695 H 0.53178 0.4729 0.40738 0.0
H696 H 0.47572 0.48527 0.35816 0.0
H697 H 0.57186 0.49526 0.37861 0.0
H698 H 0.64898 0.54938 0.44876 0.0
H699 H 0.66315 0.57471 0.38124 0.0
loop_
_geom_bond_atom_site_label_1
_geom_bond_atom_site_label_2
_geom_bond_distance
_geom_bond_site_symmetry_2
_ccdc_geom_bond_type
C0 O12 1.241 . S
C0 O13 1.280 1_455 S
C1 O14 1.277 . S
C1 O15 1.245 1_455 S
C2 O26 1.247 . S
C2 O28 1.289 . S
Mg3 O4 1.926 1_655 S
Mg3 O13 1.984 . S
Mg3 O15 1.988 . S
Mg3 O16 2.061 . S
O4 Mg3 1.926 1_455 S
O4 Mg5 1.986 . S
O4 Mg6 1.917 . S
Mg5 O4 1.986 . S
Mg5 O12 2.042 . S
Mg5 O14 2.041 . S
Mg5 O20 2.038 . S
Mg5 O28 2.238 . S
Mg6 O4 1.917 . S
Mg6 O7 1.917 . S
Mg6 O17 2.106 1_455 S
Mg6 O19 2.079 . S
Mg6 O28 2.106 . S
Mg6 O29 2.079 1_455 S
O7 Mg6 1.917 . S
O7 Mg8 1.926 . S
O7 Mg9 1.986 1_455 S
Mg8 O7 1.926 . S
Mg8 O22 1.984 . S
Mg8 O25 1.988 . S
Mg8 O26 2.061 . S
Mg9 O7 1.986 1_655 S
Mg9 O17 2.238 . S
Mg9 O21 2.042 . S
Mg9 O23 2.041 . S
Mg9 O30 2.038 . S
C10 O16 1.247 . S
C10 O17 1.289 . S
C11 O29 1.245 . S
C11 O30 1.274 . S
O12 C0 1.241 . S
O12 Mg5 2.042 . S
O13 C0 1.280 1_655 S
O13 Mg3 1.984 . S
O14 C1 1.277 . S
O14 Mg5 2.041 . S
O15 C1 1.245 1_655 S
O15 Mg3 1.988 . S
O16 Mg3 2.061 . S
O16 C10 1.247 . S
O17 Mg6 2.106 1_655 S
O17 Mg9 2.238 . S
O17 C10 1.289 . S
C18 O19 1.245 . S
C18 O20 1.274 . S
O19 Mg6 2.079 . S
O19 C18 1.245 . S
O20 Mg5 2.038 . S
O20 C18 1.274 . S
O21 Mg9 2.042 . S
O21 C24 1.241 1_655 S
O22 Mg8 1.984 . S
O22 C24 1.280 . S
O23 Mg9 2.041 . S
O23 C27 1.277 . S
C24 O21 1.241 1_455 S
C24 O22 1.280 . S
O25 Mg8 1.988 . S
O25 C27 1.245 1_455 S
O26 C2 1.247 . S
O26 Mg8 2.061 . S
C27 O23 1.277 . S
C27 O25 1.245 1_655 S
O28 C2 1.289 . S
O28 Mg5 2.238 . S
O28 Mg6 2.106 . S
O29 Mg6 2.079 1_655 S
O29 C11 1.245 . S
O30 Mg9 2.038 . S
O30 C11 1.274 . S
C31 O43 1.241 . S
C31 O44 1.280 1_455 S
C32 O45 1.277 . S
C32 O46 1.245 1_455 S
C33 O57 1.247 . S
C33 O59 1.289 . S
Mg34 O35 1.926 1_655 S
Mg34 O44 1.984 . S
Mg34 O46 1.988 . S
Mg34 O47 2.061 . S
O35 Mg34 1.926 1_455 S
O35 Mg36 1.986 . S
O35 Mg37 1.917 . S
Mg36 O35 1.986 . S
Mg36 O43 2.042 . S
Mg36 O45 2.041 . S
Mg36 O51 2.038 . S
Mg36 O59 2.238 . S
Mg37 O35 1.917 . S
Mg37 O38 1.917 . S
Mg37 O48 2.106 1_455 S
Mg37 O50 2.079 . S
Mg37 O59 2.106 . S
Mg37 O60 2.079 1_455 S
O38 Mg37 1.917 . S
O38 Mg39 1.926 . S
O38 Mg40 1.986 1_455 S
Mg39 O38 1.926 . S
Mg39 O53 1.984 . S
Mg39 O56 1.988 . S
Mg39 O57 2.061 . S
Mg40 O38 1.986 1_655 S
Mg40 O48 2.238 . S
Mg40 O52 2.042 . S
Mg40 O54 2.041 . S
Mg40 O61 2.038 . S
C41 O47 1.247 . S
C41 O48 1.289 . S
C42 O60 1.245 . S
C42 O61 1.274 . S
O43 C31 1.241 . S
O43 Mg36 2.042 . S
O44 C31 1.280 1_655 S
O44 Mg34 1.984 . S
O45 C32 1.277 . S
O45 Mg36 2.041 . S
O46 C32 1.245 1_655 S
O46 Mg34 1.988 . S
O47 Mg34 2.061 . S
O47 C41 1.247 . S
O48 Mg37 2.106 1_655 S
O48 Mg40 2.238 . S
O48 C41 1.289 . S
C49 O50 1.245 . S
C49 O51 1.274 . S
O50 Mg37 2.079 . S
O50 C49 1.245 . S
O51 Mg36 2.038 . S
O51 C49 1.274 . S
O52 Mg40 2.042 . S
O52 C55 1.241 1_655 S
O53 Mg39 1.984 . S
O53 C55 1.280 . S
O54 Mg40 2.041 . S
O54 C58 1.277 . S
C55 O52 1.241 1_455 S
C55 O53 1.280 . S
O56 Mg39 1.988 . S
O56 C58 1.245 1_455 S
O57 C33 1.247 . S
O57 Mg39 2.061 . S
C58 O54 1.277 . S
C58 O56 1.245 1_655 S
O59 C33 1.289 . S
O59 Mg36 2.238 . S
O59 Mg37 2.106 . S
O60 Mg37 2.079 1_655 S
O60 C42 1.245 . S
O61 Mg40 2.038 . S
O61 C42 1.274 . S
C62 O74 1.241 . S
C62 O75 1.280 . S
C63 O76 1.277 . S
C63 O77 1.245 . S
C64 O88 1.247 . S
C64 O90 1.289 . S
Mg65 O66 1.926 . S
Mg65 O75 1.984 . S
Mg65 O77 1.988 . S
Mg65 O78 2.061 . S
O66 Mg65 1.926 . S
O66 Mg67 1.986 . S
O66 Mg68 1.917 . S
Mg67 O66 1.986 . S
Mg67 O74 2.042 . S
Mg67 O76 2.041 . S
Mg67 O82 2.038 . S
Mg67 O90 2.238 . S
Mg68 O66 1.917 . S
Mg68 O69 1.917 . S
Mg68 O79 2.106 . S
Mg68 O81 2.079 . S
Mg68 O90 2.106 . S
Mg68 O91 2.079 . S
O69 Mg68 1.917 . S
O69 Mg70 1.926 . S
O69 Mg71 1.986 . S
Mg70 O69 1.926 . S
Mg70 O84 1.984 . S
Mg70 O87 1.988 . S
Mg70 O88 2.061 . S
Mg71 O69 1.986 . S
Mg71 O79 2.238 . S
Mg71 O83 2.042 . S
Mg71 O85 2.041 . S
Mg71 O92 2.038 . S
C72 O78 1.247 . S
C72 O79 1.289 . S
C73 O91 1.245 . S
C73 O92 1.274 . S
O74 C62 1.241 . S
O74 Mg67 2.042 . S
O75 C62 1.280 . S
O75 Mg65 1.984 . S
O76 C63 1.277 . S
O76 Mg67 2.041 . S
O77 C63 1.245 . S
O77 Mg65 1.988 . S
O78 Mg65 2.061 . S
O78 C72 1.247 . S
O79 Mg68 2.106 . S
O79 Mg71 2.238 . S
O79 C72 1.289 . S
C80 O81 1.245 . S
C80 O82 1.274 . S
O81 Mg68 2.079 . S
O81 C80 1.245 . S
O82 Mg67 2.038 . S
O82 C80 1.274 . S
O83 Mg71 2.042 . S
O83 C86 1.241 . S
O84 Mg70 1.984 . S
O84 C86 1.280 . S
O85 Mg71 2.041 . S
O85 C89 1.277 . S
C86 O83 1.241 . S
C86 O84 1.280 . S
O87 Mg70 1.988 . S
O87 C89 1.245 . S
O88 C64 1.247 . S
O88 Mg70 2.061 . S
C89 O85 1.277 . S
C89 O87 1.245 . S
O90 C64 1.289 . S
O90 Mg67 2.238 . S
O90 Mg68 2.106 . S
O91 Mg68 2.079 . S
O91 C73 1.245 . S
O92 Mg71 2.038 . S
O92 C73 1.274 . S
C93 O105 1.241 . S
C93 O106 1.280 . S
C94 O107 1.277 . S
C94 O108 1.245 . S
C95 O119 1.247 . S
C95 O121 1.289 . S
Mg96 O97 1.926 . S
Mg96 O106 1.984 . S
Mg96 O108 1.988 . S
Mg96 O109 2.061 . S
O97 Mg96 1.926 . S
O97 Mg98 1.986 . S
O97 Mg99 1.917 . S
Mg98 O97 1.986 . S
Mg98 O105 2.042 . S
Mg98 O107 2.041 . S
Mg98 O113 2.038 . S
Mg98 O121 2.238 . S
Mg99 O97 1.917 . S
Mg99 O100 1.917 . S
Mg99 O110 2.106 . S
Mg99 O112 2.079 . S
Mg99 O121 2.106 . S
Mg99 O122 2.079 . S
O100 Mg99 1.917 . S
O100 Mg101 1.926 . S
O100 Mg102 1.986 . S
Mg101 O100 1.926 . S
Mg101 O115 1.984 . S
Mg101 O118 1.988 . S
Mg101 O119 2.061 . S
Mg102 O100 1.986 . S
Mg102 O110 2.238 . S
Mg102 O114 2.042 . S
Mg102 O116 2.041 . S
Mg102 O123 2.038 . S
C103 O109 1.247 . S
C103 O110 1.289 . S
C104 O122 1.245 . S
C104 O123 1.274 . S
O105 C93 1.241 . S
O105 Mg98 2.042 . S
O106 C93 1.280 . S
O106 Mg96 1.984 . S
O107 C94 1.277 . S
O107 Mg98 2.041 . S
O108 C94 1.245 . S
O108 Mg96 1.988 . S
O109 Mg96 2.061 . S
O109 C103 1.247 . S
O110 Mg99 2.106 . S
O110 Mg102 2.238 . S
O110 C103 1.289 . S
C111 O112 1.245 . S
C111 O113 1.274 . S
O112 Mg99 2.079 . S
O112 C111 1.245 . S
O113 Mg98 2.038 . S
O113 C111 1.274 . S
O114 Mg102 2.042 . S
O114 C117 1.241 . S
O115 Mg101 1.984 . S
O115 C117 1.280 . S
O116 Mg102 2.041 . S
O116 C120 1.277 . S
C117 O114 1.241 . S
C117 O115 1.280 . S
O118 Mg101 1.988 . S
O118 C120 1.245 . S
O119 C95 1.247 . S
O119 Mg101 2.061 . S
C120 O116 1.277 . S
C120 O118 1.245 . S
O121 C95 1.289 . S
O121 Mg98 2.238 . S
O121 Mg99 2.106 . S
O122 Mg99 2.079 . S
O122 C104 1.245 . S
O123 Mg102 2.038 . S
O123 C104 1.274 . S
H124 C132 0.929 . S
H125 C134 0.930 . S
H126 C136 0.930 . S
H127 C139 0.929 . S
H128 C142 0.930 . S
H129 C144 0.960 . S
H130 C144 0.960 . S
H131 C144 0.960 . S
C132 H124 0.929 . S
C132 C133 1.377 1_655 S
C132 C134 1.384 . S
C133 C132 1.377 1_455 S
C133 C139 1.390 . S
C134 H125 0.930 . S
C134 C132 1.384 . S
C134 C135 1.372 1_655 S
C135 C134 1.372 1_455 S
C135 C136 1.400 . S
C135 C140 1.490 . S
C136 H126 0.930 . S
C136 C135 1.400 . S
C136 C139 1.386 . S
H137 C153 0.930 . S
H138 C154 0.931 . S
C139 H127 0.929 . S
C139 C133 1.390 . S
C139 C136 1.386 . S
C140 C135 1.490 . S
C140 C142 1.395 . S
C140 C143 1.403 1_455 S
H141 C147 0.930 . S
C142 H128 0.930 . S
C142 C140 1.395 . S
C142 C145 1.403 . S
C143 C140 1.403 1_655 S
C143 C144 1.524 . S
C143 C147 1.400 . S
C144 H129 0.960 . S
C144 H130 0.960 . S
C144 H131 0.960 . S
C144 C143 1.524 . S
C145 C142 1.403 . S
C145 C146 1.392 . S
C145 C149 1.495 . S
C146 C145 1.392 . S
C146 C147 1.385 1_455 S
C146 C148 1.478 . S
C147 H141 0.930 . S
C147 C143 1.400 . S
C147 C146 1.385 1_655 S
C148 C146 1.478 . S
C148 C150 1.381 1_455 S
C148 C154 1.383 . S
C149 C145 1.495 . S
C149 H155 0.959 . S
C149 H156 0.961 . S
C149 H157 0.960 . S
C150 C148 1.381 1_655 S
C150 C151 1.394 . S
C150 H158 0.930 . S
C151 C150 1.394 . S
C151 C152 1.383 1_655 S
C151 H159 0.929 . S
C152 C151 1.383 1_455 S
C152 C153 1.377 . S
C153 H137 0.930 . S
C153 C152 1.377 . S
C153 C154 1.379 . S
C154 H138 0.931 . S
C154 C148 1.383 . S
C154 C153 1.379 . S
H155 C149 0.959 . S
H156 C149 0.961 . S
H157 C149 0.960 . S
H158 C150 0.930 . S
H159 C151 0.929 . S
H160 C168 0.929 . S
H161 C170 0.930 . S
H162 C172 0.930 . S
H163 C175 0.929 . S
H164 C178 0.930 . S
H165 C180 0.960 . S
H166 C180 0.960 . S
H167 C180 0.960 . S
C168 H160 0.929 . S
C168 C169 1.377 . S
C168 C170 1.384 . S
C169 C168 1.377 . S
C169 C175 1.390 1_455 S
C170 H161 0.930 . S
C170 C168 1.384 . S
C170 C171 1.372 . S
C171 C170 1.372 . S
C171 C172 1.400 1_455 S
C171 C176 1.490 . S
C172 H162 0.930 . S
C172 C171 1.400 1_655 S
C172 C175 1.386 . S
H173 C189 0.930 . S
H174 C190 0.931 . S
C175 H163 0.929 . S
C175 C169 1.390 1_655 S
C175 C172 1.386 . S
C176 C171 1.490 . S
C176 C178 1.395 . S
C176 C179 1.403 1_455 S
H177 C183 0.930 . S
C178 H164 0.930 . S
C178 C176 1.395 . S
C178 C181 1.403 . S
C179 C176 1.403 1_655 S
C179 C180 1.524 . S
C179 C183 1.400 . S
C180 H165 0.960 . S
C180 H166 0.960 . S
C180 H167 0.960 . S
C180 C179 1.524 . S
C181 C178 1.403 . S
C181 C182 1.392 . S
C181 C185 1.495 . S
C182 C181 1.392 . S
C182 C183 1.385 1_455 S
C182 C184 1.478 . S
C183 H177 0.930 . S
C183 C179 1.400 . S
C183 C182 1.385 1_655 S
C184 C182 1.478 . S
C184 C186 1.381 . S
C184 C190 1.383 1_455 S
C185 C181 1.495 . S
C185 H191 0.959 . S
C185 H192 0.961 . S
C185 H193 0.960 . S
C186 C184 1.381 . S
C186 C187 1.394 . S
C186 H194 0.930 . S
C187 C186 1.394 . S
C187 C188 1.383 . S
C187 H195 0.929 . S
C188 C187 1.383 . S
C188 C189 1.377 1_455 S
C189 H173 0.930 . S
C189 C188 1.377 1_655 S
C189 C190 1.379 . S
C190 H174 0.931 . S
C190 C184 1.383 1_655 S
C190 C189 1.379 . S
H191 C185 0.959 . S
H192 C185 0.961 . S
H193 C185 0.960 . S
H194 C186 0.930 . S
H195 C187 0.929 . S
H196 C204 0.929 . S
H197 C206 0.930 . S
H198 C208 0.930 . S
H199 C211 0.929 . S
H200 C214 0.930 . S
H201 C216 0.960 . S
H202 C216 0.960 . S
H203 C216 0.960 . S
C204 H196 0.929 . S
C204 C205 1.377 . S
C204 C206 1.384 . S
C205 C204 1.377 . S
C205 C211 1.390 . S
C206 H197 0.930 . S
C206 C204 1.384 . S
C206 C207 1.372 . S
C207 C206 1.372 . S
C207 C208 1.400 . S
C207 C212 1.490 . S
C208 H198 0.930 . S
C208 C207 1.400 . S
C208 C211 1.386 . S
H209 C225 0.930 . S
H210 C226 0.931 . S
C211 H199 0.929 . S
C211 C205 1.390 . S
C211 C208 1.386 . S
C212 C207 1.490 . S
C212 C214 1.395 . S
C212 C215 1.403 . S
H213 C219 0.930 . S
C214 H200 0.930 . S
C214 C212 1.395 . S
C214 C217 1.403 . S
C215 C212 1.403 . S
C215 C216 1.524 . S
C215 C219 1.400 . S
C216 H201 0.960 . S
C216 H202 0.960 . S
C216 H203 0.960 . S
C216 C215 1.524 . S
C217 C214 1.403 . S
C217 C218 1.392 . S
C217 C221 1.495 . S
C218 C217 1.392 . S
C218 C219 1.385 . S
C218 C220 1.478 . S
C219 H213 0.930 . S
C219 C215 1.400 . S
C219 C218 1.385 . S
C220 C218 1.478 . S
C220 C222 1.381 . S
C220 C226 1.383 . S
C221 C217 1.495 . S
C221 H227 0.959 . S
C221 H228 0.961 . S
C221 H229 0.960 . S
C222 C220 1.381 . S
C222 C223 1.394 . S
C222 H230 0.930 . S
C223 C222 1.394 . S
C223 C224 1.383 . S
C223 H231 0.929 . S
C224 C223 1.383 . S
C224 C225 1.377 . S
C225 H209 0.930 . S
C225 C224 1.377 . S
C225 C226 1.379 . S
C226 H210 0.931 . S
C226 C220 1.383 . S
C226 C225 1.379 . S
H227 C221 0.959 . S
H228 C221 0.961 . S
H229 C221 0.960 . S
H230 C222 0.930 . S
H231 C223 0.929 . S
H232 C240 0.929 . S
H233 C242 0.930 . S
H234 C244 0.930 . S
H235 C247 0.929 . S
H236 C250 0.930 . S
H237 C252 0.960 . S
H238 C252 0.960 . S
H239 C252 0.960 . S
C240 H232 0.929 . S
C240 C241 1.377 . S
C240 C242 1.384 . S
C241 C240 1.377 . S
C241 C247 1.390 . S
C242 H233 0.930 . S
C242 C240 1.384 . S
C242 C243 1.372 . S
C243 C242 1.372 . S
C243 C244 1.400 . S
C243 C248 1.490 . S
C244 H234 0.930 . S
C244 C243 1.400 . S
C244 C247 1.386 . S
H245 C261 0.930 . S
H246 C262 0.931 . S
C247 H235 0.929 . S
C247 C241 1.390 . S
C247 C244 1.386 . S
C248 C243 1.490 . S
C248 C250 1.395 . S
C248 C251 1.403 . S
H249 C255 0.930 . S
C250 H236 0.930 . S
C250 C248 1.395 . S
C250 C253 1.403 . S
C251 C248 1.403 . S
C251 C252 1.524 . S
C251 C255 1.400 . S
C252 H237 0.960 . S
C252 H238 0.960 . S
C252 H239 0.960 . S
C252 C251 1.524 . S
C253 C250 1.403 . S
C253 C254 1.392 . S
C253 C257 1.495 . S
C254 C253 1.392 . S
C254 C255 1.385 . S
C254 C256 1.478 . S
C255 H249 0.930 . S
C255 C251 1.400 . S
C255 C254 1.385 . S
C256 C254 1.478 . S
C256 C258 1.381 . S
C256 C262 1.383 . S
C257 C253 1.495 . S
C257 H263 0.959 . S
C257 H264 0.961 . S
C257 H265 0.960 . S
C258 C256 1.381 . S
C258 C259 1.394 . S
C258 H266 0.930 . S
C259 C258 1.394 . S
C259 C260 1.383 . S
C259 H267 0.929 . S
C260 C259 1.383 . S
C260 C261 1.377 . S
C261 H245 0.930 . S
C261 C260 1.377 . S
C261 C262 1.379 . S
C262 H246 0.931 . S
C262 C256 1.383 . S
C262 C261 1.379 . S
H263 C257 0.959 . S
H264 C257 0.961 . S
H265 C257 0.960 . S
H266 C258 0.930 . S
H267 C259 0.929 . S
H268 C276 0.929 . S
H269 C278 0.930 . S
H270 C280 0.930 . S
H271 C283 0.929 . S
H272 C286 0.930 . S
H273 C288 0.960 . S
H274 C288 0.960 . S
H275 C288 0.960 . S
C276 H268 0.929 . S
C276 C277 1.377 . S
C276 C278 1.384 . S
C277 C276 1.377 . S
C277 C283 1.390 . S
C278 H269 0.930 . S
C278 C276 1.384 . S
C278 C279 1.372 . S
C279 C278 1.372 . S
C279 C280 1.400 . S
C279 C284 1.490 . S
C280 H270 0.930 . S
C280 C279 1.400 . S
C280 C283 1.386 . S
H281 C297 0.930 . S
H282 C298 0.931 . S
C283 H271 0.929 . S
C283 C277 1.390 . S
C283 C280 1.386 . S
C284 C279 1.490 . S
C284 C286 1.395 . S
C284 C287 1.403 . S
H285 C291 0.930 . S
C286 H272 0.930 . S
C286 C284 1.395 . S
C286 C289 1.403 . S
C287 C284 1.403 . S
C287 C288 1.524 . S
C287 C291 1.400 . S
C288 H273 0.960 . S
C288 H274 0.960 . S
C288 H275 0.960 . S
C288 C287 1.524 . S
C289 C286 1.403 . S
C289 C290 1.392 . S
C289 C293 1.495 . S
C290 C289 1.392 . S
C290 C291 1.385 . S
C290 C292 1.478 . S
C291 H285 0.930 . S
C291 C287 1.400 . S
C291 C290 1.385 . S
C292 C290 1.478 . S
C292 C294 1.381 . S
C292 C298 1.383 . S
C293 C289 1.495 . S
C293 H299 0.959 . S
C293 H300 0.961 . S
C293 H301 0.960 . S
C294 C292 1.381 . S
C294 C295 1.394 . S
C294 H302 0.930 . S
C295 C294 1.394 . S
C295 C296 1.383 . S
C295 H303 0.929 . S
C296 C295 1.383 . S
C296 C297 1.377 . S
C297 H281 0.930 . S
C297 C296 1.377 . S
C297 C298 1.379 . S
C298 H282 0.931 . S
C298 C292 1.383 . S
C298 C297 1.379 . S
H299 C293 0.959 . S
H300 C293 0.961 . S
H301 C293 0.960 . S
H302 C294 0.930 . S
H303 C295 0.929 . S
H304 C312 0.929 . S
H305 C314 0.930 . S
H306 C316 0.930 . S
H307 C319 0.929 . S
H308 C322 0.930 . S
H309 C324 0.960 . S
H310 C324 0.960 . S
H311 C324 0.960 . S
C312 H304 0.929 . S
C312 C313 1.377 . S
C312 C314 1.384 . S
C313 C312 1.377 . S
C313 C319 1.390 . S
C314 H305 0.930 . S
C314 C312 1.384 . S
C314 C315 1.372 . S
C315 C314 1.372 . S
C315 C316 1.400 . S
C315 C320 1.490 . S
C316 H306 0.930 . S
C316 C315 1.400 . S
C316 C319 1.386 . S
H317 C333 0.930 . S
H318 C334 0.931 . S
C319 H307 0.929 . S
C319 C313 1.390 . S
C319 C316 1.386 . S
C320 C315 1.490 . S
C320 C322 1.395 . S
C320 C323 1.403 . S
H321 C327 0.930 . S
C322 H308 0.930 . S
C322 C320 1.395 . S
C322 C325 1.403 . S
C323 C320 1.403 . S
C323 C324 1.524 . S
C323 C327 1.400 . S
C324 H309 0.960 . S
C324 H310 0.960 . S
C324 H311 0.960 . S
C324 C323 1.524 . S
C325 C322 1.403 . S
C325 C326 1.392 . S
C325 C329 1.495 . S
C326 C325 1.392 . S
C326 C327 1.385 . S
C326 C328 1.478 . S
C327 H321 0.930 . S
C327 C323 1.400 . S
C327 C326 1.385 . S
C328 C326 1.478 . S
C328 C330 1.381 . S
C328 C334 1.383 . S
C329 C325 1.495 . S
C329 H335 0.959 . S
C329 H336 0.961 . S
C329 H337 0.960 . S
C330 C328 1.381 . S
C330 C331 1.394 . S
C330 H338 0.930 . S
C331 C330 1.394 . S
C331 C332 1.383 . S
C331 H339 0.929 . S
C332 C331 1.383 . S
C332 C333 1.377 . S
C333 H317 0.930 . S
C333 C332 1.377 . S
C333 C334 1.379 . S
C334 H318 0.931 . S
C334 C328 1.383 . S
C334 C333 1.379 . S
H335 C329 0.959 . S
H336 C329 0.961 . S
H337 C329 0.960 . S
H338 C330 0.930 . S
H339 C331 0.929 . S
H340 C348 0.929 . S
H341 C350 0.930 . S
H342 C352 0.930 . S
H343 C355 0.929 . S
H344 C358 0.930 . S
H345 C360 0.960 1_455 S
H346 C360 0.960 . S
H347 C360 0.960 . S
C348 H340 0.929 . S
C348 C349 1.377 . S
C348 C350 1.384 . S
C349 C348 1.377 . S
C349 C355 1.390 . S
C350 H341 0.930 . S
C350 C348 1.384 . S
C350 C351 1.372 . S
C351 C350 1.372 . S
C351 C352 1.400 . S
C351 C356 1.490 . S
C352 H342 0.930 . S
C352 C351 1.400 . S
C352 C355 1.386 . S
H353 C369 0.930 . S
H354 C370 0.931 . S
C355 H343 0.929 . S
C355 C349 1.390 . S
C355 C352 1.386 . S
C356 C351 1.490 . S
C356 C358 1.395 . S
C356 C359 1.403 . S
H357 C363 0.930 . S
C358 H344 0.930 . S
C358 C356 1.395 . S
C358 C361 1.403 1_655 S
C359 C356 1.403 . S
C359 C360 1.524 . S
C359 C363 1.400 1_655 S
C360 H345 0.960 1_655 S
C360 H346 0.960 . S
C360 H347 0.960 . S
C360 C359 1.524 . S
C361 C358 1.403 1_455 S
C361 C362 1.392 . S
C361 C365 1.495 . S
C362 C361 1.392 . S
C362 C363 1.385 . S
C362 C364 1.478 . S
C363 H357 0.930 . S
C363 C359 1.400 1_455 S
C363 C362 1.385 . S
C364 C362 1.478 . S
C364 C366 1.381 . S
C364 C370 1.383 . S
C365 C361 1.495 . S
C365 H371 0.959 . S
C365 H372 0.961 . S
C365 H373 0.960 . S
C366 C364 1.381 . S
C366 C367 1.394 . S
C366 H374 0.930 . S
C367 C366 1.394 . S
C367 C368 1.383 . S
C367 H375 0.929 . S
C368 C367 1.383 . S
C368 C369 1.377 . S
C369 H353 0.930 . S
C369 C368 1.377 . S
C369 C370 1.379 . S
C370 H354 0.931 . S
C370 C364 1.383 . S
C370 C369 1.379 . S
H371 C365 0.959 . S
H372 C365 0.961 . S
H373 C365 0.960 . S
H374 C366 0.930 . S
H375 C367 0.929 . S
H376 C384 0.929 . S
H377 C386 0.930 . S
H378 C388 0.930 . S
H379 C391 0.929 . S
H380 C394 0.930 . S
H381 C396 0.960 1_455 S
H382 C396 0.960 . S
H383 C396 0.960 . S
C384 H376 0.929 . S
C384 C385 1.377 . S
C384 C386 1.384 . S
C385 C384 1.377 . S
C385 C391 1.390 . S
C386 H377 0.930 . S
C386 C384 1.384 . S
C386 C387 1.372 . S
C387 C386 1.372 . S
C387 C388 1.400 . S
C387 C392 1.490 . S
C388 H378 0.930 . S
C388 C387 1.400 . S
C388 C391 1.386 . S
H389 C405 0.930 . S
H390 C406 0.931 . S
C391 H379 0.929 . S
C391 C385 1.390 . S
C391 C388 1.386 . S
C392 C387 1.490 . S
C392 C394 1.395 . S
C392 C395 1.401 1_655 S
H393 C399 0.930 . S
C394 H380 0.930 . S
C394 C392 1.395 . S
C394 C397 1.403 1_655 S
C395 C392 1.401 1_455 S
C395 C396 1.523 1_455 S
C395 C399 1.403 . S
C396 H381 0.960 1_655 S
C396 H382 0.960 . S
C396 H383 0.960 . S
C396 C395 1.523 1_655 S
C397 C394 1.403 1_455 S
C397 C398 1.392 . S
C397 C401 1.495 . S
C398 C397 1.392 . S
C398 C399 1.385 . S
C398 C400 1.478 . S
C399 H393 0.930 . S
C399 C395 1.403 . S
C399 C398 1.385 . S
C400 C398 1.478 . S
C400 C402 1.381 . S
C400 C406 1.383 . S
C401 C397 1.495 . S
C401 H407 0.959 1_455 S
C401 H408 0.961 . S
C401 H409 0.960 . S
C402 C400 1.381 . S
C402 C403 1.394 . S
C402 H410 0.930 . S
C403 C402 1.394 . S
C403 C404 1.383 . S
C403 H411 0.929 . S
C404 C403 1.383 . S
C404 C405 1.377 . S
C405 H389 0.930 . S
C405 C404 1.377 . S
C405 C406 1.379 . S
C406 H390 0.931 . S
C406 C400 1.383 . S
C406 C405 1.379 . S
H407 C401 0.959 1_655 S
H408 C401 0.961 . S
H409 C401 0.960 . S
H410 C402 0.930 . S
H411 C403 0.929 . S
H412 C420 0.929 . S
H413 C422 0.930 . S
H414 C424 0.930 . S
H415 C427 0.929 . S
H416 C430 0.930 . S
H417 C432 0.960 . S
H418 C432 0.960 . S
H419 C432 0.960 . S
C420 H412 0.929 . S
C420 C421 1.377 . S
C420 C422 1.384 . S
C421 C420 1.377 . S
C421 C427 1.390 . S
C422 H413 0.930 . S
C422 C420 1.384 . S
C422 C423 1.372 . S
C423 C422 1.372 . S
C423 C424 1.400 . S
C423 C428 1.490 . S
C424 H414 0.930 . S
C424 C423 1.400 . S
C424 C427 1.386 . S
H425 C441 0.930 . S
H426 C442 0.931 . S
C427 H415 0.929 . S
C427 C421 1.390 . S
C427 C424 1.386 . S
C428 C423 1.490 . S
C428 C430 1.395 . S
C428 C431 1.403 . S
H429 C435 0.930 . S
C430 H416 0.930 . S
C430 C428 1.395 . S
C430 C433 1.403 . S
C431 C428 1.403 . S
C431 C432 1.524 . S
C431 C435 1.400 . S
C432 H417 0.960 . S
C432 H418 0.960 . S
C432 H419 0.960 . S
C432 C431 1.524 . S
C433 C430 1.403 . S
C433 C434 1.392 . S
C433 C437 1.495 . S
C434 C433 1.392 . S
C434 C435 1.385 . S
C434 C436 1.478 . S
C435 H429 0.930 . S
C435 C431 1.400 . S
C435 C434 1.385 . S
C436 C434 1.478 . S
C436 C438 1.381 . S
C436 C442 1.383 . S
C437 C433 1.495 . S
C437 H443 0.959 . S
C437 H444 0.961 . S
C437 H445 0.960 . S
C438 C436 1.381 . S
C438 C439 1.394 . S
C438 H446 0.930 . S
C439 C438 1.394 . S
C439 C440 1.383 . S
C439 H447 0.929 . S
C440 C439 1.383 . S
C440 C441 1.377 . S
C441 H425 0.930 . S
C441 C440 1.377 . S
C441 C442 1.379 . S
C442 H426 0.931 . S
C442 C436 1.383 . S
C442 C441 1.379 . S
H443 C437 0.959 . S
H444 C437 0.961 . S
H445 C437 0.960 . S
H446 C438 0.930 . S
H447 C439 0.929 . S
H448 C456 0.929 . S
H449 C458 0.930 . S
H450 C460 0.930 . S
H451 C463 0.929 . S
H452 C466 0.930 . S
H453 C468 0.960 . S
H454 C468 0.960 . S
H455 C468 0.960 . S
C456 H448 0.929 . S
C456 C457 1.377 . S
C456 C458 1.384 . S
C457 C456 1.377 . S
C457 C463 1.390 . S
C458 H449 0.930 . S
C458 C456 1.384 . S
C458 C459 1.372 . S
C459 C458 1.372 . S
C459 C460 1.400 . S
C459 C464 1.490 . S
C460 H450 0.930 . S
C460 C459 1.400 . S
C460 C463 1.386 . S
H461 C477 0.930 . S
H462 C478 0.931 . S
C463 H451 0.929 . S
C463 C457 1.390 . S
C463 C460 1.386 . S
C464 C459 1.490 . S
C464 C466 1.395 1_556 S
C464 C467 1.403 . S
H465 C471 0.930 . S
C466 H452 0.930 . S
C466 C464 1.395 1_554 S
C466 C469 1.403 . S
C467 C464 1.403 . S
C467 C468 1.524 . S
C467 C471 1.400 . S
C468 H453 0.960 . S
C468 H454 0.960 . S
C468 H455 0.960 . S
C468 C467 1.524 . S
C469 C466 1.403 . S
C469 C470 1.392 . S
C469 C473 1.495 . S
C470 C469 1.392 . S
C470 C471 1.385 1_554 S
C470 C472 1.478 . S
C471 H465 0.930 . S
C471 C467 1.400 . S
C471 C470 1.385 1_556 S
C472 C470 1.478 . S
C472 C474 1.381 . S
C472 C478 1.383 . S
C473 C469 1.495 . S
C473 H479 0.959 . S
C473 H480 0.961 . S
C473 H481 0.960 . S
C474 C472 1.381 . S
C474 C475 1.394 . S
C474 H482 0.930 . S
C475 C474 1.394 . S
C475 C476 1.383 . S
C475 H483 0.929 . S
C476 C475 1.383 . S
C476 C477 1.377 . S
C477 H461 0.930 . S
C477 C476 1.377 . S
C477 C478 1.379 . S
C478 H462 0.931 . S
C478 C472 1.383 . S
C478 C477 1.379 . S
H479 C473 0.959 . S
H480 C473 0.961 . S
H481 C473 0.960 . S
H482 C474 0.930 . S
H483 C475 0.929 . S
H484 C492 0.929 . S
H485 C494 0.930 . S
H486 C496 0.930 . S
H487 C499 0.929 . S
H488 C502 0.930 . S
H489 C504 0.960 . S
H490 C504 0.960 . S
H491 C504 0.960 . S
C492 H484 0.929 . S
C492 C493 1.377 . S
C492 C494 1.384 . S
C493 C492 1.377 . S
C493 C499 1.390 . S
C494 H485 0.930 . S
C494 C492 1.384 . S
C494 C495 1.372 . S
C495 C494 1.372 . S
C495 C496 1.400 . S
C495 C500 1.490 . S
C496 H486 0.930 . S
C496 C495 1.400 . S
C496 C499 1.386 . S
H497 C513 0.930 . S
H498 C514 0.931 . S
C499 H487 0.929 . S
C499 C493 1.390 . S
C499 C496 1.386 . S
C500 C495 1.490 . S
C500 C502 1.395 . S
C500 C503 1.403 . S
H501 C507 0.930 . S
C502 H488 0.930 . S
C502 C500 1.395 . S
C502 C505 1.403 . S
C503 C500 1.403 . S
C503 C504 1.524 . S
C503 C507 1.400 . S
C504 H489 0.960 . S
C504 H490 0.960 . S
C504 H491 0.960 . S
C504 C503 1.524 . S
C505 C502 1.403 . S
C505 C506 1.392 . S
C505 C509 1.495 . S
C506 C505 1.392 . S
C506 C507 1.385 . S
C506 C508 1.478 . S
C507 H501 0.930 . S
C507 C503 1.400 . S
C507 C506 1.385 . S
C508 C506 1.478 . S
C508 C510 1.381 . S
C508 C514 1.383 . S
C509 C505 1.495 . S
C509 H515 0.959 . S
C509 H516 0.961 . S
C509 H517 0.960 . S
C510 C508 1.381 . S
C510 C511 1.394 . S
C510 H518 0.930 . S
C511 C510 1.394 . S
C511 C512 1.383 . S
C511 H519 0.929 . S
C512 C511 1.383 . S
C512 C513 1.377 . S
C513 H497 0.930 . S
C513 C512 1.377 . S
C513 C514 1.379 . S
C514 H498 0.931 . S
C514 C508 1.383 . S
C514 C513 1.379 . S
H515 C509 0.959 . S
H516 C509 0.961 . S
H517 C509 0.960 . S
H518 C510 0.930 . S
H519 C511 0.929 . S
H520 C528 0.929 . S
H521 C530 0.930 1_556 S
H522 C532 0.930 . S
H523 C535 0.929 . S
H524 C538 0.930 . S
H525 C540 0.960 . S
H526 C540 0.960 . S
H527 C540 0.960 . S
C528 H520 0.929 . S
C528 C529 1.377 . S
C528 C530 1.384 . S
C529 C528 1.377 . S
C529 C535 1.390 . S
C530 H521 0.930 1_554 S
C530 C528 1.384 . S
C530 C531 1.372 . S
C531 C530 1.372 . S
C531 C532 1.400 . S
C531 C536 1.490 . S
C532 H522 0.930 . S
C532 C531 1.400 . S
C532 C535 1.386 . S
H533 C549 0.930 . S
H534 C550 0.931 1_554 S
C535 H523 0.929 . S
C535 C529 1.390 . S
C535 C532 1.386 . S
C536 C531 1.490 . S
C536 C538 1.395 1_554 S
C536 C539 1.403 . S
H537 C543 0.930 . S
C538 H524 0.930 . S
C538 C536 1.395 1_556 S
C538 C541 1.403 . S
C539 C536 1.403 . S
C539 C540 1.524 . S
C539 C543 1.400 . S
C540 H525 0.960 . S
C540 H526 0.960 . S
C540 H527 0.960 . S
C540 C539 1.524 . S
C541 C538 1.403 . S
C541 C542 1.392 . S
C541 C545 1.495 . S
C542 C541 1.392 . S
C542 C543 1.385 1_556 S
C542 C544 1.478 . S
C543 H537 0.930 . S
C543 C539 1.400 . S
C543 C542 1.385 1_554 S
C544 C542 1.478 . S
C544 C546 1.381 . S
C544 C550 1.383 . S
C545 C541 1.495 . S
C545 H551 0.959 . S
C545 H552 0.961 . S
C545 H553 0.960 . S
C546 C544 1.381 . S
C546 C547 1.394 . S
C546 H554 0.930 . S
C547 C546 1.394 . S
C547 C548 1.383 . S
C547 H555 0.929 . S
C548 C547 1.383 . S
C548 C549 1.377 . S
C549 H533 0.930 . S
C549 C548 1.377 . S
C549 C550 1.379 . S
C550 H534 0.931 1_556 S
C550 C544 1.383 . S
C550 C549 1.379 . S
H551 C545 0.959 . S
H552 C545 0.961 . S
H553 C545 0.960 . S
H554 C546 0.930 . S
H555 C547 0.929 . S
H556 C564 0.929 . S
H557 C566 0.930 . S
H558 C568 0.930 1_455 S
H559 C571 0.929 . S
H560 C574 0.938 . S
H561 C576 0.960 . S
H562 C576 0.960 . S
H563 C576 0.960 . S
C564 H556 0.929 . S
C564 C565 1.377 . S
C564 C566 1.384 . S
C565 C564 1.377 . S
C565 C571 1.390 . S
C566 H557 0.930 . S
C566 C564 1.384 . S
C566 C567 1.372 . S
C567 C566 1.372 . S
C567 C568 1.400 . S
C567 C572 1.486 1_655 S
C568 H558 0.930 1_655 S
C568 C567 1.400 . S
C568 C571 1.386 . S
H569 C585 0.930 . S
H570 C586 0.931 . S
C571 H559 0.929 . S
C571 C565 1.390 . S
C571 C568 1.386 . S
C572 C567 1.486 1_455 S
C572 C574 1.389 1_445 S
C572 C575 1.413 . S
H573 C579 0.930 . S
C574 H560 0.938 . S
C574 C572 1.389 1_665 S
C574 C577 1.403 1_554 S
C575 C572 1.413 . S
C575 C576 1.524 . S
C575 C579 1.400 1_544 S
C576 H561 0.960 . S
C576 H562 0.960 . S
C576 H563 0.960 . S
C576 C575 1.524 . S
C577 C574 1.403 1_556 S
C577 C578 1.392 1_655 S
C577 C581 1.495 . S
C578 C577 1.392 1_455 S
C578 C579 1.385 . S
C578 C580 1.478 . S
C579 H573 0.930 . S
C579 C575 1.400 1_566 S
C579 C578 1.385 . S
C580 C578 1.478 . S
C580 C582 1.381 . S
C580 C586 1.383 . S
C581 C577 1.495 . S
C581 H587 0.959 . S
C581 H588 0.961 . S
C581 H589 0.960 . S
C582 C580 1.381 . S
C582 C583 1.394 . S
C582 H590 0.930 . S
C583 C582 1.394 . S
C583 C584 1.383 . S
C583 H591 0.929 . S
C584 C583 1.383 . S
C584 C585 1.377 . S
C585 H569 0.930 . S
C585 C584 1.377 . S
C585 C586 1.379 . S
C586 H570 0.931 . S
C586 C580 1.383 . S
C586 C585 1.379 . S
H587 C581 0.959 . S
H588 C581 0.961 . S
H589 C581 0.960 . S
H590 C582 0.930 . S
H591 C583 0.929 . S
H592 C600 0.929 . S
H593 C602 0.930 1_655 S
H594 C604 0.930 . S
H595 C607 0.929 . S
H596 C610 0.930 . S
H597 C612 0.960 . S
H598 C612 0.960 . S
H599 C612 0.960 . S
C600 H592 0.929 . S
C600 C601 1.377 . S
C600 C602 1.384 . S
C601 C600 1.377 . S
C601 C607 1.390 . S
C602 H593 0.930 1_455 S
C602 C600 1.384 . S
C602 C603 1.372 . S
C603 C602 1.372 . S
C603 C604 1.400 . S
C603 C608 1.490 . S
C604 H594 0.930 . S
C604 C603 1.400 . S
C604 C607 1.386 . S
H605 C621 0.930 1_455 S
H606 C622 0.931 1_455 S
C607 H595 0.929 . S
C607 C601 1.390 . S
C607 C604 1.386 . S
C608 C603 1.490 . S
C608 C610 1.395 1_455 S
C608 C611 1.403 . S
H609 C615 0.930 . S
C610 H596 0.930 . S
C610 C608 1.395 1_655 S
C610 C613 1.403 1_545 S
C611 C608 1.403 . S
C611 C612 1.524 . S
C611 C615 1.400 1_545 S
C612 H597 0.960 . S
C612 H598 0.960 . S
C612 H599 0.960 . S
C612 C611 1.524 . S
C613 C610 1.403 1_565 S
C613 C614 1.392 . S
C613 C617 1.495 . S
C614 C613 1.392 . S
C614 C615 1.385 1_655 S
C614 C616 1.478 . S
C615 H609 0.930 . S
C615 C611 1.400 1_565 S
C615 C614 1.385 1_455 S
C616 C614 1.478 . S
C616 C618 1.381 . S
C616 C622 1.383 . S
C617 C613 1.495 . S
C617 H623 0.959 . S
C617 H624 0.961 . S
C617 H625 0.960 . S
C618 C616 1.381 . S
C618 C619 1.394 . S
C618 H626 0.930 . S
C619 C618 1.394 . S
C619 C620 1.383 . S
C619 H627 0.929 . S
C620 C619 1.383 . S
C620 C621 1.377 . S
C621 H605 0.930 1_655 S
C621 C620 1.377 . S
C621 C622 1.379 . S
C622 H606 0.931 1_655 S
C622 C616 1.383 . S
C622 C621 1.379 . S
H623 C617 0.959 . S
H624 C617 0.961 . S
H625 C617 0.960 . S
H626 C618 0.930 . S
H627 C619 0.929 . S
H628 C636 0.929 . S
H629 C638 0.930 1_556 S
H630 C640 0.930 . S
H631 C643 0.929 . S
H632 C646 0.930 . S
H633 C648 0.960 . S
H634 C648 0.960 . S
H635 C648 0.960 . S
C636 H628 0.929 . S
C636 C637 1.377 . S
C636 C638 1.384 . S
C637 C636 1.377 . S
C637 C643 1.390 . S
C638 H629 0.930 1_554 S
C638 C636 1.384 . S
C638 C639 1.372 . S
C639 C638 1.372 . S
C639 C640 1.400 . S
C639 C644 1.490 . S
C640 H630 0.930 . S
C640 C639 1.400 . S
C640 C643 1.386 . S
H641 C657 0.930 . S
H642 C658 0.931 1_554 S
C643 H631 0.929 . S
C643 C637 1.390 . S
C643 C640 1.386 . S
C644 C639 1.490 . S
C644 C646 1.395 1_554 S
C644 C647 1.403 . S
H645 C651 0.930 . S
C646 H632 0.930 . S
C646 C644 1.395 1_556 S
C646 C649 1.403 . S
C647 C644 1.403 . S
C647 C648 1.524 . S
C647 C651 1.400 1_554 S
C648 H633 0.960 . S
C648 H634 0.960 . S
C648 H635 0.960 . S
C648 C647 1.524 . S
C649 C646 1.403 . S
C649 C650 1.392 . S
C649 C653 1.495 . S
C650 C649 1.392 . S
C650 C651 1.385 . S
C650 C652 1.478 . S
C651 H645 0.930 . S
C651 C647 1.400 1_556 S
C651 C650 1.385 . S
C652 C650 1.478 . S
C652 C654 1.381 . S
C652 C658 1.383 . S
C653 C649 1.495 . S
C653 H659 0.959 . S
C653 H660 0.961 . S
C653 H661 0.960 . S
C654 C652 1.381 . S
C654 C655 1.394 . S
C654 H662 0.930 . S
C655 C654 1.394 . S
C655 C656 1.383 . S
C655 H663 0.929 . S
C656 C655 1.383 . S
C656 C657 1.377 . S
C657 H641 0.930 . S
C657 C656 1.377 . S
C657 C658 1.379 . S
C658 H642 0.931 1_556 S
C658 C652 1.383 . S
C658 C657 1.379 . S
H659 C653 0.959 . S
H660 C653 0.961 . S
H661 C653 0.960 . S
H662 C654 0.930 . S
H663 C655 0.929 . S
H664 C672 0.929 . S
H665 C674 0.930 . S
H666 C676 0.930 . S
H667 C679 0.929 . S
H668 C682 0.930 . S
H669 C684 0.960 . S
H670 C684 0.960 . S
H671 C684 0.960 . S
C672 H664 0.929 . S
C672 C673 1.377 . S
C672 C674 1.384 . S
C673 C672 1.377 . S
C673 C679 1.390 . S
C674 H665 0.930 . S
C674 C672 1.384 . S
C674 C675 1.372 . S
C675 C674 1.372 . S
C675 C676 1.400 . S
C675 C680 1.490 . S
C676 H666 0.930 . S
C676 C675 1.400 . S
C676 C679 1.386 . S
H677 C693 0.930 . S
H678 C694 0.931 . S
C679 H667 0.929 . S
C679 C673 1.390 . S
C679 C676 1.386 . S
C680 C675 1.490 . S
C680 C682 1.395 . S
C680 C683 1.403 . S
H681 C687 0.930 . S
C682 H668 0.930 . S
C682 C680 1.395 . S
C682 C685 1.403 . S
C683 C680 1.403 . S
C683 C684 1.524 . S
C683 C687 1.400 . S
C684 H669 0.960 . S
C684 H670 0.960 . S
C684 H671 0.960 . S
C684 C683 1.524 . S
C685 C682 1.403 . S
C685 C686 1.392 . S
C685 C689 1.495 . S
C686 C685 1.392 . S
C686 C687 1.385 . S
C686 C688 1.478 . S
C687 H681 0.930 . S
C687 C683 1.400 . S
C687 C686 1.385 . S
C688 C686 1.478 . S
C688 C690 1.381 . S
C688 C694 1.383 . S
C689 C685 1.495 . S
C689 H695 0.959 . S
C689 H696 0.961 . S
C689 H697 0.960 . S
C690 C688 1.381 . S
C690 C691 1.394 . S
C690 H698 0.930 . S
C691 C690 1.394 . S
C691 C692 1.383 . S
C691 H699 0.929 . S
C692 C691 1.383 . S
C692 C693 1.377 . S
C693 H677 0.930 . S
C693 C692 1.377 . S
C693 C694 1.379 . S
C694 H678 0.931 . S
C694 C688 1.383 . S
C694 C693 1.379 . S
H695 C689 0.959 . S
H696 C689 0.961 . S
H697 C689 0.960 . S
H698 C690 0.930 . S
H699 C691 0.929 . S
C133 C24 1.299 1_556 S
C152 C0 1.317 . S
C169 C55 1.296 . S
C188 C31 1.277 1_554 S
C205 C86 1.306 1_556 S
C224 C62 1.332 . S
C241 C93 1.296 1_554 S
C260 C117 1.290 . S
C277 C10 0.801 . S
C296 C2 0.792 . S
C313 C41 0.816 . S
C332 C33 0.794 . S
C349 C64 0.819 . S
C368 C72 0.839 . S
C385 C95 0.816 . S
C404 C103 0.794 . S
C421 C104 1.618 . S
C440 C18 1.639 . S
C457 C94 2.139 . S
C476 C27 2.141 . S
C493 C80 1.617 . S
C512 C42 1.640 . S
C529 C89 2.134 . S
C548 C32 2.140 . S
C565 C11 2.100 . S
C584 C49 2.090 . S
C601 C1 1.255 . S
C620 C58 1.280 . S
C637 C73 2.098 . S
C656 C111 2.103 . S
C673 C120 1.255 . S
C692 C63 1.284 . S
