# Generated by pormake.
# Topology ukj, (4)-cn, num edge types: 1
# Building blocks:
#     Node 0, Type 0, BuildingBlock: QUQFOY_clean_sbu_3, # of connection points: 4
#     Node 1, Type 0, BuildingBlock: QUQFOY_clean_sbu_3, # of connection points: 4
#     Node 2, Type 0, BuildingBlock: QUQFOY_clean_sbu_3, # of connection points: 4
#     Node 3, Type 0, BuildingBlock: QUQFOY_clean_sbu_3, # of connection points: 4
#     Node 4, Type 0, BuildingBlock: QUQFOY_clean_sbu_3, # of connection points: 4
#     Node 5, Type 0, BuildingBlock: QUQFOY_clean_sbu_3, # of connection points: 4
#     Node 6, Type 0, BuildingBlock: QUQFOY_clean_sbu_3, # of connection points: 4
#     Node 7, Type 0, BuildingBlock: QUQFOY_clean_sbu_3, # of connection points: 4
#     Node 8, Type 0, BuildingBlock: QUQFOY_clean_sbu_3, # of connection points: 4
#     Node 9, Type 0, BuildingBlock: QUQFOY_clean_sbu_3, # of connection points: 4
#     Node 10, Type 0, BuildingBlock: QUQFOY_clean_sbu_3, # of connection points: 4
#     Node 11, Type 0, BuildingBlock: QUQFOY_clean_sbu_3, # of connection points: 4
#     Node 12, Type 0, BuildingBlock: QUQFOY_clean_sbu_3, # of connection points: 4
#     Node 13, Type 0, BuildingBlock: QUQFOY_clean_sbu_3, # of connection points: 4
#     Node 14, Type 0, BuildingBlock: QUQFOY_clean_sbu_3, # of connection points: 4
#     Node 15, Type 0, BuildingBlock: QUQFOY_clean_sbu_3, # of connection points: 4
#     Node 16, Type 0, BuildingBlock: QUQFOY_clean_sbu_3, # of connection points: 4
#     Node 17, Type 0, BuildingBlock: QUQFOY_clean_sbu_3, # of connection points: 4
#     Node 18, Type 0, BuildingBlock: QUQFOY_clean_sbu_3, # of connection points: 4
#     Node 19, Type 0, BuildingBlock: QUQFOY_clean_sbu_3, # of connection points: 4
#     Node 20, Type 0, BuildingBlock: QUQFOY_clean_sbu_3, # of connection points: 4
#     Node 21, Type 0, BuildingBlock: QUQFOY_clean_sbu_3, # of connection points: 4
#     Node 22, Type 0, BuildingBlock: QUQFOY_clean_sbu_3, # of connection points: 4
#     Node 23, Type 0, BuildingBlock: QUQFOY_clean_sbu_3, # of connection points: 4
#     Node 24, Type 0, BuildingBlock: QUQFOY_clean_sbu_3, # of connection points: 4
#     Node 25, Type 0, BuildingBlock: QUQFOY_clean_sbu_3, # of connection points: 4
#     Node 26, Type 0, BuildingBlock: QUQFOY_clean_sbu_3, # of connection points: 4
#     Node 27, Type 0, BuildingBlock: QUQFOY_clean_sbu_3, # of connection points: 4
#     Node 28, Type 0, BuildingBlock: QUQFOY_clean_sbu_3, # of connection points: 4
#     Node 29, Type 0, BuildingBlock: QUQFOY_clean_sbu_3, # of connection points: 4
#     Node 30, Type 0, BuildingBlock: QUQFOY_clean_sbu_3, # of connection points: 4
#     Node 31, Type 0, BuildingBlock: QUQFOY_clean_sbu_3, # of connection points: 4
#     Edge 32, Type (0, 0), BuildingBlock: EZIPEK_clean_linker_0, # of connection points: 2
#     Edge 33, Type (0, 0), BuildingBlock: EZIPEK_clean_linker_0, # of connection points: 2
#     Edge 34, Type (0, 0), BuildingBlock: EZIPEK_clean_linker_0, # of connection points: 2
#     Edge 35, Type (0, 0), BuildingBlock: EZIPEK_clean_linker_0, # of connection points: 2
#     Edge 36, Type (0, 0), BuildingBlock: EZIPEK_clean_linker_0, # of connection points: 2
#     Edge 37, Type (0, 0), BuildingBlock: EZIPEK_clean_linker_0, # of connection points: 2
#     Edge 38, Type (0, 0), BuildingBlock: EZIPEK_clean_linker_0, # of connection points: 2
#     Edge 39, Type (0, 0), BuildingBlock: EZIPEK_clean_linker_0, # of connection points: 2
#     Edge 40, Type (0, 0), BuildingBlock: EZIPEK_clean_linker_0, # of connection points: 2
#     Edge 41, Type (0, 0), BuildingBlock: EZIPEK_clean_linker_0, # of connection points: 2
#     Edge 42, Type (0, 0), BuildingBlock: EZIPEK_clean_linker_0, # of connection points: 2
#     Edge 43, Type (0, 0), BuildingBlock: EZIPEK_clean_linker_0, # of connection points: 2
#     Edge 44, Type (0, 0), BuildingBlock: EZIPEK_clean_linker_0, # of connection points: 2
#     Edge 45, Type (0, 0), BuildingBlock: EZIPEK_clean_linker_0, # of connection points: 2
#     Edge 46, Type (0, 0), BuildingBlock: EZIPEK_clean_linker_0, # of connection points: 2
#     Edge 47, Type (0, 0), BuildingBlock: EZIPEK_clean_linker_0, # of connection points: 2
#     Edge 48, Type (0, 0), BuildingBlock: EZIPEK_clean_linker_0, # of connection points: 2
#     Edge 49, Type (0, 0), BuildingBlock: EZIPEK_clean_linker_0, # of connection points: 2
#     Edge 50, Type (0, 0), BuildingBlock: EZIPEK_clean_linker_0, # of connection points: 2
#     Edge 51, Type (0, 0), BuildingBlock: EZIPEK_clean_linker_0, # of connection points: 2
#     Edge 52, Type (0, 0), BuildingBlock: EZIPEK_clean_linker_0, # of connection points: 2
#     Edge 53, Type (0, 0), BuildingBlock: EZIPEK_clean_linker_0, # of connection points: 2
#     Edge 54, Type (0, 0), BuildingBlock: EZIPEK_clean_linker_0, # of connection points: 2
#     Edge 55, Type (0, 0), BuildingBlock: EZIPEK_clean_linker_0, # of connection points: 2
#     Edge 56, Type (0, 0), BuildingBlock: EZIPEK_clean_linker_0, # of connection points: 2
#     Edge 57, Type (0, 0), BuildingBlock: EZIPEK_clean_linker_0, # of connection points: 2
#     Edge 58, Type (0, 0), BuildingBlock: EZIPEK_clean_linker_0, # of connection points: 2
#     Edge 59, Type (0, 0), BuildingBlock: EZIPEK_clean_linker_0, # of connection points: 2
#     Edge 60, Type (0, 0), BuildingBlock: EZIPEK_clean_linker_0, # of connection points: 2
#     Edge 61, Type (0, 0), BuildingBlock: EZIPEK_clean_linker_0, # of connection points: 2
#     Edge 62, Type (0, 0), BuildingBlock: EZIPEK_clean_linker_0, # of connection points: 2
#     Edge 63, Type (0, 0), BuildingBlock: EZIPEK_clean_linker_0, # of connection points: 2
#     Edge 64, Type (0, 0), BuildingBlock: EZIPEK_clean_linker_0, # of connection points: 2
#     Edge 65, Type (0, 0), BuildingBlock: EZIPEK_clean_linker_0, # of connection points: 2
#     Edge 66, Type (0, 0), BuildingBlock: EZIPEK_clean_linker_0, # of connection points: 2
#     Edge 67, Type (0, 0), BuildingBlock: EZIPEK_clean_linker_0, # of connection points: 2
#     Edge 68, Type (0, 0), BuildingBlock: EZIPEK_clean_linker_0, # of connection points: 2
#     Edge 69, Type (0, 0), BuildingBlock: EZIPEK_clean_linker_0, # of connection points: 2
#     Edge 70, Type (0, 0), BuildingBlock: EZIPEK_clean_linker_0, # of connection points: 2
#     Edge 71, Type (0, 0), BuildingBlock: EZIPEK_clean_linker_0, # of connection points: 2
#     Edge 72, Type (0, 0), BuildingBlock: EZIPEK_clean_linker_0, # of connection points: 2
#     Edge 73, Type (0, 0), BuildingBlock: EZIPEK_clean_linker_0, # of connection points: 2
#     Edge 74, Type (0, 0), BuildingBlock: EZIPEK_clean_linker_0, # of connection points: 2
#     Edge 75, Type (0, 0), BuildingBlock: EZIPEK_clean_linker_0, # of connection points: 2
#     Edge 76, Type (0, 0), BuildingBlock: EZIPEK_clean_linker_0, # of connection points: 2
#     Edge 77, Type (0, 0), BuildingBlock: EZIPEK_clean_linker_0, # of connection points: 2
#     Edge 78, Type (0, 0), BuildingBlock: EZIPEK_clean_linker_0, # of connection points: 2
#     Edge 79, Type (0, 0), BuildingBlock: EZIPEK_clean_linker_0, # of connection points: 2
#     Edge 80, Type (0, 0), BuildingBlock: EZIPEK_clean_linker_0, # of connection points: 2
#     Edge 81, Type (0, 0), BuildingBlock: EZIPEK_clean_linker_0, # of connection points: 2
#     Edge 82, Type (0, 0), BuildingBlock: EZIPEK_clean_linker_0, # of connection points: 2
#     Edge 83, Type (0, 0), BuildingBlock: EZIPEK_clean_linker_0, # of connection points: 2
#     Edge 84, Type (0, 0), BuildingBlock: EZIPEK_clean_linker_0, # of connection points: 2
#     Edge 85, Type (0, 0), BuildingBlock: EZIPEK_clean_linker_0, # of connection points: 2
#     Edge 86, Type (0, 0), BuildingBlock: EZIPEK_clean_linker_0, # of connection points: 2
#     Edge 87, Type (0, 0), BuildingBlock: EZIPEK_clean_linker_0, # of connection points: 2
#     Edge 88, Type (0, 0), BuildingBlock: EZIPEK_clean_linker_0, # of connection points: 2
#     Edge 89, Type (0, 0), BuildingBlock: EZIPEK_clean_linker_0, # of connection points: 2
#     Edge 90, Type (0, 0), BuildingBlock: EZIPEK_clean_linker_0, # of connection points: 2
#     Edge 91, Type (0, 0), BuildingBlock: EZIPEK_clean_linker_0, # of connection points: 2
#     Edge 92, Type (0, 0), BuildingBlock: EZIPEK_clean_linker_0, # of connection points: 2
#     Edge 93, Type (0, 0), BuildingBlock: EZIPEK_clean_linker_0, # of connection points: 2
#     Edge 94, Type (0, 0), BuildingBlock: EZIPEK_clean_linker_0, # of connection points: 2
#     Edge 95, Type (0, 0), BuildingBlock: EZIPEK_clean_linker_0, # of connection points: 2
# Relax obj value: 0.085
# Max RMSD: 0.178
# Mean RMSD: 0.177
data_MOF--net-ukj--node1-QUQFOY_clean_sbu_3--edge1-EZIPEK_clean_linker_0
_symmetry_space_group_name_H-M    P1
_symmetry_Int_Tables_number       1
_symmetry_cell_setting            triclinic
loop_
_symmetry_equiv_pos_as_xyz
'x, y, z'
_cell_length_a     22.295177
_cell_length_b     49.613185
_cell_length_c     44.067765
_cell_angle_alpha  90.152017
_cell_angle_beta   89.855557
_cell_angle_gamma 90.586794
loop_
_atom_site_label
_atom_site_type_symbol
_atom_site_fract_x
_atom_site_fract_y
_atom_site_fract_z
_atom_type_partial_charge
C0 C 0.08317 0.29073 0.21293 0.0
O1 O 0.13356 0.28759 0.20013 0.0
Cd2 Cd 0.20253 0.32504 0.19611 0.0
O3 O 0.06961 0.31352 0.22398 0.0
Cd4 Cd 0.11605 0.35815 0.23261 0.0
C5 C 0.12078 0.37342 0.16425 0.0
O6 O 0.22033 0.34327 0.24388 0.0
O7 O 0.20914 0.38527 0.23227 0.0
O8 O 0.06257 0.34404 0.27568 0.0
C9 C 0.24343 0.36665 0.24117 0.0
O10 O 0.17345 0.36699 0.17169 0.0
C11 C 0.05851 0.36687 0.28823 0.0
O12 O 0.07807 0.37016 0.18298 0.0
O13 O 0.07576 0.38736 0.27307 0.0
C14 C 0.1544 0.95101 0.21334 0.0
O15 O 0.10217 0.9566 0.20391 0.0
Cd16 Cd 0.0217 0.92402 0.19896 0.0
O17 O 0.16653 0.92778 0.22356 0.0
Cd18 Cd 0.11853 0.88439 0.2352 0.0
C19 C 0.10117 0.87228 0.16276 0.0
O20 O 0.01963 0.90068 0.24496 0.0
O21 O 0.02681 0.85735 0.24306 0.0
O22 O 0.15817 0.89412 0.28371 0.0
C23 C 0.99373 0.87788 0.24574 0.0
O24 O 0.06254 0.89093 0.16474 0.0
C25 C 0.18397 0.87172 0.28717 0.0
O26 O 0.13446 0.86602 0.18502 0.0
O27 O 0.18186 0.85503 0.26521 0.0
C28 C 0.08354 0.95125 -0.01318 0.0
O29 O 0.12421 0.95141 0.00684 0.0
Cd30 Cd 0.19689 0.91517 0.00844 0.0
O31 O 0.07657 0.93109 0.96949 0.0
Cd32 Cd 0.12104 0.8866 0.96756 0.0
C33 C 0.11763 0.86713 0.03626 0.0
O34 O 0.22761 0.90042 0.96034 0.0
O35 O 0.20991 0.858 0.96853 0.0
O36 O 0.09175 0.89282 0.9167 0.0
C37 C 0.24723 0.87652 0.96173 0.0
O38 O 0.17209 0.87144 0.02984 0.0
C39 C 0.06248 0.87094 0.91418 0.0
O40 O 0.07816 0.875 0.01769 0.0
O41 O 0.05966 0.85553 0.93719 0.0
C42 C 0.161 0.29322 -0.01532 0.0
O43 O 0.10712 0.28497 -0.0164 0.0
Cd44 Cd 0.03324 0.31707 -0.00416 0.0
O45 O 0.17346 0.31832 -0.01543 0.0
Cd46 Cd 0.11968 0.35988 0.96873 0.0
C47 C 0.11814 0.36617 0.03743 0.0
O48 O 0.01756 0.3457 0.9551 0.0
O49 O 0.02836 0.38582 0.97412 0.0
O50 O 0.17034 0.34516 0.92612 0.0
C51 C 0.99428 0.36801 0.96251 0.0
O52 O 0.08154 0.34683 0.03228 0.0
C53 C 0.17766 0.36776 0.91348 0.0
O54 O 0.14809 0.37741 0.01636 0.0
O55 O 0.16221 0.38871 0.92822 0.0
C56 C 0.91916 0.61382 0.66363 0.0
O57 O 0.91824 0.59022 0.67461 0.0
Cd58 Cd 0.88028 0.58572 0.7267 0.0
O59 O 0.90767 0.63381 0.68052 0.0
Cd60 Cd 0.88753 0.64601 0.73302 0.0
C61 C 0.74953 0.62089 0.72391 0.0
O62 O 0.92614 0.61104 0.76825 0.0
O63 O 0.85759 0.63895 0.78392 0.0
O64 O 0.97464 0.67526 0.73389 0.0
C65 C 0.89292 0.61982 0.78975 0.0
O66 O 0.7746 0.59796 0.7252 0.0
C67 C 0.94554 0.69708 0.73251 0.0
O68 O 0.78028 0.64264 0.72472 0.0
O69 O 0.88859 0.69541 0.73293 0.0
C70 C 0.81867 0.12913 0.66624 0.0
O71 O 0.84223 0.15086 0.67628 0.0
Cd72 Cd 0.87123 0.16276 0.72871 0.0
O73 O 0.80971 0.10911 0.68359 0.0
Cd74 Cd 0.84375 0.09378 0.73284 0.0
C75 C 0.98983 0.12051 0.72658 0.0
O76 O 0.83754 0.13133 0.76581 0.0
O77 O 0.8133 0.09419 0.78693 0.0
O78 O 0.76438 0.06203 0.72466 0.0
C79 C 0.82766 0.11876 0.7903 0.0
O80 O 0.97056 0.1446 0.72773 0.0
C81 C 0.79669 0.04125 0.72773 0.0
O82 O 0.95457 0.09993 0.72679 0.0
O83 O 0.85222 0.04471 0.73373 0.0
C84 C 0.91987 0.13041 0.0378 0.0
O85 O 0.92735 0.1528 0.02442 0.0
Cd86 Cd 0.88463 0.1563 0.97357 0.0
O87 O 0.90211 0.10997 0.02299 0.0
Cd88 Cd 0.885 0.09712 0.97044 0.0
C89 C 0.75064 0.12298 -0.01948 0.0
O90 O 0.92643 0.12987 0.93263 0.0
O91 O 0.85143 0.10367 0.92 0.0
O92 O 0.97114 0.06837 0.97279 0.0
C93 C 0.8902 0.12121 0.91231 0.0
O94 O 0.77737 0.14549 0.97639 0.0
C95 C 0.94158 0.04641 0.97126 0.0
O96 O 0.77959 0.10105 -0.01811 0.0
O97 O 0.885 0.04781 0.96801 0.0
C98 C 0.8245 0.60643 0.03574 0.0
O99 O 0.84998 0.58546 0.0254 0.0
Cd100 Cd 0.88103 0.57488 0.97289 0.0
O101 O 0.81416 0.62644 0.01876 0.0
Cd102 Cd 0.84707 0.64255 0.96969 0.0
C103 C 0.9947 0.62041 0.97708 0.0
O104 O 0.84388 0.60502 0.93591 0.0
O105 O 0.81313 0.64143 0.91603 0.0
O106 O 0.76974 0.67402 -0.0202 0.0
C107 C 0.83072 0.61752 0.9119 0.0
O108 O 0.97828 0.59585 0.9743 0.0
C109 C 0.80195 0.69483 0.97473 0.0
O110 O 0.95701 0.63968 0.97781 0.0
O111 O 0.85651 0.6915 0.96693 0.0
C112 C 0.09782 0.79081 0.71851 0.0
O113 O 0.15139 0.78573 0.71047 0.0
Cd114 Cd 0.22297 0.82136 0.70402 0.0
O115 O 0.08207 0.81468 0.72558 0.0
Cd116 Cd 0.10869 0.86295 0.73495 0.0
C117 C 0.1237 0.86901 0.66674 0.0
O118 O 0.20748 0.84624 0.74758 0.0
O119 O 0.20218 0.88935 0.74372 0.0
O120 O 0.03246 0.85011 0.77095 0.0
C121 C 0.23435 0.86876 0.74798 0.0
O122 O 0.1598 0.85218 0.67789 0.0
C123 C 0.0409 0.87025 0.78812 0.0
O124 O 0.08508 0.87969 0.68415 0.0
O125 O 0.07354 0.88931 0.77797 0.0
C126 C 0.15436 0.45306 0.71944 0.0
O127 O 0.10056 0.45929 0.71342 0.0
Cd128 Cd 0.02301 0.426 0.70587 0.0
O129 O 0.1683 0.42891 0.72561 0.0
Cd130 Cd 0.11959 0.38559 0.73777 0.0
C131 C 0.10804 0.37771 0.66595 0.0
O132 O 0.019 0.39972 0.74966 0.0
O133 O 0.02896 0.35719 0.74083 0.0
O134 O 0.16149 0.39378 0.78596 0.0
C135 C 0.99452 0.37673 0.74673 0.0
O136 O 0.06907 0.39607 0.66944 0.0
C137 C 0.18758 0.37131 0.78811 0.0
O138 O 0.13984 0.36948 0.68783 0.0
O139 O 0.18345 0.3551 0.76579 0.0
C140 C 0.09596 0.45138 0.48251 0.0
O141 O 0.15096 0.45803 0.48099 0.0
Cd142 Cd 0.22226 0.42397 0.49225 0.0
O143 O 0.07973 0.42677 0.48221 0.0
Cd144 Cd 0.12391 0.38331 0.46855 0.0
C145 C 0.12946 0.38189 0.53895 0.0
O146 O 0.2271 0.39244 0.45335 0.0
O147 O 0.21049 0.35369 0.47453 0.0
O148 O 0.08967 0.39272 0.41939 0.0
C149 C 0.24711 0.36985 0.46178 0.0
O150 O 0.17149 0.39811 0.53133 0.0
C151 C 0.06128 0.37073 0.41568 0.0
O152 O 0.09412 0.37209 0.51915 0.0
O153 O 0.05921 0.35423 0.43779 0.0
C154 C 0.16689 0.79367 0.48823 0.0
O155 O 0.11258 0.78599 0.48915 0.0
Cd156 Cd 0.0423 0.81966 0.50218 0.0
O157 O 0.18016 0.81866 0.48713 0.0
Cd158 Cd 0.12348 0.85955 0.47113 0.0
C159 C 0.13088 0.8695 0.53984 0.0
O160 O 0.02009 0.84537 0.45953 0.0
O161 O 0.03254 0.88596 0.4769 0.0
O162 O 0.16552 0.84404 0.42613 0.0
C163 C -0.00203 0.86821 0.46554 0.0
O164 O 0.09327 0.85016 0.53696 0.0
C165 C 0.17429 0.86673 0.41384 0.0
O166 O 0.15799 0.87952 0.5171 0.0
O167 O 0.1638 0.88771 0.42966 0.0
C168 C 0.91651 0.10992 0.16713 0.0
O169 O 0.90218 0.08703 0.17784 0.0
Cd170 Cd 0.87847 0.08188 0.23214 0.0
O171 O 0.91805 0.1303 0.18438 0.0
Cd172 Cd 0.88824 0.14229 0.23515 0.0
C173 C 0.74946 0.11511 0.22818 0.0
O174 O 0.92728 0.10881 0.27187 0.0
O175 O 0.85955 0.13753 0.28655 0.0
O176 O 0.97186 0.17359 0.23503 0.0
C177 C 0.89491 0.1186 0.29315 0.0
O178 O 0.77319 0.09257 0.23422 0.0
C179 C 0.94027 0.19455 0.23198 0.0
O180 O 0.78128 0.1363 0.22419 0.0
O181 O 0.88355 0.19157 0.23235 0.0
C182 C 0.82111 0.6272 0.16496 0.0
O183 O 0.81518 0.64986 0.17798 0.0
Cd184 Cd 0.85438 0.65397 0.22949 0.0
O185 O 0.83741 0.6069 0.18005 0.0
Cd186 Cd 0.85661 0.5939 0.23229 0.0
C187 C 0.98989 0.62287 0.22297 0.0
O188 O 0.81361 0.62608 0.26984 0.0
O189 O 0.88966 0.60145 0.28293 0.0
O190 O 0.77165 0.56337 0.23112 0.0
C191 C 0.84998 0.61836 0.29036 0.0
O192 O 0.96163 0.64485 0.22645 0.0
C193 C 0.80224 0.54193 0.2306 0.0
O194 O 0.96244 0.60026 0.22201 0.0
O195 O 0.85902 0.5444 0.23212 0.0
C196 C 0.92382 0.63424 0.53472 0.0
O197 O 0.92227 0.65653 0.52048 0.0
Cd198 Cd 0.88381 0.6604 0.46807 0.0
O199 O 0.91259 0.61221 0.52122 0.0
Cd200 Cd 0.88904 0.59207 0.47278 0.0
C201 C 0.75372 0.62342 0.47818 0.0
O202 O 0.91904 0.62509 0.43565 0.0
O203 O 0.88827 0.58673 0.41854 0.0
O204 O 0.97114 0.5631 0.4818 0.0
C205 C 0.89845 0.61146 0.41328 0.0
O206 O 0.78059 0.64601 0.47472 0.0
C207 C 0.93944 0.54165 0.482 0.0
O208 O 0.78197 0.60115 0.47899 0.0
O209 O 0.88289 0.54367 0.47875 0.0
C210 C 0.82049 0.11076 0.53623 0.0
O211 O 0.82313 0.08808 0.52264 0.0
Cd212 Cd 0.86211 0.0819 0.47052 0.0
O213 O 0.83066 0.13253 0.52205 0.0
Cd214 Cd 0.85325 0.15126 0.47257 0.0
C215 C 0.99003 0.12114 0.47902 0.0
O216 O 0.82459 0.11611 0.43816 0.0
O217 O 0.84574 0.15416 0.41764 0.0
O218 O 0.77186 0.17981 0.48438 0.0
C219 C 0.8398 0.12891 0.41426 0.0
O220 O 0.96453 0.09811 0.47642 0.0
C221 C 0.80147 0.2016 0.48057 0.0
O222 O 0.96057 0.1431 0.4789 0.0
O223 O 0.85679 0.20006 0.47349 0.0
C224 C 0.56947 0.2882 0.7159 0.0
O225 O 0.62365 0.2816 0.71198 0.0
Cd226 Cd 0.69262 0.31615 0.69848 0.0
O227 O 0.55529 0.31293 0.71809 0.0
Cd228 Cd 0.61205 0.35578 0.72915 0.0
C229 C 0.60541 0.36491 0.66026 0.0
O230 O 0.71539 0.34222 0.74122 0.0
O231 O 0.7044 0.38204 0.72216 0.0
O232 O 0.568 0.34397 0.77506 0.0
C233 C 0.73828 0.36493 0.7345 0.0
O234 O 0.6434 0.34608 0.66309 0.0
C235 C 0.5619 0.36749 0.78558 0.0
O236 O 0.57735 0.37434 0.68292 0.0
O237 O 0.57493 0.38721 0.76829 0.0
C238 C 0.65719 0.94484 0.70972 0.0
O239 O 0.61199 0.94749 0.69266 0.0
Cd240 Cd 0.53923 0.91095 0.688 0.0
O241 O 0.66577 0.92306 0.72391 0.0
Cd242 Cd 0.62068 0.87838 0.72988 0.0
C243 C 0.62102 0.86123 0.66123 0.0
O244 O 0.51813 0.8965 0.7374 0.0
O245 O 0.52529 0.85322 0.73241 0.0
O246 O 0.67372 0.89394 0.77227 0.0
C247 C 0.49273 0.87352 0.73778 0.0
O248 O 0.56744 0.86659 0.66836 0.0
C249 C 0.67823 0.87153 0.78557 0.0
O250 O 0.66192 0.86522 0.68072 0.0
O251 O 0.65992 0.85054 0.77153 0.0
C252 C 0.58321 0.95395 0.48283 0.0
O253 O 0.6371 0.96062 0.48868 0.0
Cd254 Cd 0.71483 0.92831 0.49572 0.0
O255 O 0.56881 0.92972 0.47657 0.0
Cd256 Cd 0.61726 0.88698 0.46386 0.0
C257 C 0.63243 0.87852 0.53535 0.0
O258 O 0.71817 0.90157 0.45212 0.0
O259 O 0.70689 0.85899 0.46085 0.0
O260 O 0.57889 0.89536 0.41538 0.0
C261 C 0.74188 0.87862 0.455 0.0
O262 O 0.67101 0.89738 0.53194 0.0
C263 C 0.55409 0.87251 0.41192 0.0
O264 O 0.5993 0.87027 0.51376 0.0
O265 O 0.55519 0.85607 0.43405 0.0
C266 C 0.6506 0.2935 0.49164 0.0
O267 O 0.5976 0.28786 0.50067 0.0
Cd268 Cd 0.52082 0.32083 0.5054 0.0
O269 O 0.66501 0.31667 0.48132 0.0
Cd270 Cd 0.63186 0.36241 0.46767 0.0
C271 C 0.62413 0.37034 0.53369 0.0
O272 O 0.53159 0.3435 0.45917 0.0
O273 O 0.53619 0.38688 0.46064 0.0
O274 O 0.6737 0.34951 0.41997 0.0
C275 C 0.50448 0.36563 0.45762 0.0
O276 O 0.59065 0.35387 0.51995 0.0
C277 C 0.69672 0.37228 0.41379 0.0
O278 O 0.66318 0.38237 0.51764 0.0
O279 O 0.6922 0.39063 0.43381 0.0
C280 C 0.41376 0.61225 0.164 0.0
O281 O 0.40304 0.58905 0.17489 0.0
Cd282 Cd 0.3748 0.5848 0.2287 0.0
O283 O 0.41204 0.63271 0.18115 0.0
Cd284 Cd 0.38762 0.64436 0.23303 0.0
C285 C 0.24797 0.62058 0.22432 0.0
O286 O 0.42455 0.60997 0.26948 0.0
O287 O 0.35616 0.6385 0.28377 0.0
O288 O 0.47357 0.67422 0.23205 0.0
C289 C 0.39169 0.61971 0.29059 0.0
O290 O 0.2702 0.59756 0.22959 0.0
C291 C 0.4432 0.69572 0.23235 0.0
O292 O 0.28117 0.64143 0.22124 0.0
O293 O 0.38656 0.6935 0.23501 0.0
C294 C 0.31676 0.13034 0.16615 0.0
O295 O 0.34575 0.15112 0.17487 0.0
Cd296 Cd 0.37338 0.16429 0.22691 0.0
O297 O 0.30288 0.11187 0.18474 0.0
Cd298 Cd 0.34594 0.09795 0.23265 0.0
C299 C 0.49226 0.12359 0.22555 0.0
O300 O 0.34357 0.13513 0.26765 0.0
O301 O 0.31363 0.09737 0.28592 0.0
O302 O 0.26898 0.0652 0.22485 0.0
C303 C 0.33025 0.12142 0.29096 0.0
O304 O 0.47355 0.14775 0.22651 0.0
C305 C 0.30222 0.04478 0.22814 0.0
O306 O 0.45646 0.10324 0.22588 0.0
O307 O 0.35758 0.04884 0.23407 0.0
C308 C 0.41789 0.13245 0.53958 0.0
O309 O 0.42201 0.15503 0.52623 0.0
Cd310 Cd 0.38245 0.15782 0.4745 0.0
O311 O 0.40263 0.11161 0.5248 0.0
Cd312 Cd 0.38202 0.09806 0.47297 0.0
C313 C 0.24822 0.12513 0.48116 0.0
O314 O 0.42492 0.12995 0.43473 0.0
O315 O 0.35105 0.10314 0.42194 0.0
O316 O 0.46522 0.06783 0.47519 0.0
C317 C 0.38969 0.12074 0.41426 0.0
O318 O 0.27518 0.14746 0.47636 0.0
C319 C 0.43339 0.04648 0.47505 0.0
O320 O 0.27688 0.10323 0.48369 0.0
O321 O 0.37681 0.04892 0.47305 0.0
C322 C 0.32462 0.60565 0.53559 0.0
O323 O 0.3334 0.5831 0.52246 0.0
Cd324 Cd 0.37326 0.57683 0.47047 0.0
O325 O 0.32957 0.62758 0.52107 0.0
Cd326 Cd 0.35261 0.64683 0.47205 0.0
C327 C 0.49529 0.61946 0.47669 0.0
O328 O 0.34072 0.61078 0.4371 0.0
O329 O 0.31761 0.64872 0.41825 0.0
O330 O 0.27647 0.67835 0.48515 0.0
C331 C 0.33146 0.6244 0.4134 0.0
O332 O 0.47388 0.59558 0.47444 0.0
C333 C 0.30983 0.69907 0.48148 0.0
O334 O 0.46186 0.64029 0.47707 0.0
O335 O 0.36444 0.69547 0.47385 0.0
C336 C 0.57973 0.79245 0.2091 0.0
O337 O 0.62301 0.79159 0.19045 0.0
Cd338 Cd 0.69266 0.82947 0.18703 0.0
O339 O 0.56968 0.81355 0.22435 0.0
Cd340 Cd 0.60958 0.85897 0.22863 0.0
C341 C 0.60898 0.87764 0.16134 0.0
O342 O 0.71493 0.84408 0.23616 0.0
O343 O 0.70096 0.88694 0.23076 0.0
O344 O 0.5642 0.84325 0.27314 0.0
C345 C 0.73662 0.86783 0.23635 0.0
O346 O 0.66237 0.874 0.16973 0.0
C347 C 0.55328 0.86606 0.28458 0.0
O348 O 0.56688 0.8707 0.17915 0.0
O349 O 0.56437 0.88686 0.26853 0.0
C350 C 0.65056 0.44798 0.21862 0.0
O351 O 0.59817 0.4537 0.20955 0.0
Cd352 Cd 0.52346 0.41934 0.2033 0.0
O353 O 0.66361 0.42403 0.22646 0.0
Cd354 Cd 0.6259 0.37722 0.2357 0.0
C355 C 0.6099 0.37006 0.16364 0.0
O356 O 0.52995 0.39579 0.24881 0.0
O357 O 0.53175 0.3525 0.24651 0.0
O358 O 0.70592 0.38768 0.27001 0.0
C359 C 0.50141 0.37369 0.25053 0.0
O360 O 0.57245 0.38891 0.16811 0.0
C361 C 0.69802 0.36733 0.28679 0.0
O362 O 0.64142 0.36048 0.18501 0.0
O363 O 0.66228 0.34915 0.27725 0.0
C364 C 0.59335 0.44944 -0.00705 0.0
O365 O 0.64632 0.45424 0.00246 0.0
Cd366 Cd 0.72024 0.41984 0.00656 0.0
O367 O 0.578 0.42653 -0.01776 0.0
Cd368 Cd 0.61029 0.38099 0.96854 0.0
C369 C 0.61233 0.37148 0.03562 0.0
O370 O 0.71204 0.39743 0.96023 0.0
O371 O 0.70301 0.35421 0.96305 0.0
O372 O 0.57603 0.39446 0.92004 0.0
C373 C 0.73683 0.3747 0.9594 0.0
O374 O 0.64995 0.38834 0.02545 0.0
C375 C 0.55068 0.37227 0.91353 0.0
O376 O 0.57536 0.36121 0.01699 0.0
O377 O 0.54857 0.3543 0.93402 0.0
C378 C 0.65759 0.78878 -0.01321 0.0
O379 O 0.60452 0.78352 -0.00433 0.0
Cd380 Cd 0.52686 0.81655 -0.00018 0.0
O381 O 0.67197 0.81182 0.97641 0.0
Cd382 Cd 0.62758 0.85531 0.96376 0.0
C383 C 0.61099 0.86775 0.03555 0.0
O384 O 0.52694 0.83998 0.95382 0.0
O385 O 0.53838 0.88316 0.95683 0.0
O386 O 0.66705 0.8457 0.91517 0.0
C387 C 0.50334 0.86308 0.95346 0.0
O388 O 0.57107 0.84933 0.03347 0.0
C389 C 0.69354 0.86819 0.91168 0.0
O390 O 0.64523 0.87393 0.01347 0.0
O391 O 0.6923 0.88477 0.93374 0.0
C392 C 0.422 0.1091 0.66803 0.0
O393 O 0.38941 0.08962 0.67698 0.0
Cd394 Cd 0.37424 0.08079 0.73147 0.0
O395 O 0.44079 0.12621 0.68713 0.0
Cd396 Cd 0.38682 0.1379 0.73338 0.0
C397 C 0.24708 0.11106 0.72703 0.0
O398 O 0.42427 0.10599 0.77245 0.0
O399 O 0.35756 0.13575 0.78519 0.0
O400 O 0.46367 0.1725 0.73649 0.0
C401 C 0.39248 0.11709 0.79307 0.0
O402 O 0.26938 0.08933 0.73683 0.0
C403 C 0.42928 0.19196 0.7305 0.0
O404 O 0.28047 0.13097 0.71955 0.0
O405 O 0.37374 0.1867 0.72742 0.0
C406 C 0.32042 0.62842 0.66454 0.0
O407 O 0.34363 0.65026 0.67413 0.0
Cd408 Cd 0.36355 0.65764 0.72858 0.0
O409 O 0.31112 0.60925 0.68279 0.0
Cd410 Cd 0.35186 0.5996 0.7324 0.0
C411 C 0.49138 0.62519 0.72562 0.0
O412 O 0.31388 0.63299 0.77002 0.0
O413 O 0.38182 0.60414 0.78362 0.0
O414 O 0.27125 0.56713 0.73528 0.0
C415 C 0.34634 0.62285 0.79091 0.0
O416 O 0.46858 0.64776 0.73251 0.0
C417 C 0.30409 0.54671 0.73112 0.0
O418 O 0.45855 0.60459 0.72021 0.0
O419 O 0.36042 0.55056 0.72941 0.0
C420 C 0.41892 0.63101 0.03421 0.0
O421 O 0.42016 0.65358 0.02043 0.0
Cd422 Cd 0.38416 0.6596 0.96782 0.0
O423 O 0.40641 0.6094 0.02011 0.0
Cd424 Cd 0.38461 0.5901 0.97083 0.0
C425 C 0.25172 0.62341 0.97684 0.0
O426 O 0.41733 0.62401 0.93587 0.0
O427 O 0.39016 0.58629 0.91603 0.0
O428 O 0.46635 0.5629 -0.01486 0.0
C429 C 0.39947 0.61131 0.91231 0.0
O430 O 0.28043 0.64559 0.97358 0.0
C431 C 0.43944 0.54059 -0.01978 0.0
O432 O 0.27801 0.60061 0.97754 0.0
O433 O 0.3849 0.54117 0.9716 0.0
C434 C 0.32064 0.10774 0.03742 0.0
O435 O 0.3239 0.08519 0.02361 0.0
Cd436 Cd 0.36356 0.08022 0.97136 0.0
O437 O 0.33079 0.12962 0.02349 0.0
Cd438 Cd 0.35528 0.14925 0.97495 0.0
C439 C 0.49212 0.11867 -0.01976 0.0
O440 O 0.32602 0.11496 0.93935 0.0
O441 O 0.35001 0.15332 0.92021 0.0
O442 O 0.2757 0.17981 -0.01508 0.0
C443 C 0.34258 0.12823 0.91598 0.0
O444 O 0.46661 0.09567 0.97736 0.0
C445 C 0.30928 0.20068 -0.01576 0.0
O446 O 0.46253 0.14058 -0.01947 0.0
O447 O 0.3653 0.19757 -0.02011 0.0
C448 C 0.09468 0.39556 0.11499 0.0
C449 C 0.1098 0.37227 0.13163 0.0
C450 C 0.14984 0.35083 0.08659 0.0
C451 C 0.12909 0.37248 0.06914 0.0
N452 N 0.07875 0.41502 0.06506 0.0
N453 N 0.13341 0.32491 0.1319 0.0
C454 C 0.10084 0.39495 0.08284 0.0
C455 C 0.13139 0.34894 0.11686 0.0
N456 N 0.07516 0.41797 0.12991 0.0
N457 N 0.18658 0.33196 0.07395 0.0
H458 H 0.11692 0.32272 0.15394 0.0
H459 H 0.14498 0.30682 0.12142 0.0
H460 H 0.20154 0.33334 0.05152 0.0
H461 H 0.20677 0.31679 0.08653 0.0
H462 H 0.06827 0.43644 0.11941 0.0
H463 H 0.06764 0.41809 0.1533 0.0
H464 H 0.05241 0.43063 0.07329 0.0
H465 H 0.08539 0.41545 0.04161 0.0
C466 C 0.08503 0.84351 0.08436 0.0
C467 C 0.1049 0.867 0.0689 0.0
C468 C 0.1454 0.88551 0.11544 0.0
C469 C 0.11763 0.86466 0.13189 0.0
N470 N 0.05974 0.82358 0.13336 0.0
N471 N 0.13508 0.91375 0.07176 0.0
C472 C 0.08711 0.84335 0.11675 0.0
C473 C 0.12908 0.88911 0.08518 0.0
N474 N 0.06463 0.8218 0.06823 0.0
N475 N 0.18567 0.90242 0.12919 0.0
H476 H 0.11893 0.91737 0.05 0.0
H477 H 0.14896 0.93097 0.08351 0.0
H478 H 0.19912 0.89953 0.15161 0.0
H479 H 0.20998 0.91708 0.11734 0.0
H480 H 0.05401 0.80328 0.07806 0.0
H481 H 0.06048 0.82229 0.04465 0.0
H482 H 0.03227 0.80867 0.12397 0.0
H483 H 0.06369 0.8228 0.15696 0.0
C484 C 0.92911 0.62565 0.84227 0.0
C485 C 0.89592 0.61001 0.82136 0.0
C486 C 0.83468 0.59116 0.86278 0.0
C487 C 0.85977 0.61084 0.88247 0.0
N488 N 0.93616 0.64439 0.89298 0.0
N489 N 0.82647 0.57405 0.81089 0.0
C490 C 0.90959 0.62694 0.87293 0.0
C491 C 0.85228 0.5911 0.83156 0.0
N492 N 0.97868 0.6395 0.83234 0.0
N493 N 0.79309 0.57331 0.87388 0.0
H494 H 0.84091 0.57337 0.78833 0.0
H495 H 0.79178 0.56057 0.81573 0.0
H496 H 0.78007 0.5733 0.89665 0.0
H497 H 0.77341 0.55788 0.86126 0.0
H498 H 0.00793 0.65014 0.84641 0.0
H499 H 0.99325 0.63844 0.80983 0.0
H500 H 0.967 0.65929 0.88686 0.0
H501 H 0.926 0.64444 0.91608 0.0
C502 C 0.85156 0.14824 0.86924 0.0
C503 C 0.89348 0.12928 0.88008 0.0
C504 C 0.90799 0.11201 0.82867 0.0
C505 C 0.85712 0.12687 0.81915 0.0
N506 N 0.78611 0.16211 0.82794 0.0
N507 N 0.96753 0.0955 0.87075 0.0
C508 C 0.83139 0.14641 0.83855 0.0
C509 C 0.92466 0.11237 0.85975 0.0
N510 N 0.83043 0.16736 0.88876 0.0
N511 N 0.9397 0.0974 0.80785 0.0
H512 H 0.98235 0.09653 0.89318 0.0
H513 H 0.98729 0.08015 0.85823 0.0
H514 H 0.92877 0.09698 0.78488 0.0
H515 H 0.97963 0.08761 0.81255 0.0
H516 H 0.80151 0.18271 0.88261 0.0
H517 H 0.84565 0.16881 0.91111 0.0
H518 H 0.76183 0.1755 0.84124 0.0
H519 H 0.77214 0.16138 0.80536 0.0
C520 C 0.14781 0.85026 0.61635 0.0
C521 C 0.12455 0.87225 0.63328 0.0
C522 C 0.11793 0.89785 0.58586 0.0
C523 C 0.14762 0.87655 0.57084 0.0
N524 N 0.21019 0.83763 0.57414 0.0
N525 N 0.09447 0.91927 0.63389 0.0
C526 C 0.17088 0.85501 0.58735 0.0
C527 C 0.11162 0.89692 0.61809 0.0
N528 N 0.14271 0.82438 0.62666 0.0
N529 N 0.09424 0.91825 0.56916 0.0
H530 H 0.0898 0.91977 0.65735 0.0
H531 H 0.08916 0.93806 0.62382 0.0
H532 H 0.1015 0.91979 0.5458 0.0
H533 H 0.0658 0.93277 0.57816 0.0
H534 H 0.15624 0.80778 0.61388 0.0
H535 H 0.11713 0.81935 0.64571 0.0
H536 H 0.23027 0.82205 0.58617 0.0
H537 H 0.22657 0.84076 0.55218 0.0
C538 C 0.13551 0.40038 0.5904 0.0
C539 C 0.11981 0.37812 0.57178 0.0
C540 C 0.10263 0.35131 0.61764 0.0
C541 C 0.12696 0.37291 0.63482 0.0
N542 N 0.18589 0.41379 0.63615 0.0
N543 N 0.095 0.33042 0.56794 0.0
C544 C 0.15131 0.39571 0.62046 0.0
C545 C 0.10507 0.3528 0.58533 0.0
N546 N 0.1312 0.42619 0.58 0.0
N547 N 0.07642 0.32995 0.63214 0.0
H548 H 0.09709 0.33051 0.54436 0.0
H549 H 0.08884 0.31125 0.57709 0.0
H550 H 0.07703 0.32816 0.65575 0.0
H551 H 0.05216 0.31491 0.62092 0.0
H552 H 0.13885 0.44298 0.59383 0.0
H553 H 0.11209 0.43061 0.55903 0.0
H554 H 0.20694 0.43018 0.62563 0.0
H555 H 0.19804 0.41065 0.65873 0.0
C556 C 0.93596 0.12707 0.34455 0.0
C557 C 0.90013 0.11078 0.3254 0.0
C558 C 0.83647 0.09744 0.3685 0.0
C559 C 0.86773 0.11649 0.38681 0.0
N560 N 0.95995 0.14112 0.39579 0.0
N561 N 0.83076 0.07398 0.31978 0.0
C562 C 0.92216 0.12832 0.37595 0.0
C563 C 0.85555 0.0935 0.33783 0.0
N564 N 0.98046 0.14274 0.33224 0.0
N565 N 0.78667 0.08463 0.37966 0.0
H566 H 0.84483 0.0712 0.29737 0.0
H567 H 0.80072 0.05934 0.32751 0.0
H568 H 0.77274 0.08669 0.40212 0.0
H569 H 0.75825 0.07258 0.3666 0.0
H570 H 0.00305 0.15793 0.34405 0.0
H571 H 0.99314 0.1411 0.30949 0.0
H572 H 0.00215 0.14861 0.38987 0.0
H573 H 0.95165 0.14168 0.41906 0.0
C574 C 0.88939 0.64386 0.33489 0.0
C575 C 0.84504 0.62635 0.32263 0.0
C576 C 0.81898 0.61134 0.37364 0.0
C577 C 0.87336 0.62303 0.38473 0.0
N578 N 0.95652 0.6538 0.37694 0.0
N579 N 0.76425 0.5946 0.32994 0.0
C580 C 0.90667 0.64097 0.36592 0.0
C581 C 0.80773 0.61098 0.34201 0.0
N582 N 0.91533 0.66277 0.31648 0.0
N583 N 0.77851 0.6003 0.3935 0.0
H584 H 0.75326 0.59484 0.30694 0.0
H585 H 0.74115 0.57997 0.34236 0.0
H586 H 0.7847 0.60094 0.41693 0.0
H587 H 0.73619 0.59327 0.38715 0.0
H588 H 0.9449 0.67766 0.3241 0.0
H589 H 0.90261 0.66489 0.29382 0.0
H590 H 0.98636 0.66479 0.36349 0.0
H591 H 0.96926 0.65284 0.39961 0.0
C592 C 0.63277 0.39571 0.58441 0.0
C593 C 0.62024 0.3718 0.56729 0.0
C594 C 0.56941 0.35231 0.61101 0.0
C595 C 0.59167 0.37314 0.62935 0.0
N596 N 0.64574 0.4149 0.63497 0.0
N597 N 0.59945 0.32369 0.57024 0.0
C598 C 0.62325 0.39518 0.61644 0.0
C599 C 0.59454 0.34902 0.58217 0.0
N600 N 0.65265 0.41875 0.5706 0.0
N601 N 0.5286 0.33425 0.62229 0.0
H602 H 0.62665 0.31955 0.55156 0.0
H603 H 0.58415 0.30649 0.58156 0.0
H604 H 0.5106 0.33633 0.64408 0.0
H605 H 0.50896 0.31922 0.60888 0.0
H606 H 0.65751 0.43706 0.58197 0.0
H607 H 0.66033 0.42039 0.54742 0.0
H608 H 0.67555 0.42984 0.62769 0.0
H609 H 0.63604 0.41546 0.65816 0.0
C610 C 0.6164 0.88952 0.61637 0.0
C611 C 0.63479 0.86482 0.62897 0.0
C612 C 0.64704 0.84624 0.57802 0.0
C613 C 0.62088 0.87004 0.56639 0.0
N614 N 0.56513 0.91066 0.57494 0.0
N615 N 0.66767 0.81916 0.62283 0.0
C616 C 0.59994 0.89036 0.58584 0.0
C617 C 0.65024 0.84285 0.61009 0.0
N618 N 0.61674 0.91235 0.6336 0.0
N619 N 0.66966 0.8275 0.55847 0.0
H620 H 0.6731 0.81711 0.64624 0.0
H621 H 0.67508 0.8016 0.61047 0.0
H622 H 0.66521 0.82921 0.53498 0.0
H623 H 0.6943 0.81091 0.56538 0.0
H624 H 0.60733 0.93139 0.62496 0.0
H625 H 0.63427 0.91232 0.65547 0.0
H626 H 0.54509 0.92493 0.58899 0.0
H627 H 0.55146 0.91138 0.5523 0.0
C628 C 0.4279 0.62934 0.3422 0.0
C629 C 0.39582 0.61183 0.32284 0.0
C630 C 0.33583 0.59539 0.366 0.0
C631 C 0.35904 0.61702 0.38372 0.0
N632 N 0.43189 0.65315 0.39006 0.0
N633 N 0.32719 0.57497 0.31566 0.0
C634 C 0.40734 0.63324 0.37238 0.0
C635 C 0.35302 0.59339 0.33479 0.0
N636 N 0.47768 0.64241 0.33127 0.0
N637 N 0.29636 0.57748 0.37878 0.0
H638 H 0.34158 0.57277 0.29322 0.0
H639 H 0.29197 0.56212 0.32161 0.0
H640 H 0.28229 0.57902 0.40131 0.0
H641 H 0.27991 0.56035 0.36785 0.0
H642 H 0.50671 0.65395 0.34457 0.0
H643 H 0.4929 0.6395 0.30908 0.0
H644 H 0.46068 0.6681 0.38189 0.0
H645 H 0.42243 0.65528 0.4131 0.0
C646 C 0.42286 0.11148 0.36147 0.0
C647 C 0.39305 0.12873 0.382 0.0
C648 C 0.33232 0.1471 0.34064 0.0
C649 C 0.35765 0.12778 0.32082 0.0
N650 N 0.43951 0.09793 0.30924 0.0
N651 N 0.33316 0.16782 0.39092 0.0
C652 C 0.40735 0.11213 0.33026 0.0
C653 C 0.35262 0.1484 0.37133 0.0
N654 N 0.46347 0.09344 0.37229 0.0
N655 N 0.28721 0.16312 0.33046 0.0
H656 H 0.34825 0.16891 0.41331 0.0
H657 H 0.30627 0.18388 0.38465 0.0
H658 H 0.27298 0.16283 0.30792 0.0
H659 H 0.26278 0.17607 0.34425 0.0
H660 H 0.48136 0.0778 0.35947 0.0
H661 H 0.47782 0.09367 0.39483 0.0
H662 H 0.47909 0.0879 0.31407 0.0
H663 H 0.42968 0.09822 0.28612 0.0
C664 C 0.62732 0.85376 0.11416 0.0
C665 C 0.60053 0.87615 0.12845 0.0
C666 C 0.59179 0.89823 0.07923 0.0
C667 C 0.62449 0.87671 0.06626 0.0
N668 N 0.69073 0.83938 0.07303 0.0
N669 N 0.55994 0.9208 0.12567 0.0
C670 C 0.64896 0.85655 0.08455 0.0
C671 C 0.58357 0.89893 0.11132 0.0
N672 N 0.63027 0.82961 0.12876 0.0
N673 N 0.56787 0.91731 0.06075 0.0
H674 H 0.55101 0.92083 0.14894 0.0
H675 H 0.55106 0.93892 0.11479 0.0
H676 H 0.57637 0.91752 0.03743 0.0
H677 H 0.53888 0.93223 0.0683 0.0
H678 H 0.64634 0.81215 0.1185 0.0
H679 H 0.60941 0.82665 0.14969 0.0
H680 H 0.71255 0.82514 0.08629 0.0
H681 H 0.70762 0.84164 0.05105 0.0
C682 C 0.62861 0.39093 0.08644 0.0
C683 C 0.60798 0.36859 0.069 0.0
C684 C 0.59558 0.34305 0.11625 0.0
C685 C 0.62436 0.36447 0.13194 0.0
N686 N 0.68615 0.40442 0.13004 0.0
N687 N 0.57731 0.32144 0.06766 0.0
C688 C 0.64821 0.38658 0.11606 0.0
C689 C 0.59288 0.34391 0.08389 0.0
N690 N 0.6249 0.41668 0.07569 0.0
N691 N 0.56974 0.32249 0.13229 0.0
H692 H 0.57497 0.32099 0.04411 0.0
H693 H 0.57079 0.3026 0.07756 0.0
H694 H 0.5741 0.321 0.15582 0.0
H695 H 0.5421 0.30782 0.12252 0.0
H696 H 0.6363 0.43351 0.08877 0.0
H697 H 0.60252 0.42133 0.05564 0.0
H698 H 0.70709 0.42023 0.11841 0.0
H699 H 0.70093 0.40154 0.15227 0.0
C700 C 0.43317 0.12737 0.84434 0.0
C701 C 0.39724 0.1106 0.82573 0.0
C702 C 0.33588 0.09724 0.8697 0.0
C703 C 0.36819 0.11621 0.88769 0.0
N704 N 0.46143 0.1405 0.89528 0.0
N705 N 0.32869 0.0733 0.82137 0.0
C706 C 0.42177 0.12818 0.87599 0.0
C707 C 0.35368 0.09318 0.83884 0.0
N708 N 0.47571 0.14376 0.83144 0.0
N709 N 0.28631 0.08456 0.88129 0.0
H710 H 0.34159 0.07035 0.7988 0.0
H711 H 0.29984 0.05846 0.82975 0.0
H712 H 0.27302 0.08661 0.90384 0.0
H713 H 0.25709 0.07276 0.86838 0.0
H714 H 0.49771 0.15922 0.84311 0.0
H715 H 0.48692 0.14259 0.80847 0.0
H716 H 0.50324 0.14789 0.88853 0.0
H717 H 0.45528 0.1406 0.91874 0.0
C718 C 0.305 0.6142 0.84238 0.0
C719 C 0.34164 0.63026 0.82337 0.0
C720 C 0.40572 0.64271 0.86659 0.0
C721 C 0.37301 0.62409 0.8848 0.0
N722 N 0.2784 0.60127 0.89361 0.0
N723 N 0.41268 0.66649 0.81825 0.0
C724 C 0.31791 0.61307 0.87383 0.0
C725 C 0.38695 0.64703 0.836 0.0
N726 N 0.26049 0.59862 0.82996 0.0
N727 N 0.45641 0.65476 0.8777 0.0
H728 H 0.39891 0.66958 0.79589 0.0
H729 H 0.44315 0.68085 0.82624 0.0
H730 H 0.47028 0.65248 0.90009 0.0
H731 H 0.48573 0.66634 0.8646 0.0
H732 H 0.23755 0.58357 0.84181 0.0
H733 H 0.2484 0.60008 0.80716 0.0
H734 H 0.23574 0.59453 0.88747 0.0
H735 H 0.28585 0.60099 0.91694 0.0
C736 C 0.97003 0.24127 0.2478 0.0
C737 C 0.96925 0.22082 0.22543 0.0
C738 C 0.03153 0.24919 0.19221 0.0
C739 C 0.04136 0.26736 0.21672 0.0
N740 N 0.02871 0.27706 0.27036 0.0
N741 N 0.0016 0.20423 0.17652 0.0
C742 C 0.0123 0.26272 0.24513 0.0
C743 C 0.00083 0.22443 0.19768 0.0
N744 N 0.93167 0.23994 0.27198 0.0
N745 N 0.04891 0.25608 0.16345 0.0
H746 H 0.97597 0.18661 0.17851 0.0
H747 H 0.03022 0.20435 0.15779 0.0
H748 H 0.06818 0.27472 0.15816 0.0
H749 H 0.0382 0.24463 0.14434 0.0
H750 H 0.92598 0.25588 0.28714 0.0
H751 H 0.90155 0.22399 0.27528 0.0
H752 H 0.01216 0.27288 0.29199 0.0
H753 H 0.06443 0.29073 0.27067 0.0
C754 C 0.19279 0.98852 0.24556 0.0
C755 C 0.19805 0.97303 0.21859 0.0
C756 C 0.28393 0.00057 0.20194 0.0
C757 C 0.2748 0.01759 0.22744 0.0
N758 N 0.22536 0.02761 0.2747 0.0
N759 N 0.25482 0.9598 0.17459 0.0
C760 C 0.23108 0.01124 0.24983 0.0
C761 C 0.24585 0.97761 0.19786 0.0
N762 N 0.1522 0.98091 0.26739 0.0
N763 N 0.32671 0.00731 0.18089 0.0
H764 H 0.22661 0.94326 0.17083 0.0
H765 H 0.29156 0.96032 0.16002 0.0
H766 H 0.35616 0.02358 0.18371 0.0
H767 H 0.3323 -0.00249 0.16021 0.0
H768 H 0.14907 0.98968 0.28876 0.0
H769 H 0.12305 0.96447 0.26496 0.0
H770 H 0.1902 0.02653 0.2902 0.0
H771 H 0.25594 0.04305 0.27971 0.0
C772 C -0.00314 0.97974 0.00257 0.0
C773 C 0.04532 0.97499 -0.01756 0.0
C774 C 0.01654 0.01377 0.95163 0.0
C775 C 0.97272 0.0204 0.9737 0.0
N776 N 0.9239 0.01149 0.02169 0.0
N777 N 0.10528 0.98811 0.93919 0.0
C778 C 0.9631 0.00373 -0.00053 0.0
C779 C 0.05609 0.9921 0.95722 0.0
N780 N 0.98238 0.96102 0.02418 0.0
N781 N 0.01904 0.02778 0.92494 0.0
H782 H 0.13495 0.97225 0.94236 0.0
H783 H 0.11939 0.00158 0.9225 0.0
H784 H 0.99005 0.04354 0.91998 0.0
H785 H 0.0459 0.02235 0.90662 0.0
H786 H 0.94354 0.96177 0.03731 0.0
H787 H 0.00694 0.94348 0.02745 0.0
H788 H 0.91999 0.00185 0.04257 0.0
H789 H 0.89798 0.02881 0.02025 0.0
C790 C 0.25118 0.23439 0.01368 0.0
C791 C 0.28269 0.22758 -0.01319 0.0
C792 C 0.24827 0.26871 0.96219 0.0
C793 C 0.20926 0.2732 -0.01283 0.0
N794 N 0.17557 0.26224 0.0377 0.0
N795 N 0.3107 0.23712 0.93492 0.0
C796 C 0.21174 0.2567 0.01338 0.0
C797 C 0.2823 0.24473 0.96112 0.0
N798 N 0.25989 0.21962 0.03945 0.0
N799 N 0.25205 0.28711 0.93925 0.0
H800 H 0.33652 0.21981 0.93304 0.0
H801 H 0.30567 0.2469 0.91424 0.0
H802 H 0.2257 0.30421 0.93847 0.0
H803 H 0.28452 0.28666 0.92224 0.0
H804 H 0.24192 0.22444 0.06056 0.0
H805 H 0.28933 0.20341 0.04028 0.0
H806 H 0.16965 0.24947 0.05616 0.0
H807 H 0.14965 0.2796 0.03908 0.0
C808 C 0.97828 0.74296 0.75037 0.0
C809 C 0.97742 0.72295 0.72741 0.0
C810 C 0.04498 0.75061 0.69609 0.0
C811 C 0.05359 0.76837 0.72104 0.0
N812 N 0.0343 0.77944 0.7737 0.0
N813 N 0.01014 0.70699 0.67829 0.0
C814 C 0.02113 0.7643 0.74855 0.0
C815 C 0.01085 0.72658 0.70021 0.0
N816 N 0.93898 0.74137 0.77417 0.0
N817 N 0.06721 0.75729 0.66812 0.0
H818 H 0.98159 0.69021 0.67902 0.0
H819 H 0.03988 0.70671 0.66003 0.0
H820 H 0.09092 0.77512 0.664 0.0
H821 H 0.05729 0.74658 0.64838 0.0
H822 H 0.93277 0.75702 0.78963 0.0
H823 H 0.90883 0.72538 0.77705 0.0
H824 H 0.01627 0.77559 0.79509 0.0
H825 H 0.06791 0.79415 0.77418 0.0
C826 C 0.74676 0.97324 0.69633 0.0
C827 C 0.69729 0.96802 0.71579 0.0
C828 C 0.72433 0.007 0.74735 0.0
C829 C 0.76876 0.01421 0.72565 0.0
N830 N 0.82281 0.00519 0.67931 0.0
N831 N 0.639 0.97839 0.76041 0.0
C832 C 0.78087 -0.00262 0.70031 0.0
C833 C 0.68638 0.98436 0.74167 0.0
N834 N 0.76148 0.95485 0.67443 0.0
N835 N 0.71944 0.02172 0.77355 0.0
H836 H 0.61143 0.96147 0.75746 0.0
H837 H 0.62485 0.99057 0.7782 0.0
H838 H 0.74762 0.03805 0.77856 0.0
H839 H 0.69086 0.01688 0.79144 0.0
H840 H 0.80053 0.95592 0.66148 0.0
H841 H 0.73663 0.93723 0.67064 0.0
H842 H 0.8292 -0.00449 0.6586 0.0
H843 H 0.84952 0.02243 0.68182 0.0
C844 C 0.69413 0.75037 0.956 0.0
C845 C 0.69987 0.76651 -0.01755 0.0
C846 C 0.7839 0.73924 0.00013 0.0
C847 C 0.7741 0.72162 0.97515 0.0
N848 N 0.72337 0.71008 0.92862 0.0
N849 N 0.75539 0.78031 0.02671 0.0
C850 C 0.73066 0.72732 0.95267 0.0
C851 C 0.74668 0.76223 0.00361 0.0
N852 N 0.65496 0.7577 0.93365 0.0
N853 N 0.82677 0.73311 0.02111 0.0
H854 H 0.72781 0.79691 0.02999 0.0
H855 H 0.79098 0.77983 0.04188 0.0
H856 H 0.85543 0.71676 0.01867 0.0
H857 H 0.83362 0.7436 0.04127 0.0
H858 H 0.65241 0.74855 0.91244 0.0
H859 H 0.62699 0.77437 0.93536 0.0
H860 H 0.68774 0.71072 0.91348 0.0
H861 H 0.75257 0.69424 0.92417 0.0
C862 C 0.27859 0.49998 0.74807 0.0
C863 C 0.27638 0.52008 0.72546 0.0
C864 C 0.2082 0.49188 0.69524 0.0
C865 C 0.20111 0.47445 0.72047 0.0
N866 N 0.22675 0.46277 0.77221 0.0
N867 N 0.24136 0.53553 0.67679 0.0
C868 C 0.23647 0.47833 0.74706 0.0
C869 C 0.24213 0.51605 0.69869 0.0
N870 N 0.32006 0.50187 0.77079 0.0
N871 N 0.18409 0.48486 0.66778 0.0
H872 H 0.26913 0.55258 0.67742 0.0
H873 H 0.21142 0.5354 0.65868 0.0
H874 H 0.16035 0.46688 0.66433 0.0
H875 H 0.19243 0.49541 0.6478 0.0
H876 H 0.32829 0.48634 0.78603 0.0
H877 H 0.3502 0.51799 0.77272 0.0
H878 H 0.24689 0.46652 0.79311 0.0
H879 H 0.19443 0.44752 0.77335 0.0
C880 C 0.96909 0.49741 0.4597 0.0
C881 C 0.96889 0.51541 0.48475 0.0
C882 C 0.04864 0.49021 0.50946 0.0
C883 C 0.04979 0.4724 0.48417 0.0
N884 N 0.00373 0.45549 0.43808 0.0
N885 N 0.99551 0.52546 0.53642 0.0
C886 C 0.00709 0.47466 0.4604 0.0
C887 C 0.00469 0.51066 0.51061 0.0
N888 N 0.93653 0.50314 0.43426 0.0
N889 N 0.09008 0.48785 0.53211 0.0
H890 H 0.9627 0.54027 0.53792 0.0
H891 H 0.01607 0.52152 0.55709 0.0
H892 H 0.12107 0.4723 0.53301 0.0
H893 H 0.09614 0.50208 0.54926 0.0
H894 H 0.94088 0.49281 0.4138 0.0
H895 H 0.9076 0.51942 0.43272 0.0
H896 H 0.96821 0.45398 0.42285 0.0
H897 H 0.03457 0.44003 0.43556 0.0
C898 C 0.28283 0.74423 0.46033 0.0
C899 C 0.28451 0.72627 0.48532 0.0
C900 C 0.21757 0.75553 0.51443 0.0
C901 C 0.21455 0.7731 0.48914 0.0
N902 N 0.2566 0.78829 0.44147 0.0
N903 N 0.26683 0.71771 0.53838 0.0
C904 C 0.25169 0.76893 0.46334 0.0
C905 C 0.25597 0.73286 0.51313 0.0
N906 N 0.30692 0.73686 0.43297 0.0
N907 N 0.18301 0.76039 0.53951 0.0
H908 H 0.29587 0.70134 0.5382 0.0
H909 H 0.2516 0.72259 0.56003 0.0
H910 H 0.15856 0.77806 0.54234 0.0
H911 H 0.17684 0.74666 0.55708 0.0
H912 H 0.30036 0.74752 0.41296 0.0
H913 H 0.32971 0.7189 0.42944 0.0
H914 H 0.2881 0.7877 0.424 0.0
H915 H 0.23313 0.80625 0.44219 0.0
C916 C 0.74087 0.51062 0.19836 0.0
C917 C 0.77221 0.51552 0.22589 0.0
C918 C 0.72786 0.47477 0.2482 0.0
C919 C 0.69671 0.46972 0.22055 0.0
N920 N 0.68733 0.47829 0.16692 0.0
N921 N 0.80796 0.49907 0.27392 0.0
C922 C 0.70731 0.48633 0.19488 0.0
C923 C 0.77025 0.49637 0.24967 0.0
N924 N 0.74278 0.52931 0.17559 0.0
N925 N 0.71389 0.46034 0.27371 0.0
H926 H 0.83765 0.51528 0.27648 0.0
H927 H 0.81349 0.48411 0.29018 0.0
H928 H 0.68121 0.44521 0.27431 0.0
H929 H 0.73062 0.46499 0.29515 0.0
H930 H 0.71457 0.52866 0.1568 0.0
H931 H 0.77073 0.5463 0.17612 0.0
H932 H 0.69843 0.48821 0.14685 0.0
H933 H 0.66466 0.46006 0.16332 0.0
C934 C 0.74365 0.26935 0.507 0.0
C935 C 0.69342 0.27152 0.4875 0.0
C936 C 0.72343 0.23127 0.45946 0.0
C937 C 0.76997 0.22747 0.4809 0.0
N938 N 0.8259 0.24187 0.52491 0.0
N939 N 0.64183 0.259 0.44146 0.0
C940 C 0.78135 0.24651 0.50432 0.0
C941 C 0.68501 0.25368 0.46265 0.0
N942 N 0.75541 0.28931 0.5277 0.0
N943 N 0.71572 0.21302 0.43637 0.0
H944 H 0.61319 0.27545 0.44287 0.0
H945 H 0.63595 0.24829 0.42137 0.0
H946 H 0.74651 0.19789 0.43158 0.0
H947 H 0.67871 0.21229 0.42209 0.0
H948 H 0.79433 0.29052 0.54061 0.0
H949 H 0.72762 0.30589 0.53072 0.0
H950 H 0.83286 0.25331 0.54442 0.0
H951 H 0.85487 0.22557 0.52328 0.0
C952 C 0.4893 0.22284 0.69742 0.0
C953 C 0.45468 0.21897 0.72416 0.0
C954 C 0.4865 0.26313 0.74349 0.0
C955 C 0.52298 0.26662 0.71718 0.0
N956 N 0.546 0.25393 0.6657 0.0
N957 N 0.40817 0.2372 0.76895 0.0
C958 C 0.52023 0.2477 0.69305 0.0
C959 C 0.44886 0.23987 0.74585 0.0
N960 N 0.49339 0.20252 0.67648 0.0
N961 N 0.49085 0.28097 0.76709 0.0
H962 H 0.38165 0.21996 0.77188 0.0
H963 H 0.39707 0.25275 0.78376 0.0
H964 H 0.51815 0.29805 0.76654 0.0
H965 H 0.47064 0.27803 0.78815 0.0
H966 H 0.52379 0.20262 0.65852 0.0
H967 H 0.46785 0.18482 0.67776 0.0
H968 H 0.54161 0.24208 0.6463 0.0
H969 H 0.56721 0.27241 0.66153 0.0
C970 C 0.49153 0.01426 0.50633 0.0
C971 C 0.46189 0.02003 0.47866 0.0
C972 C 0.505 0.98005 0.45473 0.0
C973 C 0.53678 0.97496 0.48209 0.0
N974 N 0.54899 0.98237 0.5358 0.0
N975 N 0.43057 0.00685 0.42845 0.0
C976 C 0.52662 0.99065 0.5085 0.0
C977 C 0.46479 0.00213 0.4536 0.0
N978 N 0.48679 0.0317 0.53033 0.0
N979 N 0.51606 0.96484 0.42938 0.0
H980 H 0.40291 0.02354 0.42635 0.0
H981 H 0.42633 0.99363 0.41022 0.0
H982 H 0.54705 0.9493 0.42869 0.0
H983 H 0.49747 0.96829 0.40816 0.0
H984 H 0.51316 0.03072 0.54974 0.0
H985 H 0.45765 0.04802 0.53042 0.0
H986 H 0.53891 0.99143 0.55648 0.0
H987 H 0.5738 0.96479 0.53823 0.0
C988 C 0.55541 0.75275 0.2416 0.0
C989 C 0.54314 0.76821 0.21532 0.0
C990 C 0.46202 0.73714 0.20115 0.0
C991 C 0.47313 0.72207 0.22793 0.0
N992 N 0.52097 0.7182 0.27663 0.0
N993 N 0.47808 0.77889 0.17359 0.0
C994 C 0.51714 0.73068 0.24907 0.0
C995 C 0.49429 0.76157 0.19616 0.0
N996 N 0.60456 0.75879 0.25896 0.0
N997 N 0.42309 0.72741 0.17971 0.0
H998 H 0.50171 0.79666 0.16886 0.0
H999 H 0.43869 0.77678 0.16111 0.0
H1000 H 0.39855 0.70956 0.18228 0.0
H1001 H 0.41832 0.73591 0.15829 0.0
H1002 H 0.61973 0.74662 0.27648 0.0
H1003 H 0.63307 0.77513 0.25453 0.0
H1004 H 0.548 0.7251 0.2943 0.0
H1005 H 0.49289 0.70219 0.28292 0.0
C1006 C 0.56481 0.49141 0.9664 0.0
C1007 C 0.55166 0.47191 -0.01099 0.0
C1008 C 0.45828 0.49487 0.00227 0.0
C1009 C 0.47357 0.51534 -0.0189 0.0
N1010 N 0.53767 0.53306 0.94154 0.0
N1011 N 0.48151 0.45118 0.02382 0.0
C1012 C 0.52568 0.51347 0.96261 0.0
C1013 C 0.49683 0.47239 0.00547 0.0
N1014 N 0.61277 0.4878 0.94733 0.0
N1015 N 0.40902 0.4978 0.02053 0.0
H1016 H 0.50996 0.43505 0.02788 0.0
H1017 H 0.43943 0.44859 0.03369 0.0
H1018 H 0.37958 0.5139 0.01869 0.0
H1019 H 0.39858 0.48521 0.03866 0.0
H1020 H 0.62231 0.49974 0.92855 0.0
H1021 H 0.64184 0.47154 0.94882 0.0
H1022 H 0.57853 0.53549 0.93041 0.0
H1023 H 0.50659 0.54762 0.93534 0.0
C1024 C 0.00442 0.38087 0.36878 0.0
C1025 C 0.04333 0.36342 0.38471 0.0
C1026 C 0.09384 0.35136 0.33798 0.0
C1027 C 0.05324 0.36753 0.32145 0.0
N1028 N 0.96609 0.39576 0.31996 0.0
N1029 N 0.11121 0.32589 0.3835 0.0
C1030 C 0.00697 0.3817 0.33647 0.0
C1031 C 0.08269 0.34632 0.36887 0.0
N1032 N 0.96652 0.39703 0.38485 0.0
N1033 N 0.14564 0.34244 0.32473 0.0
H1034 H 0.10349 0.32129 0.40622 0.0
H1035 H 0.13696 0.31159 0.37218 0.0
H1036 H 0.15851 0.34748 0.30267 0.0
H1037 H 0.17943 0.33286 0.33678 0.0
H1038 H 0.94115 0.41227 0.37524 0.0
H1039 H 0.96188 0.39539 0.40837 0.0
H1040 H 0.92856 0.40492 0.32934 0.0
H1041 H 0.96828 0.3971 0.29636 0.0
C1042 C 0.2365 0.883 0.33524 0.0
C1043 C 0.2024 0.86416 0.31796 0.0
C1044 C 0.14838 0.84999 0.36279 0.0
C1045 C 0.18422 0.8675 0.38086 0.0
N1046 N 0.26909 0.89784 0.38527 0.0
N1047 N 0.1448 0.82273 0.31762 0.0
C1048 C 0.23073 0.88317 0.36745 0.0
C1049 C 0.16553 0.84501 0.33264 0.0
N1050 N 0.27278 0.90109 0.32055 0.0
N1051 N 0.09532 0.83968 0.37358 0.0
H1052 H 0.15902 0.81772 0.29581 0.0
H1053 H 0.12012 0.80753 0.32837 0.0
H1054 H 0.07727 0.84504 0.39458 0.0
H1055 H 0.06555 0.82867 0.36004 0.0
H1056 H 0.29387 0.91735 0.3312 0.0
H1057 H 0.28006 0.90001 0.29715 0.0
H1058 H 0.30622 0.90829 0.37685 0.0
H1059 H 0.26593 0.89815 0.40887 0.0
C1060 C -0.00366 0.88386 0.83812 0.0
C1061 C 0.03416 0.86675 0.82104 0.0
C1062 C 0.06655 0.84398 0.86729 0.0
C1063 C 0.03707 0.86386 0.88446 0.0
N1064 N 0.96611 0.89969 0.8883 0.0
N1065 N 0.11346 0.83354 0.8195 0.0
C1066 C -0.00122 0.88272 0.87039 0.0
C1067 C 0.07058 0.84719 0.83553 0.0
N1068 N 0.95992 0.90152 0.82337 0.0
N1069 N 0.09253 0.8226 0.88142 0.0
H1070 H 0.12151 0.83616 0.7964 0.0
H1071 H 0.14581 0.82158 0.82965 0.0
H1072 H 0.09046 0.81974 0.9048 0.0
H1073 H 0.11008 0.80617 0.86974 0.0
H1074 H 0.9308 0.91473 0.83409 0.0
H1075 H 0.95776 0.90251 0.79975 0.0
H1076 H 0.93893 0.91498 0.88029 0.0
H1077 H 0.9657 0.89795 0.91192 0.0
C1078 C 0.2435 0.38151 0.83516 0.0
C1079 C 0.20814 0.36298 0.81818 0.0
C1080 C 0.15292 0.34992 0.86293 0.0
C1081 C 0.18853 0.36784 0.88065 0.0
N1082 N 0.27419 0.39769 0.88501 0.0
N1083 N 0.14934 0.32202 0.81817 0.0
C1084 C 0.23632 0.38271 0.86726 0.0
C1085 C 0.17055 0.3443 0.83302 0.0
N1086 N 0.28191 0.39845 0.82015 0.0
N1087 N 0.09977 0.33977 0.87383 0.0
H1088 H 0.16375 0.31686 0.79642 0.0
H1089 H 0.12398 0.30706 0.82894 0.0
H1090 H 0.08153 0.34546 0.89468 0.0
H1091 H 0.07018 0.32844 0.86054 0.0
H1092 H 0.30486 0.4144 0.83041 0.0
H1093 H 0.28933 0.39661 0.79681 0.0
H1094 H 0.31251 0.40739 0.87678 0.0
H1095 H 0.26898 0.39913 0.90848 0.0
C1096 C 0.97526 0.61281 0.61349 0.0
C1097 C 0.92254 0.61847 0.63033 0.0
C1098 C 0.87881 0.64079 0.58602 0.0
C1099 C 0.92908 0.63315 0.56829 0.0
N1100 N 0.02336 0.61014 0.56395 0.0
N1101 N 0.81881 0.63169 0.63068 0.0
C1102 C 0.9769 0.61865 0.58174 0.0
C1103 C 0.87302 0.63095 0.6161 0.0
N1104 N 0.02405 0.60251 0.62795 0.0
N1105 N 0.8357 0.657 0.57403 0.0
H1106 H 0.81166 0.62309 0.65197 0.0
H1107 H 0.7793 0.63793 0.62043 0.0
H1108 H 0.83619 0.66375 0.55169 0.0
H1109 H 0.80193 0.66572 0.58702 0.0
H1110 H 0.06588 0.60029 0.61777 0.0
H1111 H 0.02371 0.59761 0.65096 0.0
H1112 H 0.05599 0.59678 0.57122 0.0
H1113 H 0.02786 0.61569 0.54123 0.0
C1114 C 0.776 0.13767 0.61401 0.0
C1115 C 0.81677 0.12392 0.63298 0.0
C1116 C 0.85838 0.10036 0.58854 0.0
C1117 C 0.81448 0.11249 0.56984 0.0
N1118 N 0.72576 0.13948 0.56518 0.0
N1119 N 0.89326 0.08995 0.63893 0.0
C1120 C 0.77163 0.13027 0.58275 0.0
C1121 C 0.85626 0.10437 0.62045 0.0
N1122 N 0.74202 0.15797 0.62579 0.0
N1123 N 0.90553 0.08693 0.57575 0.0
H1124 H 0.90056 0.09446 0.66172 0.0
H1125 H 0.91504 0.07253 0.63189 0.0
H1126 H 0.91087 0.08401 0.55251 0.0
H1127 H 0.94292 0.08075 0.58791 0.0
H1128 H 0.71652 0.17088 0.61258 0.0
H1129 H 0.74251 0.16312 0.64875 0.0
H1130 H 0.69001 0.15059 0.57361 0.0
H1131 H 0.72055 0.1339 0.54248 0.0
C1132 C 0.87896 0.13429 0.12138 0.0
C1133 C 0.91854 0.11478 0.13377 0.0
C1134 C 0.96505 0.10856 0.08358 0.0
C1135 C 0.92522 0.12794 0.07128 0.0
N1136 N 0.84058 0.15748 0.07722 0.0
N1137 N 0.00146 0.08451 0.12799 0.0
C1138 C 0.8821 0.14079 0.08999 0.0
C1139 C 0.96197 0.10204 0.11515 0.0
N1140 N 0.83719 0.1463 0.13967 0.0
N1141 N 0.00538 0.0963 0.06472 0.0
H1142 H 0.00057 0.07958 0.15097 0.0
H1143 H 0.03658 0.07533 0.11654 0.0
H1144 H 0.01167 0.1021 0.04218 0.0
H1145 H 0.03238 0.08026 0.07081 0.0
H1146 H 0.81524 0.16405 0.13428 0.0
H1147 H 0.82457 0.13875 0.16081 0.0
H1148 H 0.80332 0.16501 0.0885 0.0
H1149 H 0.84081 0.16299 0.05444 0.0
C1150 C 0.78026 0.59807 0.08774 0.0
C1151 C 0.82279 0.61141 0.06898 0.0
C1152 C 0.86205 0.63652 0.11305 0.0
C1153 C 0.81705 0.62439 0.1315 0.0
N1154 N 0.72866 0.59646 0.13642 0.0
N1155 N 0.90267 0.64439 0.06284 0.0
C1156 C 0.77485 0.6059 0.11881 0.0
C1157 C 0.86289 0.63109 0.08137 0.0
N1158 N 0.74579 0.57768 0.07593 0.0
N1159 N 0.9067 0.65171 0.12613 0.0
H1160 H 0.91121 0.63873 0.04045 0.0
H1161 H 0.92588 0.6618 0.06923 0.0
H1162 H 0.90812 0.65641 0.14917 0.0
H1163 H 0.94509 0.6582 0.1147 0.0
H1164 H 0.71833 0.56513 0.08893 0.0
H1165 H 0.74773 0.57206 0.05312 0.0
H1166 H 0.6932 0.58479 0.12821 0.0
H1167 H 0.72316 0.60217 0.15907 0.0
C1168 C 0.50287 0.38442 0.86441 0.0
C1169 C 0.53858 0.36635 0.88146 0.0
C1170 C 0.59498 0.35471 0.83639 0.0
C1171 C 0.55578 0.37033 0.81856 0.0
N1172 N 0.46855 0.39835 0.81453 0.0
N1173 N 0.60518 0.32807 0.88142 0.0
C1174 C 0.50833 0.38478 0.83219 0.0
C1175 C 0.57967 0.34923 0.86666 0.0
N1176 N 0.46483 0.40142 0.8792 0.0
N1177 N 0.64862 0.34622 0.8248 0.0
H1178 H 0.59365 0.32242 0.90339 0.0
H1179 H 0.63213 0.31404 0.87038 0.0
H1180 H 0.66379 0.35153 0.80318 0.0
H1181 H 0.68108 0.33684 0.83795 0.0
H1182 H 0.44248 0.41712 0.86861 0.0
H1183 H 0.4574 0.40019 0.90257 0.0
H1184 H 0.42989 0.4073 0.82299 0.0
H1185 H 0.47262 0.39935 0.79097 0.0
C1186 C 0.67436 0.89481 0.86644 0.0
C1187 C 0.71153 0.87598 0.88081 0.0
C1188 C 0.73727 0.85658 0.83124 0.0
C1189 C 0.69026 0.87173 0.81832 0.0
N1190 N 0.6038 0.90026 0.82587 0.0
N1191 N 0.78228 0.83993 0.87773 0.0
C1192 C 0.65616 0.88965 0.83646 0.0
C1193 C 0.74499 0.85736 0.8633 0.0
N1194 N 0.6546 0.91703 0.88165 0.0
N1195 N 0.77415 0.84178 0.81304 0.0
H1196 H 0.79065 0.84144 0.90099 0.0
H1197 H 0.80319 0.8238 0.86704 0.0
H1198 H 0.76869 0.84068 0.78957 0.0
H1199 H 0.8122 0.83203 0.8209 0.0
H1200 H 0.62995 0.93213 0.87119 0.0
H1201 H 0.66956 0.92208 0.90331 0.0
H1202 H 0.57486 0.91143 0.83948 0.0
H1203 H 0.5854 0.89521 0.80484 0.0
C1204 C 0.49346 0.87472 0.36477 0.0
C1205 C 0.54232 0.86368 0.38086 0.0
C1206 C 0.59868 0.85794 0.33423 0.0
C1207 C 0.54894 0.86759 0.31765 0.0
N1208 N 0.44629 0.88206 0.31577 0.0
N1209 N 0.6336 0.838 0.38067 0.0
C1210 C 0.49517 0.87501 0.33248 0.0
C1211 C 0.59195 0.85273 0.36539 0.0
N1212 N 0.44668 0.88551 0.38054 0.0
N1213 N 0.65343 0.85511 0.32048 0.0
H1214 H 0.63008 0.83371 0.40375 0.0
H1215 H 0.66806 0.82765 0.36986 0.0
H1216 H 0.66112 0.85959 0.29769 0.0
H1217 H 0.69268 0.85109 0.33235 0.0
H1218 H 0.4126 0.8965 0.37049 0.0
H1219 H 0.44346 0.88405 0.40413 0.0
H1220 H 0.40408 0.88539 0.32511 0.0
H1221 H 0.44747 0.88321 0.29213 0.0
C1222 C 0.75196 0.35717 0.36774 0.0
C1223 C 0.7179 0.3774 0.38253 0.0
C1224 C 0.67444 0.39101 0.33463 0.0
C1225 C 0.70778 0.37071 0.31952 0.0
N1226 N 0.78418 0.33685 0.32004 0.0
N1227 N 0.66766 0.42012 0.37831 0.0
C1228 C 0.74895 0.35459 0.33555 0.0
C1229 C 0.6866 0.39666 0.36535 0.0
N1230 N 0.78569 0.34018 0.38488 0.0
N1231 N 0.62808 0.40365 0.32033 0.0
H1232 H 0.67901 0.42584 0.4003 0.0
H1233 H 0.64808 0.43556 0.3659 0.0
H1234 H 0.61485 0.3994 0.29814 0.0
H1235 H 0.59829 0.41628 0.3316 0.0
H1236 H 0.80731 0.32326 0.37642 0.0
H1237 H 0.79128 0.34314 0.40819 0.0
H1238 H 0.81794 0.32559 0.32997 0.0
H1239 H 0.78143 0.33439 0.29656 0.0
C1240 C 0.3734 0.63436 0.11735 0.0
C1241 C 0.41638 0.61686 0.13058 0.0
C1242 C 0.46718 0.61257 0.08114 0.0
C1243 C 0.42313 0.62941 0.06785 0.0
N1244 N 0.33028 0.6538 0.07208 0.0
N1245 N 0.50221 0.58811 0.12556 0.0
C1246 C 0.37584 0.64006 0.08575 0.0
C1247 C 0.46266 0.60551 0.11255 0.0
N1248 N 0.32889 0.64506 0.13499 0.0
N1249 N 0.5139 0.60385 0.0636 0.0
H1250 H 0.50187 0.58365 0.14866 0.0
H1251 H 0.53421 0.57722 0.11367 0.0
H1252 H 0.51906 0.60936 0.0409 0.0
H1253 H 0.54955 0.59253 0.07148 0.0
H1254 H 0.30345 0.6616 0.12872 0.0
H1255 H 0.31772 0.63782 0.15648 0.0
H1256 H 0.29059 0.65917 0.08285 0.0
H1257 H 0.32964 0.65862 0.04911 0.0
C1258 C 0.35268 0.1028 0.12217 0.0
C1259 C 0.31448 0.12345 0.13336 0.0
C1260 C 0.26994 0.12789 0.08282 0.0
C1261 C 0.31255 0.10947 0.07092 0.0
N1262 N 0.40148 0.08279 0.07873 0.0
N1263 N 0.24175 0.15792 0.12401 0.0
C1264 C 0.35517 0.09744 0.0905 0.0
C1265 C 0.2745 0.13667 0.11357 0.0
N1266 N 0.38801 0.08863 0.14172 0.0
N1267 N 0.22429 0.13649 0.06472 0.0
H1268 H 0.24284 0.16428 0.14659 0.0
H1269 H 0.21695 0.17042 0.10996 0.0
H1270 H 0.21888 0.1298 0.04241 0.0
H1271 H 0.18878 0.14811 0.07253 0.0
H1272 H 0.40915 0.07075 0.13571 0.0
H1273 H 0.39414 0.09374 0.16446 0.0
H1274 H 0.43822 0.07668 0.09143 0.0
H1275 H 0.40665 0.07853 0.05575 0.0
C1276 C 0.46131 0.10156 0.61496 0.0
C1277 C 0.42468 0.11623 0.63533 0.0
C1278 C 0.38689 0.14353 0.59308 0.0
C1279 C 0.42596 0.12982 0.57291 0.0
N1280 N 0.50861 0.09962 0.56528 0.0
N1281 N 0.35891 0.1539 0.64483 0.0
C1282 C 0.46568 0.10995 0.58411 0.0
C1283 C 0.39 0.13823 0.62473 0.0
N1284 N 0.49111 0.07937 0.62499 0.0
N1285 N 0.34334 0.16 0.58191 0.0
H1286 H 0.35416 0.14941 0.6678 0.0
H1287 H 0.34049 0.17239 0.63904 0.0
H1288 H 0.33834 0.16435 0.55896 0.0
H1289 H 0.30861 0.16768 0.59509 0.0
H1290 H 0.51306 0.06598 0.61063 0.0
H1291 H 0.49043 0.07328 0.64763 0.0
H1292 H 0.54238 0.08683 0.57252 0.0
H1293 H 0.51384 0.10587 0.54283 0.0
C1294 C 0.36112 0.60289 0.62009 0.0
C1295 C 0.31949 0.62199 0.63157 0.0
C1296 C 0.27237 0.62441 0.5814 0.0
C1297 C 0.31792 0.60765 0.56918 0.0
N1298 N 0.41255 0.58493 0.57634 0.0
N1299 N 0.23994 0.6534 0.62273 0.0
C1300 C 0.36364 0.59757 0.58841 0.0
C1301 C 0.27639 0.63351 0.61208 0.0
N1302 N 0.39959 0.59012 0.63934 0.0
N1303 N 0.2244 0.63102 0.56375 0.0
H1304 H 0.24072 0.65992 0.64526 0.0
H1305 H 0.21223 0.66477 0.60886 0.0
H1306 H 0.21941 0.624 0.54154 0.0
H1307 H 0.18699 0.64117 0.57188 0.0
H1308 H 0.42353 0.57302 0.63316 0.0
H1309 H 0.40578 0.5956 0.66196 0.0
H1310 H 0.45079 0.58046 0.5888 0.0
H1311 H 0.41818 0.58093 0.55334 0.0
C1312 C 0.33554 0.38079 0.26975 0.0
C1313 C 0.3093 0.37091 0.24259 0.0
C1314 C 0.40904 0.36478 0.21986 0.0
C1315 C 0.43532 0.37305 0.24776 0.0
N1316 N 0.42614 0.39354 0.29714 0.0
N1317 N 0.31903 0.35541 0.19099 0.0
C1318 C 0.39923 0.38253 0.27207 0.0
C1319 C 0.34559 0.36357 0.21737 0.0
N1320 N 0.29931 0.38756 0.29364 0.0
N1321 N 0.44487 0.3597 0.19523 0.0
H1322 H 0.27382 0.35822 0.18697 0.0
H1323 H 0.34089 0.34588 0.17313 0.0
H1324 H 0.49148 0.36054 0.19597 0.0
H1325 H 0.42937 0.35617 0.17334 0.0
H1326 H 0.31474 0.39234 0.31525 0.0
H1327 H 0.25259 0.3874 0.29225 0.0
H1328 H 0.40329 0.40348 0.31437 0.0
H1329 H 0.47251 0.39398 0.3002 0.0
C1330 C 0.82779 0.88314 0.26484 0.0
C1331 C 0.80214 0.8726 0.23786 0.0
C1332 C 0.90203 0.86582 0.21577 0.0
C1333 C 0.92784 0.87574 0.24314 0.0
N1334 N 0.91767 0.89659 0.29233 0.0
N1335 N 0.81237 0.85985 0.18535 0.0
C1336 C 0.89131 0.88535 0.26722 0.0
C1337 C 0.83864 0.86547 0.21267 0.0
N1338 N 0.79115 0.89036 0.28839 0.0
N1339 N 0.93823 0.85735 0.19253 0.0
H1340 H 0.76676 0.86218 0.1818 0.0
H1341 H 0.83523 0.85541 0.16541 0.0
H1342 H 0.98473 0.85919 0.19285 0.0
H1343 H 0.92311 0.84753 0.1731 0.0
H1344 H 0.80608 0.89562 0.30995 0.0
H1345 H 0.74452 0.89038 0.28672 0.0
H1346 H 0.89452 0.90658 0.30941 0.0
H1347 H 0.96392 0.89686 0.29582 0.0
C1348 C 0.33733 0.85996 0.93377 0.0
C1349 C 0.31227 0.8711 0.96053 0.0
C1350 C 0.41223 0.876 -0.01674 0.0
C1351 C 0.43763 0.86603 0.95584 0.0
N1352 N 0.42636 0.84532 0.90661 0.0
N1353 N 0.32286 0.88788 0.0116 0.0
C1354 C 0.40065 0.85694 0.9316 0.0
C1355 C 0.34896 0.87853 -0.01444 0.0
N1356 N 0.30046 0.85326 0.91006 0.0
N1357 N 0.4485 0.88157 0.00759 0.0
H1358 H 0.27698 0.88652 0.01541 0.0
H1359 H 0.34567 0.89694 0.02952 0.0
H1360 H 0.49491 0.87987 0.00694 0.0
H1361 H 0.43348 0.88677 0.02914 0.0
H1362 H 0.31529 0.84739 0.88869 0.0
H1363 H 0.25384 0.8545 0.91128 0.0
H1364 H 0.40257 0.83562 0.88945 0.0
H1365 H 0.47262 0.84442 0.9033 0.0
C1366 C 0.90075 0.38362 0.93759 0.0
C1367 C 0.92873 0.37131 0.96271 0.0
C1368 C 0.83118 0.36327 -0.01296 0.0
C1369 C 0.80282 0.37298 0.96044 0.0
N1370 N 0.80843 0.39231 0.91031 0.0
N1371 N 0.92334 0.35043 0.01198 0.0
C1372 C 0.83706 0.38339 0.93578 0.0
C1373 C 0.89468 0.36143 -0.01235 0.0
N1374 N 0.93541 0.39571 0.91573 0.0
N1375 N 0.79765 0.35742 0.0123 0.0
H1376 H 0.96958 0.35185 0.01489 0.0
H1377 H 0.90191 0.33935 0.02892 0.0
H1378 H 0.75112 0.359 0.01305 0.0
H1379 H 0.81568 0.35291 0.03341 0.0
H1380 H 0.91862 0.40711 0.89798 0.0
H1381 H 0.9822 0.39579 0.91628 0.0
H1382 H 0.83012 0.39848 0.89057 0.0
H1383 H 0.76189 0.39215 0.908 0.0
C1384 C 0.65131 0.61113 0.74915 0.0
C1385 C 0.6833 0.62211 0.72403 0.0
C1386 C 0.58874 0.6345 0.69953 0.0
C1387 C 0.55712 0.623 0.72435 0.0
N1388 N 0.55569 0.59717 0.77063 0.0
N1389 N 0.68462 0.64658 0.67677 0.0
C1390 C 0.58767 0.61029 0.7485 0.0
C1391 C 0.65258 0.63449 0.69959 0.0
N1392 N 0.6818 0.60329 0.77455 0.0
N1393 N 0.55727 0.64431 0.67537 0.0
H1394 H 0.73118 0.64604 0.67539 0.0
H1395 H 0.66604 0.65826 0.65975 0.0
H1396 H 0.5105 0.64434 0.67457 0.0
H1397 H 0.57651 0.65102 0.65522 0.0
H1398 H 0.66119 0.59786 0.79487 0.0
H1399 H 0.72835 0.60449 0.77649 0.0
H1400 H 0.57493 0.58466 0.78675 0.0
H1401 H 0.50898 0.59721 0.77178 0.0
C1402 C 0.08483 0.10524 0.70154 0.0
C1403 C 0.0554 0.11673 0.72698 0.0
C1404 C 0.15224 0.12685 0.75084 0.0
C1405 C 0.18139 0.11372 0.72639 0.0
N1406 N 0.17694 0.08752 0.68031 0.0
N1407 N 0.05944 0.13432 0.77811 0.0
C1408 C 0.14807 0.10195 0.70231 0.0
C1409 C 0.08867 0.12644 0.75227 0.0
N1410 N 0.05272 0.09871 0.67612 0.0
N1411 N 0.18534 0.14 0.77252 0.0
H1412 H 0.01285 0.13448 0.78006 0.0
H1413 H 0.08106 0.13857 0.79851 0.0
H1414 H 0.23211 0.13993 0.77291 0.0
H1415 H 0.1668 0.15261 0.78888 0.0
H1416 H 0.07224 0.09306 0.65562 0.0
H1417 H 0.00639 0.10093 0.6747 0.0
H1418 H 0.15477 0.07583 0.66412 0.0
H1419 H 0.22352 0.08582 0.67934 0.0
C1420 C 0.59055 0.11016 0.95514 0.0
C1421 C 0.5583 0.11993 -0.01931 0.0
C1422 C 0.65251 0.13294 0.00583 0.0
C1423 C 0.68451 0.12203 -0.01918 0.0
N1424 N 0.68611 0.09861 0.9327 0.0
N1425 N 0.55607 0.13962 0.03074 0.0
C1426 C 0.65409 0.11014 0.95581 0.0
C1427 C 0.58861 0.13126 0.00612 0.0
N1428 N 0.56044 0.10224 0.92951 0.0
N1429 N 0.68366 0.14428 0.02945 0.0
H1430 H 0.50954 0.13767 0.03212 0.0
H1431 H 0.5743 0.14767 0.05049 0.0
H1432 H 0.7304 0.1446 0.03051 0.0
H1433 H 0.66426 0.15383 0.04798 0.0
H1434 H 0.58103 0.09856 0.90872 0.0
H1435 H 0.5139 0.10108 0.92804 0.0
H1436 H 0.66726 0.08617 0.91616 0.0
H1437 H 0.73256 0.10025 0.9307 0.0
C1438 C 0.15368 0.63658 0.95427 0.0
C1439 C 0.18573 0.62442 -0.02163 0.0
C1440 C 0.09139 0.61324 0.00414 0.0
C1441 C 0.0596 0.62593 -0.0197 0.0
N1442 N 0.06087 0.65615 0.9374 0.0
N1443 N 0.18686 0.60633 0.02911 0.0
C1444 C 0.09085 0.63976 0.95693 0.0
C1445 C 0.1551 0.61415 0.00417 0.0
N1446 N 0.18268 0.64389 0.9281 0.0
N1447 N 0.06044 0.60024 0.0267 0.0
H1448 H 0.23358 0.60717 0.03014 0.0
H1449 H 0.16715 0.60113 0.04975 0.0
H1450 H 0.01397 0.6015 0.02915 0.0
H1451 H 0.08036 0.58747 0.04235 0.0
H1452 H 0.16041 0.6494 0.90835 0.0
H1453 H 0.22881 0.64228 0.92501 0.0
H1454 H 0.08229 0.6687 0.92177 0.0
H1455 H 0.01514 0.65965 0.93902 0.0
C1456 C 0.39085 0.87747 0.71441 0.0
C1457 C 0.42668 0.87086 0.73986 0.0
C1458 C 0.33631 0.86041 0.76956 0.0
C1459 C 0.30054 0.87002 0.74531 0.0
N1460 N 0.29277 0.88792 0.69441 0.0
N1461 N 0.43548 0.85677 0.79185 0.0
C1462 C 0.32755 0.8788 0.71771 0.0
C1463 C 0.39993 0.8623 0.76742 0.0
N1464 N 0.41724 0.88084 0.68663 0.0
N1465 N 0.30936 0.84929 0.79456 0.0
H1466 H 0.48225 0.85716 0.79081 0.0
H1467 H 0.41915 0.8533 0.81364 0.0
H1468 H 0.26305 0.84915 0.79797 0.0
H1469 H 0.33236 0.83884 0.81125 0.0
H1470 H 0.39389 0.88337 0.66644 0.0
H1471 H 0.46288 0.87822 0.68317 0.0
H1472 H 0.30979 0.8979 0.67546 0.0
H1473 H 0.24616 0.88676 0.69438 0.0
C1474 C 0.84135 0.36082 0.71274 0.0
C1475 C 0.80346 0.36965 0.73657 0.0
C1476 C 0.8906 0.3824 0.76725 0.0
C1477 C 0.92876 0.37414 0.7432 0.0
N1478 N 0.94068 0.36126 0.69052 0.0
N1479 N 0.78993 0.39406 0.78331 0.0
C1480 C 0.90428 0.36482 0.71523 0.0
C1481 C 0.82749 0.38211 0.76284 0.0
N1482 N 0.81711 0.34854 0.68773 0.0
N1483 N 0.91458 0.38937 0.79474 0.0
H1484 H 0.74336 0.39383 0.78097 0.0
H1485 H 0.80487 0.4061 0.8012 0.0
H1486 H 0.96059 0.38955 0.79899 0.0
H1487 H 0.88895 0.39285 0.81411 0.0
H1488 H 0.84231 0.33826 0.67158 0.0
H1489 H 0.7711 0.3476 0.68373 0.0
H1490 H 0.92484 0.35754 0.66869 0.0
H1491 H 0.98688 0.36429 0.69108 0.0
C1492 C 0.34078 0.35402 0.43677 0.0
C1493 C 0.31237 0.36526 0.46255 0.0
C1494 C 0.40976 0.37473 0.48626 0.0
C1495 C 0.43836 0.36598 0.45918 0.0
N1496 N 0.43392 0.34506 0.40976 0.0
N1497 N 0.31709 0.38511 0.51241 0.0
C1498 C 0.40458 0.35475 0.43479 0.0
C1499 C 0.34617 0.37509 0.48756 0.0
N1500 N 0.30619 0.34307 0.41415 0.0
N1501 N 0.44338 0.38121 0.51125 0.0
H1502 H 0.27113 0.3827 0.51552 0.0
H1503 H 0.33772 0.39627 0.52955 0.0
H1504 H 0.49007 0.38113 0.51136 0.0
H1505 H 0.42561 0.3849 0.53269 0.0
H1506 H 0.32258 0.33482 0.39414 0.0
H1507 H 0.25953 0.34168 0.4156 0.0
H1508 H 0.41327 0.3359 0.39128 0.0
H1509 H 0.48035 0.3463 0.40707 0.0
C1510 C 0.90835 0.88437 0.43754 0.0
C1511 C 0.93287 0.87249 0.46384 0.0
C1512 C 0.83258 0.86705 0.48582 0.0
C1513 C 0.80756 0.8761 0.458 0.0
N1514 N 0.8205 0.89054 0.40615 0.0
N1515 N 0.92037 0.85192 0.51297 0.0
C1516 C 0.84516 0.8842 0.43358 0.0
C1517 C 0.89554 0.86363 0.48797 0.0
N1518 N 0.94553 0.89618 0.41662 0.0
N1519 N 0.79666 0.86312 0.51067 0.0
H1520 H 0.96645 0.85162 0.51679 0.0
H1521 H 0.89564 0.84153 0.52934 0.0
H1522 H 0.7504 0.86547 0.51029 0.0
H1523 H 0.81283 0.85963 0.53243 0.0
H1524 H 0.93028 0.90783 0.39866 0.0
H1525 H 0.99217 0.89623 0.4186 0.0
H1526 H 0.84565 0.89385 0.38655 0.0
H1527 H 0.77439 0.89029 0.4022 0.0
C1528 C 0.58957 0.12871 0.25263 0.0
C1529 C 0.55758 0.11944 0.22675 0.0
C1530 C 0.65135 0.10518 0.20283 0.0
C1531 C 0.68356 0.11685 0.22741 0.0
N1532 N 0.68508 0.14176 0.27456 0.0
N1533 N 0.55675 0.10141 0.17591 0.0
C1534 C 0.65316 0.12927 0.25197 0.0
C1535 C 0.58802 0.10811 0.20156 0.0
N1536 N 0.559 0.13597 0.27832 0.0
N1537 N 0.68138 0.09134 0.18073 0.0
H1538 H 0.51031 0.10316 0.17423 0.0
H1539 H 0.5769 0.09588 0.15553 0.0
H1540 H 0.72804 0.09018 0.17987 0.0
H1541 H 0.66015 0.07967 0.16421 0.0
H1542 H 0.57955 0.13993 0.29907 0.0
H1543 H 0.51232 0.1358 0.27976 0.0
H1544 H 0.66572 0.15406 0.29098 0.0
H1545 H 0.73174 0.1413 0.27594 0.0
C1546 C 0.0876 0.63343 0.2482 0.0
C1547 C 0.05605 0.62347 0.22247 0.0
C1548 C 0.15082 0.61165 0.19778 0.0
C1549 C 0.18228 0.62307 0.22272 0.0
N1550 N 0.18221 0.6484 0.26961 0.0
N1551 N 0.05635 0.6071 0.17091 0.0
C1552 C 0.15112 0.63527 0.24719 0.0
C1553 C 0.0873 0.6136 0.19672 0.0
N1554 N 0.0571 0.6395 0.27431 0.0
N1555 N 0.18174 0.59881 0.17522 0.0
H1556 H 0.00984 0.60862 0.16922 0.0
H1557 H 0.07677 0.60232 0.15036 0.0
H1558 H 0.22849 0.59857 0.17413 0.0
H1559 H 0.16132 0.58719 0.1584 0.0
H1560 H 0.07797 0.64399 0.29484 0.0
H1561 H 0.01065 0.63769 0.27643 0.0
H1562 H 0.1619 0.66048 0.28595 0.0
H1563 H 0.2289 0.64887 0.27077 0.0
C1564 C 0.65624 0.63383 0.45342 0.0
C1565 C 0.68756 0.62311 0.47861 0.0
C1566 C 0.59234 0.61108 0.50334 0.0
C1567 C 0.56118 0.6227 0.47858 0.0
N1568 N 0.56254 0.64876 0.43236 0.0
N1569 N 0.68739 0.60449 0.52909 0.0
C1570 C 0.59289 0.63528 0.45442 0.0
C1571 C 0.65616 0.61237 0.50398 0.0
N1572 N 0.68676 0.64133 0.42773 0.0
N1573 N 0.56062 0.59906 0.52634 0.0
H1574 H 0.73402 0.60566 0.53055 0.0
H1575 H 0.6676 0.59845 0.54938 0.0
H1576 H 0.51405 0.60009 0.52814 0.0
H1577 H 0.57974 0.58738 0.54324 0.0
H1578 H 0.66609 0.6454 0.40711 0.0
H1579 H 0.7333 0.64156 0.42595 0.0
H1580 H 0.58305 0.66137 0.4165 0.0
H1581 H 0.51615 0.64904 0.43118 0.0
C1582 C 0.08905 0.11211 0.45478 0.0
C1583 C 0.05614 0.12229 0.47991 0.0
C1584 C 0.14963 0.13538 0.50561 0.0
C1585 C 0.18221 0.12422 0.48097 0.0
N1586 N 0.18519 0.10006 0.43334 0.0
N1587 N 0.05266 0.14205 0.52992 0.0
C1588 C 0.15253 0.11201 0.45594 0.0
C1589 C 0.08577 0.1337 0.50549 0.0
N1590 N 0.05964 0.10375 0.42912 0.0
N1591 N 0.18016 0.14702 0.52926 0.0
H1592 H 0.00607 0.1402 0.53097 0.0
H1593 H 0.07052 0.1498 0.5499 0.0
H1594 H 0.22686 0.14731 0.53066 0.0
H1595 H 0.16022 0.157 0.54735 0.0
H1596 H 0.08078 0.09979 0.40853 0.0
H1597 H 0.01317 0.10241 0.42742 0.0
H1598 H 0.16675 0.08746 0.41683 0.0
H1599 H 0.23174 0.10149 0.43178 0.0
loop_
_geom_bond_atom_site_label_1
_geom_bond_atom_site_label_2
_geom_bond_distance
_geom_bond_site_symmetry_2
_ccdc_geom_bond_type
C0 O1 1.306 . S
C0 O3 1.160 . S
O1 C0 1.306 . S
O1 Cd2 2.228 . S
Cd2 O1 2.228 . S
Cd2 O6 2.273 . S
Cd2 O10 2.277 . S
O3 C0 1.160 . S
O3 Cd4 2.203 . S
Cd4 O3 2.203 . S
Cd4 O6 2.411 . S
Cd4 O7 2.333 . S
Cd4 O8 2.352 . S
Cd4 O12 2.277 . S
Cd4 O13 2.356 . S
C5 O10 1.209 . S
C5 O12 1.226 . S
O6 Cd2 2.273 . S
O6 Cd4 2.411 . S
O6 C9 1.320 . S
O7 Cd4 2.333 . S
O7 C9 1.214 . S
O8 Cd4 2.352 . S
O8 C11 1.258 . S
C9 O6 1.320 . S
C9 O7 1.214 . S
O10 Cd2 2.277 . S
O10 C5 1.209 . S
C11 O8 1.258 . S
C11 O13 1.282 . S
O12 Cd4 2.277 . S
O12 C5 1.226 . S
O13 Cd4 2.356 . S
O13 C11 1.282 . S
C14 O15 1.306 . S
C14 O17 1.160 . S
O15 C14 1.306 . S
O15 Cd16 2.228 . S
Cd16 O15 2.228 . S
Cd16 O20 2.273 . S
Cd16 O24 2.277 . S
O17 C14 1.160 . S
O17 Cd18 2.203 . S
Cd18 O17 2.203 . S
Cd18 O20 2.411 . S
Cd18 O21 2.333 . S
Cd18 O22 2.352 . S
Cd18 O26 2.277 . S
Cd18 O27 2.356 . S
C19 O24 1.209 . S
C19 O26 1.226 . S
O20 Cd16 2.273 . S
O20 Cd18 2.411 . S
O20 C23 1.328 . S
O21 Cd18 2.333 . S
O21 C23 1.225 . S
O22 Cd18 2.352 . S
O22 C25 1.258 . S
C23 O20 1.328 . S
C23 O21 1.225 . S
O24 Cd16 2.277 . S
O24 C19 1.209 . S
C25 O22 1.258 . S
C25 O27 1.282 . S
O26 Cd18 2.277 . S
O26 C19 1.226 . S
O27 Cd18 2.356 . S
O27 C25 1.282 . S
C28 O29 1.306 . S
C28 O31 1.160 1_554 S
O29 C28 1.306 . S
O29 Cd30 2.228 . S
Cd30 O29 2.228 . S
Cd30 O34 2.273 . S
Cd30 O38 2.277 . S
O31 C28 1.160 1_556 S
O31 Cd32 2.203 . S
Cd32 O31 2.203 . S
Cd32 O34 2.411 1_556 S
Cd32 O35 2.333 . S
Cd32 O36 2.352 . S
Cd32 O40 2.277 1_556 S
Cd32 O41 2.356 . S
C33 O38 1.209 . S
C33 O40 1.226 . S
O34 Cd30 2.273 . S
O34 Cd32 2.411 1_554 S
O34 C37 1.321 . S
O35 Cd32 2.333 . S
O35 C37 1.212 1_556 S
O36 Cd32 2.352 . S
O36 C39 1.258 . S
C37 O34 1.321 . S
C37 O35 1.212 1_554 S
O38 Cd30 2.277 . S
O38 C33 1.209 . S
C39 O36 1.258 . S
C39 O41 1.282 . S
O40 Cd32 2.277 1_554 S
O40 C33 1.226 . S
O41 Cd32 2.356 . S
O41 C39 1.282 . S
C42 O43 1.306 . S
C42 O45 1.160 1_554 S
O43 C42 1.306 . S
O43 Cd44 2.228 . S
Cd44 O43 2.228 . S
Cd44 O48 2.273 . S
Cd44 O52 2.277 . S
O45 C42 1.160 1_556 S
O45 Cd46 2.203 . S
Cd46 O45 2.203 . S
Cd46 O48 2.411 1_556 S
Cd46 O49 2.333 . S
Cd46 O50 2.352 . S
Cd46 O54 2.277 1_556 S
Cd46 O55 2.356 . S
C47 O52 1.209 . S
C47 O54 1.226 . S
O48 Cd44 2.273 . S
O48 Cd46 2.411 1_554 S
O48 C51 1.320 1_455 S
O49 Cd46 2.333 . S
O49 C51 1.211 1_456 S
O50 Cd46 2.352 . S
O50 C53 1.258 . S
C51 O48 1.320 1_655 S
C51 O49 1.211 1_654 S
O52 Cd44 2.277 . S
O52 C47 1.209 . S
C53 O50 1.258 . S
C53 O55 1.282 . S
O54 Cd46 2.277 1_554 S
O54 C47 1.226 . S
O55 Cd46 2.356 . S
O55 C53 1.282 . S
C56 O57 1.306 . S
C56 O59 1.160 . S
O57 C56 1.306 . S
O57 Cd58 2.228 . S
Cd58 O57 2.228 . S
Cd58 O62 2.273 . S
Cd58 O66 2.277 . S
O59 C56 1.160 . S
O59 Cd60 2.203 . S
Cd60 O59 2.203 . S
Cd60 O62 2.411 . S
Cd60 O63 2.333 . S
Cd60 O64 2.352 . S
Cd60 O68 2.277 . S
Cd60 O69 2.356 . S
C61 O66 1.209 . S
C61 O68 1.226 . S
O62 Cd58 2.273 . S
O62 Cd60 2.411 . S
O62 C65 1.320 . S
O63 Cd60 2.333 . S
O63 C65 1.214 . S
O64 Cd60 2.352 . S
O64 C67 1.258 . S
C65 O62 1.320 . S
C65 O63 1.214 . S
O66 Cd58 2.277 . S
O66 C61 1.209 . S
C67 O64 1.258 . S
C67 O69 1.282 . S
O68 Cd60 2.277 . S
O68 C61 1.226 . S
O69 Cd60 2.356 . S
O69 C67 1.282 . S
C70 O71 1.306 . S
C70 O73 1.160 . S
O71 C70 1.306 . S
O71 Cd72 2.228 . S
Cd72 O71 2.228 . S
Cd72 O76 2.273 . S
Cd72 O80 2.277 . S
O73 C70 1.160 . S
O73 Cd74 2.203 . S
Cd74 O73 2.203 . S
Cd74 O76 2.411 . S
Cd74 O77 2.333 . S
Cd74 O78 2.352 . S
Cd74 O82 2.277 . S
Cd74 O83 2.356 . S
C75 O80 1.209 . S
C75 O82 1.226 . S
O76 Cd72 2.273 . S
O76 Cd74 2.411 . S
O76 C79 1.320 . S
O77 Cd74 2.333 . S
O77 C79 1.214 . S
O78 Cd74 2.352 . S
O78 C81 1.258 . S
C79 O76 1.320 . S
C79 O77 1.214 . S
O80 Cd72 2.277 . S
O80 C75 1.209 . S
C81 O78 1.258 . S
C81 O83 1.282 . S
O82 Cd74 2.277 . S
O82 C75 1.226 . S
O83 Cd74 2.356 . S
O83 C81 1.282 . S
C84 O85 1.306 . S
C84 O87 1.160 . S
O85 C84 1.306 . S
O85 Cd86 2.228 1_554 S
Cd86 O85 2.228 1_556 S
Cd86 O90 2.273 . S
Cd86 O94 2.277 . S
O87 C84 1.160 . S
O87 Cd88 2.186 1_554 S
Cd88 O87 2.186 1_556 S
Cd88 O90 2.421 . S
Cd88 O91 2.351 . S
Cd88 O92 2.350 1_556 S
Cd88 O96 2.275 1_556 S
Cd88 O97 2.357 . S
C89 O94 1.209 1_554 S
C89 O96 1.226 . S
O90 Cd86 2.273 . S
O90 Cd88 2.421 . S
O90 C93 1.320 . S
O91 Cd88 2.351 . S
O91 C93 1.214 . S
O92 Cd88 2.350 1_554 S
O92 C95 1.258 . S
C93 O90 1.320 . S
C93 O91 1.214 . S
O94 Cd86 2.277 . S
O94 C89 1.209 1_556 S
C95 O92 1.258 . S
C95 O97 1.282 1_554 S
O96 Cd88 2.275 1_554 S
O96 C89 1.226 . S
O97 Cd88 2.357 . S
O97 C95 1.282 1_556 S
C98 O99 1.306 . S
C98 O101 1.160 . S
O99 C98 1.306 . S
O99 Cd100 2.228 1_554 S
Cd100 O99 2.228 1_556 S
Cd100 O104 2.273 . S
Cd100 O108 2.277 . S
O101 C98 1.160 . S
O101 Cd102 2.186 1_554 S
Cd102 O101 2.186 1_556 S
Cd102 O104 2.421 . S
Cd102 O105 2.351 . S
Cd102 O106 2.350 1_556 S
Cd102 O110 2.275 1_556 S
Cd102 O111 2.357 . S
C103 O108 1.209 1_554 S
C103 O110 1.226 . S
O104 Cd100 2.273 . S
O104 Cd102 2.421 . S
O104 C107 1.320 . S
O105 Cd102 2.351 . S
O105 C107 1.214 . S
O106 Cd102 2.350 1_554 S
O106 C109 1.258 . S
C107 O104 1.320 . S
C107 O105 1.214 . S
O108 Cd100 2.277 . S
O108 C103 1.209 1_556 S
C109 O106 1.258 . S
C109 O111 1.282 1_554 S
O110 Cd102 2.275 1_554 S
O110 C103 1.226 . S
O111 Cd102 2.357 . S
O111 C109 1.282 1_556 S
C112 O113 1.306 . S
C112 O115 1.160 . S
O113 C112 1.306 . S
O113 Cd114 2.228 . S
Cd114 O113 2.228 . S
Cd114 O118 2.273 . S
Cd114 O122 2.277 . S
O115 C112 1.160 . S
O115 Cd116 2.203 . S
Cd116 O115 2.203 . S
Cd116 O118 2.411 . S
Cd116 O119 2.333 . S
Cd116 O120 2.352 . S
Cd116 O124 2.277 . S
Cd116 O125 2.356 . S
C117 O122 1.209 . S
C117 O124 1.226 . S
O118 Cd114 2.273 . S
O118 Cd116 2.411 . S
O118 C121 1.320 . S
O119 Cd116 2.333 . S
O119 C121 1.214 . S
O120 Cd116 2.352 . S
O120 C123 1.258 . S
C121 O118 1.320 . S
C121 O119 1.214 . S
O122 Cd114 2.277 . S
O122 C117 1.209 . S
C123 O120 1.258 . S
C123 O125 1.282 . S
O124 Cd116 2.277 . S
O124 C117 1.226 . S
O125 Cd116 2.356 . S
O125 C123 1.282 . S
C126 O127 1.306 . S
C126 O129 1.160 . S
O127 C126 1.306 . S
O127 Cd128 2.228 . S
Cd128 O127 2.228 . S
Cd128 O132 2.273 . S
Cd128 O136 2.277 . S
O129 C126 1.160 . S
O129 Cd130 2.203 . S
Cd130 O129 2.203 . S
Cd130 O132 2.411 . S
Cd130 O133 2.333 . S
Cd130 O134 2.352 . S
Cd130 O138 2.277 . S
Cd130 O139 2.356 . S
C131 O136 1.209 . S
C131 O138 1.226 . S
O132 Cd128 2.273 . S
O132 Cd130 2.411 . S
O132 C135 1.327 . S
O133 Cd130 2.333 . S
O133 C135 1.223 . S
O134 Cd130 2.352 . S
O134 C137 1.258 . S
C135 O132 1.327 . S
C135 O133 1.223 . S
O136 Cd128 2.277 . S
O136 C131 1.209 . S
C137 O134 1.258 . S
C137 O139 1.282 . S
O138 Cd130 2.277 . S
O138 C131 1.226 . S
O139 Cd130 2.356 . S
O139 C137 1.282 . S
C140 O141 1.306 . S
C140 O143 1.160 . S
O141 C140 1.306 . S
O141 Cd142 2.228 . S
Cd142 O141 2.228 . S
Cd142 O146 2.273 . S
Cd142 O150 2.277 . S
O143 C140 1.160 . S
O143 Cd144 2.203 . S
Cd144 O143 2.203 . S
Cd144 O146 2.411 . S
Cd144 O147 2.333 . S
Cd144 O148 2.352 . S
Cd144 O152 2.277 . S
Cd144 O153 2.356 . S
C145 O150 1.209 . S
C145 O152 1.226 . S
O146 Cd142 2.273 . S
O146 Cd144 2.411 . S
O146 C149 1.320 . S
O147 Cd144 2.333 . S
O147 C149 1.214 . S
O148 Cd144 2.352 . S
O148 C151 1.258 . S
C149 O146 1.320 . S
C149 O147 1.214 . S
O150 Cd142 2.277 . S
O150 C145 1.209 . S
C151 O148 1.258 . S
C151 O153 1.282 . S
O152 Cd144 2.277 . S
O152 C145 1.226 . S
O153 Cd144 2.356 . S
O153 C151 1.282 . S
C154 O155 1.306 . S
C154 O157 1.160 . S
O155 C154 1.306 . S
O155 Cd156 2.228 . S
Cd156 O155 2.228 . S
Cd156 O160 2.273 . S
Cd156 O164 2.277 . S
O157 C154 1.160 . S
O157 Cd158 2.203 . S
Cd158 O157 2.203 . S
Cd158 O160 2.411 . S
Cd158 O161 2.333 . S
Cd158 O162 2.352 . S
Cd158 O166 2.277 . S
Cd158 O167 2.356 . S
C159 O164 1.209 . S
C159 O166 1.226 . S
O160 Cd156 2.273 . S
O160 Cd158 2.411 . S
O160 C163 1.320 1_455 S
O161 Cd158 2.333 . S
O161 C163 1.214 1_455 S
O162 Cd158 2.352 . S
O162 C165 1.258 . S
C163 O160 1.320 1_655 S
C163 O161 1.214 1_655 S
O164 Cd156 2.277 . S
O164 C159 1.209 . S
C165 O162 1.258 . S
C165 O167 1.282 . S
O166 Cd158 2.277 . S
O166 C159 1.226 . S
O167 Cd158 2.356 . S
O167 C165 1.282 . S
C168 O169 1.306 . S
C168 O171 1.160 . S
O169 C168 1.306 . S
O169 Cd170 2.228 . S
Cd170 O169 2.228 . S
Cd170 O174 2.273 . S
Cd170 O178 2.277 . S
O171 C168 1.160 . S
O171 Cd172 2.203 . S
Cd172 O171 2.203 . S
Cd172 O174 2.411 . S
Cd172 O175 2.333 . S
Cd172 O176 2.352 . S
Cd172 O180 2.277 . S
Cd172 O181 2.356 . S
C173 O178 1.209 . S
C173 O180 1.226 . S
O174 Cd170 2.273 . S
O174 Cd172 2.411 . S
O174 C177 1.320 . S
O175 Cd172 2.333 . S
O175 C177 1.214 . S
O176 Cd172 2.352 . S
O176 C179 1.258 . S
C177 O174 1.320 . S
C177 O175 1.214 . S
O178 Cd170 2.277 . S
O178 C173 1.209 . S
C179 O176 1.258 . S
C179 O181 1.282 . S
O180 Cd172 2.277 . S
O180 C173 1.226 . S
O181 Cd172 2.356 . S
O181 C179 1.282 . S
C182 O183 1.306 . S
C182 O185 1.160 . S
O183 C182 1.306 . S
O183 Cd184 2.228 . S
Cd184 O183 2.228 . S
Cd184 O188 2.273 . S
Cd184 O192 2.277 . S
O185 C182 1.160 . S
O185 Cd186 2.203 . S
Cd186 O185 2.203 . S
Cd186 O188 2.411 . S
Cd186 O189 2.333 . S
Cd186 O190 2.352 . S
Cd186 O194 2.277 . S
Cd186 O195 2.356 . S
C187 O192 1.209 . S
C187 O194 1.226 . S
O188 Cd184 2.273 . S
O188 Cd186 2.411 . S
O188 C191 1.320 . S
O189 Cd186 2.333 . S
O189 C191 1.214 . S
O190 Cd186 2.352 . S
O190 C193 1.258 . S
C191 O188 1.320 . S
C191 O189 1.214 . S
O192 Cd184 2.277 . S
O192 C187 1.209 . S
C193 O190 1.258 . S
C193 O195 1.282 . S
O194 Cd186 2.277 . S
O194 C187 1.226 . S
O195 Cd186 2.356 . S
O195 C193 1.282 . S
C196 O197 1.306 . S
C196 O199 1.160 . S
O197 C196 1.306 . S
O197 Cd198 2.228 . S
Cd198 O197 2.228 . S
Cd198 O202 2.273 . S
Cd198 O206 2.277 . S
O199 C196 1.160 . S
O199 Cd200 2.203 . S
Cd200 O199 2.203 . S
Cd200 O202 2.411 . S
Cd200 O203 2.333 . S
Cd200 O204 2.352 . S
Cd200 O208 2.277 . S
Cd200 O209 2.356 . S
C201 O206 1.209 . S
C201 O208 1.226 . S
O202 Cd198 2.273 . S
O202 Cd200 2.411 . S
O202 C205 1.320 . S
O203 Cd200 2.333 . S
O203 C205 1.214 . S
O204 Cd200 2.352 . S
O204 C207 1.258 . S
C205 O202 1.320 . S
C205 O203 1.214 . S
O206 Cd198 2.277 . S
O206 C201 1.209 . S
C207 O204 1.258 . S
C207 O209 1.282 . S
O208 Cd200 2.277 . S
O208 C201 1.226 . S
O209 Cd200 2.356 . S
O209 C207 1.282 . S
C210 O211 1.306 . S
C210 O213 1.160 . S
O211 C210 1.306 . S
O211 Cd212 2.228 . S
Cd212 O211 2.228 . S
Cd212 O216 2.273 . S
Cd212 O220 2.277 . S
O213 C210 1.160 . S
O213 Cd214 2.203 . S
Cd214 O213 2.203 . S
Cd214 O216 2.411 . S
Cd214 O217 2.333 . S
Cd214 O218 2.352 . S
Cd214 O222 2.277 . S
Cd214 O223 2.356 . S
C215 O220 1.209 . S
C215 O222 1.226 . S
O216 Cd212 2.273 . S
O216 Cd214 2.411 . S
O216 C219 1.320 . S
O217 Cd214 2.333 . S
O217 C219 1.214 . S
O218 Cd214 2.352 . S
O218 C221 1.258 . S
C219 O216 1.320 . S
C219 O217 1.214 . S
O220 Cd212 2.277 . S
O220 C215 1.209 . S
C221 O218 1.258 . S
C221 O223 1.282 . S
O222 Cd214 2.277 . S
O222 C215 1.226 . S
O223 Cd214 2.356 . S
O223 C221 1.282 . S
C224 O225 1.306 . S
C224 O227 1.160 . S
O225 C224 1.306 . S
O225 Cd226 2.228 . S
Cd226 O225 2.228 . S
Cd226 O230 2.273 . S
Cd226 O234 2.277 . S
O227 C224 1.160 . S
O227 Cd228 2.203 . S
Cd228 O227 2.203 . S
Cd228 O230 2.411 . S
Cd228 O231 2.333 . S
Cd228 O232 2.352 . S
Cd228 O236 2.277 . S
Cd228 O237 2.356 . S
C229 O234 1.209 . S
C229 O236 1.226 . S
O230 Cd226 2.273 . S
O230 Cd228 2.411 . S
O230 C233 1.320 . S
O231 Cd228 2.333 . S
O231 C233 1.214 . S
O232 Cd228 2.352 . S
O232 C235 1.258 . S
C233 O230 1.320 . S
C233 O231 1.214 . S
O234 Cd226 2.277 . S
O234 C229 1.209 . S
C235 O232 1.258 . S
C235 O237 1.282 . S
O236 Cd228 2.277 . S
O236 C229 1.226 . S
O237 Cd228 2.356 . S
O237 C235 1.282 . S
C238 O239 1.306 . S
C238 O241 1.160 . S
O239 C238 1.306 . S
O239 Cd240 2.228 . S
Cd240 O239 2.228 . S
Cd240 O244 2.273 . S
Cd240 O248 2.277 . S
O241 C238 1.160 . S
O241 Cd242 2.203 . S
Cd242 O241 2.203 . S
Cd242 O244 2.411 . S
Cd242 O245 2.333 . S
Cd242 O246 2.352 . S
Cd242 O250 2.277 . S
Cd242 O251 2.356 . S
C243 O248 1.209 . S
C243 O250 1.226 . S
O244 Cd240 2.273 . S
O244 Cd242 2.411 . S
O244 C247 1.320 . S
O245 Cd242 2.333 . S
O245 C247 1.214 . S
O246 Cd242 2.352 . S
O246 C249 1.258 . S
C247 O244 1.320 . S
C247 O245 1.214 . S
O248 Cd240 2.277 . S
O248 C243 1.209 . S
C249 O246 1.258 . S
C249 O251 1.282 . S
O250 Cd242 2.277 . S
O250 C243 1.226 . S
O251 Cd242 2.356 . S
O251 C249 1.282 . S
C252 O253 1.306 . S
C252 O255 1.160 . S
O253 C252 1.306 . S
O253 Cd254 2.228 . S
Cd254 O253 2.228 . S
Cd254 O258 2.273 . S
Cd254 O262 2.277 . S
O255 C252 1.160 . S
O255 Cd256 2.203 . S
Cd256 O255 2.203 . S
Cd256 O258 2.411 . S
Cd256 O259 2.333 . S
Cd256 O260 2.352 . S
Cd256 O264 2.277 . S
Cd256 O265 2.356 . S
C257 O262 1.209 . S
C257 O264 1.226 . S
O258 Cd254 2.273 . S
O258 Cd256 2.411 . S
O258 C261 1.320 . S
O259 Cd256 2.333 . S
O259 C261 1.214 . S
O260 Cd256 2.352 . S
O260 C263 1.258 . S
C261 O258 1.320 . S
C261 O259 1.214 . S
O262 Cd254 2.277 . S
O262 C257 1.209 . S
C263 O260 1.258 . S
C263 O265 1.282 . S
O264 Cd256 2.277 . S
O264 C257 1.226 . S
O265 Cd256 2.356 . S
O265 C263 1.282 . S
C266 O267 1.306 . S
C266 O269 1.160 . S
O267 C266 1.306 . S
O267 Cd268 2.228 . S
Cd268 O267 2.228 . S
Cd268 O272 2.273 . S
Cd268 O276 2.277 . S
O269 C266 1.160 . S
O269 Cd270 2.203 . S
Cd270 O269 2.203 . S
Cd270 O272 2.411 . S
Cd270 O273 2.333 . S
Cd270 O274 2.352 . S
Cd270 O278 2.277 . S
Cd270 O279 2.356 . S
C271 O276 1.209 . S
C271 O278 1.226 . S
O272 Cd268 2.273 . S
O272 Cd270 2.411 . S
O272 C275 1.320 . S
O273 Cd270 2.333 . S
O273 C275 1.214 . S
O274 Cd270 2.352 . S
O274 C277 1.258 . S
C275 O272 1.320 . S
C275 O273 1.214 . S
O276 Cd268 2.277 . S
O276 C271 1.209 . S
C277 O274 1.258 . S
C277 O279 1.282 . S
O278 Cd270 2.277 . S
O278 C271 1.226 . S
O279 Cd270 2.356 . S
O279 C277 1.282 . S
C280 O281 1.306 . S
C280 O283 1.160 . S
O281 C280 1.306 . S
O281 Cd282 2.228 . S
Cd282 O281 2.228 . S
Cd282 O286 2.273 . S
Cd282 O290 2.277 . S
O283 C280 1.160 . S
O283 Cd284 2.203 . S
Cd284 O283 2.203 . S
Cd284 O286 2.411 . S
Cd284 O287 2.333 . S
Cd284 O288 2.352 . S
Cd284 O292 2.277 . S
Cd284 O293 2.356 . S
C285 O290 1.209 . S
C285 O292 1.226 . S
O286 Cd282 2.273 . S
O286 Cd284 2.411 . S
O286 C289 1.320 . S
O287 Cd284 2.333 . S
O287 C289 1.214 . S
O288 Cd284 2.352 . S
O288 C291 1.258 . S
C289 O286 1.320 . S
C289 O287 1.214 . S
O290 Cd282 2.277 . S
O290 C285 1.209 . S
C291 O288 1.258 . S
C291 O293 1.282 . S
O292 Cd284 2.277 . S
O292 C285 1.226 . S
O293 Cd284 2.356 . S
O293 C291 1.282 . S
C294 O295 1.306 . S
C294 O297 1.160 . S
O295 C294 1.306 . S
O295 Cd296 2.228 . S
Cd296 O295 2.228 . S
Cd296 O300 2.273 . S
Cd296 O304 2.277 . S
O297 C294 1.160 . S
O297 Cd298 2.203 . S
Cd298 O297 2.203 . S
Cd298 O300 2.411 . S
Cd298 O301 2.333 . S
Cd298 O302 2.352 . S
Cd298 O306 2.277 . S
Cd298 O307 2.356 . S
C299 O304 1.209 . S
C299 O306 1.226 . S
O300 Cd296 2.273 . S
O300 Cd298 2.411 . S
O300 C303 1.320 . S
O301 Cd298 2.333 . S
O301 C303 1.214 . S
O302 Cd298 2.352 . S
O302 C305 1.258 . S
C303 O300 1.320 . S
C303 O301 1.214 . S
O304 Cd296 2.277 . S
O304 C299 1.209 . S
C305 O302 1.258 . S
C305 O307 1.282 . S
O306 Cd298 2.277 . S
O306 C299 1.226 . S
O307 Cd298 2.356 . S
O307 C305 1.282 . S
C308 O309 1.306 . S
C308 O311 1.160 . S
O309 C308 1.306 . S
O309 Cd310 2.228 . S
Cd310 O309 2.228 . S
Cd310 O314 2.273 . S
Cd310 O318 2.277 . S
O311 C308 1.160 . S
O311 Cd312 2.203 . S
Cd312 O311 2.203 . S
Cd312 O314 2.411 . S
Cd312 O315 2.333 . S
Cd312 O316 2.352 . S
Cd312 O320 2.277 . S
Cd312 O321 2.356 . S
C313 O318 1.209 . S
C313 O320 1.226 . S
O314 Cd310 2.273 . S
O314 Cd312 2.411 . S
O314 C317 1.320 . S
O315 Cd312 2.333 . S
O315 C317 1.214 . S
O316 Cd312 2.352 . S
O316 C319 1.258 . S
C317 O314 1.320 . S
C317 O315 1.214 . S
O318 Cd310 2.277 . S
O318 C313 1.209 . S
C319 O316 1.258 . S
C319 O321 1.282 . S
O320 Cd312 2.277 . S
O320 C313 1.226 . S
O321 Cd312 2.356 . S
O321 C319 1.282 . S
C322 O323 1.306 . S
C322 O325 1.160 . S
O323 C322 1.306 . S
O323 Cd324 2.228 . S
Cd324 O323 2.228 . S
Cd324 O328 2.273 . S
Cd324 O332 2.277 . S
O325 C322 1.160 . S
O325 Cd326 2.203 . S
Cd326 O325 2.203 . S
Cd326 O328 2.411 . S
Cd326 O329 2.333 . S
Cd326 O330 2.352 . S
Cd326 O334 2.277 . S
Cd326 O335 2.356 . S
C327 O332 1.209 . S
C327 O334 1.226 . S
O328 Cd324 2.273 . S
O328 Cd326 2.411 . S
O328 C331 1.320 . S
O329 Cd326 2.333 . S
O329 C331 1.214 . S
O330 Cd326 2.352 . S
O330 C333 1.258 . S
C331 O328 1.320 . S
C331 O329 1.214 . S
O332 Cd324 2.277 . S
O332 C327 1.209 . S
C333 O330 1.258 . S
C333 O335 1.282 . S
O334 Cd326 2.277 . S
O334 C327 1.226 . S
O335 Cd326 2.356 . S
O335 C333 1.282 . S
C336 O337 1.306 . S
C336 O339 1.160 . S
O337 C336 1.306 . S
O337 Cd338 2.228 . S
Cd338 O337 2.228 . S
Cd338 O342 2.273 . S
Cd338 O346 2.277 . S
O339 C336 1.160 . S
O339 Cd340 2.203 . S
Cd340 O339 2.203 . S
Cd340 O342 2.411 . S
Cd340 O343 2.333 . S
Cd340 O344 2.352 . S
Cd340 O348 2.277 . S
Cd340 O349 2.356 . S
C341 O346 1.209 . S
C341 O348 1.226 . S
O342 Cd338 2.273 . S
O342 Cd340 2.411 . S
O342 C345 1.320 . S
O343 Cd340 2.333 . S
O343 C345 1.214 . S
O344 Cd340 2.352 . S
O344 C347 1.258 . S
C345 O342 1.320 . S
C345 O343 1.214 . S
O346 Cd338 2.277 . S
O346 C341 1.209 . S
C347 O344 1.258 . S
C347 O349 1.282 . S
O348 Cd340 2.277 . S
O348 C341 1.226 . S
O349 Cd340 2.356 . S
O349 C347 1.282 . S
C350 O351 1.306 . S
C350 O353 1.160 . S
O351 C350 1.306 . S
O351 Cd352 2.228 . S
Cd352 O351 2.228 . S
Cd352 O356 2.273 . S
Cd352 O360 2.277 . S
O353 C350 1.160 . S
O353 Cd354 2.203 . S
Cd354 O353 2.203 . S
Cd354 O356 2.411 . S
Cd354 O357 2.333 . S
Cd354 O358 2.352 . S
Cd354 O362 2.277 . S
Cd354 O363 2.356 . S
C355 O360 1.209 . S
C355 O362 1.226 . S
O356 Cd352 2.273 . S
O356 Cd354 2.411 . S
O356 C359 1.320 . S
O357 Cd354 2.333 . S
O357 C359 1.214 . S
O358 Cd354 2.352 . S
O358 C361 1.258 . S
C359 O356 1.320 . S
C359 O357 1.214 . S
O360 Cd352 2.277 . S
O360 C355 1.209 . S
C361 O358 1.258 . S
C361 O363 1.282 . S
O362 Cd354 2.277 . S
O362 C355 1.226 . S
O363 Cd354 2.356 . S
O363 C361 1.282 . S
C364 O365 1.306 . S
C364 O367 1.160 1_554 S
O365 C364 1.306 . S
O365 Cd366 2.228 . S
Cd366 O365 2.228 . S
Cd366 O370 2.273 . S
Cd366 O374 2.277 . S
O367 C364 1.160 1_556 S
O367 Cd368 2.203 . S
Cd368 O367 2.203 . S
Cd368 O370 2.411 1_556 S
Cd368 O371 2.333 . S
Cd368 O372 2.352 . S
Cd368 O376 2.277 1_556 S
Cd368 O377 2.356 . S
C369 O374 1.209 . S
C369 O376 1.226 . S
O370 Cd366 2.273 . S
O370 Cd368 2.411 1_554 S
O370 C373 1.321 . S
O371 Cd368 2.333 . S
O371 C373 1.212 1_556 S
O372 Cd368 2.352 . S
O372 C375 1.258 . S
C373 O370 1.321 . S
C373 O371 1.212 1_554 S
O374 Cd366 2.277 . S
O374 C369 1.209 . S
C375 O372 1.258 . S
C375 O377 1.282 . S
O376 Cd368 2.277 1_554 S
O376 C369 1.226 . S
O377 Cd368 2.356 . S
O377 C375 1.282 . S
C378 O379 1.306 . S
C378 O381 1.160 1_554 S
O379 C378 1.306 . S
O379 Cd380 2.228 . S
Cd380 O379 2.228 . S
Cd380 O384 2.273 . S
Cd380 O388 2.277 . S
O381 C378 1.160 1_556 S
O381 Cd382 2.203 . S
Cd382 O381 2.203 . S
Cd382 O384 2.411 1_556 S
Cd382 O385 2.333 . S
Cd382 O386 2.352 . S
Cd382 O390 2.277 1_556 S
Cd382 O391 2.356 . S
C383 O388 1.209 . S
C383 O390 1.226 . S
O384 Cd380 2.273 . S
O384 Cd382 2.411 1_554 S
O384 C387 1.321 . S
O385 Cd382 2.333 . S
O385 C387 1.212 1_556 S
O386 Cd382 2.352 . S
O386 C389 1.258 . S
C387 O384 1.321 . S
C387 O385 1.212 1_554 S
O388 Cd380 2.277 . S
O388 C383 1.209 . S
C389 O386 1.258 . S
C389 O391 1.282 . S
O390 Cd382 2.277 1_554 S
O390 C383 1.226 . S
O391 Cd382 2.356 . S
O391 C389 1.282 . S
C392 O393 1.306 . S
C392 O395 1.160 . S
O393 C392 1.306 . S
O393 Cd394 2.228 . S
Cd394 O393 2.228 . S
Cd394 O398 2.273 . S
Cd394 O402 2.277 . S
O395 C392 1.160 . S
O395 Cd396 2.203 . S
Cd396 O395 2.203 . S
Cd396 O398 2.411 . S
Cd396 O399 2.333 . S
Cd396 O400 2.352 . S
Cd396 O404 2.277 . S
Cd396 O405 2.356 . S
C397 O402 1.209 . S
C397 O404 1.226 . S
O398 Cd394 2.273 . S
O398 Cd396 2.411 . S
O398 C401 1.320 . S
O399 Cd396 2.333 . S
O399 C401 1.214 . S
O400 Cd396 2.352 . S
O400 C403 1.258 . S
C401 O398 1.320 . S
C401 O399 1.214 . S
O402 Cd394 2.277 . S
O402 C397 1.209 . S
C403 O400 1.258 . S
C403 O405 1.282 . S
O404 Cd396 2.277 . S
O404 C397 1.226 . S
O405 Cd396 2.356 . S
O405 C403 1.282 . S
C406 O407 1.306 . S
C406 O409 1.160 . S
O407 C406 1.306 . S
O407 Cd408 2.228 . S
Cd408 O407 2.228 . S
Cd408 O412 2.273 . S
Cd408 O416 2.277 . S
O409 C406 1.160 . S
O409 Cd410 2.203 . S
Cd410 O409 2.203 . S
Cd410 O412 2.411 . S
Cd410 O413 2.333 . S
Cd410 O414 2.352 . S
Cd410 O418 2.277 . S
Cd410 O419 2.356 . S
C411 O416 1.209 . S
C411 O418 1.226 . S
O412 Cd408 2.273 . S
O412 Cd410 2.411 . S
O412 C415 1.320 . S
O413 Cd410 2.333 . S
O413 C415 1.214 . S
O414 Cd410 2.352 . S
O414 C417 1.258 . S
C415 O412 1.320 . S
C415 O413 1.214 . S
O416 Cd408 2.277 . S
O416 C411 1.209 . S
C417 O414 1.258 . S
C417 O419 1.282 . S
O418 Cd410 2.277 . S
O418 C411 1.226 . S
O419 Cd410 2.356 . S
O419 C417 1.282 . S
C420 O421 1.306 . S
C420 O423 1.160 . S
O421 C420 1.306 . S
O421 Cd422 2.228 1_554 S
Cd422 O421 2.228 1_556 S
Cd422 O426 2.273 . S
Cd422 O430 2.277 . S
O423 C420 1.160 . S
O423 Cd424 2.186 1_554 S
Cd424 O423 2.186 1_556 S
Cd424 O426 2.421 . S
Cd424 O427 2.351 . S
Cd424 O428 2.350 1_556 S
Cd424 O432 2.275 1_556 S
Cd424 O433 2.357 . S
C425 O430 1.209 1_554 S
C425 O432 1.226 . S
O426 Cd422 2.273 . S
O426 Cd424 2.421 . S
O426 C429 1.320 . S
O427 Cd424 2.351 . S
O427 C429 1.214 . S
O428 Cd424 2.350 1_554 S
O428 C431 1.258 . S
C429 O426 1.320 . S
C429 O427 1.214 . S
O430 Cd422 2.277 . S
O430 C425 1.209 1_556 S
C431 O428 1.258 . S
C431 O433 1.282 1_554 S
O432 Cd424 2.275 1_554 S
O432 C425 1.226 . S
O433 Cd424 2.357 . S
O433 C431 1.282 1_556 S
C434 O435 1.306 . S
C434 O437 1.160 . S
O435 C434 1.306 . S
O435 Cd436 2.228 1_554 S
Cd436 O435 2.228 1_556 S
Cd436 O440 2.273 . S
Cd436 O444 2.277 . S
O437 C434 1.160 . S
O437 Cd438 2.186 1_554 S
Cd438 O437 2.186 1_556 S
Cd438 O440 2.421 . S
Cd438 O441 2.351 . S
Cd438 O442 2.350 1_556 S
Cd438 O446 2.275 1_556 S
Cd438 O447 2.357 . S
C439 O444 1.209 1_554 S
C439 O446 1.226 . S
O440 Cd436 2.273 . S
O440 Cd438 2.421 . S
O440 C443 1.320 . S
O441 Cd438 2.351 . S
O441 C443 1.214 . S
O442 Cd438 2.350 1_554 S
O442 C445 1.258 . S
C443 O440 1.320 . S
C443 O441 1.214 . S
O444 Cd436 2.277 . S
O444 C439 1.209 1_556 S
C445 O442 1.258 . S
C445 O447 1.282 1_554 S
O446 Cd438 2.275 1_554 S
O446 C439 1.226 . S
O447 Cd438 2.357 . S
O447 C445 1.282 1_556 S
C448 C449 1.363 . S
C448 C454 1.379 . S
C448 N456 1.356 . S
C449 C448 1.363 . S
C449 C455 1.363 . S
C450 C451 1.363 . S
C450 C455 1.379 . S
C450 N457 1.356 . S
C451 C450 1.363 . S
C451 C454 1.363 . S
N452 C454 1.356 . S
N452 H464 0.984 . S
N452 H465 0.985 . S
N453 C455 1.356 . S
N453 H458 0.984 . S
N453 H459 0.985 . S
C454 C448 1.379 . S
C454 C451 1.363 . S
C454 N452 1.356 . S
C455 C449 1.363 . S
C455 C450 1.379 . S
C455 N453 1.356 . S
N456 C448 1.356 . S
N456 H462 0.984 . S
N456 H463 0.984 . S
N457 C450 1.356 . S
N457 H460 0.984 . S
N457 H461 0.985 . S
H458 N453 0.984 . S
H459 N453 0.985 . S
H460 N457 0.984 . S
H461 N457 0.985 . S
H462 N456 0.984 . S
H463 N456 0.984 . S
H464 N452 0.984 . S
H465 N452 0.985 . S
C466 C467 1.363 . S
C466 C472 1.379 . S
C466 N474 1.356 . S
C467 C466 1.363 . S
C467 C473 1.363 . S
C468 C469 1.363 . S
C468 C473 1.379 . S
C468 N475 1.356 . S
C469 C468 1.363 . S
C469 C472 1.363 . S
N470 C472 1.356 . S
N470 H482 0.984 . S
N470 H483 0.985 . S
N471 C473 1.356 . S
N471 H476 0.984 . S
N471 H477 0.985 . S
C472 C466 1.379 . S
C472 C469 1.363 . S
C472 N470 1.356 . S
C473 C467 1.363 . S
C473 C468 1.379 . S
C473 N471 1.356 . S
N474 C466 1.356 . S
N474 H480 0.984 . S
N474 H481 0.984 . S
N475 C468 1.356 . S
N475 H478 0.984 . S
N475 H479 0.985 . S
H476 N471 0.984 . S
H477 N471 0.985 . S
H478 N475 0.984 . S
H479 N475 0.985 . S
H480 N474 0.984 . S
H481 N474 0.984 . S
H482 N470 0.984 . S
H483 N470 0.985 . S
C484 C485 1.363 . S
C484 C490 1.379 . S
C484 N492 1.356 . S
C485 C484 1.363 . S
C485 C491 1.363 . S
C486 C487 1.363 . S
C486 C491 1.379 . S
C486 N493 1.356 . S
C487 C486 1.363 . S
C487 C490 1.363 . S
N488 C490 1.356 . S
N488 H500 0.984 . S
N488 H501 0.985 . S
N489 C491 1.356 . S
N489 H494 0.984 . S
N489 H495 0.985 . S
C490 C484 1.379 . S
C490 C487 1.363 . S
C490 N488 1.356 . S
C491 C485 1.363 . S
C491 C486 1.379 . S
C491 N489 1.356 . S
N492 C484 1.356 . S
N492 H498 0.984 . S
N492 H499 0.984 . S
N493 C486 1.356 . S
N493 H496 0.984 . S
N493 H497 0.985 . S
H494 N489 0.984 . S
H495 N489 0.985 . S
H496 N493 0.984 . S
H497 N493 0.985 . S
H498 N492 0.984 . S
H499 N492 0.984 . S
H500 N488 0.984 . S
H501 N488 0.985 . S
C502 C503 1.363 . S
C502 C508 1.379 . S
C502 N510 1.356 . S
C503 C502 1.363 . S
C503 C509 1.363 . S
C504 C505 1.363 . S
C504 C509 1.379 . S
C504 N511 1.356 . S
C505 C504 1.363 . S
C505 C508 1.363 . S
N506 C508 1.356 . S
N506 H518 0.984 . S
N506 H519 0.985 . S
N507 C509 1.356 . S
N507 H512 0.984 . S
N507 H513 0.985 . S
C508 C502 1.379 . S
C508 C505 1.363 . S
C508 N506 1.356 . S
C509 C503 1.363 . S
C509 C504 1.379 . S
C509 N507 1.356 . S
N510 C502 1.356 . S
N510 H516 0.984 . S
N510 H517 0.984 . S
N511 C504 1.356 . S
N511 H514 0.984 . S
N511 H515 0.985 . S
H512 N507 0.984 . S
H513 N507 0.985 . S
H514 N511 0.984 . S
H515 N511 0.985 . S
H516 N510 0.984 . S
H517 N510 0.984 . S
H518 N506 0.984 . S
H519 N506 0.985 . S
C520 C521 1.363 . S
C520 C526 1.379 . S
C520 N528 1.356 . S
C521 C520 1.363 . S
C521 C527 1.363 . S
C522 C523 1.363 . S
C522 C527 1.379 . S
C522 N529 1.356 . S
C523 C522 1.363 . S
C523 C526 1.363 . S
N524 C526 1.356 . S
N524 H536 0.984 . S
N524 H537 0.985 . S
N525 C527 1.356 . S
N525 H530 0.984 . S
N525 H531 0.985 . S
C526 C520 1.379 . S
C526 C523 1.363 . S
C526 N524 1.356 . S
C527 C521 1.363 . S
C527 C522 1.379 . S
C527 N525 1.356 . S
N528 C520 1.356 . S
N528 H534 0.984 . S
N528 H535 0.984 . S
N529 C522 1.356 . S
N529 H532 0.984 . S
N529 H533 0.985 . S
H530 N525 0.984 . S
H531 N525 0.985 . S
H532 N529 0.984 . S
H533 N529 0.985 . S
H534 N528 0.984 . S
H535 N528 0.984 . S
H536 N524 0.984 . S
H537 N524 0.985 . S
C538 C539 1.363 . S
C538 C544 1.379 . S
C538 N546 1.356 . S
C539 C538 1.363 . S
C539 C545 1.363 . S
C540 C541 1.363 . S
C540 C545 1.379 . S
C540 N547 1.356 . S
C541 C540 1.363 . S
C541 C544 1.363 . S
N542 C544 1.356 . S
N542 H554 0.984 . S
N542 H555 0.985 . S
N543 C545 1.356 . S
N543 H548 0.984 . S
N543 H549 0.985 . S
C544 C538 1.379 . S
C544 C541 1.363 . S
C544 N542 1.356 . S
C545 C539 1.363 . S
C545 C540 1.379 . S
C545 N543 1.356 . S
N546 C538 1.356 . S
N546 H552 0.984 . S
N546 H553 0.984 . S
N547 C540 1.356 . S
N547 H550 0.984 . S
N547 H551 0.985 . S
H548 N543 0.984 . S
H549 N543 0.985 . S
H550 N547 0.984 . S
H551 N547 0.985 . S
H552 N546 0.984 . S
H553 N546 0.984 . S
H554 N542 0.984 . S
H555 N542 0.985 . S
C556 C557 1.363 . S
C556 C562 1.379 . S
C556 N564 1.356 . S
C557 C556 1.363 . S
C557 C563 1.363 . S
C558 C559 1.363 . S
C558 C563 1.379 . S
C558 N565 1.356 . S
C559 C558 1.363 . S
C559 C562 1.363 . S
N560 C562 1.356 . S
N560 H572 0.984 . S
N560 H573 0.985 . S
N561 C563 1.356 . S
N561 H566 0.984 . S
N561 H567 0.985 . S
C562 C556 1.379 . S
C562 C559 1.363 . S
C562 N560 1.356 . S
C563 C557 1.363 . S
C563 C558 1.379 . S
C563 N561 1.356 . S
N564 C556 1.356 . S
N564 H570 0.984 . S
N564 H571 0.984 . S
N565 C558 1.356 . S
N565 H568 0.984 . S
N565 H569 0.985 . S
H566 N561 0.984 . S
H567 N561 0.985 . S
H568 N565 0.984 . S
H569 N565 0.985 . S
H570 N564 0.984 . S
H571 N564 0.984 . S
H572 N560 0.984 . S
H573 N560 0.985 . S
C574 C575 1.363 . S
C574 C580 1.379 . S
C574 N582 1.356 . S
C575 C574 1.363 . S
C575 C581 1.363 . S
C576 C577 1.363 . S
C576 C581 1.379 . S
C576 N583 1.356 . S
C577 C576 1.363 . S
C577 C580 1.363 . S
N578 C580 1.356 . S
N578 H590 0.984 . S
N578 H591 0.985 . S
N579 C581 1.356 . S
N579 H584 0.984 . S
N579 H585 0.985 . S
C580 C574 1.379 . S
C580 C577 1.363 . S
C580 N578 1.356 . S
C581 C575 1.363 . S
C581 C576 1.379 . S
C581 N579 1.356 . S
N582 C574 1.356 . S
N582 H588 0.984 . S
N582 H589 0.984 . S
N583 C576 1.356 . S
N583 H586 0.984 . S
N583 H587 0.985 . S
H584 N579 0.984 . S
H585 N579 0.985 . S
H586 N583 0.984 . S
H587 N583 0.985 . S
H588 N582 0.984 . S
H589 N582 0.984 . S
H590 N578 0.984 . S
H591 N578 0.985 . S
C592 C593 1.363 . S
C592 C598 1.379 . S
C592 N600 1.356 . S
C593 C592 1.363 . S
C593 C599 1.363 . S
C594 C595 1.363 . S
C594 C599 1.379 . S
C594 N601 1.356 . S
C595 C594 1.363 . S
C595 C598 1.363 . S
N596 C598 1.356 . S
N596 H608 0.984 . S
N596 H609 0.985 . S
N597 C599 1.356 . S
N597 H602 0.984 . S
N597 H603 0.985 . S
C598 C592 1.379 . S
C598 C595 1.363 . S
C598 N596 1.356 . S
C599 C593 1.363 . S
C599 C594 1.379 . S
C599 N597 1.356 . S
N600 C592 1.356 . S
N600 H606 0.984 . S
N600 H607 0.984 . S
N601 C594 1.356 . S
N601 H604 0.984 . S
N601 H605 0.985 . S
H602 N597 0.984 . S
H603 N597 0.985 . S
H604 N601 0.984 . S
H605 N601 0.985 . S
H606 N600 0.984 . S
H607 N600 0.984 . S
H608 N596 0.984 . S
H609 N596 0.985 . S
C610 C611 1.363 . S
C610 C616 1.379 . S
C610 N618 1.356 . S
C611 C610 1.363 . S
C611 C617 1.363 . S
C612 C613 1.363 . S
C612 C617 1.379 . S
C612 N619 1.356 . S
C613 C612 1.363 . S
C613 C616 1.363 . S
N614 C616 1.356 . S
N614 H626 0.984 . S
N614 H627 0.985 . S
N615 C617 1.356 . S
N615 H620 0.984 . S
N615 H621 0.985 . S
C616 C610 1.379 . S
C616 C613 1.363 . S
C616 N614 1.356 . S
C617 C611 1.363 . S
C617 C612 1.379 . S
C617 N615 1.356 . S
N618 C610 1.356 . S
N618 H624 0.984 . S
N618 H625 0.984 . S
N619 C612 1.356 . S
N619 H622 0.984 . S
N619 H623 0.985 . S
H620 N615 0.984 . S
H621 N615 0.985 . S
H622 N619 0.984 . S
H623 N619 0.985 . S
H624 N618 0.984 . S
H625 N618 0.984 . S
H626 N614 0.984 . S
H627 N614 0.985 . S
C628 C629 1.363 . S
C628 C634 1.379 . S
C628 N636 1.356 . S
C629 C628 1.363 . S
C629 C635 1.363 . S
C630 C631 1.363 . S
C630 C635 1.379 . S
C630 N637 1.356 . S
C631 C630 1.363 . S
C631 C634 1.363 . S
N632 C634 1.356 . S
N632 H644 0.984 . S
N632 H645 0.985 . S
N633 C635 1.356 . S
N633 H638 0.984 . S
N633 H639 0.985 . S
C634 C628 1.379 . S
C634 C631 1.363 . S
C634 N632 1.356 . S
C635 C629 1.363 . S
C635 C630 1.379 . S
C635 N633 1.356 . S
N636 C628 1.356 . S
N636 H642 0.984 . S
N636 H643 0.984 . S
N637 C630 1.356 . S
N637 H640 0.984 . S
N637 H641 0.985 . S
H638 N633 0.984 . S
H639 N633 0.985 . S
H640 N637 0.984 . S
H641 N637 0.985 . S
H642 N636 0.984 . S
H643 N636 0.984 . S
H644 N632 0.984 . S
H645 N632 0.985 . S
C646 C647 1.363 . S
C646 C652 1.379 . S
C646 N654 1.356 . S
C647 C646 1.363 . S
C647 C653 1.363 . S
C648 C649 1.363 . S
C648 C653 1.379 . S
C648 N655 1.356 . S
C649 C648 1.363 . S
C649 C652 1.363 . S
N650 C652 1.356 . S
N650 H662 0.984 . S
N650 H663 0.985 . S
N651 C653 1.356 . S
N651 H656 0.984 . S
N651 H657 0.985 . S
C652 C646 1.379 . S
C652 C649 1.363 . S
C652 N650 1.356 . S
C653 C647 1.363 . S
C653 C648 1.379 . S
C653 N651 1.356 . S
N654 C646 1.356 . S
N654 H660 0.984 . S
N654 H661 0.984 . S
N655 C648 1.356 . S
N655 H658 0.984 . S
N655 H659 0.985 . S
H656 N651 0.984 . S
H657 N651 0.985 . S
H658 N655 0.984 . S
H659 N655 0.985 . S
H660 N654 0.984 . S
H661 N654 0.984 . S
H662 N650 0.984 . S
H663 N650 0.985 . S
C664 C665 1.363 . S
C664 C670 1.379 . S
C664 N672 1.356 . S
C665 C664 1.363 . S
C665 C671 1.363 . S
C666 C667 1.363 . S
C666 C671 1.379 . S
C666 N673 1.356 . S
C667 C666 1.363 . S
C667 C670 1.363 . S
N668 C670 1.356 . S
N668 H680 0.984 . S
N668 H681 0.985 . S
N669 C671 1.356 . S
N669 H674 0.984 . S
N669 H675 0.985 . S
C670 C664 1.379 . S
C670 C667 1.363 . S
C670 N668 1.356 . S
C671 C665 1.363 . S
C671 C666 1.379 . S
C671 N669 1.356 . S
N672 C664 1.356 . S
N672 H678 0.984 . S
N672 H679 0.984 . S
N673 C666 1.356 . S
N673 H676 0.984 . S
N673 H677 0.985 . S
H674 N669 0.984 . S
H675 N669 0.985 . S
H676 N673 0.984 . S
H677 N673 0.985 . S
H678 N672 0.984 . S
H679 N672 0.984 . S
H680 N668 0.984 . S
H681 N668 0.985 . S
C682 C683 1.363 . S
C682 C688 1.379 . S
C682 N690 1.356 . S
C683 C682 1.363 . S
C683 C689 1.363 . S
C684 C685 1.363 . S
C684 C689 1.379 . S
C684 N691 1.356 . S
C685 C684 1.363 . S
C685 C688 1.363 . S
N686 C688 1.356 . S
N686 H698 0.984 . S
N686 H699 0.985 . S
N687 C689 1.356 . S
N687 H692 0.984 . S
N687 H693 0.985 . S
C688 C682 1.379 . S
C688 C685 1.363 . S
C688 N686 1.356 . S
C689 C683 1.363 . S
C689 C684 1.379 . S
C689 N687 1.356 . S
N690 C682 1.356 . S
N690 H696 0.984 . S
N690 H697 0.984 . S
N691 C684 1.356 . S
N691 H694 0.984 . S
N691 H695 0.985 . S
H692 N687 0.984 . S
H693 N687 0.985 . S
H694 N691 0.984 . S
H695 N691 0.985 . S
H696 N690 0.984 . S
H697 N690 0.984 . S
H698 N686 0.984 . S
H699 N686 0.985 . S
C700 C701 1.363 . S
C700 C706 1.379 . S
C700 N708 1.356 . S
C701 C700 1.363 . S
C701 C707 1.363 . S
C702 C703 1.363 . S
C702 C707 1.379 . S
C702 N709 1.356 . S
C703 C702 1.363 . S
C703 C706 1.363 . S
N704 C706 1.356 . S
N704 H716 0.984 . S
N704 H717 0.985 . S
N705 C707 1.356 . S
N705 H710 0.984 . S
N705 H711 0.985 . S
C706 C700 1.379 . S
C706 C703 1.363 . S
C706 N704 1.356 . S
C707 C701 1.363 . S
C707 C702 1.379 . S
C707 N705 1.356 . S
N708 C700 1.356 . S
N708 H714 0.984 . S
N708 H715 0.984 . S
N709 C702 1.356 . S
N709 H712 0.984 . S
N709 H713 0.985 . S
H710 N705 0.984 . S
H711 N705 0.985 . S
H712 N709 0.984 . S
H713 N709 0.985 . S
H714 N708 0.984 . S
H715 N708 0.984 . S
H716 N704 0.984 . S
H717 N704 0.985 . S
C718 C719 1.363 . S
C718 C724 1.379 . S
C718 N726 1.356 . S
C719 C718 1.363 . S
C719 C725 1.363 . S
C720 C721 1.363 . S
C720 C725 1.379 . S
C720 N727 1.356 . S
C721 C720 1.363 . S
C721 C724 1.363 . S
N722 C724 1.356 . S
N722 H734 0.984 . S
N722 H735 0.985 . S
N723 C725 1.356 . S
N723 H728 0.984 . S
N723 H729 0.985 . S
C724 C718 1.379 . S
C724 C721 1.363 . S
C724 N722 1.356 . S
C725 C719 1.363 . S
C725 C720 1.379 . S
C725 N723 1.356 . S
N726 C718 1.356 . S
N726 H732 0.984 . S
N726 H733 0.984 . S
N727 C720 1.356 . S
N727 H730 0.984 . S
N727 H731 0.985 . S
H728 N723 0.984 . S
H729 N723 0.985 . S
H730 N727 0.984 . S
H731 N727 0.985 . S
H732 N726 0.984 . S
H733 N726 0.984 . S
H734 N722 0.984 . S
H735 N722 0.985 . S
C736 C737 1.363 . S
C736 C742 1.379 . S
C736 N744 1.356 . S
C737 C736 1.363 . S
C737 C743 1.363 1_655 S
C738 C739 1.363 . S
C738 C743 1.379 . S
C738 N745 1.356 . S
C739 C738 1.363 . S
C739 C742 1.363 1_455 S
N740 C742 1.356 1_455 S
N740 H752 0.973 1_455 S
N740 H753 0.997 . S
N741 C743 1.356 . S
N741 H746 0.984 1_455 S
N741 H747 0.985 . S
C742 C736 1.379 . S
C742 C739 1.363 1_655 S
C742 N740 1.356 1_655 S
C743 C737 1.363 1_455 S
C743 C738 1.379 . S
C743 N741 1.356 . S
N744 C736 1.356 . S
N744 H750 0.984 . S
N744 H751 0.984 . S
N745 C738 1.356 . S
N745 H748 0.984 . S
N745 H749 0.985 . S
H746 N741 0.984 1_655 S
H747 N741 0.985 . S
H748 N745 0.984 . S
H749 N745 0.985 . S
H750 N744 0.984 . S
H751 N744 0.984 . S
H752 N740 0.973 1_655 S
H753 N740 0.997 . S
C754 C755 1.363 . S
C754 C760 1.379 1_565 S
C754 N762 1.356 . S
C755 C754 1.363 . S
C755 C761 1.363 . S
C756 C757 1.363 . S
C756 C761 1.379 1_545 S
C756 N763 1.356 . S
C757 C756 1.363 . S
C757 C760 1.363 . S
N758 C760 1.356 . S
N758 H770 0.984 . S
N758 H771 0.985 . S
N759 C761 1.356 . S
N759 H764 0.984 . S
N759 H765 0.985 . S
C760 C754 1.379 1_545 S
C760 C757 1.363 . S
C760 N758 1.356 . S
C761 C755 1.363 . S
C761 C756 1.379 1_565 S
C761 N759 1.356 . S
N762 C754 1.356 . S
N762 H768 0.984 . S
N762 H769 0.984 . S
N763 C756 1.356 . S
N763 H766 0.984 . S
N763 H767 0.985 . S
H764 N759 0.984 . S
H765 N759 0.985 . S
H766 N763 0.984 . S
H767 N763 0.985 . S
H768 N762 0.984 . S
H769 N762 0.984 . S
H770 N758 0.984 . S
H771 N758 0.985 . S
C772 C773 1.356 1_554 S
C772 C778 1.371 1_465 S
C772 N780 1.357 . S
C773 C772 1.356 1_556 S
C773 C779 1.379 . S
C774 C775 1.363 1_456 S
C774 C779 1.379 1_545 S
C774 N781 1.356 . S
C775 C774 1.363 1_654 S
C775 C778 1.363 . S
N776 C778 1.356 . S
N776 H788 0.984 . S
N776 H789 0.985 . S
N777 C779 1.356 . S
N777 H782 0.984 . S
N777 H783 0.985 . S
C778 C772 1.371 1_645 S
C778 C775 1.363 . S
C778 N776 1.356 . S
C779 C773 1.379 . S
C779 C774 1.379 1_565 S
C779 N777 1.356 . S
N780 C772 1.357 . S
N780 H786 0.984 1_455 S
N780 H787 0.984 . S
N781 C774 1.356 . S
N781 H784 0.984 1_455 S
N781 H785 0.985 . S
H782 N777 0.984 . S
H783 N777 0.985 . S
H784 N781 0.984 1_655 S
H785 N781 0.985 . S
H786 N780 0.984 1_655 S
H787 N780 0.984 . S
H788 N776 0.984 . S
H789 N776 0.985 . S
C790 C791 1.363 . S
C790 C796 1.379 . S
C790 N798 1.356 . S
C791 C790 1.363 . S
C791 C797 1.363 1_554 S
C792 C793 1.374 . S
C792 C797 1.379 . S
C792 N799 1.356 . S
C793 C792 1.374 . S
C793 C796 1.351 1_556 S
N794 C796 1.356 . S
N794 H806 0.984 . S
N794 H807 0.985 . S
N795 C797 1.356 . S
N795 H800 0.984 . S
N795 H801 0.985 . S
C796 C790 1.379 . S
C796 C793 1.351 1_554 S
C796 N794 1.356 . S
C797 C791 1.363 1_556 S
C797 C792 1.379 . S
C797 N795 1.356 . S
N798 C790 1.356 . S
N798 H804 0.984 . S
N798 H805 0.984 . S
N799 C792 1.356 . S
N799 H802 0.984 . S
N799 H803 0.985 . S
H800 N795 0.984 . S
H801 N795 0.985 . S
H802 N799 0.984 . S
H803 N799 0.985 . S
H804 N798 0.984 . S
H805 N798 0.984 . S
H806 N794 0.984 . S
H807 N794 0.985 . S
C808 C809 1.363 . S
C808 C814 1.385 . S
C808 N816 1.356 . S
C809 C808 1.363 . S
C809 C815 1.363 1_655 S
C810 C811 1.363 . S
C810 C815 1.379 . S
C810 N817 1.356 . S
C811 C810 1.363 . S
C811 C814 1.355 1_455 S
N812 C814 1.356 1_455 S
N812 H824 0.984 1_455 S
N812 H825 0.985 . S
N813 C815 1.356 . S
N813 H818 0.984 1_455 S
N813 H819 0.985 . S
C814 C808 1.385 . S
C814 C811 1.355 1_655 S
C814 N812 1.356 1_655 S
C815 C809 1.363 1_455 S
C815 C810 1.379 . S
C815 N813 1.356 . S
N816 C808 1.356 . S
N816 H822 0.984 . S
N816 H823 0.984 . S
N817 C810 1.356 . S
N817 H820 0.984 . S
N817 H821 0.985 . S
H818 N813 0.984 1_655 S
H819 N813 0.985 . S
H820 N817 0.984 . S
H821 N817 0.985 . S
H822 N816 0.984 . S
H823 N816 0.984 . S
H824 N812 0.984 1_655 S
H825 N812 0.985 . S
C826 C827 1.363 . S
C826 C832 1.379 1_565 S
C826 N834 1.356 . S
C827 C826 1.363 . S
C827 C833 1.363 . S
C828 C829 1.363 . S
C828 C833 1.379 1_545 S
C828 N835 1.356 . S
C829 C828 1.363 . S
C829 C832 1.363 . S
N830 C832 1.356 . S
N830 H842 0.984 . S
N830 H843 0.985 . S
N831 C833 1.356 . S
N831 H836 0.984 . S
N831 H837 0.985 . S
C832 C826 1.379 1_545 S
C832 C829 1.363 . S
C832 N830 1.356 . S
C833 C827 1.363 . S
C833 C828 1.379 1_565 S
C833 N831 1.356 . S
N834 C826 1.356 . S
N834 H840 0.984 . S
N834 H841 0.984 . S
N835 C828 1.356 . S
N835 H838 0.984 . S
N835 H839 0.985 . S
H836 N831 0.984 . S
H837 N831 0.985 . S
H838 N835 0.984 . S
H839 N835 0.985 . S
H840 N834 0.984 . S
H841 N834 0.984 . S
H842 N830 0.984 . S
H843 N830 0.985 . S
C844 C845 1.380 . S
C844 C850 1.379 . S
C844 N852 1.356 . S
C845 C844 1.380 . S
C845 C851 1.345 1_556 S
C846 C847 1.363 . S
C846 C851 1.379 . S
C846 N853 1.356 . S
C847 C846 1.363 . S
C847 C850 1.363 1_554 S
N848 C850 1.356 . S
N848 H860 0.984 . S
N848 H861 0.985 . S
N849 C851 1.356 . S
N849 H854 0.984 . S
N849 H855 0.985 . S
C850 C844 1.379 . S
C850 C847 1.363 1_556 S
C850 N848 1.356 . S
C851 C845 1.345 1_554 S
C851 C846 1.379 . S
C851 N849 1.356 . S
N852 C844 1.356 . S
N852 H858 0.984 . S
N852 H859 0.984 . S
N853 C846 1.356 . S
N853 H856 0.984 . S
N853 H857 0.985 . S
H854 N849 0.984 . S
H855 N849 0.985 . S
H856 N853 0.984 . S
H857 N853 0.985 . S
H858 N852 0.984 . S
H859 N852 0.984 . S
H860 N848 0.984 . S
H861 N848 0.985 . S
C862 C863 1.363 . S
C862 C868 1.379 . S
C862 N870 1.356 . S
C863 C862 1.363 . S
C863 C869 1.363 . S
C864 C865 1.363 . S
C864 C869 1.379 . S
C864 N871 1.356 . S
C865 C864 1.363 . S
C865 C868 1.363 . S
N866 C868 1.356 . S
N866 H878 0.984 . S
N866 H879 0.985 . S
N867 C869 1.356 . S
N867 H872 0.984 . S
N867 H873 0.985 . S
C868 C862 1.379 . S
C868 C865 1.363 . S
C868 N866 1.356 . S
C869 C863 1.363 . S
C869 C864 1.379 . S
C869 N867 1.356 . S
N870 C862 1.356 . S
N870 H876 0.984 . S
N870 H877 0.984 . S
N871 C864 1.356 . S
N871 H874 0.984 . S
N871 H875 0.985 . S
H872 N867 0.984 . S
H873 N867 0.985 . S
H874 N871 0.984 . S
H875 N871 0.985 . S
H876 N870 0.984 . S
H877 N870 0.984 . S
H878 N866 0.984 . S
H879 N866 0.985 . S
C880 C881 1.363 . S
C880 C886 1.385 . S
C880 N888 1.356 . S
C881 C880 1.363 . S
C881 C887 1.363 1_655 S
C882 C883 1.363 . S
C882 C887 1.379 . S
C882 N889 1.356 . S
C883 C882 1.363 . S
C883 C886 1.355 1_455 S
N884 C886 1.356 1_455 S
N884 H896 0.984 1_455 S
N884 H897 0.985 . S
N885 C887 1.356 . S
N885 H890 0.984 1_455 S
N885 H891 0.985 . S
C886 C880 1.385 . S
C886 C883 1.355 1_655 S
C886 N884 1.356 1_655 S
C887 C881 1.363 1_455 S
C887 C882 1.379 . S
C887 N885 1.356 . S
N888 C880 1.356 . S
N888 H894 0.984 . S
N888 H895 0.984 . S
N889 C882 1.356 . S
N889 H892 0.984 . S
N889 H893 0.985 . S
H890 N885 0.984 1_655 S
H891 N885 0.985 . S
H892 N889 0.984 . S
H893 N889 0.985 . S
H894 N888 0.984 . S
H895 N888 0.984 . S
H896 N884 0.984 1_655 S
H897 N884 0.985 . S
C898 C899 1.363 . S
C898 C904 1.379 . S
C898 N906 1.356 . S
C899 C898 1.363 . S
C899 C905 1.363 . S
C900 C901 1.363 . S
C900 C905 1.379 . S
C900 N907 1.356 . S
C901 C900 1.363 . S
C901 C904 1.363 . S
N902 C904 1.356 . S
N902 H914 0.984 . S
N902 H915 0.985 . S
N903 C905 1.356 . S
N903 H908 0.984 . S
N903 H909 0.985 . S
C904 C898 1.379 . S
C904 C901 1.363 . S
C904 N902 1.356 . S
C905 C899 1.363 . S
C905 C900 1.379 . S
C905 N903 1.356 . S
N906 C898 1.356 . S
N906 H912 0.984 . S
N906 H913 0.984 . S
N907 C900 1.356 . S
N907 H910 0.984 . S
N907 H911 0.985 . S
H908 N903 0.984 . S
H909 N903 0.985 . S
H910 N907 0.984 . S
H911 N907 0.985 . S
H912 N906 0.984 . S
H913 N906 0.984 . S
H914 N902 0.984 . S
H915 N902 0.985 . S
C916 C917 1.363 . S
C916 C922 1.379 . S
C916 N924 1.356 . S
C917 C916 1.363 . S
C917 C923 1.363 . S
C918 C919 1.363 . S
C918 C923 1.379 . S
C918 N925 1.356 . S
C919 C918 1.363 . S
C919 C922 1.363 . S
N920 C922 1.356 . S
N920 H932 0.984 . S
N920 H933 0.985 . S
N921 C923 1.356 . S
N921 H926 0.984 . S
N921 H927 0.985 . S
C922 C916 1.379 . S
C922 C919 1.363 . S
C922 N920 1.356 . S
C923 C917 1.363 . S
C923 C918 1.379 . S
C923 N921 1.356 . S
N924 C916 1.356 . S
N924 H930 0.984 . S
N924 H931 0.984 . S
N925 C918 1.356 . S
N925 H928 0.984 . S
N925 H929 0.985 . S
H926 N921 0.984 . S
H927 N921 0.985 . S
H928 N925 0.984 . S
H929 N925 0.985 . S
H930 N924 0.984 . S
H931 N924 0.984 . S
H932 N920 0.984 . S
H933 N920 0.985 . S
C934 C935 1.363 . S
C934 C940 1.379 . S
C934 N942 1.356 . S
C935 C934 1.363 . S
C935 C941 1.363 . S
C936 C937 1.363 . S
C936 C941 1.379 . S
C936 N943 1.356 . S
C937 C936 1.363 . S
C937 C940 1.363 . S
N938 C940 1.356 . S
N938 H950 0.984 . S
N938 H951 0.985 . S
N939 C941 1.356 . S
N939 H944 0.984 . S
N939 H945 0.985 . S
C940 C934 1.379 . S
C940 C937 1.363 . S
C940 N938 1.356 . S
C941 C935 1.363 . S
C941 C936 1.379 . S
C941 N939 1.356 . S
N942 C934 1.356 . S
N942 H948 0.984 . S
N942 H949 0.984 . S
N943 C936 1.356 . S
N943 H946 0.984 . S
N943 H947 0.985 . S
H944 N939 0.984 . S
H945 N939 0.985 . S
H946 N943 0.984 . S
H947 N943 0.985 . S
H948 N942 0.984 . S
H949 N942 0.984 . S
H950 N938 0.984 . S
H951 N938 0.985 . S
C952 C953 1.363 . S
C952 C958 1.379 . S
C952 N960 1.356 . S
C953 C952 1.363 . S
C953 C959 1.363 . S
C954 C955 1.363 . S
C954 C959 1.379 . S
C954 N961 1.356 . S
C955 C954 1.363 . S
C955 C958 1.363 . S
N956 C958 1.356 . S
N956 H968 0.984 . S
N956 H969 0.985 . S
N957 C959 1.356 . S
N957 H962 0.984 . S
N957 H963 0.985 . S
C958 C952 1.379 . S
C958 C955 1.363 . S
C958 N956 1.356 . S
C959 C953 1.363 . S
C959 C954 1.379 . S
C959 N957 1.356 . S
N960 C952 1.356 . S
N960 H966 0.984 . S
N960 H967 0.984 . S
N961 C954 1.356 . S
N961 H964 0.984 . S
N961 H965 0.985 . S
H962 N957 0.984 . S
H963 N957 0.985 . S
H964 N961 0.984 . S
H965 N961 0.985 . S
H966 N960 0.984 . S
H967 N960 0.984 . S
H968 N956 0.984 . S
H969 N956 0.985 . S
C970 C971 1.363 . S
C970 C976 1.379 1_545 S
C970 N978 1.356 . S
C971 C970 1.363 . S
C971 C977 1.363 . S
C972 C973 1.363 . S
C972 C977 1.379 1_565 S
C972 N979 1.356 . S
C973 C972 1.363 . S
C973 C976 1.363 . S
N974 C976 1.356 . S
N974 H986 0.984 . S
N974 H987 0.985 . S
N975 C977 1.356 . S
N975 H980 0.984 . S
N975 H981 0.985 . S
C976 C970 1.379 1_565 S
C976 C973 1.363 . S
C976 N974 1.356 . S
C977 C971 1.363 . S
C977 C972 1.379 1_545 S
C977 N975 1.356 . S
N978 C970 1.356 . S
N978 H984 0.984 . S
N978 H985 0.984 . S
N979 C972 1.356 . S
N979 H982 0.984 . S
N979 H983 0.985 . S
H980 N975 0.984 . S
H981 N975 0.985 . S
H982 N979 0.984 . S
H983 N979 0.985 . S
H984 N978 0.984 . S
H985 N978 0.984 . S
H986 N974 0.984 . S
H987 N974 0.985 . S
C988 C989 1.363 . S
C988 C994 1.379 . S
C988 N996 1.356 . S
C989 C988 1.363 . S
C989 C995 1.363 . S
C990 C991 1.363 . S
C990 C995 1.379 . S
C990 N997 1.356 . S
C991 C990 1.363 . S
C991 C994 1.363 . S
N992 C994 1.356 . S
N992 H1004 0.984 . S
N992 H1005 0.985 . S
N993 C995 1.356 . S
N993 H998 0.984 . S
N993 H999 0.985 . S
C994 C988 1.379 . S
C994 C991 1.363 . S
C994 N992 1.356 . S
C995 C989 1.363 . S
C995 C990 1.379 . S
C995 N993 1.356 . S
N996 C988 1.356 . S
N996 H1002 0.984 . S
N996 H1003 0.984 . S
N997 C990 1.356 . S
N997 H1000 0.984 . S
N997 H1001 0.985 . S
H998 N993 0.984 . S
H999 N993 0.985 . S
H1000 N997 0.984 . S
H1001 N997 0.985 . S
H1002 N996 0.984 . S
H1003 N996 0.984 . S
H1004 N992 0.984 . S
H1005 N992 0.985 . S
C1006 C1007 1.375 . S
C1006 C1012 1.379 . S
C1006 N1014 1.356 . S
C1007 C1006 1.375 . S
C1007 C1013 1.350 1_556 S
C1008 C1009 1.363 . S
C1008 C1013 1.379 . S
C1008 N1015 1.356 . S
C1009 C1008 1.363 . S
C1009 C1012 1.363 1_554 S
N1010 C1012 1.356 . S
N1010 H1022 0.984 . S
N1010 H1023 0.985 . S
N1011 C1013 1.356 . S
N1011 H1016 0.984 . S
N1011 H1017 0.985 . S
C1012 C1006 1.379 . S
C1012 C1009 1.363 1_556 S
C1012 N1010 1.356 . S
C1013 C1007 1.350 1_554 S
C1013 C1008 1.379 . S
C1013 N1011 1.356 . S
N1014 C1006 1.356 . S
N1014 H1020 0.984 . S
N1014 H1021 0.984 . S
N1015 C1008 1.356 . S
N1015 H1018 0.984 . S
N1015 H1019 0.985 . S
H1016 N1011 0.984 . S
H1017 N1011 0.985 . S
H1018 N1015 0.984 . S
H1019 N1015 0.985 . S
H1020 N1014 0.984 . S
H1021 N1014 0.984 . S
H1022 N1010 0.984 . S
H1023 N1010 0.985 . S
C1024 C1025 1.363 . S
C1024 C1030 1.379 . S
C1024 N1032 1.356 . S
C1025 C1024 1.363 . S
C1025 C1031 1.363 . S
C1026 C1027 1.363 . S
C1026 C1031 1.379 . S
C1026 N1033 1.356 . S
C1027 C1026 1.363 . S
C1027 C1030 1.363 . S
N1028 C1030 1.356 . S
N1028 H1040 0.984 . S
N1028 H1041 0.985 . S
N1029 C1031 1.356 . S
N1029 H1034 0.984 . S
N1029 H1035 0.985 . S
C1030 C1024 1.379 . S
C1030 C1027 1.363 . S
C1030 N1028 1.356 . S
C1031 C1025 1.363 . S
C1031 C1026 1.379 . S
C1031 N1029 1.356 . S
N1032 C1024 1.356 . S
N1032 H1038 0.984 . S
N1032 H1039 0.984 . S
N1033 C1026 1.356 . S
N1033 H1036 0.984 . S
N1033 H1037 0.985 . S
H1034 N1029 0.984 . S
H1035 N1029 0.985 . S
H1036 N1033 0.984 . S
H1037 N1033 0.985 . S
H1038 N1032 0.984 . S
H1039 N1032 0.984 . S
H1040 N1028 0.984 . S
H1041 N1028 0.985 . S
C1042 C1043 1.363 . S
C1042 C1048 1.379 . S
C1042 N1050 1.356 . S
C1043 C1042 1.363 . S
C1043 C1049 1.363 . S
C1044 C1045 1.363 . S
C1044 C1049 1.379 . S
C1044 N1051 1.356 . S
C1045 C1044 1.363 . S
C1045 C1048 1.363 . S
N1046 C1048 1.356 . S
N1046 H1058 0.984 . S
N1046 H1059 0.985 . S
N1047 C1049 1.356 . S
N1047 H1052 0.984 . S
N1047 H1053 0.985 . S
C1048 C1042 1.379 . S
C1048 C1045 1.363 . S
C1048 N1046 1.356 . S
C1049 C1043 1.363 . S
C1049 C1044 1.379 . S
C1049 N1047 1.356 . S
N1050 C1042 1.356 . S
N1050 H1056 0.984 . S
N1050 H1057 0.984 . S
N1051 C1044 1.356 . S
N1051 H1054 0.984 . S
N1051 H1055 0.985 . S
H1052 N1047 0.984 . S
H1053 N1047 0.985 . S
H1054 N1051 0.984 . S
H1055 N1051 0.985 . S
H1056 N1050 0.984 . S
H1057 N1050 0.984 . S
H1058 N1046 0.984 . S
H1059 N1046 0.985 . S
C1060 C1061 1.363 . S
C1060 C1066 1.379 . S
C1060 N1068 1.356 . S
C1061 C1060 1.363 . S
C1061 C1067 1.363 . S
C1062 C1063 1.363 . S
C1062 C1067 1.379 . S
C1062 N1069 1.356 . S
C1063 C1062 1.363 . S
C1063 C1066 1.363 . S
N1064 C1066 1.356 . S
N1064 H1076 0.984 . S
N1064 H1077 0.985 . S
N1065 C1067 1.356 . S
N1065 H1070 0.984 . S
N1065 H1071 0.985 . S
C1066 C1060 1.379 . S
C1066 C1063 1.363 . S
C1066 N1064 1.356 . S
C1067 C1061 1.363 . S
C1067 C1062 1.379 . S
C1067 N1065 1.356 . S
N1068 C1060 1.356 . S
N1068 H1074 0.984 . S
N1068 H1075 0.984 . S
N1069 C1062 1.356 . S
N1069 H1072 0.984 . S
N1069 H1073 0.985 . S
H1070 N1065 0.984 . S
H1071 N1065 0.985 . S
H1072 N1069 0.984 . S
H1073 N1069 0.985 . S
H1074 N1068 0.984 . S
H1075 N1068 0.984 . S
H1076 N1064 0.984 . S
H1077 N1064 0.985 . S
C1078 C1079 1.363 . S
C1078 C1084 1.379 . S
C1078 N1086 1.356 . S
C1079 C1078 1.363 . S
C1079 C1085 1.363 . S
C1080 C1081 1.363 . S
C1080 C1085 1.379 . S
C1080 N1087 1.356 . S
C1081 C1080 1.363 . S
C1081 C1084 1.363 . S
N1082 C1084 1.356 . S
N1082 H1094 0.984 . S
N1082 H1095 0.985 . S
N1083 C1085 1.356 . S
N1083 H1088 0.984 . S
N1083 H1089 0.985 . S
C1084 C1078 1.379 . S
C1084 C1081 1.363 . S
C1084 N1082 1.356 . S
C1085 C1079 1.363 . S
C1085 C1080 1.379 . S
C1085 N1083 1.356 . S
N1086 C1078 1.356 . S
N1086 H1092 0.984 . S
N1086 H1093 0.984 . S
N1087 C1080 1.356 . S
N1087 H1090 0.984 . S
N1087 H1091 0.985 . S
H1088 N1083 0.984 . S
H1089 N1083 0.985 . S
H1090 N1087 0.984 . S
H1091 N1087 0.985 . S
H1092 N1086 0.984 . S
H1093 N1086 0.984 . S
H1094 N1082 0.984 . S
H1095 N1082 0.985 . S
C1096 C1097 1.363 . S
C1096 C1102 1.379 . S
C1096 N1104 1.356 . S
C1097 C1096 1.363 . S
C1097 C1103 1.363 . S
C1098 C1099 1.363 . S
C1098 C1103 1.379 . S
C1098 N1105 1.356 . S
C1099 C1098 1.363 . S
C1099 C1102 1.363 . S
N1100 C1102 1.356 . S
N1100 H1112 0.984 1_655 S
N1100 H1113 0.985 . S
N1101 C1103 1.356 . S
N1101 H1106 0.984 . S
N1101 H1107 0.985 . S
C1102 C1096 1.379 . S
C1102 C1099 1.363 . S
C1102 N1100 1.356 . S
C1103 C1097 1.363 . S
C1103 C1098 1.379 . S
C1103 N1101 1.356 . S
N1104 C1096 1.356 . S
N1104 H1110 0.984 1_655 S
N1104 H1111 0.984 . S
N1105 C1098 1.356 . S
N1105 H1108 0.984 . S
N1105 H1109 0.985 . S
H1106 N1101 0.984 . S
H1107 N1101 0.985 . S
H1108 N1105 0.984 . S
H1109 N1105 0.985 . S
H1110 N1104 0.984 1_455 S
H1111 N1104 0.984 . S
H1112 N1100 0.984 1_455 S
H1113 N1100 0.985 . S
C1114 C1115 1.363 . S
C1114 C1120 1.379 . S
C1114 N1122 1.356 . S
C1115 C1114 1.363 . S
C1115 C1121 1.363 . S
C1116 C1117 1.363 . S
C1116 C1121 1.379 . S
C1116 N1123 1.356 . S
C1117 C1116 1.363 . S
C1117 C1120 1.363 . S
N1118 C1120 1.356 . S
N1118 H1130 0.984 . S
N1118 H1131 0.985 . S
N1119 C1121 1.356 . S
N1119 H1124 0.984 . S
N1119 H1125 0.985 . S
C1120 C1114 1.379 . S
C1120 C1117 1.363 . S
C1120 N1118 1.356 . S
C1121 C1115 1.363 . S
C1121 C1116 1.379 . S
C1121 N1119 1.356 . S
N1122 C1114 1.356 . S
N1122 H1128 0.984 . S
N1122 H1129 0.984 . S
N1123 C1116 1.356 . S
N1123 H1126 0.984 . S
N1123 H1127 0.985 . S
H1124 N1119 0.984 . S
H1125 N1119 0.985 . S
H1126 N1123 0.984 . S
H1127 N1123 0.985 . S
H1128 N1122 0.984 . S
H1129 N1122 0.984 . S
H1130 N1118 0.984 . S
H1131 N1118 0.985 . S
C1132 C1133 1.363 . S
C1132 C1138 1.379 . S
C1132 N1140 1.356 . S
C1133 C1132 1.363 . S
C1133 C1139 1.363 . S
C1134 C1135 1.363 . S
C1134 C1139 1.379 . S
C1134 N1141 1.356 . S
C1135 C1134 1.363 . S
C1135 C1138 1.363 . S
N1136 C1138 1.356 . S
N1136 H1148 0.984 . S
N1136 H1149 0.985 . S
N1137 C1139 1.356 . S
N1137 H1142 0.984 . S
N1137 H1143 0.985 . S
C1138 C1132 1.379 . S
C1138 C1135 1.363 . S
C1138 N1136 1.356 . S
C1139 C1133 1.363 . S
C1139 C1134 1.379 . S
C1139 N1137 1.356 . S
N1140 C1132 1.356 . S
N1140 H1146 0.984 . S
N1140 H1147 0.984 . S
N1141 C1134 1.356 . S
N1141 H1144 0.984 . S
N1141 H1145 0.985 . S
H1142 N1137 0.984 . S
H1143 N1137 0.985 . S
H1144 N1141 0.984 . S
H1145 N1141 0.985 . S
H1146 N1140 0.984 . S
H1147 N1140 0.984 . S
H1148 N1136 0.984 . S
H1149 N1136 0.985 . S
C1150 C1151 1.363 . S
C1150 C1156 1.379 . S
C1150 N1158 1.356 . S
C1151 C1150 1.363 . S
C1151 C1157 1.363 . S
C1152 C1153 1.363 . S
C1152 C1157 1.379 . S
C1152 N1159 1.356 . S
C1153 C1152 1.363 . S
C1153 C1156 1.363 . S
N1154 C1156 1.356 . S
N1154 H1166 0.984 . S
N1154 H1167 0.985 . S
N1155 C1157 1.356 . S
N1155 H1160 0.984 . S
N1155 H1161 0.985 . S
C1156 C1150 1.379 . S
C1156 C1153 1.363 . S
C1156 N1154 1.356 . S
C1157 C1151 1.363 . S
C1157 C1152 1.379 . S
C1157 N1155 1.356 . S
N1158 C1150 1.356 . S
N1158 H1164 0.984 . S
N1158 H1165 0.984 . S
N1159 C1152 1.356 . S
N1159 H1162 0.984 . S
N1159 H1163 0.985 . S
H1160 N1155 0.984 . S
H1161 N1155 0.985 . S
H1162 N1159 0.984 . S
H1163 N1159 0.985 . S
H1164 N1158 0.984 . S
H1165 N1158 0.984 . S
H1166 N1154 0.984 . S
H1167 N1154 0.985 . S
C1168 C1169 1.363 . S
C1168 C1174 1.379 . S
C1168 N1176 1.356 . S
C1169 C1168 1.363 . S
C1169 C1175 1.363 . S
C1170 C1171 1.363 . S
C1170 C1175 1.379 . S
C1170 N1177 1.356 . S
C1171 C1170 1.363 . S
C1171 C1174 1.363 . S
N1172 C1174 1.356 . S
N1172 H1184 0.984 . S
N1172 H1185 0.985 . S
N1173 C1175 1.356 . S
N1173 H1178 0.984 . S
N1173 H1179 0.985 . S
C1174 C1168 1.379 . S
C1174 C1171 1.363 . S
C1174 N1172 1.356 . S
C1175 C1169 1.363 . S
C1175 C1170 1.379 . S
C1175 N1173 1.356 . S
N1176 C1168 1.356 . S
N1176 H1182 0.984 . S
N1176 H1183 0.984 . S
N1177 C1170 1.356 . S
N1177 H1180 0.984 . S
N1177 H1181 0.985 . S
H1178 N1173 0.984 . S
H1179 N1173 0.985 . S
H1180 N1177 0.984 . S
H1181 N1177 0.985 . S
H1182 N1176 0.984 . S
H1183 N1176 0.984 . S
H1184 N1172 0.984 . S
H1185 N1172 0.985 . S
C1186 C1187 1.363 . S
C1186 C1192 1.379 . S
C1186 N1194 1.356 . S
C1187 C1186 1.363 . S
C1187 C1193 1.363 . S
C1188 C1189 1.363 . S
C1188 C1193 1.379 . S
C1188 N1195 1.356 . S
C1189 C1188 1.363 . S
C1189 C1192 1.363 . S
N1190 C1192 1.356 . S
N1190 H1202 0.984 . S
N1190 H1203 0.985 . S
N1191 C1193 1.356 . S
N1191 H1196 0.984 . S
N1191 H1197 0.985 . S
C1192 C1186 1.379 . S
C1192 C1189 1.363 . S
C1192 N1190 1.356 . S
C1193 C1187 1.363 . S
C1193 C1188 1.379 . S
C1193 N1191 1.356 . S
N1194 C1186 1.356 . S
N1194 H1200 0.984 . S
N1194 H1201 0.984 . S
N1195 C1188 1.356 . S
N1195 H1198 0.984 . S
N1195 H1199 0.985 . S
H1196 N1191 0.984 . S
H1197 N1191 0.985 . S
H1198 N1195 0.984 . S
H1199 N1195 0.985 . S
H1200 N1194 0.984 . S
H1201 N1194 0.984 . S
H1202 N1190 0.984 . S
H1203 N1190 0.985 . S
C1204 C1205 1.363 . S
C1204 C1210 1.379 . S
C1204 N1212 1.356 . S
C1205 C1204 1.363 . S
C1205 C1211 1.363 . S
C1206 C1207 1.363 . S
C1206 C1211 1.379 . S
C1206 N1213 1.356 . S
C1207 C1206 1.363 . S
C1207 C1210 1.363 . S
N1208 C1210 1.356 . S
N1208 H1220 0.984 . S
N1208 H1221 0.985 . S
N1209 C1211 1.356 . S
N1209 H1214 0.984 . S
N1209 H1215 0.985 . S
C1210 C1204 1.379 . S
C1210 C1207 1.363 . S
C1210 N1208 1.356 . S
C1211 C1205 1.363 . S
C1211 C1206 1.379 . S
C1211 N1209 1.356 . S
N1212 C1204 1.356 . S
N1212 H1218 0.984 . S
N1212 H1219 0.984 . S
N1213 C1206 1.356 . S
N1213 H1216 0.984 . S
N1213 H1217 0.985 . S
H1214 N1209 0.984 . S
H1215 N1209 0.985 . S
H1216 N1213 0.984 . S
H1217 N1213 0.985 . S
H1218 N1212 0.984 . S
H1219 N1212 0.984 . S
H1220 N1208 0.984 . S
H1221 N1208 0.985 . S
C1222 C1223 1.363 . S
C1222 C1228 1.379 . S
C1222 N1230 1.356 . S
C1223 C1222 1.363 . S
C1223 C1229 1.363 . S
C1224 C1225 1.363 . S
C1224 C1229 1.379 . S
C1224 N1231 1.356 . S
C1225 C1224 1.363 . S
C1225 C1228 1.363 . S
N1226 C1228 1.356 . S
N1226 H1238 0.984 . S
N1226 H1239 0.985 . S
N1227 C1229 1.356 . S
N1227 H1232 0.984 . S
N1227 H1233 0.985 . S
C1228 C1222 1.379 . S
C1228 C1225 1.363 . S
C1228 N1226 1.356 . S
C1229 C1223 1.363 . S
C1229 C1224 1.379 . S
C1229 N1227 1.356 . S
N1230 C1222 1.356 . S
N1230 H1236 0.984 . S
N1230 H1237 0.984 . S
N1231 C1224 1.356 . S
N1231 H1234 0.984 . S
N1231 H1235 0.985 . S
H1232 N1227 0.984 . S
H1233 N1227 0.985 . S
H1234 N1231 0.984 . S
H1235 N1231 0.985 . S
H1236 N1230 0.984 . S
H1237 N1230 0.984 . S
H1238 N1226 0.984 . S
H1239 N1226 0.985 . S
C1240 C1241 1.363 . S
C1240 C1246 1.379 . S
C1240 N1248 1.356 . S
C1241 C1240 1.363 . S
C1241 C1247 1.363 . S
C1242 C1243 1.363 . S
C1242 C1247 1.379 . S
C1242 N1249 1.356 . S
C1243 C1242 1.363 . S
C1243 C1246 1.363 . S
N1244 C1246 1.356 . S
N1244 H1256 0.984 . S
N1244 H1257 0.985 . S
N1245 C1247 1.356 . S
N1245 H1250 0.984 . S
N1245 H1251 0.985 . S
C1246 C1240 1.379 . S
C1246 C1243 1.363 . S
C1246 N1244 1.356 . S
C1247 C1241 1.363 . S
C1247 C1242 1.379 . S
C1247 N1245 1.356 . S
N1248 C1240 1.356 . S
N1248 H1254 0.984 . S
N1248 H1255 0.984 . S
N1249 C1242 1.356 . S
N1249 H1252 0.984 . S
N1249 H1253 0.985 . S
H1250 N1245 0.984 . S
H1251 N1245 0.985 . S
H1252 N1249 0.984 . S
H1253 N1249 0.985 . S
H1254 N1248 0.984 . S
H1255 N1248 0.984 . S
H1256 N1244 0.984 . S
H1257 N1244 0.985 . S
C1258 C1259 1.363 . S
C1258 C1264 1.379 . S
C1258 N1266 1.356 . S
C1259 C1258 1.363 . S
C1259 C1265 1.363 . S
C1260 C1261 1.363 . S
C1260 C1265 1.379 . S
C1260 N1267 1.356 . S
C1261 C1260 1.363 . S
C1261 C1264 1.363 . S
N1262 C1264 1.356 . S
N1262 H1274 0.984 . S
N1262 H1275 0.985 . S
N1263 C1265 1.356 . S
N1263 H1268 0.984 . S
N1263 H1269 0.985 . S
C1264 C1258 1.379 . S
C1264 C1261 1.363 . S
C1264 N1262 1.356 . S
C1265 C1259 1.363 . S
C1265 C1260 1.379 . S
C1265 N1263 1.356 . S
N1266 C1258 1.356 . S
N1266 H1272 0.984 . S
N1266 H1273 0.984 . S
N1267 C1260 1.356 . S
N1267 H1270 0.984 . S
N1267 H1271 0.985 . S
H1268 N1263 0.984 . S
H1269 N1263 0.985 . S
H1270 N1267 0.984 . S
H1271 N1267 0.985 . S
H1272 N1266 0.984 . S
H1273 N1266 0.984 . S
H1274 N1262 0.984 . S
H1275 N1262 0.985 . S
C1276 C1277 1.363 . S
C1276 C1282 1.379 . S
C1276 N1284 1.356 . S
C1277 C1276 1.363 . S
C1277 C1283 1.363 . S
C1278 C1279 1.363 . S
C1278 C1283 1.379 . S
C1278 N1285 1.356 . S
C1279 C1278 1.363 . S
C1279 C1282 1.363 . S
N1280 C1282 1.356 . S
N1280 H1292 0.984 . S
N1280 H1293 0.985 . S
N1281 C1283 1.356 . S
N1281 H1286 0.984 . S
N1281 H1287 0.985 . S
C1282 C1276 1.379 . S
C1282 C1279 1.363 . S
C1282 N1280 1.356 . S
C1283 C1277 1.363 . S
C1283 C1278 1.379 . S
C1283 N1281 1.356 . S
N1284 C1276 1.356 . S
N1284 H1290 0.984 . S
N1284 H1291 0.984 . S
N1285 C1278 1.356 . S
N1285 H1288 0.984 . S
N1285 H1289 0.985 . S
H1286 N1281 0.984 . S
H1287 N1281 0.985 . S
H1288 N1285 0.984 . S
H1289 N1285 0.985 . S
H1290 N1284 0.984 . S
H1291 N1284 0.984 . S
H1292 N1280 0.984 . S
H1293 N1280 0.985 . S
C1294 C1295 1.363 . S
C1294 C1300 1.379 . S
C1294 N1302 1.356 . S
C1295 C1294 1.363 . S
C1295 C1301 1.363 . S
C1296 C1297 1.363 . S
C1296 C1301 1.379 . S
C1296 N1303 1.356 . S
C1297 C1296 1.363 . S
C1297 C1300 1.363 . S
N1298 C1300 1.356 . S
N1298 H1310 0.984 . S
N1298 H1311 0.985 . S
N1299 C1301 1.356 . S
N1299 H1304 0.984 . S
N1299 H1305 0.985 . S
C1300 C1294 1.379 . S
C1300 C1297 1.363 . S
C1300 N1298 1.356 . S
C1301 C1295 1.363 . S
C1301 C1296 1.379 . S
C1301 N1299 1.356 . S
N1302 C1294 1.356 . S
N1302 H1308 0.984 . S
N1302 H1309 0.984 . S
N1303 C1296 1.356 . S
N1303 H1306 0.984 . S
N1303 H1307 0.985 . S
H1304 N1299 0.984 . S
H1305 N1299 0.985 . S
H1306 N1303 0.984 . S
H1307 N1303 0.985 . S
H1308 N1302 0.984 . S
H1309 N1302 0.984 . S
H1310 N1298 0.984 . S
H1311 N1298 0.985 . S
C1312 C1313 1.363 . S
C1312 C1318 1.379 . S
C1312 N1320 1.356 . S
C1313 C1312 1.363 . S
C1313 C1319 1.363 . S
C1314 C1315 1.363 . S
C1314 C1319 1.379 . S
C1314 N1321 1.356 . S
C1315 C1314 1.363 . S
C1315 C1318 1.363 . S
N1316 C1318 1.356 . S
N1316 H1328 0.984 . S
N1316 H1329 0.985 . S
N1317 C1319 1.356 . S
N1317 H1322 0.984 . S
N1317 H1323 0.985 . S
C1318 C1312 1.379 . S
C1318 C1315 1.363 . S
C1318 N1316 1.356 . S
C1319 C1313 1.363 . S
C1319 C1314 1.379 . S
C1319 N1317 1.356 . S
N1320 C1312 1.356 . S
N1320 H1326 0.984 . S
N1320 H1327 0.984 . S
N1321 C1314 1.356 . S
N1321 H1324 0.984 . S
N1321 H1325 0.985 . S
H1322 N1317 0.984 . S
H1323 N1317 0.985 . S
H1324 N1321 0.984 . S
H1325 N1321 0.985 . S
H1326 N1320 0.984 . S
H1327 N1320 0.984 . S
H1328 N1316 0.984 . S
H1329 N1316 0.985 . S
C1330 C1331 1.363 . S
C1330 C1336 1.379 . S
C1330 N1338 1.356 . S
C1331 C1330 1.363 . S
C1331 C1337 1.363 . S
C1332 C1333 1.363 . S
C1332 C1337 1.379 . S
C1332 N1339 1.356 . S
C1333 C1332 1.363 . S
C1333 C1336 1.363 . S
N1334 C1336 1.356 . S
N1334 H1346 0.984 . S
N1334 H1347 0.985 . S
N1335 C1337 1.356 . S
N1335 H1340 0.984 . S
N1335 H1341 0.985 . S
C1336 C1330 1.379 . S
C1336 C1333 1.363 . S
C1336 N1334 1.356 . S
C1337 C1331 1.363 . S
C1337 C1332 1.379 . S
C1337 N1335 1.356 . S
N1338 C1330 1.356 . S
N1338 H1344 0.984 . S
N1338 H1345 0.984 . S
N1339 C1332 1.356 . S
N1339 H1342 0.984 1_655 S
N1339 H1343 0.985 . S
H1340 N1335 0.984 . S
H1341 N1335 0.985 . S
H1342 N1339 0.984 1_455 S
H1343 N1339 0.985 . S
H1344 N1338 0.984 . S
H1345 N1338 0.984 . S
H1346 N1334 0.984 . S
H1347 N1334 0.985 . S
C1348 C1349 1.363 1_556 S
C1348 C1354 1.379 . S
C1348 N1356 1.356 . S
C1349 C1348 1.363 1_554 S
C1349 C1355 1.363 . S
C1350 C1351 1.363 . S
C1350 C1355 1.379 . S
C1350 N1357 1.356 . S
C1351 C1350 1.363 . S
C1351 C1354 1.363 1_554 S
N1352 C1354 1.356 . S
N1352 H1364 0.984 . S
N1352 H1365 0.985 . S
N1353 C1355 1.356 . S
N1353 H1358 0.984 . S
N1353 H1359 0.985 . S
C1354 C1348 1.379 . S
C1354 C1351 1.363 1_556 S
C1354 N1352 1.356 . S
C1355 C1349 1.363 . S
C1355 C1350 1.379 . S
C1355 N1353 1.356 . S
N1356 C1348 1.356 . S
N1356 H1362 0.984 . S
N1356 H1363 0.984 . S
N1357 C1350 1.356 . S
N1357 H1360 0.984 . S
N1357 H1361 0.985 . S
H1358 N1353 0.984 . S
H1359 N1353 0.985 . S
H1360 N1357 0.984 . S
H1361 N1357 0.985 . S
H1362 N1356 0.984 . S
H1363 N1356 0.984 . S
H1364 N1352 0.984 . S
H1365 N1352 0.985 . S
C1366 C1367 1.363 1_556 S
C1366 C1372 1.379 . S
C1366 N1374 1.356 . S
C1367 C1366 1.363 1_554 S
C1367 C1373 1.363 . S
C1368 C1369 1.363 . S
C1368 C1373 1.379 . S
C1368 N1375 1.356 . S
C1369 C1368 1.363 . S
C1369 C1372 1.363 1_554 S
N1370 C1372 1.356 . S
N1370 H1382 0.984 . S
N1370 H1383 0.985 . S
N1371 C1373 1.356 . S
N1371 H1376 0.984 . S
N1371 H1377 0.985 . S
C1372 C1366 1.379 . S
C1372 C1369 1.363 1_556 S
C1372 N1370 1.356 . S
C1373 C1367 1.363 . S
C1373 C1368 1.379 . S
C1373 N1371 1.356 . S
N1374 C1366 1.356 . S
N1374 H1380 0.984 . S
N1374 H1381 0.984 1_655 S
N1375 C1368 1.356 . S
N1375 H1378 0.984 . S
N1375 H1379 0.985 . S
H1376 N1371 0.984 . S
H1377 N1371 0.985 . S
H1378 N1375 0.984 . S
H1379 N1375 0.985 . S
H1380 N1374 0.984 . S
H1381 N1374 0.984 1_455 S
H1382 N1370 0.984 . S
H1383 N1370 0.985 . S
C1384 C1385 1.363 . S
C1384 C1390 1.379 . S
C1384 N1392 1.356 . S
C1385 C1384 1.363 . S
C1385 C1391 1.363 . S
C1386 C1387 1.363 . S
C1386 C1391 1.379 . S
C1386 N1393 1.356 . S
C1387 C1386 1.363 . S
C1387 C1390 1.363 . S
N1388 C1390 1.356 . S
N1388 H1400 0.984 . S
N1388 H1401 0.985 . S
N1389 C1391 1.356 . S
N1389 H1394 0.984 . S
N1389 H1395 0.985 . S
C1390 C1384 1.379 . S
C1390 C1387 1.363 . S
C1390 N1388 1.356 . S
C1391 C1385 1.363 . S
C1391 C1386 1.379 . S
C1391 N1389 1.356 . S
N1392 C1384 1.356 . S
N1392 H1398 0.984 . S
N1392 H1399 0.984 . S
N1393 C1386 1.356 . S
N1393 H1396 0.984 . S
N1393 H1397 0.985 . S
H1394 N1389 0.984 . S
H1395 N1389 0.985 . S
H1396 N1393 0.984 . S
H1397 N1393 0.985 . S
H1398 N1392 0.984 . S
H1399 N1392 0.984 . S
H1400 N1388 0.984 . S
H1401 N1388 0.985 . S
C1402 C1403 1.363 . S
C1402 C1408 1.379 . S
C1402 N1410 1.356 . S
C1403 C1402 1.363 . S
C1403 C1409 1.363 . S
C1404 C1405 1.363 . S
C1404 C1409 1.379 . S
C1404 N1411 1.356 . S
C1405 C1404 1.363 . S
C1405 C1408 1.363 . S
N1406 C1408 1.356 . S
N1406 H1418 0.984 . S
N1406 H1419 0.985 . S
N1407 C1409 1.356 . S
N1407 H1412 0.984 1_455 S
N1407 H1413 0.985 . S
C1408 C1402 1.379 . S
C1408 C1405 1.363 . S
C1408 N1406 1.356 . S
C1409 C1403 1.363 . S
C1409 C1404 1.379 . S
C1409 N1407 1.356 . S
N1410 C1402 1.356 . S
N1410 H1416 0.984 . S
N1410 H1417 0.984 . S
N1411 C1404 1.356 . S
N1411 H1414 0.984 . S
N1411 H1415 0.985 . S
H1412 N1407 0.984 1_655 S
H1413 N1407 0.985 . S
H1414 N1411 0.984 . S
H1415 N1411 0.985 . S
H1416 N1410 0.984 . S
H1417 N1410 0.984 . S
H1418 N1406 0.984 . S
H1419 N1406 0.985 . S
C1420 C1421 1.359 1_556 S
C1420 C1426 1.379 . S
C1420 N1428 1.356 . S
C1421 C1420 1.359 1_554 S
C1421 C1427 1.367 . S
C1422 C1423 1.367 . S
C1422 C1427 1.379 . S
C1422 N1429 1.356 . S
C1423 C1422 1.367 . S
C1423 C1426 1.359 1_554 S
N1424 C1426 1.356 . S
N1424 H1436 0.984 . S
N1424 H1437 0.985 . S
N1425 C1427 1.356 . S
N1425 H1430 0.984 . S
N1425 H1431 0.985 . S
C1426 C1420 1.379 . S
C1426 C1423 1.359 1_556 S
C1426 N1424 1.356 . S
C1427 C1421 1.367 . S
C1427 C1422 1.379 . S
C1427 N1425 1.356 . S
N1428 C1420 1.356 . S
N1428 H1434 0.984 . S
N1428 H1435 0.984 . S
N1429 C1422 1.356 . S
N1429 H1432 0.984 . S
N1429 H1433 0.985 . S
H1430 N1425 0.984 . S
H1431 N1425 0.985 . S
H1432 N1429 0.984 . S
H1433 N1429 0.985 . S
H1434 N1428 0.984 . S
H1435 N1428 0.984 . S
H1436 N1424 0.984 . S
H1437 N1424 0.985 . S
C1438 C1439 1.359 1_556 S
C1438 C1444 1.379 . S
C1438 N1446 1.356 . S
C1439 C1438 1.359 1_554 S
C1439 C1445 1.367 . S
C1440 C1441 1.367 . S
C1440 C1445 1.379 . S
C1440 N1447 1.356 . S
C1441 C1440 1.367 . S
C1441 C1444 1.359 1_554 S
N1442 C1444 1.356 . S
N1442 H1454 0.984 . S
N1442 H1455 0.985 . S
N1443 C1445 1.356 . S
N1443 H1448 0.984 . S
N1443 H1449 0.985 . S
C1444 C1438 1.379 . S
C1444 C1441 1.359 1_556 S
C1444 N1442 1.356 . S
C1445 C1439 1.367 . S
C1445 C1440 1.379 . S
C1445 N1443 1.356 . S
N1446 C1438 1.356 . S
N1446 H1452 0.984 . S
N1446 H1453 0.984 . S
N1447 C1440 1.356 . S
N1447 H1450 0.984 1_455 S
N1447 H1451 0.985 . S
H1448 N1443 0.984 . S
H1449 N1443 0.985 . S
H1450 N1447 0.984 1_655 S
H1451 N1447 0.985 . S
H1452 N1446 0.984 . S
H1453 N1446 0.984 . S
H1454 N1442 0.984 . S
H1455 N1442 0.985 . S
C1456 C1457 1.363 . S
C1456 C1462 1.379 . S
C1456 N1464 1.356 . S
C1457 C1456 1.363 . S
C1457 C1463 1.363 . S
C1458 C1459 1.363 . S
C1458 C1463 1.379 . S
C1458 N1465 1.356 . S
C1459 C1458 1.363 . S
C1459 C1462 1.363 . S
N1460 C1462 1.356 . S
N1460 H1472 0.984 . S
N1460 H1473 0.985 . S
N1461 C1463 1.356 . S
N1461 H1466 0.984 . S
N1461 H1467 0.985 . S
C1462 C1456 1.379 . S
C1462 C1459 1.363 . S
C1462 N1460 1.356 . S
C1463 C1457 1.363 . S
C1463 C1458 1.379 . S
C1463 N1461 1.356 . S
N1464 C1456 1.356 . S
N1464 H1470 0.984 . S
N1464 H1471 0.984 . S
N1465 C1458 1.356 . S
N1465 H1468 0.984 . S
N1465 H1469 0.985 . S
H1466 N1461 0.984 . S
H1467 N1461 0.985 . S
H1468 N1465 0.984 . S
H1469 N1465 0.985 . S
H1470 N1464 0.984 . S
H1471 N1464 0.984 . S
H1472 N1460 0.984 . S
H1473 N1460 0.985 . S
C1474 C1475 1.363 . S
C1474 C1480 1.379 . S
C1474 N1482 1.356 . S
C1475 C1474 1.363 . S
C1475 C1481 1.363 . S
C1476 C1477 1.363 . S
C1476 C1481 1.379 . S
C1476 N1483 1.356 . S
C1477 C1476 1.363 . S
C1477 C1480 1.363 . S
N1478 C1480 1.356 . S
N1478 H1490 0.984 . S
N1478 H1491 0.985 1_655 S
N1479 C1481 1.356 . S
N1479 H1484 0.984 . S
N1479 H1485 0.985 . S
C1480 C1474 1.379 . S
C1480 C1477 1.363 . S
C1480 N1478 1.356 . S
C1481 C1475 1.363 . S
C1481 C1476 1.379 . S
C1481 N1479 1.356 . S
N1482 C1474 1.356 . S
N1482 H1488 0.984 . S
N1482 H1489 0.984 . S
N1483 C1476 1.356 . S
N1483 H1486 0.984 . S
N1483 H1487 0.985 . S
H1484 N1479 0.984 . S
H1485 N1479 0.985 . S
H1486 N1483 0.984 . S
H1487 N1483 0.985 . S
H1488 N1482 0.984 . S
H1489 N1482 0.984 . S
H1490 N1478 0.984 . S
H1491 N1478 0.985 1_455 S
C1492 C1493 1.363 . S
C1492 C1498 1.379 . S
C1492 N1500 1.356 . S
C1493 C1492 1.363 . S
C1493 C1499 1.363 . S
C1494 C1495 1.363 . S
C1494 C1499 1.379 . S
C1494 N1501 1.356 . S
C1495 C1494 1.363 . S
C1495 C1498 1.363 . S
N1496 C1498 1.356 . S
N1496 H1508 0.984 . S
N1496 H1509 0.985 . S
N1497 C1499 1.356 . S
N1497 H1502 0.984 . S
N1497 H1503 0.985 . S
C1498 C1492 1.379 . S
C1498 C1495 1.363 . S
C1498 N1496 1.356 . S
C1499 C1493 1.363 . S
C1499 C1494 1.379 . S
C1499 N1497 1.356 . S
N1500 C1492 1.356 . S
N1500 H1506 0.984 . S
N1500 H1507 0.984 . S
N1501 C1494 1.356 . S
N1501 H1504 0.984 . S
N1501 H1505 0.985 . S
H1502 N1497 0.984 . S
H1503 N1497 0.985 . S
H1504 N1501 0.984 . S
H1505 N1501 0.985 . S
H1506 N1500 0.984 . S
H1507 N1500 0.984 . S
H1508 N1496 0.984 . S
H1509 N1496 0.985 . S
C1510 C1511 1.363 . S
C1510 C1516 1.379 . S
C1510 N1518 1.356 . S
C1511 C1510 1.363 . S
C1511 C1517 1.363 . S
C1512 C1513 1.363 . S
C1512 C1517 1.379 . S
C1512 N1519 1.356 . S
C1513 C1512 1.363 . S
C1513 C1516 1.363 . S
N1514 C1516 1.356 . S
N1514 H1526 0.984 . S
N1514 H1527 0.985 . S
N1515 C1517 1.356 . S
N1515 H1520 0.984 . S
N1515 H1521 0.985 . S
C1516 C1510 1.379 . S
C1516 C1513 1.363 . S
C1516 N1514 1.356 . S
C1517 C1511 1.363 . S
C1517 C1512 1.379 . S
C1517 N1515 1.356 . S
N1518 C1510 1.356 . S
N1518 H1524 0.984 . S
N1518 H1525 0.984 1_655 S
N1519 C1512 1.356 . S
N1519 H1522 0.984 . S
N1519 H1523 0.985 . S
H1520 N1515 0.984 . S
H1521 N1515 0.985 . S
H1522 N1519 0.984 . S
H1523 N1519 0.985 . S
H1524 N1518 0.984 . S
H1525 N1518 0.984 1_455 S
H1526 N1514 0.984 . S
H1527 N1514 0.985 . S
C1528 C1529 1.363 . S
C1528 C1534 1.379 . S
C1528 N1536 1.356 . S
C1529 C1528 1.363 . S
C1529 C1535 1.363 . S
C1530 C1531 1.363 . S
C1530 C1535 1.379 . S
C1530 N1537 1.356 . S
C1531 C1530 1.363 . S
C1531 C1534 1.363 . S
N1532 C1534 1.356 . S
N1532 H1544 0.984 . S
N1532 H1545 0.985 . S
N1533 C1535 1.356 . S
N1533 H1538 0.984 . S
N1533 H1539 0.985 . S
C1534 C1528 1.379 . S
C1534 C1531 1.363 . S
C1534 N1532 1.356 . S
C1535 C1529 1.363 . S
C1535 C1530 1.379 . S
C1535 N1533 1.356 . S
N1536 C1528 1.356 . S
N1536 H1542 0.984 . S
N1536 H1543 0.984 . S
N1537 C1530 1.356 . S
N1537 H1540 0.984 . S
N1537 H1541 0.985 . S
H1538 N1533 0.984 . S
H1539 N1533 0.985 . S
H1540 N1537 0.984 . S
H1541 N1537 0.985 . S
H1542 N1536 0.984 . S
H1543 N1536 0.984 . S
H1544 N1532 0.984 . S
H1545 N1532 0.985 . S
C1546 C1547 1.363 . S
C1546 C1552 1.379 . S
C1546 N1554 1.356 . S
C1547 C1546 1.363 . S
C1547 C1553 1.363 . S
C1548 C1549 1.363 . S
C1548 C1553 1.379 . S
C1548 N1555 1.356 . S
C1549 C1548 1.363 . S
C1549 C1552 1.363 . S
N1550 C1552 1.356 . S
N1550 H1562 0.984 . S
N1550 H1563 0.985 . S
N1551 C1553 1.356 . S
N1551 H1556 0.984 . S
N1551 H1557 0.985 . S
C1552 C1546 1.379 . S
C1552 C1549 1.363 . S
C1552 N1550 1.356 . S
C1553 C1547 1.363 . S
C1553 C1548 1.379 . S
C1553 N1551 1.356 . S
N1554 C1546 1.356 . S
N1554 H1560 0.984 . S
N1554 H1561 0.984 1_455 S
N1555 C1548 1.356 . S
N1555 H1558 0.984 . S
N1555 H1559 0.985 . S
H1556 N1551 0.984 . S
H1557 N1551 0.985 . S
H1558 N1555 0.984 . S
H1559 N1555 0.985 . S
H1560 N1554 0.984 . S
H1561 N1554 0.984 1_655 S
H1562 N1550 0.984 . S
H1563 N1550 0.985 . S
C1564 C1565 1.363 . S
C1564 C1570 1.379 . S
C1564 N1572 1.356 . S
C1565 C1564 1.363 . S
C1565 C1571 1.363 . S
C1566 C1567 1.363 . S
C1566 C1571 1.379 . S
C1566 N1573 1.356 . S
C1567 C1566 1.363 . S
C1567 C1570 1.363 . S
N1568 C1570 1.356 . S
N1568 H1580 0.984 . S
N1568 H1581 0.985 . S
N1569 C1571 1.356 . S
N1569 H1574 0.984 . S
N1569 H1575 0.985 . S
C1570 C1564 1.379 . S
C1570 C1567 1.363 . S
C1570 N1568 1.356 . S
C1571 C1565 1.363 . S
C1571 C1566 1.379 . S
C1571 N1569 1.356 . S
N1572 C1564 1.356 . S
N1572 H1578 0.984 . S
N1572 H1579 0.984 . S
N1573 C1566 1.356 . S
N1573 H1576 0.984 . S
N1573 H1577 0.985 . S
H1574 N1569 0.984 . S
H1575 N1569 0.985 . S
H1576 N1573 0.984 . S
H1577 N1573 0.985 . S
H1578 N1572 0.984 . S
H1579 N1572 0.984 . S
H1580 N1568 0.984 . S
H1581 N1568 0.985 . S
C1582 C1583 1.363 . S
C1582 C1588 1.379 . S
C1582 N1590 1.356 . S
C1583 C1582 1.363 . S
C1583 C1589 1.363 . S
C1584 C1585 1.363 . S
C1584 C1589 1.379 . S
C1584 N1591 1.356 . S
C1585 C1584 1.363 . S
C1585 C1588 1.363 . S
N1586 C1588 1.356 . S
N1586 H1598 0.984 . S
N1586 H1599 0.985 . S
N1587 C1589 1.356 . S
N1587 H1592 0.984 . S
N1587 H1593 0.985 . S
C1588 C1582 1.379 . S
C1588 C1585 1.363 . S
C1588 N1586 1.356 . S
C1589 C1583 1.363 . S
C1589 C1584 1.379 . S
C1589 N1587 1.356 . S
N1590 C1582 1.356 . S
N1590 H1596 0.984 . S
N1590 H1597 0.984 1_455 S
N1591 C1584 1.356 . S
N1591 H1594 0.984 . S
N1591 H1595 0.985 . S
H1592 N1587 0.984 . S
H1593 N1587 0.985 . S
H1594 N1591 0.984 . S
H1595 N1591 0.985 . S
H1596 N1590 0.984 . S
H1597 N1590 0.984 1_655 S
H1598 N1586 0.984 . S
H1599 N1586 0.985 . S
C449 C5 1.235 . S
C451 C47 1.240 . S
C467 C33 1.236 . S
C469 C19 1.239 . S
C485 C65 1.499 . S
C487 C107 1.503 . S
C503 C93 1.499 . S
C505 C79 1.503 . S
C521 C117 1.211 . S
C523 C159 1.211 . S
C539 C145 1.211 . S
C541 C131 1.211 . S
C557 C177 1.476 . S
C559 C219 1.475 . S
C575 C191 1.476 . S
C577 C205 1.475 . S
C593 C271 1.211 . S
C595 C229 1.211 . S
C611 C243 1.211 . S
C613 C257 1.211 . S
C629 C289 1.476 . S
C631 C331 1.475 . S
C647 C317 1.475 . S
C649 C303 1.476 . S
C665 C341 1.235 . S
C667 C383 1.240 . S
C683 C369 1.236 . S
C685 C355 1.239 . S
C701 C401 1.499 . S
C703 C443 1.503 . S
C719 C415 1.499 . S
C721 C429 1.503 . S
C737 C179 1.522 . S
C739 C0 1.519 . S
C755 C14 1.519 . S
C757 C305 1.522 . S
C773 C28 1.499 1_556 S
C775 C95 1.505 . S
C791 C445 1.505 . S
C793 C42 1.499 1_556 S
C809 C67 1.522 . S
C811 C112 1.519 . S
C827 C238 1.519 . S
C829 C81 1.522 . S
C845 C378 1.499 1_556 S
C847 C109 1.505 . S
C863 C417 1.522 . S
C865 C126 1.519 . S
C881 C207 1.507 . S
C883 C140 1.503 . S
C899 C333 1.507 . S
C901 C154 1.503 . S
C917 C193 1.522 . S
C919 C350 1.519 . S
C935 C266 1.503 . S
C937 C221 1.507 . S
C953 C403 1.522 . S
C955 C224 1.519 . S
C971 C319 1.507 . S
C973 C252 1.503 . S
C989 C336 1.519 . S
C991 C291 1.522 . S
C1007 C364 1.499 1_556 S
C1009 C431 1.505 . S
C1025 C151 1.447 . S
C1027 C11 1.445 . S
C1043 C25 1.445 . S
C1045 C165 1.447 . S
C1061 C123 1.419 . S
C1063 C39 1.416 . S
C1079 C137 1.419 . S
C1081 C53 1.416 . S
C1097 C56 1.666 . S
C1099 C196 1.667 . S
C1115 C70 1.666 . S
C1117 C210 1.667 . S
C1133 C168 1.640 . S
C1135 C84 1.637 . S
C1151 C98 1.641 . S
C1153 C182 1.635 . S
C1169 C375 1.420 . S
C1171 C235 1.415 . S
C1187 C389 1.420 . S
C1189 C249 1.415 . S
C1205 C263 1.447 . S
C1207 C347 1.445 . S
C1223 C277 1.447 . S
C1225 C361 1.445 . S
C1241 C280 1.640 . S
C1243 C420 1.637 . S
C1259 C294 1.640 . S
C1261 C434 1.637 . S
C1277 C392 1.666 . S
C1279 C308 1.667 . S
C1295 C406 1.666 . S
C1297 C322 1.667 . S
C1313 C9 1.450 . S
C1315 C359 1.450 . S
C1331 C345 1.450 . S
C1333 C23 1.432 1_655 S
C1349 C37 1.438 . S
C1351 C387 1.438 . S
C1367 C51 1.439 . S
C1369 C373 1.438 . S
C1385 C61 1.477 . S
C1387 C411 1.477 . S
C1403 C75 1.477 1_455 S
C1405 C397 1.477 . S
C1421 C439 1.464 . S
C1423 C89 1.464 . S
C1439 C425 1.464 . S
C1441 C103 1.464 1_455 S
C1457 C247 1.449 . S
C1459 C121 1.449 . S
C1475 C233 1.449 . S
C1477 C135 1.433 1_655 S
C1493 C149 1.438 . S
C1495 C275 1.438 . S
C1511 C163 1.437 . S
C1513 C261 1.438 . S
C1529 C299 1.476 . S
C1531 C173 1.476 . S
C1547 C187 1.476 1_455 S
C1549 C285 1.476 . S
C1565 C201 1.465 . S
C1567 C327 1.465 . S
C1583 C215 1.465 1_455 S
C1585 C313 1.465 . S
