# Generated by pormake.
# Topology wke, (5)-cn, num edge types: 1
# Building blocks:
#     Node 0, Type 0, BuildingBlock: XOMCOT_clean_sbu_1, # of connection points: 5
#     Node 1, Type 0, BuildingBlock: XOMCOT_clean_sbu_1, # of connection points: 5
#     Node 2, Type 0, BuildingBlock: XOMCOT_clean_sbu_1, # of connection points: 5
#     Node 3, Type 0, BuildingBlock: XOMCOT_clean_sbu_1, # of connection points: 5
#     Node 4, Type 0, BuildingBlock: XOMCOT_clean_sbu_1, # of connection points: 5
#     Node 5, Type 0, BuildingBlock: XOMCOT_clean_sbu_1, # of connection points: 5
#     Node 6, Type 0, BuildingBlock: XOMCOT_clean_sbu_1, # of connection points: 5
#     Node 7, Type 0, BuildingBlock: XOMCOT_clean_sbu_1, # of connection points: 5
#     Node 8, Type 0, BuildingBlock: XOMCOT_clean_sbu_1, # of connection points: 5
#     Node 9, Type 0, BuildingBlock: XOMCOT_clean_sbu_1, # of connection points: 5
#     Node 10, Type 0, BuildingBlock: XOMCOT_clean_sbu_1, # of connection points: 5
#     Node 11, Type 0, BuildingBlock: XOMCOT_clean_sbu_1, # of connection points: 5
#     Edge 12, Type (0, 0), BuildingBlock: XUDNAN_clean_linker_2, # of connection points: 2
#     Edge 13, Type (0, 0), BuildingBlock: XUDNAN_clean_linker_2, # of connection points: 2
#     Edge 14, Type (0, 0), BuildingBlock: XUDNAN_clean_linker_2, # of connection points: 2
#     Edge 15, Type (0, 0), BuildingBlock: XUDNAN_clean_linker_2, # of connection points: 2
#     Edge 16, Type (0, 0), BuildingBlock: XUDNAN_clean_linker_2, # of connection points: 2
#     Edge 17, Type (0, 0), BuildingBlock: XUDNAN_clean_linker_2, # of connection points: 2
#     Edge 18, Type (0, 0), BuildingBlock: XUDNAN_clean_linker_2, # of connection points: 2
#     Edge 19, Type (0, 0), BuildingBlock: XUDNAN_clean_linker_2, # of connection points: 2
#     Edge 20, Type (0, 0), BuildingBlock: XUDNAN_clean_linker_2, # of connection points: 2
#     Edge 21, Type (0, 0), BuildingBlock: XUDNAN_clean_linker_2, # of connection points: 2
#     Edge 22, Type (0, 0), BuildingBlock: XUDNAN_clean_linker_2, # of connection points: 2
#     Edge 23, Type (0, 0), BuildingBlock: XUDNAN_clean_linker_2, # of connection points: 2
#     Edge 24, Type (0, 0), BuildingBlock: XUDNAN_clean_linker_2, # of connection points: 2
#     Edge 25, Type (0, 0), BuildingBlock: XUDNAN_clean_linker_2, # of connection points: 2
#     Edge 26, Type (0, 0), BuildingBlock: XUDNAN_clean_linker_2, # of connection points: 2
#     Edge 27, Type (0, 0), BuildingBlock: XUDNAN_clean_linker_2, # of connection points: 2
#     Edge 28, Type (0, 0), BuildingBlock: XUDNAN_clean_linker_2, # of connection points: 2
#     Edge 29, Type (0, 0), BuildingBlock: XUDNAN_clean_linker_2, # of connection points: 2
#     Edge 30, Type (0, 0), BuildingBlock: XUDNAN_clean_linker_2, # of connection points: 2
#     Edge 31, Type (0, 0), BuildingBlock: XUDNAN_clean_linker_2, # of connection points: 2
#     Edge 32, Type (0, 0), BuildingBlock: XUDNAN_clean_linker_2, # of connection points: 2
#     Edge 33, Type (0, 0), BuildingBlock: XUDNAN_clean_linker_2, # of connection points: 2
#     Edge 34, Type (0, 0), BuildingBlock: XUDNAN_clean_linker_2, # of connection points: 2
#     Edge 35, Type (0, 0), BuildingBlock: XUDNAN_clean_linker_2, # of connection points: 2
#     Edge 36, Type (0, 0), BuildingBlock: XUDNAN_clean_linker_2, # of connection points: 2
#     Edge 37, Type (0, 0), BuildingBlock: XUDNAN_clean_linker_2, # of connection points: 2
#     Edge 38, Type (0, 0), BuildingBlock: XUDNAN_clean_linker_2, # of connection points: 2
#     Edge 39, Type (0, 0), BuildingBlock: XUDNAN_clean_linker_2, # of connection points: 2
#     Edge 40, Type (0, 0), BuildingBlock: XUDNAN_clean_linker_2, # of connection points: 2
#     Edge 41, Type (0, 0), BuildingBlock: XUDNAN_clean_linker_2, # of connection points: 2
# Relax obj value: 0.162
# Max RMSD: 0.151
# Mean RMSD: 0.151
data_MOF--net-wke--node1-XOMCOT_clean_sbu_1--edge1-XUDNAN_clean_linker_2
_symmetry_space_group_name_H-M    P1
_symmetry_Int_Tables_number       1
_symmetry_cell_setting            triclinic
loop_
_symmetry_equiv_pos_as_xyz
'x, y, z'
_cell_length_a     71.26972
_cell_length_b     71.386768
_cell_length_c     17.40087
_cell_angle_alpha  90.057819
_cell_angle_beta   89.811434
_cell_angle_gamma 119.95873
loop_
_atom_site_label
_atom_site_type_symbol
_atom_site_fract_x
_atom_site_fract_y
_atom_site_fract_z
_atom_type_partial_charge
C0 C 0.13879 0.4624 0.44821 0.0
C1 C 0.14163 0.46326 0.52666 0.0
N2 N 0.13333 0.44291 0.55266 0.0
N3 N 0.1283 0.44154 0.42547 0.0
C4 C 0.12544 0.43004 0.4905 0.0
H5 H 0.14329 0.47606 0.41061 0.0
Co6 Co 0.11752 0.43113 0.32744 0.0
C7 C 0.08035 0.38773 0.36824 0.0
O8 O 0.08643 0.37786 0.31882 0.0
N9 N 0.10654 0.4208 0.22912 0.0
C10 C 0.08495 0.41079 0.1271 0.0
C11 C 0.08597 0.41335 0.20558 0.0
C12 C 0.1177 0.4225 0.16397 0.0
N13 N 0.10492 0.41655 0.10113 0.0
O14 O 0.13216 0.41438 0.3276 0.0
H15 H 0.07275 0.41103 0.2426 0.0
H16 H 0.13507 0.42928 0.16184 0.0
O17 O 0.09142 0.40821 0.37509 0.0
C18 C 0.15182 0.42755 0.30879 0.0
O19 O 0.15722 0.4478 0.29625 0.0
N20 N 0.10546 0.44918 0.3235 0.0
C21 C 0.09359 0.48079 0.30762 0.0
C22 C 0.0827 0.46366 0.36001 0.0
C23 C 0.08901 0.44801 0.36758 0.0
C24 C 0.11604 0.46558 0.27217 0.0
C25 C 0.11032 0.48144 0.26299 0.0
H26 H 0.08101 0.43534 0.4098 0.0
H27 H 0.12925 0.46642 0.23857 0.0
H28 H 0.11688 0.41255 0.49288 0.0
H29 H 0.14879 0.47763 0.56217 0.0
H30 H 0.07078 0.40569 0.09155 0.0
H31 H 0.06987 0.4627 0.39628 0.0
H32 H 0.119 0.49416 0.22119 0.0
C33 C 0.68926 0.13893 0.91925 0.0
C34 C 0.69104 0.1439 0.99609 0.0
N35 N 0.69638 0.13074 0.03374 0.0
N36 N 0.6934 0.12268 0.90814 0.0
C37 C 0.69768 0.11796 0.97899 0.0
H38 H 0.68532 0.14675 0.87399 0.0
Co39 Co 0.69363 0.11182 0.81133 0.0
C40 C 0.67756 0.06508 0.84491 0.0
O41 O 0.66427 0.05958 0.78622 0.0
N42 N 0.69466 0.10185 0.71112 0.0
C43 C 0.70275 0.08824 0.60878 0.0
C44 C 0.70067 0.08751 0.68772 0.0
C45 C 0.69435 0.11178 0.64529 0.0
N46 N 0.69891 0.10369 0.58238 0.0
O47 O 0.72493 0.12586 0.81478 0.0
H48 H 0.70486 0.07816 0.7254 0.0
H49 H 0.69226 0.12572 0.6435 0.0
O50 O 0.6904 0.08515 0.85936 0.0
C51 C 0.7324 0.14465 0.78525 0.0
O52 O 0.71839 0.15038 0.7627 0.0
N53 N 0.66313 0.10038 0.80597 0.0
C54 C 0.61978 0.09022 0.79596 0.0
C55 C 0.62611 0.07978 0.84961 0.0
C56 C 0.648 0.08562 0.85544 0.0
C57 C 0.6573 0.11147 0.75694 0.0
C58 C 0.63579 0.10643 0.74997 0.0
H59 H 0.65274 0.07876 0.90151 0.0
H60 H 0.6695 0.12519 0.72584 0.0
H61 H 0.70218 0.10581 0.99007 0.0
H62 H 0.68847 0.1562 0.02227 0.0
H63 H 0.70819 0.07923 0.57421 0.0
H64 H 0.6144 0.06787 0.88879 0.0
H65 H 0.6318 0.11542 0.70949 0.0
C66 C 0.55333 0.68996 0.43894 0.0
C67 C 0.54864 0.68786 0.51628 0.0
N68 N 0.56461 0.68678 0.55347 0.0
N69 N 0.57207 0.69003 0.42736 0.0
C70 C 0.57863 0.68818 0.49843 0.0
H71 H 0.54339 0.69072 0.39363 0.0
Co72 Co 0.58308 0.69003 0.33032 0.0
C73 C 0.61673 0.67707 0.36125 0.0
O74 O 0.61178 0.66558 0.29782 0.0
N75 N 0.59385 0.69045 0.23038 0.0
C76 C 0.61511 0.69893 0.12685 0.0
C77 C 0.61462 0.7006 0.20578 0.0
C78 C 0.58216 0.68358 0.16496 0.0
N79 N 0.59455 0.68813 0.10118 0.0
O80 O 0.60005 0.72131 0.33255 0.0
H81 H 0.62856 0.70922 0.2426 0.0
H82 H 0.56487 0.67669 0.16319 0.0
O83 O 0.60679 0.68737 0.37794 0.0
C84 C 0.58925 0.72854 0.29743 0.0
O85 O 0.57035 0.71434 0.26885 0.0
N86 N 0.5643 0.65973 0.32608 0.0
C87 C 0.5323 0.61682 0.30223 0.0
C88 C 0.55002 0.62175 0.34979 0.0
C89 C 0.5658 0.64348 0.36205 0.0
C90 C 0.54588 0.65503 0.28731 0.0
C91 C 0.53003 0.63375 0.27257 0.0
H92 H 0.57882 0.64698 0.40118 0.0
H93 H 0.54361 0.66804 0.26667 0.0
H94 H 0.59278 0.68682 0.50982 0.0
H95 H 0.53445 0.68689 0.54306 0.0
H96 H 0.62952 0.70556 0.09141 0.0
H97 H 0.55179 0.60898 0.37617 0.0
H98 H 0.51609 0.63053 0.23818 0.0
C99 C 0.87276 0.55343 0.90283 0.0
C100 C 0.87119 0.54929 0.98041 0.0
N101 N 0.88774 0.56632 0.01538 0.0
N102 N 0.89042 0.57282 0.8889 0.0
C103 C 0.89905 0.58046 0.95893 0.0
H104 H 0.86218 0.54262 0.85893 0.0
Co105 Co 0.9006 0.58342 0.79089 0.0
C106 C 0.94797 0.61375 0.80864 0.0
O107 O 0.95152 0.60751 0.74178 0.0
N108 N 0.91027 0.59409 0.69029 0.0
C109 C 0.92246 0.61626 0.5892 0.0
C110 C 0.91939 0.61495 0.66769 0.0
C111 C 0.9075 0.58309 0.62404 0.0
N112 N 0.91496 0.59612 0.56184 0.0
O113 O 0.88825 0.60218 0.79898 0.0
H114 H 0.92333 0.62837 0.7059 0.0
H115 H 0.89918 0.56576 0.62013 0.0
O116 O 0.92861 0.60549 0.83467 0.0
C117 C 0.8695 0.59137 0.7686 0.0
O118 O 0.864 0.5722 0.74059 0.0
N119 N 0.90959 0.56269 0.7817 0.0
C120 C 0.91022 0.52376 0.77974 0.0
C121 C 0.92656 0.542 0.81768 0.0
C122 C 0.92576 0.56135 0.81908 0.0
C123 C 0.89375 0.54502 0.74511 0.0
C124 C 0.8941 0.52579 0.74131 0.0
H125 H 0.93723 0.57447 0.85449 0.0
H126 H 0.88 0.54554 0.72158 0.0
H127 H 0.91384 0.59558 0.96845 0.0
H128 H 0.85912 0.53471 1.00886 0.0
H129 H 0.92946 0.6309 0.55516 0.0
H130 H 0.93893 0.54092 0.85002 0.0
H131 H 0.88108 0.51219 0.71157 0.0
C132 C 0.33032 0.87473 0.43936 0.0
C133 C 0.32782 0.87314 0.51823 0.0
N134 N 0.31742 0.88372 0.54025 0.0
N135 N 0.32164 0.88634 0.41178 0.0
C136 C 0.31353 0.89112 0.47419 0.0
H137 H 0.33893 0.8688 0.40494 0.0
Co138 Co 0.32348 0.89726 0.31253 0.0
C139 C 0.31812 0.93511 0.35197 0.0
O140 O 0.30207 0.92921 0.30334 0.0
N141 N 0.3256 0.90865 0.2138 0.0
C142 C 0.33649 0.93224 0.11755 0.0
C143 C 0.33851 0.92962 0.19451 0.0
C144 C 0.31632 0.89867 0.14684 0.0
N145 N 0.32258 0.9128 0.08754 0.0
O146 O 0.29226 0.88407 0.30987 0.0
H147 H 0.34908 0.94225 0.2337 0.0
H148 H 0.30522 0.88148 0.14163 0.0
O149 O 0.32736 0.92384 0.35848 0.0
C150 C 0.28457 0.86397 0.29609 0.0
O151 O 0.29829 0.85691 0.28635 0.0
N152 N 0.35339 0.90799 0.3118 0.0
C153 C 0.39666 0.91863 0.29834 0.0
C154 C 0.39057 0.92996 0.34942 0.0
C155 C 0.36871 0.92427 0.35578 0.0
C156 C 0.359 0.89683 0.26229 0.0
C157 C 0.38049 0.90193 0.25432 0.0
H158 H 0.36417 0.93272 0.39662 0.0
H159 H 0.34659 0.88379 0.22871 0.0
H160 H 0.30547 0.90052 0.47112 0.0
H161 H 0.33431 0.86584 0.55643 0.0
H162 H 0.34503 0.94721 0.08553 0.0
H163 H 0.40248 0.94276 0.38528 0.0
H164 H 0.38439 0.89291 0.2135 0.0
C165 C 0.46176 0.32526 0.89667 0.0
C166 C 0.46457 0.32325 0.97369 0.0
N167 N 0.44549 0.31645 0.00987 0.0
N168 N 0.44101 0.31982 0.88403 0.0
C169 C 0.43145 0.31453 0.95415 0.0
H170 H 0.47398 0.3301 0.85228 0.0
Co171 Co 0.42944 0.31837 0.7867 0.0
C172 C 0.40206 0.33809 0.8161 0.0
O173 O 0.41091 0.35057 0.75586 0.0
N174 N 0.41755 0.31571 0.68615 0.0
C175 C 0.39592 0.30906 0.58463 0.0
C176 C 0.39805 0.31252 0.66289 0.0
C177 C 0.42606 0.31241 0.62121 0.0
N178 N 0.41366 0.30901 0.55843 0.0
O179 O 0.41161 0.2873 0.79739 0.0
H180 H 0.38545 0.3115 0.70021 0.0
H181 H 0.4408 0.31166 0.62027 0.0
O182 O 0.40732 0.32392 0.83402 0.0
C183 C 0.42368 0.28004 0.77273 0.0
O184 O 0.44356 0.29425 0.75193 0.0
N185 N 0.44937 0.34861 0.77386 0.0
C186 C 0.48723 0.38917 0.7652 0.0
C187 C 0.47213 0.38463 0.82447 0.0
C188 C 0.4533 0.3641 0.82813 0.0
C189 C 0.46382 0.3533 0.71542 0.0
C190 C 0.48224 0.3735 0.70852 0.0
H191 H 0.44286 0.36017 0.87784 0.0
H192 H 0.46254 0.34092 0.67762 0.0
H193 H 0.41439 0.30868 0.96379 0.0
H194 H 0.47953 0.32648 1.00094 0.0
H195 H 0.38195 0.3058 0.55047 0.0
H196 H 0.47558 0.39612 0.87045 0.0
H197 H 0.49348 0.37618 0.66204 0.0
C198 C 0.55727 0.8762 0.08585 0.0
C199 C 0.55822 0.87462 1.00702 0.0
N200 N 0.5792 0.88533 0.98499 0.0
N201 N 0.57755 0.88795 0.11342 0.0
C202 C 0.59047 0.89283 0.05103 0.0
H203 H 0.54272 0.87016 0.12026 0.0
Co204 Co 0.58651 0.89886 0.2127 0.0
C205 C 0.62971 0.93687 0.17394 0.0
O206 O 0.63977 0.931 0.22308 0.0
N207 N 0.59566 0.91024 0.31143 0.0
C208 C 0.60819 0.9338 0.40766 0.0
C209 C 0.60354 0.93118 0.33073 0.0
C210 C 0.5951 0.90029 0.37835 0.0
N211 N 0.60287 0.91441 0.43763 0.0
O212 O 0.60461 0.88574 0.2158 0.0
H213 H 0.60548 0.94377 0.29153 0.0
H214 H 0.58918 0.88313 0.38353 0.0
O215 O 0.60922 0.92552 0.1668 0.0
C216 C 0.59221 0.86559 0.22895 0.0
O217 O 0.57138 0.85837 0.23766 0.0
N218 N 0.56723 0.90945 0.21307 0.0
C219 C 0.53429 0.91965 0.22573 0.0
C220 C 0.55179 0.93118 0.17506 0.0
C221 C 0.56812 0.92571 0.16909 0.0
C222 C 0.5504 0.89813 0.26228 0.0
C223 C 0.53386 0.90301 0.26985 0.0
H224 H 0.58117 0.9343 0.12851 0.0
H225 H 0.54985 0.88512 0.29586 0.0
H226 H 0.60792 0.90234 0.0541 0.0
H227 H 0.54444 0.86721 0.96883 0.0
H228 H 0.61451 0.94875 0.43968 0.0
H229 H 0.55261 0.94396 0.13918 0.0
H230 H 0.52089 0.89385 0.31039 0.0
C231 C 0.69101 0.55648 0.62569 0.0
C232 C 0.68812 0.55256 0.54808 0.0
N233 N 0.68935 0.57005 0.514 0.0
N234 N 0.69371 0.57622 0.64057 0.0
C235 C 0.69298 0.58426 0.57101 0.0
H236 H 0.69043 0.54533 0.6689 0.0
Co237 Co 0.69509 0.58708 0.739 0.0
C238 C 0.6778 0.61733 0.72417 0.0
O239 O 0.66892 0.61165 0.79267 0.0
N240 N 0.69703 0.59802 0.83959 0.0
C241 C 0.70753 0.62048 0.93988 0.0
C242 C 0.70925 0.61889 0.86148 0.0
C243 C 0.68853 0.5873 0.90615 0.0
N244 N 0.69437 0.6005 0.96782 0.0
O245 O 0.72598 0.60605 0.72662 0.0
H246 H 0.71888 0.63215 0.82277 0.0
H247 H 0.6789 0.57001 0.91066 0.0
O248 O 0.68849 0.60882 0.69664 0.0
C249 C 0.73464 0.59494 0.74748 0.0
O250 O 0.72186 0.57516 0.77245 0.0
N251 N 0.66555 0.56622 0.75193 0.0
C252 C 0.6262 0.52711 0.75725 0.0
C253 C 0.62763 0.54525 0.72003 0.0
C254 C 0.64765 0.56469 0.71695 0.0
C255 C 0.66419 0.54868 0.788 0.0
C256 C 0.64472 0.52935 0.79347 0.0
H257 H 0.64889 0.57774 0.68203 0.0
H258 H 0.67872 0.54942 0.81002 0.0
H259 H 0.69411 0.59979 0.56225 0.0
H260 H 0.68493 0.53784 0.51901 0.0
H261 H 0.7154 0.63519 0.9734 0.0
H262 H 0.61385 0.54402 0.68939 0.0
H263 H 0.6445 0.51585 0.82274 0.0
C264 C 0.13973 0.68268 0.10165 0.0
C265 C 0.14451 0.68413 0.02455 0.0
N266 N 0.13268 0.69127 0.9877 0.0
N267 N 0.12491 0.68883 0.11368 0.0
C268 C 0.12095 0.69404 0.04313 0.0
H269 H 0.14673 0.67761 0.1464 0.0
Co270 Co 0.11445 0.69024 0.21059 0.0
C271 C 0.06777 0.67562 0.17514 0.0
O272 O 0.06128 0.66311 0.23624 0.0
N273 N 0.10488 0.6924 0.31064 0.0
C274 C 0.09159 0.70099 0.4128 0.0
C275 C 0.09072 0.69867 0.33387 0.0
C276 C 0.11488 0.6922 0.37644 0.0
N277 N 0.10696 0.69702 0.43932 0.0
O278 O 0.12939 0.72144 0.20359 0.0
H279 H 0.0813 0.70273 0.29604 0.0
H280 H 0.12866 0.68984 0.37822 0.0
O281 O 0.08811 0.68742 0.16151 0.0
C282 C 0.14833 0.72814 0.23081 0.0
O283 O 0.15321 0.71351 0.25324 0.0
N284 N 0.10215 0.65981 0.21973 0.0
C285 C 0.09154 0.6165 0.23486 0.0
C286 C 0.08082 0.6225 0.18115 0.0
C287 C 0.0868 0.64435 0.17295 0.0
C288 C 0.11333 0.65422 0.26915 0.0
C289 C 0.10802 0.63278 0.27895 0.0
H290 H 0.07975 0.64878 0.12665 0.0
H291 H 0.12743 0.66656 0.29796 0.0
H292 H 0.11024 0.70039 0.03276 0.0
H293 H 0.15579 0.68014 0.99763 0.0
H294 H 0.08263 0.70652 0.44725 0.0
H295 H 0.06866 0.61057 0.14339 0.0
H296 H 0.11717 0.62908 0.31973 0.0
C297 C 0.46164 0.13571 0.60368 0.0
C298 C 0.4647 0.14065 0.52674 0.0
N299 N 0.44575 0.12842 0.49028 0.0
N300 N 0.44085 0.12045 0.61598 0.0
C301 C 0.43152 0.11625 0.5457 0.0
H302 H 0.47372 0.14297 0.64826 0.0
Co303 Co 0.42936 0.11022 0.71336 0.0
C304 C 0.39958 0.06328 0.67919 0.0
O305 O 0.40781 0.05787 0.73679 0.0
N306 N 0.41795 0.10096 0.81353 0.0
C307 C 0.39684 0.08636 0.91662 0.0
C308 C 0.39836 0.08511 0.83799 0.0
C309 C 0.42736 0.11233 0.87814 0.0
N310 N 0.41516 0.10358 0.94179 0.0
O311 O 0.41204 0.12408 0.7055 0.0
H312 H 0.38532 0.07402 0.8014 0.0
H313 H 0.44258 0.12736 0.87818 0.0
O314 O 0.40619 0.0833 0.66607 0.0
C315 C 0.42383 0.14408 0.72212 0.0
O316 O 0.44422 0.15129 0.73985 0.0
N317 N 0.4484 0.09878 0.7228 0.0
C318 C 0.48168 0.08878 0.73486 0.0
C319 C 0.46598 0.07946 0.67705 0.0
C320 C 0.44985 0.08518 0.6706 0.0
C321 C 0.46414 0.10856 0.77707 0.0
C322 C 0.48062 0.10358 0.78493 0.0
H323 H 0.43905 0.07922 0.62197 0.0
H324 H 0.46483 0.12129 0.81203 0.0
H325 H 0.41453 0.10503 0.53562 0.0
H326 H 0.47975 0.15234 0.49966 0.0
H327 H 0.38289 0.07607 0.95185 0.0
H328 H 0.46672 0.06861 0.63518 0.0
H329 H 0.49272 0.11161 0.82915 0.0
C330 C 0.33941 0.46133 0.091 0.0
C331 C 0.33767 0.46235 0.01227 0.0
N332 N 0.32478 0.44213 0.98581 0.0
N333 N 0.32792 0.44051 0.1138 0.0
C334 C 0.319 0.42931 0.04864 0.0
H335 H 0.34879 0.47484 0.12887 0.0
Co336 Co 0.32533 0.42855 0.21175 0.0
C337 C 0.33812 0.39496 0.17857 0.0
O338 O 0.34948 0.39982 0.24225 0.0
N339 N 0.32176 0.41599 0.31046 0.0
C340 C 0.30702 0.39031 0.40006 0.0
C341 C 0.31078 0.39442 0.32297 0.0
C342 C 0.32377 0.42461 0.3817 0.0
N343 N 0.31505 0.4093 0.43718 0.0
O344 O 0.2941 0.41339 0.2024 0.0
H345 H 0.30442 0.38224 0.27852 0.0
H346 H 0.32964 0.44152 0.39262 0.0
O347 O 0.32748 0.40459 0.16282 0.0
C348 C 0.2877 0.42643 0.22338 0.0
O349 O 0.30252 0.44614 0.24297 0.0
N350 N 0.35582 0.44549 0.22326 0.0
C351 C 0.39956 0.47793 0.23131 0.0
C352 C 0.39268 0.46058 0.1797 0.0
C353 C 0.37073 0.44489 0.17514 0.0
C354 C 0.36221 0.46236 0.273 0.0
C355 C 0.38392 0.4785 0.27884 0.0
H356 H 0.36574 0.4332 0.12932 0.0
H357 H 0.35022 0.46435 0.30403 0.0
H358 H 0.30882 0.41191 0.0472 0.0
H359 H 0.34525 0.47684 0.97737 0.0
H360 H 0.29811 0.37448 0.42633 0.0
H361 H 0.404 0.45953 0.14076 0.0
H362 H 0.3881 0.49204 0.31686 0.0
C363 C 0.8798 0.32704 0.59991 0.0
C364 C 0.87732 0.32497 0.52107 0.0
N365 N 0.88789 0.31497 0.49489 0.0
N366 N 0.89211 0.31863 0.62299 0.0
C367 C 0.89658 0.31128 0.5579 0.0
H368 H 0.8732 0.33435 0.63777 0.0
Co369 Co 0.90192 0.31701 0.7212 0.0
C370 C 0.94965 0.33767 0.6894 0.0
O371 O 0.95415 0.35019 0.75002 0.0
N372 N 0.91181 0.31446 0.82004 0.0
C373 C 0.92712 0.30366 0.90799 0.0
C374 C 0.92579 0.30711 0.83118 0.0
C375 C 0.9043 0.31455 0.89188 0.0
N376 N 0.91354 0.3083 0.94627 0.0
O377 O 0.89003 0.28622 0.70802 0.0
H378 H 0.93363 0.30311 0.78602 0.0
H379 H 0.89108 0.31736 0.90446 0.0
O380 O 0.92991 0.32385 0.67396 0.0
C381 C 0.86985 0.27766 0.7234 0.0
O382 O 0.86227 0.29051 0.7417 0.0
N383 N 0.91059 0.34648 0.73706 0.0
C384 C 0.91071 0.38559 0.75615 0.0
C385 C 0.92443 0.38384 0.70184 0.0
C386 C 0.92393 0.36397 0.69246 0.0
C387 C 0.89713 0.34807 0.78882 0.0
C388 C 0.89761 0.36749 0.80176 0.0
H389 H 0.933 0.36232 0.64571 0.0
H390 H 0.88445 0.33372 0.81557 0.0
H391 H 0.9064 0.30363 0.55675 0.0
H392 H 0.86829 0.33022 0.486 0.0
H393 H 0.93677 0.29744 0.93334 0.0
H394 H 0.93434 0.39716 0.66364 0.0
H395 H 0.88664 0.36781 0.84428 0.0
H396 H 0.06721 0.40111 0.49527 0.0
H397 H 0.04668 0.34684 0.3396 0.0
H398 H 0.01138 0.32761 0.40691 0.0
H399 H 0.04093 0.36908 0.66658 0.0
H400 H 0.03391 0.38843 0.70311 0.0
H401 H 0.05766 0.39737 0.6439 0.0
H402 H 0.04328 0.41554 0.55062 0.0
H403 H 0.01942 0.40649 0.60921 0.0
H404 H 0.01681 0.3996 0.50862 0.0
H405 H 0.97721 0.31539 0.48609 0.0
H406 H 0.94797 0.31018 0.57569 0.0
H407 H 0.9914 0.37182 0.68283 0.0
C408 C 0.05534 0.38513 0.47549 0.0
C409 C 0.05971 0.37552 0.41181 0.0
C410 C 0.04377 0.35451 0.38831 0.0
C411 C 0.02363 0.34348 0.42611 0.0
C412 C 0.01974 0.35354 0.488 0.0
C413 C 0.03527 0.37381 0.51308 0.0
C414 C 0.02704 0.38112 0.5807 0.0
C415 C 0.04069 0.38417 0.65284 0.0
C416 C 0.02661 0.40191 0.56108 0.0
C417 C 1.00432 0.36194 0.58913 0.0
C418 C 1.00039 0.34623 0.53494 0.0
C419 C 0.98022 0.32747 0.52932 0.0
C420 C 0.96367 0.32467 0.58039 0.0
C421 C 0.96739 0.34046 0.63689 0.0
C422 C 0.98808 0.35927 0.64116 0.0
H423 H 0.64504 0.02281 0.85121 0.0
H424 H 0.705 0.06882 0.96264 0.0
H425 H 0.70032 0.04052 0.05561 0.0
H426 H 0.61636 0.99809 0.0227 0.0
H427 H 0.60154 0.97133 0.98217 0.0
H428 H 0.61048 0.99466 0.9213 0.0
H429 H 0.63072 0.98107 0.83341 0.0
H430 H 0.62151 0.95761 0.89386 0.0
H431 H 0.65003 0.97478 0.87525 0.0
H432 H 0.68856 0.00676 0.13767 0.0
H433 H 0.66972 0.97167 0.20609 0.0
H434 H 0.61677 0.94869 0.04346 0.0
C435 C 0.65741 0.02692 0.89437 0.0
C436 C 0.67557 0.04803 0.89892 0.0
C437 C 0.69106 0.05275 0.95756 0.0
C438 C 0.68854 0.03676 0.01055 0.0
C439 C 0.67036 0.01614 1.00453 0.0
C440 C 0.65501 0.01126 0.94807 0.0
C441 C 0.63631 0.98831 0.9564 0.0
C442 C 0.61491 0.9881 0.97156 0.0
C443 C 0.63456 0.97464 0.88551 0.0
C444 C 0.64346 0.98099 0.02651 0.0
C445 C 0.66325 0.99715 0.05306 0.0
C446 C 0.67306 0.99404 0.11728 0.0
C447 C 0.66227 0.97402 0.15567 0.0
C448 C 0.64173 0.95745 0.13043 0.0
C449 C 0.63237 0.96106 0.0646 0.0
H450 H 0.67008 0.61522 0.56861 0.0
H451 H 0.67379 0.65123 0.7742 0.0
H452 H 0.6624 0.67328 0.69959 0.0
H453 H 0.68729 0.66007 0.42835 0.0
H454 H 0.66809 0.64278 0.35722 0.0
H455 H 0.67937 0.63183 0.42422 0.0
H456 H 0.64079 0.60297 0.46661 0.0
H457 H 0.62935 0.61378 0.40013 0.0
H458 H 0.62222 0.6114 0.50056 0.0
H459 H 0.64828 0.68979 0.60507 0.0
H460 H 0.6303 0.69795 0.50005 0.0
H461 H 0.6338 0.64993 0.35687 0.0
C462 C 0.66916 0.62821 0.59723 0.0
C463 C 0.67325 0.63185 0.67688 0.0
C464 C 0.67096 0.64836 0.71308 0.0
C465 C 0.66456 0.66101 0.67111 0.0
C466 C 0.66031 0.65683 0.59292 0.0
C467 C 0.66242 0.64076 0.55631 0.0
C468 C 0.65476 0.63813 0.47364 0.0
C469 C 0.6735 0.64354 0.41754 0.0
C470 C 0.63564 0.61521 0.45946 0.0
C471 C 0.64767 0.65496 0.46998 0.0
C472 C 0.65134 0.66578 0.53905 0.0
C473 C 0.64541 0.68148 0.5506 0.0
C474 C 0.63508 0.68593 0.4906 0.0
C475 C 0.63038 0.67448 0.42018 0.0
C476 C 0.63723 0.65911 0.40963 0.0
H477 H 0.0236 0.64833 0.17857 0.0
H478 H 0.07535 0.69596 0.0349 0.0
H479 H 0.04948 0.68727 0.92871 0.0
H480 H 0.99752 0.60935 0.03727 0.0
H481 H 0.97034 0.60072 0.0696 0.0
H482 H 0.99238 0.61214 0.13696 0.0
H483 H 0.98221 0.64098 0.1758 0.0
H484 H 0.9601 0.62957 0.10833 0.0
H485 H 0.98026 0.65783 0.10286 0.0
H486 H 0.01907 0.67024 0.83332 0.0
H487 H 0.98584 0.64767 0.75829 0.0
H488 H 0.95319 0.61238 0.9648 0.0
C489 C 0.02945 0.65733 0.12543 0.0
C490 C 0.05167 0.67279 0.11525 0.0
C491 C 0.05855 0.68397 0.0443 0.0
C492 C 0.04391 0.67919 0.98356 0.0
C493 C 0.02228 0.66344 0.99489 0.0
C494 C 0.01498 0.65289 0.06443 0.0
C495 C 0.99113 0.63588 0.06035 0.0
C496 C 0.98765 0.61318 0.077 0.0
C497 C 0.97763 0.64141 0.11511 0.0
C498 C 0.98631 0.6381 0.97708 0.0
C499 C 1.00451 0.65413 0.94041 0.0
C500 C 1.0046 0.65799 0.86186 0.0
C501 C 0.98568 0.64508 0.81968 0.0
C502 C 0.96682 0.62863 0.85603 0.0
C503 C 0.96711 0.62532 0.936 0.0
H504 H 0.38988 0.02104 0.67236 0.0
H505 H 0.37532 0.06694 0.56338 0.0
H506 H 0.3513 0.03861 0.47139 0.0
H507 H 0.39306 0.99625 0.50013 0.0
H508 H 0.38129 0.96951 0.54078 0.0
H509 H 0.39595 0.99285 0.60125 0.0
H510 H 0.36248 0.97926 0.69109 0.0
H511 H 0.34796 0.95579 0.63101 0.0
H512 H 0.3367 0.97297 0.65088 0.0
H513 H 0.32905 0.00488 0.38975 0.0
H514 H 0.31262 0.96981 0.32125 0.0
H515 H 0.34325 0.9469 0.48141 0.0
C516 C 0.38142 0.02512 0.62994 0.0
C517 C 0.38432 0.04621 0.62578 0.0
C518 C 0.37325 0.05089 0.56815 0.0
C519 C 0.35955 0.03488 0.51572 0.0
C520 C 0.35715 0.01428 0.52132 0.0
C521 C 0.3679 0.00943 0.57685 0.0
C522 C 0.36362 0.98649 0.56822 0.0
C523 C 0.38474 0.98627 0.55159 0.0
C524 C 0.35199 0.97283 0.63954 0.0
C525 C 0.34885 0.97915 0.49894 0.0
C526 C 0.34508 0.99529 0.47311 0.0
C527 C 0.33192 0.99217 0.40961 0.0
C528 C 0.3226 0.97217 0.37116 0.0
C529 C 0.32671 0.95564 0.39565 0.0
C530 C 0.3399 0.95924 0.46083 0.0
H531 H 0.40084 0.34177 0.97309 0.0
H532 H 0.36918 0.34305 0.76266 0.0
H533 H 0.34609 0.3535 0.83608 0.0
H534 H 0.35309 0.32354 0.10551 0.0
H535 H 0.37011 0.34105 0.18103 0.0
H536 H 0.38092 0.33002 0.11203 0.0
H537 H 0.41166 0.36896 0.08182 0.0
H538 H 0.40024 0.37991 0.14821 0.0
H539 H 0.40472 0.38872 0.04943 0.0
H540 H 0.32887 0.36706 0.92953 0.0
H541 H 0.31998 0.38444 0.03486 0.0
H542 H 0.3639 0.37628 0.1852 0.0
C543 C 0.38851 0.34355 0.94319 0.0
C544 C 0.38638 0.34115 0.86252 0.0
C545 C 0.37078 0.34451 0.82459 0.0
C546 C 0.35759 0.35042 0.86584 0.0
C547 C 0.36037 0.35319 0.9451 0.0
C548 C 0.37548 0.34994 0.9835 0.0
C549 C 0.3768 0.35629 0.06748 0.0
C550 C 0.36978 0.33654 0.1197 0.0
C551 C 0.39971 0.37456 0.08788 0.0
C552 C 0.36046 0.36406 0.06977 0.0
C553 C 0.35092 0.36178 0.99882 0.0
C554 C 0.33608 0.36873 0.98558 0.0
C555 C 0.33112 0.37863 0.04593 0.0
C556 C 0.34115 0.38176 0.11867 0.0
C557 C 0.35573 0.37397 0.13071 0.0
H558 H 0.12067 0.60231 0.24652 0.0
H559 H 0.0517 0.57929 0.23958 0.0
H560 H 0.04423 0.54174 0.25893 0.0
H561 H 0.11909 0.55747 0.14684 0.0
H562 H 0.14014 0.55771 0.20468 0.0
H563 H 0.13967 0.5824 0.18887 0.0
H564 H 0.13962 0.58798 0.33611 0.0
H565 H 0.14 0.56327 0.35238 0.0
H566 H 0.11893 0.56693 0.39463 0.0
H567 H 0.04476 0.50654 0.28369 0.0
H568 H 0.05321 0.47713 0.30303 0.0
H569 H 0.12183 0.52423 0.29528 0.0
C570 C 0.10396 0.58942 0.24948 0.0
C571 C 0.08675 0.59376 0.24223 0.0
C572 C 0.06514 0.57632 0.24468 0.0
C573 C 0.06076 0.55498 0.25609 0.0
C574 C 0.07818 0.55137 0.26445 0.0
C575 C 0.09935 0.56816 0.26065 0.0
C576 C 0.11527 0.5602 0.27083 0.0
C577 C 0.12937 0.56471 0.19849 0.0
C578 C 0.12927 0.57019 0.34277 0.0
C579 C 0.09982 0.53628 0.28129 0.0
C580 C 0.07848 0.5314 0.27774 0.0
C581 C 0.06143 0.51022 0.28636 0.0
C582 C 0.06637 0.49364 0.29782 0.0
C583 C 0.08817 0.49833 0.30014 0.0
C584 C 0.10499 0.52002 0.29255 0.0
H585 H 0.52484 0.11796 0.75173 0.0
H586 H 0.4795 0.04926 0.73138 0.0
H587 H 0.50971 0.04176 0.7474 0.0
H588 H 0.56838 0.11787 0.64662 0.0
H589 H 0.58918 0.13818 0.70658 0.0
H590 H 0.56394 0.13782 0.69388 0.0
H591 H 0.55841 0.13591 0.84156 0.0
H592 H 0.58359 0.13617 0.85471 0.0
H593 H 0.55893 0.11458 0.89519 0.0
H594 H 0.54527 0.04205 0.77079 0.0
H595 H 0.58315 0.05023 0.7882 0.0
H596 H 0.60474 0.11879 0.78997 0.0
C597 C 0.52124 0.10132 0.75098 0.0
C598 C 0.4998 0.08415 0.74095 0.0
C599 C 0.49582 0.06264 0.73877 0.0
C600 C 0.51286 0.05824 0.74824 0.0
C601 C 0.53379 0.07557 0.75903 0.0
C602 C 0.53802 0.09669 0.75956 0.0
C603 C 0.56192 0.1125 0.77036 0.0
C604 C 0.57141 0.12747 0.70017 0.0
C605 C 0.56594 0.12556 0.84489 0.0
C606 C 0.57055 0.09701 0.7762 0.0
C607 C 0.55411 0.07576 0.77018 0.0
C608 C 0.55825 0.05864 0.77517 0.0
C609 C 0.57977 0.06342 0.78549 0.0
C610 C 0.59688 0.08512 0.78987 0.0
C611 C 0.59205 0.10204 0.78574 0.0
H612 H 0.50247 0.58448 0.39541 0.0
H613 H 0.52538 0.59928 0.16028 0.0
H614 H 0.49587 0.56348 0.11874 0.0
H615 H 0.48287 0.52519 0.38782 0.0
H616 H 0.45945 0.5186 0.44629 0.0
H617 H 0.48409 0.54404 0.45941 0.0
H618 H 0.46295 0.56438 0.43797 0.0
H619 H 0.43831 0.53907 0.4243 0.0
H620 H 0.44749 0.55966 0.35109 0.0
H621 H 0.46211 0.52818 0.10046 0.0
H622 H 0.42601 0.49573 0.10556 0.0
H623 H 0.42436 0.50302 0.35304 0.0
C624 C 0.50155 0.57981 0.33571 0.0
C625 C 0.51631 0.59433 0.28098 0.0
C626 C 0.51432 0.58814 0.20288 0.0
C627 C 0.49765 0.56788 0.1789 0.0
C628 C 0.48304 0.55403 0.23376 0.0
C629 C 0.48481 0.55964 0.31061 0.0
C630 C 0.46581 0.54249 0.35639 0.0
C631 C 0.47352 0.53195 0.41601 0.0
C632 C 0.45288 0.55197 0.39466 0.0
C633 C 0.45288 0.5267 0.29298 0.0
C634 C 0.46327 0.53357 0.22294 0.0
C635 C 0.454 0.5224 0.1552 0.0
C636 C 0.43347 0.50382 0.15886 0.0
C637 C 0.42227 0.49649 0.22983 0.0
C638 C 0.43238 0.50808 0.2978 0.0
H639 H 0.94139 0.51126 0.76109 0.0
H640 H 0.87352 0.48666 0.81554 0.0
H641 H 0.86703 0.44957 0.81288 0.0
H642 H 0.93396 0.46909 0.63298 0.0
H643 H 0.95689 0.46709 0.66539 0.0
H644 H 0.95711 0.49236 0.67369 0.0
H645 H 0.96433 0.49335 0.81974 0.0
H646 H 0.9644 0.46821 0.81173 0.0
H647 H 0.94637 0.47059 0.87875 0.0
H648 H 0.8664 0.4156 0.79213 0.0
H649 H 0.87252 0.38515 0.7738 0.0
H650 H 0.94148 0.42966 0.74388 0.0
C651 C 0.92529 0.49804 0.77351 0.0
C652 C 0.90784 0.50188 0.78678 0.0
C653 C 0.887 0.48414 0.80313 0.0
C654 C 0.88314 0.46297 0.80208 0.0
C655 C 0.90034 0.45963 0.78593 0.0
C656 C 0.92111 0.47652 0.77347 0.0
C657 C 0.93649 0.46789 0.75821 0.0
C658 C 0.94671 0.47451 0.67778 0.0
C659 C 0.95393 0.47546 0.82085 0.0
C660 C 0.92094 0.4436 0.763 0.0
C661 C 0.90019 0.43944 0.77843 0.0
C662 C 0.88266 0.41857 0.78218 0.0
C663 C 0.8864 0.40133 0.77221 0.0
C664 C 0.90762 0.40481 0.76029 0.0
C665 C 0.92511 0.42637 0.754 0.0
H666 H 0.49084 0.89069 0.23665 0.0
H667 H 0.53697 0.95951 0.23084 0.0
H668 H 0.50694 0.96712 0.24988 0.0
H669 H 0.44774 0.89271 0.13722 0.0
H670 H 0.4268 0.8717 0.1951 0.0
H671 H 0.45192 0.87199 0.17906 0.0
H672 H 0.45736 0.8718 0.32624 0.0
H673 H 0.43231 0.8716 0.34274 0.0
H674 H 0.45705 0.89247 0.38491 0.0
H675 H 0.47134 0.96685 0.27412 0.0
H676 H 0.43355 0.95873 0.29349 0.0
H677 H 0.41163 0.89008 0.28605 0.0
C678 C 0.4947 0.90739 0.23967 0.0
C679 C 0.51631 0.92451 0.23266 0.0
C680 C 0.52054 0.94612 0.23545 0.0
C681 C 0.5036 0.95059 0.24677 0.0
C682 C 0.48253 0.93327 0.25485 0.0
C683 C 0.47808 0.91211 0.25088 0.0
C684 C 0.45415 0.89632 0.26117 0.0
C685 C 0.4446 0.88237 0.18882 0.0
C686 C 0.44998 0.88222 0.33304 0.0
C687 C 0.44575 0.91187 0.27183 0.0
C688 C 0.4623 0.93312 0.26825 0.0
C689 C 0.45829 0.95025 0.27688 0.0
C690 C 0.43679 0.94549 0.28841 0.0
C691 C 0.41958 0.92378 0.29089 0.0
C692 C 0.42433 0.90686 0.28325 0.0
H693 H 0.50058 0.43288 0.78802 0.0
H694 H 0.5245 0.38838 0.7481 0.0
H695 H 0.56156 0.41887 0.73762 0.0
H696 H 0.53722 0.47472 0.6594 0.0
H697 H 0.54182 0.497 0.72061 0.0
H698 H 0.5166 0.4718 0.7265 0.0
H699 H 0.52241 0.46939 0.87214 0.0
H700 H 0.54753 0.49471 0.86687 0.0
H701 H 0.54717 0.47105 0.90479 0.0
H702 H 0.59522 0.45292 0.72318 0.0
H703 H 0.62584 0.49001 0.72154 0.0
H704 H 0.58254 0.51443 0.778 0.0
C705 C 0.5137 0.42965 0.77782 0.0
C706 C 0.50954 0.40821 0.76707 0.0
C707 C 0.52716 0.40463 0.75439 0.0
C708 C 0.54833 0.42185 0.74858 0.0
C709 C 0.55185 0.44271 0.75665 0.0
C710 C 0.53524 0.44685 0.77226 0.0
C711 C 0.54409 0.47112 0.77949 0.0
C712 C 0.53435 0.47912 0.71782 0.0
C713 C 0.54006 0.47691 0.86066 0.0
C714 C 0.56813 0.47974 0.765 0.0
C715 C 0.57198 0.46289 0.7514 0.0
C716 C 0.59253 0.46628 0.735 0.0
C717 C 0.60985 0.48746 0.73453 0.0
C718 C 0.60674 0.50515 0.75144 0.0
C719 C 0.58545 0.50125 0.76529 0.0
H720 H 0.1094 0.44833 0.6609 0.0
H721 H 0.15205 0.42253 0.62083 0.0
H722 H 0.14958 0.41267 0.75909 0.0
H723 H 0.12844 0.47072 0.84644 0.0
H724 H 0.10201 0.46313 0.88432 0.0
H725 H 0.10729 0.46804 0.78294 0.0
H726 H 0.07506 0.42988 0.75306 0.0
H727 H 0.06961 0.42489 0.85438 0.0
H728 H 0.07409 0.40651 0.79661 0.0
H729 H 0.14421 0.40818 0.90421 0.0
H730 H 0.13323 0.40564 0.04113 0.0
H731 H 0.09184 0.43181 0.98289 0.0
C732 C 0.11811 0.44055 0.68174 0.0
C733 C 0.13106 0.43627 0.63147 0.0
C734 C 0.14212 0.42587 0.65936 0.0
C735 C 0.14082 0.42031 0.73746 0.0
C736 C 0.12804 0.42493 0.78614 0.0
C737 C 0.11658 0.43448 0.75898 0.0
C738 C 0.10354 0.43719 0.8224 0.0
C739 C 0.11076 0.46119 0.83473 0.0
C740 C 0.07913 0.42382 0.8056 0.0
C741 C 0.10971 0.42803 0.8899 0.0
C742 C 0.12403 0.42123 0.86814 0.0
C743 C 0.13279 0.41318 0.92162 0.0
C744 C 0.12658 0.41189 0.99911 0.0
C745 C 0.11153 0.41827 0.022 0.0
C746 C 0.10305 0.42643 0.9665 0.0
H747 H 0.69012 0.08055 0.44954 0.0
H748 H 0.71404 0.14526 0.53924 0.0
H749 H 0.71752 0.1592 0.40744 0.0
H750 H 0.72463 0.09658 0.2774 0.0
H751 H 0.70377 0.07639 0.21728 0.0
H752 H 0.7041 0.07145 0.3187 0.0
H753 H 0.66478 0.06414 0.3314 0.0
H754 H 0.66436 0.06905 0.23011 0.0
H755 H 0.65843 0.08431 0.29885 0.0
H756 H 0.71721 0.16609 0.26784 0.0
H757 H 0.71266 0.16555 0.12751 0.0
H758 H 0.68885 0.09649 0.12494 0.0
C759 C 0.69634 0.09768 0.44114 0.0
C760 C 0.70167 0.11179 0.5048 0.0
C761 C 0.7095 0.13408 0.49164 0.0
C762 C 0.71171 0.14218 0.41688 0.0
C763 C 0.70607 0.12784 0.35556 0.0
C764 C 0.69855 0.10606 0.36657 0.0
C765 C 0.69284 0.09409 0.29033 0.0
C766 C 0.7072 0.08404 0.27504 0.0
C767 C 0.66867 0.07688 0.28753 0.0
C768 C 0.69812 0.11254 0.23505 0.0
C769 C 0.70584 0.13185 0.27417 0.0
C770 C 0.71123 0.15108 0.2365 0.0
C771 C 0.70846 0.15058 0.15677 0.0
C772 C 0.70031 0.13098 0.11515 0.0
C773 C 0.69534 0.11175 0.15499 0.0
H774 H 0.60007 0.70517 0.64564 0.0
H775 H 0.53099 0.66004 0.64382 0.0
H776 H 0.53188 0.65383 0.78311 0.0
H777 H 0.61466 0.67737 0.7902 0.0
H778 H 0.63462 0.7021 0.83517 0.0
H779 H 0.62895 0.70178 0.73415 0.0
H780 H 0.62052 0.73279 0.75474 0.0
H781 H 0.62618 0.73322 0.85569 0.0
H782 H 0.60044 0.72957 0.82488 0.0
H783 H 0.54005 0.65261 0.92126 0.0
H784 H 0.55405 0.65853 0.05276 0.0
H785 H 0.61767 0.70675 0.96895 0.0
C786 C 0.58524 0.69381 0.67472 0.0
C787 C 0.56545 0.68299 0.63426 0.0
C788 C 0.54625 0.66854 0.67407 0.0
C789 C 0.54664 0.66482 0.75293 0.0
C790 C 0.56635 0.67584 0.79136 0.0
C791 C 0.58529 0.69019 0.75396 0.0
C792 C 0.60398 0.70096 0.81016 0.0
C793 C 0.62159 0.6952 0.79128 0.0
C794 C 0.61332 0.72559 0.81143 0.0
C795 C 0.59248 0.69058 0.88503 0.0
C796 C 0.57089 0.6759 0.87238 0.0
C797 C 0.55689 0.66423 0.93207 0.0
C798 C 0.56504 0.66791 1.00703 0.0
C799 C 0.58696 0.6835 0.02252 0.0
C800 C 0.60088 0.69472 0.95994 0.0
H801 H 0.91589 0.61838 0.43231 0.0
H802 H 0.91111 0.55834 0.51049 0.0
H803 H 0.90515 0.54503 0.37768 0.0
H804 H 0.87587 0.59648 0.29072 0.0
H805 H 0.89005 0.61783 0.22156 0.0
H806 H 0.89513 0.62339 0.3226 0.0
H807 H 0.93603 0.63819 0.29955 0.0
H808 H 0.93122 0.63266 0.19824 0.0
H809 H 0.94485 0.62144 0.25226 0.0
H810 H 0.89601 0.53657 0.23963 0.0
H811 H 0.88731 0.53482 0.10146 0.0
H812 H 0.90079 0.60106 0.10895 0.0
C813 C 0.91402 0.60261 0.42161 0.0
C814 C 0.91361 0.58932 0.48276 0.0
C815 C 0.91092 0.56869 0.46553 0.0
C816 C 0.90772 0.56101 0.38994 0.0
C817 C 0.90765 0.57427 0.33159 0.0
C818 C 0.91107 0.59476 0.34613 0.0
C819 C 0.90985 0.60553 0.27264 0.0
C820 C 0.89164 0.61113 0.27719 0.0
C821 C 0.9318 0.62565 0.25458 0.0
C822 C 0.90457 0.58761 0.21509 0.0
C823 C 0.90337 0.56972 0.25057 0.0
C824 C 0.89725 0.55058 0.21087 0.0
C825 C 0.8922 0.54966 0.13278 0.0
C826 C 0.8935 0.56782 0.09507 0.0
C827 C 0.90003 0.58711 0.13655 0.0
H828 H 0.31728 0.86327 0.67389 0.0
H829 H 0.31093 0.91672 0.58478 0.0
H830 H 0.30742 0.92697 0.7159 0.0
H831 H 0.28043 0.85055 0.83975 0.0
H832 H 0.2972 0.84505 0.90243 0.0
H833 H 0.29682 0.84008 0.80069 0.0
H834 H 0.3385 0.86474 0.79479 0.0
H835 H 0.33901 0.86972 0.89637 0.0
H836 H 0.35063 0.8921 0.82995 0.0
H837 H 0.30786 0.93381 0.85533 0.0
H838 H 0.3131 0.93715 0.99586 0.0
H839 H 0.3196 0.87997 0.99866 0.0
C840 C 0.31493 0.87699 0.68168 0.0
C841 C 0.31409 0.88889 0.61783 0.0
C842 C 0.31108 0.90683 0.63149 0.0
C843 C 0.30916 0.91293 0.70629 0.0
C844 C 0.31022 0.90098 0.76749 0.0
C845 C 0.31303 0.88338 0.75632 0.0
C846 C 0.3151 0.87429 0.83273 0.0
C847 C 0.29626 0.85112 0.84458 0.0
C848 C 0.33712 0.87528 0.83879 0.0
C849 C 0.31358 0.88989 0.8883 0.0
C850 C 0.31053 0.905 0.84911 0.0
C851 C 0.30996 0.92192 0.88678 0.0
C852 C 0.31299 0.92372 0.96643 0.0
C853 C 0.31656 0.90873 1.00784 0.0
C854 C 0.3164 0.89133 0.96843 0.0
H855 H 0.39889 0.31771 0.42597 0.0
H856 H 0.43957 0.29314 0.51251 0.0
H857 H 0.45045 0.29071 0.38034 0.0
H858 H 0.38122 0.28319 0.25441 0.0
H859 H 0.38118 0.30331 0.19249 0.0
H860 H 0.37543 0.30317 0.29351 0.0
H861 H 0.40607 0.34245 0.30928 0.0
H862 H 0.41216 0.34388 0.2083 0.0
H863 H 0.43311 0.35011 0.27799 0.0
H864 H 0.45911 0.29336 0.24083 0.0
H865 H 0.4642 0.2999 0.10132 0.0
H866 H 0.41722 0.32165 0.10167 0.0
C867 C 0.40978 0.31146 0.41711 0.0
C868 C 0.41851 0.30585 0.48028 0.0
C869 C 0.43295 0.29798 0.46578 0.0
C870 C 0.43911 0.29636 0.39062 0.0
C871 C 0.43057 0.30243 0.33004 0.0
C872 C 0.41607 0.30964 0.34215 0.0
C873 C 0.40968 0.31551 0.26653 0.0
C874 C 0.38544 0.30042 0.25083 0.0
C875 C 0.41561 0.3394 0.2655 0.0
C876 C 0.42354 0.3113 0.21051 0.0
C877 C 0.43528 0.30355 0.24859 0.0
C878 C 0.44989 0.29926 0.21027 0.0
C879 C 0.45279 0.30318 0.13107 0.0
C880 C 0.44118 0.31134 0.09056 0.0
C881 C 0.42611 0.31515 0.13089 0.0
H882 H 0.57319 0.88148 0.52669 0.0
H883 H 0.6367 0.93889 0.52897 0.0
H884 H 0.6387 0.93558 0.66949 0.0
H885 H 0.55427 0.8935 0.694 0.0
H886 H 0.53907 0.86619 0.72974 0.0
H887 H 0.54366 0.87102 0.6281 0.0
H888 H 0.56101 0.84666 0.62272 0.0
H889 H 0.5563 0.84158 0.7244 0.0
H890 H 0.58323 0.85223 0.68577 0.0
H891 H 0.63238 0.92871 0.80901 0.0
H892 H 0.61864 0.91845 0.94023 0.0
H893 H 0.55895 0.86479 0.85149 0.0
C894 C 0.58774 0.89288 0.55682 0.0
C895 C 0.60491 0.91035 0.51728 0.0
C896 C 0.62345 0.92541 0.55851 0.0
C897 C 0.62474 0.92361 0.63815 0.0
C898 C 0.60732 0.90662 0.67596 0.0
C899 C 0.5892 0.89141 0.63691 0.0
C900 C 0.57209 0.8758 0.69271 0.0
C901 C 0.55104 0.87669 0.6857 0.0
C902 C 0.56792 0.8527 0.68068 0.0
C903 C 0.58325 0.88501 0.76896 0.0
C904 C 0.60363 0.90264 0.75763 0.0
C905 C 0.61663 0.91464 0.81874 0.0
C906 C 0.60863 0.90853 0.89359 0.0
C907 C 0.5877 0.89052 0.90739 0.0
C908 C 0.57499 0.87857 0.84363 0.0
H909 H 0.71199 0.60484 0.42127 0.0
H910 H 0.65754 0.53947 0.4277 0.0
H911 H 0.65091 0.54178 0.28964 0.0
H912 H 0.68959 0.62672 0.27708 0.0
H913 H 0.7155 0.64293 0.2311 0.0
H914 H 0.71414 0.63708 0.33241 0.0
H915 H 0.73952 0.62118 0.31082 0.0
H916 H 0.74067 0.62682 0.2096 0.0
H917 H 0.73199 0.59971 0.24198 0.0
H918 H 0.65095 0.55047 0.1517 0.0
H919 H 0.65925 0.56357 0.01879 0.0
H920 H 0.71565 0.62255 0.09767 0.0
C921 C 0.69848 0.59124 0.39349 0.0
C922 C 0.68517 0.572 0.43461 0.0
C923 C 0.6679 0.55427 0.39668 0.0
C924 C 0.66394 0.55551 0.31865 0.0
C925 C 0.67752 0.57457 0.27926 0.0
C926 C 0.69455 0.59208 0.31502 0.0
C927 C 0.70782 0.60987 0.25755 0.0
C928 C 0.70669 0.63037 0.27565 0.0
C929 C 0.73139 0.61466 0.25484 0.0
C930 C 0.69588 0.59935 0.18379 0.0
C931 C 0.67821 0.5792 0.19816 0.0
C932 C 0.66481 0.56619 0.13958 0.0
C933 C 0.66984 0.57374 0.06393 0.0
C934 C 0.68839 0.59398 0.04689 0.0
C935 C 0.70132 0.60708 0.10824 0.0
H936 H 0.08385 0.6892 0.57271 0.0
H937 H 0.14825 0.71039 0.48263 0.0
H938 H 0.16181 0.71268 0.61413 0.0
H939 H 0.10146 0.7233 0.7461 0.0
H940 H 0.08055 0.70292 0.80596 0.0
H941 H 0.07585 0.70389 0.70471 0.0
H942 H 0.06631 0.66398 0.69074 0.0
H943 H 0.07098 0.66295 0.79188 0.0
H944 H 0.08542 0.65608 0.72252 0.0
H945 H 0.16828 0.71104 0.75325 0.0
H946 H 0.16736 0.70579 0.89345 0.0
H947 H 0.09911 0.68612 0.8974 0.0
C948 C 0.10085 0.6946 0.58092 0.0
C949 C 0.11494 0.69944 0.51706 0.0
C950 C 0.13704 0.70621 0.53019 0.0
C951 C 0.14495 0.70774 0.60485 0.0
C952 C 0.13063 0.70255 0.66629 0.0
C953 C 0.10906 0.69619 0.6555 0.0
C954 C 0.09707 0.69082 0.73196 0.0
C955 C 0.08821 0.70615 0.74812 0.0
C956 C 0.07887 0.66704 0.73439 0.0
C957 C 0.11525 0.69492 0.78699 0.0
C958 C 0.13445 0.70174 0.74758 0.0
C959 C 0.15338 0.70582 0.78485 0.0
C960 C 0.15267 0.70267 0.86446 0.0
C961 C 0.13319 0.69552 0.90641 0.0
C962 C 0.11429 0.69186 0.86702 0.0
H963 H 0.40119 0.08005 0.07424 0.0
H964 H 0.44111 0.14524 0.98659 0.0
H965 H 0.45171 0.15868 0.11874 0.0
H966 H 0.38258 0.0952 0.24845 0.0
H967 H 0.38351 0.07483 0.30681 0.0
H968 H 0.37809 0.07032 0.20535 0.0
H969 H 0.41025 0.06334 0.18997 0.0
H970 H 0.41577 0.06786 0.29125 0.0
H971 H 0.43678 0.08351 0.22231 0.0
H972 H 0.45961 0.16494 0.25866 0.0
H973 H 0.46413 0.16367 0.39866 0.0
H974 H 0.41871 0.0947 0.39842 0.0
C975 C 0.41187 0.0972 0.08295 0.0
C976 C 0.42038 0.11155 0.01966 0.0
C977 C 0.43462 0.13384 0.03366 0.0
C978 C 0.44062 0.14168 0.10871 0.0
C979 C 0.43217 0.12708 0.16952 0.0
C980 C 0.41804 0.10532 0.15773 0.0
C981 C 0.41199 0.09301 0.23334 0.0
C982 C 0.38759 0.08274 0.24942 0.0
C983 C 0.41913 0.07593 0.23424 0.0
C984 C 0.42517 0.11124 0.28924 0.0
C985 C 0.43662 0.13075 0.25098 0.0
C986 C 0.45062 0.1498 0.28933 0.0
C987 C 0.45318 0.14889 0.36877 0.0
C988 C 0.44179 0.1291 0.40939 0.0
C989 C 0.42738 0.11009 0.36902 0.0
H990 H 0.34832 0.46139 0.85606 0.0
H991 H 0.28788 0.40713 0.93669 0.0
H992 H 0.27837 0.39398 0.80366 0.0
H993 H 0.327 0.46989 0.6755 0.0
H994 H 0.35118 0.47646 0.62167 0.0
H995 H 0.35291 0.48239 0.72296 0.0
H996 H 0.37216 0.46024 0.7454 0.0
H997 H 0.37045 0.45421 0.64431 0.0
H998 H 0.35936 0.43253 0.71359 0.0
H999 H 0.27588 0.38575 0.6641 0.0
H1000 H 0.28058 0.38269 0.52537 0.0
H1001 H 0.34256 0.44216 0.53169 0.0
C1002 C 0.33293 0.44695 0.84554 0.0
C1003 C 0.31885 0.43527 0.90713 0.0
C1004 C 0.29904 0.41622 0.89087 0.0
C1005 C 0.29342 0.40869 0.81534 0.0
C1006 C 0.30774 0.4204 0.75626 0.0
C1007 C 0.32707 0.43914 0.77019 0.0
C1008 C 0.33986 0.44812 0.69615 0.0
C1009 C 0.34291 0.47055 0.67801 0.0
C1010 C 0.36175 0.44881 0.70013 0.0
C1011 C 0.32478 0.43134 0.63873 0.0
C1012 C 0.30632 0.41558 0.67493 0.0
C1013 C 0.29024 0.39801 0.63507 0.0
C1014 C 0.29314 0.39633 0.55627 0.0
C1015 C 0.31201 0.41209 0.51762 0.0
C1016 C 0.3279 0.42999 0.5595 0.0
H1017 H 0.88719 0.33576 0.36391 0.0
H1018 H 0.8935 0.28191 0.4475 0.0
H1019 H 0.89938 0.27374 0.31508 0.0
H1020 H 0.85887 0.30971 0.18507 0.0
H1021 H 0.87268 0.3343 0.12975 0.0
H1022 H 0.86794 0.33546 0.231 0.0
H1023 H 0.909 0.36131 0.25172 0.0
H1024 H 0.91386 0.36019 0.15067 0.0
H1025 H 0.928 0.35317 0.22034 0.0
H1026 H 0.90628 0.27226 0.17557 0.0
H1027 H 0.91332 0.27728 0.03628 0.0
H1028 H 0.9022 0.33173 0.03999 0.0
C1029 C 0.88945 0.32204 0.3542 0.0
C1030 C 0.88998 0.30954 0.41649 0.0
C1031 C 0.89335 0.29193 0.4012 0.0
C1032 C 0.89656 0.28706 0.32599 0.0
C1033 C 0.89627 0.29986 0.26623 0.0
C1034 C 0.89271 0.31693 0.27917 0.0
C1035 C 0.89391 0.3285 0.20449 0.0
C1036 C 0.87204 0.32689 0.18653 0.0
C1037 C 0.91229 0.3522 0.20699 0.0
C1038 C 0.89893 0.31538 0.14788 0.0
C1039 C 0.90015 0.29892 0.18496 0.0
C1040 C 0.90528 0.28504 0.14581 0.0
C1041 C 0.90941 0.28812 0.06672 0.0
C1042 C 0.9084 0.30494 0.0272 0.0
C1043 C 0.90285 0.3186 0.06848 0.0
H1044 H 0.19453 0.45456 0.2827 0.0
H1045 H 0.14754 0.38644 0.30929 0.0
H1046 H 0.17676 0.37761 0.28504 0.0
H1047 H 0.22498 0.44922 0.13007 0.0
H1048 H 0.2504 0.47081 0.16523 0.0
H1049 H 0.22571 0.47108 0.18442 0.0
H1050 H 0.23352 0.47381 0.33073 0.0
H1051 H 0.25832 0.47373 0.31197 0.0
H1052 H 0.23838 0.45394 0.37612 0.0
H1053 H 0.21306 0.37725 0.25569 0.0
H1054 H 0.25102 0.38553 0.23337 0.0
H1055 H 0.27194 0.45389 0.22736 0.0
C1056 C 0.19017 0.43769 0.28355 0.0
C1057 C 0.16864 0.42118 0.29785 0.0
C1058 C 0.16391 0.39939 0.29865 0.0
C1059 C 0.18042 0.39426 0.28461 0.0
C1060 C 0.20152 0.4111 0.26993 0.0
C1061 C 0.20625 0.43238 0.26983 0.0
C1062 C 0.22992 0.44784 0.25392 0.0
C1063 C 0.23292 0.46047 0.17896 0.0
C1064 C 0.24066 0.46323 0.32226 0.0
C1065 C 0.23809 0.4321 0.24545 0.0
C1066 C 0.22165 0.41092 0.25417 0.0
C1067 C 0.22593 0.39382 0.24883 0.0
C1068 C 0.24751 0.39863 0.23572 0.0
C1069 C 0.26449 0.42036 0.22874 0.0
C1070 C 0.25943 0.4371 0.23275 0.0
H1071 H 0.82986 0.25861 0.66354 0.0
H1072 H 0.87424 0.24411 0.78298 0.0
H1073 H 0.84431 0.20633 0.80404 0.0
H1074 H 0.78691 0.2319 0.78421 0.0
H1075 H 0.7663 0.22232 0.71116 0.0
H1076 H 0.79178 0.24654 0.69518 0.0
H1077 H 0.79768 0.2304 0.57002 0.0
H1078 H 0.77197 0.20618 0.58487 0.0
H1079 H 0.79619 0.20445 0.57292 0.0
H1080 H 0.80691 0.17102 0.82674 0.0
H1081 H 0.76809 0.14283 0.84126 0.0
H1082 H 0.75005 0.18216 0.70494 0.0
C1083 C 0.83346 0.24727 0.69189 0.0
C1084 C 0.85435 0.25412 0.72081 0.0
C1085 C 0.85842 0.23899 0.75888 0.0
C1086 C 0.84145 0.21757 0.77156 0.0
C1087 C 0.82068 0.21157 0.74471 0.0
C1088 C 0.81689 0.22603 0.70426 0.0
C1089 C 0.79318 0.21659 0.68552 0.0
C1090 C 0.78402 0.23014 0.72118 0.0
C1091 C 0.78955 0.21426 0.59815 0.0
C1092 C 0.7839 0.19478 0.72394 0.0
C1093 C 0.79982 0.19186 0.7574 0.0
C1094 C 0.79445 0.17313 0.7996 0.0
C1095 C 0.77235 0.15719 0.80774 0.0
C1096 C 0.75594 0.16022 0.77442 0.0
C1097 C 0.76206 0.1792 0.73134 0.0
H1098 H 0.57138 0.82503 0.17379 0.0
H1099 H 0.62946 0.86996 0.29603 0.0
H1100 H 0.63735 0.8402 0.32118 0.0
H1101 H 0.55473 0.78185 0.29585 0.0
H1102 H 0.54446 0.76147 0.22185 0.0
H1103 H 0.54535 0.78678 0.20611 0.0
H1104 H 0.56826 0.79324 0.0826 0.0
H1105 H 0.56722 0.76776 0.09738 0.0
H1106 H 0.593 0.79222 0.08746 0.0
H1107 H 0.63565 0.80297 0.34519 0.0
H1108 H 0.62578 0.76435 0.3579 0.0
H1109 H 0.56918 0.74587 0.21658 0.0
C1110 C 0.58607 0.82876 0.2043 0.0
C1111 C 0.59988 0.84976 0.23265 0.0
C1112 C 0.61886 0.85401 0.27279 0.0
C1113 C 0.62334 0.83715 0.28768 0.0
C1114 C 0.60886 0.81632 0.26085 0.0
C1115 C 0.59081 0.81234 0.2187 0.0
C1116 C 0.57703 0.78869 0.19885 0.0
C1117 C 0.55405 0.77915 0.23272 0.0
C1118 C 0.57635 0.78528 0.11138 0.0
C1119 C 0.58963 0.77965 0.23829 0.0
C1120 C 0.60804 0.79564 0.27358 0.0
C1121 C 0.6214 0.79046 0.31669 0.0
C1122 C 0.61568 0.76848 0.32377 0.0
C1123 C 0.59672 0.75199 0.28826 0.0
C1124 C 0.58384 0.75793 0.24447 0.0
H1125 H 0.82899 0.56898 0.71078 0.0
H1126 H 0.87301 0.63029 0.81832 0.0
H1127 H 0.84426 0.64044 0.81287 0.0
H1128 H 0.80192 0.58781 0.58348 0.0
H1129 H 0.77612 0.56354 0.59633 0.0
H1130 H 0.80078 0.56249 0.60371 0.0
H1131 H 0.78951 0.54562 0.73979 0.0
H1132 H 0.76478 0.54643 0.73256 0.0
H1133 H 0.78276 0.55934 0.81234 0.0
H1134 H 0.80823 0.64226 0.79949 0.0
H1135 H 0.77003 0.63431 0.78929 0.0
H1136 H 0.75169 0.57155 0.69324 0.0
C1137 C 0.8329 0.58473 0.73263 0.0
C1138 C 0.8534 0.59887 0.76473 0.0
C1139 C 0.85747 0.61918 0.79317 0.0
C1140 C 0.84123 0.62507 0.79004 0.0
C1141 C 0.82107 0.6105 0.75817 0.0
C1142 C 0.81704 0.5907 0.73026 0.0
C1143 C 0.79398 0.57702 0.70323 0.0
C1144 C 0.79316 0.57246 0.61654 0.0
C1145 C 0.78207 0.55587 0.74978 0.0
C1146 C 0.78528 0.59195 0.72094 0.0
C1147 C 0.80101 0.61136 0.75171 0.0
C1148 C 0.79596 0.62715 0.77483 0.0
C1149 C 0.7743 0.62263 0.7683 0.0
C1150 C 0.75803 0.6024 0.73988 0.0
C1151 C 0.76385 0.58723 0.71458 0.0
H1152 H 0.26542 0.82234 0.34027 0.0
H1153 H 0.25093 0.86929 0.24134 0.0
H1154 H 0.21291 0.84 0.21855 0.0
H1155 H 0.23667 0.78096 0.21184 0.0
H1156 H 0.22765 0.75958 0.28191 0.0
H1157 H 0.25246 0.78457 0.29703 0.0
H1158 H 0.23831 0.78938 0.42887 0.0
H1159 H 0.21349 0.76422 0.41457 0.0
H1160 H 0.21266 0.7886 0.43404 0.0
H1161 H 0.17664 0.80317 0.19557 0.0
H1162 H 0.14719 0.76484 0.18224 0.0
H1163 H 0.18746 0.74419 0.29897 0.0
C1164 C 0.25417 0.8266 0.31502 0.0
C1165 C 0.26107 0.84805 0.2926 0.0
C1166 C 0.24587 0.85296 0.25975 0.0
C1167 C 0.2243 0.83638 0.24627 0.0
C1168 C 0.21822 0.81513 0.26716 0.0
C1169 C 0.23281 0.81045 0.30207 0.0
C1170 C 0.22307 0.78655 0.31701 0.0
C1171 C 0.23571 0.77739 0.27438 0.0
C1172 C 0.2218 0.78192 0.40377 0.0
C1173 C 0.20083 0.7782 0.2832 0.0
C1174 C 0.19803 0.79472 0.25491 0.0
C1175 C 0.17872 0.79024 0.21845 0.0
C1176 C 0.16207 0.76843 0.21095 0.0
C1177 C 0.16493 0.75142 0.23939 0.0
C1178 C 0.18457 0.75665 0.27638 0.0
H1179 H 0.44594 0.26331 0.70275 0.0
H1180 H 0.3857 0.24374 0.82416 0.0
H1181 H 0.37652 0.20526 0.81306 0.0
H1182 H 0.42601 0.21775 0.5715 0.0
H1183 H 0.45099 0.21719 0.57602 0.0
H1184 H 0.45122 0.24237 0.58804 0.0
H1185 H 0.47064 0.24834 0.71915 0.0
H1186 H 0.47058 0.2233 0.70734 0.0
H1187 H 0.45868 0.2277 0.7921 0.0
H1188 H 0.37586 0.16826 0.79328 0.0
H1189 H 0.38478 0.13893 0.77502 0.0
H1190 H 0.44578 0.18495 0.66996 0.0
C1191 C 0.43065 0.25105 0.72671 0.0
C1192 C 0.41655 0.25664 0.76454 0.0
C1193 C 0.39675 0.23988 0.79471 0.0
C1194 C 0.39143 0.21799 0.78847 0.0
C1195 C 0.40601 0.21318 0.75139 0.0
C1196 C 0.42521 0.22944 0.72106 0.0
C1197 C 0.43901 0.22082 0.6879 0.0
C1198 C 0.44197 0.22477 0.6007 0.0
C1199 C 0.46101 0.23061 0.72912 0.0
C1200 C 0.42497 0.19708 0.70579 0.0
C1201 C 0.40578 0.19268 0.74123 0.0
C1202 C 0.39078 0.17165 0.76497 0.0
C1203 C 0.39586 0.15504 0.75395 0.0
C1204 C 0.41591 0.15971 0.72071 0.0
C1205 C 0.43028 0.1809 0.69517 0.0
loop_
_geom_bond_atom_site_label_1
_geom_bond_atom_site_label_2
_geom_bond_distance
_geom_bond_site_symmetry_2
_ccdc_geom_bond_type
C0 C1 1.351 . S
C0 N3 1.368 . S
C0 H5 0.931 . S
C1 C0 1.351 . S
C1 N2 1.373 . S
C1 H29 0.930 . S
N2 C1 1.373 . S
N2 C4 1.340 . S
N3 C0 1.368 . S
N3 C4 1.321 . S
N3 Co6 2.135 . S
C4 N2 1.340 . S
C4 N3 1.321 . S
C4 H28 0.930 . S
H5 C0 0.931 . S
Co6 N3 2.135 . S
Co6 N9 2.121 . S
Co6 O14 2.055 . S
Co6 O17 2.039 . S
Co6 N20 2.140 . S
C7 O8 1.227 . S
C7 O17 1.265 . S
O8 C7 1.227 . S
N9 Co6 2.121 . S
N9 C11 1.375 . S
N9 C12 1.313 . S
C10 C11 1.338 . S
C10 N13 1.377 . S
C10 H30 0.930 . S
C11 N9 1.375 . S
C11 C10 1.338 . S
C11 H15 0.931 . S
C12 N9 1.313 . S
C12 N13 1.344 . S
C12 H16 0.930 . S
N13 C10 1.377 . S
N13 C12 1.344 . S
O14 Co6 2.055 . S
O14 C18 1.253 . S
H15 C11 0.931 . S
H16 C12 0.930 . S
O17 Co6 2.039 . S
O17 C7 1.265 . S
C18 O14 1.253 . S
C18 O19 1.227 . S
O19 C18 1.227 . S
N20 Co6 2.140 . S
N20 C23 1.346 . S
N20 C24 1.345 . S
C21 C22 1.387 . S
C21 C25 1.391 . S
C22 C21 1.387 . S
C22 C23 1.369 . S
C22 H31 0.929 . S
C23 N20 1.346 . S
C23 C22 1.369 . S
C23 H26 0.928 . S
C24 N20 1.345 . S
C24 C25 1.371 . S
C24 H27 0.931 . S
C25 C21 1.391 . S
C25 C24 1.371 . S
C25 H32 0.930 . S
H26 C23 0.928 . S
H27 C24 0.931 . S
H28 C4 0.930 . S
H29 C1 0.930 . S
H30 C10 0.930 . S
H31 C22 0.929 . S
H32 C25 0.930 . S
C33 C34 1.351 1_556 S
C33 N36 1.368 . S
C33 H38 0.931 . S
C34 C33 1.351 1_554 S
C34 N35 1.373 . S
C34 H62 0.930 . S
N35 C34 1.373 . S
N35 C37 1.340 . S
N36 C33 1.368 . S
N36 C37 1.321 1_556 S
N36 Co39 2.135 . S
C37 N35 1.340 . S
C37 N36 1.321 1_554 S
C37 H61 0.930 . S
H38 C33 0.931 . S
Co39 N36 2.135 . S
Co39 N42 2.121 . S
Co39 O47 2.055 . S
Co39 O50 2.039 . S
Co39 N53 2.140 . S
C40 O41 1.227 . S
C40 O50 1.265 . S
O41 C40 1.227 . S
N42 Co39 2.121 . S
N42 C44 1.375 . S
N42 C45 1.313 . S
C43 C44 1.338 . S
C43 N46 1.377 . S
C43 H63 0.930 . S
C44 N42 1.375 . S
C44 C43 1.338 . S
C44 H48 0.931 . S
C45 N42 1.313 . S
C45 N46 1.344 . S
C45 H49 0.930 . S
N46 C43 1.377 . S
N46 C45 1.344 . S
O47 Co39 2.055 . S
O47 C51 1.253 . S
H48 C44 0.931 . S
H49 C45 0.930 . S
O50 Co39 2.039 . S
O50 C40 1.265 . S
C51 O47 1.253 . S
C51 O52 1.227 . S
O52 C51 1.227 . S
N53 Co39 2.140 . S
N53 C56 1.346 . S
N53 C57 1.345 . S
C54 C55 1.387 . S
C54 C58 1.391 . S
C55 C54 1.387 . S
C55 C56 1.369 . S
C55 H64 0.929 . S
C56 N53 1.346 . S
C56 C55 1.369 . S
C56 H59 0.928 . S
C57 N53 1.345 . S
C57 C58 1.371 . S
C57 H60 0.931 . S
C58 C54 1.391 . S
C58 C57 1.371 . S
C58 H65 0.930 . S
H59 C56 0.928 . S
H60 C57 0.931 . S
H61 C37 0.930 . S
H62 C34 0.930 . S
H63 C43 0.930 . S
H64 C55 0.929 . S
H65 C58 0.930 . S
C66 C67 1.351 . S
C66 N69 1.368 . S
C66 H71 0.931 . S
C67 C66 1.351 . S
C67 N68 1.373 . S
C67 H95 0.930 . S
N68 C67 1.373 . S
N68 C70 1.340 . S
N69 C66 1.368 . S
N69 C70 1.321 . S
N69 Co72 2.135 . S
C70 N68 1.340 . S
C70 N69 1.321 . S
C70 H94 0.930 . S
H71 C66 0.931 . S
Co72 N69 2.135 . S
Co72 N75 2.121 . S
Co72 O80 2.055 . S
Co72 O83 2.039 . S
Co72 N86 2.140 . S
C73 O74 1.227 . S
C73 O83 1.265 . S
O74 C73 1.227 . S
N75 Co72 2.121 . S
N75 C77 1.375 . S
N75 C78 1.313 . S
C76 C77 1.338 . S
C76 N79 1.377 . S
C76 H96 0.930 . S
C77 N75 1.375 . S
C77 C76 1.338 . S
C77 H81 0.931 . S
C78 N75 1.313 . S
C78 N79 1.344 . S
C78 H82 0.930 . S
N79 C76 1.377 . S
N79 C78 1.344 . S
O80 Co72 2.055 . S
O80 C84 1.253 . S
H81 C77 0.931 . S
H82 C78 0.930 . S
O83 Co72 2.039 . S
O83 C73 1.265 . S
C84 O80 1.253 . S
C84 O85 1.227 . S
O85 C84 1.227 . S
N86 Co72 2.140 . S
N86 C89 1.346 . S
N86 C90 1.345 . S
C87 C88 1.387 . S
C87 C91 1.391 . S
C88 C87 1.387 . S
C88 C89 1.369 . S
C88 H97 0.929 . S
C89 N86 1.346 . S
C89 C88 1.369 . S
C89 H92 0.928 . S
C90 N86 1.345 . S
C90 C91 1.371 . S
C90 H93 0.931 . S
C91 C87 1.391 . S
C91 C90 1.371 . S
C91 H98 0.930 . S
H92 C89 0.928 . S
H93 C90 0.931 . S
H94 C70 0.930 . S
H95 C67 0.930 . S
H96 C76 0.930 . S
H97 C88 0.929 . S
H98 C91 0.930 . S
C99 C100 1.351 1_556 S
C99 N102 1.368 . S
C99 H104 0.931 . S
C100 C99 1.351 1_554 S
C100 N101 1.373 . S
C100 H128 0.930 . S
N101 C100 1.373 . S
N101 C103 1.340 . S
N102 C99 1.368 . S
N102 C103 1.321 1_556 S
N102 Co105 2.135 . S
C103 N101 1.340 . S
C103 N102 1.321 1_554 S
C103 H127 0.930 . S
H104 C99 0.931 . S
Co105 N102 2.135 . S
Co105 N108 2.121 . S
Co105 O113 2.055 . S
Co105 O116 2.039 . S
Co105 N119 2.140 . S
C106 O107 1.227 . S
C106 O116 1.265 . S
O107 C106 1.227 . S
N108 Co105 2.121 . S
N108 C110 1.375 . S
N108 C111 1.313 . S
C109 C110 1.338 . S
C109 N112 1.377 . S
C109 H129 0.930 . S
C110 N108 1.375 . S
C110 C109 1.338 . S
C110 H114 0.931 . S
C111 N108 1.313 . S
C111 N112 1.344 . S
C111 H115 0.930 . S
N112 C109 1.377 . S
N112 C111 1.344 . S
O113 Co105 2.055 . S
O113 C117 1.253 . S
H114 C110 0.931 . S
H115 C111 0.930 . S
O116 Co105 2.039 . S
O116 C106 1.265 . S
C117 O113 1.253 . S
C117 O118 1.227 . S
O118 C117 1.227 . S
N119 Co105 2.140 . S
N119 C122 1.346 . S
N119 C123 1.345 . S
C120 C121 1.387 . S
C120 C124 1.391 . S
C121 C120 1.387 . S
C121 C122 1.369 . S
C121 H130 0.929 . S
C122 N119 1.346 . S
C122 C121 1.369 . S
C122 H125 0.928 . S
C123 N119 1.345 . S
C123 C124 1.371 . S
C123 H126 0.931 . S
C124 C120 1.391 . S
C124 C123 1.371 . S
C124 H131 0.930 . S
H125 C122 0.928 . S
H126 C123 0.931 . S
H127 C103 0.930 . S
H128 C100 0.930 . S
H129 C109 0.930 . S
H130 C121 0.929 . S
H131 C124 0.930 . S
C132 C133 1.351 . S
C132 N135 1.368 . S
C132 H137 0.931 . S
C133 C132 1.351 . S
C133 N134 1.373 . S
C133 H161 0.930 . S
N134 C133 1.373 . S
N134 C136 1.340 . S
N135 C132 1.368 . S
N135 C136 1.321 . S
N135 Co138 2.135 . S
C136 N134 1.340 . S
C136 N135 1.321 . S
C136 H160 0.930 . S
H137 C132 0.931 . S
Co138 N135 2.135 . S
Co138 N141 2.121 . S
Co138 O146 2.055 . S
Co138 O149 2.039 . S
Co138 N152 2.140 . S
C139 O140 1.227 . S
C139 O149 1.265 . S
O140 C139 1.227 . S
N141 Co138 2.121 . S
N141 C143 1.375 . S
N141 C144 1.313 . S
C142 C143 1.338 . S
C142 N145 1.377 . S
C142 H162 0.930 . S
C143 N141 1.375 . S
C143 C142 1.338 . S
C143 H147 0.931 . S
C144 N141 1.313 . S
C144 N145 1.344 . S
C144 H148 0.930 . S
N145 C142 1.377 . S
N145 C144 1.344 . S
O146 Co138 2.055 . S
O146 C150 1.253 . S
H147 C143 0.931 . S
H148 C144 0.930 . S
O149 Co138 2.039 . S
O149 C139 1.265 . S
C150 O146 1.253 . S
C150 O151 1.227 . S
O151 C150 1.227 . S
N152 Co138 2.140 . S
N152 C155 1.346 . S
N152 C156 1.345 . S
C153 C154 1.387 . S
C153 C157 1.391 . S
C154 C153 1.387 . S
C154 C155 1.369 . S
C154 H163 0.929 . S
C155 N152 1.346 . S
C155 C154 1.369 . S
C155 H158 0.928 . S
C156 N152 1.345 . S
C156 C157 1.371 . S
C156 H159 0.931 . S
C157 C153 1.391 . S
C157 C156 1.371 . S
C157 H164 0.930 . S
H158 C155 0.928 . S
H159 C156 0.931 . S
H160 C136 0.930 . S
H161 C133 0.930 . S
H162 C142 0.930 . S
H163 C154 0.929 . S
H164 C157 0.930 . S
C165 C166 1.351 1_556 S
C165 N168 1.368 . S
C165 H170 0.931 . S
C166 C165 1.351 1_554 S
C166 N167 1.373 . S
C166 H194 0.930 . S
N167 C166 1.373 . S
N167 C169 1.340 . S
N168 C165 1.368 . S
N168 C169 1.321 1_556 S
N168 Co171 2.135 . S
C169 N167 1.340 . S
C169 N168 1.321 1_554 S
C169 H193 0.930 . S
H170 C165 0.931 . S
Co171 N168 2.135 . S
Co171 N174 2.121 . S
Co171 O179 2.055 . S
Co171 O182 2.039 . S
Co171 N185 2.140 . S
C172 O173 1.227 . S
C172 O182 1.265 . S
O173 C172 1.227 . S
N174 Co171 2.121 . S
N174 C176 1.375 . S
N174 C177 1.313 . S
C175 C176 1.338 . S
C175 N178 1.377 . S
C175 H195 0.930 . S
C176 N174 1.375 . S
C176 C175 1.338 . S
C176 H180 0.931 . S
C177 N174 1.313 . S
C177 N178 1.344 . S
C177 H181 0.930 . S
N178 C175 1.377 . S
N178 C177 1.344 . S
O179 Co171 2.055 . S
O179 C183 1.253 . S
H180 C176 0.931 . S
H181 C177 0.930 . S
O182 Co171 2.039 . S
O182 C172 1.265 . S
C183 O179 1.253 . S
C183 O184 1.227 . S
O184 C183 1.227 . S
N185 Co171 2.140 . S
N185 C188 1.346 . S
N185 C189 1.345 . S
C186 C187 1.387 . S
C186 C190 1.391 . S
C187 C186 1.387 . S
C187 C188 1.369 . S
C187 H196 0.929 . S
C188 N185 1.346 . S
C188 C187 1.369 . S
C188 H191 0.928 . S
C189 N185 1.345 . S
C189 C190 1.371 . S
C189 H192 0.931 . S
C190 C186 1.391 . S
C190 C189 1.371 . S
C190 H197 0.930 . S
H191 C188 0.928 . S
H192 C189 0.931 . S
H193 C169 0.930 . S
H194 C166 0.930 . S
H195 C175 0.930 . S
H196 C187 0.929 . S
H197 C190 0.930 . S
C198 C199 1.351 1_554 S
C198 N201 1.368 . S
C198 H203 0.931 . S
C199 C198 1.351 1_556 S
C199 N200 1.373 . S
C199 H227 0.930 . S
N200 C199 1.373 . S
N200 C202 1.340 . S
N201 C198 1.368 . S
N201 C202 1.321 1_554 S
N201 Co204 2.135 . S
C202 N200 1.340 . S
C202 N201 1.321 1_556 S
C202 H226 0.930 . S
H203 C198 0.931 . S
Co204 N201 2.135 . S
Co204 N207 2.121 . S
Co204 O212 2.055 . S
Co204 O215 2.039 . S
Co204 N218 2.140 . S
C205 O206 1.227 . S
C205 O215 1.265 . S
O206 C205 1.227 . S
N207 Co204 2.121 . S
N207 C209 1.375 . S
N207 C210 1.313 . S
C208 C209 1.338 . S
C208 N211 1.377 . S
C208 H228 0.930 . S
C209 N207 1.375 . S
C209 C208 1.338 . S
C209 H213 0.931 . S
C210 N207 1.313 . S
C210 N211 1.344 . S
C210 H214 0.930 . S
N211 C208 1.377 . S
N211 C210 1.344 . S
O212 Co204 2.055 . S
O212 C216 1.253 . S
H213 C209 0.931 . S
H214 C210 0.930 . S
O215 Co204 2.039 . S
O215 C205 1.265 . S
C216 O212 1.253 . S
C216 O217 1.227 . S
O217 C216 1.227 . S
N218 Co204 2.140 . S
N218 C221 1.346 . S
N218 C222 1.345 . S
C219 C220 1.387 . S
C219 C223 1.391 . S
C220 C219 1.387 . S
C220 C221 1.369 . S
C220 H229 0.929 . S
C221 N218 1.346 . S
C221 C220 1.369 . S
C221 H224 0.928 . S
C222 N218 1.345 . S
C222 C223 1.371 . S
C222 H225 0.931 . S
C223 C219 1.391 . S
C223 C222 1.371 . S
C223 H230 0.930 . S
H224 C221 0.928 . S
H225 C222 0.931 . S
H226 C202 0.930 . S
H227 C199 0.930 . S
H228 C208 0.930 . S
H229 C220 0.929 . S
H230 C223 0.930 . S
C231 C232 1.351 . S
C231 N234 1.368 . S
C231 H236 0.931 . S
C232 C231 1.351 . S
C232 N233 1.373 . S
C232 H260 0.930 . S
N233 C232 1.373 . S
N233 C235 1.340 . S
N234 C231 1.368 . S
N234 C235 1.321 . S
N234 Co237 2.135 . S
C235 N233 1.340 . S
C235 N234 1.321 . S
C235 H259 0.930 . S
H236 C231 0.931 . S
Co237 N234 2.135 . S
Co237 N240 2.121 . S
Co237 O245 2.055 . S
Co237 O248 2.039 . S
Co237 N251 2.140 . S
C238 O239 1.227 . S
C238 O248 1.265 . S
O239 C238 1.227 . S
N240 Co237 2.121 . S
N240 C242 1.375 . S
N240 C243 1.313 . S
C241 C242 1.338 . S
C241 N244 1.377 . S
C241 H261 0.930 . S
C242 N240 1.375 . S
C242 C241 1.338 . S
C242 H246 0.931 . S
C243 N240 1.313 . S
C243 N244 1.344 . S
C243 H247 0.930 . S
N244 C241 1.377 . S
N244 C243 1.344 . S
O245 Co237 2.055 . S
O245 C249 1.253 . S
H246 C242 0.931 . S
H247 C243 0.930 . S
O248 Co237 2.039 . S
O248 C238 1.265 . S
C249 O245 1.253 . S
C249 O250 1.227 . S
O250 C249 1.227 . S
N251 Co237 2.140 . S
N251 C254 1.346 . S
N251 C255 1.345 . S
C252 C253 1.387 . S
C252 C256 1.391 . S
C253 C252 1.387 . S
C253 C254 1.369 . S
C253 H262 0.929 . S
C254 N251 1.346 . S
C254 C253 1.369 . S
C254 H257 0.928 . S
C255 N251 1.345 . S
C255 C256 1.371 . S
C255 H258 0.931 . S
C256 C252 1.391 . S
C256 C255 1.371 . S
C256 H263 0.930 . S
H257 C254 0.928 . S
H258 C255 0.931 . S
H259 C235 0.930 . S
H260 C232 0.930 . S
H261 C241 0.930 . S
H262 C253 0.929 . S
H263 C256 0.930 . S
C264 C265 1.351 1_554 S
C264 N267 1.368 . S
C264 H269 0.931 . S
C265 C264 1.351 1_556 S
C265 N266 1.373 . S
C265 H293 0.930 . S
N266 C265 1.373 . S
N266 C268 1.340 . S
N267 C264 1.368 . S
N267 C268 1.321 1_554 S
N267 Co270 2.135 . S
C268 N266 1.340 . S
C268 N267 1.321 1_556 S
C268 H292 0.930 . S
H269 C264 0.931 . S
Co270 N267 2.135 . S
Co270 N273 2.121 . S
Co270 O278 2.055 . S
Co270 O281 2.039 . S
Co270 N284 2.140 . S
C271 O272 1.227 . S
C271 O281 1.265 . S
O272 C271 1.227 . S
N273 Co270 2.121 . S
N273 C275 1.375 . S
N273 C276 1.313 . S
C274 C275 1.338 . S
C274 N277 1.377 . S
C274 H294 0.930 . S
C275 N273 1.375 . S
C275 C274 1.338 . S
C275 H279 0.931 . S
C276 N273 1.313 . S
C276 N277 1.344 . S
C276 H280 0.930 . S
N277 C274 1.377 . S
N277 C276 1.344 . S
O278 Co270 2.055 . S
O278 C282 1.253 . S
H279 C275 0.931 . S
H280 C276 0.930 . S
O281 Co270 2.039 . S
O281 C271 1.265 . S
C282 O278 1.253 . S
C282 O283 1.227 . S
O283 C282 1.227 . S
N284 Co270 2.140 . S
N284 C287 1.346 . S
N284 C288 1.345 . S
C285 C286 1.387 . S
C285 C289 1.391 . S
C286 C285 1.387 . S
C286 C287 1.369 . S
C286 H295 0.929 . S
C287 N284 1.346 . S
C287 C286 1.369 . S
C287 H290 0.928 . S
C288 N284 1.345 . S
C288 C289 1.371 . S
C288 H291 0.931 . S
C289 C285 1.391 . S
C289 C288 1.371 . S
C289 H296 0.930 . S
H290 C287 0.928 . S
H291 C288 0.931 . S
H292 C268 0.930 . S
H293 C265 0.930 . S
H294 C274 0.930 . S
H295 C286 0.929 . S
H296 C289 0.930 . S
C297 C298 1.351 . S
C297 N300 1.368 . S
C297 H302 0.931 . S
C298 C297 1.351 . S
C298 N299 1.373 . S
C298 H326 0.930 . S
N299 C298 1.373 . S
N299 C301 1.340 . S
N300 C297 1.368 . S
N300 C301 1.321 . S
N300 Co303 2.135 . S
C301 N299 1.340 . S
C301 N300 1.321 . S
C301 H325 0.930 . S
H302 C297 0.931 . S
Co303 N300 2.135 . S
Co303 N306 2.121 . S
Co303 O311 2.055 . S
Co303 O314 2.039 . S
Co303 N317 2.140 . S
C304 O305 1.227 . S
C304 O314 1.265 . S
O305 C304 1.227 . S
N306 Co303 2.121 . S
N306 C308 1.375 . S
N306 C309 1.313 . S
C307 C308 1.338 . S
C307 N310 1.377 . S
C307 H327 0.930 . S
C308 N306 1.375 . S
C308 C307 1.338 . S
C308 H312 0.931 . S
C309 N306 1.313 . S
C309 N310 1.344 . S
C309 H313 0.930 . S
N310 C307 1.377 . S
N310 C309 1.344 . S
O311 Co303 2.055 . S
O311 C315 1.253 . S
H312 C308 0.931 . S
H313 C309 0.930 . S
O314 Co303 2.039 . S
O314 C304 1.265 . S
C315 O311 1.253 . S
C315 O316 1.227 . S
O316 C315 1.227 . S
N317 Co303 2.140 . S
N317 C320 1.346 . S
N317 C321 1.345 . S
C318 C319 1.387 . S
C318 C322 1.391 . S
C319 C318 1.387 . S
C319 C320 1.369 . S
C319 H328 0.929 . S
C320 N317 1.346 . S
C320 C319 1.369 . S
C320 H323 0.928 . S
C321 N317 1.345 . S
C321 C322 1.371 . S
C321 H324 0.931 . S
C322 C318 1.391 . S
C322 C321 1.371 . S
C322 H329 0.930 . S
H323 C320 0.928 . S
H324 C321 0.931 . S
H325 C301 0.930 . S
H326 C298 0.930 . S
H327 C307 0.930 . S
H328 C319 0.929 . S
H329 C322 0.930 . S
C330 C331 1.351 1_554 S
C330 N333 1.368 . S
C330 H335 0.931 . S
C331 C330 1.351 1_556 S
C331 N332 1.373 . S
C331 H359 0.930 . S
N332 C331 1.373 . S
N332 C334 1.340 . S
N333 C330 1.368 . S
N333 C334 1.321 1_554 S
N333 Co336 2.135 . S
C334 N332 1.340 . S
C334 N333 1.321 1_556 S
C334 H358 0.930 . S
H335 C330 0.931 . S
Co336 N333 2.135 . S
Co336 N339 2.121 . S
Co336 O344 2.055 . S
Co336 O347 2.039 . S
Co336 N350 2.140 . S
C337 O338 1.227 . S
C337 O347 1.265 . S
O338 C337 1.227 . S
N339 Co336 2.121 . S
N339 C341 1.375 . S
N339 C342 1.313 . S
C340 C341 1.338 . S
C340 N343 1.377 . S
C340 H360 0.930 . S
C341 N339 1.375 . S
C341 C340 1.338 . S
C341 H345 0.931 . S
C342 N339 1.313 . S
C342 N343 1.344 . S
C342 H346 0.930 . S
N343 C340 1.377 . S
N343 C342 1.344 . S
O344 Co336 2.055 . S
O344 C348 1.253 . S
H345 C341 0.931 . S
H346 C342 0.930 . S
O347 Co336 2.039 . S
O347 C337 1.265 . S
C348 O344 1.253 . S
C348 O349 1.227 . S
O349 C348 1.227 . S
N350 Co336 2.140 . S
N350 C353 1.346 . S
N350 C354 1.345 . S
C351 C352 1.387 . S
C351 C355 1.391 . S
C352 C351 1.387 . S
C352 C353 1.369 . S
C352 H361 0.929 . S
C353 N350 1.346 . S
C353 C352 1.369 . S
C353 H356 0.928 . S
C354 N350 1.345 . S
C354 C355 1.371 . S
C354 H357 0.931 . S
C355 C351 1.391 . S
C355 C354 1.371 . S
C355 H362 0.930 . S
H356 C353 0.928 . S
H357 C354 0.931 . S
H358 C334 0.930 . S
H359 C331 0.930 . S
H360 C340 0.930 . S
H361 C352 0.929 . S
H362 C355 0.930 . S
C363 C364 1.351 . S
C363 N366 1.368 . S
C363 H368 0.931 . S
C364 C363 1.351 . S
C364 N365 1.373 . S
C364 H392 0.930 . S
N365 C364 1.373 . S
N365 C367 1.340 . S
N366 C363 1.368 . S
N366 C367 1.321 . S
N366 Co369 2.135 . S
C367 N365 1.340 . S
C367 N366 1.321 . S
C367 H391 0.930 . S
H368 C363 0.931 . S
Co369 N366 2.135 . S
Co369 N372 2.121 . S
Co369 O377 2.055 . S
Co369 O380 2.039 . S
Co369 N383 2.140 . S
C370 O371 1.227 . S
C370 O380 1.265 . S
O371 C370 1.227 . S
N372 Co369 2.121 . S
N372 C374 1.375 . S
N372 C375 1.313 . S
C373 C374 1.338 . S
C373 N376 1.377 . S
C373 H393 0.930 . S
C374 N372 1.375 . S
C374 C373 1.338 . S
C374 H378 0.931 . S
C375 N372 1.313 . S
C375 N376 1.344 . S
C375 H379 0.930 . S
N376 C373 1.377 . S
N376 C375 1.344 . S
O377 Co369 2.055 . S
O377 C381 1.253 . S
H378 C374 0.931 . S
H379 C375 0.930 . S
O380 Co369 2.039 . S
O380 C370 1.265 . S
C381 O377 1.253 . S
C381 O382 1.227 . S
O382 C381 1.227 . S
N383 Co369 2.140 . S
N383 C386 1.346 . S
N383 C387 1.345 . S
C384 C385 1.387 . S
C384 C388 1.391 . S
C385 C384 1.387 . S
C385 C386 1.369 . S
C385 H394 0.929 . S
C386 N383 1.346 . S
C386 C385 1.369 . S
C386 H389 0.928 . S
C387 N383 1.345 . S
C387 C388 1.371 . S
C387 H390 0.931 . S
C388 C384 1.391 . S
C388 C387 1.371 . S
C388 H395 0.930 . S
H389 C386 0.928 . S
H390 C387 0.931 . S
H391 C367 0.930 . S
H392 C364 0.930 . S
H393 C373 0.930 . S
H394 C385 0.929 . S
H395 C388 0.930 . S
H396 C408 0.930 . S
H397 C410 0.930 . S
H398 C411 0.930 1_655 S
H399 C415 0.959 . S
H400 C415 0.959 . S
H401 C415 0.961 . S
H402 C416 0.960 . S
H403 C416 0.961 . S
H404 C416 0.959 . S
H405 C419 0.929 . S
H406 C420 0.931 . S
H407 C422 0.930 . S
C408 H396 0.930 . S
C408 C409 1.399 . S
C408 C413 1.399 . S
C409 C408 1.399 . S
C409 C410 1.376 . S
C410 H397 0.930 . S
C410 C409 1.376 . S
C410 C411 1.388 . S
C411 H398 0.930 1_455 S
C411 C410 1.388 . S
C411 C412 1.390 . S
C412 C411 1.390 . S
C412 C413 1.394 . S
C412 C418 1.465 1_455 S
C413 C408 1.399 . S
C413 C412 1.394 . S
C413 C414 1.516 . S
C414 C413 1.516 . S
C414 C415 1.502 . S
C414 C416 1.561 . S
C414 C417 1.526 1_455 S
C415 H399 0.959 . S
C415 H400 0.959 . S
C415 H401 0.961 . S
C415 C414 1.502 . S
C416 H402 0.960 . S
C416 H403 0.961 . S
C416 H404 0.959 . S
C416 C414 1.561 . S
C417 C414 1.526 1_655 S
C417 C418 1.396 . S
C417 C422 1.390 . S
C418 C412 1.465 1_655 S
C418 C417 1.396 . S
C418 C419 1.399 . S
C419 H405 0.929 . S
C419 C418 1.399 . S
C419 C420 1.385 . S
C420 H406 0.931 . S
C420 C419 1.385 . S
C420 C421 1.389 . S
C421 C420 1.389 . S
C421 C422 1.387 . S
C422 H407 0.930 . S
C422 C417 1.390 . S
C422 C421 1.387 . S
H423 C435 0.930 . S
H424 C437 0.930 . S
H425 C438 0.930 . S
H426 C442 0.959 . S
H427 C442 0.959 . S
H428 C442 0.961 . S
H429 C443 0.947 1_545 S
H430 C443 1.008 1_554 S
H431 C443 0.938 1_544 S
H432 C446 0.929 . S
H433 C447 0.931 . S
H434 C449 0.930 . S
C435 H423 0.930 . S
C435 C436 1.399 . S
C435 C440 1.399 . S
C436 C435 1.399 . S
C436 C437 1.376 . S
C437 H424 0.930 . S
C437 C436 1.376 . S
C437 C438 1.388 1_556 S
C438 H425 0.930 . S
C438 C437 1.388 1_554 S
C438 C439 1.390 . S
C439 C438 1.390 . S
C439 C440 1.394 1_554 S
C439 C445 1.465 1_545 S
C440 C435 1.399 . S
C440 C439 1.394 1_556 S
C440 C441 1.516 1_545 S
C441 C440 1.516 1_565 S
C441 C442 1.502 . S
C441 C443 1.551 . S
C441 C444 1.526 1_556 S
C442 H426 0.959 . S
C442 H427 0.959 . S
C442 H428 0.961 . S
C442 C441 1.502 . S
C443 H429 0.947 1_565 S
C443 H430 1.008 1_556 S
C443 H431 0.938 1_566 S
C443 C441 1.551 . S
C444 C441 1.526 1_554 S
C444 C445 1.396 . S
C444 C449 1.390 . S
C445 C439 1.465 1_565 S
C445 C444 1.396 . S
C445 C446 1.399 . S
C446 H432 0.929 . S
C446 C445 1.399 . S
C446 C447 1.385 . S
C447 H433 0.931 . S
C447 C446 1.385 . S
C447 C448 1.389 . S
C448 C447 1.389 . S
C448 C449 1.387 . S
C449 H434 0.930 . S
C449 C444 1.390 . S
C449 C448 1.387 . S
H450 C462 0.930 . S
H451 C464 0.930 . S
H452 C465 0.930 . S
H453 C469 0.959 . S
H454 C469 0.959 . S
H455 C469 0.961 . S
H456 C470 0.960 . S
H457 C470 0.961 . S
H458 C470 0.959 . S
H459 C473 0.929 . S
H460 C474 0.931 . S
H461 C476 0.930 . S
C462 H450 0.930 . S
C462 C463 1.399 . S
C462 C467 1.399 . S
C463 C462 1.399 . S
C463 C464 1.376 . S
C464 H451 0.930 . S
C464 C463 1.376 . S
C464 C465 1.388 . S
C465 H452 0.930 . S
C465 C464 1.388 . S
C465 C466 1.390 . S
C466 C465 1.390 . S
C466 C467 1.394 . S
C466 C472 1.465 . S
C467 C462 1.399 . S
C467 C466 1.394 . S
C467 C468 1.516 . S
C468 C467 1.516 . S
C468 C469 1.502 . S
C468 C470 1.561 . S
C468 C471 1.526 . S
C469 H453 0.959 . S
C469 H454 0.959 . S
C469 H455 0.961 . S
C469 C468 1.502 . S
C470 H456 0.960 . S
C470 H457 0.961 . S
C470 H458 0.959 . S
C470 C468 1.561 . S
C471 C468 1.526 . S
C471 C472 1.396 . S
C471 C476 1.390 . S
C472 C466 1.465 . S
C472 C471 1.396 . S
C472 C473 1.399 . S
C473 H459 0.929 . S
C473 C472 1.399 . S
C473 C474 1.385 . S
C474 H460 0.931 . S
C474 C473 1.385 . S
C474 C475 1.389 . S
C475 C474 1.389 . S
C475 C476 1.387 . S
C476 H461 0.930 . S
C476 C471 1.390 . S
C476 C475 1.387 . S
H477 C489 0.930 . S
H478 C491 0.930 . S
H479 C492 0.930 . S
H480 C496 0.959 . S
H481 C496 0.959 . S
H482 C496 0.961 . S
H483 C497 0.960 . S
H484 C497 0.961 . S
H485 C497 0.959 . S
H486 C500 0.929 1_455 S
H487 C501 0.931 . S
H488 C503 0.930 . S
C489 H477 0.930 . S
C489 C490 1.399 . S
C489 C494 1.399 . S
C490 C489 1.399 . S
C490 C491 1.376 . S
C491 H478 0.930 . S
C491 C490 1.376 . S
C491 C492 1.388 1_554 S
C492 H479 0.930 . S
C492 C491 1.388 1_556 S
C492 C493 1.390 . S
C493 C492 1.390 . S
C493 C494 1.394 1_556 S
C493 C499 1.465 1_455 S
C494 C489 1.399 . S
C494 C493 1.394 1_554 S
C494 C495 1.516 1_455 S
C495 C494 1.516 1_655 S
C495 C496 1.502 . S
C495 C497 1.561 . S
C495 C498 1.526 1_554 S
C496 H480 0.959 . S
C496 H481 0.959 . S
C496 H482 0.961 . S
C496 C495 1.502 . S
C497 H483 0.960 . S
C497 H484 0.961 . S
C497 H485 0.959 . S
C497 C495 1.561 . S
C498 C495 1.526 1_556 S
C498 C499 1.396 . S
C498 C503 1.390 . S
C499 C493 1.465 1_655 S
C499 C498 1.396 . S
C499 C500 1.399 . S
C500 H486 0.929 1_655 S
C500 C499 1.399 . S
C500 C501 1.385 . S
C501 H487 0.931 . S
C501 C500 1.385 . S
C501 C502 1.389 . S
C502 C501 1.389 . S
C502 C503 1.387 . S
C503 H488 0.930 . S
C503 C498 1.390 . S
C503 C502 1.387 . S
H504 C516 0.930 . S
H505 C518 0.930 . S
H506 C519 0.930 . S
H507 C523 0.959 . S
H508 C523 0.959 . S
H509 C523 0.961 . S
H510 C524 0.960 . S
H511 C524 0.961 . S
H512 C524 0.959 . S
H513 C527 0.929 1_545 S
H514 C528 0.931 . S
H515 C530 0.930 . S
C516 H504 0.930 . S
C516 C517 1.399 . S
C516 C521 1.399 . S
C517 C516 1.399 . S
C517 C518 1.376 . S
C518 H505 0.930 . S
C518 C517 1.376 . S
C518 C519 1.388 . S
C519 H506 0.930 . S
C519 C518 1.388 . S
C519 C520 1.390 . S
C520 C519 1.390 . S
C520 C521 1.394 . S
C520 C526 1.465 1_545 S
C521 C516 1.399 . S
C521 C520 1.394 . S
C521 C522 1.516 1_545 S
C522 C521 1.516 1_565 S
C522 C523 1.502 . S
C522 C524 1.561 . S
C522 C525 1.526 . S
C523 H507 0.959 . S
C523 H508 0.959 . S
C523 H509 0.961 . S
C523 C522 1.502 . S
C524 H510 0.960 . S
C524 H511 0.961 . S
C524 H512 0.959 . S
C524 C522 1.561 . S
C525 C522 1.526 . S
C525 C526 1.396 . S
C525 C530 1.390 . S
C526 C520 1.465 1_565 S
C526 C525 1.396 . S
C526 C527 1.399 . S
C527 H513 0.929 1_565 S
C527 C526 1.399 . S
C527 C528 1.385 . S
C528 H514 0.931 . S
C528 C527 1.385 . S
C528 C529 1.389 . S
C529 C528 1.389 . S
C529 C530 1.387 . S
C530 H515 0.930 . S
C530 C525 1.390 . S
C530 C529 1.387 . S
H531 C543 0.930 . S
H532 C545 0.930 . S
H533 C546 0.930 . S
H534 C550 0.959 . S
H535 C550 0.959 . S
H536 C550 0.961 . S
H537 C551 0.960 . S
H538 C551 0.961 . S
H539 C551 0.959 1_556 S
H540 C554 0.929 . S
H541 C555 0.931 . S
H542 C557 0.930 . S
C543 H531 0.930 . S
C543 C544 1.399 . S
C543 C548 1.399 . S
C544 C543 1.399 . S
C544 C545 1.376 . S
C545 H532 0.930 . S
C545 C544 1.376 . S
C545 C546 1.388 . S
C546 H533 0.930 . S
C546 C545 1.388 . S
C546 C547 1.390 . S
C547 C546 1.390 . S
C547 C548 1.394 . S
C547 C553 1.465 . S
C548 C543 1.399 . S
C548 C547 1.394 . S
C548 C549 1.516 1_556 S
C549 C548 1.516 1_554 S
C549 C550 1.502 . S
C549 C551 1.561 . S
C549 C552 1.526 . S
C550 H534 0.959 . S
C550 H535 0.959 . S
C550 H536 0.961 . S
C550 C549 1.502 . S
C551 H537 0.960 . S
C551 H538 0.961 . S
C551 H539 0.959 1_554 S
C551 C549 1.561 . S
C552 C549 1.526 . S
C552 C553 1.396 1_554 S
C552 C557 1.390 . S
C553 C547 1.465 . S
C553 C552 1.396 1_556 S
C553 C554 1.399 . S
C554 H540 0.929 . S
C554 C553 1.399 . S
C554 C555 1.385 1_556 S
C555 H541 0.931 . S
C555 C554 1.385 1_554 S
C555 C556 1.389 . S
C556 C555 1.389 . S
C556 C557 1.387 . S
C557 H542 0.930 . S
C557 C552 1.390 . S
C557 C556 1.387 . S
H558 C570 0.930 . S
H559 C572 0.930 . S
H560 C573 0.930 . S
H561 C577 0.959 . S
H562 C577 0.959 . S
H563 C577 0.961 . S
H564 C578 0.960 . S
H565 C578 0.961 . S
H566 C578 0.959 . S
H567 C581 0.929 . S
H568 C582 0.931 . S
H569 C584 0.930 . S
C570 H558 0.930 . S
C570 C571 1.399 . S
C570 C575 1.399 . S
C571 C570 1.399 . S
C571 C572 1.376 . S
C572 H559 0.930 . S
C572 C571 1.376 . S
C572 C573 1.388 . S
C573 H560 0.930 . S
C573 C572 1.388 . S
C573 C574 1.390 . S
C574 C573 1.390 . S
C574 C575 1.394 . S
C574 C580 1.465 . S
C575 C570 1.399 . S
C575 C574 1.394 . S
C575 C576 1.516 . S
C576 C575 1.516 . S
C576 C577 1.502 . S
C576 C578 1.561 . S
C576 C579 1.526 . S
C577 H561 0.959 . S
C577 H562 0.959 . S
C577 H563 0.961 . S
C577 C576 1.502 . S
C578 H564 0.960 . S
C578 H565 0.961 . S
C578 H566 0.959 . S
C578 C576 1.561 . S
C579 C576 1.526 . S
C579 C580 1.396 . S
C579 C584 1.390 . S
C580 C574 1.465 . S
C580 C579 1.396 . S
C580 C581 1.399 . S
C581 H567 0.929 . S
C581 C580 1.399 . S
C581 C582 1.385 . S
C582 H568 0.931 . S
C582 C581 1.385 . S
C582 C583 1.389 . S
C583 C582 1.389 . S
C583 C584 1.387 . S
C584 H569 0.930 . S
C584 C579 1.390 . S
C584 C583 1.387 . S
H585 C597 0.930 . S
H586 C599 0.930 . S
H587 C600 0.930 . S
H588 C604 0.959 . S
H589 C604 0.959 . S
H590 C604 0.961 . S
H591 C605 0.960 . S
H592 C605 0.961 . S
H593 C605 0.959 . S
H594 C608 0.929 . S
H595 C609 0.931 . S
H596 C611 0.930 . S
C597 H585 0.930 . S
C597 C598 1.399 . S
C597 C602 1.399 . S
C598 C597 1.399 . S
C598 C599 1.376 . S
C599 H586 0.930 . S
C599 C598 1.376 . S
C599 C600 1.388 . S
C600 H587 0.930 . S
C600 C599 1.388 . S
C600 C601 1.390 . S
C601 C600 1.390 . S
C601 C602 1.394 . S
C601 C607 1.465 . S
C602 C597 1.399 . S
C602 C601 1.394 . S
C602 C603 1.516 . S
C603 C602 1.516 . S
C603 C604 1.502 . S
C603 C605 1.561 . S
C603 C606 1.526 . S
C604 H588 0.959 . S
C604 H589 0.959 . S
C604 H590 0.961 . S
C604 C603 1.502 . S
C605 H591 0.960 . S
C605 H592 0.961 . S
C605 H593 0.959 . S
C605 C603 1.561 . S
C606 C603 1.526 . S
C606 C607 1.396 . S
C606 C611 1.390 . S
C607 C601 1.465 . S
C607 C606 1.396 . S
C607 C608 1.399 . S
C608 H594 0.929 . S
C608 C607 1.399 . S
C608 C609 1.385 . S
C609 H595 0.931 . S
C609 C608 1.385 . S
C609 C610 1.389 . S
C610 C609 1.389 . S
C610 C611 1.387 . S
C611 H596 0.930 . S
C611 C606 1.390 . S
C611 C610 1.387 . S
H612 C624 0.930 . S
H613 C626 0.930 . S
H614 C627 0.930 . S
H615 C631 0.959 . S
H616 C631 0.959 . S
H617 C631 0.961 . S
H618 C632 0.960 . S
H619 C632 0.961 . S
H620 C632 0.959 . S
H621 C635 0.929 . S
H622 C636 0.931 . S
H623 C638 0.930 . S
C624 H612 0.930 . S
C624 C625 1.399 . S
C624 C629 1.399 . S
C625 C624 1.399 . S
C625 C626 1.376 . S
C626 H613 0.930 . S
C626 C625 1.376 . S
C626 C627 1.388 . S
C627 H614 0.930 . S
C627 C626 1.388 . S
C627 C628 1.390 . S
C628 C627 1.390 . S
C628 C629 1.394 . S
C628 C634 1.465 . S
C629 C624 1.399 . S
C629 C628 1.394 . S
C629 C630 1.516 . S
C630 C629 1.516 . S
C630 C631 1.502 . S
C630 C632 1.561 . S
C630 C633 1.526 . S
C631 H615 0.959 . S
C631 H616 0.959 . S
C631 H617 0.961 . S
C631 C630 1.502 . S
C632 H618 0.960 . S
C632 H619 0.961 . S
C632 H620 0.959 . S
C632 C630 1.561 . S
C633 C630 1.526 . S
C633 C634 1.396 . S
C633 C638 1.390 . S
C634 C628 1.465 . S
C634 C633 1.396 . S
C634 C635 1.399 . S
C635 H621 0.929 . S
C635 C634 1.399 . S
C635 C636 1.385 . S
C636 H622 0.931 . S
C636 C635 1.385 . S
C636 C637 1.389 . S
C637 C636 1.389 . S
C637 C638 1.387 . S
C638 H623 0.930 . S
C638 C633 1.390 . S
C638 C637 1.387 . S
H639 C651 0.930 . S
H640 C653 0.930 . S
H641 C654 0.930 . S
H642 C658 0.959 . S
H643 C658 0.959 . S
H644 C658 0.961 . S
H645 C659 0.960 . S
H646 C659 0.961 . S
H647 C659 0.959 . S
H648 C662 0.929 . S
H649 C663 0.931 . S
H650 C665 0.930 . S
C651 H639 0.930 . S
C651 C652 1.399 . S
C651 C656 1.399 . S
C652 C651 1.399 . S
C652 C653 1.376 . S
C653 H640 0.930 . S
C653 C652 1.376 . S
C653 C654 1.388 . S
C654 H641 0.930 . S
C654 C653 1.388 . S
C654 C655 1.390 . S
C655 C654 1.390 . S
C655 C656 1.394 . S
C655 C661 1.465 . S
C656 C651 1.399 . S
C656 C655 1.394 . S
C656 C657 1.516 . S
C657 C656 1.516 . S
C657 C658 1.502 . S
C657 C659 1.561 . S
C657 C660 1.526 . S
C658 H642 0.959 . S
C658 H643 0.959 . S
C658 H644 0.961 . S
C658 C657 1.502 . S
C659 H645 0.960 . S
C659 H646 0.961 . S
C659 H647 0.959 . S
C659 C657 1.561 . S
C660 C657 1.526 . S
C660 C661 1.396 . S
C660 C665 1.390 . S
C661 C655 1.465 . S
C661 C660 1.396 . S
C661 C662 1.399 . S
C662 H648 0.929 . S
C662 C661 1.399 . S
C662 C663 1.385 . S
C663 H649 0.931 . S
C663 C662 1.385 . S
C663 C664 1.389 . S
C664 C663 1.389 . S
C664 C665 1.387 . S
C665 H650 0.930 . S
C665 C660 1.390 . S
C665 C664 1.387 . S
H666 C678 0.930 . S
H667 C680 0.930 . S
H668 C681 0.930 . S
H669 C685 0.959 . S
H670 C685 0.959 . S
H671 C685 0.961 . S
H672 C686 0.960 . S
H673 C686 0.961 . S
H674 C686 0.959 . S
H675 C689 0.929 . S
H676 C690 0.931 . S
H677 C692 0.930 . S
C678 H666 0.930 . S
C678 C679 1.399 . S
C678 C683 1.399 . S
C679 C678 1.399 . S
C679 C680 1.376 . S
C680 H667 0.930 . S
C680 C679 1.376 . S
C680 C681 1.388 . S
C681 H668 0.930 . S
C681 C680 1.388 . S
C681 C682 1.390 . S
C682 C681 1.390 . S
C682 C683 1.394 . S
C682 C688 1.465 . S
C683 C678 1.399 . S
C683 C682 1.394 . S
C683 C684 1.516 . S
C684 C683 1.516 . S
C684 C685 1.502 . S
C684 C686 1.561 . S
C684 C687 1.526 . S
C685 H669 0.959 . S
C685 H670 0.959 . S
C685 H671 0.961 . S
C685 C684 1.502 . S
C686 H672 0.960 . S
C686 H673 0.961 . S
C686 H674 0.959 . S
C686 C684 1.561 . S
C687 C684 1.526 . S
C687 C688 1.396 . S
C687 C692 1.390 . S
C688 C682 1.465 . S
C688 C687 1.396 . S
C688 C689 1.399 . S
C689 H675 0.929 . S
C689 C688 1.399 . S
C689 C690 1.385 . S
C690 H676 0.931 . S
C690 C689 1.385 . S
C690 C691 1.389 . S
C691 C690 1.389 . S
C691 C692 1.387 . S
C692 H677 0.930 . S
C692 C687 1.390 . S
C692 C691 1.387 . S
H693 C705 0.930 . S
H694 C707 0.930 . S
H695 C708 0.930 . S
H696 C712 0.959 . S
H697 C712 0.959 . S
H698 C712 0.961 . S
H699 C713 0.960 . S
H700 C713 0.961 . S
H701 C713 0.959 . S
H702 C716 0.929 . S
H703 C717 0.931 . S
H704 C719 0.930 . S
C705 H693 0.930 . S
C705 C706 1.399 . S
C705 C710 1.399 . S
C706 C705 1.399 . S
C706 C707 1.376 . S
C707 H694 0.930 . S
C707 C706 1.376 . S
C707 C708 1.388 . S
C708 H695 0.930 . S
C708 C707 1.388 . S
C708 C709 1.390 . S
C709 C708 1.390 . S
C709 C710 1.394 . S
C709 C715 1.465 . S
C710 C705 1.399 . S
C710 C709 1.394 . S
C710 C711 1.516 . S
C711 C710 1.516 . S
C711 C712 1.502 . S
C711 C713 1.561 . S
C711 C714 1.526 . S
C712 H696 0.959 . S
C712 H697 0.959 . S
C712 H698 0.961 . S
C712 C711 1.502 . S
C713 H699 0.960 . S
C713 H700 0.961 . S
C713 H701 0.959 . S
C713 C711 1.561 . S
C714 C711 1.526 . S
C714 C715 1.396 . S
C714 C719 1.390 . S
C715 C709 1.465 . S
C715 C714 1.396 . S
C715 C716 1.399 . S
C716 H702 0.929 . S
C716 C715 1.399 . S
C716 C717 1.385 . S
C717 H703 0.931 . S
C717 C716 1.385 . S
C717 C718 1.389 . S
C718 C717 1.389 . S
C718 C719 1.387 . S
C719 H704 0.930 . S
C719 C714 1.390 . S
C719 C718 1.387 . S
H720 C732 0.930 . S
H721 C734 0.930 . S
H722 C735 0.930 . S
H723 C739 0.959 . S
H724 C739 0.959 . S
H725 C739 0.961 . S
H726 C740 0.960 . S
H727 C740 0.961 . S
H728 C740 0.959 . S
H729 C743 0.929 . S
H730 C744 0.931 1_554 S
H731 C746 0.930 1_554 S
C732 H720 0.930 . S
C732 C733 1.399 . S
C732 C737 1.399 . S
C733 C732 1.399 . S
C733 C734 1.376 . S
C734 H721 0.930 . S
C734 C733 1.376 . S
C734 C735 1.388 . S
C735 H722 0.930 . S
C735 C734 1.388 . S
C735 C736 1.390 . S
C736 C735 1.390 . S
C736 C737 1.394 . S
C736 C742 1.465 . S
C737 C732 1.399 . S
C737 C736 1.394 . S
C737 C738 1.516 . S
C738 C737 1.516 . S
C738 C739 1.502 . S
C738 C740 1.561 . S
C738 C741 1.526 . S
C739 H723 0.959 . S
C739 H724 0.959 . S
C739 H725 0.961 . S
C739 C738 1.502 . S
C740 H726 0.960 . S
C740 H727 0.961 . S
C740 H728 0.959 . S
C740 C738 1.561 . S
C741 C738 1.526 . S
C741 C742 1.396 . S
C741 C746 1.390 . S
C742 C736 1.465 . S
C742 C741 1.396 . S
C742 C743 1.399 . S
C743 H729 0.929 . S
C743 C742 1.399 . S
C743 C744 1.385 . S
C744 H730 0.931 1_556 S
C744 C743 1.385 . S
C744 C745 1.389 1_556 S
C745 C744 1.389 1_554 S
C745 C746 1.387 1_554 S
C746 H731 0.930 1_556 S
C746 C741 1.390 . S
C746 C745 1.387 1_556 S
H747 C759 0.930 . S
H748 C761 0.930 . S
H749 C762 0.930 . S
H750 C766 0.959 . S
H751 C766 0.959 . S
H752 C766 0.961 . S
H753 C767 0.960 . S
H754 C767 0.961 . S
H755 C767 0.959 . S
H756 C770 0.929 . S
H757 C771 0.931 . S
H758 C773 0.930 . S
C759 H747 0.930 . S
C759 C760 1.399 . S
C759 C764 1.399 . S
C760 C759 1.399 . S
C760 C761 1.376 . S
C761 H748 0.930 . S
C761 C760 1.376 . S
C761 C762 1.388 . S
C762 H749 0.930 . S
C762 C761 1.388 . S
C762 C763 1.390 . S
C763 C762 1.390 . S
C763 C764 1.394 . S
C763 C769 1.465 . S
C764 C759 1.399 . S
C764 C763 1.394 . S
C764 C765 1.516 . S
C765 C764 1.516 . S
C765 C766 1.502 . S
C765 C767 1.561 . S
C765 C768 1.526 . S
C766 H750 0.959 . S
C766 H751 0.959 . S
C766 H752 0.961 . S
C766 C765 1.502 . S
C767 H753 0.960 . S
C767 H754 0.961 . S
C767 H755 0.959 . S
C767 C765 1.561 . S
C768 C765 1.526 . S
C768 C769 1.396 . S
C768 C773 1.390 . S
C769 C763 1.465 . S
C769 C768 1.396 . S
C769 C770 1.399 . S
C770 H756 0.929 . S
C770 C769 1.399 . S
C770 C771 1.385 . S
C771 H757 0.931 . S
C771 C770 1.385 . S
C771 C772 1.389 . S
C772 C771 1.389 . S
C772 C773 1.387 . S
C773 H758 0.930 . S
C773 C768 1.390 . S
C773 C772 1.387 . S
H774 C786 0.930 . S
H775 C788 0.930 . S
H776 C789 0.930 . S
H777 C793 0.959 . S
H778 C793 0.959 . S
H779 C793 0.961 . S
H780 C794 0.960 . S
H781 C794 0.961 . S
H782 C794 0.959 . S
H783 C797 0.929 . S
H784 C798 0.931 . S
H785 C800 0.930 . S
C786 H774 0.930 . S
C786 C787 1.399 . S
C786 C791 1.399 . S
C787 C786 1.399 . S
C787 C788 1.376 . S
C788 H775 0.930 . S
C788 C787 1.376 . S
C788 C789 1.388 . S
C789 H776 0.930 . S
C789 C788 1.388 . S
C789 C790 1.390 . S
C790 C789 1.390 . S
C790 C791 1.394 . S
C790 C796 1.465 . S
C791 C786 1.399 . S
C791 C790 1.394 . S
C791 C792 1.516 . S
C792 C791 1.516 . S
C792 C793 1.502 . S
C792 C794 1.561 . S
C792 C795 1.526 . S
C793 H777 0.959 . S
C793 H778 0.959 . S
C793 H779 0.961 . S
C793 C792 1.502 . S
C794 H780 0.960 . S
C794 H781 0.961 . S
C794 H782 0.959 . S
C794 C792 1.561 . S
C795 C792 1.526 . S
C795 C796 1.396 . S
C795 C800 1.390 . S
C796 C790 1.465 . S
C796 C795 1.396 . S
C796 C797 1.399 . S
C797 H783 0.929 . S
C797 C796 1.399 . S
C797 C798 1.385 1_556 S
C798 H784 0.931 . S
C798 C797 1.385 1_554 S
C798 C799 1.389 . S
C799 C798 1.389 . S
C799 C800 1.387 1_554 S
C800 H785 0.930 . S
C800 C795 1.390 . S
C800 C799 1.387 1_556 S
H801 C813 0.930 . S
H802 C815 0.930 . S
H803 C816 0.930 . S
H804 C820 0.959 . S
H805 C820 0.959 . S
H806 C820 0.961 . S
H807 C821 0.960 . S
H808 C821 0.961 . S
H809 C821 0.959 . S
H810 C824 0.929 . S
H811 C825 0.931 . S
H812 C827 0.930 . S
C813 H801 0.930 . S
C813 C814 1.399 . S
C813 C818 1.399 . S
C814 C813 1.399 . S
C814 C815 1.376 . S
C815 H802 0.930 . S
C815 C814 1.376 . S
C815 C816 1.388 . S
C816 H803 0.930 . S
C816 C815 1.388 . S
C816 C817 1.390 . S
C817 C816 1.390 . S
C817 C818 1.394 . S
C817 C823 1.465 . S
C818 C813 1.399 . S
C818 C817 1.394 . S
C818 C819 1.516 . S
C819 C818 1.516 . S
C819 C820 1.502 . S
C819 C821 1.561 . S
C819 C822 1.526 . S
C820 H804 0.959 . S
C820 H805 0.959 . S
C820 H806 0.961 . S
C820 C819 1.502 . S
C821 H807 0.960 . S
C821 H808 0.961 . S
C821 H809 0.959 . S
C821 C819 1.561 . S
C822 C819 1.526 . S
C822 C823 1.396 . S
C822 C827 1.390 . S
C823 C817 1.465 . S
C823 C822 1.396 . S
C823 C824 1.399 . S
C824 H810 0.929 . S
C824 C823 1.399 . S
C824 C825 1.385 . S
C825 H811 0.931 . S
C825 C824 1.385 . S
C825 C826 1.389 . S
C826 C825 1.389 . S
C826 C827 1.387 . S
C827 H812 0.930 . S
C827 C822 1.390 . S
C827 C826 1.387 . S
H828 C840 0.930 . S
H829 C842 0.930 . S
H830 C843 0.930 . S
H831 C847 0.959 . S
H832 C847 0.959 . S
H833 C847 0.961 . S
H834 C848 0.960 . S
H835 C848 0.961 . S
H836 C848 0.959 . S
H837 C851 0.929 . S
H838 C852 0.931 1_554 S
H839 C854 0.930 . S
C840 H828 0.930 . S
C840 C841 1.399 . S
C840 C845 1.399 . S
C841 C840 1.399 . S
C841 C842 1.376 . S
C842 H829 0.930 . S
C842 C841 1.376 . S
C842 C843 1.388 . S
C843 H830 0.930 . S
C843 C842 1.388 . S
C843 C844 1.390 . S
C844 C843 1.390 . S
C844 C845 1.394 . S
C844 C850 1.465 . S
C845 C840 1.399 . S
C845 C844 1.394 . S
C845 C846 1.516 . S
C846 C845 1.516 . S
C846 C847 1.502 . S
C846 C848 1.561 . S
C846 C849 1.526 . S
C847 H831 0.959 . S
C847 H832 0.959 . S
C847 H833 0.961 . S
C847 C846 1.502 . S
C848 H834 0.960 . S
C848 H835 0.961 . S
C848 H836 0.959 . S
C848 C846 1.561 . S
C849 C846 1.526 . S
C849 C850 1.396 . S
C849 C854 1.390 . S
C850 C844 1.465 . S
C850 C849 1.396 . S
C850 C851 1.399 . S
C851 H837 0.929 . S
C851 C850 1.399 . S
C851 C852 1.385 . S
C852 H838 0.931 1_556 S
C852 C851 1.385 . S
C852 C853 1.389 1_556 S
C853 C852 1.389 1_554 S
C853 C854 1.387 1_554 S
C854 H839 0.930 . S
C854 C849 1.390 . S
C854 C853 1.387 1_556 S
H855 C867 0.930 . S
H856 C869 0.930 . S
H857 C870 0.930 . S
H858 C874 0.959 . S
H859 C874 0.959 . S
H860 C874 0.961 . S
H861 C875 0.960 . S
H862 C875 0.961 . S
H863 C875 0.959 . S
H864 C878 0.929 . S
H865 C879 0.931 . S
H866 C881 0.930 . S
C867 H855 0.930 . S
C867 C868 1.399 . S
C867 C872 1.399 . S
C868 C867 1.399 . S
C868 C869 1.376 . S
C869 H856 0.930 . S
C869 C868 1.376 . S
C869 C870 1.388 . S
C870 H857 0.930 . S
C870 C869 1.388 . S
C870 C871 1.390 . S
C871 C870 1.390 . S
C871 C872 1.394 . S
C871 C877 1.465 . S
C872 C867 1.399 . S
C872 C871 1.394 . S
C872 C873 1.516 . S
C873 C872 1.516 . S
C873 C874 1.502 . S
C873 C875 1.561 . S
C873 C876 1.526 . S
C874 H858 0.959 . S
C874 H859 0.959 . S
C874 H860 0.961 . S
C874 C873 1.502 . S
C875 H861 0.960 . S
C875 H862 0.961 . S
C875 H863 0.959 . S
C875 C873 1.561 . S
C876 C873 1.526 . S
C876 C877 1.396 . S
C876 C881 1.390 . S
C877 C871 1.465 . S
C877 C876 1.396 . S
C877 C878 1.399 . S
C878 H864 0.929 . S
C878 C877 1.399 . S
C878 C879 1.385 . S
C879 H865 0.931 . S
C879 C878 1.385 . S
C879 C880 1.389 . S
C880 C879 1.389 . S
C880 C881 1.387 . S
C881 H866 0.930 . S
C881 C876 1.390 . S
C881 C880 1.387 . S
H882 C894 0.930 . S
H883 C896 0.930 . S
H884 C897 0.930 . S
H885 C901 0.959 . S
H886 C901 0.959 . S
H887 C901 0.961 . S
H888 C902 0.960 . S
H889 C902 0.961 . S
H890 C902 0.959 . S
H891 C905 0.929 . S
H892 C906 0.931 . S
H893 C908 0.930 . S
C894 H882 0.930 . S
C894 C895 1.399 . S
C894 C899 1.399 . S
C895 C894 1.399 . S
C895 C896 1.376 . S
C896 H883 0.930 . S
C896 C895 1.376 . S
C896 C897 1.388 . S
C897 H884 0.930 . S
C897 C896 1.388 . S
C897 C898 1.390 . S
C898 C897 1.390 . S
C898 C899 1.394 . S
C898 C904 1.465 . S
C899 C894 1.399 . S
C899 C898 1.394 . S
C899 C900 1.516 . S
C900 C899 1.516 . S
C900 C901 1.502 . S
C900 C902 1.561 . S
C900 C903 1.526 . S
C901 H885 0.959 . S
C901 H886 0.959 . S
C901 H887 0.961 . S
C901 C900 1.502 . S
C902 H888 0.960 . S
C902 H889 0.961 . S
C902 H890 0.959 . S
C902 C900 1.561 . S
C903 C900 1.526 . S
C903 C904 1.396 . S
C903 C908 1.390 . S
C904 C898 1.465 . S
C904 C903 1.396 . S
C904 C905 1.399 . S
C905 H891 0.929 . S
C905 C904 1.399 . S
C905 C906 1.385 . S
C906 H892 0.931 . S
C906 C905 1.385 . S
C906 C907 1.389 . S
C907 C906 1.389 . S
C907 C908 1.387 . S
C908 H893 0.930 . S
C908 C903 1.390 . S
C908 C907 1.387 . S
H909 C921 0.930 . S
H910 C923 0.930 . S
H911 C924 0.930 . S
H912 C928 0.959 . S
H913 C928 0.959 . S
H914 C928 0.961 . S
H915 C929 0.960 . S
H916 C929 0.961 . S
H917 C929 0.959 . S
H918 C932 0.929 . S
H919 C933 0.931 . S
H920 C935 0.930 . S
C921 H909 0.930 . S
C921 C922 1.399 . S
C921 C926 1.399 . S
C922 C921 1.399 . S
C922 C923 1.376 . S
C923 H910 0.930 . S
C923 C922 1.376 . S
C923 C924 1.388 . S
C924 H911 0.930 . S
C924 C923 1.388 . S
C924 C925 1.390 . S
C925 C924 1.390 . S
C925 C926 1.394 . S
C925 C931 1.465 . S
C926 C921 1.399 . S
C926 C925 1.394 . S
C926 C927 1.516 . S
C927 C926 1.516 . S
C927 C928 1.502 . S
C927 C929 1.561 . S
C927 C930 1.526 . S
C928 H912 0.959 . S
C928 H913 0.959 . S
C928 H914 0.961 . S
C928 C927 1.502 . S
C929 H915 0.960 . S
C929 H916 0.961 . S
C929 H917 0.959 . S
C929 C927 1.561 . S
C930 C927 1.526 . S
C930 C931 1.396 . S
C930 C935 1.390 . S
C931 C925 1.465 . S
C931 C930 1.396 . S
C931 C932 1.399 . S
C932 H918 0.929 . S
C932 C931 1.399 . S
C932 C933 1.385 1_554 S
C933 H919 0.931 . S
C933 C932 1.385 1_556 S
C933 C934 1.389 . S
C934 C933 1.389 . S
C934 C935 1.387 1_556 S
C935 H920 0.930 . S
C935 C930 1.390 . S
C935 C934 1.387 1_554 S
H936 C948 0.930 . S
H937 C950 0.930 . S
H938 C951 0.930 . S
H939 C955 0.959 . S
H940 C955 0.959 . S
H941 C955 0.961 . S
H942 C956 0.960 . S
H943 C956 0.961 . S
H944 C956 0.959 . S
H945 C959 0.929 . S
H946 C960 0.931 . S
H947 C962 0.930 . S
C948 H936 0.930 . S
C948 C949 1.399 . S
C948 C953 1.399 . S
C949 C948 1.399 . S
C949 C950 1.376 . S
C950 H937 0.930 . S
C950 C949 1.376 . S
C950 C951 1.388 . S
C951 H938 0.930 . S
C951 C950 1.388 . S
C951 C952 1.390 . S
C952 C951 1.390 . S
C952 C953 1.394 . S
C952 C958 1.465 . S
C953 C948 1.399 . S
C953 C952 1.394 . S
C953 C954 1.516 . S
C954 C953 1.516 . S
C954 C955 1.502 . S
C954 C956 1.561 . S
C954 C957 1.526 . S
C955 H939 0.959 . S
C955 H940 0.959 . S
C955 H941 0.961 . S
C955 C954 1.502 . S
C956 H942 0.960 . S
C956 H943 0.961 . S
C956 H944 0.959 . S
C956 C954 1.561 . S
C957 C954 1.526 . S
C957 C958 1.396 . S
C957 C962 1.390 . S
C958 C952 1.465 . S
C958 C957 1.396 . S
C958 C959 1.399 . S
C959 H945 0.929 . S
C959 C958 1.399 . S
C959 C960 1.385 . S
C960 H946 0.931 . S
C960 C959 1.385 . S
C960 C961 1.389 . S
C961 C960 1.389 . S
C961 C962 1.387 . S
C962 H947 0.930 . S
C962 C957 1.390 . S
C962 C961 1.387 . S
H963 C975 0.930 . S
H964 C977 0.930 . S
H965 C978 0.930 . S
H966 C982 0.959 . S
H967 C982 0.959 . S
H968 C982 0.961 . S
H969 C983 0.960 . S
H970 C983 0.961 . S
H971 C983 0.959 . S
H972 C986 0.929 . S
H973 C987 0.931 . S
H974 C989 0.930 . S
C975 H963 0.930 . S
C975 C976 1.399 1_554 S
C975 C980 1.399 . S
C976 C975 1.399 1_556 S
C976 C977 1.376 . S
C977 H964 0.930 . S
C977 C976 1.376 . S
C977 C978 1.388 1_556 S
C978 H965 0.930 . S
C978 C977 1.388 1_554 S
C978 C979 1.390 . S
C979 C978 1.390 . S
C979 C980 1.394 . S
C979 C985 1.465 . S
C980 C975 1.399 . S
C980 C979 1.394 . S
C980 C981 1.516 . S
C981 C980 1.516 . S
C981 C982 1.502 . S
C981 C983 1.561 . S
C981 C984 1.526 . S
C982 H966 0.959 . S
C982 H967 0.959 . S
C982 H968 0.961 . S
C982 C981 1.502 . S
C983 H969 0.960 . S
C983 H970 0.961 . S
C983 H971 0.959 . S
C983 C981 1.561 . S
C984 C981 1.526 . S
C984 C985 1.396 . S
C984 C989 1.390 . S
C985 C979 1.465 . S
C985 C984 1.396 . S
C985 C986 1.399 . S
C986 H972 0.929 . S
C986 C985 1.399 . S
C986 C987 1.385 . S
C987 H973 0.931 . S
C987 C986 1.385 . S
C987 C988 1.389 . S
C988 C987 1.389 . S
C988 C989 1.387 . S
C989 H974 0.930 . S
C989 C984 1.390 . S
C989 C988 1.387 . S
H990 C1002 0.930 . S
H991 C1004 0.930 . S
H992 C1005 0.930 . S
H993 C1009 0.959 . S
H994 C1009 0.959 . S
H995 C1009 0.961 . S
H996 C1010 0.960 . S
H997 C1010 0.961 . S
H998 C1010 0.959 . S
H999 C1013 0.929 . S
H1000 C1014 0.931 . S
H1001 C1016 0.930 . S
C1002 H990 0.930 . S
C1002 C1003 1.399 . S
C1002 C1007 1.399 . S
C1003 C1002 1.399 . S
C1003 C1004 1.376 . S
C1004 H991 0.930 . S
C1004 C1003 1.376 . S
C1004 C1005 1.388 . S
C1005 H992 0.930 . S
C1005 C1004 1.388 . S
C1005 C1006 1.390 . S
C1006 C1005 1.390 . S
C1006 C1007 1.394 . S
C1006 C1012 1.465 . S
C1007 C1002 1.399 . S
C1007 C1006 1.394 . S
C1007 C1008 1.516 . S
C1008 C1007 1.516 . S
C1008 C1009 1.502 . S
C1008 C1010 1.561 . S
C1008 C1011 1.526 . S
C1009 H993 0.959 . S
C1009 H994 0.959 . S
C1009 H995 0.961 . S
C1009 C1008 1.502 . S
C1010 H996 0.960 . S
C1010 H997 0.961 . S
C1010 H998 0.959 . S
C1010 C1008 1.561 . S
C1011 C1008 1.526 . S
C1011 C1012 1.396 . S
C1011 C1016 1.390 . S
C1012 C1006 1.465 . S
C1012 C1011 1.396 . S
C1012 C1013 1.399 . S
C1013 H999 0.929 . S
C1013 C1012 1.399 . S
C1013 C1014 1.385 . S
C1014 H1000 0.931 . S
C1014 C1013 1.385 . S
C1014 C1015 1.389 . S
C1015 C1014 1.389 . S
C1015 C1016 1.387 . S
C1016 H1001 0.930 . S
C1016 C1011 1.390 . S
C1016 C1015 1.387 . S
H1017 C1029 0.930 . S
H1018 C1031 0.930 . S
H1019 C1032 0.930 . S
H1020 C1036 0.959 . S
H1021 C1036 0.959 . S
H1022 C1036 0.961 . S
H1023 C1037 0.960 . S
H1024 C1037 0.961 . S
H1025 C1037 0.959 . S
H1026 C1040 0.929 . S
H1027 C1041 0.931 1_556 S
H1028 C1043 0.930 1_556 S
C1029 H1017 0.930 . S
C1029 C1030 1.399 . S
C1029 C1034 1.399 . S
C1030 C1029 1.399 . S
C1030 C1031 1.376 . S
C1031 H1018 0.930 . S
C1031 C1030 1.376 . S
C1031 C1032 1.388 . S
C1032 H1019 0.930 . S
C1032 C1031 1.388 . S
C1032 C1033 1.390 . S
C1033 C1032 1.390 . S
C1033 C1034 1.394 . S
C1033 C1039 1.465 . S
C1034 C1029 1.399 . S
C1034 C1033 1.394 . S
C1034 C1035 1.516 . S
C1035 C1034 1.516 . S
C1035 C1036 1.502 . S
C1035 C1037 1.561 . S
C1035 C1038 1.526 . S
C1036 H1020 0.959 . S
C1036 H1021 0.959 . S
C1036 H1022 0.961 . S
C1036 C1035 1.502 . S
C1037 H1023 0.960 . S
C1037 H1024 0.961 . S
C1037 H1025 0.959 . S
C1037 C1035 1.561 . S
C1038 C1035 1.526 . S
C1038 C1039 1.396 . S
C1038 C1043 1.390 . S
C1039 C1033 1.465 . S
C1039 C1038 1.396 . S
C1039 C1040 1.399 . S
C1040 H1026 0.929 . S
C1040 C1039 1.399 . S
C1040 C1041 1.385 . S
C1041 H1027 0.931 1_554 S
C1041 C1040 1.385 . S
C1041 C1042 1.389 1_554 S
C1042 C1041 1.389 1_556 S
C1042 C1043 1.387 1_556 S
C1043 H1028 0.930 1_554 S
C1043 C1038 1.390 . S
C1043 C1042 1.387 1_554 S
H1044 C1056 0.930 . S
H1045 C1058 0.930 . S
H1046 C1059 0.930 . S
H1047 C1063 0.959 . S
H1048 C1063 0.959 . S
H1049 C1063 0.961 . S
H1050 C1064 0.960 . S
H1051 C1064 0.961 . S
H1052 C1064 0.959 . S
H1053 C1067 0.929 . S
H1054 C1068 0.931 . S
H1055 C1070 0.930 . S
C1056 H1044 0.930 . S
C1056 C1057 1.399 . S
C1056 C1061 1.399 . S
C1057 C1056 1.399 . S
C1057 C1058 1.376 . S
C1058 H1045 0.930 . S
C1058 C1057 1.376 . S
C1058 C1059 1.388 . S
C1059 H1046 0.930 . S
C1059 C1058 1.388 . S
C1059 C1060 1.390 . S
C1060 C1059 1.390 . S
C1060 C1061 1.394 . S
C1060 C1066 1.465 . S
C1061 C1056 1.399 . S
C1061 C1060 1.394 . S
C1061 C1062 1.516 . S
C1062 C1061 1.516 . S
C1062 C1063 1.502 . S
C1062 C1064 1.561 . S
C1062 C1065 1.526 . S
C1063 H1047 0.959 . S
C1063 H1048 0.959 . S
C1063 H1049 0.961 . S
C1063 C1062 1.502 . S
C1064 H1050 0.960 . S
C1064 H1051 0.961 . S
C1064 H1052 0.959 . S
C1064 C1062 1.561 . S
C1065 C1062 1.526 . S
C1065 C1066 1.396 . S
C1065 C1070 1.390 . S
C1066 C1060 1.465 . S
C1066 C1065 1.396 . S
C1066 C1067 1.399 . S
C1067 H1053 0.929 . S
C1067 C1066 1.399 . S
C1067 C1068 1.385 . S
C1068 H1054 0.931 . S
C1068 C1067 1.385 . S
C1068 C1069 1.389 . S
C1069 C1068 1.389 . S
C1069 C1070 1.387 . S
C1070 H1055 0.930 . S
C1070 C1065 1.390 . S
C1070 C1069 1.387 . S
H1071 C1083 0.930 . S
H1072 C1085 0.930 . S
H1073 C1086 0.930 . S
H1074 C1090 0.959 . S
H1075 C1090 0.959 . S
H1076 C1090 0.961 . S
H1077 C1091 0.960 . S
H1078 C1091 0.961 . S
H1079 C1091 0.959 . S
H1080 C1094 0.929 . S
H1081 C1095 0.931 . S
H1082 C1097 0.930 . S
C1083 H1071 0.930 . S
C1083 C1084 1.399 . S
C1083 C1088 1.399 . S
C1084 C1083 1.399 . S
C1084 C1085 1.376 . S
C1085 H1072 0.930 . S
C1085 C1084 1.376 . S
C1085 C1086 1.388 . S
C1086 H1073 0.930 . S
C1086 C1085 1.388 . S
C1086 C1087 1.390 . S
C1087 C1086 1.390 . S
C1087 C1088 1.394 . S
C1087 C1093 1.465 . S
C1088 C1083 1.399 . S
C1088 C1087 1.394 . S
C1088 C1089 1.516 . S
C1089 C1088 1.516 . S
C1089 C1090 1.502 . S
C1089 C1091 1.561 . S
C1089 C1092 1.526 . S
C1090 H1074 0.959 . S
C1090 H1075 0.959 . S
C1090 H1076 0.961 . S
C1090 C1089 1.502 . S
C1091 H1077 0.960 . S
C1091 H1078 0.961 . S
C1091 H1079 0.959 . S
C1091 C1089 1.561 . S
C1092 C1089 1.526 . S
C1092 C1093 1.396 . S
C1092 C1097 1.390 . S
C1093 C1087 1.465 . S
C1093 C1092 1.396 . S
C1093 C1094 1.399 . S
C1094 H1080 0.929 . S
C1094 C1093 1.399 . S
C1094 C1095 1.385 . S
C1095 H1081 0.931 . S
C1095 C1094 1.385 . S
C1095 C1096 1.389 . S
C1096 C1095 1.389 . S
C1096 C1097 1.387 . S
C1097 H1082 0.930 . S
C1097 C1092 1.390 . S
C1097 C1096 1.387 . S
H1098 C1110 0.930 . S
H1099 C1112 0.930 . S
H1100 C1113 0.930 . S
H1101 C1117 0.959 . S
H1102 C1117 0.959 . S
H1103 C1117 0.961 . S
H1104 C1118 0.960 . S
H1105 C1118 0.961 . S
H1106 C1118 0.959 . S
H1107 C1121 0.929 . S
H1108 C1122 0.931 . S
H1109 C1124 0.930 . S
C1110 H1098 0.930 . S
C1110 C1111 1.399 . S
C1110 C1115 1.399 . S
C1111 C1110 1.399 . S
C1111 C1112 1.376 . S
C1112 H1099 0.930 . S
C1112 C1111 1.376 . S
C1112 C1113 1.388 . S
C1113 H1100 0.930 . S
C1113 C1112 1.388 . S
C1113 C1114 1.390 . S
C1114 C1113 1.390 . S
C1114 C1115 1.394 . S
C1114 C1120 1.465 . S
C1115 C1110 1.399 . S
C1115 C1114 1.394 . S
C1115 C1116 1.516 . S
C1116 C1115 1.516 . S
C1116 C1117 1.502 . S
C1116 C1118 1.561 . S
C1116 C1119 1.526 . S
C1117 H1101 0.959 . S
C1117 H1102 0.959 . S
C1117 H1103 0.961 . S
C1117 C1116 1.502 . S
C1118 H1104 0.960 . S
C1118 H1105 0.961 . S
C1118 H1106 0.959 . S
C1118 C1116 1.561 . S
C1119 C1116 1.526 . S
C1119 C1120 1.396 . S
C1119 C1124 1.390 . S
C1120 C1114 1.465 . S
C1120 C1119 1.396 . S
C1120 C1121 1.399 . S
C1121 H1107 0.929 . S
C1121 C1120 1.399 . S
C1121 C1122 1.385 . S
C1122 H1108 0.931 . S
C1122 C1121 1.385 . S
C1122 C1123 1.389 . S
C1123 C1122 1.389 . S
C1123 C1124 1.387 . S
C1124 H1109 0.930 . S
C1124 C1119 1.390 . S
C1124 C1123 1.387 . S
H1125 C1137 0.930 . S
H1126 C1139 0.930 . S
H1127 C1140 0.930 . S
H1128 C1144 0.959 . S
H1129 C1144 0.959 . S
H1130 C1144 0.961 . S
H1131 C1145 0.960 . S
H1132 C1145 0.961 . S
H1133 C1145 0.959 . S
H1134 C1148 0.929 . S
H1135 C1149 0.931 . S
H1136 C1151 0.930 . S
C1137 H1125 0.930 . S
C1137 C1138 1.399 . S
C1137 C1142 1.399 . S
C1138 C1137 1.399 . S
C1138 C1139 1.376 . S
C1139 H1126 0.930 . S
C1139 C1138 1.376 . S
C1139 C1140 1.388 . S
C1140 H1127 0.930 . S
C1140 C1139 1.388 . S
C1140 C1141 1.390 . S
C1141 C1140 1.390 . S
C1141 C1142 1.394 . S
C1141 C1147 1.465 . S
C1142 C1137 1.399 . S
C1142 C1141 1.394 . S
C1142 C1143 1.516 . S
C1143 C1142 1.516 . S
C1143 C1144 1.502 . S
C1143 C1145 1.561 . S
C1143 C1146 1.526 . S
C1144 H1128 0.959 . S
C1144 H1129 0.959 . S
C1144 H1130 0.961 . S
C1144 C1143 1.502 . S
C1145 H1131 0.960 . S
C1145 H1132 0.961 . S
C1145 H1133 0.959 . S
C1145 C1143 1.561 . S
C1146 C1143 1.526 . S
C1146 C1147 1.396 . S
C1146 C1151 1.390 . S
C1147 C1141 1.465 . S
C1147 C1146 1.396 . S
C1147 C1148 1.399 . S
C1148 H1134 0.929 . S
C1148 C1147 1.399 . S
C1148 C1149 1.385 . S
C1149 H1135 0.931 . S
C1149 C1148 1.385 . S
C1149 C1150 1.389 . S
C1150 C1149 1.389 . S
C1150 C1151 1.387 . S
C1151 H1136 0.930 . S
C1151 C1146 1.390 . S
C1151 C1150 1.387 . S
H1152 C1164 0.930 . S
H1153 C1166 0.930 . S
H1154 C1167 0.930 . S
H1155 C1171 0.959 . S
H1156 C1171 0.959 . S
H1157 C1171 0.961 . S
H1158 C1172 0.960 . S
H1159 C1172 0.961 . S
H1160 C1172 0.959 . S
H1161 C1175 0.929 . S
H1162 C1176 0.931 . S
H1163 C1178 0.930 . S
C1164 H1152 0.930 . S
C1164 C1165 1.399 . S
C1164 C1169 1.399 . S
C1165 C1164 1.399 . S
C1165 C1166 1.376 . S
C1166 H1153 0.930 . S
C1166 C1165 1.376 . S
C1166 C1167 1.388 . S
C1167 H1154 0.930 . S
C1167 C1166 1.388 . S
C1167 C1168 1.390 . S
C1168 C1167 1.390 . S
C1168 C1169 1.394 . S
C1168 C1174 1.465 . S
C1169 C1164 1.399 . S
C1169 C1168 1.394 . S
C1169 C1170 1.516 . S
C1170 C1169 1.516 . S
C1170 C1171 1.502 . S
C1170 C1172 1.561 . S
C1170 C1173 1.526 . S
C1171 H1155 0.959 . S
C1171 H1156 0.959 . S
C1171 H1157 0.961 . S
C1171 C1170 1.502 . S
C1172 H1158 0.960 . S
C1172 H1159 0.961 . S
C1172 H1160 0.959 . S
C1172 C1170 1.561 . S
C1173 C1170 1.526 . S
C1173 C1174 1.396 . S
C1173 C1178 1.390 . S
C1174 C1168 1.465 . S
C1174 C1173 1.396 . S
C1174 C1175 1.399 . S
C1175 H1161 0.929 . S
C1175 C1174 1.399 . S
C1175 C1176 1.385 . S
C1176 H1162 0.931 . S
C1176 C1175 1.385 . S
C1176 C1177 1.389 . S
C1177 C1176 1.389 . S
C1177 C1178 1.387 . S
C1178 H1163 0.930 . S
C1178 C1173 1.390 . S
C1178 C1177 1.387 . S
H1179 C1191 0.930 . S
H1180 C1193 0.930 . S
H1181 C1194 0.930 . S
H1182 C1198 0.959 . S
H1183 C1198 0.959 . S
H1184 C1198 0.961 . S
H1185 C1199 0.960 . S
H1186 C1199 0.961 . S
H1187 C1199 0.959 . S
H1188 C1202 0.929 . S
H1189 C1203 0.931 . S
H1190 C1205 0.930 . S
C1191 H1179 0.930 . S
C1191 C1192 1.399 . S
C1191 C1196 1.399 . S
C1192 C1191 1.399 . S
C1192 C1193 1.376 . S
C1193 H1180 0.930 . S
C1193 C1192 1.376 . S
C1193 C1194 1.388 . S
C1194 H1181 0.930 . S
C1194 C1193 1.388 . S
C1194 C1195 1.390 . S
C1195 C1194 1.390 . S
C1195 C1196 1.394 . S
C1195 C1201 1.465 . S
C1196 C1191 1.399 . S
C1196 C1195 1.394 . S
C1196 C1197 1.516 . S
C1197 C1196 1.516 . S
C1197 C1198 1.502 . S
C1197 C1199 1.561 . S
C1197 C1200 1.526 . S
C1198 H1182 0.959 . S
C1198 H1183 0.959 . S
C1198 H1184 0.961 . S
C1198 C1197 1.502 . S
C1199 H1185 0.960 . S
C1199 H1186 0.961 . S
C1199 H1187 0.959 . S
C1199 C1197 1.561 . S
C1200 C1197 1.526 . S
C1200 C1201 1.396 . S
C1200 C1205 1.390 . S
C1201 C1195 1.465 . S
C1201 C1200 1.396 . S
C1201 C1202 1.399 . S
C1202 H1188 0.929 . S
C1202 C1201 1.399 . S
C1202 C1203 1.385 . S
C1203 H1189 0.931 . S
C1203 C1202 1.385 . S
C1203 C1204 1.389 . S
C1204 C1203 1.389 . S
C1204 C1205 1.387 . S
C1205 H1190 0.930 . S
C1205 C1200 1.390 . S
C1205 C1204 1.387 . S
C409 C7 1.279 . S
C421 C370 1.220 . S
C436 C40 1.192 . S
C448 C205 1.241 . S
C463 C238 1.286 . S
C475 C73 1.233 . S
C490 C271 1.240 . S
C502 C106 1.288 . S
C517 C304 1.232 . S
C529 C139 1.286 . S
C544 C172 1.286 . S
C556 C337 1.232 . S
C571 C285 1.613 . S
C583 C21 1.603 . S
C598 C318 1.602 . S
C610 C54 1.612 . S
C625 C87 1.611 . S
C637 C351 1.629 . S
C652 C120 1.615 . S
C664 C384 1.629 . S
C679 C219 1.602 . S
C691 C153 1.614 . S
C706 C186 1.614 . S
C718 C252 1.629 . S
C733 N2 1.253 . S
C745 N13 1.292 . S
C760 N46 1.259 . S
C772 N35 1.268 . S
C787 N68 1.282 . S
C799 N79 1.247 . S
C814 N112 1.239 . S
C826 N101 1.292 . S
C841 N134 1.300 . S
C853 N145 1.244 . S
C868 N178 1.293 . S
C880 N167 1.237 . S
C895 N211 1.277 . S
C907 N200 1.272 . S
C922 N233 1.273 . S
C934 N244 1.255 . S
C949 N277 1.294 . S
C961 N266 1.236 . S
C976 N310 1.273 . S
C988 N299 1.254 . S
C1003 N332 1.261 . S
C1015 N343 1.286 . S
C1030 N365 1.248 . S
C1042 N376 1.296 . S
C1057 C18 1.298 . S
C1069 C348 1.295 . S
C1084 C381 1.271 . S
C1096 C51 1.273 . S
C1111 C216 1.294 . S
C1123 C84 1.297 . S
C1138 C117 1.298 . S
C1150 C249 1.296 . S
C1165 C150 1.291 . S
C1177 C282 1.296 . S
C1192 C183 1.272 . S
C1204 C315 1.271 . S
