# Generated by pormake.
# Topology uov, (4)-cn, num edge types: 1
# Building blocks:
#     Node 0, Type 0, BuildingBlock: CEKHIL_clean_sbu_0, # of connection points: 4
#     Node 1, Type 0, BuildingBlock: CEKHIL_clean_sbu_0, # of connection points: 4
#     Node 2, Type 0, BuildingBlock: CEKHIL_clean_sbu_0, # of connection points: 4
#     Node 3, Type 0, BuildingBlock: CEKHIL_clean_sbu_0, # of connection points: 4
#     Node 4, Type 0, BuildingBlock: CEKHIL_clean_sbu_0, # of connection points: 4
#     Node 5, Type 0, BuildingBlock: CEKHIL_clean_sbu_0, # of connection points: 4
#     Node 6, Type 0, BuildingBlock: CEKHIL_clean_sbu_0, # of connection points: 4
#     Node 7, Type 0, BuildingBlock: CEKHIL_clean_sbu_0, # of connection points: 4
#     Edge 8, Type (0, 0), BuildingBlock: XUDNAN_clean_linker_2, # of connection points: 2
#     Edge 9, Type (0, 0), BuildingBlock: XUDNAN_clean_linker_2, # of connection points: 2
#     Edge 10, Type (0, 0), BuildingBlock: XUDNAN_clean_linker_2, # of connection points: 2
#     Edge 11, Type (0, 0), BuildingBlock: XUDNAN_clean_linker_2, # of connection points: 2
#     Edge 12, Type (0, 0), BuildingBlock: XUDNAN_clean_linker_2, # of connection points: 2
#     Edge 13, Type (0, 0), BuildingBlock: XUDNAN_clean_linker_2, # of connection points: 2
#     Edge 14, Type (0, 0), BuildingBlock: XUDNAN_clean_linker_2, # of connection points: 2
#     Edge 15, Type (0, 0), BuildingBlock: XUDNAN_clean_linker_2, # of connection points: 2
#     Edge 16, Type (0, 0), BuildingBlock: XUDNAN_clean_linker_2, # of connection points: 2
#     Edge 17, Type (0, 0), BuildingBlock: XUDNAN_clean_linker_2, # of connection points: 2
#     Edge 18, Type (0, 0), BuildingBlock: XUDNAN_clean_linker_2, # of connection points: 2
#     Edge 19, Type (0, 0), BuildingBlock: XUDNAN_clean_linker_2, # of connection points: 2
#     Edge 20, Type (0, 0), BuildingBlock: XUDNAN_clean_linker_2, # of connection points: 2
#     Edge 21, Type (0, 0), BuildingBlock: XUDNAN_clean_linker_2, # of connection points: 2
#     Edge 22, Type (0, 0), BuildingBlock: XUDNAN_clean_linker_2, # of connection points: 2
#     Edge 23, Type (0, 0), BuildingBlock: XUDNAN_clean_linker_2, # of connection points: 2
# Relax obj value: 0.153
# Max RMSD: 0.151
# Mean RMSD: 0.151
data_MOF--net-uov--node1-CEKHIL_clean_sbu_0--edge1-XUDNAN_clean_linker_2
_symmetry_space_group_name_H-M    P1
_symmetry_Int_Tables_number       1
_symmetry_cell_setting            triclinic
loop_
_symmetry_equiv_pos_as_xyz
'x, y, z'
_cell_length_a     29.780823
_cell_length_b     29.786583
_cell_length_c     41.778167
_cell_angle_alpha  90.088745
_cell_angle_beta   90.048459
_cell_angle_gamma 89.957312
loop_
_atom_site_label
_atom_site_type_symbol
_atom_site_fract_x
_atom_site_fract_y
_atom_site_fract_z
_atom_type_partial_charge
Co0 Co 0.01625 0.26064 0.61329 0.0
O1 O 0.98459 0.30532 0.63787 0.0
O2 O 0.04849 0.31679 0.61181 0.0
C3 C 0.95601 0.23489 0.5861 0.0
O4 O 0.05793 0.22378 0.58504 0.0
Co5 Co 0.99396 0.15902 0.61943 0.0
O6 O 0.03054 0.15378 0.5798 0.0
C7 C 0.0484 0.20463 0.6693 0.0
C8 C 0.01612 0.3328 0.62931 0.0
C9 C 0.05809 0.18462 0.57206 0.0
O10 O 0.05053 0.24072 0.65248 0.0
O11 O 0.02456 0.1705 0.66153 0.0
O12 O 0.97691 0.27067 0.57656 0.0
O13 O 0.96945 0.21827 0.61295 0.0
Co14 Co 0.27433 0.97537 0.3896 0.0
O15 O 0.32004 0.004 0.36395 0.0
O16 O 0.32683 0.93765 0.38748 0.0
C17 C 0.25577 0.03641 0.419 0.0
O18 O 0.23705 0.9362 0.41935 0.0
Co19 Co 0.17423 0.0054 0.38825 0.0
O20 O 0.16957 0.96815 0.42746 0.0
C21 C 0.2106 0.95044 0.33541 0.0
C22 C 0.34489 0.96931 0.37045 0.0
C23 C 0.19925 0.93882 0.43414 0.0
O24 O 0.24767 0.94433 0.35075 0.0
O25 O 0.17949 0.97685 0.34508 0.0
O26 O 0.29127 0.0131 0.42615 0.0
O27 O 0.23572 0.02488 0.39286 0.0
Co28 Co 0.9776 0.72745 0.6057 0.0
O29 O 0.99902 0.68604 0.63773 0.0
O30 O 0.94551 0.67157 0.60219 0.0
C31 C 0.0455 0.74942 0.58747 0.0
O32 O 0.94814 0.76017 0.56837 0.0
Co33 Co 0.99905 0.82978 0.6101 0.0
O34 O 0.97693 0.83001 0.56535 0.0
C35 C 0.93049 0.78998 0.65229 0.0
C36 C 0.9711 0.65744 0.62529 0.0
C37 C 0.95378 0.79786 0.55394 0.0
O38 O 0.93181 0.75269 0.63671 0.0
O39 O 0.95728 0.82279 0.64729 0.0
O40 O 0.02796 0.71181 0.57802 0.0
O41 O 0.02398 0.76984 0.61008 0.0
Co42 Co 0.74279 0.00946 0.37566 0.0
O43 O 0.70182 0.97932 0.34733 0.0
O44 O 0.68263 0.0335 0.38097 0.0
C45 C 0.77646 0.94638 0.39381 0.0
O46 O 0.77559 0.04634 0.40984 0.0
Co47 Co 0.84667 1.00028 0.36583 0.0
O48 O 0.85007 0.03282 0.40701 0.0
C49 C 0.7944 0.06578 0.32739 0.0
C50 C 0.67032 0.00362 0.35996 0.0
C51 C 0.81615 0.05133 0.42011 0.0
O52 O 0.75748 0.05608 0.3419 0.0
O53 O 0.83162 0.04542 0.3323 0.0
O54 O 0.73847 0.95948 0.40589 0.0
O55 O 0.79034 0.9691 0.36954 0.0
Co56 Co 0.98279 0.27449 0.11095 0.0
O57 O 0.00565 0.3183 0.14085 0.0
O58 O 0.95304 0.33126 0.10434 0.0
C59 C 0.04941 0.24706 0.09431 0.0
O60 O 0.952 0.23847 0.07567 0.0
Co61 Co 0.99927 0.17241 0.12317 0.0
O62 O 0.96523 0.16454 0.08276 0.0
C63 C 0.9339 0.22192 0.16223 0.0
C64 C 0.97847 0.34649 0.12721 0.0
C65 C 0.94778 0.19704 0.06733 0.0
O66 O 0.93557 0.25542 0.14291 0.0
O67 O 0.96033 0.18813 0.16063 0.0
O68 O 0.03395 0.28439 0.08271 0.0
O69 O 0.02704 0.2306 0.11804 0.0
Co70 Co 0.2718 0.02358 0.89213 0.0
O71 O 0.31461 0.99884 0.86219 0.0
O72 O 0.3247 0.06084 0.89077 0.0
C73 C 0.25521 0.95796 0.91657 0.0
O74 O 0.23785 0.05806 0.92679 0.0
Co75 Co 0.17159 0.99473 0.89461 0.0
O76 O 0.172 0.02435 0.93708 0.0
C77 C 0.20181 0.06019 0.84577 0.0
C78 C 0.34065 0.03183 0.87049 0.0
C79 C 0.20218 0.0531 0.94385 0.0
O80 O 0.24194 0.06094 0.85745 0.0
O81 O 0.17106 0.03384 0.85595 0.0
O82 O 0.29139 0.97981 0.92431 0.0
O83 O 0.23296 0.97423 0.89278 0.0
Co84 Co 0.0114 0.74212 0.11105 0.0
O85 O 0.98075 0.70101 0.13936 0.0
O86 O 0.04444 0.68679 0.11373 0.0
C87 C 0.95027 0.76248 0.08218 0.0
O88 O 0.05254 0.77369 0.07949 0.0
Co89 Co 0.98887 0.84403 0.1072 0.0
O90 O 0.02558 0.84218 0.06766 0.0
C91 C 0.04678 0.80944 0.15974 0.0
C92 C 0.01235 0.67265 0.13214 0.0
C93 C 0.05308 0.81009 0.06304 0.0
O94 O 0.04625 0.76939 0.14795 0.0
O95 O 0.02366 0.84189 0.14816 0.0
O96 O 0.97097 0.72509 0.0761 0.0
O97 O 0.96447 0.78411 0.107 0.0
Co98 Co 0.73689 0.99383 0.87591 0.0
O99 O 0.69662 0.0283 0.84965 0.0
O100 O 0.67774 0.9665 0.87565 0.0
C101 C 0.76515 0.05357 0.90238 0.0
O102 O 0.76861 0.95071 0.90657 0.0
Co103 Co 0.84032 0.00814 0.874 0.0
O104 O 0.83798 0.97739 0.91601 0.0
C105 C 0.79579 0.94954 0.82564 0.0
C106 C 0.66547 1.00019 0.85784 0.0
C107 C 0.80562 0.95106 0.92258 0.0
O108 O 0.75674 0.95637 0.83802 0.0
O109 O 0.83177 0.9684 0.83576 0.0
O110 O 0.72756 0.0356 0.91141 0.0
O111 O 0.78266 0.03726 0.87665 0.0
H112 H 0.97583 0.58813 0.58374 0.0
H113 H 0.97544 0.61985 0.68494 0.0
H114 H 0.98662 0.53915 0.6977 0.0
H115 H 0.92239 0.4791 0.58706 0.0
H116 H 0.95853 0.45534 0.55686 0.0
H117 H 0.94598 0.51449 0.55641 0.0
H118 H 0.03118 0.53226 0.55735 0.0
H119 H 0.04399 0.47318 0.55821 0.0
H120 H 0.06565 0.50973 0.58898 0.0
H121 H 0.99532 0.45391 0.69863 0.0
H122 H 0.00775 0.3728 0.68777 0.0
H123 H 0.01292 0.40011 0.58608 0.0
C124 C 0.9771 0.57781 0.60859 0.0
C125 C 0.97359 0.60957 0.63348 0.0
C126 C 0.97728 0.59554 0.66568 0.0
C127 C 0.9837 0.54995 0.67306 0.0
C128 C 0.98765 0.51936 0.64786 0.0
C129 C 0.98507 0.53289 0.61627 0.0
C130 C 0.99391 0.49431 0.59355 0.0
C131 C 0.95274 0.48528 0.57222 0.0
C132 C 0.0362 0.5029 0.57334 0.0
C133 C 0.00136 0.4567 0.61722 0.0
C134 C 0.99693 0.47156 0.64844 0.0
C135 C 0.99962 0.44209 0.67432 0.0
C136 C 0.00675 0.39629 0.668 0.0
C137 C 0.01237 0.38094 0.63623 0.0
C138 C 0.01002 0.41152 0.61063 0.0
H139 H 0.59636 0.05916 0.36556 0.0
H140 H 0.63669 0.92322 0.34156 0.0
H141 H 0.55729 0.90089 0.3374 0.0
H142 H 0.504 0.03366 0.41295 0.0
H143 H 0.46812 0.078 0.39848 0.0
H144 H 0.52813 0.08455 0.3972 0.0
H145 H 0.52417 0.09988 0.33623 0.0
H146 H 0.46398 0.09351 0.33735 0.0
H147 H 0.497 0.05976 0.31034 0.0
H148 H 0.47474 0.89051 0.34374 0.0
H149 H 0.39307 0.89507 0.35411 0.0
H150 H 0.4045 0.03881 0.36822 0.0
C151 C 0.58832 0.02497 0.35885 0.0
C152 C 0.62262 0.99292 0.35385 0.0
C153 C 0.61095 0.94844 0.34518 0.0
C154 C 0.56593 0.93536 0.34283 0.0
C155 C 0.53286 0.96744 0.34837 0.0
C156 C 0.54335 0.01159 0.35547 0.0
C157 C 0.50108 0.03911 0.36063 0.0
C158 C 0.50031 0.06004 0.39432 0.0
C159 C 0.49628 0.0752 0.33459 0.0
C160 C 0.46549 0.00304 0.35695 0.0
C161 C 0.48462 0.96193 0.34987 0.0
C162 C 0.45916 0.9227 0.34838 0.0
C163 C 0.41292 0.92553 0.35438 0.0
C164 C 0.3926 0.96736 0.36122 0.0
C165 C 0.41913 0.00664 0.36205 0.0
H166 H 0.9833 0.41601 0.08575 0.0
H167 H 0.9789 0.38434 0.18683 0.0
H168 H 0.98535 0.46545 0.2 0.0
H169 H 0.06873 0.49884 0.09357 0.0
H170 H 0.04684 0.53419 0.06224 0.0
H171 H 0.03717 0.47455 0.06103 0.0
H172 H 0.9513 0.48818 0.05773 0.0
H173 H 0.96072 0.54788 0.05868 0.0
H174 H 0.92426 0.52222 0.0878 0.0
H175 H 0.98964 0.55139 0.20128 0.0
H176 H 1.00001 0.63295 0.19074 0.0
H177 H 0.01198 0.60517 0.08934 0.0
C178 C 0.98287 0.42637 0.11062 0.0
C179 C 0.97959 0.39449 0.13535 0.0
C180 C 0.98079 0.40871 0.16765 0.0
C181 C 0.98442 0.45455 0.17528 0.0
C182 C 0.98805 0.48533 0.15027 0.0
C183 C 0.98803 0.47165 0.1186 0.0
C184 C 0.99608 0.51062 0.0962 0.0
C185 C 0.03981 0.50415 0.07715 0.0
C186 C 0.95568 0.51763 0.07379 0.0
C187 C 1.00029 0.54851 0.12012 0.0
C188 C 0.99473 0.53359 0.15118 0.0
C189 C 0.99475 0.5633 0.1771 0.0
C190 C 0.00067 0.60937 0.17099 0.0
C191 C 0.00779 0.62468 0.13941 0.0
C192 C 0.00776 0.59387 0.1138 0.0
H193 H 0.40065 0.96306 0.86897 0.0
H194 H 0.38714 0.10562 0.85102 0.0
H195 H 0.4684 0.11016 0.83874 0.0
H196 H 0.50055 0.97305 0.91187 0.0
H197 H 0.52497 0.92113 0.89807 0.0
H198 H 0.46492 0.92722 0.8996 0.0
H199 H 0.45946 0.90667 0.83944 0.0
H200 H 0.51963 0.90043 0.83773 0.0
H201 H 0.49153 0.93817 0.8106 0.0
H202 H 0.55108 0.10002 0.83151 0.0
H203 H 0.63075 0.07896 0.83621 0.0
H204 H 0.59219 0.94417 0.86433 0.0
C205 C 0.41472 0.99487 0.86146 0.0
C206 C 0.38778 0.03384 0.86004 0.0
C207 C 0.40735 0.07537 0.85164 0.0
C208 C 0.45332 0.07815 0.84455 0.0
C209 C 0.47925 0.03922 0.84662 0.0
C210 C 0.4608 0.99844 0.85527 0.0
C211 C 0.49693 0.96307 0.85988 0.0
C212 C 0.49683 0.94509 0.8944 0.0
C213 C 0.49156 0.92482 0.83545 0.0
C214 C 0.53867 0.99054 0.85311 0.0
C215 C 0.52754 0.03403 0.84467 0.0
C216 C 0.56019 0.06603 0.83795 0.0
C217 C 0.60542 0.05365 0.84062 0.0
C218 C 0.61774 0.00988 0.85063 0.0
C219 C 0.58381 0.97777 0.85648 0.0
H220 H 0.1667 0.05634 0.42498 0.0
H221 H 0.29734 0.08621 0.46559 0.0
H222 H 0.26082 0.1349 0.50622 0.0
H223 H 0.1098 0.16161 0.44068 0.0
H224 H 0.05821 0.13427 0.45186 0.0
H225 H 0.09523 0.1081 0.42333 0.0
H226 H 0.09814 0.03641 0.4585 0.0
H227 H 0.06116 0.06245 0.48707 0.0
H228 H 0.11489 0.04101 0.49984 0.0
H229 H 0.20888 0.17913 0.5429 0.0
H230 H 0.14662 0.20592 0.5773 0.0
H231 H 0.05083 0.13693 0.51655 0.0
C232 C 0.18788 0.07331 0.44211 0.0
C233 C 0.23493 0.06776 0.442 0.0
C234 C 0.2612 0.09032 0.46521 0.0
C235 C 0.24076 0.11808 0.48823 0.0
C236 C 0.19404 0.12195 0.48805 0.0
C237 C 0.16796 0.09943 0.4659 0.0
C238 C 0.1184 0.10429 0.47303 0.0
C239 C 0.09399 0.12852 0.44559 0.0
C240 C 0.09691 0.05832 0.48004 0.0
C241 C 0.12048 0.13318 0.50275 0.0
C242 C 0.16431 0.14402 0.51058 0.0
C243 C 0.17449 0.17074 0.53702 0.0
C244 C 0.13901 0.18594 0.5563 0.0
C245 C 0.09421 0.1733 0.54945 0.0
C246 C 0.08488 0.14694 0.52222 0.0
H247 H 0.14435 0.94939 0.48591 0.0
H248 H 0.2294 0.85226 0.43769 0.0
H249 H 0.20539 0.79387 0.47605 0.0
H250 H 0.16345 0.90618 0.56788 0.0
H251 H 0.10638 0.91751 0.5798 0.0
H252 H 0.1331 0.95226 0.55011 0.0
H253 H 0.06812 0.93584 0.51049 0.0
H254 H 0.04127 0.90108 0.53996 0.0
H255 H 0.05419 0.87843 0.50102 0.0
H256 H 0.16275 0.7441 0.51392 0.0
H257 H 0.10997 0.70824 0.55174 0.0
H258 H 0.06062 0.83952 0.57974 0.0
C259 C 0.15843 0.91597 0.48376 0.0
C260 C 0.18857 0.90516 0.45883 0.0
C261 C 0.20644 0.86121 0.45676 0.0
C262 C 0.19297 0.82786 0.47839 0.0
C263 C 0.16254 0.83941 0.50237 0.0
C264 C 0.14615 0.88263 0.50554 0.0
C265 C 0.11265 0.886 0.53265 0.0
C266 C 0.12995 0.91734 0.55919 0.0
C267 C 0.06634 0.90122 0.52028 0.0
C268 C 0.11173 0.83763 0.54365 0.0
C269 C 0.14043 0.81119 0.52571 0.0
C270 C 0.14108 0.76459 0.52874 0.0
C271 C 0.11101 0.74453 0.55022 0.0
C272 C 0.08141 0.7711 0.56876 0.0
C273 C 0.08304 0.81828 0.56617 0.0
H274 H 0.76006 0.90084 0.44959 0.0
H275 H 0.85932 0.91837 0.37466 0.0
H276 H 0.91249 0.87109 0.40469 0.0
H277 H 0.83166 0.91098 0.51292 0.0
H278 H 0.8059 0.86907 0.53799 0.0
H279 H 0.77294 0.89769 0.50832 0.0
H280 H 0.75015 0.82135 0.48331 0.0
H281 H 0.7831 0.79236 0.51305 0.0
H282 H 0.79313 0.78228 0.47111 0.0
H283 H 0.95887 0.83458 0.44643 0.0
H284 H 0.99415 0.80784 0.49657 0.0
H285 H 0.86465 0.80961 0.54354 0.0
C286 C 0.79253 0.89365 0.43912 0.0
C287 C 0.80561 0.91326 0.40985 0.0
C288 C 0.84859 0.90369 0.39708 0.0
C289 C 0.87898 0.87667 0.41388 0.0
C290 C 0.8656 0.85888 0.44315 0.0
C291 C 0.8232 0.86644 0.45551 0.0
C292 C 0.81869 0.84677 0.48877 0.0
C293 C 0.80662 0.88331 0.51344 0.0
C294 C 0.78422 0.8084 0.48906 0.0
C295 C 0.86588 0.82914 0.49381 0.0
C296 C 0.89225 0.83598 0.46701 0.0
C297 C 0.93833 0.8276 0.46718 0.0
C298 C 0.95807 0.81251 0.49563 0.0
C299 C 0.93162 0.80557 0.52321 0.0
C300 C 0.88496 0.81308 0.52219 0.0
H301 H 0.88401 0.11133 0.42587 0.0
H302 H 0.769 0.05749 0.47636 0.0
H303 H 0.79001 0.10201 0.52443 0.0
H304 H 0.96051 0.11195 0.48976 0.0
H305 H 0.98656 0.16432 0.47886 0.0
H306 H 0.9612 0.1297 0.44852 0.0
H307 H 0.91122 0.1967 0.43095 0.0
H308 H 0.9367 0.23137 0.46132 0.0
H309 H 0.87656 0.22473 0.46018 0.0
H310 H 0.83005 0.14509 0.56875 0.0
H311 H 0.87999 0.19051 0.60361 0.0
H312 H 0.96389 0.22155 0.52196 0.0
C313 C 0.86297 0.10935 0.44697 0.0
C314 C 0.82504 0.08098 0.44767 0.0
C315 C 0.79804 0.07933 0.47546 0.0
C316 C 0.80984 0.10431 0.5028 0.0
C317 C 0.84805 0.13143 0.5015 0.0
C318 C 0.87364 0.13476 0.47403 0.0
C319 C 0.91304 0.1662 0.47861 0.0
C320 C 0.95795 0.14153 0.47365 0.0
C321 C 0.90912 0.20718 0.45645 0.0
C322 C 0.90644 0.17925 0.51327 0.0
C323 C 0.86906 0.15855 0.52621 0.0
C324 C 0.85868 0.16235 0.55866 0.0
C325 C 0.88718 0.18802 0.57825 0.0
C326 C 0.92488 0.21021 0.56516 0.0
C327 C 0.93436 0.20604 0.53226 0.0
H328 H 0.77508 0.04961 0.96706 0.0
H329 H 0.81429 0.12547 0.88324 0.0
H330 H 0.86155 0.17485 0.91715 0.0
H331 H 0.77529 0.14179 0.02543 0.0
H332 H 0.79959 0.10749 0.05645 0.0
H333 H 0.76456 0.08224 0.0262 0.0
H334 H 0.82832 0.02692 0.01233 0.0
H335 H 0.86419 0.05201 0.04203 0.0
H336 H 0.88276 0.04808 0.00106 0.0
H337 H 0.90504 0.21543 0.96059 0.0
H338 H 0.94798 0.23833 0.0089 0.0
H339 H 0.88615 0.13041 0.06254 0.0
C340 C 0.79277 0.07738 0.95608 0.0
C341 C 0.79042 0.08474 0.92283 0.0
C342 C 0.81537 0.12 0.90886 0.0
C343 C 0.84212 0.14816 0.9279 0.0
C344 C 0.84415 0.13985 0.9607 0.0
C345 C 0.82057 0.10493 0.9746 0.0
C346 C 0.83199 0.10021 0.00971 0.0
C347 C 0.79038 0.10844 0.03068 0.0
C348 C 0.85312 0.05409 0.01667 0.0
C349 C 0.86586 0.13769 0.01337 0.0
C350 C 0.87172 0.16086 0.98506 0.0
C351 C 0.90084 0.19744 0.98287 0.0
C352 C 0.92492 0.2103 0.01032 0.0
C353 C 0.92041 0.18586 0.03912 0.0
C354 C 0.8904 0.14931 0.04062 0.0
H355 H 0.14126 0.04369 0.99255 0.0
H356 H 0.24249 0.13428 0.95508 0.0
H357 H 0.2205 0.19118 0.99511 0.0
H358 H 0.05842 0.12223 0.00417 0.0
H359 H 0.03679 0.09911 0.04088 0.0
H360 H 0.06456 0.06317 0.01251 0.0
H361 H 0.12058 0.03753 0.05632 0.0
H362 H 0.09277 0.07329 0.08498 0.0
H363 H 0.15228 0.07895 0.07826 0.0
H364 H 0.17845 0.24251 0.03183 0.0
H365 H 0.12359 0.28218 0.0662 0.0
H366 H 0.05419 0.15674 0.0833 0.0
C367 C 0.15953 0.07511 0.99322 0.0
C368 C 0.19355 0.08457 0.97062 0.0
C369 C 0.21651 0.12615 0.97224 0.0
C370 C 0.20424 0.15871 0.9949 0.0
C371 C 0.16962 0.14882 0.01618 0.0
C372 C 0.14814 0.10771 0.01595 0.0
C373 C 0.11009 0.10655 0.03999 0.0
C374 C 0.06482 0.09723 0.02339 0.0
C375 C 0.11951 0.07203 0.06646 0.0
C376 C 0.11232 0.15406 0.05282 0.0
C377 C 0.14693 0.1779 0.03879 0.0
C378 C 0.15214 0.2239 0.04374 0.0
C379 C 0.12083 0.24616 0.06317 0.0
C380 C 0.08535 0.22228 0.07778 0.0
C381 C 0.08176 0.17552 0.07316 0.0
H382 H 0.04855 0.84971 0.00453 0.0
H383 H 0.1412 0.78917 0.07187 0.0
H384 H 0.20529 0.8138 0.0385 0.0
H385 H 0.11523 0.8216 0.93124 0.0
H386 H 0.09947 0.87354 0.91219 0.0
H387 H 0.06147 0.8468 0.93975 0.0
H388 H 0.05785 0.92017 0.97324 0.0
H389 H 0.09602 0.9469 0.94599 0.0
H390 H 0.10921 0.94463 0.98805 0.0
H391 H 0.25858 0.85824 0.00306 0.0
H392 H 0.29595 0.9093 0.9645 0.0
H393 H 0.16815 0.93029 0.91694 0.0
C394 C 0.08232 0.84062 0.0117 0.0
C395 C 0.09022 0.8176 0.04055 0.0
C396 C 0.13468 0.80642 0.04953 0.0
C397 C 0.17121 0.8204 0.03083 0.0
C398 C 0.16241 0.84428 0.00285 0.0
C399 C 0.11895 0.85314 0.99289 0.0
C400 C 0.11834 0.88067 0.96259 0.0
C401 C 0.0974 0.85404 0.93479 0.0
C402 C 0.09393 0.92573 0.96781 0.0
C403 C 0.16814 0.88741 0.95772 0.0
C404 C 0.19319 0.86667 0.98128 0.0
C405 C 0.23945 0.87348 0.98391 0.0
C406 C 0.26038 0.90258 0.96202 0.0
C407 C 0.23506 0.92372 0.93765 0.0
C408 C 0.1887 0.91469 0.93508 0.0
H409 H 0.85181 0.96171 0.97823 0.0
H410 H 0.77895 0.86322 0.9222 0.0
H411 H 0.80342 0.80348 0.95961 0.0
H412 H 0.94474 0.89802 0.99582 0.0
H413 H 0.95181 0.91752 0.03636 0.0
H414 H 0.92482 0.95293 0.0073 0.0
H415 H 0.85479 0.95967 0.04374 0.0
H416 H 0.88166 0.92463 0.07316 0.0
H417 H 0.82719 0.90957 0.05766 0.0
H418 H 0.84669 0.7535 0.99822 0.0
H419 H 0.89645 0.71898 0.03898 0.0
H420 H 0.93333 0.85164 0.0727 0.0
C421 C 0.84003 0.92775 0.97439 0.0
C422 C 0.81344 0.91693 0.94751 0.0
C423 C 0.79893 0.87214 0.94293 0.0
C424 C 0.81284 0.83804 0.96395 0.0
C425 C 0.84016 0.84966 0.98981 0.0
C426 C 0.85255 0.89368 0.99556 0.0
C427 C 0.88295 0.89735 0.02448 0.0
C428 C 0.92878 0.91764 0.01542 0.0
C429 C 0.86028 0.9244 0.05135 0.0
C430 C 0.88721 0.84837 0.03339 0.0
C431 C 0.86257 0.82123 0.01308 0.0
C432 C 0.86512 0.7745 0.0148 0.0
C433 C 0.89355 0.75519 0.03789 0.0
C434 C 0.91834 0.7826 0.05922 0.0
C435 C 0.91435 0.8297 0.05716 0.0
H436 H 0.02677 0.16365 0.72485 0.0
H437 H 0.13559 0.2324 0.67687 0.0
H438 H 0.18791 0.20884 0.72 0.0
H439 H 0.06643 0.18694 0.80873 0.0
H440 H 0.04688 0.13279 0.82191 0.0
H441 H 0.01791 0.16177 0.79017 0.0
H442 H 0.02795 0.09202 0.75362 0.0
H443 H 0.05759 0.0632 0.78489 0.0
H444 H 0.08363 0.07049 0.74631 0.0
H445 H 0.23011 0.16659 0.76495 0.0
H446 H 0.25561 0.11561 0.80841 0.0
H447 H 0.11699 0.07747 0.82544 0.0
C448 C 0.06132 0.17494 0.72398 0.0
C449 C 0.07724 0.1999 0.69778 0.0
C450 C 0.12271 0.21379 0.69713 0.0
C451 C 0.15264 0.20035 0.72141 0.0
C452 C 0.13617 0.17395 0.74637 0.0
C453 C 0.0912 0.1624 0.74807 0.0
C454 C 0.08189 0.13153 0.77583 0.0
C455 C 0.05149 0.15465 0.80063 0.0
C456 C 0.06161 0.08668 0.76446 0.0
C457 C 0.12888 0.12542 0.78858 0.0
C458 C 0.15994 0.15041 0.77178 0.0
C459 C 0.20586 0.1475 0.77857 0.0
C460 C 0.22009 0.11834 0.80317 0.0
C461 C 0.18845 0.09221 0.82027 0.0
C462 C 0.14236 0.09658 0.81287 0.0
H463 H 0.05705 0.89093 0.18845 0.0
H464 H 0.10698 0.75398 0.19164 0.0
H465 H 0.16084 0.77632 0.23418 0.0
H466 H 0.16337 0.94559 0.1999 0.0
H467 H 0.13938 0.98997 0.22378 0.0
H468 H 0.10609 0.96291 0.19334 0.0
H469 H 0.04527 0.94305 0.23544 0.0
H470 H 0.07796 0.97066 0.26583 0.0
H471 H 0.06129 0.91298 0.2711 0.0
H472 H 0.20856 0.81547 0.27804 0.0
H473 H 0.23924 0.86477 0.32077 0.0
H474 H 0.15703 0.97448 0.28593 0.0
C475 C 0.07911 0.86527 0.19793 0.0
C476 C 0.07757 0.82056 0.18661 0.0
C477 C 0.10734 0.78843 0.19994 0.0
C478 C 0.13825 0.80091 0.22395 0.0
C479 C 0.13912 0.84563 0.23411 0.0
C480 C 0.11002 0.87709 0.22146 0.0
C481 C 0.11606 0.92266 0.23665 0.0
C482 C 0.13219 0.95731 0.21194 0.0
C483 C 0.07258 0.93821 0.25325 0.0
C484 C 0.15246 0.91201 0.26056 0.0
C485 C 0.16602 0.86767 0.25864 0.0
C486 C 0.19832 0.85028 0.27951 0.0
C487 C 0.21584 0.87857 0.30353 0.0
C488 C 0.20051 0.92341 0.30658 0.0
C489 C 0.16946 0.94037 0.28416 0.0
H490 H 0.94617 0.79887 0.71524 0.0
H491 H 0.84014 0.80081 0.64453 0.0
H492 H 0.78781 0.83287 0.68479 0.0
H493 H 0.87058 0.77669 0.78762 0.0
H494 H 0.90547 0.81219 0.81218 0.0
H495 H 0.93009 0.77987 0.78015 0.0
H496 H 0.96401 0.85281 0.7566 0.0
H497 H 0.93897 0.88539 0.78801 0.0
H498 H 0.9273 0.89898 0.7468 0.0
H499 H 0.75207 0.87786 0.73048 0.0
H500 H 0.73678 0.92842 0.77665 0.0
H501 H 0.86748 0.89592 0.81602 0.0
C502 C 0.9113 0.80407 0.70883 0.0
C503 C 0.8966 0.79666 0.6773 0.0
C504 C 0.85137 0.80524 0.669 0.0
C505 C 0.8216 0.82359 0.69167 0.0
C506 C 0.83766 0.83235 0.72248 0.0
C507 C 0.88135 0.8219 0.73117 0.0
C508 C 0.89238 0.83893 0.76429 0.0
C509 C 0.90007 0.79957 0.78743 0.0
C510 C 0.93303 0.87093 0.76385 0.0
C511 C 0.8494 0.86347 0.77206 0.0
C512 C 0.81759 0.85853 0.74821 0.0
C513 C 0.77646 0.88117 0.74956 0.0
C514 C 0.76805 0.90987 0.77575 0.0
C515 C 0.80115 0.91629 0.79964 0.0
C516 C 0.84169 0.89192 0.79795 0.0
H517 H 0.86004 0.12687 0.32478 0.0
H518 H 0.73497 0.08918 0.27934 0.0
H519 H 0.75039 0.14329 0.23548 0.0
H520 H 0.86364 0.24889 0.29542 0.0
H521 H 0.92366 0.24489 0.29063 0.0
H522 H 0.89611 0.21444 0.3223 0.0
H523 H 0.93172 0.14045 0.30164 0.0
H524 H 0.95896 0.17037 0.27003 0.0
H525 H 0.92265 0.12375 0.26063 0.0
H526 H 0.78807 0.18781 0.19146 0.0
H527 H 0.84399 0.21452 0.15191 0.0
H528 H 0.94509 0.21983 0.22609 0.0
C529 C 0.83509 0.13131 0.30616 0.0
C530 C 0.79642 0.10413 0.30522 0.0
C531 C 0.76456 0.11025 0.28054 0.0
C532 C 0.77311 0.14093 0.25564 0.0
C533 C 0.81313 0.16557 0.25635 0.0
C534 C 0.84326 0.16142 0.28139 0.0
C535 C 0.88696 0.18533 0.2746 0.0
C536 C 0.89292 0.2258 0.29707 0.0
C537 C 0.92738 0.15303 0.27682 0.0
C538 C 0.8785 0.20042 0.24067 0.0
C539 C 0.83515 0.19046 0.23087 0.0
C540 C 0.82153 0.19692 0.1992 0.0
C541 C 0.85338 0.21221 0.17692 0.0
C542 C 0.89829 0.21984 0.1864 0.0
C543 C 0.91051 0.2153 0.21872 0.0
loop_
_geom_bond_atom_site_label_1
_geom_bond_atom_site_label_2
_geom_bond_distance
_geom_bond_site_symmetry_2
_ccdc_geom_bond_type
Co0 O1 2.216 . S
Co0 O2 2.091 . S
Co0 O4 2.004 . S
Co0 O10 2.021 . S
Co0 O12 2.137 . S
Co0 O13 2.244 . S
O1 Co0 2.216 . S
O1 C8 1.247 . S
O2 Co0 2.091 . S
O2 C8 1.261 . S
C3 O12 1.247 . S
C3 O13 1.272 . S
O4 Co0 2.004 . S
O4 C9 1.259 . S
Co5 O6 2.061 . S
Co5 O11 2.052 . S
Co5 O13 2.135 . S
O6 Co5 2.061 . S
O6 C9 1.235 . S
C7 O10 1.238 . S
C7 O11 1.241 . S
C8 O1 1.247 . S
C8 O2 1.261 . S
C9 O4 1.259 . S
C9 O6 1.235 . S
O10 Co0 2.021 . S
O10 C7 1.238 . S
O11 Co5 2.052 . S
O11 C7 1.241 . S
O12 Co0 2.137 . S
O12 C3 1.247 . S
O13 Co0 2.244 . S
O13 C3 1.272 . S
O13 Co5 2.135 . S
Co14 O15 2.216 . S
Co14 O16 2.091 . S
Co14 O18 2.004 . S
Co14 O24 2.021 . S
Co14 O26 2.137 . S
Co14 O27 2.244 . S
O15 Co14 2.216 . S
O15 C22 1.247 . S
O16 Co14 2.091 . S
O16 C22 1.261 . S
C17 O26 1.247 . S
C17 O27 1.272 . S
O18 Co14 2.004 . S
O18 C23 1.259 . S
Co19 O20 2.061 . S
Co19 O25 2.052 . S
Co19 O27 2.135 . S
O20 Co19 2.061 . S
O20 C23 1.235 . S
C21 O24 1.238 . S
C21 O25 1.241 . S
C22 O15 1.247 . S
C22 O16 1.261 . S
C23 O18 1.259 . S
C23 O20 1.235 . S
O24 Co14 2.021 . S
O24 C21 1.238 . S
O25 Co19 2.052 . S
O25 C21 1.241 . S
O26 Co14 2.137 . S
O26 C17 1.247 . S
O27 Co14 2.244 . S
O27 C17 1.272 . S
O27 Co19 2.135 . S
Co28 O29 2.216 . S
Co28 O30 2.091 . S
Co28 O32 2.004 . S
Co28 O38 2.021 . S
Co28 O40 2.137 . S
Co28 O41 2.244 . S
O29 Co28 2.216 . S
O29 C36 1.247 . S
O30 Co28 2.091 . S
O30 C36 1.261 . S
C31 O40 1.247 . S
C31 O41 1.272 . S
O32 Co28 2.004 . S
O32 C37 1.259 . S
Co33 O34 2.061 . S
Co33 O39 2.052 . S
Co33 O41 2.135 . S
O34 Co33 2.061 . S
O34 C37 1.235 . S
C35 O38 1.238 . S
C35 O39 1.241 . S
C36 O29 1.247 . S
C36 O30 1.261 . S
C37 O32 1.259 . S
C37 O34 1.235 . S
O38 Co28 2.021 . S
O38 C35 1.238 . S
O39 Co33 2.052 . S
O39 C35 1.241 . S
O40 Co28 2.137 . S
O40 C31 1.247 . S
O41 Co28 2.244 . S
O41 C31 1.272 . S
O41 Co33 2.135 . S
Co42 O43 2.216 . S
Co42 O44 2.091 . S
Co42 O46 2.004 . S
Co42 O52 2.021 . S
Co42 O54 2.137 . S
Co42 O55 2.244 . S
O43 Co42 2.216 . S
O43 C50 1.247 . S
O44 Co42 2.091 . S
O44 C50 1.261 . S
C45 O54 1.247 . S
C45 O55 1.272 . S
O46 Co42 2.004 . S
O46 C51 1.259 . S
Co47 O48 2.061 . S
Co47 O53 2.052 . S
Co47 O55 2.135 . S
O48 Co47 2.061 . S
O48 C51 1.235 . S
C49 O52 1.238 . S
C49 O53 1.241 . S
C50 O43 1.247 . S
C50 O44 1.261 . S
C51 O46 1.259 . S
C51 O48 1.235 . S
O52 Co42 2.021 . S
O52 C49 1.238 . S
O53 Co47 2.052 . S
O53 C49 1.241 . S
O54 Co42 2.137 . S
O54 C45 1.247 . S
O55 Co42 2.244 . S
O55 C45 1.272 . S
O55 Co47 2.135 . S
Co56 O57 2.216 . S
Co56 O58 2.091 . S
Co56 O60 2.004 . S
Co56 O66 2.021 . S
Co56 O68 2.137 . S
Co56 O69 2.244 . S
O57 Co56 2.216 . S
O57 C64 1.247 . S
O58 Co56 2.091 . S
O58 C64 1.261 . S
C59 O68 1.247 . S
C59 O69 1.272 . S
O60 Co56 2.004 . S
O60 C65 1.259 . S
Co61 O62 2.061 . S
Co61 O67 2.052 . S
Co61 O69 2.135 . S
O62 Co61 2.061 . S
O62 C65 1.235 . S
C63 O66 1.238 . S
C63 O67 1.241 . S
C64 O57 1.247 . S
C64 O58 1.261 . S
C65 O60 1.259 . S
C65 O62 1.235 . S
O66 Co56 2.021 . S
O66 C63 1.238 . S
O67 Co61 2.052 . S
O67 C63 1.241 . S
O68 Co56 2.137 . S
O68 C59 1.247 . S
O69 Co56 2.244 . S
O69 C59 1.272 . S
O69 Co61 2.135 . S
Co70 O71 2.216 . S
Co70 O72 2.091 . S
Co70 O74 2.004 . S
Co70 O80 2.021 . S
Co70 O82 2.137 . S
Co70 O83 2.244 . S
O71 Co70 2.216 . S
O71 C78 1.247 . S
O72 Co70 2.091 . S
O72 C78 1.261 . S
C73 O82 1.247 . S
C73 O83 1.272 . S
O74 Co70 2.004 . S
O74 C79 1.259 . S
Co75 O76 2.061 . S
Co75 O81 2.052 . S
Co75 O83 2.135 . S
O76 Co75 2.061 . S
O76 C79 1.235 . S
C77 O80 1.238 . S
C77 O81 1.241 . S
C78 O71 1.247 . S
C78 O72 1.261 . S
C79 O74 1.259 . S
C79 O76 1.235 . S
O80 Co70 2.021 . S
O80 C77 1.238 . S
O81 Co75 2.052 . S
O81 C77 1.241 . S
O82 Co70 2.137 . S
O82 C73 1.247 . S
O83 Co70 2.244 . S
O83 C73 1.272 . S
O83 Co75 2.135 . S
Co84 O85 2.216 . S
Co84 O86 2.091 . S
Co84 O88 2.004 . S
Co84 O94 2.021 . S
Co84 O96 2.137 . S
Co84 O97 2.244 . S
O85 Co84 2.216 . S
O85 C92 1.247 . S
O86 Co84 2.091 . S
O86 C92 1.261 . S
C87 O96 1.247 . S
C87 O97 1.272 . S
O88 Co84 2.004 . S
O88 C93 1.259 . S
Co89 O90 2.061 . S
Co89 O95 2.052 . S
Co89 O97 2.135 . S
O90 Co89 2.061 . S
O90 C93 1.235 . S
C91 O94 1.238 . S
C91 O95 1.241 . S
C92 O85 1.247 . S
C92 O86 1.261 . S
C93 O88 1.259 . S
C93 O90 1.235 . S
O94 Co84 2.021 . S
O94 C91 1.238 . S
O95 Co89 2.052 . S
O95 C91 1.241 . S
O96 Co84 2.137 . S
O96 C87 1.247 . S
O97 Co84 2.244 . S
O97 C87 1.272 . S
O97 Co89 2.135 . S
Co98 O99 2.216 . S
Co98 O100 2.091 . S
Co98 O102 2.004 . S
Co98 O108 2.021 . S
Co98 O110 2.137 . S
Co98 O111 2.244 . S
O99 Co98 2.216 . S
O99 C106 1.247 . S
O100 Co98 2.091 . S
O100 C106 1.261 . S
C101 O110 1.247 . S
C101 O111 1.272 . S
O102 Co98 2.004 . S
O102 C107 1.259 . S
Co103 O104 2.061 . S
Co103 O109 2.052 . S
Co103 O111 2.135 . S
O104 Co103 2.061 . S
O104 C107 1.235 . S
C105 O108 1.238 . S
C105 O109 1.241 . S
C106 O99 1.247 . S
C106 O100 1.261 . S
C107 O102 1.259 . S
C107 O104 1.235 . S
O108 Co98 2.021 . S
O108 C105 1.238 . S
O109 Co103 2.052 . S
O109 C105 1.241 . S
O110 Co98 2.137 . S
O110 C101 1.247 . S
O111 Co98 2.244 . S
O111 C101 1.272 . S
O111 Co103 2.135 . S
H112 C124 0.930 . S
H113 C126 0.930 . S
H114 C127 0.930 . S
H115 C131 0.959 . S
H116 C131 0.959 1_455 S
H117 C131 0.961 . S
H118 C132 0.960 . S
H119 C132 0.961 . S
H120 C132 0.959 . S
H121 C135 0.929 . S
H122 C136 0.931 . S
H123 C138 0.930 . S
C124 H112 0.930 . S
C124 C125 1.399 . S
C124 C129 1.399 . S
C125 C124 1.399 . S
C125 C126 1.376 . S
C126 H113 0.930 . S
C126 C125 1.376 . S
C126 C127 1.388 . S
C127 H114 0.930 . S
C127 C126 1.388 . S
C127 C128 1.390 . S
C128 C127 1.390 . S
C128 C129 1.394 . S
C128 C134 1.465 1_655 S
C129 C124 1.399 . S
C129 C128 1.394 . S
C129 C130 1.516 1_655 S
C130 C129 1.516 1_455 S
C130 C131 1.502 1_455 S
C130 C132 1.561 . S
C130 C133 1.526 . S
C131 H115 0.959 . S
C131 H116 0.959 1_655 S
C131 H117 0.961 . S
C131 C130 1.502 1_655 S
C132 H118 0.960 . S
C132 H119 0.961 . S
C132 H120 0.959 . S
C132 C130 1.561 . S
C133 C130 1.526 . S
C133 C134 1.396 . S
C133 C138 1.390 . S
C134 C128 1.465 1_455 S
C134 C133 1.396 . S
C134 C135 1.399 . S
C135 H121 0.929 . S
C135 C134 1.399 . S
C135 C136 1.385 . S
C136 H122 0.931 . S
C136 C135 1.385 . S
C136 C137 1.389 . S
C137 C136 1.389 . S
C137 C138 1.387 . S
C138 H123 0.930 . S
C138 C133 1.390 . S
C138 C137 1.387 . S
H139 C151 0.930 . S
H140 C153 0.930 . S
H141 C154 0.930 . S
H142 C158 0.959 . S
H143 C158 0.959 1_565 S
H144 C158 0.961 . S
H145 C159 0.960 . S
H146 C159 0.961 . S
H147 C159 0.959 . S
H148 C162 0.929 . S
H149 C163 0.931 . S
H150 C165 0.930 . S
C151 H139 0.930 . S
C151 C152 1.399 . S
C151 C156 1.399 . S
C152 C151 1.399 . S
C152 C153 1.376 . S
C153 H140 0.930 . S
C153 C152 1.376 . S
C153 C154 1.388 . S
C154 H141 0.930 . S
C154 C153 1.388 . S
C154 C155 1.390 . S
C155 C154 1.390 . S
C155 C156 1.394 . S
C155 C161 1.465 1_545 S
C156 C151 1.399 . S
C156 C155 1.394 . S
C156 C157 1.516 1_545 S
C157 C156 1.516 1_565 S
C157 C158 1.502 1_565 S
C157 C159 1.561 . S
C157 C160 1.526 . S
C158 H142 0.959 . S
C158 H143 0.959 1_545 S
C158 H144 0.961 . S
C158 C157 1.502 1_545 S
C159 H145 0.960 . S
C159 H146 0.961 . S
C159 H147 0.959 . S
C159 C157 1.561 . S
C160 C157 1.526 . S
C160 C161 1.396 . S
C160 C165 1.390 . S
C161 C155 1.465 1_565 S
C161 C160 1.396 . S
C161 C162 1.399 . S
C162 H148 0.929 . S
C162 C161 1.399 . S
C162 C163 1.385 . S
C163 H149 0.931 . S
C163 C162 1.385 . S
C163 C164 1.389 . S
C164 C163 1.389 . S
C164 C165 1.387 . S
C165 H150 0.930 . S
C165 C160 1.390 . S
C165 C164 1.387 . S
H166 C178 0.930 . S
H167 C180 0.930 . S
H168 C181 0.930 . S
H169 C185 0.959 . S
H170 C185 0.959 . S
H171 C185 0.961 1_655 S
H172 C186 0.960 . S
H173 C186 0.961 . S
H174 C186 0.959 . S
H175 C189 0.929 . S
H176 C190 0.931 . S
H177 C192 0.930 . S
C178 H166 0.930 . S
C178 C179 1.399 . S
C178 C183 1.399 . S
C179 C178 1.399 . S
C179 C180 1.376 . S
C180 H167 0.930 . S
C180 C179 1.376 . S
C180 C181 1.388 . S
C181 H168 0.930 . S
C181 C180 1.388 . S
C181 C182 1.390 . S
C182 C181 1.390 . S
C182 C183 1.394 . S
C182 C188 1.465 1_655 S
C183 C178 1.399 . S
C183 C182 1.394 . S
C183 C184 1.516 . S
C184 C183 1.516 . S
C184 C185 1.502 1_655 S
C184 C186 1.561 . S
C184 C187 1.526 1_655 S
C185 H169 0.959 . S
C185 H170 0.959 . S
C185 H171 0.961 1_455 S
C185 C184 1.502 1_455 S
C186 H172 0.960 . S
C186 H173 0.961 . S
C186 H174 0.959 . S
C186 C184 1.561 . S
C187 C184 1.526 1_455 S
C187 C188 1.396 . S
C187 C192 1.390 . S
C188 C182 1.465 1_455 S
C188 C187 1.396 . S
C188 C189 1.399 . S
C189 H175 0.929 . S
C189 C188 1.399 . S
C189 C190 1.385 . S
C190 H176 0.931 . S
C190 C189 1.385 . S
C190 C191 1.389 . S
C191 C190 1.389 . S
C191 C192 1.387 . S
C192 H177 0.930 . S
C192 C187 1.390 . S
C192 C191 1.387 . S
H193 C205 0.930 . S
H194 C207 0.930 . S
H195 C208 0.930 . S
H196 C212 0.959 . S
H197 C212 0.959 . S
H198 C212 0.961 . S
H199 C213 0.960 . S
H200 C213 0.960 1_565 S
H201 C213 0.959 . S
H202 C216 0.929 1_545 S
H203 C217 0.931 . S
H204 C219 0.930 . S
C205 H193 0.930 . S
C205 C206 1.399 . S
C205 C210 1.399 . S
C206 C205 1.399 . S
C206 C207 1.376 . S
C207 H194 0.930 . S
C207 C206 1.376 . S
C207 C208 1.388 . S
C208 H195 0.930 . S
C208 C207 1.388 . S
C208 C209 1.390 . S
C209 C208 1.390 . S
C209 C210 1.394 . S
C209 C215 1.456 1_545 S
C210 C205 1.399 . S
C210 C209 1.394 . S
C210 C211 1.516 1_545 S
C211 C210 1.516 1_565 S
C211 C212 1.502 . S
C211 C213 1.561 1_565 S
C211 C214 1.526 . S
C212 H196 0.959 . S
C212 H197 0.959 . S
C212 H198 0.961 . S
C212 C211 1.502 . S
C213 H199 0.960 . S
C213 H200 0.960 1_545 S
C213 H201 0.959 . S
C213 C211 1.561 1_545 S
C214 C211 1.526 . S
C214 C215 1.406 . S
C214 C219 1.390 . S
C215 C209 1.456 1_565 S
C215 C214 1.406 . S
C215 C216 1.399 . S
C216 H202 0.929 1_565 S
C216 C215 1.399 . S
C216 C217 1.385 . S
C217 H203 0.931 . S
C217 C216 1.385 . S
C217 C218 1.389 . S
C218 C217 1.389 . S
C218 C219 1.387 . S
C219 H204 0.930 . S
C219 C214 1.390 . S
C219 C218 1.387 . S
H220 C232 0.930 . S
H221 C234 0.930 . S
H222 C235 0.930 . S
H223 C239 0.959 . S
H224 C239 0.959 . S
H225 C239 0.961 . S
H226 C240 0.960 . S
H227 C240 0.961 . S
H228 C240 0.959 . S
H229 C243 0.929 . S
H230 C244 0.931 . S
H231 C246 0.930 . S
C232 H220 0.930 . S
C232 C233 1.399 . S
C232 C237 1.399 . S
C233 C232 1.399 . S
C233 C234 1.376 1_545 S
C234 H221 0.930 . S
C234 C233 1.376 1_565 S
C234 C235 1.388 1_565 S
C235 H222 0.930 . S
C235 C234 1.388 1_545 S
C235 C236 1.390 . S
C236 C235 1.390 . S
C236 C237 1.394 . S
C236 C242 1.465 . S
C237 C232 1.399 . S
C237 C236 1.394 . S
C237 C238 1.516 . S
C238 C237 1.516 . S
C238 C239 1.502 . S
C238 C240 1.561 . S
C238 C241 1.526 . S
C239 H223 0.959 . S
C239 H224 0.959 . S
C239 H225 0.961 . S
C239 C238 1.502 . S
C240 H226 0.960 . S
C240 H227 0.961 . S
C240 H228 0.959 . S
C240 C238 1.561 . S
C241 C238 1.526 . S
C241 C242 1.396 . S
C241 C246 1.390 . S
C242 C236 1.465 . S
C242 C241 1.396 . S
C242 C243 1.399 . S
C243 H229 0.929 . S
C243 C242 1.399 . S
C243 C244 1.385 . S
C244 H230 0.931 . S
C244 C243 1.385 . S
C244 C245 1.389 . S
C245 C244 1.389 . S
C245 C246 1.387 . S
C246 H231 0.930 . S
C246 C241 1.390 . S
C246 C245 1.387 . S
H247 C259 0.930 . S
H248 C261 0.930 . S
H249 C262 0.930 . S
H250 C266 0.959 . S
H251 C266 0.959 . S
H252 C266 0.961 . S
H253 C267 0.960 . S
H254 C267 0.961 . S
H255 C267 0.959 . S
H256 C270 0.929 . S
H257 C271 0.931 1_655 S
H258 C273 0.930 . S
C259 H247 0.930 . S
C259 C260 1.399 . S
C259 C264 1.399 . S
C260 C259 1.399 . S
C260 C261 1.376 . S
C261 H248 0.930 . S
C261 C260 1.376 . S
C261 C262 1.388 . S
C262 H249 0.930 . S
C262 C261 1.388 . S
C262 C263 1.390 . S
C263 C262 1.390 . S
C263 C264 1.394 . S
C263 C269 1.465 . S
C264 C259 1.399 . S
C264 C263 1.394 . S
C264 C265 1.516 . S
C265 C264 1.516 . S
C265 C266 1.502 . S
C265 C267 1.561 . S
C265 C268 1.526 . S
C266 H250 0.959 . S
C266 H251 0.959 . S
C266 H252 0.961 . S
C266 C265 1.502 . S
C267 H253 0.960 . S
C267 H254 0.961 . S
C267 H255 0.959 . S
C267 C265 1.561 . S
C268 C265 1.526 . S
C268 C269 1.396 . S
C268 C273 1.390 . S
C269 C263 1.465 . S
C269 C268 1.396 . S
C269 C270 1.399 . S
C270 H256 0.929 . S
C270 C269 1.399 . S
C270 C271 1.385 . S
C271 H257 0.931 1_455 S
C271 C270 1.385 . S
C271 C272 1.389 . S
C272 C271 1.389 . S
C272 C273 1.387 . S
C273 H258 0.930 . S
C273 C268 1.390 . S
C273 C272 1.387 . S
H274 C286 0.930 . S
H275 C288 0.930 1_545 S
H276 C289 0.930 . S
H277 C293 0.959 . S
H278 C293 0.959 . S
H279 C293 0.961 . S
H280 C294 0.960 . S
H281 C294 0.961 . S
H282 C294 0.959 . S
H283 C297 0.929 . S
H284 C298 0.931 . S
H285 C300 0.930 . S
C286 H274 0.930 . S
C286 C287 1.399 . S
C286 C291 1.399 . S
C287 C286 1.399 . S
C287 C288 1.376 . S
C288 H275 0.930 1_565 S
C288 C287 1.376 . S
C288 C289 1.388 . S
C289 H276 0.930 . S
C289 C288 1.388 . S
C289 C290 1.390 . S
C290 C289 1.390 . S
C290 C291 1.394 . S
C290 C296 1.465 . S
C291 C286 1.399 . S
C291 C290 1.394 . S
C291 C292 1.516 . S
C292 C291 1.516 . S
C292 C293 1.502 . S
C292 C294 1.561 . S
C292 C295 1.526 . S
C293 H277 0.959 . S
C293 H278 0.959 . S
C293 H279 0.961 . S
C293 C292 1.502 . S
C294 H280 0.960 . S
C294 H281 0.961 . S
C294 H282 0.959 . S
C294 C292 1.561 . S
C295 C292 1.526 . S
C295 C296 1.396 . S
C295 C300 1.390 . S
C296 C290 1.465 . S
C296 C295 1.396 . S
C296 C297 1.399 . S
C297 H283 0.929 . S
C297 C296 1.399 . S
C297 C298 1.385 . S
C298 H284 0.931 . S
C298 C297 1.385 . S
C298 C299 1.389 . S
C299 C298 1.389 . S
C299 C300 1.387 . S
C300 H285 0.930 . S
C300 C295 1.390 . S
C300 C299 1.387 . S
H301 C313 0.930 . S
H302 C315 0.930 . S
H303 C316 0.930 . S
H304 C320 0.959 . S
H305 C320 0.959 . S
H306 C320 0.961 . S
H307 C321 0.960 . S
H308 C321 0.961 . S
H309 C321 0.959 . S
H310 C324 0.929 . S
H311 C325 0.931 1_455 S
H312 C327 0.930 . S
C313 H301 0.930 . S
C313 C314 1.399 . S
C313 C318 1.399 . S
C314 C313 1.399 . S
C314 C315 1.376 . S
C315 H302 0.930 . S
C315 C314 1.376 . S
C315 C316 1.388 . S
C316 H303 0.930 . S
C316 C315 1.388 . S
C316 C317 1.390 . S
C317 C316 1.390 . S
C317 C318 1.394 . S
C317 C323 1.465 . S
C318 C313 1.399 . S
C318 C317 1.394 . S
C318 C319 1.516 . S
C319 C318 1.516 . S
C319 C320 1.502 . S
C319 C321 1.561 . S
C319 C322 1.526 . S
C320 H304 0.959 . S
C320 H305 0.959 . S
C320 H306 0.961 . S
C320 C319 1.502 . S
C321 H307 0.960 . S
C321 H308 0.961 . S
C321 H309 0.959 . S
C321 C319 1.561 . S
C322 C319 1.526 . S
C322 C323 1.396 . S
C322 C327 1.390 . S
C323 C317 1.465 . S
C323 C322 1.396 . S
C323 C324 1.399 . S
C324 H310 0.929 . S
C324 C323 1.399 . S
C324 C325 1.385 . S
C325 H311 0.931 1_655 S
C325 C324 1.385 . S
C325 C326 1.389 . S
C326 C325 1.389 . S
C326 C327 1.387 . S
C327 H312 0.930 . S
C327 C322 1.390 . S
C327 C326 1.387 . S
H328 C340 0.923 1_565 S
H329 C342 0.930 . S
H330 C343 0.930 . S
H331 C347 0.959 . S
H332 C347 0.959 . S
H333 C347 0.961 . S
H334 C348 0.960 . S
H335 C348 0.961 . S
H336 C348 0.959 . S
H337 C351 0.929 . S
H338 C352 0.931 . S
H339 C354 0.930 . S
C340 H328 0.923 1_545 S
C340 C341 1.399 . S
C340 C345 1.399 . S
C341 C340 1.399 . S
C341 C342 1.376 . S
C342 H329 0.930 . S
C342 C341 1.376 . S
C342 C343 1.388 . S
C343 H330 0.930 . S
C343 C342 1.388 . S
C343 C344 1.390 . S
C344 C343 1.390 . S
C344 C345 1.394 . S
C344 C350 1.465 . S
C345 C340 1.399 . S
C345 C344 1.394 . S
C345 C346 1.516 1_556 S
C346 C345 1.516 1_554 S
C346 C347 1.502 . S
C346 C348 1.561 . S
C346 C349 1.526 . S
C347 H331 0.959 . S
C347 H332 0.959 . S
C347 H333 0.961 . S
C347 C346 1.502 . S
C348 H334 0.960 . S
C348 H335 0.961 . S
C348 H336 0.959 . S
C348 C346 1.561 . S
C349 C346 1.526 . S
C349 C350 1.396 1_554 S
C349 C354 1.390 . S
C350 C344 1.465 . S
C350 C349 1.396 1_556 S
C350 C351 1.399 . S
C351 H337 0.929 . S
C351 C350 1.399 . S
C351 C352 1.385 1_556 S
C352 H338 0.931 . S
C352 C351 1.385 1_554 S
C352 C353 1.389 . S
C353 C352 1.389 . S
C353 C354 1.387 . S
C354 H339 0.930 . S
C354 C349 1.390 . S
C354 C353 1.387 . S
H355 C367 0.930 . S
H356 C369 0.930 . S
H357 C370 0.926 1_554 S
H358 C374 0.959 . S
H359 C374 0.959 . S
H360 C374 0.961 . S
H361 C375 0.960 . S
H362 C375 0.961 . S
H363 C375 0.959 . S
H364 C378 0.929 . S
H365 C379 0.931 . S
H366 C381 0.930 1_655 S
C367 H355 0.930 . S
C367 C368 1.399 . S
C367 C372 1.399 . S
C368 C367 1.399 . S
C368 C369 1.376 . S
C369 H356 0.930 . S
C369 C368 1.376 . S
C369 C370 1.393 . S
C370 H357 0.926 1_556 S
C370 C369 1.393 . S
C370 C371 1.389 1_556 S
C371 C370 1.389 1_554 S
C371 C372 1.394 1_554 S
C371 C377 1.465 . S
C372 C367 1.399 . S
C372 C371 1.394 1_556 S
C372 C373 1.516 . S
C373 C372 1.516 . S
C373 C374 1.502 . S
C373 C375 1.561 1_556 S
C373 C376 1.526 1_556 S
C374 H358 0.959 . S
C374 H359 0.959 . S
C374 H360 0.961 . S
C374 C373 1.502 . S
C375 H361 0.960 . S
C375 H362 0.961 . S
C375 H363 0.959 . S
C375 C373 1.561 1_554 S
C376 C373 1.526 1_554 S
C376 C377 1.396 . S
C376 C381 1.390 . S
C377 C371 1.465 . S
C377 C376 1.396 . S
C377 C378 1.399 . S
C378 H364 0.929 . S
C378 C377 1.399 . S
C378 C379 1.385 . S
C379 H365 0.931 . S
C379 C378 1.385 . S
C379 C380 1.389 . S
C380 C379 1.389 . S
C380 C381 1.387 . S
C381 H366 0.930 1_455 S
C381 C376 1.390 . S
C381 C380 1.387 . S
H382 C394 0.930 1_556 S
H383 C396 0.930 . S
H384 C397 0.930 . S
H385 C401 0.959 . S
H386 C401 0.959 . S
H387 C401 0.961 . S
H388 C402 0.960 . S
H389 C402 0.961 . S
H390 C402 0.959 . S
H391 C405 0.929 . S
H392 C406 0.931 . S
H393 C408 0.930 . S
C394 H382 0.930 1_554 S
C394 C395 1.399 . S
C394 C399 1.399 1_554 S
C395 C394 1.399 . S
C395 C396 1.376 . S
C396 H383 0.930 . S
C396 C395 1.376 . S
C396 C397 1.388 . S
C397 H384 0.930 . S
C397 C396 1.388 . S
C397 C398 1.390 . S
C398 C397 1.390 . S
C398 C399 1.394 1_554 S
C398 C404 1.465 1_554 S
C399 C394 1.399 1_556 S
C399 C398 1.394 1_556 S
C399 C400 1.516 . S
C400 C399 1.516 . S
C400 C401 1.502 . S
C400 C402 1.561 . S
C400 C403 1.526 . S
C401 H385 0.959 . S
C401 H386 0.959 . S
C401 H387 0.961 . S
C401 C400 1.502 . S
C402 H388 0.960 . S
C402 H389 0.961 . S
C402 H390 0.959 . S
C402 C400 1.561 . S
C403 C400 1.526 . S
C403 C404 1.396 . S
C403 C408 1.390 . S
C404 C398 1.465 1_556 S
C404 C403 1.396 . S
C404 C405 1.399 1_556 S
C405 H391 0.929 . S
C405 C404 1.399 1_554 S
C405 C406 1.385 1_564 S
C406 H392 0.931 . S
C406 C405 1.385 1_546 S
C406 C407 1.389 1_545 S
C407 C406 1.389 1_565 S
C407 C408 1.387 . S
C408 H393 0.930 . S
C408 C403 1.390 . S
C408 C407 1.387 . S
H409 C421 0.930 . S
H410 C423 0.930 . S
H411 C424 0.930 . S
H412 C428 0.959 . S
H413 C428 0.959 1_554 S
H414 C428 0.961 . S
H415 C429 0.960 . S
H416 C429 0.961 . S
H417 C429 0.959 . S
H418 C432 0.929 . S
H419 C433 0.931 . S
H420 C435 0.930 . S
C421 H409 0.930 . S
C421 C422 1.399 . S
C421 C426 1.399 . S
C422 C421 1.399 . S
C422 C423 1.376 . S
C423 H410 0.930 . S
C423 C422 1.376 . S
C423 C424 1.388 . S
C424 H411 0.930 . S
C424 C423 1.388 . S
C424 C425 1.390 . S
C425 C424 1.390 . S
C425 C426 1.394 . S
C425 C431 1.465 1_556 S
C426 C421 1.399 . S
C426 C425 1.394 . S
C426 C427 1.516 1_556 S
C427 C426 1.516 1_554 S
C427 C428 1.502 1_554 S
C427 C429 1.561 . S
C427 C430 1.526 . S
C428 H412 0.959 . S
C428 H413 0.959 1_556 S
C428 H414 0.961 . S
C428 C427 1.502 1_556 S
C429 H415 0.960 . S
C429 H416 0.961 . S
C429 H417 0.959 . S
C429 C427 1.561 . S
C430 C427 1.526 . S
C430 C431 1.396 . S
C430 C435 1.390 . S
C431 C425 1.465 1_554 S
C431 C430 1.396 . S
C431 C432 1.399 . S
C432 H418 0.929 . S
C432 C431 1.399 . S
C432 C433 1.385 . S
C433 H419 0.931 . S
C433 C432 1.385 . S
C433 C434 1.389 . S
C434 C433 1.389 . S
C434 C435 1.387 . S
C435 H420 0.930 . S
C435 C430 1.390 . S
C435 C434 1.387 . S
H436 C448 0.930 . S
H437 C450 0.930 . S
H438 C451 0.930 . S
H439 C455 0.959 . S
H440 C455 0.959 . S
H441 C455 0.961 . S
H442 C456 0.960 . S
H443 C456 0.961 . S
H444 C456 0.959 . S
H445 C459 0.929 . S
H446 C460 0.931 . S
H447 C462 0.930 . S
C448 H436 0.930 . S
C448 C449 1.399 . S
C448 C453 1.399 . S
C449 C448 1.399 . S
C449 C450 1.376 . S
C450 H437 0.930 . S
C450 C449 1.376 . S
C450 C451 1.388 . S
C451 H438 0.930 . S
C451 C450 1.388 . S
C451 C452 1.390 . S
C452 C451 1.390 . S
C452 C453 1.394 . S
C452 C458 1.465 . S
C453 C448 1.399 . S
C453 C452 1.394 . S
C453 C454 1.516 . S
C454 C453 1.516 . S
C454 C455 1.502 . S
C454 C456 1.561 . S
C454 C457 1.526 . S
C455 H439 0.959 . S
C455 H440 0.959 . S
C455 H441 0.961 . S
C455 C454 1.502 . S
C456 H442 0.960 . S
C456 H443 0.961 . S
C456 H444 0.959 . S
C456 C454 1.561 . S
C457 C454 1.526 . S
C457 C458 1.396 . S
C457 C462 1.390 . S
C458 C452 1.465 . S
C458 C457 1.396 . S
C458 C459 1.399 . S
C459 H445 0.929 . S
C459 C458 1.399 . S
C459 C460 1.385 . S
C460 H446 0.931 . S
C460 C459 1.385 . S
C460 C461 1.389 . S
C461 C460 1.389 . S
C461 C462 1.387 . S
C462 H447 0.930 . S
C462 C457 1.390 . S
C462 C461 1.387 . S
H463 C475 0.930 . S
H464 C477 0.930 . S
H465 C478 0.930 . S
H466 C482 0.959 . S
H467 C482 0.959 . S
H468 C482 0.961 . S
H469 C483 0.960 . S
H470 C483 0.961 . S
H471 C483 0.959 . S
H472 C486 0.929 . S
H473 C487 0.931 . S
H474 C489 0.930 . S
C475 H463 0.930 . S
C475 C476 1.399 . S
C475 C480 1.399 . S
C476 C475 1.399 . S
C476 C477 1.376 . S
C477 H464 0.930 . S
C477 C476 1.376 . S
C477 C478 1.388 . S
C478 H465 0.930 . S
C478 C477 1.388 . S
C478 C479 1.390 . S
C479 C478 1.390 . S
C479 C480 1.394 . S
C479 C485 1.465 . S
C480 C475 1.399 . S
C480 C479 1.394 . S
C480 C481 1.516 . S
C481 C480 1.516 . S
C481 C482 1.502 . S
C481 C483 1.561 . S
C481 C484 1.526 . S
C482 H466 0.959 . S
C482 H467 0.959 . S
C482 H468 0.961 . S
C482 C481 1.502 . S
C483 H469 0.960 . S
C483 H470 0.961 . S
C483 H471 0.959 . S
C483 C481 1.561 . S
C484 C481 1.526 . S
C484 C485 1.396 . S
C484 C489 1.390 . S
C485 C479 1.465 . S
C485 C484 1.396 . S
C485 C486 1.399 . S
C486 H472 0.929 . S
C486 C485 1.399 . S
C486 C487 1.385 . S
C487 H473 0.931 . S
C487 C486 1.385 . S
C487 C488 1.389 . S
C488 C487 1.389 . S
C488 C489 1.387 . S
C489 H474 0.930 . S
C489 C484 1.390 . S
C489 C488 1.387 . S
H490 C502 0.930 . S
H491 C504 0.930 . S
H492 C505 0.930 . S
H493 C509 0.959 . S
H494 C509 0.959 . S
H495 C509 0.961 . S
H496 C510 0.960 . S
H497 C510 0.961 . S
H498 C510 0.959 . S
H499 C513 0.929 . S
H500 C514 0.931 . S
H501 C516 0.930 . S
C502 H490 0.930 . S
C502 C503 1.399 . S
C502 C507 1.399 . S
C503 C502 1.399 . S
C503 C504 1.376 . S
C504 H491 0.930 . S
C504 C503 1.376 . S
C504 C505 1.388 . S
C505 H492 0.930 . S
C505 C504 1.388 . S
C505 C506 1.390 . S
C506 C505 1.390 . S
C506 C507 1.394 . S
C506 C512 1.465 . S
C507 C502 1.399 . S
C507 C506 1.394 . S
C507 C508 1.516 . S
C508 C507 1.516 . S
C508 C509 1.502 . S
C508 C510 1.561 . S
C508 C511 1.526 . S
C509 H493 0.959 . S
C509 H494 0.959 . S
C509 H495 0.961 . S
C509 C508 1.502 . S
C510 H496 0.960 . S
C510 H497 0.961 . S
C510 H498 0.959 . S
C510 C508 1.561 . S
C511 C508 1.526 . S
C511 C512 1.396 . S
C511 C516 1.390 . S
C512 C506 1.465 . S
C512 C511 1.396 . S
C512 C513 1.399 . S
C513 H499 0.929 . S
C513 C512 1.399 . S
C513 C514 1.385 . S
C514 H500 0.931 . S
C514 C513 1.385 . S
C514 C515 1.389 . S
C515 C514 1.389 . S
C515 C516 1.387 . S
C516 H501 0.930 . S
C516 C511 1.390 . S
C516 C515 1.387 . S
H517 C529 0.930 . S
H518 C531 0.930 . S
H519 C532 0.930 . S
H520 C536 0.959 . S
H521 C536 0.959 . S
H522 C536 0.961 . S
H523 C537 0.960 . S
H524 C537 0.961 . S
H525 C537 0.959 . S
H526 C540 0.929 . S
H527 C541 0.931 . S
H528 C543 0.930 . S
C529 H517 0.930 . S
C529 C530 1.399 . S
C529 C534 1.399 . S
C530 C529 1.399 . S
C530 C531 1.376 . S
C531 H518 0.930 . S
C531 C530 1.376 . S
C531 C532 1.388 . S
C532 H519 0.930 . S
C532 C531 1.388 . S
C532 C533 1.390 . S
C533 C532 1.390 . S
C533 C534 1.394 . S
C533 C539 1.465 . S
C534 C529 1.399 . S
C534 C533 1.394 . S
C534 C535 1.516 . S
C535 C534 1.516 . S
C535 C536 1.502 . S
C535 C537 1.561 . S
C535 C538 1.526 . S
C536 H520 0.959 . S
C536 H521 0.959 . S
C536 H522 0.961 . S
C536 C535 1.502 . S
C537 H523 0.960 . S
C537 H524 0.961 . S
C537 H525 0.959 . S
C537 C535 1.561 . S
C538 C535 1.526 . S
C538 C539 1.396 . S
C538 C543 1.390 . S
C539 C533 1.465 . S
C539 C538 1.396 . S
C539 C540 1.399 . S
C540 H526 0.929 . S
C540 C539 1.399 . S
C540 C541 1.385 . S
C541 H527 0.931 . S
C541 C540 1.385 . S
C541 C542 1.389 . S
C542 C541 1.389 . S
C542 C543 1.387 . S
C543 H528 0.930 . S
C543 C538 1.390 . S
C543 C542 1.387 . S
C125 C36 1.492 . S
C137 C8 1.499 . S
C152 C50 1.468 . S
C164 C22 1.480 . S
C179 C64 1.510 . S
C191 C92 1.501 . S
C206 C78 1.513 . S
C218 C106 1.460 . S
C233 C17 1.101 1_545 S
C245 C9 1.027 . S
C260 C23 1.056 . S
C272 C31 1.090 1_455 S
C287 C45 1.137 1_565 S
C299 C37 1.013 . S
C314 C51 1.023 . S
C326 C3 1.131 1_655 S
C341 C101 1.137 1_545 S
C353 C65 1.046 . S
C368 C79 1.118 . S
C380 C59 1.118 1_455 S
C395 C93 1.004 . S
C407 C73 1.098 1_565 S
C422 C107 1.128 . S
C434 C87 1.105 1_655 S
C449 C7 1.593 . S
C461 C77 1.602 . S
C476 C91 1.636 . S
C488 C21 1.593 . S
C503 C35 1.594 . S
C515 C105 1.600 . S
C530 C49 1.608 . S
C542 C63 1.582 . S
