# Generated by pormake.
# Topology sol, (6)-cn, num edge types: 1
# Building blocks:
#     Node 0, Type 0, BuildingBlock: OJICUG_clean_sbu_0, # of connection points: 6
#     Node 1, Type 0, BuildingBlock: OJICUG_clean_sbu_0, # of connection points: 6
#     Node 2, Type 0, BuildingBlock: OJICUG_clean_sbu_0, # of connection points: 6
#     Node 3, Type 0, BuildingBlock: OJICUG_clean_sbu_0, # of connection points: 6
#     Node 4, Type 0, BuildingBlock: OJICUG_clean_sbu_0, # of connection points: 6
#     Node 5, Type 0, BuildingBlock: OJICUG_clean_sbu_0, # of connection points: 6
#     Node 6, Type 0, BuildingBlock: OJICUG_clean_sbu_0, # of connection points: 6
#     Node 7, Type 0, BuildingBlock: OJICUG_clean_sbu_0, # of connection points: 6
#     Edge 8, Type (0, 0), BuildingBlock: ZUJKAS_clean_linker_0, # of connection points: 2
#     Edge 9, Type (0, 0), BuildingBlock: ZUJKAS_clean_linker_0, # of connection points: 2
#     Edge 10, Type (0, 0), BuildingBlock: ZUJKAS_clean_linker_0, # of connection points: 2
#     Edge 11, Type (0, 0), BuildingBlock: ZUJKAS_clean_linker_0, # of connection points: 2
#     Edge 12, Type (0, 0), BuildingBlock: ZUJKAS_clean_linker_0, # of connection points: 2
#     Edge 13, Type (0, 0), BuildingBlock: ZUJKAS_clean_linker_0, # of connection points: 2
#     Edge 14, Type (0, 0), BuildingBlock: ZUJKAS_clean_linker_0, # of connection points: 2
#     Edge 15, Type (0, 0), BuildingBlock: ZUJKAS_clean_linker_0, # of connection points: 2
#     Edge 16, Type (0, 0), BuildingBlock: ZUJKAS_clean_linker_0, # of connection points: 2
#     Edge 17, Type (0, 0), BuildingBlock: ZUJKAS_clean_linker_0, # of connection points: 2
#     Edge 18, Type (0, 0), BuildingBlock: ZUJKAS_clean_linker_0, # of connection points: 2
#     Edge 19, Type (0, 0), BuildingBlock: ZUJKAS_clean_linker_0, # of connection points: 2
#     Edge 20, Type (0, 0), BuildingBlock: ZUJKAS_clean_linker_0, # of connection points: 2
#     Edge 21, Type (0, 0), BuildingBlock: ZUJKAS_clean_linker_0, # of connection points: 2
#     Edge 22, Type (0, 0), BuildingBlock: ZUJKAS_clean_linker_0, # of connection points: 2
#     Edge 23, Type (0, 0), BuildingBlock: ZUJKAS_clean_linker_0, # of connection points: 2
#     Edge 24, Type (0, 0), BuildingBlock: ZUJKAS_clean_linker_0, # of connection points: 2
#     Edge 25, Type (0, 0), BuildingBlock: ZUJKAS_clean_linker_0, # of connection points: 2
#     Edge 26, Type (0, 0), BuildingBlock: ZUJKAS_clean_linker_0, # of connection points: 2
#     Edge 27, Type (0, 0), BuildingBlock: ZUJKAS_clean_linker_0, # of connection points: 2
#     Edge 28, Type (0, 0), BuildingBlock: ZUJKAS_clean_linker_0, # of connection points: 2
#     Edge 29, Type (0, 0), BuildingBlock: ZUJKAS_clean_linker_0, # of connection points: 2
#     Edge 30, Type (0, 0), BuildingBlock: ZUJKAS_clean_linker_0, # of connection points: 2
#     Edge 31, Type (0, 0), BuildingBlock: ZUJKAS_clean_linker_0, # of connection points: 2
# Relax obj value: 0.163
# Max RMSD: 0.156
# Mean RMSD: 0.156
data_MOF--net-sol--node1-OJICUG_clean_sbu_0--edge1-ZUJKAS_clean_linker_0
_symmetry_space_group_name_H-M    P1
_symmetry_Int_Tables_number       1
_symmetry_cell_setting            triclinic
loop_
_symmetry_equiv_pos_as_xyz
'x, y, z'
_cell_length_a     44.179232
_cell_length_b     35.616777
_cell_length_c     38.756857
_cell_angle_alpha  89.978526
_cell_angle_beta   90.016911
_cell_angle_gamma 89.970197
loop_
_atom_site_label
_atom_site_type_symbol
_atom_site_fract_x
_atom_site_fract_y
_atom_site_fract_z
_atom_type_partial_charge
Sc0 Sc 0.20297 0.22699 0.06196 0.0
Sc1 Sc 0.12534 0.21941 0.04178 0.0
Sc2 Sc 0.15853 0.15859 0.10307 0.0
O3 O 0.1623 0.2015 0.06878 0.0
C4 C 0.222 0.1409 0.06795 0.0
C5 C 0.17712 0.22063 0.98454 0.0
C6 C 0.11216 0.13107 0.04522 0.0
C7 C 0.15858 0.2969 0.0572 0.0
C8 C 0.2045 0.21306 0.14313 0.0
C9 C 0.09984 0.20845 0.11818 0.0
O10 O 0.22687 0.17462 0.05882 0.0
O11 O 0.14936 0.21666 0.99293 0.0
O12 O 0.13048 0.12464 0.06981 0.0
O13 O 0.18388 0.28216 0.06478 0.0
O14 O 0.18556 0.18625 0.14183 0.0
O15 O 0.09899 0.22441 0.08873 0.0
O16 O 0.21257 0.23127 0.11646 0.0
O17 O 0.13602 0.2779 0.04709 0.0
O18 O 0.11939 0.18368 0.12618 0.0
O19 O 0.19808 0.22547 0.00666 0.0
O20 O 0.19792 0.13049 0.08324 0.0
O21 O 0.1083 0.16366 0.03268 0.0
Sc22 Sc 0.34038 0.32756 0.60191 0.0
Sc23 Sc 0.37404 0.26606 0.54177 0.0
Sc24 Sc 0.29639 0.25794 0.56204 0.0
O25 O 0.33696 0.28393 0.56846 0.0
C26 C 0.29413 0.2737 0.64262 0.0
C27 C 0.39882 0.27796 0.61852 0.0
C28 C 0.34116 0.18832 0.55769 0.0
C29 C 0.38752 0.3542 0.54441 0.0
C30 C 0.27769 0.3445 0.5652 0.0
C31 C 0.32221 0.26396 0.48457 0.0
O32 O 0.31226 0.30131 0.64063 0.0
O33 O 0.40024 0.26219 0.58899 0.0
O34 O 0.31572 0.20275 0.56517 0.0
O35 O 0.36941 0.36067 0.56914 0.0
O36 O 0.27215 0.31024 0.55852 0.0
O37 O 0.34997 0.26804 0.49293 0.0
O38 O 0.30202 0.35554 0.57955 0.0
O39 O 0.39104 0.32164 0.53175 0.0
O40 O 0.30126 0.25917 0.50671 0.0
O41 O 0.37884 0.30228 0.62637 0.0
O42 O 0.28702 0.25401 0.61652 0.0
O43 O 0.3636 0.20759 0.54766 0.0
Sc44 Sc 0.66068 0.32603 0.91205 0.0
Sc45 Sc 0.62649 0.26381 0.97116 0.0
Sc46 Sc 0.70454 0.25669 0.95258 0.0
O47 O 0.66389 0.28227 0.94538 0.0
C48 C 0.70783 0.27288 0.87206 0.0
C49 C 0.60275 0.27609 0.89407 0.0
C50 C 0.66029 0.18658 0.95536 0.0
C51 C 0.61265 0.35192 0.96873 0.0
C52 C 0.7227 0.34336 0.95018 0.0
C53 C 0.67727 0.2615 0.02946 0.0
O54 O 0.68924 0.30006 0.87369 0.0
O55 O 0.60109 0.25991 0.9234 0.0
O56 O 0.68565 0.20149 0.94845 0.0
O57 O 0.63123 0.35872 0.94456 0.0
O58 O 0.72829 0.30918 0.9572 0.0
O59 O 0.64968 0.26586 0.02051 0.0
O60 O 0.69867 0.35413 0.93503 0.0
O61 O 0.6089 0.3192 0.98099 0.0
O62 O 0.69859 0.25694 0.00773 0.0
O63 O 0.6226 0.30077 0.88684 0.0
O64 O 0.715 0.25346 0.89832 0.0
O65 O 0.63752 0.2054 0.9652 0.0
Sc66 Sc 0.84122 0.16196 0.40997 0.0
Sc67 Sc 0.87422 0.22243 0.4714 0.0
Sc68 Sc 0.79613 0.22853 0.45251 0.0
O69 O 0.83717 0.20417 0.44478 0.0
C70 C 0.79446 0.21608 0.37103 0.0
C71 C 0.89959 0.2125 0.39502 0.0
C72 C 0.83945 0.29938 0.45725 0.0
C73 C 0.888 0.13413 0.46691 0.0
C74 C 0.77806 0.14245 0.44541 0.0
C75 C 0.82322 0.22197 0.5294 0.0
O76 O 0.81453 0.19054 0.37161 0.0
O77 O 0.90008 0.22896 0.42422 0.0
O78 O 0.81442 0.28411 0.44942 0.0
O79 O 0.86893 0.12767 0.4431 0.0
O80 O 0.77304 0.17559 0.45608 0.0
O81 O 0.85087 0.21813 0.52054 0.0
O82 O 0.80184 0.1333 0.42892 0.0
O83 O 0.89232 0.16678 0.47916 0.0
O84 O 0.80199 0.22704 0.50767 0.0
O85 O 0.88047 0.18716 0.38737 0.0
O86 O 0.78542 0.23265 0.3982 0.0
O87 O 0.86233 0.2808 0.46724 0.0
Sc88 Sc 0.79764 0.75702 0.9455 0.0
Sc89 Sc 0.87474 0.76555 0.96743 0.0
Sc90 Sc 0.84246 0.82539 0.90495 0.0
O91 O 0.83825 0.78284 0.93942 0.0
C92 C 0.79777 0.77064 0.86404 0.0
C93 C 0.84214 0.68769 0.95088 0.0
C94 C 0.90255 0.77712 0.89253 0.0
C95 C 0.82247 0.76281 0.02342 0.0
C96 C 0.77794 0.84244 0.9388 0.0
C97 C 0.8868 0.85431 0.96384 0.0
O98 O 0.78786 0.75458 0.89103 0.0
O99 O 0.86381 0.70691 0.9631 0.0
O100 O 0.88339 0.80226 0.88438 0.0
O101 O 0.80228 0.75624 1.00079 0.0
O102 O 0.80151 0.85206 0.92213 0.0
O103 O 0.89162 0.82158 0.97566 0.0
O104 O 0.77366 0.80934 0.95008 0.0
O105 O 0.85001 0.76947 0.01567 0.0
O106 O 0.86799 0.86064 0.93969 0.0
O107 O 0.81733 0.70218 0.94105 0.0
O108 O 0.8181 0.79586 0.86503 0.0
O109 O 0.90201 0.75969 0.92126 0.0
Sc110 Sc 0.70158 0.7295 0.44564 0.0
Sc111 Sc 0.62435 0.72184 0.46726 0.0
Sc112 Sc 0.65642 0.66156 0.40502 0.0
O113 O 0.66081 0.7041 0.43945 0.0
C114 C 0.70187 0.71564 0.3643 0.0
C115 C 0.65765 0.79934 0.45109 0.0
C116 C 0.59734 0.71145 0.39166 0.0
C117 C 0.6765 0.72374 0.52348 0.0
C118 C 0.72046 0.64364 0.43951 0.0
C119 C 0.61124 0.63334 0.46341 0.0
O120 O 0.71148 0.73218 0.39119 0.0
O121 O 0.63574 0.78037 0.46306 0.0
O122 O 0.61622 0.68592 0.38364 0.0
O123 O 0.69677 0.73005 0.50088 0.0
O124 O 0.69675 0.63403 0.42307 0.0
O125 O 0.60679 0.66607 0.4754 0.0
O126 O 0.72513 0.6769 0.45014 0.0
O127 O 0.64889 0.71746 0.51569 0.0
O128 O 0.63 0.62689 0.43928 0.0
O129 O 0.68236 0.78453 0.44141 0.0
O130 O 0.6817 0.69025 0.36543 0.0
O131 O 0.59759 0.72829 0.4207 0.0
Sc132 Sc 0.3406 0.66118 0.09878 0.0
Sc133 Sc 0.37397 0.72106 0.03704 0.0
Sc134 Sc 0.29535 0.7258 0.05393 0.0
O135 O 0.33666 0.70263 0.06311 0.0
C136 C 0.27802 0.63959 0.0641 0.0
C137 C 0.38841 0.63314 0.04273 0.0
C138 C 0.32325 0.71681 0.97809 0.0
C139 C 0.3982 0.71267 0.1143 0.0
C140 C 0.29329 0.71689 0.1355 0.0
C141 C 0.33803 0.79758 0.04677 0.0
O142 O 0.30255 0.63049 0.07907 0.0
O143 O 0.39185 0.66537 0.0292 0.0
O144 O 0.30123 0.7193 0.99916 0.0
O145 O 0.37853 0.68817 0.12237 0.0
O146 O 0.28542 0.73411 0.10813 0.0
O147 O 0.36215 0.77925 0.04138 0.0
O148 O 0.31218 0.68994 0.13536 0.0
O149 O 0.39968 0.72752 0.08441 0.0
O150 O 0.31263 0.78196 0.05198 0.0
O151 O 0.37004 0.62715 0.06734 0.0
O152 O 0.27228 0.67285 0.05435 0.0
O153 O 0.35095 0.71725 0.98751 0.0
Sc154 Sc 0.20524 0.75761 0.55529 0.0
Sc155 Sc 0.12743 0.7666 0.53634 0.0
Sc156 Sc 0.16263 0.82879 0.59466 0.0
O157 O 0.16508 0.78443 0.56196 0.0
C158 C 0.20909 0.77528 0.63534 0.0
C159 C 0.15985 0.68871 0.55304 0.0
C160 C 0.1044 0.77986 0.6136 0.0
C161 C 0.17821 0.76254 0.47819 0.0
C162 C 0.22462 0.84403 0.55613 0.0
C163 C 0.11433 0.85483 0.53824 0.0
O164 O 0.21523 0.75446 0.60969 0.0
O165 O 0.13752 0.70799 0.54264 0.0
O166 O 0.12461 0.80419 0.62064 0.0
O167 O 0.19942 0.75746 0.50001 0.0
O168 O 0.20054 0.85578 0.57056 0.0
O169 O 0.11038 0.82215 0.52605 0.0
O170 O 0.22996 0.80951 0.55035 0.0
O171 O 0.15069 0.76783 0.48702 0.0
O172 O 0.13303 0.86147 0.56231 0.0
O173 O 0.18542 0.70297 0.56003 0.0
O174 O 0.19157 0.80346 0.63306 0.0
O175 O 0.10226 0.7637 0.58429 0.0
H176 H 0.06285 0.27073 0.11965 0.0
H177 H 0.03002 0.29103 0.1673 0.0
H178 H 0.05518 0.19238 0.22518 0.0
H179 H 0.08799 0.17228 0.1785 0.0
H180 H 0.98141 0.25669 0.19628 0.0
H181 H 0.06938 0.27408 0.29565 0.0
H182 H 0.07831 0.27082 0.25025 0.0
H183 H 0.07311 0.22893 0.27572 0.0
C184 C 0.06132 0.25339 0.14255 0.0
C185 C 0.07824 0.22002 0.14536 0.0
C186 C 0.04274 0.26516 0.16979 0.0
C187 C 0.04096 0.24382 0.20019 0.0
C188 C 0.05709 0.21001 0.2025 0.0
H189 H 0.91097 0.17596 0.33484 0.0
H190 H 0.94421 0.1949 0.28827 0.0
C191 C 0.07563 0.19836 0.17555 0.0
C192 C 0.02084 0.25483 0.22898 0.0
H193 H 0.01906 0.25636 0.31695 0.0
C194 C 0.98969 0.25771 0.22261 0.0
C195 C 0.03164 0.25734 0.2633 0.0
C196 C 0.065 0.25807 0.27155 0.0
C197 C 0.9689 0.25888 0.24991 0.0
C198 C 0.97961 0.25621 0.28424 0.0
C199 C 0.01083 0.25755 0.2906 0.0
C200 C 0.95917 0.24611 0.31301 0.0
C201 C 0.93558 0.26112 0.24165 0.0
C202 C 0.95759 0.26775 0.34324 0.0
C203 C 0.93867 0.25669 0.37045 0.0
C204 C 0.92127 0.22371 0.36778 0.0
C205 C 0.92368 0.20178 0.33772 0.0
C206 C 0.94249 0.21275 0.31082 0.0
H207 H 0.93168 0.27704 0.21739 0.0
H208 H 0.92659 0.23233 0.23779 0.0
H209 H 0.92268 0.27473 0.26282 0.0
H210 H 0.97074 0.29328 0.34562 0.0
H211 H 0.93734 0.27418 0.39325 0.0
H212 H 0.4371 0.21692 0.62005 0.0
H213 H 0.47096 0.19823 0.66731 0.0
H214 H 0.44387 0.29613 0.72506 0.0
H215 H 0.40994 0.31455 0.6788 0.0
H216 H 0.51893 0.23424 0.69498 0.0
H217 H 0.43307 0.21486 0.79636 0.0
H218 H 0.42325 0.21776 0.75119 0.0
H219 H 0.42818 0.25985 0.77644 0.0
C220 C 0.43838 0.2344 0.64286 0.0
C221 C 0.42062 0.26708 0.64575 0.0
C222 C 0.45758 0.22356 0.66987 0.0
C223 C 0.45919 0.24518 0.70011 0.0
C224 C 0.44213 0.27827 0.70253 0.0
H225 H 0.59264 0.31284 0.83359 0.0
H226 H 0.55905 0.29498 0.78687 0.0
C227 C 0.42293 0.28896 0.67582 0.0
C228 C 0.48006 0.23521 0.72855 0.0
H229 H 0.48341 0.23369 0.81645 0.0
C230 C 0.51114 0.23311 0.7215 0.0
C231 C 0.46991 0.23255 0.76311 0.0
C232 C 0.43672 0.23092 0.77214 0.0
C233 C 0.53244 0.2323 0.74831 0.0
C234 C 0.5223 0.23464 0.78289 0.0
C235 C 0.49121 0.23279 0.78992 0.0
C236 C 0.5432 0.24407 0.81146 0.0
C237 C 0.56561 0.2304 0.73926 0.0
C238 C 0.54445 0.22227 0.84162 0.0
C239 C 0.56345 0.23279 0.8689 0.0
C240 C 0.58136 0.26535 0.86639 0.0
C241 C 0.5795 0.28735 0.83632 0.0
C242 C 0.5605 0.27696 0.80934 0.0
H243 H 0.56915 0.21449 0.71494 0.0
H244 H 0.57432 0.25927 0.73512 0.0
H245 H 0.57902 0.21694 0.76012 0.0
H246 H 0.53087 0.19708 0.84396 0.0
H247 H 0.56437 0.21522 0.8917 0.0
H248 H 0.93689 0.71274 0.88737 0.0
H249 H 0.97188 0.69613 0.84041 0.0
H250 H 0.95515 0.80341 0.79234 0.0
H251 H 0.92028 0.81991 0.83831 0.0
H252 H 0.94941 0.74146 0.74743 0.0
H253 H 0.05741 0.73935 0.82191 0.0
H254 H 0.02644 0.71096 0.83704 0.0
H255 H 0.02362 0.76116 0.83873 0.0
C256 C 0.94099 0.73287 0.86695 0.0
C257 C 0.92573 0.76757 0.86648 0.0
C258 C 0.96091 0.72333 0.84018 0.0
C259 C 0.96598 0.74856 0.81294 0.0
C260 C 0.95131 0.78342 0.81298 0.0
H261 H 0.09379 0.81796 0.67321 0.0
H262 H 0.06034 0.80052 0.72033 0.0
C263 C 0.93142 0.79283 0.83937 0.0
C264 C 0.98622 0.7395 0.78376 0.0
H265 H 0.06086 0.73695 0.76166 0.0
C266 C 0.97378 0.73961 0.75042 0.0
C267 C 0.01791 0.73706 0.78798 0.0
C268 C 0.03235 0.73726 0.82326 0.0
C269 C 0.9923 0.7404 0.72106 0.0
C270 C 0.02408 0.74022 0.72532 0.0
C271 C 0.03645 0.73713 0.7586 0.0
C272 C 0.04469 0.74919 0.6964 0.0
C273 C 0.97776 0.74437 0.686 0.0
C274 C 0.04687 0.72614 0.66713 0.0
C275 C 0.06582 0.73633 0.63972 0.0
C276 C 0.08311 0.76947 0.64145 0.0
C277 C 0.08089 0.79222 0.67098 0.0
C278 C 0.06187 0.78221 0.69807 0.0
H279 H 0.95305 0.74984 0.68777 0.0
H280 H 0.98842 0.76765 0.6713 0.0
H281 H 0.9811 0.71807 0.67116 0.0
H282 H 0.03408 0.70028 0.66556 0.0
H283 H 0.0673 0.71799 0.6175 0.0
H284 H 0.58209 0.67263 0.33389 0.0
H285 H 0.54946 0.69255 0.28696 0.0
H286 H 0.5301 0.79594 0.34048 0.0
H287 H 0.56286 0.77589 0.3884 0.0
H288 H 0.47924 0.76326 0.31277 0.0
H289 H 0.56816 0.7702 0.2134 0.0
H290 H 0.56992 0.726 0.23542 0.0
H291 H 0.57676 0.76882 0.25897 0.0
C292 C 0.57101 0.69968 0.33585 0.0
C293 C 0.57533 0.72282 0.36483 0.0
C294 C 0.55256 0.71118 0.30877 0.0
C295 C 0.5382 0.74625 0.30971 0.0
C296 C 0.54146 0.76903 0.33905 0.0
H297 H 0.43801 0.7724 0.11401 0.0
H298 H 0.47115 0.7926 0.16148 0.0
C299 C 0.55998 0.75743 0.36644 0.0
C300 C 0.51863 0.75741 0.28046 0.0
H301 H 0.51725 0.75498 0.19251 0.0
C302 C 0.48762 0.76255 0.28648 0.0
C303 C 0.52964 0.75767 0.24616 0.0
C304 C 0.56302 0.75582 0.23816 0.0
C305 C 0.467 0.76376 0.25899 0.0
C306 C 0.47771 0.75881 0.22486 0.0
C307 C 0.50897 0.75793 0.21872 0.0
C308 C 0.45704 0.74847 0.19634 0.0
C309 C 0.43379 0.7685 0.2669 0.0
C310 C 0.43892 0.71644 0.19991 0.0
C311 C 0.42024 0.70483 0.17309 0.0
C312 C 0.41942 0.72473 0.14174 0.0
C313 C 0.43811 0.75645 0.13781 0.0
C314 C 0.45688 0.76816 0.16493 0.0
H315 H 0.4305 0.78606 0.29029 0.0
H316 H 0.42148 0.7816 0.245 0.0
H317 H 0.42367 0.74057 0.27219 0.0
H318 H 0.43951 0.69997 0.22341 0.0
H319 H 0.40648 0.68003 0.17703 0.0
H320 H 0.10782 0.05922 0.0705 0.0
H321 H 0.06966 0.01213 0.05618 0.0
H322 H 0.03228 0.08592 0.97893 0.0
H323 H 0.07007 0.13343 0.99325 0.0
H324 H 0.98916 0.0582 0.02448 0.0
H325 H 0.06036 0.94264 0.97314 0.0
H326 H 0.07205 0.95958 0.01468 0.0
H327 H 0.07421 0.99006 0.97778 0.0
C328 C 0.09188 0.06525 0.04999 0.0
C329 C 0.09208 0.10027 0.03312 0.0
C330 C 0.07009 0.03819 0.04178 0.0
C331 C 0.04822 0.04541 0.01634 0.0
C332 C 0.04895 0.07977 0.99865 0.0
H333 H 0.89035 0.92635 0.93879 0.0
H334 H 0.92815 0.97389 0.95314 0.0
C335 C 0.07069 0.10685 0.00684 0.0
C336 C 0.0234 0.01825 0.00973 0.0
H337 H 0.00886 0.92817 0.98463 0.0
C338 C 0.99343 0.02982 0.01557 0.0
C339 C 0.02904 0.98121 0.99828 0.0
C340 C 0.06062 0.96764 0.99028 0.0
C341 C 0.96897 0.00516 0.01082 0.0
C342 C 0.97461 0.96811 0.99941 0.0
C343 C 0.00458 0.95656 0.99353 0.0
C344 C 0.94983 0.94084 0.99297 0.0
C345 C 0.93738 0.01872 0.01881 0.0
C346 C 0.94932 0.9065 0.01069 0.0
C347 C 0.9278 0.87917 1.00249 0.0
C348 C 0.9064 0.88548 0.97616 0.0
C349 C 0.90629 0.92053 0.95933 0.0
C350 C 0.92789 0.94784 0.96756 0.0
H351 H 0.93763 0.0438 0.03586 0.0
H352 H 0.92592 0.02665 0.99439 0.0
H353 H 0.92383 -0.00367 0.03141 0.0
H354 H 0.96604 0.90052 0.0304 0.0
H355 H 0.92863 0.85259 0.01605 0.0
H356 H 0.56804 0.6357 0.51415 0.0
H357 H 0.53084 0.58744 0.52841 0.0
H358 H 0.57115 0.51301 0.45371 0.0
H359 H 0.60872 0.56084 0.43948 0.0
H360 H 0.48926 0.5576 0.48216 0.0
H361 H 0.56122 0.44503 0.53774 0.0
H362 H 0.57437 0.49269 0.53259 0.0
H363 H 0.5735 0.4614 0.49622 0.0
C364 C 0.56942 0.60884 0.50114 0.0
C365 C 0.59146 0.60228 0.47558 0.0
C366 C 0.54803 0.58132 0.50928 0.0
C367 C 0.5483 0.54656 0.49228 0.0
C368 C 0.57081 0.53939 0.46759 0.0
H369 H 0.43073 0.35126 0.49366 0.0
H370 H 0.46822 0.39914 0.47924 0.0
C371 C 0.59226 0.56689 0.45942 0.0
C372 C 0.52381 0.51888 0.49869 0.0
H373 H 0.51018 0.42905 0.52526 0.0
C374 C 0.4938 0.52954 0.49177 0.0
C375 C 0.5298 0.48225 0.51103 0.0
C376 C 0.56143 0.46966 0.52014 0.0
C377 C 0.46965 0.5044 0.49638 0.0
C378 C 0.47563 0.46778 0.50876 0.0
C379 C 0.50565 0.4571 0.51563 0.0
C380 C 0.45111 0.44023 0.51539 0.0
C381 C 0.43802 0.51699 0.48727 0.0
C382 C 0.42873 0.44762 0.54017 0.0
C383 C 0.40713 0.42036 0.54843 0.0
C384 C 0.40762 0.38496 0.53226 0.0
C385 C 0.42956 0.37814 0.50666 0.0
C386 C 0.45113 0.40544 0.49843 0.0
H387 H 0.43824 0.54155 0.46958 0.0
H388 H 0.42504 0.49394 0.47493 0.0
H389 H 0.42599 0.52539 0.51118 0.0
H390 H 0.42858 0.47404 0.55401 0.0
H391 H 0.39073 0.42661 0.56839 0.0
H392 H 0.39114 0.56117 0.06793 0.0
H393 H 0.42944 0.51354 0.05546 0.0
H394 H 0.47049 0.58707 0.98055 0.0
H395 H 0.43255 0.6351 0.99297 0.0
H396 H 0.44681 0.47744 0.99342 0.0
H397 H 0.54014 0.56349 0.04786 0.0
H398 H 0.50074 0.57438 0.05512 0.0
H399 H 0.51836 0.58632 0.0148 0.0
C400 C 0.40808 0.56717 0.04851 0.0
C401 C 0.40888 0.60225 0.03175 0.0
C402 C 0.43 0.53988 0.04148 0.0
C403 C 0.45318 0.54714 0.01768 0.0
C404 C 0.45319 0.58127 0.99961 0.0
H405 H 0.60997 0.42454 0.94524 0.0
H406 H 0.57158 0.47173 0.95859 0.0
C407 C 0.4313 0.60859 0.0066 0.0
C408 C 0.47772 0.51932 0.01233 0.0
H409 H 0.55408 0.50669 0.02031 0.0
C410 C 0.47025 0.48373 0.99941 0.0
C411 C 0.50827 0.52765 0.02024 0.0
C412 C 0.51744 0.5649 0.03557 0.0
C413 C 0.49262 0.45645 0.99348 0.0
C414 C 0.52319 0.4648 1.00136 0.0
C415 C 0.53064 0.50037 0.01435 0.0
C416 C 0.5478 0.43716 0.99561 0.0
C417 C 0.48344 0.41928 0.97801 0.0
C418 C 0.54784 0.4026 0.01299 0.0
C419 C 0.56977 0.37549 0.00546 0.0
C420 C 0.59222 0.38251 0.98048 0.0
C421 C 0.59301 0.41802 0.9645 0.0
C422 C 0.57103 0.44506 0.97204 0.0
H423 H 0.46076 0.42077 0.96568 0.0
H424 H 0.50015 0.40986 0.95844 0.0
H425 H 0.48247 0.39777 0.9987 0.0
H426 H 0.53053 0.3963 0.0319 0.0
H427 H 0.56854 0.34864 0.01849 0.0
H428 H 0.93401 0.13704 0.5144 0.0
H429 H 0.97217 0.08899 0.52599 0.0
H430 H 0.92685 0.01321 0.45638 0.0
H431 H 0.8887 0.06112 0.44423 0.0
H432 H 0.96811 0.0145 0.55056 0.0
H433 H 0.01314 0.02001 0.41682 0.0
H434 H 0.98791 0.05531 0.43385 0.0
H435 H 0.97326 0.01077 0.41989 0.0
C436 C 0.93187 0.11003 0.50181 0.0
C437 C 0.90838 0.1032 0.47805 0.0
C438 C 0.95378 0.08261 0.50844 0.0
C439 C 0.95272 0.0479 0.49142 0.0
C440 C 0.92847 0.04017 0.46916 0.0
H441 H 0.06846 0.85125 0.49057 0.0
H442 H 0.0301 0.89897 0.47861 0.0
C443 C 0.90653 0.06755 0.46248 0.0
C444 C 0.97743 0.0202 0.49633 0.0
H445 H 0.03378 0.97357 0.45372 0.0
C446 C 0.98254 0.00561 0.52944 0.0
C447 C 0.99624 0.00874 0.46869 0.0
C448 C 0.99264 0.0247 0.43285 0.0
C449 C 0.00563 0.97933 0.53558 0.0
C450 C 0.02446 0.96791 0.50796 0.0
C451 C 0.01933 0.98245 0.47483 0.0
C452 C 0.04932 0.94044 0.51295 0.0
C453 C 0.00924 0.96337 0.57143 0.0
C454 C 0.07352 0.9485 0.53518 0.0
C455 C 0.09557 0.92133 0.54207 0.0
C456 C 0.09388 0.88554 0.52675 0.0
C457 C 0.07047 0.87837 0.50298 0.0
C458 C 0.04844 0.9056 0.49613 0.0
H459 H 0.98869 0.96795 0.58741 0.0
H460 H 0.01408 0.93279 0.57043 0.0
H461 H 0.02854 0.97742 0.58442 0.0
H462 H 0.07499 0.97556 0.54781 0.0
H463 H 0.11334 0.92802 0.56032 0.0
H464 H 0.2905 0.84515 0.03877 0.0
H465 H 0.29171 0.9132 0.03456 0.0
H466 H 0.38874 0.91235 0.04666 0.0
H467 H 0.38791 0.84345 0.05063 0.0
H468 H 0.35263 0.96277 0.09251 0.0
H469 H 0.32599 0.98078 0.95424 0.0
H470 H 0.30374 0.94428 0.97369 0.0
H471 H 0.34423 0.93917 0.97124 0.0
C472 C 0.31217 0.85924 0.0405 0.0
C473 C 0.33911 0.83891 0.04509 0.0
C474 C 0.31284 0.8981 0.0377 0.0
C475 C 0.34038 0.91749 0.03956 0.0
C476 C 0.36738 0.89761 0.0446 0.0
H477 H 0.27249 0.14761 0.02719 0.0
H478 H 0.31295 0.10121 0.01933 0.0
C479 C 0.3668 0.85841 0.04699 0.0
C480 C 0.3396 0.95874 0.03907 0.0
H481 H 0.30426 0.0276 0.99345 0.0
C482 C 0.34325 0.9776 0.0705 0.0
C483 C 0.32803 0.97813 0.01015 0.0
C484 C 0.32557 0.95961 0.9753 0.0
C485 C 0.33148 0.01377 0.075 0.0
C486 C 0.3156 0.03079 0.04747 0.0
C487 C 0.31599 0.01413 0.01471 0.0
C488 C 0.29308 0.06045 0.0539 0.0
C489 C 0.33372 0.03208 0.10996 0.0
C490 C 0.2683 0.05228 0.07522 0.0
C491 C 0.24506 0.07823 0.07937 0.0
C492 C 0.24615 0.11296 0.06225 0.0
C493 C 0.27104 0.12111 0.0408 0.0
C494 C 0.29424 0.09483 0.03641 0.0
H495 H 0.35473 0.02326 0.1235 0.0
H496 H 0.33341 0.06317 0.10782 0.0
H497 H 0.31419 0.02318 0.126 0.0
H498 H 0.26661 0.02537 0.08813 0.0
H499 H 0.22633 0.07107 0.09614 0.0
H500 H 0.11948 0.64374 0.51901 0.0
H501 H 0.11896 0.57487 0.51789 0.0
H502 H 0.1921 0.57266 0.59162 0.0
H503 H 0.19295 0.64102 0.59271 0.0
H504 H 0.17149 0.53567 0.49648 0.0
H505 H 0.1355 0.48844 0.62578 0.0
H506 H 0.12539 0.53392 0.6084 0.0
H507 H 0.16171 0.52679 0.62851 0.0
C508 C 0.13495 0.62849 0.53558 0.0
C509 C 0.15649 0.64766 0.5557 0.0
C510 C 0.13454 0.58925 0.53495 0.0
C511 C 0.15515 0.56883 0.55505 0.0
C512 C 0.17555 0.58796 0.57649 0.0
H513 H 0.28622 0.41901 0.55364 0.0
H514 H 0.24749 0.46678 0.54422 0.0
C515 C 0.17627 0.62702 0.57677 0.0
C516 C 0.15932 0.52816 0.54992 0.0
H517 H 0.17382 0.44946 0.59701 0.0
C518 C 0.17091 0.51625 0.51805 0.0
C519 C 0.15816 0.50281 0.5779 0.0
C520 C 0.14419 0.51357 0.61197 0.0
C521 C 0.18491 0.48116 0.51481 0.0
C522 C 0.18722 0.45784 0.54411 0.0
C523 C 0.17228 0.46776 0.57468 0.0
C524 C 0.20998 0.42775 0.54577 0.0
C525 C 0.19939 0.47057 0.48096 0.0
C526 C 0.20152 0.39012 0.54971 0.0
C527 C 0.22368 0.36263 0.55481 0.0
C528 C 0.25444 0.37273 0.55686 0.0
C529 C 0.26272 0.41045 0.55237 0.0
C530 C 0.24067 0.43768 0.54673 0.0
H531 H 0.18849 0.48538 0.45899 0.0
H532 H 0.22365 0.47866 0.48152 0.0
H533 H 0.19803 0.4398 0.47657 0.0
H534 H 0.17785 0.38218 0.54942 0.0
H535 H 0.21667 0.33376 0.55839 0.0
H536 H 0.78367 0.33309 0.95808 0.0
H537 H 0.82217 0.38196 0.96639 0.0
H538 H 0.75204 0.46613 0.9698 0.0
H539 H 0.71362 0.41789 0.96107 0.0
H540 H 0.82672 0.4462 0.91765 0.0
H541 H 0.81014 0.48981 0.05337 0.0
H542 H 0.80022 0.44356 0.03771 0.0
H543 H 0.77513 0.48263 0.03071 0.0
C544 C 0.77648 0.36197 0.96122 0.0
C545 C 0.74568 0.37181 0.95876 0.0
C546 C 0.79846 0.38971 0.96595 0.0
C547 C 0.78979 0.42737 0.96912 0.0
C548 C 0.75903 0.43703 0.96795 0.0
H549 H 0.8098 0.63859 0.91172 0.0
H550 H 0.80968 0.57036 0.91596 0.0
C551 C 0.73716 0.40952 0.96268 0.0
C552 C 0.81241 0.45767 0.96975 0.0
H553 H 0.82746 0.53812 0.01376 0.0
C554 C 0.82787 0.46578 0.93905 0.0
C555 C 0.81422 0.48269 0.99788 0.0
C556 C 0.79928 0.47409 0.03194 0.0
C557 C 0.84212 0.50054 0.93441 0.0
C558 C 0.84055 0.52749 0.96106 0.0
C559 C 0.82833 0.5175 0.99319 0.0
C560 C 0.8454 0.56774 0.95417 0.0
C561 C 0.8568 0.50917 0.90021 0.0
C562 C 0.86566 0.58879 0.97414 0.0
C563 C 0.86578 0.62794 0.97176 0.0
C564 C 0.84515 0.64648 0.94991 0.0
C565 C 0.8258 0.62513 0.92894 0.0
C566 C 0.82597 0.58611 0.93103 0.0
H567 H 0.86566 0.48321 0.88793 0.0
H568 H 0.83966 0.52149 0.88257 0.0
H569 H 0.87561 0.52959 0.90322 0.0
H570 H 0.88051 0.57504 0.99246 0.0
H571 H 0.88091 0.6437 0.9883 0.0
H572 H 0.7749 0.07369 0.41503 0.0
H573 H 0.73451 0.0277 0.41973 0.0
H574 H 0.68659 0.09956 0.49065 0.0
H575 H 0.72714 0.14646 0.48603 0.0
H576 H 0.69539 0.02028 0.51087 0.0
H577 H 0.64615 0.03545 0.38062 0.0
H578 H 0.68678 0.03531 0.37972 0.0
H579 H 0.66712 0.07261 0.40165 0.0
C580 C 0.75588 0.0799 0.43171 0.0
C581 C 0.75426 0.11381 0.45013 0.0
C582 C 0.73264 0.05374 0.43405 0.0
C583 C 0.70735 0.0608 0.45486 0.0
C584 C 0.70578 0.09409 0.474 0.0
H585 H 0.61518 0.84389 0.48272 0.0
H586 H 0.61473 0.91271 0.48543 0.0
C587 C 0.729 0.12064 0.47143 0.0
C588 C 0.68406 0.03147 0.45788 0.0
H589 H 0.64501 0.97221 0.40535 0.0
C590 C 0.68318 0.01036 0.48836 0.0
C591 C 0.66797 0.01911 0.42854 0.0
C592 C 0.66676 0.04207 0.39588 0.0
C593 C 0.67005 0.97454 0.48875 0.0
C594 C 0.65745 0.96014 0.45794 0.0
C595 C 0.65493 0.98331 0.42884 0.0
C596 C 0.65416 0.91938 0.45298 0.0
C597 C 0.67279 0.95073 0.52081 0.0
C598 C 0.67594 0.90076 0.43303 0.0
C599 C 0.6764 0.86177 0.4315 0.0
C600 C 0.65495 0.84062 0.44984 0.0
C601 C 0.6321 0.85943 0.46842 0.0
C602 C 0.63178 0.89865 0.47006 0.0
H603 H 0.68359 0.96613 0.54249 0.0
H604 H 0.65 0.94137 0.52918 0.0
H605 H 0.68643 0.92526 0.51517 0.0
H606 H 0.69344 0.91643 0.41972 0.0
H607 H 0.69407 0.84822 0.41665 0.0
H608 H 0.61646 0.14132 0.98346 0.0
H609 H 0.61554 0.07239 0.98398 0.0
H610 H 0.69703 0.07025 0.9228 0.0
H611 H 0.69825 0.13858 0.92208 0.0
H612 H 0.64596 0.01642 0.90384 0.0
H613 H 0.68388 0.0143 0.04124 0.0
H614 H 0.65178 0.04213 0.02803 0.0
H615 H 0.68919 0.05601 0.01548 0.0
C616 C 0.63393 0.12612 0.96971 0.0
C617 C 0.65766 0.14535 0.95305 0.0
C618 C 0.63333 0.08685 0.97009 0.0
C619 C 0.65627 0.06654 0.95355 0.0
C620 C 0.67911 0.08564 0.93564 0.0
H621 H 0.77349 0.91064 0.90759 0.0
H622 H 0.73327 0.95667 0.91343 0.0
C623 C 0.67987 0.12467 0.93545 0.0
C624 C 0.65876 0.02549 0.95679 0.0
H625 H 0.69572 0.9618 0.00707 0.0
C626 C 0.65573 0.00388 0.92679 0.0
C627 C 0.67112 0.00923 0.98694 0.0
C628 C 0.67426 0.03139 0.0199 0.0
C629 C 0.66801 0.9677 0.92501 0.0
C630 C 0.68405 0.95346 0.95371 0.0
C631 C 0.68362 0.97311 0.98503 0.0
C632 C 0.70687 0.92367 0.94938 0.0
C633 C 0.66603 0.94632 0.89152 0.0
C634 C 0.70573 0.89034 0.96856 0.0
C635 C 0.72891 0.86376 0.96538 0.0
C636 C 0.75374 0.87062 0.94344 0.0
C637 C 0.75482 0.9044 0.92476 0.0
C638 C 0.73163 0.93058 0.92772 0.0
H639 H 0.64505 0.95371 0.87723 0.0
H640 H 0.68562 0.9539 0.875 0.0
H641 H 0.66649 0.91552 0.89602 0.0
H642 H 0.68699 0.88495 0.98589 0.0
H643 H 0.72747 0.83803 0.98018 0.0
H644 H 0.77077 0.64823 0.48107 0.0
H645 H 0.81102 0.60116 0.48755 0.0
H646 H 0.76455 0.52859 0.41599 0.0
H647 H 0.7245 0.57481 0.4094 0.0
H648 H 0.8018 0.52399 0.50944 0.0
H649 H 0.85317 0.53196 0.37988 0.0
H650 H 0.8318 0.57023 0.39858 0.0
H651 H 0.8126 0.5319 0.37762 0.0
C652 C 0.76922 0.62226 0.46664 0.0
C653 C 0.74441 0.61524 0.44471 0.0
C654 C 0.79227 0.5956 0.47028 0.0
C655 C 0.79101 0.56199 0.45157 0.0
C656 C 0.76624 0.55487 0.42995 0.0
H657 H 0.80116 0.34719 0.42423 0.0
H658 H 0.80177 0.41549 0.4254 0.0
C659 C 0.74317 0.58116 0.42655 0.0
C660 C 0.81385 0.53228 0.45619 0.0
H661 H 0.85269 0.46958 0.4069 0.0
C662 C 0.81413 0.51272 0.48756 0.0
C663 C 0.83016 0.51812 0.42768 0.0
C664 C 0.8322 0.53943 0.39414 0.0
C665 C 0.82684 0.47673 0.4897 0.0
C666 C 0.83954 0.46052 0.45974 0.0
C667 C 0.84267 0.48209 0.42972 0.0
C668 C 0.84226 0.4195 0.4566 0.0
C669 C 0.82357 0.4546 0.52269 0.0
C670 C 0.86521 0.39936 0.47333 0.0
C671 C 0.86496 0.36009 0.47271 0.0
C672 C 0.84157 0.34068 0.4556 0.0
C673 C 0.81929 0.36122 0.43793 0.0
C674 C 0.81971 0.40024 0.43838 0.0
H675 H 0.81374 0.47168 0.54389 0.0
H676 H 0.80875 0.4299 0.51818 0.0
H677 H 0.84603 0.44401 0.53104 0.0
H678 H 0.88279 0.41395 0.48746 0.0
H679 H 0.88247 0.345 0.48651 0.0
H680 H 0.11428 0.34156 0.02915 0.0
H681 H 0.11313 0.41045 0.02785 0.0
H682 H 0.19521 0.41366 0.08806 0.0
H683 H 0.19657 0.34543 0.08967 0.0
H684 H 0.14656 0.46814 0.10698 0.0
H685 H 0.17895 0.46654 0.96771 0.0
H686 H 0.1464 0.44071 0.98262 0.0
H687 H 0.1837 0.42495 0.99376 0.0
C688 C 0.13182 0.35701 0.04253 0.0
C689 C 0.15578 0.3381 0.05912 0.0
C690 C 0.13109 0.39625 0.04172 0.0
C691 C 0.15416 0.41685 0.0577 0.0
C692 C 0.17717 0.39807 0.07566 0.0
H693 H 0.27606 0.57026 0.09368 0.0
H694 H 0.23548 0.52428 0.09007 0.0
C695 C 0.17803 0.35908 0.07633 0.0
C696 C 0.15683 0.45775 0.05351 0.0
H697 H 0.1928 0.51935 1.00025 0.0
C698 C 0.15553 0.47998 0.0833 0.0
C699 C 0.16817 0.47308 0.02245 0.0
C700 C 0.16948 0.45029 0.98967 0.0
C701 C 0.16873 0.51566 0.08388 0.0
C702 C 0.18375 0.52882 0.05409 0.0
C703 C 0.18149 0.50877 0.02311 0.0
C704 C 0.20717 0.55802 0.05662 0.0
C705 C 0.16889 0.53759 0.11714 0.0
C706 C 0.20498 0.5916 0.038 0.0
C707 C 0.22828 0.61805 0.03991 0.0
C708 C 0.25422 0.61088 0.06004 0.0
C709 C 0.25648 0.5767 0.07791 0.0
C710 C 0.23315 0.55057 0.07622 0.0
H711 H 0.14879 0.5307 0.13316 0.0
H712 H 0.18941 0.53011 0.13218 0.0
H713 H 0.16926 0.5683 0.11215 0.0
H714 H 0.18525 0.59737 0.02225 0.0
H715 H 0.22593 0.6441 0.02573 0.0
H716 H 0.21609 0.91757 0.54051 0.0
H717 H 0.25488 0.96545 0.53233 0.0
H718 H 0.32471 0.88182 0.5445 0.0
H719 H 0.28581 0.83329 0.55224 0.0
H720 H 0.3264 0.94687 0.5912 0.0
H721 H 0.31774 0.98806 0.45397 0.0
H722 H 0.28137 0.98137 0.47372 0.0
H723 H 0.30678 0.94212 0.46955 0.0
C724 C 0.23968 0.90922 0.54082 0.0
C725 C 0.24798 0.87182 0.54717 0.0
C726 C 0.26178 0.93649 0.53584 0.0
C727 C 0.29255 0.92693 0.5374 0.0
C728 C 0.30103 0.88948 0.54277 0.0
H729 H 0.38266 0.14464 0.52403 0.0
H730 H 0.38308 0.07597 0.52006 0.0
C731 C 0.27882 0.86193 0.54719 0.0
C732 C 0.31506 0.95737 0.53796 0.0
H733 H 0.33158 0.03765 0.4943 0.0
C734 C 0.32859 0.96618 0.56968 0.0
C735 C 0.31824 0.98209 0.50974 0.0
C736 C 0.3055 0.97276 0.47469 0.0
C737 C 0.34199 0.00133 0.57504 0.0
C738 C 0.34159 0.02794 0.54803 0.0
C739 C 0.33151 0.01729 0.51513 0.0
C740 C 0.34536 0.06835 0.55489 0.0
C741 C 0.3544 0.01075 0.61022 0.0
C742 C 0.32412 0.08655 0.57597 0.0
C743 C 0.32349 0.12557 0.57791 0.0
C744 C 0.34419 0.1471 0.55886 0.0
C745 C 0.36646 0.12876 0.53908 0.0
C746 C 0.36681 0.0896 0.53681 0.0
H747 H 0.36269 0.98514 0.62361 0.0
H748 H 0.37317 0.03139 0.60843 0.0
H749 H 0.33609 0.02314 0.62619 0.0
H750 H 0.30695 0.07061 0.58954 0.0
H751 H 0.3062 0.13889 0.5935 0.0
H752 H 0.14014 0.22488 0.92735 0.0
H753 H 0.15572 0.22837 0.86662 0.0
H754 H 0.24929 0.22034 0.89732 0.0
H755 H 0.23415 0.21659 0.9576 0.0
H756 H 0.19355 0.28349 0.83691 0.0
H757 H 0.24259 0.14143 0.8206 0.0
H758 H 0.21755 0.15327 0.8558 0.0
H759 H 0.25697 0.16573 0.85772 0.0
C760 C 0.16401 0.22339 0.92114 0.0
C761 C 0.18585 0.22047 0.94747 0.0
C762 C 0.17287 0.22546 0.88644 0.0
C763 C 0.20365 0.22411 0.87743 0.0
C764 C 0.2254 0.22072 0.90359 0.0
H765 H 0.30227 0.31038 0.70411 0.0
H766 H 0.27817 0.29717 0.75945 0.0
C767 C 0.21664 0.21886 0.93815 0.0
C768 C 0.21347 0.22848 0.84099 0.0
H769 H 0.25644 0.18734 0.7782 0.0
C770 C 0.20697 0.26228 0.82389 0.0
C771 C 0.23074 0.20066 0.8239 0.0
C772 C 0.23715 0.16307 0.84029 0.0
C773 C 0.21836 0.26963 0.79072 0.0
C774 C 0.23705 0.24266 0.77441 0.0
C775 C 0.24243 0.20819 0.79089 0.0
C776 C 0.25189 0.25017 0.74072 0.0
C777 C 0.2104 0.30633 0.77349 0.0
C778 C 0.24585 0.2274 0.71199 0.0
C779 C 0.25973 0.23475 0.6802 0.0
C780 C 0.28014 0.26488 0.6766 0.0
C781 C 0.28657 0.2871 0.70574 0.0
C782 C 0.27265 0.27975 0.73743 0.0
H783 H 0.1896 0.3189 0.78471 0.0
H784 H 0.22924 0.32652 0.77727 0.0
H785 H 0.20697 0.30249 0.74532 0.0
H786 H 0.23009 0.20422 0.71405 0.0
H787 H 0.25428 0.21694 0.65843 0.0
H788 H 0.24436 0.27006 0.15829 0.0
H789 H 0.26889 0.2831 0.21371 0.0
H790 H 0.22092 0.19056 0.25998 0.0
H791 H 0.19641 0.17714 0.20495 0.0
H792 H 0.24203 0.2995 0.27909 0.0
H793 H 0.31075 0.16923 0.28302 0.0
H794 H 0.29325 0.18637 0.24394 0.0
H795 H 0.27118 0.16125 0.27533 0.0
C796 C 0.23898 0.25246 0.18023 0.0
C797 C 0.21849 0.22237 0.17698 0.0
C798 C 0.25305 0.25998 0.21189 0.0
C799 C 0.24713 0.23738 0.24077 0.0
C800 C 0.22627 0.20788 0.23783 0.0
H801 H 0.26509 0.26649 0.45766 0.0
H802 H 0.25002 0.26371 0.39731 0.0
C803 C 0.21212 0.20042 0.20632 0.0
C804 C 0.2623 0.24478 0.27426 0.0
H805 H 0.30679 0.20368 0.33571 0.0
C806 C 0.25647 0.27876 0.29133 0.0
C807 C 0.28152 0.21794 0.28993 0.0
C808 C 0.28984 0.18178 0.27201 0.0
C809 C 0.2682 0.28584 0.3244 0.0
C810 C 0.28598 0.25806 0.3409 0.0
C811 C 0.29298 0.22484 0.32314 0.0
C812 C 0.29572 0.26175 0.37741 0.0
C813 C 0.26121 0.32286 0.34155 0.0
C814 C 0.32652 0.26099 0.38641 0.0
C815 C 0.33534 0.26249 0.42115 0.0
C816 C 0.31346 0.26423 0.44751 0.0
C817 C 0.28264 0.26514 0.43819 0.0
C818 C 0.27392 0.26385 0.4036 0.0
H819 H 0.25538 0.34482 0.32229 0.0
H820 H 0.24147 0.31928 0.35894 0.0
H821 H 0.28067 0.33277 0.35722 0.0
H822 H 0.34371 0.25906 0.36656 0.0
H823 H 0.35924 0.26159 0.42734 0.0
H824 H 0.74469 0.26064 0.35874 0.0
H825 H 0.71931 0.27159 0.30337 0.0
H826 H 0.78672 0.20433 0.25191 0.0
H827 H 0.81195 0.19281 0.30683 0.0
H828 H 0.73994 0.30318 0.24126 0.0
H829 H 0.70756 0.1543 0.22286 0.0
H830 H 0.72059 0.17235 0.26378 0.0
H831 H 0.74732 0.16015 0.23058 0.0
C832 C 0.7542 0.2483 0.33563 0.0
C833 C 0.7802 0.22546 0.33738 0.0
C834 C 0.73963 0.25456 0.30402 0.0
C835 C 0.75073 0.23804 0.27368 0.0
C836 C 0.77729 0.21652 0.27516 0.0
H837 H 0.73283 0.24783 0.05773 0.0
H838 H 0.74645 0.24475 0.11854 0.0
C839 C 0.79179 0.21014 0.30663 0.0
C840 C 0.73474 0.24306 0.2403 0.0
H841 H 0.70479 0.19382 0.1728 0.0
C842 C 0.73177 0.27936 0.22653 0.0
C843 C 0.72383 0.21196 0.22125 0.0
C844 C 0.72468 0.17253 0.23551 0.0
C845 C 0.71968 0.28509 0.19337 0.0
C846 C 0.71034 0.25379 0.17374 0.0
C847 C 0.71209 0.21772 0.18802 0.0
C848 C 0.70152 0.25749 0.13712 0.0
C849 C 0.71803 0.32426 0.17877 0.0
C850 C 0.67162 0.26571 0.12753 0.0
C851 C 0.66356 0.26741 0.09255 0.0
C852 C 0.68536 0.2609 0.0667 0.0
C853 C 0.71537 0.25306 0.07674 0.0
C854 C 0.72329 0.25128 0.11153 0.0
H855 H 0.72535 0.34585 0.19769 0.0
H856 H 0.73266 0.32621 0.15554 0.0
H857 H 0.69448 0.33049 0.17053 0.0
H858 H 0.65452 0.27044 0.14708 0.0
H859 H 0.6403 0.27357 0.0858 0.0
H860 H 0.76646 0.21955 0.55714 0.0
H861 H 0.75208 0.2235 0.61764 0.0
H862 H 0.84615 0.22715 0.64705 0.0
H863 H 0.86098 0.22358 0.5861 0.0
H864 H 0.76648 0.17683 0.67428 0.0
H865 H 0.8092 0.32271 0.69099 0.0
H866 H 0.80401 0.30169 0.64904 0.0
H867 H 0.83594 0.28878 0.67513 0.0
C868 C 0.78424 0.2211 0.57634 0.0
C869 C 0.81495 0.22162 0.56659 0.0
C870 C 0.77591 0.22322 0.611 0.0
C871 C 0.798 0.22609 0.63681 0.0
C872 C 0.82872 0.2255 0.62745 0.0
H873 H 0.74872 0.217 0.85686 0.0
H874 H 0.77262 0.20381 0.80118 0.0
C875 C 0.83715 0.22326 0.59262 0.0
C876 C 0.7884 0.23077 0.67325 0.0
H877 H 0.7856 0.29466 0.7389 0.0
C878 C 0.77092 0.2024 0.68861 0.0
C879 C 0.79392 0.26438 0.69165 0.0
C880 C 0.81159 0.29634 0.67592 0.0
C881 C 0.75838 0.20698 0.72167 0.0
C882 C 0.76376 0.24068 0.73997 0.0
C883 C 0.78167 0.26878 0.72485 0.0
C884 C 0.74946 0.24836 0.77389 0.0
C885 C 0.73849 0.17638 0.73618 0.0
C886 C 0.72883 0.2781 0.77714 0.0
C887 C 0.71518 0.2858 0.80888 0.0
C888 C 0.72199 0.26403 0.83821 0.0
C889 C 0.7428 0.23427 0.83486 0.0
C890 C 0.75643 0.22657 0.80301 0.0
H891 H 0.73174 0.1557 0.71615 0.0
H892 H 0.751 0.16118 0.75672 0.0
H893 H 0.71772 0.18849 0.74787 0.0
H894 H 0.72315 0.29528 0.75499 0.0
H895 H 0.69935 0.30897 0.81037 0.0
H896 H 0.85574 0.78138 0.08131 0.0
H897 H 0.83954 0.77698 0.1419 0.0
H898 H 0.75217 0.73672 0.10925 0.0
H899 H 0.76773 0.7411 0.04918 0.0
H900 H 0.77888 0.81161 0.17287 0.0
H901 H 0.79198 0.65647 0.17986 0.0
H902 H 0.81311 0.68511 0.14982 0.0
H903 H 0.77397 0.67491 0.14177 0.0
C904 C 0.83306 0.7717 0.08703 0.0
C905 C 0.81312 0.76151 0.06025 0.0
C906 C 0.82386 0.76929 0.12161 0.0
C907 C 0.79476 0.75631 0.12988 0.0
C908 C 0.77478 0.7466 0.10332 0.0
H909 H 0.6835 0.69256 0.30024 0.0
H910 H 0.70764 0.70516 0.24481 0.0
C911 C 0.78379 0.74922 0.06894 0.0
C912 C 0.78488 0.75214 0.16614 0.0
H913 H 0.76508 0.68569 0.22538 0.0
C914 C 0.77624 0.7842 0.1847 0.0
C915 C 0.78129 0.71629 0.18116 0.0
C916 C 0.79073 0.68112 0.16234 0.0
C917 C 0.7629 0.78119 0.21754 0.0
C918 C 0.75869 0.74518 0.23231 0.0
C919 C 0.76821 0.71325 0.21401 0.0
C920 C 0.74341 0.73962 0.26605 0.0
C921 C 0.75222 0.8164 0.23543 0.0
C922 C 0.7554 0.75494 0.29649 0.0
C923 C 0.74151 0.74797 0.32832 0.0
C924 C 0.71554 0.72516 0.33038 0.0
C925 C 0.70348 0.71017 0.29973 0.0
C926 C 0.71728 0.71731 0.26797 0.0
H927 H 0.75035 0.84043 0.21727 0.0
H928 H 0.72987 0.8119 0.24785 0.0
H929 H 0.76871 0.82413 0.25582 0.0
H930 H 0.77589 0.77159 0.29575 0.0
H931 H 0.75157 0.75977 0.35138 0.0
H932 H 0.74676 0.72885 0.85162 0.0
H933 H 0.72346 0.71476 0.79577 0.0
H934 H 0.79454 0.77546 0.74399 0.0
H935 H 0.81802 0.78988 0.79957 0.0
H936 H 0.7047 0.77157 0.7438 0.0
H937 H 0.79006 0.66981 0.69554 0.0
H938 H 0.78566 0.68062 0.74082 0.0
H939 H 0.80512 0.71276 0.71285 0.0
C940 C 0.75763 0.73898 0.82837 0.0
C941 C 0.78434 0.76049 0.83015 0.0
C942 C 0.74419 0.73097 0.7965 0.0
C943 C 0.75742 0.74382 0.76583 0.0
C944 C 0.78418 0.76494 0.76741 0.0
H945 H 0.73067 0.74726 0.54924 0.0
H946 H 0.74707 0.74942 0.60898 0.0
C947 C 0.7975 0.77326 0.79923 0.0
C948 C 0.74286 0.73629 0.73208 0.0
H949 H 0.75445 0.69283 0.65479 0.0
C950 C 0.7153 0.75401 0.72439 0.0
C951 C 0.7568 0.71333 0.70699 0.0
C952 C 0.78593 0.69272 0.7144 0.0
C953 C 0.70202 0.75087 0.69153 0.0
C954 C 0.71639 0.72866 0.66604 0.0
C955 C 0.74343 0.70987 0.67429 0.0
C956 C 0.7054 0.72705 0.62982 0.0
C957 C 0.67357 0.77283 0.6839 0.0
C958 C 0.6764 0.71358 0.62145 0.0
C959 C 0.66669 0.71255 0.58697 0.0
C960 C 0.68601 0.72455 0.56027 0.0
C961 C 0.71512 0.73763 0.56894 0.0
C962 C 0.72463 0.73889 0.60321 0.0
H963 H 0.66923 0.79481 0.70363 0.0
H964 H 0.67497 0.78648 0.65819 0.0
H965 H 0.65394 0.75342 0.68371 0.0
H966 H 0.66137 0.70358 0.64151 0.0
H967 H 0.64424 0.70208 0.58123 0.0
H968 H 0.23305 0.70841 0.65763 0.0
H969 H 0.25404 0.6941 0.71467 0.0
H970 H 0.23879 0.8087 0.74619 0.0
H971 H 0.21676 0.82277 0.68993 0.0
H972 H 0.30133 0.71951 0.75008 0.0
H973 H 0.19722 0.75418 0.82257 0.0
H974 H 0.19773 0.75068 0.77618 0.0
H975 H 0.20995 0.79317 0.79722 0.0
C976 C 0.2341 0.73052 0.67677 0.0
C977 C 0.22286 0.76661 0.66936 0.0
C978 C 0.24614 0.72232 0.70936 0.0
C979 C 0.24739 0.75008 0.73508 0.0
C980 C 0.23719 0.78646 0.72725 0.0
H981 H 0.35501 0.74625 0.92373 0.0
H982 H 0.33805 0.75145 0.86372 0.0
C983 C 0.22473 0.79452 0.69494 0.0
C984 C 0.25931 0.74115 0.77007 0.0
H985 H 0.24237 0.74776 0.85575 0.0
C986 C 0.28836 0.72539 0.7732 0.0
C987 C 0.24221 0.74812 0.80029 0.0
C988 C 0.20994 0.76207 0.79893 0.0
C989 C 0.30099 0.71721 0.80569 0.0
C990 C 0.28449 0.72609 0.83595 0.0
C991 C 0.25524 0.74122 0.83269 0.0
C992 C 0.29667 0.71987 0.87137 0.0
C993 C 0.33159 0.69845 0.80712 0.0
C994 C 0.27908 0.7007 0.89589 0.0
C995 C 0.28837 0.69858 0.93027 0.0
C996 C 0.31571 0.71509 0.94091 0.0
C997 C 0.33404 0.73283 0.91617 0.0
C998 C 0.3244 0.73564 0.88179 0.0
H999 H 0.33639 0.68264 0.78302 0.0
H1000 H 0.34936 0.72023 0.80996 0.0
H1001 H 0.33323 0.67881 0.82929 0.0
H1002 H 0.25766 0.6882 0.88861 0.0
H1003 H 0.27382 0.68458 0.94874 0.0
H1004 H 0.14245 0.77981 0.42194 0.0
H1005 H 0.15658 0.77648 0.36066 0.0
H1006 H 0.24606 0.73952 0.38899 0.0
H1007 H 0.23253 0.74286 0.44982 0.0
H1008 H 0.21743 0.81354 0.32762 0.0
H1009 H 0.20291 0.65864 0.31911 0.0
H1010 H 0.18214 0.68714 0.3496 0.0
H1011 H 0.22132 0.67674 0.35709 0.0
C1012 C 0.16516 0.77106 0.41514 0.0
C1013 C 0.18629 0.76152 0.44094 0.0
C1014 C 0.17318 0.7693 0.38015 0.0
C1015 C 0.20231 0.75766 0.37047 0.0
C1016 C 0.22345 0.7485 0.39603 0.0
H1017 H 0.31111 0.69507 0.19991 0.0
H1018 H 0.28656 0.70812 0.25484 0.0
C1019 C 0.2156 0.75046 0.43085 0.0
C1020 C 0.21095 0.75407 0.33373 0.0
H1021 H 0.22852 0.68834 0.27297 0.0
C1022 C 0.21943 0.78631 0.31531 0.0
C1023 C 0.21364 0.71847 0.31805 0.0
C1024 C 0.20438 0.68315 0.33676 0.0
C1025 C 0.2319 0.78364 0.28198 0.0
C1026 C 0.23545 0.74782 0.26665 0.0
C1027 C 0.22587 0.71577 0.28474 0.0
C1028 C 0.25094 0.74239 0.23298 0.0
C1029 C 0.24253 0.81892 0.26417 0.0
C1030 C 0.23926 0.75765 0.2023 0.0
C1031 C 0.25343 0.75038 0.17061 0.0
C1032 C 0.27934 0.72738 0.16904 0.0
C1033 C 0.29114 0.71272 0.19998 0.0
C1034 C 0.2771 0.72013 0.2315 0.0
H1035 H 0.24404 0.84304 0.28226 0.0
H1036 H 0.26505 0.81451 0.25212 0.0
H1037 H 0.22628 0.8264 0.24345 0.0
H1038 H 0.2188 0.77439 0.20273 0.0
H1039 H 0.24362 0.76193 0.1473 0.0
loop_
_geom_bond_atom_site_label_1
_geom_bond_atom_site_label_2
_geom_bond_distance
_geom_bond_site_symmetry_2
_ccdc_geom_bond_type
Sc0 O3 2.025 . S
Sc0 O10 2.105 . S
Sc0 O13 2.105 . S
Sc0 O16 2.105 . S
Sc0 O19 2.105 . S
Sc1 O3 2.025 . S
Sc1 O11 2.105 . S
Sc1 O15 2.105 . S
Sc1 O17 2.105 . S
Sc1 O21 2.105 . S
Sc2 O3 2.025 . S
Sc2 O12 2.105 . S
Sc2 O14 2.105 . S
Sc2 O18 2.105 . S
Sc2 O20 2.105 . S
O3 Sc0 2.025 . S
O3 Sc1 2.025 . S
O3 Sc2 2.025 . S
C4 O10 1.268 . S
C4 O20 1.268 . S
C5 O11 1.268 . S
C5 O19 1.268 . S
C6 O12 1.268 . S
C6 O21 1.268 . S
C7 O13 1.268 . S
C7 O17 1.268 . S
C8 O14 1.268 . S
C8 O16 1.268 . S
C9 O15 1.268 . S
C9 O18 1.268 . S
O10 Sc0 2.105 . S
O10 C4 1.268 . S
O11 Sc1 2.105 . S
O11 C5 1.268 . S
O12 Sc2 2.105 . S
O12 C6 1.268 . S
O13 Sc0 2.105 . S
O13 C7 1.268 . S
O14 Sc2 2.105 . S
O14 C8 1.268 . S
O15 Sc1 2.105 . S
O15 C9 1.268 . S
O16 Sc0 2.105 . S
O16 C8 1.268 . S
O17 Sc1 2.105 . S
O17 C7 1.268 . S
O18 Sc2 2.105 . S
O18 C9 1.268 . S
O19 Sc0 2.105 . S
O19 C5 1.268 . S
O20 Sc2 2.105 . S
O20 C4 1.268 . S
O21 Sc1 2.105 . S
O21 C6 1.268 . S
Sc22 O25 2.025 . S
Sc22 O32 2.105 . S
Sc22 O35 2.105 . S
Sc22 O38 2.105 . S
Sc22 O41 2.105 . S
Sc23 O25 2.025 . S
Sc23 O33 2.105 . S
Sc23 O37 2.105 . S
Sc23 O39 2.105 . S
Sc23 O43 2.105 . S
Sc24 O25 2.025 . S
Sc24 O34 2.105 . S
Sc24 O36 2.105 . S
Sc24 O40 2.105 . S
Sc24 O42 2.105 . S
O25 Sc22 2.025 . S
O25 Sc23 2.025 . S
O25 Sc24 2.025 . S
C26 O32 1.268 . S
C26 O42 1.268 . S
C27 O33 1.268 . S
C27 O41 1.268 . S
C28 O34 1.268 . S
C28 O43 1.268 . S
C29 O35 1.268 . S
C29 O39 1.268 . S
C30 O36 1.268 . S
C30 O38 1.268 . S
C31 O37 1.268 . S
C31 O40 1.268 . S
O32 Sc22 2.105 . S
O32 C26 1.268 . S
O33 Sc23 2.105 . S
O33 C27 1.268 . S
O34 Sc24 2.105 . S
O34 C28 1.268 . S
O35 Sc22 2.105 . S
O35 C29 1.268 . S
O36 Sc24 2.105 . S
O36 C30 1.268 . S
O37 Sc23 2.105 . S
O37 C31 1.268 . S
O38 Sc22 2.105 . S
O38 C30 1.268 . S
O39 Sc23 2.105 . S
O39 C29 1.268 . S
O40 Sc24 2.105 . S
O40 C31 1.268 . S
O41 Sc22 2.105 . S
O41 C27 1.268 . S
O42 Sc24 2.105 . S
O42 C26 1.268 . S
O43 Sc23 2.105 . S
O43 C28 1.268 . S
Sc44 O47 2.025 . S
Sc44 O54 2.105 . S
Sc44 O57 2.105 . S
Sc44 O60 2.105 . S
Sc44 O63 2.105 . S
Sc45 O47 2.025 . S
Sc45 O55 2.105 . S
Sc45 O59 2.105 . S
Sc45 O61 2.105 . S
Sc45 O65 2.105 . S
Sc46 O47 2.025 . S
Sc46 O56 2.105 . S
Sc46 O58 2.105 . S
Sc46 O62 2.105 . S
Sc46 O64 2.105 . S
O47 Sc44 2.025 . S
O47 Sc45 2.025 . S
O47 Sc46 2.025 . S
C48 O54 1.268 . S
C48 O64 1.268 . S
C49 O55 1.268 . S
C49 O63 1.268 . S
C50 O56 1.268 . S
C50 O65 1.268 . S
C51 O57 1.268 . S
C51 O61 1.268 . S
C52 O58 1.268 . S
C52 O60 1.268 . S
C53 O59 1.268 . S
C53 O62 1.268 . S
O54 Sc44 2.105 . S
O54 C48 1.268 . S
O55 Sc45 2.105 . S
O55 C49 1.268 . S
O56 Sc46 2.105 . S
O56 C50 1.268 . S
O57 Sc44 2.105 . S
O57 C51 1.268 . S
O58 Sc46 2.105 . S
O58 C52 1.268 . S
O59 Sc45 2.105 . S
O59 C53 1.268 . S
O60 Sc44 2.105 . S
O60 C52 1.268 . S
O61 Sc45 2.105 . S
O61 C51 1.268 . S
O62 Sc46 2.105 . S
O62 C53 1.268 . S
O63 Sc44 2.105 . S
O63 C49 1.268 . S
O64 Sc46 2.105 . S
O64 C48 1.268 . S
O65 Sc45 2.105 . S
O65 C50 1.268 . S
Sc66 O69 2.025 . S
Sc66 O76 2.105 . S
Sc66 O79 2.105 . S
Sc66 O82 2.105 . S
Sc66 O85 2.105 . S
Sc67 O69 2.025 . S
Sc67 O77 2.105 . S
Sc67 O81 2.105 . S
Sc67 O83 2.105 . S
Sc67 O87 2.105 . S
Sc68 O69 2.025 . S
Sc68 O78 2.105 . S
Sc68 O80 2.105 . S
Sc68 O84 2.105 . S
Sc68 O86 2.105 . S
O69 Sc66 2.025 . S
O69 Sc67 2.025 . S
O69 Sc68 2.025 . S
C70 O76 1.268 . S
C70 O86 1.268 . S
C71 O77 1.268 . S
C71 O85 1.268 . S
C72 O78 1.268 . S
C72 O87 1.268 . S
C73 O79 1.268 . S
C73 O83 1.268 . S
C74 O80 1.268 . S
C74 O82 1.268 . S
C75 O81 1.268 . S
C75 O84 1.268 . S
O76 Sc66 2.105 . S
O76 C70 1.268 . S
O77 Sc67 2.105 . S
O77 C71 1.268 . S
O78 Sc68 2.105 . S
O78 C72 1.268 . S
O79 Sc66 2.105 . S
O79 C73 1.268 . S
O80 Sc68 2.105 . S
O80 C74 1.268 . S
O81 Sc67 2.105 . S
O81 C75 1.268 . S
O82 Sc66 2.105 . S
O82 C74 1.268 . S
O83 Sc67 2.105 . S
O83 C73 1.268 . S
O84 Sc68 2.105 . S
O84 C75 1.268 . S
O85 Sc66 2.105 . S
O85 C71 1.268 . S
O86 Sc68 2.105 . S
O86 C70 1.268 . S
O87 Sc67 2.105 . S
O87 C72 1.268 . S
Sc88 O91 2.025 . S
Sc88 O98 2.105 . S
Sc88 O101 2.105 . S
Sc88 O104 2.105 . S
Sc88 O107 2.105 . S
Sc89 O91 2.025 . S
Sc89 O99 2.105 . S
Sc89 O103 2.105 . S
Sc89 O105 2.105 . S
Sc89 O109 2.105 . S
Sc90 O91 2.025 . S
Sc90 O100 2.105 . S
Sc90 O102 2.105 . S
Sc90 O106 2.105 . S
Sc90 O108 2.105 . S
O91 Sc88 2.025 . S
O91 Sc89 2.025 . S
O91 Sc90 2.025 . S
C92 O98 1.268 . S
C92 O108 1.268 . S
C93 O99 1.268 . S
C93 O107 1.268 . S
C94 O100 1.268 . S
C94 O109 1.268 . S
C95 O101 1.268 . S
C95 O105 1.268 . S
C96 O102 1.268 . S
C96 O104 1.268 . S
C97 O103 1.268 . S
C97 O106 1.268 . S
O98 Sc88 2.105 . S
O98 C92 1.268 . S
O99 Sc89 2.105 . S
O99 C93 1.268 . S
O100 Sc90 2.105 . S
O100 C94 1.268 . S
O101 Sc88 2.105 . S
O101 C95 1.268 . S
O102 Sc90 2.105 . S
O102 C96 1.268 . S
O103 Sc89 2.105 . S
O103 C97 1.268 . S
O104 Sc88 2.105 . S
O104 C96 1.268 . S
O105 Sc89 2.105 . S
O105 C95 1.268 . S
O106 Sc90 2.105 . S
O106 C97 1.268 . S
O107 Sc88 2.105 . S
O107 C93 1.268 . S
O108 Sc90 2.105 . S
O108 C92 1.268 . S
O109 Sc89 2.105 . S
O109 C94 1.268 . S
Sc110 O113 2.025 . S
Sc110 O120 2.105 . S
Sc110 O123 2.105 . S
Sc110 O126 2.105 . S
Sc110 O129 2.105 . S
Sc111 O113 2.025 . S
Sc111 O121 2.105 . S
Sc111 O125 2.105 . S
Sc111 O127 2.105 . S
Sc111 O131 2.105 . S
Sc112 O113 2.025 . S
Sc112 O122 2.105 . S
Sc112 O124 2.105 . S
Sc112 O128 2.105 . S
Sc112 O130 2.105 . S
O113 Sc110 2.025 . S
O113 Sc111 2.025 . S
O113 Sc112 2.025 . S
C114 O120 1.268 . S
C114 O130 1.268 . S
C115 O121 1.268 . S
C115 O129 1.268 . S
C116 O122 1.268 . S
C116 O131 1.268 . S
C117 O123 1.268 . S
C117 O127 1.268 . S
C118 O124 1.268 . S
C118 O126 1.268 . S
C119 O125 1.268 . S
C119 O128 1.268 . S
O120 Sc110 2.105 . S
O120 C114 1.268 . S
O121 Sc111 2.105 . S
O121 C115 1.268 . S
O122 Sc112 2.105 . S
O122 C116 1.268 . S
O123 Sc110 2.105 . S
O123 C117 1.268 . S
O124 Sc112 2.105 . S
O124 C118 1.268 . S
O125 Sc111 2.105 . S
O125 C119 1.268 . S
O126 Sc110 2.105 . S
O126 C118 1.268 . S
O127 Sc111 2.105 . S
O127 C117 1.268 . S
O128 Sc112 2.105 . S
O128 C119 1.268 . S
O129 Sc110 2.105 . S
O129 C115 1.268 . S
O130 Sc112 2.105 . S
O130 C114 1.268 . S
O131 Sc111 2.105 . S
O131 C116 1.268 . S
Sc132 O135 2.025 . S
Sc132 O142 2.105 . S
Sc132 O145 2.105 . S
Sc132 O148 2.105 . S
Sc132 O151 2.105 . S
Sc133 O135 2.025 . S
Sc133 O143 2.105 . S
Sc133 O147 2.105 . S
Sc133 O149 2.105 . S
Sc133 O153 2.105 . S
Sc134 O135 2.025 . S
Sc134 O144 2.105 . S
Sc134 O146 2.105 . S
Sc134 O150 2.105 . S
Sc134 O152 2.105 . S
O135 Sc132 2.025 . S
O135 Sc133 2.025 . S
O135 Sc134 2.025 . S
C136 O142 1.268 . S
C136 O152 1.268 . S
C137 O143 1.268 . S
C137 O151 1.268 . S
C138 O144 1.268 . S
C138 O153 1.268 . S
C139 O145 1.268 . S
C139 O149 1.268 . S
C140 O146 1.268 . S
C140 O148 1.268 . S
C141 O147 1.268 . S
C141 O150 1.268 . S
O142 Sc132 2.105 . S
O142 C136 1.268 . S
O143 Sc133 2.105 . S
O143 C137 1.268 . S
O144 Sc134 2.105 . S
O144 C138 1.268 . S
O145 Sc132 2.105 . S
O145 C139 1.268 . S
O146 Sc134 2.105 . S
O146 C140 1.268 . S
O147 Sc133 2.105 . S
O147 C141 1.268 . S
O148 Sc132 2.105 . S
O148 C140 1.268 . S
O149 Sc133 2.105 . S
O149 C139 1.268 . S
O150 Sc134 2.105 . S
O150 C141 1.268 . S
O151 Sc132 2.105 . S
O151 C137 1.268 . S
O152 Sc134 2.105 . S
O152 C136 1.268 . S
O153 Sc133 2.105 . S
O153 C138 1.268 . S
Sc154 O157 2.025 . S
Sc154 O164 2.105 . S
Sc154 O167 2.105 . S
Sc154 O170 2.105 . S
Sc154 O173 2.105 . S
Sc155 O157 2.025 . S
Sc155 O165 2.105 . S
Sc155 O169 2.105 . S
Sc155 O171 2.105 . S
Sc155 O175 2.105 . S
Sc156 O157 2.025 . S
Sc156 O166 2.105 . S
Sc156 O168 2.105 . S
Sc156 O172 2.105 . S
Sc156 O174 2.105 . S
O157 Sc154 2.025 . S
O157 Sc155 2.025 . S
O157 Sc156 2.025 . S
C158 O164 1.268 . S
C158 O174 1.268 . S
C159 O165 1.268 . S
C159 O173 1.268 . S
C160 O166 1.268 . S
C160 O175 1.268 . S
C161 O167 1.268 . S
C161 O171 1.268 . S
C162 O168 1.268 . S
C162 O170 1.268 . S
C163 O169 1.268 . S
C163 O172 1.268 . S
O164 Sc154 2.105 . S
O164 C158 1.268 . S
O165 Sc155 2.105 . S
O165 C159 1.268 . S
O166 Sc156 2.105 . S
O166 C160 1.268 . S
O167 Sc154 2.105 . S
O167 C161 1.268 . S
O168 Sc156 2.105 . S
O168 C162 1.268 . S
O169 Sc155 2.105 . S
O169 C163 1.268 . S
O170 Sc154 2.105 . S
O170 C162 1.268 . S
O171 Sc155 2.105 . S
O171 C161 1.268 . S
O172 Sc156 2.105 . S
O172 C163 1.268 . S
O173 Sc154 2.105 . S
O173 C159 1.268 . S
O174 Sc156 2.105 . S
O174 C158 1.268 . S
O175 Sc155 2.105 . S
O175 C160 1.268 . S
H176 C184 0.929 . S
H177 C186 0.930 . S
H178 C188 0.930 . S
H179 C191 0.929 . S
H180 C194 0.930 . S
H181 C196 0.960 . S
H182 C196 0.960 . S
H183 C196 0.960 . S
C184 H176 0.929 . S
C184 C185 1.377 . S
C184 C186 1.384 . S
C185 C184 1.377 . S
C185 C191 1.390 . S
C186 H177 0.930 . S
C186 C184 1.384 . S
C186 C187 1.372 . S
C187 C186 1.372 . S
C187 C188 1.400 . S
C187 C192 1.490 . S
C188 H178 0.930 . S
C188 C187 1.400 . S
C188 C191 1.386 . S
H189 C205 0.930 . S
H190 C206 0.931 . S
C191 H179 0.929 . S
C191 C185 1.390 . S
C191 C188 1.386 . S
C192 C187 1.490 . S
C192 C194 1.395 1_455 S
C192 C195 1.403 . S
H193 C199 0.930 . S
C194 H180 0.930 . S
C194 C192 1.395 1_655 S
C194 C197 1.403 . S
C195 C192 1.403 . S
C195 C196 1.524 . S
C195 C199 1.400 . S
C196 H181 0.960 . S
C196 H182 0.960 . S
C196 H183 0.960 . S
C196 C195 1.524 . S
C197 C194 1.403 . S
C197 C198 1.392 . S
C197 C201 1.495 . S
C198 C197 1.392 . S
C198 C199 1.385 1_655 S
C198 C200 1.478 . S
C199 H193 0.930 . S
C199 C195 1.400 . S
C199 C198 1.385 1_455 S
C200 C198 1.478 . S
C200 C202 1.381 . S
C200 C206 1.383 . S
C201 C197 1.495 . S
C201 H207 0.959 . S
C201 H208 0.961 . S
C201 H209 0.960 . S
C202 C200 1.381 . S
C202 C203 1.394 . S
C202 H210 0.930 . S
C203 C202 1.394 . S
C203 C204 1.383 . S
C203 H211 0.929 . S
C204 C203 1.383 . S
C204 C205 1.377 . S
C205 H189 0.930 . S
C205 C204 1.377 . S
C205 C206 1.379 . S
C206 H190 0.931 . S
C206 C200 1.383 . S
C206 C205 1.379 . S
H207 C201 0.959 . S
H208 C201 0.961 . S
H209 C201 0.960 . S
H210 C202 0.930 . S
H211 C203 0.929 . S
H212 C220 0.929 . S
H213 C222 0.930 . S
H214 C224 0.930 . S
H215 C227 0.929 . S
H216 C230 0.930 . S
H217 C232 0.960 . S
H218 C232 0.960 . S
H219 C232 0.960 . S
C220 H212 0.929 . S
C220 C221 1.377 . S
C220 C222 1.384 . S
C221 C220 1.377 . S
C221 C227 1.390 . S
C222 H213 0.930 . S
C222 C220 1.384 . S
C222 C223 1.372 . S
C223 C222 1.372 . S
C223 C224 1.400 . S
C223 C228 1.490 . S
C224 H214 0.930 . S
C224 C223 1.400 . S
C224 C227 1.386 . S
H225 C241 0.930 . S
H226 C242 0.931 . S
C227 H215 0.929 . S
C227 C221 1.390 . S
C227 C224 1.386 . S
C228 C223 1.490 . S
C228 C230 1.395 . S
C228 C231 1.403 . S
H229 C235 0.930 . S
C230 H216 0.930 . S
C230 C228 1.395 . S
C230 C233 1.403 . S
C231 C228 1.403 . S
C231 C232 1.524 . S
C231 C235 1.400 . S
C232 H217 0.960 . S
C232 H218 0.960 . S
C232 H219 0.960 . S
C232 C231 1.524 . S
C233 C230 1.403 . S
C233 C234 1.392 . S
C233 C237 1.495 . S
C234 C233 1.392 . S
C234 C235 1.385 . S
C234 C236 1.478 . S
C235 H229 0.930 . S
C235 C231 1.400 . S
C235 C234 1.385 . S
C236 C234 1.478 . S
C236 C238 1.381 . S
C236 C242 1.383 . S
C237 C233 1.495 . S
C237 H243 0.959 . S
C237 H244 0.961 . S
C237 H245 0.960 . S
C238 C236 1.381 . S
C238 C239 1.394 . S
C238 H246 0.930 . S
C239 C238 1.394 . S
C239 C240 1.383 . S
C239 H247 0.929 . S
C240 C239 1.383 . S
C240 C241 1.377 . S
C241 H225 0.930 . S
C241 C240 1.377 . S
C241 C242 1.379 . S
C242 H226 0.931 . S
C242 C236 1.383 . S
C242 C241 1.379 . S
H243 C237 0.959 . S
H244 C237 0.961 . S
H245 C237 0.960 . S
H246 C238 0.930 . S
H247 C239 0.929 . S
H248 C256 0.929 . S
H249 C258 0.930 . S
H250 C260 0.930 . S
H251 C263 0.929 . S
H252 C266 0.930 . S
H253 C268 0.960 . S
H254 C268 0.960 . S
H255 C268 0.960 . S
C256 H248 0.929 . S
C256 C257 1.377 . S
C256 C258 1.384 . S
C257 C256 1.377 . S
C257 C263 1.390 . S
C258 H249 0.930 . S
C258 C256 1.384 . S
C258 C259 1.372 . S
C259 C258 1.372 . S
C259 C260 1.400 . S
C259 C264 1.490 . S
C260 H250 0.930 . S
C260 C259 1.400 . S
C260 C263 1.386 . S
H261 C277 0.930 . S
H262 C278 0.931 . S
C263 H251 0.929 . S
C263 C257 1.390 . S
C263 C260 1.386 . S
C264 C259 1.490 . S
C264 C266 1.395 . S
C264 C267 1.403 1_655 S
H265 C271 0.930 . S
C266 H252 0.930 . S
C266 C264 1.395 . S
C266 C269 1.403 . S
C267 C264 1.403 1_455 S
C267 C268 1.524 . S
C267 C271 1.400 . S
C268 H253 0.960 . S
C268 H254 0.960 . S
C268 H255 0.960 . S
C268 C267 1.524 . S
C269 C266 1.403 . S
C269 C270 1.392 1_655 S
C269 C273 1.495 . S
C270 C269 1.392 1_455 S
C270 C271 1.385 . S
C270 C272 1.478 . S
C271 H265 0.930 . S
C271 C267 1.400 . S
C271 C270 1.385 . S
C272 C270 1.478 . S
C272 C274 1.381 . S
C272 C278 1.383 . S
C273 C269 1.495 . S
C273 H279 0.959 . S
C273 H280 0.961 . S
C273 H281 0.960 . S
C274 C272 1.381 . S
C274 C275 1.394 . S
C274 H282 0.930 . S
C275 C274 1.394 . S
C275 C276 1.383 . S
C275 H283 0.929 . S
C276 C275 1.383 . S
C276 C277 1.377 . S
C277 H261 0.930 . S
C277 C276 1.377 . S
C277 C278 1.379 . S
C278 H262 0.931 . S
C278 C272 1.383 . S
C278 C277 1.379 . S
H279 C273 0.959 . S
H280 C273 0.961 . S
H281 C273 0.960 . S
H282 C274 0.930 . S
H283 C275 0.929 . S
H284 C292 0.929 . S
H285 C294 0.930 . S
H286 C296 0.930 . S
H287 C299 0.929 . S
H288 C302 0.930 . S
H289 C304 0.960 . S
H290 C304 0.960 . S
H291 C304 0.960 . S
C292 H284 0.929 . S
C292 C293 1.377 . S
C292 C294 1.384 . S
C293 C292 1.377 . S
C293 C299 1.390 . S
C294 H285 0.930 . S
C294 C292 1.384 . S
C294 C295 1.372 . S
C295 C294 1.372 . S
C295 C296 1.400 . S
C295 C300 1.490 . S
C296 H286 0.930 . S
C296 C295 1.400 . S
C296 C299 1.386 . S
H297 C313 0.930 . S
H298 C314 0.931 . S
C299 H287 0.929 . S
C299 C293 1.390 . S
C299 C296 1.386 . S
C300 C295 1.490 . S
C300 C302 1.395 . S
C300 C303 1.403 . S
H301 C307 0.930 . S
C302 H288 0.930 . S
C302 C300 1.395 . S
C302 C305 1.403 . S
C303 C300 1.403 . S
C303 C304 1.524 . S
C303 C307 1.400 . S
C304 H289 0.960 . S
C304 H290 0.960 . S
C304 H291 0.960 . S
C304 C303 1.524 . S
C305 C302 1.403 . S
C305 C306 1.392 . S
C305 C309 1.495 . S
C306 C305 1.392 . S
C306 C307 1.385 . S
C306 C308 1.478 . S
C307 H301 0.930 . S
C307 C303 1.400 . S
C307 C306 1.385 . S
C308 C306 1.478 . S
C308 C310 1.381 . S
C308 C314 1.383 . S
C309 C305 1.495 . S
C309 H315 0.959 . S
C309 H316 0.961 . S
C309 H317 0.960 . S
C310 C308 1.381 . S
C310 C311 1.394 . S
C310 H318 0.930 . S
C311 C310 1.394 . S
C311 C312 1.383 . S
C311 H319 0.929 . S
C312 C311 1.383 . S
C312 C313 1.377 . S
C313 H297 0.930 . S
C313 C312 1.377 . S
C313 C314 1.379 . S
C314 H298 0.931 . S
C314 C308 1.383 . S
C314 C313 1.379 . S
H315 C309 0.959 . S
H316 C309 0.961 . S
H317 C309 0.960 . S
H318 C310 0.930 . S
H319 C311 0.929 . S
H320 C328 0.929 . S
H321 C330 0.930 . S
H322 C332 0.930 1_556 S
H323 C335 0.929 1_556 S
H324 C338 0.930 . S
H325 C340 0.972 . S
H326 C340 0.932 1_554 S
H327 C340 0.978 1_545 S
C328 H320 0.929 . S
C328 C329 1.377 . S
C328 C330 1.384 . S
C329 C328 1.377 . S
C329 C335 1.390 . S
C330 H321 0.930 . S
C330 C328 1.384 . S
C330 C331 1.372 . S
C331 C330 1.372 . S
C331 C332 1.400 . S
C331 C336 1.490 . S
C332 H322 0.930 1_554 S
C332 C331 1.400 . S
C332 C335 1.386 . S
H333 C349 0.930 . S
H334 C350 0.931 . S
C335 H323 0.929 1_554 S
C335 C329 1.390 . S
C335 C332 1.386 . S
C336 C331 1.490 . S
C336 C338 1.395 1_455 S
C336 C339 1.408 1_545 S
H337 C343 0.930 . S
C338 H324 0.930 . S
C338 C336 1.395 1_655 S
C338 C341 1.403 . S
C339 C336 1.408 1_565 S
C339 C340 1.523 1_554 S
C339 C343 1.396 1_554 S
C340 H325 0.972 . S
C340 H326 0.932 1_556 S
C340 H327 0.978 1_565 S
C340 C339 1.523 1_556 S
C341 C338 1.403 . S
C341 C342 1.392 1_544 S
C341 C345 1.495 . S
C342 C341 1.392 1_566 S
C342 C343 1.385 1_655 S
C342 C344 1.478 . S
C343 H337 0.930 . S
C343 C339 1.396 1_556 S
C343 C342 1.385 1_455 S
C344 C342 1.478 . S
C344 C346 1.381 1_556 S
C344 C350 1.383 . S
C345 C341 1.495 . S
C345 H351 0.959 . S
C345 H352 0.961 1_554 S
C345 H353 0.960 . S
C346 C344 1.381 1_554 S
C346 C347 1.394 1_554 S
C346 H354 0.930 . S
C347 C346 1.394 1_556 S
C347 C348 1.383 . S
C347 H355 0.929 1_556 S
C348 C347 1.383 . S
C348 C349 1.377 . S
C349 H333 0.930 . S
C349 C348 1.377 . S
C349 C350 1.379 . S
C350 H334 0.931 . S
C350 C344 1.383 . S
C350 C349 1.379 . S
H351 C345 0.959 . S
H352 C345 0.961 1_556 S
H353 C345 0.960 . S
H354 C346 0.930 . S
H355 C347 0.929 1_554 S
H356 C364 0.929 . S
H357 C366 0.930 . S
H358 C368 0.930 . S
H359 C371 0.929 . S
H360 C374 0.930 . S
H361 C376 0.960 . S
H362 C376 0.960 . S
H363 C376 0.960 . S
C364 H356 0.929 . S
C364 C365 1.377 . S
C364 C366 1.384 . S
C365 C364 1.377 . S
C365 C371 1.390 . S
C366 H357 0.930 . S
C366 C364 1.384 . S
C366 C367 1.372 . S
C367 C366 1.372 . S
C367 C368 1.400 . S
C367 C372 1.490 . S
C368 H358 0.930 . S
C368 C367 1.400 . S
C368 C371 1.386 . S
H369 C385 0.930 . S
H370 C386 0.931 . S
C371 H359 0.929 . S
C371 C365 1.390 . S
C371 C368 1.386 . S
C372 C367 1.490 . S
C372 C374 1.395 . S
C372 C375 1.403 . S
H373 C379 0.930 . S
C374 H360 0.930 . S
C374 C372 1.395 . S
C374 C377 1.403 . S
C375 C372 1.403 . S
C375 C376 1.524 . S
C375 C379 1.400 . S
C376 H361 0.960 . S
C376 H362 0.960 . S
C376 H363 0.960 . S
C376 C375 1.524 . S
C377 C374 1.403 . S
C377 C378 1.392 . S
C377 C381 1.495 . S
C378 C377 1.392 . S
C378 C379 1.385 . S
C378 C380 1.478 . S
C379 H373 0.930 . S
C379 C375 1.400 . S
C379 C378 1.385 . S
C380 C378 1.478 . S
C380 C382 1.381 . S
C380 C386 1.383 . S
C381 C377 1.495 . S
C381 H387 0.959 . S
C381 H388 0.961 . S
C381 H389 0.960 . S
C382 C380 1.381 . S
C382 C383 1.394 . S
C382 H390 0.930 . S
C383 C382 1.394 . S
C383 C384 1.383 . S
C383 H391 0.929 . S
C384 C383 1.383 . S
C384 C385 1.377 . S
C385 H369 0.930 . S
C385 C384 1.377 . S
C385 C386 1.379 . S
C386 H370 0.931 . S
C386 C380 1.383 . S
C386 C385 1.379 . S
H387 C381 0.959 . S
H388 C381 0.961 . S
H389 C381 0.960 . S
H390 C382 0.930 . S
H391 C383 0.929 . S
H392 C400 0.929 . S
H393 C402 0.930 . S
H394 C404 0.930 1_556 S
H395 C407 0.929 . S
H396 C410 0.930 . S
H397 C412 0.960 . S
H398 C412 0.960 . S
H399 C412 0.960 . S
C400 H392 0.929 . S
C400 C401 1.377 . S
C400 C402 1.384 . S
C401 C400 1.377 . S
C401 C407 1.390 . S
C402 H393 0.930 . S
C402 C400 1.384 . S
C402 C403 1.372 . S
C403 C402 1.372 . S
C403 C404 1.400 . S
C403 C408 1.490 . S
C404 H394 0.930 1_554 S
C404 C403 1.400 . S
C404 C407 1.386 . S
H405 C421 0.930 . S
H406 C422 0.931 . S
C407 H395 0.929 . S
C407 C401 1.390 . S
C407 C404 1.386 . S
C408 C403 1.490 . S
C408 C410 1.395 . S
C408 C411 1.403 1_554 S
H409 C415 0.930 . S
C410 H396 0.930 . S
C410 C408 1.395 . S
C410 C413 1.403 . S
C411 C408 1.403 1_556 S
C411 C412 1.524 . S
C411 C415 1.400 . S
C412 H397 0.960 . S
C412 H398 0.960 . S
C412 H399 0.960 . S
C412 C411 1.524 . S
C413 C410 1.403 . S
C413 C414 1.392 1_554 S
C413 C417 1.495 . S
C414 C413 1.392 1_556 S
C414 C415 1.385 . S
C414 C416 1.478 . S
C415 H409 0.930 . S
C415 C411 1.400 . S
C415 C414 1.385 . S
C416 C414 1.478 . S
C416 C418 1.381 . S
C416 C422 1.383 . S
C417 C413 1.495 . S
C417 H423 0.959 . S
C417 H424 0.961 . S
C417 H425 0.960 . S
C418 C416 1.381 . S
C418 C419 1.394 . S
C418 H426 0.930 1_556 S
C419 C418 1.394 . S
C419 C420 1.383 . S
C419 H427 0.929 . S
C420 C419 1.383 . S
C420 C421 1.377 . S
C421 H405 0.930 . S
C421 C420 1.377 . S
C421 C422 1.379 . S
C422 H406 0.931 . S
C422 C416 1.383 . S
C422 C421 1.379 . S
H423 C417 0.959 . S
H424 C417 0.961 . S
H425 C417 0.960 . S
H426 C418 0.930 1_554 S
H427 C419 0.929 . S
H428 C436 0.929 . S
H429 C438 0.930 . S
H430 C440 0.930 . S
H431 C443 0.929 . S
H432 C446 0.930 . S
H433 C448 0.960 . S
H434 C448 0.960 . S
H435 C448 0.960 . S
C436 H428 0.929 . S
C436 C437 1.377 . S
C436 C438 1.384 . S
C437 C436 1.377 . S
C437 C443 1.390 . S
C438 H429 0.930 . S
C438 C436 1.384 . S
C438 C439 1.372 . S
C439 C438 1.372 . S
C439 C440 1.400 . S
C439 C444 1.490 . S
C440 H430 0.930 . S
C440 C439 1.400 . S
C440 C443 1.386 . S
H441 C457 0.930 . S
H442 C458 0.931 . S
C443 H431 0.929 . S
C443 C437 1.390 . S
C443 C440 1.386 . S
C444 C439 1.490 . S
C444 C446 1.395 . S
C444 C447 1.403 1_655 S
H445 C451 0.930 . S
C446 H432 0.930 . S
C446 C444 1.395 . S
C446 C449 1.403 1_545 S
C447 C444 1.403 1_455 S
C447 C448 1.524 . S
C447 C451 1.400 1_545 S
C448 H433 0.960 . S
C448 H434 0.960 . S
C448 H435 0.960 . S
C448 C447 1.524 . S
C449 C446 1.403 1_565 S
C449 C450 1.392 1_655 S
C449 C453 1.495 . S
C450 C449 1.392 1_455 S
C450 C451 1.385 . S
C450 C452 1.478 . S
C451 H445 0.930 . S
C451 C447 1.400 1_565 S
C451 C450 1.385 . S
C452 C450 1.478 . S
C452 C454 1.381 . S
C452 C458 1.383 . S
C453 C449 1.495 . S
C453 H459 0.959 . S
C453 H460 0.961 . S
C453 H461 0.960 . S
C454 C452 1.381 . S
C454 C455 1.394 . S
C454 H462 0.930 . S
C455 C454 1.394 . S
C455 C456 1.383 . S
C455 H463 0.929 . S
C456 C455 1.383 . S
C456 C457 1.377 . S
C457 H441 0.930 . S
C457 C456 1.377 . S
C457 C458 1.379 . S
C458 H442 0.931 . S
C458 C452 1.383 . S
C458 C457 1.379 . S
H459 C453 0.959 . S
H460 C453 0.961 . S
H461 C453 0.960 . S
H462 C454 0.930 . S
H463 C455 0.929 . S
H464 C472 0.929 . S
H465 C474 0.930 . S
H466 C476 0.930 . S
H467 C479 0.929 . S
H468 C482 0.930 . S
H469 C484 0.960 . S
H470 C484 0.960 . S
H471 C484 0.960 . S
C472 H464 0.929 . S
C472 C473 1.377 . S
C472 C474 1.384 . S
C473 C472 1.377 . S
C473 C479 1.390 . S
C474 H465 0.930 . S
C474 C472 1.384 . S
C474 C475 1.372 . S
C475 C474 1.372 . S
C475 C476 1.400 . S
C475 C480 1.490 . S
C476 H466 0.930 . S
C476 C475 1.400 . S
C476 C479 1.386 . S
H477 C493 0.930 . S
H478 C494 0.931 . S
C479 H467 0.929 . S
C479 C473 1.390 . S
C479 C476 1.386 . S
C480 C475 1.490 . S
C480 C482 1.395 . S
C480 C483 1.403 . S
H481 C487 0.930 . S
C482 H468 0.930 . S
C482 C480 1.395 . S
C482 C485 1.403 . S
C483 C480 1.403 . S
C483 C484 1.524 . S
C483 C487 1.400 1_565 S
C484 H469 0.960 . S
C484 H470 0.960 . S
C484 H471 0.960 . S
C484 C483 1.524 . S
C485 C482 1.403 . S
C485 C486 1.392 1_565 S
C485 C489 1.495 . S
C486 C485 1.392 1_545 S
C486 C487 1.385 . S
C486 C488 1.478 . S
C487 H481 0.930 . S
C487 C483 1.400 1_545 S
C487 C486 1.385 . S
C488 C486 1.478 . S
C488 C490 1.381 . S
C488 C494 1.383 . S
C489 C485 1.495 . S
C489 H495 0.959 . S
C489 H496 0.961 . S
C489 H497 0.960 . S
C490 C488 1.381 . S
C490 C491 1.394 . S
C490 H498 0.930 . S
C491 C490 1.394 . S
C491 C492 1.383 . S
C491 H499 0.929 . S
C492 C491 1.383 . S
C492 C493 1.377 . S
C493 H477 0.930 . S
C493 C492 1.377 . S
C493 C494 1.379 . S
C494 H478 0.931 . S
C494 C488 1.383 . S
C494 C493 1.379 . S
H495 C489 0.959 . S
H496 C489 0.961 . S
H497 C489 0.960 . S
H498 C490 0.930 . S
H499 C491 0.929 . S
H500 C508 0.929 . S
H501 C510 0.930 . S
H502 C512 0.930 . S
H503 C515 0.929 . S
H504 C518 0.930 . S
H505 C520 0.960 . S
H506 C520 0.960 . S
H507 C520 0.960 . S
C508 H500 0.929 . S
C508 C509 1.377 . S
C508 C510 1.384 . S
C509 C508 1.377 . S
C509 C515 1.390 . S
C510 H501 0.930 . S
C510 C508 1.384 . S
C510 C511 1.372 . S
C511 C510 1.372 . S
C511 C512 1.400 . S
C511 C516 1.490 . S
C512 H502 0.930 . S
C512 C511 1.400 . S
C512 C515 1.386 . S
H513 C529 0.930 . S
H514 C530 0.931 . S
C515 H503 0.929 . S
C515 C509 1.390 . S
C515 C512 1.386 . S
C516 C511 1.490 . S
C516 C518 1.395 . S
C516 C519 1.403 . S
H517 C523 0.930 . S
C518 H504 0.930 . S
C518 C516 1.395 . S
C518 C521 1.403 . S
C519 C516 1.403 . S
C519 C520 1.524 . S
C519 C523 1.400 . S
C520 H505 0.960 . S
C520 H506 0.960 . S
C520 H507 0.960 . S
C520 C519 1.524 . S
C521 C518 1.403 . S
C521 C522 1.392 . S
C521 C525 1.495 . S
C522 C521 1.392 . S
C522 C523 1.385 . S
C522 C524 1.478 . S
C523 H517 0.930 . S
C523 C519 1.400 . S
C523 C522 1.385 . S
C524 C522 1.478 . S
C524 C526 1.381 . S
C524 C530 1.383 . S
C525 C521 1.495 . S
C525 H531 0.959 . S
C525 H532 0.961 . S
C525 H533 0.960 . S
C526 C524 1.381 . S
C526 C527 1.394 . S
C526 H534 0.930 . S
C527 C526 1.394 . S
C527 C528 1.383 . S
C527 H535 0.929 . S
C528 C527 1.383 . S
C528 C529 1.377 . S
C529 H513 0.930 . S
C529 C528 1.377 . S
C529 C530 1.379 . S
C530 H514 0.931 . S
C530 C524 1.383 . S
C530 C529 1.379 . S
H531 C525 0.959 . S
H532 C525 0.961 . S
H533 C525 0.960 . S
H534 C526 0.930 . S
H535 C527 0.929 . S
H536 C544 0.929 . S
H537 C546 0.930 . S
H538 C548 0.930 . S
H539 C551 0.929 . S
H540 C554 0.930 . S
H541 C556 0.960 . S
H542 C556 0.960 . S
H543 C556 0.960 . S
C544 H536 0.929 . S
C544 C545 1.377 . S
C544 C546 1.384 . S
C545 C544 1.377 . S
C545 C551 1.390 . S
C546 H537 0.930 . S
C546 C544 1.384 . S
C546 C547 1.372 . S
C547 C546 1.372 . S
C547 C548 1.400 . S
C547 C552 1.490 . S
C548 H538 0.930 . S
C548 C547 1.400 . S
C548 C551 1.386 . S
H549 C565 0.930 . S
H550 C566 0.931 . S
C551 H539 0.929 . S
C551 C545 1.390 . S
C551 C548 1.386 . S
C552 C547 1.490 . S
C552 C554 1.395 . S
C552 C555 1.403 . S
H553 C559 0.930 . S
C554 H540 0.930 . S
C554 C552 1.395 . S
C554 C557 1.403 . S
C555 C552 1.403 . S
C555 C556 1.524 . S
C555 C559 1.400 . S
C556 H541 0.960 . S
C556 H542 0.960 . S
C556 H543 0.960 . S
C556 C555 1.524 . S
C557 C554 1.403 . S
C557 C558 1.392 . S
C557 C561 1.495 . S
C558 C557 1.392 . S
C558 C559 1.385 . S
C558 C560 1.478 . S
C559 H553 0.930 . S
C559 C555 1.400 . S
C559 C558 1.385 . S
C560 C558 1.478 . S
C560 C562 1.381 . S
C560 C566 1.383 . S
C561 C557 1.495 . S
C561 H567 0.959 . S
C561 H568 0.961 . S
C561 H569 0.960 . S
C562 C560 1.381 . S
C562 C563 1.394 . S
C562 H570 0.930 . S
C563 C562 1.394 . S
C563 C564 1.383 . S
C563 H571 0.929 . S
C564 C563 1.383 . S
C564 C565 1.377 . S
C565 H549 0.930 . S
C565 C564 1.377 . S
C565 C566 1.379 . S
C566 H550 0.931 . S
C566 C560 1.383 . S
C566 C565 1.379 . S
H567 C561 0.959 . S
H568 C561 0.961 . S
H569 C561 0.960 . S
H570 C562 0.930 . S
H571 C563 0.929 . S
H572 C580 0.929 . S
H573 C582 0.930 . S
H574 C584 0.930 . S
H575 C587 0.929 . S
H576 C590 0.930 . S
H577 C592 0.960 . S
H578 C592 0.960 . S
H579 C592 0.960 . S
C580 H572 0.929 . S
C580 C581 1.377 . S
C580 C582 1.384 . S
C581 C580 1.377 . S
C581 C587 1.390 . S
C582 H573 0.930 . S
C582 C580 1.384 . S
C582 C583 1.372 . S
C583 C582 1.372 . S
C583 C584 1.400 . S
C583 C588 1.490 . S
C584 H574 0.930 . S
C584 C583 1.400 . S
C584 C587 1.386 . S
H585 C601 0.930 . S
H586 C602 0.931 . S
C587 H575 0.929 . S
C587 C581 1.390 . S
C587 C584 1.386 . S
C588 C583 1.490 . S
C588 C590 1.395 1_545 S
C588 C591 1.403 . S
H589 C595 0.930 . S
C590 H576 0.930 . S
C590 C588 1.395 1_565 S
C590 C593 1.403 . S
C591 C588 1.403 . S
C591 C592 1.524 . S
C591 C595 1.400 1_545 S
C592 H577 0.960 . S
C592 H578 0.960 . S
C592 H579 0.960 . S
C592 C591 1.524 . S
C593 C590 1.403 . S
C593 C594 1.392 . S
C593 C597 1.495 . S
C594 C593 1.392 . S
C594 C595 1.385 . S
C594 C596 1.478 . S
C595 H589 0.930 . S
C595 C591 1.400 1_565 S
C595 C594 1.385 . S
C596 C594 1.478 . S
C596 C598 1.381 . S
C596 C602 1.383 . S
C597 C593 1.495 . S
C597 H603 0.959 . S
C597 H604 0.961 . S
C597 H605 0.960 . S
C598 C596 1.381 . S
C598 C599 1.394 . S
C598 H606 0.930 . S
C599 C598 1.394 . S
C599 C600 1.383 . S
C599 H607 0.929 . S
C600 C599 1.383 . S
C600 C601 1.377 . S
C601 H585 0.930 . S
C601 C600 1.377 . S
C601 C602 1.379 . S
C602 H586 0.931 . S
C602 C596 1.383 . S
C602 C601 1.379 . S
H603 C597 0.959 . S
H604 C597 0.961 . S
H605 C597 0.960 . S
H606 C598 0.930 . S
H607 C599 0.929 . S
H608 C616 0.929 . S
H609 C618 0.930 . S
H610 C620 0.930 . S
H611 C623 0.929 . S
H612 C626 0.930 . S
H613 C628 0.960 . S
H614 C628 0.960 . S
H615 C628 0.960 . S
C616 H608 0.929 . S
C616 C617 1.377 . S
C616 C618 1.384 . S
C617 C616 1.377 . S
C617 C623 1.390 . S
C618 H609 0.930 . S
C618 C616 1.384 . S
C618 C619 1.372 . S
C619 C618 1.372 . S
C619 C620 1.400 . S
C619 C624 1.490 . S
C620 H610 0.930 . S
C620 C619 1.400 . S
C620 C623 1.386 . S
H621 C637 0.930 . S
H622 C638 0.931 . S
C623 H611 0.929 . S
C623 C617 1.390 . S
C623 C620 1.386 . S
C624 C619 1.490 . S
C624 C626 1.395 . S
C624 C627 1.403 . S
H625 C631 0.930 . S
C626 H612 0.930 . S
C626 C624 1.395 . S
C626 C629 1.403 1_545 S
C627 C624 1.403 . S
C627 C628 1.524 . S
C627 C631 1.400 . S
C628 H613 0.960 . S
C628 H614 0.960 . S
C628 H615 0.960 . S
C628 C627 1.524 . S
C629 C626 1.403 1_565 S
C629 C630 1.392 . S
C629 C633 1.495 . S
C630 C629 1.392 . S
C630 C631 1.385 1_565 S
C630 C632 1.478 . S
C631 H625 0.930 . S
C631 C627 1.400 . S
C631 C630 1.385 1_545 S
C632 C630 1.478 . S
C632 C634 1.381 . S
C632 C638 1.383 . S
C633 C629 1.495 . S
C633 H639 0.959 . S
C633 H640 0.961 . S
C633 H641 0.960 . S
C634 C632 1.381 . S
C634 C635 1.394 . S
C634 H642 0.930 . S
C635 C634 1.394 . S
C635 C636 1.383 . S
C635 H643 0.929 . S
C636 C635 1.383 . S
C636 C637 1.377 . S
C637 H621 0.930 . S
C637 C636 1.377 . S
C637 C638 1.379 . S
C638 H622 0.931 . S
C638 C632 1.383 . S
C638 C637 1.379 . S
H639 C633 0.959 . S
H640 C633 0.961 . S
H641 C633 0.960 . S
H642 C634 0.930 . S
H643 C635 0.929 . S
H644 C652 0.929 . S
H645 C654 0.930 . S
H646 C656 0.930 . S
H647 C659 0.929 . S
H648 C662 0.930 . S
H649 C664 0.960 . S
H650 C664 0.960 . S
H651 C664 0.960 . S
C652 H644 0.929 . S
C652 C653 1.377 . S
C652 C654 1.384 . S
C653 C652 1.377 . S
C653 C659 1.390 . S
C654 H645 0.930 . S
C654 C652 1.384 . S
C654 C655 1.372 . S
C655 C654 1.372 . S
C655 C656 1.400 . S
C655 C660 1.490 . S
C656 H646 0.930 . S
C656 C655 1.400 . S
C656 C659 1.386 . S
H657 C673 0.930 . S
H658 C674 0.931 . S
C659 H647 0.929 . S
C659 C653 1.390 . S
C659 C656 1.386 . S
C660 C655 1.490 . S
C660 C662 1.395 . S
C660 C663 1.403 . S
H661 C667 0.930 . S
C662 H648 0.930 . S
C662 C660 1.395 . S
C662 C665 1.403 . S
C663 C660 1.403 . S
C663 C664 1.524 . S
C663 C667 1.400 . S
C664 H649 0.960 . S
C664 H650 0.960 . S
C664 H651 0.960 . S
C664 C663 1.524 . S
C665 C662 1.403 . S
C665 C666 1.392 . S
C665 C669 1.495 . S
C666 C665 1.392 . S
C666 C667 1.385 . S
C666 C668 1.478 . S
C667 H661 0.930 . S
C667 C663 1.400 . S
C667 C666 1.385 . S
C668 C666 1.478 . S
C668 C670 1.381 . S
C668 C674 1.383 . S
C669 C665 1.495 . S
C669 H675 0.959 . S
C669 H676 0.961 . S
C669 H677 0.960 . S
C670 C668 1.381 . S
C670 C671 1.394 . S
C670 H678 0.930 . S
C671 C670 1.394 . S
C671 C672 1.383 . S
C671 H679 0.929 . S
C672 C671 1.383 . S
C672 C673 1.377 . S
C673 H657 0.930 . S
C673 C672 1.377 . S
C673 C674 1.379 . S
C674 H658 0.931 . S
C674 C668 1.383 . S
C674 C673 1.379 . S
H675 C669 0.959 . S
H676 C669 0.961 . S
H677 C669 0.960 . S
H678 C670 0.930 . S
H679 C671 0.929 . S
H680 C688 0.929 . S
H681 C690 0.930 . S
H682 C692 0.930 . S
H683 C695 0.929 . S
H684 C698 0.930 . S
H685 C700 0.960 . S
H686 C700 0.960 . S
H687 C700 0.960 . S
C688 H680 0.929 . S
C688 C689 1.377 . S
C688 C690 1.384 . S
C689 C688 1.377 . S
C689 C695 1.390 . S
C690 H681 0.930 . S
C690 C688 1.384 . S
C690 C691 1.372 . S
C691 C690 1.372 . S
C691 C692 1.400 . S
C691 C696 1.490 . S
C692 H682 0.930 . S
C692 C691 1.400 . S
C692 C695 1.386 . S
H693 C709 0.930 . S
H694 C710 0.931 . S
C695 H683 0.929 . S
C695 C689 1.390 . S
C695 C692 1.386 . S
C696 C691 1.490 . S
C696 C698 1.395 . S
C696 C699 1.403 . S
H697 C703 0.930 . S
C698 H684 0.930 . S
C698 C696 1.395 . S
C698 C701 1.403 . S
C699 C696 1.403 . S
C699 C700 1.524 . S
C699 C703 1.400 . S
C700 H685 0.960 . S
C700 H686 0.960 . S
C700 H687 0.960 . S
C700 C699 1.524 . S
C701 C698 1.403 . S
C701 C702 1.392 . S
C701 C705 1.495 . S
C702 C701 1.392 . S
C702 C703 1.385 . S
C702 C704 1.478 . S
C703 H697 0.930 . S
C703 C699 1.400 . S
C703 C702 1.385 . S
C704 C702 1.478 . S
C704 C706 1.381 . S
C704 C710 1.383 . S
C705 C701 1.495 . S
C705 H711 0.959 . S
C705 H712 0.961 . S
C705 H713 0.960 . S
C706 C704 1.381 . S
C706 C707 1.394 . S
C706 H714 0.930 . S
C707 C706 1.394 . S
C707 C708 1.383 . S
C707 H715 0.929 . S
C708 C707 1.383 . S
C708 C709 1.377 . S
C709 H693 0.930 . S
C709 C708 1.377 . S
C709 C710 1.379 . S
C710 H694 0.931 . S
C710 C704 1.383 . S
C710 C709 1.379 . S
H711 C705 0.959 . S
H712 C705 0.961 . S
H713 C705 0.960 . S
H714 C706 0.930 . S
H715 C707 0.929 . S
H716 C724 0.929 . S
H717 C726 0.930 . S
H718 C728 0.930 . S
H719 C731 0.929 . S
H720 C734 0.930 . S
H721 C736 0.960 . S
H722 C736 0.960 . S
H723 C736 0.960 . S
C724 H716 0.929 . S
C724 C725 1.377 . S
C724 C726 1.384 . S
C725 C724 1.377 . S
C725 C731 1.390 . S
C726 H717 0.930 . S
C726 C724 1.384 . S
C726 C727 1.372 . S
C727 C726 1.372 . S
C727 C728 1.400 . S
C727 C732 1.490 . S
C728 H718 0.930 . S
C728 C727 1.400 . S
C728 C731 1.386 . S
H729 C745 0.930 . S
H730 C746 0.931 . S
C731 H719 0.929 . S
C731 C725 1.390 . S
C731 C728 1.386 . S
C732 C727 1.490 . S
C732 C734 1.395 1_565 S
C732 C735 1.403 . S
H733 C739 0.930 . S
C734 H720 0.930 . S
C734 C732 1.395 1_545 S
C734 C737 1.403 . S
C735 C732 1.403 . S
C735 C736 1.524 . S
C735 C739 1.400 1_565 S
C736 H721 0.960 . S
C736 H722 0.960 . S
C736 H723 0.960 . S
C736 C735 1.524 . S
C737 C734 1.403 . S
C737 C738 1.392 . S
C737 C741 1.495 . S
C738 C737 1.392 . S
C738 C739 1.385 . S
C738 C740 1.478 . S
C739 H733 0.930 . S
C739 C735 1.400 1_545 S
C739 C738 1.385 . S
C740 C738 1.478 . S
C740 C742 1.381 . S
C740 C746 1.383 . S
C741 C737 1.495 . S
C741 H747 0.959 . S
C741 H748 0.961 . S
C741 H749 0.960 . S
C742 C740 1.381 . S
C742 C743 1.394 . S
C742 H750 0.930 . S
C743 C742 1.394 . S
C743 C744 1.383 . S
C743 H751 0.929 . S
C744 C743 1.383 . S
C744 C745 1.377 . S
C745 H729 0.930 . S
C745 C744 1.377 . S
C745 C746 1.379 . S
C746 H730 0.931 . S
C746 C740 1.383 . S
C746 C745 1.379 . S
H747 C741 0.959 . S
H748 C741 0.961 . S
H749 C741 0.960 . S
H750 C742 0.930 . S
H751 C743 0.929 . S
H752 C760 0.929 . S
H753 C762 0.930 . S
H754 C764 0.930 . S
H755 C767 0.929 . S
H756 C770 0.930 . S
H757 C772 0.960 . S
H758 C772 0.960 . S
H759 C772 0.960 . S
C760 H752 0.929 . S
C760 C761 1.377 . S
C760 C762 1.384 . S
C761 C760 1.377 . S
C761 C767 1.390 . S
C762 H753 0.930 . S
C762 C760 1.384 . S
C762 C763 1.372 . S
C763 C762 1.372 . S
C763 C764 1.400 . S
C763 C768 1.490 . S
C764 H754 0.930 . S
C764 C763 1.400 . S
C764 C767 1.386 . S
H765 C781 0.930 . S
H766 C782 0.931 . S
C767 H755 0.929 . S
C767 C761 1.390 . S
C767 C764 1.386 . S
C768 C763 1.490 . S
C768 C770 1.395 . S
C768 C771 1.403 . S
H769 C775 0.930 . S
C770 H756 0.930 . S
C770 C768 1.395 . S
C770 C773 1.403 . S
C771 C768 1.403 . S
C771 C772 1.524 . S
C771 C775 1.400 . S
C772 H757 0.960 . S
C772 H758 0.960 . S
C772 H759 0.960 . S
C772 C771 1.524 . S
C773 C770 1.403 . S
C773 C774 1.392 . S
C773 C777 1.495 . S
C774 C773 1.392 . S
C774 C775 1.385 . S
C774 C776 1.478 . S
C775 H769 0.930 . S
C775 C771 1.400 . S
C775 C774 1.385 . S
C776 C774 1.478 . S
C776 C778 1.381 . S
C776 C782 1.383 . S
C777 C773 1.495 . S
C777 H783 0.959 . S
C777 H784 0.961 . S
C777 H785 0.960 . S
C778 C776 1.381 . S
C778 C779 1.394 . S
C778 H786 0.930 . S
C779 C778 1.394 . S
C779 C780 1.383 . S
C779 H787 0.929 . S
C780 C779 1.383 . S
C780 C781 1.377 . S
C781 H765 0.930 . S
C781 C780 1.377 . S
C781 C782 1.379 . S
C782 H766 0.931 . S
C782 C776 1.383 . S
C782 C781 1.379 . S
H783 C777 0.959 . S
H784 C777 0.961 . S
H785 C777 0.960 . S
H786 C778 0.930 . S
H787 C779 0.929 . S
H788 C796 0.929 . S
H789 C798 0.930 . S
H790 C800 0.930 . S
H791 C803 0.929 . S
H792 C806 0.930 . S
H793 C808 0.960 . S
H794 C808 0.960 . S
H795 C808 0.960 . S
C796 H788 0.929 . S
C796 C797 1.377 . S
C796 C798 1.384 . S
C797 C796 1.377 . S
C797 C803 1.390 . S
C798 H789 0.930 . S
C798 C796 1.384 . S
C798 C799 1.372 . S
C799 C798 1.372 . S
C799 C800 1.400 . S
C799 C804 1.490 . S
C800 H790 0.930 . S
C800 C799 1.400 . S
C800 C803 1.386 . S
H801 C817 0.930 . S
H802 C818 0.931 . S
C803 H791 0.929 . S
C803 C797 1.390 . S
C803 C800 1.386 . S
C804 C799 1.490 . S
C804 C806 1.395 . S
C804 C807 1.403 . S
H805 C811 0.930 . S
C806 H792 0.930 . S
C806 C804 1.395 . S
C806 C809 1.403 . S
C807 C804 1.403 . S
C807 C808 1.524 . S
C807 C811 1.400 . S
C808 H793 0.960 . S
C808 H794 0.960 . S
C808 H795 0.960 . S
C808 C807 1.524 . S
C809 C806 1.403 . S
C809 C810 1.392 . S
C809 C813 1.495 . S
C810 C809 1.392 . S
C810 C811 1.385 . S
C810 C812 1.478 . S
C811 H805 0.930 . S
C811 C807 1.400 . S
C811 C810 1.385 . S
C812 C810 1.478 . S
C812 C814 1.381 . S
C812 C818 1.383 . S
C813 C809 1.495 . S
C813 H819 0.959 . S
C813 H820 0.961 . S
C813 H821 0.960 . S
C814 C812 1.381 . S
C814 C815 1.394 . S
C814 H822 0.930 . S
C815 C814 1.394 . S
C815 C816 1.383 . S
C815 H823 0.929 . S
C816 C815 1.383 . S
C816 C817 1.377 . S
C817 H801 0.930 . S
C817 C816 1.377 . S
C817 C818 1.379 . S
C818 H802 0.931 . S
C818 C812 1.383 . S
C818 C817 1.379 . S
H819 C813 0.959 . S
H820 C813 0.961 . S
H821 C813 0.960 . S
H822 C814 0.930 . S
H823 C815 0.929 . S
H824 C832 0.929 . S
H825 C834 0.930 . S
H826 C836 0.930 . S
H827 C839 0.929 . S
H828 C842 0.930 . S
H829 C844 0.960 . S
H830 C844 0.960 . S
H831 C844 0.960 . S
C832 H824 0.929 . S
C832 C833 1.377 . S
C832 C834 1.384 . S
C833 C832 1.377 . S
C833 C839 1.390 . S
C834 H825 0.930 . S
C834 C832 1.384 . S
C834 C835 1.372 . S
C835 C834 1.372 . S
C835 C836 1.400 . S
C835 C840 1.490 . S
C836 H826 0.930 . S
C836 C835 1.400 . S
C836 C839 1.386 . S
H837 C853 0.930 . S
H838 C854 0.931 . S
C839 H827 0.929 . S
C839 C833 1.390 . S
C839 C836 1.386 . S
C840 C835 1.490 . S
C840 C842 1.395 . S
C840 C843 1.403 . S
H841 C847 0.930 . S
C842 H828 0.930 . S
C842 C840 1.395 . S
C842 C845 1.403 . S
C843 C840 1.403 . S
C843 C844 1.524 . S
C843 C847 1.400 . S
C844 H829 0.960 . S
C844 H830 0.960 . S
C844 H831 0.960 . S
C844 C843 1.524 . S
C845 C842 1.403 . S
C845 C846 1.392 . S
C845 C849 1.495 . S
C846 C845 1.392 . S
C846 C847 1.385 . S
C846 C848 1.478 . S
C847 H841 0.930 . S
C847 C843 1.400 . S
C847 C846 1.385 . S
C848 C846 1.478 . S
C848 C850 1.381 . S
C848 C854 1.383 . S
C849 C845 1.495 . S
C849 H855 0.959 . S
C849 H856 0.961 . S
C849 H857 0.960 . S
C850 C848 1.381 . S
C850 C851 1.394 . S
C850 H858 0.930 . S
C851 C850 1.394 . S
C851 C852 1.383 . S
C851 H859 0.929 . S
C852 C851 1.383 . S
C852 C853 1.377 . S
C853 H837 0.930 . S
C853 C852 1.377 . S
C853 C854 1.379 . S
C854 H838 0.931 . S
C854 C848 1.383 . S
C854 C853 1.379 . S
H855 C849 0.959 . S
H856 C849 0.961 . S
H857 C849 0.960 . S
H858 C850 0.930 . S
H859 C851 0.929 . S
H860 C868 0.929 . S
H861 C870 0.930 . S
H862 C872 0.930 . S
H863 C875 0.929 . S
H864 C878 0.930 . S
H865 C880 0.960 . S
H866 C880 0.960 . S
H867 C880 0.960 . S
C868 H860 0.929 . S
C868 C869 1.377 . S
C868 C870 1.384 . S
C869 C868 1.377 . S
C869 C875 1.390 . S
C870 H861 0.930 . S
C870 C868 1.384 . S
C870 C871 1.372 . S
C871 C870 1.372 . S
C871 C872 1.400 . S
C871 C876 1.490 . S
C872 H862 0.930 . S
C872 C871 1.400 . S
C872 C875 1.386 . S
H873 C889 0.930 . S
H874 C890 0.931 . S
C875 H863 0.929 . S
C875 C869 1.390 . S
C875 C872 1.386 . S
C876 C871 1.490 . S
C876 C878 1.395 . S
C876 C879 1.403 . S
H877 C883 0.930 . S
C878 H864 0.930 . S
C878 C876 1.395 . S
C878 C881 1.403 . S
C879 C876 1.403 . S
C879 C880 1.524 . S
C879 C883 1.400 . S
C880 H865 0.960 . S
C880 H866 0.960 . S
C880 H867 0.960 . S
C880 C879 1.524 . S
C881 C878 1.403 . S
C881 C882 1.392 . S
C881 C885 1.495 . S
C882 C881 1.392 . S
C882 C883 1.385 . S
C882 C884 1.478 . S
C883 H877 0.930 . S
C883 C879 1.400 . S
C883 C882 1.385 . S
C884 C882 1.478 . S
C884 C886 1.381 . S
C884 C890 1.383 . S
C885 C881 1.495 . S
C885 H891 0.959 . S
C885 H892 0.961 . S
C885 H893 0.960 . S
C886 C884 1.381 . S
C886 C887 1.394 . S
C886 H894 0.930 . S
C887 C886 1.394 . S
C887 C888 1.383 . S
C887 H895 0.929 . S
C888 C887 1.383 . S
C888 C889 1.377 . S
C889 H873 0.930 . S
C889 C888 1.377 . S
C889 C890 1.379 . S
C890 H874 0.931 . S
C890 C884 1.383 . S
C890 C889 1.379 . S
H891 C885 0.959 . S
H892 C885 0.961 . S
H893 C885 0.960 . S
H894 C886 0.930 . S
H895 C887 0.929 . S
H896 C904 0.929 . S
H897 C906 0.930 . S
H898 C908 0.930 . S
H899 C911 0.929 . S
H900 C914 0.930 . S
H901 C916 0.960 . S
H902 C916 0.960 . S
H903 C916 0.960 . S
C904 H896 0.929 . S
C904 C905 1.377 . S
C904 C906 1.384 . S
C905 C904 1.377 . S
C905 C911 1.390 . S
C906 H897 0.930 . S
C906 C904 1.384 . S
C906 C907 1.372 . S
C907 C906 1.372 . S
C907 C908 1.400 . S
C907 C912 1.490 . S
C908 H898 0.930 . S
C908 C907 1.400 . S
C908 C911 1.386 . S
H909 C925 0.930 . S
H910 C926 0.931 . S
C911 H899 0.929 . S
C911 C905 1.390 . S
C911 C908 1.386 . S
C912 C907 1.490 . S
C912 C914 1.395 . S
C912 C915 1.403 . S
H913 C919 0.930 . S
C914 H900 0.930 . S
C914 C912 1.395 . S
C914 C917 1.403 . S
C915 C912 1.403 . S
C915 C916 1.524 . S
C915 C919 1.400 . S
C916 H901 0.960 . S
C916 H902 0.960 . S
C916 H903 0.960 . S
C916 C915 1.524 . S
C917 C914 1.403 . S
C917 C918 1.392 . S
C917 C921 1.495 . S
C918 C917 1.392 . S
C918 C919 1.385 . S
C918 C920 1.478 . S
C919 H913 0.930 . S
C919 C915 1.400 . S
C919 C918 1.385 . S
C920 C918 1.478 . S
C920 C922 1.381 . S
C920 C926 1.383 . S
C921 C917 1.495 . S
C921 H927 0.959 . S
C921 H928 0.961 . S
C921 H929 0.960 . S
C922 C920 1.381 . S
C922 C923 1.394 . S
C922 H930 0.930 . S
C923 C922 1.394 . S
C923 C924 1.383 . S
C923 H931 0.929 . S
C924 C923 1.383 . S
C924 C925 1.377 . S
C925 H909 0.930 . S
C925 C924 1.377 . S
C925 C926 1.379 . S
C926 H910 0.931 . S
C926 C920 1.383 . S
C926 C925 1.379 . S
H927 C921 0.959 . S
H928 C921 0.961 . S
H929 C921 0.960 . S
H930 C922 0.930 . S
H931 C923 0.929 . S
H932 C940 0.929 . S
H933 C942 0.930 . S
H934 C944 0.930 . S
H935 C947 0.929 . S
H936 C950 0.930 . S
H937 C952 0.960 . S
H938 C952 0.960 . S
H939 C952 0.960 . S
C940 H932 0.929 . S
C940 C941 1.377 . S
C940 C942 1.384 . S
C941 C940 1.377 . S
C941 C947 1.390 . S
C942 H933 0.930 . S
C942 C940 1.384 . S
C942 C943 1.372 . S
C943 C942 1.372 . S
C943 C944 1.400 . S
C943 C948 1.490 . S
C944 H934 0.930 . S
C944 C943 1.400 . S
C944 C947 1.386 . S
H945 C961 0.930 . S
H946 C962 0.931 . S
C947 H935 0.929 . S
C947 C941 1.390 . S
C947 C944 1.386 . S
C948 C943 1.490 . S
C948 C950 1.395 . S
C948 C951 1.403 . S
H949 C955 0.930 . S
C950 H936 0.930 . S
C950 C948 1.395 . S
C950 C953 1.403 . S
C951 C948 1.403 . S
C951 C952 1.524 . S
C951 C955 1.400 . S
C952 H937 0.960 . S
C952 H938 0.960 . S
C952 H939 0.960 . S
C952 C951 1.524 . S
C953 C950 1.403 . S
C953 C954 1.392 . S
C953 C957 1.495 . S
C954 C953 1.392 . S
C954 C955 1.385 . S
C954 C956 1.478 . S
C955 H949 0.930 . S
C955 C951 1.400 . S
C955 C954 1.385 . S
C956 C954 1.478 . S
C956 C958 1.381 . S
C956 C962 1.383 . S
C957 C953 1.495 . S
C957 H963 0.959 . S
C957 H964 0.961 . S
C957 H965 0.960 . S
C958 C956 1.381 . S
C958 C959 1.394 . S
C958 H966 0.930 . S
C959 C958 1.394 . S
C959 C960 1.383 . S
C959 H967 0.929 . S
C960 C959 1.383 . S
C960 C961 1.377 . S
C961 H945 0.930 . S
C961 C960 1.377 . S
C961 C962 1.379 . S
C962 H946 0.931 . S
C962 C956 1.383 . S
C962 C961 1.379 . S
H963 C957 0.959 . S
H964 C957 0.961 . S
H965 C957 0.960 . S
H966 C958 0.930 . S
H967 C959 0.929 . S
H968 C976 0.929 . S
H969 C978 0.930 . S
H970 C980 0.930 . S
H971 C983 0.929 . S
H972 C986 0.930 . S
H973 C988 0.960 . S
H974 C988 0.960 . S
H975 C988 0.960 . S
C976 H968 0.929 . S
C976 C977 1.377 . S
C976 C978 1.384 . S
C977 C976 1.377 . S
C977 C983 1.390 . S
C978 H969 0.930 . S
C978 C976 1.384 . S
C978 C979 1.372 . S
C979 C978 1.372 . S
C979 C980 1.400 . S
C979 C984 1.490 . S
C980 H970 0.930 . S
C980 C979 1.400 . S
C980 C983 1.386 . S
H981 C997 0.930 . S
H982 C998 0.931 . S
C983 H971 0.929 . S
C983 C977 1.390 . S
C983 C980 1.386 . S
C984 C979 1.490 . S
C984 C986 1.395 . S
C984 C987 1.403 . S
H985 C991 0.930 . S
C986 H972 0.930 . S
C986 C984 1.395 . S
C986 C989 1.403 . S
C987 C984 1.403 . S
C987 C988 1.524 . S
C987 C991 1.400 . S
C988 H973 0.960 . S
C988 H974 0.960 . S
C988 H975 0.960 . S
C988 C987 1.524 . S
C989 C986 1.403 . S
C989 C990 1.392 . S
C989 C993 1.495 . S
C990 C989 1.392 . S
C990 C991 1.385 . S
C990 C992 1.478 . S
C991 H985 0.930 . S
C991 C987 1.400 . S
C991 C990 1.385 . S
C992 C990 1.478 . S
C992 C994 1.381 . S
C992 C998 1.383 . S
C993 C989 1.495 . S
C993 H999 0.959 . S
C993 H1000 0.961 . S
C993 H1001 0.960 . S
C994 C992 1.381 . S
C994 C995 1.394 . S
C994 H1002 0.930 . S
C995 C994 1.394 . S
C995 C996 1.383 . S
C995 H1003 0.929 . S
C996 C995 1.383 . S
C996 C997 1.377 . S
C997 H981 0.930 . S
C997 C996 1.377 . S
C997 C998 1.379 . S
C998 H982 0.931 . S
C998 C992 1.383 . S
C998 C997 1.379 . S
H999 C993 0.959 . S
H1000 C993 0.961 . S
H1001 C993 0.960 . S
H1002 C994 0.930 . S
H1003 C995 0.929 . S
H1004 C1012 0.929 . S
H1005 C1014 0.930 . S
H1006 C1016 0.930 . S
H1007 C1019 0.929 . S
H1008 C1022 0.930 . S
H1009 C1024 0.960 . S
H1010 C1024 0.960 . S
H1011 C1024 0.960 . S
C1012 H1004 0.929 . S
C1012 C1013 1.377 . S
C1012 C1014 1.384 . S
C1013 C1012 1.377 . S
C1013 C1019 1.390 . S
C1014 H1005 0.930 . S
C1014 C1012 1.384 . S
C1014 C1015 1.372 . S
C1015 C1014 1.372 . S
C1015 C1016 1.400 . S
C1015 C1020 1.490 . S
C1016 H1006 0.930 . S
C1016 C1015 1.400 . S
C1016 C1019 1.386 . S
H1017 C1033 0.930 . S
H1018 C1034 0.931 . S
C1019 H1007 0.929 . S
C1019 C1013 1.390 . S
C1019 C1016 1.386 . S
C1020 C1015 1.490 . S
C1020 C1022 1.395 . S
C1020 C1023 1.403 . S
H1021 C1027 0.930 . S
C1022 H1008 0.930 . S
C1022 C1020 1.395 . S
C1022 C1025 1.403 . S
C1023 C1020 1.403 . S
C1023 C1024 1.524 . S
C1023 C1027 1.400 . S
C1024 H1009 0.960 . S
C1024 H1010 0.960 . S
C1024 H1011 0.960 . S
C1024 C1023 1.524 . S
C1025 C1022 1.403 . S
C1025 C1026 1.392 . S
C1025 C1029 1.495 . S
C1026 C1025 1.392 . S
C1026 C1027 1.385 . S
C1026 C1028 1.478 . S
C1027 H1021 0.930 . S
C1027 C1023 1.400 . S
C1027 C1026 1.385 . S
C1028 C1026 1.478 . S
C1028 C1030 1.381 . S
C1028 C1034 1.383 . S
C1029 C1025 1.495 . S
C1029 H1035 0.959 . S
C1029 H1036 0.961 . S
C1029 H1037 0.960 . S
C1030 C1028 1.381 . S
C1030 C1031 1.394 . S
C1030 H1038 0.930 . S
C1031 C1030 1.394 . S
C1031 C1032 1.383 . S
C1031 H1039 0.929 . S
C1032 C1031 1.383 . S
C1032 C1033 1.377 . S
C1033 H1017 0.930 . S
C1033 C1032 1.377 . S
C1033 C1034 1.379 . S
C1034 H1018 0.931 . S
C1034 C1028 1.383 . S
C1034 C1033 1.379 . S
H1035 C1029 0.959 . S
H1036 C1029 0.961 . S
H1037 C1029 0.960 . S
H1038 C1030 0.930 . S
H1039 C1031 0.929 . S
C185 C9 0.520 . S
C204 C71 0.513 . S
C221 C27 0.520 . S
C240 C49 0.520 . S
C257 C94 0.517 . S
C276 C160 0.498 . S
C293 C116 0.490 . S
C312 C139 0.546 . S
C329 C6 2.092 . S
C348 C97 2.095 . S
C365 C119 2.095 . S
C384 C29 2.087 . S
C401 C137 2.092 . S
C420 C51 2.098 . S
C437 C73 2.093 . S
C456 C163 2.077 . S
C473 C141 0.794 . S
C492 C4 0.791 . S
C509 C159 0.804 . S
C528 C30 0.828 . S
C545 C52 0.809 . S
C564 C93 0.826 . S
C581 C74 0.796 . S
C600 C115 0.771 . S
C617 C50 0.791 . S
C636 C96 0.795 . S
C653 C118 0.809 . S
C672 C72 0.769 . S
C689 C7 0.794 . S
C708 C136 0.781 . S
C725 C162 0.810 . S
C744 C28 0.777 . S
C761 C5 1.673 1_556 S
C780 C26 1.688 . S
C797 C8 1.695 . S
C816 C31 1.686 . S
C833 C70 1.695 . S
C852 C53 1.683 1_554 S
C869 C75 1.670 . S
C888 C48 1.699 . S
C905 C95 1.673 1_554 S
C924 C114 1.703 . S
C941 C92 1.699 . S
C960 C117 1.676 . S
C977 C158 1.699 . S
C996 C138 1.684 1_556 S
C1013 C161 1.669 . S
C1032 C140 1.698 . S
