# Generated by pormake.
# Topology smc, (6)-cn, num edge types: 1
# Building blocks:
#     Node 0, Type 0, BuildingBlock: UKALOJ_clean_sbu_0, # of connection points: 6
#     Node 1, Type 0, BuildingBlock: UKALOJ_clean_sbu_0, # of connection points: 6
#     Node 2, Type 0, BuildingBlock: UKALOJ_clean_sbu_0, # of connection points: 6
#     Node 3, Type 0, BuildingBlock: UKALOJ_clean_sbu_0, # of connection points: 6
#     Node 4, Type 0, BuildingBlock: UKALOJ_clean_sbu_0, # of connection points: 6
#     Node 5, Type 0, BuildingBlock: UKALOJ_clean_sbu_0, # of connection points: 6
#     Node 6, Type 0, BuildingBlock: UKALOJ_clean_sbu_0, # of connection points: 6
#     Node 7, Type 0, BuildingBlock: UKALOJ_clean_sbu_0, # of connection points: 6
#     Node 8, Type 0, BuildingBlock: UKALOJ_clean_sbu_0, # of connection points: 6
#     Edge 9, Type (0, 0), BuildingBlock: AJUNOK_clean_linker_0, # of connection points: 2
#     Edge 10, Type (0, 0), BuildingBlock: AJUNOK_clean_linker_0, # of connection points: 2
#     Edge 11, Type (0, 0), BuildingBlock: AJUNOK_clean_linker_0, # of connection points: 2
#     Edge 12, Type (0, 0), BuildingBlock: AJUNOK_clean_linker_0, # of connection points: 2
#     Edge 13, Type (0, 0), BuildingBlock: AJUNOK_clean_linker_0, # of connection points: 2
#     Edge 14, Type (0, 0), BuildingBlock: AJUNOK_clean_linker_0, # of connection points: 2
#     Edge 15, Type (0, 0), BuildingBlock: AJUNOK_clean_linker_0, # of connection points: 2
#     Edge 16, Type (0, 0), BuildingBlock: AJUNOK_clean_linker_0, # of connection points: 2
#     Edge 17, Type (0, 0), BuildingBlock: AJUNOK_clean_linker_0, # of connection points: 2
#     Edge 18, Type (0, 0), BuildingBlock: AJUNOK_clean_linker_0, # of connection points: 2
#     Edge 19, Type (0, 0), BuildingBlock: AJUNOK_clean_linker_0, # of connection points: 2
#     Edge 20, Type (0, 0), BuildingBlock: AJUNOK_clean_linker_0, # of connection points: 2
#     Edge 21, Type (0, 0), BuildingBlock: AJUNOK_clean_linker_0, # of connection points: 2
#     Edge 22, Type (0, 0), BuildingBlock: AJUNOK_clean_linker_0, # of connection points: 2
#     Edge 23, Type (0, 0), BuildingBlock: AJUNOK_clean_linker_0, # of connection points: 2
#     Edge 24, Type (0, 0), BuildingBlock: AJUNOK_clean_linker_0, # of connection points: 2
#     Edge 25, Type (0, 0), BuildingBlock: AJUNOK_clean_linker_0, # of connection points: 2
#     Edge 26, Type (0, 0), BuildingBlock: AJUNOK_clean_linker_0, # of connection points: 2
#     Edge 27, Type (0, 0), BuildingBlock: AJUNOK_clean_linker_0, # of connection points: 2
#     Edge 28, Type (0, 0), BuildingBlock: AJUNOK_clean_linker_0, # of connection points: 2
#     Edge 29, Type (0, 0), BuildingBlock: AJUNOK_clean_linker_0, # of connection points: 2
#     Edge 30, Type (0, 0), BuildingBlock: AJUNOK_clean_linker_0, # of connection points: 2
#     Edge 31, Type (0, 0), BuildingBlock: AJUNOK_clean_linker_0, # of connection points: 2
#     Edge 32, Type (0, 0), BuildingBlock: AJUNOK_clean_linker_0, # of connection points: 2
#     Edge 33, Type (0, 0), BuildingBlock: AJUNOK_clean_linker_0, # of connection points: 2
#     Edge 34, Type (0, 0), BuildingBlock: AJUNOK_clean_linker_0, # of connection points: 2
#     Edge 35, Type (0, 0), BuildingBlock: AJUNOK_clean_linker_0, # of connection points: 2
# Relax obj value: 0.087
# Max RMSD: 0.207
# Mean RMSD: 0.207
data_MOF--net-smc--node1-UKALOJ_clean_sbu_0--edge1-AJUNOK_clean_linker_0
_symmetry_space_group_name_H-M    P1
_symmetry_Int_Tables_number       1
_symmetry_cell_setting            triclinic
loop_
_symmetry_equiv_pos_as_xyz
'x, y, z'
_cell_length_a     21.34541
_cell_length_b     21.254107
_cell_length_c     47.097826
_cell_angle_alpha  90.263627
_cell_angle_beta   89.955881
_cell_angle_gamma 119.99402
loop_
_atom_site_label
_atom_site_type_symbol
_atom_site_fract_x
_atom_site_fract_y
_atom_site_fract_z
_atom_type_partial_charge
Zn0 Zn 0.00094 0.45187 0.08327 0.0
O1 O 0.0784 0.56167 0.08268 0.0
C2 C 0.10525 0.41625 0.0584 0.0
Zn3 Zn -0.00554 0.44818 0.03556 0.0
C4 C 0.09763 0.59394 0.05892 0.0
O5 O 0.07405 0.55821 0.03589 0.0
C6 C 0.88905 0.3088 0.06052 0.0
O7 O 0.9175 0.48118 0.0362 0.0
O8 O 0.92243 0.48327 0.08288 0.0
N9 N -0.00332 0.44595 0.99154 0.0
C10 C 0.94617 0.40618 0.97177 0.0
C11 C 0.04744 0.46188 0.95044 0.0
N12 N 0.05942 0.48087 0.9781 0.0
N13 N -0.0232 0.41453 0.94585 0.0
C14 C 0.04808 0.45956 0.14734 0.0
C15 C 0.94649 0.41645 0.1682 0.0
N16 N -0.00168 0.44855 0.12726 0.0
N17 N 0.93538 0.4222 0.14042 0.0
N18 N 0.01684 0.43926 0.17326 0.0
H19 H 0.14292 0.52661 0.12229 0.0
H20 H 0.15902 0.52657 0.16012 0.0
H21 H 0.14039 0.4491 0.13871 0.0
C22 C 0.12733 0.49289 0.14171 0.0
C23 C 0.86672 0.36254 0.97755 0.0
H24 H 0.85184 0.38585 0.99568 0.0
H25 H 0.83534 0.36035 0.95842 0.0
H26 H 0.85237 0.30644 0.983 0.0
O27 O 0.91246 0.3391 0.03663 0.0
O28 O 0.92009 0.34308 0.08305 0.0
C29 C 0.89848 0.49488 0.05998 0.0
O30 O 0.08196 0.42386 0.08226 0.0
O31 O 0.07463 0.41945 0.03584 0.0
Zn32 Zn 0.55237 0.56496 0.08177 0.0
O33 O 0.44267 0.53255 0.08111 0.0
C34 C 0.58678 0.70425 0.0567 0.0
Zn35 Zn 0.55538 0.56107 0.03399 0.0
C36 C 0.41008 0.51871 0.05733 0.0
O37 O 0.44565 0.53002 0.03443 0.0
C38 C 0.69486 0.59627 0.05887 0.0
O39 O 0.52323 0.4514 0.03471 0.0
O40 O 0.52172 0.45495 0.08151 0.0
N41 N 0.5557 0.56382 0.98991 0.0
C42 C 0.59467 0.55311 0.96977 0.0
C43 C 0.53395 0.59375 0.94886 0.0
N44 N 0.51772 0.58862 0.97671 0.0
N45 N 0.58245 0.57204 0.94379 0.0
C46 C 0.54474 0.60682 0.1456 0.0
C47 C 0.59128 0.55203 0.16704 0.0
N48 N 0.55665 0.56759 0.12585 0.0
N49 N 0.5851 0.53327 0.13937 0.0
N50 N 0.56691 0.59871 0.17159 0.0
H51 H 0.4682 0.62415 0.12212 0.0
H52 H 0.47996 0.65329 0.15897 0.0
H53 H 0.54838 0.70499 0.13316 0.0
C54 C 0.50774 0.64944 0.13967 0.0
C55 C 0.64209 0.52135 0.97541 0.0
H56 H 0.62478 0.48783 0.9949 0.0
H57 H 0.64092 0.48781 0.95706 0.0
H58 H 0.6984 0.56604 0.97829 0.0
O59 O 0.66414 0.58877 0.035 0.0
O60 O 0.66096 0.59303 0.08144 0.0
C61 C 0.50977 0.41917 0.05849 0.0
O62 O 0.5797 0.67397 0.0806 0.0
O63 O 0.58336 0.66982 0.03416 0.0
Zn64 Zn 0.44213 0.01074 0.0351 0.0
O65 O 0.55176 0.08959 0.03634 0.0
C66 C 0.40654 0.11439 0.0603 0.0
Zn67 Zn 0.43806 0.00281 0.08278 0.0
C68 C 0.58382 0.10691 0.06026 0.0
O69 O 0.54786 0.08075 0.08291 0.0
C70 C 0.29918 0.89897 0.05731 0.0
O71 O 0.46877 0.92366 0.08172 0.0
O72 O 0.47385 0.93286 0.03513 0.0
N73 N 0.43675 0.0047 0.12679 0.0
C74 C 0.39588 0.95532 0.14664 0.0
C75 C 0.45899 0.05624 0.16807 0.0
N76 N 0.4762 0.06719 0.14031 0.0
N77 N 0.40841 -0.01357 0.17273 0.0
C78 C 0.45216 0.06024 0.97133 0.0
C79 C 0.40992 0.9589 0.94974 0.0
N80 N 0.43984 0.00944 0.99113 0.0
N81 N 0.41401 0.94667 0.97752 0.0
N82 N 0.43334 0.02981 0.94512 0.0
H83 H 0.51937 0.15469 0.99698 0.0
H84 H 0.51881 0.17216 0.95933 0.0
H85 H 0.44217 0.1529 0.98101 0.0
C86 C 0.48555 0.13972 0.97756 0.0
C87 C 0.3465 0.87629 0.1407 0.0
H88 H 0.36375 0.85913 0.12135 0.0
H89 H 0.34547 0.84328 0.15908 0.0
H90 H 0.29105 0.86642 0.13742 0.0
O91 O 0.32905 0.92271 0.08129 0.0
O92 O 0.33383 0.92869 0.03477 0.0
C93 C 0.48349 0.90643 0.05773 0.0
O94 O 0.41314 0.0907 0.03636 0.0
O95 O 0.41156 0.08487 0.08289 0.0
Zn96 Zn 0.66729 0.78535 0.41644 0.0
O97 O 0.74409 0.89538 0.41528 0.0
C98 C 0.77252 0.7535 0.39004 0.0
Zn99 Zn 0.65636 0.77693 0.3688 0.0
C100 C 0.75882 0.92638 0.3912 0.0
O101 O 0.73098 0.88903 0.36881 0.0
C102 C 0.55673 0.63889 0.39438 0.0
O103 O 0.57397 0.8009 0.37072 0.0
O104 O 0.58767 0.81506 0.41727 0.0
N105 N 0.6563 0.77596 0.32468 0.0
C106 C 0.60732 0.73417 0.30473 0.0
C107 C 0.70621 0.80209 0.28325 0.0
N108 N 0.71749 0.81833 0.31113 0.0
N109 N 0.63744 0.74915 0.27849 0.0
C110 C 0.71999 0.79317 0.47956 0.0
C111 C 0.62047 0.74946 0.50207 0.0
N112 N 0.66825 0.78231 0.46044 0.0
N113 N 0.60663 0.75562 0.47462 0.0
N114 N 0.69119 0.77208 0.5058 0.0
H115 H 0.81314 0.86784 0.45533 0.0
H116 H 0.83212 0.85572 0.49184 0.0
H117 H 0.81156 0.78609 0.46576 0.0
C118 C 0.7989 0.82817 0.47278 0.0
C119 C 0.52964 0.68112 0.31086 0.0
H120 H 0.5118 0.69662 0.33047 0.0
H121 H 0.49496 0.67813 0.29276 0.0
H122 H 0.52336 0.62665 0.31384 0.0
O123 O 0.58046 0.66681 0.37018 0.0
O124 O 0.58669 0.67581 0.41659 0.0
C125 C 0.55738 0.81741 0.39442 0.0
O126 O 0.74908 0.75889 0.41419 0.0
O127 O 0.74032 0.75544 0.36778 0.0
Zn128 Zn 0.21878 0.89613 0.36755 0.0
O129 O 0.17917 0.78405 0.36744 0.0
C130 C 0.35433 0.9186 0.39192 0.0
Zn131 Zn 0.21823 0.89898 0.41546 0.0
C132 C 0.1668 0.75153 0.39116 0.0
O133 O 0.18181 0.78752 0.41425 0.0
C134 C 0.25945 0.04146 0.3915 0.0
O135 O 0.1099 0.87282 0.41459 0.0
O136 O 0.11328 0.87373 0.36783 0.0
N137 N 0.22078 0.8983 0.45954 0.0
C138 C 0.21134 0.93797 0.47987 0.0
C139 C 0.24863 0.87402 0.50055 0.0
N140 N 0.24352 0.85832 0.4726 0.0
N141 N 0.22899 0.92417 0.50583 0.0
C142 C 0.25895 0.88945 0.30332 0.0
C143 C 0.20901 0.94212 0.2828 0.0
N144 N 0.2214 0.9024 0.32341 0.0
N145 N 0.19009 0.93471 0.31043 0.0
N146 N 0.25271 0.91458 0.27775 0.0
H147 H 0.26285 0.80019 0.32187 0.0
H148 H 0.30791 0.82812 0.288 0.0
H149 H 0.34923 0.88251 0.31926 0.0
C150 C 0.29706 0.84757 0.30831 0.0
C151 C 0.18217 -0.01222 0.4744 0.0
H152 H 0.14958 0.97224 0.45464 0.0
H153 H 0.14866 -0.01301 0.49258 0.0
H154 H 0.22797 0.04382 0.47213 0.0
O155 O 0.25161 0.01001 0.41519 0.0
O156 O 0.25412 0.00699 0.36874 0.0
C157 C 0.07822 0.8632 0.39076 0.0
O158 O 0.32305 0.9146 0.36856 0.0
O159 O 0.32515 0.9199 0.41521 0.0
Zn160 Zn 0.10503 0.33694 0.41574 0.0
O161 O 0.13762 0.25898 0.41481 0.0
C162 C 0.96706 0.23112 0.39008 0.0
Zn163 Zn 0.1101 0.34453 0.36806 0.0
C164 C 0.15371 0.242 0.39104 0.0
O165 O 0.14358 0.2674 0.36822 0.0
C166 C 0.07223 0.44766 0.39302 0.0
O167 O 0.2193 0.42427 0.36942 0.0
O168 O 0.21436 0.41595 0.41602 0.0
N169 N 0.1075 0.34331 0.32406 0.0
C170 C 0.11748 0.39416 0.30464 0.0
C171 C 0.07476 0.29328 0.28261 0.0
N172 N 0.08149 0.28084 0.31017 0.0
N173 N 0.09647 0.36394 0.27852 0.0
C174 C 0.06386 0.28886 0.4797 0.0
C175 C 0.12548 0.39013 0.50105 0.0
N176 N 0.10336 0.33873 0.45977 0.0
N177 N 0.14182 0.40145 0.47324 0.0
N178 N 0.07641 0.31985 0.50584 0.0
H179 H 0.03369 0.19324 0.45433 0.0
H180 H 0.01497 0.17674 0.49199 0.0
H181 H 0.95984 0.19887 0.47015 0.0
C182 C 0.01562 0.20966 0.47365 0.0
C183 C 0.15154 0.47369 0.31095 0.0
H184 H 0.19027 0.48924 0.32885 0.0
H185 H 0.17962 0.50612 0.29189 0.0
H186 H 0.10917 0.48646 0.31705 0.0
O187 O 0.07978 0.42411 0.3692 0.0
O188 O 0.07702 0.41831 0.41571 0.0
C189 C 0.25075 0.44204 0.39346 0.0
O190 O -0.00361 0.25543 0.41412 0.0
O191 O 0.00203 0.26141 0.36767 0.0
Zn192 Zn 0.32834 0.11275 0.70208 0.0
O193 O 0.25055 0.14489 0.70332 0.0
C194 C 0.2253 0.97538 0.7286 0.0
Zn195 Zn 0.3388 0.11968 0.74971 0.0
C196 C 0.23359 0.15997 0.72728 0.0
O197 O 0.26034 0.15081 0.74992 0.0
C198 C 0.44172 0.08358 0.72402 0.0
O199 O 0.41671 0.22956 0.74774 0.0
O200 O 0.40699 0.22236 0.70112 0.0
N201 N 0.33957 0.11916 0.79376 0.0
C202 C 0.39047 0.1291 0.81314 0.0
C203 C 0.29107 0.08971 0.83541 0.0
N204 N 0.27805 0.09525 0.8078 0.0
N205 N 0.36119 0.1101 0.8394 0.0
C206 C 0.27665 0.06647 0.63875 0.0
C207 C 0.37628 0.12529 0.61651 0.0
N208 N 0.32762 0.10826 0.65807 0.0
N209 N 0.38929 0.14503 0.64406 0.0
N210 N 0.30606 0.07547 0.61253 0.0
H211 H 0.1825 0.04495 0.66295 0.0
H212 H 0.16455 0.01414 0.62627 0.0
H213 H 0.18652 0.96612 0.65207 0.0
C214 C 0.19783 0.02056 0.64533 0.0
C215 C 0.46919 0.16128 0.80657 0.0
H216 H 0.48476 0.19979 0.78862 0.0
H217 H 0.5026 0.18948 0.82551 0.0
H218 H 0.48008 0.11745 0.8004 0.0
O219 O 0.41966 0.09172 0.74807 0.0
O220 O 0.40925 0.08504 0.70172 0.0
C221 C 0.43381 0.25985 0.72353 0.0
O222 O 0.24752 0.00407 0.70441 0.0
O223 O 0.25763 0.01084 0.75077 0.0
Zn224 Zn 0.89252 0.22876 0.70175 0.0
O225 O 0.85945 0.11846 0.70246 0.0
C226 C 0.0304 0.26193 0.72741 0.0
Zn227 Zn 0.88805 0.23339 0.74942 0.0
C228 C 0.8447 0.08666 0.72638 0.0
O229 O 0.85527 0.12315 0.74908 0.0
C230 C 0.9253 0.37299 0.7244 0.0
O231 O 0.77881 0.20327 0.74822 0.0
O232 O 0.78326 0.19896 0.70158 0.0
N233 N 0.89055 0.23419 0.79344 0.0
C234 C 0.88149 0.27458 0.81354 0.0
C235 C 0.91889 0.21112 0.83456 0.0
N236 N 0.91338 0.19456 0.8067 0.0
N237 N 0.89943 0.26152 0.83957 0.0
C238 C 0.93505 0.22208 0.63805 0.0
C239 C 0.877 0.26484 0.61646 0.0
N240 N 0.89475 0.23229 0.65771 0.0
N241 N 0.85838 0.25836 0.6441 0.0
N242 N 0.92556 0.24297 0.61203 0.0
H243 H 0.9571 0.14917 0.66193 0.0
H244 H -0.01567 0.15964 0.62491 0.0
H245 H 0.03534 0.23073 0.65013 0.0
C246 C -0.01975 0.18796 0.64407 0.0
C247 C 0.85238 0.32431 0.80777 0.0
H248 H 0.81827 0.30705 0.78838 0.0
H249 H 0.82034 0.32541 0.82614 0.0
H250 H 0.89821 0.37998 0.80455 0.0
O251 O 0.91783 0.34289 0.74837 0.0
O252 O 0.9214 0.33804 0.70195 0.0
C253 C 0.74718 0.18929 0.72422 0.0
O254 O 0.00086 0.2553 0.70334 0.0
O255 O -0.00407 0.25916 0.74975 0.0
Zn256 Zn 0.77385 0.66961 0.74872 0.0
O257 O 0.80659 0.59217 0.74788 0.0
C258 C 0.63707 0.56509 0.722 0.0
Zn259 Zn 0.78016 0.67901 0.70108 0.0
C260 C 0.82232 0.57536 0.72402 0.0
O261 O 0.81277 0.6015 0.70131 0.0
C262 C 0.74219 0.78115 0.72625 0.0
O263 O 0.88927 0.75831 0.7032 0.0
O264 O 0.8831 0.74918 0.74982 0.0
N265 N 0.77978 0.67841 0.65704 0.0
C266 C 0.78917 0.72832 0.63727 0.0
C267 C 0.75295 0.62796 0.61556 0.0
N268 N 0.75774 0.61627 0.64335 0.0
N269 N 0.77212 0.6979 0.61101 0.0
C270 C 0.72743 0.61874 0.81193 0.0
C271 C 0.7855 0.71905 0.83431 0.0
N272 N 0.76926 0.66973 0.79275 0.0
N273 N 0.80557 0.73184 0.80685 0.0
N274 N 0.73596 0.64853 0.83814 0.0
H275 H 0.706 0.52392 0.7877 0.0
H276 H 0.67563 0.50634 0.82433 0.0
H277 H 0.62747 0.52789 0.7985 0.0
C278 C 0.68179 0.53948 0.80528 0.0
C279 C 0.81782 0.80709 0.64358 0.0
H280 H 0.85186 0.8238 0.66299 0.0
H281 H 0.84983 0.84087 0.62537 0.0
H282 H 0.7718 0.81636 0.64705 0.0
O283 O 0.75046 0.75867 0.70229 0.0
O284 O 0.74532 0.75002 0.74867 0.0
C285 C 0.91999 0.77583 0.72739 0.0
O286 O 0.66577 0.58804 0.74622 0.0
O287 O 0.67232 0.59671 0.69984 0.0
C288 C 0.29105 0.46168 0.08187 0.0
C289 C 0.3306 0.48443 0.05645 0.0
C290 C 0.21604 0.43128 0.08194 0.0
C291 C 0.17779 0.4238 0.05671 0.0
H292 H 0.31818 0.46871 0.10205 0.0
H293 H 0.18851 0.41711 0.10214 0.0
S294 S 0.25432 0.46191 0.9838 0.0
N295 N 0.32482 0.48738 1.00483 0.0
N296 N 0.18366 0.43103 1.00505 0.0
C297 C 0.21581 0.44016 1.03084 0.0
C298 C 0.29235 0.47084 1.03072 0.0
C299 C 0.54662 0.84855 0.08083 0.0
C300 C 0.51726 0.86078 0.05618 0.0
C301 C 0.57744 0.80409 0.08015 0.0
C302 C 0.57858 0.769 0.05496 0.0
H303 H 0.54484 0.87249 0.10096 0.0
H304 H 0.59729 0.79444 0.09982 0.0
S305 S 0.51983 0.79327 0.98356 0.0
N306 N 0.49991 0.84219 1.00507 0.0
N307 N 0.55715 0.75789 1.00385 0.0
C308 C 0.55517 0.7859 1.02965 0.0
C309 C 0.52408 0.83149 1.0303 0.0
C310 C 0.22955 0.78133 0.03236 0.0
C311 C 0.23528 0.82602 0.05552 0.0
C312 C 0.18407 0.70622 0.03353 0.0
C313 C 0.14294 0.6733 0.0579 0.0
H314 H 0.26404 0.80365 1.01392 0.0
H315 H 0.18344 0.67355 1.01568 0.0
S316 S 0.12584 0.76791 0.12131 0.0
N317 N 0.18675 0.83361 0.10125 0.0
N318 N 0.10163 0.69164 0.10379 0.0
C319 C 0.14358 0.71779 0.08023 0.0
C320 C 0.18948 0.79446 0.07889 0.0
C321 C 0.45211 0.2315 0.0854 0.0
C322 C 0.41482 0.18711 0.06198 0.0
C323 C 0.4819 0.30663 0.08418 0.0
C324 C 0.47539 0.33981 0.05954 0.0
H325 H 0.46304 0.20895 0.10408 0.0
H326 H 0.51278 0.33908 0.10223 0.0
S327 S 0.3679 0.24597 0.9953 0.0
N328 N 0.36175 0.18001 1.01563 0.0
N329 N 0.41873 0.32204 1.01307 0.0
C330 C 0.4329 0.2956 0.03694 0.0
C331 C 0.40203 0.21891 0.03831 0.0
C332 C 0.70416 0.16571 0.03668 0.0
C333 C 0.6632 0.15242 0.0616 0.0
C334 C 0.77927 0.21013 0.03709 0.0
C335 C 0.8161 0.24424 0.06228 0.0
H336 H 0.67806 0.14265 1.01654 0.0
H337 H 0.80815 0.22044 1.01725 0.0
S338 S 0.73505 0.2167 0.13424 0.0
N339 N 0.66581 0.16872 0.11289 0.0
N340 N 0.80704 0.2531 0.1136 0.0
C341 C 0.77648 0.22629 0.0878 0.0
C342 C 0.69991 0.18064 0.08743 0.0
C343 C 0.83592 0.55144 0.03541 0.0
C344 C 0.85303 0.52904 0.06085 0.0
C345 C 0.79087 0.58147 0.03532 0.0
C346 C 0.75999 0.58895 0.06055 0.0
H347 H 0.85608 0.54435 1.01523 0.0
H348 H 0.77726 0.59531 1.0151 0.0
S349 S 0.79905 0.55176 0.13349 0.0
N350 N 0.84442 0.52646 0.11247 0.0
N351 N 0.7588 0.58215 0.11222 0.0
C352 C 0.78193 0.57298 0.08643 0.0
C353 C 0.82823 0.54266 0.08657 0.0
C354 C 0.88195 0.7625 0.41231 0.0
C355 C 0.84668 0.76638 0.38778 0.0
C356 C 0.95714 0.79499 0.41323 0.0
C357 C -0.00053 0.83151 0.38948 0.0
H358 H 0.85152 0.7366 0.43129 0.0
H359 H -0.01787 0.79168 0.43275 0.0
S360 S 0.9329 0.84941 0.31887 0.0
N361 N 0.85934 0.80379 0.33821 0.0
N362 N 0.00072 0.86464 0.33998 0.0
C363 C 0.96467 0.83177 0.36421 0.0
C364 C 0.88814 0.7987 0.36327 0.0
C365 C 0.21186 0.18068 0.41556 0.0
C366 C 0.18937 0.19777 0.39013 0.0
C367 C 0.2435 0.1369 0.41553 0.0
C368 C 0.25249 0.1072 0.39018 0.0
H369 H 0.20359 0.19982 0.43581 0.0
H370 H 0.25715 0.12302 0.43573 0.0
S371 S 0.21616 0.14756 0.3173 0.0
N372 N 0.18861 0.19093 0.33846 0.0
N373 N 0.24746 0.10796 0.33848 0.0
C374 C 0.23672 0.12963 0.36436 0.0
C375 C 0.20471 0.17455 0.36434 0.0
C376 C 0.8663 0.12343 0.41344 0.0
C377 C 0.90175 0.15852 0.38828 0.0
C378 C 0.81944 0.04844 0.41406 0.0
C379 C 0.80522 0.00586 0.38942 0.0
H380 H 0.87745 0.15344 0.43315 0.0
H381 H 0.79544 0.0236 0.4342 0.0
S382 S 0.87407 0.07293 0.31695 0.0
N383 N 0.91202 0.14624 0.33723 0.0
N384 N 0.82314 0.00516 0.33838 0.0
C385 C 0.83523 0.04096 0.36357 0.0
C386 C 0.88335 0.11744 0.36297 0.0
C387 C 0.14304 0.63986 0.41666 0.0
C388 C 0.13391 0.67212 0.39225 0.0
C389 C 0.11607 0.56509 0.41781 0.0
C390 C 0.07898 0.51993 0.39455 0.0
H391 H 0.17396 0.67287 0.43461 0.0
H392 H 0.1289 0.54357 0.43633 0.0
S393 S 0.02644 0.5757 0.32844 0.0
N394 N 0.07565 0.65231 0.3461 0.0
N395 N 0.02362 0.51084 0.34854 0.0
C396 C 0.06389 0.5506 0.37106 0.0
C397 C 0.09196 0.62702 0.36977 0.0
C398 C 0.37162 0.49736 0.37052 0.0
C399 C 0.33011 0.48681 0.39507 0.0
C400 C 0.44688 0.53997 0.37125 0.0
C401 C 0.4834 0.57501 0.39637 0.0
H402 H 0.3459 0.47343 0.35041 0.0
H403 H 0.4762 0.5485 0.3516 0.0
S404 S 0.40032 0.55484 0.46756 0.0
N405 N 0.3314 0.50693 0.44607 0.0
N406 N 0.47303 0.58788 0.44737 0.0
C407 C 0.44299 0.55985 0.42161 0.0
C408 C 0.36623 0.51607 0.42092 0.0
C409 C 0.47191 0.93254 0.40797 0.0
C410 C 0.40776 0.89505 0.39224 0.0
C411 C 0.52017 0.90603 0.40929 0.0
C412 C 0.5047 0.84157 0.395 0.0
H413 H 0.48485 0.9824 0.41904 0.0
H414 H 0.57034 0.93669 0.42098 0.0
S415 S 0.33766 0.71684 0.35586 0.0
N416 N 0.32656 0.78514 0.36588 0.0
N417 N 0.41864 0.73731 0.36745 0.0
C418 C 0.43965 0.80242 0.38024 0.0
C419 C 0.39056 0.82869 0.37915 0.0
C420 C 0.62622 0.12388 0.74717 0.0
C421 C 0.66794 0.15575 0.72276 0.0
C422 C 0.55107 0.09261 0.7466 0.0
C423 C 0.51498 0.09332 0.72177 0.0
H424 H 0.65174 0.12384 0.76704 0.0
H425 H 0.52147 0.07065 0.7661 0.0
S426 S 0.59865 0.16081 0.65102 0.0
N427 N 0.66717 0.17869 0.6722 0.0
N428 N 0.52588 0.12073 0.67117 0.0
C429 C 0.55552 0.1199 0.69662 0.0
C430 C 0.63211 0.15145 0.69717 0.0
C431 C 0.91403 0.47184 0.74768 0.0
C432 C 0.91787 0.4382 0.7225 0.0
C433 C 0.88338 0.51643 0.7479 0.0
C434 C 0.85675 0.53023 0.72283 0.0
H435 H 0.93121 0.46065 0.76767 0.0
H436 H 0.8793 0.53898 0.76804 0.0
S437 S 0.8675 0.46732 0.65023 0.0
N438 N 0.90233 0.43045 0.67107 0.0
N439 N 0.84528 0.515 0.67145 0.0
C440 C 0.86646 0.50257 0.69704 0.0
C441 C 0.89745 0.45683 0.69684 0.0
C442 C 0.53372 0.45799 0.74432 0.0
C443 C 0.57305 0.49201 0.71969 0.0
C444 C 0.48859 0.38277 0.74532 0.0
C445 C 0.4801 0.33908 0.72152 0.0
H446 H 0.54038 0.48924 0.76341 0.0
H447 H 0.46105 0.35871 0.76506 0.0
S448 S 0.56178 0.40258 0.65036 0.0
N449 N 0.59389 0.47716 0.6698 0.0
N450 N 0.5081 0.33564 0.67163 0.0
C451 C 0.51427 0.37288 0.69601 0.0
C452 C 0.56061 0.44952 0.69503 0.0
C453 C 0.75152 0.89021 0.70319 0.0
C454 C 0.74955 0.85377 0.72828 0.0
C455 C 0.78203 0.96555 0.70283 0.0
C456 C 0.81038 0.00705 0.72771 0.0
H457 H 0.73286 0.86089 0.68334 0.0
H458 H 0.78464 -0.00859 0.68275 0.0
S459 S 0.80521 0.93632 0.80015 0.0
N460 N 0.76892 0.86367 0.77952 0.0
N461 N 0.82569 0.00543 0.7789 0.0
C462 C 0.8026 0.9707 0.75349 0.0
C463 C 0.77175 0.89388 0.75381 0.0
C464 C 0.04168 0.82902 0.70535 0.0
C465 C -0.00088 0.82145 0.72928 0.0
C466 C 0.11681 0.87287 0.70627 0.0
C467 C 0.152 0.91188 0.73096 0.0
H468 H 0.01684 0.80168 0.68557 0.0
H469 H 0.14715 0.87888 0.68708 0.0
S470 S 0.06564 0.90242 0.8006 0.0
N471 N -0.00213 0.84976 0.77933 0.0
N472 N 0.13924 0.93319 0.78102 0.0
C473 C 0.11053 0.90025 0.75572 0.0
C474 C 0.03394 0.8552 0.75482 0.0
C475 C 0.17563 0.22289 0.70407 0.0
C476 C 0.18745 0.19317 0.7287 0.0
C477 C 0.13061 0.25301 0.70455 0.0
C478 C 0.09458 0.25318 0.7295 0.0
H479 H 0.2004 0.22198 0.6841 0.0
H480 H 0.1215 0.27328 0.68489 0.0
S481 S 0.11636 0.19209 0.80079 0.0
N482 N 0.16674 0.17375 0.77957 0.0
N483 N 0.08129 0.22958 0.78041 0.0
C484 C 0.11062 0.22901 0.75483 0.0
C485 C 0.15684 0.19866 0.75439 0.0
C486 C 0.10994 0.38155 0.22665 0.0
C487 C 0.0854 0.39355 0.25272 0.0
C488 C 0.09062 0.40001 0.20074 0.0
C489 C 0.04576 0.43108 0.1999 0.0
H490 H 0.14227 0.3553 0.22631 0.0
H491 H 0.10752 0.38579 0.18128 0.0
S492 S 0.96376 0.46965 0.26216 0.0
N493 N 0.01123 0.43533 0.27599 0.0
N494 N -0.02325 0.47199 0.22753 0.0
C495 C 0.02165 0.44405 0.22591 0.0
C496 C 0.04108 0.42502 0.25223 0.0
C497 C 0.57115 0.63565 0.25001 0.0
C498 C 0.60989 0.71212 0.25159 0.0
C499 C 0.55415 0.59908 0.22371 0.0
C500 C 0.57503 0.63732 0.19792 0.0
H501 H 0.55745 0.60362 0.26915 0.0
H502 H 0.52662 0.54028 0.22348 0.0
S503 S 0.6796 0.83774 0.19035 0.0
N504 N 0.6685 0.82461 0.22495 0.0
N505 N 0.63896 0.756 0.17575 0.0
C506 C 0.61305 0.71366 0.19917 0.0
C507 C 0.62996 0.75089 0.22591 0.0
C508 C 0.29357 0.9214 0.19968 0.0
C509 C 0.36976 0.95861 0.1991 0.0
C510 C 0.25553 0.9045 0.22552 0.0
C511 C 0.29215 0.92355 0.25173 0.0
H512 H 0.26316 0.90883 0.18008 0.0
H513 H 0.19707 0.87821 0.22507 0.0
S514 S 0.49115 0.02264 0.2618 0.0
N515 N 0.48014 0.0138 0.22701 0.0
N516 N 0.40891 -0.0169 0.27543 0.0
C517 C 0.36816 0.95968 0.25144 0.0
C518 C 0.40681 0.977 0.22518 0.0
C519 C 0.39603 0.10488 0.91742 0.0
C520 C 0.42685 0.05976 0.91847 0.0
C521 C 0.37825 0.12426 0.89137 0.0
C522 C 0.39072 0.09956 0.86536 0.0
H523 H 0.38145 0.12184 0.93679 0.0
H524 H 0.35201 0.15664 0.89153 0.0
S525 S 0.46816 0.97858 0.85648 0.0
N526 N 0.46929 -0.00863 0.89113 0.0
N527 N 0.43363 0.02564 0.84243 0.0
C528 C 0.42242 0.05537 0.8661 0.0
C529 C 0.44085 0.03597 0.89256 0.0
C530 C 0.96179 0.41237 0.89383 0.0
C531 C 0.9471 0.37487 0.91971 0.0
C532 C 0.94276 0.37509 0.86767 0.0
C533 C 0.90838 0.2987 0.86639 0.0
H534 H -0.00953 0.47119 0.89385 0.0
H535 H 0.95892 0.4067 0.8484 0.0
S536 S 0.86102 0.17521 0.92803 0.0
N537 N 0.89888 0.25723 0.94231 0.0
N538 N 0.86093 0.18716 0.89341 0.0
C539 C 0.89258 0.26066 0.89219 0.0
C540 C 0.91228 0.29861 0.91876 0.0
C541 C 0.73278 0.63245 0.89009 0.0
C542 C 0.69584 0.61855 0.86405 0.0
C543 C 0.69541 0.61374 0.91609 0.0
C544 C 0.61943 0.58042 0.91708 0.0
H545 H 0.79133 0.6604 0.89033 0.0
H546 H 0.72671 0.62943 0.93548 0.0
S547 S 0.49736 0.53501 0.85497 0.0
N548 N 0.57909 0.57186 0.84099 0.0
N549 N 0.50882 0.53462 0.88963 0.0
C550 C 0.58188 0.56529 0.89113 0.0
C551 C 0.61995 0.58463 0.8647 0.0
C552 C 0.70791 0.78551 0.55776 0.0
C553 C 0.72233 0.76308 0.53162 0.0
C554 C 0.72774 0.76758 0.58366 0.0
C555 C 0.76282 0.72635 0.58445 0.0
H556 H 0.67864 0.81494 0.55815 0.0
H557 H 0.71155 0.78252 0.60313 0.0
S558 S 0.81051 0.65194 0.52201 0.0
N559 N 0.7715 0.69514 0.50825 0.0
N560 N 0.81105 0.66376 0.55671 0.0
C561 C 0.77864 0.70474 0.5584 0.0
C562 C 0.75805 0.72261 0.53207 0.0
C563 C 0.27218 0.03713 0.53431 0.0
C564 C 0.23775 0.96078 0.53279 0.0
C565 C 0.29085 0.0739 0.56055 0.0
C566 C 0.27599 0.036 0.58635 0.0
H567 H 0.28875 0.06917 0.51516 0.0
H568 H 0.31959 0.13273 0.56071 0.0
S569 S 0.18953 0.83611 0.59407 0.0
N570 N 0.18986 0.84872 0.55949 0.0
N571 N 0.22733 0.91785 0.60861 0.0
C572 C 0.24107 0.95972 0.58518 0.0
C573 C 0.22162 0.92225 0.55848 0.0
C574 C 0.92733 0.22934 0.55999 0.0
C575 C 0.96492 0.25299 0.58591 0.0
C576 C 0.96407 0.24788 0.53385 0.0
C577 C 0.04001 0.29108 0.5326 0.0
H578 H 0.86878 0.19834 0.55998 0.0
H579 H 0.93234 0.23173 0.51455 0.0
S580 S 0.16353 0.36932 0.59433 0.0
N581 N 0.08215 0.32414 0.60858 0.0
N582 N 0.15125 0.35688 0.55969 0.0
C583 C 0.07817 0.31401 0.55843 0.0
C584 C 0.04076 0.29543 0.58499 0.0
loop_
_geom_bond_atom_site_label_1
_geom_bond_atom_site_label_2
_geom_bond_distance
_geom_bond_site_symmetry_2
_ccdc_geom_bond_type
Zn0 O1 2.055 . S
Zn0 O8 2.046 1_455 S
Zn0 N16 2.036 . S
Zn0 O28 2.053 1_455 S
Zn0 O30 2.066 . S
O1 Zn0 2.055 . S
O1 C4 1.259 . S
C2 O30 1.256 . S
C2 O31 1.244 . S
Zn3 O5 2.046 1_556 S
Zn3 O7 2.055 1_456 S
Zn3 N9 2.036 . S
Zn3 O27 2.066 1_456 S
Zn3 O31 2.053 1_556 S
C4 O1 1.259 . S
C4 O5 1.254 . S
O5 Zn3 2.046 1_554 S
O5 C4 1.254 . S
C6 O27 1.256 . S
C6 O28 1.244 . S
O7 Zn3 2.055 1_654 S
O7 C29 1.259 . S
O8 Zn0 2.046 1_655 S
O8 C29 1.254 . S
N9 Zn3 2.036 . S
N9 C10 1.298 1_455 S
N9 N12 1.398 . S
C10 N9 1.298 1_655 S
C10 N13 1.367 . S
C10 C23 1.481 . S
C11 N12 1.299 . S
C11 N13 1.379 1_455 S
N12 N9 1.398 . S
N12 C11 1.299 . S
N13 C10 1.367 . S
N13 C11 1.379 1_655 S
C14 N16 1.298 . S
C14 N18 1.367 . S
C14 C22 1.481 . S
C15 N17 1.299 . S
C15 N18 1.379 1_655 S
N16 Zn0 2.036 . S
N16 C14 1.298 . S
N16 N17 1.398 1_455 S
N17 C15 1.299 . S
N17 N16 1.398 1_655 S
N18 C14 1.367 . S
N18 C15 1.379 1_455 S
H19 C22 0.980 . S
H20 C22 0.981 . S
H21 C22 0.981 . S
C22 C14 1.481 . S
C22 H19 0.980 . S
C22 H20 0.981 . S
C22 H21 0.981 . S
C23 C10 1.481 . S
C23 H24 0.980 . S
C23 H25 0.981 . S
C23 H26 0.981 . S
H24 C23 0.980 . S
H25 C23 0.981 . S
H26 C23 0.981 . S
O27 Zn3 2.066 1_654 S
O27 C6 1.256 . S
O28 Zn0 2.053 1_655 S
O28 C6 1.244 . S
C29 O7 1.259 . S
C29 O8 1.254 . S
O30 Zn0 2.066 . S
O30 C2 1.256 . S
O31 C2 1.244 . S
O31 Zn3 2.053 1_554 S
Zn32 O33 2.055 . S
Zn32 O40 2.046 . S
Zn32 N48 2.036 . S
Zn32 O60 2.053 . S
Zn32 O62 2.066 . S
O33 Zn32 2.055 . S
O33 C36 1.259 . S
C34 O62 1.256 . S
C34 O63 1.244 . S
Zn35 O37 2.046 1_556 S
Zn35 O39 2.055 1_556 S
Zn35 N41 2.036 . S
Zn35 O59 2.066 1_556 S
Zn35 O63 2.053 1_556 S
C36 O33 1.259 . S
C36 O37 1.254 . S
O37 Zn35 2.046 1_554 S
O37 C36 1.254 . S
C38 O59 1.256 . S
C38 O60 1.244 . S
O39 Zn35 2.055 1_554 S
O39 C61 1.259 . S
O40 Zn32 2.046 . S
O40 C61 1.254 . S
N41 Zn35 2.036 . S
N41 C42 1.298 . S
N41 N44 1.398 . S
C42 N41 1.298 . S
C42 N45 1.367 . S
C42 C55 1.481 . S
C43 N44 1.299 . S
C43 N45 1.379 . S
N44 N41 1.398 . S
N44 C43 1.299 . S
N45 C42 1.367 . S
N45 C43 1.379 . S
C46 N48 1.298 . S
C46 N50 1.367 . S
C46 C54 1.481 . S
C47 N49 1.299 . S
C47 N50 1.379 . S
N48 Zn32 2.036 . S
N48 C46 1.298 . S
N48 N49 1.398 . S
N49 C47 1.299 . S
N49 N48 1.398 . S
N50 C46 1.367 . S
N50 C47 1.379 . S
H51 C54 0.980 . S
H52 C54 0.981 . S
H53 C54 0.981 . S
C54 C46 1.481 . S
C54 H51 0.980 . S
C54 H52 0.981 . S
C54 H53 0.981 . S
C55 C42 1.481 . S
C55 H56 0.980 . S
C55 H57 0.981 . S
C55 H58 0.981 . S
H56 C55 0.980 . S
H57 C55 0.981 . S
H58 C55 0.981 . S
O59 Zn35 2.066 1_554 S
O59 C38 1.256 . S
O60 Zn32 2.053 . S
O60 C38 1.244 . S
C61 O39 1.259 . S
C61 O40 1.254 . S
O62 Zn32 2.066 . S
O62 C34 1.256 . S
O63 C34 1.244 . S
O63 Zn35 2.053 1_554 S
Zn64 O65 2.055 1_556 S
Zn64 O72 2.046 1_546 S
Zn64 N80 2.036 . S
Zn64 O92 2.053 1_546 S
Zn64 O94 2.066 1_556 S
O65 Zn64 2.055 1_554 S
O65 C68 1.259 . S
C66 O94 1.256 . S
C66 O95 1.244 . S
Zn67 O69 2.046 . S
Zn67 O71 2.055 1_545 S
Zn67 N73 2.036 . S
Zn67 O91 2.066 1_545 S
Zn67 O95 2.053 . S
C68 O65 1.259 . S
C68 O69 1.254 . S
O69 Zn67 2.046 . S
O69 C68 1.254 . S
C70 O91 1.256 . S
C70 O92 1.244 . S
O71 Zn67 2.055 1_565 S
O71 C93 1.259 . S
O72 Zn64 2.046 1_564 S
O72 C93 1.254 . S
N73 Zn67 2.036 . S
N73 C74 1.298 1_545 S
N73 N76 1.398 . S
C74 N73 1.298 1_565 S
C74 N77 1.367 . S
C74 C87 1.481 . S
C75 N76 1.299 . S
C75 N77 1.379 1_545 S
N76 N73 1.398 . S
N76 C75 1.299 . S
N77 C74 1.367 . S
N77 C75 1.379 1_565 S
C78 N80 1.298 . S
C78 N82 1.367 . S
C78 C86 1.481 . S
C79 N81 1.299 . S
C79 N82 1.379 1_565 S
N80 Zn64 2.036 . S
N80 C78 1.298 . S
N80 N81 1.398 1_545 S
N81 C79 1.299 . S
N81 N80 1.398 1_565 S
N82 C78 1.367 . S
N82 C79 1.379 1_545 S
H83 C86 0.980 . S
H84 C86 0.981 . S
H85 C86 0.981 . S
C86 C78 1.481 . S
C86 H83 0.980 . S
C86 H84 0.981 . S
C86 H85 0.981 . S
C87 C74 1.481 . S
C87 H88 0.980 . S
C87 H89 0.981 . S
C87 H90 0.981 . S
H88 C87 0.980 . S
H89 C87 0.981 . S
H90 C87 0.981 . S
O91 Zn67 2.066 1_565 S
O91 C70 1.256 . S
O92 Zn64 2.053 1_564 S
O92 C70 1.244 . S
C93 O71 1.259 . S
C93 O72 1.254 . S
O94 Zn64 2.066 1_554 S
O94 C66 1.256 . S
O95 C66 1.244 . S
O95 Zn67 2.053 . S
Zn96 O97 2.055 . S
Zn96 O104 2.046 . S
Zn96 N112 2.036 . S
Zn96 O124 2.053 . S
Zn96 O126 2.066 . S
O97 Zn96 2.055 . S
O97 C100 1.259 . S
C98 O126 1.256 . S
C98 O127 1.244 . S
Zn99 O101 2.046 . S
Zn99 O103 2.055 . S
Zn99 N105 2.036 . S
Zn99 O123 2.066 . S
Zn99 O127 2.053 . S
C100 O97 1.259 . S
C100 O101 1.254 . S
O101 Zn99 2.046 . S
O101 C100 1.254 . S
C102 O123 1.256 . S
C102 O124 1.244 . S
O103 Zn99 2.055 . S
O103 C125 1.259 . S
O104 Zn96 2.046 . S
O104 C125 1.254 . S
N105 Zn99 2.036 . S
N105 C106 1.298 . S
N105 N108 1.398 . S
C106 N105 1.298 . S
C106 N109 1.367 . S
C106 C119 1.481 . S
C107 N108 1.299 . S
C107 N109 1.379 . S
N108 N105 1.398 . S
N108 C107 1.299 . S
N109 C106 1.367 . S
N109 C107 1.379 . S
C110 N112 1.298 . S
C110 N114 1.367 . S
C110 C118 1.481 . S
C111 N113 1.299 . S
C111 N114 1.379 . S
N112 Zn96 2.036 . S
N112 C110 1.298 . S
N112 N113 1.398 . S
N113 C111 1.299 . S
N113 N112 1.398 . S
N114 C110 1.367 . S
N114 C111 1.379 . S
H115 C118 0.980 . S
H116 C118 0.981 . S
H117 C118 0.981 . S
C118 C110 1.481 . S
C118 H115 0.980 . S
C118 H116 0.981 . S
C118 H117 0.981 . S
C119 C106 1.481 . S
C119 H120 0.980 . S
C119 H121 0.981 . S
C119 H122 0.981 . S
H120 C119 0.980 . S
H121 C119 0.981 . S
H122 C119 0.981 . S
O123 Zn99 2.066 . S
O123 C102 1.256 . S
O124 Zn96 2.053 . S
O124 C102 1.244 . S
C125 O103 1.259 . S
C125 O104 1.254 . S
O126 Zn96 2.066 . S
O126 C98 1.256 . S
O127 C98 1.244 . S
O127 Zn99 2.053 . S
Zn128 O129 2.055 . S
Zn128 O136 2.046 . S
Zn128 N144 2.036 . S
Zn128 O156 2.053 . S
Zn128 O158 2.066 . S
O129 Zn128 2.055 . S
O129 C132 1.259 . S
C130 O158 1.256 . S
C130 O159 1.244 . S
Zn131 O133 2.046 . S
Zn131 O135 2.055 . S
Zn131 N137 2.036 . S
Zn131 O155 2.066 . S
Zn131 O159 2.053 . S
C132 O129 1.259 . S
C132 O133 1.254 . S
O133 Zn131 2.046 . S
O133 C132 1.254 . S
C134 O155 1.256 1_545 S
C134 O156 1.244 1_545 S
O135 Zn131 2.055 . S
O135 C157 1.259 . S
O136 Zn128 2.046 . S
O136 C157 1.254 . S
N137 Zn131 2.036 . S
N137 C138 1.298 . S
N137 N140 1.398 . S
C138 N137 1.298 . S
C138 N141 1.367 . S
C138 C151 1.481 . S
C139 N140 1.299 . S
C139 N141 1.379 . S
N140 N137 1.398 . S
N140 C139 1.299 . S
N141 C138 1.367 . S
N141 C139 1.379 . S
C142 N144 1.298 . S
C142 N146 1.367 . S
C142 C150 1.481 . S
C143 N145 1.299 . S
C143 N146 1.379 . S
N144 Zn128 2.036 . S
N144 C142 1.298 . S
N144 N145 1.398 . S
N145 C143 1.299 . S
N145 N144 1.398 . S
N146 C142 1.367 . S
N146 C143 1.379 . S
H147 C150 0.980 . S
H148 C150 0.981 . S
H149 C150 0.981 . S
C150 C142 1.481 . S
C150 H147 0.980 . S
C150 H148 0.981 . S
C150 H149 0.981 . S
C151 C138 1.481 . S
C151 H152 0.980 . S
C151 H153 0.981 . S
C151 H154 0.981 . S
H152 C151 0.980 . S
H153 C151 0.981 . S
H154 C151 0.981 . S
O155 Zn131 2.066 . S
O155 C134 1.256 1_565 S
O156 Zn128 2.053 . S
O156 C134 1.244 1_565 S
C157 O135 1.259 . S
C157 O136 1.254 . S
O158 Zn128 2.066 . S
O158 C130 1.256 . S
O159 C130 1.244 . S
O159 Zn131 2.053 . S
Zn160 O161 2.055 . S
Zn160 O168 2.046 . S
Zn160 N176 2.036 . S
Zn160 O188 2.053 . S
Zn160 O190 2.066 . S
O161 Zn160 2.055 . S
O161 C164 1.259 . S
C162 O190 1.256 . S
C162 O191 1.244 . S
Zn163 O165 2.046 . S
Zn163 O167 2.055 . S
Zn163 N169 2.036 . S
Zn163 O187 2.066 . S
Zn163 O191 2.053 . S
C164 O161 1.259 . S
C164 O165 1.254 . S
O165 Zn163 2.046 . S
O165 C164 1.254 . S
C166 O187 1.256 . S
C166 O188 1.244 . S
O167 Zn163 2.055 . S
O167 C189 1.259 . S
O168 Zn160 2.046 . S
O168 C189 1.254 . S
N169 Zn163 2.036 . S
N169 C170 1.298 . S
N169 N172 1.398 . S
C170 N169 1.298 . S
C170 N173 1.367 . S
C170 C183 1.481 . S
C171 N172 1.299 . S
C171 N173 1.379 . S
N172 N169 1.398 . S
N172 C171 1.299 . S
N173 C170 1.367 . S
N173 C171 1.379 . S
C174 N176 1.298 . S
C174 N178 1.367 . S
C174 C182 1.481 . S
C175 N177 1.299 . S
C175 N178 1.379 . S
N176 Zn160 2.036 . S
N176 C174 1.298 . S
N176 N177 1.398 . S
N177 C175 1.299 . S
N177 N176 1.398 . S
N178 C174 1.367 . S
N178 C175 1.379 . S
H179 C182 0.980 . S
H180 C182 0.981 . S
H181 C182 0.981 . S
C182 C174 1.481 . S
C182 H179 0.980 . S
C182 H180 0.981 . S
C182 H181 0.981 . S
C183 C170 1.481 . S
C183 H184 0.980 . S
C183 H185 0.981 . S
C183 H186 0.981 . S
H184 C183 0.980 . S
H185 C183 0.981 . S
H186 C183 0.981 . S
O187 Zn163 2.066 . S
O187 C166 1.256 . S
O188 Zn160 2.053 . S
O188 C166 1.244 . S
C189 O167 1.259 . S
C189 O168 1.254 . S
O190 Zn160 2.066 . S
O190 C162 1.256 . S
O191 C162 1.244 . S
O191 Zn163 2.053 . S
Zn192 O193 2.055 . S
Zn192 O200 2.046 . S
Zn192 N208 2.036 . S
Zn192 O220 2.053 . S
Zn192 O222 2.066 . S
O193 Zn192 2.055 . S
O193 C196 1.259 . S
C194 O222 1.256 . S
C194 O223 1.244 . S
Zn195 O197 2.046 . S
Zn195 O199 2.055 . S
Zn195 N201 2.036 . S
Zn195 O219 2.066 . S
Zn195 O223 2.053 . S
C196 O193 1.259 . S
C196 O197 1.254 . S
O197 Zn195 2.046 . S
O197 C196 1.254 . S
C198 O219 1.256 . S
C198 O220 1.244 . S
O199 Zn195 2.055 . S
O199 C221 1.259 . S
O200 Zn192 2.046 . S
O200 C221 1.254 . S
N201 Zn195 2.036 . S
N201 C202 1.298 . S
N201 N204 1.398 . S
C202 N201 1.298 . S
C202 N205 1.367 . S
C202 C215 1.481 . S
C203 N204 1.299 . S
C203 N205 1.379 . S
N204 N201 1.398 . S
N204 C203 1.299 . S
N205 C202 1.367 . S
N205 C203 1.379 . S
C206 N208 1.298 . S
C206 N210 1.367 . S
C206 C214 1.481 . S
C207 N209 1.299 . S
C207 N210 1.379 . S
N208 Zn192 2.036 . S
N208 C206 1.298 . S
N208 N209 1.398 . S
N209 C207 1.299 . S
N209 N208 1.398 . S
N210 C206 1.367 . S
N210 C207 1.379 . S
H211 C214 0.980 . S
H212 C214 0.981 . S
H213 C214 0.981 . S
C214 C206 1.481 . S
C214 H211 0.980 . S
C214 H212 0.981 . S
C214 H213 0.981 . S
C215 C202 1.481 . S
C215 H216 0.980 . S
C215 H217 0.981 . S
C215 H218 0.981 . S
H216 C215 0.980 . S
H217 C215 0.981 . S
H218 C215 0.981 . S
O219 Zn195 2.066 . S
O219 C198 1.256 . S
O220 Zn192 2.053 . S
O220 C198 1.244 . S
C221 O199 1.259 . S
C221 O200 1.254 . S
O222 Zn192 2.066 . S
O222 C194 1.256 . S
O223 C194 1.244 . S
O223 Zn195 2.053 . S
Zn224 O225 2.055 . S
Zn224 O232 2.046 . S
Zn224 N240 2.036 . S
Zn224 O252 2.053 . S
Zn224 O254 2.066 . S
O225 Zn224 2.055 . S
O225 C228 1.259 . S
C226 O254 1.256 1_455 S
C226 O255 1.244 1_455 S
Zn227 O229 2.046 . S
Zn227 O231 2.055 . S
Zn227 N233 2.036 . S
Zn227 O251 2.066 . S
Zn227 O255 2.053 . S
C228 O225 1.259 . S
C228 O229 1.254 . S
O229 Zn227 2.046 . S
O229 C228 1.254 . S
C230 O251 1.256 . S
C230 O252 1.244 . S
O231 Zn227 2.055 . S
O231 C253 1.259 . S
O232 Zn224 2.046 . S
O232 C253 1.254 . S
N233 Zn227 2.036 . S
N233 C234 1.298 . S
N233 N236 1.398 . S
C234 N233 1.298 . S
C234 N237 1.367 . S
C234 C247 1.481 . S
C235 N236 1.299 . S
C235 N237 1.379 . S
N236 N233 1.398 . S
N236 C235 1.299 . S
N237 C234 1.367 . S
N237 C235 1.379 . S
C238 N240 1.298 . S
C238 N242 1.367 . S
C238 C246 1.481 . S
C239 N241 1.299 . S
C239 N242 1.379 . S
N240 Zn224 2.036 . S
N240 C238 1.298 . S
N240 N241 1.398 . S
N241 C239 1.299 . S
N241 N240 1.398 . S
N242 C238 1.367 . S
N242 C239 1.379 . S
H243 C246 0.980 . S
H244 C246 0.981 . S
H245 C246 0.981 . S
C246 C238 1.481 . S
C246 H243 0.980 . S
C246 H244 0.981 . S
C246 H245 0.981 . S
C247 C234 1.481 . S
C247 H248 0.980 . S
C247 H249 0.981 . S
C247 H250 0.981 . S
H248 C247 0.980 . S
H249 C247 0.981 . S
H250 C247 0.981 . S
O251 Zn227 2.066 . S
O251 C230 1.256 . S
O252 Zn224 2.053 . S
O252 C230 1.244 . S
C253 O231 1.259 . S
C253 O232 1.254 . S
O254 Zn224 2.066 . S
O254 C226 1.256 1_655 S
O255 C226 1.244 1_655 S
O255 Zn227 2.053 . S
Zn256 O257 2.055 . S
Zn256 O264 2.046 . S
Zn256 N272 2.036 . S
Zn256 O284 2.053 . S
Zn256 O286 2.066 . S
O257 Zn256 2.055 . S
O257 C260 1.259 . S
C258 O286 1.256 . S
C258 O287 1.244 . S
Zn259 O261 2.046 . S
Zn259 O263 2.055 . S
Zn259 N265 2.036 . S
Zn259 O283 2.066 . S
Zn259 O287 2.053 . S
C260 O257 1.259 . S
C260 O261 1.254 . S
O261 Zn259 2.046 . S
O261 C260 1.254 . S
C262 O283 1.256 . S
C262 O284 1.244 . S
O263 Zn259 2.055 . S
O263 C285 1.259 . S
O264 Zn256 2.046 . S
O264 C285 1.254 . S
N265 Zn259 2.036 . S
N265 C266 1.298 . S
N265 N268 1.398 . S
C266 N265 1.298 . S
C266 N269 1.367 . S
C266 C279 1.481 . S
C267 N268 1.299 . S
C267 N269 1.379 . S
N268 N265 1.398 . S
N268 C267 1.299 . S
N269 C266 1.367 . S
N269 C267 1.379 . S
C270 N272 1.298 . S
C270 N274 1.367 . S
C270 C278 1.481 . S
C271 N273 1.299 . S
C271 N274 1.379 . S
N272 Zn256 2.036 . S
N272 C270 1.298 . S
N272 N273 1.398 . S
N273 C271 1.299 . S
N273 N272 1.398 . S
N274 C270 1.367 . S
N274 C271 1.379 . S
H275 C278 0.980 . S
H276 C278 0.981 . S
H277 C278 0.981 . S
C278 C270 1.481 . S
C278 H275 0.980 . S
C278 H276 0.981 . S
C278 H277 0.981 . S
C279 C266 1.481 . S
C279 H280 0.980 . S
C279 H281 0.981 . S
C279 H282 0.981 . S
H280 C279 0.980 . S
H281 C279 0.981 . S
H282 C279 0.981 . S
O283 Zn259 2.066 . S
O283 C262 1.256 . S
O284 Zn256 2.053 . S
O284 C262 1.244 . S
C285 O263 1.259 . S
C285 O264 1.254 . S
O286 Zn256 2.066 . S
O286 C258 1.256 . S
O287 C258 1.244 . S
O287 Zn259 2.053 . S
C288 C289 1.369 . S
C288 C290 1.419 . S
C288 H292 0.930 . S
C289 C288 1.369 . S
C289 C298 1.429 . S
C290 C288 1.419 . S
C290 C291 1.363 . S
C290 H293 0.929 . S
C291 C290 1.363 . S
C291 C297 1.428 . S
H292 C288 0.930 . S
H293 C290 0.929 . S
S294 N295 1.613 . S
S294 N296 1.610 . S
N295 S294 1.613 . S
N295 C298 1.350 1_556 S
N296 S294 1.610 . S
N296 C297 1.351 1_556 S
C297 C291 1.428 . S
C297 N296 1.351 1_554 S
C297 C298 1.434 . S
C298 C289 1.429 . S
C298 N295 1.350 1_554 S
C298 C297 1.434 . S
C299 C300 1.369 . S
C299 C301 1.419 . S
C299 H303 0.930 . S
C300 C299 1.369 . S
C300 C309 1.429 . S
C301 C299 1.419 . S
C301 C302 1.363 . S
C301 H304 0.929 . S
C302 C301 1.363 . S
C302 C308 1.428 . S
H303 C299 0.930 . S
H304 C301 0.929 . S
S305 N306 1.613 . S
S305 N307 1.610 . S
N306 S305 1.613 . S
N306 C309 1.350 1_556 S
N307 S305 1.610 . S
N307 C308 1.351 1_556 S
C308 C302 1.428 . S
C308 N307 1.351 1_554 S
C308 C309 1.434 . S
C309 C300 1.429 . S
C309 N306 1.350 1_554 S
C309 C308 1.434 . S
C310 C311 1.369 . S
C310 C312 1.419 . S
C310 H314 0.930 1_554 S
C311 C310 1.369 . S
C311 C320 1.429 . S
C312 C310 1.419 . S
C312 C313 1.363 . S
C312 H315 0.929 1_554 S
C313 C312 1.363 . S
C313 C319 1.428 . S
H314 C310 0.930 1_556 S
H315 C312 0.929 1_556 S
S316 N317 1.613 . S
S316 N318 1.610 . S
N317 S316 1.613 . S
N317 C320 1.350 . S
N318 S316 1.610 . S
N318 C319 1.351 . S
C319 C313 1.428 . S
C319 N318 1.351 . S
C319 C320 1.434 . S
C320 C311 1.429 . S
C320 N317 1.350 . S
C320 C319 1.434 . S
C321 C322 1.369 . S
C321 C323 1.419 . S
C321 H325 0.930 . S
C322 C321 1.369 . S
C322 C331 1.429 . S
C323 C321 1.419 . S
C323 C324 1.363 . S
C323 H326 0.929 . S
C324 C323 1.363 . S
C324 C330 1.428 . S
H325 C321 0.930 . S
H326 C323 0.929 . S
S327 N328 1.613 . S
S327 N329 1.610 . S
N328 S327 1.613 . S
N328 C331 1.350 1_556 S
N329 S327 1.610 . S
N329 C330 1.351 1_556 S
C330 C324 1.428 . S
C330 N329 1.351 1_554 S
C330 C331 1.434 . S
C331 C322 1.429 . S
C331 N328 1.350 1_554 S
C331 C330 1.434 . S
C332 C333 1.369 . S
C332 C334 1.419 . S
C332 H336 0.930 . S
C333 C332 1.369 . S
C333 C342 1.429 . S
C334 C332 1.419 . S
C334 C335 1.363 . S
C334 H337 0.929 . S
C335 C334 1.363 . S
C335 C341 1.428 . S
H336 C332 0.930 . S
H337 C334 0.929 . S
S338 N339 1.613 . S
S338 N340 1.610 . S
N339 S338 1.613 . S
N339 C342 1.350 . S
N340 S338 1.610 . S
N340 C341 1.351 . S
C341 C335 1.428 . S
C341 N340 1.351 . S
C341 C342 1.434 . S
C342 C333 1.429 . S
C342 N339 1.350 . S
C342 C341 1.434 . S
C343 C344 1.369 . S
C343 C345 1.419 . S
C343 H347 0.930 1_554 S
C344 C343 1.369 . S
C344 C353 1.429 . S
C345 C343 1.419 . S
C345 C346 1.363 . S
C345 H348 0.929 1_554 S
C346 C345 1.363 . S
C346 C352 1.428 . S
H347 C343 0.930 1_556 S
H348 C345 0.929 1_556 S
S349 N350 1.613 . S
S349 N351 1.610 . S
N350 S349 1.613 . S
N350 C353 1.350 . S
N351 S349 1.610 . S
N351 C352 1.351 . S
C352 C346 1.428 . S
C352 N351 1.351 . S
C352 C353 1.434 . S
C353 C344 1.429 . S
C353 N350 1.350 . S
C353 C352 1.434 . S
C354 C355 1.369 . S
C354 C356 1.419 . S
C354 H358 0.930 . S
C355 C354 1.369 . S
C355 C364 1.429 . S
C356 C354 1.419 . S
C356 C357 1.363 1_655 S
C356 H359 0.929 . S
C357 C356 1.363 1_455 S
C357 C363 1.428 1_455 S
H358 C354 0.930 . S
H359 C356 0.929 . S
S360 N361 1.613 1_545 S
S360 N362 1.610 1_645 S
N361 S360 1.613 1_565 S
N361 C364 1.350 . S
N362 S360 1.610 1_465 S
N362 C363 1.351 1_455 S
C363 C357 1.428 1_655 S
C363 N362 1.351 1_655 S
C363 C364 1.434 . S
C364 C355 1.429 . S
C364 N361 1.350 . S
C364 C363 1.434 . S
C365 C366 1.369 . S
C365 C367 1.419 . S
C365 H369 0.930 . S
C366 C365 1.369 . S
C366 C375 1.429 . S
C367 C365 1.419 . S
C367 C368 1.363 . S
C367 H370 0.929 . S
C368 C367 1.363 . S
C368 C374 1.428 . S
H369 C365 0.930 . S
H370 C367 0.929 . S
S371 N372 1.613 . S
S371 N373 1.610 . S
N372 S371 1.613 . S
N372 C375 1.350 . S
N373 S371 1.610 . S
N373 C374 1.351 . S
C374 C368 1.428 . S
C374 N373 1.351 . S
C374 C375 1.434 . S
C375 C366 1.429 . S
C375 N372 1.350 . S
C375 C374 1.434 . S
C376 C377 1.369 . S
C376 C378 1.419 . S
C376 H380 0.930 . S
C377 C376 1.369 . S
C377 C386 1.429 . S
C378 C376 1.419 . S
C378 C379 1.363 . S
C378 H381 0.929 . S
C379 C378 1.363 . S
C379 C385 1.428 . S
H380 C376 0.930 . S
H381 C378 0.929 . S
S382 N383 1.613 . S
S382 N384 1.610 1_455 S
N383 S382 1.613 . S
N383 C386 1.350 1_455 S
N384 S382 1.610 1_655 S
N384 C385 1.351 . S
C385 C379 1.428 . S
C385 N384 1.351 . S
C385 C386 1.434 . S
C386 C377 1.429 . S
C386 N383 1.350 1_655 S
C386 C385 1.434 . S
C387 C388 1.369 . S
C387 C389 1.419 . S
C387 H391 0.930 . S
C388 C387 1.369 . S
C388 C397 1.429 . S
C389 C387 1.419 . S
C389 C390 1.363 . S
C389 H392 0.929 . S
C390 C389 1.363 . S
C390 C396 1.428 . S
H391 C387 0.930 . S
H392 C389 0.929 . S
S393 N394 1.613 . S
S393 N395 1.610 . S
N394 S393 1.613 . S
N394 C397 1.350 . S
N395 S393 1.610 . S
N395 C396 1.351 . S
C396 C390 1.428 . S
C396 N395 1.351 . S
C396 C397 1.434 . S
C397 C388 1.429 . S
C397 N394 1.350 . S
C397 C396 1.434 . S
C398 C399 1.369 . S
C398 C400 1.419 . S
C398 H402 0.930 . S
C399 C398 1.369 . S
C399 C408 1.429 . S
C400 C398 1.419 . S
C400 C401 1.363 . S
C400 H403 0.929 . S
C401 C400 1.363 . S
C401 C407 1.428 . S
H402 C398 0.930 . S
H403 C400 0.929 . S
S404 N405 1.613 . S
S404 N406 1.610 . S
N405 S404 1.613 . S
N405 C408 1.350 . S
N406 S404 1.610 . S
N406 C407 1.351 . S
C407 C401 1.428 . S
C407 N406 1.351 . S
C407 C408 1.434 . S
C408 C399 1.429 . S
C408 N405 1.350 . S
C408 C407 1.434 . S
C409 C410 1.369 . S
C409 C411 1.419 . S
C409 H413 0.930 . S
C410 C409 1.369 . S
C410 C419 1.429 . S
C411 C409 1.419 . S
C411 C412 1.363 . S
C411 H414 0.929 . S
C412 C411 1.363 . S
C412 C418 1.428 . S
H413 C409 0.930 . S
H414 C411 0.929 . S
S415 N416 1.613 . S
S415 N417 1.610 . S
N416 S415 1.613 . S
N416 C419 1.350 . S
N417 S415 1.610 . S
N417 C418 1.351 . S
C418 C412 1.428 . S
C418 N417 1.351 . S
C418 C419 1.434 . S
C419 C410 1.429 . S
C419 N416 1.350 . S
C419 C418 1.434 . S
C420 C421 1.369 . S
C420 C422 1.419 . S
C420 H424 0.930 . S
C421 C420 1.369 . S
C421 C430 1.429 . S
C422 C420 1.419 . S
C422 C423 1.363 . S
C422 H425 0.929 . S
C423 C422 1.363 . S
C423 C429 1.428 . S
H424 C420 0.930 . S
H425 C422 0.929 . S
S426 N427 1.613 1_565 S
S426 N428 1.610 1_565 S
N427 S426 1.613 1_545 S
N427 C430 1.350 . S
N428 S426 1.610 1_545 S
N428 C429 1.351 . S
C429 C423 1.428 . S
C429 N428 1.351 . S
C429 C430 1.434 . S
C430 C421 1.429 . S
C430 N427 1.350 . S
C430 C429 1.434 . S
C431 C432 1.369 . S
C431 C433 1.419 . S
C431 H435 0.930 . S
C432 C431 1.369 . S
C432 C441 1.429 . S
C433 C431 1.419 . S
C433 C434 1.363 . S
C433 H436 0.929 . S
C434 C433 1.363 . S
C434 C440 1.428 . S
H435 C431 0.930 . S
H436 C433 0.929 . S
S437 N438 1.613 . S
S437 N439 1.610 . S
N438 S437 1.613 . S
N438 C441 1.350 . S
N439 S437 1.610 . S
N439 C440 1.351 . S
C440 C434 1.428 . S
C440 N439 1.351 . S
C440 C441 1.434 . S
C441 C432 1.429 . S
C441 N438 1.350 . S
C441 C440 1.434 . S
C442 C443 1.369 . S
C442 C444 1.419 . S
C442 H446 0.930 . S
C443 C442 1.369 . S
C443 C452 1.429 . S
C444 C442 1.419 . S
C444 C445 1.363 . S
C444 H447 0.929 . S
C445 C444 1.363 . S
C445 C451 1.428 . S
H446 C442 0.930 . S
H447 C444 0.929 . S
S448 N449 1.613 . S
S448 N450 1.610 . S
N449 S448 1.613 . S
N449 C452 1.350 . S
N450 S448 1.610 . S
N450 C451 1.351 . S
C451 C445 1.428 . S
C451 N450 1.351 . S
C451 C452 1.434 . S
C452 C443 1.429 . S
C452 N449 1.350 . S
C452 C451 1.434 . S
C453 C454 1.369 . S
C453 C455 1.419 . S
C453 H457 0.930 . S
C454 C453 1.369 . S
C454 C463 1.429 . S
C455 C453 1.419 . S
C455 C456 1.363 1_565 S
C455 H458 0.929 . S
C456 C455 1.363 1_545 S
C456 C462 1.428 1_545 S
H457 C453 0.930 . S
H458 C455 0.929 . S
S459 N460 1.613 . S
S459 N461 1.610 1_565 S
N460 S459 1.613 . S
N460 C463 1.350 . S
N461 S459 1.610 1_545 S
N461 C462 1.351 1_545 S
C462 C456 1.428 1_565 S
C462 N461 1.351 1_565 S
C462 C463 1.434 . S
C463 C454 1.429 . S
C463 N460 1.350 . S
C463 C462 1.434 . S
C464 C465 1.369 . S
C464 C466 1.419 . S
C464 H468 0.930 . S
C465 C464 1.369 . S
C465 C474 1.429 . S
C466 C464 1.419 . S
C466 C467 1.363 . S
C466 H469 0.929 1_565 S
C467 C466 1.363 . S
C467 C473 1.428 . S
H468 C464 0.930 . S
H469 C466 0.929 1_545 S
S470 N471 1.613 . S
S470 N472 1.610 . S
N471 S470 1.613 . S
N471 C474 1.350 . S
N472 S470 1.610 . S
N472 C473 1.351 . S
C473 C467 1.428 . S
C473 N472 1.351 . S
C473 C474 1.434 . S
C474 C465 1.429 . S
C474 N471 1.350 . S
C474 C473 1.434 . S
C475 C476 1.369 . S
C475 C477 1.419 . S
C475 H479 0.930 . S
C476 C475 1.369 . S
C476 C485 1.429 . S
C477 C475 1.419 . S
C477 C478 1.363 . S
C477 H480 0.929 . S
C478 C477 1.363 . S
C478 C484 1.428 . S
H479 C475 0.930 . S
H480 C477 0.929 . S
S481 N482 1.613 . S
S481 N483 1.610 . S
N482 S481 1.613 . S
N482 C485 1.350 . S
N483 S481 1.610 . S
N483 C484 1.351 . S
C484 C478 1.428 . S
C484 N483 1.351 . S
C484 C485 1.434 . S
C485 C476 1.429 . S
C485 N482 1.350 . S
C485 C484 1.434 . S
C486 C487 1.369 . S
C486 C488 1.419 . S
C486 H490 0.930 . S
C487 C486 1.369 . S
C487 C496 1.429 . S
C488 C486 1.419 . S
C488 C489 1.363 . S
C488 H491 0.929 . S
C489 C488 1.363 . S
C489 C495 1.428 . S
H490 C486 0.930 . S
H491 C488 0.929 . S
S492 N493 1.613 1_655 S
S492 N494 1.610 . S
N493 S492 1.613 1_455 S
N493 C496 1.350 . S
N494 S492 1.610 . S
N494 C495 1.351 1_655 S
C495 C489 1.428 . S
C495 N494 1.351 1_455 S
C495 C496 1.434 . S
C496 C487 1.429 . S
C496 N493 1.350 . S
C496 C495 1.434 . S
C497 C498 1.369 . S
C497 C499 1.419 . S
C497 H501 0.930 . S
C498 C497 1.369 . S
C498 C507 1.429 . S
C499 C497 1.419 . S
C499 C500 1.363 . S
C499 H502 0.929 . S
C500 C499 1.363 . S
C500 C506 1.428 . S
H501 C497 0.930 . S
H502 C499 0.929 . S
S503 N504 1.613 . S
S503 N505 1.610 . S
N504 S503 1.613 . S
N504 C507 1.350 . S
N505 S503 1.610 . S
N505 C506 1.351 . S
C506 C500 1.428 . S
C506 N505 1.351 . S
C506 C507 1.434 . S
C507 C498 1.429 . S
C507 N504 1.350 . S
C507 C506 1.434 . S
C508 C509 1.369 . S
C508 C510 1.419 . S
C508 H512 0.930 . S
C509 C508 1.369 . S
C509 C518 1.429 . S
C510 C508 1.419 . S
C510 C511 1.363 . S
C510 H513 0.929 . S
C511 C510 1.363 . S
C511 C517 1.428 . S
H512 C508 0.930 . S
H513 C510 0.929 . S
S514 N515 1.613 . S
S514 N516 1.610 . S
N515 S514 1.613 . S
N515 C518 1.350 . S
N516 S514 1.610 . S
N516 C517 1.351 . S
C517 C511 1.428 . S
C517 N516 1.351 . S
C517 C518 1.434 . S
C518 C509 1.429 . S
C518 N515 1.350 . S
C518 C517 1.434 . S
C519 C520 1.369 . S
C519 C521 1.419 . S
C519 H523 0.930 . S
C520 C519 1.369 . S
C520 C529 1.429 . S
C521 C519 1.419 . S
C521 C522 1.363 . S
C521 H524 0.929 . S
C522 C521 1.363 . S
C522 C528 1.428 . S
H523 C519 0.930 . S
H524 C521 0.929 . S
S525 N526 1.613 . S
S525 N527 1.610 . S
N526 S525 1.613 . S
N526 C529 1.350 . S
N527 S525 1.610 . S
N527 C528 1.351 . S
C528 C522 1.428 . S
C528 N527 1.351 . S
C528 C529 1.434 . S
C529 C520 1.429 . S
C529 N526 1.350 . S
C529 C528 1.434 . S
C530 C531 1.369 1_455 S
C530 C532 1.419 1_455 S
C530 H534 0.930 . S
C531 C530 1.369 1_655 S
C531 C540 1.429 . S
C532 C530 1.419 1_655 S
C532 C533 1.363 . S
C532 H535 0.929 1_655 S
C533 C532 1.363 . S
C533 C539 1.428 . S
H534 C530 0.930 . S
H535 C532 0.929 1_455 S
S536 N537 1.613 . S
S536 N538 1.610 . S
N537 S536 1.613 . S
N537 C540 1.350 . S
N538 S536 1.610 . S
N538 C539 1.351 . S
C539 C533 1.428 . S
C539 N538 1.351 . S
C539 C540 1.434 . S
C540 C531 1.429 . S
C540 N537 1.350 . S
C540 C539 1.434 . S
C541 C542 1.369 . S
C541 C543 1.419 . S
C541 H545 0.930 . S
C542 C541 1.369 . S
C542 C551 1.429 . S
C543 C541 1.419 . S
C543 C544 1.363 . S
C543 H546 0.929 . S
C544 C543 1.363 . S
C544 C550 1.428 . S
H545 C541 0.930 . S
H546 C543 0.929 . S
S547 N548 1.613 . S
S547 N549 1.610 . S
N548 S547 1.613 . S
N548 C551 1.350 . S
N549 S547 1.610 . S
N549 C550 1.351 . S
C550 C544 1.428 . S
C550 N549 1.351 . S
C550 C551 1.434 . S
C551 C542 1.429 . S
C551 N548 1.350 . S
C551 C550 1.434 . S
C552 C553 1.369 . S
C552 C554 1.419 . S
C552 H556 0.930 . S
C553 C552 1.369 . S
C553 C562 1.429 . S
C554 C552 1.419 . S
C554 C555 1.363 . S
C554 H557 0.929 . S
C555 C554 1.363 . S
C555 C561 1.428 . S
H556 C552 0.930 . S
H557 C554 0.929 . S
S558 N559 1.613 . S
S558 N560 1.610 . S
N559 S558 1.613 . S
N559 C562 1.350 . S
N560 S558 1.610 . S
N560 C561 1.351 . S
C561 C555 1.428 . S
C561 N560 1.351 . S
C561 C562 1.434 . S
C562 C553 1.429 . S
C562 N559 1.350 . S
C562 C561 1.434 . S
C563 C564 1.369 1_545 S
C563 C565 1.419 . S
C563 H567 0.930 . S
C564 C563 1.369 1_565 S
C564 C573 1.429 . S
C565 C563 1.419 . S
C565 C566 1.363 . S
C565 H568 0.929 . S
C566 C565 1.363 . S
C566 C572 1.428 1_545 S
H567 C563 0.930 . S
H568 C565 0.929 . S
S569 N570 1.613 . S
S569 N571 1.610 . S
N570 S569 1.613 . S
N570 C573 1.350 . S
N571 S569 1.610 . S
N571 C572 1.351 . S
C572 C566 1.428 1_565 S
C572 N571 1.351 . S
C572 C573 1.434 . S
C573 C564 1.429 . S
C573 N570 1.350 . S
C573 C572 1.434 . S
C574 C575 1.369 . S
C574 C576 1.419 1_655 S
C574 H578 0.930 . S
C575 C574 1.369 . S
C575 C584 1.429 1_655 S
C576 C574 1.419 1_455 S
C576 C577 1.363 . S
C576 H579 0.929 1_455 S
C577 C576 1.363 . S
C577 C583 1.428 . S
H578 C574 0.930 . S
H579 C576 0.929 1_655 S
S580 N581 1.613 . S
S580 N582 1.610 . S
N581 S580 1.613 . S
N581 C584 1.350 . S
N582 S580 1.610 . S
N582 C583 1.351 . S
C583 C577 1.428 . S
C583 N582 1.351 . S
C583 C584 1.434 . S
C584 C575 1.429 1_455 S
C584 N581 1.350 . S
C584 C583 1.434 . S
C289 C36 1.246 . S
C291 C2 1.228 . S
C300 C93 1.247 . S
C302 C34 1.226 . S
C311 C70 1.227 . S
C313 C4 1.246 . S
C322 C66 1.230 . S
C324 C61 1.245 . S
C333 C68 1.243 . S
C335 C6 1.232 . S
C344 C29 1.247 . S
C346 C38 1.227 . S
C355 C98 1.225 . S
C357 C157 1.247 . S
C366 C164 1.248 . S
C368 C134 1.226 . S
C377 C162 1.227 1_655 S
C379 C100 1.247 1_545 S
C388 C132 1.243 . S
C390 C166 1.231 . S
C399 C189 1.247 . S
C401 C102 1.226 . S
C410 C130 1.225 . S
C412 C125 1.247 . S
C421 C253 1.244 . S
C423 C198 1.232 . S
C432 C230 1.232 . S
C434 C260 1.244 . S
C443 C258 1.230 . S
C445 C221 1.246 . S
C454 C262 1.227 . S
C456 C228 1.247 . S
C465 C285 1.243 1_455 S
C467 C194 1.232 1_565 S
C476 C196 1.243 . S
C478 C226 1.232 . S
C487 N173 1.802 . S
C489 N18 1.802 . S
C498 N109 1.805 . S
C500 N50 1.803 . S
C509 N77 1.808 . S
C511 N146 1.807 . S
C520 N82 1.807 . S
C522 N205 1.805 . S
C531 N13 1.807 . S
C533 N237 1.808 . S
C542 N274 1.802 . S
C544 N45 1.803 . S
C553 N114 1.802 . S
C555 N269 1.804 . S
C564 N141 1.806 . S
C566 N210 1.804 . S
C575 N242 1.804 . S
C577 N178 1.806 . S
