# Generated by pormake.
# Topology sma, (6)-cn, num edge types: 1
# Building blocks:
#     Node 0, Type 0, BuildingBlock: PAMTUU_clean_sbu_0, # of connection points: 6
#     Node 1, Type 0, BuildingBlock: PAMTUU_clean_sbu_0, # of connection points: 6
#     Node 2, Type 0, BuildingBlock: PAMTUU_clean_sbu_0, # of connection points: 6
#     Edge 3, Type (0, 0), BuildingBlock: EZIPEK_clean_linker_0, # of connection points: 2
#     Edge 4, Type (0, 0), BuildingBlock: EZIPEK_clean_linker_0, # of connection points: 2
#     Edge 5, Type (0, 0), BuildingBlock: EZIPEK_clean_linker_0, # of connection points: 2
#     Edge 6, Type (0, 0), BuildingBlock: EZIPEK_clean_linker_0, # of connection points: 2
#     Edge 7, Type (0, 0), BuildingBlock: EZIPEK_clean_linker_0, # of connection points: 2
#     Edge 8, Type (0, 0), BuildingBlock: EZIPEK_clean_linker_0, # of connection points: 2
#     Edge 9, Type (0, 0), BuildingBlock: EZIPEK_clean_linker_0, # of connection points: 2
#     Edge 10, Type (0, 0), BuildingBlock: EZIPEK_clean_linker_0, # of connection points: 2
#     Edge 11, Type (0, 0), BuildingBlock: EZIPEK_clean_linker_0, # of connection points: 2
# Relax obj value: 0.048
# Max RMSD: 0.161
# Mean RMSD: 0.155
data_MOF--net-sma--node1-PAMTUU_clean_sbu_0--edge1-EZIPEK_clean_linker_0
_symmetry_space_group_name_H-M    P1
_symmetry_Int_Tables_number       1
_symmetry_cell_setting            triclinic
loop_
_symmetry_equiv_pos_as_xyz
'x, y, z'
_cell_length_a     31.483452
_cell_length_b     31.804111
_cell_length_c     10.917082
_cell_angle_alpha  97.133013
_cell_angle_beta   90.673897
_cell_angle_gamma 119.96516
loop_
_atom_site_label
_atom_site_type_symbol
_atom_site_fract_x
_atom_site_fract_y
_atom_site_fract_z
_atom_type_partial_charge
Tb0 Tb 1.046 0.57162 0.15881 0.0
Tb1 Tb 0.11516 0.52043 0.15737 0.0
C2 C 0.07183 0.53188 0.91901 0.0
C3 C 0.94582 0.59855 0.08338 0.0
C4 C 0.85593 0.58114 -0.02721 0.0
C5 C 0.89111 0.57893 0.89878 0.0
C6 C 0.93573 0.58752 -0.04643 0.0
C7 C 0.91016 0.60009 0.15684 0.0
C8 C 0.86554 0.59129 0.10207 0.0
C9 C 0.99392 0.61106 0.14367 0.0
O10 O 0.99423 0.49669 0.18658 0.0
O11 O 1.04035 0.4586 0.15136 0.0
O12 O 0.08916 0.51963 0.34016 0.0
O13 O 0.07869 0.58635 0.34772 0.0
O14 O 0.1318 0.47029 0.05746 0.0
O15 O 0.17273 0.51348 0.2315 0.0
O16 O 0.1658 0.59778 0.21764 0.0
O17 O 0.1211 0.6292 0.13916 0.0
O18 O 1.03506 0.52869 -0.02067 0.0
O19 O 0.1132 0.54539 -0.0175 0.0
C20 C 0.99905 0.45759 0.17681 0.0
O21 O 0.99308 0.58718 0.2334 0.0
O22 O 1.02863 0.61689 0.07162 0.0
C23 C 0.08371 0.55444 0.40285 0.0
C24 C 0.21647 0.49591 0.07697 0.0
C25 C 0.30588 0.51572 -0.02135 0.0
C26 C 0.3017 0.55372 0.04688 0.0
C27 C 0.25722 0.54396 0.09533 0.0
C28 C 0.22042 0.45835 0.0055 0.0
C29 C 0.26477 0.46817 -0.04346 0.0
C30 C 0.17011 0.48381 0.13377 0.0
C31 C 0.16246 0.63457 0.18638 0.0
H32 H 0.88416 0.571 0.79881 0.0
H33 H 0.96245 0.5861 0.89422 0.0
H34 H 0.9171 0.60874 0.2568 0.0
H35 H 0.8387 0.59303 0.16045 0.0
H36 H 0.33321 0.59057 0.06536 0.0
H37 H 0.25509 0.5737 0.14932 0.0
H38 H 0.18943 0.42114 -0.01021 0.0
H39 H 0.26753 0.4384 0.90483 0.0
Tb40 Tb 0.55703 1.01763 0.48704 0.0
Tb41 Tb 0.67862 0.09045 0.5096 0.0
C42 C 0.61575 0.04963 0.26283 0.0
C43 C 0.42552 0.91249 0.4061 0.0
C44 C 0.34267 0.82102 0.31068 0.0
C45 C 0.36557 0.85733 0.23439 0.0
C46 C 0.40666 0.9028 0.28176 0.0
C47 C 0.40315 0.87534 0.48078 0.0
C48 C 0.36219 0.83002 0.4334 0.0
C49 C 0.46438 0.96238 0.46274 0.0
O50 O 0.58556 0.97064 0.5264 0.0
O51 O 0.66532 1.01539 0.47311 0.0
O52 O 0.65897 0.06274 0.68348 0.0
O53 O 0.58128 0.0522 0.67766 0.0
O54 O 0.74498 0.10576 0.43451 0.0
O55 O 0.74416 0.15261 0.59369 0.0
O56 O 0.65072 0.13907 0.56982 0.0
O57 O 0.57007 0.09169 0.48574 0.0
O58 O 0.586 1.01054 0.31115 0.0
O59 O 0.64586 0.09053 0.33481 0.0
C60 C 0.62866 0.97527 0.50575 0.0
O61 O 0.49261 0.96563 0.55587 0.0
O62 O 0.48911 0.99412 0.38931 0.0
C63 C 0.61994 0.05679 0.73835 0.0
C64 C 0.80034 0.19038 0.44653 0.0
C65 C 0.8584 0.27342 0.33186 0.0
C66 C 0.87963 0.26139 0.42538 0.0
C67 C 0.85082 0.22006 0.48204 0.0
C68 C 0.77904 0.20218 0.35235 0.0
C69 C 0.80795 0.2434 0.29508 0.0
C70 C 0.7703 0.14729 0.50794 0.0
C71 C 0.60766 0.13371 0.53876 0.0
H72 H 0.35067 0.85101 0.13964 0.0
H73 H 0.42261 0.93079 0.22216 0.0
H74 H 0.41628 0.88185 0.57728 0.0
H75 H 0.34471 0.80245 0.49365 0.0
H76 H 0.9184 0.2845 0.45581 0.0
H77 H 0.86785 0.21156 0.55449 0.0
H78 H 0.74004 0.17981 0.32412 0.0
H79 H 0.79086 0.2525 0.22419 0.0
Tb80 Tb 0.55562 0.48962 0.77306 0.0
Tb81 Tb 0.60571 0.6099 0.82002 0.0
C82 C 0.56673 0.5477 0.56069 0.0
C83 C 0.53846 0.36294 0.70538 0.0
C84 C 0.56756 0.29248 0.65576 0.0
C85 C 0.60063 0.3419 0.64667 0.0
C86 C 0.58622 0.37701 0.67171 0.0
C87 C 0.50596 0.31374 0.71724 0.0
C88 C 0.52044 0.27875 0.69289 0.0
C89 C 0.52053 0.39793 0.71885 0.0
O90 O 0.63347 0.5218 0.74277 0.0
O91 O 0.66344 0.59512 0.87129 0.0
O92 O 0.59398 0.58838 0.00256 0.0
O93 O 0.58507 0.51159 -0.0341 0.0
O94 O 0.66237 0.6778 0.782 0.0
O95 O 0.60521 0.67386 0.89534 0.0
O96 O 0.52622 0.57939 0.79136 0.0
O97 O 0.49912 0.50303 0.84758 0.0
O98 O 0.53419 0.51229 0.61523 0.0
O99 O 0.60503 0.58474 0.62641 0.0
C100 C 0.66931 0.55961 0.81483 0.0
O101 O 0.52313 0.41976 0.83015 0.0
O102 O 0.53412 0.42826 0.63839 0.0
C103 C 0.59306 0.55059 0.04257 0.0
C104 C 0.63841 0.73762 0.77147 0.0
C105 C 0.63526 0.81072 0.65563 0.0
C106 C 0.62279 0.80545 0.77795 0.0
C107 C 0.62435 0.76927 0.8353 0.0
C108 C 0.65024 0.74248 0.648 0.0
C109 C 0.64859 0.77873 0.5905 0.0
C110 C 0.64291 0.70194 0.83787 0.0
C111 C 0.49234 0.53968 0.83228 0.0
H112 H 0.63721 0.35306 0.6186 0.0
H113 H 0.61188 0.41483 0.66199 0.0
H114 H 0.46896 0.3022 0.74263 0.0
H115 H 0.49459 0.24076 0.70061 0.0
H116 H 0.61277 0.83007 0.82986 0.0
H117 H 0.61545 0.7666 -0.06936 0.0
H118 H 0.66163 0.71895 0.59657 0.0
H119 H 0.65873 0.78256 0.49634 0.0
C120 C 0.3684 0.53501 0.82062 0.0
C121 C 0.35457 0.52445 -0.05872 0.0
C122 C 0.43398 0.53166 -0.00567 0.0
C123 C 0.44577 0.53681 0.8697 0.0
N124 N 0.42205 0.53783 0.65973 0.0
N125 N 0.37092 0.50624 0.13856 0.0
C126 C 0.41256 0.53738 0.78159 0.0
C127 C 0.38647 0.52096 0.02687 0.0
N128 N 0.33959 0.54334 0.74413 0.0
N129 N 0.46899 0.53915 0.08321 0.0
H130 H 0.33697 0.49947 0.16801 0.0
H131 H 0.39001 0.49704 0.1982 0.0
H132 H 0.50458 0.54825 0.06401 0.0
H133 H 0.46448 0.54128 0.17769 0.0
H134 H 0.35005 0.55631 0.66018 0.0
H135 H 0.30659 0.54083 0.76911 0.0
H136 H 0.39691 0.53299 0.5888 0.0
H137 H 0.45374 0.53926 0.62766 0.0
C138 C 0.89853 0.36467 0.35308 0.0
C139 C 0.88859 0.32005 0.28132 0.0
C140 C 0.9413 0.36606 0.12566 0.0
C141 C 0.95742 0.41067 0.20725 0.0
N142 N 0.95593 0.45105 0.40919 0.0
N143 N 0.90192 0.27717 0.10196 0.0
C144 C 0.93677 0.40973 0.3231 0.0
C145 C 0.9101 0.32037 0.1677 0.0
N146 N 0.87128 0.36402 0.45024 0.0
N147 N 0.95465 0.36748 0.00692 0.0
H148 H 0.87827 0.2431 0.12844 0.0
H149 H 0.92088 0.27525 0.02594 0.0
H150 H 0.97619 0.40034 -0.02754 0.0
H151 H 0.94056 0.33656 -0.06062 0.0
H152 H 0.87315 0.39553 0.49744 0.0
H153 H 0.8433 0.33161 0.47605 0.0
H154 H 0.94651 0.45092 0.50033 0.0
H155 H 0.98465 0.48473 0.39394 0.0
C156 C 0.6745 0.94133 0.61216 0.0
C157 C 0.63606 0.93375 0.52609 0.0
C158 C 0.59877 0.84442 0.51626 0.0
C159 C 0.63761 0.85223 0.60022 0.0
N160 N 0.71882 0.90673 0.70158 0.0
N161 N 0.56956 0.87854 0.37197 0.0
C162 C 0.67758 0.9003 0.63923 0.0
C163 C 0.60063 0.88532 0.47056 0.0
N164 N 0.70628 0.98707 0.67484 0.0
N165 N 0.55925 0.79821 0.48381 0.0
H166 H 0.57108 0.90775 0.33396 0.0
H167 H 0.54589 0.84438 0.32016 0.0
H168 H 0.55715 0.76732 0.51342 0.0
H169 H 0.52717 0.7909 0.43458 0.0
H170 H 0.73021 0.9933 0.75052 0.0
H171 H 0.70669 1.01872 0.65842 0.0
H172 H 0.7513 0.9405 0.72066 0.0
H173 H 0.72223 0.8775 0.72372 0.0
C174 C 0.71901 0.52273 0.88356 0.0
C175 C 0.7172 0.56189 0.83763 0.0
C176 C 0.80716 0.61293 0.87353 0.0
C177 C 0.80892 0.57338 0.91589 0.0
N178 N 0.76869 0.48741 -0.06669 0.0
N179 N 0.76014 0.63883 0.75838 0.0
C180 C 0.76547 0.52718 0.91152 0.0
C181 C 0.76154 0.60541 0.82344 0.0
N182 N 0.67678 0.48256 0.90824 0.0
N183 N 0.84876 0.65813 0.88487 0.0
H184 H 0.72753 0.63363 0.71674 0.0
H185 H 0.79151 0.66901 0.73471 0.0
H186 H 0.88309 0.6648 0.91818 0.0
H187 H 0.84864 0.68974 0.8695 0.0
H188 H 0.6765 0.45601 -0.04417 0.0
H189 H 0.64179 0.47726 0.89065 0.0
H190 H 0.73895 0.45161 0.91799 0.0
H191 H 0.80211 0.48958 -0.04428 0.0
C192 C 0.25095 0.77014 0.30461 0.0
C193 C 0.29582 0.77488 0.26632 0.0
C194 C 0.25098 0.69095 0.1536 0.0
C195 C 0.20732 0.68401 0.20652 0.0
N196 N 0.16718 0.71523 0.34682 0.0
N197 N 0.3401 0.73907 0.16348 0.0
C198 C 0.20747 0.72326 0.28494 0.0
C199 C 0.29629 0.73514 0.19269 0.0
N200 N 0.24978 0.81068 0.35861 0.0
N201 N 0.24881 0.65594 0.06308 0.0
H202 H 0.37388 0.77125 0.18823 0.0
H203 H 0.34332 0.70953 0.12251 0.0
H204 H 0.21605 0.62372 0.02989 0.0
H205 H 0.2784 0.66076 0.01269 0.0
H206 H 0.21728 0.81055 0.37624 0.0
H207 H 0.281 0.84563 0.37536 0.0
H208 H 0.16738 0.74091 0.41637 0.0
H209 H 0.13465 0.68147 0.33701 0.0
C210 C 0.57364 0.23091 0.49991 0.0
C211 C 0.58161 0.2545 0.62409 0.0
C212 C 0.60629 0.19873 0.6929 0.0
C213 C 0.60067 0.1766 0.56775 0.0
N214 N 0.58889 0.17795 0.34995 0.0
N215 N 0.61397 0.26765 0.83509 0.0
C216 C 0.5871 0.19448 0.47049 0.0
C217 C 0.60069 0.24054 0.7194 0.0
N218 N 0.55208 0.24248 0.41064 0.0
N219 N 0.61438 0.17831 0.78713 0.0
H220 H 0.6094 0.29789 0.85843 0.0
H221 H 0.63323 0.26281 0.90494 0.0
H222 H 0.61845 0.1476 0.77253 0.0
H223 H 0.61301 0.1892 0.88025 0.0
H224 H 0.53992 0.22263 0.32178 0.0
H225 H 0.5432 0.27007 0.42774 0.0
H226 H 0.58444 0.19315 0.27512 0.0
H227 H 0.59932 0.15187 0.32494 0.0
C228 C 1.03306 0.53353 0.71537 0.0
C229 C 0.07044 0.53046 0.78104 0.0
C230 C 0.11946 0.55028 0.60183 0.0
C231 C 0.08351 0.5562 0.53951 0.0
N232 N 1.0123 0.56642 0.55213 0.0
N233 N 0.13681 0.51345 0.7612 0.0
C234 C 1.04249 0.5523 0.60119 0.0
C235 C 0.1105 0.53281 0.71749 0.0
N236 N 0.98654 0.51294 0.75322 0.0
N237 N 0.16326 0.56336 0.55218 0.0
H238 H 0.12628 0.49339 0.83486 0.0
H239 H 0.16397 0.51052 0.71388 0.0
H240 H 0.17177 0.57845 0.47005 0.0
H241 H 0.19299 0.56462 0.59899 0.0
H242 H 0.95705 0.51123 0.70389 0.0
H243 H 0.9751 0.48975 0.82027 0.0
H244 H 0.98555 0.56951 0.60122 0.0
H245 H 1.01667 0.57965 0.46815 0.0
C246 C 0.57249 1.02115 0.04695 0.0
C247 C 0.61646 0.04832 0.12694 0.0
C248 C 0.66103 0.08617 -0.04631 0.0
C249 C 0.61892 0.0538 0.87162 0.0
N250 N 0.53991 0.97849 0.8402 0.0
N251 N 0.70552 0.09195 0.14084 0.0
C252 C 0.57609 1.01755 0.91786 0.0
C253 C 0.66178 0.07665 0.07601 0.0
N254 N 0.52733 1.00093 0.09203 0.0
N255 N 0.69961 0.12665 0.91743 0.0
H256 H 0.70715 0.0796 0.22358 0.0
H257 H 0.73929 0.11034 0.1034 0.0
H258 H 0.69919 0.13714 0.83089 0.0
H259 H 0.72932 0.15276 -0.02085 0.0
H260 H 0.49468 0.98388 0.03454 0.0
H261 H 0.52256 1.00684 0.1852 0.0
H262 H 0.50972 0.94959 0.87247 0.0
H263 H 0.54362 0.97174 0.74632 0.0
C264 C 0.55387 0.50173 0.34411 0.0
C265 C 0.56463 0.5454 0.4235 0.0
C266 C 0.60606 0.59378 0.2601 0.0
C267 C 0.59435 0.55017 0.17966 0.0
N268 N 0.58026 0.46784 0.17199 0.0
N269 N 0.58589 0.62996 0.44122 0.0
C270 C 0.57471 0.50536 0.22862 0.0
C271 C 0.58633 0.59057 0.37653 0.0
N272 N 0.5218 0.45667 0.37443 0.0
N273 N 0.63987 0.63837 0.23015 0.0
H274 H 0.56891 0.62774 0.52368 0.0
H275 H 0.59688 0.66252 0.40581 0.0
H276 H 0.6601 0.64156 0.15326 0.0
H277 H 0.65291 0.67126 0.29011 0.0
H278 H 0.51027 0.42409 0.3143 0.0
H279 H 0.50046 0.4518 0.44901 0.0
H280 H 0.56972 0.43578 0.20946 0.0
H281 H 0.60314 0.47214 0.10073 0.0
loop_
_geom_bond_atom_site_label_1
_geom_bond_atom_site_label_2
_geom_bond_distance
_geom_bond_site_symmetry_2
_ccdc_geom_bond_type
Tb0 C9 2.764 . S
Tb0 O10 2.325 . S
Tb0 O13 2.303 1_655 S
Tb0 O17 2.322 1_655 S
Tb0 O18 2.349 1_654 S
Tb0 O21 2.415 . S
Tb0 O22 2.399 . S
Tb1 O11 2.322 1_455 S
Tb1 O12 2.349 . S
Tb1 O14 2.415 . S
Tb1 O15 2.399 . S
Tb1 O16 2.325 . S
Tb1 O19 2.303 1_554 S
Tb1 C30 2.764 . S
C2 O18 1.261 . S
C2 O19 1.257 . S
C3 C6 1.358 . S
C3 C7 1.332 . S
C3 C9 1.504 . S
C4 C5 1.373 . S
C4 C8 1.308 . S
C5 C4 1.373 . S
C5 C6 1.429 . S
C5 H32 0.932 . S
C6 C3 1.358 . S
C6 C5 1.429 . S
C6 H33 0.930 . S
C7 C3 1.332 . S
C7 C8 1.394 . S
C7 H34 0.932 . S
C8 C4 1.308 . S
C8 C7 1.394 . S
C8 H35 0.929 . S
C9 Tb0 2.764 . S
C9 C3 1.504 . S
C9 O21 1.239 . S
C9 O22 1.263 . S
O10 Tb0 2.325 . S
O10 C20 1.236 . S
O11 Tb1 2.322 1_655 S
O11 C20 1.257 . S
O12 Tb1 2.349 . S
O12 C23 1.261 . S
O13 Tb0 2.303 1_455 S
O13 C23 1.257 . S
O14 Tb1 2.415 . S
O14 C30 1.239 . S
O15 Tb1 2.399 . S
O15 C30 1.263 . S
O16 Tb1 2.325 . S
O16 C31 1.236 . S
O17 Tb0 2.322 1_455 S
O17 C31 1.257 . S
O18 Tb0 2.349 1_456 S
O18 C2 1.261 . S
O19 Tb1 2.303 1_556 S
O19 C2 1.257 . S
C20 O10 1.236 . S
C20 O11 1.257 . S
O21 Tb0 2.415 . S
O21 C9 1.239 . S
O22 Tb0 2.399 . S
O22 C9 1.263 . S
C23 O12 1.261 . S
C23 O13 1.257 . S
C24 C27 1.358 . S
C24 C28 1.332 . S
C24 C30 1.504 . S
C25 C26 1.373 . S
C25 C29 1.308 1_554 S
C26 C25 1.373 . S
C26 C27 1.429 . S
C26 H36 0.932 . S
C27 C24 1.358 . S
C27 C26 1.429 . S
C27 H37 0.930 . S
C28 C24 1.332 . S
C28 C29 1.394 1_554 S
C28 H38 0.932 1_554 S
C29 C25 1.308 1_556 S
C29 C28 1.394 1_556 S
C29 H39 0.929 . S
C30 Tb1 2.764 . S
C30 O14 1.239 . S
C30 O15 1.263 . S
C30 C24 1.504 . S
C31 O16 1.236 . S
C31 O17 1.257 . S
H32 C5 0.932 . S
H33 C6 0.930 . S
H34 C7 0.932 . S
H35 C8 0.929 . S
H36 C26 0.932 . S
H37 C27 0.930 . S
H38 C28 0.932 1_556 S
H39 C29 0.929 . S
Tb40 C49 2.764 . S
Tb40 O50 2.325 . S
Tb40 O53 2.303 1_565 S
Tb40 O57 2.322 1_565 S
Tb40 O58 2.349 . S
Tb40 O61 2.415 . S
Tb40 O62 2.399 . S
Tb41 O51 2.322 1_545 S
Tb41 O52 2.349 . S
Tb41 O54 2.415 . S
Tb41 O55 2.399 . S
Tb41 O56 2.325 . S
Tb41 O59 2.303 . S
Tb41 C70 2.764 . S
C42 O58 1.261 1_545 S
C42 O59 1.257 . S
C43 C46 1.358 . S
C43 C47 1.332 . S
C43 C49 1.504 . S
C44 C45 1.373 . S
C44 C48 1.308 . S
C45 C44 1.373 . S
C45 C46 1.429 . S
C45 H72 0.932 . S
C46 C43 1.358 . S
C46 C45 1.429 . S
C46 H73 0.930 . S
C47 C43 1.332 . S
C47 C48 1.394 . S
C47 H74 0.932 . S
C48 C44 1.308 . S
C48 C47 1.394 . S
C48 H75 0.929 . S
C49 Tb40 2.764 . S
C49 C43 1.504 . S
C49 O61 1.239 . S
C49 O62 1.263 . S
O50 Tb40 2.325 . S
O50 C60 1.236 . S
O51 Tb41 2.322 1_565 S
O51 C60 1.257 . S
O52 Tb41 2.349 . S
O52 C63 1.261 . S
O53 Tb40 2.303 1_545 S
O53 C63 1.257 . S
O54 Tb41 2.415 . S
O54 C70 1.239 . S
O55 Tb41 2.399 . S
O55 C70 1.263 . S
O56 Tb41 2.325 . S
O56 C71 1.236 . S
O57 Tb40 2.322 1_545 S
O57 C71 1.257 . S
O58 Tb40 2.349 . S
O58 C42 1.261 1_565 S
O59 Tb41 2.303 . S
O59 C42 1.257 . S
C60 O50 1.236 . S
C60 O51 1.257 . S
O61 Tb40 2.415 . S
O61 C49 1.239 . S
O62 Tb40 2.399 . S
O62 C49 1.263 . S
C63 O52 1.261 . S
C63 O53 1.257 . S
C64 C67 1.358 . S
C64 C68 1.332 . S
C64 C70 1.504 . S
C65 C66 1.373 . S
C65 C69 1.308 . S
C66 C65 1.373 . S
C66 C67 1.429 . S
C66 H76 0.932 . S
C67 C64 1.358 . S
C67 C66 1.429 . S
C67 H77 0.930 . S
C68 C64 1.332 . S
C68 C69 1.394 . S
C68 H78 0.932 . S
C69 C65 1.308 . S
C69 C68 1.394 . S
C69 H79 0.929 . S
C70 Tb41 2.764 . S
C70 O54 1.239 . S
C70 O55 1.263 . S
C70 C64 1.504 . S
C71 O56 1.236 . S
C71 O57 1.257 . S
H72 C45 0.932 . S
H73 C46 0.930 . S
H74 C47 0.932 . S
H75 C48 0.929 . S
H76 C66 0.932 . S
H77 C67 0.930 . S
H78 C68 0.932 . S
H79 C69 0.929 . S
Tb80 C89 2.764 . S
Tb80 O90 2.325 . S
Tb80 O93 2.303 . S
Tb80 O97 2.322 . S
Tb80 O98 2.349 . S
Tb80 O101 2.415 . S
Tb80 O102 2.399 . S
Tb81 O91 2.322 . S
Tb81 O92 2.349 1_556 S
Tb81 O94 2.415 . S
Tb81 O95 2.399 . S
Tb81 O96 2.325 . S
Tb81 O99 2.303 . S
Tb81 C110 2.764 . S
C82 O98 1.261 . S
C82 O99 1.257 . S
C83 C86 1.358 . S
C83 C87 1.332 . S
C83 C89 1.504 . S
C84 C85 1.373 . S
C84 C88 1.308 . S
C85 C84 1.373 . S
C85 C86 1.429 . S
C85 H112 0.932 . S
C86 C83 1.358 . S
C86 C85 1.429 . S
C86 H113 0.930 . S
C87 C83 1.332 . S
C87 C88 1.394 . S
C87 H114 0.932 1_556 S
C88 C84 1.308 . S
C88 C87 1.394 . S
C88 H115 0.929 1_556 S
C89 Tb80 2.764 . S
C89 C83 1.504 . S
C89 O101 1.239 . S
C89 O102 1.263 . S
O90 Tb80 2.325 . S
O90 C100 1.236 . S
O91 Tb81 2.322 . S
O91 C100 1.257 . S
O92 Tb81 2.349 1_554 S
O92 C103 1.261 . S
O93 Tb80 2.303 . S
O93 C103 1.257 1_556 S
O94 Tb81 2.415 . S
O94 C110 1.239 . S
O95 Tb81 2.399 . S
O95 C110 1.263 . S
O96 Tb81 2.325 . S
O96 C111 1.236 . S
O97 Tb80 2.322 . S
O97 C111 1.257 . S
O98 Tb80 2.349 . S
O98 C82 1.261 . S
O99 Tb81 2.303 . S
O99 C82 1.257 . S
C100 O90 1.236 . S
C100 O91 1.257 . S
O101 Tb80 2.415 . S
O101 C89 1.239 . S
O102 Tb80 2.399 . S
O102 C89 1.263 . S
C103 O92 1.261 . S
C103 O93 1.257 1_554 S
C104 C107 1.358 . S
C104 C108 1.332 . S
C104 C110 1.504 . S
C105 C106 1.373 . S
C105 C109 1.308 . S
C106 C105 1.373 . S
C106 C107 1.429 . S
C106 H116 0.932 1_556 S
C107 C104 1.358 . S
C107 C106 1.429 . S
C107 H117 0.930 1_556 S
C108 C104 1.332 . S
C108 C109 1.394 . S
C108 H118 0.932 . S
C109 C105 1.308 . S
C109 C108 1.394 . S
C109 H119 0.929 . S
C110 Tb81 2.764 . S
C110 O94 1.239 . S
C110 O95 1.263 . S
C110 C104 1.504 . S
C111 O96 1.236 . S
C111 O97 1.257 . S
H112 C85 0.932 . S
H113 C86 0.930 . S
H114 C87 0.932 1_554 S
H115 C88 0.929 1_554 S
H116 C106 0.932 1_554 S
H117 C107 0.930 1_554 S
H118 C108 0.932 . S
H119 C109 0.929 . S
C120 C121 1.363 1_556 S
C120 C126 1.379 . S
C120 N128 1.356 . S
C121 C120 1.363 1_554 S
C121 C127 1.363 . S
C122 C123 1.363 . S
C122 C127 1.379 1_556 S
C122 N129 1.356 . S
C123 C122 1.363 . S
C123 C126 1.363 . S
N124 C126 1.356 . S
N124 H136 0.984 . S
N124 H137 0.985 . S
N125 C127 1.356 . S
N125 H130 0.984 . S
N125 H131 0.985 . S
C126 C120 1.379 . S
C126 C123 1.363 . S
C126 N124 1.356 . S
C127 C121 1.363 . S
C127 C122 1.379 1_554 S
C127 N125 1.356 . S
N128 C120 1.356 . S
N128 H134 0.984 . S
N128 H135 0.984 . S
N129 C122 1.356 . S
N129 H132 0.984 . S
N129 H133 0.985 1_556 S
H130 N125 0.984 . S
H131 N125 0.985 . S
H132 N129 0.984 . S
H133 N129 0.985 1_554 S
H134 N128 0.984 . S
H135 N128 0.984 . S
H136 N124 0.984 . S
H137 N124 0.985 . S
C138 C139 1.363 . S
C138 C144 1.379 . S
C138 N146 1.356 . S
C139 C138 1.363 . S
C139 C145 1.363 . S
C140 C141 1.363 . S
C140 C145 1.379 . S
C140 N147 1.356 . S
C141 C140 1.363 . S
C141 C144 1.363 . S
N142 C144 1.356 . S
N142 H154 0.984 . S
N142 H155 0.985 . S
N143 C145 1.356 . S
N143 H148 0.984 . S
N143 H149 0.985 . S
C144 C138 1.379 . S
C144 C141 1.363 . S
C144 N142 1.356 . S
C145 C139 1.363 . S
C145 C140 1.379 . S
C145 N143 1.356 . S
N146 C138 1.356 . S
N146 H152 0.984 . S
N146 H153 0.984 . S
N147 C140 1.356 . S
N147 H150 0.984 . S
N147 H151 0.985 . S
H148 N143 0.984 . S
H149 N143 0.985 . S
H150 N147 0.984 . S
H151 N147 0.985 . S
H152 N146 0.984 . S
H153 N146 0.984 . S
H154 N142 0.984 . S
H155 N142 0.985 . S
C156 C157 1.363 . S
C156 C162 1.379 . S
C156 N164 1.356 . S
C157 C156 1.363 . S
C157 C163 1.363 . S
C158 C159 1.363 . S
C158 C163 1.379 . S
C158 N165 1.356 . S
C159 C158 1.363 . S
C159 C162 1.363 . S
N160 C162 1.356 . S
N160 H172 0.984 . S
N160 H173 0.985 . S
N161 C163 1.356 . S
N161 H166 0.984 . S
N161 H167 0.985 . S
C162 C156 1.379 . S
C162 C159 1.363 . S
C162 N160 1.356 . S
C163 C157 1.363 . S
C163 C158 1.379 . S
C163 N161 1.356 . S
N164 C156 1.356 . S
N164 H170 0.984 . S
N164 H171 0.984 . S
N165 C158 1.356 . S
N165 H168 0.984 . S
N165 H169 0.985 . S
H166 N161 0.984 . S
H167 N161 0.985 . S
H168 N165 0.984 . S
H169 N165 0.985 . S
H170 N164 0.984 . S
H171 N164 0.984 . S
H172 N160 0.984 . S
H173 N160 0.985 . S
C174 C175 1.363 1_554 S
C174 C180 1.379 . S
C174 N182 1.356 1_554 S
C175 C174 1.363 1_556 S
C175 C181 1.363 . S
C176 C177 1.363 . S
C176 C181 1.379 1_554 S
C176 N183 1.356 . S
C177 C176 1.363 . S
C177 C180 1.363 . S
N178 C180 1.356 . S
N178 H190 0.984 . S
N178 H191 0.985 . S
N179 C181 1.356 . S
N179 H184 0.984 . S
N179 H185 0.985 . S
C180 C174 1.379 . S
C180 C177 1.363 . S
C180 N178 1.356 . S
C181 C175 1.363 . S
C181 C176 1.379 1_556 S
C181 N179 1.356 . S
N182 C174 1.356 1_556 S
N182 H188 0.984 1_556 S
N182 H189 0.984 . S
N183 C176 1.356 . S
N183 H186 0.984 . S
N183 H187 0.985 . S
H184 N179 0.984 . S
H185 N179 0.985 . S
H186 N183 0.984 . S
H187 N183 0.985 . S
H188 N182 0.984 1_554 S
H189 N182 0.984 . S
H190 N178 0.984 . S
H191 N178 0.985 . S
C192 C193 1.363 . S
C192 C198 1.379 . S
C192 N200 1.356 . S
C193 C192 1.363 . S
C193 C199 1.363 . S
C194 C195 1.363 . S
C194 C199 1.379 . S
C194 N201 1.356 . S
C195 C194 1.363 . S
C195 C198 1.363 . S
N196 C198 1.356 . S
N196 H208 0.984 . S
N196 H209 0.985 . S
N197 C199 1.356 . S
N197 H202 0.984 . S
N197 H203 0.985 . S
C198 C192 1.379 . S
C198 C195 1.363 . S
C198 N196 1.356 . S
C199 C193 1.363 . S
C199 C194 1.379 . S
C199 N197 1.356 . S
N200 C192 1.356 . S
N200 H206 0.984 . S
N200 H207 0.984 . S
N201 C194 1.356 . S
N201 H204 0.984 . S
N201 H205 0.985 . S
H202 N197 0.984 . S
H203 N197 0.985 . S
H204 N201 0.984 . S
H205 N201 0.985 . S
H206 N200 0.984 . S
H207 N200 0.984 . S
H208 N196 0.984 . S
H209 N196 0.985 . S
C210 C211 1.363 . S
C210 C216 1.379 . S
C210 N218 1.356 . S
C211 C210 1.363 . S
C211 C217 1.363 . S
C212 C213 1.363 . S
C212 C217 1.379 . S
C212 N219 1.356 . S
C213 C212 1.363 . S
C213 C216 1.363 . S
N214 C216 1.356 . S
N214 H226 0.984 . S
N214 H227 0.985 . S
N215 C217 1.356 . S
N215 H220 0.984 . S
N215 H221 0.985 . S
C216 C210 1.379 . S
C216 C213 1.363 . S
C216 N214 1.356 . S
C217 C211 1.363 . S
C217 C212 1.379 . S
C217 N215 1.356 . S
N218 C210 1.356 . S
N218 H224 0.984 . S
N218 H225 0.984 . S
N219 C212 1.356 . S
N219 H222 0.984 . S
N219 H223 0.985 . S
H220 N215 0.984 . S
H221 N215 0.985 . S
H222 N219 0.984 . S
H223 N219 0.985 . S
H224 N218 0.984 . S
H225 N218 0.984 . S
H226 N214 0.984 . S
H227 N214 0.985 . S
C228 C229 1.363 . S
C228 C234 1.379 . S
C228 N236 1.356 . S
C229 C228 1.363 . S
C229 C235 1.363 . S
C230 C231 1.363 . S
C230 C235 1.379 . S
C230 N237 1.356 . S
C231 C230 1.363 . S
C231 C234 1.363 . S
N232 C234 1.356 . S
N232 H244 0.984 . S
N232 H245 0.985 . S
N233 C235 1.356 . S
N233 H238 0.984 . S
N233 H239 0.985 . S
C234 C228 1.379 . S
C234 C231 1.363 . S
C234 N232 1.356 . S
C235 C229 1.363 . S
C235 C230 1.379 . S
C235 N233 1.356 . S
N236 C228 1.356 . S
N236 H242 0.984 . S
N236 H243 0.984 . S
N237 C230 1.356 . S
N237 H240 0.984 . S
N237 H241 0.985 . S
H238 N233 0.984 . S
H239 N233 0.985 . S
H240 N237 0.984 . S
H241 N237 0.985 . S
H242 N236 0.984 . S
H243 N236 0.984 . S
H244 N232 0.984 . S
H245 N232 0.985 . S
C246 C247 1.363 1_565 S
C246 C252 1.379 1_554 S
C246 N254 1.356 . S
C247 C246 1.363 1_545 S
C247 C253 1.363 . S
C248 C249 1.363 . S
C248 C253 1.379 1_556 S
C248 N255 1.356 . S
C249 C248 1.363 . S
C249 C252 1.363 1_545 S
N250 C252 1.356 . S
N250 H262 0.984 . S
N250 H263 0.985 . S
N251 C253 1.356 . S
N251 H256 0.984 . S
N251 H257 0.985 . S
C252 C246 1.379 1_556 S
C252 C249 1.363 1_565 S
C252 N250 1.356 . S
C253 C247 1.363 . S
C253 C248 1.379 1_554 S
C253 N251 1.356 . S
N254 C246 1.356 . S
N254 H260 0.984 . S
N254 H261 0.984 . S
N255 C248 1.356 . S
N255 H258 0.984 . S
N255 H259 0.985 . S
H256 N251 0.984 . S
H257 N251 0.985 . S
H258 N255 0.984 . S
H259 N255 0.985 . S
H260 N254 0.984 . S
H261 N254 0.984 . S
H262 N250 0.984 . S
H263 N250 0.985 . S
C264 C265 1.363 . S
C264 C270 1.379 . S
C264 N272 1.356 . S
C265 C264 1.363 . S
C265 C271 1.363 . S
C266 C267 1.363 . S
C266 C271 1.379 . S
C266 N273 1.356 . S
C267 C266 1.363 . S
C267 C270 1.363 . S
N268 C270 1.356 . S
N268 H280 0.984 . S
N268 H281 0.985 . S
N269 C271 1.356 . S
N269 H274 0.984 . S
N269 H275 0.985 . S
C270 C264 1.379 . S
C270 C267 1.363 . S
C270 N268 1.356 . S
C271 C265 1.363 . S
C271 C266 1.379 . S
C271 N269 1.356 . S
N272 C264 1.356 . S
N272 H278 0.984 . S
N272 H279 0.984 . S
N273 C266 1.356 . S
N273 H276 0.984 . S
N273 H277 0.985 . S
H274 N269 0.984 . S
H275 N269 0.985 . S
H276 N273 0.984 . S
H277 N273 0.985 . S
H278 N272 0.984 . S
H279 N272 0.984 . S
H280 N268 0.984 . S
H281 N268 0.985 . S
C121 C25 1.787 . S
C123 C111 1.727 . S
C139 C65 1.959 . S
C141 C20 1.990 . S
C157 C60 1.999 . S
C159 C105 1.959 . S
C175 C100 2.075 . S
C177 C4 2.005 . S
C193 C44 1.787 . S
C195 C31 1.753 . S
C211 C84 1.785 . S
C213 C71 1.742 . S
C229 C2 0.790 . S
C231 C23 0.790 . S
C247 C42 0.771 . S
C249 C63 0.771 . S
C265 C82 0.791 . S
C267 C103 0.791 . S
