# Generated by pormake.
# Topology qtz-e, (6)-cn, num edge types: 1
# Building blocks:
#     Node 0, Type 0, BuildingBlock: INOVEN_clean_sbu_0, # of connection points: 6
#     Node 1, Type 0, BuildingBlock: INOVEN_clean_sbu_0, # of connection points: 6
#     Node 2, Type 0, BuildingBlock: INOVEN_clean_sbu_0, # of connection points: 6
#     Node 3, Type 0, BuildingBlock: INOVEN_clean_sbu_0, # of connection points: 6
#     Node 4, Type 0, BuildingBlock: INOVEN_clean_sbu_0, # of connection points: 6
#     Node 5, Type 0, BuildingBlock: INOVEN_clean_sbu_0, # of connection points: 6
#     Edge 6, Type (0, 0), BuildingBlock: ZUJKAS_clean_linker_0, # of connection points: 2
#     Edge 7, Type (0, 0), BuildingBlock: ZUJKAS_clean_linker_0, # of connection points: 2
#     Edge 8, Type (0, 0), BuildingBlock: ZUJKAS_clean_linker_0, # of connection points: 2
#     Edge 9, Type (0, 0), BuildingBlock: ZUJKAS_clean_linker_0, # of connection points: 2
#     Edge 10, Type (0, 0), BuildingBlock: ZUJKAS_clean_linker_0, # of connection points: 2
#     Edge 11, Type (0, 0), BuildingBlock: ZUJKAS_clean_linker_0, # of connection points: 2
#     Edge 12, Type (0, 0), BuildingBlock: ZUJKAS_clean_linker_0, # of connection points: 2
#     Edge 13, Type (0, 0), BuildingBlock: ZUJKAS_clean_linker_0, # of connection points: 2
#     Edge 14, Type (0, 0), BuildingBlock: ZUJKAS_clean_linker_0, # of connection points: 2
#     Edge 15, Type (0, 0), BuildingBlock: ZUJKAS_clean_linker_0, # of connection points: 2
#     Edge 16, Type (0, 0), BuildingBlock: ZUJKAS_clean_linker_0, # of connection points: 2
#     Edge 17, Type (0, 0), BuildingBlock: ZUJKAS_clean_linker_0, # of connection points: 2
#     Edge 18, Type (0, 0), BuildingBlock: ZUJKAS_clean_linker_0, # of connection points: 2
#     Edge 19, Type (0, 0), BuildingBlock: ZUJKAS_clean_linker_0, # of connection points: 2
#     Edge 20, Type (0, 0), BuildingBlock: ZUJKAS_clean_linker_0, # of connection points: 2
#     Edge 21, Type (0, 0), BuildingBlock: ZUJKAS_clean_linker_0, # of connection points: 2
#     Edge 22, Type (0, 0), BuildingBlock: ZUJKAS_clean_linker_0, # of connection points: 2
#     Edge 23, Type (0, 0), BuildingBlock: ZUJKAS_clean_linker_0, # of connection points: 2
# Relax obj value: 0.097
# Max RMSD: 0.171
# Mean RMSD: 0.171
data_MOF--net-qtz-e--node1-INOVEN_clean_sbu_0--edge1-ZUJKAS_clean_linker_0
_symmetry_space_group_name_H-M    P1
_symmetry_Int_Tables_number       1
_symmetry_cell_setting            triclinic
loop_
_symmetry_equiv_pos_as_xyz
'x, y, z'
_cell_length_a     33.417312
_cell_length_b     33.308921
_cell_length_c     62.634533
_cell_angle_alpha  89.712165
_cell_angle_beta   90.260417
_cell_angle_gamma 120.06132
loop_
_atom_site_label
_atom_site_type_symbol
_atom_site_fract_x
_atom_site_fract_y
_atom_site_fract_z
_atom_type_partial_charge
Gd0 Gd 0.20858 0.46012 0.05446 0.0
Gd1 Gd 0.16388 0.36013 0.03858 0.0
C2 C 0.13743 0.37312 0.08564 0.0
C3 C 0.2208 0.53642 0.07088 0.0
C4 C 0.22167 0.55336 0.09266 0.0
C5 C 0.24757 0.54809 0.10903 0.0
C6 C 0.19461 0.57348 0.09737 0.0
C7 C 0.21957 0.58334 0.13454 0.0
C8 C 0.19344 0.58822 0.11809 0.0
C9 C 0.24671 0.56315 0.12972 0.0
C10 C 0.26005 0.42034 0.06038 0.0
C11 C 0.23566 0.44646 1.00796 0.0
C12 C 0.14885 0.28396 0.02076 0.0
C13 C 0.16402 0.27297 1.00059 0.0
C14 C 0.13196 0.23621 0.9879 0.0
C15 C 0.20973 0.30009 0.99335 0.0
C16 C 0.19084 0.25428 0.96078 0.0
C17 C 0.22298 0.29086 0.97366 0.0
C18 C 0.1452 0.22692 0.96819 0.0
C19 C 0.11666 0.40514 0.03173 0.0
O20 O 0.15999 0.41823 0.08141 0.0
O21 O 0.1368 0.34248 0.07207 0.0
O22 O 0.25501 0.53002 0.06542 0.0
O23 O 0.18051 0.50321 0.06435 0.0
O24 O 0.27701 0.46431 0.05691 0.0
O25 O 0.21687 0.40004 0.06294 0.0
O26 O 0.2188 0.40243 1.01358 0.0
O27 O 0.22939 0.47519 0.0201 0.0
O28 O 0.12074 0.30039 0.01878 0.0
O29 O 0.18067 0.30555 0.03538 0.0
O30 O 0.09637 0.36178 0.03744 0.0
O31 O 0.15905 0.42069 0.02967 0.0
H32 H 0.2684 0.53223 0.10588 0.0
H33 H 0.1739 0.57732 0.08504 0.0
H34 H 0.17149 0.60279 0.12127 0.0
H35 H 0.26771 0.55935 0.14189 0.0
H36 H 0.09652 0.2149 0.99315 0.0
H37 H 0.23514 0.32885 1.00277 0.0
H38 H 0.25821 0.31307 0.96834 0.0
H39 H 0.1197 0.19816 0.95881 0.0
Gd40 Gd 0.72331 0.20794 0.38614 0.0
Gd41 Gd 0.8011 0.18955 0.37481 0.0
C42 C 0.7593 0.15744 0.42094 0.0
C43 C 0.64728 0.20029 0.40033 0.0
C44 C 0.62854 0.19909 0.42189 0.0
C45 C 0.62338 0.23636 0.4287 0.0
C46 C 0.617 0.16196 0.43607 0.0
C47 C 0.59716 0.20035 0.46365 0.0
C48 C 0.60135 0.16255 0.4567 0.0
C49 C 0.60811 0.23712 0.44937 0.0
C50 C 0.80795 0.27879 0.39473 0.0
C51 C 0.7679 0.24231 0.3409 0.0
C52 C 0.87457 0.19468 0.35857 0.0
C53 C 0.89767 0.21035 0.33753 0.0
C54 C 0.90653 0.18048 0.32529 0.0
C55 C 0.9087 0.25377 0.32893 0.0
C56 C 0.93547 0.23639 0.29589 0.0
C57 C 0.92722 0.26657 0.30835 0.0
C58 C 0.92524 0.19331 0.30474 0.0
C59 C 0.71398 0.12114 0.3665 0.0
O60 O 0.72652 0.16612 0.41437 0.0
O61 O 0.79617 0.16844 0.40914 0.0
O62 O 0.68278 0.23991 0.39448 0.0
O63 O 0.65125 0.1646 0.39472 0.0
O64 O 0.77373 0.28371 0.38832 0.0
O65 O 0.79528 0.23661 0.39766 0.0
O66 O 0.80243 0.23808 0.3488 0.0
O67 O 0.72823 0.22532 0.35122 0.0
O68 O 0.83418 0.15672 0.35835 0.0
O69 O 0.87569 0.22644 0.37124 0.0
O70 O 0.74514 0.11331 0.37476 0.0
O71 O 0.73082 0.16359 0.36315 0.0
H72 H 0.6317 0.26527 0.41808 0.0
H73 H 0.62052 0.13264 0.43137 0.0
H74 H 0.59349 0.13385 0.46737 0.0
H75 H 0.60461 0.26642 0.45414 0.0
H76 H 0.89843 0.14685 0.33154 0.0
H77 H 0.90232 0.27763 0.33795 0.0
H78 H 0.93409 0.29975 0.30205 0.0
H79 H 0.93181 0.16946 0.29581 0.0
Gd80 Gd 0.53066 0.73318 0.72243 0.0
Gd81 Gd 0.62565 0.8145 0.70924 0.0
C82 C 0.61325 0.77721 0.75698 0.0
C83 C 0.45903 0.6552 0.7324 0.0
C84 C 0.43983 0.6326 0.75328 0.0
C85 C 0.39599 0.62394 0.7597 0.0
C86 C 0.46582 0.62158 0.76744 0.0
C87 C 0.40517 0.59534 0.79426 0.0
C88 C 0.44856 0.60293 0.78762 0.0
C89 C 0.37893 0.60573 0.78 0.0
C90 C 0.54831 0.81752 0.73563 0.0
C91 C 0.54044 0.77144 0.67456 0.0
C92 C 0.69265 0.88848 0.69214 0.0
C93 C 0.69813 0.9145 0.67214 0.0
C94 C 0.74217 0.94122 0.66318 0.0
C95 C 0.65953 0.90992 0.66097 0.0
C96 C 0.70892 0.95685 0.63157 0.0
C97 C 0.66482 0.9307 0.64088 0.0
C98 C 0.74758 0.96236 0.64318 0.0
C99 C 0.61663 0.72935 0.70975 0.0
O100 O 0.57703 0.739 0.74969 0.0
O101 O 0.63494 0.81529 0.74509 0.0
O102 O 0.45665 0.69254 0.72804 0.0
O103 O 0.49862 0.65907 0.72687 0.0
O104 O 0.52592 0.77981 0.74678 0.0
O105 O 0.55892 0.80847 0.71773 0.0
O106 O 0.58438 0.80114 0.67886 0.0
O107 O 0.51211 0.74131 0.68882 0.0
O108 O 0.68707 0.84703 0.68959 0.0
O109 O 0.66516 0.88964 0.70673 0.0
O110 O 0.6532 0.76594 0.71688 0.0
O111 O 0.58791 0.74019 0.70298 0.0
H112 H 0.37522 0.63203 0.74913 0.0
H113 H 0.49991 0.62805 0.76313 0.0
H114 H 0.46984 0.59575 0.79829 0.0
H115 H 0.34516 0.59981 0.78456 0.0
H116 H 0.77242 0.94512 0.67149 0.0
H117 H 0.62515 0.88944 0.66755 0.0
H118 H 0.63413 0.92509 0.63241 0.0
H119 H 0.78216 0.98289 0.6368 0.0
Gd120 Gd 0.79323 0.53003 0.05162 0.0
Gd121 Gd 0.77653 0.61092 0.04559 0.0
C122 C 0.81139 0.60219 0.09131 0.0
C123 C 0.82704 0.47918 0.06411 0.0
C124 C 0.82587 0.46073 0.08565 0.0
C125 C 0.79685 0.46294 0.10115 0.0
C126 C 0.85316 0.44108 0.09101 0.0
C127 C 0.82097 0.42451 0.12705 0.0
C128 C 0.85077 0.42311 0.11159 0.0
C129 C 0.79446 0.44512 0.1216 0.0
C130 C 0.70585 0.50855 0.0591 0.0
C131 C 0.75871 0.53854 1.006 0.0
C132 C 0.74495 0.66429 0.0336 0.0
C133 C 0.73348 0.6766 1.01258 0.0
C134 C 0.75245 0.72341 1.00682 0.0
C135 C 0.70603 0.64227 0.99766 0.0
C136 C 0.71853 0.70147 0.97117 0.0
C137 C 0.69885 0.65453 0.97719 0.0
C138 C 0.745 0.73574 0.98638 0.0
C139 C 0.86271 0.62792 0.03738 0.0
O140 O 0.8197 0.57125 0.08228 0.0
O141 O 0.78901 0.61974 0.08098 0.0
O142 O 0.78666 0.46227 0.05479 0.0
O143 O 0.85221 0.52433 0.06216 0.0
O144 O 0.71741 0.48016 0.051 0.0
O145 O 0.7411 0.54617 0.06449 0.0
O146 O 0.74823 0.56802 1.01513 0.0
O147 O 0.78372 0.5238 1.01616 0.0
O148 O 0.78884 0.6794 0.03703 0.0
O149 O 0.71836 0.62171 0.04044 0.0
O150 O 0.85489 0.65708 0.04757 0.0
O151 O 0.82551 0.59285 0.03225 0.0
H152 H 0.77581 0.4784 0.09738 0.0
H153 H 0.87595 0.43932 0.07928 0.0
H154 H 0.87153 0.40734 0.11525 0.0
H155 H 0.77194 0.44774 0.1332 0.0
H156 H 0.77364 0.75053 1.01805 0.0
H157 H 0.69081 0.60586 1.00164 0.0
H158 H 0.6788 0.62708 0.96591 0.0
H159 H 0.76003 0.7722 0.98253 0.0
Gd160 Gd 0.2496 0.79354 0.38956 0.0
Gd161 Gd 0.15588 0.78062 0.37959 0.0
C162 C 0.19621 0.82255 0.4246 0.0
C163 C 0.33253 0.82384 0.40369 0.0
C164 C 0.34937 0.8215 0.42515 0.0
C165 C 0.32011 0.78672 0.4395 0.0
C166 C 0.39406 0.85458 0.43167 0.0
C167 C 0.38045 0.81745 0.46671 0.0
C168 C 0.4095 0.85262 0.45229 0.0
C169 C 0.33555 0.78452 0.45999 0.0
C170 C 0.18022 0.70918 0.40057 0.0
C171 C 0.20964 0.75154 0.34465 0.0
C172 C 0.0732 0.75197 0.3651 0.0
C173 C 0.05161 0.74258 0.34358 0.0
C174 C 0.07108 0.77508 0.32687 0.0
C175 C 0.01114 0.70023 0.33957 0.0
C176 C 0.00963 0.72311 0.3026 0.0
C177 C -0.00953 0.6905 0.3193 0.0
C178 C 0.05018 0.76555 0.30666 0.0
C179 C 0.22902 0.86415 0.36902 0.0
O180 O 0.23583 0.83018 0.41643 0.0
O181 O 0.15666 0.79647 0.41449 0.0
O182 O 0.3087 0.78415 0.39385 0.0
O183 O 0.31393 0.85013 0.40189 0.0
O184 O 0.22009 0.71747 0.39381 0.0
O185 O 0.17941 0.74637 0.40276 0.0
O186 O 0.16963 0.74379 0.3525 0.0
O187 O 0.24879 0.77823 0.35484 0.0
O188 O 0.10222 0.79532 0.36986 0.0
O189 O 0.08727 0.72379 0.37176 0.0
O190 O 0.19238 0.85963 0.37826 0.0
O191 O 0.22485 0.82513 0.36627 0.0
H192 H 0.28525 0.76107 0.43484 0.0
H193 H 0.41689 0.88202 0.42088 0.0
H194 H 0.444 0.87899 0.45699 0.0
H195 H 0.3124 0.75654 0.47045 0.0
H196 H 0.10257 0.80787 0.32936 0.0
H197 H -0.00452 0.67457 0.35215 0.0
H198 H 0.95907 0.65765 0.31679 0.0
H199 H 0.0662 0.79117 0.2941 0.0
Gd200 Gd 0.44207 0.24973 0.72277 0.0
Gd201 Gd 0.34645 0.17272 0.70826 0.0
C202 C 0.35744 0.20754 0.75602 0.0
C203 C 0.51735 0.32423 0.73319 0.0
C204 C 0.54058 0.3423 0.75386 0.0
C205 C 0.52935 0.31261 0.77156 0.0
C206 C 0.5725 0.38966 0.75632 0.0
C207 C 0.58208 0.3774 0.79401 0.0
C208 C 0.59301 0.40714 0.77624 0.0
C209 C 0.55003 0.32992 0.7914 0.0
C210 C 0.41989 0.16331 0.73545 0.0
C211 C 0.43218 0.2129 0.67452 0.0
C212 C 0.27556 0.10245 0.69117 0.0
C213 C 0.26668 0.07355 0.67203 0.0
C214 C 0.22402 0.05568 0.66154 0.0
C215 C 0.30121 0.06657 0.66315 0.0
C216 C 0.25066 0.02503 0.6331 0.0
C217 C 0.29325 0.04246 0.6439 0.0
C218 C 0.21605 0.03169 0.6423 0.0
C219 C 0.36062 0.26015 0.70889 0.0
O220 O 0.39501 0.24542 0.7494 0.0
O221 O 0.33606 0.17017 0.74383 0.0
O222 O 0.51656 0.28672 0.72625 0.0
O223 O 0.47759 0.32267 0.73091 0.0
O224 O 0.44299 0.20021 0.74691 0.0
O225 O 0.41096 0.17412 0.71749 0.0
O226 O 0.38897 0.18122 0.67897 0.0
O227 O 0.45916 0.24479 0.6885 0.0
O228 O 0.28702 0.14553 0.68731 0.0
O229 O 0.30001 0.0983 0.70659 0.0
O230 O 0.32287 0.22453 0.71571 0.0
O231 O 0.38779 0.24729 0.70244 0.0
H232 H 0.50423 0.27605 0.7701 0.0
H233 H 0.58135 0.41312 0.74285 0.0
H234 H 0.61772 0.44383 0.77768 0.0
H235 H 0.54019 0.3062 0.80481 0.0
H236 H 0.19715 0.06122 0.668 0.0
H237 H 0.33456 0.08038 0.67092 0.0
H238 H 0.32053 0.03757 0.63746 0.0
H239 H 0.18316 0.01956 0.63433 0.0
H240 H 0.14049 0.71372 0.31488 0.0
H241 H 0.1427 0.68303 0.27984 0.0
H242 H 0.28234 0.71347 0.29198 0.0
H243 H 0.28094 0.74564 0.32679 0.0
H244 H 0.27493 0.74096 0.25315 0.0
H245 H 0.13196 0.5609 0.26517 0.0
H246 H 0.11419 0.60278 0.26972 0.0
H247 H 0.15696 0.60155 0.28688 0.0
C248 C 0.17159 0.71361 0.31016 0.0
C249 C 0.21053 0.73198 0.32364 0.0
C250 C 0.17267 0.69573 0.29017 0.0
C251 C 0.21234 0.69503 0.28344 0.0
C252 C 0.25126 0.71341 0.29687 0.0
H253 H 0.21971 0.54186 0.17251 0.0
H254 H 0.22028 0.56954 0.20864 0.0
C255 C 0.25042 0.7318 0.31676 0.0
C256 C 0.21404 0.67703 0.26203 0.0
H257 H 0.15785 0.58313 0.22927 0.0
C258 C 0.2495 0.70632 0.24799 0.0
C259 C 0.1813 0.63157 0.25539 0.0
C260 C 0.14426 0.59722 0.27017 0.0
C261 C 0.2526 0.69181 0.22738 0.0
C262 C 0.21849 0.64723 0.22037 0.0
C263 C 0.18362 0.61753 0.23455 0.0
C264 C 0.21842 0.63073 0.1984 0.0
C265 C 0.29287 0.72417 0.21348 0.0
C266 C 0.21659 0.65559 0.18063 0.0
C267 C 0.21708 0.64032 0.15995 0.0
C268 C 0.21865 0.59938 0.15659 0.0
C269 C 0.21943 0.574 0.17447 0.0
C270 C 0.21934 0.58954 0.19515 0.0
H271 H 0.32255 0.74986 0.22319 0.0
H272 H 0.30474 0.70474 0.20347 0.0
H273 H 0.28205 0.74367 0.20278 0.0
H274 H 0.21474 0.68687 0.18273 0.0
H275 H 0.2168 0.66097 0.1466 0.0
H276 H 0.51435 0.27792 0.65648 0.0
H277 H 0.5431 0.27676 0.62071 0.0
H278 H 0.4212 0.14454 0.60857 0.0
H279 H 0.39173 0.14594 0.6439 0.0
H280 H 0.56439 0.21641 0.6021 0.0
H281 H 0.4219 0.21743 0.55699 0.0
H282 H 0.43024 0.22914 0.58524 0.0
H283 H 0.40161 0.17031 0.57568 0.0
C284 C 0.49356 0.24868 0.64617 0.0
C285 C 0.4505 0.21224 0.65304 0.0
C286 C 0.51008 0.24805 0.62572 0.0
C287 C 0.4839 0.21103 0.61175 0.0
C288 C 0.44146 0.17413 0.61878 0.0
H289 H 0.52549 0.13039 0.48584 0.0
H290 H 0.49965 0.13326 0.5221 0.0
C291 C 0.42477 0.17488 0.63911 0.0
C292 C 0.50124 0.2105 0.58998 0.0
H293 H 0.47247 0.20083 0.53704 0.0
C294 C 0.54444 0.21336 0.58787 0.0
C295 C 0.47525 0.2066 0.57137 0.0
C296 C 0.42991 0.20616 0.57237 0.0
C297 C 0.56182 0.21138 0.56774 0.0
C298 C 0.53543 0.20668 0.54925 0.0
C299 C 0.49244 0.2041 0.55129 0.0
C300 C 0.55201 0.20475 0.52756 0.0
C301 C 0.60786 0.21341 0.56637 0.0
C302 C 0.58982 0.24409 0.51861 0.0
C303 C 0.60451 0.24262 0.49789 0.0
C304 C 0.58174 0.2017 0.48576 0.0
C305 C 0.54401 0.16226 0.49485 0.0
C306 C 0.52909 0.1639 0.5155 0.0
H307 H 0.61982 0.20833 0.5822 0.0
H308 H 0.60577 0.18661 0.55522 0.0
H309 H 0.63414 0.24785 0.56008 0.0
H310 H 0.60767 0.27608 0.52758 0.0
H311 H 0.63392 0.27345 0.49142 0.0
H312 H 0.26293 0.40123 0.98025 0.0
H313 H 0.29593 0.42621 0.94458 0.0
H314 H 0.29023 0.55199 0.95166 0.0
H315 H 0.25836 0.52782 0.98745 0.0
H316 H 0.25909 0.44242 0.90991 0.0
H317 H 0.4201 0.60406 0.93066 0.0
H318 H 0.38474 0.56183 0.95054 0.0
H319 H 0.36982 0.60365 0.94081 0.0
C320 C 0.26915 0.43443 0.97432 0.0
C321 C 0.25814 0.46257 0.9868 0.0
C322 C 0.28802 0.44868 0.95389 0.0
C323 C 0.29636 0.49139 0.9455 0.0
C324 C 0.2854 0.51952 0.95794 0.0
H325 H 0.36501 0.62725 0.82229 0.0
H326 H 0.3388 0.60022 0.85877 0.0
C327 C 0.26688 0.50548 0.97842 0.0
C328 C 0.31423 0.50548 0.92336 0.0
H329 H 0.39773 0.59445 0.89382 0.0
C330 C 0.2897 0.47544 0.90644 0.0
C331 C 0.35429 0.54855 0.91876 0.0
C332 C 0.38402 0.58114 0.93618 0.0
C333 C 0.30331 0.48789 0.88509 0.0
C334 C 0.3425 0.53143 0.88053 0.0
C335 C 0.36745 0.56121 0.89739 0.0
C336 C 0.35779 0.54699 0.8583 0.0
C337 C 0.27506 0.45497 0.86748 0.0
C338 C 0.37732 0.5261 0.84599 0.0
C339 C 0.39245 0.54154 0.82515 0.0
C340 C 0.38807 0.57801 0.81621 0.0
C341 C 0.36828 0.59868 0.8286 0.0
C342 C 0.35356 0.5835 0.84948 0.0
H343 H 0.24172 0.42598 0.87342 0.0
H344 H 0.26785 0.47373 0.85471 0.0
H345 H 0.295 0.44005 0.86027 0.0
H346 H 0.3812 0.49811 0.85257 0.0
H347 H 0.40733 0.52476 0.81599 0.0
H348 H 0.84786 0.29247 0.31847 0.0
H349 H 0.85741 0.32416 0.28248 0.0
H350 H 0.71065 0.27227 0.27851 0.0
H351 H 0.70086 0.24065 0.31474 0.0
H352 H 0.82063 0.27827 0.24517 0.0
H353 H 0.76346 0.406 0.25956 0.0
H354 H 0.77676 0.37822 0.28103 0.0
H355 H 0.72185 0.34802 0.26756 0.0
C356 C 0.81757 0.28785 0.31002 0.0
C357 C 0.77357 0.26389 0.31952 0.0
C358 C 0.82313 0.3061 0.28941 0.0
C359 C 0.78487 0.30109 0.27784 0.0
C360 C 0.74085 0.27743 0.28729 0.0
H361 H 0.74214 0.37263 0.15018 0.0
H362 H 0.73509 0.34239 0.18641 0.0
C363 C 0.73527 0.25924 0.30799 0.0
C364 C 0.79107 0.31929 0.25564 0.0
H365 H 0.77416 0.39249 0.22338 0.0
C366 C 0.81067 0.30342 0.24042 0.0
C367 C 0.77826 0.35225 0.24947 0.0
C368 C 0.75933 0.37251 0.26529 0.0
C369 C 0.81678 0.31873 0.2191 0.0
C370 C 0.80347 0.35128 0.21289 0.0
C371 C 0.78418 0.3674 0.22815 0.0
C372 C 0.80833 0.36853 0.19059 0.0
C373 C 0.83637 0.29906 0.20331 0.0
C374 C 0.85193 0.3934 0.18085 0.0
C375 C 0.85612 0.41091 0.16008 0.0
C376 C 0.8168 0.40425 0.14875 0.0
C377 C 0.77321 0.379 0.15854 0.0
C378 C 0.76907 0.36149 0.17923 0.0
H379 H 0.83396 0.26644 0.20926 0.0
H380 H 0.81812 0.29203 0.18773 0.0
H381 H 0.87343 0.32461 0.2006 0.0
H382 H 0.88282 0.40008 0.18947 0.0
H383 H 0.89023 0.43071 0.15313 0.0
H384 H 0.45008 0.73069 0.6612 0.0
H385 H 0.42148 0.73736 0.62596 0.0
H386 H 0.56161 0.82313 0.60416 0.0
H387 H 0.5906 0.8169 0.63917 0.0
H388 H 0.45107 0.83216 0.6036 0.0
H389 H 0.48967 0.71069 0.55961 0.0
H390 H 0.48008 0.70656 0.58812 0.0
H391 H 0.5335 0.75174 0.57736 0.0
C392 C 0.47484 0.75068 0.64887 0.0
C393 C 0.52265 0.77325 0.65304 0.0
C394 C 0.45842 0.75456 0.62879 0.0
C395 C 0.48949 0.78053 0.6125 0.0
C396 C 0.53713 0.80269 0.61651 0.0
H397 H 0.46681 0.83503 0.47893 0.0
H398 H 0.49277 0.82828 0.51461 0.0
C399 C 0.55358 0.79916 0.63658 0.0
C400 C 0.47234 0.78554 0.59139 0.0
H401 H 0.46363 0.75295 0.53924 0.0
C402 C 0.4535 0.81471 0.5895 0.0
C403 C 0.4761 0.76305 0.5731 0.0
C404 C 0.49567 0.73098 0.57449 0.0
C405 C 0.43903 0.82272 0.56963 0.0
C406 C 0.44238 0.79988 0.55127 0.0
C407 C 0.46107 0.77049 0.55327 0.0
C408 C 0.42684 0.80596 0.52981 0.0
C409 C 0.42169 0.85671 0.56843 0.0
C410 C 0.38112 0.79568 0.52641 0.0
C411 C 0.36638 0.80034 0.50609 0.0
C412 C 0.39681 0.81458 0.48857 0.0
C413 C 0.44259 0.82473 0.49204 0.0
C414 C 0.4574 0.82046 0.51242 0.0
H415 H 0.43442 0.88122 0.58208 0.0
H416 H 0.43259 0.87704 0.55335 0.0
H417 H 0.38336 0.83738 0.56904 0.0
H418 H 0.35655 0.78344 0.53943 0.0
H419 H 0.33105 0.79273 0.50414 0.0
H420 H 0.75741 0.46637 0.98454 0.0
H421 H 0.73058 0.44062 0.94799 0.0
H422 H 0.69842 0.55015 0.94061 0.0
H423 H 0.72565 0.57637 0.9769 0.0
H424 H 0.64036 0.41195 0.9311 0.0
H425 H 0.77728 0.56414 0.88746 0.0
H426 H 0.78357 0.55197 0.91501 0.0
H427 H 0.74915 0.57781 0.90823 0.0
C428 C 0.74493 0.48519 0.97509 0.0
C429 C 0.74347 0.52336 0.98372 0.0
C430 C 0.72952 0.47035 0.95423 0.0
C431 C 0.71295 0.49375 0.9415 0.0
C432 C 0.71166 0.53196 0.95002 0.0
H433 H 0.59674 0.45704 0.81375 0.0
H434 H 0.62876 0.48484 0.84944 0.0
C435 C 0.72682 0.54664 0.97089 0.0
C436 C 0.69547 0.47726 0.91957 0.0
H437 H 0.71336 0.50931 0.86701 0.0
C438 C 0.65645 0.43307 0.91706 0.0
C439 C 0.71634 0.50505 0.90131 0.0
C440 C 0.75914 0.55225 0.90301 0.0
C441 C 0.63717 0.41623 0.89682 0.0
C442 C 0.65817 0.4439 0.8785 0.0
C443 C 0.69728 0.4881 0.88103 0.0
C444 C 0.64001 0.42761 0.85659 0.0
C445 C 0.59368 0.36949 0.89533 0.0
C446 C 0.63662 0.38676 0.84853 0.0
C447 C 0.61828 0.37078 0.82817 0.0
C448 C 0.60341 0.3956 0.81531 0.0
C449 C 0.60812 0.43725 0.82318 0.0
C450 C 0.62625 0.45309 0.8436 0.0
H451 H 0.57497 0.35899 0.9108 0.0
H452 H 0.56991 0.36958 0.88291 0.0
H453 H 0.60296 0.34292 0.89099 0.0
H454 H 0.64821 0.36718 0.85798 0.0
H455 H 0.616 0.33907 0.82245 0.0
H456 H 0.29574 0.42871 0.09978 0.0
H457 H 0.36817 0.42966 0.10752 0.0
H458 H 0.36615 0.37797 0.04431 0.0
H459 H 0.29378 0.37715 0.03654 0.0
H460 H 0.41316 0.36232 0.09626 0.0
H461 H 0.46784 0.52877 0.05318 0.0
H462 H 0.41382 0.4985 0.06746 0.0
H463 H 0.42005 0.47686 0.04228 0.0
C464 C 0.30947 0.41497 0.08806 0.0
C465 C 0.28958 0.40252 0.06768 0.0
C466 C 0.35073 0.4156 0.09247 0.0
C467 C 0.37226 0.40408 0.07643 0.0
C468 C 0.34957 0.38654 0.05689 0.0
H469 H 0.62992 0.42625 0.05047 0.0
H470 H 0.54992 0.40139 0.05919 0.0
C471 C 0.30833 0.38595 0.05249 0.0
C472 C 0.4221 0.42107 0.07796 0.0
H473 H 0.5254 0.50992 0.06077 0.0
C474 C 0.4379 0.39469 0.08869 0.0
C475 C 0.45398 0.46385 0.06845 0.0
C476 C 0.43837 0.49398 0.05727 0.0
C477 C 0.48527 0.40934 0.08936 0.0
C478 C 0.51694 0.45091 0.07876 0.0
C479 C 0.50104 0.47813 0.06889 0.0
C480 C 0.56592 0.46465 0.07571 0.0
C481 C 0.50092 0.38008 0.10121 0.0
C482 C 0.60139 0.50906 0.08163 0.0
C483 C 0.64733 0.5237 0.07639 0.0
C484 C 0.65809 0.4941 0.06507 0.0
C485 C 0.62256 0.44967 0.05932 0.0
C486 C 0.57688 0.43515 0.06452 0.0
H487 H 0.47627 0.35953 0.1141 0.0
H488 H 0.50248 0.35533 0.08992 0.0
H489 H 0.53579 0.4018 0.10832 0.0
H490 H 0.5934 0.53257 0.08999 0.0
H491 H 0.67422 0.55813 0.08096 0.0
H492 H 0.0885 0.67495 0.40817 0.0
H493 H 0.0328 0.5962 0.42 0.0
H494 H 0.14376 0.56658 0.42854 0.0
H495 H 0.19888 0.64414 0.41566 0.0
H496 H 0.08219 0.50673 0.40343 0.0
H497 H -0.00988 0.52017 0.47318 0.0
H498 H -0.01012 0.55694 0.45229 0.0
H499 H 0.04406 0.56853 0.46401 0.0
C500 C 0.10087 0.65176 0.41295 0.0
C501 C 0.14753 0.66497 0.41065 0.0
C502 C 0.06923 0.60705 0.42001 0.0
C503 C 0.08423 0.57564 0.42542 0.0
C504 C 0.13147 0.59023 0.4245 0.0
H505 H 0.87919 0.27579 0.4151 0.0
H506 H 0.95076 0.34247 0.42878 0.0
C507 C 0.16281 0.6344 0.41701 0.0
C508 C 0.05017 0.52584 0.42815 0.0
H509 H 0.94463 0.45279 0.44973 0.0
C510 C 0.05288 0.49453 0.41411 0.0
C511 C 0.01225 0.50983 0.44223 0.0
C512 C 0.00926 0.54069 0.45892 0.0
C513 C 0.01635 0.44894 0.41214 0.0
C514 C 0.97635 0.4345 0.42461 0.0
C515 C 0.97541 0.4643 0.4401 0.0
C516 C 0.93246 0.39337 0.41853 0.0
C517 C 0.01892 0.41793 0.39536 0.0
C518 C 0.89895 0.40033 0.40843 0.0
C519 C 0.85872 0.36284 0.40058 0.0
C520 C 0.85121 0.31767 0.40279 0.0
C521 C 0.88449 0.31045 0.41314 0.0
C522 C 0.92506 0.34827 0.42102 0.0
H523 H 0.0519 0.43544 0.38631 0.0
H524 H 0.01582 0.38643 0.40306 0.0
H525 H -0.01021 0.40658 0.3839 0.0
H526 H 0.90446 0.43503 0.40618 0.0
H527 H 0.8336 0.36934 0.39268 0.0
H528 H 0.45073 0.14102 0.77124 0.0
H529 H 0.47101 0.08018 0.77485 0.0
H530 H 0.41815 0.03131 0.71156 0.0
H531 H 0.39737 0.09192 0.70787 0.0
H532 H 0.39792 0.95983 0.74323 0.0
H533 H 0.58377 0.09585 0.73971 0.0
H534 H 0.55022 0.10372 0.75988 0.0
H535 H 0.53793 0.10686 0.73218 0.0
C536 C 0.44262 0.11673 0.75826 0.0
C537 C 0.42321 0.12149 0.73915 0.0
C538 C 0.4544 0.08223 0.76031 0.0
C539 C 0.44699 0.05217 0.74327 0.0
C540 C 0.42444 0.0546 0.72479 0.0
H541 H 0.57186 0.89078 0.70887 0.0
H542 H 0.5497 0.95026 0.7125 0.0
C543 C 0.41256 0.0891 0.72272 0.0
C544 C 0.46569 0.02043 0.7441 0.0
H545 H 0.56694 0.01863 0.74478 0.0
C546 C 0.43481 0.97254 0.74368 0.0
C547 C 0.51391 0.03746 0.74436 0.0
C548 C 0.54853 0.08877 0.74388 0.0
C549 C 0.45095 0.94098 0.74361 0.0
C550 C 0.49916 0.95801 0.74424 0.0
C551 C 0.53003 0.0059 0.74456 0.0
C552 C 0.51799 0.92639 0.7435 0.0
C553 C 0.41641 0.88974 0.74231 0.0
C554 C 0.50931 0.89489 0.76018 0.0
C555 C 0.52192 0.86102 0.75817 0.0
C556 C 0.54342 0.85833 0.73944 0.0
C557 C 0.55507 0.892 0.72341 0.0
C558 C 0.54241 0.92586 0.72544 0.0
H559 H 0.38152 0.88299 0.73753 0.0
H560 H 0.42794 0.87255 0.7307 0.0
H561 H 0.41348 0.87359 0.75819 0.0
H562 H 0.49127 0.89548 0.77441 0.0
H563 H 0.51296 0.8357 0.77084 0.0
H564 H 0.63383 0.69755 0.74719 0.0
H565 H 0.59018 0.61692 0.7602 0.0
H566 H 0.52269 0.57378 0.69891 0.0
H567 H 0.56457 0.65385 0.68627 0.0
H568 H 0.46263 0.55183 0.73668 0.0
H569 H 0.59405 0.49592 0.74369 0.0
H570 H 0.60529 0.5509 0.75422 0.0
H571 H 0.60401 0.54284 0.7259 0.0
C572 C 0.6107 0.67046 0.73638 0.0
C573 C 0.6022 0.68146 0.71578 0.0
C574 C 0.58567 0.62465 0.74385 0.0
C575 C 0.55296 0.58975 0.73054 0.0
C576 C 0.54749 0.60045 0.70945 0.0
H577 H 0.42147 0.3355 0.6873 0.0
H578 H 0.46382 0.41499 0.70039 0.0
C579 C 0.5717 0.64597 0.70216 0.0
C580 C 0.52169 0.54225 0.73831 0.0
H581 H 0.5159 0.43744 0.74098 0.0
C582 C 0.47411 0.52677 0.73849 0.0
C583 C 0.53707 0.51007 0.74085 0.0
C584 C 0.58786 0.52541 0.74121 0.0
C585 C 0.44137 0.47932 0.73848 0.0
C586 C 0.45696 0.44705 0.73835 0.0
C587 C 0.50431 0.46258 0.7409 0.0
C588 C 0.42713 0.39947 0.73043 0.0
C589 C 0.39077 0.46407 0.73626 0.0
C590 C 0.39107 0.36499 0.74265 0.0
C591 C 0.36597 0.31949 0.73491 0.0
C592 C 0.37748 0.30836 0.7151 0.0
C593 C 0.41195 0.34347 0.70256 0.0
C594 C 0.43642 0.38864 0.71012 0.0
H595 H 0.38441 0.49375 0.73692 0.0
H596 H 0.37739 0.44578 0.72084 0.0
H597 H 0.37092 0.43936 0.74926 0.0
H598 H 0.38354 0.37284 0.75838 0.0
H599 H 0.33984 0.29265 0.74493 0.0
H600 H 0.15903 0.49432 0.01903 0.0
H601 H 0.13286 0.54968 0.0234 0.0
H602 H 0.00163 0.4404 0.04692 0.0
H603 H 0.02983 0.38517 0.0444 0.0
H604 H 0.0729 0.55988 1.0059 0.0
H605 H 0.02633 0.5338 0.09117 0.0
H606 H 0.05669 0.50806 0.07878 0.0
H607 H -0.00559 0.47978 0.07739 0.0
C608 C 0.12468 0.48202 0.02534 0.0
C609 C 0.09674 0.43569 0.03183 0.0
C610 C 0.10974 0.51382 0.0278 0.0
C611 C 0.06576 0.49969 0.03608 0.0
C612 C 0.0365 0.45262 0.04137 0.0
H613 H 0.88468 0.58707 1.00681 0.0
H614 H 0.94738 0.57045 1.00732 0.0
C615 C 0.05217 0.42087 0.03955 0.0
C616 C 0.04996 0.53393 0.03785 0.0
H617 H -0.00986 0.56811 0.06972 0.0
C618 C 0.05578 0.56231 0.0201 0.0
C619 C 0.02917 0.53877 0.05657 0.0
C620 C 0.02687 0.51385 0.07711 0.0
C621 C 0.03824 0.59259 0.01997 0.0
C622 C 0.01215 0.59278 0.03761 0.0
C623 C 0.00957 0.56743 0.05603 0.0
C624 C 0.98017 0.61107 0.03564 0.0
C625 C 0.04646 0.62283 1.00059 0.0
C626 C 0.97767 0.63968 0.05139 0.0
C627 C 0.94117 0.64901 0.05119 0.0
C628 C 0.90686 0.62917 0.03539 0.0
C629 C 0.91101 0.60292 0.01907 0.0
C630 C 0.94712 0.59374 0.01925 0.0
H631 H 0.08123 0.63442 0.99377 0.0
H632 H 0.0206 0.60243 0.9881 0.0
H633 H 0.04373 0.65388 1.00442 0.0
H634 H 0.0026 0.65287 0.06432 0.0
H635 H 0.93804 0.66878 0.0641 0.0
H636 H 0.28826 0.89549 0.3363 0.0
H637 H 0.37202 0.94487 0.3393 0.0
H638 H 0.35735 0.97081 0.40544 0.0
H639 H 0.27291 0.92334 0.40203 0.0
H640 H 0.4314 0.04455 0.38714 0.0
H641 H 0.43313 0.88331 0.3704 0.0
H642 H 0.41432 0.90018 0.34692 0.0
H643 H 0.37996 0.88465 0.37078 0.0
C644 C 0.30289 0.91363 0.35115 0.0
C645 C 0.27464 0.90584 0.36894 0.0
C646 C 0.35065 0.94116 0.35297 0.0
C647 C 0.3708 0.95971 0.37283 0.0
C648 C 0.34238 0.95612 0.39006 0.0
H649 H 0.6651 0.04577 0.3927 0.0
H650 H 0.58068 0.00421 0.3981 0.0
C651 C 0.29424 0.92944 0.38806 0.0
C652 C 0.42104 0.979 0.37587 0.0
H653 H 0.50761 0.9549 0.36708 0.0
C654 C 0.448 0.02479 0.38303 0.0
C655 C 0.4426 0.95268 0.3711 0.0
C656 C 0.41576 0.90234 0.36461 0.0
C657 C 0.49631 0.04598 0.38406 0.0
C658 C 0.51785 0.02078 0.37755 0.0
C659 C 0.49084 0.97415 0.37185 0.0
C660 C 0.56812 0.04371 0.37413 0.0
C661 C 0.52411 0.09543 0.39168 0.0
C662 C 0.58811 0.07773 0.35824 0.0
C663 C 0.63558 0.10073 0.35498 0.0
C664 C 0.66387 0.08998 0.36752 0.0
C665 C 0.64376 0.05422 0.38272 0.0
C666 C 0.59588 0.03101 0.38598 0.0
H667 H 0.50291 0.10539 0.40153 0.0
H668 H 0.55436 0.10051 0.40121 0.0
H669 H 0.53707 0.11906 0.37768 0.0
H670 H 0.56699 0.08702 0.34856 0.0
H671 H 0.65043 0.12817 0.34313 0.0
H672 H 0.2793 0.13854 0.77543 0.0
H673 H 0.24629 0.14245 0.80972 0.0
H674 H 0.35859 0.28228 0.81867 0.0
H675 H 0.39144 0.27905 0.7845 0.0
H676 H 0.28433 0.15894 0.85083 0.0
H677 H 0.24446 0.29552 0.8268 0.0
H678 H 0.25826 0.2639 0.80769 0.0
H679 H 0.30361 0.31148 0.82225 0.0
C680 C 0.29697 0.17012 0.78469 0.0
C681 C 0.33791 0.20853 0.77711 0.0
C682 C 0.27805 0.17229 0.80428 0.0
C683 C 0.29953 0.21296 0.81657 0.0
C684 C 0.34086 0.25092 0.80925 0.0
H685 H 0.27155 0.25661 0.95025 0.0
H686 H 0.2953 0.2441 0.9152 0.0
C687 C 0.35976 0.24883 0.78973 0.0
C688 C 0.27932 0.21573 0.8372 0.0
H689 H 0.24095 0.27895 0.86408 0.0
C690 C 0.2745 0.18493 0.85369 0.0
C691 C 0.2659 0.24925 0.84083 0.0
C692 C 0.26784 0.28163 0.8234 0.0
C693 C 0.25803 0.18773 0.87392 0.0
C694 C 0.24671 0.22269 0.87784 0.0
C695 C 0.25011 0.2525 0.86114 0.0
C696 C 0.23186 0.22938 0.89921 0.0
C697 C 0.25265 0.15307 0.89089 0.0
C698 C 0.18871 0.22633 0.9018 0.0
C699 C 0.17521 0.23395 0.92179 0.0
C700 C 0.20477 0.24516 0.93959 0.0
C701 C 0.24806 0.24836 0.93688 0.0
C702 C 0.26149 0.24067 0.9169 0.0
H703 H 0.25023 0.12139 0.88382 0.0
H704 H 0.28327 0.169 0.90159 0.0
H705 H 0.22137 0.14276 0.90071 0.0
H706 H 0.16547 0.21808 0.88833 0.0
H707 H 0.14195 0.23191 0.92321 0.0
H708 H 0.00208 0.32188 0.28113 0.0
H709 H 0.03255 0.34339 0.24488 0.0
H710 H 0.94384 0.20237 0.22433 0.0
H711 H 0.91188 0.1809 0.26032 0.0
H712 H 0.07913 0.31134 0.22132 0.0
H713 H 0.91794 0.27431 0.17919 0.0
H714 H 0.92312 0.27752 0.2079 0.0
H715 H 0.9126 0.2258 0.19419 0.0
C716 C -0.01155 0.29552 0.26886 0.0
C717 C 0.95432 0.24962 0.27375 0.0
C718 C 0.00618 0.30784 0.24813 0.0
C719 C -0.00991 0.2747 0.23174 0.0
C720 C 0.95622 0.22882 0.23656 0.0
H721 H 0.07962 0.2838 0.09969 0.0
H722 H 0.04312 0.259 0.1349 0.0
C723 C 0.93842 0.21645 0.25727 0.0
C724 C 0.01005 0.28785 0.20987 0.0
H725 H 0.98248 0.29019 0.15734 0.0
C726 C 0.05796 0.30686 0.20737 0.0
C727 C 0.9825 0.28207 0.19159 0.0
C728 C 0.93126 0.26424 0.1933 0.0
C729 C 0.07893 0.3197 0.18717 0.0
C730 C 0.05138 0.31367 0.16893 0.0
C731 C 0.00347 0.29449 0.17134 0.0
C732 C 0.07219 0.32854 0.14736 0.0
C733 C 0.13043 0.3393 0.18539 0.0
C734 C 0.10008 0.37585 0.14261 0.0
C735 C 0.12074 0.39015 0.12253 0.0
C736 C 0.11412 0.35741 0.10672 0.0
C737 C 0.08565 0.30995 0.11147 0.0
C738 C 0.06467 0.2957 0.13157 0.0
H739 H 0.14533 0.33343 0.20017 0.0
H740 H 0.13858 0.32356 0.17171 0.0
H741 H 0.1475 0.37725 0.18251 0.0
H742 H 0.10601 0.40179 0.1545 0.0
H743 H 0.14234 0.42698 0.11952 0.0
H744 H 0.66118 -0.0041 0.61332 0.0
H745 H 0.66951 0.02787 0.57732 0.0
H746 H 0.77909 -0.00125 0.56454 0.0
H747 H 0.76952 0.96468 0.60004 0.0
H748 H 0.74267 0.10104 0.55853 0.0
H749 H 0.69785 0.94167 0.51297 0.0
H750 H 0.6878 0.94078 0.54129 0.0
H751 H 0.74457 0.9575 0.53143 0.0
C752 C 0.68658 -0.00444 0.60277 0.0
C753 C 0.7145 0.97739 0.6097 0.0
C754 C 0.69155 0.01423 0.5822 0.0
C755 C 0.72441 0.01508 0.56801 0.0
C756 C 0.75276 -0.0024 0.57495 0.0
H757 H 0.81495 0.12814 0.43966 0.0
H758 H 0.80715 0.09429 0.47534 0.0
C759 C 0.74769 0.97872 0.59546 0.0
C760 C 0.72983 0.03539 0.5462 0.0
H761 H 0.72892 0.0119 0.493 0.0
C762 C 0.73941 0.08142 0.54422 0.0
C763 C 0.72564 0.00989 0.52744 0.0
C764 C 0.71296 0.9596 0.52831 0.0
C765 C 0.74556 0.10278 0.52413 0.0
C766 C 0.7416 0.07735 0.50543 0.0
C767 C 0.73218 0.03142 0.50735 0.0
C768 C 0.74614 0.09758 0.48372 0.0
C769 C 0.75699 0.15268 0.52307 0.0
C770 C 0.71407 0.11006 0.47644 0.0
C771 C 0.7183 0.12922 0.45607 0.0
C772 C 0.75475 0.13636 0.44245 0.0
C773 C 0.78659 0.12336 0.44971 0.0
C774 C 0.78216 0.10393 0.4701 0.0
H775 H 0.76968 0.17051 0.53865 0.0
H776 H 0.78363 0.17211 0.51072 0.0
H777 H 0.72539 0.15387 0.51868 0.0
H778 H 0.68556 0.10479 0.48651 0.0
H779 H 0.69302 0.13864 0.45108 0.0
H780 H 0.69286 0.84213 0.7776 0.0
H781 H 0.71944 0.83545 0.81347 0.0
H782 H 0.59648 0.70209 0.82166 0.0
H783 H 0.5703 0.70788 0.78619 0.0
H784 H 0.6791 0.82459 0.85348 0.0
H785 H 0.69709 0.6721 0.83539 0.0
H786 H 0.69077 0.70654 0.81474 0.0
H787 H 0.64074 0.66227 0.82851 0.0
C788 C 0.67159 0.81141 0.78707 0.0
C789 C 0.62967 0.77541 0.77887 0.0
C790 C 0.68682 0.80762 0.80754 0.0
C791 C 0.66046 0.76775 0.82007 0.0
C792 C 0.61809 0.73256 0.8121 0.0
H793 H 0.64103 0.65857 0.94575 0.0
H794 H 0.63162 0.67817 0.90912 0.0
C795 C 0.60304 0.73616 0.79176 0.0
C796 C 0.67612 0.76255 0.84167 0.0
H797 H 0.69206 0.68675 0.87256 0.0
C798 C 0.68272 0.7949 0.85759 0.0
C799 C 0.68107 0.72388 0.84703 0.0
C800 C 0.67753 0.68951 0.83045 0.0
C801 C 0.69174 0.78826 0.87891 0.0
C802 C 0.6944 0.74842 0.88439 0.0
C803 C 0.68948 0.71701 0.86835 0.0
C804 C 0.70049 0.73762 0.90679 0.0
C805 C 0.69652 0.82284 0.89562 0.0
C806 C 0.74249 0.7644 0.9176 0.0
C807 C 0.74827 0.75295 0.93851 0.0
C808 C 0.71207 0.71448 0.94906 0.0
C809 C 0.66993 0.68798 0.93812 0.0
C810 C 0.66434 0.69929 0.9172 0.0
H811 H 0.68701 0.84822 0.88937 0.0
H812 H 0.67439 0.80466 0.90962 0.0
H813 H 0.73291 0.84221 0.90126 0.0
H814 H 0.77107 0.79372 0.90974 0.0
H815 H 0.78149 0.7737 0.9462 0.0
H816 H 0.97459 0.64229 0.27983 0.0
H817 H 0.93891 0.6257 0.24437 0.0
H818 H 0.95775 0.7635 0.24128 0.0
H819 H -0.00576 0.78056 0.27658 0.0
H820 H 0.86238 0.62325 0.22976 0.0
H821 H 0.01299 0.75912 0.18523 0.0
H822 H 0.01744 0.74396 0.21247 0.0
H823 H -0.00531 0.78168 0.20666 0.0
C824 C 0.97109 0.66906 0.27162 0.0
C825 C -0.01245 0.71286 0.28102 0.0
C826 C 0.95077 0.65957 0.25129 0.0
C827 C 0.94629 0.69357 0.23987 0.0
C828 C 0.96194 0.73707 0.2494 0.0
H829 H 0.81899 0.67665 0.11389 0.0
H830 H 0.84916 0.70038 0.15036 0.0
C831 C 0.98268 0.74674 0.26965 0.0
C832 C 0.92443 0.68293 0.21824 0.0
H833 H 0.94282 0.71761 0.1659 0.0
C834 C 0.88006 0.64397 0.21583 0.0
C835 C 0.94731 0.70991 0.19995 0.0
C836 C -0.00411 0.75073 0.2011 0.0
C837 C 0.8582 0.6312 0.19577 0.0
C838 C 0.88121 0.65795 0.17756 0.0
C839 C 0.92509 0.69739 0.17993 0.0
C840 C 0.86173 0.64342 0.15571 0.0
C841 C 0.81062 0.58899 0.19414 0.0
C842 C 0.85906 0.60378 0.14662 0.0
C843 C 0.84234 0.59045 0.12585 0.0
C844 C 0.82755 0.61628 0.11365 0.0
C845 C 0.82981 0.65583 0.12286 0.0
C846 C 0.84715 0.6695 0.14366 0.0
H847 H 0.7935 0.57818 0.20996 0.0
H848 H 0.78836 0.59573 0.18321 0.0
H849 H 0.81355 0.55975 0.18749 0.0
H850 H 0.87056 0.58342 0.15553 0.0
H851 H 0.8412 0.55983 0.11936 0.0
H852 H 0.31205 0.04627 0.60009 0.0
H853 H 0.29804 0.00822 0.56535 0.0
H854 H 0.1571 0.9127 0.5833 0.0
H855 H 0.17095 0.94963 0.61831 0.0
H856 H 0.26393 0.90939 0.55698 0.0
H857 H 0.14814 0.97092 0.52517 0.0
H858 H 0.1868 -0.00144 0.54741 0.0
H859 H 0.13447 0.94421 0.55117 0.0
C860 C 0.2782 0.01679 0.59682 0.0
C861 C 0.24262 0.00116 0.61208 0.0
C862 C 0.27019 -0.00469 0.57687 0.0
C863 C 0.22638 0.95807 0.57165 0.0
C864 C 0.19093 0.94194 0.58686 0.0
H865 H 0.12379 0.80158 0.45195 0.0
H866 H 0.12865 0.83194 0.48816 0.0
C867 C 0.19895 0.96321 0.60687 0.0
C868 C 0.21808 0.93575 0.55039 0.0
H869 H 0.16056 0.92087 0.5032 0.0
C870 C 0.24129 0.91182 0.54522 0.0
C871 C 0.18816 0.9386 0.53518 0.0
C872 C 0.16308 0.96468 0.53983 0.0
C873 C 0.23552 0.89072 0.52521 0.0
C874 C 0.20667 0.89473 0.50971 0.0
C875 C 0.18268 0.91787 0.51506 0.0
C876 C 0.20293 0.87718 0.48758 0.0
C877 C 0.26007 0.86391 0.52097 0.0
C878 C 0.24276 0.8935 0.47502 0.0
C879 C 0.24012 0.87617 0.45452 0.0
C880 C 0.19743 0.84247 0.44589 0.0
C881 C 0.15718 0.82739 0.45814 0.0
C882 C 0.15993 0.84464 0.47883 0.0
H883 H 0.2681 0.85166 0.53606 0.0
H884 H 0.23903 0.83343 0.51061 0.0
H885 H 0.2933 0.88686 0.51278 0.0
H886 H 0.27611 0.9196 0.48113 0.0
H887 H 0.2718 0.88916 0.44546 0.0
loop_
_geom_bond_atom_site_label_1
_geom_bond_atom_site_label_2
_geom_bond_distance
_geom_bond_site_symmetry_2
_ccdc_geom_bond_type
Gd0 C3 2.818 . S
Gd0 O20 2.377 . S
Gd0 O22 2.448 . S
Gd0 O23 2.506 . S
Gd0 O24 2.435 . S
Gd0 O25 2.717 . S
Gd0 O27 2.395 . S
Gd0 O31 2.327 . S
Gd1 C12 2.818 1_554 S
Gd1 O21 2.395 . S
Gd1 O25 2.327 . S
Gd1 O26 2.377 1_554 S
Gd1 O28 2.448 1_554 S
Gd1 O29 2.506 1_554 S
Gd1 O30 2.435 . S
Gd1 O31 2.717 . S
C2 O20 1.240 . S
C2 O21 1.240 . S
C3 Gd0 2.818 . S
C3 C4 1.510 . S
C3 O22 1.249 . S
C3 O23 1.252 . S
C4 C3 1.510 . S
C4 C5 1.404 . S
C4 C6 1.352 . S
C5 C4 1.404 . S
C5 C9 1.389 . S
C5 H32 0.930 . S
C6 C4 1.352 . S
C6 C8 1.374 . S
C6 H33 0.931 . S
C7 C8 1.359 . S
C7 C9 1.364 . S
C8 C6 1.374 . S
C8 C7 1.359 . S
C8 H34 0.931 . S
C9 C5 1.389 . S
C9 C7 1.364 . S
C9 H35 0.931 . S
C10 O24 1.256 . S
C10 O25 1.257 . S
C11 O26 1.240 . S
C11 O27 1.240 1_556 S
C12 Gd1 2.818 1_556 S
C12 C13 1.510 . S
C12 O28 1.249 . S
C12 O29 1.252 . S
C13 C12 1.510 . S
C13 C14 1.404 . S
C13 C15 1.352 . S
C14 C13 1.404 . S
C14 C18 1.389 . S
C14 H36 0.930 . S
C15 C13 1.352 . S
C15 C17 1.374 . S
C15 H37 0.931 . S
C16 C17 1.359 . S
C16 C18 1.364 . S
C17 C15 1.374 . S
C17 C16 1.359 . S
C17 H38 0.931 . S
C18 C14 1.389 . S
C18 C16 1.364 . S
C18 H39 0.931 . S
C19 O30 1.256 . S
C19 O31 1.257 . S
O20 Gd0 2.377 . S
O20 C2 1.240 . S
O21 Gd1 2.395 . S
O21 C2 1.240 . S
O22 Gd0 2.448 . S
O22 C3 1.249 . S
O23 Gd0 2.506 . S
O23 C3 1.252 . S
O24 Gd0 2.435 . S
O24 C10 1.256 . S
O25 Gd0 2.717 . S
O25 Gd1 2.327 . S
O25 C10 1.257 . S
O26 Gd1 2.377 1_556 S
O26 C11 1.240 . S
O27 Gd0 2.395 . S
O27 C11 1.240 1_554 S
O28 Gd1 2.448 1_556 S
O28 C12 1.249 . S
O29 Gd1 2.506 1_556 S
O29 C12 1.252 . S
O30 Gd1 2.435 . S
O30 C19 1.256 . S
O31 Gd0 2.327 . S
O31 Gd1 2.717 . S
O31 C19 1.257 . S
H32 C5 0.930 . S
H33 C6 0.931 . S
H34 C8 0.931 . S
H35 C9 0.931 . S
H36 C14 0.930 . S
H37 C15 0.931 . S
H38 C17 0.931 . S
H39 C18 0.931 . S
Gd40 C43 2.818 . S
Gd40 O60 2.377 . S
Gd40 O62 2.448 . S
Gd40 O63 2.506 . S
Gd40 O64 2.435 . S
Gd40 O65 2.717 . S
Gd40 O67 2.395 . S
Gd40 O71 2.327 . S
Gd41 C52 2.818 . S
Gd41 O61 2.395 . S
Gd41 O65 2.327 . S
Gd41 O66 2.377 . S
Gd41 O68 2.448 . S
Gd41 O69 2.506 . S
Gd41 O70 2.435 . S
Gd41 O71 2.717 . S
C42 O60 1.240 . S
C42 O61 1.240 . S
C43 Gd40 2.818 . S
C43 C44 1.510 . S
C43 O62 1.249 . S
C43 O63 1.252 . S
C44 C43 1.510 . S
C44 C45 1.404 . S
C44 C46 1.352 . S
C45 C44 1.404 . S
C45 C49 1.389 . S
C45 H72 0.930 . S
C46 C44 1.352 . S
C46 C48 1.374 . S
C46 H73 0.931 . S
C47 C48 1.359 . S
C47 C49 1.364 . S
C48 C46 1.374 . S
C48 C47 1.359 . S
C48 H74 0.931 . S
C49 C45 1.389 . S
C49 C47 1.364 . S
C49 H75 0.931 . S
C50 O64 1.256 . S
C50 O65 1.257 . S
C51 O66 1.240 . S
C51 O67 1.240 . S
C52 Gd41 2.818 . S
C52 C53 1.510 . S
C52 O68 1.249 . S
C52 O69 1.252 . S
C53 C52 1.510 . S
C53 C54 1.404 . S
C53 C55 1.352 . S
C54 C53 1.404 . S
C54 C58 1.389 . S
C54 H76 0.930 . S
C55 C53 1.352 . S
C55 C57 1.374 . S
C55 H77 0.931 . S
C56 C57 1.359 . S
C56 C58 1.364 . S
C57 C55 1.374 . S
C57 C56 1.359 . S
C57 H78 0.931 . S
C58 C54 1.389 . S
C58 C56 1.364 . S
C58 H79 0.931 . S
C59 O70 1.256 . S
C59 O71 1.257 . S
O60 Gd40 2.377 . S
O60 C42 1.240 . S
O61 Gd41 2.395 . S
O61 C42 1.240 . S
O62 Gd40 2.448 . S
O62 C43 1.249 . S
O63 Gd40 2.506 . S
O63 C43 1.252 . S
O64 Gd40 2.435 . S
O64 C50 1.256 . S
O65 Gd40 2.717 . S
O65 Gd41 2.327 . S
O65 C50 1.257 . S
O66 Gd41 2.377 . S
O66 C51 1.240 . S
O67 Gd40 2.395 . S
O67 C51 1.240 . S
O68 Gd41 2.448 . S
O68 C52 1.249 . S
O69 Gd41 2.506 . S
O69 C52 1.252 . S
O70 Gd41 2.435 . S
O70 C59 1.256 . S
O71 Gd40 2.327 . S
O71 Gd41 2.717 . S
O71 C59 1.257 . S
H72 C45 0.930 . S
H73 C46 0.931 . S
H74 C48 0.931 . S
H75 C49 0.931 . S
H76 C54 0.930 . S
H77 C55 0.931 . S
H78 C57 0.931 . S
H79 C58 0.931 . S
Gd80 C83 2.818 . S
Gd80 O100 2.377 . S
Gd80 O102 2.448 . S
Gd80 O103 2.506 . S
Gd80 O104 2.435 . S
Gd80 O105 2.717 . S
Gd80 O107 2.395 . S
Gd80 O111 2.327 . S
Gd81 C92 2.818 . S
Gd81 O101 2.395 . S
Gd81 O105 2.327 . S
Gd81 O106 2.377 . S
Gd81 O108 2.448 . S
Gd81 O109 2.506 . S
Gd81 O110 2.435 . S
Gd81 O111 2.717 . S
C82 O100 1.240 . S
C82 O101 1.240 . S
C83 Gd80 2.818 . S
C83 C84 1.510 . S
C83 O102 1.249 . S
C83 O103 1.252 . S
C84 C83 1.510 . S
C84 C85 1.404 . S
C84 C86 1.352 . S
C85 C84 1.404 . S
C85 C89 1.389 . S
C85 H112 0.930 . S
C86 C84 1.352 . S
C86 C88 1.374 . S
C86 H113 0.931 . S
C87 C88 1.359 . S
C87 C89 1.364 . S
C88 C86 1.374 . S
C88 C87 1.359 . S
C88 H114 0.931 . S
C89 C85 1.389 . S
C89 C87 1.364 . S
C89 H115 0.931 . S
C90 O104 1.256 . S
C90 O105 1.257 . S
C91 O106 1.240 . S
C91 O107 1.240 . S
C92 Gd81 2.818 . S
C92 C93 1.510 . S
C92 O108 1.249 . S
C92 O109 1.252 . S
C93 C92 1.510 . S
C93 C94 1.404 . S
C93 C95 1.352 . S
C94 C93 1.404 . S
C94 C98 1.389 . S
C94 H116 0.930 . S
C95 C93 1.352 . S
C95 C97 1.374 . S
C95 H117 0.931 . S
C96 C97 1.359 . S
C96 C98 1.364 . S
C97 C95 1.374 . S
C97 C96 1.359 . S
C97 H118 0.931 . S
C98 C94 1.389 . S
C98 C96 1.364 . S
C98 H119 0.931 . S
C99 O110 1.256 . S
C99 O111 1.257 . S
O100 Gd80 2.377 . S
O100 C82 1.240 . S
O101 Gd81 2.395 . S
O101 C82 1.240 . S
O102 Gd80 2.448 . S
O102 C83 1.249 . S
O103 Gd80 2.506 . S
O103 C83 1.252 . S
O104 Gd80 2.435 . S
O104 C90 1.256 . S
O105 Gd80 2.717 . S
O105 Gd81 2.327 . S
O105 C90 1.257 . S
O106 Gd81 2.377 . S
O106 C91 1.240 . S
O107 Gd80 2.395 . S
O107 C91 1.240 . S
O108 Gd81 2.448 . S
O108 C92 1.249 . S
O109 Gd81 2.506 . S
O109 C92 1.252 . S
O110 Gd81 2.435 . S
O110 C99 1.256 . S
O111 Gd80 2.327 . S
O111 Gd81 2.717 . S
O111 C99 1.257 . S
H112 C85 0.930 . S
H113 C86 0.931 . S
H114 C88 0.931 . S
H115 C89 0.931 . S
H116 C94 0.930 . S
H117 C95 0.931 . S
H118 C97 0.931 . S
H119 C98 0.931 . S
Gd120 C123 2.818 . S
Gd120 O140 2.377 . S
Gd120 O142 2.448 . S
Gd120 O143 2.506 . S
Gd120 O144 2.435 . S
Gd120 O145 2.717 . S
Gd120 O147 2.395 . S
Gd120 O151 2.327 . S
Gd121 C132 2.818 1_554 S
Gd121 O141 2.395 . S
Gd121 O145 2.327 . S
Gd121 O146 2.377 1_554 S
Gd121 O148 2.448 1_554 S
Gd121 O149 2.506 1_554 S
Gd121 O150 2.435 . S
Gd121 O151 2.717 . S
C122 O140 1.240 . S
C122 O141 1.240 . S
C123 Gd120 2.818 . S
C123 C124 1.510 . S
C123 O142 1.249 . S
C123 O143 1.252 . S
C124 C123 1.510 . S
C124 C125 1.404 . S
C124 C126 1.352 . S
C125 C124 1.404 . S
C125 C129 1.389 . S
C125 H152 0.930 . S
C126 C124 1.352 . S
C126 C128 1.374 . S
C126 H153 0.931 . S
C127 C128 1.359 . S
C127 C129 1.364 . S
C128 C126 1.374 . S
C128 C127 1.359 . S
C128 H154 0.931 . S
C129 C125 1.389 . S
C129 C127 1.364 . S
C129 H155 0.931 . S
C130 O144 1.256 . S
C130 O145 1.257 . S
C131 O146 1.240 . S
C131 O147 1.240 1_556 S
C132 Gd121 2.818 1_556 S
C132 C133 1.510 . S
C132 O148 1.249 . S
C132 O149 1.252 . S
C133 C132 1.510 . S
C133 C134 1.404 . S
C133 C135 1.352 . S
C134 C133 1.404 . S
C134 C138 1.389 . S
C134 H156 0.930 . S
C135 C133 1.352 . S
C135 C137 1.374 . S
C135 H157 0.931 . S
C136 C137 1.359 . S
C136 C138 1.364 . S
C137 C135 1.374 . S
C137 C136 1.359 . S
C137 H158 0.931 . S
C138 C134 1.389 . S
C138 C136 1.364 . S
C138 H159 0.931 . S
C139 O150 1.256 . S
C139 O151 1.257 . S
O140 Gd120 2.377 . S
O140 C122 1.240 . S
O141 Gd121 2.395 . S
O141 C122 1.240 . S
O142 Gd120 2.448 . S
O142 C123 1.249 . S
O143 Gd120 2.506 . S
O143 C123 1.252 . S
O144 Gd120 2.435 . S
O144 C130 1.256 . S
O145 Gd120 2.717 . S
O145 Gd121 2.327 . S
O145 C130 1.257 . S
O146 Gd121 2.377 1_556 S
O146 C131 1.240 . S
O147 Gd120 2.395 . S
O147 C131 1.240 1_554 S
O148 Gd121 2.448 1_556 S
O148 C132 1.249 . S
O149 Gd121 2.506 1_556 S
O149 C132 1.252 . S
O150 Gd121 2.435 . S
O150 C139 1.256 . S
O151 Gd120 2.327 . S
O151 Gd121 2.717 . S
O151 C139 1.257 . S
H152 C125 0.930 . S
H153 C126 0.931 . S
H154 C128 0.931 . S
H155 C129 0.931 . S
H156 C134 0.930 . S
H157 C135 0.931 . S
H158 C137 0.931 . S
H159 C138 0.931 . S
Gd160 C163 2.818 . S
Gd160 O180 2.377 . S
Gd160 O182 2.448 . S
Gd160 O183 2.506 . S
Gd160 O184 2.435 . S
Gd160 O185 2.717 . S
Gd160 O187 2.395 . S
Gd160 O191 2.327 . S
Gd161 C172 2.818 . S
Gd161 O181 2.395 . S
Gd161 O185 2.327 . S
Gd161 O186 2.377 . S
Gd161 O188 2.448 . S
Gd161 O189 2.506 . S
Gd161 O190 2.435 . S
Gd161 O191 2.717 . S
C162 O180 1.240 . S
C162 O181 1.240 . S
C163 Gd160 2.818 . S
C163 C164 1.510 . S
C163 O182 1.249 . S
C163 O183 1.252 . S
C164 C163 1.510 . S
C164 C165 1.404 . S
C164 C166 1.352 . S
C165 C164 1.404 . S
C165 C169 1.389 . S
C165 H192 0.930 . S
C166 C164 1.352 . S
C166 C168 1.374 . S
C166 H193 0.931 . S
C167 C168 1.359 . S
C167 C169 1.364 . S
C168 C166 1.374 . S
C168 C167 1.359 . S
C168 H194 0.931 . S
C169 C165 1.389 . S
C169 C167 1.364 . S
C169 H195 0.931 . S
C170 O184 1.256 . S
C170 O185 1.257 . S
C171 O186 1.240 . S
C171 O187 1.240 . S
C172 Gd161 2.818 . S
C172 C173 1.510 . S
C172 O188 1.249 . S
C172 O189 1.252 . S
C173 C172 1.510 . S
C173 C174 1.404 . S
C173 C175 1.352 . S
C174 C173 1.404 . S
C174 C178 1.389 . S
C174 H196 0.930 . S
C175 C173 1.352 . S
C175 C177 1.374 . S
C175 H197 0.931 . S
C176 C177 1.359 . S
C176 C178 1.364 . S
C177 C175 1.374 . S
C177 C176 1.359 . S
C177 H198 0.931 . S
C178 C174 1.389 . S
C178 C176 1.364 . S
C178 H199 0.931 . S
C179 O190 1.256 . S
C179 O191 1.257 . S
O180 Gd160 2.377 . S
O180 C162 1.240 . S
O181 Gd161 2.395 . S
O181 C162 1.240 . S
O182 Gd160 2.448 . S
O182 C163 1.249 . S
O183 Gd160 2.506 . S
O183 C163 1.252 . S
O184 Gd160 2.435 . S
O184 C170 1.256 . S
O185 Gd160 2.717 . S
O185 Gd161 2.327 . S
O185 C170 1.257 . S
O186 Gd161 2.377 . S
O186 C171 1.240 . S
O187 Gd160 2.395 . S
O187 C171 1.240 . S
O188 Gd161 2.448 . S
O188 C172 1.249 . S
O189 Gd161 2.506 . S
O189 C172 1.252 . S
O190 Gd161 2.435 . S
O190 C179 1.256 . S
O191 Gd160 2.327 . S
O191 Gd161 2.717 . S
O191 C179 1.257 . S
H192 C165 0.930 . S
H193 C166 0.931 . S
H194 C168 0.931 . S
H195 C169 0.931 . S
H196 C174 0.930 . S
H197 C175 0.931 . S
H198 C177 0.931 . S
H199 C178 0.931 . S
Gd200 C203 2.818 . S
Gd200 O220 2.377 . S
Gd200 O222 2.448 . S
Gd200 O223 2.506 . S
Gd200 O224 2.435 . S
Gd200 O225 2.717 . S
Gd200 O227 2.395 . S
Gd200 O231 2.327 . S
Gd201 C212 2.818 . S
Gd201 O221 2.395 . S
Gd201 O225 2.327 . S
Gd201 O226 2.377 . S
Gd201 O228 2.448 . S
Gd201 O229 2.506 . S
Gd201 O230 2.435 . S
Gd201 O231 2.717 . S
C202 O220 1.240 . S
C202 O221 1.240 . S
C203 Gd200 2.818 . S
C203 C204 1.510 . S
C203 O222 1.249 . S
C203 O223 1.252 . S
C204 C203 1.510 . S
C204 C205 1.404 . S
C204 C206 1.352 . S
C205 C204 1.404 . S
C205 C209 1.389 . S
C205 H232 0.930 . S
C206 C204 1.352 . S
C206 C208 1.374 . S
C206 H233 0.931 . S
C207 C208 1.359 . S
C207 C209 1.364 . S
C208 C206 1.374 . S
C208 C207 1.359 . S
C208 H234 0.931 . S
C209 C205 1.389 . S
C209 C207 1.364 . S
C209 H235 0.931 . S
C210 O224 1.256 . S
C210 O225 1.257 . S
C211 O226 1.240 . S
C211 O227 1.240 . S
C212 Gd201 2.818 . S
C212 C213 1.510 . S
C212 O228 1.249 . S
C212 O229 1.252 . S
C213 C212 1.510 . S
C213 C214 1.404 . S
C213 C215 1.352 . S
C214 C213 1.404 . S
C214 C218 1.389 . S
C214 H236 0.930 . S
C215 C213 1.352 . S
C215 C217 1.374 . S
C215 H237 0.931 . S
C216 C217 1.359 . S
C216 C218 1.364 . S
C217 C215 1.374 . S
C217 C216 1.359 . S
C217 H238 0.931 . S
C218 C214 1.389 . S
C218 C216 1.364 . S
C218 H239 0.931 . S
C219 O230 1.256 . S
C219 O231 1.257 . S
O220 Gd200 2.377 . S
O220 C202 1.240 . S
O221 Gd201 2.395 . S
O221 C202 1.240 . S
O222 Gd200 2.448 . S
O222 C203 1.249 . S
O223 Gd200 2.506 . S
O223 C203 1.252 . S
O224 Gd200 2.435 . S
O224 C210 1.256 . S
O225 Gd200 2.717 . S
O225 Gd201 2.327 . S
O225 C210 1.257 . S
O226 Gd201 2.377 . S
O226 C211 1.240 . S
O227 Gd200 2.395 . S
O227 C211 1.240 . S
O228 Gd201 2.448 . S
O228 C212 1.249 . S
O229 Gd201 2.506 . S
O229 C212 1.252 . S
O230 Gd201 2.435 . S
O230 C219 1.256 . S
O231 Gd200 2.327 . S
O231 Gd201 2.717 . S
O231 C219 1.257 . S
H232 C205 0.930 . S
H233 C206 0.931 . S
H234 C208 0.931 . S
H235 C209 0.931 . S
H236 C214 0.930 . S
H237 C215 0.931 . S
H238 C217 0.931 . S
H239 C218 0.931 . S
H240 C248 0.929 . S
H241 C250 0.930 . S
H242 C252 0.930 . S
H243 C255 0.929 . S
H244 C258 0.930 . S
H245 C260 0.960 . S
H246 C260 0.960 . S
H247 C260 0.960 . S
C248 H240 0.929 . S
C248 C249 1.377 . S
C248 C250 1.384 . S
C249 C248 1.377 . S
C249 C255 1.390 . S
C250 H241 0.930 . S
C250 C248 1.384 . S
C250 C251 1.372 . S
C251 C250 1.372 . S
C251 C252 1.400 . S
C251 C256 1.490 . S
C252 H242 0.930 . S
C252 C251 1.400 . S
C252 C255 1.386 . S
H253 C269 0.930 . S
H254 C270 0.931 . S
C255 H243 0.929 . S
C255 C249 1.390 . S
C255 C252 1.386 . S
C256 C251 1.490 . S
C256 C258 1.395 . S
C256 C259 1.403 . S
H257 C263 0.930 . S
C258 H244 0.930 . S
C258 C256 1.395 . S
C258 C261 1.403 . S
C259 C256 1.403 . S
C259 C260 1.524 . S
C259 C263 1.400 . S
C260 H245 0.960 . S
C260 H246 0.960 . S
C260 H247 0.960 . S
C260 C259 1.524 . S
C261 C258 1.403 . S
C261 C262 1.392 . S
C261 C265 1.495 . S
C262 C261 1.392 . S
C262 C263 1.385 . S
C262 C264 1.478 . S
C263 H257 0.930 . S
C263 C259 1.400 . S
C263 C262 1.385 . S
C264 C262 1.478 . S
C264 C266 1.381 . S
C264 C270 1.383 . S
C265 C261 1.495 . S
C265 H271 0.959 . S
C265 H272 0.961 . S
C265 H273 0.960 . S
C266 C264 1.381 . S
C266 C267 1.394 . S
C266 H274 0.930 . S
C267 C266 1.394 . S
C267 C268 1.383 . S
C267 H275 0.929 . S
C268 C267 1.383 . S
C268 C269 1.377 . S
C269 H253 0.930 . S
C269 C268 1.377 . S
C269 C270 1.379 . S
C270 H254 0.931 . S
C270 C264 1.383 . S
C270 C269 1.379 . S
H271 C265 0.959 . S
H272 C265 0.961 . S
H273 C265 0.960 . S
H274 C266 0.930 . S
H275 C267 0.929 . S
H276 C284 0.929 . S
H277 C286 0.930 . S
H278 C288 0.930 . S
H279 C291 0.929 . S
H280 C294 0.930 . S
H281 C296 0.960 . S
H282 C296 0.960 . S
H283 C296 0.960 . S
C284 H276 0.929 . S
C284 C285 1.377 . S
C284 C286 1.384 . S
C285 C284 1.377 . S
C285 C291 1.390 . S
C286 H277 0.930 . S
C286 C284 1.384 . S
C286 C287 1.372 . S
C287 C286 1.372 . S
C287 C288 1.400 . S
C287 C292 1.490 . S
C288 H278 0.930 . S
C288 C287 1.400 . S
C288 C291 1.386 . S
H289 C305 0.930 . S
H290 C306 0.931 . S
C291 H279 0.929 . S
C291 C285 1.390 . S
C291 C288 1.386 . S
C292 C287 1.490 . S
C292 C294 1.395 . S
C292 C295 1.403 . S
H293 C299 0.930 . S
C294 H280 0.930 . S
C294 C292 1.395 . S
C294 C297 1.403 . S
C295 C292 1.403 . S
C295 C296 1.524 . S
C295 C299 1.400 . S
C296 H281 0.960 . S
C296 H282 0.960 . S
C296 H283 0.960 . S
C296 C295 1.524 . S
C297 C294 1.403 . S
C297 C298 1.392 . S
C297 C301 1.495 . S
C298 C297 1.392 . S
C298 C299 1.385 . S
C298 C300 1.478 . S
C299 H293 0.930 . S
C299 C295 1.400 . S
C299 C298 1.385 . S
C300 C298 1.478 . S
C300 C302 1.381 . S
C300 C306 1.383 . S
C301 C297 1.495 . S
C301 H307 0.959 . S
C301 H308 0.961 . S
C301 H309 0.960 . S
C302 C300 1.381 . S
C302 C303 1.394 . S
C302 H310 0.930 . S
C303 C302 1.394 . S
C303 C304 1.383 . S
C303 H311 0.929 . S
C304 C303 1.383 . S
C304 C305 1.377 . S
C305 H289 0.930 . S
C305 C304 1.377 . S
C305 C306 1.379 . S
C306 H290 0.931 . S
C306 C300 1.383 . S
C306 C305 1.379 . S
H307 C301 0.959 . S
H308 C301 0.961 . S
H309 C301 0.960 . S
H310 C302 0.930 . S
H311 C303 0.929 . S
H312 C320 0.929 . S
H313 C322 0.930 . S
H314 C324 0.930 . S
H315 C327 0.929 . S
H316 C330 0.930 . S
H317 C332 0.960 . S
H318 C332 0.960 . S
H319 C332 0.960 . S
C320 H312 0.929 . S
C320 C321 1.377 . S
C320 C322 1.384 . S
C321 C320 1.377 . S
C321 C327 1.390 . S
C322 H313 0.930 . S
C322 C320 1.384 . S
C322 C323 1.372 . S
C323 C322 1.372 . S
C323 C324 1.400 . S
C323 C328 1.490 . S
C324 H314 0.930 . S
C324 C323 1.400 . S
C324 C327 1.386 . S
H325 C341 0.930 . S
H326 C342 0.931 . S
C327 H315 0.929 . S
C327 C321 1.390 . S
C327 C324 1.386 . S
C328 C323 1.490 . S
C328 C330 1.395 . S
C328 C331 1.403 . S
H329 C335 0.930 . S
C330 H316 0.930 . S
C330 C328 1.395 . S
C330 C333 1.403 . S
C331 C328 1.403 . S
C331 C332 1.524 . S
C331 C335 1.400 . S
C332 H317 0.960 . S
C332 H318 0.960 . S
C332 H319 0.960 . S
C332 C331 1.524 . S
C333 C330 1.403 . S
C333 C334 1.392 . S
C333 C337 1.495 . S
C334 C333 1.392 . S
C334 C335 1.385 . S
C334 C336 1.478 . S
C335 H329 0.930 . S
C335 C331 1.400 . S
C335 C334 1.385 . S
C336 C334 1.478 . S
C336 C338 1.381 . S
C336 C342 1.383 . S
C337 C333 1.495 . S
C337 H343 0.959 . S
C337 H344 0.961 . S
C337 H345 0.960 . S
C338 C336 1.381 . S
C338 C339 1.394 . S
C338 H346 0.930 . S
C339 C338 1.394 . S
C339 C340 1.383 . S
C339 H347 0.929 . S
C340 C339 1.383 . S
C340 C341 1.377 . S
C341 H325 0.930 . S
C341 C340 1.377 . S
C341 C342 1.379 . S
C342 H326 0.931 . S
C342 C336 1.383 . S
C342 C341 1.379 . S
H343 C337 0.959 . S
H344 C337 0.961 . S
H345 C337 0.960 . S
H346 C338 0.930 . S
H347 C339 0.929 . S
H348 C356 0.929 . S
H349 C358 0.930 . S
H350 C360 0.930 . S
H351 C363 0.929 . S
H352 C366 0.930 . S
H353 C368 0.960 . S
H354 C368 0.960 . S
H355 C368 0.960 . S
C356 H348 0.929 . S
C356 C357 1.377 . S
C356 C358 1.384 . S
C357 C356 1.377 . S
C357 C363 1.390 . S
C358 H349 0.930 . S
C358 C356 1.384 . S
C358 C359 1.372 . S
C359 C358 1.372 . S
C359 C360 1.400 . S
C359 C364 1.490 . S
C360 H350 0.930 . S
C360 C359 1.400 . S
C360 C363 1.386 . S
H361 C377 0.930 . S
H362 C378 0.931 . S
C363 H351 0.929 . S
C363 C357 1.390 . S
C363 C360 1.386 . S
C364 C359 1.490 . S
C364 C366 1.395 . S
C364 C367 1.403 . S
H365 C371 0.930 . S
C366 H352 0.930 . S
C366 C364 1.395 . S
C366 C369 1.403 . S
C367 C364 1.403 . S
C367 C368 1.524 . S
C367 C371 1.400 . S
C368 H353 0.960 . S
C368 H354 0.960 . S
C368 H355 0.960 . S
C368 C367 1.524 . S
C369 C366 1.403 . S
C369 C370 1.392 . S
C369 C373 1.495 . S
C370 C369 1.392 . S
C370 C371 1.385 . S
C370 C372 1.478 . S
C371 H365 0.930 . S
C371 C367 1.400 . S
C371 C370 1.385 . S
C372 C370 1.478 . S
C372 C374 1.381 . S
C372 C378 1.383 . S
C373 C369 1.495 . S
C373 H379 0.959 . S
C373 H380 0.961 . S
C373 H381 0.960 . S
C374 C372 1.381 . S
C374 C375 1.394 . S
C374 H382 0.930 . S
C375 C374 1.394 . S
C375 C376 1.383 . S
C375 H383 0.929 . S
C376 C375 1.383 . S
C376 C377 1.377 . S
C377 H361 0.930 . S
C377 C376 1.377 . S
C377 C378 1.379 . S
C378 H362 0.931 . S
C378 C372 1.383 . S
C378 C377 1.379 . S
H379 C373 0.959 . S
H380 C373 0.961 . S
H381 C373 0.960 . S
H382 C374 0.930 . S
H383 C375 0.929 . S
H384 C392 0.929 . S
H385 C394 0.930 . S
H386 C396 0.930 . S
H387 C399 0.929 . S
H388 C402 0.930 . S
H389 C404 0.960 . S
H390 C404 0.960 . S
H391 C404 0.960 . S
C392 H384 0.929 . S
C392 C393 1.377 . S
C392 C394 1.384 . S
C393 C392 1.377 . S
C393 C399 1.390 . S
C394 H385 0.930 . S
C394 C392 1.384 . S
C394 C395 1.372 . S
C395 C394 1.372 . S
C395 C396 1.400 . S
C395 C400 1.490 . S
C396 H386 0.930 . S
C396 C395 1.400 . S
C396 C399 1.386 . S
H397 C413 0.930 . S
H398 C414 0.931 . S
C399 H387 0.929 . S
C399 C393 1.390 . S
C399 C396 1.386 . S
C400 C395 1.490 . S
C400 C402 1.395 . S
C400 C403 1.403 . S
H401 C407 0.930 . S
C402 H388 0.930 . S
C402 C400 1.395 . S
C402 C405 1.403 . S
C403 C400 1.403 . S
C403 C404 1.524 . S
C403 C407 1.400 . S
C404 H389 0.960 . S
C404 H390 0.960 . S
C404 H391 0.960 . S
C404 C403 1.524 . S
C405 C402 1.403 . S
C405 C406 1.392 . S
C405 C409 1.495 . S
C406 C405 1.392 . S
C406 C407 1.385 . S
C406 C408 1.478 . S
C407 H401 0.930 . S
C407 C403 1.400 . S
C407 C406 1.385 . S
C408 C406 1.478 . S
C408 C410 1.381 . S
C408 C414 1.383 . S
C409 C405 1.495 . S
C409 H415 0.959 . S
C409 H416 0.961 . S
C409 H417 0.960 . S
C410 C408 1.381 . S
C410 C411 1.394 . S
C410 H418 0.930 . S
C411 C410 1.394 . S
C411 C412 1.383 . S
C411 H419 0.929 . S
C412 C411 1.383 . S
C412 C413 1.377 . S
C413 H397 0.930 . S
C413 C412 1.377 . S
C413 C414 1.379 . S
C414 H398 0.931 . S
C414 C408 1.383 . S
C414 C413 1.379 . S
H415 C409 0.959 . S
H416 C409 0.961 . S
H417 C409 0.960 . S
H418 C410 0.930 . S
H419 C411 0.929 . S
H420 C428 0.929 . S
H421 C430 0.930 . S
H422 C432 0.930 . S
H423 C435 0.929 . S
H424 C438 0.930 . S
H425 C440 0.960 . S
H426 C440 0.960 . S
H427 C440 0.960 . S
C428 H420 0.929 . S
C428 C429 1.377 . S
C428 C430 1.384 . S
C429 C428 1.377 . S
C429 C435 1.390 . S
C430 H421 0.930 . S
C430 C428 1.384 . S
C430 C431 1.372 . S
C431 C430 1.372 . S
C431 C432 1.400 . S
C431 C436 1.490 . S
C432 H422 0.930 . S
C432 C431 1.400 . S
C432 C435 1.386 . S
H433 C449 0.930 . S
H434 C450 0.931 . S
C435 H423 0.929 . S
C435 C429 1.390 . S
C435 C432 1.386 . S
C436 C431 1.490 . S
C436 C438 1.395 . S
C436 C439 1.403 . S
H437 C443 0.930 . S
C438 H424 0.930 . S
C438 C436 1.395 . S
C438 C441 1.403 . S
C439 C436 1.403 . S
C439 C440 1.524 . S
C439 C443 1.400 . S
C440 H425 0.960 . S
C440 H426 0.960 . S
C440 H427 0.960 . S
C440 C439 1.524 . S
C441 C438 1.403 . S
C441 C442 1.392 . S
C441 C445 1.495 . S
C442 C441 1.392 . S
C442 C443 1.385 . S
C442 C444 1.478 . S
C443 H437 0.930 . S
C443 C439 1.400 . S
C443 C442 1.385 . S
C444 C442 1.478 . S
C444 C446 1.381 . S
C444 C450 1.383 . S
C445 C441 1.495 . S
C445 H451 0.959 . S
C445 H452 0.961 . S
C445 H453 0.960 . S
C446 C444 1.381 . S
C446 C447 1.394 . S
C446 H454 0.930 . S
C447 C446 1.394 . S
C447 C448 1.383 . S
C447 H455 0.929 . S
C448 C447 1.383 . S
C448 C449 1.377 . S
C449 H433 0.930 . S
C449 C448 1.377 . S
C449 C450 1.379 . S
C450 H434 0.931 . S
C450 C444 1.383 . S
C450 C449 1.379 . S
H451 C445 0.959 . S
H452 C445 0.961 . S
H453 C445 0.960 . S
H454 C446 0.930 . S
H455 C447 0.929 . S
H456 C464 0.929 . S
H457 C466 0.930 . S
H458 C468 0.930 . S
H459 C471 0.929 . S
H460 C474 0.930 . S
H461 C476 0.960 . S
H462 C476 0.960 . S
H463 C476 0.960 . S
C464 H456 0.929 . S
C464 C465 1.377 . S
C464 C466 1.384 . S
C465 C464 1.377 . S
C465 C471 1.390 . S
C466 H457 0.930 . S
C466 C464 1.384 . S
C466 C467 1.372 . S
C467 C466 1.372 . S
C467 C468 1.400 . S
C467 C472 1.490 . S
C468 H458 0.930 . S
C468 C467 1.400 . S
C468 C471 1.386 . S
H469 C485 0.930 . S
H470 C486 0.931 . S
C471 H459 0.929 . S
C471 C465 1.390 . S
C471 C468 1.386 . S
C472 C467 1.490 . S
C472 C474 1.395 . S
C472 C475 1.403 . S
H473 C479 0.930 . S
C474 H460 0.930 . S
C474 C472 1.395 . S
C474 C477 1.403 . S
C475 C472 1.403 . S
C475 C476 1.524 . S
C475 C479 1.400 . S
C476 H461 0.960 . S
C476 H462 0.960 . S
C476 H463 0.960 . S
C476 C475 1.524 . S
C477 C474 1.403 . S
C477 C478 1.392 . S
C477 C481 1.495 . S
C478 C477 1.392 . S
C478 C479 1.385 . S
C478 C480 1.478 . S
C479 H473 0.930 . S
C479 C475 1.400 . S
C479 C478 1.385 . S
C480 C478 1.478 . S
C480 C482 1.381 . S
C480 C486 1.383 . S
C481 C477 1.495 . S
C481 H487 0.959 . S
C481 H488 0.961 . S
C481 H489 0.960 . S
C482 C480 1.381 . S
C482 C483 1.394 . S
C482 H490 0.930 . S
C483 C482 1.394 . S
C483 C484 1.383 . S
C483 H491 0.929 . S
C484 C483 1.383 . S
C484 C485 1.377 . S
C485 H469 0.930 . S
C485 C484 1.377 . S
C485 C486 1.379 . S
C486 H470 0.931 . S
C486 C480 1.383 . S
C486 C485 1.379 . S
H487 C481 0.959 . S
H488 C481 0.961 . S
H489 C481 0.960 . S
H490 C482 0.930 . S
H491 C483 0.929 . S
H492 C500 0.929 . S
H493 C502 0.930 . S
H494 C504 0.930 . S
H495 C507 0.929 . S
H496 C510 0.930 . S
H497 C512 0.960 1_655 S
H498 C512 0.960 1_655 S
H499 C512 0.960 . S
C500 H492 0.929 . S
C500 C501 1.377 . S
C500 C502 1.384 . S
C501 C500 1.377 . S
C501 C507 1.390 . S
C502 H493 0.930 . S
C502 C500 1.384 . S
C502 C503 1.372 . S
C503 C502 1.372 . S
C503 C504 1.400 . S
C503 C508 1.490 . S
C504 H494 0.930 . S
C504 C503 1.400 . S
C504 C507 1.386 . S
H505 C521 0.930 . S
H506 C522 0.931 . S
C507 H495 0.929 . S
C507 C501 1.390 . S
C507 C504 1.386 . S
C508 C503 1.490 . S
C508 C510 1.395 . S
C508 C511 1.403 . S
H509 C515 0.930 . S
C510 H496 0.930 . S
C510 C508 1.395 . S
C510 C513 1.403 1_455 S
C511 C508 1.403 . S
C511 C512 1.524 . S
C511 C515 1.400 1_455 S
C512 H497 0.960 1_455 S
C512 H498 0.960 1_455 S
C512 H499 0.960 . S
C512 C511 1.524 . S
C513 C510 1.403 1_655 S
C513 C514 1.392 . S
C513 C517 1.495 . S
C514 C513 1.392 . S
C514 C515 1.385 . S
C514 C516 1.478 . S
C515 H509 0.930 . S
C515 C511 1.400 1_655 S
C515 C514 1.385 . S
C516 C514 1.478 . S
C516 C518 1.381 . S
C516 C522 1.383 . S
C517 C513 1.495 . S
C517 H523 0.959 1_655 S
C517 H524 0.961 1_655 S
C517 H525 0.960 . S
C518 C516 1.381 . S
C518 C519 1.394 . S
C518 H526 0.930 . S
C519 C518 1.394 . S
C519 C520 1.383 . S
C519 H527 0.929 . S
C520 C519 1.383 . S
C520 C521 1.377 . S
C521 H505 0.930 . S
C521 C520 1.377 . S
C521 C522 1.379 . S
C522 H506 0.931 . S
C522 C516 1.383 . S
C522 C521 1.379 . S
H523 C517 0.959 1_455 S
H524 C517 0.961 1_455 S
H525 C517 0.960 . S
H526 C518 0.930 . S
H527 C519 0.929 . S
H528 C536 0.929 . S
H529 C538 0.930 . S
H530 C540 0.930 . S
H531 C543 0.929 . S
H532 C546 0.930 . S
H533 C548 0.960 . S
H534 C548 0.960 . S
H535 C548 0.960 . S
C536 H528 0.929 . S
C536 C537 1.377 . S
C536 C538 1.384 . S
C537 C536 1.377 . S
C537 C543 1.390 . S
C538 H529 0.930 . S
C538 C536 1.384 . S
C538 C539 1.372 . S
C539 C538 1.372 . S
C539 C540 1.400 . S
C539 C544 1.490 . S
C540 H530 0.930 . S
C540 C539 1.400 . S
C540 C543 1.386 . S
H541 C557 0.930 . S
H542 C558 0.931 . S
C543 H531 0.929 . S
C543 C537 1.390 . S
C543 C540 1.386 . S
C544 C539 1.490 . S
C544 C546 1.395 . S
C544 C547 1.403 . S
H545 C551 0.930 . S
C546 H532 0.930 . S
C546 C544 1.395 . S
C546 C549 1.403 1_545 S
C547 C544 1.403 . S
C547 C548 1.524 . S
C547 C551 1.400 1_545 S
C548 H533 0.960 . S
C548 H534 0.960 . S
C548 H535 0.960 . S
C548 C547 1.524 . S
C549 C546 1.403 1_565 S
C549 C550 1.392 . S
C549 C553 1.495 . S
C550 C549 1.392 . S
C550 C551 1.385 . S
C550 C552 1.478 . S
C551 H545 0.930 . S
C551 C547 1.400 1_565 S
C551 C550 1.385 . S
C552 C550 1.478 . S
C552 C554 1.381 . S
C552 C558 1.383 . S
C553 C549 1.495 . S
C553 H559 0.959 . S
C553 H560 0.961 . S
C553 H561 0.960 . S
C554 C552 1.381 . S
C554 C555 1.394 . S
C554 H562 0.930 . S
C555 C554 1.394 . S
C555 C556 1.383 . S
C555 H563 0.929 . S
C556 C555 1.383 . S
C556 C557 1.377 . S
C557 H541 0.930 . S
C557 C556 1.377 . S
C557 C558 1.379 . S
C558 H542 0.931 . S
C558 C552 1.383 . S
C558 C557 1.379 . S
H559 C553 0.959 . S
H560 C553 0.961 . S
H561 C553 0.960 . S
H562 C554 0.930 . S
H563 C555 0.929 . S
H564 C572 0.929 . S
H565 C574 0.930 . S
H566 C576 0.930 . S
H567 C579 0.929 . S
H568 C582 0.930 . S
H569 C584 0.960 . S
H570 C584 0.960 . S
H571 C584 0.960 . S
C572 H564 0.929 . S
C572 C573 1.377 . S
C572 C574 1.384 . S
C573 C572 1.377 . S
C573 C579 1.390 . S
C574 H565 0.930 . S
C574 C572 1.384 . S
C574 C575 1.372 . S
C575 C574 1.372 . S
C575 C576 1.400 . S
C575 C580 1.490 . S
C576 H566 0.930 . S
C576 C575 1.400 . S
C576 C579 1.386 . S
H577 C593 0.930 . S
H578 C594 0.931 . S
C579 H567 0.929 . S
C579 C573 1.390 . S
C579 C576 1.386 . S
C580 C575 1.490 . S
C580 C582 1.395 . S
C580 C583 1.403 . S
H581 C587 0.930 . S
C582 H568 0.930 . S
C582 C580 1.395 . S
C582 C585 1.403 . S
C583 C580 1.403 . S
C583 C584 1.524 . S
C583 C587 1.400 . S
C584 H569 0.960 . S
C584 H570 0.960 . S
C584 H571 0.960 . S
C584 C583 1.524 . S
C585 C582 1.403 . S
C585 C586 1.392 . S
C585 C589 1.495 . S
C586 C585 1.392 . S
C586 C587 1.385 . S
C586 C588 1.478 . S
C587 H581 0.930 . S
C587 C583 1.400 . S
C587 C586 1.385 . S
C588 C586 1.478 . S
C588 C590 1.381 . S
C588 C594 1.383 . S
C589 C585 1.495 . S
C589 H595 0.959 . S
C589 H596 0.961 . S
C589 H597 0.960 . S
C590 C588 1.381 . S
C590 C591 1.394 . S
C590 H598 0.930 . S
C591 C590 1.394 . S
C591 C592 1.383 . S
C591 H599 0.929 . S
C592 C591 1.383 . S
C592 C593 1.377 . S
C593 H577 0.930 . S
C593 C592 1.377 . S
C593 C594 1.379 . S
C594 H578 0.931 . S
C594 C588 1.383 . S
C594 C593 1.379 . S
H595 C589 0.959 . S
H596 C589 0.961 . S
H597 C589 0.960 . S
H598 C590 0.930 . S
H599 C591 0.929 . S
H600 C608 0.929 . S
H601 C610 0.930 . S
H602 C612 0.930 . S
H603 C615 0.929 . S
H604 C618 0.930 . S
H605 C620 0.960 . S
H606 C620 0.960 . S
H607 C620 0.960 . S
C608 H600 0.929 . S
C608 C609 1.377 . S
C608 C610 1.384 . S
C609 C608 1.377 . S
C609 C615 1.390 . S
C610 H601 0.930 . S
C610 C608 1.384 . S
C610 C611 1.372 . S
C611 C610 1.372 . S
C611 C612 1.400 . S
C611 C616 1.490 . S
C612 H602 0.930 . S
C612 C611 1.400 . S
C612 C615 1.386 . S
H613 C629 0.930 . S
H614 C630 0.931 . S
C615 H603 0.929 . S
C615 C609 1.390 . S
C615 C612 1.386 . S
C616 C611 1.490 . S
C616 C618 1.395 . S
C616 C619 1.403 1_455 S
H617 C623 0.930 . S
C618 H604 0.930 . S
C618 C616 1.395 . S
C618 C621 1.403 . S
C619 C616 1.403 1_655 S
C619 C620 1.524 . S
C619 C623 1.400 . S
C620 H605 0.960 . S
C620 H606 0.960 . S
C620 H607 0.960 . S
C620 C619 1.524 . S
C621 C618 1.403 . S
C621 C622 1.392 1_455 S
C621 C625 1.495 . S
C622 C621 1.392 1_655 S
C622 C623 1.385 . S
C622 C624 1.478 . S
C623 H617 0.930 . S
C623 C619 1.400 . S
C623 C622 1.385 . S
C624 C622 1.478 . S
C624 C626 1.381 . S
C624 C630 1.383 . S
C625 C621 1.495 . S
C625 H631 0.959 . S
C625 H632 0.961 1_554 S
C625 H633 0.960 . S
C626 C624 1.381 . S
C626 C627 1.394 . S
C626 H634 0.930 . S
C627 C626 1.394 . S
C627 C628 1.383 . S
C627 H635 0.929 . S
C628 C627 1.383 . S
C628 C629 1.377 . S
C629 H613 0.930 . S
C629 C628 1.377 . S
C629 C630 1.379 . S
C630 H614 0.931 . S
C630 C624 1.383 . S
C630 C629 1.379 . S
H631 C625 0.959 . S
H632 C625 0.961 1_556 S
H633 C625 0.960 . S
H634 C626 0.930 . S
H635 C627 0.929 . S
H636 C644 0.929 . S
H637 C646 0.930 . S
H638 C648 0.930 . S
H639 C651 0.929 . S
H640 C654 0.930 . S
H641 C656 0.960 . S
H642 C656 0.960 . S
H643 C656 0.960 . S
C644 H636 0.929 . S
C644 C645 1.377 . S
C644 C646 1.384 . S
C645 C644 1.377 . S
C645 C651 1.390 . S
C646 H637 0.930 . S
C646 C644 1.384 . S
C646 C647 1.372 . S
C647 C646 1.372 . S
C647 C648 1.400 . S
C647 C652 1.490 . S
C648 H638 0.930 . S
C648 C647 1.400 . S
C648 C651 1.386 . S
H649 C665 0.930 . S
H650 C666 0.931 . S
C651 H639 0.929 . S
C651 C645 1.390 . S
C651 C648 1.386 . S
C652 C647 1.490 . S
C652 C654 1.395 1_565 S
C652 C655 1.403 . S
H653 C659 0.930 . S
C654 H640 0.930 . S
C654 C652 1.395 1_545 S
C654 C657 1.403 . S
C655 C652 1.403 . S
C655 C656 1.524 . S
C655 C659 1.400 . S
C656 H641 0.960 . S
C656 H642 0.960 . S
C656 H643 0.960 . S
C656 C655 1.524 . S
C657 C654 1.403 . S
C657 C658 1.392 . S
C657 C661 1.495 . S
C658 C657 1.392 . S
C658 C659 1.385 1_545 S
C658 C660 1.478 . S
C659 H653 0.930 . S
C659 C655 1.400 . S
C659 C658 1.385 1_565 S
C660 C658 1.478 . S
C660 C662 1.381 . S
C660 C666 1.383 . S
C661 C657 1.495 . S
C661 H667 0.959 . S
C661 H668 0.961 . S
C661 H669 0.960 . S
C662 C660 1.381 . S
C662 C663 1.394 . S
C662 H670 0.930 . S
C663 C662 1.394 . S
C663 C664 1.383 . S
C663 H671 0.929 . S
C664 C663 1.383 . S
C664 C665 1.377 . S
C665 H649 0.930 . S
C665 C664 1.377 . S
C665 C666 1.379 . S
C666 H650 0.931 . S
C666 C660 1.383 . S
C666 C665 1.379 . S
H667 C661 0.959 . S
H668 C661 0.961 . S
H669 C661 0.960 . S
H670 C662 0.930 . S
H671 C663 0.929 . S
H672 C680 0.929 . S
H673 C682 0.930 . S
H674 C684 0.930 . S
H675 C687 0.929 . S
H676 C690 0.930 . S
H677 C692 0.960 . S
H678 C692 0.960 . S
H679 C692 0.960 . S
C680 H672 0.929 . S
C680 C681 1.377 . S
C680 C682 1.384 . S
C681 C680 1.377 . S
C681 C687 1.390 . S
C682 H673 0.930 . S
C682 C680 1.384 . S
C682 C683 1.372 . S
C683 C682 1.372 . S
C683 C684 1.400 . S
C683 C688 1.490 . S
C684 H674 0.930 . S
C684 C683 1.400 . S
C684 C687 1.386 . S
H685 C701 0.930 . S
H686 C702 0.931 . S
C687 H675 0.929 . S
C687 C681 1.390 . S
C687 C684 1.386 . S
C688 C683 1.490 . S
C688 C690 1.395 . S
C688 C691 1.403 . S
H689 C695 0.930 . S
C690 H676 0.930 . S
C690 C688 1.395 . S
C690 C693 1.403 . S
C691 C688 1.403 . S
C691 C692 1.524 . S
C691 C695 1.400 . S
C692 H677 0.960 . S
C692 H678 0.960 . S
C692 H679 0.960 . S
C692 C691 1.524 . S
C693 C690 1.403 . S
C693 C694 1.392 . S
C693 C697 1.495 . S
C694 C693 1.392 . S
C694 C695 1.385 . S
C694 C696 1.478 . S
C695 H689 0.930 . S
C695 C691 1.400 . S
C695 C694 1.385 . S
C696 C694 1.478 . S
C696 C698 1.381 . S
C696 C702 1.383 . S
C697 C693 1.495 . S
C697 H703 0.959 . S
C697 H704 0.961 . S
C697 H705 0.960 . S
C698 C696 1.381 . S
C698 C699 1.394 . S
C698 H706 0.930 . S
C699 C698 1.394 . S
C699 C700 1.383 . S
C699 H707 0.929 . S
C700 C699 1.383 . S
C700 C701 1.377 . S
C701 H685 0.930 . S
C701 C700 1.377 . S
C701 C702 1.379 . S
C702 H686 0.931 . S
C702 C696 1.383 . S
C702 C701 1.379 . S
H703 C697 0.959 . S
H704 C697 0.961 . S
H705 C697 0.960 . S
H706 C698 0.930 . S
H707 C699 0.929 . S
H708 C716 0.929 . S
H709 C718 0.930 . S
H710 C720 0.930 . S
H711 C723 0.929 . S
H712 C726 0.930 . S
H713 C728 0.960 . S
H714 C728 0.960 . S
H715 C728 0.960 . S
C716 H708 0.929 . S
C716 C717 1.377 . S
C716 C718 1.384 1_655 S
C717 C716 1.377 . S
C717 C723 1.390 . S
C718 H709 0.930 . S
C718 C716 1.384 1_455 S
C718 C719 1.372 1_455 S
C719 C718 1.372 1_655 S
C719 C720 1.400 . S
C719 C724 1.489 1_655 S
C720 H710 0.930 . S
C720 C719 1.400 . S
C720 C723 1.386 . S
H721 C737 0.930 . S
H722 C738 0.931 . S
C723 H711 0.929 . S
C723 C717 1.390 . S
C723 C720 1.386 . S
C724 C719 1.489 1_455 S
C724 C726 1.395 . S
C724 C727 1.403 . S
H725 C731 0.930 . S
C726 H712 0.930 . S
C726 C724 1.395 . S
C726 C729 1.403 . S
C727 C724 1.403 . S
C727 C728 1.524 1_455 S
C727 C731 1.400 . S
C728 H713 0.960 . S
C728 H714 0.960 . S
C728 H715 0.960 . S
C728 C727 1.524 1_655 S
C729 C726 1.403 . S
C729 C730 1.392 . S
C729 C733 1.495 . S
C730 C729 1.392 . S
C730 C731 1.385 . S
C730 C732 1.478 . S
C731 H725 0.930 . S
C731 C727 1.400 . S
C731 C730 1.385 . S
C732 C730 1.478 . S
C732 C734 1.381 . S
C732 C738 1.383 . S
C733 C729 1.495 . S
C733 H739 0.959 . S
C733 H740 0.961 . S
C733 H741 0.960 . S
C734 C732 1.381 . S
C734 C735 1.394 . S
C734 H742 0.930 . S
C735 C734 1.394 . S
C735 C736 1.383 . S
C735 H743 0.929 . S
C736 C735 1.383 . S
C736 C737 1.377 . S
C737 H721 0.930 . S
C737 C736 1.377 . S
C737 C738 1.379 . S
C738 H722 0.931 . S
C738 C732 1.383 . S
C738 C737 1.379 . S
H739 C733 0.959 . S
H740 C733 0.961 . S
H741 C733 0.960 . S
H742 C734 0.930 . S
H743 C735 0.929 . S
H744 C752 0.918 1_545 S
H745 C754 0.930 . S
H746 C756 0.930 . S
H747 C759 0.929 . S
H748 C762 0.930 . S
H749 C764 0.960 . S
H750 C764 0.960 . S
H751 C764 0.960 . S
C752 H744 0.918 1_565 S
C752 C753 1.377 . S
C752 C754 1.384 1_565 S
C753 C752 1.377 . S
C753 C759 1.390 . S
C754 H745 0.930 . S
C754 C752 1.384 1_545 S
C754 C755 1.378 . S
C755 C754 1.378 . S
C755 C756 1.387 1_545 S
C755 C760 1.497 . S
C756 H746 0.930 . S
C756 C755 1.387 1_565 S
C756 C759 1.386 . S
H757 C773 0.930 . S
H758 C774 0.931 . S
C759 H747 0.929 . S
C759 C753 1.390 . S
C759 C756 1.386 . S
C760 C755 1.497 . S
C760 C762 1.395 . S
C760 C763 1.403 . S
H761 C767 0.930 . S
C762 H748 0.930 . S
C762 C760 1.395 . S
C762 C765 1.403 . S
C763 C760 1.403 . S
C763 C764 1.524 1_545 S
C763 C767 1.400 . S
C764 H749 0.960 . S
C764 H750 0.960 . S
C764 H751 0.960 . S
C764 C763 1.524 1_565 S
C765 C762 1.403 . S
C765 C766 1.392 . S
C765 C769 1.495 . S
C766 C765 1.392 . S
C766 C767 1.385 . S
C766 C768 1.478 . S
C767 H761 0.930 . S
C767 C763 1.400 . S
C767 C766 1.385 . S
C768 C766 1.478 . S
C768 C770 1.381 . S
C768 C774 1.383 . S
C769 C765 1.495 . S
C769 H775 0.959 . S
C769 H776 0.961 . S
C769 H777 0.960 . S
C770 C768 1.381 . S
C770 C771 1.394 . S
C770 H778 0.930 . S
C771 C770 1.394 . S
C771 C772 1.383 . S
C771 H779 0.929 . S
C772 C771 1.383 . S
C772 C773 1.377 . S
C773 H757 0.930 . S
C773 C772 1.377 . S
C773 C774 1.379 . S
C774 H758 0.931 . S
C774 C768 1.383 . S
C774 C773 1.379 . S
H775 C769 0.959 . S
H776 C769 0.961 . S
H777 C769 0.960 . S
H778 C770 0.930 . S
H779 C771 0.929 . S
H780 C788 0.929 . S
H781 C790 0.930 . S
H782 C792 0.930 . S
H783 C795 0.929 . S
H784 C798 0.930 . S
H785 C800 0.960 . S
H786 C800 0.960 . S
H787 C800 0.960 . S
C788 H780 0.929 . S
C788 C789 1.377 . S
C788 C790 1.384 . S
C789 C788 1.377 . S
C789 C795 1.390 . S
C790 H781 0.930 . S
C790 C788 1.384 . S
C790 C791 1.372 . S
C791 C790 1.372 . S
C791 C792 1.400 . S
C791 C796 1.490 . S
C792 H782 0.930 . S
C792 C791 1.400 . S
C792 C795 1.386 . S
H793 C809 0.930 . S
H794 C810 0.931 . S
C795 H783 0.929 . S
C795 C789 1.390 . S
C795 C792 1.386 . S
C796 C791 1.490 . S
C796 C798 1.395 . S
C796 C799 1.403 . S
H797 C803 0.930 . S
C798 H784 0.930 . S
C798 C796 1.395 . S
C798 C801 1.403 . S
C799 C796 1.403 . S
C799 C800 1.524 . S
C799 C803 1.400 . S
C800 H785 0.960 . S
C800 H786 0.960 . S
C800 H787 0.960 . S
C800 C799 1.524 . S
C801 C798 1.403 . S
C801 C802 1.392 . S
C801 C805 1.495 . S
C802 C801 1.392 . S
C802 C803 1.385 . S
C802 C804 1.478 . S
C803 H797 0.930 . S
C803 C799 1.400 . S
C803 C802 1.385 . S
C804 C802 1.478 . S
C804 C806 1.381 . S
C804 C810 1.383 . S
C805 C801 1.495 . S
C805 H811 0.959 . S
C805 H812 0.961 . S
C805 H813 0.960 . S
C806 C804 1.381 . S
C806 C807 1.394 . S
C806 H814 0.930 . S
C807 C806 1.394 . S
C807 C808 1.383 . S
C807 H815 0.929 . S
C808 C807 1.383 . S
C808 C809 1.377 . S
C809 H793 0.930 . S
C809 C808 1.377 . S
C809 C810 1.379 . S
C810 H794 0.931 . S
C810 C804 1.383 . S
C810 C809 1.379 . S
H811 C805 0.959 . S
H812 C805 0.961 . S
H813 C805 0.960 . S
H814 C806 0.930 . S
H815 C807 0.929 . S
H816 C824 0.929 . S
H817 C826 0.935 1_655 S
H818 C828 0.930 . S
H819 C831 0.929 . S
H820 C834 0.930 . S
H821 C836 0.960 . S
H822 C836 0.960 . S
H823 C836 0.960 . S
C824 H816 0.929 . S
C824 C825 1.377 . S
C824 C826 1.384 . S
C825 C824 1.377 . S
C825 C831 1.390 . S
C826 H817 0.935 1_455 S
C826 C824 1.384 . S
C826 C827 1.372 . S
C827 C826 1.372 . S
C827 C828 1.400 . S
C827 C832 1.490 1_455 S
C828 H818 0.930 . S
C828 C827 1.400 . S
C828 C831 1.386 . S
H829 C845 0.930 . S
H830 C846 0.931 . S
C831 H819 0.929 . S
C831 C825 1.390 . S
C831 C828 1.386 . S
C832 C827 1.490 1_655 S
C832 C834 1.395 . S
C832 C835 1.403 . S
H833 C839 0.930 . S
C834 H820 0.930 . S
C834 C832 1.395 . S
C834 C837 1.403 . S
C835 C832 1.403 . S
C835 C836 1.524 1_655 S
C835 C839 1.400 . S
C836 H821 0.960 . S
C836 H822 0.960 . S
C836 H823 0.960 . S
C836 C835 1.524 1_455 S
C837 C834 1.403 . S
C837 C838 1.392 . S
C837 C841 1.495 . S
C838 C837 1.392 . S
C838 C839 1.385 . S
C838 C840 1.478 . S
C839 H833 0.930 . S
C839 C835 1.400 . S
C839 C838 1.385 . S
C840 C838 1.478 . S
C840 C842 1.381 . S
C840 C846 1.383 . S
C841 C837 1.495 . S
C841 H847 0.959 . S
C841 H848 0.961 . S
C841 H849 0.960 . S
C842 C840 1.381 . S
C842 C843 1.394 . S
C842 H850 0.930 . S
C843 C842 1.394 . S
C843 C844 1.383 . S
C843 H851 0.929 . S
C844 C843 1.383 . S
C844 C845 1.377 . S
C845 H829 0.930 . S
C845 C844 1.377 . S
C845 C846 1.379 . S
C846 H830 0.931 . S
C846 C840 1.383 . S
C846 C845 1.379 . S
H847 C841 0.959 . S
H848 C841 0.961 . S
H849 C841 0.960 . S
H850 C842 0.930 . S
H851 C843 0.929 . S
H852 C860 0.929 . S
H853 C862 0.930 . S
H854 C864 0.930 . S
H855 C867 0.929 . S
H856 C870 0.930 . S
H857 C872 0.960 1_565 S
H858 C872 0.960 . S
H859 C872 0.960 1_565 S
C860 H852 0.929 . S
C860 C861 1.377 . S
C860 C862 1.384 . S
C861 C860 1.377 . S
C861 C867 1.390 . S
C862 H853 0.930 . S
C862 C860 1.384 . S
C862 C863 1.372 . S
C863 C862 1.372 . S
C863 C864 1.400 1_545 S
C863 C868 1.490 1_545 S
C864 H854 0.930 . S
C864 C863 1.400 1_565 S
C864 C867 1.386 1_565 S
H865 C881 0.930 . S
H866 C882 0.931 . S
C867 H855 0.929 . S
C867 C861 1.390 . S
C867 C864 1.386 1_545 S
C868 C863 1.490 1_565 S
C868 C870 1.395 . S
C868 C871 1.403 . S
H869 C875 0.930 . S
C870 H856 0.930 . S
C870 C868 1.395 . S
C870 C873 1.403 . S
C871 C868 1.403 . S
C871 C872 1.524 1_565 S
C871 C875 1.400 . S
C872 H857 0.960 1_545 S
C872 H858 0.960 . S
C872 H859 0.960 1_545 S
C872 C871 1.524 1_545 S
C873 C870 1.403 . S
C873 C874 1.392 . S
C873 C877 1.495 . S
C874 C873 1.392 . S
C874 C875 1.385 . S
C874 C876 1.478 . S
C875 H869 0.930 . S
C875 C871 1.400 . S
C875 C874 1.385 . S
C876 C874 1.478 . S
C876 C878 1.381 . S
C876 C882 1.383 . S
C877 C873 1.495 . S
C877 H883 0.959 . S
C877 H884 0.961 . S
C877 H885 0.960 . S
C878 C876 1.381 . S
C878 C879 1.394 . S
C878 H886 0.930 . S
C879 C878 1.394 . S
C879 C880 1.383 . S
C879 H887 0.929 . S
C880 C879 1.383 . S
C880 C881 1.377 . S
C881 H865 0.930 . S
C881 C880 1.377 . S
C881 C882 1.379 . S
C882 H866 0.931 . S
C882 C876 1.383 . S
C882 C881 1.379 . S
H883 C877 0.959 . S
H884 C877 0.961 . S
H885 C877 0.960 . S
H886 C878 0.930 . S
H887 C879 0.929 . S
C249 C171 1.159 . S
C268 C7 1.157 . S
C285 C211 1.156 . S
C304 C47 1.158 . S
C321 C11 1.159 . S
C340 C87 1.156 . S
C357 C51 1.159 . S
C376 C127 1.156 . S
C393 C91 1.156 . S
C412 C167 1.159 . S
C429 C131 1.156 . S
C448 C207 1.159 . S
C465 C10 0.680 . S
C484 C130 0.609 . S
C501 C170 0.703 . S
C520 C50 0.725 . S
C537 C210 0.672 . S
C556 C90 0.674 . S
C573 C99 0.686 . S
C592 C219 0.685 . S
C609 C19 0.687 . S
C628 C139 0.683 . S
C645 C179 0.681 . S
C664 C59 0.684 . S
C681 C202 1.247 . S
C700 C16 1.245 . S
C717 C56 1.224 . S
C736 C2 1.244 . S
C753 C96 1.223 . S
C772 C42 1.245 . S
C789 C82 1.247 . S
C808 C136 1.242 . S
C825 C176 1.225 . S
C844 C122 1.243 . S
C861 C216 1.229 . S
C880 C162 1.243 . S
