# Generated by pormake.
# Topology fng, (5)-cn, num edge types: 1
# Building blocks:
#     Node 0, Type 0, BuildingBlock: XOMCOT_clean_sbu_1, # of connection points: 5
#     Node 1, Type 0, BuildingBlock: XOMCOT_clean_sbu_1, # of connection points: 5
#     Node 2, Type 0, BuildingBlock: XOMCOT_clean_sbu_1, # of connection points: 5
#     Node 3, Type 0, BuildingBlock: XOMCOT_clean_sbu_1, # of connection points: 5
#     Node 4, Type 0, BuildingBlock: XOMCOT_clean_sbu_1, # of connection points: 5
#     Node 5, Type 0, BuildingBlock: XOMCOT_clean_sbu_1, # of connection points: 5
#     Node 6, Type 0, BuildingBlock: XOMCOT_clean_sbu_1, # of connection points: 5
#     Node 7, Type 0, BuildingBlock: XOMCOT_clean_sbu_1, # of connection points: 5
#     Node 8, Type 0, BuildingBlock: XOMCOT_clean_sbu_1, # of connection points: 5
#     Node 9, Type 0, BuildingBlock: XOMCOT_clean_sbu_1, # of connection points: 5
#     Node 10, Type 0, BuildingBlock: XOMCOT_clean_sbu_1, # of connection points: 5
#     Node 11, Type 0, BuildingBlock: XOMCOT_clean_sbu_1, # of connection points: 5
#     Node 12, Type 0, BuildingBlock: XOMCOT_clean_sbu_1, # of connection points: 5
#     Node 13, Type 0, BuildingBlock: XOMCOT_clean_sbu_1, # of connection points: 5
#     Node 14, Type 0, BuildingBlock: XOMCOT_clean_sbu_1, # of connection points: 5
#     Node 15, Type 0, BuildingBlock: XOMCOT_clean_sbu_1, # of connection points: 5
#     Node 16, Type 0, BuildingBlock: XOMCOT_clean_sbu_1, # of connection points: 5
#     Node 17, Type 0, BuildingBlock: XOMCOT_clean_sbu_1, # of connection points: 5
#     Edge 18, Type (0, 0), BuildingBlock: MIFKUJ_clean_linker_0, # of connection points: 2
#     Edge 19, Type (0, 0), BuildingBlock: MIFKUJ_clean_linker_0, # of connection points: 2
#     Edge 20, Type (0, 0), BuildingBlock: MIFKUJ_clean_linker_0, # of connection points: 2
#     Edge 21, Type (0, 0), BuildingBlock: MIFKUJ_clean_linker_0, # of connection points: 2
#     Edge 22, Type (0, 0), BuildingBlock: MIFKUJ_clean_linker_0, # of connection points: 2
#     Edge 23, Type (0, 0), BuildingBlock: MIFKUJ_clean_linker_0, # of connection points: 2
#     Edge 24, Type (0, 0), BuildingBlock: MIFKUJ_clean_linker_0, # of connection points: 2
#     Edge 25, Type (0, 0), BuildingBlock: MIFKUJ_clean_linker_0, # of connection points: 2
#     Edge 26, Type (0, 0), BuildingBlock: MIFKUJ_clean_linker_0, # of connection points: 2
#     Edge 27, Type (0, 0), BuildingBlock: MIFKUJ_clean_linker_0, # of connection points: 2
#     Edge 28, Type (0, 0), BuildingBlock: MIFKUJ_clean_linker_0, # of connection points: 2
#     Edge 29, Type (0, 0), BuildingBlock: MIFKUJ_clean_linker_0, # of connection points: 2
#     Edge 30, Type (0, 0), BuildingBlock: MIFKUJ_clean_linker_0, # of connection points: 2
#     Edge 31, Type (0, 0), BuildingBlock: MIFKUJ_clean_linker_0, # of connection points: 2
#     Edge 32, Type (0, 0), BuildingBlock: MIFKUJ_clean_linker_0, # of connection points: 2
#     Edge 33, Type (0, 0), BuildingBlock: MIFKUJ_clean_linker_0, # of connection points: 2
#     Edge 34, Type (0, 0), BuildingBlock: MIFKUJ_clean_linker_0, # of connection points: 2
#     Edge 35, Type (0, 0), BuildingBlock: MIFKUJ_clean_linker_0, # of connection points: 2
#     Edge 36, Type (0, 0), BuildingBlock: MIFKUJ_clean_linker_0, # of connection points: 2
#     Edge 37, Type (0, 0), BuildingBlock: MIFKUJ_clean_linker_0, # of connection points: 2
#     Edge 38, Type (0, 0), BuildingBlock: MIFKUJ_clean_linker_0, # of connection points: 2
#     Edge 39, Type (0, 0), BuildingBlock: MIFKUJ_clean_linker_0, # of connection points: 2
#     Edge 40, Type (0, 0), BuildingBlock: MIFKUJ_clean_linker_0, # of connection points: 2
#     Edge 41, Type (0, 0), BuildingBlock: MIFKUJ_clean_linker_0, # of connection points: 2
#     Edge 42, Type (0, 0), BuildingBlock: MIFKUJ_clean_linker_0, # of connection points: 2
#     Edge 43, Type (0, 0), BuildingBlock: MIFKUJ_clean_linker_0, # of connection points: 2
#     Edge 44, Type (0, 0), BuildingBlock: MIFKUJ_clean_linker_0, # of connection points: 2
#     Edge 45, Type (0, 0), BuildingBlock: MIFKUJ_clean_linker_0, # of connection points: 2
#     Edge 46, Type (0, 0), BuildingBlock: MIFKUJ_clean_linker_0, # of connection points: 2
#     Edge 47, Type (0, 0), BuildingBlock: MIFKUJ_clean_linker_0, # of connection points: 2
#     Edge 48, Type (0, 0), BuildingBlock: MIFKUJ_clean_linker_0, # of connection points: 2
#     Edge 49, Type (0, 0), BuildingBlock: MIFKUJ_clean_linker_0, # of connection points: 2
#     Edge 50, Type (0, 0), BuildingBlock: MIFKUJ_clean_linker_0, # of connection points: 2
#     Edge 51, Type (0, 0), BuildingBlock: MIFKUJ_clean_linker_0, # of connection points: 2
#     Edge 52, Type (0, 0), BuildingBlock: MIFKUJ_clean_linker_0, # of connection points: 2
#     Edge 53, Type (0, 0), BuildingBlock: MIFKUJ_clean_linker_0, # of connection points: 2
#     Edge 54, Type (0, 0), BuildingBlock: MIFKUJ_clean_linker_0, # of connection points: 2
#     Edge 55, Type (0, 0), BuildingBlock: MIFKUJ_clean_linker_0, # of connection points: 2
#     Edge 56, Type (0, 0), BuildingBlock: MIFKUJ_clean_linker_0, # of connection points: 2
#     Edge 57, Type (0, 0), BuildingBlock: MIFKUJ_clean_linker_0, # of connection points: 2
#     Edge 58, Type (0, 0), BuildingBlock: MIFKUJ_clean_linker_0, # of connection points: 2
#     Edge 59, Type (0, 0), BuildingBlock: MIFKUJ_clean_linker_0, # of connection points: 2
#     Edge 60, Type (0, 0), BuildingBlock: MIFKUJ_clean_linker_0, # of connection points: 2
#     Edge 61, Type (0, 0), BuildingBlock: MIFKUJ_clean_linker_0, # of connection points: 2
#     Edge 62, Type (0, 0), BuildingBlock: MIFKUJ_clean_linker_0, # of connection points: 2
# Relax obj value: 0.115
# Max RMSD: 0.142
# Mean RMSD: 0.142
data_MOF--net-fng--node1-XOMCOT_clean_sbu_1--edge1-MIFKUJ_clean_linker_0
_symmetry_space_group_name_H-M    P1
_symmetry_Int_Tables_number       1
_symmetry_cell_setting            triclinic
loop_
_symmetry_equiv_pos_as_xyz
'x, y, z'
_cell_length_a     102.65284
_cell_length_b     102.67563
_cell_length_c     21.571099
_cell_angle_alpha  89.959279
_cell_angle_beta   90.022876
_cell_angle_gamma 119.9676
loop_
_atom_site_label
_atom_site_type_symbol
_atom_site_fract_x
_atom_site_fract_y
_atom_site_fract_z
_atom_type_partial_charge
C0 C 0.13066 0.25822 0.07856 0.0
C1 C 0.13149 0.26267 0.01788 0.0
N2 N 0.1399 0.25823 0.98601 0.0
N3 N 0.13853 0.25104 0.08522 0.0
C4 C 0.14416 0.25136 0.0283 0.0
H5 H 0.12431 0.25969 0.11514 0.0
Co6 Co 0.1395 0.24192 0.15832 0.0
C7 C 0.146 0.21853 0.10959 0.0
O8 O 0.13376 0.20837 0.13779 0.0
N9 N 0.14088 0.23343 0.23448 0.0
C10 C 0.14997 0.22606 0.31237 0.0
C11 C 0.14945 0.22726 0.24934 0.0
C12 C 0.13688 0.23639 0.29029 0.0
N13 N 0.14225 0.23203 0.33845 0.0
O14 O 0.15853 0.25967 0.17838 0.0
H15 H 0.15634 0.22515 0.21802 0.0
H16 H 0.13128 0.24286 0.29554 0.0
O17 O 0.14983 0.23246 0.11419 0.0
C18 C 0.15557 0.26858 0.20866 0.0
O19 O 0.14136 0.26465 0.21604 0.0
N20 N 0.1198 0.22537 0.141 0.0
C21 C 0.08913 0.20621 0.1133 0.0
C22 C 0.10035 0.20908 0.0693 0.0
C23 C 0.11555 0.21879 0.08375 0.0
C24 C 0.10901 0.22258 0.18426 0.0
C25 C 0.09376 0.21291 0.17188 0.0
H26 H 0.12383 0.22142 0.04788 0.0
H27 H 0.11201 0.2285 0.22772 0.0
H28 H 0.15055 0.2459 0.01732 0.0
H29 H 0.12598 0.26841 -0.00127 0.0
H30 H 0.15642 0.22197 0.3368 0.0
H31 H 0.09742 0.20447 0.02294 0.0
H32 H 0.08563 0.21108 0.20768 0.0
C33 C 0.75449 0.88459 0.02985 0.0
C34 C 0.75224 0.88588 0.96778 0.0
N35 N 0.76412 0.8986 0.94626 0.0
N36 N 0.76768 0.89648 0.04733 0.0
C37 C 0.77327 0.9048 0.99552 0.0
H38 H 0.74721 0.87531 0.05968 0.0
Co39 Co 0.77673 0.89977 0.12424 0.0
C40 C 0.79999 0.93265 0.12663 0.0
O41 O 0.80866 0.93009 0.16341 0.0
N42 N 0.78581 0.90291 0.20326 0.0
C43 C 0.79941 0.90344 0.28481 0.0
C44 C 0.79634 0.89962 0.22345 0.0
C45 C 0.78272 0.90872 0.25373 0.0
N46 N 0.79077 0.90909 0.30377 0.0
O47 O 0.75989 0.90072 0.15993 0.0
H48 H 0.80156 0.89468 0.1962 0.0
H49 H 0.77471 0.91263 0.25417 0.0
O50 O 0.78743 0.92165 0.10826 0.0
C51 C 0.75038 0.88795 0.18262 0.0
O52 O 0.7538 0.8772 0.18156 0.0
N53 N 0.79181 0.89676 0.0885 0.0
C54 C 0.81035 0.88594 0.04438 0.0
C55 C 0.81446 0.90116 0.03709 0.0
C56 C 0.80495 0.90635 0.05902 0.0
C57 C 0.78733 0.88188 0.09311 0.0
C58 C 0.79646 0.8763 0.07255 0.0
H59 H 0.80817 0.91795 0.05148 0.0
H60 H 0.77672 0.87435 0.11523 0.0
H61 H 0.78403 0.91506 0.99369 0.0
H62 H 0.74293 0.87772 0.94014 0.0
H63 H 0.80698 0.90166 0.31386 0.0
H64 H 0.82484 0.90898 0.01407 0.0
H65 H 0.79273 0.86454 0.0803 0.0
C66 C 0.13806 0.88133 0.06672 0.0
C67 C 0.14103 0.88129 0.00445 0.0
N68 N 0.12825 0.87722 0.97258 0.0
N69 N 0.12351 0.87733 0.07402 0.0
C70 C 0.1178 0.87472 0.01606 0.0
H71 H 0.14611 0.88461 0.10415 0.0
Co72 Co 0.11467 0.87779 0.14826 0.0
C73 C 0.08376 0.87039 0.11131 0.0
O74 O 0.08555 0.88209 0.14309 0.0
N75 N 0.1058 0.87788 0.22505 0.0
C76 C 0.09053 0.8685 0.30647 0.0
C77 C 0.09234 0.86666 0.24482 0.0
C78 C 0.11216 0.88612 0.27682 0.0
N79 N 0.10305 0.88071 0.32688 0.0
O80 O 0.11285 0.85868 0.17125 0.0
H81 H 0.08478 0.85692 0.21776 0.0
H82 H 0.12364 0.89514 0.27942 0.0
O83 O 0.09446 0.86737 0.10911 0.0
C84 C 0.12309 0.86051 0.20981 0.0
O85 O 0.13279 0.87427 0.22749 0.0
N86 N 0.11832 0.89739 0.12672 0.0
C87 C 0.13078 0.92776 0.09067 0.0
C88 C 0.11898 0.91611 0.05688 0.0
C89 C 0.11301 0.90108 0.07529 0.0
C90 C 0.13003 0.90851 0.1588 0.0
C91 C 0.13603 0.92365 0.14314 0.0
H92 H 0.10471 0.89247 0.04576 0.0
H93 H 0.1355 0.90563 0.19451 0.0
H94 H 0.10641 0.87192 0.00551 0.0
H95 H 0.15186 0.88442 0.98435 0.0
H96 H 0.08129 0.86063 0.33524 0.0
H97 H 0.11481 0.91843 0.01464 0.0
H98 H 0.14508 0.93198 0.1713 0.0
C99 C 0.25971 0.12597 0.93418 0.0
C100 C 0.26423 0.12778 0.99503 0.0
N101 N 0.26135 0.138 0.02162 0.0
N102 N 0.25393 0.13491 0.92204 0.0
C103 C 0.25542 0.14237 0.97549 0.0
H104 H 0.25972 0.11792 0.9019 0.0
Co105 Co 0.24394 0.13419 0.84882 0.0
C106 C 0.22196 0.14208 0.90869 0.0
O107 O 0.21082 0.1282 0.9033 0.0
N108 N 0.23447 0.13371 0.77316 0.0
C109 C 0.22042 0.13477 0.69673 0.0
C110 C 0.22199 0.13449 0.75991 0.0
C111 C 0.2401 0.13335 0.71693 0.0
N112 N 0.23186 0.13409 0.66974 0.0
O113 O 0.26149 0.1529 0.82271 0.0
H114 H 0.21448 0.13507 0.79296 0.0
H115 H 0.25031 0.13291 0.71057 0.0
O116 O 0.23508 0.14567 0.88824 0.0
C117 C 0.27144 0.15033 0.79939 0.0
O118 O 0.26862 0.13636 0.79838 0.0
N119 N 0.22755 0.11475 0.87265 0.0
C120 C 0.20849 0.08451 0.90627 0.0
C121 C 0.21368 0.09596 0.95076 0.0
C122 C 0.22317 0.11094 0.93315 0.0
C123 C 0.22254 0.10364 0.82891 0.0
C124 C 0.2128 0.08855 0.84445 0.0
H125 H 0.22718 0.11944 0.9688 0.0
H126 H 0.22666 0.10621 0.78192 0.0
H127 H 0.25132 0.15014 0.9812 0.0
H128 H 0.26833 0.12122 0.01838 0.0
H129 H 0.21155 0.13549 0.67261 0.0
H130 H 0.21062 0.09334 -0.00089 0.0
H131 H 0.20934 0.08002 0.80882 0.0
C132 C 0.87352 0.1287 0.96323 0.0
C133 C 0.87028 0.12806 0.02536 0.0
N134 N 0.8714 0.11667 0.05078 0.0
N135 N 0.87667 0.11777 0.9496 0.0
C136 C 0.87524 0.11058 0.0038 0.0
H137 H 0.87406 0.13694 0.93055 0.0
Co138 Co 0.88348 0.1152 0.87372 0.0
C139 C 0.87248 0.08176 0.86532 0.0
O140 O 0.88155 0.08345 0.81924 0.0
N141 N 0.89059 0.11314 0.7958 0.0
C142 C 0.90567 0.11853 0.71411 0.0
C143 C 0.90507 0.12047 0.77677 0.0
C144 C 0.88261 0.10682 0.74342 0.0
N145 N 0.89154 0.10999 0.69322 0.0
O146 O 0.86573 0.11378 0.83454 0.0
H147 H 0.91464 0.12761 0.80543 0.0
H148 H 0.87045 0.10082 0.74133 0.0
O149 O 0.87267 0.09329 0.889 0.0
C150 C 0.86862 0.12568 0.80462 0.0
O151 O 0.88265 0.1367 0.8022 0.0
N152 N 0.9014 0.11831 0.91243 0.0
C153 C 0.93059 0.12886 0.95828 0.0
C154 C 0.92104 0.11351 0.94529 0.0
C155 C 0.90643 0.10843 0.9226 0.0
C156 C 0.91037 0.13315 0.92645 0.0
C157 C 0.92491 0.13864 0.94931 0.0
H158 H 0.89949 0.09668 0.91208 0.0
H159 H 0.90636 0.14091 0.91749 0.0
H160 H 0.87778 0.1016 0.00934 0.0
H161 H 0.86762 0.1356 0.05018 0.0
H162 H 0.91568 0.12362 0.68554 0.0
H163 H 0.92484 0.10549 0.95214 0.0
H164 H 0.93184 0.1506 0.95755 0.0
C165 C 0.88901 0.74942 0.94044 0.0
C166 C 0.89055 0.74698 0.00202 0.0
N167 N 0.9027 0.7593 0.02444 0.0
N168 N 0.90022 0.76316 0.92396 0.0
C169 C 0.90831 0.76895 0.97631 0.0
H170 H 0.88014 0.74171 0.90999 0.0
Co171 Co 0.90336 0.77186 0.8459 0.0
C172 C 0.9362 0.79493 0.84167 0.0
O173 O 0.93362 0.80336 0.80347 0.0
N174 N 0.90637 0.78048 0.76596 0.0
C175 C 0.90563 0.79233 0.68068 0.0
C176 C 0.90183 0.78977 0.74233 0.0
C177 C 0.91295 0.77765 0.71741 0.0
N178 N 0.91254 0.78461 0.66498 0.0
O179 O 0.90419 0.75484 0.81124 0.0
H180 H 0.89585 0.79426 0.76719 0.0
H181 H 0.91786 0.77049 0.72018 0.0
O182 O 0.92521 0.78255 0.86147 0.0
C183 C 0.8914 0.74548 0.7883 0.0
O184 O 0.88069 0.74896 0.79006 0.0
N185 N 0.90048 0.78717 0.87999 0.0
C186 C 0.88983 0.80614 0.92064 0.0
C187 C 0.9051 0.81034 0.9272 0.0
C188 C 0.9102 0.80062 0.90703 0.0
C189 C 0.88556 0.7826 0.87648 0.0
C190 C 0.88006 0.79193 0.89527 0.0
H191 H 0.92185 0.80395 0.9139 0.0
H192 H 0.87792 0.77177 0.85633 0.0
H193 H 0.91815 0.78005 0.97915 0.0
H194 H 0.88306 0.7371 0.02871 0.0
H195 H 0.90285 0.7988 0.64922 0.0
H196 H 0.91304 0.82096 0.94819 0.0
H197 H 0.86825 0.78811 0.88814 0.0
C198 C 0.81202 0.59974 0.35193 0.0
C199 C 0.81562 0.60236 0.29014 0.0
N200 N 0.81501 0.59 0.26559 0.0
N201 N 0.80926 0.58583 0.36659 0.0
C202 C 0.81115 0.58015 0.31309 0.0
H203 H 0.81116 0.6074 0.38368 0.0
Co204 Co 0.80288 0.57668 0.44334 0.0
C205 C 0.81297 0.55378 0.45162 0.0
O206 O 0.80248 0.5459 0.49257 0.0
N207 N 0.79625 0.56767 0.5225 0.0
C208 C 0.78195 0.55519 0.60333 0.0
C209 C 0.78206 0.5579 0.54101 0.0
C210 C 0.80453 0.57066 0.57503 0.0
N211 N 0.79609 0.56335 0.62505 0.0
O212 O 0.82055 0.59325 0.48073 0.0
H213 H 0.77219 0.55311 0.51198 0.0
H214 H 0.81649 0.57844 0.57701 0.0
O215 O 0.81396 0.56578 0.42894 0.0
C216 C 0.8173 0.60255 0.50566 0.0
O217 O 0.80321 0.59939 0.50375 0.0
N218 N 0.78495 0.56172 0.40609 0.0
C219 C 0.75556 0.54296 0.36303 0.0
C220 C 0.7661 0.53799 0.36404 0.0
C221 C 0.78083 0.54761 0.38522 0.0
C222 C 0.77507 0.56691 0.40281 0.0
C223 C 0.76038 0.55775 0.38202 0.0
H224 H 0.7887 0.54358 0.38497 0.0
H225 H 0.77853 0.57816 0.41892 0.0
H226 H 0.80912 0.56879 0.3086 0.0
H227 H 0.81831 0.61255 0.2652 0.0
H228 H 0.7721 0.54788 0.63046 0.0
H229 H 0.76302 0.52679 0.34852 0.0
H230 H 0.75273 0.56213 0.38292 0.0
C231 C 0.42795 0.21041 0.40516 0.0
C232 C 0.42335 0.20876 0.34429 0.0
N233 N 0.42739 0.22248 0.32165 0.0
N234 N 0.4348 0.22509 0.42055 0.0
C235 C 0.43412 0.23213 0.36882 0.0
H236 H 0.42697 0.20157 0.43548 0.0
Co237 Co 0.44403 0.23329 0.49607 0.0
C238 C 0.4672 0.26355 0.44172 0.0
O239 O 0.47813 0.2605 0.44707 0.0
N240 N 0.45277 0.24138 0.57326 0.0
C241 C 0.46701 0.2552 0.65172 0.0
C242 C 0.46635 0.25308 0.58871 0.0
C243 C 0.44555 0.23646 0.62796 0.0
N244 N 0.45385 0.24476 0.67648 0.0
O245 O 0.42659 0.23502 0.51938 0.0
H246 H 0.4753 0.25982 0.55716 0.0
H247 H 0.43437 0.22687 0.63202 0.0
O248 O 0.45388 0.25396 0.45993 0.0
C249 C 0.41546 0.22229 0.53504 0.0
O250 O 0.41728 0.21051 0.53463 0.0
N251 N 0.46016 0.2297 0.4747 0.0
C252 C 0.47914 0.21813 0.44448 0.0
C253 C 0.47502 0.22532 0.39964 0.0
C254 C 0.46546 0.23088 0.41544 0.0
C255 C 0.46398 0.22259 0.51865 0.0
C256 C 0.47362 0.217 0.50489 0.0
H257 H 0.46219 0.23598 0.37944 0.0
H258 H 0.45902 0.22053 0.5643 0.0
H259 H 0.43904 0.24418 0.36453 0.0
H260 H 0.41835 0.19845 0.31761 0.0
H261 H 0.47639 0.26402 0.67684 0.0
H262 H 0.47898 0.22647 0.35233 0.0
H263 H 0.4761 0.21116 0.5407 0.0
C264 C 0.80216 0.2146 0.4006 0.0
C265 C 0.80359 0.2119 0.33941 0.0
N266 N 0.78971 0.20374 0.31493 0.0
N267 N 0.78746 0.20806 0.4151 0.0
C268 C 0.78013 0.20141 0.36211 0.0
H269 H 0.81128 0.2215 0.4318 0.0
Co270 Co 0.78041 0.2105 0.49104 0.0
C271 C 0.74911 0.20336 0.45475 0.0
O272 O 0.75196 0.21681 0.47135 0.0
N273 N 0.77349 0.21302 0.56968 0.0
C274 C 0.76536 0.22108 0.64869 0.0
C275 C 0.76847 0.22246 0.58647 0.0
C276 C 0.77343 0.20619 0.62355 0.0
N277 N 0.76853 0.21086 0.67217 0.0
O278 O 0.77834 0.19148 0.5181 0.0
H279 H 0.76775 0.2305 0.55664 0.0
H280 H 0.77749 0.19838 0.62805 0.0
O281 O 0.75934 0.19974 0.4599 0.0
C282 C 0.79101 0.19303 0.53443 0.0
O283 O 0.80285 0.20658 0.53457 0.0
N284 N 0.78438 0.22979 0.46416 0.0
C285 C 0.79597 0.25957 0.42445 0.0
C286 C 0.78553 0.24752 0.38805 0.0
C287 C 0.77994 0.2327 0.40852 0.0
C288 C 0.79501 0.24138 0.49865 0.0
C289 C 0.80063 0.25632 0.48058 0.0
H290 H 0.77235 0.22358 0.3788 0.0
H291 H 0.79933 0.23901 0.54028 0.0
H292 H 0.76805 0.19587 0.35698 0.0
H293 H 0.81408 0.21612 0.3145 0.0
H294 H 0.76134 0.22739 0.67464 0.0
H295 H 0.78185 0.24954 0.34384 0.0
H296 H 0.80902 0.26525 0.50914 0.0
C297 C 0.92516 0.45952 0.27937 0.0
C298 C 0.92954 0.46192 0.34051 0.0
N299 N 0.92616 0.47202 0.36429 0.0
N300 N 0.91896 0.46799 0.26476 0.0
C301 C 0.92008 0.47576 0.31679 0.0
H302 H 0.92557 0.45142 0.24862 0.0
Co303 Co 0.90916 0.46682 0.19075 0.0
C304 C 0.88591 0.47322 0.24871 0.0
O305 O 0.87536 0.45904 0.24523 0.0
N306 N 0.89982 0.46599 0.11452 0.0
C307 C 0.88484 0.46492 0.03764 0.0
C308 C 0.8862 0.46425 0.1008 0.0
C309 C 0.90638 0.46746 0.0587 0.0
N310 N 0.89762 0.46701 0.01122 0.0
O311 O 0.92621 0.48599 0.16629 0.0
H312 H 0.8776 0.46249 0.13363 0.0
H313 H 0.9175 0.46902 0.05286 0.0
O314 O 0.89918 0.47739 0.22853 0.0
C315 C 0.93674 0.48412 0.14455 0.0
O316 O 0.93469 0.47043 0.14306 0.0
N317 N 0.89333 0.44698 0.21307 0.0
C318 C 0.87471 0.41633 0.24344 0.0
C319 C 0.87945 0.42758 0.28897 0.0
C320 C 0.88875 0.44272 0.27302 0.0
C321 C 0.88893 0.43614 0.1684 0.0
C322 C 0.87941 0.42093 0.18218 0.0
H323 H 0.89242 0.451 0.30951 0.0
H324 H 0.89324 0.43909 0.12177 0.0
H325 H 0.9158 0.48344 0.32068 0.0
H326 H 0.93382 0.45582 0.3664 0.0
H327 H 0.87513 0.46381 0.0132 0.0
H328 H 0.87653 0.42476 0.33724 0.0
H329 H 0.87607 0.41285 0.14486 0.0
C330 C 0.55381 0.46547 0.26194 0.0
C331 C 0.55065 0.46709 0.32227 0.0
N332 N 0.54023 0.4535 0.34383 0.0
N333 N 0.54541 0.45094 0.24527 0.0
C334 C 0.53722 0.44388 0.2961 0.0
H335 H 0.56204 0.47425 0.23244 0.0
Co336 Co 0.54672 0.4438 0.16792 0.0
C337 C 0.53936 0.41229 0.20327 0.0
O338 O 0.55285 0.41511 0.1876 0.0
N339 N 0.5481 0.43683 0.08787 0.0
C340 C 0.55479 0.42831 0.00584 0.0
C341 C 0.5564 0.4307 0.06857 0.0
C342 C 0.54173 0.43819 0.03508 0.0
N343 N 0.54559 0.4331 0.98463 0.0
O344 O 0.5276 0.44219 0.14547 0.0
H345 H 0.56409 0.429 0.09674 0.0
H346 H 0.53499 0.44354 0.03273 0.0
O347 O 0.53594 0.42268 0.19899 0.0
C348 C 0.52952 0.45517 0.13201 0.0
O349 O 0.54329 0.46668 0.13348 0.0
N350 N 0.56623 0.44746 0.18947 0.0
C351 C 0.59668 0.45979 0.22156 0.0
C352 C 0.58523 0.44932 0.2605 0.0
C353 C 0.57006 0.44348 0.24414 0.0
C354 C 0.57721 0.45779 0.15182 0.0
C355 C 0.5924 0.46381 0.16616 0.0
H356 H 0.56141 0.43622 0.27647 0.0
H357 H 0.57416 0.46174 0.11086 0.0
H358 H 0.52939 0.43192 0.29846 0.0
H359 H 0.55613 0.47737 0.34902 0.0
H360 H 0.56039 0.42382 0.97795 0.0
H361 H 0.58792 0.44619 0.30458 0.0
H362 H 0.60073 0.47181 0.13442 0.0
C363 C 0.55325 0.07764 0.29509 0.0
C364 C 0.5545 0.0752 0.35699 0.0
N365 N 0.56618 0.08775 0.38064 0.0
N366 N 0.56417 0.09162 0.27985 0.0
C367 C 0.57183 0.09751 0.33295 0.0
H368 H 0.54475 0.06982 0.26358 0.0
Co369 Co 0.5674 0.1008 0.20316 0.0
C370 C 0.60037 0.12369 0.20007 0.0
O371 O 0.59798 0.13233 0.16239 0.0
N372 N 0.5705 0.10994 0.12444 0.0
C373 C 0.56934 0.12196 0.04052 0.0
C374 C 0.56575 0.11919 0.10232 0.0
C375 C 0.57702 0.10737 0.07499 0.0
N376 N 0.57632 0.1144 0.02334 0.0
O377 O 0.56824 0.08396 0.16622 0.0
H378 H 0.55962 0.12337 0.12824 0.0
H379 H 0.58197 0.10023 0.0764 0.0
O380 O 0.58926 0.11131 0.21923 0.0
C381 C 0.55582 0.07509 0.13923 0.0
O382 O 0.5452 0.0787 0.13992 0.0
N383 N 0.5645 0.11594 0.23955 0.0
C384 C 0.55368 0.13427 0.28647 0.0
C385 C 0.5691 0.13885 0.28929 0.0
C386 C 0.57429 0.12945 0.26608 0.0
C387 C 0.5495 0.11113 0.2386 0.0
C388 C 0.54389 0.12011 0.2609 0.0
H389 H 0.58606 0.13304 0.27047 0.0
H390 H 0.54183 0.10029 0.21854 0.0
H391 H 0.58131 0.1088 0.33666 0.0
H392 H 0.54708 0.06517 0.38302 0.0
H393 H 0.56629 0.12836 0.00988 0.0
H394 H 0.57707 0.14951 0.31 0.0
H395 H 0.53196 0.11604 0.25672 0.0
C396 C 0.46478 0.92165 0.71175 0.0
C397 C 0.46789 0.92612 0.65075 0.0
N398 N 0.47746 0.92183 0.62912 0.0
N399 N 0.47241 0.91464 0.7282 0.0
C400 C 0.48017 0.9151 0.67695 0.0
H401 H 0.4569 0.92278 0.74133 0.0
Co402 Co 0.47106 0.9053 0.80404 0.0
C403 C 0.47785 0.88201 0.74903 0.0
O404 O 0.46375 0.87126 0.75152 0.0
N405 N 0.47016 0.89644 0.88123 0.0
C406 C 0.46907 0.88164 0.95876 0.0
C407 C 0.46768 0.88259 0.89583 0.0
C408 C 0.47278 0.90357 0.9363 0.0
N409 N 0.47237 0.89491 0.98424 0.0
O410 O 0.49019 0.92256 0.82809 0.0
H411 H 0.46503 0.87363 0.86356 0.0
H412 H 0.47488 0.91492 0.94116 0.0
O413 O 0.48173 0.89523 0.76893 0.0
C414 C 0.48836 0.93358 0.84327 0.0
O415 O 0.47467 0.93156 0.84185 0.0
N416 N 0.45128 0.88934 0.78201 0.0
C417 C 0.42063 0.87085 0.7512 0.0
C418 C 0.43196 0.87516 0.70624 0.0
C419 C 0.4471 0.8844 0.7224 0.0
C420 C 0.44037 0.88534 0.82614 0.0
C421 C 0.42515 0.87589 0.81219 0.0
H422 H 0.45544 0.88778 0.68623 0.0
H423 H 0.44328 0.88995 0.87235 0.0
H424 H 0.48711 0.90995 0.67332 0.0
H425 H 0.46274 0.93115 0.62326 0.0
H426 H 0.46805 0.872 0.98341 0.0
H427 H 0.42923 0.87197 0.65815 0.0
H428 H 0.41701 0.87288 0.84912 0.0
C429 C 0.09341 0.54376 0.74882 0.0
C430 C 0.08939 0.54001 0.68785 0.0
N431 N 0.09311 0.55271 0.6561 0.0
N432 N 0.0997 0.55875 0.75551 0.0
C433 C 0.09911 0.56388 0.69845 0.0
H434 H 0.09254 0.53616 0.7854 0.0
Co435 Co 0.10895 0.56892 0.82823 0.0
C436 C 0.13215 0.59862 0.77762 0.0
O437 O 0.1426 0.59691 0.80536 0.0
N438 N 0.11747 0.57874 0.90373 0.0
C439 C 0.12428 0.59505 0.98189 0.0
C440 C 0.12335 0.59343 0.91871 0.0
C441 C 0.11451 0.57168 0.9593 0.0
N442 N 0.11859 0.58134 0.00746 0.0
O443 O 0.09147 0.57055 0.84772 0.0
H444 H 0.12537 0.60238 0.8872 0.0
H445 H 0.10813 0.55959 0.96439 0.0
O446 O 0.11829 0.5885 0.78375 0.0
C447 C 0.08121 0.55873 0.87414 0.0
O448 O 0.08347 0.54737 0.88331 0.0
N449 N 0.12553 0.56579 0.81021 0.0
C450 C 0.14455 0.55446 0.77824 0.0
C451 C 0.14104 0.56244 0.73503 0.0
C452 C 0.13155 0.56798 0.75181 0.0
C453 C 0.12901 0.55816 0.85292 0.0
C454 C 0.13869 0.55267 0.83831 0.0
H455 H 0.12858 0.57354 0.71669 0.0
H456 H 0.12362 0.55543 0.89758 0.0
H457 H 0.10405 0.57567 0.68702 0.0
H458 H 0.08467 0.52888 0.66801 0.0
H459 H 0.12792 0.60542 0.00704 0.0
H460 H 0.14529 0.56405 0.68803 0.0
H461 H 0.14084 0.54628 0.87273 0.0
C462 C 0.47251 0.54949 0.72866 0.0
C463 C 0.47475 0.54772 0.66721 0.0
N464 N 0.46129 0.54103 0.63874 0.0
N465 N 0.45771 0.54397 0.73885 0.0
C466 C 0.45112 0.53879 0.68316 0.0
H467 H 0.48122 0.5553 0.76288 0.0
Co468 Co 0.4503 0.54686 0.81262 0.0
C469 C 0.4185 0.53847 0.78101 0.0
O470 O 0.42073 0.55114 0.80503 0.0
N471 N 0.44323 0.5502 0.89008 0.0
C472 C 0.43814 0.5614 0.96764 0.0
C473 C 0.4406 0.5615 0.9052 0.0
C474 C 0.44209 0.54333 0.94523 0.0
N475 N 0.43923 0.55004 0.99292 0.0
O476 O 0.44846 0.52823 0.84357 0.0
H477 H 0.44105 0.56991 0.87376 0.0
H478 H 0.4442 0.53413 0.95174 0.0
O479 O 0.4293 0.5356 0.78022 0.0
C480 C 0.46079 0.53087 0.86902 0.0
O481 O 0.47153 0.54497 0.87396 0.0
N482 N 0.45425 0.56578 0.78205 0.0
C483 C 0.46627 0.59561 0.74157 0.0
C484 C 0.45396 0.58373 0.71084 0.0
C485 C 0.44828 0.56883 0.73115 0.0
C486 C 0.46648 0.57711 0.8109 0.0
C487 C 0.47244 0.59204 0.7924 0.0
H488 H 0.43941 0.5598 0.70487 0.0
H489 H 0.47163 0.57449 0.84903 0.0
H490 H 0.43931 0.53458 0.67406 0.0
H491 H 0.4855 0.55172 0.64455 0.0
H492 H 0.4363 0.56945 0.99283 0.0
H493 H 0.44909 0.58587 0.67025 0.0
H494 H 0.48187 0.6007 0.81798 0.0
C495 C 0.6019 0.80704 0.59864 0.0
C496 C 0.60493 0.81006 0.66068 0.0
N497 N 0.59396 0.8119 0.68579 0.0
N498 N 0.58904 0.80693 0.58476 0.0
C499 C 0.58446 0.80997 0.63885 0.0
H500 H 0.60831 0.80443 0.56632 0.0
Co501 Co 0.57943 0.80109 0.50868 0.0
C502 C 0.5572 0.81207 0.50509 0.0
O503 O 0.54901 0.80198 0.4633 0.0
N504 N 0.56997 0.79491 0.4301 0.0
C505 C 0.55806 0.78078 0.34802 0.0
C506 C 0.56051 0.78072 0.41052 0.0
C507 C 0.57288 0.80339 0.37816 0.0
N508 N 0.56594 0.79503 0.32763 0.0
O509 O 0.5961 0.81871 0.47103 0.0
H510 H 0.55607 0.77071 0.43862 0.0
H511 H 0.58065 0.81536 0.37645 0.0
O512 O 0.56904 0.81249 0.52647 0.0
C513 C 0.60498 0.81523 0.44369 0.0
O514 O 0.60146 0.80103 0.44401 0.0
N515 N 0.56442 0.78318 0.54588 0.0
C516 C 0.54574 0.75391 0.59069 0.0
C517 C 0.54097 0.76462 0.59122 0.0
C518 C 0.55054 0.77928 0.56898 0.0
C519 C 0.5694 0.77312 0.54724 0.0
C520 C 0.56027 0.75849 0.56869 0.0
H521 H 0.54669 0.7873 0.57044 0.0
H522 H 0.58045 0.7764 0.52923 0.0
H523 H 0.57392 0.80985 0.6446 0.0
H524 H 0.61424 0.81043 0.68584 0.0
H525 H 0.55147 0.771 0.31929 0.0
H526 H 0.52999 0.76175 0.60894 0.0
H527 H 0.56449 0.75072 0.56622 0.0
C528 C 0.21934 0.80047 0.59735 0.0
C529 C 0.21648 0.80162 0.65864 0.0
N530 N 0.20799 0.78764 0.68185 0.0
N531 N 0.21258 0.78586 0.58127 0.0
C532 C 0.20567 0.77829 0.63364 0.0
H533 H 0.22638 0.80972 0.56692 0.0
Co534 Co 0.21496 0.77938 0.5035 0.0
C535 C 0.20775 0.74775 0.53177 0.0
O536 O 0.22097 0.75073 0.51125 0.0
N537 N 0.21745 0.77311 0.42281 0.0
C538 C 0.22556 0.76584 0.34105 0.0
C539 C 0.22737 0.76895 0.40329 0.0
C540 C 0.2099 0.77259 0.37031 0.0
N541 N 0.21457 0.76819 0.32001 0.0
O542 O 0.19592 0.77741 0.47783 0.0
H543 H 0.23585 0.76855 0.43149 0.0
H544 H 0.20145 0.77586 0.3681 0.0
O545 O 0.20426 0.75812 0.53202 0.0
C546 C 0.19705 0.79 0.46325 0.0
O547 O 0.21035 0.80217 0.46572 0.0
N548 N 0.23423 0.78314 0.52918 0.0
C549 C 0.26396 0.79414 0.56823 0.0
C550 C 0.25187 0.7832 0.60301 0.0
C551 C 0.23707 0.77789 0.58288 0.0
C552 C 0.24586 0.79428 0.4966 0.0
C553 C 0.26078 0.79963 0.51426 0.0
H554 H 0.2279 0.76989 0.61142 0.0
H555 H 0.24351 0.79917 0.45671 0.0
H556 H 0.19976 0.76616 0.63722 0.0
H557 H 0.22066 0.812 0.68422 0.0
H558 H 0.23202 0.76225 0.3136 0.0
H559 H 0.25385 0.77889 0.64568 0.0
H560 H 0.26975 0.80841 0.48713 0.0
C561 C 0.2143 0.42298 0.62785 0.0
C562 C 0.21346 0.41834 0.68817 0.0
N563 N 0.22746 0.42238 0.70753 0.0
N564 N 0.22874 0.42987 0.60915 0.0
C565 C 0.23651 0.42928 0.65857 0.0
H566 H 0.20505 0.42189 0.59998 0.0
Co567 Co 0.2353 0.43875 0.53193 0.0
C568 C 0.26646 0.46333 0.56849 0.0
O569 O 0.26298 0.47377 0.55752 0.0
N570 N 0.24181 0.44745 0.45219 0.0
C571 C 0.25071 0.4629 0.37081 0.0
C572 C 0.24819 0.46196 0.43361 0.0
C573 C 0.24044 0.43985 0.39913 0.0
N574 N 0.24579 0.44894 0.34924 0.0
O575 O 0.23732 0.4216 0.50697 0.0
H576 H 0.25018 0.47133 0.46255 0.0
H577 H 0.23552 0.42782 0.39646 0.0
O578 O 0.25658 0.44945 0.56079 0.0
C579 C 0.2245 0.41022 0.49424 0.0
O580 O 0.21258 0.4118 0.49758 0.0
N581 N 0.2313 0.45428 0.55651 0.0
C582 C 0.21921 0.47239 0.5938 0.0
C583 C 0.22897 0.47019 0.63272 0.0
C584 C 0.23477 0.46103 0.61351 0.0
C585 C 0.22153 0.45595 0.51896 0.0
C586 C 0.21576 0.46524 0.53569 0.0
H587 H 0.24171 0.45901 0.64532 0.0
H588 H 0.21787 0.44977 0.4759 0.0
H589 H 0.2486 0.43415 0.65937 0.0
H590 H 0.20344 0.41315 0.71661 0.0
H591 H 0.25519 0.47299 0.34287 0.0
H592 H 0.23168 0.47499 0.67879 0.0
H593 H 0.20844 0.46653 0.5033 0.0
H594 H 0.16182 0.23394 0.42803 0.0
H595 H 0.16157 0.2397 0.53689 0.0
H596 H 0.12254 0.2443 0.50683 0.0
H597 H 0.12239 0.23808 0.39712 0.0
H598 H 0.14565 0.26784 0.57869 0.0
H599 H 0.11735 0.21384 0.57393 0.0
H600 H 0.11268 0.18853 0.5469 0.0
H601 H 0.15184 0.19653 0.64958 0.0
H602 H 0.15688 0.22198 0.67648 0.0
H603 H 0.1235 0.26234 0.89661 0.0
H604 H 0.12559 0.2605 0.78501 0.0
H605 H 0.16295 0.25299 0.81157 0.0
H606 H 0.16129 0.25525 0.92345 0.0
H607 H 0.14059 0.23123 0.74055 0.0
H608 H 0.16931 0.2847 0.74591 0.0
H609 H 0.17552 0.31064 0.76993 0.0
H610 H 0.13714 0.30438 0.66591 0.0
H611 H 0.13059 0.27832 0.64181 0.0
C612 C 0.15299 0.2359 0.44416 0.0
C613 C 0.14201 0.23536 0.40335 0.0
C614 C 0.15296 0.23933 0.50662 0.0
C615 C 0.14198 0.24232 0.52988 0.0
C616 C 0.13112 0.24203 0.48957 0.0
C617 C 0.13107 0.2385 0.42688 0.0
C618 C 0.1419 0.2456 0.59659 0.0
C619 C 0.14428 0.25977 0.61424 0.0
C620 C 0.14061 0.23521 0.64262 0.0
C621 C 0.13757 0.21987 0.62673 0.0
C622 C 0.12504 0.21025 0.59032 0.0
C623 C 0.12231 0.19587 0.57509 0.0
C624 C 0.13197 0.19094 0.59638 0.0
C625 C 0.14437 0.20037 0.63306 0.0
C626 C 0.14716 0.21477 0.64836 0.0
C627 C 0.13242 0.26066 0.87911 0.0
C628 C 0.14212 0.25877 0.91968 0.0
C629 C 0.13357 0.25959 0.815 0.0
C630 C 0.1444 0.25659 0.79007 0.0
C631 C 0.15445 0.25524 0.83 0.0
C632 C 0.1534 0.25644 0.89408 0.0
C633 C 0.14436 0.25351 0.72299 0.0
C634 C 0.14192 0.23933 0.70519 0.0
C635 C 0.1457 0.26395 0.67697 0.0
C636 C 0.14935 0.27948 0.69273 0.0
C637 C 0.16208 0.28878 0.72881 0.0
C638 C 0.16569 0.30353 0.74226 0.0
C639 C 0.1567 0.30913 0.71968 0.0
C640 C 0.14408 0.30001 0.68351 0.0
C641 C 0.14042 0.28525 0.66989 0.0
H642 H 0.15954 0.32057 0.73 0.0
H643 H 0.12984 0.1798 0.58455 0.0
H644 H 0.76519 0.90436 0.35943 0.0
H645 H 0.76181 0.90723 0.46969 0.0
H646 H 0.80933 0.92512 0.5 0.0
H647 H 0.81264 0.92193 0.3898 0.0
H648 H 0.79397 0.90322 0.57635 0.0
H649 H 0.79208 0.94702 0.51601 0.0
H650 H 0.78359 0.96182 0.45574 0.0
H651 H 0.7385 0.93372 0.52177 0.0
H652 H 0.74667 0.91861 0.58183 0.0
H653 H 0.79154 0.91565 0.89339 0.0
H654 H 0.79685 0.92202 0.78413 0.0
H655 H 0.74933 0.89879 0.74443 0.0
H656 H 0.74385 0.89275 0.85456 0.0
H657 H 0.76573 0.92532 0.67457 0.0
H658 H 0.76755 0.88046 0.72667 0.0
H659 H 0.7761 0.8658 0.78763 0.0
H660 H 0.82183 0.8965 0.73573 0.0
H661 H 0.81355 0.91147 0.67515 0.0
C662 C 0.77496 0.90925 0.3894 0.0
C663 C 0.78917 0.91284 0.36636 0.0
C664 C 0.77303 0.91092 0.4524 0.0
C665 C 0.78534 0.91647 0.49314 0.0
C666 C 0.79967 0.92077 0.46946 0.0
C667 C 0.80156 0.91893 0.40667 0.0
C668 C 0.78301 0.91621 0.56103 0.0
C669 C 0.78808 0.90835 0.59782 0.0
C670 C 0.77493 0.92251 0.58894 0.0
C671 C 0.76998 0.93161 0.55306 0.0
C672 C 0.78033 0.94392 0.51733 0.0
C673 C 0.77558 0.95238 0.48327 0.0
C674 C 0.76051 0.94869 0.48482 0.0
C675 C 0.75017 0.93656 0.52058 0.0
C676 C 0.75486 0.92806 0.55472 0.0
C677 C 0.78217 0.91219 0.86195 0.0
C678 C 0.76724 0.90355 0.88275 0.0
C679 C 0.78525 0.91578 0.79935 0.0
C680 C 0.77348 0.9107 0.75628 0.0
C681 C 0.75856 0.90277 0.77709 0.0
C682 C 0.75546 0.89919 0.83984 0.0
C683 C 0.77679 0.91245 0.68916 0.0
C684 C 0.77181 0.92042 0.65275 0.0
C685 C 0.78499 0.90629 0.66133 0.0
C686 C 0.78995 0.89716 0.69692 0.0
C687 C 0.77944 0.88414 0.7286 0.0
C688 C 0.78423 0.87576 0.76304 0.0
C689 C 0.7995 0.88024 0.76571 0.0
C690 C 0.81 0.89306 0.73371 0.0
C691 C 0.80527 0.90149 0.69929 0.0
H692 H 0.8032 0.87375 0.79244 0.0
H693 H 0.75685 0.95525 0.45841 0.0
H694 H 0.15005 0.89293 0.8871 0.0
H695 H 0.14657 0.89502 0.77651 0.0
H696 H 0.09882 0.86506 0.79672 0.0
H697 H 0.10228 0.86231 0.90678 0.0
H698 H 0.10801 0.85874 0.69425 0.0
H699 H 0.1137 0.90319 0.78737 0.0
H700 H 0.12542 0.92612 0.85152 0.0
H701 H 0.16459 0.94513 0.7352 0.0
H702 H 0.15319 0.9222 0.67079 0.0
H703 H 0.08382 0.87653 0.42028 0.0
H704 H 0.0894 0.87863 0.53114 0.0
H705 H 0.13638 0.89627 0.49083 0.0
H706 H 0.13088 0.89382 0.37978 0.0
H707 H 0.12792 0.90953 0.60196 0.0
H708 H 0.11997 0.86252 0.50998 0.0
H709 H 0.10489 0.84073 0.44221 0.0
H710 H 0.06641 0.82709 0.55955 0.0
H711 H 0.0812 0.84902 0.62725 0.0
C712 C 0.13884 0.88655 0.86805 0.0
C713 C 0.12643 0.87755 0.90631 0.0
C714 C 0.13684 0.88791 0.80478 0.0
C715 C 0.1224 0.88044 0.77852 0.0
C716 C 0.11007 0.87103 0.81601 0.0
C717 C 0.11206 0.86957 0.87918 0.0
C718 C 0.12011 0.8826 0.71216 0.0
C719 C 0.1123 0.86985 0.67442 0.0
C720 C 0.12569 0.8971 0.68595 0.0
C721 C 0.13265 0.91091 0.7246 0.0
C722 C 0.12487 0.91221 0.77576 0.0
C723 C 0.13144 0.92521 0.81212 0.0
C724 C 0.14574 0.93707 0.79747 0.0
C725 C 0.15351 0.93593 0.74648 0.0
C726 C 0.14699 0.92293 0.71 0.0
C727 C 0.09537 0.88105 0.43491 0.0
C728 C 0.10684 0.88475 0.39108 0.0
C729 C 0.09855 0.88236 0.49822 0.0
C730 C 0.11327 0.88749 0.51889 0.0
C731 C 0.12496 0.89236 0.47556 0.0
C732 C 0.12177 0.89095 0.41203 0.0
C733 C 0.116 0.88572 0.58482 0.0
C734 C 0.12382 0.89848 0.62218 0.0
C735 C 0.11018 0.87125 0.61115 0.0
C736 C 0.10164 0.85746 0.57332 0.0
C737 C 0.10828 0.85488 0.52123 0.0
C738 C 0.09978 0.84255 0.48272 0.0
C739 C 0.08467 0.8326 0.49633 0.0
C740 C 0.0781 0.83485 0.54894 0.0
C741 C 0.08654 0.84722 0.58741 0.0
H742 H 0.07807 0.8231 0.46627 0.0
H743 H 0.15076 0.94715 0.82549 0.0
H744 H 0.24667 0.12215 0.60993 0.0
H745 H 0.25305 0.12448 0.49972 0.0
H746 H 0.23119 0.15061 0.47141 0.0
H747 H 0.22471 0.14822 0.58136 0.0
H748 H 0.224 0.13024 0.38135 0.0
H749 H 0.26976 0.16702 0.48192 0.0
H750 H 0.29003 0.17496 0.55937 0.0
H751 H 0.30337 0.14524 0.4784 0.0
H752 H 0.283 0.13688 0.40126 0.0
H753 H 0.25001 0.15393 0.08019 0.0
H754 H 0.24714 0.15565 0.19076 0.0
H755 H 0.26986 0.13065 0.2256 0.0
H756 H 0.27352 0.12943 0.11509 0.0
H757 H 0.2769 0.15126 0.3126 0.0
H758 H 0.23113 0.11311 0.21882 0.0
H759 H 0.21043 0.10347 0.14274 0.0
H760 H 0.19692 0.13418 0.21139 0.0
H761 H 0.21769 0.14417 0.28729 0.0
C762 C 0.24329 0.12845 0.58029 0.0
C763 C 0.23523 0.13504 0.60448 0.0
C764 C 0.24694 0.12978 0.51731 0.0
C765 C 0.24279 0.13792 0.47747 0.0
C766 C 0.23452 0.14429 0.50128 0.0
C767 C 0.23077 0.14287 0.56413 0.0
C768 C 0.24703 0.13979 0.41092 0.0
C769 C 0.23559 0.13505 0.36635 0.0
C770 C 0.26213 0.14573 0.39133 0.0
C771 C 0.27475 0.15121 0.43619 0.0
C772 C 0.27697 0.16213 0.48079 0.0
C773 C 0.28847 0.16669 0.52467 0.0
C774 C 0.2979 0.16052 0.52395 0.0
C775 C 0.296 0.14994 0.47899 0.0
C776 C 0.28449 0.14529 0.43518 0.0
C777 C 0.25466 0.14895 0.11064 0.0
C778 C 0.2616 0.14107 0.08736 0.0
C779 C 0.25291 0.14991 0.17437 0.0
C780 C 0.25785 0.14286 0.21641 0.0
C781 C 0.26575 0.13599 0.19397 0.0
C782 C 0.26769 0.13517 0.13026 0.0
C783 C 0.25387 0.14174 0.28314 0.0
C784 C 0.26533 0.14657 0.32768 0.0
C785 C 0.23877 0.13573 0.30283 0.0
C786 C 0.22604 0.12948 0.25834 0.0
C787 C 0.22378 0.11785 0.2175 0.0
C788 C 0.21204 0.11233 0.17441 0.0
C789 C 0.20239 0.11823 0.17214 0.0
C790 C 0.20442 0.12963 0.21315 0.0
C791 C 0.21616 0.13522 0.25625 0.0
H792 H 0.19332 0.11396 0.13868 0.0
H793 H 0.30669 0.16395 0.55816 0.0
H794 H 0.90345 0.12974 0.59935 0.0
H795 H 0.89539 0.12571 0.49096 0.0
H796 H 0.86122 0.08024 0.53357 0.0
H797 H 0.86908 0.08439 0.64336 0.0
H798 H 0.88478 0.08917 0.41557 0.0
H799 H 0.84522 0.09413 0.51108 0.0
H800 H 0.83464 0.10541 0.58085 0.0
H801 H 0.85894 0.14749 0.48429 0.0
H802 H 0.87007 0.13654 0.41501 0.0
H803 H 0.86125 0.08909 0.10134 0.0
H804 H 0.86021 0.08309 0.21208 0.0
H805 H 0.87896 0.13009 0.25661 0.0
H806 H 0.87958 0.13596 0.14688 0.0
H807 H 0.85768 0.11429 0.33428 0.0
H808 H 0.90024 0.11115 0.25157 0.0
H809 H 0.91201 0.10096 0.18168 0.0
H810 H 0.88302 0.05656 0.253 0.0
H811 H 0.871 0.06649 0.3229 0.0
C812 C 0.8943 0.11885 0.58554 0.0
C813 C 0.88691 0.10734 0.6294 0.0
C814 C 0.88968 0.11659 0.52381 0.0
C815 C 0.87775 0.1027 0.50456 0.0
C816 C 0.87047 0.09103 0.54783 0.0
C817 C 0.8749 0.09341 0.61021 0.0
C818 C 0.87292 0.10083 0.43909 0.0
C819 C 0.87852 0.09429 0.39766 0.0
C820 C 0.86503 0.1078 0.41609 0.0
C821 C 0.85859 0.11454 0.45823 0.0
C822 C 0.84849 0.10585 0.50529 0.0
C823 C 0.84236 0.11218 0.54465 0.0
C824 C 0.84607 0.12716 0.5369 0.0
C825 C 0.85605 0.13588 0.49016 0.0
C826 C 0.8623 0.12962 0.45089 0.0
C827 C 0.86511 0.09808 0.135 0.0
C828 C 0.87046 0.11298 0.11561 0.0
C829 C 0.86454 0.09466 0.19817 0.0
C830 C 0.86964 0.10615 0.24281 0.0
C831 C 0.87486 0.121 0.22325 0.0
C832 C 0.8752 0.12436 0.16045 0.0
C833 C 0.86995 0.10304 0.30997 0.0
C834 C 0.86359 0.10876 0.35189 0.0
C835 C 0.87726 0.09543 0.33325 0.0
C836 C 0.88462 0.08952 0.29191 0.0
C837 C 0.89634 0.0992 0.25209 0.0
C838 C 0.90306 0.09348 0.21253 0.0
C839 C 0.89824 0.07812 0.21279 0.0
C840 C 0.88673 0.06846 0.2528 0.0
C841 C 0.87997 0.07412 0.29242 0.0
H842 H 0.90344 0.07371 0.18209 0.0
H843 H 0.84114 0.132 0.56678 0.0
H844 H 0.90177 0.73874 0.10516 0.0
H845 H 0.90824 0.74254 0.21537 0.0
H846 H 0.92137 0.78939 0.19729 0.0
H847 H 0.91534 0.78569 0.0867 0.0
H848 H 0.93945 0.7867 0.27574 0.0
H849 H 0.88555 0.76173 0.24793 0.0
H850 H 0.86076 0.74165 0.21201 0.0
H851 H 0.86597 0.70916 0.31829 0.0
H852 H 0.89089 0.72902 0.3541 0.0
H853 H 0.92141 0.80446 0.56999 0.0
H854 H 0.92475 0.79962 0.46187 0.0
H855 H 0.91643 0.75546 0.51196 0.0
H856 H 0.91262 0.76001 0.61969 0.0
H857 H 0.89805 0.75463 0.42003 0.0
H858 H 0.95046 0.78107 0.46105 0.0
H859 H 0.97468 0.8017 0.49891 0.0
H860 H 0.97182 0.83215 0.37045 0.0
H861 H 0.94746 0.81176 0.33244 0.0
C862 C 0.90614 0.74986 0.12474 0.0
C863 C 0.90785 0.76187 0.08767 0.0
C864 C 0.90983 0.75203 0.18765 0.0
C865 C 0.91495 0.76617 0.21502 0.0
C866 C 0.91738 0.77836 0.17735 0.0
C867 C 0.91393 0.77624 0.11416 0.0
C868 C 0.91681 0.7681 0.2833 0.0
C869 C 0.93037 0.77976 0.30728 0.0
C870 C 0.90511 0.75878 0.32475 0.0
C871 C 0.89016 0.74682 0.30299 0.0
C872 C 0.88146 0.75028 0.26318 0.0
C873 C 0.86738 0.73894 0.24291 0.0
C874 C 0.86182 0.72413 0.26266 0.0
C875 C 0.87031 0.72063 0.30287 0.0
C876 C 0.88441 0.73192 0.32316 0.0
C877 C 0.92043 0.79377 0.55803 0.0
C878 C 0.91662 0.78258 0.60332 0.0
C879 C 0.92251 0.79108 0.49637 0.0
C880 C 0.92085 0.77717 0.47888 0.0
C881 C 0.91773 0.76624 0.52447 0.0
C882 C 0.91568 0.76893 0.58617 0.0
C883 C 0.92055 0.77344 0.41234 0.0
C884 C 0.90724 0.76144 0.38864 0.0
C885 C 0.93241 0.78255 0.37134 0.0
C886 C 0.94705 0.79489 0.39424 0.0
C887 C 0.95492 0.7922 0.44125 0.0
C888 C 0.96869 0.80385 0.46267 0.0
C889 C 0.97477 0.81823 0.4372 0.0
C890 C 0.9671 0.821 0.39018 0.0
C891 C 0.95331 0.80939 0.36863 0.0
H892 H 0.98544 0.82724 0.45383 0.0
H893 H 0.85091 0.71537 0.24697 0.0
H894 H 0.82324 0.57059 0.21865 0.0
H895 H 0.82518 0.56563 0.10889 0.0
H896 H 0.81263 0.59848 0.05725 0.0
H897 H 0.81063 0.60341 0.16592 0.0
H898 H 0.80403 0.55467 0.02271 0.0
H899 H 0.8278 0.61539 0.93005 0.0
H900 H 0.84635 0.64136 0.95982 0.0
H901 H 0.87004 0.62503 0.07006 0.0
H902 H 0.85182 0.59898 0.03958 0.0
H903 H 0.77856 0.55733 0.72738 0.0
H904 H 0.78647 0.56074 0.83488 0.0
H905 H 0.83235 0.57725 0.77808 0.0
H906 H 0.82449 0.57358 0.66934 0.0
H907 H 0.83063 0.59489 0.86626 0.0
H908 H 0.81336 0.54309 0.84378 0.0
H909 H 0.79637 0.51682 0.81246 0.0
H910 H 0.76214 0.51449 0.93395 0.0
H911 H 0.77884 0.54083 0.96533 0.0
C912 C 0.82093 0.57677 0.18387 0.0
C913 C 0.81682 0.58744 0.20122 0.0
C914 C 0.82212 0.57398 0.1212 0.0
C915 C 0.8193 0.58186 0.07483 0.0
C916 C 0.81528 0.59255 0.09212 0.0
C917 C 0.81411 0.59535 0.1545 0.0
C918 C 0.81942 0.57827 0.00829 0.0
C919 C 0.80995 0.56344 0.98851 0.0
C920 C 0.82747 0.58962 0.96371 0.0
C921 C 0.8385 0.60525 0.98214 0.0
C922 C 0.83709 0.61736 0.95986 0.0
C923 C 0.84752 0.63209 0.97707 0.0
C924 C 0.85938 0.63485 0.01678 0.0
C925 C 0.86085 0.62288 0.03931 0.0
C926 C 0.85047 0.60813 0.02207 0.0
C927 C 0.7903 0.5614 0.73718 0.0
C928 C 0.80083 0.56503 0.68908 0.0
C929 C 0.79482 0.56339 0.79903 0.0
C930 C 0.80996 0.56902 0.8146 0.0
C931 C 0.82058 0.5728 0.76705 0.0
C932 C 0.81606 0.57075 0.70485 0.0
C933 C 0.81454 0.57148 0.88072 0.0
C934 C 0.8249 0.58609 0.90041 0.0
C935 C 0.80747 0.55986 0.92522 0.0
C936 C 0.79736 0.54398 0.90671 0.0
C937 C 0.80218 0.53701 0.86352 0.0
C938 C 0.7926 0.5221 0.84579 0.0
C939 C 0.77818 0.514 0.87115 0.0
C940 C 0.77332 0.52078 0.91436 0.0
C941 C 0.78285 0.5357 0.93222 0.0
H942 H 0.77078 0.50245 0.85736 0.0
H943 H 0.86743 0.64626 0.03015 0.0
H944 H 0.40495 0.20827 0.23892 0.0
H945 H 0.40618 0.21336 0.12727 0.0
H946 H 0.45188 0.24974 0.14868 0.0
H947 H 0.45027 0.24518 0.26019 0.0
H948 H 0.43964 0.25741 0.06553 0.0
H949 H 0.44183 0.21223 0.10289 0.0
H950 H 0.43283 0.18661 0.14294 0.0
H951 H 0.3929 0.16994 0.03207 0.0
H952 H 0.40159 0.1955 0.99195 0.0
H953 H 0.47214 0.25604 0.77703 0.0
H954 H 0.46457 0.25354 0.88532 0.0
H955 H 0.41802 0.22705 0.83189 0.0
H956 H 0.42536 0.22992 0.72303 0.0
H957 H 0.42757 0.21426 0.92702 0.0
H958 H 0.4288 0.26066 0.87988 0.0
H959 H 0.4401 0.28654 0.8395 0.0
H960 H 0.47663 0.30109 0.96856 0.0
H961 H 0.46569 0.27523 0.00878 0.0
C962 C 0.41512 0.21748 0.21949 0.0
C963 C 0.42752 0.2263 0.25763 0.0
C964 C 0.41588 0.22034 0.15588 0.0
C965 C 0.42927 0.2317 0.12921 0.0
C966 C 0.44143 0.24091 0.16795 0.0
C967 C 0.44052 0.2383 0.23165 0.0
C968 C 0.43104 0.23349 0.0609 0.0
C969 C 0.43705 0.24796 0.03539 0.0
C970 C 0.42748 0.22116 0.02115 0.0
C971 C 0.42227 0.20579 0.04501 0.0
C972 C 0.43109 0.20311 0.08738 0.0
C973 C 0.42605 0.1886 0.11005 0.0
C974 C 0.41228 0.17666 0.09021 0.0
C975 C 0.40354 0.1792 0.0475 0.0
C976 C 0.40852 0.19369 0.02477 0.0
C977 C 0.46027 0.24987 0.78781 0.0
C978 C 0.4494 0.24318 0.74076 0.0
C979 C 0.45598 0.24844 0.84991 0.0
C980 C 0.44075 0.24022 0.86632 0.0
C981 C 0.42984 0.23346 0.81991 0.0
C982 C 0.4341 0.23502 0.75766 0.0
C983 C 0.43636 0.23813 0.93232 0.0
C984 C 0.4299 0.22362 0.95725 0.0
C985 C 0.43984 0.25045 0.97161 0.0
C986 C 0.44644 0.266 0.94727 0.0
C987 C 0.4393 0.26936 0.89933 0.0
C988 C 0.44563 0.28403 0.87647 0.0
C989 C 0.45908 0.29545 0.90141 0.0
C990 C 0.46621 0.29224 0.94929 0.0
C991 C 0.45993 0.27758 0.9722 0.0
H992 H 0.46396 0.3068 0.88367 0.0
H993 H 0.4084 0.16544 0.10781 0.0
H994 H 0.76984 0.22733 0.77267 0.0
H995 H 0.77018 0.22104 0.88101 0.0
H996 H 0.76696 0.17905 0.82768 0.0
H997 H 0.76636 0.18517 0.71842 0.0
H998 H 0.75096 0.19879 0.95485 0.0
H999 H 0.78913 0.17265 0.93362 0.0
H1000 H 0.80954 0.17389 0.86877 0.0
H1001 H 0.82132 0.21837 0.80935 0.0
H1002 H 0.80111 0.21746 0.87436 0.0
H1003 H 0.76357 0.18155 0.26539 0.0
H1004 H 0.75683 0.17759 0.15511 0.0
H1005 H 0.8005 0.2148 0.10809 0.0
H1006 H 0.80725 0.21885 0.21684 0.0
H1007 H 0.79288 0.19212 0.03054 0.0
H1008 H 0.76954 0.21821 0.12375 0.0
H1009 H 0.7524 0.22144 0.1938 0.0
H1010 H 0.71448 0.18339 0.11075 0.0
H1011 H 0.73145 0.17963 0.04154 0.0
C1012 C 0.76893 0.21663 0.78361 0.0
C1013 C 0.76811 0.20679 0.73649 0.0
C1014 C 0.76915 0.21306 0.84579 0.0
C1015 C 0.76865 0.19961 0.86241 0.0
C1016 C 0.76751 0.18957 0.81579 0.0
C1017 C 0.76724 0.19312 0.75335 0.0
C1018 C 0.77004 0.19663 0.92858 0.0
C1019 C 0.75999 0.19711 0.97146 0.0
C1020 C 0.78187 0.19453 0.95013 0.0
C1021 C 0.79348 0.19489 0.90819 0.0
C1022 C 0.79602 0.18265 0.9064 0.0
C1023 C 0.80757 0.18332 0.86978 0.0
C1024 C 0.81672 0.19621 0.83511 0.0
C1025 C 0.8142 0.20838 0.8362 0.0
C1026 C 0.80268 0.20778 0.87279 0.0
C1027 C 0.77174 0.18884 0.23149 0.0
C1028 C 0.78597 0.20052 0.25018 0.0
C1029 C 0.76787 0.18654 0.16857 0.0
C1030 C 0.77814 0.19595 0.12351 0.0
C1031 C 0.79244 0.20732 0.14202 0.0
C1032 C 0.79631 0.20959 0.2045 0.0
C1033 C 0.77406 0.19468 0.05704 0.0
C1034 C 0.78354 0.19331 0.01397 0.0
C1035 C 0.76196 0.19638 0.03552 0.0
C1036 C 0.7518 0.19847 0.07819 0.0
C1037 C 0.75757 0.21038 0.12106 0.0
C1038 C 0.74788 0.21233 0.16055 0.0
C1039 C 0.73236 0.2026 0.15685 0.0
C1040 C 0.7265 0.19092 0.11358 0.0
C1041 C 0.73616 0.18882 0.07447 0.0
H1042 H 0.72488 0.20413 0.18743 0.0
H1043 H 0.82585 0.19683 0.80793 0.0
H1044 H 0.88612 0.47691 0.92157 0.0
H1045 H 0.89254 0.48004 0.81157 0.0
H1046 H 0.92435 0.46492 0.84307 0.0
H1047 H 0.91787 0.46153 0.95299 0.0
H1048 H 0.93576 0.48976 0.76691 0.0
H1049 H 0.89092 0.44131 0.7823 0.0
H1050 H 0.86472 0.42357 0.81247 0.0
H1051 H 0.84936 0.4481 0.70222 0.0
H1052 H 0.87551 0.46612 0.67207 0.0
H1053 H 0.94325 0.47024 0.45644 0.0
H1054 H 0.94007 0.47212 0.56762 0.0
H1055 H 0.90586 0.48381 0.53086 0.0
H1056 H 0.90841 0.48126 0.42033 0.0
H1057 H 0.896 0.46164 0.61051 0.0
H1058 H 0.94075 0.5095 0.59041 0.0
H1059 H 0.96695 0.5273 0.56049 0.0
H1060 H 0.98257 0.50426 0.67864 0.0
H1061 H 0.95643 0.48617 0.7086 0.0
C1062 C 0.89437 0.47409 0.90514 0.0
C1063 C 0.90139 0.46887 0.94623 0.0
C1064 C 0.89809 0.47598 0.84229 0.0
C1065 C 0.90884 0.47261 0.81922 0.0
C1066 C 0.91606 0.46763 0.86008 0.0
C1067 C 0.91234 0.46572 0.92296 0.0
C1068 C 0.91228 0.47392 0.75215 0.0
C1069 C 0.92712 0.48351 0.73258 0.0
C1070 C 0.90092 0.46601 0.70757 0.0
C1071 C 0.88519 0.45515 0.72546 0.0
C1072 C 0.88197 0.44299 0.7649 0.0
C1073 C 0.86713 0.43287 0.78192 0.0
C1074 C 0.85539 0.43473 0.75942 0.0
C1075 C 0.85847 0.44669 0.7197 0.0
C1076 C 0.8733 0.45685 0.70259 0.0
C1077 C 0.93511 0.4733 0.47193 0.0
C1078 C 0.92601 0.47544 0.42909 0.0
C1079 C 0.93343 0.47454 0.53557 0.0
C1080 C 0.92274 0.47814 0.55756 0.0
C1081 C 0.91417 0.481 0.5149 0.0
C1082 C 0.91576 0.47967 0.45141 0.0
C1083 C 0.9195 0.47757 0.62478 0.0
C1084 C 0.90466 0.46802 0.64454 0.0
C1085 C 0.93088 0.48555 0.66935 0.0
C1086 C 0.94661 0.49639 0.65129 0.0
C1087 C 0.94976 0.50814 0.60959 0.0
C1088 C 0.9646 0.5183 0.59271 0.0
C1089 C 0.97641 0.51689 0.61752 0.0
C1090 C 0.9734 0.50533 0.65939 0.0
C1091 C 0.95858 0.49513 0.67638 0.0
H1092 H 0.9879 0.52477 0.60441 0.0
H1093 H 0.8439 0.42688 0.77264 0.0
H1094 H 0.56152 0.43397 0.88277 0.0
H1095 H 0.55615 0.43683 0.77558 0.0
H1096 H 0.51659 0.43816 0.8328 0.0
H1097 H 0.52155 0.4347 0.9408 0.0
H1098 H 0.51155 0.42157 0.72749 0.0
H1099 H 0.54797 0.47034 0.79989 0.0
H1100 H 0.57149 0.48903 0.85084 0.0
H1101 H 0.59731 0.48121 0.71478 0.0
H1102 H 0.57397 0.46225 0.66379 0.0
H1103 H 0.5374 0.47184 0.4256 0.0
H1104 H 0.53308 0.46776 0.53698 0.0
H1105 H 0.527 0.42325 0.51724 0.0
H1106 H 0.53148 0.42733 0.40566 0.0
H1107 H 0.55208 0.46372 0.60875 0.0
H1108 H 0.5036 0.4015 0.6462 0.0
H1109 H 0.47921 0.38346 0.59996 0.0
H1110 H 0.47604 0.41974 0.51642 0.0
H1111 H 0.50012 0.43806 0.56411 0.0
C1112 C 0.55153 0.4346 0.87291 0.0
C1113 C 0.54202 0.43416 0.9208 0.0
C1114 C 0.54856 0.43639 0.81145 0.0
C1115 C 0.53612 0.43797 0.79641 0.0
C1116 C 0.5263 0.43706 0.84357 0.0
C1117 C 0.52925 0.43522 0.90531 0.0
C1118 C 0.53375 0.44095 0.73144 0.0
C1119 C 0.52036 0.43078 0.70129 0.0
C1120 C 0.54512 0.45324 0.69811 0.0
C1121 C 0.5592 0.46479 0.72826 0.0
C1122 C 0.55866 0.47253 0.7811 0.0
C1123 C 0.57195 0.48318 0.80995 0.0
C1124 C 0.58587 0.4863 0.78607 0.0
C1125 C 0.58652 0.47879 0.73323 0.0
C1126 C 0.57326 0.46809 0.70432 0.0
C1127 C 0.53497 0.46111 0.44483 0.0
C1128 C 0.53506 0.45002 0.40698 0.0
C1129 C 0.53241 0.45877 0.50839 0.0
C1130 C 0.52977 0.44523 0.53536 0.0
C1131 C 0.52885 0.43372 0.49722 0.0
C1132 C 0.53143 0.43607 0.43343 0.0
C1133 C 0.53008 0.444 0.60368 0.0
C1134 C 0.54316 0.45454 0.63466 0.0
C1135 C 0.51833 0.43214 0.63759 0.0
C1136 C 0.50385 0.42119 0.60814 0.0
C1137 C 0.49768 0.40567 0.61827 0.0
C1138 C 0.48387 0.39538 0.59194 0.0
C1139 C 0.47613 0.40044 0.55493 0.0
C1140 C 0.48211 0.41582 0.54472 0.0
C1141 C 0.49585 0.42617 0.57148 0.0
H1142 H 0.46547 0.39244 0.53431 0.0
H1143 H 0.59614 0.49455 0.80848 0.0
H1144 H 0.56477 0.0675 0.46441 0.0
H1145 H 0.5707 0.07179 0.57499 0.0
H1146 H 0.58379 0.11852 0.55203 0.0
H1147 H 0.57816 0.11432 0.44139 0.0
H1148 H 0.60189 0.11602 0.63246 0.0
H1149 H 0.54822 0.09196 0.60274 0.0
H1150 H 0.52342 0.07216 0.56567 0.0
H1151 H 0.52751 0.03932 0.67427 0.0
H1152 H 0.55244 0.05891 0.71135 0.0
H1153 H 0.58505 0.13437 0.92902 0.0
H1154 H 0.5877 0.12954 0.82002 0.0
H1155 H 0.57821 0.0848 0.86716 0.0
H1156 H 0.57529 0.08947 0.97592 0.0
H1157 H 0.56005 0.08478 0.77644 0.0
H1158 H 0.61275 0.11049 0.81727 0.0
H1159 H 0.63702 0.13103 0.85522 0.0
H1160 H 0.63429 0.16166 0.72745 0.0
H1161 H 0.60988 0.14136 0.68934 0.0
C1162 C 0.56898 0.07868 0.48301 0.0
C1163 C 0.57082 0.09053 0.44449 0.0
C1164 C 0.57239 0.08114 0.54609 0.0
C1165 C 0.57741 0.09541 0.57202 0.0
C1166 C 0.57991 0.1074 0.53309 0.0
C1167 C 0.57668 0.10499 0.46985 0.0
C1168 C 0.57912 0.09767 0.6401 0.0
C1169 C 0.59272 0.10926 0.66399 0.0
C1170 C 0.56726 0.08864 0.68134 0.0
C1171 C 0.55226 0.07686 0.65921 0.0
C1172 C 0.54387 0.0805 0.61833 0.0
C1173 C 0.52979 0.06932 0.59738 0.0
C1174 C 0.52392 0.05448 0.61744 0.0
C1175 C 0.53209 0.0508 0.65866 0.0
C1176 C 0.5462 0.06194 0.67967 0.0
C1177 C 0.58372 0.12358 0.91618 0.0
C1178 C 0.5799 0.1123 0.96096 0.0
C1179 C 0.58537 0.12088 0.85404 0.0
C1180 C 0.58323 0.10684 0.8356 0.0
C1181 C 0.57998 0.09574 0.88054 0.0
C1182 C 0.57841 0.09847 0.94273 0.0
C1183 C 0.58276 0.10323 0.76888 0.0
C1184 C 0.56933 0.0914 0.74515 0.0
C1185 C 0.59472 0.11216 0.72795 0.0
C1186 C 0.6094 0.12441 0.7508 0.0
C1187 C 0.61725 0.12163 0.79762 0.0
C1188 C 0.63105 0.13323 0.8191 0.0
C1189 C 0.63718 0.14765 0.79386 0.0
C1190 C 0.62953 0.15049 0.747 0.0
C1191 C 0.61571 0.13894 0.72539 0.0
H1192 H 0.64787 0.15661 0.81054 0.0
H1193 H 0.51301 0.04584 0.60118 0.0
H1194 H 0.47505 0.89787 0.56888 0.0
H1195 H 0.47827 0.89583 0.45802 0.0
H1196 H 0.49163 0.94268 0.43467 0.0
H1197 H 0.48737 0.94433 0.54572 0.0
H1198 H 0.47283 0.92812 0.35252 0.0
H1199 H 0.51677 0.92714 0.41865 0.0
H1200 H 0.53169 0.91894 0.47987 0.0
H1201 H 0.50529 0.87415 0.40831 0.0
H1202 H 0.4901 0.88202 0.34723 0.0
H1203 H 0.4879 0.92321 0.03196 0.0
H1204 H 0.49236 0.93016 0.14134 0.0
H1205 H 0.4687 0.88332 0.19268 0.0
H1206 H 0.46371 0.87621 0.08379 0.0
H1207 H 0.49629 0.90089 0.25704 0.0
H1208 H 0.45081 0.90147 0.20336 0.0
H1209 H 0.43525 0.90934 0.14497 0.0
H1210 H 0.46527 0.95534 0.19507 0.0
H1211 H 0.48118 0.94777 0.25288 0.0
C1212 C 0.47894 0.90777 0.54007 0.0
C1213 C 0.48107 0.92128 0.56536 0.0
C1214 C 0.4809 0.90666 0.47675 0.0
C1215 C 0.48553 0.91919 0.43778 0.0
C1216 C 0.48811 0.93286 0.46365 0.0
C1217 C 0.48572 0.93384 0.52685 0.0
C1218 C 0.48616 0.91757 0.36954 0.0
C1219 C 0.47835 0.92253 0.33172 0.0
C1220 C 0.49301 0.90993 0.3421 0.0
C1221 C 0.50223 0.90518 0.37853 0.0
C1222 C 0.51409 0.91553 0.4162 0.0
C1223 C 0.52261 0.91093 0.45085 0.0
C1224 C 0.51944 0.89603 0.44802 0.0
C1225 C 0.50775 0.8857 0.41042 0.0
C1226 C 0.4992 0.89023 0.37568 0.0
C1227 C 0.48346 0.91435 0.06632 0.0
C1228 C 0.4753 0.89911 0.04874 0.0
C1229 C 0.48615 0.91837 0.12883 0.0
C1230 C 0.48083 0.90724 0.17485 0.0
C1231 C 0.47298 0.89206 0.15765 0.0
C1232 C 0.47016 0.88802 0.09528 0.0
C1233 C 0.48292 0.91135 0.24121 0.0
C1234 C 0.49116 0.90681 0.27829 0.0
C1235 C 0.47658 0.91946 0.26807 0.0
C1236 C 0.46727 0.92407 0.23183 0.0
C1237 C 0.4542 0.91329 0.20127 0.0
C1238 C 0.44529 0.91769 0.16846 0.0
C1239 C 0.44926 0.93283 0.16642 0.0
C1240 C 0.4622 0.94361 0.19685 0.0
C1241 C 0.47118 0.93928 0.22953 0.0
H1242 H 0.4423 0.9362 0.14124 0.0
H1243 H 0.52604 0.8925 0.47486 0.0
H1244 H 0.09686 0.53564 0.57033 0.0
H1245 H 0.09961 0.53984 0.4586 0.0
H1246 H 0.09325 0.57807 0.47885 0.0
H1247 H 0.09037 0.57385 0.59135 0.0
H1248 H 0.0777 0.55876 0.37413 0.0
H1249 H 0.12685 0.58608 0.46362 0.0
H1250 H 0.14766 0.58938 0.53116 0.0
H1251 H 0.15088 0.55503 0.43045 0.0
H1252 H 0.12994 0.5514 0.3627 0.0
H1253 H 0.11061 0.59576 0.0908 0.0
H1254 H 0.10494 0.58971 0.20044 0.0
H1255 H 0.11279 0.5524 0.1805 0.0
H1256 H 0.1186 0.5585 0.07005 0.0
H1257 H 0.12711 0.57094 0.28494 0.0
H1258 H 0.07839 0.54512 0.19026 0.0
H1259 H 0.05803 0.54297 0.12291 0.0
H1260 H 0.05419 0.5756 0.23367 0.0
H1261 H 0.07479 0.57821 0.30108 0.0
C1262 C 0.09573 0.54475 0.55106 0.0
C1263 C 0.09338 0.55442 0.58972 0.0
C1264 C 0.09741 0.5472 0.48721 0.0
C1265 C 0.09671 0.5593 0.46066 0.0
C1266 C 0.0938 0.56865 0.49859 0.0
C1267 C 0.09226 0.56629 0.56274 0.0
C1268 C 0.09992 0.56262 0.39381 0.0
C1269 C 0.08854 0.56159 0.3546 0.0
C1270 C 0.114 0.56609 0.3685 0.0
C1271 C 0.12673 0.56836 0.40851 0.0
C1272 C 0.13192 0.57915 0.45617 0.0
C1273 C 0.14375 0.5811 0.49444 0.0
C1274 C 0.15056 0.57239 0.48525 0.0
C1275 C 0.14558 0.56176 0.43757 0.0
C1276 C 0.13374 0.55976 0.39916 0.0
C1277 C 0.11126 0.58634 0.10977 0.0
C1278 C 0.11516 0.57765 0.072 0.0
C1279 C 0.10789 0.58283 0.17231 0.0
C1280 C 0.10838 0.57057 0.19841 0.0
C1281 C 0.11235 0.56189 0.16107 0.0
C1282 C 0.11558 0.56533 0.09813 0.0
C1283 C 0.10487 0.56699 0.26496 0.0
C1284 C 0.11623 0.56802 0.30427 0.0
C1285 C 0.09081 0.56367 0.29029 0.0
C1286 C 0.07825 0.56196 0.25043 0.0
C1287 C 0.0733 0.55194 0.20001 0.0
C1288 C 0.0617 0.55062 0.16182 0.0
C1289 C 0.05483 0.55915 0.17389 0.0
C1290 C 0.05953 0.56901 0.22432 0.0
C1291 C 0.07118 0.57041 0.26256 0.0
H1292 H 0.04583 0.5581 0.14427 0.0
H1293 H 0.15971 0.57389 0.51497 0.0
H1294 H 0.47841 0.56081 0.55074 0.0
H1295 H 0.47291 0.55936 0.4397 0.0
H1296 H 0.43284 0.51642 0.46696 0.0
H1297 H 0.43812 0.51803 0.57898 0.0
H1298 H 0.45846 0.52458 0.35265 0.0
H1299 H 0.42363 0.53712 0.46086 0.0
H1300 H 0.42017 0.55302 0.53725 0.0
H1301 H 0.44936 0.5924 0.43159 0.0
H1302 H 0.45362 0.57684 0.35633 0.0
H1303 H 0.43025 0.52329 0.04951 0.0
H1304 H 0.43241 0.51915 0.16018 0.0
H1305 H 0.4528 0.56687 0.19295 0.0
H1306 H 0.4503 0.57092 0.08353 0.0
H1307 H 0.435 0.55401 0.28044 0.0
H1308 H 0.47316 0.54835 0.18615 0.0
H1309 H 0.48614 0.53923 0.11789 0.0
H1310 H 0.46039 0.49498 0.19545 0.0
H1311 H 0.44698 0.50375 0.26333 0.0
C1312 C 0.46857 0.55096 0.53288 0.0
C1313 C 0.45867 0.5395 0.5731 0.0
C1314 C 0.46544 0.55016 0.46967 0.0
C1315 C 0.4525 0.5378 0.4456 0.0
C1316 C 0.4429 0.52602 0.48505 0.0
C1317 C 0.44585 0.52697 0.54869 0.0
C1318 C 0.44858 0.53786 0.37991 0.0
C1319 C 0.45296 0.53064 0.33653 0.0
C1320 C 0.44229 0.5466 0.3595 0.0
C1321 C 0.43907 0.5558 0.40327 0.0
C1322 C 0.42945 0.54918 0.45427 0.0
C1323 C 0.42734 0.55813 0.49737 0.0
C1324 C 0.43449 0.57369 0.48917 0.0
C1325 C 0.44381 0.58034 0.4379 0.0
C1326 C 0.44612 0.57147 0.39514 0.0
C1327 C 0.43513 0.53284 0.08059 0.0
C1328 C 0.43999 0.5474 0.05802 0.0
C1329 C 0.43641 0.53049 0.14371 0.0
C1330 C 0.44285 0.54271 0.18505 0.0
C1331 C 0.44764 0.55723 0.16233 0.0
C1332 C 0.44618 0.55954 0.09966 0.0
C1333 C 0.44472 0.54054 0.25194 0.0
C1334 C 0.44009 0.54751 0.29589 0.0
C1335 C 0.45158 0.53227 0.2726 0.0
C1336 C 0.45891 0.52667 0.22928 0.0
C1337 C 0.47007 0.53661 0.18795 0.0
C1338 C 0.47755 0.53152 0.14949 0.0
C1339 C 0.47412 0.51656 0.15247 0.0
C1340 C 0.46305 0.50658 0.19331 0.0
C1341 C 0.45547 0.5116 0.23166 0.0
H1342 H 0.48009 0.5127 0.12324 0.0
H1343 H 0.43282 0.58059 0.52253 0.0
H1344 H 0.56853 0.77976 0.23147 0.0
H1345 H 0.5745 0.78818 0.12412 0.0
H1346 H 0.57582 0.82962 0.17115 0.0
H1347 H 0.57 0.82125 0.27994 0.0
H1348 H 0.55834 0.81186 0.05288 0.0
H1349 H 0.60618 0.83531 0.15329 0.0
H1350 H 0.62549 0.8362 0.22384 0.0
H1351 H 0.62864 0.80309 0.11348 0.0
H1352 H 0.60899 0.80165 0.04329 0.0
H1353 H 0.58467 0.82985 0.73778 0.0
H1354 H 0.58152 0.83268 0.84907 0.0
H1355 H 0.59453 0.79955 0.89005 0.0
H1356 H 0.59843 0.79745 0.7799 0.0
H1357 H 0.60702 0.82043 0.9693 0.0
H1358 H 0.55572 0.79288 0.88551 0.0
H1359 H 0.53531 0.79027 0.81686 0.0
H1360 H 0.53836 0.83011 0.89558 0.0
H1361 H 0.55889 0.83301 0.96432 0.0
C1362 C 0.56988 0.79058 0.21893 0.0
C1363 C 0.56872 0.79983 0.26392 0.0
C1364 C 0.57337 0.7954 0.1577 0.0
C1365 C 0.57561 0.80951 0.13995 0.0
C1366 C 0.57411 0.81869 0.18418 0.0
C1367 C 0.57086 0.81395 0.24607 0.0
C1368 C 0.57997 0.81453 0.07518 0.0
C1369 C 0.5691 0.81411 0.03453 0.0
C1370 C 0.59396 0.81728 0.05163 0.0
C1371 C 0.60598 0.81828 0.09323 0.0
C1372 C 0.61086 0.8281 0.14437 0.0
C1373 C 0.62189 0.82871 0.1843 0.0
C1374 C 0.62827 0.81969 0.17319 0.0
C1375 C 0.62366 0.81006 0.12206 0.0
C1376 C 0.61257 0.80933 0.0822 0.0
C1377 C 0.58686 0.82325 0.77095 0.0
C1378 C 0.59183 0.81348 0.75063 0.0
C1379 C 0.58501 0.82481 0.83441 0.0
C1380 C 0.58762 0.81621 0.8783 0.0
C1381 C 0.59255 0.80643 0.8575 0.0
C1382 C 0.59475 0.80518 0.79452 0.0
C1383 C 0.58509 0.81699 0.9459 0.0
C1384 C 0.59635 0.81855 0.98737 0.0
C1385 C 0.57141 0.81515 0.97006 0.0
C1386 C 0.55893 0.81324 0.92949 0.0
C1387 C 0.55207 0.8011 0.88796 0.0
C1388 C 0.54048 0.79958 0.84907 0.0
C1389 C 0.53558 0.81005 0.85173 0.0
C1390 C 0.54219 0.82203 0.8935 0.0
C1391 C 0.55379 0.82361 0.93246 0.0
H1392 H 0.52663 0.80886 0.82152 0.0
H1393 H 0.63679 0.82015 0.20414 0.0
H1394 H 0.18825 0.76573 0.27882 0.0
H1395 H 0.18046 0.76485 0.1711 0.0
H1396 H 0.22153 0.76726 0.109 0.0
H1397 H 0.22954 0.76844 0.21559 0.0
H1398 H 0.19269 0.78476 0.08168 0.0
H1399 H 0.21636 0.74801 0.97747 0.0
H1400 H 0.21833 0.72589 0.00753 0.0
H1401 H 0.18164 0.71228 0.13493 0.0
H1402 H 0.17928 0.73418 0.10496 0.0
H1403 H 0.22124 0.80503 0.78312 0.0
H1404 H 0.21522 0.7981 0.89107 0.0
H1405 H 0.17963 0.75419 0.83701 0.0
H1406 H 0.1855 0.76109 0.72768 0.0
H1407 H 0.19657 0.75182 0.9235 0.0
H1408 H 0.17126 0.77911 0.90372 0.0
H1409 H 0.16659 0.79969 0.87566 0.0
H1410 H 0.20195 0.8296 -0.00205 0.0
H1411 H 0.20706 0.80931 0.02584 0.0
C1412 C 0.19567 0.76609 0.24241 0.0
C1413 C 0.20956 0.76712 0.25651 0.0
C1414 C 0.19112 0.76548 0.18073 0.0
C1415 C 0.20027 0.76569 0.13192 0.0
C1416 C 0.21407 0.76666 0.14582 0.0
C1417 C 0.21866 0.76735 0.2072 0.0
C1418 C 0.19608 0.76599 0.06617 0.0
C1419 C 0.19344 0.77752 0.04709 0.0
C1420 C 0.19642 0.75611 0.02125 0.0
C1421 C 0.19771 0.74283 0.03919 0.0
C1422 C 0.20865 0.74026 0.01163 0.0
C1423 C 0.20985 0.72776 0.02872 0.0
C1424 C 0.20014 0.7177 0.07321 0.0
C1425 C 0.18919 0.72011 0.10062 0.0
C1426 C 0.18793 0.73258 0.08366 0.0
C1427 C 0.2119 0.79399 0.79357 0.0
C1428 C 0.20384 0.78366 0.74608 0.0
C1429 C 0.20846 0.79004 0.85575 0.0
C1430 C 0.19684 0.77569 0.87232 0.0
C1431 C 0.18863 0.76534 0.8253 0.0
C1432 C 0.19206 0.7693 0.76277 0.0
C1433 C 0.19428 0.77131 0.93881 0.0
C1434 C 0.1956 0.75896 0.95808 0.0
C1435 C 0.19245 0.78029 0.98398 0.0
C1436 C 0.18961 0.79266 0.96657 0.0
C1437 C 0.17816 0.79011 0.92416 0.0
C1438 C 0.17541 0.80173 0.90835 0.0
C1439 C 0.18398 0.81595 0.93491 0.0
C1440 C 0.19532 0.81858 0.97736 0.0
C1441 C 0.19814 0.80702 0.99321 0.0
H1442 H 0.18182 0.82492 0.92268 0.0
H1443 H 0.20109 0.70804 0.08639 0.0
H1444 H 0.2534 0.44223 0.76496 0.0
H1445 H 0.25855 0.44343 0.87595 0.0
H1446 H 0.21653 0.40224 0.90363 0.0
H1447 H 0.21132 0.40104 0.79259 0.0
H1448 H 0.21767 0.42374 0.97242 0.0
H1449 H 0.2506 0.4044 0.93614 0.0
H1450 H 0.27147 0.40184 0.89325 0.0
H1451 H 0.30315 0.44645 0.95466 0.0
H1452 H 0.28246 0.44934 0.99748 0.0
H1453 H 0.22566 0.42243 0.29666 0.0
H1454 H 0.22437 0.4154 0.18786 0.0
H1455 H 0.26343 0.45837 0.14813 0.0
H1456 H 0.26501 0.46538 0.25752 0.0
H1457 H 0.26376 0.43439 0.08777 0.0
H1458 H 0.23005 0.45381 0.11799 0.0
H1459 H 0.20918 0.45515 0.16836 0.0
H1460 H 0.17872 0.4092 0.1189 0.0
H1461 H 0.19946 0.40753 0.06897 0.0
C1462 C 0.24548 0.43319 0.79437 0.0
C1463 C 0.23183 0.42165 0.77026 0.0
C1464 C 0.24845 0.43387 0.8579 0.0
C1465 C 0.23789 0.42295 0.89819 0.0
C1466 C 0.22478 0.41084 0.87345 0.0
C1467 C 0.22179 0.4102 0.81011 0.0
C1468 C 0.2394 0.42532 0.96618 0.0
C1469 C 0.22764 0.42574 -0.00227 0.0
C1470 C 0.25258 0.42842 -0.00103 0.0
C1471 C 0.26495 0.42711 0.96973 0.0
C1472 C 0.26199 0.41374 0.9398 0.0
C1473 C 0.2738 0.4122 0.91585 0.0
C1474 C 0.28863 0.42393 0.92173 0.0
C1475 C 0.29167 0.43733 0.9506 0.0
C1476 C 0.2799 0.43892 0.97472 0.0
C1477 C 0.23413 0.4303 0.26511 0.0
C1478 C 0.2454 0.44451 0.28566 0.0
C1479 C 0.23332 0.42629 0.20287 0.0
C1480 C 0.24372 0.43643 0.16002 0.0
C1481 C 0.25528 0.45041 0.1806 0.0
C1482 C 0.25608 0.45446 0.24288 0.0
C1483 C 0.24206 0.43273 0.09323 0.0
C1484 C 0.25377 0.43221 0.06211 0.0
C1485 C 0.22883 0.42948 0.06063 0.0
C1486 C 0.21633 0.4305 0.09034 0.0
C1487 C 0.21892 0.44396 0.1183 0.0
C1488 C 0.20712 0.44478 0.14669 0.0
C1489 C 0.19264 0.43226 0.14699 0.0
C1490 C 0.18994 0.41889 0.11873 0.0
C1491 C 0.20171 0.418 0.09034 0.0
H1492 H 0.18352 0.43292 0.16898 0.0
H1493 H 0.29777 0.42266 0.90365 0.0
H1494 H 0.19949 0.38306 0.50553 0.0
H1495 H 0.19417 0.35925 0.46018 0.0
H1496 H 0.23913 0.38008 0.3857 0.0
H1497 H 0.24458 0.40432 0.43163 0.0
H1498 H 0.21718 0.36292 0.29794 0.0
H1499 H 0.22961 0.35491 0.50159 0.0
H1500 H 0.22929 0.35468 0.61587 0.0
H1501 H 0.18181 0.3234 0.61473 0.0
H1502 H 0.18177 0.32364 0.5005 0.0
H1503 H 0.18625 0.28596 0.18426 0.0
H1504 H 0.20419 0.31003 0.23415 0.0
H1505 H 0.16863 0.30662 0.35168 0.0
H1506 H 0.15102 0.28301 0.30322 0.0
H1507 H 0.19355 0.31531 0.41764 0.0
H1508 H 0.18001 0.32855 0.22041 0.0
H1509 H 0.17885 0.32905 0.10628 0.0
H1510 H 0.22699 0.35041 0.09644 0.0
H1511 H 0.2284 0.34985 0.21061 0.0
C1512 C 0.20837 0.3826 0.48025 0.0
C1513 C 0.22248 0.3956 0.47237 0.0
C1514 C 0.20532 0.3689 0.45449 0.0
C1515 C 0.21627 0.36775 0.41994 0.0
C1516 C 0.23052 0.38066 0.41251 0.0
C1517 C 0.23366 0.39446 0.4391 0.0
C1518 C 0.21219 0.35314 0.38931 0.0
C1519 C 0.21241 0.35253 0.32422 0.0
C1520 C 0.20574 0.33951 0.42334 0.0
C1521 C 0.2057 0.33934 0.49227 0.0
C1522 C 0.21908 0.34807 0.52565 0.0
C1523 C 0.21896 0.34793 0.59048 0.0
C1524 C 0.20554 0.33904 0.62254 0.0
C1525 C 0.1922 0.33028 0.58985 0.0
C1526 C 0.19225 0.3304 0.52503 0.0
C1527 C 0.18237 0.29034 0.22111 0.0
C1528 C 0.16717 0.2826 0.23932 0.0
C1529 C 0.19259 0.30411 0.24941 0.0
C1530 C 0.18777 0.31022 0.29668 0.0
C1531 C 0.1727 0.30221 0.31563 0.0
C1532 C 0.16258 0.28868 0.28736 0.0
C1533 C 0.1979 0.32508 0.3264 0.0
C1534 C 0.19878 0.32573 0.39143 0.0
C1535 C 0.20516 0.3387 0.29237 0.0
C1536 C 0.2043 0.33894 0.22389 0.0
C1537 C 0.19033 0.33321 0.19386 0.0
C1538 C 0.18963 0.33353 0.12919 0.0
C1539 C 0.20283 0.3397 0.09411 0.0
C1540 C 0.21677 0.34559 0.12366 0.0
C1541 C 0.21753 0.34527 0.18833 0.0
H1542 H 0.20227 0.33995 0.04405 0.0
H1543 H 0.20548 0.33894 0.67272 0.0
H1544 H 0.72666 0.86035 0.20639 0.0
H1545 H 0.70182 0.85372 0.24405 0.0
H1546 H 0.71471 0.90058 0.25173 0.0
H1547 H 0.73999 0.90746 0.21278 0.0
H1548 H 0.69844 0.88215 0.36185 0.0
H1549 H 0.69277 0.88249 0.14267 0.0
H1550 H 0.6953 0.87692 0.03364 0.0
H1551 H 0.669 0.82959 0.07069 0.0
H1552 H 0.66659 0.83484 0.18023 0.0
H1553 H 0.61913 0.8464 0.44502 0.0
H1554 H 0.64318 0.86416 0.39505 0.0
H1555 H 0.6464 0.82683 0.32125 0.0
H1556 H 0.62265 0.80934 0.36924 0.0
H1557 H 0.65413 0.84758 0.23563 0.0
H1558 H 0.66548 0.84681 0.45518 0.0
H1559 H 0.66339 0.85111 0.56634 0.0
H1560 H 0.67891 0.89772 0.52989 0.0
H1561 H 0.68091 0.89364 0.41833 0.0
C1562 C 0.72434 0.86935 0.21601 0.0
C1563 C 0.73537 0.88448 0.20636 0.0
C1564 C 0.71005 0.86549 0.23744 0.0
C1565 C 0.70633 0.87661 0.25026 0.0
C1566 C 0.71733 0.89181 0.2419 0.0
C1567 C 0.73173 0.89571 0.21949 0.0
C1568 C 0.69084 0.87192 0.27221 0.0
C1569 C 0.6887 0.8749 0.33378 0.0
C1570 C 0.67812 0.8623 0.23592 0.0
C1571 C 0.67957 0.85908 0.1699 0.0
C1572 C 0.68764 0.87089 0.12776 0.0
C1573 C 0.68904 0.86779 0.0658 0.0
C1574 C 0.68233 0.85292 0.04527 0.0
C1575 C 0.6742 0.84111 0.08664 0.0
C1576 C 0.6728 0.84414 0.14868 0.0
C1577 C 0.62495 0.84205 0.41765 0.0
C1578 C 0.61898 0.82643 0.41159 0.0
C1579 C 0.63872 0.85219 0.38935 0.0
C1580 C 0.64672 0.84686 0.3546 0.0
C1581 C 0.64051 0.83129 0.34752 0.0
C1582 C 0.62688 0.82125 0.37548 0.0
C1583 C 0.66173 0.85709 0.32626 0.0
C1584 C 0.66379 0.85515 0.26328 0.0
C1585 C 0.67434 0.86746 0.36151 0.0
C1586 C 0.67314 0.86988 0.42842 0.0
C1587 C 0.66832 0.85795 0.47084 0.0
C1588 C 0.66718 0.86035 0.5339 0.0
C1589 C 0.67096 0.87467 0.55514 0.0
C1590 C 0.67594 0.88663 0.51336 0.0
C1591 C 0.67708 0.88428 0.45023 0.0
H1592 H 0.67007 0.87651 0.60398 0.0
H1593 H 0.68342 0.85054 0.99727 0.0
H1594 H 0.17497 0.77228 0.37929 0.0
H1595 H 0.1567 0.7781 0.33059 0.0
H1596 H 0.17229 0.81701 0.44837 0.0
H1597 H 0.1907 0.81154 0.49522 0.0
H1598 H 0.14014 0.79935 0.43589 0.0
H1599 H 0.186 0.82198 0.31165 0.0
H1600 H 0.20517 0.82094 0.24642 0.0
H1601 H 0.17104 0.79222 0.11709 0.0
H1602 H 0.15159 0.79288 0.18231 0.0
H1603 H 0.13415 0.85941 0.32204 0.0
H1604 H 0.14033 0.84091 0.3609 0.0
H1605 H 0.12227 0.81465 0.19447 0.0
H1606 H 0.11596 0.8334 0.15502 0.0
H1607 H 0.14998 0.81881 0.22036 0.0
H1608 H 0.1048 0.80026 0.33281 0.0
H1609 H 0.08483 0.79917 0.39982 0.0
H1610 H 0.1162 0.8184 0.55007 0.0
H1611 H 0.13643 0.8198 0.48385 0.0
C1612 C 0.17423 0.78187 0.39547 0.0
C1613 C 0.18419 0.79145 0.44115 0.0
C1614 C 0.16389 0.78525 0.3674 0.0
C1615 C 0.16318 0.79804 0.3857 0.0
C1616 C 0.17261 0.80708 0.43355 0.0
C1617 C 0.18311 0.80394 0.46034 0.0
C1618 C 0.1533 0.80273 0.35382 0.0
C1619 C 0.14224 0.80359 0.38872 0.0
C1620 C 0.15566 0.80771 0.29145 0.0
C1621 C 0.16732 0.80729 0.25233 0.0
C1622 C 0.18255 0.8153 0.2697 0.0
C1623 C 0.19347 0.8148 0.23268 0.0
C1624 C 0.18932 0.80647 0.1778 0.0
C1625 C 0.17423 0.79863 0.15975 0.0
C1626 C 0.16325 0.79905 0.19675 0.0
C1627 C 0.13125 0.84958 0.29396 0.0
C1628 C 0.12459 0.84789 0.23536 0.0
C1629 C 0.13472 0.83892 0.31649 0.0
C1630 C 0.1317 0.82626 0.281 0.0
C1631 C 0.12466 0.82428 0.22291 0.0
C1632 C 0.12097 0.83493 0.20055 0.0
C1633 C 0.13714 0.81602 0.30339 0.0
C1634 C 0.14747 0.81419 0.26688 0.0
C1635 C 0.13403 0.81002 0.36429 0.0
C1636 C 0.12215 0.81013 0.40323 0.0
C1637 C 0.1075 0.80443 0.37989 0.0
C1638 C 0.09611 0.80369 0.41784 0.0
C1639 C 0.09922 0.80858 0.4793 0.0
C1640 C 0.11379 0.8145 0.5026 0.0
C1641 C 0.12522 0.81526 0.46488 0.0
H1642 H 0.09035 0.80776 0.50892 0.0
H1643 H 0.19781 0.80617 0.14916 0.0
H1644 H 0.38848 0.19747 0.51835 0.0
H1645 H 0.36425 0.1917 0.56091 0.0
H1646 H 0.38433 0.23594 0.64201 0.0
H1647 H 0.40899 0.24185 0.59866 0.0
H1648 H 0.3662 0.21273 0.72613 0.0
H1649 H 0.35934 0.2285 0.52712 0.0
H1650 H 0.36057 0.23047 0.41304 0.0
H1651 H 0.33204 0.18262 0.3979 0.0
H1652 H 0.33097 0.18037 0.5118 0.0
H1653 H 0.28722 0.18121 0.81967 0.0
H1654 H 0.31171 0.1996 0.77392 0.0
H1655 H 0.31182 0.16413 0.66767 0.0
H1656 H 0.28775 0.14601 0.71209 0.0
H1657 H 0.31999 0.19053 0.59741 0.0
H1658 H 0.33106 0.17474 0.79477 0.0
H1659 H 0.3301 0.17237 0.90868 0.0
H1660 H 0.351 0.22032 0.92662 0.0
H1661 H 0.35188 0.22294 0.81267 0.0
C1662 C 0.38776 0.2061 0.54443 0.0
C1663 C 0.40065 0.22015 0.55485 0.0
C1664 C 0.37384 0.20279 0.56864 0.0
C1665 C 0.37236 0.2134 0.60431 0.0
C1666 C 0.38517 0.2276 0.61432 0.0
C1667 C 0.39921 0.23101 0.58915 0.0
C1668 C 0.35746 0.20897 0.63303 0.0
C1669 C 0.35612 0.20828 0.69797 0.0
C1670 C 0.34423 0.203 0.59661 0.0
C1671 C 0.34495 0.20428 0.52801 0.0
C1672 C 0.35337 0.2184 0.49943 0.0
C1673 C 0.35407 0.21956 0.43479 0.0
C1674 C 0.34635 0.20668 0.39823 0.0
C1675 C 0.33796 0.1926 0.42624 0.0
C1676 C 0.33727 0.19138 0.49084 0.0
C1677 C 0.29242 0.17744 0.78592 0.0
C1678 C 0.28554 0.16213 0.76978 0.0
C1679 C 0.30642 0.18792 0.76001 0.0
C1680 C 0.31359 0.18325 0.71696 0.0
C1681 C 0.30647 0.16806 0.69997 0.0
C1682 C 0.29271 0.15767 0.72601 0.0
C1683 C 0.32871 0.19373 0.69029 0.0
C1684 C 0.33008 0.19544 0.62561 0.0
C1685 C 0.34192 0.20061 0.72699 0.0
C1686 C 0.34132 0.19902 0.79532 0.0
C1687 C 0.3353 0.18476 0.82302 0.0
C1688 C 0.3348 0.18337 0.88758 0.0
C1689 C 0.34043 0.19618 0.92488 0.0
C1690 C 0.3466 0.21041 0.89767 0.0
C1691 C 0.3471 0.21185 0.83312 0.0
H1692 H 0.34005 0.19509 0.97485 0.0
H1693 H 0.3469 0.20761 0.3482 0.0
H1694 H 0.83903 0.11487 0.83905 0.0
H1695 H 0.82161 0.12242 0.79548 0.0
H1696 H 0.85463 0.14881 0.65652 0.0
H1697 H 0.87194 0.14166 0.70061 0.0
H1698 H 0.84555 0.16517 0.70503 0.0
H1699 H 0.81905 0.11371 0.62915 0.0
H1700 H 0.80575 0.08611 0.64049 0.0
H1701 H 0.77297 0.08803 0.75796 0.0
H1702 H 0.78626 0.11567 0.7477 0.0
H1703 H 0.81114 0.18624 0.48806 0.0
H1704 H 0.81971 0.17018 0.53476 0.0
H1705 H 0.78532 0.1562 0.67487 0.0
H1706 H 0.77637 0.17211 0.62653 0.0
H1707 H 0.79236 0.13304 0.64115 0.0
H1708 H 0.81722 0.18428 0.70433 0.0
H1709 H 0.83034 0.21176 0.69022 0.0
H1710 H 0.86644 0.21025 0.59633 0.0
H1711 H 0.85339 0.1827 0.60891 0.0
C1712 C 0.84236 0.122 0.79835 0.0
C1713 C 0.85687 0.12773 0.77341 0.0
C1714 C 0.8324 0.12633 0.77337 0.0
C1715 C 0.8367 0.13622 0.72232 0.0
C1716 C 0.85096 0.14126 0.69596 0.0
C1717 C 0.86089 0.13713 0.72119 0.0
C1718 C 0.82714 0.14239 0.69836 0.0
C1719 C 0.83398 0.15804 0.69044 0.0
C1720 C 0.81176 0.13331 0.68198 0.0
C1721 C 0.80377 0.11673 0.68823 0.0
C1722 C 0.8091 0.10823 0.65776 0.0
C1723 C 0.80154 0.09259 0.66392 0.0
C1724 C 0.78854 0.08532 0.70013 0.0
C1725 C 0.78306 0.09368 0.73004 0.0
C1726 C 0.7906 0.10933 0.72402 0.0
C1727 C 0.80505 0.17932 0.52748 0.0
C1728 C 0.79308 0.18036 0.55359 0.0
C1729 C 0.80999 0.17018 0.55432 0.0
C1730 C 0.80335 0.16218 0.60902 0.0
C1731 C 0.79061 0.16226 0.63266 0.0
C1732 C 0.78548 0.17131 0.60499 0.0
C1733 C 0.81113 0.15561 0.64493 0.0
C1734 C 0.80393 0.14005 0.6559 0.0
C1735 C 0.82624 0.16475 0.66426 0.0
C1736 C 0.83427 0.18138 0.65741 0.0
C1737 C 0.82791 0.18979 0.68039 0.0
C1738 C 0.83534 0.20538 0.67263 0.0
C1739 C 0.84922 0.21275 0.64235 0.0
C1740 C 0.85569 0.20453 0.61982 0.0
C1741 C 0.84829 0.18892 0.62731 0.0
H1742 H 0.85496 0.22482 0.6364 0.0
H1743 H 0.7827 0.0732 0.70486 0.0
H1744 H 0.91063 0.73641 0.7397 0.0
H1745 H 0.90341 0.71169 0.69336 0.0
H1746 H 0.85686 0.69656 0.73409 0.0
H1747 H 0.86388 0.72085 0.77924 0.0
H1748 H 0.86443 0.67556 0.76641 0.0
H1749 H 0.87088 0.70831 0.59203 0.0
H1750 H 0.88447 0.72932 0.51874 0.0
H1751 H 0.91433 0.7128 0.47329 0.0
H1752 H 0.90106 0.69183 0.54704 0.0
H1753 H 0.8119 0.6216 0.57307 0.0
H1754 H 0.8298 0.64509 0.62201 0.0
H1755 H 0.8665 0.63958 0.55747 0.0
H1756 H 0.84837 0.61568 0.50724 0.0
H1757 H 0.87044 0.66985 0.54159 0.0
H1758 H 0.85914 0.63362 0.70174 0.0
H1759 H 0.8413 0.61088 0.75946 0.0
H1760 H 0.81849 0.63352 0.82644 0.0
H1761 H 0.83597 0.6563 0.76808 0.0
C1762 C 0.8989 0.72772 0.73906 0.0
C1763 C 0.88783 0.7306 0.76303 0.0
C1764 C 0.89477 0.71365 0.71236 0.0
C1765 C 0.87956 0.70224 0.71019 0.0
C1766 C 0.86865 0.70511 0.73534 0.0
C1767 C 0.8727 0.71908 0.76096 0.0
C1768 C 0.87455 0.68727 0.68131 0.0
C1769 C 0.86591 0.67433 0.71738 0.0
C1770 C 0.87669 0.68556 0.61753 0.0
C1771 C 0.88514 0.69864 0.57584 0.0
C1772 C 0.8805 0.7093 0.56722 0.0
C1773 C 0.8881 0.72116 0.52536 0.0
C1774 C 0.90026 0.72239 0.49143 0.0
C1775 C 0.90493 0.71185 0.49967 0.0
C1776 C 0.89739 0.69999 0.54154 0.0
C1777 C 0.82375 0.62527 0.56903 0.0
C1778 C 0.82867 0.61667 0.53627 0.0
C1779 C 0.83401 0.63875 0.59725 0.0
C1780 C 0.84949 0.64406 0.59391 0.0
C1781 C 0.85458 0.63567 0.56071 0.0
C1782 C 0.84422 0.62199 0.53239 0.0
C1783 C 0.86 0.65832 0.62636 0.0
C1784 C 0.86955 0.67107 0.59111 0.0
C1785 C 0.85862 0.65991 0.69082 0.0
C1786 C 0.84885 0.64667 0.7302 0.0
C1787 C 0.85033 0.63377 0.72885 0.0
C1788 C 0.84026 0.62085 0.76152 0.0
C1789 C 0.82871 0.62073 0.79617 0.0
C1790 C 0.8274 0.63362 0.79932 0.0
C1791 C 0.83742 0.64656 0.76654 0.0
H1792 H 0.82074 0.61064 0.82045 0.0
H1793 H 0.90601 0.73145 0.45846 0.0
H1794 H 0.95754 0.51224 0.18796 0.0
H1795 H 0.98236 0.52922 0.14177 0.0
H1796 H 0.97074 0.49966 0.98388 0.0
H1797 H 0.94645 0.48266 0.03063 0.0
H1798 H 0.99614 0.50455 0.02885 0.0
H1799 H 0.97515 0.53617 0.97798 0.0
H1800 H 0.96317 0.55129 0.00109 0.0
H1801 H 1.00007 0.57992 0.11991 0.0
H1802 H 0.01218 0.56484 0.09812 0.0
H1803 H 0.0543 0.54103 0.82073 0.0
H1804 H 0.02954 0.53266 0.86648 0.0
H1805 H 0.05047 0.56277 0.02062 0.0
H1806 H 0.07536 0.57143 0.97369 0.0
H1807 H 0.02195 0.55942 0.98848 0.0
H1808 H 0.04325 0.52842 0.0353 0.0
H1809 H 0.05538 0.51347 0.01172 0.0
H1810 H 0.0174 0.48336 0.90082 0.0
H1811 H 1.00516 0.4983 0.92307 0.0
C1812 C 0.96022 0.50966 0.14266 0.0
C1813 C 0.95012 0.49617 0.11279 0.0
C1814 C 0.9744 0.51933 0.11628 0.0
C1815 C 0.97854 0.51572 0.05927 0.0
C1816 C 0.96797 0.50268 0.02805 0.0
C1817 C 0.95402 0.49299 0.05466 0.0
C1818 C 0.99419 0.52447 0.03408 0.0
C1819 C 1.00163 0.51652 0.01938 0.0
C1820 C 1.00175 0.54022 0.0239 0.0
C1821 C 0.99448 0.54927 0.03697 0.0
C1822 C 0.98064 0.54561 0.00946 0.0
C1823 C 0.97384 0.55419 0.02223 0.0
C1824 C 0.98083 0.56653 0.06209 0.0
C1825 C 0.99466 0.57034 0.08913 0.0
C1826 C 1.0015 0.56179 0.07655 0.0
C1827 C 0.05355 0.54628 0.86309 0.0
C1828 C 0.06665 0.55704 0.8932 0.0
C1829 C 0.03942 0.54142 0.88952 0.0
C1830 C 0.03813 0.54692 0.94749 0.0
C1831 C 0.05117 0.55841 0.97581 0.0
C1832 C 0.06536 0.5634 0.94889 0.0
C1833 C 0.02345 0.53931 0.98108 0.0
C1834 C 0.01635 0.54746 -0.00198 0.0
C1835 C 0.0161 0.52368 0.99348 0.0
C1836 C 0.02335 0.51455 0.98056 0.0
C1837 C 0.03753 0.51866 0.00565 0.0
C1838 C 0.04442 0.51019 0.99252 0.0
C1839 C 0.03717 0.49748 0.9547 0.0
C1840 C 0.023 0.49322 0.93007 0.0
C1841 C 0.01608 0.50168 0.94298 0.0
H1842 H 0.04252 0.49093 0.94456 0.0
H1843 H 0.97555 0.57316 0.07191 0.0
H1844 H 0.44318 0.49978 0.85859 0.0
H1845 H 0.44941 0.48085 0.89699 0.0
H1846 H 0.49052 0.51627 0.97571 0.0
H1847 H 0.48452 0.5349 0.93827 0.0
H1848 H 0.49503 0.49677 0.9024 0.0
H1849 H 0.45976 0.49488 0.05705 0.0
H1850 H 0.43502 0.48918 0.09709 0.0
H1851 H 0.41695 0.4426 0.05114 0.0
H1852 H 0.44162 0.44809 0.01023 0.0
H1853 H 0.52918 0.48121 0.1378 0.0
H1854 H 0.51192 0.48762 0.08759 0.0
H1855 H 0.4849 0.44191 0.0245 0.0
H1856 H 0.50243 0.4353 0.07528 0.0
H1857 H 0.46866 0.45951 0.06956 0.0
H1858 H 0.50392 0.46063 0.92185 0.0
H1859 H 0.52896 0.4661 0.88622 0.0
H1860 H 0.54623 0.51325 0.91621 0.0
H1861 H 0.52137 0.50805 0.95346 0.0
C1862 C 0.45347 0.50346 0.88448 0.0
C1863 C 0.4634 0.51889 0.89475 0.0
C1864 C 0.45703 0.49265 0.90633 0.0
C1865 C 0.47053 0.49715 0.93876 0.0
C1866 C 0.48015 0.5125 0.9502 0.0
C1867 C 0.47664 0.52318 0.92871 0.0
C1868 C 0.4753 0.48634 0.96016 0.0
C1869 C 0.48915 0.48852 0.9385 0.0
C1870 C 0.46741 0.47516 0.00585 0.0
C1871 C 0.45255 0.47195 0.02992 0.0
C1872 C 0.45051 0.48345 0.05502 0.0
C1873 C 0.43649 0.48025 0.07798 0.0
C1874 C 0.4244 0.46554 0.0765 0.0
C1875 C 0.42632 0.454 0.05216 0.0
C1876 C 0.44033 0.45716 0.0291 0.0
C1877 C 0.51945 0.47239 0.11418 0.0
C1878 C 0.51727 0.45777 0.11006 0.0
C1879 C 0.50955 0.47609 0.08564 0.0
C1880 C 0.49718 0.4653 0.05188 0.0
C1881 C 0.49435 0.4504 0.05056 0.0
C1882 C 0.50436 0.44664 0.07954 0.0
C1883 C 0.48859 0.47046 0.01319 0.0
C1884 C 0.47419 0.46733 0.03176 0.0
C1885 C 0.49583 0.4807 0.96405 0.0
C1886 C 0.51077 0.48393 0.94073 0.0
C1887 C 0.51307 0.47216 0.92128 0.0
C1888 C 0.52724 0.47521 0.90075 0.0
C1889 C 0.53917 0.49 0.89891 0.0
C1890 C 0.53697 0.50179 0.91761 0.0
C1891 C 0.52284 0.4988 0.93842 0.0
H1892 H 0.55012 0.49235 0.88296 0.0
H1893 H 0.41354 0.46307 0.09434 0.0
H1894 H 0.57263 0.06067 0.14083 0.0
H1895 H 0.56573 0.03615 0.09392 0.0
H1896 H 0.52525 0.03319 0.02052 0.0
H1897 H 0.53189 0.05721 0.06693 0.0
H1898 H 0.51871 0.0078 0.07582 0.0
H1899 H 0.55574 0.0415 0.92905 0.0
H1900 H 0.58089 0.06146 0.89623 0.0
H1901 H 0.60001 0.03475 0.95663 0.0
H1902 H 0.57497 0.0147 0.99062 0.0
H1903 H 0.49051 0.96054 0.8264 0.0
H1904 H 0.50709 0.98407 0.87928 0.0
H1905 H 0.53029 0.96366 0.96647 0.0
H1906 H 0.51352 0.93975 0.91274 0.0
H1907 H 0.5486 0.99849 0.91962 0.0
H1908 H 0.50817 0.96299 0.05546 0.0
H1909 H 0.48156 0.9437 0.07137 0.0
H1910 H 0.46784 0.97534 0.01813 0.0
H1911 H 0.49433 0.99477 0.00128 0.0
C1912 C 0.56233 0.0548 0.11429 0.0
C1913 C 0.55277 0.06089 0.10819 0.0
C1914 C 0.55839 0.04079 0.08746 0.0
C1915 C 0.54488 0.03271 0.05391 0.0
C1916 C 0.53562 0.03904 0.0467 0.0
C1917 C 0.53949 0.05288 0.07332 0.0
C1918 C 0.53985 0.0175 0.02712 0.0
C1919 C 0.52537 1.0058 0.0422 0.0
C1920 C 0.5485 0.01468 0.98358 0.0
C1921 C 0.56353 0.0267 0.96317 0.0
C1922 C 0.56533 0.03995 0.93588 0.0
C1923 C 0.57956 0.05127 0.91695 0.0
C1924 C 0.59205 0.0494 0.92456 0.0
C1925 C 0.59033 0.0362 0.95093 0.0
C1926 C 0.57612 0.02485 0.97002 0.0
C1927 C 0.49937 0.96111 0.85561 0.0
C1928 C 0.50066 0.94827 0.86565 0.0
C1929 C 0.50888 0.9746 0.88567 0.0
C1930 C 0.51988 0.97562 0.92706 0.0
C1931 C 0.52193 0.96314 0.93434 0.0
C1932 C 0.51238 0.94951 0.90364 0.0
C1933 C 0.52747 0.98907 0.96793 0.0
C1934 C 0.54227 1.00041 0.95516 0.0
C1935 C 0.51906 0.99173 0.01301 0.0
C1936 C 0.50322 0.98031 0.02683 0.0
C1937 C 0.49947 0.96583 0.04711 0.0
C1938 C 0.48442 0.95486 0.05619 0.0
C1939 C 0.47304 0.95828 0.04534 0.0
C1940 C 0.47668 0.97272 0.02634 0.0
C1941 C 0.49171 0.98372 0.0172 0.0
H1942 H 0.46139 0.94974 0.05156 0.0
H1943 H 0.60305 0.05818 0.90985 0.0
H1944 H 0.1423 0.19038 0.10982 0.0
H1945 H 0.15962 0.18233 0.07438 0.0
H1946 H 0.19053 0.2273 0.01182 0.0
H1947 H 0.17312 0.23567 0.04835 0.0
H1948 H 0.18563 0.20224 0.9263 0.0
H1949 H 0.20022 0.21876 0.13442 0.0
H1950 H 0.19603 0.22092 0.24555 0.0
H1951 H 0.17677 0.17322 0.26737 0.0
H1952 H 0.18058 0.17073 0.15609 0.0
H1953 H 0.23589 0.17254 0.88386 0.0
H1954 H 0.22744 0.19011 0.9168 0.0
H1955 H 0.19155 0.15462 0.02222 0.0
H1956 H 0.19984 0.13722 0.98967 0.0
H1957 H 0.20431 0.18073 0.086 0.0
H1958 H 0.18548 0.16369 0.87826 0.0
H1959 H 0.18804 0.16046 0.76649 0.0
H1960 H 0.21437 0.20834 0.74386 0.0
H1961 H 0.21214 0.21184 0.85581 0.0
C1962 C 0.15271 0.19865 0.08825 0.0
C1963 C 0.15632 0.21375 0.08247 0.0
C1964 C 0.16264 0.19398 0.06803 0.0
C1965 C 0.17644 0.20422 0.04103 0.0
C1966 C 0.17994 0.21921 0.03274 0.0
C1967 C 0.17 0.22398 0.05372 0.0
C1968 C 0.18718 0.19901 0.02404 0.0
C1969 C 0.19008 0.1979 0.96124 0.0
C1970 C 0.19277 0.19312 0.06953 0.0
C1971 C 0.19061 0.19456 0.13674 0.0
C1972 C 0.19499 0.20872 0.1628 0.0
C1973 C 0.19269 0.21 0.22584 0.0
C1974 C 0.18612 0.19721 0.26348 0.0
C1975 C 0.18186 0.18312 0.23815 0.0
C1976 C 0.1841 0.18177 0.17509 0.0
C1977 C 0.22636 0.1686 0.91486 0.0
C1978 C 0.21848 0.15347 0.93385 0.0
C1979 C 0.22147 0.17861 0.93333 0.0
C1980 C 0.20874 0.17367 0.97159 0.0
C1981 C 0.20137 0.15874 0.99271 0.0
C1982 C 0.20611 0.14877 0.97382 0.0
C1983 C 0.20247 0.18358 0.98811 0.0
C1984 C 0.20029 0.18547 0.05101 0.0
C1985 C 0.19749 0.19011 0.94266 0.0
C1986 C 0.19883 0.18802 0.87548 0.0
C1987 C 0.19193 0.17352 0.84954 0.0
C1988 C 0.1933 0.17164 0.78616 0.0
C1989 C 0.20141 0.18418 0.74813 0.0
C1990 C 0.20813 0.19864 0.77341 0.0
C1991 C 0.20682 0.20058 0.83681 0.0
H1992 H 0.20245 0.18271 0.69906 0.0
H1993 H 0.18435 0.19823 0.31228 0.0
H1994 H 0.82792 0.95724 0.14135 0.0
H1995 H 0.83753 0.98242 0.09953 0.0
H1996 H 0.7944 0.96872 0.01588 0.0
H1997 H 0.78481 0.94317 0.05602 0.0
H1998 H 0.81478 0.98498 0.93742 0.0
H1999 H 0.80772 0.99188 0.14941 0.0
H2000 H 0.80967 0.99048 0.26287 0.0
H2001 H 0.85773 0.01767 0.25146 0.0
H2002 H 0.85611 0.01902 0.1378 0.0
H2003 H 0.8525 0.07348 0.96268 0.0
H2004 H 0.83739 0.04837 0.00808 0.0
H2005 H 0.85645 0.0307 0.87756 0.0
H2006 H 0.87118 0.05551 0.83117 0.0
H2007 H 0.84417 0.03048 0.06644 0.0
H2008 H 0.83254 0.99479 0.84162 0.0
H2009 H 0.82797 0.99655 0.73047 0.0
H2010 H 0.81242 0.02741 0.7719 0.0
H2011 H 0.81669 0.02567 0.88334 0.0
C2012 C 0.8204 0.95954 0.11435 0.0
C2013 C 0.80553 0.94813 0.1024 0.0
C2014 C 0.82592 0.97405 0.09069 0.0
C2015 C 0.81666 0.97768 0.05536 0.0
C2016 C 0.80179 0.96629 0.04316 0.0
C2017 C 0.7963 0.95168 0.06632 0.0
C2018 C 0.82273 0.99319 0.02954 0.0
C2019 C 0.82114 0.9949 0.96582 0.0
C2020 C 0.83074 1.00628 0.06653 0.0
C2021 C 0.83179 1.00544 0.13494 0.0
C2022 C 0.81872 0.99746 0.17101 0.0
C2023 C 0.81977 0.99668 0.23539 0.0
C2024 C 0.83382 1.00395 0.26434 0.0
C2025 C 0.84686 0.01203 0.22897 0.0
C2026 C 0.84588 0.01281 0.16456 0.0
C2027 C 0.85337 0.06422 0.9433 0.0
C2028 C 0.86301 0.06655 0.89291 0.0
C2029 C 0.84475 0.04985 0.96948 0.0
C2030 C 0.84555 0.0375 0.9458 0.0
C2031 C 0.85529 0.03989 0.89591 0.0
C2032 C 0.86382 0.05417 0.86957 0.0
C2033 C 0.83664 0.02221 0.97409 0.0
C2034 C 0.8377 0.02055 0.03821 0.0
C2035 C 0.8278 0.00919 0.93781 0.0
C2036 C 0.82506 0.01019 0.87084 0.0
C2037 C 0.82808 1.0019 0.82706 0.0
C2038 C 0.82555 1.0029 0.76398 0.0
C2039 C 0.81995 0.01212 0.74412 0.0
C2040 C 0.81682 0.02031 0.78732 0.0
C2041 C 0.8193 0.01934 0.85044 0.0
H2042 H 0.81802 0.01289 0.69528 0.0
H2043 H 0.8346 1.00335 0.31419 0.0
H2044 H 0.9467 0.78023 0.91532 0.0
H2045 H 0.97211 0.79024 0.9575 0.0
H2046 H 0.98587 0.83275 0.86791 0.0
H2047 H 0.9608 0.82269 0.824 0.0
H2048 H 1.00743 0.82703 0.8571 0.0
H2049 H 0.97631 0.82555 0.02714 0.0
H2050 H 0.95477 0.81346 0.09894 0.0
H2051 H 0.97039 0.78419 0.16485 0.0
H2052 H 0.9919 0.79594 0.09266 0.0
H2053 H 0.06401 0.8787 0.06943 0.0
H2054 H 0.03949 0.86293 0.0208 0.0
H2055 H 0.04564 0.82448 0.03475 0.0
H2056 H 0.07057 0.84038 0.08191 0.0
H2057 H 0.01479 0.82535 0.0837 0.0
H2058 H 0.04721 0.82891 0.91192 0.0
H2059 H 0.06906 0.84322 0.84337 0.0
H2060 H 0.05086 0.87085 0.78443 0.0
H2061 H 0.02905 0.85689 0.85371 0.0
C2062 C 0.95518 0.79168 0.90433 0.0
C2063 C 0.95166 0.80065 0.86635 0.0
C2064 C 0.96971 0.79743 0.92876 0.0
C2065 C 0.98096 0.81237 0.91672 0.0
C2066 C 0.97748 0.82121 0.87794 0.0
C2067 C 0.96306 0.81543 0.85298 0.0
C2068 C 0.99626 0.81902 0.94517 0.0
C2069 C 1.00896 0.8266 0.90668 0.0
C2070 C 0.99843 0.81842 0.00989 0.0
C2071 C 0.98562 0.8115 0.05395 0.0
C2072 C 0.9751 0.81646 0.05665 0.0
C2073 C 0.9629 0.80968 0.09742 0.0
C2074 C 0.96119 0.79804 0.13627 0.0
C2075 C 0.97171 0.79319 0.13461 0.0
C2076 C 0.98391 0.7999 0.09377 0.0
C2077 C 0.0602 0.8669 0.0619 0.0
C2078 C 0.06923 0.86078 0.07942 0.0
C2079 C 0.04618 0.85792 0.03417 0.0
C2080 C 0.04075 0.84256 0.02438 0.0
C2081 C 0.04966 0.83633 0.04197 0.0
C2082 C 0.0639 0.84542 0.06852 0.0
C2083 C 0.02573 0.83323 0.99554 0.0
C2084 C 0.01314 0.82537 0.03403 0.0
C2085 C 0.02363 0.83372 0.93105 0.0
C2086 C 0.03659 0.84196 0.88855 0.0
C2087 C 0.04794 0.83814 0.88486 0.0
C2088 C 0.06031 0.84617 0.84577 0.0
C2089 C 0.06137 0.85796 0.80969 0.0
C2090 C 0.05004 0.86172 0.81248 0.0
C2091 C 0.03767 0.85375 0.85164 0.0
H2092 H 0.07095 0.86417 0.77946 0.0
H2093 H 0.95174 0.79279 0.16775 0.0
H2094 H 0.86209 0.79853 0.96897 0.0
H2095 H 0.85139 0.81476 0.98531 0.0
H2096 H 0.89346 0.85342 0.93337 0.0
H2097 H 0.90416 0.83716 0.91316 0.0
H2098 H 0.87525 0.85414 0.05309 0.0
H2099 H 0.873 0.84599 0.8304 0.0
H2100 H 0.86708 0.82993 0.73777 0.0
H2101 H 0.82077 0.80479 0.79331 0.0
H2102 H 0.82648 0.82055 0.88686 0.0
H2103 H 0.84141 0.90014 0.04601 0.0
H2104 H 0.85734 0.88946 0.02039 0.0
H2105 H 0.81789 0.8472 0.97543 0.0
H2106 H 0.80209 0.8581 0.99593 0.0
H2107 H 0.83771 0.8507 0.89927 0.0
H2108 H 0.83836 0.85558 0.12113 0.0
H2109 H 0.84251 0.86888 0.22073 0.0
H2110 H 0.88925 0.89708 0.17645 0.0
H2111 H 0.88533 0.88406 0.07617 0.0
C2112 C 0.86912 0.81045 0.96029 0.0
C2113 C 0.88398 0.8164 0.93845 0.0
C2114 C 0.86298 0.81974 0.97036 0.0
C2115 C 0.87159 0.83526 0.96015 0.0
C2116 C 0.88664 0.84145 0.94157 0.0
C2117 C 0.89275 0.83211 0.93036 0.0
C2118 C 0.86445 0.84474 0.96602 0.0
C2119 C 0.86726 0.85367 0.01897 0.0
C2120 C 0.85369 0.84372 0.92247 0.0
C2121 C 0.85021 0.83435 0.8659 0.0
C2122 C 0.86159 0.83695 0.82315 0.0
C2123 C 0.85826 0.82792 0.77043 0.0
C2124 C 0.84357 0.81632 0.75974 0.0
C2125 C 0.83215 0.81376 0.80168 0.0
C2126 C 0.83543 0.82275 0.85453 0.0
C2127 C 0.83612 0.88867 0.02944 0.0
C2128 C 0.82035 0.87997 0.02417 0.0
C2129 C 0.84527 0.88247 0.01568 0.0
C2130 C 0.83887 0.86733 0.99745 0.0
C2131 C 0.8232 0.85885 0.98986 0.0
C2132 C 0.81411 0.86509 0.00251 0.0
C2133 C 0.84828 0.86011 0.98712 0.0
C2134 C 0.84585 0.85147 0.93326 0.0
C2135 C 0.85914 0.86114 0.03069 0.0
C2136 C 0.86152 0.86898 0.09087 0.0
C2137 C 0.8495 0.8647 0.13245 0.0
C2138 C 0.85181 0.87217 0.18904 0.0
C2139 C 0.86612 0.88385 0.20482 0.0
C2140 C 0.87816 0.88805 0.1641 0.0
C2141 C 0.87591 0.88063 0.1074 0.0
H2142 H 0.86789 0.88962 0.24866 0.0
H2143 H 0.84101 0.80935 0.71889 0.0
H2144 H 0.18238 0.06227 0.85446 0.0
H2145 H 0.16824 0.03553 0.88341 0.0
H2146 H 0.20062 0.04353 0.02695 0.0
H2147 H 0.21458 0.07027 -0.00082 0.0
H2148 H 0.19301 0.01797 0.94142 0.0
H2149 H 0.16998 0.03903 0.07383 0.0
H2150 H 0.1569 0.05326 0.09357 0.0
H2151 H 0.12029 0.02281 0.97743 0.0
H2152 H 0.13327 0.00853 0.95625 0.0
H2153 H 0.16032 0.95028 0.10646 0.0
H2154 H 0.17214 0.97631 0.0746 0.0
H2155 H 0.13082 0.96811 0.98826 0.0
H2156 H 0.11832 0.94224 0.02579 0.0
H2157 H 0.1423 0.99374 0.03704 0.0
H2158 H 0.16342 0.97191 0.90502 0.0
H2159 H 0.17601 0.95759 0.87713 0.0
H2160 H 0.21526 0.98882 0.97876 0.0
H2161 H 0.20288 1.00322 0.00801 0.0
C2162 C 0.18642 0.05832 0.89237 0.0
C2163 C 0.19954 0.06838 0.92476 0.0
C2164 C 0.17833 0.04307 0.90891 0.0
C2165 C 0.18338 0.03754 0.95735 0.0
C2166 C 0.19652 0.04755 0.98946 0.0
C2167 C 0.20443 0.06283 0.97381 0.0
C2168 C 0.17512 0.0213 0.97416 0.0
C2169 C 0.18198 0.01266 0.96289 0.0
C2170 C 0.1605 0.01428 -6e-05 0.0
C2171 C 0.15268 0.02282 0.01288 0.0
C2172 C 0.15921 0.03546 0.05201 0.0
C2173 C 0.1518 0.04351 0.06357 0.0
C2174 C 0.13779 0.03897 0.03661 0.0
C2175 C 0.13115 0.02633 -0.00181 0.0
C2176 C 0.13853 0.01825 0.98642 0.0
C2177 C 0.1535 0.95393 0.08204 0.0
C2178 C 0.13818 0.94387 0.06943 0.0
C2179 C 0.16047 0.96891 0.06241 0.0
C2180 C 0.15257 0.97426 0.02738 0.0
C2181 C 0.13728 0.96433 0.01477 0.0
C2182 C 0.13016 0.94939 0.03575 0.0
C2183 C 0.16023 0.99023 0.00514 0.0
C2184 C 0.15327 0.99889 0.01518 0.0
C2185 C 0.17466 0.99721 0.97684 0.0
C2186 C 0.18216 0.98858 0.95911 0.0
C2187 C 0.1747 0.97568 0.92175 0.0
C2188 C 0.1818 0.96755 0.90566 0.0
C2189 C 0.1964 0.97228 0.92625 0.0
C2190 C 0.20395 0.98516 0.96288 0.0
C2191 C 0.1969 0.99332 0.97917 0.0
H2192 H 0.20187 0.96597 0.91374 0.0
H2193 H 0.13207 0.04522 0.04563 0.0
H2194 H 0.94648 0.15078 0.04472 0.0
H2195 H 0.9732 0.16256 0.06971 0.0
H2196 H 0.9778 0.13262 0.94319 0.0
H2197 H 0.95101 0.12082 0.91742 0.0
H2198 H 0.9941 0.13673 0.04924 0.0
H2199 H 0.98875 0.1682 0.89952 0.0
H2200 H 0.97818 0.18312 0.85565 0.0
H2201 H 0.99348 0.21223 0.01433 0.0
H2202 H 1.00396 0.19734 0.05962 0.0
H2203 H 0.07465 0.18088 0.0396 0.0
H2204 H 0.04795 0.16674 0.01198 0.0
H2205 H 0.03969 0.19662 0.12406 0.0
H2206 H 0.06632 0.21117 0.14945 0.0
H2207 H 0.02538 0.19186 0.01924 0.0
H2208 H 0.02993 0.15994 0.17093 0.0
H2209 H 0.04029 0.1449 0.21562 0.0
H2210 H 0.02652 0.11672 0.05407 0.0
H2211 H 0.01624 0.13172 0.00805 0.0
C2212 C 0.95314 0.14667 0.02206 0.0
C2213 C 0.94655 0.13493 0.97843 0.0
C2214 C 0.96845 0.15342 0.03652 0.0
C2215 C 0.97763 0.14868 0.00755 0.0
C2216 C 0.97099 0.13652 0.96605 0.0
C2217 C 0.95563 0.12974 0.95153 0.0
C2218 C 0.9942 0.15678 0.01921 0.0
C2219 C 1.00098 0.14875 0.04186 0.0
C2220 C 1.00321 0.17252 0.01053 0.0
C2221 C 0.99702 0.18157 0.98321 0.0
C2222 C 0.98977 0.17772 0.92528 0.0
C2223 C 0.9838 0.18618 0.90012 0.0
C2224 C 0.98513 0.19859 0.93225 0.0
C2225 C 0.99245 0.2026 0.98953 0.0
C2226 C 0.99842 0.19416 0.01495 0.0
C2227 C 0.06718 0.18451 0.05812 0.0
C2228 C 0.07274 0.19716 0.09731 0.0
C2229 C 0.05184 0.17629 0.04277 0.0
C2230 C 0.04166 0.18044 0.06653 0.0
C2231 C 0.04722 0.1931 0.10524 0.0
C2232 C 0.06251 0.20134 0.12037 0.0
C2233 C 0.02529 0.17189 0.05041 0.0
C2234 C 0.01854 0.17984 0.02659 0.0
C2235 C 0.01633 0.1561 0.05813 0.0
C2236 C 0.02247 0.14705 0.08578 0.0
C2237 C 0.02922 0.15061 0.14473 0.0
C2238 C 0.03506 0.14208 0.17034 0.0
C2239 C 0.0341 0.12989 0.13763 0.0
C2240 C 0.02727 0.12618 0.07931 0.0
C2241 C 0.02143 0.13468 0.05346 0.0
H2242 H 0.03863 0.1233 0.15754 0.0
H2243 H 0.9805 0.20513 0.91269 0.0
H2244 H 0.86189 0.46723 0.32048 0.0
H2245 H 0.85255 0.48398 0.34909 0.0
H2246 H 0.89035 0.52085 0.25769 0.0
H2247 H 0.90002 0.50397 0.22934 0.0
H2248 H 0.88266 0.52991 0.36675 0.0
H2249 H 0.85747 0.50372 0.18404 0.0
H2250 H 0.84373 0.48184 0.11523 0.0
H2251 H 0.80721 0.46201 0.24523 0.0
H2252 H 0.82084 0.48366 0.31534 0.0
H2253 H 0.8383 0.56791 0.37787 0.0
H2254 H 0.85354 0.55731 0.33834 0.0
H2255 H 0.82423 0.51543 0.43069 0.0
H2256 H 0.80921 0.52588 0.47085 0.0
H2257 H 0.82984 0.51219 0.30493 0.0
H2258 H 0.85706 0.53783 0.49152 0.0
H2259 H 0.87111 0.56005 0.55833 0.0
H2260 H 0.90405 0.58183 0.41498 0.0
H2261 H 0.89006 0.55978 0.34695 0.0
C2262 C 0.86834 0.47892 0.30671 0.0
C2263 C 0.88161 0.4842 0.2718 0.0
C2264 C 0.86294 0.4885 0.32307 0.0
C2265 C 0.87052 0.50361 0.30431 0.0
C2266 C 0.88423 0.5092 0.27227 0.0
C2267 C 0.88975 0.49956 0.25614 0.0
C2268 C 0.86352 0.51309 0.31628 0.0
C2269 C 0.87122 0.52621 0.35213 0.0
C2270 C 0.84856 0.5083 0.29739 0.0
C2271 C 0.84023 0.49529 0.25514 0.0
C2272 C 0.84655 0.49465 0.19816 0.0
C2273 C 0.83878 0.48229 0.1589 0.0
C2274 C 0.82461 0.47053 0.17589 0.0
C2275 C 0.81818 0.47112 0.23214 0.0
C2276 C 0.82592 0.48345 0.27163 0.0
C2277 C 0.83516 0.55647 0.38993 0.0
C2278 C 0.82253 0.54777 0.42769 0.0
C2279 C 0.84389 0.55044 0.36741 0.0
C2280 C 0.84003 0.53557 0.38163 0.0
C2281 C 0.82742 0.52691 0.41904 0.0
C2282 C 0.81886 0.53295 0.44215 0.0
C2283 C 0.84878 0.52869 0.35705 0.0
C2284 C 0.84137 0.51604 0.31861 0.0
C2285 C 0.86401 0.53403 0.37299 0.0
C2286 C 0.87242 0.54725 0.41388 0.0
C2287 C 0.86722 0.54741 0.47402 0.0
C2288 C 0.87519 0.55996 0.51216 0.0
C2289 C 0.88844 0.57237 0.49083 0.0
C2290 C 0.89377 0.57222 0.43138 0.0
C2291 C 0.88583 0.55971 0.39303 0.0
H2292 H 0.89459 0.58207 0.52044 0.0
H2293 H 0.81861 0.46097 0.14543 0.0
H2294 H 0.51088 0.40168 0.25279 0.0
H2295 H 0.49334 0.37593 0.28851 0.0
H2296 H 0.52549 0.36241 0.23788 0.0
H2297 H 0.5428 0.38771 0.20211 0.0
H2298 H 0.49745 0.34153 0.20182 0.0
H2299 H 0.52142 0.37072 0.39002 0.0
H2300 H 0.52736 0.39199 0.46003 0.0
H2301 H 0.48022 0.37584 0.4853 0.0
H2302 H 0.47404 0.35455 0.41532 0.0
H2303 H 0.49237 0.28293 0.37829 0.0
H2304 H 0.49906 0.30735 0.33516 0.0
H2305 H 0.45716 0.30254 0.39994 0.0
H2306 H 0.45022 0.27769 0.44365 0.0
H2307 H 0.48323 0.33176 0.42394 0.0
H2308 H 0.45945 0.2992 0.25428 0.0
H2309 H 0.45359 0.278 0.1842 0.0
H2310 H 0.49929 0.30039 0.12018 0.0
H2311 H 0.50552 0.32161 0.19077 0.0
C2312 C 0.51416 0.39318 0.24912 0.0
C2313 C 0.52831 0.39684 0.22479 0.0
C2314 C 0.50413 0.37847 0.26962 0.0
C2315 C 0.50809 0.36718 0.26605 0.0
C2316 C 0.5221 0.37083 0.2409 0.0
C2317 C 0.53207 0.38542 0.22078 0.0
C2318 C 0.49814 0.35163 0.29011 0.0
C2319 C 0.4943 0.3394 0.25032 0.0
C2320 C 0.49354 0.34875 0.35293 0.0
C2321 C 0.49728 0.36114 0.39719 0.0
C2322 C 0.51234 0.37172 0.41062 0.0
C2323 C 0.51575 0.38378 0.45028 0.0
C2324 C 0.50419 0.38529 0.4771 0.0
C2325 C 0.48918 0.37467 0.46468 0.0
C2326 C 0.48572 0.36259 0.4251 0.0
C2327 C 0.48449 0.28696 0.38356 0.0
C2328 C 0.47072 0.27829 0.41455 0.0
C2329 C 0.48835 0.30097 0.3586 0.0
C2330 C 0.4786 0.30678 0.36391 0.0
C2331 C 0.46486 0.29827 0.39524 0.0
C2332 C 0.46088 0.28406 0.41989 0.0
C2333 C 0.4831 0.32174 0.33605 0.0
C2334 C 0.48597 0.33384 0.37505 0.0
C2335 C 0.48674 0.32451 0.27228 0.0
C2336 C 0.48298 0.31198 0.2282 0.0
C2337 C 0.46828 0.29959 0.2255 0.0
C2338 C 0.46488 0.28756 0.18568 0.0
C2339 C 0.47607 0.28784 0.14793 0.0
C2340 C 0.49064 0.3002 0.14953 0.0
C2341 C 0.49411 0.31224 0.1894 0.0
H2342 H 0.47345 0.27847 0.11756 0.0
H2343 H 0.50686 0.39468 0.50743 0.0
H2344 H 0.73591 0.17274 0.43411 0.0
H2345 H 0.71041 0.15576 0.3947 0.0
H2346 H 0.70307 0.19344 0.37525 0.0
H2347 H 0.72806 0.21018 0.41569 0.0
H2348 H 0.67946 0.17113 0.42649 0.0
H2349 H 0.71221 0.17668 0.25507 0.0
H2350 H 0.73275 0.17447 0.20642 0.0
H2351 H 0.70752 0.12653 0.22782 0.0
H2352 H 0.68714 0.12848 0.27957 0.0
H2353 H 0.62423 0.15225 0.19514 0.0
H2354 H 0.64912 0.16197 0.24102 0.0
H2355 H 0.63665 0.11767 0.30759 0.0
H2356 H 0.61137 0.10781 0.26291 0.0
H2357 H 0.66902 0.139 0.24045 0.0
H2358 H 0.63653 0.1336 0.41267 0.0
H2359 H 0.61627 0.136 0.46304 0.0
H2360 H 0.64118 0.18382 0.43604 0.0
H2361 H 0.66148 0.18166 0.38449 0.0
C2362 C 0.72884 0.17736 0.42127 0.0
C2363 C 0.73404 0.19282 0.4284 0.0
C2364 C 0.71426 0.16766 0.39868 0.0
C2365 C 0.70474 0.17329 0.38182 0.0
C2366 C 0.71007 0.18874 0.38835 0.0
C2367 C 0.72446 0.19834 0.41138 0.0
C2368 C 0.68921 0.16339 0.35736 0.0
C2369 C 0.67726 0.16412 0.38581 0.0
C2370 C 0.68613 0.15391 0.30499 0.0
C2371 C 0.69821 0.15274 0.27201 0.0
C2372 C 0.71108 0.16567 0.24995 0.0
C2373 C 0.72271 0.16447 0.22182 0.0
C2374 C 0.72142 0.15038 0.21377 0.0
C2375 C 0.70852 0.13745 0.2341 0.0
C2376 C 0.69695 0.1386 0.26315 0.0
C2377 C 0.62674 0.14449 0.21905 0.0
C2378 C 0.61575 0.12923 0.22541 0.0
C2379 C 0.64102 0.15008 0.24515 0.0
C2380 C 0.64476 0.14054 0.27741 0.0
C2381 C 0.63401 0.1252 0.28248 0.0
C2382 C 0.61956 0.11961 0.25723 0.0
C2383 C 0.65957 0.14705 0.30919 0.0
C2384 C 0.6713 0.14578 0.28189 0.0
C2385 C 0.66254 0.15606 0.36258 0.0
C2386 C 0.65045 0.15745 0.39418 0.0
C2387 C 0.63762 0.14461 0.41694 0.0
C2388 C 0.62614 0.14593 0.44581 0.0
C2389 C 0.62742 0.16005 0.4526 0.0
C2390 C 0.6402 0.17289 0.43068 0.0
C2391 C 0.6517 0.17162 0.40168 0.0
H2392 H 0.61853 0.16106 0.47497 0.0
H2393 H 0.73042 0.14949 0.19181 0.0
H2394 H 0.52695 0.12568 0.34629 0.0
H2395 H 0.51584 0.14105 0.37309 0.0
H2396 H 0.55576 0.18064 0.30876 0.0
H2397 H 0.56666 0.16514 0.27841 0.0
H2398 H 0.52139 0.16224 0.44882 0.0
H2399 H 0.54679 0.20612 0.25141 0.0
H2400 H 0.55614 0.2081 0.14445 0.0
H2401 H 0.52797 0.16044 0.12078 0.0
H2402 H 0.51832 0.15821 0.22725 0.0
H2403 H 0.50224 0.2185 0.51041 0.0
H2404 H 0.51639 0.2058 0.48543 0.0
H2405 H 0.49084 0.18873 0.31671 0.0
H2406 H 0.47688 0.20162 0.34093 0.0
H2407 H 0.51842 0.19627 0.29334 0.0
H2408 H 0.48332 0.16681 0.4516 0.0
H2409 H 0.47065 0.16194 0.55304 0.0
H2410 H 0.5126 0.17576 0.64562 0.0
H2411 H 0.52556 0.1809 0.54466 0.0
C2412 C 0.53337 0.13763 0.33712 0.0
C2413 C 0.54765 0.14406 0.30903 0.0
C2414 C 0.52703 0.14647 0.35323 0.0
C2415 C 0.53479 0.16204 0.34216 0.0
C2416 C 0.54935 0.16863 0.31671 0.0
C2417 C 0.55567 0.15975 0.30003 0.0
C2418 C 0.52743 0.17115 0.35623 0.0
C2419 C 0.52085 0.16975 0.41482 0.0
C2420 C 0.52635 0.18076 0.31178 0.0
C2421 C 0.53198 0.18199 0.24752 0.0
C2422 C 0.54257 0.19608 0.22329 0.0
C2423 C 0.54792 0.19724 0.16277 0.0
C2424 C 0.54269 0.1844 0.12593 0.0
C2425 C 0.53205 0.17037 0.14944 0.0
C2426 C 0.52665 0.16915 0.20989 0.0
C2427 C 0.49964 0.21205 0.46794 0.0
C2428 C 0.48837 0.21106 0.42782 0.0
C2429 C 0.50774 0.20476 0.45371 0.0
C2430 C 0.50458 0.19606 0.39953 0.0
C2431 C 0.49356 0.19536 0.35872 0.0
C2432 C 0.48558 0.20277 0.37261 0.0
C2433 C 0.51245 0.1874 0.38599 0.0
C2434 C 0.51912 0.1889 0.32754 0.0
C2435 C 0.51319 0.1775 0.42987 0.0
C2436 C 0.50544 0.17439 0.49062 0.0
C2437 C 0.48986 0.16891 0.49361 0.0
C2438 C 0.48262 0.16609 0.55101 0.0
C2439 C 0.49082 0.16858 0.60575 0.0
C2440 C 0.50627 0.17386 0.60318 0.0
C2441 C 0.51357 0.17672 0.54589 0.0
H2442 H 0.4852 0.16639 0.65014 0.0
H2443 H 0.54686 0.18532 0.07911 0.0
H2444 H 0.79895 0.28374 0.48964 0.0
H2445 H 0.81123 0.31011 0.45625 0.0
H2446 H 0.82083 0.29766 0.27846 0.0
H2447 H 0.80832 0.27122 0.31126 0.0
H2448 H 0.84625 0.32274 0.34111 0.0
H2449 H 0.79501 0.30604 0.28037 0.0
H2450 H 0.76772 0.29436 0.29823 0.0
H2451 H 0.77561 0.32729 0.43785 0.0
H2452 H 0.80298 0.33904 0.42144 0.0
H2453 H 0.87527 0.39228 0.18901 0.0
H2454 H 0.86081 0.36586 0.21648 0.0
H2455 H 0.83998 0.37649 0.36666 0.0
H2456 H 0.85344 0.40289 0.33607 0.0
H2457 H 0.81995 0.35196 0.31914 0.0
H2458 H 0.87009 0.36856 0.38652 0.0
H2459 H 0.89765 0.38038 0.37795 0.0
H2460 H 0.89258 0.34818 0.23934 0.0
H2461 H 0.86497 0.33627 0.24649 0.0
C2462 C 0.80359 0.28663 0.44329 0.0
C2463 C 0.80263 0.27542 0.40298 0.0
C2464 C 0.81057 0.30168 0.42424 0.0
C2465 C 0.81693 0.30585 0.36484 0.0
C2466 C 0.81597 0.29468 0.32445 0.0
C2467 C 0.80875 0.27958 0.34308 0.0
C2468 C 0.82494 0.32192 0.34557 0.0
C2469 C 0.8405 0.3291 0.33538 0.0
C2470 C 0.8175 0.33034 0.34042 0.0
C2471 C 0.80105 0.32333 0.35011 0.0
C2472 C 0.79094 0.31071 0.31528 0.0
C2473 C 0.77545 0.30409 0.32506 0.0
C2474 C 0.76993 0.31005 0.36927 0.0
C2475 C 0.77989 0.32267 0.40367 0.0
C2476 C 0.79539 0.32932 0.39412 0.0
C2477 C 0.8674 0.38909 0.22709 0.0
C2478 C 0.86565 0.39996 0.26014 0.0
C2479 C 0.85929 0.37388 0.24357 0.0
C2480 C 0.84951 0.36909 0.29474 0.0
C2481 C 0.84752 0.37983 0.32727 0.0
C2482 C 0.85541 0.39503 0.31008 0.0
C2483 C 0.8414 0.35292 0.3142 0.0
C2484 C 0.8258 0.34568 0.32469 0.0
C2485 C 0.84886 0.34451 0.32099 0.0
C2486 C 0.86546 0.35162 0.31661 0.0
C2487 C 0.87485 0.36406 0.35389 0.0
C2488 C 0.89048 0.37077 0.34934 0.0
C2489 C 0.89686 0.36506 0.30801 0.0
C2490 C 0.88762 0.3526 0.27127 0.0
C2491 C 0.87198 0.34586 0.27559 0.0
H2492 H 0.90896 0.37026 0.30455 0.0
H2493 H 0.75794 0.30491 0.37676 0.0
H2494 H 0.73722 0.51281 0.38844 0.0
H2495 H 0.71033 0.4971 0.36602 0.0
H2496 H 0.71053 0.53456 0.2746 0.0
H2497 H 0.73736 0.5502 0.29561 0.0
H2498 H 0.68777 0.52137 0.3582 0.0
H2499 H 0.70789 0.50515 0.19237 0.0
H2500 H 0.7229 0.49476 0.14782 0.0
H2501 H 0.69703 0.45394 0.25096 0.0
H2502 H 0.682 0.46418 0.29679 0.0
H2503 H 0.6184 0.48925 0.20489 0.0
H2504 H 0.64498 0.50142 0.23102 0.0
H2505 H 0.63862 0.45987 0.308 0.0
H2506 H 0.6119 0.44734 0.27951 0.0
H2507 H 0.6641 0.47343 0.2408 0.0
H2508 H 0.64306 0.48865 0.40246 0.0
H2509 H 0.62799 0.49875 0.44894 0.0
H2510 H 0.65555 0.54107 0.35807 0.0
H2511 H 0.67066 0.53115 0.31029 0.0
C2512 C 0.73163 0.51764 0.36248 0.0
C2513 C 0.73952 0.53285 0.34432 0.0
C2514 C 0.7162 0.50864 0.34992 0.0
C2515 C 0.70834 0.51464 0.31876 0.0
C2516 C 0.71628 0.52969 0.2992 0.0
C2517 C 0.73166 0.53864 0.31147 0.0
C2518 C 0.69177 0.50554 0.30838 0.0
C2519 C 0.68263 0.51097 0.33195 0.0
C2520 C 0.68493 0.49167 0.27613 0.0
C2521 C 0.69394 0.4855 0.24854 0.0
C2522 C 0.70549 0.49401 0.20597 0.0
C2523 C 0.71398 0.48814 0.1804 0.0
C2524 C 0.71095 0.47371 0.1967 0.0
C2525 C 0.69939 0.46512 0.23847 0.0
C2526 C 0.69087 0.47095 0.26422 0.0
C2527 C 0.62261 0.48258 0.2267 0.0
C2528 C 0.61292 0.46723 0.23962 0.0
C2529 C 0.63785 0.48964 0.24237 0.0
C2530 C 0.64386 0.48166 0.27227 0.0
C2531 C 0.63428 0.46631 0.28515 0.0
C2532 C 0.61896 0.45919 0.26929 0.0
C2533 C 0.66014 0.48945 0.28946 0.0
C2534 C 0.66922 0.48377 0.26743 0.0
C2535 C 0.66694 0.50306 0.32358 0.0
C2536 C 0.65792 0.50911 0.3524 0.0
C2537 C 0.64584 0.50007 0.39202 0.0
C2538 C 0.6373 0.50578 0.41865 0.0
C2539 C 0.64079 0.52053 0.40636 0.0
C2540 C 0.65285 0.52964 0.36751 0.0
C2541 C 0.66142 0.52398 0.34069 0.0
H2542 H 0.63417 0.52493 0.42703 0.0
H2543 H 0.71754 0.46918 0.17684 0.0
H2544 H 0.53246 0.81357 0.46961 0.0
H2545 H 0.52307 0.82929 0.51169 0.0
H2546 H 0.56039 0.84937 0.63925 0.0
H2547 H 0.56977 0.83331 0.59789 0.0
H2548 H 0.53544 0.84306 0.69781 0.0
H2549 H 0.55813 0.86887 0.51188 0.0
H2550 H 0.5643 0.87274 0.40055 0.0
H2551 H 0.51811 0.85776 0.35719 0.0
H2552 H 0.51159 0.8535 0.46814 0.0
H2553 H 0.50783 0.89407 0.7789 0.0
H2554 H 0.5252 0.88591 0.73974 0.0
H2555 H 0.49026 0.85379 0.6201 0.0
H2556 H 0.47293 0.86157 0.65971 0.0
H2557 H 0.51881 0.87093 0.56152 0.0
H2558 H 0.49642 0.84218 0.74926 0.0
H2559 H 0.49098 0.83886 0.86127 0.0
H2560 H 0.53825 0.86091 0.90122 0.0
H2561 H 0.54399 0.86465 0.78938 0.0
C2562 C 0.53877 0.82136 0.50641 0.0
C2563 C 0.55193 0.82217 0.53013 0.0
C2564 C 0.53342 0.83046 0.53021 0.0
C2565 C 0.54113 0.84077 0.57801 0.0
C2566 C 0.55426 0.84159 0.60211 0.0
C2567 C 0.55964 0.83243 0.57829 0.0
C2568 C 0.53498 0.85009 0.60406 0.0
C2569 C 0.53214 0.84945 0.66807 0.0
C2570 C 0.53053 0.85839 0.56549 0.0
C2571 C 0.53435 0.86074 0.49847 0.0
C2572 C 0.54925 0.86624 0.4786 0.0
C2573 C 0.55281 0.86853 0.41553 0.0
C2574 C 0.5416 0.86546 0.37181 0.0
C2575 C 0.52679 0.8601 0.39109 0.0
C2576 C 0.52315 0.85776 0.45409 0.0
C2577 C 0.50395 0.88537 0.74385 0.0
C2578 C 0.48901 0.8784 0.72258 0.0
C2579 C 0.51384 0.88067 0.72177 0.0
C2580 C 0.50899 0.86917 0.67721 0.0
C2581 C 0.49425 0.86265 0.65448 0.0
C2582 C 0.48434 0.86709 0.67733 0.0
C2583 C 0.51893 0.86348 0.65456 0.0
C2584 C 0.52244 0.86481 0.5912 0.0
C2585 C 0.52411 0.85596 0.69375 0.0
C2586 C 0.52064 0.85394 0.76097 0.0
C2587 C 0.50567 0.84653 0.78192 0.0
C2588 C 0.50252 0.84453 0.8454 0.0
C2589 C 0.51426 0.84974 0.88836 0.0
C2590 C 0.52917 0.85694 0.86792 0.0
C2591 C 0.53237 0.85902 0.8045 0.0
H2592 H 0.5118 0.84814 0.93747 0.0
H2593 H 0.54438 0.86727 0.32301 0.0
H2594 H 0.17906 0.73629 0.57997 0.0
H2595 H 0.1622 0.7105 0.61682 0.0
H2596 H 0.19613 0.6988 0.57417 0.0
H2597 H 0.21272 0.72412 0.53683 0.0
H2598 H 0.17001 0.67737 0.53509 0.0
H2599 H 0.18904 0.70618 0.72387 0.0
H2600 H 0.19341 0.72602 0.79926 0.0
H2601 H 0.14578 0.70773 0.81853 0.0
H2602 H 0.14113 0.68788 0.74256 0.0
H2603 H 0.15944 0.61778 0.72805 0.0
H2604 H 0.16792 0.64237 0.68127 0.0
H2605 H 0.12393 0.63709 0.70838 0.0
H2606 H 0.11522 0.61214 0.75484 0.0
H2607 H 0.14982 0.66614 0.74938 0.0
H2608 H 0.13171 0.63447 0.57064 0.0
H2609 H 0.12891 0.61398 0.50228 0.0
H2610 H 0.17648 0.63759 0.46839 0.0
H2611 H 0.17962 0.6581 0.53748 0.0
C2612 C 0.18288 0.72819 0.57845 0.0
C2613 C 0.19726 0.73233 0.55529 0.0
C2614 C 0.17326 0.71346 0.59969 0.0
C2615 C 0.17787 0.70264 0.59843 0.0
C2616 C 0.19221 0.70683 0.57531 0.0
C2617 C 0.20175 0.72143 0.55414 0.0
C2618 C 0.16806 0.68693 0.62115 0.0
C2619 C 0.1656 0.67496 0.58197 0.0
C2620 C 0.16194 0.68364 0.68185 0.0
C2621 C 0.16474 0.69567 0.72692 0.0
C2622 C 0.1795 0.70648 0.74369 0.0
C2623 C 0.18203 0.71771 0.78662 0.0
C2624 C 0.16988 0.71816 0.81354 0.0
C2625 C 0.15518 0.70738 0.79754 0.0
C2626 C 0.15259 0.69615 0.75456 0.0
C2627 C 0.1515 0.62176 0.72374 0.0
C2628 C 0.13665 0.61299 0.7451 0.0
C2629 C 0.15637 0.63584 0.69694 0.0
C2630 C 0.14657 0.64158 0.69134 0.0
C2631 C 0.13168 0.63287 0.71235 0.0
C2632 C 0.1267 0.61859 0.73841 0.0
C2633 C 0.1522 0.65676 0.6638 0.0
C2634 C 0.1539 0.66858 0.70202 0.0
C2635 C 0.15779 0.65996 0.60246 0.0
C2636 C 0.15591 0.64781 0.55957 0.0
C2637 C 0.14159 0.63527 0.54891 0.0
C2638 C 0.13994 0.62364 0.51001 0.0
C2639 C 0.15251 0.62448 0.48107 0.0
C2640 C 0.16675 0.63696 0.49084 0.0
C2641 C 0.16847 0.6486 0.52981 0.0
H2642 H 0.15121 0.61547 0.451 0.0
H2643 H 0.17186 0.7268 0.84702 0.0
H2644 H 0.28082 0.44659 0.57497 0.0
H2645 H 0.30725 0.4557 0.60276 0.0
H2646 H 0.31354 0.49987 0.63682 0.0
H2647 H 0.28758 0.49105 0.60822 0.0
H2648 H 0.33591 0.50163 0.56735 0.0
H2649 H 0.30939 0.47414 0.75698 0.0
H2650 H 0.29012 0.4502 0.80346 0.0
H2651 H 0.31397 0.42841 0.73845 0.0
H2652 H 0.33329 0.45219 0.69119 0.0
H2653 H 0.39572 0.54419 0.76059 0.0
H2654 H 0.37101 0.52779 0.71711 0.0
H2655 H 0.38194 0.49264 0.69421 0.0
H2656 H 0.40714 0.50925 0.73832 0.0
H2657 H 0.35229 0.48202 0.74317 0.0
H2658 H 0.37951 0.50778 0.56377 0.0
H2659 H 0.39719 0.52885 0.49811 0.0
H2660 H 0.37222 0.55154 0.53018 0.0
H2661 H 0.35421 0.53042 0.59545 0.0
C2662 C 0.28785 0.45821 0.58878 0.0
C2663 C 0.28206 0.46808 0.58903 0.0
C2664 C 0.30295 0.46341 0.60474 0.0
C2665 C 0.31246 0.47851 0.62204 0.0
C2666 C 0.30655 0.48822 0.62325 0.0
C2667 C 0.29161 0.48311 0.60698 0.0
C2668 C 0.32865 0.48462 0.63816 0.0
C2669 C 0.33944 0.49735 0.606 0.0
C2670 C 0.33347 0.47867 0.68654 0.0
C2671 C 0.32269 0.46488 0.72019 0.0
C2672 C 0.31055 0.46426 0.75297 0.0
C2673 C 0.2996 0.45072 0.77924 0.0
C2674 C 0.30076 0.43778 0.77333 0.0
C2675 C 0.31306 0.43843 0.74265 0.0
C2676 C 0.32403 0.45194 0.71628 0.0
C2677 C 0.39301 0.533 0.74642 0.0
C2678 C 0.40353 0.5281 0.75303 0.0
C2679 C 0.3788 0.52361 0.72129 0.0
C2680 C 0.37459 0.50899 0.70189 0.0
C2681 C 0.38493 0.50388 0.70883 0.0
C2682 C 0.39934 0.51341 0.73376 0.0
C2683 C 0.35936 0.49946 0.67413 0.0
C2684 C 0.34878 0.48615 0.70399 0.0
C2685 C 0.35468 0.50467 0.6227 0.0
C2686 C 0.3656 0.51758 0.58479 0.0
C2687 C 0.37786 0.51732 0.55718 0.0
C2688 C 0.38791 0.52925 0.51986 0.0
C2689 C 0.38591 0.5416 0.51027 0.0
C2690 C 0.37377 0.54198 0.53771 0.0
C2691 C 0.36359 0.52999 0.57459 0.0
H2692 H 0.39374 0.55085 0.48142 0.0
H2693 H 0.29209 0.42722 0.79216 0.0
H2694 H 0.16851 0.55508 0.8377 0.0
H2695 H 0.18211 0.54197 0.80781 0.0
H2696 H 0.15341 0.52351 0.64803 0.0
H2697 H 0.14002 0.5368 0.67686 0.0
H2698 H 0.15708 0.50201 0.72725 0.0
H2699 H 0.18592 0.54939 0.61946 0.0
H2700 H 0.20082 0.57704 0.6132 0.0
H2701 H 0.23304 0.57728 0.74093 0.0
H2702 H 0.21819 0.54963 0.74866 0.0
H2703 H 0.1913 0.46832 0.56289 0.0
H2704 H 0.17998 0.48308 0.59427 0.0
H2705 H 0.21863 0.51097 0.70787 0.0
H2706 H 0.23076 0.49707 0.67206 0.0
H2707 H 0.21031 0.5281 0.65848 0.0
H2708 H 0.18312 0.4818 0.76774 0.0
H2709 H 0.16852 0.45431 0.78197 0.0
H2710 H 0.13363 0.45189 0.66429 0.0
H2711 H 0.14812 0.47936 0.64868 0.0
C2712 C 0.16518 0.54829 0.79604 0.0
C2713 C 0.15325 0.54703 0.75946 0.0
C2714 C 0.17296 0.54084 0.77897 0.0
C2715 C 0.16878 0.53177 0.72566 0.0
C2716 C 0.15683 0.53045 0.68928 0.0
C2717 C 0.14926 0.53813 0.70561 0.0
C2718 C 0.17663 0.52342 0.70827 0.0
C2719 C 0.16867 0.50767 0.71155 0.0
C2720 C 0.1919 0.53085 0.69 0.0
C2721 C 0.20085 0.54745 0.6852 0.0
C2722 C 0.1961 0.55535 0.64669 0.0
C2723 C 0.20455 0.57102 0.64277 0.0
C2724 C 0.21785 0.57892 0.67679 0.0
C2725 C 0.22273 0.57115 0.71468 0.0
C2726 C 0.21431 0.55548 0.71882 0.0
C2727 C 0.19765 0.47777 0.59351 0.0
C2728 C 0.21211 0.48141 0.61445 0.0
C2729 C 0.19095 0.48607 0.61255 0.0
C2730 C 0.19821 0.49799 0.65484 0.0
C2731 C 0.21267 0.50178 0.6756 0.0
C2732 C 0.21955 0.49365 0.65554 0.0
C2733 C 0.19073 0.50652 0.67668 0.0
C2734 C 0.19875 0.52233 0.67443 0.0
C2735 C 0.17555 0.49915 0.69718 0.0
C2736 C 0.16677 0.48263 0.70663 0.0
C2737 C 0.17238 0.47539 0.74457 0.0
C2738 C 0.16412 0.45982 0.75292 0.0
C2739 C 0.15018 0.45135 0.72394 0.0
C2740 C 0.14444 0.45846 0.68667 0.0
C2741 C 0.15267 0.47403 0.67811 0.0
H2742 H 0.1438 0.4393 0.73045 0.0
H2743 H 0.22438 0.59105 0.67368 0.0
H2744 H 0.4961 0.61716 0.73675 0.0
H2745 H 0.50714 0.64377 0.71216 0.0
H2746 H 0.46311 0.63724 0.67257 0.0
H2747 H 0.45183 0.61044 0.69842 0.0
H2748 H 0.48511 0.65626 0.58647 0.0
H2749 H 0.4788 0.65233 0.80717 0.0
H2750 H 0.48107 0.64412 0.91206 0.0
H2751 H 0.5292 0.66835 0.89587 0.0
H2752 H 0.5272 0.67654 0.79047 0.0
H2753 H 0.51507 0.73583 0.57491 0.0
H2754 H 0.49939 0.70925 0.60213 0.0
H2755 H 0.53823 0.70908 0.67748 0.0
H2756 H 0.5537 0.73571 0.65395 0.0
H2757 H 0.51591 0.69317 0.74851 0.0
H2758 H 0.52278 0.69505 0.52671 0.0
H2759 H 0.52135 0.70272 0.41969 0.0
H2760 H 0.47337 0.68212 0.43549 0.0
H2761 H 0.47455 0.67449 0.54294 0.0
C2762 C 0.48868 0.62133 0.72329 0.0
C2763 C 0.473 0.61162 0.72078 0.0
C2764 C 0.49506 0.63659 0.70893 0.0
C2765 C 0.48596 0.64261 0.69156 0.0
C2766 C 0.47036 0.63288 0.68617 0.0
C2767 C 0.46394 0.61754 0.7008 0.0
C2768 C 0.49285 0.65912 0.68085 0.0
C2769 C 0.49163 0.66435 0.62219 0.0
C2770 C 0.5016 0.66971 0.72703 0.0
C2771 C 0.50284 0.66496 0.79073 0.0
C2772 C 0.48986 0.65584 0.82582 0.0
C2773 C 0.4911 0.65119 0.88538 0.0
C2774 C 0.50527 0.65569 0.91057 0.0
C2775 C 0.51823 0.66487 0.87629 0.0
C2776 C 0.51705 0.66953 0.81666 0.0
C2777 C 0.52024 0.73022 0.59829 0.0
C2778 C 0.53576 0.73799 0.61141 0.0
C2779 C 0.51127 0.71491 0.6131 0.0
C2780 C 0.51763 0.70695 0.6407 0.0
C2781 C 0.53299 0.71483 0.6558 0.0
C2782 C 0.5419 0.73011 0.64164 0.0
C2783 C 0.50852 0.69041 0.65348 0.0
C2784 C 0.50929 0.68514 0.71276 0.0
C2785 C 0.4995 0.6798 0.60762 0.0
C2786 C 0.49877 0.68436 0.54306 0.0
C2787 C 0.51194 0.69225 0.5075 0.0
C2788 C 0.51117 0.69658 0.44676 0.0
C2789 C 0.49728 0.69295 0.42088 0.0
C2790 C 0.48412 0.68495 0.45564 0.0
C2791 C 0.48483 0.68062 0.51645 0.0
H2792 H 0.49671 0.6963 0.37384 0.0
H2793 H 0.50621 0.65208 0.95669 0.0
H2794 H 0.27577 0.80547 0.6824 0.0
H2795 H 0.30226 0.81759 0.71437 0.0
H2796 H 0.31435 0.80908 0.53374 0.0
H2797 H 0.28793 0.79725 0.5011 0.0
H2798 H 0.32791 0.80222 0.64344 0.0
H2799 H 0.3212 0.84161 0.55232 0.0
H2800 H 0.30871 0.85669 0.54139 0.0
H2801 H 0.31866 0.87055 0.73151 0.0
H2802 H 0.33101 0.85534 0.74383 0.0
H2803 H 0.40712 0.84929 0.65959 0.0
H2804 H 0.38078 0.83586 0.62888 0.0
H2805 H 0.37022 0.85762 0.77551 0.0
H2806 H 0.39667 0.87211 0.80288 0.0
H2807 H 0.35532 0.85716 0.68294 0.0
H2808 H 0.36181 0.81877 0.77865 0.0
H2809 H 0.37335 0.80303 0.79696 0.0
H2810 H 0.3629 0.78638 0.61043 0.0
H2811 H 0.35147 0.80217 0.59074 0.0
C2812 C 0.28407 0.80605 0.64978 0.0
C2813 C 0.2798 0.80042 0.58926 0.0
C2814 C 0.29918 0.81301 0.668 0.0
C2815 C 0.31028 0.81426 0.62638 0.0
C2816 C 0.30597 0.80822 0.56658 0.0
C2817 C 0.29091 0.80152 0.54795 0.0
C2818 C 0.32643 0.82237 0.64447 0.0
C2819 C 0.334 0.81426 0.65147 0.0
C2820 C 0.33421 0.83799 0.65664 0.0
C2821 C 0.32687 0.8472 0.64918 0.0
C2822 C 0.32059 0.84775 0.59196 0.0
C2823 C 0.31357 0.85635 0.58548 0.0
C2824 C 0.31285 0.86454 0.63577 0.0
C2825 C 0.3192 0.86418 0.69262 0.0
C2826 C 0.32622 0.85558 0.69936 0.0
C2827 C 0.39929 0.85142 0.68503 0.0
C2828 C 0.40426 0.86186 0.73416 0.0
C2829 C 0.38408 0.84347 0.66794 0.0
C2830 C 0.3733 0.84542 0.70049 0.0
C2831 C 0.3782 0.85579 0.7496 0.0
C2832 C 0.39343 0.86395 0.76591 0.0
C2833 C 0.35702 0.83704 0.68252 0.0
C2834 C 0.34935 0.8451 0.67531 0.0
C2835 C 0.34908 0.8213 0.67137 0.0
C2836 C 0.35592 0.81177 0.68305 0.0
C2837 C 0.36207 0.81184 0.7414 0.0
C2838 C 0.36858 0.80289 0.75204 0.0
C2839 C 0.36889 0.79374 0.70483 0.0
C2840 C 0.36266 0.79349 0.64692 0.0
C2841 C 0.35616 0.80242 0.63601 0.0
H2842 H 0.37393 0.78682 0.71317 0.0
H2843 H 0.30741 0.87119 0.63066 0.0
loop_
_geom_bond_atom_site_label_1
_geom_bond_atom_site_label_2
_geom_bond_distance
_geom_bond_site_symmetry_2
_ccdc_geom_bond_type
C0 C1 1.332 1_554 S
C0 N3 1.374 . S
C0 H5 0.942 . S
C1 C0 1.332 1_556 S
C1 N2 1.373 . S
C1 H29 0.930 . S
N2 C1 1.373 . S
N2 C4 1.340 . S
N3 C0 1.374 . S
N3 C4 1.321 1_554 S
N3 Co6 2.135 . S
C4 N2 1.340 . S
C4 N3 1.321 1_556 S
C4 H28 0.930 . S
H5 C0 0.942 . S
Co6 N3 2.135 . S
Co6 N9 2.121 . S
Co6 O14 2.055 . S
Co6 O17 2.039 . S
Co6 N20 2.140 . S
C7 O8 1.227 . S
C7 O17 1.265 . S
O8 C7 1.227 . S
N9 Co6 2.121 . S
N9 C11 1.375 . S
N9 C12 1.313 . S
C10 C11 1.338 . S
C10 N13 1.377 . S
C10 H30 0.930 . S
C11 N9 1.375 . S
C11 C10 1.338 . S
C11 H15 0.931 . S
C12 N9 1.313 . S
C12 N13 1.344 . S
C12 H16 0.930 . S
N13 C10 1.377 . S
N13 C12 1.344 . S
O14 Co6 2.055 . S
O14 C18 1.253 . S
H15 C11 0.931 . S
H16 C12 0.930 . S
O17 Co6 2.039 . S
O17 C7 1.265 . S
C18 O14 1.253 . S
C18 O19 1.227 . S
O19 C18 1.227 . S
N20 Co6 2.140 . S
N20 C23 1.346 . S
N20 C24 1.345 . S
C21 C22 1.387 . S
C21 C25 1.391 . S
C22 C21 1.387 . S
C22 C23 1.369 . S
C22 H31 0.929 . S
C23 N20 1.346 . S
C23 C22 1.369 . S
C23 H26 0.928 . S
C24 N20 1.345 . S
C24 C25 1.371 . S
C24 H27 0.931 . S
C25 C21 1.391 . S
C25 C24 1.371 . S
C25 H32 0.930 . S
H26 C23 0.928 . S
H27 C24 0.931 . S
H28 C4 0.930 . S
H29 C1 0.930 . S
H30 C10 0.930 . S
H31 C22 0.929 . S
H32 C25 0.930 . S
C33 C34 1.332 1_554 S
C33 N36 1.374 . S
C33 H38 0.942 . S
C34 C33 1.332 1_556 S
C34 N35 1.373 . S
C34 H62 0.930 . S
N35 C34 1.373 . S
N35 C37 1.340 . S
N36 C33 1.374 . S
N36 C37 1.321 1_554 S
N36 Co39 2.135 . S
C37 N35 1.340 . S
C37 N36 1.321 1_556 S
C37 H61 0.930 . S
H38 C33 0.942 . S
Co39 N36 2.135 . S
Co39 N42 2.121 . S
Co39 O47 2.055 . S
Co39 O50 2.039 . S
Co39 N53 2.140 . S
C40 O41 1.227 . S
C40 O50 1.265 . S
O41 C40 1.227 . S
N42 Co39 2.121 . S
N42 C44 1.375 . S
N42 C45 1.313 . S
C43 C44 1.338 . S
C43 N46 1.377 . S
C43 H63 0.930 . S
C44 N42 1.375 . S
C44 C43 1.338 . S
C44 H48 0.931 . S
C45 N42 1.313 . S
C45 N46 1.344 . S
C45 H49 0.930 . S
N46 C43 1.377 . S
N46 C45 1.344 . S
O47 Co39 2.055 . S
O47 C51 1.253 . S
H48 C44 0.931 . S
H49 C45 0.930 . S
O50 Co39 2.039 . S
O50 C40 1.265 . S
C51 O47 1.253 . S
C51 O52 1.227 . S
O52 C51 1.227 . S
N53 Co39 2.140 . S
N53 C56 1.346 . S
N53 C57 1.345 . S
C54 C55 1.387 . S
C54 C58 1.391 . S
C55 C54 1.387 . S
C55 C56 1.369 . S
C55 H64 0.929 . S
C56 N53 1.346 . S
C56 C55 1.369 . S
C56 H59 0.928 . S
C57 N53 1.345 . S
C57 C58 1.371 . S
C57 H60 0.931 . S
C58 C54 1.391 . S
C58 C57 1.371 . S
C58 H65 0.930 . S
H59 C56 0.928 . S
H60 C57 0.931 . S
H61 C37 0.930 . S
H62 C34 0.930 . S
H63 C43 0.930 . S
H64 C55 0.929 . S
H65 C58 0.930 . S
C66 C67 1.332 1_554 S
C66 N69 1.374 . S
C66 H71 0.942 . S
C67 C66 1.332 1_556 S
C67 N68 1.373 . S
C67 H95 0.930 . S
N68 C67 1.373 . S
N68 C70 1.340 . S
N69 C66 1.374 . S
N69 C70 1.321 1_554 S
N69 Co72 2.135 . S
C70 N68 1.340 . S
C70 N69 1.321 1_556 S
C70 H94 0.930 . S
H71 C66 0.942 . S
Co72 N69 2.135 . S
Co72 N75 2.121 . S
Co72 O80 2.055 . S
Co72 O83 2.039 . S
Co72 N86 2.140 . S
C73 O74 1.227 . S
C73 O83 1.265 . S
O74 C73 1.227 . S
N75 Co72 2.121 . S
N75 C77 1.375 . S
N75 C78 1.313 . S
C76 C77 1.338 . S
C76 N79 1.377 . S
C76 H96 0.930 . S
C77 N75 1.375 . S
C77 C76 1.338 . S
C77 H81 0.931 . S
C78 N75 1.313 . S
C78 N79 1.344 . S
C78 H82 0.930 . S
N79 C76 1.377 . S
N79 C78 1.344 . S
O80 Co72 2.055 . S
O80 C84 1.253 . S
H81 C77 0.931 . S
H82 C78 0.930 . S
O83 Co72 2.039 . S
O83 C73 1.265 . S
C84 O80 1.253 . S
C84 O85 1.227 . S
O85 C84 1.227 . S
N86 Co72 2.140 . S
N86 C89 1.346 . S
N86 C90 1.345 . S
C87 C88 1.387 . S
C87 C91 1.391 . S
C88 C87 1.387 . S
C88 C89 1.369 . S
C88 H97 0.929 . S
C89 N86 1.346 . S
C89 C88 1.369 . S
C89 H92 0.928 . S
C90 N86 1.345 . S
C90 C91 1.371 . S
C90 H93 0.931 . S
C91 C87 1.391 . S
C91 C90 1.371 . S
C91 H98 0.930 . S
H92 C89 0.928 . S
H93 C90 0.931 . S
H94 C70 0.930 . S
H95 C67 0.930 . S
H96 C76 0.930 . S
H97 C88 0.929 . S
H98 C91 0.930 . S
C99 C100 1.332 1_556 S
C99 N102 1.374 . S
C99 H104 0.942 . S
C100 C99 1.332 1_554 S
C100 N101 1.373 . S
C100 H128 0.930 . S
N101 C100 1.373 . S
N101 C103 1.340 . S
N102 C99 1.374 . S
N102 C103 1.321 1_556 S
N102 Co105 2.135 . S
C103 N101 1.340 . S
C103 N102 1.321 1_554 S
C103 H127 0.930 . S
H104 C99 0.942 . S
Co105 N102 2.135 . S
Co105 N108 2.121 . S
Co105 O113 2.055 . S
Co105 O116 2.039 . S
Co105 N119 2.140 . S
C106 O107 1.227 . S
C106 O116 1.265 . S
O107 C106 1.227 . S
N108 Co105 2.121 . S
N108 C110 1.375 . S
N108 C111 1.313 . S
C109 C110 1.338 . S
C109 N112 1.377 . S
C109 H129 0.930 . S
C110 N108 1.375 . S
C110 C109 1.338 . S
C110 H114 0.931 . S
C111 N108 1.313 . S
C111 N112 1.344 . S
C111 H115 0.930 . S
N112 C109 1.377 . S
N112 C111 1.344 . S
O113 Co105 2.055 . S
O113 C117 1.253 . S
H114 C110 0.931 . S
H115 C111 0.930 . S
O116 Co105 2.039 . S
O116 C106 1.265 . S
C117 O113 1.253 . S
C117 O118 1.227 . S
O118 C117 1.227 . S
N119 Co105 2.140 . S
N119 C122 1.346 . S
N119 C123 1.345 . S
C120 C121 1.387 . S
C120 C124 1.391 . S
C121 C120 1.387 . S
C121 C122 1.369 . S
C121 H130 0.929 . S
C122 N119 1.346 . S
C122 C121 1.369 . S
C122 H125 0.928 . S
C123 N119 1.345 . S
C123 C124 1.371 . S
C123 H126 0.931 . S
C124 C120 1.391 . S
C124 C123 1.371 . S
C124 H131 0.930 . S
H125 C122 0.928 . S
H126 C123 0.931 . S
H127 C103 0.930 . S
H128 C100 0.930 . S
H129 C109 0.930 . S
H130 C121 0.929 . S
H131 C124 0.930 . S
C132 C133 1.332 1_556 S
C132 N135 1.374 . S
C132 H137 0.942 . S
C133 C132 1.332 1_554 S
C133 N134 1.373 . S
C133 H161 0.930 . S
N134 C133 1.373 . S
N134 C136 1.340 . S
N135 C132 1.374 . S
N135 C136 1.321 1_556 S
N135 Co138 2.135 . S
C136 N134 1.340 . S
C136 N135 1.321 1_554 S
C136 H160 0.930 . S
H137 C132 0.942 . S
Co138 N135 2.135 . S
Co138 N141 2.121 . S
Co138 O146 2.055 . S
Co138 O149 2.039 . S
Co138 N152 2.140 . S
C139 O140 1.227 . S
C139 O149 1.265 . S
O140 C139 1.227 . S
N141 Co138 2.121 . S
N141 C143 1.375 . S
N141 C144 1.313 . S
C142 C143 1.338 . S
C142 N145 1.377 . S
C142 H162 0.930 . S
C143 N141 1.375 . S
C143 C142 1.338 . S
C143 H147 0.931 . S
C144 N141 1.313 . S
C144 N145 1.344 . S
C144 H148 0.930 . S
N145 C142 1.377 . S
N145 C144 1.344 . S
O146 Co138 2.055 . S
O146 C150 1.253 . S
H147 C143 0.931 . S
H148 C144 0.930 . S
O149 Co138 2.039 . S
O149 C139 1.265 . S
C150 O146 1.253 . S
C150 O151 1.227 . S
O151 C150 1.227 . S
N152 Co138 2.140 . S
N152 C155 1.346 . S
N152 C156 1.345 . S
C153 C154 1.387 . S
C153 C157 1.391 . S
C154 C153 1.387 . S
C154 C155 1.369 . S
C154 H163 0.929 . S
C155 N152 1.346 . S
C155 C154 1.369 . S
C155 H158 0.928 . S
C156 N152 1.345 . S
C156 C157 1.371 . S
C156 H159 0.931 . S
C157 C153 1.391 . S
C157 C156 1.371 . S
C157 H164 0.930 . S
H158 C155 0.928 . S
H159 C156 0.931 . S
H160 C136 0.930 . S
H161 C133 0.930 . S
H162 C142 0.930 . S
H163 C154 0.929 . S
H164 C157 0.930 . S
C165 C166 1.332 1_556 S
C165 N168 1.374 . S
C165 H170 0.942 . S
C166 C165 1.332 1_554 S
C166 N167 1.373 . S
C166 H194 0.930 . S
N167 C166 1.373 . S
N167 C169 1.340 . S
N168 C165 1.374 . S
N168 C169 1.321 1_556 S
N168 Co171 2.135 . S
C169 N167 1.340 . S
C169 N168 1.321 1_554 S
C169 H193 0.930 . S
H170 C165 0.942 . S
Co171 N168 2.135 . S
Co171 N174 2.121 . S
Co171 O179 2.055 . S
Co171 O182 2.039 . S
Co171 N185 2.140 . S
C172 O173 1.227 . S
C172 O182 1.265 . S
O173 C172 1.227 . S
N174 Co171 2.121 . S
N174 C176 1.375 . S
N174 C177 1.313 . S
C175 C176 1.338 . S
C175 N178 1.377 . S
C175 H195 0.930 . S
C176 N174 1.375 . S
C176 C175 1.338 . S
C176 H180 0.931 . S
C177 N174 1.313 . S
C177 N178 1.344 . S
C177 H181 0.930 . S
N178 C175 1.377 . S
N178 C177 1.344 . S
O179 Co171 2.055 . S
O179 C183 1.253 . S
H180 C176 0.931 . S
H181 C177 0.930 . S
O182 Co171 2.039 . S
O182 C172 1.265 . S
C183 O179 1.253 . S
C183 O184 1.227 . S
O184 C183 1.227 . S
N185 Co171 2.140 . S
N185 C188 1.346 . S
N185 C189 1.345 . S
C186 C187 1.387 . S
C186 C190 1.391 . S
C187 C186 1.387 . S
C187 C188 1.369 . S
C187 H196 0.929 . S
C188 N185 1.346 . S
C188 C187 1.369 . S
C188 H191 0.928 . S
C189 N185 1.345 . S
C189 C190 1.371 . S
C189 H192 0.931 . S
C190 C186 1.391 . S
C190 C189 1.371 . S
C190 H197 0.930 . S
H191 C188 0.928 . S
H192 C189 0.931 . S
H193 C169 0.930 . S
H194 C166 0.930 . S
H195 C175 0.930 . S
H196 C187 0.929 . S
H197 C190 0.930 . S
C198 C199 1.351 . S
C198 N201 1.368 . S
C198 H203 0.931 . S
C199 C198 1.351 . S
C199 N200 1.373 . S
C199 H227 0.930 . S
N200 C199 1.373 . S
N200 C202 1.340 . S
N201 C198 1.368 . S
N201 C202 1.321 . S
N201 Co204 2.135 . S
C202 N200 1.340 . S
C202 N201 1.321 . S
C202 H226 0.930 . S
H203 C198 0.931 . S
Co204 N201 2.135 . S
Co204 N207 2.121 . S
Co204 O212 2.055 . S
Co204 O215 2.039 . S
Co204 N218 2.140 . S
C205 O206 1.227 . S
C205 O215 1.265 . S
O206 C205 1.227 . S
N207 Co204 2.121 . S
N207 C209 1.375 . S
N207 C210 1.313 . S
C208 C209 1.338 . S
C208 N211 1.377 . S
C208 H228 0.930 . S
C209 N207 1.375 . S
C209 C208 1.338 . S
C209 H213 0.931 . S
C210 N207 1.313 . S
C210 N211 1.344 . S
C210 H214 0.930 . S
N211 C208 1.377 . S
N211 C210 1.344 . S
O212 Co204 2.055 . S
O212 C216 1.253 . S
H213 C209 0.931 . S
H214 C210 0.930 . S
O215 Co204 2.039 . S
O215 C205 1.265 . S
C216 O212 1.253 . S
C216 O217 1.227 . S
O217 C216 1.227 . S
N218 Co204 2.140 . S
N218 C221 1.346 . S
N218 C222 1.345 . S
C219 C220 1.387 . S
C219 C223 1.391 . S
C220 C219 1.387 . S
C220 C221 1.369 . S
C220 H229 0.929 . S
C221 N218 1.346 . S
C221 C220 1.369 . S
C221 H224 0.928 . S
C222 N218 1.345 . S
C222 C223 1.371 . S
C222 H225 0.931 . S
C223 C219 1.391 . S
C223 C222 1.371 . S
C223 H230 0.930 . S
H224 C221 0.928 . S
H225 C222 0.931 . S
H226 C202 0.930 . S
H227 C199 0.930 . S
H228 C208 0.930 . S
H229 C220 0.929 . S
H230 C223 0.930 . S
C231 C232 1.351 . S
C231 N234 1.368 . S
C231 H236 0.931 . S
C232 C231 1.351 . S
C232 N233 1.373 . S
C232 H260 0.930 . S
N233 C232 1.373 . S
N233 C235 1.340 . S
N234 C231 1.368 . S
N234 C235 1.321 . S
N234 Co237 2.135 . S
C235 N233 1.340 . S
C235 N234 1.321 . S
C235 H259 0.930 . S
H236 C231 0.931 . S
Co237 N234 2.135 . S
Co237 N240 2.121 . S
Co237 O245 2.055 . S
Co237 O248 2.039 . S
Co237 N251 2.140 . S
C238 O239 1.227 . S
C238 O248 1.265 . S
O239 C238 1.227 . S
N240 Co237 2.121 . S
N240 C242 1.375 . S
N240 C243 1.313 . S
C241 C242 1.338 . S
C241 N244 1.377 . S
C241 H261 0.930 . S
C242 N240 1.375 . S
C242 C241 1.338 . S
C242 H246 0.931 . S
C243 N240 1.313 . S
C243 N244 1.344 . S
C243 H247 0.930 . S
N244 C241 1.377 . S
N244 C243 1.344 . S
O245 Co237 2.055 . S
O245 C249 1.253 . S
H246 C242 0.931 . S
H247 C243 0.930 . S
O248 Co237 2.039 . S
O248 C238 1.265 . S
C249 O245 1.253 . S
C249 O250 1.227 . S
O250 C249 1.227 . S
N251 Co237 2.140 . S
N251 C254 1.346 . S
N251 C255 1.345 . S
C252 C253 1.387 . S
C252 C256 1.391 . S
C253 C252 1.387 . S
C253 C254 1.369 . S
C253 H262 0.929 . S
C254 N251 1.346 . S
C254 C253 1.369 . S
C254 H257 0.928 . S
C255 N251 1.345 . S
C255 C256 1.371 . S
C255 H258 0.931 . S
C256 C252 1.391 . S
C256 C255 1.371 . S
C256 H263 0.930 . S
H257 C254 0.928 . S
H258 C255 0.931 . S
H259 C235 0.930 . S
H260 C232 0.930 . S
H261 C241 0.930 . S
H262 C253 0.929 . S
H263 C256 0.930 . S
C264 C265 1.351 . S
C264 N267 1.368 . S
C264 H269 0.931 . S
C265 C264 1.351 . S
C265 N266 1.373 . S
C265 H293 0.930 . S
N266 C265 1.373 . S
N266 C268 1.340 . S
N267 C264 1.368 . S
N267 C268 1.321 . S
N267 Co270 2.135 . S
C268 N266 1.340 . S
C268 N267 1.321 . S
C268 H292 0.930 . S
H269 C264 0.931 . S
Co270 N267 2.135 . S
Co270 N273 2.121 . S
Co270 O278 2.055 . S
Co270 O281 2.039 . S
Co270 N284 2.140 . S
C271 O272 1.227 . S
C271 O281 1.265 . S
O272 C271 1.227 . S
N273 Co270 2.121 . S
N273 C275 1.375 . S
N273 C276 1.313 . S
C274 C275 1.338 . S
C274 N277 1.377 . S
C274 H294 0.930 . S
C275 N273 1.375 . S
C275 C274 1.338 . S
C275 H279 0.931 . S
C276 N273 1.313 . S
C276 N277 1.344 . S
C276 H280 0.930 . S
N277 C274 1.377 . S
N277 C276 1.344 . S
O278 Co270 2.055 . S
O278 C282 1.253 . S
H279 C275 0.931 . S
H280 C276 0.930 . S
O281 Co270 2.039 . S
O281 C271 1.265 . S
C282 O278 1.253 . S
C282 O283 1.227 . S
O283 C282 1.227 . S
N284 Co270 2.140 . S
N284 C287 1.346 . S
N284 C288 1.345 . S
C285 C286 1.387 . S
C285 C289 1.391 . S
C286 C285 1.387 . S
C286 C287 1.369 . S
C286 H295 0.929 . S
C287 N284 1.346 . S
C287 C286 1.369 . S
C287 H290 0.928 . S
C288 N284 1.345 . S
C288 C289 1.371 . S
C288 H291 0.931 . S
C289 C285 1.391 . S
C289 C288 1.371 . S
C289 H296 0.930 . S
H290 C287 0.928 . S
H291 C288 0.931 . S
H292 C268 0.930 . S
H293 C265 0.930 . S
H294 C274 0.930 . S
H295 C286 0.929 . S
H296 C289 0.930 . S
C297 C298 1.351 . S
C297 N300 1.368 . S
C297 H302 0.931 . S
C298 C297 1.351 . S
C298 N299 1.373 . S
C298 H326 0.930 . S
N299 C298 1.373 . S
N299 C301 1.340 . S
N300 C297 1.368 . S
N300 C301 1.321 . S
N300 Co303 2.135 . S
C301 N299 1.340 . S
C301 N300 1.321 . S
C301 H325 0.930 . S
H302 C297 0.931 . S
Co303 N300 2.135 . S
Co303 N306 2.121 . S
Co303 O311 2.055 . S
Co303 O314 2.039 . S
Co303 N317 2.140 . S
C304 O305 1.227 . S
C304 O314 1.265 . S
O305 C304 1.227 . S
N306 Co303 2.121 . S
N306 C308 1.375 . S
N306 C309 1.313 . S
C307 C308 1.338 . S
C307 N310 1.377 . S
C307 H327 0.930 . S
C308 N306 1.375 . S
C308 C307 1.338 . S
C308 H312 0.931 . S
C309 N306 1.313 . S
C309 N310 1.344 . S
C309 H313 0.930 . S
N310 C307 1.377 . S
N310 C309 1.344 . S
O311 Co303 2.055 . S
O311 C315 1.253 . S
H312 C308 0.931 . S
H313 C309 0.930 . S
O314 Co303 2.039 . S
O314 C304 1.265 . S
C315 O311 1.253 . S
C315 O316 1.227 . S
O316 C315 1.227 . S
N317 Co303 2.140 . S
N317 C320 1.346 . S
N317 C321 1.345 . S
C318 C319 1.387 . S
C318 C322 1.391 . S
C319 C318 1.387 . S
C319 C320 1.369 . S
C319 H328 0.929 . S
C320 N317 1.346 . S
C320 C319 1.369 . S
C320 H323 0.928 . S
C321 N317 1.345 . S
C321 C322 1.371 . S
C321 H324 0.931 . S
C322 C318 1.391 . S
C322 C321 1.371 . S
C322 H329 0.930 . S
H323 C320 0.928 . S
H324 C321 0.931 . S
H325 C301 0.930 . S
H326 C298 0.930 . S
H327 C307 0.930 . S
H328 C319 0.929 . S
H329 C322 0.930 . S
C330 C331 1.351 . S
C330 N333 1.368 . S
C330 H335 0.931 . S
C331 C330 1.351 . S
C331 N332 1.373 . S
C331 H359 0.930 . S
N332 C331 1.373 . S
N332 C334 1.340 . S
N333 C330 1.368 . S
N333 C334 1.321 . S
N333 Co336 2.135 . S
C334 N332 1.340 . S
C334 N333 1.321 . S
C334 H358 0.930 . S
H335 C330 0.931 . S
Co336 N333 2.135 . S
Co336 N339 2.121 . S
Co336 O344 2.055 . S
Co336 O347 2.039 . S
Co336 N350 2.140 . S
C337 O338 1.227 . S
C337 O347 1.265 . S
O338 C337 1.227 . S
N339 Co336 2.121 . S
N339 C341 1.375 . S
N339 C342 1.313 . S
C340 C341 1.338 . S
C340 N343 1.377 . S
C340 H360 0.930 . S
C341 N339 1.375 . S
C341 C340 1.338 . S
C341 H345 0.931 . S
C342 N339 1.313 . S
C342 N343 1.344 . S
C342 H346 0.930 . S
N343 C340 1.377 . S
N343 C342 1.344 . S
O344 Co336 2.055 . S
O344 C348 1.253 . S
H345 C341 0.931 . S
H346 C342 0.930 . S
O347 Co336 2.039 . S
O347 C337 1.265 . S
C348 O344 1.253 . S
C348 O349 1.227 . S
O349 C348 1.227 . S
N350 Co336 2.140 . S
N350 C353 1.346 . S
N350 C354 1.345 . S
C351 C352 1.387 . S
C351 C355 1.391 . S
C352 C351 1.387 . S
C352 C353 1.369 . S
C352 H361 0.929 . S
C353 N350 1.346 . S
C353 C352 1.369 . S
C353 H356 0.928 . S
C354 N350 1.345 . S
C354 C355 1.371 . S
C354 H357 0.931 . S
C355 C351 1.391 . S
C355 C354 1.371 . S
C355 H362 0.930 . S
H356 C353 0.928 . S
H357 C354 0.931 . S
H358 C334 0.930 . S
H359 C331 0.930 . S
H360 C340 0.930 . S
H361 C352 0.929 . S
H362 C355 0.930 . S
C363 C364 1.351 . S
C363 N366 1.368 . S
C363 H368 0.931 . S
C364 C363 1.351 . S
C364 N365 1.373 . S
C364 H392 0.930 . S
N365 C364 1.373 . S
N365 C367 1.340 . S
N366 C363 1.368 . S
N366 C367 1.321 . S
N366 Co369 2.135 . S
C367 N365 1.340 . S
C367 N366 1.321 . S
C367 H391 0.930 . S
H368 C363 0.931 . S
Co369 N366 2.135 . S
Co369 N372 2.121 . S
Co369 O377 2.055 . S
Co369 O380 2.039 . S
Co369 N383 2.140 . S
C370 O371 1.227 . S
C370 O380 1.265 . S
O371 C370 1.227 . S
N372 Co369 2.121 . S
N372 C374 1.375 . S
N372 C375 1.313 . S
C373 C374 1.338 . S
C373 N376 1.377 . S
C373 H393 0.930 . S
C374 N372 1.375 . S
C374 C373 1.338 . S
C374 H378 0.931 . S
C375 N372 1.313 . S
C375 N376 1.344 . S
C375 H379 0.930 . S
N376 C373 1.377 . S
N376 C375 1.344 . S
O377 Co369 2.055 . S
O377 C381 1.253 . S
H378 C374 0.931 . S
H379 C375 0.930 . S
O380 Co369 2.039 . S
O380 C370 1.265 . S
C381 O377 1.253 . S
C381 O382 1.227 . S
O382 C381 1.227 . S
N383 Co369 2.140 . S
N383 C386 1.346 . S
N383 C387 1.345 . S
C384 C385 1.387 . S
C384 C388 1.391 . S
C385 C384 1.387 . S
C385 C386 1.369 . S
C385 H394 0.929 . S
C386 N383 1.346 . S
C386 C385 1.369 . S
C386 H389 0.928 . S
C387 N383 1.345 . S
C387 C388 1.371 . S
C387 H390 0.931 . S
C388 C384 1.391 . S
C388 C387 1.371 . S
C388 H395 0.930 . S
H389 C386 0.928 . S
H390 C387 0.931 . S
H391 C367 0.930 . S
H392 C364 0.930 . S
H393 C373 0.930 . S
H394 C385 0.929 . S
H395 C388 0.930 . S
C396 C397 1.351 . S
C396 N399 1.368 . S
C396 H401 0.931 . S
C397 C396 1.351 . S
C397 N398 1.373 . S
C397 H425 0.930 . S
N398 C397 1.373 . S
N398 C400 1.340 . S
N399 C396 1.368 . S
N399 C400 1.321 . S
N399 Co402 2.135 . S
C400 N398 1.340 . S
C400 N399 1.321 . S
C400 H424 0.930 . S
H401 C396 0.931 . S
Co402 N399 2.135 . S
Co402 N405 2.121 . S
Co402 O410 2.055 . S
Co402 O413 2.039 . S
Co402 N416 2.140 . S
C403 O404 1.227 . S
C403 O413 1.265 . S
O404 C403 1.227 . S
N405 Co402 2.121 . S
N405 C407 1.375 . S
N405 C408 1.313 . S
C406 C407 1.338 . S
C406 N409 1.377 . S
C406 H426 0.930 . S
C407 N405 1.375 . S
C407 C406 1.338 . S
C407 H411 0.931 . S
C408 N405 1.313 . S
C408 N409 1.344 . S
C408 H412 0.930 . S
N409 C406 1.377 . S
N409 C408 1.344 . S
O410 Co402 2.055 . S
O410 C414 1.253 . S
H411 C407 0.931 . S
H412 C408 0.930 . S
O413 Co402 2.039 . S
O413 C403 1.265 . S
C414 O410 1.253 . S
C414 O415 1.227 . S
O415 C414 1.227 . S
N416 Co402 2.140 . S
N416 C419 1.346 . S
N416 C420 1.345 . S
C417 C418 1.387 . S
C417 C421 1.391 . S
C418 C417 1.387 . S
C418 C419 1.369 . S
C418 H427 0.929 . S
C419 N416 1.346 . S
C419 C418 1.369 . S
C419 H422 0.928 . S
C420 N416 1.345 . S
C420 C421 1.371 . S
C420 H423 0.931 . S
C421 C417 1.391 . S
C421 C420 1.371 . S
C421 H428 0.930 . S
H422 C419 0.928 . S
H423 C420 0.931 . S
H424 C400 0.930 . S
H425 C397 0.930 . S
H426 C406 0.930 . S
H427 C418 0.929 . S
H428 C421 0.930 . S
C429 C430 1.351 . S
C429 N432 1.368 . S
C429 H434 0.931 . S
C430 C429 1.351 . S
C430 N431 1.373 . S
C430 H458 0.930 . S
N431 C430 1.373 . S
N431 C433 1.340 . S
N432 C429 1.368 . S
N432 C433 1.321 . S
N432 Co435 2.135 . S
C433 N431 1.340 . S
C433 N432 1.321 . S
C433 H457 0.930 . S
H434 C429 0.931 . S
Co435 N432 2.135 . S
Co435 N438 2.121 . S
Co435 O443 2.055 . S
Co435 O446 2.039 . S
Co435 N449 2.140 . S
C436 O437 1.227 . S
C436 O446 1.265 . S
O437 C436 1.227 . S
N438 Co435 2.121 . S
N438 C440 1.375 . S
N438 C441 1.313 . S
C439 C440 1.338 . S
C439 N442 1.377 . S
C439 H459 0.930 . S
C440 N438 1.375 . S
C440 C439 1.338 . S
C440 H444 0.931 . S
C441 N438 1.313 . S
C441 N442 1.344 . S
C441 H445 0.930 . S
N442 C439 1.377 . S
N442 C441 1.344 . S
O443 Co435 2.055 . S
O443 C447 1.253 . S
H444 C440 0.931 . S
H445 C441 0.930 . S
O446 Co435 2.039 . S
O446 C436 1.265 . S
C447 O443 1.253 . S
C447 O448 1.227 . S
O448 C447 1.227 . S
N449 Co435 2.140 . S
N449 C452 1.346 . S
N449 C453 1.345 . S
C450 C451 1.387 . S
C450 C454 1.391 . S
C451 C450 1.387 . S
C451 C452 1.369 . S
C451 H460 0.929 . S
C452 N449 1.346 . S
C452 C451 1.369 . S
C452 H455 0.928 . S
C453 N449 1.345 . S
C453 C454 1.371 . S
C453 H456 0.931 . S
C454 C450 1.391 . S
C454 C453 1.371 . S
C454 H461 0.930 . S
H455 C452 0.928 . S
H456 C453 0.931 . S
H457 C433 0.930 . S
H458 C430 0.930 . S
H459 C439 0.930 . S
H460 C451 0.929 . S
H461 C454 0.930 . S
C462 C463 1.351 . S
C462 N465 1.368 . S
C462 H467 0.931 . S
C463 C462 1.351 . S
C463 N464 1.373 . S
C463 H491 0.930 . S
N464 C463 1.373 . S
N464 C466 1.340 . S
N465 C462 1.368 . S
N465 C466 1.321 . S
N465 Co468 2.135 . S
C466 N464 1.340 . S
C466 N465 1.321 . S
C466 H490 0.930 . S
H467 C462 0.931 . S
Co468 N465 2.135 . S
Co468 N471 2.121 . S
Co468 O476 2.055 . S
Co468 O479 2.039 . S
Co468 N482 2.140 . S
C469 O470 1.227 . S
C469 O479 1.265 . S
O470 C469 1.227 . S
N471 Co468 2.121 . S
N471 C473 1.375 . S
N471 C474 1.313 . S
C472 C473 1.338 . S
C472 N475 1.377 . S
C472 H492 0.930 . S
C473 N471 1.375 . S
C473 C472 1.338 . S
C473 H477 0.931 . S
C474 N471 1.313 . S
C474 N475 1.344 . S
C474 H478 0.930 . S
N475 C472 1.377 . S
N475 C474 1.344 . S
O476 Co468 2.055 . S
O476 C480 1.253 . S
H477 C473 0.931 . S
H478 C474 0.930 . S
O479 Co468 2.039 . S
O479 C469 1.265 . S
C480 O476 1.253 . S
C480 O481 1.227 . S
O481 C480 1.227 . S
N482 Co468 2.140 . S
N482 C485 1.346 . S
N482 C486 1.345 . S
C483 C484 1.387 . S
C483 C487 1.391 . S
C484 C483 1.387 . S
C484 C485 1.369 . S
C484 H493 0.929 . S
C485 N482 1.346 . S
C485 C484 1.369 . S
C485 H488 0.928 . S
C486 N482 1.345 . S
C486 C487 1.371 . S
C486 H489 0.931 . S
C487 C483 1.391 . S
C487 C486 1.371 . S
C487 H494 0.930 . S
H488 C485 0.928 . S
H489 C486 0.931 . S
H490 C466 0.930 . S
H491 C463 0.930 . S
H492 C472 0.930 . S
H493 C484 0.929 . S
H494 C487 0.930 . S
C495 C496 1.351 . S
C495 N498 1.368 . S
C495 H500 0.931 . S
C496 C495 1.351 . S
C496 N497 1.373 . S
C496 H524 0.930 . S
N497 C496 1.373 . S
N497 C499 1.340 . S
N498 C495 1.368 . S
N498 C499 1.321 . S
N498 Co501 2.135 . S
C499 N497 1.340 . S
C499 N498 1.321 . S
C499 H523 0.930 . S
H500 C495 0.931 . S
Co501 N498 2.135 . S
Co501 N504 2.121 . S
Co501 O509 2.055 . S
Co501 O512 2.039 . S
Co501 N515 2.140 . S
C502 O503 1.227 . S
C502 O512 1.265 . S
O503 C502 1.227 . S
N504 Co501 2.121 . S
N504 C506 1.375 . S
N504 C507 1.313 . S
C505 C506 1.338 . S
C505 N508 1.377 . S
C505 H525 0.930 . S
C506 N504 1.375 . S
C506 C505 1.338 . S
C506 H510 0.931 . S
C507 N504 1.313 . S
C507 N508 1.344 . S
C507 H511 0.930 . S
N508 C505 1.377 . S
N508 C507 1.344 . S
O509 Co501 2.055 . S
O509 C513 1.253 . S
H510 C506 0.931 . S
H511 C507 0.930 . S
O512 Co501 2.039 . S
O512 C502 1.265 . S
C513 O509 1.253 . S
C513 O514 1.227 . S
O514 C513 1.227 . S
N515 Co501 2.140 . S
N515 C518 1.346 . S
N515 C519 1.345 . S
C516 C517 1.387 . S
C516 C520 1.391 . S
C517 C516 1.387 . S
C517 C518 1.369 . S
C517 H526 0.929 . S
C518 N515 1.346 . S
C518 C517 1.369 . S
C518 H521 0.928 . S
C519 N515 1.345 . S
C519 C520 1.371 . S
C519 H522 0.931 . S
C520 C516 1.391 . S
C520 C519 1.371 . S
C520 H527 0.930 . S
H521 C518 0.928 . S
H522 C519 0.931 . S
H523 C499 0.930 . S
H524 C496 0.930 . S
H525 C505 0.930 . S
H526 C517 0.929 . S
H527 C520 0.930 . S
C528 C529 1.351 . S
C528 N531 1.368 . S
C528 H533 0.931 . S
C529 C528 1.351 . S
C529 N530 1.373 . S
C529 H557 0.930 . S
N530 C529 1.373 . S
N530 C532 1.340 . S
N531 C528 1.368 . S
N531 C532 1.321 . S
N531 Co534 2.135 . S
C532 N530 1.340 . S
C532 N531 1.321 . S
C532 H556 0.930 . S
H533 C528 0.931 . S
Co534 N531 2.135 . S
Co534 N537 2.121 . S
Co534 O542 2.055 . S
Co534 O545 2.039 . S
Co534 N548 2.140 . S
C535 O536 1.227 . S
C535 O545 1.265 . S
O536 C535 1.227 . S
N537 Co534 2.121 . S
N537 C539 1.375 . S
N537 C540 1.313 . S
C538 C539 1.338 . S
C538 N541 1.377 . S
C538 H558 0.930 . S
C539 N537 1.375 . S
C539 C538 1.338 . S
C539 H543 0.931 . S
C540 N537 1.313 . S
C540 N541 1.344 . S
C540 H544 0.930 . S
N541 C538 1.377 . S
N541 C540 1.344 . S
O542 Co534 2.055 . S
O542 C546 1.253 . S
H543 C539 0.931 . S
H544 C540 0.930 . S
O545 Co534 2.039 . S
O545 C535 1.265 . S
C546 O542 1.253 . S
C546 O547 1.227 . S
O547 C546 1.227 . S
N548 Co534 2.140 . S
N548 C551 1.346 . S
N548 C552 1.345 . S
C549 C550 1.387 . S
C549 C553 1.391 . S
C550 C549 1.387 . S
C550 C551 1.369 . S
C550 H559 0.929 . S
C551 N548 1.346 . S
C551 C550 1.369 . S
C551 H554 0.928 . S
C552 N548 1.345 . S
C552 C553 1.371 . S
C552 H555 0.931 . S
C553 C549 1.391 . S
C553 C552 1.371 . S
C553 H560 0.930 . S
H554 C551 0.928 . S
H555 C552 0.931 . S
H556 C532 0.930 . S
H557 C529 0.930 . S
H558 C538 0.930 . S
H559 C550 0.929 . S
H560 C553 0.930 . S
C561 C562 1.351 . S
C561 N564 1.368 . S
C561 H566 0.931 . S
C562 C561 1.351 . S
C562 N563 1.373 . S
C562 H590 0.930 . S
N563 C562 1.373 . S
N563 C565 1.340 . S
N564 C561 1.368 . S
N564 C565 1.321 . S
N564 Co567 2.135 . S
C565 N563 1.340 . S
C565 N564 1.321 . S
C565 H589 0.930 . S
H566 C561 0.931 . S
Co567 N564 2.135 . S
Co567 N570 2.121 . S
Co567 O575 2.055 . S
Co567 O578 2.039 . S
Co567 N581 2.140 . S
C568 O569 1.227 . S
C568 O578 1.265 . S
O569 C568 1.227 . S
N570 Co567 2.121 . S
N570 C572 1.375 . S
N570 C573 1.313 . S
C571 C572 1.338 . S
C571 N574 1.377 . S
C571 H591 0.930 . S
C572 N570 1.375 . S
C572 C571 1.338 . S
C572 H576 0.931 . S
C573 N570 1.313 . S
C573 N574 1.344 . S
C573 H577 0.930 . S
N574 C571 1.377 . S
N574 C573 1.344 . S
O575 Co567 2.055 . S
O575 C579 1.253 . S
H576 C572 0.931 . S
H577 C573 0.930 . S
O578 Co567 2.039 . S
O578 C568 1.265 . S
C579 O575 1.253 . S
C579 O580 1.227 . S
O580 C579 1.227 . S
N581 Co567 2.140 . S
N581 C584 1.346 . S
N581 C585 1.345 . S
C582 C583 1.387 . S
C582 C586 1.391 . S
C583 C582 1.387 . S
C583 C584 1.369 . S
C583 H592 0.929 . S
C584 N581 1.346 . S
C584 C583 1.369 . S
C584 H587 0.928 . S
C585 N581 1.345 . S
C585 C586 1.371 . S
C585 H588 0.931 . S
C586 C582 1.391 . S
C586 C585 1.371 . S
C586 H593 0.930 . S
H587 C584 0.928 . S
H588 C585 0.931 . S
H589 C565 0.930 . S
H590 C562 0.930 . S
H591 C571 0.930 . S
H592 C583 0.929 . S
H593 C586 0.930 . S
H594 C612 0.951 . S
H595 C614 0.951 . S
H596 C616 0.950 . S
H597 C617 0.950 . S
H598 C619 0.950 . S
H599 C622 0.950 . S
H600 C623 0.950 . S
H601 C625 0.950 . S
H602 C626 0.950 . S
H603 C627 0.951 . S
H604 C629 0.951 . S
H605 C631 0.950 . S
H606 C632 0.950 . S
H607 C634 0.950 . S
H608 C637 0.950 . S
H609 C638 0.950 . S
H610 C640 0.950 . S
H611 C641 0.950 . S
C612 H594 0.951 . S
C612 C613 1.366 . S
C612 C614 1.388 . S
C613 C612 1.366 . S
C613 C617 1.385 . S
C614 H595 0.951 . S
C614 C612 1.388 . S
C614 C615 1.366 . S
C615 C614 1.366 . S
C615 C616 1.414 . S
C615 C618 1.499 . S
C616 H596 0.950 . S
C616 C615 1.414 . S
C616 C617 1.374 . S
C617 H597 0.950 . S
C617 C613 1.385 . S
C617 C616 1.374 . S
C618 C615 1.499 . S
C618 C619 1.373 . S
C618 C620 1.389 . S
C619 H598 0.950 . S
C619 C618 1.373 . S
C619 C635 1.377 . S
C620 C618 1.389 . S
C620 C621 1.524 . S
C620 C634 1.377 . S
C621 C620 1.524 . S
C621 C622 1.397 . S
C621 C626 1.363 . S
C622 H599 0.950 . S
C622 C621 1.397 . S
C622 C623 1.334 . S
C623 H600 0.950 . S
C623 C622 1.334 . S
C623 C624 1.287 . S
C624 C623 1.287 . S
C624 C625 1.524 . S
C624 H643 0.913 . S
C625 H601 0.950 . S
C625 C624 1.524 . S
C625 C626 1.415 . S
C626 H602 0.950 . S
C626 C621 1.363 . S
C626 C625 1.415 . S
C627 H603 0.951 . S
C627 C628 1.366 . S
C627 C629 1.388 . S
C628 C627 1.366 . S
C628 C632 1.385 . S
C629 H604 0.951 . S
C629 C627 1.388 . S
C629 C630 1.366 . S
C630 C629 1.366 . S
C630 C631 1.414 . S
C630 C633 1.499 . S
C631 H605 0.950 . S
C631 C630 1.414 . S
C631 C632 1.374 . S
C632 H606 0.950 . S
C632 C628 1.385 . S
C632 C631 1.374 . S
C633 C630 1.499 . S
C633 C634 1.373 . S
C633 C635 1.389 . S
C634 H607 0.950 . S
C634 C620 1.377 . S
C634 C633 1.373 . S
C635 C619 1.377 . S
C635 C633 1.389 . S
C635 C636 1.524 . S
C636 C635 1.524 . S
C636 C637 1.397 . S
C636 C641 1.363 . S
C637 H608 0.950 . S
C637 C636 1.397 . S
C637 C638 1.334 . S
C638 H609 0.950 . S
C638 C637 1.334 . S
C638 C639 1.287 . S
C639 C638 1.287 . S
C639 C640 1.524 . S
C639 H642 0.999 . S
C640 H610 0.950 . S
C640 C639 1.524 . S
C640 C641 1.415 . S
C641 H611 0.950 . S
C641 C636 1.363 . S
C641 C640 1.415 . S
H642 C639 0.999 . S
H643 C624 0.913 . S
H644 C662 0.951 . S
H645 C664 0.951 . S
H646 C666 0.950 . S
H647 C667 0.950 . S
H648 C669 0.950 . S
H649 C672 0.950 . S
H650 C673 0.950 . S
H651 C675 0.950 . S
H652 C676 0.950 . S
H653 C677 0.951 . S
H654 C679 0.951 . S
H655 C681 0.950 . S
H656 C682 0.950 . S
H657 C684 0.950 . S
H658 C687 0.950 . S
H659 C688 0.950 . S
H660 C690 0.950 . S
H661 C691 0.950 . S
C662 H644 0.951 . S
C662 C663 1.366 . S
C662 C664 1.388 . S
C663 C662 1.366 . S
C663 C667 1.385 . S
C664 H645 0.951 . S
C664 C662 1.388 . S
C664 C665 1.366 . S
C665 C664 1.366 . S
C665 C666 1.414 . S
C665 C668 1.499 . S
C666 H646 0.950 . S
C666 C665 1.414 . S
C666 C667 1.374 . S
C667 H647 0.950 . S
C667 C663 1.385 . S
C667 C666 1.374 . S
C668 C665 1.499 . S
C668 C669 1.373 . S
C668 C670 1.389 . S
C669 H648 0.950 . S
C669 C668 1.373 . S
C669 C685 1.377 . S
C670 C668 1.389 . S
C670 C671 1.524 . S
C670 C684 1.377 . S
C671 C670 1.524 . S
C671 C672 1.397 . S
C671 C676 1.363 . S
C672 H649 0.950 . S
C672 C671 1.397 . S
C672 C673 1.334 . S
C673 H650 0.950 . S
C673 C672 1.334 . S
C673 C674 1.287 . S
C674 C673 1.287 . S
C674 C675 1.524 . S
C674 H693 0.913 . S
C675 H651 0.950 . S
C675 C674 1.524 . S
C675 C676 1.415 . S
C676 H652 0.950 . S
C676 C671 1.363 . S
C676 C675 1.415 . S
C677 H653 0.951 . S
C677 C678 1.366 . S
C677 C679 1.388 . S
C678 C677 1.366 . S
C678 C682 1.385 . S
C679 H654 0.951 . S
C679 C677 1.388 . S
C679 C680 1.366 . S
C680 C679 1.366 . S
C680 C681 1.414 . S
C680 C683 1.499 . S
C681 H655 0.950 . S
C681 C680 1.414 . S
C681 C682 1.374 . S
C682 H656 0.950 . S
C682 C678 1.385 . S
C682 C681 1.374 . S
C683 C680 1.499 . S
C683 C684 1.373 . S
C683 C685 1.389 . S
C684 H657 0.950 . S
C684 C670 1.377 . S
C684 C683 1.373 . S
C685 C669 1.377 . S
C685 C683 1.389 . S
C685 C686 1.524 . S
C686 C685 1.524 . S
C686 C687 1.397 . S
C686 C691 1.363 . S
C687 H658 0.950 . S
C687 C686 1.397 . S
C687 C688 1.334 . S
C688 H659 0.950 . S
C688 C687 1.334 . S
C688 C689 1.287 . S
C689 C688 1.287 . S
C689 C690 1.524 . S
C689 H692 0.999 . S
C690 H660 0.950 . S
C690 C689 1.524 . S
C690 C691 1.415 . S
C691 H661 0.950 . S
C691 C686 1.363 . S
C691 C690 1.415 . S
H692 C689 0.999 . S
H693 C674 0.913 . S
H694 C712 0.951 . S
H695 C714 0.951 . S
H696 C716 0.950 . S
H697 C717 0.950 . S
H698 C719 0.950 . S
H699 C722 0.950 . S
H700 C723 0.950 . S
H701 C725 0.950 . S
H702 C726 0.950 . S
H703 C727 0.951 . S
H704 C729 0.951 . S
H705 C731 0.950 . S
H706 C732 0.950 . S
H707 C734 0.950 . S
H708 C737 0.950 . S
H709 C738 0.950 . S
H710 C740 0.950 . S
H711 C741 0.950 . S
C712 H694 0.951 . S
C712 C713 1.366 . S
C712 C714 1.388 . S
C713 C712 1.366 . S
C713 C717 1.385 . S
C714 H695 0.951 . S
C714 C712 1.388 . S
C714 C715 1.366 . S
C715 C714 1.366 . S
C715 C716 1.414 . S
C715 C718 1.499 . S
C716 H696 0.950 . S
C716 C715 1.414 . S
C716 C717 1.374 . S
C717 H697 0.950 . S
C717 C713 1.385 . S
C717 C716 1.374 . S
C718 C715 1.499 . S
C718 C719 1.373 . S
C718 C720 1.389 . S
C719 H698 0.950 . S
C719 C718 1.373 . S
C719 C735 1.377 . S
C720 C718 1.389 . S
C720 C721 1.524 . S
C720 C734 1.377 . S
C721 C720 1.524 . S
C721 C722 1.397 . S
C721 C726 1.363 . S
C722 H699 0.950 . S
C722 C721 1.397 . S
C722 C723 1.334 . S
C723 H700 0.950 . S
C723 C722 1.334 . S
C723 C724 1.287 . S
C724 C723 1.287 . S
C724 C725 1.524 . S
C724 H743 0.913 . S
C725 H701 0.950 . S
C725 C724 1.524 . S
C725 C726 1.415 . S
C726 H702 0.950 . S
C726 C721 1.363 . S
C726 C725 1.415 . S
C727 H703 0.951 . S
C727 C728 1.366 . S
C727 C729 1.388 . S
C728 C727 1.366 . S
C728 C732 1.385 . S
C729 H704 0.951 . S
C729 C727 1.388 . S
C729 C730 1.366 . S
C730 C729 1.366 . S
C730 C731 1.414 . S
C730 C733 1.499 . S
C731 H705 0.950 . S
C731 C730 1.414 . S
C731 C732 1.374 . S
C732 H706 0.950 . S
C732 C728 1.385 . S
C732 C731 1.374 . S
C733 C730 1.499 . S
C733 C734 1.373 . S
C733 C735 1.389 . S
C734 H707 0.950 . S
C734 C720 1.377 . S
C734 C733 1.373 . S
C735 C719 1.377 . S
C735 C733 1.389 . S
C735 C736 1.524 . S
C736 C735 1.524 . S
C736 C737 1.397 . S
C736 C741 1.363 . S
C737 H708 0.950 . S
C737 C736 1.397 . S
C737 C738 1.334 . S
C738 H709 0.950 . S
C738 C737 1.334 . S
C738 C739 1.287 . S
C739 C738 1.287 . S
C739 C740 1.524 . S
C739 H742 0.999 . S
C740 H710 0.950 . S
C740 C739 1.524 . S
C740 C741 1.415 . S
C741 H711 0.950 . S
C741 C736 1.363 . S
C741 C740 1.415 . S
H742 C739 0.999 . S
H743 C724 0.913 . S
H744 C762 0.951 . S
H745 C764 0.951 . S
H746 C766 0.950 . S
H747 C767 0.950 . S
H748 C769 0.950 . S
H749 C772 0.950 . S
H750 C773 0.950 . S
H751 C775 0.950 . S
H752 C776 0.950 . S
H753 C777 0.951 . S
H754 C779 0.951 . S
H755 C781 0.950 . S
H756 C782 0.950 . S
H757 C784 0.950 . S
H758 C787 0.950 . S
H759 C788 0.950 . S
H760 C790 0.950 . S
H761 C791 0.950 . S
C762 H744 0.951 . S
C762 C763 1.366 . S
C762 C764 1.388 . S
C763 C762 1.366 . S
C763 C767 1.385 . S
C764 H745 0.951 . S
C764 C762 1.388 . S
C764 C765 1.366 . S
C765 C764 1.366 . S
C765 C766 1.414 . S
C765 C768 1.499 . S
C766 H746 0.950 . S
C766 C765 1.414 . S
C766 C767 1.374 . S
C767 H747 0.950 . S
C767 C763 1.385 . S
C767 C766 1.374 . S
C768 C765 1.499 . S
C768 C769 1.373 . S
C768 C770 1.389 . S
C769 H748 0.950 . S
C769 C768 1.373 . S
C769 C785 1.377 . S
C770 C768 1.389 . S
C770 C771 1.524 . S
C770 C784 1.377 . S
C771 C770 1.524 . S
C771 C772 1.397 . S
C771 C776 1.363 . S
C772 H749 0.950 . S
C772 C771 1.397 . S
C772 C773 1.334 . S
C773 H750 0.950 . S
C773 C772 1.334 . S
C773 C774 1.287 . S
C774 C773 1.287 . S
C774 C775 1.524 . S
C774 H793 0.913 . S
C775 H751 0.950 . S
C775 C774 1.524 . S
C775 C776 1.415 . S
C776 H752 0.950 . S
C776 C771 1.363 . S
C776 C775 1.415 . S
C777 H753 0.951 . S
C777 C778 1.366 . S
C777 C779 1.388 . S
C778 C777 1.366 . S
C778 C782 1.385 . S
C779 H754 0.951 . S
C779 C777 1.388 . S
C779 C780 1.366 . S
C780 C779 1.366 . S
C780 C781 1.414 . S
C780 C783 1.499 . S
C781 H755 0.950 . S
C781 C780 1.414 . S
C781 C782 1.374 . S
C782 H756 0.950 . S
C782 C778 1.385 . S
C782 C781 1.374 . S
C783 C780 1.499 . S
C783 C784 1.373 . S
C783 C785 1.389 . S
C784 H757 0.950 . S
C784 C770 1.377 . S
C784 C783 1.373 . S
C785 C769 1.377 . S
C785 C783 1.389 . S
C785 C786 1.524 . S
C786 C785 1.524 . S
C786 C787 1.397 . S
C786 C791 1.363 . S
C787 H758 0.950 . S
C787 C786 1.397 . S
C787 C788 1.334 . S
C788 H759 0.950 . S
C788 C787 1.334 . S
C788 C789 1.287 . S
C789 C788 1.287 . S
C789 C790 1.524 . S
C789 H792 0.999 . S
C790 H760 0.950 . S
C790 C789 1.524 . S
C790 C791 1.415 . S
C791 H761 0.950 . S
C791 C786 1.363 . S
C791 C790 1.415 . S
H792 C789 0.999 . S
H793 C774 0.913 . S
H794 C812 0.951 . S
H795 C814 0.951 . S
H796 C816 0.950 . S
H797 C817 0.950 . S
H798 C819 0.950 . S
H799 C822 0.950 . S
H800 C823 0.950 . S
H801 C825 0.950 . S
H802 C826 0.950 . S
H803 C827 0.951 . S
H804 C829 0.951 . S
H805 C831 0.950 . S
H806 C832 0.950 . S
H807 C834 0.950 . S
H808 C837 0.950 . S
H809 C838 0.950 . S
H810 C840 0.950 . S
H811 C841 0.950 . S
C812 H794 0.951 . S
C812 C813 1.366 . S
C812 C814 1.388 . S
C813 C812 1.366 . S
C813 C817 1.385 . S
C814 H795 0.951 . S
C814 C812 1.388 . S
C814 C815 1.366 . S
C815 C814 1.366 . S
C815 C816 1.414 . S
C815 C818 1.499 . S
C816 H796 0.950 . S
C816 C815 1.414 . S
C816 C817 1.374 . S
C817 H797 0.950 . S
C817 C813 1.385 . S
C817 C816 1.374 . S
C818 C815 1.499 . S
C818 C819 1.373 . S
C818 C820 1.389 . S
C819 H798 0.950 . S
C819 C818 1.373 . S
C819 C835 1.377 . S
C820 C818 1.389 . S
C820 C821 1.524 . S
C820 C834 1.377 . S
C821 C820 1.524 . S
C821 C822 1.397 . S
C821 C826 1.363 . S
C822 H799 0.950 . S
C822 C821 1.397 . S
C822 C823 1.334 . S
C823 H800 0.950 . S
C823 C822 1.334 . S
C823 C824 1.287 . S
C824 C823 1.287 . S
C824 C825 1.524 . S
C824 H843 0.913 . S
C825 H801 0.950 . S
C825 C824 1.524 . S
C825 C826 1.415 . S
C826 H802 0.950 . S
C826 C821 1.363 . S
C826 C825 1.415 . S
C827 H803 0.951 . S
C827 C828 1.366 . S
C827 C829 1.388 . S
C828 C827 1.366 . S
C828 C832 1.385 . S
C829 H804 0.951 . S
C829 C827 1.388 . S
C829 C830 1.366 . S
C830 C829 1.366 . S
C830 C831 1.414 . S
C830 C833 1.499 . S
C831 H805 0.950 . S
C831 C830 1.414 . S
C831 C832 1.374 . S
C832 H806 0.950 . S
C832 C828 1.385 . S
C832 C831 1.374 . S
C833 C830 1.499 . S
C833 C834 1.373 . S
C833 C835 1.389 . S
C834 H807 0.950 . S
C834 C820 1.377 . S
C834 C833 1.373 . S
C835 C819 1.377 . S
C835 C833 1.389 . S
C835 C836 1.524 . S
C836 C835 1.524 . S
C836 C837 1.397 . S
C836 C841 1.363 . S
C837 H808 0.950 . S
C837 C836 1.397 . S
C837 C838 1.334 . S
C838 H809 0.950 . S
C838 C837 1.334 . S
C838 C839 1.287 . S
C839 C838 1.287 . S
C839 C840 1.524 . S
C839 H842 0.999 . S
C840 H810 0.950 . S
C840 C839 1.524 . S
C840 C841 1.415 . S
C841 H811 0.950 . S
C841 C836 1.363 . S
C841 C840 1.415 . S
H842 C839 0.999 . S
H843 C824 0.913 . S
H844 C862 0.951 . S
H845 C864 0.951 . S
H846 C866 0.950 . S
H847 C867 0.950 . S
H848 C869 0.950 . S
H849 C872 0.950 . S
H850 C873 0.950 . S
H851 C875 0.950 . S
H852 C876 0.950 . S
H853 C877 0.951 . S
H854 C879 0.951 . S
H855 C881 0.950 . S
H856 C882 0.950 . S
H857 C884 0.950 . S
H858 C887 0.950 . S
H859 C888 0.950 . S
H860 C890 0.950 . S
H861 C891 0.950 . S
C862 H844 0.951 . S
C862 C863 1.366 . S
C862 C864 1.388 . S
C863 C862 1.366 . S
C863 C867 1.385 . S
C864 H845 0.951 . S
C864 C862 1.388 . S
C864 C865 1.366 . S
C865 C864 1.366 . S
C865 C866 1.414 . S
C865 C868 1.499 . S
C866 H846 0.950 . S
C866 C865 1.414 . S
C866 C867 1.374 . S
C867 H847 0.950 . S
C867 C863 1.385 . S
C867 C866 1.374 . S
C868 C865 1.499 . S
C868 C869 1.373 . S
C868 C870 1.389 . S
C869 H848 0.950 . S
C869 C868 1.373 . S
C869 C885 1.377 . S
C870 C868 1.389 . S
C870 C871 1.524 . S
C870 C884 1.377 . S
C871 C870 1.524 . S
C871 C872 1.397 . S
C871 C876 1.363 . S
C872 H849 0.950 . S
C872 C871 1.397 . S
C872 C873 1.334 . S
C873 H850 0.950 . S
C873 C872 1.334 . S
C873 C874 1.287 . S
C874 C873 1.287 . S
C874 C875 1.524 . S
C874 H893 0.913 . S
C875 H851 0.950 . S
C875 C874 1.524 . S
C875 C876 1.415 . S
C876 H852 0.950 . S
C876 C871 1.363 . S
C876 C875 1.415 . S
C877 H853 0.951 . S
C877 C878 1.366 . S
C877 C879 1.388 . S
C878 C877 1.366 . S
C878 C882 1.385 . S
C879 H854 0.951 . S
C879 C877 1.388 . S
C879 C880 1.366 . S
C880 C879 1.366 . S
C880 C881 1.414 . S
C880 C883 1.499 . S
C881 H855 0.950 . S
C881 C880 1.414 . S
C881 C882 1.374 . S
C882 H856 0.950 . S
C882 C878 1.385 . S
C882 C881 1.374 . S
C883 C880 1.499 . S
C883 C884 1.373 . S
C883 C885 1.389 . S
C884 H857 0.950 . S
C884 C870 1.377 . S
C884 C883 1.373 . S
C885 C869 1.377 . S
C885 C883 1.389 . S
C885 C886 1.524 . S
C886 C885 1.524 . S
C886 C887 1.397 . S
C886 C891 1.363 . S
C887 H858 0.950 . S
C887 C886 1.397 . S
C887 C888 1.334 . S
C888 H859 0.950 . S
C888 C887 1.334 . S
C888 C889 1.287 . S
C889 C888 1.287 . S
C889 C890 1.524 . S
C889 H892 0.999 . S
C890 H860 0.950 . S
C890 C889 1.524 . S
C890 C891 1.415 . S
C891 H861 0.950 . S
C891 C886 1.363 . S
C891 C890 1.415 . S
H892 C889 0.999 . S
H893 C874 0.913 . S
H894 C912 0.951 . S
H895 C914 0.951 . S
H896 C916 0.950 . S
H897 C917 0.950 . S
H898 C919 0.950 1_554 S
H899 C922 0.950 . S
H900 C923 0.950 . S
H901 C925 0.950 . S
H902 C926 0.950 . S
H903 C927 0.951 . S
H904 C929 0.951 . S
H905 C931 0.950 . S
H906 C932 0.950 . S
H907 C934 0.950 . S
H908 C937 0.950 . S
H909 C938 0.950 . S
H910 C940 0.950 . S
H911 C941 0.950 . S
C912 H894 0.951 . S
C912 C913 1.366 . S
C912 C914 1.388 . S
C913 C912 1.366 . S
C913 C917 1.385 . S
C914 H895 0.951 . S
C914 C912 1.388 . S
C914 C915 1.366 . S
C915 C914 1.366 . S
C915 C916 1.414 . S
C915 C918 1.499 . S
C916 H896 0.950 . S
C916 C915 1.414 . S
C916 C917 1.374 . S
C917 H897 0.950 . S
C917 C913 1.385 . S
C917 C916 1.374 . S
C918 C915 1.499 . S
C918 C919 1.373 1_554 S
C918 C920 1.389 1_554 S
C919 H898 0.950 1_556 S
C919 C918 1.373 1_556 S
C919 C935 1.377 . S
C920 C918 1.389 1_556 S
C920 C921 1.524 . S
C920 C934 1.377 . S
C921 C920 1.524 . S
C921 C922 1.397 1_556 S
C921 C926 1.363 . S
C922 H899 0.950 . S
C922 C921 1.397 1_554 S
C922 C923 1.334 . S
C923 H900 0.950 . S
C923 C922 1.334 . S
C923 C924 1.287 . S
C924 C923 1.287 . S
C924 C925 1.524 1_554 S
C924 H943 0.913 . S
C925 H901 0.950 . S
C925 C924 1.524 1_556 S
C925 C926 1.415 . S
C926 H902 0.950 . S
C926 C921 1.363 . S
C926 C925 1.415 . S
C927 H903 0.951 . S
C927 C928 1.366 . S
C927 C929 1.388 . S
C928 C927 1.366 . S
C928 C932 1.385 . S
C929 H904 0.951 . S
C929 C927 1.388 . S
C929 C930 1.366 . S
C930 C929 1.366 . S
C930 C931 1.414 . S
C930 C933 1.499 . S
C931 H905 0.950 . S
C931 C930 1.414 . S
C931 C932 1.374 . S
C932 H906 0.950 . S
C932 C928 1.385 . S
C932 C931 1.374 . S
C933 C930 1.499 . S
C933 C934 1.373 . S
C933 C935 1.389 . S
C934 H907 0.950 . S
C934 C920 1.377 . S
C934 C933 1.373 . S
C935 C919 1.377 . S
C935 C933 1.389 . S
C935 C936 1.524 . S
C936 C935 1.524 . S
C936 C937 1.397 . S
C936 C941 1.363 . S
C937 H908 0.950 . S
C937 C936 1.397 . S
C937 C938 1.334 . S
C938 H909 0.950 . S
C938 C937 1.334 . S
C938 C939 1.287 . S
C939 C938 1.287 . S
C939 C940 1.524 . S
C939 H942 0.999 . S
C940 H910 0.950 . S
C940 C939 1.524 . S
C940 C941 1.415 . S
C941 H911 0.950 . S
C941 C936 1.363 . S
C941 C940 1.415 . S
H942 C939 0.999 . S
H943 C924 0.913 . S
H944 C962 0.951 . S
H945 C964 0.951 . S
H946 C966 0.950 . S
H947 C967 0.950 . S
H948 C969 0.950 1_554 S
H949 C972 0.950 . S
H950 C973 0.950 . S
H951 C975 0.950 . S
H952 C976 0.950 . S
H953 C977 0.951 . S
H954 C979 0.951 . S
H955 C981 0.950 . S
H956 C982 0.950 . S
H957 C984 0.950 . S
H958 C987 0.950 . S
H959 C988 0.950 . S
H960 C990 0.950 . S
H961 C991 0.950 . S
C962 H944 0.951 . S
C962 C963 1.366 . S
C962 C964 1.388 . S
C963 C962 1.366 . S
C963 C967 1.385 . S
C964 H945 0.951 . S
C964 C962 1.388 . S
C964 C965 1.366 . S
C965 C964 1.366 . S
C965 C966 1.414 . S
C965 C968 1.499 . S
C966 H946 0.950 . S
C966 C965 1.414 . S
C966 C967 1.374 . S
C967 H947 0.950 . S
C967 C963 1.385 . S
C967 C966 1.374 . S
C968 C965 1.499 . S
C968 C969 1.373 1_554 S
C968 C970 1.389 1_554 S
C969 H948 0.950 1_556 S
C969 C968 1.373 1_556 S
C969 C985 1.377 . S
C970 C968 1.389 1_556 S
C970 C971 1.524 . S
C970 C984 1.377 . S
C971 C970 1.524 . S
C971 C972 1.397 1_556 S
C971 C976 1.363 . S
C972 H949 0.950 . S
C972 C971 1.397 1_554 S
C972 C973 1.334 . S
C973 H950 0.950 . S
C973 C972 1.334 . S
C973 C974 1.287 . S
C974 C973 1.287 . S
C974 C975 1.524 1_554 S
C974 H993 0.913 . S
C975 H951 0.950 . S
C975 C974 1.524 1_556 S
C975 C976 1.415 . S
C976 H952 0.950 . S
C976 C971 1.363 . S
C976 C975 1.415 . S
C977 H953 0.951 . S
C977 C978 1.366 . S
C977 C979 1.388 . S
C978 C977 1.366 . S
C978 C982 1.385 . S
C979 H954 0.951 . S
C979 C977 1.388 . S
C979 C980 1.366 . S
C980 C979 1.366 . S
C980 C981 1.414 . S
C980 C983 1.499 . S
C981 H955 0.950 . S
C981 C980 1.414 . S
C981 C982 1.374 . S
C982 H956 0.950 . S
C982 C978 1.385 . S
C982 C981 1.374 . S
C983 C980 1.499 . S
C983 C984 1.373 . S
C983 C985 1.389 . S
C984 H957 0.950 . S
C984 C970 1.377 . S
C984 C983 1.373 . S
C985 C969 1.377 . S
C985 C983 1.389 . S
C985 C986 1.524 . S
C986 C985 1.524 . S
C986 C987 1.397 . S
C986 C991 1.363 . S
C987 H958 0.950 . S
C987 C986 1.397 . S
C987 C988 1.334 . S
C988 H959 0.950 . S
C988 C987 1.334 . S
C988 C989 1.287 . S
C989 C988 1.287 . S
C989 C990 1.524 . S
C989 H992 0.999 . S
C990 H960 0.950 . S
C990 C989 1.524 . S
C990 C991 1.415 . S
C991 H961 0.950 . S
C991 C986 1.363 . S
C991 C990 1.415 . S
H992 C989 0.999 . S
H993 C974 0.913 . S
H994 C1012 0.951 . S
H995 C1014 0.951 . S
H996 C1016 0.950 . S
H997 C1017 0.950 . S
H998 C1019 0.950 . S
H999 C1022 0.950 . S
H1000 C1023 0.950 . S
H1001 C1025 0.950 . S
H1002 C1026 0.950 . S
H1003 C1027 0.951 . S
H1004 C1029 0.951 . S
H1005 C1031 0.950 . S
H1006 C1032 0.950 . S
H1007 C1034 0.950 . S
H1008 C1037 0.950 . S
H1009 C1038 0.950 . S
H1010 C1040 0.950 . S
H1011 C1041 0.950 . S
C1012 H994 0.951 . S
C1012 C1013 1.366 . S
C1012 C1014 1.388 . S
C1013 C1012 1.366 . S
C1013 C1017 1.385 . S
C1014 H995 0.951 . S
C1014 C1012 1.388 . S
C1014 C1015 1.366 . S
C1015 C1014 1.366 . S
C1015 C1016 1.414 . S
C1015 C1018 1.499 . S
C1016 H996 0.950 . S
C1016 C1015 1.414 . S
C1016 C1017 1.374 . S
C1017 H997 0.950 . S
C1017 C1013 1.385 . S
C1017 C1016 1.374 . S
C1018 C1015 1.499 . S
C1018 C1019 1.373 . S
C1018 C1020 1.389 . S
C1019 H998 0.950 . S
C1019 C1018 1.373 . S
C1019 C1035 1.377 . S
C1020 C1018 1.389 . S
C1020 C1021 1.524 . S
C1020 C1034 1.377 . S
C1021 C1020 1.524 . S
C1021 C1022 1.397 . S
C1021 C1026 1.363 . S
C1022 H999 0.950 . S
C1022 C1021 1.397 . S
C1022 C1023 1.334 . S
C1023 H1000 0.950 . S
C1023 C1022 1.334 . S
C1023 C1024 1.287 . S
C1024 C1023 1.287 . S
C1024 C1025 1.524 . S
C1024 H1043 0.913 . S
C1025 H1001 0.950 . S
C1025 C1024 1.524 . S
C1025 C1026 1.415 . S
C1026 H1002 0.950 . S
C1026 C1021 1.363 . S
C1026 C1025 1.415 . S
C1027 H1003 0.951 . S
C1027 C1028 1.366 . S
C1027 C1029 1.388 . S
C1028 C1027 1.366 . S
C1028 C1032 1.385 . S
C1029 H1004 0.951 . S
C1029 C1027 1.388 . S
C1029 C1030 1.366 . S
C1030 C1029 1.366 . S
C1030 C1031 1.414 . S
C1030 C1033 1.499 . S
C1031 H1005 0.950 . S
C1031 C1030 1.414 . S
C1031 C1032 1.374 . S
C1032 H1006 0.950 . S
C1032 C1028 1.385 . S
C1032 C1031 1.374 . S
C1033 C1030 1.499 . S
C1033 C1034 1.373 1_554 S
C1033 C1035 1.389 1_554 S
C1034 H1007 0.950 . S
C1034 C1020 1.377 . S
C1034 C1033 1.373 1_556 S
C1035 C1019 1.377 . S
C1035 C1033 1.389 1_556 S
C1035 C1036 1.524 1_556 S
C1036 C1035 1.524 1_554 S
C1036 C1037 1.397 . S
C1036 C1041 1.363 1_554 S
C1037 H1008 0.950 . S
C1037 C1036 1.397 . S
C1037 C1038 1.334 . S
C1038 H1009 0.950 . S
C1038 C1037 1.334 . S
C1038 C1039 1.287 . S
C1039 C1038 1.287 . S
C1039 C1040 1.524 . S
C1039 H1042 0.999 . S
C1040 H1010 0.950 . S
C1040 C1039 1.524 . S
C1040 C1041 1.415 1_554 S
C1041 H1011 0.950 . S
C1041 C1036 1.363 1_556 S
C1041 C1040 1.415 1_556 S
H1042 C1039 0.999 . S
H1043 C1024 0.913 . S
H1044 C1062 0.951 . S
H1045 C1064 0.951 . S
H1046 C1066 0.950 . S
H1047 C1067 0.950 . S
H1048 C1069 0.950 . S
H1049 C1072 0.950 . S
H1050 C1073 0.950 . S
H1051 C1075 0.950 . S
H1052 C1076 0.950 . S
H1053 C1077 0.951 . S
H1054 C1079 0.951 . S
H1055 C1081 0.950 . S
H1056 C1082 0.950 . S
H1057 C1084 0.950 . S
H1058 C1087 0.950 . S
H1059 C1088 0.950 . S
H1060 C1090 0.950 . S
H1061 C1091 0.950 . S
C1062 H1044 0.951 . S
C1062 C1063 1.366 . S
C1062 C1064 1.388 . S
C1063 C1062 1.366 . S
C1063 C1067 1.385 . S
C1064 H1045 0.951 . S
C1064 C1062 1.388 . S
C1064 C1065 1.366 . S
C1065 C1064 1.366 . S
C1065 C1066 1.414 . S
C1065 C1068 1.499 . S
C1066 H1046 0.950 . S
C1066 C1065 1.414 . S
C1066 C1067 1.374 . S
C1067 H1047 0.950 . S
C1067 C1063 1.385 . S
C1067 C1066 1.374 . S
C1068 C1065 1.499 . S
C1068 C1069 1.373 . S
C1068 C1070 1.389 . S
C1069 H1048 0.950 . S
C1069 C1068 1.373 . S
C1069 C1085 1.377 . S
C1070 C1068 1.389 . S
C1070 C1071 1.524 . S
C1070 C1084 1.377 . S
C1071 C1070 1.524 . S
C1071 C1072 1.397 . S
C1071 C1076 1.363 . S
C1072 H1049 0.950 . S
C1072 C1071 1.397 . S
C1072 C1073 1.334 . S
C1073 H1050 0.950 . S
C1073 C1072 1.334 . S
C1073 C1074 1.287 . S
C1074 C1073 1.287 . S
C1074 C1075 1.524 . S
C1074 H1093 0.913 . S
C1075 H1051 0.950 . S
C1075 C1074 1.524 . S
C1075 C1076 1.415 . S
C1076 H1052 0.950 . S
C1076 C1071 1.363 . S
C1076 C1075 1.415 . S
C1077 H1053 0.951 . S
C1077 C1078 1.366 . S
C1077 C1079 1.388 . S
C1078 C1077 1.366 . S
C1078 C1082 1.385 . S
C1079 H1054 0.951 . S
C1079 C1077 1.388 . S
C1079 C1080 1.366 . S
C1080 C1079 1.366 . S
C1080 C1081 1.414 . S
C1080 C1083 1.499 . S
C1081 H1055 0.950 . S
C1081 C1080 1.414 . S
C1081 C1082 1.374 . S
C1082 H1056 0.950 . S
C1082 C1078 1.385 . S
C1082 C1081 1.374 . S
C1083 C1080 1.499 . S
C1083 C1084 1.373 . S
C1083 C1085 1.389 . S
C1084 H1057 0.950 . S
C1084 C1070 1.377 . S
C1084 C1083 1.373 . S
C1085 C1069 1.377 . S
C1085 C1083 1.389 . S
C1085 C1086 1.524 . S
C1086 C1085 1.524 . S
C1086 C1087 1.397 . S
C1086 C1091 1.363 . S
C1087 H1058 0.950 . S
C1087 C1086 1.397 . S
C1087 C1088 1.334 . S
C1088 H1059 0.950 . S
C1088 C1087 1.334 . S
C1088 C1089 1.287 . S
C1089 C1088 1.287 . S
C1089 C1090 1.524 . S
C1089 H1092 0.999 . S
C1090 H1060 0.950 . S
C1090 C1089 1.524 . S
C1090 C1091 1.415 . S
C1091 H1061 0.950 . S
C1091 C1086 1.363 . S
C1091 C1090 1.415 . S
H1092 C1089 0.999 . S
H1093 C1074 0.913 . S
H1094 C1112 0.951 . S
H1095 C1114 0.951 . S
H1096 C1116 0.950 . S
H1097 C1117 0.950 . S
H1098 C1119 0.950 . S
H1099 C1122 0.950 . S
H1100 C1123 0.950 . S
H1101 C1125 0.950 . S
H1102 C1126 0.950 . S
H1103 C1127 0.951 . S
H1104 C1129 0.951 . S
H1105 C1131 0.950 . S
H1106 C1132 0.950 . S
H1107 C1134 0.950 . S
H1108 C1137 0.950 . S
H1109 C1138 0.950 . S
H1110 C1140 0.950 . S
H1111 C1141 0.950 . S
C1112 H1094 0.951 . S
C1112 C1113 1.366 . S
C1112 C1114 1.388 . S
C1113 C1112 1.366 . S
C1113 C1117 1.385 . S
C1114 H1095 0.951 . S
C1114 C1112 1.388 . S
C1114 C1115 1.366 . S
C1115 C1114 1.366 . S
C1115 C1116 1.414 . S
C1115 C1118 1.499 . S
C1116 H1096 0.950 . S
C1116 C1115 1.414 . S
C1116 C1117 1.374 . S
C1117 H1097 0.950 . S
C1117 C1113 1.385 . S
C1117 C1116 1.374 . S
C1118 C1115 1.499 . S
C1118 C1119 1.373 . S
C1118 C1120 1.389 . S
C1119 H1098 0.950 . S
C1119 C1118 1.373 . S
C1119 C1135 1.377 . S
C1120 C1118 1.389 . S
C1120 C1121 1.524 . S
C1120 C1134 1.377 . S
C1121 C1120 1.524 . S
C1121 C1122 1.397 . S
C1121 C1126 1.363 . S
C1122 H1099 0.950 . S
C1122 C1121 1.397 . S
C1122 C1123 1.334 . S
C1123 H1100 0.950 . S
C1123 C1122 1.334 . S
C1123 C1124 1.287 . S
C1124 C1123 1.287 . S
C1124 C1125 1.524 . S
C1124 H1143 0.913 . S
C1125 H1101 0.950 . S
C1125 C1124 1.524 . S
C1125 C1126 1.415 . S
C1126 H1102 0.950 . S
C1126 C1121 1.363 . S
C1126 C1125 1.415 . S
C1127 H1103 0.951 . S
C1127 C1128 1.366 . S
C1127 C1129 1.388 . S
C1128 C1127 1.366 . S
C1128 C1132 1.385 . S
C1129 H1104 0.951 . S
C1129 C1127 1.388 . S
C1129 C1130 1.366 . S
C1130 C1129 1.366 . S
C1130 C1131 1.414 . S
C1130 C1133 1.499 . S
C1131 H1105 0.950 . S
C1131 C1130 1.414 . S
C1131 C1132 1.374 . S
C1132 H1106 0.950 . S
C1132 C1128 1.385 . S
C1132 C1131 1.374 . S
C1133 C1130 1.499 . S
C1133 C1134 1.373 . S
C1133 C1135 1.389 . S
C1134 H1107 0.950 . S
C1134 C1120 1.377 . S
C1134 C1133 1.373 . S
C1135 C1119 1.377 . S
C1135 C1133 1.389 . S
C1135 C1136 1.524 . S
C1136 C1135 1.524 . S
C1136 C1137 1.397 . S
C1136 C1141 1.363 . S
C1137 H1108 0.950 . S
C1137 C1136 1.397 . S
C1137 C1138 1.334 . S
C1138 H1109 0.950 . S
C1138 C1137 1.334 . S
C1138 C1139 1.287 . S
C1139 C1138 1.287 . S
C1139 C1140 1.524 . S
C1139 H1142 0.999 . S
C1140 H1110 0.950 . S
C1140 C1139 1.524 . S
C1140 C1141 1.415 . S
C1141 H1111 0.950 . S
C1141 C1136 1.363 . S
C1141 C1140 1.415 . S
H1142 C1139 0.999 . S
H1143 C1124 0.913 . S
H1144 C1162 0.951 . S
H1145 C1164 0.951 . S
H1146 C1166 0.950 . S
H1147 C1167 0.950 . S
H1148 C1169 0.950 . S
H1149 C1172 0.950 . S
H1150 C1173 0.950 . S
H1151 C1175 0.950 . S
H1152 C1176 0.950 . S
H1153 C1177 0.951 . S
H1154 C1179 0.951 . S
H1155 C1181 0.950 . S
H1156 C1182 0.950 . S
H1157 C1184 0.950 . S
H1158 C1187 0.950 . S
H1159 C1188 0.950 . S
H1160 C1190 0.950 . S
H1161 C1191 0.950 . S
C1162 H1144 0.951 . S
C1162 C1163 1.366 . S
C1162 C1164 1.388 . S
C1163 C1162 1.366 . S
C1163 C1167 1.385 . S
C1164 H1145 0.951 . S
C1164 C1162 1.388 . S
C1164 C1165 1.366 . S
C1165 C1164 1.366 . S
C1165 C1166 1.414 . S
C1165 C1168 1.499 . S
C1166 H1146 0.950 . S
C1166 C1165 1.414 . S
C1166 C1167 1.374 . S
C1167 H1147 0.950 . S
C1167 C1163 1.385 . S
C1167 C1166 1.374 . S
C1168 C1165 1.499 . S
C1168 C1169 1.373 . S
C1168 C1170 1.389 . S
C1169 H1148 0.950 . S
C1169 C1168 1.373 . S
C1169 C1185 1.377 . S
C1170 C1168 1.389 . S
C1170 C1171 1.524 . S
C1170 C1184 1.377 . S
C1171 C1170 1.524 . S
C1171 C1172 1.397 . S
C1171 C1176 1.363 . S
C1172 H1149 0.950 . S
C1172 C1171 1.397 . S
C1172 C1173 1.334 . S
C1173 H1150 0.950 . S
C1173 C1172 1.334 . S
C1173 C1174 1.287 . S
C1174 C1173 1.287 . S
C1174 C1175 1.524 . S
C1174 H1193 0.913 . S
C1175 H1151 0.950 . S
C1175 C1174 1.524 . S
C1175 C1176 1.415 . S
C1176 H1152 0.950 . S
C1176 C1171 1.363 . S
C1176 C1175 1.415 . S
C1177 H1153 0.951 . S
C1177 C1178 1.366 . S
C1177 C1179 1.388 . S
C1178 C1177 1.366 . S
C1178 C1182 1.385 . S
C1179 H1154 0.951 . S
C1179 C1177 1.388 . S
C1179 C1180 1.366 . S
C1180 C1179 1.366 . S
C1180 C1181 1.414 . S
C1180 C1183 1.499 . S
C1181 H1155 0.950 . S
C1181 C1180 1.414 . S
C1181 C1182 1.374 . S
C1182 H1156 0.950 . S
C1182 C1178 1.385 . S
C1182 C1181 1.374 . S
C1183 C1180 1.499 . S
C1183 C1184 1.373 . S
C1183 C1185 1.389 . S
C1184 H1157 0.950 . S
C1184 C1170 1.377 . S
C1184 C1183 1.373 . S
C1185 C1169 1.377 . S
C1185 C1183 1.389 . S
C1185 C1186 1.524 . S
C1186 C1185 1.524 . S
C1186 C1187 1.397 . S
C1186 C1191 1.363 . S
C1187 H1158 0.950 . S
C1187 C1186 1.397 . S
C1187 C1188 1.334 . S
C1188 H1159 0.950 . S
C1188 C1187 1.334 . S
C1188 C1189 1.287 . S
C1189 C1188 1.287 . S
C1189 C1190 1.524 . S
C1189 H1192 0.999 . S
C1190 H1160 0.950 . S
C1190 C1189 1.524 . S
C1190 C1191 1.415 . S
C1191 H1161 0.950 . S
C1191 C1186 1.363 . S
C1191 C1190 1.415 . S
H1192 C1189 0.999 . S
H1193 C1174 0.913 . S
H1194 C1212 0.951 . S
H1195 C1214 0.951 . S
H1196 C1216 0.950 . S
H1197 C1217 0.950 . S
H1198 C1219 0.950 . S
H1199 C1222 0.950 . S
H1200 C1223 0.950 . S
H1201 C1225 0.950 . S
H1202 C1226 0.950 . S
H1203 C1227 0.951 . S
H1204 C1229 0.951 . S
H1205 C1231 0.950 . S
H1206 C1232 0.950 . S
H1207 C1234 0.950 . S
H1208 C1237 0.950 . S
H1209 C1238 0.950 . S
H1210 C1240 0.950 . S
H1211 C1241 0.950 . S
C1212 H1194 0.951 . S
C1212 C1213 1.366 . S
C1212 C1214 1.388 . S
C1213 C1212 1.366 . S
C1213 C1217 1.385 . S
C1214 H1195 0.951 . S
C1214 C1212 1.388 . S
C1214 C1215 1.366 . S
C1215 C1214 1.366 . S
C1215 C1216 1.414 . S
C1215 C1218 1.499 . S
C1216 H1196 0.950 . S
C1216 C1215 1.414 . S
C1216 C1217 1.374 . S
C1217 H1197 0.950 . S
C1217 C1213 1.385 . S
C1217 C1216 1.374 . S
C1218 C1215 1.499 . S
C1218 C1219 1.373 . S
C1218 C1220 1.389 . S
C1219 H1198 0.950 . S
C1219 C1218 1.373 . S
C1219 C1235 1.377 . S
C1220 C1218 1.389 . S
C1220 C1221 1.524 . S
C1220 C1234 1.377 . S
C1221 C1220 1.524 . S
C1221 C1222 1.397 . S
C1221 C1226 1.363 . S
C1222 H1199 0.950 . S
C1222 C1221 1.397 . S
C1222 C1223 1.334 . S
C1223 H1200 0.950 . S
C1223 C1222 1.334 . S
C1223 C1224 1.287 . S
C1224 C1223 1.287 . S
C1224 C1225 1.524 . S
C1224 H1243 0.913 . S
C1225 H1201 0.950 . S
C1225 C1224 1.524 . S
C1225 C1226 1.415 . S
C1226 H1202 0.950 . S
C1226 C1221 1.363 . S
C1226 C1225 1.415 . S
C1227 H1203 0.951 . S
C1227 C1228 1.366 . S
C1227 C1229 1.388 . S
C1228 C1227 1.366 . S
C1228 C1232 1.385 . S
C1229 H1204 0.951 . S
C1229 C1227 1.388 . S
C1229 C1230 1.366 . S
C1230 C1229 1.366 . S
C1230 C1231 1.414 . S
C1230 C1233 1.499 . S
C1231 H1205 0.950 . S
C1231 C1230 1.414 . S
C1231 C1232 1.374 . S
C1232 H1206 0.950 . S
C1232 C1228 1.385 . S
C1232 C1231 1.374 . S
C1233 C1230 1.499 . S
C1233 C1234 1.373 . S
C1233 C1235 1.389 . S
C1234 H1207 0.950 . S
C1234 C1220 1.377 . S
C1234 C1233 1.373 . S
C1235 C1219 1.377 . S
C1235 C1233 1.389 . S
C1235 C1236 1.524 . S
C1236 C1235 1.524 . S
C1236 C1237 1.397 . S
C1236 C1241 1.363 . S
C1237 H1208 0.950 . S
C1237 C1236 1.397 . S
C1237 C1238 1.334 . S
C1238 H1209 0.950 . S
C1238 C1237 1.334 . S
C1238 C1239 1.287 . S
C1239 C1238 1.287 . S
C1239 C1240 1.524 . S
C1239 H1242 0.999 . S
C1240 H1210 0.950 . S
C1240 C1239 1.524 . S
C1240 C1241 1.415 . S
C1241 H1211 0.950 . S
C1241 C1236 1.363 . S
C1241 C1240 1.415 . S
H1242 C1239 0.999 . S
H1243 C1224 0.913 . S
H1244 C1262 0.951 . S
H1245 C1264 0.951 . S
H1246 C1266 0.950 . S
H1247 C1267 0.950 . S
H1248 C1269 0.950 . S
H1249 C1272 0.950 . S
H1250 C1273 0.950 . S
H1251 C1275 0.950 . S
H1252 C1276 0.950 . S
H1253 C1277 0.951 . S
H1254 C1279 0.951 . S
H1255 C1281 0.950 . S
H1256 C1282 0.950 . S
H1257 C1284 0.950 . S
H1258 C1287 0.950 . S
H1259 C1288 0.950 . S
H1260 C1290 0.950 . S
H1261 C1291 0.950 . S
C1262 H1244 0.951 . S
C1262 C1263 1.366 . S
C1262 C1264 1.388 . S
C1263 C1262 1.366 . S
C1263 C1267 1.385 . S
C1264 H1245 0.951 . S
C1264 C1262 1.388 . S
C1264 C1265 1.366 . S
C1265 C1264 1.366 . S
C1265 C1266 1.414 . S
C1265 C1268 1.499 . S
C1266 H1246 0.950 . S
C1266 C1265 1.414 . S
C1266 C1267 1.374 . S
C1267 H1247 0.950 . S
C1267 C1263 1.385 . S
C1267 C1266 1.374 . S
C1268 C1265 1.499 . S
C1268 C1269 1.373 . S
C1268 C1270 1.389 . S
C1269 H1248 0.950 . S
C1269 C1268 1.373 . S
C1269 C1285 1.377 . S
C1270 C1268 1.389 . S
C1270 C1271 1.524 . S
C1270 C1284 1.377 . S
C1271 C1270 1.524 . S
C1271 C1272 1.397 . S
C1271 C1276 1.363 . S
C1272 H1249 0.950 . S
C1272 C1271 1.397 . S
C1272 C1273 1.334 . S
C1273 H1250 0.950 . S
C1273 C1272 1.334 . S
C1273 C1274 1.287 . S
C1274 C1273 1.287 . S
C1274 C1275 1.524 . S
C1274 H1293 0.913 . S
C1275 H1251 0.950 . S
C1275 C1274 1.524 . S
C1275 C1276 1.415 . S
C1276 H1252 0.950 . S
C1276 C1271 1.363 . S
C1276 C1275 1.415 . S
C1277 H1253 0.951 . S
C1277 C1278 1.366 . S
C1277 C1279 1.388 . S
C1278 C1277 1.366 . S
C1278 C1282 1.385 . S
C1279 H1254 0.951 . S
C1279 C1277 1.388 . S
C1279 C1280 1.366 . S
C1280 C1279 1.366 . S
C1280 C1281 1.414 . S
C1280 C1283 1.499 . S
C1281 H1255 0.950 . S
C1281 C1280 1.414 . S
C1281 C1282 1.374 . S
C1282 H1256 0.950 . S
C1282 C1278 1.385 . S
C1282 C1281 1.374 . S
C1283 C1280 1.499 . S
C1283 C1284 1.373 . S
C1283 C1285 1.389 . S
C1284 H1257 0.950 . S
C1284 C1270 1.377 . S
C1284 C1283 1.373 . S
C1285 C1269 1.377 . S
C1285 C1283 1.389 . S
C1285 C1286 1.524 . S
C1286 C1285 1.524 . S
C1286 C1287 1.397 . S
C1286 C1291 1.363 . S
C1287 H1258 0.950 . S
C1287 C1286 1.397 . S
C1287 C1288 1.334 . S
C1288 H1259 0.950 . S
C1288 C1287 1.334 . S
C1288 C1289 1.287 . S
C1289 C1288 1.287 . S
C1289 C1290 1.524 . S
C1289 H1292 0.999 . S
C1290 H1260 0.950 . S
C1290 C1289 1.524 . S
C1290 C1291 1.415 . S
C1291 H1261 0.950 . S
C1291 C1286 1.363 . S
C1291 C1290 1.415 . S
H1292 C1289 0.999 . S
H1293 C1274 0.913 . S
H1294 C1312 0.951 . S
H1295 C1314 0.951 . S
H1296 C1316 0.950 . S
H1297 C1317 0.950 . S
H1298 C1319 0.950 . S
H1299 C1322 0.950 . S
H1300 C1323 0.950 . S
H1301 C1325 0.950 . S
H1302 C1326 0.950 . S
H1303 C1327 0.951 . S
H1304 C1329 0.951 . S
H1305 C1331 0.950 . S
H1306 C1332 0.950 . S
H1307 C1334 0.950 . S
H1308 C1337 0.950 . S
H1309 C1338 0.950 . S
H1310 C1340 0.950 . S
H1311 C1341 0.950 . S
C1312 H1294 0.951 . S
C1312 C1313 1.366 . S
C1312 C1314 1.388 . S
C1313 C1312 1.366 . S
C1313 C1317 1.385 . S
C1314 H1295 0.951 . S
C1314 C1312 1.388 . S
C1314 C1315 1.366 . S
C1315 C1314 1.366 . S
C1315 C1316 1.414 . S
C1315 C1318 1.499 . S
C1316 H1296 0.950 . S
C1316 C1315 1.414 . S
C1316 C1317 1.374 . S
C1317 H1297 0.950 . S
C1317 C1313 1.385 . S
C1317 C1316 1.374 . S
C1318 C1315 1.499 . S
C1318 C1319 1.373 . S
C1318 C1320 1.389 . S
C1319 H1298 0.950 . S
C1319 C1318 1.373 . S
C1319 C1335 1.377 . S
C1320 C1318 1.389 . S
C1320 C1321 1.524 . S
C1320 C1334 1.377 . S
C1321 C1320 1.524 . S
C1321 C1322 1.397 . S
C1321 C1326 1.363 . S
C1322 H1299 0.950 . S
C1322 C1321 1.397 . S
C1322 C1323 1.334 . S
C1323 H1300 0.950 . S
C1323 C1322 1.334 . S
C1323 C1324 1.287 . S
C1324 C1323 1.287 . S
C1324 C1325 1.524 . S
C1324 H1343 0.913 . S
C1325 H1301 0.950 . S
C1325 C1324 1.524 . S
C1325 C1326 1.415 . S
C1326 H1302 0.950 . S
C1326 C1321 1.363 . S
C1326 C1325 1.415 . S
C1327 H1303 0.951 . S
C1327 C1328 1.366 . S
C1327 C1329 1.388 . S
C1328 C1327 1.366 . S
C1328 C1332 1.385 . S
C1329 H1304 0.951 . S
C1329 C1327 1.388 . S
C1329 C1330 1.366 . S
C1330 C1329 1.366 . S
C1330 C1331 1.414 . S
C1330 C1333 1.499 . S
C1331 H1305 0.950 . S
C1331 C1330 1.414 . S
C1331 C1332 1.374 . S
C1332 H1306 0.950 . S
C1332 C1328 1.385 . S
C1332 C1331 1.374 . S
C1333 C1330 1.499 . S
C1333 C1334 1.373 . S
C1333 C1335 1.389 . S
C1334 H1307 0.950 . S
C1334 C1320 1.377 . S
C1334 C1333 1.373 . S
C1335 C1319 1.377 . S
C1335 C1333 1.389 . S
C1335 C1336 1.524 . S
C1336 C1335 1.524 . S
C1336 C1337 1.397 . S
C1336 C1341 1.363 . S
C1337 H1308 0.950 . S
C1337 C1336 1.397 . S
C1337 C1338 1.334 . S
C1338 H1309 0.950 . S
C1338 C1337 1.334 . S
C1338 C1339 1.287 . S
C1339 C1338 1.287 . S
C1339 C1340 1.524 . S
C1339 H1342 0.999 . S
C1340 H1310 0.950 . S
C1340 C1339 1.524 . S
C1340 C1341 1.415 . S
C1341 H1311 0.950 . S
C1341 C1336 1.363 . S
C1341 C1340 1.415 . S
H1342 C1339 0.999 . S
H1343 C1324 0.913 . S
H1344 C1362 0.951 . S
H1345 C1364 0.951 . S
H1346 C1366 0.950 . S
H1347 C1367 0.950 . S
H1348 C1369 0.950 . S
H1349 C1372 0.950 . S
H1350 C1373 0.950 . S
H1351 C1375 0.950 . S
H1352 C1376 0.950 . S
H1353 C1377 0.951 . S
H1354 C1379 0.951 . S
H1355 C1381 0.950 . S
H1356 C1382 0.950 . S
H1357 C1384 0.950 1_556 S
H1358 C1387 0.950 . S
H1359 C1388 0.950 . S
H1360 C1390 0.950 . S
H1361 C1391 0.950 . S
C1362 H1344 0.951 . S
C1362 C1363 1.366 . S
C1362 C1364 1.388 . S
C1363 C1362 1.366 . S
C1363 C1367 1.385 . S
C1364 H1345 0.951 . S
C1364 C1362 1.388 . S
C1364 C1365 1.366 . S
C1365 C1364 1.366 . S
C1365 C1366 1.414 . S
C1365 C1368 1.499 . S
C1366 H1346 0.950 . S
C1366 C1365 1.414 . S
C1366 C1367 1.374 . S
C1367 H1347 0.950 . S
C1367 C1363 1.385 . S
C1367 C1366 1.374 . S
C1368 C1365 1.499 . S
C1368 C1369 1.373 . S
C1368 C1370 1.389 . S
C1369 H1348 0.950 . S
C1369 C1368 1.373 . S
C1369 C1385 1.377 . S
C1370 C1368 1.389 . S
C1370 C1371 1.524 . S
C1370 C1384 1.377 . S
C1371 C1370 1.524 . S
C1371 C1372 1.397 . S
C1371 C1376 1.363 . S
C1372 H1349 0.950 . S
C1372 C1371 1.397 . S
C1372 C1373 1.334 . S
C1373 H1350 0.950 . S
C1373 C1372 1.334 . S
C1373 C1374 1.287 . S
C1374 C1373 1.287 . S
C1374 C1375 1.524 . S
C1374 H1393 0.913 . S
C1375 H1351 0.950 . S
C1375 C1374 1.524 . S
C1375 C1376 1.415 . S
C1376 H1352 0.950 . S
C1376 C1371 1.363 . S
C1376 C1375 1.415 . S
C1377 H1353 0.951 . S
C1377 C1378 1.366 . S
C1377 C1379 1.388 . S
C1378 C1377 1.366 . S
C1378 C1382 1.385 . S
C1379 H1354 0.951 . S
C1379 C1377 1.388 . S
C1379 C1380 1.366 . S
C1380 C1379 1.366 . S
C1380 C1381 1.414 . S
C1380 C1383 1.499 . S
C1381 H1355 0.950 . S
C1381 C1380 1.414 . S
C1381 C1382 1.374 . S
C1382 H1356 0.950 . S
C1382 C1378 1.385 . S
C1382 C1381 1.374 . S
C1383 C1380 1.499 . S
C1383 C1384 1.373 1_556 S
C1383 C1385 1.389 1_556 S
C1384 H1357 0.950 1_554 S
C1384 C1370 1.377 . S
C1384 C1383 1.373 1_554 S
C1385 C1369 1.377 . S
C1385 C1383 1.389 1_554 S
C1385 C1386 1.524 1_554 S
C1386 C1385 1.524 1_556 S
C1386 C1387 1.397 . S
C1386 C1391 1.363 1_556 S
C1387 H1358 0.950 . S
C1387 C1386 1.397 . S
C1387 C1388 1.334 . S
C1388 H1359 0.950 . S
C1388 C1387 1.334 . S
C1388 C1389 1.287 . S
C1389 C1388 1.287 . S
C1389 C1390 1.524 . S
C1389 H1392 0.999 . S
C1390 H1360 0.950 . S
C1390 C1389 1.524 . S
C1390 C1391 1.415 1_556 S
C1391 H1361 0.950 . S
C1391 C1386 1.363 1_554 S
C1391 C1390 1.415 1_554 S
H1392 C1389 0.999 . S
H1393 C1374 0.913 . S
H1394 C1412 0.951 . S
H1395 C1414 0.951 . S
H1396 C1416 0.950 . S
H1397 C1417 0.950 . S
H1398 C1419 0.950 . S
H1399 C1422 0.950 . S
H1400 C1423 0.950 . S
H1401 C1425 0.950 . S
H1402 C1426 0.950 . S
H1403 C1427 0.951 . S
H1404 C1429 0.951 . S
H1405 C1431 0.950 . S
H1406 C1432 0.950 . S
H1407 C1434 0.950 1_556 S
H1408 C1437 0.950 . S
H1409 C1438 0.950 . S
H1410 C1440 0.950 . S
H1411 C1441 0.950 . S
C1412 H1394 0.951 . S
C1412 C1413 1.366 . S
C1412 C1414 1.388 . S
C1413 C1412 1.366 . S
C1413 C1417 1.385 . S
C1414 H1395 0.951 . S
C1414 C1412 1.388 . S
C1414 C1415 1.366 . S
C1415 C1414 1.366 . S
C1415 C1416 1.414 . S
C1415 C1418 1.499 . S
C1416 H1396 0.950 . S
C1416 C1415 1.414 . S
C1416 C1417 1.374 . S
C1417 H1397 0.950 . S
C1417 C1413 1.385 . S
C1417 C1416 1.374 . S
C1418 C1415 1.499 . S
C1418 C1419 1.373 . S
C1418 C1420 1.389 . S
C1419 H1398 0.950 . S
C1419 C1418 1.373 . S
C1419 C1435 1.377 . S
C1420 C1418 1.389 . S
C1420 C1421 1.524 . S
C1420 C1434 1.377 . S
C1421 C1420 1.524 . S
C1421 C1422 1.397 . S
C1421 C1426 1.363 . S
C1422 H1399 0.950 . S
C1422 C1421 1.397 . S
C1422 C1423 1.334 . S
C1423 H1400 0.950 . S
C1423 C1422 1.334 . S
C1423 C1424 1.287 . S
C1424 C1423 1.287 . S
C1424 C1425 1.524 . S
C1424 H1443 0.913 . S
C1425 H1401 0.950 . S
C1425 C1424 1.524 . S
C1425 C1426 1.415 . S
C1426 H1402 0.950 . S
C1426 C1421 1.363 . S
C1426 C1425 1.415 . S
C1427 H1403 0.951 . S
C1427 C1428 1.366 . S
C1427 C1429 1.388 . S
C1428 C1427 1.366 . S
C1428 C1432 1.385 . S
C1429 H1404 0.951 . S
C1429 C1427 1.388 . S
C1429 C1430 1.366 . S
C1430 C1429 1.366 . S
C1430 C1431 1.414 . S
C1430 C1433 1.499 . S
C1431 H1405 0.950 . S
C1431 C1430 1.414 . S
C1431 C1432 1.374 . S
C1432 H1406 0.950 . S
C1432 C1428 1.385 . S
C1432 C1431 1.374 . S
C1433 C1430 1.499 . S
C1433 C1434 1.373 1_556 S
C1433 C1435 1.389 1_556 S
C1434 H1407 0.950 1_554 S
C1434 C1420 1.377 . S
C1434 C1433 1.373 1_554 S
C1435 C1419 1.377 . S
C1435 C1433 1.389 1_554 S
C1435 C1436 1.524 1_554 S
C1436 C1435 1.524 1_556 S
C1436 C1437 1.397 . S
C1436 C1441 1.363 1_556 S
C1437 H1408 0.950 . S
C1437 C1436 1.397 . S
C1437 C1438 1.334 . S
C1438 H1409 0.950 . S
C1438 C1437 1.334 . S
C1438 C1439 1.287 . S
C1439 C1438 1.287 . S
C1439 C1440 1.524 . S
C1439 H1442 0.999 . S
C1440 H1410 0.950 . S
C1440 C1439 1.524 . S
C1440 C1441 1.415 1_556 S
C1441 H1411 0.950 . S
C1441 C1436 1.363 1_554 S
C1441 C1440 1.415 1_554 S
H1442 C1439 0.999 . S
H1443 C1424 0.913 . S
H1444 C1462 0.951 . S
H1445 C1464 0.951 . S
H1446 C1466 0.950 . S
H1447 C1467 0.950 . S
H1448 C1469 0.950 1_556 S
H1449 C1472 0.950 . S
H1450 C1473 0.950 . S
H1451 C1475 0.950 . S
H1452 C1476 0.950 . S
H1453 C1477 0.951 . S
H1454 C1479 0.951 . S
H1455 C1481 0.950 . S
H1456 C1482 0.950 . S
H1457 C1484 0.950 . S
H1458 C1487 0.950 . S
H1459 C1488 0.950 . S
H1460 C1490 0.950 . S
H1461 C1491 0.950 . S
C1462 H1444 0.951 . S
C1462 C1463 1.366 . S
C1462 C1464 1.388 . S
C1463 C1462 1.366 . S
C1463 C1467 1.385 . S
C1464 H1445 0.951 . S
C1464 C1462 1.388 . S
C1464 C1465 1.366 . S
C1465 C1464 1.366 . S
C1465 C1466 1.414 . S
C1465 C1468 1.499 . S
C1466 H1446 0.950 . S
C1466 C1465 1.414 . S
C1466 C1467 1.374 . S
C1467 H1447 0.950 . S
C1467 C1463 1.385 . S
C1467 C1466 1.374 . S
C1468 C1465 1.499 . S
C1468 C1469 1.373 1_556 S
C1468 C1470 1.389 1_556 S
C1469 H1448 0.950 1_554 S
C1469 C1468 1.373 1_554 S
C1469 C1485 1.377 . S
C1470 C1468 1.389 1_554 S
C1470 C1471 1.524 1_554 S
C1470 C1484 1.377 . S
C1471 C1470 1.524 1_556 S
C1471 C1472 1.397 . S
C1471 C1476 1.363 1_556 S
C1472 H1449 0.950 . S
C1472 C1471 1.397 . S
C1472 C1473 1.334 . S
C1473 H1450 0.950 . S
C1473 C1472 1.334 . S
C1473 C1474 1.287 . S
C1474 C1473 1.287 . S
C1474 C1475 1.524 . S
C1474 H1493 0.913 . S
C1475 H1451 0.950 . S
C1475 C1474 1.524 . S
C1475 C1476 1.415 1_556 S
C1476 H1452 0.950 . S
C1476 C1471 1.363 1_554 S
C1476 C1475 1.415 1_554 S
C1477 H1453 0.951 . S
C1477 C1478 1.366 . S
C1477 C1479 1.388 . S
C1478 C1477 1.366 . S
C1478 C1482 1.385 . S
C1479 H1454 0.951 . S
C1479 C1477 1.388 . S
C1479 C1480 1.366 . S
C1480 C1479 1.366 . S
C1480 C1481 1.414 . S
C1480 C1483 1.499 . S
C1481 H1455 0.950 . S
C1481 C1480 1.414 . S
C1481 C1482 1.374 . S
C1482 H1456 0.950 . S
C1482 C1478 1.385 . S
C1482 C1481 1.374 . S
C1483 C1480 1.499 . S
C1483 C1484 1.373 . S
C1483 C1485 1.389 . S
C1484 H1457 0.950 . S
C1484 C1470 1.377 . S
C1484 C1483 1.373 . S
C1485 C1469 1.377 . S
C1485 C1483 1.389 . S
C1485 C1486 1.524 . S
C1486 C1485 1.524 . S
C1486 C1487 1.397 . S
C1486 C1491 1.363 . S
C1487 H1458 0.950 . S
C1487 C1486 1.397 . S
C1487 C1488 1.334 . S
C1488 H1459 0.950 . S
C1488 C1487 1.334 . S
C1488 C1489 1.287 . S
C1489 C1488 1.287 . S
C1489 C1490 1.524 . S
C1489 H1492 0.999 . S
C1490 H1460 0.950 . S
C1490 C1489 1.524 . S
C1490 C1491 1.415 . S
C1491 H1461 0.950 . S
C1491 C1486 1.363 . S
C1491 C1490 1.415 . S
H1492 C1489 0.999 . S
H1493 C1474 0.913 . S
H1494 C1512 0.951 . S
H1495 C1514 0.951 . S
H1496 C1516 0.950 . S
H1497 C1517 0.950 . S
H1498 C1519 0.950 . S
H1499 C1522 0.950 . S
H1500 C1523 0.950 . S
H1501 C1525 0.950 . S
H1502 C1526 0.950 . S
H1503 C1527 0.951 . S
H1504 C1529 0.951 . S
H1505 C1531 0.950 . S
H1506 C1532 0.950 . S
H1507 C1534 0.950 . S
H1508 C1537 0.950 . S
H1509 C1538 0.950 . S
H1510 C1540 0.950 . S
H1511 C1541 0.950 . S
C1512 H1494 0.951 . S
C1512 C1513 1.366 . S
C1512 C1514 1.388 . S
C1513 C1512 1.366 . S
C1513 C1517 1.385 . S
C1514 H1495 0.951 . S
C1514 C1512 1.388 . S
C1514 C1515 1.366 . S
C1515 C1514 1.366 . S
C1515 C1516 1.414 . S
C1515 C1518 1.499 . S
C1516 H1496 0.950 . S
C1516 C1515 1.414 . S
C1516 C1517 1.374 . S
C1517 H1497 0.950 . S
C1517 C1513 1.385 . S
C1517 C1516 1.374 . S
C1518 C1515 1.499 . S
C1518 C1519 1.373 . S
C1518 C1520 1.389 . S
C1519 H1498 0.950 . S
C1519 C1518 1.373 . S
C1519 C1535 1.377 . S
C1520 C1518 1.389 . S
C1520 C1521 1.524 . S
C1520 C1534 1.377 . S
C1521 C1520 1.524 . S
C1521 C1522 1.397 . S
C1521 C1526 1.363 . S
C1522 H1499 0.950 . S
C1522 C1521 1.397 . S
C1522 C1523 1.334 . S
C1523 H1500 0.950 . S
C1523 C1522 1.334 . S
C1523 C1524 1.287 . S
C1524 C1523 1.287 . S
C1524 C1525 1.524 . S
C1524 H1543 0.913 . S
C1525 H1501 0.950 . S
C1525 C1524 1.524 . S
C1525 C1526 1.415 . S
C1526 H1502 0.950 . S
C1526 C1521 1.363 . S
C1526 C1525 1.415 . S
C1527 H1503 0.951 . S
C1527 C1528 1.366 . S
C1527 C1529 1.388 . S
C1528 C1527 1.366 . S
C1528 C1532 1.385 . S
C1529 H1504 0.951 . S
C1529 C1527 1.388 . S
C1529 C1530 1.366 . S
C1530 C1529 1.366 . S
C1530 C1531 1.414 . S
C1530 C1533 1.499 . S
C1531 H1505 0.950 . S
C1531 C1530 1.414 . S
C1531 C1532 1.374 . S
C1532 H1506 0.950 . S
C1532 C1528 1.385 . S
C1532 C1531 1.374 . S
C1533 C1530 1.499 . S
C1533 C1534 1.373 . S
C1533 C1535 1.389 . S
C1534 H1507 0.950 . S
C1534 C1520 1.377 . S
C1534 C1533 1.373 . S
C1535 C1519 1.377 . S
C1535 C1533 1.389 . S
C1535 C1536 1.524 . S
C1536 C1535 1.524 . S
C1536 C1537 1.397 . S
C1536 C1541 1.363 . S
C1537 H1508 0.950 . S
C1537 C1536 1.397 . S
C1537 C1538 1.334 . S
C1538 H1509 0.950 . S
C1538 C1537 1.334 . S
C1538 C1539 1.287 . S
C1539 C1538 1.287 . S
C1539 C1540 1.524 . S
C1539 H1542 0.999 . S
C1540 H1510 0.950 . S
C1540 C1539 1.524 . S
C1540 C1541 1.415 . S
C1541 H1511 0.950 . S
C1541 C1536 1.363 . S
C1541 C1540 1.415 . S
H1542 C1539 0.999 . S
H1543 C1524 0.913 . S
H1544 C1562 0.951 . S
H1545 C1564 0.951 . S
H1546 C1566 0.950 . S
H1547 C1567 0.950 . S
H1548 C1569 0.950 . S
H1549 C1572 0.950 . S
H1550 C1573 0.950 . S
H1551 C1575 0.950 . S
H1552 C1576 0.950 . S
H1553 C1577 0.951 . S
H1554 C1579 0.951 . S
H1555 C1581 0.950 . S
H1556 C1582 0.950 . S
H1557 C1584 0.950 . S
H1558 C1587 0.950 . S
H1559 C1588 0.950 . S
H1560 C1590 0.950 . S
H1561 C1591 0.950 . S
C1562 H1544 0.951 . S
C1562 C1563 1.366 . S
C1562 C1564 1.388 . S
C1563 C1562 1.366 . S
C1563 C1567 1.385 . S
C1564 H1545 0.951 . S
C1564 C1562 1.388 . S
C1564 C1565 1.366 . S
C1565 C1564 1.366 . S
C1565 C1566 1.414 . S
C1565 C1568 1.499 . S
C1566 H1546 0.950 . S
C1566 C1565 1.414 . S
C1566 C1567 1.374 . S
C1567 H1547 0.950 . S
C1567 C1563 1.385 . S
C1567 C1566 1.374 . S
C1568 C1565 1.499 . S
C1568 C1569 1.373 . S
C1568 C1570 1.389 . S
C1569 H1548 0.950 . S
C1569 C1568 1.373 . S
C1569 C1585 1.377 . S
C1570 C1568 1.389 . S
C1570 C1571 1.524 . S
C1570 C1584 1.377 . S
C1571 C1570 1.524 . S
C1571 C1572 1.397 . S
C1571 C1576 1.363 . S
C1572 H1549 0.950 . S
C1572 C1571 1.397 . S
C1572 C1573 1.334 . S
C1573 H1550 0.950 . S
C1573 C1572 1.334 . S
C1573 C1574 1.287 . S
C1574 C1573 1.287 . S
C1574 C1575 1.524 . S
C1574 H1593 0.913 . S
C1575 H1551 0.950 . S
C1575 C1574 1.524 . S
C1575 C1576 1.415 . S
C1576 H1552 0.950 . S
C1576 C1571 1.363 . S
C1576 C1575 1.415 . S
C1577 H1553 0.951 . S
C1577 C1578 1.366 . S
C1577 C1579 1.388 . S
C1578 C1577 1.366 . S
C1578 C1582 1.385 . S
C1579 H1554 0.951 . S
C1579 C1577 1.388 . S
C1579 C1580 1.366 . S
C1580 C1579 1.366 . S
C1580 C1581 1.414 . S
C1580 C1583 1.499 . S
C1581 H1555 0.950 . S
C1581 C1580 1.414 . S
C1581 C1582 1.374 . S
C1582 H1556 0.950 . S
C1582 C1578 1.385 . S
C1582 C1581 1.374 . S
C1583 C1580 1.499 . S
C1583 C1584 1.373 . S
C1583 C1585 1.389 . S
C1584 H1557 0.950 . S
C1584 C1570 1.377 . S
C1584 C1583 1.373 . S
C1585 C1569 1.377 . S
C1585 C1583 1.389 . S
C1585 C1586 1.524 . S
C1586 C1585 1.524 . S
C1586 C1587 1.397 . S
C1586 C1591 1.363 . S
C1587 H1558 0.950 . S
C1587 C1586 1.397 . S
C1587 C1588 1.334 . S
C1588 H1559 0.950 . S
C1588 C1587 1.334 . S
C1588 C1589 1.287 . S
C1589 C1588 1.287 . S
C1589 C1590 1.524 . S
C1589 H1592 0.999 . S
C1590 H1560 0.950 . S
C1590 C1589 1.524 . S
C1590 C1591 1.415 . S
C1591 H1561 0.950 . S
C1591 C1586 1.363 . S
C1591 C1590 1.415 . S
H1592 C1589 0.999 . S
H1593 C1574 0.913 . S
H1594 C1612 0.951 . S
H1595 C1614 0.951 . S
H1596 C1616 0.950 . S
H1597 C1617 0.950 . S
H1598 C1619 0.950 . S
H1599 C1622 0.950 . S
H1600 C1623 0.950 . S
H1601 C1625 0.950 . S
H1602 C1626 0.950 . S
H1603 C1627 0.951 . S
H1604 C1629 0.951 . S
H1605 C1631 0.950 . S
H1606 C1632 0.950 . S
H1607 C1634 0.950 . S
H1608 C1637 0.950 . S
H1609 C1638 0.950 . S
H1610 C1640 0.950 . S
H1611 C1641 0.950 . S
C1612 H1594 0.951 . S
C1612 C1613 1.366 . S
C1612 C1614 1.388 . S
C1613 C1612 1.366 . S
C1613 C1617 1.385 . S
C1614 H1595 0.951 . S
C1614 C1612 1.388 . S
C1614 C1615 1.366 . S
C1615 C1614 1.366 . S
C1615 C1616 1.414 . S
C1615 C1618 1.499 . S
C1616 H1596 0.950 . S
C1616 C1615 1.414 . S
C1616 C1617 1.374 . S
C1617 H1597 0.950 . S
C1617 C1613 1.385 . S
C1617 C1616 1.374 . S
C1618 C1615 1.499 . S
C1618 C1619 1.373 . S
C1618 C1620 1.389 . S
C1619 H1598 0.950 . S
C1619 C1618 1.373 . S
C1619 C1635 1.377 . S
C1620 C1618 1.389 . S
C1620 C1621 1.524 . S
C1620 C1634 1.377 . S
C1621 C1620 1.524 . S
C1621 C1622 1.397 . S
C1621 C1626 1.363 . S
C1622 H1599 0.950 . S
C1622 C1621 1.397 . S
C1622 C1623 1.334 . S
C1623 H1600 0.950 . S
C1623 C1622 1.334 . S
C1623 C1624 1.287 . S
C1624 C1623 1.287 . S
C1624 C1625 1.524 . S
C1624 H1643 0.913 . S
C1625 H1601 0.950 . S
C1625 C1624 1.524 . S
C1625 C1626 1.415 . S
C1626 H1602 0.950 . S
C1626 C1621 1.363 . S
C1626 C1625 1.415 . S
C1627 H1603 0.951 . S
C1627 C1628 1.366 . S
C1627 C1629 1.388 . S
C1628 C1627 1.366 . S
C1628 C1632 1.385 . S
C1629 H1604 0.951 . S
C1629 C1627 1.388 . S
C1629 C1630 1.366 . S
C1630 C1629 1.366 . S
C1630 C1631 1.414 . S
C1630 C1633 1.499 . S
C1631 H1605 0.950 . S
C1631 C1630 1.414 . S
C1631 C1632 1.374 . S
C1632 H1606 0.950 . S
C1632 C1628 1.385 . S
C1632 C1631 1.374 . S
C1633 C1630 1.499 . S
C1633 C1634 1.373 . S
C1633 C1635 1.389 . S
C1634 H1607 0.950 . S
C1634 C1620 1.377 . S
C1634 C1633 1.373 . S
C1635 C1619 1.377 . S
C1635 C1633 1.389 . S
C1635 C1636 1.524 . S
C1636 C1635 1.524 . S
C1636 C1637 1.397 . S
C1636 C1641 1.363 . S
C1637 H1608 0.950 . S
C1637 C1636 1.397 . S
C1637 C1638 1.334 . S
C1638 H1609 0.950 . S
C1638 C1637 1.334 . S
C1638 C1639 1.287 . S
C1639 C1638 1.287 . S
C1639 C1640 1.524 . S
C1639 H1642 0.999 . S
C1640 H1610 0.950 . S
C1640 C1639 1.524 . S
C1640 C1641 1.415 . S
C1641 H1611 0.950 . S
C1641 C1636 1.363 . S
C1641 C1640 1.415 . S
H1642 C1639 0.999 . S
H1643 C1624 0.913 . S
H1644 C1662 0.951 . S
H1645 C1664 0.951 . S
H1646 C1666 0.950 . S
H1647 C1667 0.950 . S
H1648 C1669 0.950 . S
H1649 C1672 0.950 . S
H1650 C1673 0.950 . S
H1651 C1675 0.950 . S
H1652 C1676 0.950 . S
H1653 C1677 0.951 . S
H1654 C1679 0.951 . S
H1655 C1681 0.950 . S
H1656 C1682 0.950 . S
H1657 C1684 0.950 . S
H1658 C1687 0.950 . S
H1659 C1688 0.950 . S
H1660 C1690 0.950 . S
H1661 C1691 0.950 . S
C1662 H1644 0.951 . S
C1662 C1663 1.366 . S
C1662 C1664 1.388 . S
C1663 C1662 1.366 . S
C1663 C1667 1.385 . S
C1664 H1645 0.951 . S
C1664 C1662 1.388 . S
C1664 C1665 1.366 . S
C1665 C1664 1.366 . S
C1665 C1666 1.414 . S
C1665 C1668 1.499 . S
C1666 H1646 0.950 . S
C1666 C1665 1.414 . S
C1666 C1667 1.374 . S
C1667 H1647 0.950 . S
C1667 C1663 1.385 . S
C1667 C1666 1.374 . S
C1668 C1665 1.499 . S
C1668 C1669 1.373 . S
C1668 C1670 1.389 . S
C1669 H1648 0.950 . S
C1669 C1668 1.373 . S
C1669 C1685 1.377 . S
C1670 C1668 1.389 . S
C1670 C1671 1.524 . S
C1670 C1684 1.377 . S
C1671 C1670 1.524 . S
C1671 C1672 1.397 . S
C1671 C1676 1.363 . S
C1672 H1649 0.950 . S
C1672 C1671 1.397 . S
C1672 C1673 1.334 . S
C1673 H1650 0.950 . S
C1673 C1672 1.334 . S
C1673 C1674 1.287 . S
C1674 C1673 1.287 . S
C1674 C1675 1.524 . S
C1674 H1693 0.913 . S
C1675 H1651 0.950 . S
C1675 C1674 1.524 . S
C1675 C1676 1.415 . S
C1676 H1652 0.950 . S
C1676 C1671 1.363 . S
C1676 C1675 1.415 . S
C1677 H1653 0.951 . S
C1677 C1678 1.366 . S
C1677 C1679 1.388 . S
C1678 C1677 1.366 . S
C1678 C1682 1.385 . S
C1679 H1654 0.951 . S
C1679 C1677 1.388 . S
C1679 C1680 1.366 . S
C1680 C1679 1.366 . S
C1680 C1681 1.414 . S
C1680 C1683 1.499 . S
C1681 H1655 0.950 . S
C1681 C1680 1.414 . S
C1681 C1682 1.374 . S
C1682 H1656 0.950 . S
C1682 C1678 1.385 . S
C1682 C1681 1.374 . S
C1683 C1680 1.499 . S
C1683 C1684 1.373 . S
C1683 C1685 1.389 . S
C1684 H1657 0.950 . S
C1684 C1670 1.377 . S
C1684 C1683 1.373 . S
C1685 C1669 1.377 . S
C1685 C1683 1.389 . S
C1685 C1686 1.524 . S
C1686 C1685 1.524 . S
C1686 C1687 1.397 . S
C1686 C1691 1.363 . S
C1687 H1658 0.950 . S
C1687 C1686 1.397 . S
C1687 C1688 1.334 . S
C1688 H1659 0.950 . S
C1688 C1687 1.334 . S
C1688 C1689 1.287 . S
C1689 C1688 1.287 . S
C1689 C1690 1.524 . S
C1689 H1692 0.999 . S
C1690 H1660 0.950 . S
C1690 C1689 1.524 . S
C1690 C1691 1.415 . S
C1691 H1661 0.950 . S
C1691 C1686 1.363 . S
C1691 C1690 1.415 . S
H1692 C1689 0.999 . S
H1693 C1674 0.913 . S
H1694 C1712 0.951 . S
H1695 C1714 0.951 . S
H1696 C1716 0.950 . S
H1697 C1717 0.950 . S
H1698 C1719 0.950 . S
H1699 C1722 0.950 . S
H1700 C1723 0.950 . S
H1701 C1725 0.950 . S
H1702 C1726 0.950 . S
H1703 C1727 0.951 . S
H1704 C1729 0.951 . S
H1705 C1731 0.950 . S
H1706 C1732 0.950 . S
H1707 C1734 0.950 . S
H1708 C1737 0.950 . S
H1709 C1738 0.950 . S
H1710 C1740 0.950 . S
H1711 C1741 0.950 . S
C1712 H1694 0.951 . S
C1712 C1713 1.366 . S
C1712 C1714 1.388 . S
C1713 C1712 1.366 . S
C1713 C1717 1.385 . S
C1714 H1695 0.951 . S
C1714 C1712 1.388 . S
C1714 C1715 1.366 . S
C1715 C1714 1.366 . S
C1715 C1716 1.414 . S
C1715 C1718 1.499 . S
C1716 H1696 0.950 . S
C1716 C1715 1.414 . S
C1716 C1717 1.374 . S
C1717 H1697 0.950 . S
C1717 C1713 1.385 . S
C1717 C1716 1.374 . S
C1718 C1715 1.499 . S
C1718 C1719 1.373 . S
C1718 C1720 1.389 . S
C1719 H1698 0.950 . S
C1719 C1718 1.373 . S
C1719 C1735 1.377 . S
C1720 C1718 1.389 . S
C1720 C1721 1.524 . S
C1720 C1734 1.377 . S
C1721 C1720 1.524 . S
C1721 C1722 1.397 . S
C1721 C1726 1.363 . S
C1722 H1699 0.950 . S
C1722 C1721 1.397 . S
C1722 C1723 1.334 . S
C1723 H1700 0.950 . S
C1723 C1722 1.334 . S
C1723 C1724 1.287 . S
C1724 C1723 1.287 . S
C1724 C1725 1.524 . S
C1724 H1743 0.913 . S
C1725 H1701 0.950 . S
C1725 C1724 1.524 . S
C1725 C1726 1.415 . S
C1726 H1702 0.950 . S
C1726 C1721 1.363 . S
C1726 C1725 1.415 . S
C1727 H1703 0.951 . S
C1727 C1728 1.366 . S
C1727 C1729 1.388 . S
C1728 C1727 1.366 . S
C1728 C1732 1.385 . S
C1729 H1704 0.951 . S
C1729 C1727 1.388 . S
C1729 C1730 1.366 . S
C1730 C1729 1.366 . S
C1730 C1731 1.414 . S
C1730 C1733 1.499 . S
C1731 H1705 0.950 . S
C1731 C1730 1.414 . S
C1731 C1732 1.374 . S
C1732 H1706 0.950 . S
C1732 C1728 1.385 . S
C1732 C1731 1.374 . S
C1733 C1730 1.499 . S
C1733 C1734 1.373 . S
C1733 C1735 1.389 . S
C1734 H1707 0.950 . S
C1734 C1720 1.377 . S
C1734 C1733 1.373 . S
C1735 C1719 1.377 . S
C1735 C1733 1.389 . S
C1735 C1736 1.524 . S
C1736 C1735 1.524 . S
C1736 C1737 1.397 . S
C1736 C1741 1.363 . S
C1737 H1708 0.950 . S
C1737 C1736 1.397 . S
C1737 C1738 1.334 . S
C1738 H1709 0.950 . S
C1738 C1737 1.334 . S
C1738 C1739 1.287 . S
C1739 C1738 1.287 . S
C1739 C1740 1.524 . S
C1739 H1742 0.999 . S
C1740 H1710 0.950 . S
C1740 C1739 1.524 . S
C1740 C1741 1.415 . S
C1741 H1711 0.950 . S
C1741 C1736 1.363 . S
C1741 C1740 1.415 . S
H1742 C1739 0.999 . S
H1743 C1724 0.913 . S
H1744 C1762 0.951 . S
H1745 C1764 0.951 . S
H1746 C1766 0.950 . S
H1747 C1767 0.950 . S
H1748 C1769 0.950 . S
H1749 C1772 0.950 . S
H1750 C1773 0.950 . S
H1751 C1775 0.950 . S
H1752 C1776 0.950 . S
H1753 C1777 0.951 . S
H1754 C1779 0.951 . S
H1755 C1781 0.950 . S
H1756 C1782 0.950 . S
H1757 C1784 0.950 . S
H1758 C1787 0.950 . S
H1759 C1788 0.950 . S
H1760 C1790 0.950 . S
H1761 C1791 0.950 . S
C1762 H1744 0.951 . S
C1762 C1763 1.366 . S
C1762 C1764 1.388 . S
C1763 C1762 1.366 . S
C1763 C1767 1.385 . S
C1764 H1745 0.951 . S
C1764 C1762 1.388 . S
C1764 C1765 1.366 . S
C1765 C1764 1.366 . S
C1765 C1766 1.414 . S
C1765 C1768 1.499 . S
C1766 H1746 0.950 . S
C1766 C1765 1.414 . S
C1766 C1767 1.374 . S
C1767 H1747 0.950 . S
C1767 C1763 1.385 . S
C1767 C1766 1.374 . S
C1768 C1765 1.499 . S
C1768 C1769 1.373 . S
C1768 C1770 1.389 . S
C1769 H1748 0.950 . S
C1769 C1768 1.373 . S
C1769 C1785 1.377 . S
C1770 C1768 1.389 . S
C1770 C1771 1.524 . S
C1770 C1784 1.377 . S
C1771 C1770 1.524 . S
C1771 C1772 1.397 . S
C1771 C1776 1.363 . S
C1772 H1749 0.950 . S
C1772 C1771 1.397 . S
C1772 C1773 1.334 . S
C1773 H1750 0.950 . S
C1773 C1772 1.334 . S
C1773 C1774 1.287 . S
C1774 C1773 1.287 . S
C1774 C1775 1.524 . S
C1774 H1793 0.913 . S
C1775 H1751 0.950 . S
C1775 C1774 1.524 . S
C1775 C1776 1.415 . S
C1776 H1752 0.950 . S
C1776 C1771 1.363 . S
C1776 C1775 1.415 . S
C1777 H1753 0.951 . S
C1777 C1778 1.366 . S
C1777 C1779 1.388 . S
C1778 C1777 1.366 . S
C1778 C1782 1.385 . S
C1779 H1754 0.951 . S
C1779 C1777 1.388 . S
C1779 C1780 1.366 . S
C1780 C1779 1.366 . S
C1780 C1781 1.414 . S
C1780 C1783 1.499 . S
C1781 H1755 0.950 . S
C1781 C1780 1.414 . S
C1781 C1782 1.374 . S
C1782 H1756 0.950 . S
C1782 C1778 1.385 . S
C1782 C1781 1.374 . S
C1783 C1780 1.499 . S
C1783 C1784 1.373 . S
C1783 C1785 1.389 . S
C1784 H1757 0.950 . S
C1784 C1770 1.377 . S
C1784 C1783 1.373 . S
C1785 C1769 1.377 . S
C1785 C1783 1.389 . S
C1785 C1786 1.524 . S
C1786 C1785 1.524 . S
C1786 C1787 1.397 . S
C1786 C1791 1.363 . S
C1787 H1758 0.950 . S
C1787 C1786 1.397 . S
C1787 C1788 1.334 . S
C1788 H1759 0.950 . S
C1788 C1787 1.334 . S
C1788 C1789 1.287 . S
C1789 C1788 1.287 . S
C1789 C1790 1.524 . S
C1789 H1792 0.999 . S
C1790 H1760 0.950 . S
C1790 C1789 1.524 . S
C1790 C1791 1.415 . S
C1791 H1761 0.950 . S
C1791 C1786 1.363 . S
C1791 C1790 1.415 . S
H1792 C1789 0.999 . S
H1793 C1774 0.913 . S
H1794 C1812 0.951 . S
H1795 C1814 0.951 . S
H1796 C1816 0.950 . S
H1797 C1817 0.950 . S
H1798 C1819 0.950 . S
H1799 C1822 0.950 . S
H1800 C1823 0.950 . S
H1801 C1825 0.944 1_455 S
H1802 C1826 0.950 . S
H1803 C1827 0.951 . S
H1804 C1829 0.951 . S
H1805 C1831 0.950 . S
H1806 C1832 0.950 . S
H1807 C1834 0.950 . S
H1808 C1837 0.950 . S
H1809 C1838 0.950 . S
H1810 C1840 0.944 1_655 S
H1811 C1841 0.950 . S
C1812 H1794 0.951 . S
C1812 C1813 1.366 . S
C1812 C1814 1.388 . S
C1813 C1812 1.366 . S
C1813 C1817 1.385 . S
C1814 H1795 0.951 . S
C1814 C1812 1.388 . S
C1814 C1815 1.366 . S
C1815 C1814 1.366 . S
C1815 C1816 1.414 . S
C1815 C1818 1.499 . S
C1816 H1796 0.950 . S
C1816 C1815 1.414 . S
C1816 C1817 1.374 . S
C1817 H1797 0.950 . S
C1817 C1813 1.385 . S
C1817 C1816 1.374 . S
C1818 C1815 1.499 . S
C1818 C1819 1.373 . S
C1818 C1820 1.389 . S
C1819 H1798 0.950 . S
C1819 C1818 1.373 . S
C1819 C1835 1.377 1_654 S
C1820 C1818 1.389 . S
C1820 C1821 1.524 . S
C1820 C1834 1.377 1_654 S
C1821 C1820 1.524 . S
C1821 C1822 1.397 . S
C1821 C1826 1.363 1_655 S
C1822 H1799 0.950 . S
C1822 C1821 1.397 . S
C1822 C1823 1.334 . S
C1823 H1800 0.950 . S
C1823 C1822 1.334 . S
C1823 C1824 1.287 . S
C1824 C1823 1.287 . S
C1824 C1825 1.545 . S
C1824 H1843 0.913 . S
C1825 H1801 0.944 1_655 S
C1825 C1824 1.545 . S
C1825 C1826 1.401 1_655 S
C1826 H1802 0.950 . S
C1826 C1821 1.363 1_455 S
C1826 C1825 1.401 1_455 S
C1827 H1803 0.951 . S
C1827 C1828 1.366 . S
C1827 C1829 1.388 . S
C1828 C1827 1.366 . S
C1828 C1832 1.385 . S
C1829 H1804 0.951 . S
C1829 C1827 1.388 . S
C1829 C1830 1.366 . S
C1830 C1829 1.366 . S
C1830 C1831 1.414 . S
C1830 C1833 1.499 . S
C1831 H1805 0.950 . S
C1831 C1830 1.414 . S
C1831 C1832 1.374 . S
C1832 H1806 0.950 . S
C1832 C1828 1.385 . S
C1832 C1831 1.374 . S
C1833 C1830 1.499 . S
C1833 C1834 1.373 . S
C1833 C1835 1.389 . S
C1834 H1807 0.950 . S
C1834 C1820 1.377 1_456 S
C1834 C1833 1.373 . S
C1835 C1819 1.377 1_456 S
C1835 C1833 1.389 . S
C1835 C1836 1.524 . S
C1836 C1835 1.524 . S
C1836 C1837 1.397 . S
C1836 C1841 1.363 1_455 S
C1837 H1808 0.950 . S
C1837 C1836 1.397 . S
C1837 C1838 1.334 . S
C1838 H1809 0.950 . S
C1838 C1837 1.334 . S
C1838 C1839 1.287 . S
C1839 C1838 1.287 . S
C1839 C1840 1.545 . S
C1839 H1842 0.999 . S
C1840 H1810 0.944 1_455 S
C1840 C1839 1.545 . S
C1840 C1841 1.401 1_455 S
C1841 H1811 0.950 . S
C1841 C1836 1.363 1_655 S
C1841 C1840 1.401 1_655 S
H1842 C1839 0.999 . S
H1843 C1824 0.913 . S
H1844 C1862 0.951 . S
H1845 C1864 0.951 . S
H1846 C1866 0.950 . S
H1847 C1867 0.950 . S
H1848 C1869 0.950 . S
H1849 C1872 0.950 . S
H1850 C1873 0.950 . S
H1851 C1875 0.950 . S
H1852 C1876 0.950 . S
H1853 C1877 0.951 . S
H1854 C1879 0.951 . S
H1855 C1881 0.950 . S
H1856 C1882 0.950 . S
H1857 C1884 0.950 . S
H1858 C1887 0.950 . S
H1859 C1888 0.950 . S
H1860 C1890 0.950 . S
H1861 C1891 0.950 . S
C1862 H1844 0.951 . S
C1862 C1863 1.366 . S
C1862 C1864 1.388 . S
C1863 C1862 1.366 . S
C1863 C1867 1.385 . S
C1864 H1845 0.951 . S
C1864 C1862 1.388 . S
C1864 C1865 1.366 . S
C1865 C1864 1.366 . S
C1865 C1866 1.414 . S
C1865 C1868 1.499 . S
C1866 H1846 0.950 . S
C1866 C1865 1.414 . S
C1866 C1867 1.374 . S
C1867 H1847 0.950 . S
C1867 C1863 1.385 . S
C1867 C1866 1.374 . S
C1868 C1865 1.499 . S
C1868 C1869 1.373 . S
C1868 C1870 1.389 1_556 S
C1869 H1848 0.950 . S
C1869 C1868 1.373 . S
C1869 C1885 1.377 . S
C1870 C1868 1.389 1_554 S
C1870 C1871 1.524 . S
C1870 C1884 1.377 . S
C1871 C1870 1.524 . S
C1871 C1872 1.397 . S
C1871 C1876 1.363 . S
C1872 H1849 0.950 . S
C1872 C1871 1.397 . S
C1872 C1873 1.334 . S
C1873 H1850 0.950 . S
C1873 C1872 1.334 . S
C1873 C1874 1.287 . S
C1874 C1873 1.287 . S
C1874 C1875 1.524 . S
C1874 H1893 0.913 . S
C1875 H1851 0.950 . S
C1875 C1874 1.524 . S
C1875 C1876 1.415 . S
C1876 H1852 0.950 . S
C1876 C1871 1.363 . S
C1876 C1875 1.415 . S
C1877 H1853 0.951 . S
C1877 C1878 1.366 . S
C1877 C1879 1.388 . S
C1878 C1877 1.366 . S
C1878 C1882 1.385 . S
C1879 H1854 0.951 . S
C1879 C1877 1.388 . S
C1879 C1880 1.366 . S
C1880 C1879 1.366 . S
C1880 C1881 1.414 . S
C1880 C1883 1.499 . S
C1881 H1855 0.950 . S
C1881 C1880 1.414 . S
C1881 C1882 1.374 . S
C1882 H1856 0.950 . S
C1882 C1878 1.385 . S
C1882 C1881 1.374 . S
C1883 C1880 1.499 . S
C1883 C1884 1.373 . S
C1883 C1885 1.389 1_554 S
C1884 H1857 0.950 . S
C1884 C1870 1.377 . S
C1884 C1883 1.373 . S
C1885 C1869 1.377 . S
C1885 C1883 1.389 1_556 S
C1885 C1886 1.524 . S
C1886 C1885 1.524 . S
C1886 C1887 1.397 . S
C1886 C1891 1.363 . S
C1887 H1858 0.950 . S
C1887 C1886 1.397 . S
C1887 C1888 1.334 . S
C1888 H1859 0.950 . S
C1888 C1887 1.334 . S
C1888 C1889 1.287 . S
C1889 C1888 1.287 . S
C1889 C1890 1.524 . S
C1889 H1892 0.999 . S
C1890 H1860 0.950 . S
C1890 C1889 1.524 . S
C1890 C1891 1.415 . S
C1891 H1861 0.950 . S
C1891 C1886 1.363 . S
C1891 C1890 1.415 . S
H1892 C1889 0.999 . S
H1893 C1874 0.913 . S
H1894 C1912 0.951 . S
H1895 C1914 0.951 . S
H1896 C1916 0.950 . S
H1897 C1917 0.950 . S
H1898 C1919 0.950 . S
H1899 C1922 0.950 . S
H1900 C1923 0.950 1_556 S
H1901 C1925 0.950 . S
H1902 C1926 0.950 1_565 S
H1903 C1927 0.951 . S
H1904 C1929 0.951 . S
H1905 C1931 0.950 . S
H1906 C1932 0.950 . S
H1907 C1934 0.950 . S
H1908 C1937 0.950 . S
H1909 C1938 0.950 1_554 S
H1910 C1940 0.950 . S
H1911 C1941 0.950 1_545 S
C1912 H1894 0.951 . S
C1912 C1913 1.366 . S
C1912 C1914 1.388 . S
C1913 C1912 1.366 . S
C1913 C1917 1.385 . S
C1914 H1895 0.951 . S
C1914 C1912 1.388 . S
C1914 C1915 1.366 . S
C1915 C1914 1.366 . S
C1915 C1916 1.414 . S
C1915 C1918 1.499 . S
C1916 H1896 0.950 . S
C1916 C1915 1.414 . S
C1916 C1917 1.374 . S
C1917 H1897 0.950 . S
C1917 C1913 1.385 . S
C1917 C1916 1.374 . S
C1918 C1915 1.499 . S
C1918 C1919 1.373 . S
C1918 C1920 1.389 . S
C1919 H1898 0.950 . S
C1919 C1918 1.373 . S
C1919 C1935 1.377 1_544 S
C1920 C1918 1.389 . S
C1920 C1921 1.524 . S
C1920 C1934 1.377 1_544 S
C1921 C1920 1.524 . S
C1921 C1922 1.397 1_554 S
C1921 C1926 1.363 . S
C1922 H1899 0.950 . S
C1922 C1921 1.397 1_556 S
C1922 C1923 1.334 1_556 S
C1923 H1900 0.950 1_554 S
C1923 C1922 1.334 1_554 S
C1923 C1924 1.287 . S
C1924 C1923 1.287 . S
C1924 C1925 1.524 . S
C1924 H1943 0.913 . S
C1925 H1901 0.950 . S
C1925 C1924 1.524 . S
C1925 C1926 1.415 . S
C1926 H1902 0.950 1_545 S
C1926 C1921 1.363 . S
C1926 C1925 1.415 . S
C1927 H1903 0.951 . S
C1927 C1928 1.366 . S
C1927 C1929 1.388 . S
C1928 C1927 1.366 . S
C1928 C1932 1.385 . S
C1929 H1904 0.951 . S
C1929 C1927 1.388 . S
C1929 C1930 1.366 . S
C1930 C1929 1.366 . S
C1930 C1931 1.414 . S
C1930 C1933 1.499 . S
C1931 H1905 0.950 . S
C1931 C1930 1.414 . S
C1931 C1932 1.374 . S
C1932 H1906 0.950 . S
C1932 C1928 1.385 . S
C1932 C1931 1.374 . S
C1933 C1930 1.499 . S
C1933 C1934 1.373 . S
C1933 C1935 1.389 . S
C1934 H1907 0.950 . S
C1934 C1920 1.377 1_566 S
C1934 C1933 1.373 . S
C1935 C1919 1.377 1_566 S
C1935 C1933 1.389 . S
C1935 C1936 1.524 . S
C1936 C1935 1.524 . S
C1936 C1937 1.397 1_556 S
C1936 C1941 1.363 . S
C1937 H1908 0.950 . S
C1937 C1936 1.397 1_554 S
C1937 C1938 1.334 1_554 S
C1938 H1909 0.950 1_556 S
C1938 C1937 1.334 1_556 S
C1938 C1939 1.287 . S
C1939 C1938 1.287 . S
C1939 C1940 1.524 . S
C1939 H1942 0.999 . S
C1940 H1910 0.950 . S
C1940 C1939 1.524 . S
C1940 C1941 1.415 . S
C1941 H1911 0.950 1_565 S
C1941 C1936 1.363 . S
C1941 C1940 1.415 . S
H1942 C1939 0.999 . S
H1943 C1924 0.913 . S
H1944 C1962 0.951 . S
H1945 C1964 0.951 . S
H1946 C1966 0.950 . S
H1947 C1967 0.950 1_556 S
H1948 C1969 0.950 . S
H1949 C1972 0.950 . S
H1950 C1973 0.950 . S
H1951 C1975 0.950 . S
H1952 C1976 0.950 . S
H1953 C1977 0.951 . S
H1954 C1979 0.951 . S
H1955 C1981 0.950 . S
H1956 C1982 0.950 1_554 S
H1957 C1984 0.950 . S
H1958 C1987 0.950 . S
H1959 C1988 0.950 . S
H1960 C1990 0.950 . S
H1961 C1991 0.950 . S
C1962 H1944 0.951 . S
C1962 C1963 1.366 . S
C1962 C1964 1.388 . S
C1963 C1962 1.366 . S
C1963 C1967 1.385 . S
C1964 H1945 0.951 . S
C1964 C1962 1.388 . S
C1964 C1965 1.366 . S
C1965 C1964 1.366 . S
C1965 C1966 1.414 1_554 S
C1965 C1968 1.499 . S
C1966 H1946 0.950 . S
C1966 C1965 1.414 1_556 S
C1966 C1967 1.374 1_556 S
C1967 H1947 0.950 1_554 S
C1967 C1963 1.385 . S
C1967 C1966 1.374 1_554 S
C1968 C1965 1.499 . S
C1968 C1969 1.373 1_554 S
C1968 C1970 1.389 . S
C1969 H1948 0.950 . S
C1969 C1968 1.373 1_556 S
C1969 C1985 1.377 . S
C1970 C1968 1.389 . S
C1970 C1971 1.524 . S
C1970 C1984 1.377 . S
C1971 C1970 1.524 . S
C1971 C1972 1.397 . S
C1971 C1976 1.363 . S
C1972 H1949 0.950 . S
C1972 C1971 1.397 . S
C1972 C1973 1.334 . S
C1973 H1950 0.950 . S
C1973 C1972 1.334 . S
C1973 C1974 1.287 . S
C1974 C1973 1.287 . S
C1974 C1975 1.524 . S
C1974 H1993 0.913 . S
C1975 H1951 0.950 . S
C1975 C1974 1.524 . S
C1975 C1976 1.415 . S
C1976 H1952 0.950 . S
C1976 C1971 1.363 . S
C1976 C1975 1.415 . S
C1977 H1953 0.951 . S
C1977 C1978 1.366 . S
C1977 C1979 1.388 . S
C1978 C1977 1.366 . S
C1978 C1982 1.385 . S
C1979 H1954 0.951 . S
C1979 C1977 1.388 . S
C1979 C1980 1.366 . S
C1980 C1979 1.366 . S
C1980 C1981 1.414 1_556 S
C1980 C1983 1.499 . S
C1981 H1955 0.950 . S
C1981 C1980 1.414 1_554 S
C1981 C1982 1.374 1_554 S
C1982 H1956 0.950 1_556 S
C1982 C1978 1.385 . S
C1982 C1981 1.374 1_556 S
C1983 C1980 1.499 . S
C1983 C1984 1.373 1_556 S
C1983 C1985 1.389 . S
C1984 H1957 0.950 . S
C1984 C1970 1.377 . S
C1984 C1983 1.373 1_554 S
C1985 C1969 1.377 . S
C1985 C1983 1.389 . S
C1985 C1986 1.524 . S
C1986 C1985 1.524 . S
C1986 C1987 1.397 . S
C1986 C1991 1.363 . S
C1987 H1958 0.950 . S
C1987 C1986 1.397 . S
C1987 C1988 1.334 . S
C1988 H1959 0.950 . S
C1988 C1987 1.334 . S
C1988 C1989 1.287 . S
C1989 C1988 1.287 . S
C1989 C1990 1.524 . S
C1989 H1992 0.999 . S
C1990 H1960 0.950 . S
C1990 C1989 1.524 . S
C1990 C1991 1.415 . S
C1991 H1961 0.950 . S
C1991 C1986 1.363 . S
C1991 C1990 1.415 . S
H1992 C1989 0.999 . S
H1993 C1974 0.913 . S
H1994 C2012 0.951 . S
H1995 C2014 0.951 . S
H1996 C2016 0.950 . S
H1997 C2017 0.950 . S
H1998 C2019 0.950 . S
H1999 C2022 0.950 . S
H2000 C2023 0.950 . S
H2001 C2025 0.950 . S
H2002 C2026 0.958 . S
H2003 C2027 0.951 . S
H2004 C2029 0.951 . S
H2005 C2031 0.950 . S
H2006 C2032 0.950 . S
H2007 C2034 0.950 . S
H2008 C2037 0.950 . S
H2009 C2038 0.950 . S
H2010 C2040 0.950 . S
H2011 C2041 0.958 . S
C2012 H1994 0.951 . S
C2012 C2013 1.366 . S
C2012 C2014 1.388 . S
C2013 C2012 1.366 . S
C2013 C2017 1.385 . S
C2014 H1995 0.951 . S
C2014 C2012 1.388 . S
C2014 C2015 1.366 . S
C2015 C2014 1.366 . S
C2015 C2016 1.414 . S
C2015 C2018 1.499 . S
C2016 H1996 0.950 . S
C2016 C2015 1.414 . S
C2016 C2017 1.374 . S
C2017 H1997 0.950 . S
C2017 C2013 1.385 . S
C2017 C2016 1.374 . S
C2018 C2015 1.499 . S
C2018 C2019 1.373 1_554 S
C2018 C2020 1.389 . S
C2019 H1998 0.950 . S
C2019 C2018 1.373 1_556 S
C2019 C2035 1.377 1_565 S
C2020 C2018 1.389 . S
C2020 C2021 1.524 . S
C2020 C2034 1.377 1_565 S
C2021 C2020 1.524 . S
C2021 C2022 1.397 . S
C2021 C2026 1.363 . S
C2022 H1999 0.950 . S
C2022 C2021 1.397 . S
C2022 C2023 1.334 . S
C2023 H2000 0.950 . S
C2023 C2022 1.334 . S
C2023 C2024 1.287 . S
C2024 C2023 1.287 . S
C2024 C2025 1.524 . S
C2024 H2043 0.913 . S
C2025 H2001 0.950 . S
C2025 C2024 1.524 . S
C2025 C2026 1.415 . S
C2026 H2002 0.958 . S
C2026 C2021 1.363 . S
C2026 C2025 1.415 . S
C2027 H2003 0.951 . S
C2027 C2028 1.366 . S
C2027 C2029 1.388 . S
C2028 C2027 1.366 . S
C2028 C2032 1.385 . S
C2029 H2004 0.951 . S
C2029 C2027 1.388 . S
C2029 C2030 1.366 . S
C2030 C2029 1.366 . S
C2030 C2031 1.414 . S
C2030 C2033 1.499 . S
C2031 H2005 0.950 . S
C2031 C2030 1.414 . S
C2031 C2032 1.374 . S
C2032 H2006 0.950 . S
C2032 C2028 1.385 . S
C2032 C2031 1.374 . S
C2033 C2030 1.499 . S
C2033 C2034 1.373 1_556 S
C2033 C2035 1.389 . S
C2034 H2007 0.950 . S
C2034 C2020 1.377 1_545 S
C2034 C2033 1.373 1_554 S
C2035 C2019 1.377 1_545 S
C2035 C2033 1.389 . S
C2035 C2036 1.524 . S
C2036 C2035 1.524 . S
C2036 C2037 1.397 . S
C2036 C2041 1.363 . S
C2037 H2008 0.950 . S
C2037 C2036 1.397 . S
C2037 C2038 1.334 . S
C2038 H2009 0.950 . S
C2038 C2037 1.334 . S
C2038 C2039 1.287 . S
C2039 C2038 1.287 . S
C2039 C2040 1.524 . S
C2039 H2042 0.999 . S
C2040 H2010 0.950 . S
C2040 C2039 1.524 . S
C2040 C2041 1.415 . S
C2041 H2011 0.958 . S
C2041 C2036 1.363 . S
C2041 C2040 1.415 . S
H2042 C2039 0.999 . S
H2043 C2024 0.913 . S
H2044 C2062 0.951 . S
H2045 C2064 0.951 1_554 S
H2046 C2066 0.950 . S
H2047 C2067 0.950 . S
H2048 C2069 0.950 . S
H2049 C2072 0.950 . S
H2050 C2073 0.950 . S
H2051 C2075 0.950 . S
H2052 C2076 0.950 . S
H2053 C2077 0.951 . S
H2054 C2079 0.951 1_556 S
H2055 C2081 0.950 . S
H2056 C2082 0.950 . S
H2057 C2084 0.950 . S
H2058 C2087 0.950 . S
H2059 C2088 0.950 . S
H2060 C2090 0.950 . S
H2061 C2091 0.950 . S
C2062 H2044 0.951 . S
C2062 C2063 1.366 . S
C2062 C2064 1.388 . S
C2063 C2062 1.366 . S
C2063 C2067 1.385 . S
C2064 H2045 0.951 1_556 S
C2064 C2062 1.388 . S
C2064 C2065 1.366 . S
C2065 C2064 1.366 . S
C2065 C2066 1.414 . S
C2065 C2068 1.499 . S
C2066 H2046 0.950 . S
C2066 C2065 1.414 . S
C2066 C2067 1.374 . S
C2067 H2047 0.950 . S
C2067 C2063 1.385 . S
C2067 C2066 1.374 . S
C2068 C2065 1.499 . S
C2068 C2069 1.373 . S
C2068 C2070 1.389 1_556 S
C2069 H2048 0.950 . S
C2069 C2068 1.373 . S
C2069 C2085 1.377 1_655 S
C2070 C2068 1.389 1_554 S
C2070 C2071 1.524 . S
C2070 C2084 1.377 1_655 S
C2071 C2070 1.524 . S
C2071 C2072 1.397 . S
C2071 C2076 1.363 . S
C2072 H2049 0.950 . S
C2072 C2071 1.397 . S
C2072 C2073 1.334 . S
C2073 H2050 0.950 . S
C2073 C2072 1.334 . S
C2073 C2074 1.287 . S
C2074 C2073 1.287 . S
C2074 C2075 1.524 . S
C2074 H2093 0.913 . S
C2075 H2051 0.950 . S
C2075 C2074 1.524 . S
C2075 C2076 1.415 . S
C2076 H2052 0.950 . S
C2076 C2071 1.363 . S
C2076 C2075 1.415 . S
C2077 H2053 0.951 . S
C2077 C2078 1.366 . S
C2077 C2079 1.388 . S
C2078 C2077 1.366 . S
C2078 C2082 1.385 . S
C2079 H2054 0.951 1_554 S
C2079 C2077 1.388 . S
C2079 C2080 1.366 . S
C2080 C2079 1.366 . S
C2080 C2081 1.414 . S
C2080 C2083 1.499 . S
C2081 H2055 0.950 . S
C2081 C2080 1.414 . S
C2081 C2082 1.374 . S
C2082 H2056 0.950 . S
C2082 C2078 1.385 . S
C2082 C2081 1.374 . S
C2083 C2080 1.499 . S
C2083 C2084 1.373 . S
C2083 C2085 1.389 1_554 S
C2084 H2057 0.950 . S
C2084 C2070 1.377 1_455 S
C2084 C2083 1.373 . S
C2085 C2069 1.377 1_455 S
C2085 C2083 1.389 1_556 S
C2085 C2086 1.524 . S
C2086 C2085 1.524 . S
C2086 C2087 1.397 . S
C2086 C2091 1.363 . S
C2087 H2058 0.950 . S
C2087 C2086 1.397 . S
C2087 C2088 1.334 . S
C2088 H2059 0.950 . S
C2088 C2087 1.334 . S
C2088 C2089 1.287 . S
C2089 C2088 1.287 . S
C2089 C2090 1.524 . S
C2089 H2092 0.999 . S
C2090 H2060 0.950 . S
C2090 C2089 1.524 . S
C2090 C2091 1.415 . S
C2091 H2061 0.950 . S
C2091 C2086 1.363 . S
C2091 C2090 1.415 . S
H2092 C2089 0.999 . S
H2093 C2074 0.913 . S
H2094 C2112 0.951 . S
H2095 C2114 0.951 . S
H2096 C2116 0.950 . S
H2097 C2117 0.950 . S
H2098 C2119 0.950 . S
H2099 C2122 0.950 . S
H2100 C2123 0.950 . S
H2101 C2125 0.950 . S
H2102 C2126 0.950 . S
H2103 C2127 0.951 . S
H2104 C2129 0.951 . S
H2105 C2131 0.950 . S
H2106 C2132 0.950 . S
H2107 C2134 0.950 . S
H2108 C2137 0.950 . S
H2109 C2138 0.950 . S
H2110 C2140 0.950 . S
H2111 C2141 0.950 . S
C2112 H2094 0.951 . S
C2112 C2113 1.366 . S
C2112 C2114 1.388 . S
C2113 C2112 1.366 . S
C2113 C2117 1.385 . S
C2114 H2095 0.951 . S
C2114 C2112 1.388 . S
C2114 C2115 1.366 . S
C2115 C2114 1.366 . S
C2115 C2116 1.414 . S
C2115 C2118 1.499 . S
C2116 H2096 0.950 . S
C2116 C2115 1.414 . S
C2116 C2117 1.374 . S
C2117 H2097 0.950 . S
C2117 C2113 1.385 . S
C2117 C2116 1.374 . S
C2118 C2115 1.499 . S
C2118 C2119 1.373 1_556 S
C2118 C2120 1.389 . S
C2119 H2098 0.950 . S
C2119 C2118 1.373 1_554 S
C2119 C2135 1.377 . S
C2120 C2118 1.389 . S
C2120 C2121 1.524 . S
C2120 C2134 1.377 . S
C2121 C2120 1.524 . S
C2121 C2122 1.397 . S
C2121 C2126 1.363 . S
C2122 H2099 0.950 . S
C2122 C2121 1.397 . S
C2122 C2123 1.334 . S
C2123 H2100 0.950 . S
C2123 C2122 1.334 . S
C2123 C2124 1.287 . S
C2124 C2123 1.287 . S
C2124 C2125 1.524 . S
C2124 H2143 0.913 . S
C2125 H2101 0.950 . S
C2125 C2124 1.524 . S
C2125 C2126 1.415 . S
C2126 H2102 0.950 . S
C2126 C2121 1.363 . S
C2126 C2125 1.415 . S
C2127 H2103 0.951 . S
C2127 C2128 1.366 . S
C2127 C2129 1.388 . S
C2128 C2127 1.366 . S
C2128 C2132 1.385 . S
C2129 H2104 0.951 . S
C2129 C2127 1.388 . S
C2129 C2130 1.366 . S
C2130 C2129 1.366 . S
C2130 C2131 1.414 . S
C2130 C2133 1.499 . S
C2131 H2105 0.950 . S
C2131 C2130 1.414 . S
C2131 C2132 1.374 . S
C2132 H2106 0.950 . S
C2132 C2128 1.385 . S
C2132 C2131 1.374 . S
C2133 C2130 1.499 . S
C2133 C2134 1.373 1_554 S
C2133 C2135 1.389 . S
C2134 H2107 0.950 . S
C2134 C2120 1.377 . S
C2134 C2133 1.373 1_556 S
C2135 C2119 1.377 . S
C2135 C2133 1.389 . S
C2135 C2136 1.524 . S
C2136 C2135 1.524 . S
C2136 C2137 1.397 . S
C2136 C2141 1.363 . S
C2137 H2108 0.950 . S
C2137 C2136 1.397 . S
C2137 C2138 1.334 . S
C2138 H2109 0.950 . S
C2138 C2137 1.334 . S
C2138 C2139 1.287 . S
C2139 C2138 1.287 . S
C2139 C2140 1.524 . S
C2139 H2142 0.999 . S
C2140 H2110 0.950 . S
C2140 C2139 1.524 . S
C2140 C2141 1.415 . S
C2141 H2111 0.950 . S
C2141 C2136 1.363 . S
C2141 C2140 1.415 . S
H2142 C2139 0.999 . S
H2143 C2124 0.913 . S
H2144 C2162 0.951 . S
H2145 C2164 0.951 . S
H2146 C2166 0.950 . S
H2147 C2167 0.950 . S
H2148 C2169 0.950 . S
H2149 C2172 0.950 . S
H2150 C2173 0.950 . S
H2151 C2175 0.950 . S
H2152 C2176 0.950 . S
H2153 C2177 0.951 . S
H2154 C2179 0.951 . S
H2155 C2181 0.950 . S
H2156 C2182 0.950 . S
H2157 C2184 0.950 . S
H2158 C2187 0.950 . S
H2159 C2188 0.950 . S
H2160 C2190 0.950 . S
H2161 C2191 0.950 . S
C2162 H2144 0.951 . S
C2162 C2163 1.366 . S
C2162 C2164 1.388 . S
C2163 C2162 1.366 . S
C2163 C2167 1.385 . S
C2164 H2145 0.951 . S
C2164 C2162 1.388 . S
C2164 C2165 1.366 . S
C2165 C2164 1.366 . S
C2165 C2166 1.414 . S
C2165 C2168 1.499 . S
C2166 H2146 0.950 . S
C2166 C2165 1.414 . S
C2166 C2167 1.374 . S
C2167 H2147 0.950 . S
C2167 C2163 1.385 . S
C2167 C2166 1.374 . S
C2168 C2165 1.499 . S
C2168 C2169 1.373 . S
C2168 C2170 1.389 1_556 S
C2169 H2148 0.950 . S
C2169 C2168 1.373 . S
C2169 C2185 1.377 1_545 S
C2170 C2168 1.389 1_554 S
C2170 C2171 1.524 . S
C2170 C2184 1.377 1_545 S
C2171 C2170 1.524 . S
C2171 C2172 1.397 . S
C2171 C2176 1.363 . S
C2172 H2149 0.950 . S
C2172 C2171 1.397 . S
C2172 C2173 1.334 . S
C2173 H2150 0.950 . S
C2173 C2172 1.334 . S
C2173 C2174 1.287 . S
C2174 C2173 1.287 . S
C2174 C2175 1.524 . S
C2174 H2193 0.913 . S
C2175 H2151 0.950 . S
C2175 C2174 1.524 . S
C2175 C2176 1.415 . S
C2176 H2152 0.950 . S
C2176 C2171 1.363 . S
C2176 C2175 1.415 . S
C2177 H2153 0.951 . S
C2177 C2178 1.366 . S
C2177 C2179 1.388 . S
C2178 C2177 1.366 . S
C2178 C2182 1.385 . S
C2179 H2154 0.951 . S
C2179 C2177 1.388 . S
C2179 C2180 1.366 . S
C2180 C2179 1.366 . S
C2180 C2181 1.414 . S
C2180 C2183 1.499 . S
C2181 H2155 0.950 . S
C2181 C2180 1.414 . S
C2181 C2182 1.374 . S
C2182 H2156 0.950 . S
C2182 C2178 1.385 . S
C2182 C2181 1.374 . S
C2183 C2180 1.499 . S
C2183 C2184 1.373 . S
C2183 C2185 1.389 1_554 S
C2184 H2157 0.950 . S
C2184 C2170 1.377 1_565 S
C2184 C2183 1.373 . S
C2185 C2169 1.377 1_565 S
C2185 C2183 1.389 1_556 S
C2185 C2186 1.524 . S
C2186 C2185 1.524 . S
C2186 C2187 1.397 . S
C2186 C2191 1.363 . S
C2187 H2158 0.950 . S
C2187 C2186 1.397 . S
C2187 C2188 1.334 . S
C2188 H2159 0.950 . S
C2188 C2187 1.334 . S
C2188 C2189 1.287 . S
C2189 C2188 1.287 . S
C2189 C2190 1.524 . S
C2189 H2192 0.999 . S
C2190 H2160 0.950 . S
C2190 C2189 1.524 . S
C2190 C2191 1.415 . S
C2191 H2161 0.950 . S
C2191 C2186 1.363 . S
C2191 C2190 1.415 . S
H2192 C2189 0.999 . S
H2193 C2174 0.913 . S
H2194 C2212 0.951 . S
H2195 C2214 0.951 . S
H2196 C2216 0.950 . S
H2197 C2217 0.950 . S
H2198 C2219 0.950 . S
H2199 C2222 0.950 . S
H2200 C2223 0.950 . S
H2201 C2225 0.950 . S
H2202 C2226 0.971 . S
H2203 C2227 0.951 . S
H2204 C2229 0.951 . S
H2205 C2231 0.950 . S
H2206 C2232 0.950 . S
H2207 C2234 0.950 . S
H2208 C2237 0.950 . S
H2209 C2238 0.950 . S
H2210 C2240 0.950 . S
H2211 C2241 0.971 . S
C2212 H2194 0.951 . S
C2212 C2213 1.366 . S
C2212 C2214 1.388 . S
C2213 C2212 1.366 . S
C2213 C2217 1.385 . S
C2214 H2195 0.951 . S
C2214 C2212 1.388 . S
C2214 C2215 1.366 . S
C2215 C2214 1.366 . S
C2215 C2216 1.414 . S
C2215 C2218 1.499 . S
C2216 H2196 0.950 . S
C2216 C2215 1.414 . S
C2216 C2217 1.374 . S
C2217 H2197 0.950 . S
C2217 C2213 1.385 . S
C2217 C2216 1.374 . S
C2218 C2215 1.499 . S
C2218 C2219 1.373 1_556 S
C2218 C2220 1.389 . S
C2219 H2198 0.950 . S
C2219 C2218 1.373 1_554 S
C2219 C2235 1.377 1_655 S
C2220 C2218 1.389 . S
C2220 C2221 1.524 . S
C2220 C2234 1.377 1_655 S
C2221 C2220 1.524 . S
C2221 C2222 1.397 . S
C2221 C2226 1.363 . S
C2222 H2199 0.950 . S
C2222 C2221 1.397 . S
C2222 C2223 1.334 . S
C2223 H2200 0.950 . S
C2223 C2222 1.334 . S
C2223 C2224 1.287 . S
C2224 C2223 1.287 . S
C2224 C2225 1.524 . S
C2224 H2243 0.913 . S
C2225 H2201 0.950 . S
C2225 C2224 1.524 . S
C2225 C2226 1.415 . S
C2226 H2202 0.971 . S
C2226 C2221 1.363 . S
C2226 C2225 1.415 . S
C2227 H2203 0.951 . S
C2227 C2228 1.366 . S
C2227 C2229 1.388 . S
C2228 C2227 1.366 . S
C2228 C2232 1.385 . S
C2229 H2204 0.951 . S
C2229 C2227 1.388 . S
C2229 C2230 1.366 . S
C2230 C2229 1.366 . S
C2230 C2231 1.414 . S
C2230 C2233 1.499 . S
C2231 H2205 0.950 . S
C2231 C2230 1.414 . S
C2231 C2232 1.374 . S
C2232 H2206 0.950 . S
C2232 C2228 1.385 . S
C2232 C2231 1.374 . S
C2233 C2230 1.499 . S
C2233 C2234 1.373 1_554 S
C2233 C2235 1.389 . S
C2234 H2207 0.950 . S
C2234 C2220 1.377 1_455 S
C2234 C2233 1.373 1_556 S
C2235 C2219 1.377 1_455 S
C2235 C2233 1.389 . S
C2235 C2236 1.524 . S
C2236 C2235 1.524 . S
C2236 C2237 1.397 . S
C2236 C2241 1.363 . S
C2237 H2208 0.950 . S
C2237 C2236 1.397 . S
C2237 C2238 1.334 . S
C2238 H2209 0.950 . S
C2238 C2237 1.334 . S
C2238 C2239 1.287 . S
C2239 C2238 1.287 . S
C2239 C2240 1.524 . S
C2239 H2242 0.999 . S
C2240 H2210 0.950 . S
C2240 C2239 1.524 . S
C2240 C2241 1.415 . S
C2241 H2211 0.971 . S
C2241 C2236 1.363 . S
C2241 C2240 1.415 . S
H2242 C2239 0.999 . S
H2243 C2224 0.913 . S
H2244 C2262 0.951 . S
H2245 C2264 0.951 . S
H2246 C2266 0.950 . S
H2247 C2267 0.950 . S
H2248 C2269 0.950 . S
H2249 C2272 0.950 . S
H2250 C2273 0.950 . S
H2251 C2275 0.950 . S
H2252 C2276 0.950 . S
H2253 C2277 0.951 . S
H2254 C2279 0.951 . S
H2255 C2281 0.950 . S
H2256 C2282 0.950 . S
H2257 C2284 0.950 . S
H2258 C2287 0.950 . S
H2259 C2288 0.950 . S
H2260 C2290 0.950 . S
H2261 C2291 0.950 . S
C2262 H2244 0.951 . S
C2262 C2263 1.366 . S
C2262 C2264 1.388 . S
C2263 C2262 1.366 . S
C2263 C2267 1.385 . S
C2264 H2245 0.951 . S
C2264 C2262 1.388 . S
C2264 C2265 1.366 . S
C2265 C2264 1.366 . S
C2265 C2266 1.414 . S
C2265 C2268 1.499 . S
C2266 H2246 0.950 . S
C2266 C2265 1.414 . S
C2266 C2267 1.374 . S
C2267 H2247 0.950 . S
C2267 C2263 1.385 . S
C2267 C2266 1.374 . S
C2268 C2265 1.499 . S
C2268 C2269 1.373 . S
C2268 C2270 1.389 . S
C2269 H2248 0.950 . S
C2269 C2268 1.373 . S
C2269 C2285 1.377 . S
C2270 C2268 1.389 . S
C2270 C2271 1.524 . S
C2270 C2284 1.377 . S
C2271 C2270 1.524 . S
C2271 C2272 1.397 . S
C2271 C2276 1.363 . S
C2272 H2249 0.950 . S
C2272 C2271 1.397 . S
C2272 C2273 1.334 . S
C2273 H2250 0.950 . S
C2273 C2272 1.334 . S
C2273 C2274 1.287 . S
C2274 C2273 1.287 . S
C2274 C2275 1.524 . S
C2274 H2293 0.913 . S
C2275 H2251 0.950 . S
C2275 C2274 1.524 . S
C2275 C2276 1.415 . S
C2276 H2252 0.950 . S
C2276 C2271 1.363 . S
C2276 C2275 1.415 . S
C2277 H2253 0.951 . S
C2277 C2278 1.366 . S
C2277 C2279 1.388 . S
C2278 C2277 1.366 . S
C2278 C2282 1.385 . S
C2279 H2254 0.951 . S
C2279 C2277 1.388 . S
C2279 C2280 1.366 . S
C2280 C2279 1.366 . S
C2280 C2281 1.414 . S
C2280 C2283 1.499 . S
C2281 H2255 0.950 . S
C2281 C2280 1.414 . S
C2281 C2282 1.374 . S
C2282 H2256 0.950 . S
C2282 C2278 1.385 . S
C2282 C2281 1.374 . S
C2283 C2280 1.499 . S
C2283 C2284 1.373 . S
C2283 C2285 1.389 . S
C2284 H2257 0.950 . S
C2284 C2270 1.377 . S
C2284 C2283 1.373 . S
C2285 C2269 1.377 . S
C2285 C2283 1.389 . S
C2285 C2286 1.524 . S
C2286 C2285 1.524 . S
C2286 C2287 1.397 . S
C2286 C2291 1.363 . S
C2287 H2258 0.950 . S
C2287 C2286 1.397 . S
C2287 C2288 1.334 . S
C2288 H2259 0.950 . S
C2288 C2287 1.334 . S
C2288 C2289 1.287 . S
C2289 C2288 1.287 . S
C2289 C2290 1.524 . S
C2289 H2292 0.999 . S
C2290 H2260 0.950 . S
C2290 C2289 1.524 . S
C2290 C2291 1.415 . S
C2291 H2261 0.950 . S
C2291 C2286 1.363 . S
C2291 C2290 1.415 . S
H2292 C2289 0.999 . S
H2293 C2274 0.913 . S
H2294 C2312 0.951 . S
H2295 C2314 0.951 . S
H2296 C2316 0.950 . S
H2297 C2317 0.950 . S
H2298 C2319 0.950 . S
H2299 C2322 0.950 . S
H2300 C2323 0.950 . S
H2301 C2325 0.950 . S
H2302 C2326 0.950 . S
H2303 C2327 0.951 . S
H2304 C2329 0.951 . S
H2305 C2331 0.950 . S
H2306 C2332 0.950 . S
H2307 C2334 0.950 . S
H2308 C2337 0.950 . S
H2309 C2338 0.950 . S
H2310 C2340 0.950 . S
H2311 C2341 0.950 . S
C2312 H2294 0.951 . S
C2312 C2313 1.366 . S
C2312 C2314 1.388 . S
C2313 C2312 1.366 . S
C2313 C2317 1.385 . S
C2314 H2295 0.951 . S
C2314 C2312 1.388 . S
C2314 C2315 1.366 . S
C2315 C2314 1.366 . S
C2315 C2316 1.414 . S
C2315 C2318 1.499 . S
C2316 H2296 0.950 . S
C2316 C2315 1.414 . S
C2316 C2317 1.374 . S
C2317 H2297 0.950 . S
C2317 C2313 1.385 . S
C2317 C2316 1.374 . S
C2318 C2315 1.499 . S
C2318 C2319 1.373 . S
C2318 C2320 1.389 . S
C2319 H2298 0.950 . S
C2319 C2318 1.373 . S
C2319 C2335 1.377 . S
C2320 C2318 1.389 . S
C2320 C2321 1.524 . S
C2320 C2334 1.377 . S
C2321 C2320 1.524 . S
C2321 C2322 1.397 . S
C2321 C2326 1.363 . S
C2322 H2299 0.950 . S
C2322 C2321 1.397 . S
C2322 C2323 1.334 . S
C2323 H2300 0.950 . S
C2323 C2322 1.334 . S
C2323 C2324 1.287 . S
C2324 C2323 1.287 . S
C2324 C2325 1.524 . S
C2324 H2343 0.913 . S
C2325 H2301 0.950 . S
C2325 C2324 1.524 . S
C2325 C2326 1.415 . S
C2326 H2302 0.950 . S
C2326 C2321 1.363 . S
C2326 C2325 1.415 . S
C2327 H2303 0.951 . S
C2327 C2328 1.366 . S
C2327 C2329 1.388 . S
C2328 C2327 1.366 . S
C2328 C2332 1.385 . S
C2329 H2304 0.951 . S
C2329 C2327 1.388 . S
C2329 C2330 1.366 . S
C2330 C2329 1.366 . S
C2330 C2331 1.414 . S
C2330 C2333 1.499 . S
C2331 H2305 0.950 . S
C2331 C2330 1.414 . S
C2331 C2332 1.374 . S
C2332 H2306 0.950 . S
C2332 C2328 1.385 . S
C2332 C2331 1.374 . S
C2333 C2330 1.499 . S
C2333 C2334 1.373 . S
C2333 C2335 1.389 . S
C2334 H2307 0.950 . S
C2334 C2320 1.377 . S
C2334 C2333 1.373 . S
C2335 C2319 1.377 . S
C2335 C2333 1.389 . S
C2335 C2336 1.524 . S
C2336 C2335 1.524 . S
C2336 C2337 1.397 . S
C2336 C2341 1.363 . S
C2337 H2308 0.950 . S
C2337 C2336 1.397 . S
C2337 C2338 1.334 . S
C2338 H2309 0.950 . S
C2338 C2337 1.334 . S
C2338 C2339 1.287 . S
C2339 C2338 1.287 . S
C2339 C2340 1.524 . S
C2339 H2342 0.999 . S
C2340 H2310 0.950 . S
C2340 C2339 1.524 . S
C2340 C2341 1.415 . S
C2341 H2311 0.950 . S
C2341 C2336 1.363 . S
C2341 C2340 1.415 . S
H2342 C2339 0.999 . S
H2343 C2324 0.913 . S
H2344 C2362 0.951 . S
H2345 C2364 0.951 . S
H2346 C2366 0.950 . S
H2347 C2367 0.950 . S
H2348 C2369 0.950 . S
H2349 C2372 0.950 . S
H2350 C2373 0.950 . S
H2351 C2375 0.950 . S
H2352 C2376 0.950 . S
H2353 C2377 0.951 . S
H2354 C2379 0.951 . S
H2355 C2381 0.950 . S
H2356 C2382 0.950 . S
H2357 C2384 0.950 . S
H2358 C2387 0.950 . S
H2359 C2388 0.950 . S
H2360 C2390 0.950 . S
H2361 C2391 0.950 . S
C2362 H2344 0.951 . S
C2362 C2363 1.366 . S
C2362 C2364 1.388 . S
C2363 C2362 1.366 . S
C2363 C2367 1.385 . S
C2364 H2345 0.951 . S
C2364 C2362 1.388 . S
C2364 C2365 1.366 . S
C2365 C2364 1.366 . S
C2365 C2366 1.414 . S
C2365 C2368 1.499 . S
C2366 H2346 0.950 . S
C2366 C2365 1.414 . S
C2366 C2367 1.374 . S
C2367 H2347 0.950 . S
C2367 C2363 1.385 . S
C2367 C2366 1.374 . S
C2368 C2365 1.499 . S
C2368 C2369 1.373 . S
C2368 C2370 1.389 . S
C2369 H2348 0.950 . S
C2369 C2368 1.373 . S
C2369 C2385 1.377 . S
C2370 C2368 1.389 . S
C2370 C2371 1.524 . S
C2370 C2384 1.377 . S
C2371 C2370 1.524 . S
C2371 C2372 1.397 . S
C2371 C2376 1.363 . S
C2372 H2349 0.950 . S
C2372 C2371 1.397 . S
C2372 C2373 1.334 . S
C2373 H2350 0.950 . S
C2373 C2372 1.334 . S
C2373 C2374 1.287 . S
C2374 C2373 1.287 . S
C2374 C2375 1.524 . S
C2374 H2393 0.913 . S
C2375 H2351 0.950 . S
C2375 C2374 1.524 . S
C2375 C2376 1.415 . S
C2376 H2352 0.950 . S
C2376 C2371 1.363 . S
C2376 C2375 1.415 . S
C2377 H2353 0.951 . S
C2377 C2378 1.366 . S
C2377 C2379 1.388 . S
C2378 C2377 1.366 . S
C2378 C2382 1.385 . S
C2379 H2354 0.951 . S
C2379 C2377 1.388 . S
C2379 C2380 1.366 . S
C2380 C2379 1.366 . S
C2380 C2381 1.414 . S
C2380 C2383 1.499 . S
C2381 H2355 0.950 . S
C2381 C2380 1.414 . S
C2381 C2382 1.374 . S
C2382 H2356 0.950 . S
C2382 C2378 1.385 . S
C2382 C2381 1.374 . S
C2383 C2380 1.499 . S
C2383 C2384 1.373 . S
C2383 C2385 1.389 . S
C2384 H2357 0.950 . S
C2384 C2370 1.377 . S
C2384 C2383 1.373 . S
C2385 C2369 1.377 . S
C2385 C2383 1.389 . S
C2385 C2386 1.524 . S
C2386 C2385 1.524 . S
C2386 C2387 1.397 . S
C2386 C2391 1.363 . S
C2387 H2358 0.950 . S
C2387 C2386 1.397 . S
C2387 C2388 1.334 . S
C2388 H2359 0.950 . S
C2388 C2387 1.334 . S
C2388 C2389 1.287 . S
C2389 C2388 1.287 . S
C2389 C2390 1.524 . S
C2389 H2392 0.999 . S
C2390 H2360 0.950 . S
C2390 C2389 1.524 . S
C2390 C2391 1.415 . S
C2391 H2361 0.950 . S
C2391 C2386 1.363 . S
C2391 C2390 1.415 . S
H2392 C2389 0.999 . S
H2393 C2374 0.913 . S
H2394 C2412 0.951 . S
H2395 C2414 0.951 . S
H2396 C2416 0.950 . S
H2397 C2417 0.950 . S
H2398 C2419 0.950 . S
H2399 C2422 0.950 . S
H2400 C2423 0.950 . S
H2401 C2425 0.950 . S
H2402 C2426 0.950 . S
H2403 C2427 0.951 . S
H2404 C2429 0.951 . S
H2405 C2431 0.950 . S
H2406 C2432 0.950 . S
H2407 C2434 0.950 . S
H2408 C2437 0.950 . S
H2409 C2438 0.950 . S
H2410 C2440 0.950 . S
H2411 C2441 0.950 . S
C2412 H2394 0.951 . S
C2412 C2413 1.366 . S
C2412 C2414 1.388 . S
C2413 C2412 1.366 . S
C2413 C2417 1.385 . S
C2414 H2395 0.951 . S
C2414 C2412 1.388 . S
C2414 C2415 1.366 . S
C2415 C2414 1.366 . S
C2415 C2416 1.414 . S
C2415 C2418 1.499 . S
C2416 H2396 0.950 . S
C2416 C2415 1.414 . S
C2416 C2417 1.374 . S
C2417 H2397 0.950 . S
C2417 C2413 1.385 . S
C2417 C2416 1.374 . S
C2418 C2415 1.499 . S
C2418 C2419 1.373 . S
C2418 C2420 1.389 . S
C2419 H2398 0.950 . S
C2419 C2418 1.373 . S
C2419 C2435 1.377 . S
C2420 C2418 1.389 . S
C2420 C2421 1.524 . S
C2420 C2434 1.377 . S
C2421 C2420 1.524 . S
C2421 C2422 1.397 . S
C2421 C2426 1.363 . S
C2422 H2399 0.950 . S
C2422 C2421 1.397 . S
C2422 C2423 1.334 . S
C2423 H2400 0.950 . S
C2423 C2422 1.334 . S
C2423 C2424 1.287 . S
C2424 C2423 1.287 . S
C2424 C2425 1.524 . S
C2424 H2443 0.913 . S
C2425 H2401 0.950 . S
C2425 C2424 1.524 . S
C2425 C2426 1.415 . S
C2426 H2402 0.950 . S
C2426 C2421 1.363 . S
C2426 C2425 1.415 . S
C2427 H2403 0.951 . S
C2427 C2428 1.366 . S
C2427 C2429 1.388 . S
C2428 C2427 1.366 . S
C2428 C2432 1.385 . S
C2429 H2404 0.951 . S
C2429 C2427 1.388 . S
C2429 C2430 1.366 . S
C2430 C2429 1.366 . S
C2430 C2431 1.414 . S
C2430 C2433 1.499 . S
C2431 H2405 0.950 . S
C2431 C2430 1.414 . S
C2431 C2432 1.374 . S
C2432 H2406 0.950 . S
C2432 C2428 1.385 . S
C2432 C2431 1.374 . S
C2433 C2430 1.499 . S
C2433 C2434 1.373 . S
C2433 C2435 1.389 . S
C2434 H2407 0.950 . S
C2434 C2420 1.377 . S
C2434 C2433 1.373 . S
C2435 C2419 1.377 . S
C2435 C2433 1.389 . S
C2435 C2436 1.524 . S
C2436 C2435 1.524 . S
C2436 C2437 1.397 . S
C2436 C2441 1.363 . S
C2437 H2408 0.950 . S
C2437 C2436 1.397 . S
C2437 C2438 1.334 . S
C2438 H2409 0.950 . S
C2438 C2437 1.334 . S
C2438 C2439 1.287 . S
C2439 C2438 1.287 . S
C2439 C2440 1.524 . S
C2439 H2442 0.999 . S
C2440 H2410 0.950 . S
C2440 C2439 1.524 . S
C2440 C2441 1.415 . S
C2441 H2411 0.950 . S
C2441 C2436 1.363 . S
C2441 C2440 1.415 . S
H2442 C2439 0.999 . S
H2443 C2424 0.913 . S
H2444 C2462 0.951 . S
H2445 C2464 0.951 . S
H2446 C2466 0.950 . S
H2447 C2467 0.950 . S
H2448 C2469 0.950 . S
H2449 C2472 0.950 . S
H2450 C2473 0.950 . S
H2451 C2475 0.950 . S
H2452 C2476 0.950 . S
H2453 C2477 0.951 . S
H2454 C2479 0.951 . S
H2455 C2481 0.950 . S
H2456 C2482 0.950 . S
H2457 C2484 0.950 . S
H2458 C2487 0.950 . S
H2459 C2488 0.950 . S
H2460 C2490 0.950 . S
H2461 C2491 0.950 . S
C2462 H2444 0.951 . S
C2462 C2463 1.366 . S
C2462 C2464 1.388 . S
C2463 C2462 1.366 . S
C2463 C2467 1.385 . S
C2464 H2445 0.951 . S
C2464 C2462 1.388 . S
C2464 C2465 1.366 . S
C2465 C2464 1.366 . S
C2465 C2466 1.414 . S
C2465 C2468 1.499 . S
C2466 H2446 0.950 . S
C2466 C2465 1.414 . S
C2466 C2467 1.374 . S
C2467 H2447 0.950 . S
C2467 C2463 1.385 . S
C2467 C2466 1.374 . S
C2468 C2465 1.499 . S
C2468 C2469 1.373 . S
C2468 C2470 1.389 . S
C2469 H2448 0.950 . S
C2469 C2468 1.373 . S
C2469 C2485 1.377 . S
C2470 C2468 1.389 . S
C2470 C2471 1.524 . S
C2470 C2484 1.377 . S
C2471 C2470 1.524 . S
C2471 C2472 1.397 . S
C2471 C2476 1.363 . S
C2472 H2449 0.950 . S
C2472 C2471 1.397 . S
C2472 C2473 1.334 . S
C2473 H2450 0.950 . S
C2473 C2472 1.334 . S
C2473 C2474 1.287 . S
C2474 C2473 1.287 . S
C2474 C2475 1.524 . S
C2474 H2493 0.913 . S
C2475 H2451 0.950 . S
C2475 C2474 1.524 . S
C2475 C2476 1.415 . S
C2476 H2452 0.950 . S
C2476 C2471 1.363 . S
C2476 C2475 1.415 . S
C2477 H2453 0.951 . S
C2477 C2478 1.366 . S
C2477 C2479 1.388 . S
C2478 C2477 1.366 . S
C2478 C2482 1.385 . S
C2479 H2454 0.951 . S
C2479 C2477 1.388 . S
C2479 C2480 1.366 . S
C2480 C2479 1.366 . S
C2480 C2481 1.414 . S
C2480 C2483 1.499 . S
C2481 H2455 0.950 . S
C2481 C2480 1.414 . S
C2481 C2482 1.374 . S
C2482 H2456 0.950 . S
C2482 C2478 1.385 . S
C2482 C2481 1.374 . S
C2483 C2480 1.499 . S
C2483 C2484 1.373 . S
C2483 C2485 1.389 . S
C2484 H2457 0.950 . S
C2484 C2470 1.377 . S
C2484 C2483 1.373 . S
C2485 C2469 1.377 . S
C2485 C2483 1.389 . S
C2485 C2486 1.524 . S
C2486 C2485 1.524 . S
C2486 C2487 1.397 . S
C2486 C2491 1.363 . S
C2487 H2458 0.950 . S
C2487 C2486 1.397 . S
C2487 C2488 1.334 . S
C2488 H2459 0.950 . S
C2488 C2487 1.334 . S
C2488 C2489 1.287 . S
C2489 C2488 1.287 . S
C2489 C2490 1.524 . S
C2489 H2492 0.999 . S
C2490 H2460 0.950 . S
C2490 C2489 1.524 . S
C2490 C2491 1.415 . S
C2491 H2461 0.950 . S
C2491 C2486 1.363 . S
C2491 C2490 1.415 . S
H2492 C2489 0.999 . S
H2493 C2474 0.913 . S
H2494 C2512 0.951 . S
H2495 C2514 0.951 . S
H2496 C2516 0.950 . S
H2497 C2517 0.950 . S
H2498 C2519 0.950 . S
H2499 C2522 0.950 . S
H2500 C2523 0.950 . S
H2501 C2525 0.950 . S
H2502 C2526 0.950 . S
H2503 C2527 0.951 . S
H2504 C2529 0.951 . S
H2505 C2531 0.950 . S
H2506 C2532 0.950 . S
H2507 C2534 0.950 . S
H2508 C2537 0.950 . S
H2509 C2538 0.950 . S
H2510 C2540 0.950 . S
H2511 C2541 0.950 . S
C2512 H2494 0.951 . S
C2512 C2513 1.366 . S
C2512 C2514 1.388 . S
C2513 C2512 1.366 . S
C2513 C2517 1.385 . S
C2514 H2495 0.951 . S
C2514 C2512 1.388 . S
C2514 C2515 1.366 . S
C2515 C2514 1.366 . S
C2515 C2516 1.414 . S
C2515 C2518 1.499 . S
C2516 H2496 0.950 . S
C2516 C2515 1.414 . S
C2516 C2517 1.374 . S
C2517 H2497 0.950 . S
C2517 C2513 1.385 . S
C2517 C2516 1.374 . S
C2518 C2515 1.499 . S
C2518 C2519 1.373 . S
C2518 C2520 1.389 . S
C2519 H2498 0.950 . S
C2519 C2518 1.373 . S
C2519 C2535 1.377 . S
C2520 C2518 1.389 . S
C2520 C2521 1.524 . S
C2520 C2534 1.377 . S
C2521 C2520 1.524 . S
C2521 C2522 1.397 . S
C2521 C2526 1.363 . S
C2522 H2499 0.950 . S
C2522 C2521 1.397 . S
C2522 C2523 1.334 . S
C2523 H2500 0.950 . S
C2523 C2522 1.334 . S
C2523 C2524 1.287 . S
C2524 C2523 1.287 . S
C2524 C2525 1.524 . S
C2524 H2543 0.913 . S
C2525 H2501 0.950 . S
C2525 C2524 1.524 . S
C2525 C2526 1.415 . S
C2526 H2502 0.950 . S
C2526 C2521 1.363 . S
C2526 C2525 1.415 . S
C2527 H2503 0.951 . S
C2527 C2528 1.366 . S
C2527 C2529 1.388 . S
C2528 C2527 1.366 . S
C2528 C2532 1.385 . S
C2529 H2504 0.951 . S
C2529 C2527 1.388 . S
C2529 C2530 1.366 . S
C2530 C2529 1.366 . S
C2530 C2531 1.414 . S
C2530 C2533 1.499 . S
C2531 H2505 0.950 . S
C2531 C2530 1.414 . S
C2531 C2532 1.374 . S
C2532 H2506 0.950 . S
C2532 C2528 1.385 . S
C2532 C2531 1.374 . S
C2533 C2530 1.499 . S
C2533 C2534 1.373 . S
C2533 C2535 1.389 . S
C2534 H2507 0.950 . S
C2534 C2520 1.377 . S
C2534 C2533 1.373 . S
C2535 C2519 1.377 . S
C2535 C2533 1.389 . S
C2535 C2536 1.524 . S
C2536 C2535 1.524 . S
C2536 C2537 1.397 . S
C2536 C2541 1.363 . S
C2537 H2508 0.950 . S
C2537 C2536 1.397 . S
C2537 C2538 1.334 . S
C2538 H2509 0.950 . S
C2538 C2537 1.334 . S
C2538 C2539 1.287 . S
C2539 C2538 1.287 . S
C2539 C2540 1.524 . S
C2539 H2542 0.999 . S
C2540 H2510 0.950 . S
C2540 C2539 1.524 . S
C2540 C2541 1.415 . S
C2541 H2511 0.950 . S
C2541 C2536 1.363 . S
C2541 C2540 1.415 . S
H2542 C2539 0.999 . S
H2543 C2524 0.913 . S
H2544 C2562 0.951 . S
H2545 C2564 0.951 . S
H2546 C2566 0.950 . S
H2547 C2567 0.950 . S
H2548 C2569 0.950 . S
H2549 C2572 0.950 . S
H2550 C2573 0.950 . S
H2551 C2575 0.950 . S
H2552 C2576 0.950 . S
H2553 C2577 0.951 . S
H2554 C2579 0.951 . S
H2555 C2581 0.950 . S
H2556 C2582 0.950 . S
H2557 C2584 0.950 . S
H2558 C2587 0.950 . S
H2559 C2588 0.950 . S
H2560 C2590 0.950 . S
H2561 C2591 0.950 . S
C2562 H2544 0.951 . S
C2562 C2563 1.366 . S
C2562 C2564 1.388 . S
C2563 C2562 1.366 . S
C2563 C2567 1.385 . S
C2564 H2545 0.951 . S
C2564 C2562 1.388 . S
C2564 C2565 1.366 . S
C2565 C2564 1.366 . S
C2565 C2566 1.414 . S
C2565 C2568 1.499 . S
C2566 H2546 0.950 . S
C2566 C2565 1.414 . S
C2566 C2567 1.374 . S
C2567 H2547 0.950 . S
C2567 C2563 1.385 . S
C2567 C2566 1.374 . S
C2568 C2565 1.499 . S
C2568 C2569 1.373 . S
C2568 C2570 1.389 . S
C2569 H2548 0.950 . S
C2569 C2568 1.373 . S
C2569 C2585 1.377 . S
C2570 C2568 1.389 . S
C2570 C2571 1.524 . S
C2570 C2584 1.377 . S
C2571 C2570 1.524 . S
C2571 C2572 1.397 . S
C2571 C2576 1.363 . S
C2572 H2549 0.950 . S
C2572 C2571 1.397 . S
C2572 C2573 1.334 . S
C2573 H2550 0.950 . S
C2573 C2572 1.334 . S
C2573 C2574 1.287 . S
C2574 C2573 1.287 . S
C2574 C2575 1.524 . S
C2574 H2593 0.913 . S
C2575 H2551 0.950 . S
C2575 C2574 1.524 . S
C2575 C2576 1.415 . S
C2576 H2552 0.950 . S
C2576 C2571 1.363 . S
C2576 C2575 1.415 . S
C2577 H2553 0.951 . S
C2577 C2578 1.366 . S
C2577 C2579 1.388 . S
C2578 C2577 1.366 . S
C2578 C2582 1.385 . S
C2579 H2554 0.951 . S
C2579 C2577 1.388 . S
C2579 C2580 1.366 . S
C2580 C2579 1.366 . S
C2580 C2581 1.414 . S
C2580 C2583 1.499 . S
C2581 H2555 0.950 . S
C2581 C2580 1.414 . S
C2581 C2582 1.374 . S
C2582 H2556 0.950 . S
C2582 C2578 1.385 . S
C2582 C2581 1.374 . S
C2583 C2580 1.499 . S
C2583 C2584 1.373 . S
C2583 C2585 1.389 . S
C2584 H2557 0.950 . S
C2584 C2570 1.377 . S
C2584 C2583 1.373 . S
C2585 C2569 1.377 . S
C2585 C2583 1.389 . S
C2585 C2586 1.524 . S
C2586 C2585 1.524 . S
C2586 C2587 1.397 . S
C2586 C2591 1.363 . S
C2587 H2558 0.950 . S
C2587 C2586 1.397 . S
C2587 C2588 1.334 . S
C2588 H2559 0.950 . S
C2588 C2587 1.334 . S
C2588 C2589 1.287 . S
C2589 C2588 1.287 . S
C2589 C2590 1.524 . S
C2589 H2592 0.999 . S
C2590 H2560 0.950 . S
C2590 C2589 1.524 . S
C2590 C2591 1.415 . S
C2591 H2561 0.950 . S
C2591 C2586 1.363 . S
C2591 C2590 1.415 . S
H2592 C2589 0.999 . S
H2593 C2574 0.913 . S
H2594 C2612 0.951 . S
H2595 C2614 0.951 . S
H2596 C2616 0.950 . S
H2597 C2617 0.950 . S
H2598 C2619 0.950 . S
H2599 C2622 0.950 . S
H2600 C2623 0.950 . S
H2601 C2625 0.950 . S
H2602 C2626 0.950 . S
H2603 C2627 0.951 . S
H2604 C2629 0.951 . S
H2605 C2631 0.950 . S
H2606 C2632 0.950 . S
H2607 C2634 0.950 . S
H2608 C2637 0.950 . S
H2609 C2638 0.950 . S
H2610 C2640 0.950 . S
H2611 C2641 0.950 . S
C2612 H2594 0.951 . S
C2612 C2613 1.366 . S
C2612 C2614 1.388 . S
C2613 C2612 1.366 . S
C2613 C2617 1.385 . S
C2614 H2595 0.951 . S
C2614 C2612 1.388 . S
C2614 C2615 1.366 . S
C2615 C2614 1.366 . S
C2615 C2616 1.414 . S
C2615 C2618 1.499 . S
C2616 H2596 0.950 . S
C2616 C2615 1.414 . S
C2616 C2617 1.374 . S
C2617 H2597 0.950 . S
C2617 C2613 1.385 . S
C2617 C2616 1.374 . S
C2618 C2615 1.499 . S
C2618 C2619 1.373 . S
C2618 C2620 1.389 . S
C2619 H2598 0.950 . S
C2619 C2618 1.373 . S
C2619 C2635 1.377 . S
C2620 C2618 1.389 . S
C2620 C2621 1.524 . S
C2620 C2634 1.377 . S
C2621 C2620 1.524 . S
C2621 C2622 1.397 . S
C2621 C2626 1.363 . S
C2622 H2599 0.950 . S
C2622 C2621 1.397 . S
C2622 C2623 1.334 . S
C2623 H2600 0.950 . S
C2623 C2622 1.334 . S
C2623 C2624 1.287 . S
C2624 C2623 1.287 . S
C2624 C2625 1.524 . S
C2624 H2643 0.913 . S
C2625 H2601 0.950 . S
C2625 C2624 1.524 . S
C2625 C2626 1.415 . S
C2626 H2602 0.950 . S
C2626 C2621 1.363 . S
C2626 C2625 1.415 . S
C2627 H2603 0.951 . S
C2627 C2628 1.366 . S
C2627 C2629 1.388 . S
C2628 C2627 1.366 . S
C2628 C2632 1.385 . S
C2629 H2604 0.951 . S
C2629 C2627 1.388 . S
C2629 C2630 1.366 . S
C2630 C2629 1.366 . S
C2630 C2631 1.414 . S
C2630 C2633 1.499 . S
C2631 H2605 0.950 . S
C2631 C2630 1.414 . S
C2631 C2632 1.374 . S
C2632 H2606 0.950 . S
C2632 C2628 1.385 . S
C2632 C2631 1.374 . S
C2633 C2630 1.499 . S
C2633 C2634 1.373 . S
C2633 C2635 1.389 . S
C2634 H2607 0.950 . S
C2634 C2620 1.377 . S
C2634 C2633 1.373 . S
C2635 C2619 1.377 . S
C2635 C2633 1.389 . S
C2635 C2636 1.524 . S
C2636 C2635 1.524 . S
C2636 C2637 1.397 . S
C2636 C2641 1.363 . S
C2637 H2608 0.950 . S
C2637 C2636 1.397 . S
C2637 C2638 1.334 . S
C2638 H2609 0.950 . S
C2638 C2637 1.334 . S
C2638 C2639 1.287 . S
C2639 C2638 1.287 . S
C2639 C2640 1.524 . S
C2639 H2642 0.999 . S
C2640 H2610 0.950 . S
C2640 C2639 1.524 . S
C2640 C2641 1.415 . S
C2641 H2611 0.950 . S
C2641 C2636 1.363 . S
C2641 C2640 1.415 . S
H2642 C2639 0.999 . S
H2643 C2624 0.913 . S
H2644 C2662 0.951 . S
H2645 C2664 0.951 . S
H2646 C2666 0.950 . S
H2647 C2667 0.950 . S
H2648 C2669 0.950 . S
H2649 C2672 0.950 . S
H2650 C2673 0.950 . S
H2651 C2675 0.950 . S
H2652 C2676 0.950 . S
H2653 C2677 0.951 . S
H2654 C2679 0.951 . S
H2655 C2681 0.950 . S
H2656 C2682 0.950 . S
H2657 C2684 0.950 . S
H2658 C2687 0.950 . S
H2659 C2688 0.950 . S
H2660 C2690 0.950 . S
H2661 C2691 0.950 . S
C2662 H2644 0.951 . S
C2662 C2663 1.366 . S
C2662 C2664 1.388 . S
C2663 C2662 1.366 . S
C2663 C2667 1.385 . S
C2664 H2645 0.951 . S
C2664 C2662 1.388 . S
C2664 C2665 1.366 . S
C2665 C2664 1.366 . S
C2665 C2666 1.414 . S
C2665 C2668 1.499 . S
C2666 H2646 0.950 . S
C2666 C2665 1.414 . S
C2666 C2667 1.374 . S
C2667 H2647 0.950 . S
C2667 C2663 1.385 . S
C2667 C2666 1.374 . S
C2668 C2665 1.499 . S
C2668 C2669 1.373 . S
C2668 C2670 1.389 . S
C2669 H2648 0.950 . S
C2669 C2668 1.373 . S
C2669 C2685 1.377 . S
C2670 C2668 1.389 . S
C2670 C2671 1.524 . S
C2670 C2684 1.377 . S
C2671 C2670 1.524 . S
C2671 C2672 1.397 . S
C2671 C2676 1.363 . S
C2672 H2649 0.950 . S
C2672 C2671 1.397 . S
C2672 C2673 1.334 . S
C2673 H2650 0.950 . S
C2673 C2672 1.334 . S
C2673 C2674 1.287 . S
C2674 C2673 1.287 . S
C2674 C2675 1.524 . S
C2674 H2693 0.913 . S
C2675 H2651 0.950 . S
C2675 C2674 1.524 . S
C2675 C2676 1.415 . S
C2676 H2652 0.950 . S
C2676 C2671 1.363 . S
C2676 C2675 1.415 . S
C2677 H2653 0.951 . S
C2677 C2678 1.366 . S
C2677 C2679 1.388 . S
C2678 C2677 1.366 . S
C2678 C2682 1.385 . S
C2679 H2654 0.951 . S
C2679 C2677 1.388 . S
C2679 C2680 1.366 . S
C2680 C2679 1.366 . S
C2680 C2681 1.414 . S
C2680 C2683 1.499 . S
C2681 H2655 0.950 . S
C2681 C2680 1.414 . S
C2681 C2682 1.374 . S
C2682 H2656 0.950 . S
C2682 C2678 1.385 . S
C2682 C2681 1.374 . S
C2683 C2680 1.499 . S
C2683 C2684 1.373 . S
C2683 C2685 1.389 . S
C2684 H2657 0.950 . S
C2684 C2670 1.377 . S
C2684 C2683 1.373 . S
C2685 C2669 1.377 . S
C2685 C2683 1.389 . S
C2685 C2686 1.524 . S
C2686 C2685 1.524 . S
C2686 C2687 1.397 . S
C2686 C2691 1.363 . S
C2687 H2658 0.950 . S
C2687 C2686 1.397 . S
C2687 C2688 1.334 . S
C2688 H2659 0.950 . S
C2688 C2687 1.334 . S
C2688 C2689 1.287 . S
C2689 C2688 1.287 . S
C2689 C2690 1.524 . S
C2689 H2692 0.999 . S
C2690 H2660 0.950 . S
C2690 C2689 1.524 . S
C2690 C2691 1.415 . S
C2691 H2661 0.950 . S
C2691 C2686 1.363 . S
C2691 C2690 1.415 . S
H2692 C2689 0.999 . S
H2693 C2674 0.913 . S
H2694 C2712 0.951 . S
H2695 C2714 0.951 . S
H2696 C2716 0.950 . S
H2697 C2717 0.950 . S
H2698 C2719 0.950 . S
H2699 C2722 0.950 . S
H2700 C2723 0.950 . S
H2701 C2725 0.950 . S
H2702 C2726 0.950 . S
H2703 C2727 0.951 . S
H2704 C2729 0.951 . S
H2705 C2731 0.950 . S
H2706 C2732 0.950 . S
H2707 C2734 0.950 . S
H2708 C2737 0.950 . S
H2709 C2738 0.950 . S
H2710 C2740 0.950 . S
H2711 C2741 0.950 . S
C2712 H2694 0.951 . S
C2712 C2713 1.366 . S
C2712 C2714 1.388 . S
C2713 C2712 1.366 . S
C2713 C2717 1.385 . S
C2714 H2695 0.951 . S
C2714 C2712 1.388 . S
C2714 C2715 1.366 . S
C2715 C2714 1.366 . S
C2715 C2716 1.414 . S
C2715 C2718 1.499 . S
C2716 H2696 0.950 . S
C2716 C2715 1.414 . S
C2716 C2717 1.374 . S
C2717 H2697 0.950 . S
C2717 C2713 1.385 . S
C2717 C2716 1.374 . S
C2718 C2715 1.499 . S
C2718 C2719 1.373 . S
C2718 C2720 1.389 . S
C2719 H2698 0.950 . S
C2719 C2718 1.373 . S
C2719 C2735 1.377 . S
C2720 C2718 1.389 . S
C2720 C2721 1.524 . S
C2720 C2734 1.377 . S
C2721 C2720 1.524 . S
C2721 C2722 1.397 . S
C2721 C2726 1.363 . S
C2722 H2699 0.950 . S
C2722 C2721 1.397 . S
C2722 C2723 1.334 . S
C2723 H2700 0.950 . S
C2723 C2722 1.334 . S
C2723 C2724 1.287 . S
C2724 C2723 1.287 . S
C2724 C2725 1.524 . S
C2724 H2743 0.913 . S
C2725 H2701 0.950 . S
C2725 C2724 1.524 . S
C2725 C2726 1.415 . S
C2726 H2702 0.950 . S
C2726 C2721 1.363 . S
C2726 C2725 1.415 . S
C2727 H2703 0.951 . S
C2727 C2728 1.366 . S
C2727 C2729 1.388 . S
C2728 C2727 1.366 . S
C2728 C2732 1.385 . S
C2729 H2704 0.951 . S
C2729 C2727 1.388 . S
C2729 C2730 1.366 . S
C2730 C2729 1.366 . S
C2730 C2731 1.414 . S
C2730 C2733 1.499 . S
C2731 H2705 0.950 . S
C2731 C2730 1.414 . S
C2731 C2732 1.374 . S
C2732 H2706 0.950 . S
C2732 C2728 1.385 . S
C2732 C2731 1.374 . S
C2733 C2730 1.499 . S
C2733 C2734 1.373 . S
C2733 C2735 1.389 . S
C2734 H2707 0.950 . S
C2734 C2720 1.377 . S
C2734 C2733 1.373 . S
C2735 C2719 1.377 . S
C2735 C2733 1.389 . S
C2735 C2736 1.524 . S
C2736 C2735 1.524 . S
C2736 C2737 1.397 . S
C2736 C2741 1.363 . S
C2737 H2708 0.950 . S
C2737 C2736 1.397 . S
C2737 C2738 1.334 . S
C2738 H2709 0.950 . S
C2738 C2737 1.334 . S
C2738 C2739 1.287 . S
C2739 C2738 1.287 . S
C2739 C2740 1.524 . S
C2739 H2742 0.999 . S
C2740 H2710 0.950 . S
C2740 C2739 1.524 . S
C2740 C2741 1.415 . S
C2741 H2711 0.950 . S
C2741 C2736 1.363 . S
C2741 C2740 1.415 . S
H2742 C2739 0.999 . S
H2743 C2724 0.913 . S
H2744 C2762 0.951 . S
H2745 C2764 0.951 . S
H2746 C2766 0.950 . S
H2747 C2767 0.950 . S
H2748 C2769 0.950 . S
H2749 C2772 0.950 . S
H2750 C2773 0.950 . S
H2751 C2775 0.950 . S
H2752 C2776 0.950 . S
H2753 C2777 0.951 . S
H2754 C2779 0.951 . S
H2755 C2781 0.950 . S
H2756 C2782 0.950 . S
H2757 C2784 0.950 . S
H2758 C2787 0.950 . S
H2759 C2788 0.950 . S
H2760 C2790 0.950 . S
H2761 C2791 0.950 . S
C2762 H2744 0.951 . S
C2762 C2763 1.366 . S
C2762 C2764 1.388 . S
C2763 C2762 1.366 . S
C2763 C2767 1.385 . S
C2764 H2745 0.951 . S
C2764 C2762 1.388 . S
C2764 C2765 1.366 . S
C2765 C2764 1.366 . S
C2765 C2766 1.414 . S
C2765 C2768 1.499 . S
C2766 H2746 0.950 . S
C2766 C2765 1.414 . S
C2766 C2767 1.374 . S
C2767 H2747 0.950 . S
C2767 C2763 1.385 . S
C2767 C2766 1.374 . S
C2768 C2765 1.499 . S
C2768 C2769 1.373 . S
C2768 C2770 1.389 . S
C2769 H2748 0.950 . S
C2769 C2768 1.373 . S
C2769 C2785 1.377 . S
C2770 C2768 1.389 . S
C2770 C2771 1.524 . S
C2770 C2784 1.377 . S
C2771 C2770 1.524 . S
C2771 C2772 1.397 . S
C2771 C2776 1.363 . S
C2772 H2749 0.950 . S
C2772 C2771 1.397 . S
C2772 C2773 1.334 . S
C2773 H2750 0.950 . S
C2773 C2772 1.334 . S
C2773 C2774 1.287 . S
C2774 C2773 1.287 . S
C2774 C2775 1.524 . S
C2774 H2793 0.913 . S
C2775 H2751 0.950 . S
C2775 C2774 1.524 . S
C2775 C2776 1.415 . S
C2776 H2752 0.950 . S
C2776 C2771 1.363 . S
C2776 C2775 1.415 . S
C2777 H2753 0.951 . S
C2777 C2778 1.366 . S
C2777 C2779 1.388 . S
C2778 C2777 1.366 . S
C2778 C2782 1.385 . S
C2779 H2754 0.951 . S
C2779 C2777 1.388 . S
C2779 C2780 1.366 . S
C2780 C2779 1.366 . S
C2780 C2781 1.414 . S
C2780 C2783 1.499 . S
C2781 H2755 0.950 . S
C2781 C2780 1.414 . S
C2781 C2782 1.374 . S
C2782 H2756 0.950 . S
C2782 C2778 1.385 . S
C2782 C2781 1.374 . S
C2783 C2780 1.499 . S
C2783 C2784 1.373 . S
C2783 C2785 1.389 . S
C2784 H2757 0.950 . S
C2784 C2770 1.377 . S
C2784 C2783 1.373 . S
C2785 C2769 1.377 . S
C2785 C2783 1.389 . S
C2785 C2786 1.524 . S
C2786 C2785 1.524 . S
C2786 C2787 1.397 . S
C2786 C2791 1.363 . S
C2787 H2758 0.950 . S
C2787 C2786 1.397 . S
C2787 C2788 1.334 . S
C2788 H2759 0.950 . S
C2788 C2787 1.334 . S
C2788 C2789 1.287 . S
C2789 C2788 1.287 . S
C2789 C2790 1.524 . S
C2789 H2792 0.999 . S
C2790 H2760 0.950 . S
C2790 C2789 1.524 . S
C2790 C2791 1.415 . S
C2791 H2761 0.950 . S
C2791 C2786 1.363 . S
C2791 C2790 1.415 . S
H2792 C2789 0.999 . S
H2793 C2774 0.913 . S
H2794 C2812 0.951 . S
H2795 C2814 0.951 . S
H2796 C2816 0.950 . S
H2797 C2817 0.950 . S
H2798 C2819 0.950 . S
H2799 C2822 0.950 . S
H2800 C2823 0.950 . S
H2801 C2825 0.950 . S
H2802 C2826 0.950 . S
H2803 C2827 0.951 . S
H2804 C2829 0.951 . S
H2805 C2831 0.950 . S
H2806 C2832 0.950 . S
H2807 C2834 0.950 . S
H2808 C2837 0.950 . S
H2809 C2838 0.950 . S
H2810 C2840 0.950 . S
H2811 C2841 0.950 . S
C2812 H2794 0.951 . S
C2812 C2813 1.366 . S
C2812 C2814 1.388 . S
C2813 C2812 1.366 . S
C2813 C2817 1.385 . S
C2814 H2795 0.951 . S
C2814 C2812 1.388 . S
C2814 C2815 1.366 . S
C2815 C2814 1.366 . S
C2815 C2816 1.414 . S
C2815 C2818 1.499 . S
C2816 H2796 0.950 . S
C2816 C2815 1.414 . S
C2816 C2817 1.374 . S
C2817 H2797 0.950 . S
C2817 C2813 1.385 . S
C2817 C2816 1.374 . S
C2818 C2815 1.499 . S
C2818 C2819 1.373 . S
C2818 C2820 1.389 . S
C2819 H2798 0.950 . S
C2819 C2818 1.373 . S
C2819 C2835 1.377 . S
C2820 C2818 1.389 . S
C2820 C2821 1.524 . S
C2820 C2834 1.377 . S
C2821 C2820 1.524 . S
C2821 C2822 1.397 . S
C2821 C2826 1.363 . S
C2822 H2799 0.950 . S
C2822 C2821 1.397 . S
C2822 C2823 1.334 . S
C2823 H2800 0.950 . S
C2823 C2822 1.334 . S
C2823 C2824 1.287 . S
C2824 C2823 1.287 . S
C2824 C2825 1.524 . S
C2824 H2843 0.913 . S
C2825 H2801 0.950 . S
C2825 C2824 1.524 . S
C2825 C2826 1.415 . S
C2826 H2802 0.950 . S
C2826 C2821 1.363 . S
C2826 C2825 1.415 . S
C2827 H2803 0.951 . S
C2827 C2828 1.366 . S
C2827 C2829 1.388 . S
C2828 C2827 1.366 . S
C2828 C2832 1.385 . S
C2829 H2804 0.951 . S
C2829 C2827 1.388 . S
C2829 C2830 1.366 . S
C2830 C2829 1.366 . S
C2830 C2831 1.414 . S
C2830 C2833 1.499 . S
C2831 H2805 0.950 . S
C2831 C2830 1.414 . S
C2831 C2832 1.374 . S
C2832 H2806 0.950 . S
C2832 C2828 1.385 . S
C2832 C2831 1.374 . S
C2833 C2830 1.499 . S
C2833 C2834 1.373 . S
C2833 C2835 1.389 . S
C2834 H2807 0.950 . S
C2834 C2820 1.377 . S
C2834 C2833 1.373 . S
C2835 C2819 1.377 . S
C2835 C2833 1.389 . S
C2835 C2836 1.524 . S
C2836 C2835 1.524 . S
C2836 C2837 1.397 . S
C2836 C2841 1.363 . S
C2837 H2808 0.950 . S
C2837 C2836 1.397 . S
C2837 C2838 1.334 . S
C2838 H2809 0.950 . S
C2838 C2837 1.334 . S
C2838 C2839 1.287 . S
C2839 C2838 1.287 . S
C2839 C2840 1.524 . S
C2839 H2842 0.999 . S
C2840 H2810 0.950 . S
C2840 C2839 1.524 . S
C2840 C2841 1.415 . S
C2841 H2811 0.950 . S
C2841 C2836 1.363 . S
C2841 C2840 1.415 . S
H2842 C2839 0.999 . S
H2843 C2824 0.913 . S
C613 N13 0.921 . S
C628 N2 0.921 . S
C663 N46 0.921 . S
C678 N35 0.921 . S
C713 N68 0.920 . S
C728 N79 0.921 . S
C763 N112 0.921 . S
C778 N101 0.920 . S
C813 N145 0.921 . S
C828 N134 0.920 . S
C863 N167 0.921 . S
C878 N178 0.921 . S
C913 N200 0.921 . S
C928 N211 0.921 . S
C963 N233 0.921 . S
C978 N244 0.921 . S
C1013 N277 0.920 . S
C1028 N266 0.920 . S
C1063 N310 0.921 1_556 S
C1078 N299 0.920 . S
C1113 N343 0.920 1_556 S
C1128 N332 0.920 . S
C1163 N365 0.921 . S
C1178 N376 0.921 1_556 S
C1213 N398 0.920 . S
C1228 N409 0.920 1_554 S
C1263 N431 0.920 . S
C1278 N442 0.921 1_554 S
C1313 N464 0.920 . S
C1328 N475 0.921 1_554 S
C1363 N508 0.920 . S
C1378 N497 0.920 . S
C1413 N541 0.921 . S
C1428 N530 0.921 . S
C1463 N563 0.920 . S
C1478 N574 0.920 . S
C1513 C579 1.571 . S
C1528 C18 1.571 . S
C1563 C51 1.571 . S
C1578 C513 1.571 . S
C1613 C546 1.572 . S
C1628 C84 1.572 . S
C1663 C249 1.572 . S
C1678 C117 1.572 . S
C1713 C150 1.571 . S
C1728 C282 1.571 . S
C1763 C183 1.572 . S
C1778 C216 1.572 . S
C1813 C315 1.572 . S
C1828 C447 1.572 . S
C1863 C480 1.572 . S
C1878 C348 1.572 . S
C1913 C381 1.572 . S
C1928 C414 1.572 . S
C1963 C7 1.503 . S
C1978 C106 1.504 . S
C2013 C40 1.503 . S
C2028 C139 1.503 . S
C2063 C172 1.504 . S
C2078 C73 1.504 . S
C2113 C186 1.537 . S
C2128 C54 1.537 . S
C2163 C120 1.537 . S
C2178 C87 1.537 . S
C2213 C153 1.536 . S
C2228 C21 1.536 . S
C2263 C304 1.503 . S
C2278 C205 1.503 . S
C2313 C337 1.504 . S
C2328 C238 1.504 . S
C2363 C271 1.504 . S
C2378 C370 1.504 . S
C2413 C384 1.536 . S
C2428 C252 1.536 . S
C2463 C285 1.537 . S
C2478 C318 1.537 . S
C2513 C219 1.537 . S
C2528 C351 1.537 . S
C2563 C502 1.503 . S
C2578 C403 1.504 . S
C2613 C535 1.504 . S
C2628 C436 1.504 . S
C2663 C568 1.504 . S
C2678 C469 1.504 . S
C2713 C450 1.537 . S
C2728 C582 1.537 . S
C2763 C483 1.536 . S
C2778 C516 1.536 . S
C2813 C549 1.536 . S
C2828 C417 1.536 . S
