# Generated by pormake.
# Topology unr, (4)-cn, num edge types: 1
# Building blocks:
#     Node 0, Type 0, BuildingBlock: QUQFOY_clean_sbu_1, # of connection points: 4
#     Node 1, Type 0, BuildingBlock: QUQFOY_clean_sbu_1, # of connection points: 4
#     Node 2, Type 0, BuildingBlock: QUQFOY_clean_sbu_1, # of connection points: 4
#     Node 3, Type 0, BuildingBlock: QUQFOY_clean_sbu_1, # of connection points: 4
#     Node 4, Type 0, BuildingBlock: QUQFOY_clean_sbu_1, # of connection points: 4
#     Node 5, Type 0, BuildingBlock: QUQFOY_clean_sbu_1, # of connection points: 4
#     Node 6, Type 0, BuildingBlock: QUQFOY_clean_sbu_1, # of connection points: 4
#     Node 7, Type 0, BuildingBlock: QUQFOY_clean_sbu_1, # of connection points: 4
#     Node 8, Type 0, BuildingBlock: QUQFOY_clean_sbu_1, # of connection points: 4
#     Node 9, Type 0, BuildingBlock: QUQFOY_clean_sbu_1, # of connection points: 4
#     Node 10, Type 0, BuildingBlock: QUQFOY_clean_sbu_1, # of connection points: 4
#     Node 11, Type 0, BuildingBlock: QUQFOY_clean_sbu_1, # of connection points: 4
#     Node 12, Type 0, BuildingBlock: QUQFOY_clean_sbu_1, # of connection points: 4
#     Node 13, Type 0, BuildingBlock: QUQFOY_clean_sbu_1, # of connection points: 4
#     Node 14, Type 0, BuildingBlock: QUQFOY_clean_sbu_1, # of connection points: 4
#     Node 15, Type 0, BuildingBlock: QUQFOY_clean_sbu_1, # of connection points: 4
#     Node 16, Type 0, BuildingBlock: QUQFOY_clean_sbu_1, # of connection points: 4
#     Node 17, Type 0, BuildingBlock: QUQFOY_clean_sbu_1, # of connection points: 4
#     Node 18, Type 0, BuildingBlock: QUQFOY_clean_sbu_1, # of connection points: 4
#     Node 19, Type 0, BuildingBlock: QUQFOY_clean_sbu_1, # of connection points: 4
#     Node 20, Type 0, BuildingBlock: QUQFOY_clean_sbu_1, # of connection points: 4
#     Node 21, Type 0, BuildingBlock: QUQFOY_clean_sbu_1, # of connection points: 4
#     Node 22, Type 0, BuildingBlock: QUQFOY_clean_sbu_1, # of connection points: 4
#     Node 23, Type 0, BuildingBlock: QUQFOY_clean_sbu_1, # of connection points: 4
#     Node 24, Type 0, BuildingBlock: QUQFOY_clean_sbu_1, # of connection points: 4
#     Node 25, Type 0, BuildingBlock: QUQFOY_clean_sbu_1, # of connection points: 4
#     Node 26, Type 0, BuildingBlock: QUQFOY_clean_sbu_1, # of connection points: 4
#     Node 27, Type 0, BuildingBlock: QUQFOY_clean_sbu_1, # of connection points: 4
#     Node 28, Type 0, BuildingBlock: QUQFOY_clean_sbu_1, # of connection points: 4
#     Node 29, Type 0, BuildingBlock: QUQFOY_clean_sbu_1, # of connection points: 4
#     Node 30, Type 0, BuildingBlock: QUQFOY_clean_sbu_1, # of connection points: 4
#     Node 31, Type 0, BuildingBlock: QUQFOY_clean_sbu_1, # of connection points: 4
#     Node 32, Type 0, BuildingBlock: QUQFOY_clean_sbu_1, # of connection points: 4
#     Node 33, Type 0, BuildingBlock: QUQFOY_clean_sbu_1, # of connection points: 4
#     Node 34, Type 0, BuildingBlock: QUQFOY_clean_sbu_1, # of connection points: 4
#     Node 35, Type 0, BuildingBlock: QUQFOY_clean_sbu_1, # of connection points: 4
#     Edge 36, Type (0, 0), BuildingBlock: CIFDUS_clean_linker_0, # of connection points: 2
#     Edge 37, Type (0, 0), BuildingBlock: CIFDUS_clean_linker_0, # of connection points: 2
#     Edge 38, Type (0, 0), BuildingBlock: CIFDUS_clean_linker_0, # of connection points: 2
#     Edge 39, Type (0, 0), BuildingBlock: CIFDUS_clean_linker_0, # of connection points: 2
#     Edge 40, Type (0, 0), BuildingBlock: CIFDUS_clean_linker_0, # of connection points: 2
#     Edge 41, Type (0, 0), BuildingBlock: CIFDUS_clean_linker_0, # of connection points: 2
#     Edge 42, Type (0, 0), BuildingBlock: CIFDUS_clean_linker_0, # of connection points: 2
#     Edge 43, Type (0, 0), BuildingBlock: CIFDUS_clean_linker_0, # of connection points: 2
#     Edge 44, Type (0, 0), BuildingBlock: CIFDUS_clean_linker_0, # of connection points: 2
#     Edge 45, Type (0, 0), BuildingBlock: CIFDUS_clean_linker_0, # of connection points: 2
#     Edge 46, Type (0, 0), BuildingBlock: CIFDUS_clean_linker_0, # of connection points: 2
#     Edge 47, Type (0, 0), BuildingBlock: CIFDUS_clean_linker_0, # of connection points: 2
#     Edge 48, Type (0, 0), BuildingBlock: CIFDUS_clean_linker_0, # of connection points: 2
#     Edge 49, Type (0, 0), BuildingBlock: CIFDUS_clean_linker_0, # of connection points: 2
#     Edge 50, Type (0, 0), BuildingBlock: CIFDUS_clean_linker_0, # of connection points: 2
#     Edge 51, Type (0, 0), BuildingBlock: CIFDUS_clean_linker_0, # of connection points: 2
#     Edge 52, Type (0, 0), BuildingBlock: CIFDUS_clean_linker_0, # of connection points: 2
#     Edge 53, Type (0, 0), BuildingBlock: CIFDUS_clean_linker_0, # of connection points: 2
#     Edge 54, Type (0, 0), BuildingBlock: CIFDUS_clean_linker_0, # of connection points: 2
#     Edge 55, Type (0, 0), BuildingBlock: CIFDUS_clean_linker_0, # of connection points: 2
#     Edge 56, Type (0, 0), BuildingBlock: CIFDUS_clean_linker_0, # of connection points: 2
#     Edge 57, Type (0, 0), BuildingBlock: CIFDUS_clean_linker_0, # of connection points: 2
#     Edge 58, Type (0, 0), BuildingBlock: CIFDUS_clean_linker_0, # of connection points: 2
#     Edge 59, Type (0, 0), BuildingBlock: CIFDUS_clean_linker_0, # of connection points: 2
#     Edge 60, Type (0, 0), BuildingBlock: CIFDUS_clean_linker_0, # of connection points: 2
#     Edge 61, Type (0, 0), BuildingBlock: CIFDUS_clean_linker_0, # of connection points: 2
#     Edge 62, Type (0, 0), BuildingBlock: CIFDUS_clean_linker_0, # of connection points: 2
#     Edge 63, Type (0, 0), BuildingBlock: CIFDUS_clean_linker_0, # of connection points: 2
#     Edge 64, Type (0, 0), BuildingBlock: CIFDUS_clean_linker_0, # of connection points: 2
#     Edge 65, Type (0, 0), BuildingBlock: CIFDUS_clean_linker_0, # of connection points: 2
#     Edge 66, Type (0, 0), BuildingBlock: CIFDUS_clean_linker_0, # of connection points: 2
#     Edge 67, Type (0, 0), BuildingBlock: CIFDUS_clean_linker_0, # of connection points: 2
#     Edge 68, Type (0, 0), BuildingBlock: CIFDUS_clean_linker_0, # of connection points: 2
#     Edge 69, Type (0, 0), BuildingBlock: CIFDUS_clean_linker_0, # of connection points: 2
#     Edge 70, Type (0, 0), BuildingBlock: CIFDUS_clean_linker_0, # of connection points: 2
#     Edge 71, Type (0, 0), BuildingBlock: CIFDUS_clean_linker_0, # of connection points: 2
#     Edge 72, Type (0, 0), BuildingBlock: CIFDUS_clean_linker_0, # of connection points: 2
#     Edge 73, Type (0, 0), BuildingBlock: CIFDUS_clean_linker_0, # of connection points: 2
#     Edge 74, Type (0, 0), BuildingBlock: CIFDUS_clean_linker_0, # of connection points: 2
#     Edge 75, Type (0, 0), BuildingBlock: CIFDUS_clean_linker_0, # of connection points: 2
#     Edge 76, Type (0, 0), BuildingBlock: CIFDUS_clean_linker_0, # of connection points: 2
#     Edge 77, Type (0, 0), BuildingBlock: CIFDUS_clean_linker_0, # of connection points: 2
#     Edge 78, Type (0, 0), BuildingBlock: CIFDUS_clean_linker_0, # of connection points: 2
#     Edge 79, Type (0, 0), BuildingBlock: CIFDUS_clean_linker_0, # of connection points: 2
#     Edge 80, Type (0, 0), BuildingBlock: CIFDUS_clean_linker_0, # of connection points: 2
#     Edge 81, Type (0, 0), BuildingBlock: CIFDUS_clean_linker_0, # of connection points: 2
#     Edge 82, Type (0, 0), BuildingBlock: CIFDUS_clean_linker_0, # of connection points: 2
#     Edge 83, Type (0, 0), BuildingBlock: CIFDUS_clean_linker_0, # of connection points: 2
#     Edge 84, Type (0, 0), BuildingBlock: CIFDUS_clean_linker_0, # of connection points: 2
#     Edge 85, Type (0, 0), BuildingBlock: CIFDUS_clean_linker_0, # of connection points: 2
#     Edge 86, Type (0, 0), BuildingBlock: CIFDUS_clean_linker_0, # of connection points: 2
#     Edge 87, Type (0, 0), BuildingBlock: CIFDUS_clean_linker_0, # of connection points: 2
#     Edge 88, Type (0, 0), BuildingBlock: CIFDUS_clean_linker_0, # of connection points: 2
#     Edge 89, Type (0, 0), BuildingBlock: CIFDUS_clean_linker_0, # of connection points: 2
#     Edge 90, Type (0, 0), BuildingBlock: CIFDUS_clean_linker_0, # of connection points: 2
#     Edge 91, Type (0, 0), BuildingBlock: CIFDUS_clean_linker_0, # of connection points: 2
#     Edge 92, Type (0, 0), BuildingBlock: CIFDUS_clean_linker_0, # of connection points: 2
#     Edge 93, Type (0, 0), BuildingBlock: CIFDUS_clean_linker_0, # of connection points: 2
#     Edge 94, Type (0, 0), BuildingBlock: CIFDUS_clean_linker_0, # of connection points: 2
#     Edge 95, Type (0, 0), BuildingBlock: CIFDUS_clean_linker_0, # of connection points: 2
#     Edge 96, Type (0, 0), BuildingBlock: CIFDUS_clean_linker_0, # of connection points: 2
#     Edge 97, Type (0, 0), BuildingBlock: CIFDUS_clean_linker_0, # of connection points: 2
#     Edge 98, Type (0, 0), BuildingBlock: CIFDUS_clean_linker_0, # of connection points: 2
#     Edge 99, Type (0, 0), BuildingBlock: CIFDUS_clean_linker_0, # of connection points: 2
#     Edge 100, Type (0, 0), BuildingBlock: CIFDUS_clean_linker_0, # of connection points: 2
#     Edge 101, Type (0, 0), BuildingBlock: CIFDUS_clean_linker_0, # of connection points: 2
#     Edge 102, Type (0, 0), BuildingBlock: CIFDUS_clean_linker_0, # of connection points: 2
#     Edge 103, Type (0, 0), BuildingBlock: CIFDUS_clean_linker_0, # of connection points: 2
#     Edge 104, Type (0, 0), BuildingBlock: CIFDUS_clean_linker_0, # of connection points: 2
#     Edge 105, Type (0, 0), BuildingBlock: CIFDUS_clean_linker_0, # of connection points: 2
#     Edge 106, Type (0, 0), BuildingBlock: CIFDUS_clean_linker_0, # of connection points: 2
#     Edge 107, Type (0, 0), BuildingBlock: CIFDUS_clean_linker_0, # of connection points: 2
# Relax obj value: 0.301
# Max RMSD: 0.110
# Mean RMSD: 0.110
data_MOF--net-unr--node1-QUQFOY_clean_sbu_1--edge1-CIFDUS_clean_linker_0
_symmetry_space_group_name_H-M    P1
_symmetry_Int_Tables_number       1
_symmetry_cell_setting            triclinic
loop_
_symmetry_equiv_pos_as_xyz
'x, y, z'
_cell_length_a     43.524224
_cell_length_b     43.521233
_cell_length_c     120.47135
_cell_angle_alpha  90.041794
_cell_angle_beta   89.996427
_cell_angle_gamma 119.98217
loop_
_atom_site_label
_atom_site_type_symbol
_atom_site_fract_x
_atom_site_fract_y
_atom_site_fract_z
_atom_type_partial_charge
O0 O 0.15137 0.05587 0.17361 0.0
Cd1 Cd 0.18084 0.1097 0.17227 0.0
Cd2 Cd 0.17074 0.10649 0.19537 0.0
O3 O 0.16398 0.05702 0.19135 0.0
O4 O 0.21487 0.12047 0.16003 0.0
O5 O 0.22995 0.1301 0.1779 0.0
C6 C 0.23872 0.12936 0.16767 0.0
C7 C 0.17345 0.11651 0.21465 0.0
C8 C 0.15177 0.03987 0.18235 0.0
C9 C 0.13468 0.13515 0.17938 0.0
O10 O 0.1376 0.12272 0.1886 0.0
O11 O 0.15335 0.13634 0.17113 0.0
O12 O 0.14616 0.09125 0.2099 0.0
O13 O 0.20057 0.13628 0.20854 0.0
O14 O 0.92417 0.07988 0.17665 0.0
Cd15 Cd 0.87053 0.0568 0.17523 0.0
Cd16 Cd 0.87288 0.04078 0.1981 0.0
O17 O 0.92318 0.08343 0.19487 0.0
O18 O 0.86209 0.08543 0.16433 0.0
O19 O 0.84911 0.0829 0.1823 0.0
C20 C 0.85172 0.09687 0.17261 0.0
C21 C 0.86552 0.02544 0.21708 0.0
C22 C 0.94026 0.09209 0.18577 0.0
C23 C 0.84166 0.98271 0.17938 0.0
O24 O 0.85287 0.99421 0.1891 0.0
O25 O 0.84339 0.00375 0.17181 0.0
O26 O 0.88815 0.02299 0.2109 0.0
O27 O 0.84687 0.03764 0.21262 0.0
O28 O 0.89899 0.83076 0.17338 0.0
Cd29 Cd 0.92333 0.80137 0.17171 0.0
Cd30 Cd 0.93487 0.81637 0.19544 0.0
O31 O 0.89116 0.82158 0.19141 0.0
O32 O 0.90086 0.76993 0.15881 0.0
O33 O 0.89398 0.75105 0.17629 0.0
C34 C 0.88544 0.74447 0.16591 0.0
C35 C 0.94563 0.8202 0.21474 0.0
C36 C 0.8841 0.83165 0.18233 0.0
C37 C -0.00356 0.84756 0.17797 0.0
O38 O 0.98302 0.84613 0.18746 0.0
O39 O 0.97721 0.82854 0.17003 0.0
O40 O 0.94758 0.84604 0.20908 0.0
O41 O 0.9366 0.79098 0.20955 0.0
O42 O 0.07995 0.15852 0.31475 0.0
Cd43 Cd 0.13378 0.18508 0.31644 0.0
Cd44 Cd 0.13004 0.17191 0.29354 0.0
O45 O 0.07994 0.16493 0.29661 0.0
O46 O 0.14383 0.21879 0.32871 0.0
O47 O 0.15863 0.23494 0.31111 0.0
C48 C 0.156 0.24339 0.32124 0.0
C49 C 0.14564 0.17345 0.27475 0.0
C50 C 0.06349 0.1563 0.30583 0.0
C51 C 0.15502 0.13485 0.31063 0.0
O52 O 0.14408 0.13843 0.30122 0.0
O53 O 0.15676 0.15438 0.3187 0.0
O54 O 0.11939 0.14625 0.2792 0.0
O55 O 0.16212 0.20167 0.28075 0.0
O56 O 0.84233 0.91339 0.32012 0.0
Cd57 Cd 0.81717 0.94221 0.32127 0.0
Cd58 Cd 0.82605 0.9479 0.29858 0.0
O59 O 0.8309 0.90386 0.30225 0.0
O60 O 0.77779 0.91826 0.3319 0.0
O61 O 0.77073 0.92047 0.31364 0.0
C62 C 0.75717 0.90811 0.32331 0.0
C63 C 0.8206 0.95629 0.27954 0.0
C64 C 0.84127 0.89696 0.3113 0.0
C65 C 0.86682 0.01261 0.31444 0.0
O66 O 0.86164 -0.00319 0.30517 0.0
O67 O 0.84868 -0.00404 0.32287 0.0
O68 O 0.84828 0.95746 0.2837 0.0
O69 O 0.79435 0.94845 0.28614 0.0
O70 O 0.08556 0.92042 0.31506 0.0
Cd71 Cd 0.05862 0.86701 0.31769 0.0
Cd72 Cd 0.04124 0.86673 0.29469 0.0
O73 O 0.08436 0.9176 0.29677 0.0
O74 O 0.08346 0.86005 0.3303 0.0
O75 O 0.08316 0.84075 0.3132 0.0
C76 C 0.09488 0.8456 0.32329 0.0
C77 C 0.02491 0.8496 0.27603 0.0
C78 C 0.09595 0.93541 0.30571 0.0
C79 C 0.9847 0.84307 0.31362 0.0
O80 O -0.00449 0.8518 0.3037 0.0
O81 O 0.00575 0.84447 0.32114 0.0
O82 O 0.0228 0.87511 0.28058 0.0
O83 O 0.03802 0.83416 0.28191 0.0
O84 O 0.83989 0.92813 0.83477 0.0
Cd85 Cd 0.81558 0.87439 0.8364 0.0
Cd86 Cd 0.82288 0.8755 0.81333 0.0
O87 O 0.82989 0.92547 0.81676 0.0
O88 O 0.77737 0.85955 0.84744 0.0
O89 O 0.7683 0.84828 0.82932 0.0
C90 C 0.75574 0.84781 0.8391 0.0
C91 C 0.81668 0.86066 0.79432 0.0
C92 C 0.83965 0.94311 0.82577 0.0
C93 C 0.86405 0.85205 0.82935 0.0
O94 O 0.85734 0.86075 0.81998 0.0
O95 O 0.84793 0.85308 0.83799 0.0
O96 O 0.84515 0.88635 0.79842 0.0
O97 O 0.79011 0.84384 0.80094 0.0
O98 O 0.07565 0.92514 0.82172 0.0
Cd99 Cd 0.12944 0.9537 0.82015 0.0
Cd100 Cd 0.11443 0.94485 0.79771 0.0
O101 O 0.0681 0.90423 0.80468 0.0
O102 O 0.14927 0.94066 0.8328 0.0
O103 O 0.15106 0.92528 0.81528 0.0
C104 C 0.15612 0.92249 0.82574 0.0
C105 C 0.12043 0.94 0.77848 0.0
C106 C 0.05588 0.90348 0.81434 0.0
C107 C 0.14493 0.01823 0.80907 0.0
O108 O 0.12928 -0.00301 0.80108 0.0
O109 O 0.15148 0.0072 0.818 0.0
O110 O 0.0947 0.94252 0.78268 0.0
O111 O 0.14267 0.93856 0.78523 0.0
O112 O 0.06441 0.15951 0.81845 0.0
Cd113 Cd 0.03903 0.18775 0.81649 0.0
Cd114 Cd 0.03478 0.16752 0.7946 0.0
O115 O 0.07652 0.16199 0.80065 0.0
O116 O 0.06043 0.22568 0.82767 0.0
O117 O 0.06741 0.23509 0.80944 0.0
C118 C 0.07594 0.24709 0.81947 0.0
C119 C 0.03181 0.1664 0.77508 0.0
C120 C 0.08129 0.15537 0.81058 0.0
C121 C 0.96829 0.13709 0.80976 0.0
O122 O 0.98434 0.13633 0.80104 0.0
O123 O 0.98499 0.15942 0.81738 0.0
O124 O 0.02755 0.13974 0.78082 0.0
O125 O 0.03861 0.19487 0.78038 0.0
O126 O 0.8968 0.83294 0.68856 0.0
Cd127 Cd 0.84329 0.8128 0.68911 0.0
Cd128 Cd 0.85774 0.8321 0.71168 0.0
O129 O 0.90204 0.82939 0.70661 0.0
O130 O 0.82539 0.77845 0.67679 0.0
O131 O 0.81471 0.76317 0.69457 0.0
C132 C 0.81297 0.75395 0.68427 0.0
C133 C 0.85361 0.83494 0.73111 0.0
C134 C 0.91499 0.83385 0.69689 0.0
C135 C 0.83313 0.87099 0.69535 0.0
O136 O 0.84646 0.86852 0.70446 0.0
O137 O 0.82607 0.84846 0.68767 0.0
O138 O 0.82996 0.80765 0.72576 0.0
O139 O 0.87918 0.85933 0.72549 0.0
O140 O 0.14855 0.04813 0.67555 0.0
Cd141 Cd 0.1677 0.01409 0.67399 0.0
Cd142 Cd 0.16256 0.0128 0.69726 0.0
O143 O 0.162 0.05905 0.69332 0.0
O144 O 0.20062 0.03076 0.66128 0.0
O145 O 0.2175 0.03504 0.67895 0.0
C146 C 0.22572 0.04301 0.6686 0.0
C147 C 0.16833 0.00331 0.71618 0.0
C148 C 0.15241 0.06645 0.68419 0.0
C149 C 0.11371 0.94744 0.68233 0.0
O150 O 0.12258 0.96503 0.69131 0.0
O151 O 0.13103 0.9611 0.67349 0.0
O152 O 0.14164 0.00478 0.71233 0.0
O153 O 0.19395 0.01005 0.70944 0.0
O154 O 0.93355 0.08343 0.67051 0.0
Cd155 Cd 0.96636 0.13703 0.66936 0.0
Cd156 Cd 0.97231 0.13351 0.69198 0.0
O157 O 0.92643 0.08593 0.68853 0.0
O158 O 0.94511 0.15592 0.65889 0.0
O159 O 0.94872 0.16514 0.67717 0.0
C160 C 0.93682 0.16779 0.66758 0.0
C161 C 0.98122 0.14886 0.71093 0.0
C162 C 0.91748 0.06871 0.67944 0.0
C163 C 0.03526 0.15135 0.67596 0.0
O164 O 0.01983 0.14249 0.68532 0.0
O165 O 0.01924 0.15436 0.66759 0.0
O166 O 0.98133 0.12148 0.70704 0.0
O167 O 0.97437 0.16746 0.7041 0.0
O168 O 0.82017 0.40656 0.51174 0.0
Cd169 Cd 0.84586 0.46072 0.51192 0.0
Cd170 Cd 0.83582 0.45178 0.53407 0.0
O171 O 0.83297 0.40455 0.5293 0.0
O172 O 0.88605 0.47801 0.5015 0.0
O173 O 0.89166 0.48268 0.51992 0.0
C174 C 0.90586 0.48566 0.51025 0.0
C175 C 0.84372 0.46516 0.55312 0.0
C176 C 0.82204 0.3893 0.51994 0.0
C177 C 0.79424 0.47753 0.51964 0.0
O178 O 0.7981 0.4634 0.52836 0.0
O179 O 0.81455 0.48352 0.51137 0.0
O180 O 0.81636 0.43757 0.54926 0.0
O181 O 0.8684 0.48481 0.54619 0.0
O182 O 0.58215 0.42005 0.51528 0.0
Cd183 Cd 0.53444 0.39787 0.50655 0.0
Cd184 Cd 0.52487 0.36868 0.53562 0.0
O185 O 0.57678 0.40972 0.53366 0.0
O186 O 0.53883 0.42632 0.4932 0.0
O187 O 0.51001 0.42525 0.50865 0.0
C188 C 0.522 0.43844 0.49892 0.0
C189 C 0.50638 0.33521 0.55185 0.0
C190 C 0.59547 0.42492 0.52503 0.0
C191 C 0.49971 0.33187 0.51416 0.0
O192 O 0.49742 0.35239 0.52119 0.0
O193 O 0.50613 0.34337 0.50433 0.0
O194 O 0.52347 0.32913 0.54422 0.0
O195 O 0.49934 0.36045 0.55021 0.0
O196 O 0.56887 0.17876 0.51363 0.0
Cd197 Cd 0.59555 0.15147 0.51232 0.0
Cd198 Cd 0.61596 0.17658 0.53467 0.0
O199 O 0.57958 0.19308 0.5314 0.0
O200 O 0.57078 0.11671 0.50035 0.0
O201 O 0.56972 0.10204 0.51807 0.0
C202 C 0.55845 0.09279 0.508 0.0
C203 C 0.62913 0.17389 0.55351 0.0
C204 C 0.56448 0.19259 0.52231 0.0
C205 C 0.67163 0.19893 0.51585 0.0
O206 O 0.66238 0.19984 0.52578 0.0
O207 O 0.64875 0.17994 0.50862 0.0
O208 O 0.63631 0.20307 0.54873 0.0
O209 O 0.61258 0.14516 0.54774 0.0
O210 O 0.72521 0.48668 0.65325 0.0
Cd211 Cd 0.77786 0.51683 0.65683 0.0
Cd212 Cd 0.78325 0.49941 0.63341 0.0
O213 O 0.73142 0.48916 0.63504 0.0
O214 O 0.78103 0.54938 0.66876 0.0
O215 O 0.80211 0.56696 0.65172 0.0
C216 C 0.79546 0.57449 0.66151 0.0
C217 C 0.79503 0.48924 0.61502 0.0
C218 C 0.71181 0.48127 0.64361 0.0
C219 C 0.80975 0.47321 0.65379 0.0
O220 O 0.80255 0.47505 0.64368 0.0
O221 O 0.80361 0.49017 0.66119 0.0
O222 O 0.77202 0.46463 0.62124 0.0
O223 O 0.8114 0.52091 0.61906 0.0
O224 O 0.49839 0.22991 0.65396 0.0
Cd225 Cd 0.46927 0.25486 0.65463 0.0
Cd226 Cd 0.4789 0.25877 0.63224 0.0
O227 O 0.48632 0.21661 0.63628 0.0
O228 O 0.43622 0.23393 0.66721 0.0
O229 O 0.41967 0.22536 0.64946 0.0
C230 C 0.41174 0.21765 0.65983 0.0
C231 C 0.46644 0.26294 0.6135 0.0
C232 C 0.49826 0.21258 0.64547 0.0
C233 C 0.51719 0.32538 0.64692 0.0
O234 O 0.51496 0.30882 0.63799 0.0
O235 O 0.49711 0.30914 0.65507 0.0
O236 O 0.49557 0.26492 0.61661 0.0
O237 O 0.44296 0.25691 0.62101 0.0
O238 O 0.7533 0.26313 0.65727 0.0
Cd239 Cd 0.72918 0.20925 0.65684 0.0
Cd240 Cd 0.71831 0.21838 0.63423 0.0
O241 O 0.76148 0.26664 0.63917 0.0
O242 O 0.75684 0.19512 0.6663 0.0
O243 O 0.75412 0.19025 0.64786 0.0
C244 C 0.76778 0.1881 0.65717 0.0
C245 C 0.70786 0.21494 0.61497 0.0
C246 C 0.76838 0.2813 0.6487 0.0
C247 C 0.65628 0.18216 0.6515 0.0
O248 O 0.66977 0.19635 0.64221 0.0
O249 O 0.67567 0.18163 0.65926 0.0
O250 O 0.70522 0.23744 0.62118 0.0
O251 O 0.71761 0.19442 0.61956 0.0
O252 O 0.50508 0.22628 0.15664 0.0
Cd253 Cd 0.48566 0.17288 0.15755 0.0
Cd254 Cd 0.49534 0.17957 0.13478 0.0
O255 O 0.49613 0.2265 0.13862 0.0
O256 O 0.4505 0.15504 0.16966 0.0
O257 O 0.43681 0.14453 0.15171 0.0
C258 C 0.42673 0.14298 0.16192 0.0
C259 C 0.48978 0.16377 0.11591 0.0
C260 C 0.50371 0.24219 0.14799 0.0
C261 C 0.54202 0.1622 0.15022 0.0
O262 O 0.53507 0.17214 0.14113 0.0
O263 O 0.52244 0.15675 0.15864 0.0
O264 O 0.51665 0.19184 0.11974 0.0
O265 O 0.464 0.14525 0.12264 0.0
O266 O 0.76054 0.2667 0.15095 0.0
Cd267 Cd 0.81388 0.29939 0.15245 0.0
Cd268 Cd 0.8107 0.30723 0.12952 0.0
O269 O 0.76215 0.26193 0.13277 0.0
O270 O 0.82934 0.27861 0.16416 0.0
O271 O 0.84291 0.28002 0.14627 0.0
C272 C 0.84271 0.26886 0.15625 0.0
C273 C 0.82597 0.31764 0.11058 0.0
C274 C 0.74541 0.25184 0.14193 0.0
C275 C 0.83047 0.36951 0.14616 0.0
O276 O 0.82226 0.35513 0.13662 0.0
O277 O 0.8313 0.35216 0.15449 0.0
O278 O 0.79934 0.31872 0.11469 0.0
O279 O 0.84361 0.30868 0.11713 0.0
O280 O 0.71366 0.47621 0.1554 0.0
Cd281 Cd 0.68319 0.4987 0.15218 0.0
Cd282 Cd 0.69635 0.49141 0.13072 0.0
O283 O 0.73832 0.49099 0.13887 0.0
O284 O 0.69411 0.53528 0.16358 0.0
O285 O 0.71037 0.54693 0.14584 0.0
C286 C 0.71228 0.55807 0.15593 0.0
C287 C 0.70399 0.5041 0.11163 0.0
C288 C 0.73785 0.4801 0.14871 0.0
C289 C 0.62225 0.44465 0.14087 0.0
O290 O 0.64531 0.45032 0.13348 0.0
O291 O 0.63052 0.46448 0.14937 0.0
O292 O 0.70384 0.47688 0.11579 0.0
O293 O 0.70132 0.52568 0.11838 0.0
O294 O 0.57131 0.17978 0.00968 0.0
Cd295 Cd 0.51881 0.15506 0.01376 0.0
Cd296 Cd 0.54254 0.16435 0.03457 0.0
O297 O 0.58542 0.16747 0.02596 0.0
O298 O 0.49258 0.11618 0.00306 0.0
O299 O 0.50216 0.10829 0.02073 0.0
C300 C 0.4914 0.09528 0.0109 0.0
C301 C 0.5372 0.15026 0.05351 0.0
C302 C 0.59375 0.17808 0.01599 0.0
C303 C 0.51104 0.20821 0.02532 0.0
O304 O 0.53069 0.20419 0.03228 0.0
O305 O 0.49841 0.18755 0.01704 0.0
O306 O 0.56418 0.17802 0.04955 0.0
O307 O 0.51354 0.12872 0.04661 0.0
O308 O 0.81819 0.40633 0.00508 0.0
Cd309 Cd 0.84176 0.37606 0.00405 0.0
Cd310 Cd 0.8383 0.37624 0.02777 0.0
O311 O 0.83574 0.42044 0.02243 0.0
O312 O 0.87805 0.39518 0.99225 0.0
O313 O 0.88997 0.40042 0.01039 0.0
C314 C 0.90083 0.40888 1.00025 0.0
C315 C 0.84235 0.37497 0.04725 0.0
C316 C 0.82339 0.42578 0.01352 0.0
C317 C 0.79477 0.30759 0.01347 0.0
O318 O 0.8026 0.32541 0.02242 0.0
O319 O 0.80957 0.3223 0.0044 0.0
O320 O 0.81523 0.37269 0.04229 0.0
O321 O 0.86843 0.3788 0.04118 0.0
O322 O 0.59307 0.42611 0.00878 0.0
Cd323 Cd 0.62257 0.47991 0.00762 0.0
Cd324 Cd 0.63715 0.47528 0.02962 0.0
O325 O 0.59357 0.42505 0.02705 0.0
O326 O 0.59759 0.4929 0.99664 0.0
O327 O 0.60144 0.5064 0.0146 0.0
C328 C 0.58804 0.50518 0.00491 0.0
C329 C 0.65044 0.49243 0.04836 0.0
C330 C 0.58177 0.40927 0.01782 0.0
C331 C 0.69493 0.49864 0.01126 0.0
O332 O 0.6834 0.48879 0.02107 0.0
O333 O 0.67499 0.50025 0.00389 0.0
O334 O 0.65376 0.4672 0.04412 0.0
O335 O 0.63807 0.50769 0.04207 0.0
O336 O 0.48383 0.74968 0.85719 0.0
Cd337 Cd 0.50894 0.8036 0.85593 0.0
Cd338 Cd 0.49187 0.79926 0.87774 0.0
O339 O 0.4843 0.74862 0.87547 0.0
O340 O 0.54745 0.81681 0.84513 0.0
O341 O 0.55618 0.82971 0.86315 0.0
C342 C 0.56888 0.82898 0.85349 0.0
C343 C 0.49775 0.8201 0.89606 0.0
C344 C 0.47875 0.73269 0.86619 0.0
C345 C 0.45543 0.82182 0.85995 0.0
O346 O 0.45759 0.81126 0.86959 0.0
O347 O 0.4771 0.82458 0.85245 0.0
O348 O 0.46914 0.79334 0.89245 0.0
O349 O 0.52472 0.8342 0.88948 0.0
O350 O 0.24007 0.74085 0.85009 0.0
Cd351 Cd 0.18729 0.71389 0.84638 0.0
Cd352 Cd 0.183 0.6941 0.86992 0.0
O353 O 0.23344 0.73815 0.8683 0.0
O354 O 0.18321 0.73731 0.83284 0.0
O355 O 0.1617 0.74027 0.84929 0.0
C356 C 0.16837 0.75035 0.83904 0.0
C357 C 0.16587 0.67779 0.8886 0.0
C358 C 0.25292 0.75083 0.85973 0.0
C359 C 0.16226 0.63921 0.85056 0.0
O360 O 0.16919 0.64902 0.86063 0.0
O361 O 0.16506 0.66097 0.84309 0.0
O362 O 0.19105 0.67518 0.88401 0.0
O363 O 0.15037 0.69076 0.88269 0.0
O364 O 0.24371 0.50757 0.8451 0.0
Cd365 Cd 0.2747 0.48462 0.84443 0.0
Cd366 Cd 0.27188 0.48769 0.86728 0.0
O367 O 0.22648 0.48787 0.86206 0.0
O368 O 0.25649 0.44929 0.83236 0.0
O369 O 0.25141 0.43577 0.85036 0.0
C370 C 0.2433 0.42568 0.84014 0.0
C371 C 0.27297 0.47936 0.8865 0.0
C372 C 0.22269 0.50133 0.85317 0.0
C373 C 0.34094 0.53528 0.85398 0.0
O374 O 0.32158 0.52774 0.86258 0.0
O375 O 0.32837 0.51794 0.84506 0.0
O376 O 0.2721 0.50603 0.88235 0.0
O377 O 0.27216 0.45597 0.87975 0.0
O378 O 0.40617 0.82733 0.99938 0.0
Cd379 Cd 0.46019 0.85274 0.99833 0.0
Cd380 Cd 0.44712 0.84664 0.97597 0.0
O381 O 0.40192 0.84435 0.98252 0.0
O382 O 0.4801 0.88887 0.01017 0.0
O383 O 0.48031 0.90106 0.99218 0.0
C384 C 0.48563 0.91163 0.00242 0.0
C385 C 0.45392 0.85527 0.95668 0.0
C386 C 0.38798 0.83135 0.99189 0.0
C387 C 0.47444 0.80215 0.98793 0.0
O388 O 0.45865 0.80745 0.97993 0.0
O389 O 0.48253 0.82125 0.9966 0.0
O390 O 0.42701 0.82846 0.96103 0.0
O391 O 0.47697 0.87888 0.96327 0.0
O392 O 0.1743 0.60284 0.99583 0.0
Cd393 Cd 0.14434 0.62608 0.99317 0.0
Cd394 Cd 0.15968 0.62348 0.97125 0.0
O395 O 0.16684 0.58398 0.97855 0.0
O396 O 0.10551 0.60632 0.0041 0.0
O397 O 0.09814 0.5945 0.98598 0.0
C398 C 0.08517 0.58821 0.99593 0.0
C399 C 0.15351 0.62043 0.95179 0.0
C400 C 0.17629 0.58304 0.98849 0.0
C401 C 0.19173 0.69452 0.98409 0.0
O402 O 0.19172 0.67591 0.97595 0.0
O403 O 0.17099 0.68007 0.99224 0.0
O404 O 0.18192 0.62543 0.95663 0.0
O405 O 0.12732 0.61568 0.95799 0.0
O406 O 0.4031 0.58793 0.98627 0.0
Cd407 Cd 0.37628 0.53432 0.98822 0.0
Cd408 Cd 0.36294 0.53421 0.9658 0.0
O409 O 0.40334 0.58646 0.96797 0.0
O410 O 0.40313 0.52363 0.99918 0.0
O411 O 0.39891 0.50935 0.98126 0.0
C412 C 0.413 0.51161 0.99092 0.0
C413 C 0.34968 0.51412 0.94737 0.0
C414 C 0.41378 0.60374 0.97704 0.0
C415 C 0.30299 0.50897 0.98353 0.0
O416 O 0.3152 0.51758 0.97376 0.0
O417 O 0.32318 0.51136 0.99148 0.0
O418 O 0.34509 0.53907 0.95117 0.0
O419 O 0.36431 0.50152 0.95383 0.0
O420 O 0.1701 0.57444 0.49506 0.0
Cd421 Cd 0.14854 0.52085 0.49582 0.0
Cd422 Cd 0.16147 0.52763 0.47281 0.0
O423 O 0.15845 0.57237 0.4772 0.0
O424 O 0.10913 0.50349 0.50647 0.0
O425 O 0.10218 0.49444 0.4882 0.0
C426 C 0.0885 0.49289 0.49788 0.0
C427 C 0.16539 0.52211 0.45347 0.0
C428 C 0.16681 0.58904 0.48639 0.0
C429 C 0.20252 0.50567 0.48954 0.0
O430 O 0.19744 0.51615 0.48023 0.0
O431 O 0.18293 0.50222 0.49778 0.0
O432 O 0.18949 0.54802 0.45906 0.0
O433 O 0.13761 0.49907 0.45876 0.0
O434 O 0.41771 0.6001 0.48534 0.0
Cd435 Cd 0.47103 0.63405 0.4838 0.0
Cd436 Cd 0.45665 0.62926 0.4618 0.0
O437 O 0.41343 0.5834 0.46792 0.0
O438 O 0.49376 0.6226 0.49597 0.0
O439 O 0.49799 0.61165 0.47815 0.0
C440 C 0.50365 0.60801 0.48849 0.0
C441 C 0.46473 0.62827 0.44256 0.0
C442 C 0.40009 0.57885 0.47758 0.0
C443 C 0.47757 0.69801 0.47473 0.0
O444 O 0.46341 0.67814 0.46634 0.0
O445 O 0.48724 0.68684 0.48299 0.0
O446 O 0.4369 0.6266 0.44679 0.0
O447 O 0.48847 0.62965 0.44927 0.0
O448 O 0.38445 0.82035 0.49698 0.0
Cd449 Cd 0.35399 0.84346 0.499 0.0
Cd450 Cd 0.3438 0.83156 0.47587 0.0
O451 O 0.3885 0.82719 0.4788 0.0
O452 O 0.37547 0.87807 0.51119 0.0
O453 O 0.37609 0.89277 0.49345 0.0
C454 C 0.38661 0.90219 0.50358 0.0
C455 C 0.33198 0.83418 0.45687 0.0
C456 C 0.39837 0.8195 0.48782 0.0
C457 C 0.28298 0.79078 0.49309 0.0
O458 O 0.29678 0.796 0.48349 0.0
O459 O 0.30088 0.80994 0.5012 0.0
O460 O 0.33051 0.80674 0.46132 0.0
O461 O 0.34181 0.86164 0.4631 0.0
O462 O 0.24413 0.50265 0.34835 0.0
Cd463 Cd 0.19019 0.47808 0.34819 0.0
Cd464 Cd 0.19861 0.48635 0.37119 0.0
O465 O 0.24734 0.49293 0.36615 0.0
O466 O 0.17457 0.44337 0.33599 0.0
O467 O 0.1658 0.42874 0.35389 0.0
C468 C 0.16455 0.41937 0.34362 0.0
C469 C 0.18779 0.48006 0.39044 0.0
C470 C 0.26194 0.50249 0.35666 0.0
C471 C 0.17062 0.5271 0.35688 0.0
O472 O 0.18264 0.52117 0.36572 0.0
O473 O 0.1684 0.51024 0.34804 0.0
O474 O 0.21327 0.50818 0.3861 0.0
O475 O 0.16918 0.45369 0.3839 0.0
O476 O 0.48638 0.7371 0.33993 0.0
Cd477 Cd 0.50974 0.7067 0.33845 0.0
Cd478 Cd 0.50115 0.70014 0.36119 0.0
O479 O 0.49456 0.74342 0.35803 0.0
O480 O 0.54879 0.72989 0.32769 0.0
O481 O 0.55642 0.72676 0.34586 0.0
C482 C 0.56977 0.7392 0.33618 0.0
C483 C 0.50755 0.69018 0.38 0.0
C484 C 0.48587 0.75193 0.34894 0.0
C485 C 0.45922 0.63627 0.34503 0.0
O486 O 0.4657 0.65155 0.35442 0.0
O487 O 0.4765 0.65328 0.33652 0.0
O488 O 0.47904 0.68776 0.37608 0.0
O489 O 0.5342 0.70065 0.37337 0.0
O490 O 0.26123 0.7507 0.34967 0.0
Cd491 Cd 0.28832 0.80399 0.35258 0.0
Cd492 Cd 0.28331 0.78396 0.37408 0.0
O493 O 0.24246 0.73815 0.36691 0.0
O494 O 0.27295 0.82445 0.34075 0.0
O495 O 0.25995 0.82448 0.35863 0.0
C496 C 0.25564 0.83038 0.34837 0.0
C497 C 0.27956 0.78871 0.39341 0.0
C498 C 0.24098 0.72856 0.35685 0.0
C499 C 0.35488 0.81798 0.36169 0.0
O500 O 0.33509 0.79979 0.36969 0.0
O501 O 0.34216 0.82695 0.35367 0.0
O502 O 0.28283 0.76378 0.3889 0.0
O503 O 0.27712 0.81098 0.38694 0.0
H504 H 0.10005 0.14823 0.19561 0.0
H505 H 0.10141 0.13565 0.16012 0.0
H506 H 0.04158 0.12707 0.15877 0.0
H507 H 0.98536 0.11103 0.16815 0.0
H508 H 0.98346 0.11983 0.20384 0.0
H509 H 0.04709 0.14226 0.20461 0.0
C510 C 0.08761 0.14452 0.18754 0.0
C511 C 0.10472 0.1417 0.17802 0.0
C512 C 0.05281 0.13818 0.1869 0.0
C513 C 0.08867 0.13766 0.16759 0.0
C514 C 0.05429 0.13235 0.16684 0.0
C515 C -0.00104 0.11853 0.17608 0.0
C516 C 0.97947 0.11282 0.18595 0.0
C517 C 0.03546 0.13059 0.17651 0.0
C518 C -0.00235 0.12331 0.19613 0.0
C519 C 0.03407 0.13612 0.19659 0.0
H520 H 0.82087 0.92812 0.19363 0.0
H521 H 0.84652 0.95641 0.1592 0.0
H522 H 0.85578 0.90594 0.15653 0.0
H523 H 0.86985 0.86316 0.16509 0.0
H524 H 0.84851 0.83849 0.19996 0.0
H525 H 0.82411 0.87796 0.20132 0.0
C526 C 0.82743 0.92259 0.18545 0.0
C527 C 0.83393 0.94643 0.1767 0.0
C528 C 0.83438 0.89468 0.18414 0.0
C529 C 0.84164 0.93861 0.1661 0.0
C530 C 0.84741 0.91 0.16461 0.0
C531 C 0.85915 0.86578 0.17294 0.0
C532 C 0.86201 0.84871 0.18248 0.0
C533 C 0.84602 0.88931 0.17375 0.0
C534 C 0.84737 0.85189 0.19253 0.0
C535 C 0.8334 0.87448 0.19332 0.0
H536 H 0.12128 0.99464 0.16493 0.0
H537 H 0.14085 -0.00322 0.20016 0.0
H538 H 0.09878 0.93345 0.20135 0.0
H539 H 0.04831 0.88117 0.19318 0.0
H540 H 0.02622 0.87952 0.1582 0.0
H541 H 0.07814 0.93854 0.15606 0.0
C542 C 0.11695 0.98113 0.17283 0.0
C543 C 0.1334 0.00066 0.1825 0.0
C544 C 0.09206 0.94479 0.17352 0.0
C545 C 0.12806 0.98257 0.19262 0.0
C546 C 0.10392 0.94632 0.19332 0.0
C547 C 0.05544 0.89333 0.18502 0.0
C548 C 0.03303 0.87647 0.17592 0.0
C549 C 0.08448 0.92767 0.18394 0.0
C550 C 0.04291 0.8921 0.16536 0.0
C551 C 0.07239 0.92603 0.16416 0.0
H552 H 0.16434 0.09649 0.29478 0.0
H553 H 0.15266 0.10145 0.3302 0.0
H554 H 0.13877 0.03983 0.33197 0.0
H555 H 0.1182 0.98208 0.32297 0.0
H556 H 0.12499 0.97666 0.28731 0.0
H557 H 0.15256 0.04099 0.28613 0.0
C558 C 0.15963 0.08438 0.30294 0.0
C559 C 0.15869 0.1032 0.31232 0.0
C560 C 0.14995 0.0486 0.30381 0.0
C561 C 0.15331 0.08747 0.32284 0.0
C562 C 0.14493 0.05208 0.32383 0.0
C563 C 0.12631 0.99498 0.31495 0.0
C564 C 0.11873 0.97446 0.30521 0.0
C565 C 0.14124 0.03192 0.3143 0.0
C566 C 0.12991 0.9917 0.29492 0.0
C567 C 0.14569 0.02852 0.29423 0.0
H568 H 0.90134 0.05878 0.29785 0.0
H569 H 0.90359 0.04609 0.33331 0.0
H570 H 0.96477 0.09527 0.33395 0.0
H571 H 0.02033 0.13287 0.32392 0.0
H572 H 0.01858 0.14195 0.28825 0.0
H573 H 0.95436 0.10333 0.28823 0.0
C574 C 0.91492 0.06734 0.30577 0.0
C575 C 0.89832 0.04832 0.31548 0.0
C576 C 0.9504 0.0945 0.306 0.0
C577 C 0.91589 0.06014 0.3257 0.0
C578 C 0.95101 0.088 0.32605 0.0
C579 C 0.00587 0.12698 0.31615 0.0
C580 C 0.02438 0.13954 0.30607 0.0
C581 C 0.96904 0.10398 0.31617 0.0
C582 C 0.00512 0.13218 0.29611 0.0
C583 C 0.96837 0.11003 0.29609 0.0
H584 H 0.87279 0.88215 0.32841 0.0
H585 H 0.84377 0.85812 0.29388 0.0
H586 H 0.8804 0.83054 0.29239 0.0
H587 H 0.9295 0.82476 0.29976 0.0
H588 H 0.96189 0.85248 0.33386 0.0
H589 H 0.91419 0.8658 0.33676 0.0
C590 C 0.87383 0.87018 0.32062 0.0
C591 C 0.85641 0.87316 0.31118 0.0
C592 C 0.89572 0.85515 0.31973 0.0
C593 C 0.8575 0.8569 0.30122 0.0
C594 C 0.87848 0.84111 0.30035 0.0
C595 C 0.92547 0.83273 0.30792 0.0
C596 C 0.9497 0.83854 0.3165 0.0
C597 C 0.8991 0.84182 0.30938 0.0
C598 C 0.94377 0.8481 0.32709 0.0
C599 C 0.91675 0.85615 0.32871 0.0
H600 H 0.89119 0.83003 0.81313 0.0
H601 H 0.90838 0.86613 0.84711 0.0
H602 H 0.97011 0.88002 0.84594 0.0
H603 H 0.02132 0.89388 0.83401 0.0
H604 H 0.00411 0.86085 0.79966 0.0
H605 H 0.94026 0.83356 0.80226 0.0
C606 C 0.90818 0.83992 0.82039 0.0
C607 C 0.89558 0.84783 0.8301 0.0
C608 C 0.94387 0.8492 0.8195 0.0
C609 C 0.91754 0.85998 0.83951 0.0
C610 C 0.95298 0.86838 0.83879 0.0
C611 C 0.00359 0.88009 0.82714 0.0
C612 C 0.01755 0.88033 0.81657 0.0
C613 C 0.96686 0.86507 0.82863 0.0
C614 C -0.00584 0.86165 0.80784 0.0
C615 C 0.95759 0.84606 0.8093 0.0
H616 H 0.11829 0.13987 0.79562 0.0
H617 H 0.09397 0.13404 0.83057 0.0
H618 H 0.11991 0.0964 0.83365 0.0
H619 H 0.13877 0.05632 0.82581 0.0
H620 H 0.1585 0.05882 0.79065 0.0
H621 H 0.14613 0.10728 0.78831 0.0
C622 C 0.11927 0.13096 0.80396 0.0
C623 C 0.10339 0.13901 0.81279 0.0
C624 C 0.13336 0.10856 0.80563 0.0
C625 C 0.10545 0.12773 0.82357 0.0
C626 C 0.12026 0.10615 0.82535 0.0
C627 C 0.14164 0.06841 0.81772 0.0
C628 C 0.14911 0.05389 0.8084 0.0
C629 C 0.13279 0.09509 0.81636 0.0
C630 C 0.1525 0.0695 0.79793 0.0
C631 C 0.14514 0.09699 0.79658 0.0
H632 H 0.84371 0.98363 0.80806 0.0
H633 H 0.86972 0.99026 0.84289 0.0
H634 H 0.90617 0.05457 0.84146 0.0
H635 H 0.94006 0.1065 0.82953 0.0
H636 H 0.91752 0.09864 0.79446 0.0
H637 H 0.86952 0.03762 0.79683 0.0
C638 C 0.85674 -0.00083 0.8154 0.0
C639 C 0.85481 0.98204 0.82548 0.0
C640 C 0.87845 0.03604 0.81446 0.0
C641 C 0.87127 0.00267 0.83496 0.0
C642 C 0.89221 0.03951 0.83416 0.0
C643 C 0.92371 0.09189 0.82249 0.0
C644 C 0.93257 0.10674 0.81182 0.0
C645 C 0.89738 0.05623 0.82383 0.0
C646 C 0.91132 0.08752 0.80275 0.0
C647 C 0.88411 0.05254 0.80408 0.0
H648 H 0.87742 0.02961 0.69684 0.0
H649 H 0.89878 0.02133 0.6623 0.0
H650 H 0.86613 0.95677 0.66365 0.0
H651 H 0.84228 0.90393 0.67553 0.0
H652 H 0.82525 0.91314 0.71036 0.0
H653 H 0.84446 0.97584 0.70793 0.0
C654 C 0.87437 0.01372 0.68954 0.0
C655 C 0.89135 0.03029 0.67957 0.0
C656 C 0.85641 0.97667 0.69044 0.0
C657 C 0.88648 0.00928 0.67014 0.0
C658 C 0.86787 0.97231 0.6709 0.0
C659 C 0.84153 0.91937 0.6825 0.0
C660 C 0.83291 0.90418 0.69314 0.0
C661 C 0.85422 0.95581 0.68114 0.0
C662 C 0.83217 0.92446 0.70211 0.0
C663 C 0.84341 0.96036 0.70074 0.0
H664 H 0.07957 0.90503 0.6997 0.0
H665 H 0.06939 0.91666 0.66455 0.0
H666 H 0.00535 0.87631 0.66576 0.0
H667 H 0.95196 0.84871 0.6775 0.0
H668 H 0.96273 0.84142 0.7129 0.0
H669 H 0.02682 0.86905 0.71089 0.0
C670 C 0.06346 0.89792 0.69223 0.0
C671 C 0.079 0.91439 0.6821 0.0
C672 C 0.02664 0.87621 0.6931 0.0
C673 C 0.05803 0.90447 0.67246 0.0
C674 C 0.02133 0.88178 0.67319 0.0
C675 C 0.96824 0.85253 0.68475 0.0
C676 C 0.95261 0.84386 0.69538 0.0
C677 C 0.00522 0.86924 0.68358 0.0
C678 C 0.97406 0.84841 0.70466 0.0
C679 C 0.01076 0.86423 0.70352 0.0
H680 H 0.08103 0.15796 0.69216 0.0
H681 H 0.06322 0.14099 0.65689 0.0
H682 H 0.10412 0.11794 0.65608 0.0
H683 H 0.13397 0.09098 0.66607 0.0
H684 H 0.148 0.10441 0.70159 0.0
H685 H 0.11966 0.14058 0.7016 0.0
C686 C 0.08688 0.15016 0.68423 0.0
C687 C 0.06845 0.15028 0.67465 0.0
C688 C 0.10905 0.13545 0.68392 0.0
C689 C 0.07684 0.14088 0.66441 0.0
C690 C 0.09989 0.12725 0.66396 0.0
C691 C 0.13142 0.10233 0.67379 0.0
C692 C 0.14216 0.09412 0.68386 0.0
C693 C 0.11437 0.12247 0.67378 0.0
C694 C 0.1394 0.10974 0.69375 0.0
C695 C 0.12316 0.13043 0.69377 0.0
H696 H 0.64427 0.45362 0.50842 0.0
H697 H 0.6349 0.44216 0.5441 0.0
H698 H 0.69849 0.46481 0.54558 0.0
H699 H 0.75397 0.47791 0.53661 0.0
H700 H 0.76272 0.48508 0.5009 0.0
H701 H 0.70229 0.47505 0.4996 0.0
C702 C 0.65615 0.45666 0.51656 0.0
C703 C 0.6346 0.44538 0.52612 0.0
C704 C 0.6926 0.46875 0.51733 0.0
C705 C 0.65066 0.45006 0.53658 0.0
C706 C 0.68706 0.46297 0.53744 0.0
C707 C 0.74295 0.478 0.52853 0.0
C708 C 0.76248 0.48143 0.51885 0.0
C709 C 0.70789 0.47086 0.52784 0.0
C710 C 0.74815 0.48224 0.50848 0.0
C711 C 0.71347 0.47618 0.50773 0.0
H712 H 0.47087 0.26128 0.51045 0.0
H713 H 0.56242 0.35214 0.52414 0.0
H714 H 0.58802 0.31584 0.52942 0.0
H715 H 0.58608 0.25876 0.52921 0.0
H716 H 0.49978 0.16935 0.5128 0.0
H717 H 0.47005 0.20389 0.50956 0.0
C718 C 0.49614 0.27278 0.51474 0.0
C719 C 0.51395 0.30894 0.51751 0.0
C720 C 0.51154 0.25183 0.51722 0.0
C721 C 0.54745 0.32409 0.52252 0.0
C722 C 0.56227 0.30335 0.52542 0.0
C723 C 0.56044 0.24676 0.52511 0.0
C724 C 0.54468 0.21162 0.52141 0.0
C725 C 0.54462 0.26724 0.52278 0.0
C726 C 0.51206 0.19641 0.5158 0.0
C727 C 0.49521 0.21616 0.51392 0.0
H728 H 0.72986 0.22829 0.5288 0.0
H729 H 0.69396 0.23176 0.49572 0.0
H730 H 0.74445 0.29147 0.49317 0.0
H731 H 0.78864 0.34688 0.50216 0.0
H732 H 0.82079 0.34417 0.5359 0.0
H733 H 0.78228 0.28003 0.53634 0.0
C734 C 0.73384 0.24166 0.52089 0.0
C735 C 0.7078 0.22619 0.51258 0.0
C736 C 0.76175 0.27656 0.51972 0.0
C737 C 0.71351 0.24329 0.50228 0.0
C738 C 0.74212 0.27767 0.50088 0.0
C739 C 0.78794 0.33218 0.50951 0.0
C740 C 0.80663 0.35043 0.51912 0.0
C741 C 0.76486 0.29536 0.50984 0.0
C742 C 0.80602 0.33089 0.52848 0.0
C743 C 0.78397 0.29417 0.52875 0.0
H744 H 0.83733 0.44324 0.64052 0.0
H745 H 0.79785 0.43845 0.67368 0.0
H746 H 0.78768 0.37823 0.67582 0.0
H747 H 0.77648 0.32314 0.66656 0.0
H748 H 0.81068 0.32715 0.63266 0.0
H749 H 0.83643 0.39135 0.63252 0.0
C750 C 0.82755 0.42942 0.64835 0.0
C751 C 0.81739 0.44481 0.65681 0.0
C752 C 0.81985 0.39422 0.64926 0.0
C753 C 0.80557 0.42705 0.667 0.0
C754 C 0.79925 0.39238 0.66816 0.0
C755 C 0.79032 0.33814 0.65923 0.0
C756 C 0.79077 0.32028 0.64953 0.0
C757 C 0.80408 0.37499 0.65907 0.0
C758 C 0.80925 0.34016 0.64016 0.0
C759 C 0.82403 0.3769 0.64007 0.0
H760 H 0.55663 0.37017 0.63054 0.0
H761 H 0.54557 0.36239 0.66618 0.0
H762 H 0.60408 0.41515 0.66825 0.0
H763 H 0.66201 0.45597 0.65998 0.0
H764 H 0.67372 0.46108 0.6243 0.0
H765 H 0.61113 0.41714 0.62222 0.0
C766 C 0.56668 0.38045 0.63876 0.0
C767 C 0.54719 0.36194 0.6482 0.0
C768 C 0.60069 0.40999 0.63989 0.0
C769 C 0.56019 0.37598 0.65879 0.0
C770 C 0.59378 0.40598 0.65997 0.0
C771 C 0.65076 0.44804 0.65173 0.0
C772 C 0.67278 0.46115 0.64232 0.0
C773 C 0.61491 0.42207 0.65059 0.0
C774 C 0.65757 0.45102 0.6317 0.0
C775 C 0.62176 0.42579 0.63049 0.0
H776 H 0.60385 0.15912 0.63638 0.0
H777 H 0.626 0.18468 0.67111 0.0
H778 H 0.57271 0.18973 0.67282 0.0
H779 H 0.52873 0.20033 0.6634 0.0
H780 H 0.50941 0.17821 0.62834 0.0
H781 H 0.55231 0.15786 0.62784 0.0
C782 C 0.59634 0.16468 0.6444 0.0
C783 C 0.61912 0.17237 0.65354 0.0
C784 C 0.56661 0.16892 0.6452 0.0
C785 C 0.60893 0.17886 0.66394 0.0
C786 C 0.5787 0.1822 0.66488 0.0
C787 C 0.53328 0.19028 0.6557 0.0
C788 C 0.51675 0.19189 0.64585 0.0
C789 C 0.55869 0.17944 0.65541 0.0
C790 C 0.52231 0.17798 0.636 0.0
C791 C 0.54692 0.16639 0.6357 0.0
H792 H 0.70193 0.22463 0.15987 0.0
H793 H 0.7031 0.21767 0.12411 0.0
H794 H 0.63867 0.181 0.12393 0.0
H795 H 0.58238 0.16034 0.13354 0.0
H796 H 0.58072 0.17096 0.16912 0.0
H797 H 0.64495 0.19544 0.1698 0.0
C798 C 0.68818 0.21464 0.15205 0.0
C799 C 0.70728 0.22467 0.142 0.0
C800 C 0.65102 0.19416 0.15198 0.0
C801 C 0.68906 0.2109 0.13196 0.0
C802 C 0.65218 0.18989 0.13184 0.0
C803 C 0.59593 0.16713 0.14149 0.0
C804 C 0.57699 0.16463 0.15123 0.0
C805 C 0.6329 0.1827 0.14175 0.0
C806 C 0.59472 0.17281 0.16149 0.0
C807 C 0.63153 0.18727 0.16186 0.0
H808 H 0.80479 0.38923 0.16351 0.0
H809 H 0.85517 0.42425 0.13159 0.0
H810 H 0.83555 0.46781 0.13052 0.0
H811 H 0.79324 0.4857 0.13668 0.0
H812 H 0.73877 0.44709 0.16793 0.0
H813 H 0.77106 0.41559 0.1713 0.0
C814 C 0.81274 0.40746 0.15656 0.0
C815 C 0.83099 0.40337 0.14758 0.0
C816 C 0.79971 0.43109 0.15573 0.0
C817 C 0.84091 0.42688 0.13856 0.0
C818 C 0.82937 0.4515 0.1379 0.0
C819 C 0.78894 0.47101 0.14434 0.0
C820 C 0.76289 0.46793 0.15188 0.0
C821 C 0.80691 0.4522 0.1461 0.0
C822 C 0.75821 0.44939 0.16187 0.0
C823 C 0.77664 0.43129 0.16381 0.0
H824 H 0.51528 0.28741 0.13087 0.0
H825 H 0.51754 0.28275 0.16664 0.0
H826 H 0.54801 0.3473 0.16765 0.0
H827 H 0.58407 0.40432 0.15826 0.0
H828 H 0.58616 0.40844 0.12249 0.0
H829 H 0.54308 0.34511 0.12159 0.0
C830 C 0.52171 0.30045 0.1389 0.0
C831 C 0.51496 0.28032 0.14864 0.0
C832 C 0.54021 0.33762 0.13941 0.0
C833 C 0.52307 0.29765 0.15899 0.0
C834 C 0.54052 0.3346 0.15958 0.0
C835 C 0.57406 0.39159 0.15028 0.0
C836 C 0.58851 0.41077 0.14045 0.0
C837 C 0.55073 0.35484 0.14983 0.0
C838 C 0.57554 0.39401 0.13016 0.0
C839 C 0.55116 0.35776 0.12965 0.0
H840 H 0.55502 0.36408 0.03535 0.0
H841 H 0.55358 0.36712 0.99953 0.0
H842 H 0.52316 0.30257 0.99882 0.0
H843 H 0.50742 0.24658 0.00821 0.0
H844 H 0.51282 0.24427 0.04392 0.0
H845 H 0.5301 0.30688 0.04485 0.0
C846 C 0.54747 0.35064 0.02739 0.0
C847 C 0.55742 0.37046 0.01752 0.0
C848 C 0.53068 0.31351 0.02702 0.0
C849 C 0.54686 0.35256 0.00728 0.0
C850 C 0.52943 0.31558 0.00685 0.0
C851 C 0.51108 0.25948 0.0162 0.0
C852 C 0.50933 0.24111 0.02597 0.0
C853 C 0.52265 0.2959 0.01664 0.0
C854 C 0.51435 0.2581 0.03628 0.0
C855 C 0.52453 0.29395 0.03681 0.0
H856 H 0.74548 0.27681 0.9973 0.0
H857 H 0.77275 0.25948 0.0302 0.0
H858 H 0.71207 0.21139 0.03312 0.0
H859 H 0.64958 0.18412 0.02788 0.0
H860 H 0.62138 0.20525 0.99557 0.0
H861 H 0.68396 0.24151 0.9908 0.0
C862 C 0.73843 0.26153 0.00492 0.0
C863 C 0.76328 0.27184 0.01358 0.0
C864 C 0.70304 0.2352 0.00676 0.0
C865 C 0.75386 0.25208 0.02346 0.0
C866 C 0.7191 0.22483 0.02517 0.0
C867 C 0.65707 0.19598 0.0197 0.0
C868 C 0.63084 0.19278 0.01222 0.0
C869 C 0.69309 0.21769 0.01714 0.0
C870 C 0.64104 0.20784 0.00158 0.0
C871 C 0.67687 0.22866 0.99884 0.0
H872 H 0.79358 0.44299 0.99643 0.0
H873 H 0.82655 0.46834 0.03064 0.0
H874 H 0.79575 0.50191 0.03203 0.0
H875 H 0.74996 0.51325 0.02478 0.0
H876 H 0.71407 0.48532 0.99098 0.0
H877 H 0.75658 0.46496 0.98805 0.0
C878 C 0.79466 0.45646 0.00412 0.0
C879 C 0.81143 0.4522 0.01351 0.0
C880 C 0.77628 0.47526 0.00495 0.0
C881 C 0.81321 0.4705 0.02334 0.0
C882 C 0.79559 0.48976 0.02416 0.0
C883 C 0.75228 0.50379 0.01666 0.0
C884 C 0.72839 0.49997 0.0082 0.0
C885 C 0.77561 0.49075 0.0152 0.0
C886 C 0.73205 0.48833 0.99766 0.0
C887 C 0.75601 0.47619 0.99602 0.0
H888 H 0.30355 0.77538 0.8436 0.0
H889 H 0.28914 0.78096 0.87888 0.0
H890 H 0.35317 0.81217 0.88158 0.0
H891 H 0.41161 0.82794 0.87445 0.0
H892 H 0.42597 0.81773 0.83947 0.0
H893 H 0.36382 0.79972 0.83606 0.0
C894 C 0.3144 0.78397 0.85186 0.0
C895 C 0.29152 0.77505 0.86106 0.0
C896 C 0.35127 0.80112 0.8534 0.0
C897 C 0.30608 0.78685 0.87168 0.0
C898 C 0.34272 0.80476 0.87324 0.0
C899 C 0.4014 0.82265 0.86603 0.0
C900 C 0.4231 0.82333 0.85727 0.0
C901 C 0.36538 0.81059 0.86423 0.0
C902 C 0.40976 0.81717 0.84638 0.0
C903 C 0.37408 0.80641 0.84445 0.0
H904 H 0.1429 0.58253 0.86391 0.0
H905 H 0.17523 0.61913 0.83037 0.0
H906 H 0.19115 0.57332 0.82746 0.0
H907 H 0.20864 0.53293 0.83592 0.0
H908 H 0.17916 0.49905 0.86986 0.0
H909 H 0.14908 0.53338 0.87108 0.0
C910 C 0.1524 0.57977 0.85585 0.0
C911 C 0.15886 0.60479 0.84748 0.0
C912 C 0.16283 0.55437 0.85439 0.0
C913 C 0.17037 0.60044 0.837 0.0
C914 C 0.1799 0.57449 0.83537 0.0
C915 C 0.19494 0.53238 0.8435 0.0
C916 C 0.19717 0.51438 0.85289 0.0
C917 C 0.17833 0.55288 0.84424 0.0
C918 C 0.17854 0.51327 0.86257 0.0
C919 C 0.16135 0.53297 0.86329 0.0
H920 H 0.37913 0.56977 0.87211 0.0
H921 H 0.38104 0.57455 0.83632 0.0
H922 H 0.42943 0.63608 0.83704 0.0
H923 H 0.46263 0.69088 0.84786 0.0
H924 H 0.45746 0.68652 0.88368 0.0
H925 H 0.41911 0.62229 0.88291 0.0
C926 C 0.39064 0.58402 0.86445 0.0
C927 C 0.37599 0.56794 0.85418 0.0
C928 C 0.41745 0.61963 0.86494 0.0
C929 C 0.39166 0.58642 0.84433 0.0
C930 C 0.4191 0.62172 0.84475 0.0
C931 C 0.45367 0.67585 0.85552 0.0
C932 C 0.46218 0.69361 0.86581 0.0
C933 C 0.43088 0.63903 0.85501 0.0
C934 C 0.45089 0.67363 0.87564 0.0
C935 C 0.42887 0.63688 0.87521 0.0
H936 H 0.44356 0.64786 0.99469 0.0
H937 H 0.43298 0.64772 0.95903 0.0
H938 H 0.45847 0.71195 0.95919 0.0
H939 H 0.47365 0.76575 0.9697 0.0
H940 H 0.48095 0.76556 0.00542 0.0
H941 H 0.4679 0.704 0.00496 0.0
C942 C 0.44736 0.66192 0.98692 0.0
C943 C 0.43552 0.64289 0.97689 0.0
C944 C 0.46133 0.69876 0.9871 0.0
C945 C 0.44135 0.66161 0.96688 0.0
C946 C 0.45587 0.69836 0.96697 0.0
C947 C 0.4732 0.7525 0.97738 0.0
C948 C 0.47745 0.76985 0.9876 0.0
C949 C 0.46444 0.71688 0.97707 0.0
C950 C 0.47755 0.75269 0.99745 0.0
C951 C 0.46971 0.71737 0.99719 0.0
H952 H 0.22912 0.72781 0.00243 0.0
H953 H 0.22145 0.74215 0.96735 0.0
H954 H 0.2816 0.79304 0.96731 0.0
H955 H 0.33966 0.82348 0.97627 0.0
H956 H 0.34932 0.8042 0.0109 0.0
H957 H 0.28514 0.76574 0.01217 0.0
C958 C 0.24015 0.74303 0.9949 0.0
C959 C 0.22122 0.73124 0.98489 0.0
C960 C 0.27549 0.77081 0.99481 0.0
C961 C 0.23578 0.75081 0.97513 0.0
C962 C 0.27025 0.77965 0.97509 0.0
C963 C 0.3277 0.81162 0.98418 0.0
C964 C 0.34932 0.81593 0.9934 0.0
C965 C 0.29101 0.78839 0.98473 0.0
C966 C 0.33332 0.80074 0.00361 0.0
C967 C 0.2966 0.77867 0.00434 0.0
H968 H 0.1757 0.53057 0.97611 0.0
H969 H 0.21425 0.58715 0.00705 0.0
H970 H 0.2516 0.56068 0.00975 0.0
H971 H 0.28199 0.53158 0.00138 0.0
H972 H 0.24577 0.47815 0.96991 0.0
H973 H 0.19797 0.49204 0.96957 0.0
C974 C 0.19176 0.53659 0.98355 0.0
C975 C 0.19296 0.56154 0.9912 0.0
C976 C 0.21362 0.52174 0.98496 0.0
C977 C 0.21326 0.56844 0.00093 0.0
C978 C 0.2347 0.55334 0.00248 0.0
C979 C 0.26266 0.52164 0.99471 0.0
C980 C 0.26758 0.50434 0.98562 0.0
C981 C 0.23634 0.5313 0.99429 0.0
C982 C 0.24255 0.49176 0.97697 0.0
C983 C 0.21549 0.50007 0.9767 0.0
H984 H 0.23601 0.48897 0.47395 0.0
H985 H 0.24412 0.52218 0.50806 0.0
H986 H 0.30772 0.54287 0.50793 0.0
H987 H 0.362 0.56355 0.49679 0.0
H988 H 0.35335 0.53298 0.4623 0.0
H989 H 0.28905 0.49895 0.46394 0.0
C990 C 0.25153 0.49962 0.48146 0.0
C991 C 0.23572 0.50479 0.49091 0.0
C992 C 0.28816 0.51276 0.48117 0.0
C993 C 0.25579 0.51806 0.50067 0.0
C994 C 0.29226 0.53036 0.50054 0.0
C995 C 0.34612 0.5488 0.4897 0.0
C996 C 0.36244 0.55174 0.47935 0.0
C997 C 0.30899 0.52983 0.49062 0.0
C998 C 0.3415 0.53182 0.47031 0.0
C999 C 0.30466 0.51234 0.47123 0.0
H1000 H 0.47487 0.73125 0.49344 0.0
H1001 H 0.47593 0.73817 0.45771 0.0
H1002 H 0.45655 0.78189 0.45876 0.0
H1003 H 0.42903 0.80919 0.46962 0.0
H1004 H 0.42391 0.7989 0.50532 0.0
H1005 H 0.45551 0.76587 0.50449 0.0
C1006 C 0.47196 0.74318 0.4859 0.0
C1007 C 0.4763 0.73117 0.47551 0.0
C1008 C 0.45934 0.76716 0.48655 0.0
C1009 C 0.47235 0.74676 0.4658 0.0
C1010 C 0.46105 0.77159 0.4664 0.0
C1011 C 0.43538 0.80032 0.47724 0.0
C1012 C 0.42336 0.80579 0.48748 0.0
C1013 C 0.45274 0.78055 0.4767 0.0
C1014 C 0.43231 0.79455 0.49729 0.0
C1015 C 0.45037 0.7756 0.49684 0.0
H1016 H 0.23398 0.75094 0.47771 0.0
H1017 H 0.25778 0.75438 0.5126 0.0
H1018 H 0.21746 0.69048 0.51399 0.0
H1019 H 0.18709 0.63298 0.50435 0.0
H1020 H 0.16745 0.62991 0.46911 0.0
H1021 H 0.19444 0.69423 0.46881 0.0
C1022 C 0.2295 0.73788 0.4857 0.0
C1023 C 0.24958 0.75714 0.49496 0.0
C1024 C 0.20779 0.701 0.4863 0.0
C1025 C 0.24292 0.74011 0.50531 0.0
C1026 C 0.22023 0.70344 0.50607 0.0
C1027 C 0.18808 0.6463 0.49664 0.0
C1028 C 0.17625 0.62674 0.48671 0.0
C1029 C 0.20441 0.68343 0.49647 0.0
C1030 C 0.17702 0.64434 0.47684 0.0
C1031 C 0.19245 0.68117 0.47665 0.0
H1032 H 0.19436 0.67421 0.36992 0.0
H1033 H 0.23766 0.6978 0.33675 0.0
H1034 H 0.21127 0.63465 0.33283 0.0
H1035 H 0.18649 0.57406 0.3401 0.0
H1036 H 0.14698 0.55135 0.37366 0.0
H1037 H 0.16017 0.61244 0.37602 0.0
C1038 C 0.19744 0.66556 0.36175 0.0
C1039 C 0.21877 0.69073 0.35376 0.0
C1040 C 0.18287 0.62921 0.35962 0.0
C1041 C 0.22189 0.67902 0.34315 0.0
C1042 C 0.20683 0.64285 0.34088 0.0
C1043 C 0.17944 0.58217 0.34775 0.0
C1044 C 0.1662 0.55851 0.35673 0.0
C1045 C 0.18872 0.6178 0.34923 0.0
C1046 C 0.15743 0.56932 0.36666 0.0
C1047 C 0.16529 0.60431 0.36805 0.0
H1048 H 0.30133 0.52543 0.33775 0.0
H1049 H 0.3096 0.5118 0.37293 0.0
H1050 H 0.37408 0.54599 0.37168 0.0
H1051 H 0.42653 0.58865 0.3614 0.0
H1052 H 0.41821 0.60616 0.32656 0.0
H1053 H 0.35552 0.56041 0.32677 0.0
C1054 C 0.31722 0.52937 0.34511 0.0
C1055 C 0.3006 0.51689 0.35548 0.0
C1056 C 0.3543 0.54978 0.34439 0.0
C1057 C 0.32163 0.52163 0.36489 0.0
C1058 C 0.35854 0.5412 0.36418 0.0
C1059 C 0.41124 0.58174 0.35377 0.0
C1060 C 0.4267 0.6013 0.34404 0.0
C1061 C 0.37498 0.55675 0.35409 0.0
C1062 C 0.40687 0.59164 0.33417 0.0
C1063 C 0.37088 0.56581 0.33433 0.0
H1064 H 0.38971 0.81921 0.34294 0.0
H1065 H 0.39845 0.82325 0.37864 0.0
H1066 H 0.44606 0.80914 0.3776 0.0
H1067 H 0.47548 0.78355 0.36688 0.0
H1068 H 0.46288 0.77448 0.33126 0.0
H1069 H 0.42694 0.80306 0.33192 0.0
C1070 C 0.40297 0.81832 0.35046 0.0
C1071 C 0.39036 0.82175 0.36085 0.0
C1072 C 0.42903 0.80839 0.34983 0.0
C1073 C 0.40758 0.82035 0.37054 0.0
C1074 C 0.43458 0.812 0.36996 0.0
C1075 C 0.46553 0.78847 0.35923 0.0
C1076 C 0.47107 0.77602 0.34908 0.0
C1077 C 0.444 0.80394 0.35969 0.0
C1078 C 0.45846 0.78318 0.33922 0.0
C1079 C 0.43784 0.79951 0.33959 0.0
H1080 H 0.12856 0.11313 0.26401 0.0
H1081 H 0.1901 0.22679 0.26038 0.0
H1082 H 0.20788 0.21947 0.24162 0.0
H1083 H 0.2024 0.17987 0.2258 0.0
H1084 H 0.13952 0.06648 0.23015 0.0
H1085 H 0.1264 0.07459 0.24921 0.0
C1086 C 0.1458 0.13644 0.25913 0.0
C1087 C 0.15745 0.17046 0.26349 0.0
C1088 C 0.15596 0.13199 0.24852 0.0
C1089 C 0.18046 0.2003 0.25714 0.0
C1090 C 0.19068 0.19608 0.24645 0.0
C1091 C 0.18653 0.15707 0.23104 0.0
C1092 C 0.1719 0.12261 0.22662 0.0
C1093 C 0.17826 0.16197 0.24199 0.0
C1094 C 0.15096 0.09322 0.23339 0.0
C1095 C 0.14329 0.09782 0.24426 0.0
H1096 H 0.81045 0.00994 0.23147 0.0
H1097 H 0.91129 0.01368 0.22886 0.0
H1098 H 0.90486 0.99081 0.24757 0.0
H1099 H 0.87157 0.97 0.26459 0.0
H1100 H 0.77095 0.96585 0.26813 0.0
H1101 H 0.77602 0.98801 0.24907 0.0
C1102 C 0.83105 0.00597 0.23506 0.0
C1103 C 0.86134 0.01361 0.22876 0.0
C1104 C 0.82709 0.99237 0.24592 0.0
C1105 C 0.88768 0.00801 0.23348 0.0
C1106 C 0.88404 0.99483 0.24419 0.0
C1107 C 0.85053 0.97372 0.26123 0.0
C1108 C 0.82093 0.96629 0.26778 0.0
C1109 C 0.8539 0.98683 0.25045 0.0
C1110 C 0.79396 0.97122 0.26323 0.0
C1111 C 0.79698 0.9841 0.25237 0.0
H1112 H 0.99123 0.87466 0.26344 0.0
H1113 H 0.02689 0.79831 0.26303 0.0
H1114 H 0.00286 0.77999 0.24421 0.0
H1115 H 0.97325 0.78758 0.22755 0.0
H1116 H 0.93946 0.86543 0.22857 0.0
H1117 H 0.96073 0.88081 0.24754 0.0
C1118 C 0.9939 0.85401 0.25927 0.0
C1119 C 0.01113 0.8381 0.26461 0.0
C1120 C 0.98004 0.84368 0.24857 0.0
C1121 C 0.01395 0.81116 0.25908 0.0
C1122 C 0.00011 0.80063 0.24833 0.0
C1123 C 0.97012 0.80747 0.23202 0.0
C1124 C 0.9548 0.82535 0.22667 0.0
C1125 C 0.98319 0.81684 0.24296 0.0
C1126 C 0.95127 0.85139 0.23249 0.0
C1127 C 0.96351 0.8603 0.24334 0.0
H1128 H 0.79542 0.80303 0.74485 0.0
H1129 H 0.90783 0.87837 0.74443 0.0
H1130 H 0.90577 0.89265 0.7638 0.0
H1131 H 0.87251 0.886 0.78054 0.0
H1132 H 0.76016 0.8114 0.78181 0.0
H1133 H 0.76166 0.79472 0.7624 0.0
C1134 C 0.81944 0.82219 0.74907 0.0
C1135 C 0.85171 0.8397 0.74319 0.0
C1136 C 0.81804 0.83077 0.76029 0.0
C1137 C 0.88262 0.86467 0.74873 0.0
C1138 C 0.8815 0.87294 0.75981 0.0
C1139 C 0.84818 0.86614 0.77661 0.0
C1140 C 0.81619 0.85025 0.78258 0.0
C1141 C 0.84935 0.85661 0.7656 0.0
C1142 C 0.78511 0.82423 0.77736 0.0
C1143 C 0.78601 0.81464 0.76628 0.0
H1144 H 0.18229 0.9705 0.76655 0.0
H1145 H 0.0683 0.91484 0.76325 0.0
H1146 H 0.07367 0.92833 0.7435 0.0
H1147 H 0.10993 0.96082 0.72774 0.0
H1148 H 0.22396 0.01749 0.73029 0.0
H1149 H 0.21956 -0.00115 0.74979 0.0
C1150 C 0.15876 0.96061 0.76141 0.0
C1151 C 0.12492 0.94181 0.76633 0.0
C1152 C 0.16204 0.9693 0.75003 0.0
C1153 C 0.09459 0.92947 0.75964 0.0
C1154 C 0.09762 0.93734 0.74837 0.0
C1155 C 0.13391 0.96915 0.73255 0.0
C1156 C 0.1672 0.99115 0.7277 0.0
C1157 C 0.1311 0.9582 0.74359 0.0
C1158 C 0.19802 0.00087 0.73392 0.0
C1159 C 0.19547 0.99018 0.74504 0.0
H1160 H 0.0056 0.11896 0.7253 0.0
H1161 H 0.97809 0.20121 0.72302 0.0
H1162 H 0.99387 0.21613 0.74266 0.0
H1163 H 0.01365 0.20378 0.76072 0.0
H1164 H 0.04003 0.12049 0.76219 0.0
H1165 H 0.02696 0.10837 0.74255 0.0
C1166 C 0.00291 0.14016 0.72905 0.0
C1167 C 0.99033 0.1587 0.72273 0.0
C1168 C 0.0121 0.14855 0.74021 0.0
C1169 C 0.98751 0.18637 0.72774 0.0
C1170 C -0.0034 0.19493 0.73895 0.0
C1171 C 0.01697 0.18338 0.75667 0.0
C1172 C 0.02768 0.16298 0.76291 0.0
C1173 C 0.00879 0.17603 0.7453 0.0
C1174 C 0.03162 0.13641 0.7576 0.0
C1175 C 0.02409 0.12937 0.74637 0.0
H1176 H 0.8004 0.42334 0.5692 0.0
H1177 H 0.88744 0.52908 0.56343 0.0
H1178 H 0.88067 0.54644 0.58228 0.0
H1179 H 0.84685 0.53196 0.60006 0.0
H1180 H 0.75907 0.42559 0.60485 0.0
H1181 H 0.7691 0.40839 0.58669 0.0
C1182 C 0.8182 0.45016 0.57207 0.0
C1183 C 0.84424 0.47492 0.56491 0.0
C1184 C 0.81364 0.46002 0.58272 0.0
C1185 C 0.86724 0.50945 0.56881 0.0
C1186 C 0.86315 0.51945 0.57955 0.0
C1187 C 0.82997 0.50509 0.59709 0.0
C1188 C 0.80207 0.48025 0.60381 0.0
C1189 C 0.83589 0.4951 0.58651 0.0
C1190 C 0.78063 0.4454 0.59988 0.0
C1191 C 0.78635 0.43539 0.58948 0.0
H1192 H 0.46206 0.33303 0.56838 0.0
H1193 H 0.52968 0.29119 0.55882 0.0
H1194 H 0.51972 0.26166 0.57667 0.0
H1195 H 0.49675 0.25238 0.59558 0.0
H1196 H 0.42832 0.29264 0.60547 0.0
H1197 H 0.43295 0.31742 0.58685 0.0
C1198 C 0.47432 0.31719 0.57019 0.0
C1199 C 0.49703 0.31483 0.56234 0.0
C1200 C 0.4683 0.29993 0.58051 0.0
C1201 C 0.51232 0.29375 0.56473 0.0
C1202 C 0.50666 0.2768 0.57495 0.0
C1203 C 0.48232 0.26604 0.59359 0.0
C1204 C 0.4625 0.27099 0.60187 0.0
C1205 C 0.48539 0.28037 0.58297 0.0
C1206 C 0.44363 0.28838 0.59919 0.0
C1207 C 0.44658 0.30284 0.58859 0.0
H1208 H 0.66326 0.23104 0.5668 0.0
H1209 H 0.62345 0.11823 0.56601 0.0
H1210 H 0.64692 0.12113 0.58475 0.0
H1211 H 0.67806 0.15619 0.60157 0.0
H1212 H 0.71557 0.26861 0.60195 0.0
H1213 H 0.69428 0.26548 0.58306 0.0
C1214 C 0.65956 0.20696 0.5707 0.0
C1215 C 0.64147 0.17444 0.56502 0.0
C1216 C 0.67311 0.20887 0.58137 0.0
C1217 C 0.63708 0.14359 0.57023 0.0
C1218 C 0.65065 0.14528 0.58092 0.0
C1219 C 0.682 0.17999 0.59741 0.0
C1220 C 0.69852 0.21263 0.6031 0.0
C1221 C 0.66878 0.17784 0.58658 0.0
C1222 C 0.70295 0.24321 0.59773 0.0
C1223 C 0.69067 0.24144 0.58695 0.0
H1224 H 0.47527 0.11955 0.06534 0.0
H1225 H 0.58917 0.17374 0.06885 0.0
H1226 H 0.58384 0.18057 0.08869 0.0
H1227 H 0.54785 0.17749 0.10449 0.0
H1228 H 0.43397 0.12428 0.10168 0.0
H1229 H 0.4381 0.11063 0.08209 0.0
C1230 C 0.49877 0.13194 0.07053 0.0
C1231 C 0.5326 0.14629 0.06565 0.0
C1232 C 0.49554 0.13664 0.08197 0.0
C1233 C 0.56289 0.16265 0.07242 0.0
C1234 C 0.55989 0.16676 0.08375 0.0
C1235 C 0.52385 0.16281 0.09961 0.0
C1236 C 0.49071 0.15259 0.1044 0.0
C1237 C 0.52651 0.15504 0.08851 0.0
C1238 C 0.4598 0.13274 0.09809 0.0
C1239 C 0.46221 0.12497 0.08692 0.0
H1240 H 0.87537 0.34829 0.06028 0.0
H1241 H 0.80713 0.39377 0.06151 0.0
H1242 H 0.79731 0.38096 0.08124 0.0
H1243 H 0.80419 0.35329 0.09772 0.0
H1244 H 0.87125 0.30654 0.09727 0.0
H1245 H 0.88546 0.3233 0.07765 0.0
C1246 C 0.85894 0.35592 0.06495 0.0
C1247 C 0.84185 0.37181 0.05945 0.0
C1248 C 0.85273 0.34775 0.07636 0.0
C1249 C 0.82035 0.38131 0.06555 0.0
C1250 C 0.81463 0.37391 0.07682 0.0
C1251 C 0.82193 0.34665 0.09336 0.0
C1252 C 0.83619 0.32819 0.09888 0.0
C1253 C 0.82993 0.3564 0.08223 0.0
C1254 C 0.85969 0.3205 0.09316 0.0
C1255 C 0.86782 0.33011 0.08196 0.0
H1256 H 0.67282 0.53383 0.09926 0.0
H1257 H 0.73433 0.48124 0.09674 0.0
H1258 H 0.72504 0.47544 0.07674 0.0
H1259 H 0.69445 0.4793 0.06042 0.0
H1260 H 0.63131 0.53016 0.06237 0.0
H1261 H 0.64624 0.5428 0.08214 0.0
C1262 C 0.68486 0.52193 0.09427 0.0
C1263 C 0.70411 0.50783 0.09945 0.0
C1264 C 0.67857 0.51779 0.08273 0.0
C1265 C 0.71928 0.49211 0.09293 0.0
C1266 C 0.71384 0.48863 0.08151 0.0
C1267 C 0.68402 0.49331 0.06514 0.0
C1268 C 0.6613 0.50322 0.06001 0.0
C1269 C 0.6926 0.50029 0.0764 0.0
C1270 C 0.64864 0.52201 0.06617 0.0
C1271 C 0.65716 0.52919 0.07747 0.0
H1272 H 0.51568 0.8784 0.94514 0.0
H1273 H 0.40253 0.83201 0.94122 0.0
H1274 H 0.40695 0.81917 0.9218 0.0
H1275 H 0.44136 0.81466 0.9067 0.0
H1276 H 0.55438 0.85937 0.91003 0.0
H1277 H 0.5518 0.8794 0.92893 0.0
C1278 C 0.49226 0.86645 0.93991 0.0
C1279 C 0.4588 0.85609 0.94456 0.0
C1280 C 0.49487 0.85812 0.92876 0.0
C1281 C 0.42851 0.84014 0.93779 0.0
C1282 C 0.43098 0.83257 0.92672 0.0
C1283 C 0.46552 0.82887 0.91154 0.0
C1284 C 0.49789 0.83486 0.90711 0.0
C1285 C 0.46376 0.84025 0.92226 0.0
C1286 C 0.52908 0.85413 0.91334 0.0
C1287 C 0.52757 0.86556 0.92413 0.0
H1288 H 0.11841 0.64506 0.939 0.0
H1289 H 0.18842 0.60176 0.93727 0.0
H1290 H 0.19656 0.61396 0.91743 0.0
H1291 H 0.18819 0.6413 0.90103 0.0
H1292 H 0.12033 0.68711 0.90228 0.0
H1293 H 0.1069 0.6696 0.92184 0.0
C1294 C 0.13479 0.63766 0.93419 0.0
C1295 C 0.15281 0.62253 0.93957 0.0
C1296 C 0.14021 0.64573 0.92277 0.0
C1297 C 0.17437 0.6135 0.93331 0.0
C1298 C 0.17916 0.6206 0.92198 0.0
C1299 C 0.17034 0.64744 0.90554 0.0
C1300 C 0.15565 0.6659 0.90023 0.0
C1301 C 0.163 0.63753 0.9167 0.0
C1302 C 0.13219 0.67313 0.90619 0.0
C1303 C 0.12452 0.6631 0.91737 0.0
H1304 H 0.31482 0.45957 0.89777 0.0
H1305 H 0.2414 0.49797 0.90212 0.0
H1306 H 0.25731 0.50969 0.92167 0.0
H1307 H 0.29655 0.51565 0.9368 0.0
H1308 H 0.37174 0.47933 0.93308 0.0
H1309 H 0.35077 0.46007 0.91399 0.0
C1310 C 0.30168 0.46952 0.90312 0.0
C1311 C 0.277 0.47795 0.89858 0.0
C1312 C 0.31184 0.47729 0.91434 0.0
C1313 C 0.26048 0.49136 0.90548 0.0
C1314 C 0.26972 0.49828 0.91662 0.0
C1315 C 0.30837 0.50343 0.93183 0.0
C1316 C 0.33615 0.49961 0.93621 0.0
C1317 C 0.29622 0.49256 0.92101 0.0
C1318 C 0.35054 0.48288 0.92981 0.0
C1319 C 0.33854 0.47189 0.91891 0.0
H1320 H 0.13076 0.46378 0.43982 0.0
H1321 H 0.21361 0.57379 0.44029 0.0
H1322 H 0.22836 0.56952 0.42116 0.0
H1323 H 0.21904 0.53525 0.40447 0.0
H1324 H 0.13626 0.42556 0.40302 0.0
H1325 H 0.12051 0.42887 0.42241 0.0
C1326 C 0.15175 0.48683 0.43567 0.0
C1327 C 0.17106 0.51904 0.44151 0.0
C1328 C 0.16047 0.48418 0.42456 0.0
C1329 C 0.19838 0.54863 0.43604 0.0
C1330 C 0.20696 0.54625 0.42509 0.0
C1331 C 0.19764 0.51186 0.40836 0.0
C1332 C 0.17904 0.48013 0.40232 0.0
C1333 C 0.18847 0.51416 0.41932 0.0
C1334 C 0.15119 0.45027 0.40752 0.0
C1335 C 0.14208 0.45223 0.41858 0.0
H1336 H 0.45099 0.64422 0.39168 0.0
H1337 H 0.56459 0.71005 0.39406 0.0
H1338 H 0.56219 0.69316 0.41367 0.0
H1339 H 0.52628 0.66349 0.43055 0.0
H1340 H 0.41256 0.59892 0.42741 0.0
H1341 H 0.41657 0.61099 0.4076 0.0
C1342 C 0.47533 0.65492 0.39647 0.0
C1343 C 0.50783 0.67891 0.39154 0.0
C1344 C 0.47365 0.6451 0.40758 0.0
C1345 C 0.5392 0.69178 0.39774 0.0
C1346 C 0.53779 0.68213 0.40893 0.0
C1347 C 0.50259 0.65149 0.42544 0.0
C1348 C 0.46913 0.63053 0.43041 0.0
C1349 C 0.50499 0.65928 0.41401 0.0
C1350 C 0.43855 0.61533 0.42376 0.0
C1351 C 0.44078 0.62232 0.41245 0.0
H1352 H 0.29565 0.77561 0.44446 0.0
H1353 H 0.34409 0.88948 0.44294 0.0
H1354 H 0.32857 0.88546 0.42316 0.0
H1355 H 0.30488 0.84914 0.40597 0.0
H1356 H 0.25817 0.73545 0.40816 0.0
H1357 H 0.26885 0.73982 0.42808 0.0
C1358 C 0.30285 0.79967 0.43984 0.0
C1359 C 0.32149 0.83284 0.44511 0.0
C1360 C 0.29393 0.7971 0.42859 0.0
C1361 C 0.32996 0.86363 0.43903 0.0
C1362 C 0.32108 0.8613 0.42774 0.0
C1363 C 0.29643 0.82537 0.41088 0.0
C1364 C 0.28085 0.79201 0.40562 0.0
C1365 C 0.30348 0.82814 0.42238 0.0
C1366 C 0.27035 0.76141 0.41203 0.0
C1367 C 0.27657 0.76388 0.42341 0.0
H1368 H 0.2856 0.12595 0.18166 0.0
H1369 H 0.26973 0.14213 0.14726 0.0
H1370 H 0.32489 0.1437 0.14227 0.0
H1371 H 0.37785 0.14129 0.14771 0.0
H1372 H 0.39417 0.12584 0.18212 0.0
H1373 H 0.3379 0.12206 0.18703 0.0
C1374 C 0.29445 0.13028 0.17309 0.0
C1375 C 0.27388 0.13435 0.16486 0.0
C1376 C 0.32578 0.13046 0.17025 0.0
C1377 C 0.28529 0.13923 0.15376 0.0
C1378 C 0.31666 0.13986 0.15089 0.0
C1379 C 0.36874 0.13634 0.15625 0.0
C1380 C 0.38999 0.13361 0.16453 0.0
C1381 C 0.33698 0.13529 0.15905 0.0
C1382 C 0.37814 0.12781 0.17559 0.0
C1383 C 0.34617 0.126 0.17842 0.0
H1384 H 0.87094 0.14092 0.15494 0.0
H1385 H 0.82261 0.12286 0.18735 0.0
H1386 H 0.81905 0.17694 0.18556 0.0
H1387 H 0.82865 0.22843 0.17466 0.0
H1388 H 0.87632 0.24605 0.14215 0.0
H1389 H 0.88213 0.19334 0.14427 0.0
C1390 C 0.8593 0.1486 0.16158 0.0
C1391 C 0.84667 0.12771 0.17121 0.0
C1392 C 0.85787 0.17991 0.16057 0.0
C1393 C 0.83223 0.13834 0.17981 0.0
C1394 C 0.83041 0.16936 0.17883 0.0
C1395 C 0.8409 0.22115 0.1681 0.0
C1396 C 0.85215 0.24118 0.15827 0.0
C1397 C 0.84324 0.19036 0.16925 0.0
C1398 C 0.8676 0.23114 0.14982 0.0
C1399 C 0.87064 0.20086 0.15098 0.0
H1400 H 0.83023 0.69774 0.17837 0.0
H1401 H 0.87382 0.71491 0.14531 0.0
H1402 H 0.82188 0.66018 0.13898 0.0
H1403 H 0.76479 0.60711 0.14296 0.0
H1404 H 0.72084 0.59047 0.176 0.0
H1405 H 0.77182 0.64605 0.18214 0.0
C1406 C 0.82853 0.68922 0.16982 0.0
C1407 C 0.85597 0.70988 0.16235 0.0
C1408 C 0.79825 0.65832 0.16618 0.0
C1409 C 0.85311 0.69913 0.15123 0.0
C1410 C 0.82335 0.66803 0.14759 0.0
C1411 C 0.766 0.61594 0.15145 0.0
C1412 C 0.73906 0.59467 0.15901 0.0
C1413 C 0.79572 0.64751 0.15499 0.0
C1414 C 0.74119 0.6064 0.17001 0.0
C1415 C 0.77048 0.638 0.17356 0.0
H1416 H 0.17914 0.39787 0.32426 0.0
H1417 H 0.13445 0.3604 0.35679 0.0
H1418 H 0.12981 0.30309 0.3529 0.0
H1419 H 0.13982 0.26442 0.34045 0.0
H1420 H 0.1852 0.30222 0.30801 0.0
H1421 H 0.18903 0.35919 0.31181 0.0
C1422 C 0.16786 0.377 0.33045 0.0
C1423 C 0.15687 0.38325 0.34077 0.0
C1424 C 0.16615 0.34455 0.32827 0.0
C1425 C 0.14286 0.35613 0.34876 0.0
C1426 C 0.14047 0.32349 0.34657 0.0
C1427 C 0.15096 0.28524 0.33425 0.0
C1428 C 0.16245 0.27918 0.32399 0.0
C1429 C 0.1525 0.31763 0.33642 0.0
C1430 C 0.1764 0.3063 0.316 0.0
C1431 C 0.17834 0.33877 0.31813 0.0
H1432 H 0.60042 0.78235 0.31857 0.0
H1433 H 0.62249 0.76001 0.3516 0.0
H1434 H 0.68189 0.81204 0.35076 0.0
H1435 H 0.72681 0.86436 0.34082 0.0
H1436 H 0.70468 0.88671 0.3078 0.0
H1437 H 0.64543 0.83445 0.30859 0.0
C1438 C 0.61839 0.78852 0.32553 0.0
C1439 C 0.60718 0.76723 0.3351 0.0
C1440 C 0.65209 0.81885 0.32509 0.0
C1441 C 0.6306 0.77588 0.3441 0.0
C1442 C 0.66443 0.80576 0.34367 0.0
C1443 C 0.70886 0.85811 0.33385 0.0
C1444 C 0.71996 0.87953 0.32431 0.0
C1445 C 0.67522 0.82768 0.33427 0.0
C1446 C 0.69662 0.87076 0.31528 0.0
C1447 C 0.66288 0.84076 0.31569 0.0
H1448 H 0.12741 0.85766 0.34332 0.0
H1449 H 0.12725 0.8186 0.31033 0.0
H1450 H 0.17898 0.81333 0.31502 0.0
H1451 H 0.22427 0.82021 0.32837 0.0
H1452 H 0.22357 0.85735 0.36154 0.0
H1453 H 0.17242 0.86383 0.35679 0.0
C1454 C 0.13846 0.84767 0.33717 0.0
C1455 C 0.12343 0.83844 0.32649 0.0
C1456 C 0.16836 0.84502 0.33989 0.0
C1457 C 0.13818 0.8257 0.31863 0.0
C1458 C 0.16791 0.82293 0.32127 0.0
C1459 C 0.2133 0.83026 0.33452 0.0
C1460 C 0.22789 0.83872 0.34525 0.0
C1461 C 0.18338 0.83284 0.33183 0.0
C1462 C 0.21293 0.85097 0.3532 0.0
C1463 C 0.18358 0.85442 0.3505 0.0
H1464 H 0.72645 0.86105 0.85698 0.0
H1465 H 0.70181 0.81527 0.82412 0.0
H1466 H 0.64233 0.8075 0.82547 0.0
H1467 H 0.59807 0.8149 0.83579 0.0
H1468 H 0.62257 0.86073 0.86864 0.0
H1469 H 0.68194 0.8681 0.86737 0.0
C1470 C 0.70791 0.84889 0.85017 0.0
C1471 C 0.71842 0.83853 0.84049 0.0
C1472 C 0.67411 0.84524 0.85091 0.0
C1473 C 0.69426 0.82327 0.83168 0.0
C1474 C 0.66038 0.81908 0.83242 0.0
C1475 C 0.61651 0.82693 0.84263 0.0
C1476 C 0.60604 0.83753 0.85227 0.0
C1477 C 0.65023 0.8304 0.84193 0.0
C1478 C 0.6301 0.85259 0.8611 0.0
C1479 C 0.66393 0.85656 0.86041 0.0
H1480 H 0.16955 0.80342 0.85094 0.0
H1481 H 0.15808 0.76284 0.81761 0.0
H1482 H 0.1564 0.81449 0.81037 0.0
H1483 H 0.15784 0.87085 0.81358 0.0
H1484 H 0.17094 0.91207 0.84693 0.0
H1485 H 0.17341 0.86091 0.85406 0.0
C1486 C 0.16614 0.80567 0.84211 0.0
C1487 C 0.16331 0.77921 0.83482 0.0
C1488 C 0.16631 0.83587 0.83799 0.0
C1489 C 0.1599 0.7828 0.82337 0.0
C1490 C 0.15922 0.8124 0.81923 0.0
C1491 C 0.16185 0.86897 0.82239 0.0
C1492 C 0.1642 0.89523 0.82971 0.0
C1493 C 0.16264 0.8392 0.82646 0.0
C1494 C 0.16914 0.89225 0.84111 0.0
C1495 C 0.17023 0.86286 0.84521 0.0
H1496 H 0.20917 0.40085 0.82052 0.0
H1497 H 0.21384 0.36882 0.85412 0.0
H1498 H 0.16106 0.31131 0.85076 0.0
H1499 H 0.11254 0.27128 0.8386 0.0
H1500 H 0.10771 0.30267 0.80495 0.0
H1501 H 0.1614 0.3599 0.80813 0.0
C1502 C 0.19902 0.38108 0.82706 0.0
C1503 C 0.21546 0.38906 0.83755 0.0
C1504 C 0.16825 0.3484 0.82516 0.0
C1505 C 0.20176 0.36329 0.84596 0.0
C1506 C 0.17142 0.33053 0.84408 0.0
C1507 C 0.12294 0.29079 0.83198 0.0
C1508 C 0.10594 0.28299 0.8216 0.0
C1509 C 0.15411 0.32311 0.83379 0.0
C1510 C 0.12016 0.30824 0.81306 0.0
C1511 C 0.15096 0.3408 0.81484 0.0
H1512 H 0.77757 0.59557 0.68043 0.0
H1513 H 0.82595 0.63333 0.64831 0.0
H1514 H 0.83216 0.69125 0.65217 0.0
H1515 H 0.82501 0.73126 0.66476 0.0
H1516 H 0.77848 0.69441 0.69713 0.0
H1517 H 0.76949 0.63546 0.69293 0.0
C1518 C 0.78967 0.61651 0.67429 0.0
C1519 C 0.80151 0.61023 0.66412 0.0
C1520 C 0.79294 0.64962 0.67653 0.0
C1521 C 0.81685 0.63756 0.65623 0.0
C1522 C 0.82021 0.6706 0.6584 0.0
C1523 C 0.81234 0.7102 0.67084 0.0
C1524 C 0.80222 0.71711 0.68122 0.0
C1525 C 0.8083 0.67686 0.66851 0.0
C1526 C 0.78631 0.68967 0.68906 0.0
C1527 C 0.78143 0.65608 0.6867 0.0
H1528 H 0.3632 0.16566 0.64661 0.0
H1529 H 0.38314 0.20203 0.68059 0.0
H1530 H 0.32903 0.14884 0.68647 0.0
H1531 H 0.276 0.0924 0.68195 0.0
H1532 H 0.25532 0.05638 0.64795 0.0
H1533 H 0.3105 0.10864 0.64212 0.0
C1534 C 0.35545 0.16217 0.65528 0.0
C1535 C 0.37692 0.18789 0.66314 0.0
C1536 C 0.32469 0.13125 0.65863 0.0
C1537 C 0.36689 0.18272 0.67437 0.0
C1538 C 0.33612 0.1522 0.67776 0.0
C1539 C 0.28394 0.09558 0.6733 0.0
C1540 C 0.26183 0.07044 0.6654 0.0
C1541 C 0.315 0.12618 0.66997 0.0
C1542 C 0.27209 0.07528 0.65419 0.0
C1543 C 0.30342 0.1053 0.65084 0.0
H1544 H 0.81324 0.20079 0.67412 0.0
H1545 H 0.79063 0.16217 0.6404 0.0
H1546 H 0.84345 0.15594 0.64029 0.0
H1547 H 0.89509 0.16033 0.64993 0.0
H1548 H 0.91736 0.19879 0.68369 0.0
H1549 H 0.86596 0.20721 0.68351 0.0
C1550 C 0.81964 0.19067 0.66678 0.0
C1551 C 0.79784 0.18149 0.65733 0.0
C1552 C 0.85027 0.18779 0.66671 0.0
C1553 C 0.80686 0.16908 0.64781 0.0
C1554 C 0.83714 0.16575 0.64772 0.0
C1555 C 0.8891 0.17116 0.65718 0.0
C1556 C 0.91004 0.17898 0.6668 0.0
C1557 C 0.85905 0.1751 0.65712 0.0
C1558 C 0.90172 0.19267 0.67617 0.0
C1559 C 0.87217 0.1972 0.67611 0.0
H1560 H 0.05847 0.5059 0.51556 0.0
H1561 H 0.03621 0.46413 0.48219 0.0
H1562 H 0.97849 0.46081 0.48282 0.0
H1563 H 0.93527 0.47127 0.49267 0.0
H1564 H 0.95771 0.51312 0.52603 0.0
H1565 H 0.01518 0.51591 0.52545 0.0
C1566 C 0.04078 0.49549 0.50848 0.0
C1567 C 0.05149 0.48501 0.49887 0.0
C1568 C 0.00816 0.49456 0.5088 0.0
C1569 C 0.02845 0.47209 0.48972 0.0
C1570 C -0.00438 0.47052 0.49003 0.0
C1571 C 0.95297 0.48155 0.49975 0.0
C1572 C 0.94247 0.49236 0.50934 0.0
C1573 C 0.98549 0.48223 0.49946 0.0
C1574 C 0.96537 0.50495 0.51852 0.0
C1575 C -0.00194 0.50625 0.51823 0.0
H1576 H 0.52247 0.48966 0.51145 0.0
H1577 H 0.51843 0.45668 0.47747 0.0
H1578 H 0.51663 0.50921 0.47104 0.0
H1579 H 0.51304 0.56267 0.47527 0.0
H1580 H 0.51904 0.59597 0.50937 0.0
H1581 H 0.52445 0.54562 0.51555 0.0
C1582 C 0.52092 0.49388 0.50264 0.0
C1583 C 0.51971 0.46912 0.49493 0.0
C1584 C 0.52089 0.52442 0.49903 0.0
C1585 C 0.51886 0.47529 0.48353 0.0
C1586 C 0.51804 0.50534 0.47987 0.0
C1587 C 0.51631 0.55935 0.48403 0.0
C1588 C 0.51532 0.58287 0.49185 0.0
C1589 C 0.51881 0.52996 0.48756 0.0
C1590 C 0.51958 0.57819 0.50317 0.0
C1591 C 0.52236 0.54923 0.50674 0.0
H1592 H 0.51236 0.04408 0.52253 0.0
H1593 H 0.53794 0.06188 0.48766 0.0
H1594 H 0.48495 0.00567 0.48315 0.0
H1595 H 0.43141 0.95173 0.48909 0.0
H1596 H 0.40591 0.9335 0.52395 0.0
H1597 H 0.45842 0.9902 0.52847 0.0
C1598 C 0.5066 0.0354 0.51396 0.0
C1599 C 0.52914 0.0569 0.50545 0.0
C1600 C 0.47574 0.00343 0.51141 0.0
C1601 C 0.52105 0.04564 0.49437 0.0
C1602 C 0.49065 0.01366 0.49177 0.0
C1603 C 0.43698 0.96045 0.49766 0.0
C1604 C 0.4147 0.93864 0.50617 0.0
C1605 C 0.46764 0.99254 0.50021 0.0
C1606 C 0.42259 0.94998 0.51725 0.0
C1607 C 0.45274 0.98222 0.51985 0.0
H1608 H 0.50543 0.05244 0.0236 0.0
H1609 H 0.46184 0.0577 0.99194 0.0
H1610 H 0.45907 0.00254 0.98619 0.0
H1611 H 0.47054 0.95389 0.98996 0.0
H1612 H 0.51334 0.94805 0.02169 0.0
H1613 H 0.51588 0.00314 0.02751 0.0
C1614 C 0.49472 0.04121 0.01552 0.0
C1615 C 0.48367 0.05903 0.00823 0.0
C1616 C 0.49397 0.00998 0.01218 0.0
C1617 C 0.47032 0.04437 0.99773 0.0
C1618 C 0.46904 0.01303 0.99439 0.0
C1619 C 0.48102 0.96501 0.99808 0.0
C1620 C 0.49225 0.94729 0.00534 0.0
C1621 C 0.48138 -0.00401 0.00148 0.0
C1622 C 0.50493 0.96149 0.01592 0.0
C1623 C 0.50606 0.99276 0.01929 0.0
H1624 H 0.94406 0.46045 0.01438 0.0
H1625 H 0.93748 0.42357 0.98074 0.0
H1626 H 0.99332 0.47728 0.97621 0.0
H1627 H 0.04297 0.53529 0.98175 0.0
H1628 H 0.04817 0.57251 0.01532 0.0
H1629 H 0.9932 0.51832 0.01986 0.0
C1630 C 0.95519 0.46383 0.00611 0.0
C1631 C 0.937 0.43795 0.99794 0.0
C1632 C 0.98649 0.49517 0.00349 0.0
C1633 C 0.95126 0.44305 0.98719 0.0
C1634 C 0.98296 0.47385 0.98458 0.0
C1635 C 0.03181 0.53178 0.99001 0.0
C1636 C 0.0495 0.55797 0.99816 0.0
C1637 C 0.00049 0.50032 0.99262 0.0
C1638 C 0.03495 0.55282 0.00887 0.0
C1639 C 0.00369 0.52173 0.01151 0.0
H1640 H 0.4578 0.52973 0.0084 0.0
H1641 H 0.43642 0.48052 0.97604 0.0
H1642 H 0.49058 0.47694 0.97721 0.0
H1643 H 0.54396 0.48828 0.98732 0.0
H1644 H 0.56526 0.5371 0.01973 0.0
H1645 H 0.51138 0.54125 0.0185 0.0
C1646 C 0.4647 0.51778 0.00166 0.0
C1647 C 0.44298 0.50514 0.99218 0.0
C1648 C 0.49616 0.51646 0.00229 0.0
C1649 C 0.45257 0.4902 0.98346 0.0
C1650 C 0.48366 0.48841 0.98408 0.0
C1651 C 0.53715 0.50033 0.99405 0.0
C1652 C 0.55871 0.51261 0.00357 0.0
C1653 C 0.50579 0.5018 0.99341 0.0
C1654 C 0.54922 0.52768 0.01229 0.0
C1655 C 0.51829 0.52978 0.01163 0.0
loop_
_geom_bond_atom_site_label_1
_geom_bond_atom_site_label_2
_geom_bond_distance
_geom_bond_site_symmetry_2
_ccdc_geom_bond_type
O0 Cd1 2.223 . S
O0 C8 1.315 . S
Cd1 O0 2.223 . S
Cd1 O4 2.297 . S
Cd1 O5 2.439 . S
Cd1 O11 2.240 . S
Cd2 O3 2.240 . S
Cd2 O10 2.223 . S
Cd2 O12 2.297 . S
Cd2 O13 2.439 . S
O3 Cd2 2.240 . S
O3 C8 1.279 . S
O4 Cd1 2.297 . S
O4 C6 1.247 . S
O5 Cd1 2.439 . S
O5 C6 1.208 . S
C6 O4 1.247 . S
C6 O5 1.208 . S
C7 O12 1.247 . S
C7 O13 1.208 . S
C8 O0 1.315 . S
C8 O3 1.279 . S
C9 O10 1.315 . S
C9 O11 1.279 . S
O10 Cd2 2.223 . S
O10 C9 1.315 . S
O11 Cd1 2.240 . S
O11 C9 1.279 . S
O12 Cd2 2.297 . S
O12 C7 1.247 . S
O13 Cd2 2.439 . S
O13 C7 1.208 . S
O14 Cd15 2.223 . S
O14 C22 1.315 . S
Cd15 O14 2.223 . S
Cd15 O18 2.297 . S
Cd15 O19 2.439 . S
Cd15 O25 2.240 1_545 S
Cd16 O17 2.240 . S
Cd16 O24 2.223 1_545 S
Cd16 O26 2.297 1_545 S
Cd16 O27 2.439 . S
O17 Cd16 2.240 . S
O17 C22 1.279 . S
O18 Cd15 2.297 . S
O18 C20 1.247 . S
O19 Cd15 2.439 . S
O19 C20 1.208 . S
C20 O18 1.247 . S
C20 O19 1.208 . S
C21 O26 1.247 . S
C21 O27 1.208 1_565 S
C22 O14 1.315 . S
C22 O17 1.279 . S
C23 O24 1.315 . S
C23 O25 1.279 . S
O24 Cd16 2.223 1_565 S
O24 C23 1.315 . S
O25 Cd15 2.240 1_565 S
O25 C23 1.279 . S
O26 Cd16 2.297 1_565 S
O26 C21 1.247 . S
O27 Cd16 2.439 . S
O27 C21 1.208 1_545 S
O28 Cd29 2.223 . S
O28 C36 1.315 . S
Cd29 O28 2.223 . S
Cd29 O32 2.297 . S
Cd29 O33 2.439 . S
Cd29 O39 2.240 1_655 S
Cd30 O31 2.240 . S
Cd30 O38 2.223 1_655 S
Cd30 O40 2.297 1_655 S
Cd30 O41 2.439 . S
O31 Cd30 2.240 . S
O31 C36 1.279 . S
O32 Cd29 2.297 . S
O32 C34 1.247 . S
O33 Cd29 2.439 . S
O33 C34 1.208 . S
C34 O32 1.247 . S
C34 O33 1.208 . S
C35 O40 1.247 . S
C35 O41 1.208 1_455 S
C36 O28 1.315 . S
C36 O31 1.279 . S
C37 O38 1.315 . S
C37 O39 1.279 . S
O38 Cd30 2.223 1_455 S
O38 C37 1.315 . S
O39 Cd29 2.240 1_455 S
O39 C37 1.279 . S
O40 Cd30 2.297 1_455 S
O40 C35 1.247 . S
O41 Cd30 2.439 . S
O41 C35 1.208 1_655 S
O42 Cd43 2.223 . S
O42 C50 1.315 . S
Cd43 O42 2.223 . S
Cd43 O46 2.297 . S
Cd43 O47 2.439 . S
Cd43 O53 2.240 . S
Cd44 O45 2.240 . S
Cd44 O52 2.223 . S
Cd44 O54 2.297 . S
Cd44 O55 2.439 . S
O45 Cd44 2.240 . S
O45 C50 1.279 . S
O46 Cd43 2.297 . S
O46 C48 1.247 . S
O47 Cd43 2.439 . S
O47 C48 1.208 . S
C48 O46 1.247 . S
C48 O47 1.208 . S
C49 O54 1.247 . S
C49 O55 1.208 . S
C50 O42 1.315 . S
C50 O45 1.279 . S
C51 O52 1.315 . S
C51 O53 1.279 . S
O52 Cd44 2.223 . S
O52 C51 1.315 . S
O53 Cd43 2.240 . S
O53 C51 1.279 . S
O54 Cd44 2.297 . S
O54 C49 1.247 . S
O55 Cd44 2.439 . S
O55 C49 1.208 . S
O56 Cd57 2.223 . S
O56 C64 1.315 . S
Cd57 O56 2.223 . S
Cd57 O60 2.297 . S
Cd57 O61 2.439 . S
Cd57 O67 2.240 1_565 S
Cd58 O59 2.240 . S
Cd58 O66 2.223 1_565 S
Cd58 O68 2.297 1_565 S
Cd58 O69 2.439 . S
O59 Cd58 2.240 . S
O59 C64 1.279 . S
O60 Cd57 2.297 . S
O60 C62 1.247 . S
O61 Cd57 2.439 . S
O61 C62 1.208 . S
C62 O60 1.247 . S
C62 O61 1.208 . S
C63 O68 1.247 . S
C63 O69 1.208 1_545 S
C64 O56 1.315 . S
C64 O59 1.279 . S
C65 O66 1.315 . S
C65 O67 1.279 . S
O66 Cd58 2.223 1_545 S
O66 C65 1.315 . S
O67 Cd57 2.240 1_545 S
O67 C65 1.279 . S
O68 Cd58 2.297 1_545 S
O68 C63 1.247 . S
O69 Cd58 2.439 . S
O69 C63 1.208 1_565 S
O70 Cd71 2.223 . S
O70 C78 1.315 . S
Cd71 O70 2.223 . S
Cd71 O74 2.297 . S
Cd71 O75 2.439 . S
Cd71 O81 2.240 1_455 S
Cd72 O73 2.240 . S
Cd72 O80 2.223 1_455 S
Cd72 O82 2.297 1_455 S
Cd72 O83 2.439 . S
O73 Cd72 2.240 . S
O73 C78 1.279 . S
O74 Cd71 2.297 . S
O74 C76 1.247 . S
O75 Cd71 2.439 . S
O75 C76 1.208 . S
C76 O74 1.247 . S
C76 O75 1.208 . S
C77 O82 1.247 . S
C77 O83 1.208 1_655 S
C78 O70 1.315 . S
C78 O73 1.279 . S
C79 O80 1.315 . S
C79 O81 1.279 . S
O80 Cd72 2.223 1_655 S
O80 C79 1.315 . S
O81 Cd71 2.240 1_655 S
O81 C79 1.279 . S
O82 Cd72 2.297 1_655 S
O82 C77 1.247 . S
O83 Cd72 2.439 . S
O83 C77 1.208 1_455 S
O84 Cd85 2.223 . S
O84 C92 1.315 . S
Cd85 O84 2.223 . S
Cd85 O88 2.297 . S
Cd85 O89 2.439 . S
Cd85 O95 2.240 . S
Cd86 O87 2.240 . S
Cd86 O94 2.223 . S
Cd86 O96 2.297 . S
Cd86 O97 2.439 . S
O87 Cd86 2.240 . S
O87 C92 1.279 . S
O88 Cd85 2.297 . S
O88 C90 1.247 . S
O89 Cd85 2.439 . S
O89 C90 1.208 . S
C90 O88 1.247 . S
C90 O89 1.208 . S
C91 O96 1.247 . S
C91 O97 1.208 . S
C92 O84 1.315 . S
C92 O87 1.279 . S
C93 O94 1.315 . S
C93 O95 1.279 . S
O94 Cd86 2.223 . S
O94 C93 1.315 . S
O95 Cd85 2.240 . S
O95 C93 1.279 . S
O96 Cd86 2.297 . S
O96 C91 1.247 . S
O97 Cd86 2.439 . S
O97 C91 1.208 . S
O98 Cd99 2.223 . S
O98 C106 1.315 . S
Cd99 O98 2.223 . S
Cd99 O102 2.297 . S
Cd99 O103 2.439 . S
Cd99 O109 2.240 1_565 S
Cd100 O101 2.240 . S
Cd100 O108 2.223 1_565 S
Cd100 O110 2.297 1_565 S
Cd100 O111 2.439 . S
O101 Cd100 2.240 . S
O101 C106 1.279 . S
O102 Cd99 2.297 . S
O102 C104 1.247 . S
O103 Cd99 2.439 . S
O103 C104 1.208 . S
C104 O102 1.247 . S
C104 O103 1.208 . S
C105 O110 1.247 . S
C105 O111 1.208 1_545 S
C106 O98 1.315 . S
C106 O101 1.279 . S
C107 O108 1.315 . S
C107 O109 1.279 . S
O108 Cd100 2.223 1_545 S
O108 C107 1.315 . S
O109 Cd99 2.240 1_545 S
O109 C107 1.279 . S
O110 Cd100 2.297 1_545 S
O110 C105 1.247 . S
O111 Cd100 2.439 . S
O111 C105 1.208 1_565 S
O112 Cd113 2.223 . S
O112 C120 1.315 . S
Cd113 O112 2.223 . S
Cd113 O116 2.297 . S
Cd113 O117 2.439 . S
Cd113 O123 2.240 1_455 S
Cd114 O115 2.240 . S
Cd114 O122 2.223 1_455 S
Cd114 O124 2.297 1_455 S
Cd114 O125 2.439 . S
O115 Cd114 2.240 . S
O115 C120 1.279 . S
O116 Cd113 2.297 . S
O116 C118 1.247 . S
O117 Cd113 2.439 . S
O117 C118 1.208 . S
C118 O116 1.247 . S
C118 O117 1.208 . S
C119 O124 1.247 . S
C119 O125 1.208 1_655 S
C120 O112 1.315 . S
C120 O115 1.279 . S
C121 O122 1.315 . S
C121 O123 1.279 . S
O122 Cd114 2.223 1_655 S
O122 C121 1.315 . S
O123 Cd113 2.240 1_655 S
O123 C121 1.279 . S
O124 Cd114 2.297 1_655 S
O124 C119 1.247 . S
O125 Cd114 2.439 . S
O125 C119 1.208 1_455 S
O126 Cd127 2.223 . S
O126 C134 1.315 . S
Cd127 O126 2.223 . S
Cd127 O130 2.297 . S
Cd127 O131 2.439 . S
Cd127 O137 2.240 . S
Cd128 O129 2.240 . S
Cd128 O136 2.223 . S
Cd128 O138 2.297 . S
Cd128 O139 2.439 . S
O129 Cd128 2.240 . S
O129 C134 1.279 . S
O130 Cd127 2.297 . S
O130 C132 1.247 . S
O131 Cd127 2.439 . S
O131 C132 1.208 . S
C132 O130 1.247 . S
C132 O131 1.208 . S
C133 O138 1.247 . S
C133 O139 1.208 . S
C134 O126 1.315 . S
C134 O129 1.279 . S
C135 O136 1.315 . S
C135 O137 1.279 . S
O136 Cd128 2.223 . S
O136 C135 1.315 . S
O137 Cd127 2.240 . S
O137 C135 1.279 . S
O138 Cd128 2.297 . S
O138 C133 1.247 . S
O139 Cd128 2.439 . S
O139 C133 1.208 . S
O140 Cd141 2.223 . S
O140 C148 1.315 . S
Cd141 O140 2.223 . S
Cd141 O144 2.297 . S
Cd141 O145 2.439 . S
Cd141 O151 2.240 1_545 S
Cd142 O143 2.240 . S
Cd142 O150 2.223 1_545 S
Cd142 O152 2.297 1_545 S
Cd142 O153 2.439 . S
O143 Cd142 2.240 . S
O143 C148 1.279 . S
O144 Cd141 2.297 . S
O144 C146 1.247 . S
O145 Cd141 2.439 . S
O145 C146 1.208 . S
C146 O144 1.247 . S
C146 O145 1.208 . S
C147 O152 1.247 . S
C147 O153 1.208 1_565 S
C148 O140 1.315 . S
C148 O143 1.279 . S
C149 O150 1.315 . S
C149 O151 1.279 . S
O150 Cd142 2.223 1_565 S
O150 C149 1.315 . S
O151 Cd141 2.240 1_565 S
O151 C149 1.279 . S
O152 Cd142 2.297 1_565 S
O152 C147 1.247 . S
O153 Cd142 2.439 . S
O153 C147 1.208 1_545 S
O154 Cd155 2.223 . S
O154 C162 1.315 . S
Cd155 O154 2.223 . S
Cd155 O158 2.297 . S
Cd155 O159 2.439 . S
Cd155 O165 2.240 1_655 S
Cd156 O157 2.240 . S
Cd156 O164 2.223 1_655 S
Cd156 O166 2.297 1_655 S
Cd156 O167 2.439 . S
O157 Cd156 2.240 . S
O157 C162 1.279 . S
O158 Cd155 2.297 . S
O158 C160 1.247 . S
O159 Cd155 2.439 . S
O159 C160 1.208 . S
C160 O158 1.247 . S
C160 O159 1.208 . S
C161 O166 1.247 . S
C161 O167 1.208 1_455 S
C162 O154 1.315 . S
C162 O157 1.279 . S
C163 O164 1.315 . S
C163 O165 1.279 . S
O164 Cd156 2.223 1_455 S
O164 C163 1.315 . S
O165 Cd155 2.240 1_455 S
O165 C163 1.279 . S
O166 Cd156 2.297 1_455 S
O166 C161 1.247 . S
O167 Cd156 2.439 . S
O167 C161 1.208 1_655 S
O168 Cd169 2.223 . S
O168 C176 1.315 . S
Cd169 O168 2.223 . S
Cd169 O172 2.297 . S
Cd169 O173 2.439 . S
Cd169 O179 2.240 . S
Cd170 O171 2.240 . S
Cd170 O178 2.223 . S
Cd170 O180 2.297 . S
Cd170 O181 2.439 . S
O171 Cd170 2.240 . S
O171 C176 1.279 . S
O172 Cd169 2.297 . S
O172 C174 1.247 . S
O173 Cd169 2.439 . S
O173 C174 1.208 . S
C174 O172 1.247 . S
C174 O173 1.208 . S
C175 O180 1.247 . S
C175 O181 1.208 . S
C176 O168 1.315 . S
C176 O171 1.279 . S
C177 O178 1.315 . S
C177 O179 1.279 . S
O178 Cd170 2.223 . S
O178 C177 1.315 . S
O179 Cd169 2.240 . S
O179 C177 1.279 . S
O180 Cd170 2.297 . S
O180 C175 1.247 . S
O181 Cd170 2.439 . S
O181 C175 1.208 . S
O182 Cd183 2.223 . S
O182 C190 1.315 . S
Cd183 O182 2.223 . S
Cd183 O186 2.297 . S
Cd183 O187 2.439 . S
Cd183 O193 2.240 . S
Cd184 O185 2.240 . S
Cd184 O192 2.223 . S
Cd184 O194 2.297 . S
Cd184 O195 2.439 . S
O185 Cd184 2.240 . S
O185 C190 1.279 . S
O186 Cd183 2.297 . S
O186 C188 1.247 . S
O187 Cd183 2.439 . S
O187 C188 1.208 . S
C188 O186 1.247 . S
C188 O187 1.208 . S
C189 O194 1.247 . S
C189 O195 1.208 . S
C190 O182 1.315 . S
C190 O185 1.279 . S
C191 O192 1.315 . S
C191 O193 1.279 . S
O192 Cd184 2.223 . S
O192 C191 1.315 . S
O193 Cd183 2.240 . S
O193 C191 1.279 . S
O194 Cd184 2.297 . S
O194 C189 1.247 . S
O195 Cd184 2.439 . S
O195 C189 1.208 . S
O196 Cd197 2.223 . S
O196 C204 1.315 . S
Cd197 O196 2.223 . S
Cd197 O200 2.297 . S
Cd197 O201 2.439 . S
Cd197 O207 2.240 . S
Cd198 O199 2.240 . S
Cd198 O206 2.223 . S
Cd198 O208 2.297 . S
Cd198 O209 2.439 . S
O199 Cd198 2.240 . S
O199 C204 1.279 . S
O200 Cd197 2.297 . S
O200 C202 1.247 . S
O201 Cd197 2.439 . S
O201 C202 1.208 . S
C202 O200 1.247 . S
C202 O201 1.208 . S
C203 O208 1.247 . S
C203 O209 1.208 . S
C204 O196 1.315 . S
C204 O199 1.279 . S
C205 O206 1.315 . S
C205 O207 1.279 . S
O206 Cd198 2.223 . S
O206 C205 1.315 . S
O207 Cd197 2.240 . S
O207 C205 1.279 . S
O208 Cd198 2.297 . S
O208 C203 1.247 . S
O209 Cd198 2.439 . S
O209 C203 1.208 . S
O210 Cd211 2.223 . S
O210 C218 1.315 . S
Cd211 O210 2.223 . S
Cd211 O214 2.297 . S
Cd211 O215 2.439 . S
Cd211 O221 2.240 . S
Cd212 O213 2.240 . S
Cd212 O220 2.223 . S
Cd212 O222 2.297 . S
Cd212 O223 2.439 . S
O213 Cd212 2.240 . S
O213 C218 1.279 . S
O214 Cd211 2.297 . S
O214 C216 1.247 . S
O215 Cd211 2.439 . S
O215 C216 1.208 . S
C216 O214 1.247 . S
C216 O215 1.208 . S
C217 O222 1.247 . S
C217 O223 1.208 . S
C218 O210 1.315 . S
C218 O213 1.279 . S
C219 O220 1.315 . S
C219 O221 1.279 . S
O220 Cd212 2.223 . S
O220 C219 1.315 . S
O221 Cd211 2.240 . S
O221 C219 1.279 . S
O222 Cd212 2.297 . S
O222 C217 1.247 . S
O223 Cd212 2.439 . S
O223 C217 1.208 . S
O224 Cd225 2.223 . S
O224 C232 1.315 . S
Cd225 O224 2.223 . S
Cd225 O228 2.297 . S
Cd225 O229 2.439 . S
Cd225 O235 2.240 . S
Cd226 O227 2.240 . S
Cd226 O234 2.223 . S
Cd226 O236 2.297 . S
Cd226 O237 2.439 . S
O227 Cd226 2.240 . S
O227 C232 1.279 . S
O228 Cd225 2.297 . S
O228 C230 1.247 . S
O229 Cd225 2.439 . S
O229 C230 1.208 . S
C230 O228 1.247 . S
C230 O229 1.208 . S
C231 O236 1.247 . S
C231 O237 1.208 . S
C232 O224 1.315 . S
C232 O227 1.279 . S
C233 O234 1.315 . S
C233 O235 1.279 . S
O234 Cd226 2.223 . S
O234 C233 1.315 . S
O235 Cd225 2.240 . S
O235 C233 1.279 . S
O236 Cd226 2.297 . S
O236 C231 1.247 . S
O237 Cd226 2.439 . S
O237 C231 1.208 . S
O238 Cd239 2.223 . S
O238 C246 1.315 . S
Cd239 O238 2.223 . S
Cd239 O242 2.297 . S
Cd239 O243 2.439 . S
Cd239 O249 2.240 . S
Cd240 O241 2.240 . S
Cd240 O248 2.223 . S
Cd240 O250 2.297 . S
Cd240 O251 2.439 . S
O241 Cd240 2.240 . S
O241 C246 1.279 . S
O242 Cd239 2.297 . S
O242 C244 1.247 . S
O243 Cd239 2.439 . S
O243 C244 1.208 . S
C244 O242 1.247 . S
C244 O243 1.208 . S
C245 O250 1.247 . S
C245 O251 1.208 . S
C246 O238 1.315 . S
C246 O241 1.279 . S
C247 O248 1.315 . S
C247 O249 1.279 . S
O248 Cd240 2.223 . S
O248 C247 1.315 . S
O249 Cd239 2.240 . S
O249 C247 1.279 . S
O250 Cd240 2.297 . S
O250 C245 1.247 . S
O251 Cd240 2.439 . S
O251 C245 1.208 . S
O252 Cd253 2.223 . S
O252 C260 1.315 . S
Cd253 O252 2.223 . S
Cd253 O256 2.297 . S
Cd253 O257 2.439 . S
Cd253 O263 2.240 . S
Cd254 O255 2.240 . S
Cd254 O262 2.223 . S
Cd254 O264 2.297 . S
Cd254 O265 2.439 . S
O255 Cd254 2.240 . S
O255 C260 1.279 . S
O256 Cd253 2.297 . S
O256 C258 1.247 . S
O257 Cd253 2.439 . S
O257 C258 1.208 . S
C258 O256 1.247 . S
C258 O257 1.208 . S
C259 O264 1.247 . S
C259 O265 1.208 . S
C260 O252 1.315 . S
C260 O255 1.279 . S
C261 O262 1.315 . S
C261 O263 1.279 . S
O262 Cd254 2.223 . S
O262 C261 1.315 . S
O263 Cd253 2.240 . S
O263 C261 1.279 . S
O264 Cd254 2.297 . S
O264 C259 1.247 . S
O265 Cd254 2.439 . S
O265 C259 1.208 . S
O266 Cd267 2.223 . S
O266 C274 1.315 . S
Cd267 O266 2.223 . S
Cd267 O270 2.297 . S
Cd267 O271 2.439 . S
Cd267 O277 2.240 . S
Cd268 O269 2.240 . S
Cd268 O276 2.223 . S
Cd268 O278 2.297 . S
Cd268 O279 2.439 . S
O269 Cd268 2.240 . S
O269 C274 1.279 . S
O270 Cd267 2.297 . S
O270 C272 1.247 . S
O271 Cd267 2.439 . S
O271 C272 1.208 . S
C272 O270 1.247 . S
C272 O271 1.208 . S
C273 O278 1.247 . S
C273 O279 1.208 . S
C274 O266 1.315 . S
C274 O269 1.279 . S
C275 O276 1.315 . S
C275 O277 1.279 . S
O276 Cd268 2.223 . S
O276 C275 1.315 . S
O277 Cd267 2.240 . S
O277 C275 1.279 . S
O278 Cd268 2.297 . S
O278 C273 1.247 . S
O279 Cd268 2.439 . S
O279 C273 1.208 . S
O280 Cd281 2.223 . S
O280 C288 1.315 . S
Cd281 O280 2.223 . S
Cd281 O284 2.297 . S
Cd281 O285 2.439 . S
Cd281 O291 2.240 . S
Cd282 O283 2.240 . S
Cd282 O290 2.223 . S
Cd282 O292 2.297 . S
Cd282 O293 2.439 . S
O283 Cd282 2.240 . S
O283 C288 1.279 . S
O284 Cd281 2.297 . S
O284 C286 1.247 . S
O285 Cd281 2.439 . S
O285 C286 1.208 . S
C286 O284 1.247 . S
C286 O285 1.208 . S
C287 O292 1.247 . S
C287 O293 1.208 . S
C288 O280 1.315 . S
C288 O283 1.279 . S
C289 O290 1.315 . S
C289 O291 1.279 . S
O290 Cd282 2.223 . S
O290 C289 1.315 . S
O291 Cd281 2.240 . S
O291 C289 1.279 . S
O292 Cd282 2.297 . S
O292 C287 1.247 . S
O293 Cd282 2.439 . S
O293 C287 1.208 . S
O294 Cd295 2.223 . S
O294 C302 1.315 . S
Cd295 O294 2.223 . S
Cd295 O298 2.297 1_554 S
Cd295 O299 2.439 . S
Cd295 O305 2.240 . S
Cd296 O297 2.240 . S
Cd296 O304 2.223 . S
Cd296 O306 2.297 . S
Cd296 O307 2.439 . S
O297 Cd296 2.240 . S
O297 C302 1.279 . S
O298 Cd295 2.297 1_556 S
O298 C300 1.247 1_556 S
O299 Cd295 2.439 . S
O299 C300 1.208 . S
C300 O298 1.247 1_554 S
C300 O299 1.208 . S
C301 O306 1.247 . S
C301 O307 1.208 . S
C302 O294 1.315 . S
C302 O297 1.279 . S
C303 O304 1.315 . S
C303 O305 1.279 . S
O304 Cd296 2.223 . S
O304 C303 1.315 . S
O305 Cd295 2.240 . S
O305 C303 1.279 . S
O306 Cd296 2.297 . S
O306 C301 1.247 . S
O307 Cd296 2.439 . S
O307 C301 1.208 . S
O308 Cd309 2.223 . S
O308 C316 1.315 . S
Cd309 O308 2.223 . S
Cd309 O312 2.297 1_554 S
Cd309 O313 2.439 . S
Cd309 O319 2.240 . S
Cd310 O311 2.240 . S
Cd310 O318 2.223 . S
Cd310 O320 2.297 . S
Cd310 O321 2.439 . S
O311 Cd310 2.240 . S
O311 C316 1.279 . S
O312 Cd309 2.297 1_556 S
O312 C314 1.247 1_556 S
O313 Cd309 2.439 . S
O313 C314 1.208 . S
C314 O312 1.247 1_554 S
C314 O313 1.208 . S
C315 O320 1.247 . S
C315 O321 1.208 . S
C316 O308 1.315 . S
C316 O311 1.279 . S
C317 O318 1.315 . S
C317 O319 1.279 . S
O318 Cd310 2.223 . S
O318 C317 1.315 . S
O319 Cd309 2.240 . S
O319 C317 1.279 . S
O320 Cd310 2.297 . S
O320 C315 1.247 . S
O321 Cd310 2.439 . S
O321 C315 1.208 . S
O322 Cd323 2.223 . S
O322 C330 1.315 . S
Cd323 O322 2.223 . S
Cd323 O326 2.297 1_554 S
Cd323 O327 2.439 . S
Cd323 O333 2.240 . S
Cd324 O325 2.240 . S
Cd324 O332 2.223 . S
Cd324 O334 2.297 . S
Cd324 O335 2.439 . S
O325 Cd324 2.240 . S
O325 C330 1.279 . S
O326 Cd323 2.297 1_556 S
O326 C328 1.247 1_556 S
O327 Cd323 2.439 . S
O327 C328 1.208 . S
C328 O326 1.247 1_554 S
C328 O327 1.208 . S
C329 O334 1.247 . S
C329 O335 1.208 . S
C330 O322 1.315 . S
C330 O325 1.279 . S
C331 O332 1.315 . S
C331 O333 1.279 . S
O332 Cd324 2.223 . S
O332 C331 1.315 . S
O333 Cd323 2.240 . S
O333 C331 1.279 . S
O334 Cd324 2.297 . S
O334 C329 1.247 . S
O335 Cd324 2.439 . S
O335 C329 1.208 . S
O336 Cd337 2.223 . S
O336 C344 1.315 . S
Cd337 O336 2.223 . S
Cd337 O340 2.297 . S
Cd337 O341 2.439 . S
Cd337 O347 2.240 . S
Cd338 O339 2.240 . S
Cd338 O346 2.223 . S
Cd338 O348 2.297 . S
Cd338 O349 2.439 . S
O339 Cd338 2.240 . S
O339 C344 1.279 . S
O340 Cd337 2.297 . S
O340 C342 1.247 . S
O341 Cd337 2.439 . S
O341 C342 1.208 . S
C342 O340 1.247 . S
C342 O341 1.208 . S
C343 O348 1.247 . S
C343 O349 1.208 . S
C344 O336 1.315 . S
C344 O339 1.279 . S
C345 O346 1.315 . S
C345 O347 1.279 . S
O346 Cd338 2.223 . S
O346 C345 1.315 . S
O347 Cd337 2.240 . S
O347 C345 1.279 . S
O348 Cd338 2.297 . S
O348 C343 1.247 . S
O349 Cd338 2.439 . S
O349 C343 1.208 . S
O350 Cd351 2.223 . S
O350 C358 1.315 . S
Cd351 O350 2.223 . S
Cd351 O354 2.297 . S
Cd351 O355 2.439 . S
Cd351 O361 2.240 . S
Cd352 O353 2.240 . S
Cd352 O360 2.223 . S
Cd352 O362 2.297 . S
Cd352 O363 2.439 . S
O353 Cd352 2.240 . S
O353 C358 1.279 . S
O354 Cd351 2.297 . S
O354 C356 1.247 . S
O355 Cd351 2.439 . S
O355 C356 1.208 . S
C356 O354 1.247 . S
C356 O355 1.208 . S
C357 O362 1.247 . S
C357 O363 1.208 . S
C358 O350 1.315 . S
C358 O353 1.279 . S
C359 O360 1.315 . S
C359 O361 1.279 . S
O360 Cd352 2.223 . S
O360 C359 1.315 . S
O361 Cd351 2.240 . S
O361 C359 1.279 . S
O362 Cd352 2.297 . S
O362 C357 1.247 . S
O363 Cd352 2.439 . S
O363 C357 1.208 . S
O364 Cd365 2.223 . S
O364 C372 1.315 . S
Cd365 O364 2.223 . S
Cd365 O368 2.297 . S
Cd365 O369 2.439 . S
Cd365 O375 2.240 . S
Cd366 O367 2.240 . S
Cd366 O374 2.223 . S
Cd366 O376 2.297 . S
Cd366 O377 2.439 . S
O367 Cd366 2.240 . S
O367 C372 1.279 . S
O368 Cd365 2.297 . S
O368 C370 1.247 . S
O369 Cd365 2.439 . S
O369 C370 1.208 . S
C370 O368 1.247 . S
C370 O369 1.208 . S
C371 O376 1.247 . S
C371 O377 1.208 . S
C372 O364 1.315 . S
C372 O367 1.279 . S
C373 O374 1.315 . S
C373 O375 1.279 . S
O374 Cd366 2.223 . S
O374 C373 1.315 . S
O375 Cd365 2.240 . S
O375 C373 1.279 . S
O376 Cd366 2.297 . S
O376 C371 1.247 . S
O377 Cd366 2.439 . S
O377 C371 1.208 . S
O378 Cd379 2.223 . S
O378 C386 1.315 . S
Cd379 O378 2.223 . S
Cd379 O382 2.297 1_556 S
Cd379 O383 2.439 . S
Cd379 O389 2.240 . S
Cd380 O381 2.240 . S
Cd380 O388 2.223 . S
Cd380 O390 2.297 . S
Cd380 O391 2.439 . S
O381 Cd380 2.240 . S
O381 C386 1.279 . S
O382 Cd379 2.297 1_554 S
O382 C384 1.247 1_554 S
O383 Cd379 2.439 . S
O383 C384 1.208 . S
C384 O382 1.247 1_556 S
C384 O383 1.208 . S
C385 O390 1.247 . S
C385 O391 1.208 . S
C386 O378 1.315 . S
C386 O381 1.279 . S
C387 O388 1.315 . S
C387 O389 1.279 . S
O388 Cd380 2.223 . S
O388 C387 1.315 . S
O389 Cd379 2.240 . S
O389 C387 1.279 . S
O390 Cd380 2.297 . S
O390 C385 1.247 . S
O391 Cd380 2.439 . S
O391 C385 1.208 . S
O392 Cd393 2.223 . S
O392 C400 1.315 . S
Cd393 O392 2.223 . S
Cd393 O396 2.297 1_556 S
Cd393 O397 2.439 . S
Cd393 O403 2.240 . S
Cd394 O395 2.240 . S
Cd394 O402 2.223 . S
Cd394 O404 2.297 . S
Cd394 O405 2.439 . S
O395 Cd394 2.240 . S
O395 C400 1.279 . S
O396 Cd393 2.297 1_554 S
O396 C398 1.247 1_554 S
O397 Cd393 2.439 . S
O397 C398 1.208 . S
C398 O396 1.247 1_556 S
C398 O397 1.208 . S
C399 O404 1.247 . S
C399 O405 1.208 . S
C400 O392 1.315 . S
C400 O395 1.279 . S
C401 O402 1.315 . S
C401 O403 1.279 . S
O402 Cd394 2.223 . S
O402 C401 1.315 . S
O403 Cd393 2.240 . S
O403 C401 1.279 . S
O404 Cd394 2.297 . S
O404 C399 1.247 . S
O405 Cd394 2.439 . S
O405 C399 1.208 . S
O406 Cd407 2.223 . S
O406 C414 1.315 . S
Cd407 O406 2.223 . S
Cd407 O410 2.297 1_556 S
Cd407 O411 2.439 . S
Cd407 O417 2.240 . S
Cd408 O409 2.240 . S
Cd408 O416 2.223 . S
Cd408 O418 2.297 . S
Cd408 O419 2.439 . S
O409 Cd408 2.240 . S
O409 C414 1.279 . S
O410 Cd407 2.297 1_554 S
O410 C412 1.247 1_554 S
O411 Cd407 2.439 . S
O411 C412 1.208 . S
C412 O410 1.247 1_556 S
C412 O411 1.208 . S
C413 O418 1.247 . S
C413 O419 1.208 . S
C414 O406 1.315 . S
C414 O409 1.279 . S
C415 O416 1.315 . S
C415 O417 1.279 . S
O416 Cd408 2.223 . S
O416 C415 1.315 . S
O417 Cd407 2.240 . S
O417 C415 1.279 . S
O418 Cd408 2.297 . S
O418 C413 1.247 . S
O419 Cd408 2.439 . S
O419 C413 1.208 . S
O420 Cd421 2.223 . S
O420 C428 1.315 . S
Cd421 O420 2.223 . S
Cd421 O424 2.297 . S
Cd421 O425 2.439 . S
Cd421 O431 2.240 . S
Cd422 O423 2.240 . S
Cd422 O430 2.223 . S
Cd422 O432 2.297 . S
Cd422 O433 2.439 . S
O423 Cd422 2.240 . S
O423 C428 1.279 . S
O424 Cd421 2.297 . S
O424 C426 1.247 . S
O425 Cd421 2.439 . S
O425 C426 1.208 . S
C426 O424 1.247 . S
C426 O425 1.208 . S
C427 O432 1.247 . S
C427 O433 1.208 . S
C428 O420 1.315 . S
C428 O423 1.279 . S
C429 O430 1.315 . S
C429 O431 1.279 . S
O430 Cd422 2.223 . S
O430 C429 1.315 . S
O431 Cd421 2.240 . S
O431 C429 1.279 . S
O432 Cd422 2.297 . S
O432 C427 1.247 . S
O433 Cd422 2.439 . S
O433 C427 1.208 . S
O434 Cd435 2.223 . S
O434 C442 1.315 . S
Cd435 O434 2.223 . S
Cd435 O438 2.297 . S
Cd435 O439 2.439 . S
Cd435 O445 2.240 . S
Cd436 O437 2.240 . S
Cd436 O444 2.223 . S
Cd436 O446 2.297 . S
Cd436 O447 2.439 . S
O437 Cd436 2.240 . S
O437 C442 1.279 . S
O438 Cd435 2.297 . S
O438 C440 1.247 . S
O439 Cd435 2.439 . S
O439 C440 1.208 . S
C440 O438 1.247 . S
C440 O439 1.208 . S
C441 O446 1.247 . S
C441 O447 1.208 . S
C442 O434 1.315 . S
C442 O437 1.279 . S
C443 O444 1.315 . S
C443 O445 1.279 . S
O444 Cd436 2.223 . S
O444 C443 1.315 . S
O445 Cd435 2.240 . S
O445 C443 1.279 . S
O446 Cd436 2.297 . S
O446 C441 1.247 . S
O447 Cd436 2.439 . S
O447 C441 1.208 . S
O448 Cd449 2.223 . S
O448 C456 1.315 . S
Cd449 O448 2.223 . S
Cd449 O452 2.297 . S
Cd449 O453 2.439 . S
Cd449 O459 2.240 . S
Cd450 O451 2.240 . S
Cd450 O458 2.223 . S
Cd450 O460 2.297 . S
Cd450 O461 2.439 . S
O451 Cd450 2.240 . S
O451 C456 1.279 . S
O452 Cd449 2.297 . S
O452 C454 1.247 . S
O453 Cd449 2.439 . S
O453 C454 1.208 . S
C454 O452 1.247 . S
C454 O453 1.208 . S
C455 O460 1.247 . S
C455 O461 1.208 . S
C456 O448 1.315 . S
C456 O451 1.279 . S
C457 O458 1.315 . S
C457 O459 1.279 . S
O458 Cd450 2.223 . S
O458 C457 1.315 . S
O459 Cd449 2.240 . S
O459 C457 1.279 . S
O460 Cd450 2.297 . S
O460 C455 1.247 . S
O461 Cd450 2.439 . S
O461 C455 1.208 . S
O462 Cd463 2.223 . S
O462 C470 1.315 . S
Cd463 O462 2.223 . S
Cd463 O466 2.297 . S
Cd463 O467 2.439 . S
Cd463 O473 2.240 . S
Cd464 O465 2.240 . S
Cd464 O472 2.223 . S
Cd464 O474 2.297 . S
Cd464 O475 2.439 . S
O465 Cd464 2.240 . S
O465 C470 1.279 . S
O466 Cd463 2.297 . S
O466 C468 1.247 . S
O467 Cd463 2.439 . S
O467 C468 1.208 . S
C468 O466 1.247 . S
C468 O467 1.208 . S
C469 O474 1.247 . S
C469 O475 1.208 . S
C470 O462 1.315 . S
C470 O465 1.279 . S
C471 O472 1.315 . S
C471 O473 1.279 . S
O472 Cd464 2.223 . S
O472 C471 1.315 . S
O473 Cd463 2.240 . S
O473 C471 1.279 . S
O474 Cd464 2.297 . S
O474 C469 1.247 . S
O475 Cd464 2.439 . S
O475 C469 1.208 . S
O476 Cd477 2.223 . S
O476 C484 1.315 . S
Cd477 O476 2.223 . S
Cd477 O480 2.297 . S
Cd477 O481 2.439 . S
Cd477 O487 2.240 . S
Cd478 O479 2.240 . S
Cd478 O486 2.223 . S
Cd478 O488 2.297 . S
Cd478 O489 2.439 . S
O479 Cd478 2.240 . S
O479 C484 1.279 . S
O480 Cd477 2.297 . S
O480 C482 1.247 . S
O481 Cd477 2.439 . S
O481 C482 1.208 . S
C482 O480 1.247 . S
C482 O481 1.208 . S
C483 O488 1.247 . S
C483 O489 1.208 . S
C484 O476 1.315 . S
C484 O479 1.279 . S
C485 O486 1.315 . S
C485 O487 1.279 . S
O486 Cd478 2.223 . S
O486 C485 1.315 . S
O487 Cd477 2.240 . S
O487 C485 1.279 . S
O488 Cd478 2.297 . S
O488 C483 1.247 . S
O489 Cd478 2.439 . S
O489 C483 1.208 . S
O490 Cd491 2.223 . S
O490 C498 1.315 . S
Cd491 O490 2.223 . S
Cd491 O494 2.297 . S
Cd491 O495 2.439 . S
Cd491 O501 2.240 . S
Cd492 O493 2.240 . S
Cd492 O500 2.223 . S
Cd492 O502 2.297 . S
Cd492 O503 2.439 . S
O493 Cd492 2.240 . S
O493 C498 1.279 . S
O494 Cd491 2.297 . S
O494 C496 1.247 . S
O495 Cd491 2.439 . S
O495 C496 1.208 . S
C496 O494 1.247 . S
C496 O495 1.208 . S
C497 O502 1.247 . S
C497 O503 1.208 . S
C498 O490 1.315 . S
C498 O493 1.279 . S
C499 O500 1.315 . S
C499 O501 1.279 . S
O500 Cd492 2.223 . S
O500 C499 1.315 . S
O501 Cd491 2.240 . S
O501 C499 1.279 . S
O502 Cd492 2.297 . S
O502 C497 1.247 . S
O503 Cd492 2.439 . S
O503 C497 1.208 . S
H504 C510 0.930 . S
H505 C513 0.930 . S
H506 C514 0.930 . S
H507 C515 0.930 . S
H508 C518 0.930 . S
H509 C519 0.930 . S
C510 H504 0.930 . S
C510 C511 1.355 . S
C510 C512 1.415 . S
C511 C510 1.355 . S
C511 C513 1.419 . S
C512 C510 1.415 . S
C512 C517 1.425 . S
C512 C519 1.409 1_455 S
C513 H505 0.930 . S
C513 C511 1.419 . S
C513 C514 1.362 . S
C514 H506 0.930 . S
C514 C513 1.362 . S
C514 C517 1.409 . S
C515 H507 0.930 . S
C515 C516 1.355 . S
C515 C517 1.415 1_655 S
C516 C515 1.355 . S
C516 C518 1.419 . S
C517 C512 1.425 . S
C517 C514 1.409 . S
C517 C515 1.415 1_455 S
C518 H508 0.930 . S
C518 C516 1.419 . S
C518 C519 1.362 . S
C519 H509 0.930 . S
C519 C512 1.409 1_655 S
C519 C518 1.362 . S
H520 C526 0.930 . S
H521 C529 0.930 . S
H522 C530 0.930 . S
H523 C531 0.930 . S
H524 C534 0.930 . S
H525 C535 0.930 . S
C526 H520 0.930 . S
C526 C527 1.355 . S
C526 C528 1.415 . S
C527 C526 1.355 . S
C527 C529 1.419 . S
C528 C526 1.415 . S
C528 C533 1.425 . S
C528 C535 1.409 . S
C529 H521 0.930 . S
C529 C527 1.419 . S
C529 C530 1.362 . S
C530 H522 0.930 . S
C530 C529 1.362 . S
C530 C533 1.409 . S
C531 H523 0.930 . S
C531 C532 1.355 . S
C531 C533 1.415 . S
C532 C531 1.355 . S
C532 C534 1.419 . S
C533 C528 1.425 . S
C533 C530 1.409 . S
C533 C531 1.415 . S
C534 H524 0.930 . S
C534 C532 1.419 . S
C534 C535 1.362 . S
C535 H525 0.930 . S
C535 C528 1.409 . S
C535 C534 1.362 . S
H536 C542 0.930 . S
H537 C545 0.930 . S
H538 C546 0.930 . S
H539 C547 0.930 . S
H540 C550 0.930 . S
H541 C551 0.930 . S
C542 H536 0.930 . S
C542 C543 1.355 . S
C542 C544 1.415 1_545 S
C543 C542 1.355 . S
C543 C545 1.419 . S
C544 C542 1.415 1_565 S
C544 C549 1.425 . S
C544 C551 1.409 . S
C545 H537 0.930 . S
C545 C543 1.419 . S
C545 C546 1.362 . S
C546 H538 0.930 . S
C546 C545 1.362 . S
C546 C549 1.409 1_545 S
C547 H539 0.930 . S
C547 C548 1.355 . S
C547 C549 1.415 . S
C548 C547 1.355 . S
C548 C550 1.419 . S
C549 C544 1.425 . S
C549 C546 1.409 1_565 S
C549 C547 1.415 . S
C550 H540 0.930 . S
C550 C548 1.419 . S
C550 C551 1.362 . S
C551 H541 0.930 . S
C551 C544 1.409 . S
C551 C550 1.362 . S
H552 C558 0.930 . S
H553 C561 0.930 . S
H554 C562 0.930 . S
H555 C563 0.930 . S
H556 C566 0.930 . S
H557 C567 0.930 . S
C558 H552 0.930 . S
C558 C559 1.355 . S
C558 C560 1.415 . S
C559 C558 1.355 . S
C559 C561 1.419 . S
C560 C558 1.415 . S
C560 C565 1.425 . S
C560 C567 1.409 1_545 S
C561 H553 0.930 . S
C561 C559 1.419 . S
C561 C562 1.362 . S
C562 H554 0.930 . S
C562 C561 1.362 . S
C562 C565 1.409 . S
C563 H555 0.930 . S
C563 C564 1.355 . S
C563 C565 1.415 1_565 S
C564 C563 1.355 . S
C564 C566 1.419 . S
C565 C560 1.425 . S
C565 C562 1.409 . S
C565 C563 1.415 1_545 S
C566 H556 0.930 . S
C566 C564 1.419 . S
C566 C567 1.362 . S
C567 H557 0.930 . S
C567 C560 1.409 1_565 S
C567 C566 1.362 . S
H568 C574 0.930 . S
H569 C577 0.930 . S
H570 C578 0.930 . S
H571 C579 0.930 . S
H572 C582 0.930 . S
H573 C583 0.930 . S
C574 H568 0.930 . S
C574 C575 1.355 . S
C574 C576 1.415 . S
C575 C574 1.355 . S
C575 C577 1.419 . S
C576 C574 1.415 . S
C576 C581 1.425 . S
C576 C583 1.409 1_655 S
C577 H569 0.930 . S
C577 C575 1.419 . S
C577 C578 1.362 . S
C578 H570 0.930 . S
C578 C577 1.362 . S
C578 C581 1.409 . S
C579 H571 0.930 . S
C579 C580 1.355 . S
C579 C581 1.415 1_455 S
C580 C579 1.355 . S
C580 C582 1.419 . S
C581 C576 1.425 . S
C581 C578 1.409 . S
C581 C579 1.415 1_655 S
C582 H572 0.930 . S
C582 C580 1.419 . S
C582 C583 1.362 . S
C583 H573 0.930 . S
C583 C576 1.409 1_455 S
C583 C582 1.362 . S
H584 C590 0.930 . S
H585 C593 0.930 . S
H586 C594 0.930 . S
H587 C595 0.930 . S
H588 C598 0.930 . S
H589 C599 0.930 . S
C590 H584 0.930 . S
C590 C591 1.355 . S
C590 C592 1.415 . S
C591 C590 1.355 . S
C591 C593 1.419 . S
C592 C590 1.415 . S
C592 C597 1.425 . S
C592 C599 1.409 . S
C593 H585 0.930 . S
C593 C591 1.419 . S
C593 C594 1.362 . S
C594 H586 0.930 . S
C594 C593 1.362 . S
C594 C597 1.409 . S
C595 H587 0.930 . S
C595 C596 1.355 . S
C595 C597 1.415 . S
C596 C595 1.355 . S
C596 C598 1.419 . S
C597 C592 1.425 . S
C597 C594 1.409 . S
C597 C595 1.415 . S
C598 H588 0.930 . S
C598 C596 1.419 . S
C598 C599 1.362 . S
C599 H589 0.930 . S
C599 C592 1.409 . S
C599 C598 1.362 . S
H600 C606 0.930 . S
H601 C609 0.930 . S
H602 C610 0.930 . S
H603 C611 0.930 . S
H604 C614 0.930 . S
H605 C615 0.930 . S
C606 H600 0.930 . S
C606 C607 1.355 . S
C606 C608 1.415 . S
C607 C606 1.355 . S
C607 C609 1.419 . S
C608 C606 1.415 . S
C608 C613 1.425 . S
C608 C615 1.409 1_655 S
C609 H601 0.930 . S
C609 C607 1.419 . S
C609 C610 1.362 . S
C610 H602 0.930 . S
C610 C609 1.362 . S
C610 C613 1.409 . S
C611 H603 0.930 . S
C611 C612 1.355 . S
C611 C613 1.415 1_455 S
C612 C611 1.355 . S
C612 C614 1.419 . S
C613 C608 1.425 . S
C613 C610 1.409 . S
C613 C611 1.415 1_655 S
C614 H604 0.930 . S
C614 C612 1.419 . S
C614 C615 1.362 . S
C615 H605 0.930 . S
C615 C608 1.409 1_455 S
C615 C614 1.362 . S
H616 C622 0.930 . S
H617 C625 0.930 . S
H618 C626 0.930 . S
H619 C627 0.930 . S
H620 C630 0.930 . S
H621 C631 0.930 . S
C622 H616 0.930 . S
C622 C623 1.355 . S
C622 C624 1.415 . S
C623 C622 1.355 . S
C623 C625 1.419 . S
C624 C622 1.415 . S
C624 C629 1.425 . S
C624 C631 1.409 . S
C625 H617 0.930 . S
C625 C623 1.419 . S
C625 C626 1.362 . S
C626 H618 0.930 . S
C626 C625 1.362 . S
C626 C629 1.409 . S
C627 H619 0.930 . S
C627 C628 1.355 . S
C627 C629 1.415 . S
C628 C627 1.355 . S
C628 C630 1.419 . S
C629 C624 1.425 . S
C629 C626 1.409 . S
C629 C627 1.415 . S
C630 H620 0.930 . S
C630 C628 1.419 . S
C630 C631 1.362 . S
C631 H621 0.930 . S
C631 C624 1.409 . S
C631 C630 1.362 . S
H632 C638 0.930 . S
H633 C641 0.930 . S
H634 C642 0.930 1_545 S
H635 C643 0.930 . S
H636 C646 0.930 . S
H637 C647 0.930 . S
C638 H632 0.930 . S
C638 C639 1.355 . S
C638 C640 1.415 1_565 S
C639 C638 1.355 . S
C639 C641 1.419 . S
C640 C638 1.415 1_545 S
C640 C645 1.425 . S
C640 C647 1.409 . S
C641 H633 0.930 . S
C641 C639 1.419 . S
C641 C642 1.362 . S
C642 H634 0.930 1_565 S
C642 C641 1.362 . S
C642 C645 1.409 1_565 S
C643 H635 0.930 . S
C643 C644 1.355 . S
C643 C645 1.415 . S
C644 C643 1.355 . S
C644 C646 1.419 . S
C645 C640 1.425 . S
C645 C642 1.409 1_545 S
C645 C643 1.415 . S
C646 H636 0.930 . S
C646 C644 1.419 . S
C646 C647 1.362 . S
C647 H637 0.930 . S
C647 C640 1.409 . S
C647 C646 1.362 . S
H648 C654 0.930 . S
H649 C657 0.930 . S
H650 C658 0.930 1_565 S
H651 C659 0.930 . S
H652 C662 0.930 . S
H653 C663 0.930 . S
C654 H648 0.930 . S
C654 C655 1.355 . S
C654 C656 1.415 1_545 S
C655 C654 1.355 . S
C655 C657 1.419 . S
C656 C654 1.415 1_565 S
C656 C661 1.425 . S
C656 C663 1.409 . S
C657 H649 0.930 . S
C657 C655 1.419 . S
C657 C658 1.362 . S
C658 H650 0.930 1_545 S
C658 C657 1.362 . S
C658 C661 1.409 1_545 S
C659 H651 0.930 . S
C659 C660 1.355 . S
C659 C661 1.415 . S
C660 C659 1.355 . S
C660 C662 1.419 . S
C661 C656 1.425 . S
C661 C658 1.409 1_565 S
C661 C659 1.415 . S
C662 H652 0.930 . S
C662 C660 1.419 . S
C662 C663 1.362 . S
C663 H653 0.930 . S
C663 C656 1.409 . S
C663 C662 1.362 . S
H664 C670 0.930 . S
H665 C673 0.930 . S
H666 C674 0.930 . S
H667 C675 0.930 . S
H668 C678 0.930 . S
H669 C679 0.930 . S
C670 H664 0.930 . S
C670 C671 1.355 . S
C670 C672 1.415 . S
C671 C670 1.355 . S
C671 C673 1.419 . S
C672 C670 1.415 . S
C672 C677 1.425 . S
C672 C679 1.409 1_455 S
C673 H665 0.930 . S
C673 C671 1.419 . S
C673 C674 1.362 . S
C674 H666 0.930 . S
C674 C673 1.362 . S
C674 C677 1.409 . S
C675 H667 0.930 . S
C675 C676 1.355 . S
C675 C677 1.415 1_655 S
C676 C675 1.355 . S
C676 C678 1.419 . S
C677 C672 1.425 . S
C677 C674 1.409 . S
C677 C675 1.415 1_455 S
C678 H668 0.930 . S
C678 C676 1.419 . S
C678 C679 1.362 . S
C679 H669 0.930 . S
C679 C672 1.409 1_655 S
C679 C678 1.362 . S
H680 C686 0.930 . S
H681 C689 0.930 . S
H682 C690 0.930 . S
H683 C691 0.930 . S
H684 C694 0.930 . S
H685 C695 0.930 . S
C686 H680 0.930 . S
C686 C687 1.355 . S
C686 C688 1.415 . S
C687 C686 1.355 . S
C687 C689 1.419 . S
C688 C686 1.415 . S
C688 C693 1.425 . S
C688 C695 1.409 . S
C689 H681 0.930 . S
C689 C687 1.419 . S
C689 C690 1.362 . S
C690 H682 0.930 . S
C690 C689 1.362 . S
C690 C693 1.409 . S
C691 H683 0.930 . S
C691 C692 1.355 . S
C691 C693 1.415 . S
C692 C691 1.355 . S
C692 C694 1.419 . S
C693 C688 1.425 . S
C693 C690 1.409 . S
C693 C691 1.415 . S
C694 H684 0.930 . S
C694 C692 1.419 . S
C694 C695 1.362 . S
C695 H685 0.930 . S
C695 C688 1.409 . S
C695 C694 1.362 . S
H696 C702 0.930 . S
H697 C705 0.930 . S
H698 C706 0.930 . S
H699 C707 0.930 . S
H700 C710 0.930 . S
H701 C711 0.930 . S
C702 H696 0.930 . S
C702 C703 1.355 . S
C702 C704 1.415 . S
C703 C702 1.355 . S
C703 C705 1.419 . S
C704 C702 1.415 . S
C704 C709 1.425 . S
C704 C711 1.409 . S
C705 H697 0.930 . S
C705 C703 1.419 . S
C705 C706 1.362 . S
C706 H698 0.930 . S
C706 C705 1.362 . S
C706 C709 1.409 . S
C707 H699 0.930 . S
C707 C708 1.355 . S
C707 C709 1.415 . S
C708 C707 1.355 . S
C708 C710 1.419 . S
C709 C704 1.425 . S
C709 C706 1.409 . S
C709 C707 1.415 . S
C710 H700 0.930 . S
C710 C708 1.419 . S
C710 C711 1.362 . S
C711 H701 0.930 . S
C711 C704 1.409 . S
C711 C710 1.362 . S
H712 C718 0.930 . S
H713 C721 0.930 . S
H714 C722 0.930 . S
H715 C723 0.930 . S
H716 C726 0.930 . S
H717 C727 0.930 . S
C718 H712 0.930 . S
C718 C719 1.355 . S
C718 C720 1.415 . S
C719 C718 1.355 . S
C719 C721 1.419 . S
C720 C718 1.415 . S
C720 C725 1.425 . S
C720 C727 1.409 . S
C721 H713 0.930 . S
C721 C719 1.419 . S
C721 C722 1.362 . S
C722 H714 0.930 . S
C722 C721 1.362 . S
C722 C725 1.409 . S
C723 H715 0.930 . S
C723 C724 1.355 . S
C723 C725 1.415 . S
C724 C723 1.355 . S
C724 C726 1.419 . S
C725 C720 1.425 . S
C725 C722 1.409 . S
C725 C723 1.415 . S
C726 H716 0.930 . S
C726 C724 1.419 . S
C726 C727 1.362 . S
C727 H717 0.930 . S
C727 C720 1.409 . S
C727 C726 1.362 . S
H728 C734 0.930 . S
H729 C737 0.930 . S
H730 C738 0.930 . S
H731 C739 0.930 . S
H732 C742 0.930 . S
H733 C743 0.930 . S
C734 H728 0.930 . S
C734 C735 1.355 . S
C734 C736 1.415 . S
C735 C734 1.355 . S
C735 C737 1.419 . S
C736 C734 1.415 . S
C736 C741 1.425 . S
C736 C743 1.409 . S
C737 H729 0.930 . S
C737 C735 1.419 . S
C737 C738 1.362 . S
C738 H730 0.930 . S
C738 C737 1.362 . S
C738 C741 1.409 . S
C739 H731 0.930 . S
C739 C740 1.355 . S
C739 C741 1.415 . S
C740 C739 1.355 . S
C740 C742 1.419 . S
C741 C736 1.425 . S
C741 C738 1.409 . S
C741 C739 1.415 . S
C742 H732 0.930 . S
C742 C740 1.419 . S
C742 C743 1.362 . S
C743 H733 0.930 . S
C743 C736 1.409 . S
C743 C742 1.362 . S
H744 C750 0.930 . S
H745 C753 0.930 . S
H746 C754 0.930 . S
H747 C755 0.930 . S
H748 C758 0.930 . S
H749 C759 0.930 . S
C750 H744 0.930 . S
C750 C751 1.355 . S
C750 C752 1.415 . S
C751 C750 1.355 . S
C751 C753 1.419 . S
C752 C750 1.415 . S
C752 C757 1.425 . S
C752 C759 1.409 . S
C753 H745 0.930 . S
C753 C751 1.419 . S
C753 C754 1.362 . S
C754 H746 0.930 . S
C754 C753 1.362 . S
C754 C757 1.409 . S
C755 H747 0.930 . S
C755 C756 1.355 . S
C755 C757 1.415 . S
C756 C755 1.355 . S
C756 C758 1.419 . S
C757 C752 1.425 . S
C757 C754 1.409 . S
C757 C755 1.415 . S
C758 H748 0.930 . S
C758 C756 1.419 . S
C758 C759 1.362 . S
C759 H749 0.930 . S
C759 C752 1.409 . S
C759 C758 1.362 . S
H760 C766 0.930 . S
H761 C769 0.930 . S
H762 C770 0.930 . S
H763 C771 0.930 . S
H764 C774 0.930 . S
H765 C775 0.930 . S
C766 H760 0.930 . S
C766 C767 1.355 . S
C766 C768 1.415 . S
C767 C766 1.355 . S
C767 C769 1.419 . S
C768 C766 1.415 . S
C768 C773 1.425 . S
C768 C775 1.409 . S
C769 H761 0.930 . S
C769 C767 1.419 . S
C769 C770 1.362 . S
C770 H762 0.930 . S
C770 C769 1.362 . S
C770 C773 1.409 . S
C771 H763 0.930 . S
C771 C772 1.355 . S
C771 C773 1.415 . S
C772 C771 1.355 . S
C772 C774 1.419 . S
C773 C768 1.425 . S
C773 C770 1.409 . S
C773 C771 1.415 . S
C774 H764 0.930 . S
C774 C772 1.419 . S
C774 C775 1.362 . S
C775 H765 0.930 . S
C775 C768 1.409 . S
C775 C774 1.362 . S
H776 C782 0.930 . S
H777 C785 0.930 . S
H778 C786 0.930 . S
H779 C787 0.930 . S
H780 C790 0.930 . S
H781 C791 0.930 . S
C782 H776 0.930 . S
C782 C783 1.355 . S
C782 C784 1.415 . S
C783 C782 1.355 . S
C783 C785 1.419 . S
C784 C782 1.415 . S
C784 C789 1.425 . S
C784 C791 1.409 . S
C785 H777 0.930 . S
C785 C783 1.419 . S
C785 C786 1.362 . S
C786 H778 0.930 . S
C786 C785 1.362 . S
C786 C789 1.409 . S
C787 H779 0.930 . S
C787 C788 1.355 . S
C787 C789 1.415 . S
C788 C787 1.355 . S
C788 C790 1.419 . S
C789 C784 1.425 . S
C789 C786 1.409 . S
C789 C787 1.415 . S
C790 H780 0.930 . S
C790 C788 1.419 . S
C790 C791 1.362 . S
C791 H781 0.930 . S
C791 C784 1.409 . S
C791 C790 1.362 . S
H792 C798 0.930 . S
H793 C801 0.930 . S
H794 C802 0.930 . S
H795 C803 0.930 . S
H796 C806 0.930 . S
H797 C807 0.930 . S
C798 H792 0.930 . S
C798 C799 1.355 . S
C798 C800 1.415 . S
C799 C798 1.355 . S
C799 C801 1.419 . S
C800 C798 1.415 . S
C800 C805 1.425 . S
C800 C807 1.409 . S
C801 H793 0.930 . S
C801 C799 1.419 . S
C801 C802 1.362 . S
C802 H794 0.930 . S
C802 C801 1.362 . S
C802 C805 1.409 . S
C803 H795 0.930 . S
C803 C804 1.355 . S
C803 C805 1.415 . S
C804 C803 1.355 . S
C804 C806 1.419 . S
C805 C800 1.425 . S
C805 C802 1.409 . S
C805 C803 1.415 . S
C806 H796 0.930 . S
C806 C804 1.419 . S
C806 C807 1.362 . S
C807 H797 0.930 . S
C807 C800 1.409 . S
C807 C806 1.362 . S
H808 C814 0.930 . S
H809 C817 0.930 . S
H810 C818 0.930 . S
H811 C819 0.930 . S
H812 C822 0.930 . S
H813 C823 0.930 . S
C814 H808 0.930 . S
C814 C815 1.355 . S
C814 C816 1.415 . S
C815 C814 1.355 . S
C815 C817 1.419 . S
C816 C814 1.415 . S
C816 C821 1.425 . S
C816 C823 1.409 . S
C817 H809 0.930 . S
C817 C815 1.419 . S
C817 C818 1.362 . S
C818 H810 0.930 . S
C818 C817 1.362 . S
C818 C821 1.409 . S
C819 H811 0.930 . S
C819 C820 1.355 . S
C819 C821 1.415 . S
C820 C819 1.355 . S
C820 C822 1.419 . S
C821 C816 1.425 . S
C821 C818 1.409 . S
C821 C819 1.415 . S
C822 H812 0.930 . S
C822 C820 1.419 . S
C822 C823 1.362 . S
C823 H813 0.930 . S
C823 C816 1.409 . S
C823 C822 1.362 . S
H824 C830 0.930 . S
H825 C833 0.930 . S
H826 C834 0.930 . S
H827 C835 0.930 . S
H828 C838 0.930 . S
H829 C839 0.930 . S
C830 H824 0.930 . S
C830 C831 1.355 . S
C830 C832 1.415 . S
C831 C830 1.355 . S
C831 C833 1.419 . S
C832 C830 1.415 . S
C832 C837 1.425 . S
C832 C839 1.409 . S
C833 H825 0.930 . S
C833 C831 1.419 . S
C833 C834 1.362 . S
C834 H826 0.930 . S
C834 C833 1.362 . S
C834 C837 1.409 . S
C835 H827 0.930 . S
C835 C836 1.355 . S
C835 C837 1.415 . S
C836 C835 1.355 . S
C836 C838 1.419 . S
C837 C832 1.425 . S
C837 C834 1.409 . S
C837 C835 1.415 . S
C838 H828 0.930 . S
C838 C836 1.419 . S
C838 C839 1.362 . S
C839 H829 0.930 . S
C839 C832 1.409 . S
C839 C838 1.362 . S
H840 C846 0.930 . S
H841 C849 0.930 1_556 S
H842 C850 0.930 1_556 S
H843 C851 0.930 . S
H844 C854 0.930 . S
H845 C855 0.930 . S
C846 H840 0.930 . S
C846 C847 1.355 . S
C846 C848 1.415 . S
C847 C846 1.355 . S
C847 C849 1.419 . S
C848 C846 1.415 . S
C848 C853 1.425 . S
C848 C855 1.409 . S
C849 H841 0.930 1_554 S
C849 C847 1.419 . S
C849 C850 1.362 . S
C850 H842 0.930 1_554 S
C850 C849 1.362 . S
C850 C853 1.409 . S
C851 H843 0.930 . S
C851 C852 1.355 . S
C851 C853 1.415 . S
C852 C851 1.355 . S
C852 C854 1.419 . S
C853 C848 1.425 . S
C853 C850 1.409 . S
C853 C851 1.415 . S
C854 H844 0.930 . S
C854 C852 1.419 . S
C854 C855 1.362 . S
C855 H845 0.930 . S
C855 C848 1.409 . S
C855 C854 1.362 . S
H856 C862 0.930 . S
H857 C865 0.930 . S
H858 C866 0.930 . S
H859 C867 0.930 . S
H860 C870 0.930 . S
H861 C871 0.930 . S
C862 H856 0.930 . S
C862 C863 1.355 . S
C862 C864 1.415 . S
C863 C862 1.355 . S
C863 C865 1.419 . S
C864 C862 1.415 . S
C864 C869 1.425 . S
C864 C871 1.409 . S
C865 H857 0.930 . S
C865 C863 1.419 . S
C865 C866 1.362 . S
C866 H858 0.930 . S
C866 C865 1.362 . S
C866 C869 1.409 . S
C867 H859 0.930 . S
C867 C868 1.355 . S
C867 C869 1.415 . S
C868 C867 1.355 . S
C868 C870 1.419 . S
C869 C864 1.425 . S
C869 C866 1.409 . S
C869 C867 1.415 . S
C870 H860 0.930 . S
C870 C868 1.419 . S
C870 C871 1.362 . S
C871 H861 0.930 . S
C871 C864 1.409 . S
C871 C870 1.362 . S
H872 C878 0.930 . S
H873 C881 0.930 . S
H874 C882 0.930 . S
H875 C883 0.930 . S
H876 C886 0.930 . S
H877 C887 0.930 . S
C878 H872 0.930 . S
C878 C879 1.355 . S
C878 C880 1.415 . S
C879 C878 1.355 . S
C879 C881 1.419 . S
C880 C878 1.415 . S
C880 C885 1.425 . S
C880 C887 1.409 . S
C881 H873 0.930 . S
C881 C879 1.419 . S
C881 C882 1.362 . S
C882 H874 0.930 . S
C882 C881 1.362 . S
C882 C885 1.409 . S
C883 H875 0.930 . S
C883 C884 1.355 . S
C883 C885 1.415 . S
C884 C883 1.355 . S
C884 C886 1.419 . S
C885 C880 1.425 . S
C885 C882 1.409 . S
C885 C883 1.415 . S
C886 H876 0.930 . S
C886 C884 1.419 . S
C886 C887 1.362 . S
C887 H877 0.930 . S
C887 C880 1.409 . S
C887 C886 1.362 . S
H888 C894 0.930 . S
H889 C897 0.930 . S
H890 C898 0.930 . S
H891 C899 0.930 . S
H892 C902 0.930 . S
H893 C903 0.930 . S
C894 H888 0.930 . S
C894 C895 1.355 . S
C894 C896 1.415 . S
C895 C894 1.355 . S
C895 C897 1.419 . S
C896 C894 1.415 . S
C896 C901 1.425 . S
C896 C903 1.409 . S
C897 H889 0.930 . S
C897 C895 1.419 . S
C897 C898 1.362 . S
C898 H890 0.930 . S
C898 C897 1.362 . S
C898 C901 1.409 . S
C899 H891 0.930 . S
C899 C900 1.355 . S
C899 C901 1.415 . S
C900 C899 1.355 . S
C900 C902 1.419 . S
C901 C896 1.425 . S
C901 C898 1.409 . S
C901 C899 1.415 . S
C902 H892 0.930 . S
C902 C900 1.419 . S
C902 C903 1.362 . S
C903 H893 0.930 . S
C903 C896 1.409 . S
C903 C902 1.362 . S
H904 C910 0.930 . S
H905 C913 0.930 . S
H906 C914 0.930 . S
H907 C915 0.930 . S
H908 C918 0.930 . S
H909 C919 0.930 . S
C910 H904 0.930 . S
C910 C911 1.355 . S
C910 C912 1.415 . S
C911 C910 1.355 . S
C911 C913 1.419 . S
C912 C910 1.415 . S
C912 C917 1.425 . S
C912 C919 1.409 . S
C913 H905 0.930 . S
C913 C911 1.419 . S
C913 C914 1.362 . S
C914 H906 0.930 . S
C914 C913 1.362 . S
C914 C917 1.409 . S
C915 H907 0.930 . S
C915 C916 1.355 . S
C915 C917 1.415 . S
C916 C915 1.355 . S
C916 C918 1.419 . S
C917 C912 1.425 . S
C917 C914 1.409 . S
C917 C915 1.415 . S
C918 H908 0.930 . S
C918 C916 1.419 . S
C918 C919 1.362 . S
C919 H909 0.930 . S
C919 C912 1.409 . S
C919 C918 1.362 . S
H920 C926 0.930 . S
H921 C929 0.930 . S
H922 C930 0.930 . S
H923 C931 0.930 . S
H924 C934 0.930 . S
H925 C935 0.930 . S
C926 H920 0.930 . S
C926 C927 1.355 . S
C926 C928 1.415 . S
C927 C926 1.355 . S
C927 C929 1.419 . S
C928 C926 1.415 . S
C928 C933 1.425 . S
C928 C935 1.409 . S
C929 H921 0.930 . S
C929 C927 1.419 . S
C929 C930 1.362 . S
C930 H922 0.930 . S
C930 C929 1.362 . S
C930 C933 1.409 . S
C931 H923 0.930 . S
C931 C932 1.355 . S
C931 C933 1.415 . S
C932 C931 1.355 . S
C932 C934 1.419 . S
C933 C928 1.425 . S
C933 C930 1.409 . S
C933 C931 1.415 . S
C934 H924 0.930 . S
C934 C932 1.419 . S
C934 C935 1.362 . S
C935 H925 0.930 . S
C935 C928 1.409 . S
C935 C934 1.362 . S
H936 C942 0.930 . S
H937 C945 0.930 . S
H938 C946 0.930 . S
H939 C947 0.930 . S
H940 C950 0.930 . S
H941 C951 0.930 . S
C942 H936 0.930 . S
C942 C943 1.355 . S
C942 C944 1.415 . S
C943 C942 1.355 . S
C943 C945 1.419 . S
C944 C942 1.415 . S
C944 C949 1.425 . S
C944 C951 1.409 . S
C945 H937 0.930 . S
C945 C943 1.419 . S
C945 C946 1.362 . S
C946 H938 0.930 . S
C946 C945 1.362 . S
C946 C949 1.409 . S
C947 H939 0.930 . S
C947 C948 1.355 . S
C947 C949 1.415 . S
C948 C947 1.355 . S
C948 C950 1.419 . S
C949 C944 1.425 . S
C949 C946 1.409 . S
C949 C947 1.415 . S
C950 H940 0.930 . S
C950 C948 1.419 . S
C950 C951 1.362 . S
C951 H941 0.930 . S
C951 C944 1.409 . S
C951 C950 1.362 . S
H952 C958 0.930 . S
H953 C961 0.930 . S
H954 C962 0.930 . S
H955 C963 0.930 . S
H956 C966 0.930 . S
H957 C967 0.930 . S
C958 H952 0.930 . S
C958 C959 1.355 . S
C958 C960 1.415 . S
C959 C958 1.355 . S
C959 C961 1.419 . S
C960 C958 1.415 . S
C960 C965 1.425 . S
C960 C967 1.409 . S
C961 H953 0.930 . S
C961 C959 1.419 . S
C961 C962 1.362 . S
C962 H954 0.930 . S
C962 C961 1.362 . S
C962 C965 1.409 . S
C963 H955 0.930 . S
C963 C964 1.355 . S
C963 C965 1.415 . S
C964 C963 1.355 . S
C964 C966 1.419 . S
C965 C960 1.425 . S
C965 C962 1.409 . S
C965 C963 1.415 . S
C966 H956 0.930 . S
C966 C964 1.419 . S
C966 C967 1.362 . S
C967 H957 0.930 . S
C967 C960 1.409 . S
C967 C966 1.362 . S
H968 C974 0.930 . S
H969 C977 0.930 . S
H970 C978 0.930 . S
H971 C979 0.930 . S
H972 C982 0.930 . S
H973 C983 0.930 . S
C974 H968 0.930 . S
C974 C975 1.355 . S
C974 C976 1.415 . S
C975 C974 1.355 . S
C975 C977 1.419 . S
C976 C974 1.415 . S
C976 C981 1.425 . S
C976 C983 1.409 . S
C977 H969 0.930 . S
C977 C975 1.419 . S
C977 C978 1.362 . S
C978 H970 0.930 . S
C978 C977 1.362 . S
C978 C981 1.409 . S
C979 H971 0.930 . S
C979 C980 1.355 . S
C979 C981 1.415 . S
C980 C979 1.355 . S
C980 C982 1.419 . S
C981 C976 1.425 . S
C981 C978 1.409 . S
C981 C979 1.415 . S
C982 H972 0.930 . S
C982 C980 1.419 . S
C982 C983 1.362 . S
C983 H973 0.930 . S
C983 C976 1.409 . S
C983 C982 1.362 . S
H984 C990 0.930 . S
H985 C993 0.930 . S
H986 C994 0.930 . S
H987 C995 0.930 . S
H988 C998 0.930 . S
H989 C999 0.930 . S
C990 H984 0.930 . S
C990 C991 1.355 . S
C990 C992 1.415 . S
C991 C990 1.355 . S
C991 C993 1.419 . S
C992 C990 1.415 . S
C992 C997 1.425 . S
C992 C999 1.409 . S
C993 H985 0.930 . S
C993 C991 1.419 . S
C993 C994 1.362 . S
C994 H986 0.930 . S
C994 C993 1.362 . S
C994 C997 1.409 . S
C995 H987 0.930 . S
C995 C996 1.355 . S
C995 C997 1.415 . S
C996 C995 1.355 . S
C996 C998 1.419 . S
C997 C992 1.425 . S
C997 C994 1.409 . S
C997 C995 1.415 . S
C998 H988 0.930 . S
C998 C996 1.419 . S
C998 C999 1.362 . S
C999 H989 0.930 . S
C999 C992 1.409 . S
C999 C998 1.362 . S
H1000 C1006 0.930 . S
H1001 C1009 0.930 . S
H1002 C1010 0.930 . S
H1003 C1011 0.930 . S
H1004 C1014 0.930 . S
H1005 C1015 0.930 . S
C1006 H1000 0.930 . S
C1006 C1007 1.355 . S
C1006 C1008 1.415 . S
C1007 C1006 1.355 . S
C1007 C1009 1.419 . S
C1008 C1006 1.415 . S
C1008 C1013 1.425 . S
C1008 C1015 1.409 . S
C1009 H1001 0.930 . S
C1009 C1007 1.419 . S
C1009 C1010 1.362 . S
C1010 H1002 0.930 . S
C1010 C1009 1.362 . S
C1010 C1013 1.409 . S
C1011 H1003 0.930 . S
C1011 C1012 1.355 . S
C1011 C1013 1.415 . S
C1012 C1011 1.355 . S
C1012 C1014 1.419 . S
C1013 C1008 1.425 . S
C1013 C1010 1.409 . S
C1013 C1011 1.415 . S
C1014 H1004 0.930 . S
C1014 C1012 1.419 . S
C1014 C1015 1.362 . S
C1015 H1005 0.930 . S
C1015 C1008 1.409 . S
C1015 C1014 1.362 . S
H1016 C1022 0.930 . S
H1017 C1025 0.930 . S
H1018 C1026 0.930 . S
H1019 C1027 0.930 . S
H1020 C1030 0.930 . S
H1021 C1031 0.930 . S
C1022 H1016 0.930 . S
C1022 C1023 1.355 . S
C1022 C1024 1.415 . S
C1023 C1022 1.355 . S
C1023 C1025 1.419 . S
C1024 C1022 1.415 . S
C1024 C1029 1.425 . S
C1024 C1031 1.409 . S
C1025 H1017 0.930 . S
C1025 C1023 1.419 . S
C1025 C1026 1.362 . S
C1026 H1018 0.930 . S
C1026 C1025 1.362 . S
C1026 C1029 1.409 . S
C1027 H1019 0.930 . S
C1027 C1028 1.355 . S
C1027 C1029 1.415 . S
C1028 C1027 1.355 . S
C1028 C1030 1.419 . S
C1029 C1024 1.425 . S
C1029 C1026 1.409 . S
C1029 C1027 1.415 . S
C1030 H1020 0.930 . S
C1030 C1028 1.419 . S
C1030 C1031 1.362 . S
C1031 H1021 0.930 . S
C1031 C1024 1.409 . S
C1031 C1030 1.362 . S
H1032 C1038 0.930 . S
H1033 C1041 0.930 . S
H1034 C1042 0.930 . S
H1035 C1043 0.930 . S
H1036 C1046 0.930 . S
H1037 C1047 0.930 . S
C1038 H1032 0.930 . S
C1038 C1039 1.355 . S
C1038 C1040 1.415 . S
C1039 C1038 1.355 . S
C1039 C1041 1.419 . S
C1040 C1038 1.415 . S
C1040 C1045 1.425 . S
C1040 C1047 1.409 . S
C1041 H1033 0.930 . S
C1041 C1039 1.419 . S
C1041 C1042 1.362 . S
C1042 H1034 0.930 . S
C1042 C1041 1.362 . S
C1042 C1045 1.409 . S
C1043 H1035 0.930 . S
C1043 C1044 1.355 . S
C1043 C1045 1.415 . S
C1044 C1043 1.355 . S
C1044 C1046 1.419 . S
C1045 C1040 1.425 . S
C1045 C1042 1.409 . S
C1045 C1043 1.415 . S
C1046 H1036 0.930 . S
C1046 C1044 1.419 . S
C1046 C1047 1.362 . S
C1047 H1037 0.930 . S
C1047 C1040 1.409 . S
C1047 C1046 1.362 . S
H1048 C1054 0.930 . S
H1049 C1057 0.930 . S
H1050 C1058 0.930 . S
H1051 C1059 0.930 . S
H1052 C1062 0.930 . S
H1053 C1063 0.930 . S
C1054 H1048 0.930 . S
C1054 C1055 1.355 . S
C1054 C1056 1.415 . S
C1055 C1054 1.355 . S
C1055 C1057 1.419 . S
C1056 C1054 1.415 . S
C1056 C1061 1.425 . S
C1056 C1063 1.409 . S
C1057 H1049 0.930 . S
C1057 C1055 1.419 . S
C1057 C1058 1.362 . S
C1058 H1050 0.930 . S
C1058 C1057 1.362 . S
C1058 C1061 1.409 . S
C1059 H1051 0.930 . S
C1059 C1060 1.355 . S
C1059 C1061 1.415 . S
C1060 C1059 1.355 . S
C1060 C1062 1.419 . S
C1061 C1056 1.425 . S
C1061 C1058 1.409 . S
C1061 C1059 1.415 . S
C1062 H1052 0.930 . S
C1062 C1060 1.419 . S
C1062 C1063 1.362 . S
C1063 H1053 0.930 . S
C1063 C1056 1.409 . S
C1063 C1062 1.362 . S
H1064 C1070 0.930 . S
H1065 C1073 0.930 . S
H1066 C1074 0.930 . S
H1067 C1075 0.930 . S
H1068 C1078 0.930 . S
H1069 C1079 0.930 . S
C1070 H1064 0.930 . S
C1070 C1071 1.355 . S
C1070 C1072 1.415 . S
C1071 C1070 1.355 . S
C1071 C1073 1.419 . S
C1072 C1070 1.415 . S
C1072 C1077 1.425 . S
C1072 C1079 1.409 . S
C1073 H1065 0.930 . S
C1073 C1071 1.419 . S
C1073 C1074 1.362 . S
C1074 H1066 0.930 . S
C1074 C1073 1.362 . S
C1074 C1077 1.409 . S
C1075 H1067 0.930 . S
C1075 C1076 1.355 . S
C1075 C1077 1.415 . S
C1076 C1075 1.355 . S
C1076 C1078 1.419 . S
C1077 C1072 1.425 . S
C1077 C1074 1.409 . S
C1077 C1075 1.415 . S
C1078 H1068 0.930 . S
C1078 C1076 1.419 . S
C1078 C1079 1.362 . S
C1079 H1069 0.930 . S
C1079 C1072 1.409 . S
C1079 C1078 1.362 . S
H1080 C1086 0.930 . S
H1081 C1089 0.930 . S
H1082 C1090 0.930 . S
H1083 C1091 0.930 . S
H1084 C1094 0.930 . S
H1085 C1095 0.930 . S
C1086 H1080 0.930 . S
C1086 C1087 1.355 . S
C1086 C1088 1.415 . S
C1087 C1086 1.355 . S
C1087 C1089 1.419 . S
C1088 C1086 1.415 . S
C1088 C1093 1.425 . S
C1088 C1095 1.409 . S
C1089 H1081 0.930 . S
C1089 C1087 1.419 . S
C1089 C1090 1.362 . S
C1090 H1082 0.930 . S
C1090 C1089 1.362 . S
C1090 C1093 1.409 . S
C1091 H1083 0.930 . S
C1091 C1092 1.355 . S
C1091 C1093 1.415 . S
C1092 C1091 1.355 . S
C1092 C1094 1.419 . S
C1093 C1088 1.425 . S
C1093 C1090 1.409 . S
C1093 C1091 1.415 . S
C1094 H1084 0.930 . S
C1094 C1092 1.419 . S
C1094 C1095 1.362 . S
C1095 H1085 0.930 . S
C1095 C1088 1.409 . S
C1095 C1094 1.362 . S
H1096 C1102 0.930 . S
H1097 C1105 0.930 . S
H1098 C1106 0.930 . S
H1099 C1107 0.930 . S
H1100 C1110 0.930 . S
H1101 C1111 0.930 . S
C1102 H1096 0.930 . S
C1102 C1103 1.355 1_545 S
C1102 C1104 1.415 . S
C1103 C1102 1.355 1_565 S
C1103 C1105 1.419 . S
C1104 C1102 1.415 . S
C1104 C1109 1.425 1_545 S
C1104 C1111 1.409 . S
C1105 H1097 0.930 . S
C1105 C1103 1.419 . S
C1105 C1106 1.362 . S
C1106 H1098 0.930 . S
C1106 C1105 1.362 . S
C1106 C1109 1.409 . S
C1107 H1099 0.930 . S
C1107 C1108 1.355 1_565 S
C1107 C1109 1.415 . S
C1108 C1107 1.355 1_545 S
C1108 C1110 1.419 . S
C1109 C1104 1.425 1_565 S
C1109 C1106 1.409 . S
C1109 C1107 1.415 . S
C1110 H1100 0.930 . S
C1110 C1108 1.419 . S
C1110 C1111 1.362 . S
C1111 H1101 0.930 . S
C1111 C1104 1.409 . S
C1111 C1110 1.362 . S
H1112 C1118 0.930 . S
H1113 C1121 0.930 . S
H1114 C1122 0.930 . S
H1115 C1123 0.930 . S
H1116 C1126 0.930 . S
H1117 C1127 0.930 . S
C1118 H1112 0.930 . S
C1118 C1119 1.355 . S
C1118 C1120 1.415 1_655 S
C1119 C1118 1.355 . S
C1119 C1121 1.419 . S
C1120 C1118 1.415 1_455 S
C1120 C1125 1.425 1_455 S
C1120 C1127 1.409 . S
C1121 H1113 0.930 . S
C1121 C1119 1.419 . S
C1121 C1122 1.362 . S
C1122 H1114 0.930 . S
C1122 C1121 1.362 . S
C1122 C1125 1.409 . S
C1123 H1115 0.930 . S
C1123 C1124 1.355 . S
C1123 C1125 1.415 1_455 S
C1124 C1123 1.355 . S
C1124 C1126 1.419 . S
C1125 C1120 1.425 1_655 S
C1125 C1122 1.409 . S
C1125 C1123 1.415 1_655 S
C1126 H1116 0.930 . S
C1126 C1124 1.419 . S
C1126 C1127 1.362 . S
C1127 H1117 0.930 . S
C1127 C1120 1.409 . S
C1127 C1126 1.362 . S
H1128 C1134 0.930 . S
H1129 C1137 0.930 . S
H1130 C1138 0.930 . S
H1131 C1139 0.930 . S
H1132 C1142 0.930 . S
H1133 C1143 0.930 . S
C1134 H1128 0.930 . S
C1134 C1135 1.355 . S
C1134 C1136 1.415 . S
C1135 C1134 1.355 . S
C1135 C1137 1.419 . S
C1136 C1134 1.415 . S
C1136 C1141 1.425 . S
C1136 C1143 1.409 . S
C1137 H1129 0.930 . S
C1137 C1135 1.419 . S
C1137 C1138 1.362 . S
C1138 H1130 0.930 . S
C1138 C1137 1.362 . S
C1138 C1141 1.409 . S
C1139 H1131 0.930 . S
C1139 C1140 1.355 . S
C1139 C1141 1.415 . S
C1140 C1139 1.355 . S
C1140 C1142 1.419 . S
C1141 C1136 1.425 . S
C1141 C1138 1.409 . S
C1141 C1139 1.415 . S
C1142 H1132 0.930 . S
C1142 C1140 1.419 . S
C1142 C1143 1.362 . S
C1143 H1133 0.930 . S
C1143 C1136 1.409 . S
C1143 C1142 1.362 . S
H1144 C1150 0.930 . S
H1145 C1153 0.930 . S
H1146 C1154 0.930 . S
H1147 C1155 0.930 . S
H1148 C1158 0.930 . S
H1149 C1159 0.930 . S
C1150 H1144 0.930 . S
C1150 C1151 1.355 . S
C1150 C1152 1.415 . S
C1151 C1150 1.355 . S
C1151 C1153 1.419 1_545 S
C1152 C1150 1.415 . S
C1152 C1157 1.425 1_545 S
C1152 C1159 1.409 . S
C1153 H1145 0.930 . S
C1153 C1151 1.419 1_565 S
C1153 C1154 1.362 . S
C1154 H1146 0.930 . S
C1154 C1153 1.362 . S
C1154 C1157 1.409 . S
C1155 H1147 0.930 . S
C1155 C1156 1.355 . S
C1155 C1157 1.415 . S
C1156 C1155 1.355 . S
C1156 C1158 1.419 1_565 S
C1157 C1152 1.425 1_565 S
C1157 C1154 1.409 . S
C1157 C1155 1.415 . S
C1158 H1148 0.930 . S
C1158 C1156 1.419 1_545 S
C1158 C1159 1.362 . S
C1159 H1149 0.930 . S
C1159 C1152 1.409 . S
C1159 C1158 1.362 . S
H1160 C1166 0.930 . S
H1161 C1169 0.930 . S
H1162 C1170 0.930 . S
H1163 C1171 0.930 . S
H1164 C1174 0.930 . S
H1165 C1175 0.930 . S
C1166 H1160 0.930 . S
C1166 C1167 1.355 1_655 S
C1166 C1168 1.415 . S
C1167 C1166 1.355 1_455 S
C1167 C1169 1.419 . S
C1168 C1166 1.415 . S
C1168 C1173 1.425 1_655 S
C1168 C1175 1.409 . S
C1169 H1161 0.930 . S
C1169 C1167 1.419 . S
C1169 C1170 1.362 . S
C1170 H1162 0.930 . S
C1170 C1169 1.362 . S
C1170 C1173 1.409 . S
C1171 H1163 0.930 . S
C1171 C1172 1.355 1_455 S
C1171 C1173 1.415 . S
C1172 C1171 1.355 1_655 S
C1172 C1174 1.419 . S
C1173 C1168 1.425 1_455 S
C1173 C1170 1.409 . S
C1173 C1171 1.415 . S
C1174 H1164 0.930 . S
C1174 C1172 1.419 . S
C1174 C1175 1.362 . S
C1175 H1165 0.930 . S
C1175 C1168 1.409 . S
C1175 C1174 1.362 . S
H1176 C1182 0.930 . S
H1177 C1185 0.930 . S
H1178 C1186 0.930 . S
H1179 C1187 0.930 . S
H1180 C1190 0.930 . S
H1181 C1191 0.930 . S
C1182 H1176 0.930 . S
C1182 C1183 1.355 . S
C1182 C1184 1.415 . S
C1183 C1182 1.355 . S
C1183 C1185 1.419 . S
C1184 C1182 1.415 . S
C1184 C1189 1.425 . S
C1184 C1191 1.409 . S
C1185 H1177 0.930 . S
C1185 C1183 1.419 . S
C1185 C1186 1.362 . S
C1186 H1178 0.930 . S
C1186 C1185 1.362 . S
C1186 C1189 1.409 . S
C1187 H1179 0.930 . S
C1187 C1188 1.355 . S
C1187 C1189 1.415 . S
C1188 C1187 1.355 . S
C1188 C1190 1.419 . S
C1189 C1184 1.425 . S
C1189 C1186 1.409 . S
C1189 C1187 1.415 . S
C1190 H1180 0.930 . S
C1190 C1188 1.419 . S
C1190 C1191 1.362 . S
C1191 H1181 0.930 . S
C1191 C1184 1.409 . S
C1191 C1190 1.362 . S
H1192 C1198 0.930 . S
H1193 C1201 0.930 . S
H1194 C1202 0.930 . S
H1195 C1203 0.930 . S
H1196 C1206 0.930 . S
H1197 C1207 0.930 . S
C1198 H1192 0.930 . S
C1198 C1199 1.355 . S
C1198 C1200 1.415 . S
C1199 C1198 1.355 . S
C1199 C1201 1.419 . S
C1200 C1198 1.415 . S
C1200 C1205 1.425 . S
C1200 C1207 1.409 . S
C1201 H1193 0.930 . S
C1201 C1199 1.419 . S
C1201 C1202 1.362 . S
C1202 H1194 0.930 . S
C1202 C1201 1.362 . S
C1202 C1205 1.409 . S
C1203 H1195 0.930 . S
C1203 C1204 1.355 . S
C1203 C1205 1.415 . S
C1204 C1203 1.355 . S
C1204 C1206 1.419 . S
C1205 C1200 1.425 . S
C1205 C1202 1.409 . S
C1205 C1203 1.415 . S
C1206 H1196 0.930 . S
C1206 C1204 1.419 . S
C1206 C1207 1.362 . S
C1207 H1197 0.930 . S
C1207 C1200 1.409 . S
C1207 C1206 1.362 . S
H1208 C1214 0.930 . S
H1209 C1217 0.930 . S
H1210 C1218 0.930 . S
H1211 C1219 0.930 . S
H1212 C1222 0.930 . S
H1213 C1223 0.930 . S
C1214 H1208 0.930 . S
C1214 C1215 1.355 . S
C1214 C1216 1.415 . S
C1215 C1214 1.355 . S
C1215 C1217 1.419 . S
C1216 C1214 1.415 . S
C1216 C1221 1.425 . S
C1216 C1223 1.409 . S
C1217 H1209 0.930 . S
C1217 C1215 1.419 . S
C1217 C1218 1.362 . S
C1218 H1210 0.930 . S
C1218 C1217 1.362 . S
C1218 C1221 1.409 . S
C1219 H1211 0.930 . S
C1219 C1220 1.355 . S
C1219 C1221 1.415 . S
C1220 C1219 1.355 . S
C1220 C1222 1.419 . S
C1221 C1216 1.425 . S
C1221 C1218 1.409 . S
C1221 C1219 1.415 . S
C1222 H1212 0.930 . S
C1222 C1220 1.419 . S
C1222 C1223 1.362 . S
C1223 H1213 0.930 . S
C1223 C1216 1.409 . S
C1223 C1222 1.362 . S
H1224 C1230 0.930 . S
H1225 C1233 0.930 . S
H1226 C1234 0.930 . S
H1227 C1235 0.930 . S
H1228 C1238 0.930 . S
H1229 C1239 0.930 . S
C1230 H1224 0.930 . S
C1230 C1231 1.355 . S
C1230 C1232 1.415 . S
C1231 C1230 1.355 . S
C1231 C1233 1.419 . S
C1232 C1230 1.415 . S
C1232 C1237 1.425 . S
C1232 C1239 1.409 . S
C1233 H1225 0.930 . S
C1233 C1231 1.419 . S
C1233 C1234 1.362 . S
C1234 H1226 0.930 . S
C1234 C1233 1.362 . S
C1234 C1237 1.409 . S
C1235 H1227 0.930 . S
C1235 C1236 1.355 . S
C1235 C1237 1.415 . S
C1236 C1235 1.355 . S
C1236 C1238 1.419 . S
C1237 C1232 1.425 . S
C1237 C1234 1.409 . S
C1237 C1235 1.415 . S
C1238 H1228 0.930 . S
C1238 C1236 1.419 . S
C1238 C1239 1.362 . S
C1239 H1229 0.930 . S
C1239 C1232 1.409 . S
C1239 C1238 1.362 . S
H1240 C1246 0.930 . S
H1241 C1249 0.930 . S
H1242 C1250 0.930 . S
H1243 C1251 0.930 . S
H1244 C1254 0.930 . S
H1245 C1255 0.930 . S
C1246 H1240 0.930 . S
C1246 C1247 1.355 . S
C1246 C1248 1.415 . S
C1247 C1246 1.355 . S
C1247 C1249 1.419 . S
C1248 C1246 1.415 . S
C1248 C1253 1.425 . S
C1248 C1255 1.409 . S
C1249 H1241 0.930 . S
C1249 C1247 1.419 . S
C1249 C1250 1.362 . S
C1250 H1242 0.930 . S
C1250 C1249 1.362 . S
C1250 C1253 1.409 . S
C1251 H1243 0.930 . S
C1251 C1252 1.355 . S
C1251 C1253 1.415 . S
C1252 C1251 1.355 . S
C1252 C1254 1.419 . S
C1253 C1248 1.425 . S
C1253 C1250 1.409 . S
C1253 C1251 1.415 . S
C1254 H1244 0.930 . S
C1254 C1252 1.419 . S
C1254 C1255 1.362 . S
C1255 H1245 0.930 . S
C1255 C1248 1.409 . S
C1255 C1254 1.362 . S
H1256 C1262 0.930 . S
H1257 C1265 0.930 . S
H1258 C1266 0.930 . S
H1259 C1267 0.930 . S
H1260 C1270 0.930 . S
H1261 C1271 0.930 . S
C1262 H1256 0.930 . S
C1262 C1263 1.355 . S
C1262 C1264 1.415 . S
C1263 C1262 1.355 . S
C1263 C1265 1.419 . S
C1264 C1262 1.415 . S
C1264 C1269 1.425 . S
C1264 C1271 1.409 . S
C1265 H1257 0.930 . S
C1265 C1263 1.419 . S
C1265 C1266 1.362 . S
C1266 H1258 0.930 . S
C1266 C1265 1.362 . S
C1266 C1269 1.409 . S
C1267 H1259 0.930 . S
C1267 C1268 1.355 . S
C1267 C1269 1.415 . S
C1268 C1267 1.355 . S
C1268 C1270 1.419 . S
C1269 C1264 1.425 . S
C1269 C1266 1.409 . S
C1269 C1267 1.415 . S
C1270 H1260 0.930 . S
C1270 C1268 1.419 . S
C1270 C1271 1.362 . S
C1271 H1261 0.930 . S
C1271 C1264 1.409 . S
C1271 C1270 1.362 . S
H1272 C1278 0.930 . S
H1273 C1281 0.930 . S
H1274 C1282 0.930 . S
H1275 C1283 0.930 . S
H1276 C1286 0.930 . S
H1277 C1287 0.930 . S
C1278 H1272 0.930 . S
C1278 C1279 1.355 . S
C1278 C1280 1.415 . S
C1279 C1278 1.355 . S
C1279 C1281 1.419 . S
C1280 C1278 1.415 . S
C1280 C1285 1.425 . S
C1280 C1287 1.409 . S
C1281 H1273 0.930 . S
C1281 C1279 1.419 . S
C1281 C1282 1.362 . S
C1282 H1274 0.930 . S
C1282 C1281 1.362 . S
C1282 C1285 1.409 . S
C1283 H1275 0.930 . S
C1283 C1284 1.355 . S
C1283 C1285 1.415 . S
C1284 C1283 1.355 . S
C1284 C1286 1.419 . S
C1285 C1280 1.425 . S
C1285 C1282 1.409 . S
C1285 C1283 1.415 . S
C1286 H1276 0.930 . S
C1286 C1284 1.419 . S
C1286 C1287 1.362 . S
C1287 H1277 0.930 . S
C1287 C1280 1.409 . S
C1287 C1286 1.362 . S
H1288 C1294 0.930 . S
H1289 C1297 0.930 . S
H1290 C1298 0.930 . S
H1291 C1299 0.930 . S
H1292 C1302 0.930 . S
H1293 C1303 0.930 . S
C1294 H1288 0.930 . S
C1294 C1295 1.355 . S
C1294 C1296 1.415 . S
C1295 C1294 1.355 . S
C1295 C1297 1.419 . S
C1296 C1294 1.415 . S
C1296 C1301 1.425 . S
C1296 C1303 1.409 . S
C1297 H1289 0.930 . S
C1297 C1295 1.419 . S
C1297 C1298 1.362 . S
C1298 H1290 0.930 . S
C1298 C1297 1.362 . S
C1298 C1301 1.409 . S
C1299 H1291 0.930 . S
C1299 C1300 1.355 . S
C1299 C1301 1.415 . S
C1300 C1299 1.355 . S
C1300 C1302 1.419 . S
C1301 C1296 1.425 . S
C1301 C1298 1.409 . S
C1301 C1299 1.415 . S
C1302 H1292 0.930 . S
C1302 C1300 1.419 . S
C1302 C1303 1.362 . S
C1303 H1293 0.930 . S
C1303 C1296 1.409 . S
C1303 C1302 1.362 . S
H1304 C1310 0.930 . S
H1305 C1313 0.930 . S
H1306 C1314 0.930 . S
H1307 C1315 0.930 . S
H1308 C1318 0.930 . S
H1309 C1319 0.930 . S
C1310 H1304 0.930 . S
C1310 C1311 1.355 . S
C1310 C1312 1.415 . S
C1311 C1310 1.355 . S
C1311 C1313 1.419 . S
C1312 C1310 1.415 . S
C1312 C1317 1.425 . S
C1312 C1319 1.409 . S
C1313 H1305 0.930 . S
C1313 C1311 1.419 . S
C1313 C1314 1.362 . S
C1314 H1306 0.930 . S
C1314 C1313 1.362 . S
C1314 C1317 1.409 . S
C1315 H1307 0.930 . S
C1315 C1316 1.355 . S
C1315 C1317 1.415 . S
C1316 C1315 1.355 . S
C1316 C1318 1.419 . S
C1317 C1312 1.425 . S
C1317 C1314 1.409 . S
C1317 C1315 1.415 . S
C1318 H1308 0.930 . S
C1318 C1316 1.419 . S
C1318 C1319 1.362 . S
C1319 H1309 0.930 . S
C1319 C1312 1.409 . S
C1319 C1318 1.362 . S
H1320 C1326 0.930 . S
H1321 C1329 0.930 . S
H1322 C1330 0.930 . S
H1323 C1331 0.930 . S
H1324 C1334 0.930 . S
H1325 C1335 0.930 . S
C1326 H1320 0.930 . S
C1326 C1327 1.355 . S
C1326 C1328 1.415 . S
C1327 C1326 1.355 . S
C1327 C1329 1.419 . S
C1328 C1326 1.415 . S
C1328 C1333 1.425 . S
C1328 C1335 1.409 . S
C1329 H1321 0.930 . S
C1329 C1327 1.419 . S
C1329 C1330 1.362 . S
C1330 H1322 0.930 . S
C1330 C1329 1.362 . S
C1330 C1333 1.409 . S
C1331 H1323 0.930 . S
C1331 C1332 1.355 . S
C1331 C1333 1.415 . S
C1332 C1331 1.355 . S
C1332 C1334 1.419 . S
C1333 C1328 1.425 . S
C1333 C1330 1.409 . S
C1333 C1331 1.415 . S
C1334 H1324 0.930 . S
C1334 C1332 1.419 . S
C1334 C1335 1.362 . S
C1335 H1325 0.930 . S
C1335 C1328 1.409 . S
C1335 C1334 1.362 . S
H1336 C1342 0.930 . S
H1337 C1345 0.930 . S
H1338 C1346 0.930 . S
H1339 C1347 0.930 . S
H1340 C1350 0.930 . S
H1341 C1351 0.930 . S
C1342 H1336 0.930 . S
C1342 C1343 1.355 . S
C1342 C1344 1.415 . S
C1343 C1342 1.355 . S
C1343 C1345 1.419 . S
C1344 C1342 1.415 . S
C1344 C1349 1.425 . S
C1344 C1351 1.409 . S
C1345 H1337 0.930 . S
C1345 C1343 1.419 . S
C1345 C1346 1.362 . S
C1346 H1338 0.930 . S
C1346 C1345 1.362 . S
C1346 C1349 1.409 . S
C1347 H1339 0.930 . S
C1347 C1348 1.355 . S
C1347 C1349 1.415 . S
C1348 C1347 1.355 . S
C1348 C1350 1.419 . S
C1349 C1344 1.425 . S
C1349 C1346 1.409 . S
C1349 C1347 1.415 . S
C1350 H1340 0.930 . S
C1350 C1348 1.419 . S
C1350 C1351 1.362 . S
C1351 H1341 0.930 . S
C1351 C1344 1.409 . S
C1351 C1350 1.362 . S
H1352 C1358 0.930 . S
H1353 C1361 0.930 . S
H1354 C1362 0.930 . S
H1355 C1363 0.930 . S
H1356 C1366 0.930 . S
H1357 C1367 0.930 . S
C1358 H1352 0.930 . S
C1358 C1359 1.355 . S
C1358 C1360 1.415 . S
C1359 C1358 1.355 . S
C1359 C1361 1.419 . S
C1360 C1358 1.415 . S
C1360 C1365 1.425 . S
C1360 C1367 1.409 . S
C1361 H1353 0.930 . S
C1361 C1359 1.419 . S
C1361 C1362 1.362 . S
C1362 H1354 0.930 . S
C1362 C1361 1.362 . S
C1362 C1365 1.409 . S
C1363 H1355 0.930 . S
C1363 C1364 1.355 . S
C1363 C1365 1.415 . S
C1364 C1363 1.355 . S
C1364 C1366 1.419 . S
C1365 C1360 1.425 . S
C1365 C1362 1.409 . S
C1365 C1363 1.415 . S
C1366 H1356 0.930 . S
C1366 C1364 1.419 . S
C1366 C1367 1.362 . S
C1367 H1357 0.930 . S
C1367 C1360 1.409 . S
C1367 C1366 1.362 . S
H1368 C1374 0.930 . S
H1369 C1377 0.930 . S
H1370 C1378 0.930 . S
H1371 C1379 0.930 . S
H1372 C1382 0.930 . S
H1373 C1383 0.930 . S
C1374 H1368 0.930 . S
C1374 C1375 1.355 . S
C1374 C1376 1.415 . S
C1375 C1374 1.355 . S
C1375 C1377 1.419 . S
C1376 C1374 1.415 . S
C1376 C1381 1.425 . S
C1376 C1383 1.409 . S
C1377 H1369 0.930 . S
C1377 C1375 1.419 . S
C1377 C1378 1.362 . S
C1378 H1370 0.930 . S
C1378 C1377 1.362 . S
C1378 C1381 1.409 . S
C1379 H1371 0.930 . S
C1379 C1380 1.355 . S
C1379 C1381 1.415 . S
C1380 C1379 1.355 . S
C1380 C1382 1.419 . S
C1381 C1376 1.425 . S
C1381 C1378 1.409 . S
C1381 C1379 1.415 . S
C1382 H1372 0.930 . S
C1382 C1380 1.419 . S
C1382 C1383 1.362 . S
C1383 H1373 0.930 . S
C1383 C1376 1.409 . S
C1383 C1382 1.362 . S
H1384 C1390 0.930 . S
H1385 C1393 0.930 . S
H1386 C1394 0.930 . S
H1387 C1395 0.930 . S
H1388 C1398 0.930 . S
H1389 C1399 0.930 . S
C1390 H1384 0.930 . S
C1390 C1391 1.355 . S
C1390 C1392 1.415 . S
C1391 C1390 1.355 . S
C1391 C1393 1.419 . S
C1392 C1390 1.415 . S
C1392 C1397 1.425 . S
C1392 C1399 1.409 . S
C1393 H1385 0.930 . S
C1393 C1391 1.419 . S
C1393 C1394 1.362 . S
C1394 H1386 0.930 . S
C1394 C1393 1.362 . S
C1394 C1397 1.409 . S
C1395 H1387 0.930 . S
C1395 C1396 1.355 . S
C1395 C1397 1.415 . S
C1396 C1395 1.355 . S
C1396 C1398 1.419 . S
C1397 C1392 1.425 . S
C1397 C1394 1.409 . S
C1397 C1395 1.415 . S
C1398 H1388 0.930 . S
C1398 C1396 1.419 . S
C1398 C1399 1.362 . S
C1399 H1389 0.930 . S
C1399 C1392 1.409 . S
C1399 C1398 1.362 . S
H1400 C1406 0.930 . S
H1401 C1409 0.930 . S
H1402 C1410 0.930 . S
H1403 C1411 0.930 . S
H1404 C1414 0.930 . S
H1405 C1415 0.930 . S
C1406 H1400 0.930 . S
C1406 C1407 1.355 . S
C1406 C1408 1.415 . S
C1407 C1406 1.355 . S
C1407 C1409 1.419 . S
C1408 C1406 1.415 . S
C1408 C1413 1.425 . S
C1408 C1415 1.409 . S
C1409 H1401 0.930 . S
C1409 C1407 1.419 . S
C1409 C1410 1.362 . S
C1410 H1402 0.930 . S
C1410 C1409 1.362 . S
C1410 C1413 1.409 . S
C1411 H1403 0.930 . S
C1411 C1412 1.355 . S
C1411 C1413 1.415 . S
C1412 C1411 1.355 . S
C1412 C1414 1.419 . S
C1413 C1408 1.425 . S
C1413 C1410 1.409 . S
C1413 C1411 1.415 . S
C1414 H1404 0.930 . S
C1414 C1412 1.419 . S
C1414 C1415 1.362 . S
C1415 H1405 0.930 . S
C1415 C1408 1.409 . S
C1415 C1414 1.362 . S
H1416 C1422 0.930 . S
H1417 C1425 0.930 . S
H1418 C1426 0.930 . S
H1419 C1427 0.930 . S
H1420 C1430 0.930 . S
H1421 C1431 0.930 . S
C1422 H1416 0.930 . S
C1422 C1423 1.355 . S
C1422 C1424 1.415 . S
C1423 C1422 1.355 . S
C1423 C1425 1.419 . S
C1424 C1422 1.415 . S
C1424 C1429 1.425 . S
C1424 C1431 1.409 . S
C1425 H1417 0.930 . S
C1425 C1423 1.419 . S
C1425 C1426 1.362 . S
C1426 H1418 0.930 . S
C1426 C1425 1.362 . S
C1426 C1429 1.409 . S
C1427 H1419 0.930 . S
C1427 C1428 1.355 . S
C1427 C1429 1.415 . S
C1428 C1427 1.355 . S
C1428 C1430 1.419 . S
C1429 C1424 1.425 . S
C1429 C1426 1.409 . S
C1429 C1427 1.415 . S
C1430 H1420 0.930 . S
C1430 C1428 1.419 . S
C1430 C1431 1.362 . S
C1431 H1421 0.930 . S
C1431 C1424 1.409 . S
C1431 C1430 1.362 . S
H1432 C1438 0.930 . S
H1433 C1441 0.930 . S
H1434 C1442 0.930 . S
H1435 C1443 0.930 . S
H1436 C1446 0.930 . S
H1437 C1447 0.930 . S
C1438 H1432 0.930 . S
C1438 C1439 1.355 . S
C1438 C1440 1.415 . S
C1439 C1438 1.355 . S
C1439 C1441 1.419 . S
C1440 C1438 1.415 . S
C1440 C1445 1.425 . S
C1440 C1447 1.409 . S
C1441 H1433 0.930 . S
C1441 C1439 1.419 . S
C1441 C1442 1.362 . S
C1442 H1434 0.930 . S
C1442 C1441 1.362 . S
C1442 C1445 1.409 . S
C1443 H1435 0.930 . S
C1443 C1444 1.355 . S
C1443 C1445 1.415 . S
C1444 C1443 1.355 . S
C1444 C1446 1.419 . S
C1445 C1440 1.425 . S
C1445 C1442 1.409 . S
C1445 C1443 1.415 . S
C1446 H1436 0.930 . S
C1446 C1444 1.419 . S
C1446 C1447 1.362 . S
C1447 H1437 0.930 . S
C1447 C1440 1.409 . S
C1447 C1446 1.362 . S
H1448 C1454 0.930 . S
H1449 C1457 0.930 . S
H1450 C1458 0.930 . S
H1451 C1459 0.930 . S
H1452 C1462 0.930 . S
H1453 C1463 0.930 . S
C1454 H1448 0.930 . S
C1454 C1455 1.355 . S
C1454 C1456 1.415 . S
C1455 C1454 1.355 . S
C1455 C1457 1.419 . S
C1456 C1454 1.415 . S
C1456 C1461 1.425 . S
C1456 C1463 1.409 . S
C1457 H1449 0.930 . S
C1457 C1455 1.419 . S
C1457 C1458 1.362 . S
C1458 H1450 0.930 . S
C1458 C1457 1.362 . S
C1458 C1461 1.409 . S
C1459 H1451 0.930 . S
C1459 C1460 1.355 . S
C1459 C1461 1.415 . S
C1460 C1459 1.355 . S
C1460 C1462 1.419 . S
C1461 C1456 1.425 . S
C1461 C1458 1.409 . S
C1461 C1459 1.415 . S
C1462 H1452 0.930 . S
C1462 C1460 1.419 . S
C1462 C1463 1.362 . S
C1463 H1453 0.930 . S
C1463 C1456 1.409 . S
C1463 C1462 1.362 . S
H1464 C1470 0.930 . S
H1465 C1473 0.930 . S
H1466 C1474 0.930 . S
H1467 C1475 0.930 . S
H1468 C1478 0.930 . S
H1469 C1479 0.930 . S
C1470 H1464 0.930 . S
C1470 C1471 1.355 . S
C1470 C1472 1.415 . S
C1471 C1470 1.355 . S
C1471 C1473 1.419 . S
C1472 C1470 1.415 . S
C1472 C1477 1.425 . S
C1472 C1479 1.409 . S
C1473 H1465 0.930 . S
C1473 C1471 1.419 . S
C1473 C1474 1.362 . S
C1474 H1466 0.930 . S
C1474 C1473 1.362 . S
C1474 C1477 1.409 . S
C1475 H1467 0.930 . S
C1475 C1476 1.355 . S
C1475 C1477 1.415 . S
C1476 C1475 1.355 . S
C1476 C1478 1.419 . S
C1477 C1472 1.425 . S
C1477 C1474 1.409 . S
C1477 C1475 1.415 . S
C1478 H1468 0.930 . S
C1478 C1476 1.419 . S
C1478 C1479 1.362 . S
C1479 H1469 0.930 . S
C1479 C1472 1.409 . S
C1479 C1478 1.362 . S
H1480 C1486 0.930 . S
H1481 C1489 0.930 . S
H1482 C1490 0.930 . S
H1483 C1491 0.930 . S
H1484 C1494 0.930 . S
H1485 C1495 0.930 . S
C1486 H1480 0.930 . S
C1486 C1487 1.355 . S
C1486 C1488 1.415 . S
C1487 C1486 1.355 . S
C1487 C1489 1.419 . S
C1488 C1486 1.415 . S
C1488 C1493 1.425 . S
C1488 C1495 1.409 . S
C1489 H1481 0.930 . S
C1489 C1487 1.419 . S
C1489 C1490 1.362 . S
C1490 H1482 0.930 . S
C1490 C1489 1.362 . S
C1490 C1493 1.409 . S
C1491 H1483 0.930 . S
C1491 C1492 1.355 . S
C1491 C1493 1.415 . S
C1492 C1491 1.355 . S
C1492 C1494 1.419 . S
C1493 C1488 1.425 . S
C1493 C1490 1.409 . S
C1493 C1491 1.415 . S
C1494 H1484 0.930 . S
C1494 C1492 1.419 . S
C1494 C1495 1.362 . S
C1495 H1485 0.930 . S
C1495 C1488 1.409 . S
C1495 C1494 1.362 . S
H1496 C1502 0.930 . S
H1497 C1505 0.930 . S
H1498 C1506 0.930 . S
H1499 C1507 0.930 . S
H1500 C1510 0.930 . S
H1501 C1511 0.930 . S
C1502 H1496 0.930 . S
C1502 C1503 1.355 . S
C1502 C1504 1.415 . S
C1503 C1502 1.355 . S
C1503 C1505 1.419 . S
C1504 C1502 1.415 . S
C1504 C1509 1.425 . S
C1504 C1511 1.409 . S
C1505 H1497 0.930 . S
C1505 C1503 1.419 . S
C1505 C1506 1.362 . S
C1506 H1498 0.930 . S
C1506 C1505 1.362 . S
C1506 C1509 1.409 . S
C1507 H1499 0.930 . S
C1507 C1508 1.355 . S
C1507 C1509 1.415 . S
C1508 C1507 1.355 . S
C1508 C1510 1.419 . S
C1509 C1504 1.425 . S
C1509 C1506 1.409 . S
C1509 C1507 1.415 . S
C1510 H1500 0.930 . S
C1510 C1508 1.419 . S
C1510 C1511 1.362 . S
C1511 H1501 0.930 . S
C1511 C1504 1.409 . S
C1511 C1510 1.362 . S
H1512 C1518 0.930 . S
H1513 C1521 0.930 . S
H1514 C1522 0.930 . S
H1515 C1523 0.930 . S
H1516 C1526 0.930 . S
H1517 C1527 0.930 . S
C1518 H1512 0.930 . S
C1518 C1519 1.355 . S
C1518 C1520 1.415 . S
C1519 C1518 1.355 . S
C1519 C1521 1.419 . S
C1520 C1518 1.415 . S
C1520 C1525 1.425 . S
C1520 C1527 1.409 . S
C1521 H1513 0.930 . S
C1521 C1519 1.419 . S
C1521 C1522 1.362 . S
C1522 H1514 0.930 . S
C1522 C1521 1.362 . S
C1522 C1525 1.409 . S
C1523 H1515 0.930 . S
C1523 C1524 1.355 . S
C1523 C1525 1.415 . S
C1524 C1523 1.355 . S
C1524 C1526 1.419 . S
C1525 C1520 1.425 . S
C1525 C1522 1.409 . S
C1525 C1523 1.415 . S
C1526 H1516 0.930 . S
C1526 C1524 1.419 . S
C1526 C1527 1.362 . S
C1527 H1517 0.930 . S
C1527 C1520 1.409 . S
C1527 C1526 1.362 . S
H1528 C1534 0.930 . S
H1529 C1537 0.930 . S
H1530 C1538 0.930 . S
H1531 C1539 0.930 . S
H1532 C1542 0.930 . S
H1533 C1543 0.930 . S
C1534 H1528 0.930 . S
C1534 C1535 1.355 . S
C1534 C1536 1.415 . S
C1535 C1534 1.355 . S
C1535 C1537 1.419 . S
C1536 C1534 1.415 . S
C1536 C1541 1.425 . S
C1536 C1543 1.409 . S
C1537 H1529 0.930 . S
C1537 C1535 1.419 . S
C1537 C1538 1.362 . S
C1538 H1530 0.930 . S
C1538 C1537 1.362 . S
C1538 C1541 1.409 . S
C1539 H1531 0.930 . S
C1539 C1540 1.355 . S
C1539 C1541 1.415 . S
C1540 C1539 1.355 . S
C1540 C1542 1.419 . S
C1541 C1536 1.425 . S
C1541 C1538 1.409 . S
C1541 C1539 1.415 . S
C1542 H1532 0.930 . S
C1542 C1540 1.419 . S
C1542 C1543 1.362 . S
C1543 H1533 0.930 . S
C1543 C1536 1.409 . S
C1543 C1542 1.362 . S
H1544 C1550 0.930 . S
H1545 C1553 0.930 . S
H1546 C1554 0.930 . S
H1547 C1555 0.930 . S
H1548 C1558 0.930 . S
H1549 C1559 0.930 . S
C1550 H1544 0.930 . S
C1550 C1551 1.355 . S
C1550 C1552 1.415 . S
C1551 C1550 1.355 . S
C1551 C1553 1.419 . S
C1552 C1550 1.415 . S
C1552 C1557 1.425 . S
C1552 C1559 1.409 . S
C1553 H1545 0.930 . S
C1553 C1551 1.419 . S
C1553 C1554 1.362 . S
C1554 H1546 0.930 . S
C1554 C1553 1.362 . S
C1554 C1557 1.409 . S
C1555 H1547 0.930 . S
C1555 C1556 1.355 . S
C1555 C1557 1.415 . S
C1556 C1555 1.355 . S
C1556 C1558 1.419 . S
C1557 C1552 1.425 . S
C1557 C1554 1.409 . S
C1557 C1555 1.415 . S
C1558 H1548 0.930 . S
C1558 C1556 1.419 . S
C1558 C1559 1.362 . S
C1559 H1549 0.930 . S
C1559 C1552 1.409 . S
C1559 C1558 1.362 . S
H1560 C1566 0.930 . S
H1561 C1569 0.930 . S
H1562 C1570 0.930 1_655 S
H1563 C1571 0.930 . S
H1564 C1574 0.930 . S
H1565 C1575 0.930 1_455 S
C1566 H1560 0.930 . S
C1566 C1567 1.355 . S
C1566 C1568 1.415 . S
C1567 C1566 1.355 . S
C1567 C1569 1.419 . S
C1568 C1566 1.415 . S
C1568 C1573 1.425 1_455 S
C1568 C1575 1.409 1_455 S
C1569 H1561 0.930 . S
C1569 C1567 1.419 . S
C1569 C1570 1.362 . S
C1570 H1562 0.930 1_455 S
C1570 C1569 1.362 . S
C1570 C1573 1.409 1_455 S
C1571 H1563 0.930 . S
C1571 C1572 1.355 . S
C1571 C1573 1.415 . S
C1572 C1571 1.355 . S
C1572 C1574 1.419 . S
C1573 C1568 1.425 1_655 S
C1573 C1570 1.409 1_655 S
C1573 C1571 1.415 . S
C1574 H1564 0.930 . S
C1574 C1572 1.419 . S
C1574 C1575 1.362 . S
C1575 H1565 0.930 1_655 S
C1575 C1568 1.409 1_655 S
C1575 C1574 1.362 . S
H1576 C1582 0.930 . S
H1577 C1585 0.930 . S
H1578 C1586 0.930 . S
H1579 C1587 0.930 . S
H1580 C1590 0.930 . S
H1581 C1591 0.930 . S
C1582 H1576 0.930 . S
C1582 C1583 1.355 . S
C1582 C1584 1.415 . S
C1583 C1582 1.355 . S
C1583 C1585 1.419 . S
C1584 C1582 1.415 . S
C1584 C1589 1.425 . S
C1584 C1591 1.409 . S
C1585 H1577 0.930 . S
C1585 C1583 1.419 . S
C1585 C1586 1.362 . S
C1586 H1578 0.930 . S
C1586 C1585 1.362 . S
C1586 C1589 1.409 . S
C1587 H1579 0.930 . S
C1587 C1588 1.355 . S
C1587 C1589 1.415 . S
C1588 C1587 1.355 . S
C1588 C1590 1.419 . S
C1589 C1584 1.425 . S
C1589 C1586 1.409 . S
C1589 C1587 1.415 . S
C1590 H1580 0.930 . S
C1590 C1588 1.419 . S
C1590 C1591 1.362 . S
C1591 H1581 0.930 . S
C1591 C1584 1.409 . S
C1591 C1590 1.362 . S
H1592 C1598 0.930 . S
H1593 C1601 0.930 . S
H1594 C1602 0.930 . S
H1595 C1603 0.930 . S
H1596 C1606 0.930 . S
H1597 C1607 0.930 . S
C1598 H1592 0.930 . S
C1598 C1599 1.355 . S
C1598 C1600 1.415 1_545 S
C1599 C1598 1.355 . S
C1599 C1601 1.419 . S
C1600 C1598 1.415 1_565 S
C1600 C1605 1.425 1_565 S
C1600 C1607 1.409 . S
C1601 H1593 0.930 . S
C1601 C1599 1.419 . S
C1601 C1602 1.362 . S
C1602 H1594 0.930 . S
C1602 C1601 1.362 . S
C1602 C1605 1.409 . S
C1603 H1595 0.930 . S
C1603 C1604 1.355 . S
C1603 C1605 1.415 1_565 S
C1604 C1603 1.355 . S
C1604 C1606 1.419 . S
C1605 C1600 1.425 1_545 S
C1605 C1602 1.409 . S
C1605 C1603 1.415 1_545 S
C1606 H1596 0.930 . S
C1606 C1604 1.419 . S
C1606 C1607 1.362 . S
C1607 H1597 0.930 . S
C1607 C1600 1.409 . S
C1607 C1606 1.362 . S
H1608 C1614 0.930 . S
H1609 C1617 0.928 . S
H1610 C1618 0.930 . S
H1611 C1619 0.930 . S
H1612 C1622 0.928 . S
H1613 C1623 0.930 . S
C1614 H1608 0.930 . S
C1614 C1615 1.355 . S
C1614 C1616 1.415 . S
C1615 C1614 1.355 . S
C1615 C1617 1.419 1_554 S
C1616 C1614 1.415 . S
C1616 C1621 1.425 1_544 S
C1616 C1623 1.409 . S
C1617 H1609 0.928 . S
C1617 C1615 1.419 1_556 S
C1617 C1618 1.362 1_545 S
C1618 H1610 0.930 . S
C1618 C1617 1.362 1_565 S
C1618 C1621 1.409 . S
C1619 H1611 0.930 . S
C1619 C1620 1.355 . S
C1619 C1621 1.415 . S
C1620 C1619 1.355 . S
C1620 C1622 1.419 1_556 S
C1621 C1616 1.425 1_566 S
C1621 C1618 1.409 . S
C1621 C1619 1.415 . S
C1622 H1612 0.928 . S
C1622 C1620 1.419 1_554 S
C1622 C1623 1.362 1_565 S
C1623 H1613 0.930 . S
C1623 C1616 1.409 . S
C1623 C1622 1.362 1_545 S
H1624 C1630 0.930 . S
H1625 C1633 0.930 . S
H1626 C1634 0.930 . S
H1627 C1635 0.930 . S
H1628 C1638 0.930 . S
H1629 C1639 0.930 . S
C1630 H1624 0.930 . S
C1630 C1631 1.355 . S
C1630 C1632 1.415 1_655 S
C1631 C1630 1.355 . S
C1631 C1633 1.419 1_554 S
C1632 C1630 1.415 1_455 S
C1632 C1637 1.425 1_454 S
C1632 C1639 1.409 . S
C1633 H1625 0.930 . S
C1633 C1631 1.419 1_556 S
C1633 C1634 1.362 . S
C1634 H1626 0.930 . S
C1634 C1633 1.362 . S
C1634 C1637 1.409 . S
C1635 H1627 0.930 . S
C1635 C1636 1.355 . S
C1635 C1637 1.415 1_455 S
C1636 C1635 1.355 . S
C1636 C1638 1.419 1_556 S
C1637 C1632 1.425 1_656 S
C1637 C1634 1.409 . S
C1637 C1635 1.415 1_655 S
C1638 H1628 0.930 . S
C1638 C1636 1.419 1_554 S
C1638 C1639 1.362 . S
C1639 H1629 0.930 . S
C1639 C1632 1.409 . S
C1639 C1638 1.362 . S
H1640 C1646 0.930 . S
H1641 C1649 0.930 . S
H1642 C1650 0.930 . S
H1643 C1651 0.930 . S
H1644 C1654 0.930 . S
H1645 C1655 0.930 . S
C1646 H1640 0.930 . S
C1646 C1647 1.355 1_554 S
C1646 C1648 1.415 . S
C1647 C1646 1.355 1_556 S
C1647 C1649 1.419 . S
C1648 C1646 1.415 . S
C1648 C1653 1.425 1_554 S
C1648 C1655 1.409 . S
C1649 H1641 0.930 . S
C1649 C1647 1.419 . S
C1649 C1650 1.362 . S
C1650 H1642 0.930 . S
C1650 C1649 1.362 . S
C1650 C1653 1.409 . S
C1651 H1643 0.930 . S
C1651 C1652 1.355 1_556 S
C1651 C1653 1.415 . S
C1652 C1651 1.355 1_554 S
C1652 C1654 1.419 . S
C1653 C1648 1.425 1_556 S
C1653 C1650 1.409 . S
C1653 C1651 1.415 . S
C1654 H1644 0.930 . S
C1654 C1652 1.419 . S
C1654 C1655 1.362 . S
C1655 H1645 0.930 . S
C1655 C1648 1.409 . S
C1655 C1654 1.362 . S
C511 C9 1.403 . S
C516 C22 1.499 . S
C527 C23 1.339 . S
C532 C36 1.506 . S
C543 C8 1.498 . S
C548 C37 1.387 . S
C559 C51 1.382 . S
C564 C78 1.498 . S
C575 C65 1.343 . S
C580 C50 1.502 . S
C591 C64 1.498 . S
C596 C79 1.372 . S
C607 C93 1.357 . S
C612 C106 1.499 . S
C623 C120 1.520 . S
C628 C107 1.435 . S
C639 C92 1.521 . S
C644 C121 1.392 . S
C655 C162 1.521 . S
C660 C135 1.432 . S
C671 C149 1.428 . S
C676 C134 1.504 . S
C687 C163 1.366 . S
C692 C148 1.498 . S
C703 C190 1.520 . S
C708 C177 1.434 . S
C719 C191 1.339 . S
C724 C204 1.508 . S
C735 C205 1.370 . S
C740 C176 1.497 . S
C751 C219 1.340 . S
C756 C246 1.503 . S
C767 C233 1.441 . S
C772 C218 1.509 . S
C783 C247 1.343 . S
C788 C232 1.501 . S
C799 C274 1.502 . S
C804 C261 1.344 . S
C815 C275 1.388 . S
C820 C288 1.521 . S
C831 C260 1.522 . S
C836 C289 1.403 . S
C847 C330 1.522 . S
C852 C303 1.402 . S
C863 C317 1.415 . S
C868 C302 1.522 . S
C879 C316 1.502 . S
C884 C331 1.343 . S
C895 C358 1.506 . S
C900 C345 1.434 . S
C911 C359 1.445 . S
C916 C372 1.512 . S
C927 C373 1.445 . S
C932 C344 1.514 . S
C943 C414 1.500 . S
C948 C387 1.351 . S
C959 C401 1.437 . S
C964 C386 1.519 . S
C975 C400 1.522 . S
C980 C415 1.398 . S
C991 C429 1.422 . S
C996 C442 1.502 . S
C1007 C443 1.420 . S
C1012 C456 1.522 . S
C1023 C457 1.405 . S
C1028 C428 1.499 . S
C1039 C498 1.508 . S
C1044 C471 1.339 . S
C1055 C470 1.507 . S
C1060 C485 1.339 . S
C1071 C499 1.392 . S
C1076 C484 1.521 . S
C1087 C49 1.745 . S
C1092 C7 1.718 . S
C1103 C21 1.761 . S
C1108 C63 1.789 . S
C1119 C77 1.799 . S
C1124 C35 1.733 . S
C1135 C133 1.727 . S
C1140 C91 1.798 . S
C1151 C105 1.717 . S
C1156 C147 1.744 . S
C1167 C161 1.797 . S
C1172 C119 1.747 . S
C1183 C175 1.760 . S
C1188 C217 1.791 . S
C1199 C189 1.711 . S
C1204 C231 1.784 . S
C1215 C203 1.792 . S
C1220 C245 1.716 . S
C1231 C301 1.711 . S
C1236 C259 1.785 . S
C1247 C315 1.715 . S
C1252 C273 1.751 . S
C1263 C287 1.722 . S
C1268 C329 1.796 . S
C1279 C385 1.718 . S
C1284 C343 1.794 . S
C1295 C399 1.739 . S
C1300 C357 1.798 . S
C1311 C371 1.709 . S
C1316 C413 1.770 . S
C1327 C427 1.731 . S
C1332 C469 1.798 . S
C1343 C483 1.751 . S
C1348 C441 1.715 . S
C1359 C455 1.798 . S
C1364 C497 1.737 . S
C1375 C6 1.607 . S
C1380 C258 1.607 . S
C1391 C20 1.642 . S
C1396 C272 1.642 . S
C1407 C34 1.636 . S
C1412 C286 1.636 . S
C1423 C468 1.642 . S
C1428 C48 1.642 . S
C1439 C482 1.663 . S
C1444 C62 1.663 . S
C1455 C76 1.639 . S
C1460 C496 1.639 . S
C1471 C90 1.648 . S
C1476 C342 1.648 . S
C1487 C356 1.663 . S
C1492 C104 1.663 . S
C1503 C370 1.655 . S
C1508 C118 1.655 . S
C1519 C216 1.615 . S
C1524 C132 1.615 . S
C1535 C230 1.660 . S
C1540 C146 1.660 . S
C1551 C244 1.662 . S
C1556 C160 1.662 . S
C1567 C426 1.649 . S
C1572 C174 1.649 . S
C1583 C188 1.663 . S
C1588 C440 1.663 . S
C1599 C202 1.617 . S
C1604 C454 1.617 . S
C1615 C300 1.659 . S
C1620 C384 1.659 . S
C1631 C314 1.614 . S
C1636 C398 1.614 . S
C1647 C412 1.606 . S
C1652 C328 1.606 . S
