# Generated by pormake.
# Topology why, (6)-cn, num edge types: 1
# Building blocks:
#     Node 0, Type 0, BuildingBlock: KUMBUR_clean_sbu_1, # of connection points: 6
#     Node 1, Type 0, BuildingBlock: KUMBUR_clean_sbu_1, # of connection points: 6
#     Node 2, Type 0, BuildingBlock: KUMBUR_clean_sbu_1, # of connection points: 6
#     Node 3, Type 0, BuildingBlock: KUMBUR_clean_sbu_1, # of connection points: 6
#     Node 4, Type 0, BuildingBlock: KUMBUR_clean_sbu_1, # of connection points: 6
#     Node 5, Type 0, BuildingBlock: KUMBUR_clean_sbu_1, # of connection points: 6
#     Node 6, Type 0, BuildingBlock: KUMBUR_clean_sbu_1, # of connection points: 6
#     Node 7, Type 0, BuildingBlock: KUMBUR_clean_sbu_1, # of connection points: 6
#     Node 8, Type 0, BuildingBlock: KUMBUR_clean_sbu_1, # of connection points: 6
#     Node 9, Type 0, BuildingBlock: KUMBUR_clean_sbu_1, # of connection points: 6
#     Node 10, Type 0, BuildingBlock: KUMBUR_clean_sbu_1, # of connection points: 6
#     Node 11, Type 0, BuildingBlock: KUMBUR_clean_sbu_1, # of connection points: 6
#     Node 12, Type 0, BuildingBlock: KUMBUR_clean_sbu_1, # of connection points: 6
#     Node 13, Type 0, BuildingBlock: KUMBUR_clean_sbu_1, # of connection points: 6
#     Node 14, Type 0, BuildingBlock: KUMBUR_clean_sbu_1, # of connection points: 6
#     Node 15, Type 0, BuildingBlock: KUMBUR_clean_sbu_1, # of connection points: 6
#     Edge 16, Type (0, 0), BuildingBlock: MIFKUJ_clean_linker_0, # of connection points: 2
#     Edge 17, Type (0, 0), BuildingBlock: MIFKUJ_clean_linker_0, # of connection points: 2
#     Edge 18, Type (0, 0), BuildingBlock: MIFKUJ_clean_linker_0, # of connection points: 2
#     Edge 19, Type (0, 0), BuildingBlock: MIFKUJ_clean_linker_0, # of connection points: 2
#     Edge 20, Type (0, 0), BuildingBlock: MIFKUJ_clean_linker_0, # of connection points: 2
#     Edge 21, Type (0, 0), BuildingBlock: MIFKUJ_clean_linker_0, # of connection points: 2
#     Edge 22, Type (0, 0), BuildingBlock: MIFKUJ_clean_linker_0, # of connection points: 2
#     Edge 23, Type (0, 0), BuildingBlock: MIFKUJ_clean_linker_0, # of connection points: 2
#     Edge 24, Type (0, 0), BuildingBlock: MIFKUJ_clean_linker_0, # of connection points: 2
#     Edge 25, Type (0, 0), BuildingBlock: MIFKUJ_clean_linker_0, # of connection points: 2
#     Edge 26, Type (0, 0), BuildingBlock: MIFKUJ_clean_linker_0, # of connection points: 2
#     Edge 27, Type (0, 0), BuildingBlock: MIFKUJ_clean_linker_0, # of connection points: 2
#     Edge 28, Type (0, 0), BuildingBlock: MIFKUJ_clean_linker_0, # of connection points: 2
#     Edge 29, Type (0, 0), BuildingBlock: MIFKUJ_clean_linker_0, # of connection points: 2
#     Edge 30, Type (0, 0), BuildingBlock: MIFKUJ_clean_linker_0, # of connection points: 2
#     Edge 31, Type (0, 0), BuildingBlock: MIFKUJ_clean_linker_0, # of connection points: 2
#     Edge 32, Type (0, 0), BuildingBlock: MIFKUJ_clean_linker_0, # of connection points: 2
#     Edge 33, Type (0, 0), BuildingBlock: MIFKUJ_clean_linker_0, # of connection points: 2
#     Edge 34, Type (0, 0), BuildingBlock: MIFKUJ_clean_linker_0, # of connection points: 2
#     Edge 35, Type (0, 0), BuildingBlock: MIFKUJ_clean_linker_0, # of connection points: 2
#     Edge 36, Type (0, 0), BuildingBlock: MIFKUJ_clean_linker_0, # of connection points: 2
#     Edge 37, Type (0, 0), BuildingBlock: MIFKUJ_clean_linker_0, # of connection points: 2
#     Edge 38, Type (0, 0), BuildingBlock: MIFKUJ_clean_linker_0, # of connection points: 2
#     Edge 39, Type (0, 0), BuildingBlock: MIFKUJ_clean_linker_0, # of connection points: 2
#     Edge 40, Type (0, 0), BuildingBlock: MIFKUJ_clean_linker_0, # of connection points: 2
#     Edge 41, Type (0, 0), BuildingBlock: MIFKUJ_clean_linker_0, # of connection points: 2
#     Edge 42, Type (0, 0), BuildingBlock: MIFKUJ_clean_linker_0, # of connection points: 2
#     Edge 43, Type (0, 0), BuildingBlock: MIFKUJ_clean_linker_0, # of connection points: 2
#     Edge 44, Type (0, 0), BuildingBlock: MIFKUJ_clean_linker_0, # of connection points: 2
#     Edge 45, Type (0, 0), BuildingBlock: MIFKUJ_clean_linker_0, # of connection points: 2
#     Edge 46, Type (0, 0), BuildingBlock: MIFKUJ_clean_linker_0, # of connection points: 2
#     Edge 47, Type (0, 0), BuildingBlock: MIFKUJ_clean_linker_0, # of connection points: 2
#     Edge 48, Type (0, 0), BuildingBlock: MIFKUJ_clean_linker_0, # of connection points: 2
#     Edge 49, Type (0, 0), BuildingBlock: MIFKUJ_clean_linker_0, # of connection points: 2
#     Edge 50, Type (0, 0), BuildingBlock: MIFKUJ_clean_linker_0, # of connection points: 2
#     Edge 51, Type (0, 0), BuildingBlock: MIFKUJ_clean_linker_0, # of connection points: 2
#     Edge 52, Type (0, 0), BuildingBlock: MIFKUJ_clean_linker_0, # of connection points: 2
#     Edge 53, Type (0, 0), BuildingBlock: MIFKUJ_clean_linker_0, # of connection points: 2
#     Edge 54, Type (0, 0), BuildingBlock: MIFKUJ_clean_linker_0, # of connection points: 2
#     Edge 55, Type (0, 0), BuildingBlock: MIFKUJ_clean_linker_0, # of connection points: 2
#     Edge 56, Type (0, 0), BuildingBlock: MIFKUJ_clean_linker_0, # of connection points: 2
#     Edge 57, Type (0, 0), BuildingBlock: MIFKUJ_clean_linker_0, # of connection points: 2
#     Edge 58, Type (0, 0), BuildingBlock: MIFKUJ_clean_linker_0, # of connection points: 2
#     Edge 59, Type (0, 0), BuildingBlock: MIFKUJ_clean_linker_0, # of connection points: 2
#     Edge 60, Type (0, 0), BuildingBlock: MIFKUJ_clean_linker_0, # of connection points: 2
#     Edge 61, Type (0, 0), BuildingBlock: MIFKUJ_clean_linker_0, # of connection points: 2
#     Edge 62, Type (0, 0), BuildingBlock: MIFKUJ_clean_linker_0, # of connection points: 2
#     Edge 63, Type (0, 0), BuildingBlock: MIFKUJ_clean_linker_0, # of connection points: 2
# Relax obj value: 0.244
# Max RMSD: 0.207
# Mean RMSD: 0.207
data_MOF--net-why--node1-KUMBUR_clean_sbu_1--edge1-MIFKUJ_clean_linker_0
_symmetry_space_group_name_H-M    P1
_symmetry_Int_Tables_number       1
_symmetry_cell_setting            triclinic
loop_
_symmetry_equiv_pos_as_xyz
'x, y, z'
_cell_length_a     60.231546
_cell_length_b     59.922092
_cell_length_c     50.536359
_cell_angle_alpha  89.843003
_cell_angle_beta   90.0225
_cell_angle_gamma 90.476753
loop_
_atom_site_label
_atom_site_type_symbol
_atom_site_fract_x
_atom_site_fract_y
_atom_site_fract_z
_atom_type_partial_charge
Tb0 Tb 0.40718 0.20844 0.0813 0.0
C1 C 0.4255 0.12601 1.0077 0.0
N2 N 0.43386 0.13223 0.03158 0.0
C3 C 0.43627 0.09368 0.04442 0.0
C4 C 0.42013 0.10352 1.00231 0.0
C5 C 0.44133 0.11621 0.04872 0.0
C6 C 0.42486 0.08739 0.02153 0.0
C7 C 0.41859 0.1355 0.96174 0.0
C8 C 0.42521 0.14169 0.98748 0.0
C9 C 0.41097 0.11365 0.95703 0.0
C10 C 0.41183 0.09764 0.97727 0.0
Tb11 Tb 0.44023 0.16981 0.03642 0.0
N12 N 0.43335 0.1625 0.99261 0.0
C13 C 0.4209 0.15109 0.94126 0.0
C14 C 0.43709 0.17719 0.97229 0.0
C15 C 0.43069 0.17182 0.94648 0.0
H16 H 0.4506 0.12088 0.06623 0.0
H17 H 0.43367 0.18358 0.93057 0.0
H18 H 0.3965 0.26169 0.07084 0.0
H19 H 0.47911 0.17127 0.13085 0.0
H20 H 0.4455 0.19285 0.97563 0.0
H21 H 0.41616 0.14689 0.92119 0.0
H22 H 0.45075 0.17291 0.09659 0.0
H23 H 0.44126 0.0812 0.05871 0.0
H24 H 0.40548 0.10868 0.93748 0.0
H25 H 0.40715 0.08054 0.97295 0.0
H26 H 0.40483 0.29744 0.09347 0.0
H27 H 0.42113 0.06992 0.01814 0.0
H28 H 0.48484 0.20321 0.16096 0.0
N29 N 0.41709 0.24266 0.09636 0.0
C30 C 0.43142 0.24266 0.11712 0.0
C31 C 0.41237 0.28215 0.10032 0.0
C32 C 0.43656 0.26257 0.13062 0.0
C33 C 0.40776 0.26197 0.08751 0.0
C34 C 0.4266 0.28241 0.12219 0.0
N35 N 0.43785 0.20431 0.10849 0.0
C36 C 0.45176 0.18643 0.11023 0.0
C37 C 0.45896 0.22293 0.1429 0.0
C38 C 0.44221 0.22287 0.12337 0.0
C39 C 0.47172 0.20378 0.14629 0.0
C40 C 0.46849 0.1857 0.1294 0.0
H41 H 0.43015 0.29806 0.13206 0.0
H42 H 0.45558 0.27717 0.16262 0.0
H43 H 0.47562 0.2426 0.17302 0.0
O44 O 0.39119 0.21348 0.11764 0.0
O45 O 0.43654 0.22744 0.0661 0.0
O46 O 0.46019 0.19921 0.05327 0.0
O47 O 0.37614 0.22476 0.08186 0.0
O48 O 0.4071 0.17511 0.10021 0.0
O49 O 0.42416 0.15191 0.07024 0.0
O50 O 0.46615 0.15846 0.01266 0.0
O51 O 0.40569 0.17304 0.02098 0.0
O52 O 0.38443 0.18856 0.05446 0.0
O53 O 0.4708 0.16276 0.05477 0.0
O54 O 0.43557 0.20288 0.01931 0.0
O55 O 0.40523 0.21951 0.03983 0.0
C56 C 0.45674 0.22048 0.06025 0.0
C57 C 0.35269 0.21711 0.11867 0.0
C58 C 0.32517 0.22359 0.15317 0.0
C59 C 0.31407 0.20388 0.14565 0.0
C60 C 0.34142 0.19756 0.1112 0.0
C61 C 0.32206 0.19109 0.12459 0.0
C62 C 0.34438 0.23015 0.13936 0.0
C63 C 0.41346 0.15511 0.09271 0.0
C64 C 0.37427 0.22339 0.10737 0.0
C65 C 0.45184 0.26214 0.15156 0.0
C66 C 0.46313 0.24241 0.15758 0.0
C67 C 0.38619 0.17917 0.0306 0.0
C68 C 0.5017 0.17013 0.0263 0.0
C69 C 0.52952 0.18182 0.9939 0.0
C70 C 0.54109 0.19333 0.01382 0.0
C71 C 0.51395 0.18094 0.04623 0.0
C72 C 0.50992 0.17025 1.0003 0.0
C73 C 0.53342 0.19266 0.03992 0.0
C74 C 0.41898 0.21709 0.01966 0.0
C75 C 0.48039 0.15873 0.03204 0.0
H76 H 0.29925 0.19843 0.15603 0.0
H77 H 0.3478 0.18717 0.09548 0.0
H78 H 0.31342 0.17593 0.11892 0.0
H79 H 0.35345 0.24499 0.14548 0.0
H80 H 0.55624 0.20242 0.00928 0.0
H81 H 0.50841 0.18047 0.0666 0.0
H82 H 0.50084 0.16164 0.98479 0.0
H83 H 0.54259 0.20124 0.05531 0.0
Tb84 Tb 0.64457 0.66699 0.33078 0.0
C85 C 0.70994 0.67807 0.22937 0.0
N86 N 0.71192 0.67717 0.25602 0.0
C87 C 0.7451 0.65554 0.2516 0.0
C88 C 0.72508 0.66724 0.2126 0.0
C89 C 0.7297 0.66679 0.26734 0.0
C90 C 0.7426 0.65547 0.22411 0.0
C91 C 0.69212 0.69492 0.19157 0.0
C92 C 0.69375 0.6915 0.21908 0.0
C93 C 0.7062 0.68313 0.17451 0.0
C94 C 0.72268 0.66925 0.18503 0.0
Tb95 Tb 0.68449 0.6938 0.28021 0.0
N96 N 0.68098 0.70287 0.23633 0.0
C97 C 0.67719 0.71087 0.18223 0.0
C98 C 0.66759 0.7196 0.22745 0.0
C99 C 0.66518 0.7236 0.20031 0.0
H100 H 0.73185 0.66678 0.28852 0.0
H101 H 0.6542 0.73658 0.19343 0.0
H102 H 0.61457 0.62636 0.3037 0.0
H103 H 0.62488 0.71956 0.41398 0.0
H104 H 0.65857 0.72977 0.2413 0.0
H105 H 0.67557 0.71409 0.16123 0.0
H106 H 0.64966 0.69947 0.38331 0.0
H107 H 0.75889 0.64695 0.2607 0.0
H108 H 0.70504 0.68526 0.15325 0.0
H109 H 0.73395 0.66084 0.17175 0.0
H110 H 0.57489 0.61627 0.29933 0.0
H111 H 0.75462 0.64688 0.21196 0.0
H112 H 0.58407 0.71572 0.40948 0.0
N113 N 0.60853 0.65473 0.32776 0.0
C114 C 0.59327 0.66619 0.34179 0.0
C115 C 0.5798 0.6305 0.31118 0.0
C116 C 0.57047 0.66087 0.34037 0.0
C117 C 0.60227 0.63628 0.31364 0.0
C118 C 0.56377 0.64311 0.32422 0.0
N119 N 0.62313 0.68503 0.36125 0.0
C120 C 0.63189 0.69773 0.3812 0.0
C121 C 0.58608 0.69286 0.37646 0.0
C122 C 0.6009 0.68188 0.35942 0.0
C123 C 0.59487 0.70696 0.39595 0.0
C124 C 0.6179 0.70912 0.39858 0.0
H125 H 0.5464 0.63849 0.32251 0.0
H126 H 0.53771 0.66921 0.35492 0.0
H127 H 0.55142 0.69733 0.38661 0.0
O128 O 0.63791 0.64796 0.36467 0.0
O129 O 0.64293 0.70407 0.32912 0.0
O130 O 0.65357 0.71377 0.28698 0.0
O131 O 0.66732 0.64186 0.34142 0.0
O132 O 0.67416 0.68594 0.34572 0.0
O133 O 0.69879 0.67585 0.31472 0.0
O134 O 0.70984 0.71672 0.2713 0.0
O135 O 0.68576 0.65673 0.28019 0.0
O136 O 0.65168 0.64499 0.29593 0.0
O137 O 0.69084 0.71976 0.3074 0.0
O138 O 0.65142 0.68898 0.2631 0.0
O139 O 0.62838 0.66839 0.29155 0.0
C140 C 0.64087 0.71707 0.30808 0.0
C141 C 0.64924 0.61077 0.36256 0.0
C142 C 0.63128 0.58007 0.38684 0.0
C143 C 0.63681 0.56556 0.36608 0.0
C144 C 0.65448 0.59597 0.34204 0.0
C145 C 0.64828 0.57352 0.34388 0.0
C146 C 0.63771 0.60267 0.38491 0.0
C147 C 0.69484 0.68109 0.33951 0.0
C148 C 0.65467 0.63484 0.36084 0.0
C149 C 0.55535 0.67279 0.35598 0.0
C150 C 0.56316 0.68878 0.37404 0.0
C151 C 0.66929 0.64197 0.28055 0.0
C152 C 0.69835 0.75298 0.28314 0.0
C153 C 0.69067 0.78097 0.24884 0.0
C154 C 0.68274 0.79537 0.26856 0.0
C155 C 0.69053 0.76778 0.30241 0.0
C156 C 0.69877 0.75993 0.2564 0.0
C157 C 0.68285 0.78885 0.29512 0.0
C158 C 0.63266 0.67847 0.26879 0.0
C159 C 0.70422 0.72981 0.2907 0.0
H160 H 0.63191 0.54813 0.36676 0.0
H161 H 0.66316 0.60173 0.32452 0.0
H162 H 0.65217 0.56229 0.32788 0.0
H163 H 0.63375 0.61405 0.40084 0.0
H164 H 0.67664 0.81178 0.26348 0.0
H165 H 0.68997 0.76289 0.32306 0.0
H166 H 0.70464 0.74869 0.24122 0.0
H167 H 0.67672 0.80009 0.31011 0.0
Tb168 Tb 0.18737 0.89687 0.58068 0.0
C169 C 0.1742 0.96104 0.4771 0.0
N170 N 0.17753 0.963 0.50348 0.0
C171 C 0.20066 0.99525 0.49596 0.0
C172 C 0.18445 0.97565 0.45888 0.0
C173 C 0.1899 0.98038 0.51321 0.0
C174 C 0.19819 0.99269 0.46863 0.0
C175 C 0.15341 0.94363 0.44177 0.0
C176 C 0.15906 0.94537 0.46873 0.0
C177 C 0.16454 0.95713 0.42315 0.0
C178 C 0.18003 0.97318 0.43171 0.0
Tb179 Tb 0.16138 0.93624 0.5299 0.0
N180 N 0.14851 0.93312 0.48744 0.0
C181 C 0.13617 0.92905 0.43461 0.0
C182 C 0.1306 0.92016 0.48079 0.0
C183 C 0.12436 0.91767 0.45429 0.0
H184 H 0.19201 0.98245 0.53426 0.0
H185 H 0.11044 0.90701 0.44909 0.0
H186 H 0.22827 0.86681 0.55607 0.0
H187 H 0.1327 0.87669 0.66216 0.0
H188 H 0.1211 0.91159 0.49581 0.0
H189 H 0.13134 0.92702 0.41415 0.0
H190 H 0.15423 0.90174 0.63254 0.0
H191 H 0.21085 1.00867 0.50375 0.0
H192 H 0.1608 0.95577 0.40226 0.0
H193 H 0.18796 0.98402 0.41729 0.0
H194 H 0.23762 0.82687 0.55193 0.0
H195 H 0.20642 1.00428 0.45531 0.0
H196 H 0.13469 0.83572 0.6564 0.0
N197 N 0.19854 0.86059 0.57766 0.0
C198 C 0.186 0.8452 0.59059 0.0
C199 C 0.22291 0.83177 0.56268 0.0
C200 C 0.19088 0.82228 0.58934 0.0
C201 C 0.21754 0.85436 0.56499 0.0
C202 C 0.20928 0.8156 0.5745 0.0
N203 N 0.16748 0.87519 0.60974 0.0
C204 C 0.15511 0.88388 0.62989 0.0
C205 C 0.15803 0.83787 0.62388 0.0
C206 C 0.16983 0.85282 0.60744 0.0
C207 C 0.14402 0.84663 0.64329 0.0
C208 C 0.14293 0.86975 0.64668 0.0
H209 H 0.21362 0.79814 0.573 0.0
H210 H 0.18129 0.78928 0.60315 0.0
H211 H 0.15247 0.80298 0.63354 0.0
O212 O 0.21304 0.91859 0.59356 0.0
O213 O 0.15039 0.89462 0.57832 0.0
O214 O 0.14187 0.9044 0.5358 0.0
O215 O 0.2045 0.8887 0.61529 0.0
O216 O 0.17001 0.92717 0.59554 0.0
O217 O 0.18001 0.95132 0.56358 0.0
O218 O 0.13971 0.96279 0.52367 0.0
O219 O 0.1982 0.93684 0.52648 0.0
O220 O 0.21068 0.9046 0.54689 0.0
O221 O 0.1362 0.94157 0.5582 0.0
O222 O 0.16613 0.90332 0.51229 0.0
O223 O 0.18779 0.88162 0.54075 0.0
C224 C 0.13796 0.89186 0.55699 0.0
C225 C 0.24194 0.89925 0.61699 0.0
C226 C 0.26982 0.87925 0.64322 0.0
C227 C 0.28617 0.88631 0.62506 0.0
C228 C 0.25854 0.90596 0.59914 0.0
C229 C 0.28053 0.89953 0.60326 0.0
C230 C 0.24773 0.88599 0.639 0.0
C231 C 0.17503 0.94784 0.58862 0.0
C232 C 0.21838 0.90528 0.6131 0.0
C233 C 0.17801 0.80702 0.60408 0.0
C234 C 0.1616 0.81482 0.62137 0.0
C235 C 0.21339 0.92118 0.5295 0.0
C236 C 0.10325 0.95242 0.53586 0.0
C237 C 0.07438 0.94853 0.502 0.0
C238 C 0.05982 0.94009 0.52136 0.0
C239 C 0.08833 0.94412 0.55489 0.0
C240 C 0.09589 0.95515 0.50951 0.0
C241 C 0.06671 0.93812 0.54766 0.0
C242 C 0.17785 0.88534 0.51777 0.0
C243 C 0.12677 0.95655 0.54306 0.0
H244 H 0.30339 0.8818 0.6278 0.0
H245 H 0.25458 0.91605 0.58199 0.0
H246 H 0.29327 0.90481 0.58945 0.0
H247 H 0.23483 0.88048 0.65251 0.0
H248 H 1.04306 0.93511 0.51611 0.0
H249 H 0.09352 0.9419 0.57525 0.0
H250 H 0.10713 0.96146 0.49446 0.0
H251 H 0.05535 0.93161 0.56242 0.0
Tb252 Tb 0.95873 0.44892 0.83431 0.0
C253 C 0.87285 0.42486 0.76833 0.0
N254 N 0.88163 0.41666 0.7911 0.0
C255 C 0.84489 0.40911 0.80763 0.0
C256 C 0.84971 0.42749 0.76543 0.0
C257 C 0.86794 0.40692 0.80954 0.0
C258 C 0.83577 0.42018 0.7859 0.0
C259 C 0.87803 0.43482 0.72216 0.0
C260 C 0.88676 0.4279 0.74672 0.0
C261 C 0.85531 0.43957 0.71998 0.0
C262 C 0.84114 0.43577 0.74153 0.0
Tb263 Tb 0.91952 0.41363 0.79153 0.0
N264 N 0.90851 0.42225 0.74926 0.0
C265 C 0.89221 0.43591 0.70027 0.0
C266 C 0.92207 0.42196 0.72749 0.0
C267 C 0.91423 0.42921 0.70289 0.0
H268 H 0.87485 0.39807 0.82628 0.0
H269 H 0.92517 0.42964 0.68592 0.0
H270 H 1.01179 0.45912 0.82328 0.0
H271 H 0.92316 0.37743 0.88773 0.0
H272 H 0.93901 0.41643 0.72888 0.0
H273 H 0.88616 0.44128 0.6811 0.0
H274 H 0.92548 0.40362 0.85065 0.0
H275 H 0.83421 0.40229 0.82291 0.0
H276 H 0.84836 0.44517 0.70135 0.0
H277 H 0.82346 0.4383 0.73911 0.0
H278 H 1.04706 0.45406 0.84788 0.0
H279 H 0.81791 0.42176 0.78438 0.0
H280 H 0.95343 0.37601 0.92071 0.0
N281 N 0.99253 0.44127 0.85156 0.0
C282 C 0.99232 0.42878 0.87397 0.0
C283 C 1.03177 0.44691 0.85545 0.0
C284 C 1.01196 0.42518 0.88843 0.0
C285 C 1.01189 0.4497 0.84156 0.0
C286 C 1.03175 0.43491 0.87923 0.0
N287 N 0.95486 0.41992 0.86429 0.0
C288 C 0.93798 0.40454 0.86566 0.0
C289 C 0.97275 0.40202 0.90153 0.0
C290 C 0.97278 0.41762 0.88058 0.0
C291 C 0.9541 0.38827 0.90493 0.0
C292 C 0.93696 0.38906 0.8864 0.0
H293 H 1.04721 0.4326 0.88983 0.0
H294 H 1.02626 0.40842 0.92236 0.0
H295 H 0.99197 0.38794 0.9337 0.0
O296 O 0.96464 0.46995 0.86743 0.0
O297 O 0.97734 0.41826 0.82256 0.0
O298 O 0.94987 0.39468 0.80608 0.0
O299 O 0.97305 0.48051 0.82833 0.0
O300 O 0.92622 0.44846 0.85486 0.0
O301 O 0.90275 0.42956 0.82633 0.0
O302 O 0.90919 0.38738 0.76707 0.0
O303 O 0.92382 0.44755 0.77385 0.0
O304 O 0.93565 0.46926 0.80878 0.0
O305 O 0.91367 0.38237 0.8092 0.0
O306 O 0.95201 0.41771 0.77325 0.0
O307 O 0.96995 0.44818 0.7929 0.0
C308 C 0.9706 0.39808 0.81499 0.0
C309 C 0.9952 0.4957 0.86281 0.0
C310 C 1.01943 0.50885 0.89851 0.0
C311 C 1.0341 0.51778 0.87963 0.0
C312 C 1.0101 0.50518 0.84436 0.0
C313 C 1.02948 0.51585 0.85274 0.0
C314 C 1.00005 0.49756 0.8901 0.0
C315 C 0.90627 0.44092 0.84845 0.0
C316 C 0.9741 0.48542 0.85328 0.0
C317 C 1.01141 0.41119 0.91075 0.0
C318 C 0.99184 0.39958 0.91725 0.0
C319 C 0.92871 0.46738 0.78383 0.0
C320 C 0.92149 0.35185 0.78068 0.0
C321 C 0.93376 0.32402 0.74876 0.0
C322 C 0.94442 0.31239 0.76921 0.0
C323 C 0.93152 0.33954 0.80105 0.0
C324 C 0.92237 0.34374 0.75464 0.0
C325 C 0.94306 0.32007 0.79523 0.0
C326 C 0.96719 0.43365 0.77355 0.0
C327 C 0.9098 0.37287 0.78632 0.0
H328 H 1.04909 0.52645 0.88577 0.0
H329 H 1.00679 0.50442 0.82331 0.0
H330 H 1.04083 0.52294 0.83833 0.0
H331 H 0.9886 0.49086 0.90468 0.0
H332 H 0.95332 0.29715 0.76514 0.0
H333 H 0.93087 0.34515 0.8214 0.0
H334 H 0.91432 0.35285 0.7388 0.0
H335 H 0.95105 0.31107 0.81099 0.0
Tb336 Tb 0.66645 0.94125 0.98623 0.0
C337 C 0.69148 0.84971 0.92727 0.0
N338 N 0.70406 0.86549 0.93939 0.0
C339 C 0.72893 0.83723 0.95493 0.0
C340 C 0.69661 0.82687 0.92926 0.0
C341 C 0.72336 0.85971 0.95184 0.0
C342 C 0.71526 0.82069 0.94401 0.0
C343 C 0.66327 0.84138 0.8946 0.0
C344 C 0.67502 0.85681 0.9104 0.0
C345 C 0.66711 0.81844 0.89788 0.0
C346 C 0.68375 0.81118 0.91526 0.0
Tb347 Tb 0.6926 0.90165 0.93499 0.0
N348 N 0.67236 0.8791 0.90736 0.0
C349 C 0.64901 0.84957 0.87502 0.0
C350 C 0.65968 0.88721 0.88707 0.0
C351 C 0.64756 0.8726 0.87089 0.0
H352 H 0.73414 0.87244 0.96002 0.0
H353 H 0.63711 0.8791 0.85529 0.0
H354 H 0.69434 0.98899 0.97461 0.0
H355 H 0.62887 0.91092 0.07642 0.0
H356 H 0.65856 0.905 0.88379 0.0
H357 H 0.63972 0.83829 0.86238 0.0
H358 H 0.63269 0.91508 0.02793 0.0
H359 H 0.74385 0.83269 0.96554 0.0
H360 H 0.65801 0.80626 0.88625 0.0
H361 H 0.68722 0.79351 0.91677 0.0
H362 H 0.7155 1.01649 1.00054 0.0
H363 H 0.71979 0.80331 0.94607 0.0
H364 H 0.65282 0.93342 0.1063 0.0
N365 N 0.68398 0.96995 1.0082 0.0
C366 C 0.68382 0.96874 0.03499 0.0
C367 C 0.70674 1.00305 0.0105 0.0
C368 C 0.69571 0.98414 0.05068 0.0
C369 C 0.69463 0.98734 0.99582 0.0
C370 C 0.70755 1.00127 0.03804 0.0
N371 N 0.65889 0.93896 0.03049 0.0
C372 C 0.64317 0.92489 0.04084 0.0
C373 C 0.66915 0.95097 0.0743 0.0
C374 C 0.67088 0.95246 0.04657 0.0
C375 C 0.65435 0.93532 0.08509 0.0
C376 C 0.6409 0.92257 0.06828 0.0
H377 H 0.71693 1.01345 0.04935 0.0
H378 H 0.70429 0.9936 0.09082 0.0
H379 H 0.68086 0.96449 0.11159 0.0
O380 O 0.64219 0.96426 0.9974 0.0
O381 O 0.70315 0.94161 0.99037 0.0
O382 O 0.71636 0.9105 0.96812 0.0
O383 O 0.64067 0.94793 0.95923 0.0
O384 O 0.67099 0.90773 1.00256 0.0
O385 O 0.69412 0.88693 0.97514 0.0
O386 O 0.71839 0.9225 0.92022 0.0
O387 O 0.65552 0.89938 0.93836 0.0
O388 O 0.64708 0.90945 0.98092 0.0
O389 O 0.70864 0.89237 0.90006 0.0
O390 O 0.67482 0.93148 0.91913 0.0
O391 O 0.68263 0.95681 0.95084 0.0
C392 C 0.7187 0.92648 0.98633 0.0
C393 C 0.60675 0.95179 0.9829 0.0
C394 C 0.57715 0.94242 0.01466 0.0
C395 C 0.56421 0.93427 0.99355 0.0
C396 C 0.59333 0.94363 0.96231 0.0
C397 C 0.57224 0.93495 0.96765 0.0
C398 C 0.59839 0.95138 0.00908 0.0
C399 C 0.68349 0.89024 0.99764 0.0
C400 C 0.62979 0.95939 0.97701 0.0
C401 C 0.69503 0.98212 0.07839 0.0
C402 C 0.68174 0.96553 0.0902 0.0
C403 C 0.64301 0.89698 0.95979 0.0
C404 C 0.74626 0.90167 0.8966 0.0
C405 C 0.77307 0.88007 0.87052 0.0
C406 C 0.78972 0.88624 0.8887 0.0
C407 C 0.76324 0.90751 0.91434 0.0
C408 C 0.75136 0.8881 0.87458 0.0
C409 C 0.78482 0.89987 0.91031 0.0
C410 C 0.67829 0.95251 0.92577 0.0
C411 C 0.72296 0.90859 0.90104 0.0
H412 H 0.5477 0.92758 0.99698 0.0
H413 H 0.59927 0.9437 0.94208 0.0
H414 H 0.56208 0.9286 0.95162 0.0
H415 H 0.60857 0.95745 0.02524 0.0
H416 H 0.80665 0.88071 0.88608 0.0
H417 H 0.75985 0.91783 0.9314 0.0
H418 H 0.73824 0.88331 0.861 0.0
H419 H 0.79783 0.90446 0.92409 0.0
Tb420 Tb 0.42025 0.41779 0.72545 0.0
C421 C 0.4943 0.43711 0.64189 0.0
N422 N 0.49238 0.44194 0.66806 0.0
C423 C 0.53127 0.43528 0.67437 0.0
C424 C 0.51477 0.43037 0.63112 0.0
C425 C 0.5106 0.44172 0.68421 0.0
C426 C 0.53335 0.42944 0.64775 0.0
C427 C 0.47733 0.4349 0.5985 0.0
C428 C 0.47575 0.43948 0.62583 0.0
C429 C 0.4974 0.42711 0.58793 0.0
C430 C 0.51611 0.42499 0.60417 0.0
Tb431 Tb 0.45898 0.45558 0.68116 0.0
N432 N 0.45683 0.44796 0.63653 0.0
C433 C 0.45907 0.43933 0.58231 0.0
C434 C 0.44006 0.45466 0.62007 0.0
C435 C 0.44052 0.44967 0.59308 0.0
H436 H 0.5093 0.44677 0.70463 0.0
H437 H 0.42688 0.45454 0.58042 0.0
H438 H 0.37429 0.41709 0.68807 0.0
H439 H 0.42722 0.4399 0.82894 0.0
H440 H 0.42664 0.46477 0.62716 0.0
H441 H 0.4596 0.436 0.56126 0.0
H442 H 0.43834 0.42097 0.7876 0.0
H443 H 0.54561 0.43498 0.68727 0.0
H444 H 0.49882 0.42339 0.56703 0.0
H445 H 0.53162 0.41952 0.5956 0.0
H446 H 0.33987 0.43868 0.6843 0.0
H447 H 0.54938 0.42444 0.6402 0.0
H448 H 0.39305 0.46224 0.8303 0.0
N449 N 0.38631 0.43495 0.72148 0.0
C450 C 0.37934 0.44644 0.74311 0.0
C451 C 0.35113 0.44165 0.70058 0.0
C452 C 0.35893 0.45786 0.74313 0.0
C453 C 0.37127 0.43025 0.70202 0.0
C454 C 0.34526 0.45616 0.72087 0.0
N455 N 0.41079 0.43311 0.76552 0.0
C456 C 0.42322 0.43057 0.78804 0.0
C457 C 0.38475 0.45597 0.7893 0.0
C458 C 0.39167 0.44503 0.76611 0.0
C459 C 0.3977 0.45393 0.81214 0.0
C460 C 0.41693 0.44109 0.81153 0.0
H461 H 0.32945 0.46464 0.72003 0.0
H462 H 0.33682 0.47859 0.76611 0.0
H463 H 0.3597 0.47728 0.80645 0.0
O464 O 0.41549 0.3939 0.75537 0.0
O465 O 0.42932 0.45195 0.74059 0.0
O466 O 0.43378 0.47446 0.70444 0.0
O467 O 0.39867 0.39055 0.71838 0.0
O468 O 0.45441 0.41753 0.73928 0.0
O469 O 0.47089 0.44995 0.72197 0.0
O470 O 0.46664 0.48262 0.65569 0.0
O471 O 0.4698 0.41912 0.6821 0.0
O472 O 0.44822 0.39703 0.7103 0.0
O473 O 0.47767 0.4826 0.69587 0.0
O474 O 0.42283 0.45444 0.67153 0.0
O475 O 0.41513 0.4184 0.68174 0.0
C476 C 0.43014 0.47219 0.73014 0.0
C477 C 0.40905 0.35751 0.74104 0.0
C478 C 0.41462 0.32374 0.76713 0.0
C479 C 0.42082 0.3124 0.74396 0.0
C480 C 0.41534 0.34607 0.71806 0.0
C481 C 0.42121 0.32357 0.71961 0.0
C482 C 0.40894 0.34634 0.76534 0.0
C483 C 0.47017 0.43288 0.73858 0.0
C484 C 0.40307 0.3812 0.74093 0.0
C485 C 0.35228 0.46948 0.76587 0.0
C486 C 0.3652 0.46857 0.7889 0.0
C487 C 0.46535 0.39951 0.69384 0.0
C488 C 0.50286 0.49705 0.66389 0.0
C489 C 0.52989 0.50484 0.62869 0.0
C490 C 0.54701 0.50403 0.64755 0.0
C491 C 0.52037 0.49691 0.68235 0.0
C492 C 0.50775 0.50143 0.637 0.0
C493 C 0.54224 0.50023 0.67415 0.0
C494 C 0.4112 0.4361 0.66698 0.0
C495 C 0.47982 0.49195 0.67275 0.0
H496 H 0.42513 0.2949 0.74458 0.0
H497 H 0.41585 0.35447 0.69906 0.0
H498 H 0.42605 0.31476 0.70188 0.0
H499 H 0.40477 0.35559 0.78304 0.0
H500 H 0.56414 0.50681 0.64176 0.0
H501 H 0.51726 0.49387 0.70316 0.0
H502 H 0.49448 0.50179 0.62252 0.0
H503 H 0.55556 0.49985 0.68852 0.0
Tb504 Tb 0.93678 0.17295 0.48543 0.0
C505 C 0.90731 0.26225 0.41905 0.0
N506 N 0.89673 0.24667 0.434 0.0
C507 C 0.8703 0.27406 0.44783 0.0
C508 C 0.90021 0.28459 0.41837 0.0
C509 C 0.87782 0.25203 0.44744 0.0
C510 C 0.88173 0.2905 0.43352 0.0
C511 C 0.93417 0.27014 0.38467 0.0
C512 C 0.92396 0.25518 0.40255 0.0
C513 C 0.92813 0.29274 0.38489 0.0
C514 C 0.91114 0.29997 0.40173 0.0
Tb515 Tb 0.91082 0.21133 0.4332 0.0
N516 N 0.92865 0.23312 0.40239 0.0
C517 C 0.94935 0.2617 0.36635 0.0
C518 C 0.94233 0.22455 0.3834 0.0
C519 C 0.95318 0.23874 0.36545 0.0
H520 H 0.86862 0.23938 0.45811 0.0
H521 H 0.96442 0.23195 0.3509 0.0
H522 H 0.90838 0.12569 0.48046 0.0
H523 H 0.98041 0.20824 0.56928 0.0
H524 H 0.94524 0.2068 0.38252 0.0
H525 H 0.9576 0.27262 0.35227 0.0
H526 H 0.97197 0.20275 0.52215 0.0
H527 H 0.85558 0.27829 0.45895 0.0
H528 H 0.93591 0.30458 0.37147 0.0
H529 H 0.90605 0.31726 0.40104 0.0
H530 H 0.89029 0.09842 0.51029 0.0
H531 H 0.87571 0.30749 0.43356 0.0
H532 H 0.96087 0.18561 0.60318 0.0
N533 N 0.92067 0.14609 0.5117 0.0
C534 C 0.923 0.14838 0.5382 0.0
C535 C 0.89938 0.11246 0.51844 0.0
C536 C 0.91342 0.13296 0.55603 0.0
C537 C 0.90965 0.12798 0.50158 0.0
C538 C 0.90106 0.11509 0.54582 0.0
N539 N 0.94664 0.1784 0.52893 0.0
C540 C 0.96285 0.19317 0.53661 0.0
C541 C 0.94126 0.16734 0.57442 0.0
C542 C 0.93657 0.16523 0.54719 0.0
C543 C 0.95677 0.18345 0.58246 0.0
C544 C 0.96785 0.19622 0.5634 0.0
H545 H 0.89332 0.10293 0.55885 0.0
H546 H 0.91028 0.12363 0.59735 0.0
H547 H 0.9344 0.154 0.61352 0.0
O548 O 0.95873 0.14712 0.49424 0.0
O549 O 0.89986 0.17059 0.48415 0.0
O550 O 0.88866 0.2047 0.46836 0.0
O551 O 0.96319 0.16714 0.45892 0.0
O552 O 0.93087 0.20621 0.50134 0.0
O553 O 0.91247 0.22938 0.47113 0.0
O554 O 0.88511 0.18827 0.42408 0.0
O555 O 0.94769 0.21459 0.43532 0.0
O556 O 0.95706 0.20407 0.47759 0.0
O557 O 0.8939 0.21519 0.3975 0.0
O558 O 0.92989 0.18172 0.41974 0.0
O559 O 0.91967 0.15721 0.45125 0.0
C560 C 0.88534 0.18705 0.48392 0.0
C561 C 0.99535 0.15838 0.48393 0.0
C562 C 1.02234 0.1655 0.51939 0.0
C563 C 1.03807 0.17177 0.50012 0.0
C564 C 1.01137 0.16465 0.46514 0.0
C565 C 1.03261 0.17125 0.47324 0.0
C566 C 1.0011 0.1586 0.51101 0.0
C567 C 0.9214 0.22513 0.49449 0.0
C568 C 0.97236 0.1531 0.47544 0.0
C569 C 0.91727 0.1354 0.5833 0.0
C570 C 0.93109 0.15265 0.59251 0.0
C571 C 0.96071 0.21665 0.45629 0.0
C572 C 0.85625 0.20593 0.39879 0.0
C573 C 0.82907 0.22658 0.37235 0.0
C574 C 0.81291 0.22193 0.39171 0.0
C575 C 0.83983 0.20147 0.41783 0.0
C576 C 0.85062 0.21822 0.37596 0.0
C577 C 0.81825 0.20935 0.41415 0.0
C578 C 0.92502 0.16097 0.4264 0.0
C579 C 0.87965 0.19941 0.40273 0.0
H580 H 0.0547 0.17684 0.50578 0.0
H581 H 1.00737 0.16472 0.44424 0.0
H582 H 1.04486 0.17611 0.45861 0.0
H583 H 0.98883 0.15403 0.52575 0.0
H584 H 0.79611 0.22795 0.38945 0.0
H585 H 0.84368 0.19221 0.43567 0.0
H586 H 0.86336 0.22203 0.36144 0.0
H587 H 0.80567 0.20591 0.42894 0.0
Tb588 Tb 0.18454 0.69055 0.23944 0.0
C589 C 0.09344 0.66493 0.17838 0.0
N590 N 0.10846 0.6528 0.19204 0.0
C591 C 0.07935 0.62867 0.20788 0.0
C592 C 0.07056 0.65998 0.17961 0.0
C593 C 0.10191 0.63411 0.20561 0.0
C594 C 0.06354 0.64191 0.19521 0.0
C595 C 0.08682 0.69229 0.14411 0.0
C596 C 0.1014 0.68079 0.16103 0.0
C597 C 0.06382 0.68865 0.14647 0.0
C598 C 0.05569 0.6725 0.16424 0.0
Tb599 Tb 0.14468 0.66426 0.18923 0.0
N600 N 0.1237 0.68322 0.15896 0.0
C601 C 0.0959 0.70617 0.12451 0.0
C602 C 0.13269 0.6955 0.13872 0.0
C603 C 0.11895 0.70742 0.12147 0.0
H604 H 0.11408 0.6237 0.21523 0.0
H605 H 0.12614 0.71757 0.10589 0.0
H606 H 0.23086 0.66131 0.23352 0.0
H607 H 0.15564 0.73789 0.32317 0.0
H608 H 0.15049 0.69654 0.1363 0.0
H609 H 0.08529 0.7153 0.11105 0.0
H610 H 0.15981 0.72884 0.27584 0.0
H611 H 0.07418 0.61421 0.21927 0.0
H612 H 0.05228 0.69755 0.13392 0.0
H613 H 1.03799 0.66918 0.16513 0.0
H614 H 0.25671 0.64126 0.26285 0.0
H615 H 1.0461 0.63752 0.19672 0.0
H616 H 0.17584 0.71597 0.35696 0.0
N617 N 0.21103 0.6736 0.26505 0.0
C618 C 0.2089 0.67555 0.29159 0.0
C619 C 0.24323 0.65075 0.27123 0.0
C620 C 0.22341 0.66469 0.30919 0.0
C621 C 0.22853 0.66216 0.25465 0.0
C622 C 0.24044 0.65171 0.29865 0.0
N623 N 0.18125 0.70138 0.28272 0.0
C624 C 0.16844 0.71894 0.29039 0.0
C625 C 0.19176 0.69479 0.32808 0.0
C626 C 0.19335 0.69015 0.30083 0.0
C627 C 0.17751 0.71178 0.33622 0.0
C628 C 0.16612 0.7242 0.31721 0.0
H629 H 0.25195 0.64303 0.31146 0.0
H630 H 0.2318 0.65959 0.3505 0.0
H631 H 0.20405 0.68615 0.36709 0.0
O632 O 0.21077 0.71282 0.24669 0.0
O633 O 0.18608 0.65344 0.23797 0.0
O634 O 0.15135 0.6424 0.2244 0.0
O635 O 0.19037 0.71633 0.2117 0.0
O636 O 0.15187 0.68525 0.25777 0.0
O637 O 0.1288 0.66523 0.22889 0.0
O638 O 0.13714 0.64483 0.15598 0.0
O639 O 0.14354 0.70136 0.19055 0.0
O640 O 0.15321 0.7102 0.23301 0.0
O641 O 0.16708 0.63896 0.17837 0.0
O642 O 0.17476 0.68218 0.17361 0.0
O643 O 0.19926 0.67261 0.20519 0.0
C644 C 0.16934 0.63907 0.23898 0.0
C645 C 0.20107 0.74948 0.23408 0.0
C646 C 0.19534 0.77854 0.26741 0.0
C647 C 0.18983 0.79354 0.24703 0.0
C648 C 0.19563 0.76481 0.21413 0.0
C649 C 0.19017 0.78673 0.22061 0.0
C650 C 0.20137 0.75666 0.26067 0.0
C651 C 0.1331 0.6747 0.25205 0.0
C652 C 0.20507 0.72584 0.22717 0.0
C653 C 0.221 0.66797 0.33657 0.0
C654 C 0.20519 0.68307 0.34602 0.0
C655 C 0.14086 0.71396 0.21171 0.0
C656 C 0.14824 0.60759 0.1591 0.0
C657 C 0.12939 0.57646 0.13663 0.0
C658 C 0.13443 0.56271 0.15844 0.0
C659 C 0.15306 0.59349 0.18052 0.0
C660 C 0.13668 0.5989 0.13714 0.0
C661 C 0.14631 0.57116 0.18003 0.0
C662 C 0.19545 0.67756 0.18019 0.0
C663 C 0.1539 0.63165 0.15965 0.0
H664 H 0.1854 0.8106 0.2515 0.0
H665 H 0.19532 0.75974 0.19357 0.0
H666 H 0.18591 0.79844 0.2051 0.0
H667 H 0.20555 0.74504 0.2763 0.0
H668 H 0.12887 0.54549 0.15912 0.0
H669 H 0.16181 0.5997 0.19775 0.0
H670 H 0.13331 0.60979 0.12049 0.0
H671 H 0.1501 0.56041 0.19662 0.0
Tb672 Tb 0.9106 0.71243 0.58169 0.0
C673 C 0.92294 0.64396 0.48031 0.0
N674 N 0.92034 0.6427 0.50688 0.0
C675 C 0.89895 0.60896 0.5019 0.0
C676 C 0.91332 0.628 0.46328 0.0
C677 C 0.90904 0.62513 0.51793 0.0
C678 C 0.90088 0.61053 0.47441 0.0
C679 C 0.94121 0.66174 0.44317 0.0
C680 C 0.93648 0.66055 0.47046 0.0
C681 C 0.93097 0.64651 0.42583 0.0
C682 C 0.91699 0.62967 0.43588 0.0
Tb683 Tb 0.93548 0.67105 0.53142 0.0
N684 N 0.94624 0.67457 0.48798 0.0
C685 C 0.95666 0.67764 0.43434 0.0
C686 C 0.9622 0.68939 0.47957 0.0
C687 C 0.96744 0.69132 0.4527 0.0
H688 H 0.90739 0.62377 0.5391 0.0
H689 H 0.97991 0.70324 0.44626 0.0
H690 H 0.86995 0.74232 0.55551 0.0
H691 H 0.96874 0.73734 0.65772 0.0
H692 H 0.97102 0.69982 0.49345 0.0
H693 H 0.96087 0.67902 0.41355 0.0
H694 H 0.94463 0.7108 0.63313 0.0
H695 H 0.88969 0.59531 0.51076 0.0
H696 H 0.93421 0.64725 0.40476 0.0
H697 H 0.90961 0.61769 0.4224 0.0
H698 H 0.86284 0.78214 0.5457 0.0
H699 H 0.89317 0.59792 0.46203 0.0
H700 H 0.96943 0.77734 0.64522 0.0
N701 N 0.90107 0.74876 0.57402 0.0
C702 C 0.91512 0.76448 0.58376 0.0
C703 C 0.87773 0.77739 0.55623 0.0
C704 C 0.91161 0.78737 0.57915 0.0
C705 C 0.88177 0.75489 0.56181 0.0
C706 C 0.89296 0.79368 0.56446 0.0
N707 N 0.93253 0.73554 0.60668 0.0
C708 C 0.94486 0.72828 0.6277 0.0
C709 C 0.94485 0.77333 0.61425 0.0
C710 C 0.93151 0.75759 0.60088 0.0
C711 C 0.95892 0.76579 0.63439 0.0
C712 C 0.95849 0.74323 0.6416 0.0
H713 H 0.88966 0.81111 0.56042 0.0
H714 H 0.92391 0.82082 0.587 0.0
H715 H 0.95305 0.8085 0.61789 0.0
O716 O 0.88383 0.69416 0.59838 0.0
O717 O 0.94742 0.71079 0.57897 0.0
O718 O 0.95394 0.7036 0.53574 0.0
O719 O 0.89568 0.72456 0.61621 0.0
O720 O 0.92636 0.68156 0.5982 0.0
O721 O 0.91756 0.65661 0.5662 0.0
O722 O 0.95837 0.64556 0.52503 0.0
O723 O 0.89864 0.66882 0.53245 0.0
O724 O 0.88658 0.70245 0.54953 0.0
O725 O 0.96144 0.66727 0.55911 0.0
O726 O 0.92685 0.70172 0.51112 0.0
O727 O 0.91044 0.72651 0.54084 0.0
C728 C 0.95878 0.71517 0.55724 0.0
C729 C 0.85755 0.71763 0.62073 0.0
C730 C 0.83159 0.74019 0.6469 0.0
C731 C 0.81492 0.73529 0.62821 0.0
C732 C 0.84058 0.71323 0.6024 0.0
C733 C 0.81941 0.72195 0.60623 0.0
C734 C 0.8529 0.73105 0.64302 0.0
C735 C 0.92209 0.66066 0.5913 0.0
C736 C 0.88038 0.70923 0.6166 0.0
C737 C 0.92609 0.80314 0.59059 0.0
C738 C 0.9427 0.79612 0.60818 0.0
C739 C 0.88367 0.68489 0.53371 0.0
C740 C 0.99451 0.65808 0.53609 0.0
C741 C 1.02249 0.66528 0.50171 0.0
C742 C 1.03764 0.67156 0.52159 0.0
C743 C 1.01 0.6643 0.55547 0.0
C744 C 1.00105 0.65818 0.50923 0.0
C745 C 1.03146 0.67083 0.54823 0.0
C746 C 0.91703 0.72064 0.51682 0.0
C747 C 0.97135 0.65273 0.54392 0.0
H748 H 0.79825 0.74161 0.63067 0.0
H749 H 0.84367 0.70317 0.58503 0.0
H750 H 0.8064 0.71841 0.59204 0.0
H751 H 0.86608 0.73479 0.65697 0.0
H752 H 0.05439 0.67675 0.51657 0.0
H753 H 1.00543 0.66429 0.57621 0.0
H754 H 0.98933 0.65332 0.49402 0.0
H755 H 1.04331 0.67542 0.56337 0.0
Tb756 Tb 0.1424 0.16571 0.83015 0.0
C757 C 0.20824 0.17492 0.72736 0.0
N758 N 0.21012 0.17396 0.75401 0.0
C759 C 0.243 0.15181 0.74958 0.0
C760 C 0.22322 0.16385 0.7106 0.0
C761 C 0.22776 0.1633 0.76528 0.0
C762 C 0.24052 0.15178 0.7221 0.0
C763 C 0.19061 0.19189 0.68952 0.0
C764 C 0.19231 0.18859 0.71707 0.0
C765 C 0.20462 0.18001 0.67247 0.0
C766 C 0.22093 0.16596 0.68302 0.0
Tb767 Tb 0.18278 0.19088 0.77835 0.0
N768 N 0.17968 0.20009 0.73435 0.0
C769 C 0.17548 0.2076 0.6801 0.0
C770 C 0.166 0.21654 0.72534 0.0
C771 C 0.16329 0.22015 0.69813 0.0
H772 H 0.22988 0.16312 0.78643 0.0
H773 H 0.15187 0.2327 0.69109 0.0
H774 H 0.11046 0.12461 0.80819 0.0
H775 H 0.12185 0.22739 0.90405 0.0
H776 H 0.15675 0.22661 0.73909 0.0
H777 H 0.17359 0.21064 0.65908 0.0
H778 H 0.14649 0.20108 0.88058 0.0
H779 H 0.25663 0.14298 0.75869 0.0
H780 H 0.20346 0.18212 0.65122 0.0
H781 H 0.23211 0.15741 0.66975 0.0
H782 H 0.0703 0.11802 0.80033 0.0
H783 H 0.2524 0.143 0.70996 0.0
H784 H 0.08195 0.22913 0.89237 0.0
N785 N 0.10571 0.15674 0.82489 0.0
C786 C 0.0909 0.17165 0.83419 0.0
C787 C 0.07589 0.13329 0.80968 0.0
C788 C 0.06791 0.1686 0.83053 0.0
C789 C 0.09855 0.13702 0.81419 0.0
C790 C 0.06051 0.1494 0.81736 0.0
N791 N 0.12091 0.18895 0.85524 0.0
C792 C 0.12907 0.20175 0.87549 0.0
C793 C 0.08411 0.20299 0.863 0.0
C794 C 0.09885 0.18851 0.85009 0.0
C795 C 0.09269 0.21769 0.88198 0.0
C796 C 0.11519 0.21667 0.88873 0.0
H797 H 1.04296 0.14638 0.8141 0.0
H798 H 1.03539 0.18232 0.8385 0.0
H799 H 1.04963 0.21255 0.86702 0.0
O800 O 0.16102 0.13921 0.84634 0.0
O801 O 0.14523 0.20279 0.82691 0.0
O802 O 0.15121 0.21018 0.78357 0.0
O803 O 0.13085 0.15026 0.86483 0.0
O804 O 0.17358 0.18131 0.84574 0.0
O805 O 0.1976 0.17283 0.81289 0.0
O806 O 0.20761 0.21455 0.77017 0.0
O807 O 0.18438 0.15383 0.78003 0.0
O808 O 0.15058 0.14203 0.79676 0.0
O809 O 0.18901 0.21592 0.80677 0.0
O810 O 0.14967 0.1855 0.76117 0.0
O811 O 0.12801 0.16383 0.7899 0.0
C812 C 0.14029 0.21455 0.80563 0.0
C813 C 0.13825 0.11211 0.86893 0.0
C814 C 0.11731 0.08512 0.89609 0.0
C815 C 0.12153 0.06869 0.87693 0.0
C816 C 0.14206 0.0954 0.85011 0.0
C817 C 0.13378 0.07383 0.8542 0.0
C818 C 0.12585 0.10686 0.89187 0.0
C819 C 0.19408 0.17689 0.83823 0.0
C820 C 0.14627 0.13529 0.86482 0.0
C821 C 0.05313 0.18412 0.84144 0.0
C822 C 0.06125 0.20133 0.85767 0.0
C823 C 0.16805 0.13895 0.78098 0.0
C824 C 0.19873 0.25044 0.78645 0.0
C825 C 0.19272 0.28222 0.7566 0.0
C826 C 0.1916 0.29631 0.77876 0.0
C827 C 0.19725 0.26485 0.80818 0.0
C828 C 0.19643 0.25927 0.76068 0.0
C829 C 0.19371 0.28763 0.80431 0.0
C830 C 0.13165 0.17368 0.76684 0.0
C831 C 0.20283 0.22639 0.791 0.0
H832 H 0.11499 1.05191 0.87924 0.0
H833 H 0.15127 0.09901 0.83217 0.0
H834 H 0.13672 0.06105 0.83954 0.0
H835 H 0.12293 0.11973 0.90645 0.0
H836 H 0.18878 0.31402 0.77637 0.0
H837 H 0.19892 0.25848 0.82817 0.0
H838 H 0.19792 0.2484 0.74371 0.0
H839 H 0.1926 0.29864 0.8212 0.0
Tb840 Tb 0.69422 0.39508 0.08961 0.0
C841 C 0.69787 0.4672 1.00538 0.0
N842 N 0.68759 0.46556 0.02926 0.0
C843 C 0.70064 0.50222 0.04064 0.0
C844 C 0.71097 0.48601 0.99878 0.0
C845 C 0.68799 0.48314 0.04635 0.0
C846 C 0.71246 0.50355 0.01693 0.0
C847 C 0.70599 0.45069 0.96286 0.0
C848 C 0.69524 0.44984 0.98766 0.0
C849 C 0.7195 0.46912 0.95639 0.0
C850 C 0.72186 0.48682 0.97423 0.0
Tb851 Tb 0.66702 0.43393 0.03653 0.0
N852 N 0.68199 0.43226 0.99463 0.0
C853 C 0.70307 0.43285 0.94544 0.0
C854 C 0.67783 0.41563 0.97672 0.0
C855 C 0.68906 0.41522 0.95251 0.0
H856 H 0.67841 0.48262 0.06422 0.0
H857 H 0.68703 0.40121 0.93936 0.0
H858 H 0.70977 0.347 0.06068 0.0
H859 H 0.64371 0.41163 0.17561 0.0
H860 H 0.66591 0.40254 0.98075 0.0
H861 H 0.71149 0.43256 0.9265 0.0
H862 H 0.66734 0.42167 0.13776 0.0
H863 H 0.70108 0.51597 0.05441 0.0
H864 H 0.72803 0.46995 0.93753 0.0
H865 H 0.73201 0.50111 0.96878 0.0
H866 H 0.70166 0.30708 0.06632 0.0
H867 H 0.72228 0.51835 0.01258 0.0
H868 H 0.63446 0.37204 0.18451 0.0
N869 N 0.68845 0.35725 0.09212 0.0
C870 C 0.67547 0.35036 0.11269 0.0
C871 C 0.69401 0.3191 0.07933 0.0
C872 C 0.67107 0.32749 0.11713 0.0
C873 C 0.69818 0.34191 0.07586 0.0
C874 C 0.68032 0.31186 0.09995 0.0
N875 N 0.67043 0.38833 0.12397 0.0
C876 C 0.66303 0.40444 0.1408 0.0
C877 C 0.65327 0.35982 0.15114 0.0
C878 C 0.66661 0.36634 0.12949 0.0
C879 C 0.64474 0.37637 0.16765 0.0
C880 C 0.64981 0.39875 0.16258 0.0
H881 H 0.67726 0.29415 0.10266 0.0
H882 H 0.65405 0.30348 0.14225 0.0
H883 H 0.63855 0.33174 0.17204 0.0
O884 O 0.71848 0.40985 0.11452 0.0
O885 O 0.6566 0.3921 0.08726 0.0
O886 O 0.6455 0.40414 0.0458 0.0
O887 O 0.71601 0.37432 0.1105 0.0
O888 O 0.69309 0.43136 0.09961 0.0
O889 O 0.66246 0.44483 0.07811 0.0
O890 O 0.64727 0.44574 1.00531 0.0
O891 O 0.70338 0.43753 0.04559 0.0
O892 O 0.71645 0.40284 0.0552 0.0
O893 O 0.63891 0.45306 0.04563 0.0
O894 O 0.66766 0.39844 0.0267 0.0
O895 O 0.69761 0.38303 0.04878 0.0
C896 C 0.64211 0.39163 0.06728 0.0
C897 C 0.75027 0.3879 0.12545 0.0
C898 C 0.78031 0.37104 0.15104 0.0
C899 C 0.79554 0.37865 0.13188 0.0
C900 C 0.76563 0.39543 0.10656 0.0
C901 C 0.78822 0.39089 0.10991 0.0
C902 C 0.75769 0.37592 0.14765 0.0
C903 C 0.67735 0.4465 0.09718 0.0
C904 C 0.72623 0.39062 0.12207 0.0
C905 C 0.65764 0.32096 0.13857 0.0
C906 C 0.64883 0.33706 0.15556 0.0
C907 C 0.71875 0.42207 0.04243 0.0
C908 C 0.60927 0.44454 0.01612 0.0
C909 C 0.58137 0.43067 0.98481 0.0
C910 C 0.56714 0.42586 1.00618 0.0
C911 C 0.59464 0.43979 0.0371 0.0
C912 C 0.60239 0.44013 0.99002 0.0
C913 C 0.57374 0.43049 0.03208 0.0
C914 C 0.68235 0.3826 0.03019 0.0
C915 C 0.63204 0.45304 0.02117 0.0
H916 H 0.81308 0.37523 0.13394 0.0
H917 H 0.76015 0.40448 0.08918 0.0
H918 H 0.80008 0.39666 0.09528 0.0
H919 H 0.74565 0.3697 0.16189 0.0
H920 H 0.55074 0.41887 1.00288 0.0
H921 H 0.5994 0.44295 0.05742 0.0
H922 H 0.61364 0.44362 0.97378 0.0
H923 H 0.56263 0.42677 0.04837 0.0
Tb924 Tb 0.45346 0.93714 0.32751 0.0
C925 C 0.38393 0.91476 0.22947 0.0
N926 N 0.38454 0.91995 0.25553 0.0
C927 C 0.35055 0.94034 0.25077 0.0
C928 C 0.36674 0.92232 0.21285 0.0
C929 C 0.36777 0.93209 0.26651 0.0
C930 C 0.35013 0.93561 0.22375 0.0
C931 C 0.39904 0.89311 0.19356 0.0
C932 C 0.39986 0.90063 0.21996 0.0
C933 C 0.38235 0.90101 0.1766 0.0
C934 C 0.3663 0.91574 0.18619 0.0
Tb935 Tb 0.41423 0.90696 0.27942 0.0
N936 N 0.41524 0.89301 0.23721 0.0
C937 C 0.41453 0.87731 0.18532 0.0
C938 C 0.42977 0.87686 0.22954 0.0
C939 C 0.42983 0.86898 0.2035 0.0
H940 H 0.36767 0.93579 0.28732 0.0
H941 H 0.44153 0.85633 0.19757 0.0
H942 H 0.47878 0.9802 0.29867 0.0
H943 H 0.48181 0.88636 0.40899 0.0
H944 H 0.44132 0.86984 0.24343 0.0
H945 H 0.41445 0.87104 0.16523 0.0
H946 H 0.45384 0.90438 0.38016 0.0
H947 H 0.33754 0.95024 0.25955 0.0
H948 H 0.38142 0.89546 0.15624 0.0
H949 H 0.35327 0.9214 0.17306 0.0
H950 H 0.51731 0.99316 0.29114 0.0
H951 H 0.33664 0.94181 0.21166 0.0
H952 H 0.5219 0.89289 0.40084 0.0
N953 N 0.48831 0.95181 0.32126 0.0
C954 C 0.50517 0.94128 0.33374 0.0
C955 C 0.51415 0.9784 0.30299 0.0
C956 C 0.52739 0.94832 0.33057 0.0
C957 C 0.49235 0.97096 0.30722 0.0
C958 C 0.53181 0.96676 0.3143 0.0
N959 N 0.47796 0.92019 0.35559 0.0
C960 C 0.47133 0.90721 0.37651 0.0
C961 C 0.51631 0.91517 0.36772 0.0
C962 C 0.49977 0.92493 0.35184 0.0
C963 C 0.50972 0.90072 0.38814 0.0
C964 C 0.4871 0.89703 0.39283 0.0
H965 H 0.54866 0.97271 0.31128 0.0
H966 H 0.56147 0.94239 0.34237 0.0
H967 H 0.55173 0.91329 0.37502 0.0
O968 O 0.43131 0.96198 0.34081 0.0
O969 O 0.45752 0.90012 0.32627 0.0
O970 O 0.44674 0.88939 0.28465 0.0
O971 O 0.4614 0.95459 0.36202 0.0
O972 O 0.42452 0.91823 0.34394 0.0
O973 O 0.40012 0.92706 0.31228 0.0
O974 O 0.38981 0.88203 0.27643 0.0
O975 O 0.41284 0.94334 0.27163 0.0
O976 O 0.44246 0.95962 0.2944 0.0
O977 O 0.4116 0.88342 0.31044 0.0
O978 O 0.44629 0.91307 0.26047 0.0
O979 O 0.46709 0.93768 0.28672 0.0
C980 C 0.45982 0.88685 0.30555 0.0
C981 C 0.44954 0.99156 0.36483 0.0
C982 C 0.46846 1.01999 0.39171 0.0
C983 C 0.46032 1.03652 0.37452 0.0
C984 C 0.44153 1.00837 0.34806 0.0
C985 C 0.44695 1.03071 0.35292 0.0
C986 C 0.46283 0.99754 0.38669 0.0
C987 C 0.40386 0.92276 0.33741 0.0
C988 C 0.44443 0.96769 0.36033 0.0
C989 C 0.54424 0.93747 0.3448 0.0
C990 C 0.53869 0.92091 0.3634 0.0
C991 C 0.42643 0.9604 0.27621 0.0
C992 C 0.40501 0.84796 0.29113 0.0
C993 C 0.4129 0.81857 0.25894 0.0
C994 C 0.4247 0.80695 0.27852 0.0
C995 C 0.41658 0.83586 0.31048 0.0
C996 C 0.40269 0.83879 0.26557 0.0
C997 C 0.42624 0.81543 0.3042 0.0
C998 C 0.4634 0.92658 0.26448 0.0
C999 C 0.39783 0.87111 0.29661 0.0
H1000 H 0.46448 0.05394 0.37757 0.0
H1001 H 0.43113 1.00429 0.33126 0.0
H1002 H 0.44082 1.04359 0.33983 0.0
H1003 H 0.46863 0.98461 0.39999 0.0
H1004 H 0.43267 0.79128 0.27397 0.0
H1005 H 0.4187 0.84251 0.33024 0.0
H1006 H 0.39395 0.8479 0.25028 0.0
H1007 H 0.43538 0.80635 0.31915 0.0
Tb1008 Tb 0.16395 0.43477 0.48727 0.0
C1009 C 0.16131 0.35167 0.42038 0.0
N1010 N 0.17641 0.35711 0.43945 0.0
C1011 C 0.17425 0.31967 0.45657 0.0
C1012 C 0.15158 0.33019 0.41927 0.0
C1013 C 0.18369 0.34106 0.45667 0.0
C1014 C 0.1579 0.31429 0.43805 0.0
C1015 C 0.14089 0.36244 0.38095 0.0
C1016 C 0.15591 0.3676 0.40149 0.0
C1017 C 0.13091 0.34119 0.38007 0.0
C1018 C 0.13615 0.32515 0.39926 0.0
Tb1019 Tb 0.1898 0.39314 0.43748 0.0
N1020 N 0.165 0.38842 0.40371 0.0
C1021 C 0.13628 0.37884 0.36202 0.0
C1022 C 0.16157 0.40402 0.38441 0.0
C1023 C 0.14688 0.39962 0.36358 0.0
H1024 H 0.19718 0.34432 0.47021 0.0
H1025 H 0.14392 0.41218 0.3486 0.0
H1026 H 0.17916 0.48131 0.45649 0.0
H1027 H 0.16716 0.4124 0.59088 0.0
H1028 H 0.17029 0.41975 0.38475 0.0
H1029 H 0.12486 0.37553 0.34591 0.0
H1030 H 0.1526 0.41029 0.54551 0.0
H1031 H 0.17984 0.30721 0.47057 0.0
H1032 H 0.11914 0.33698 0.36461 0.0
H1033 H 0.12839 0.3088 0.39825 0.0
H1034 H 0.20212 0.51453 0.46577 0.0
H1035 H 0.15075 0.29764 0.43793 0.0
H1036 H 0.19339 0.44232 0.60362 0.0
N1037 N 0.18452 0.46648 0.49412 0.0
C1038 C 0.1923 0.4697 0.51904 0.0
C1039 C 0.19984 0.50186 0.48082 0.0
C1040 C 0.20531 0.48858 0.52549 0.0
C1041 C 0.1871 0.48278 0.47543 0.0
C1042 C 0.20933 0.5046 0.50584 0.0
N1043 N 0.17287 0.43714 0.53131 0.0
C1044 C 0.16482 0.42296 0.55032 0.0
C1045 C 0.19445 0.45672 0.5643 0.0
C1046 C 0.18674 0.45416 0.53814 0.0
C1047 C 0.18762 0.44119 0.58335 0.0
C1048 C 0.17261 0.42438 0.57633 0.0
H1049 H 0.21921 0.51938 0.50997 0.0
H1050 H 0.22395 0.5051 0.5566 0.0
H1051 H 0.21458 0.47704 0.5906 0.0
O1052 O 0.14054 0.45019 0.51191 0.0
O1053 O 0.20091 0.43752 0.48131 0.0
O1054 O 0.21304 0.40247 0.47022 0.0
O1055 O 0.13727 0.45137 0.46952 0.0
O1056 O 0.16626 0.40047 0.50258 0.0
O1057 O 0.19413 0.38242 0.4792 0.0
O1058 O 0.21472 0.40226 0.41001 0.0
O1059 O 0.15282 0.3979 0.43974 0.0
O1060 O 0.14449 0.40314 0.48285 0.0
O1061 O 0.20826 0.36791 0.41929 0.0
O1062 O 0.19303 0.42911 0.42588 0.0
O1063 O 0.1616 0.44286 0.44445 0.0
C1064 C 0.21599 0.42153 0.4832 0.0
C1065 C 0.10405 0.44821 0.49425 0.0
C1066 C 0.07198 0.43796 0.52127 0.0
C1067 C 0.05891 0.43637 0.49836 0.0
C1068 C 0.0907 0.4465 0.47147 0.0
C1069 C 0.06832 0.44049 0.47357 0.0
C1070 C 0.09452 0.44379 0.51912 0.0
C1071 C 0.18143 0.38487 0.50036 0.0
C1072 C 0.12762 0.45511 0.49213 0.0
C1073 C 0.21365 0.49089 0.55131 0.0
C1074 C 0.20833 0.4749 0.57066 0.0
C1075 C 0.14032 0.39265 0.46043 0.0
C1076 C 0.24403 0.3764 0.40428 0.0
C1077 C 0.27375 0.35751 0.38069 0.0
C1078 C 0.28799 0.36145 0.40224 0.0
C1079 C 0.25841 0.38041 0.42559 0.0
C1080 C 0.25183 0.36524 0.38182 0.0
C1081 C 0.28037 0.37305 0.42444 0.0
C1082 C 0.17767 0.44471 0.4269 0.0
C1083 C 0.22033 0.38168 0.40563 0.0
H1084 H 1.04148 0.43192 0.49968 0.0
H1085 H 0.09751 0.44991 0.45202 0.0
H1086 H 0.05818 0.4392 0.45594 0.0
H1087 H 0.10445 0.44539 0.53693 0.0
H1088 H 0.30495 0.35559 0.40186 0.0
H1089 H 0.25256 0.38881 0.44319 0.0
H1090 H 0.24054 0.36176 0.36558 0.0
H1091 H 0.29143 0.37604 0.44096 0.0
Tb1092 Tb 0.92225 0.91459 0.2362 0.0
C1093 C 1.01196 0.9493 0.17915 0.0
N1094 N 0.99482 0.95958 0.19131 0.0
C1095 C 1.01965 0.98819 0.20704 0.0
C1096 C 1.03382 0.95772 0.18102 0.0
C1097 C 0.99818 0.9795 0.20393 0.0
C1098 C 1.03762 0.97704 0.1959 0.0
C1099 C 1.02375 0.92244 0.14652 0.0
C1100 C 1.00704 0.93187 0.16237 0.0
C1101 C 1.04578 0.93 0.1492 0.0
C1102 C 0.05085 0.94747 0.16663 0.0
Tb1103 Tb 0.96039 0.94378 0.18601 0.0
N1104 N 0.9854 0.92609 0.15926 0.0
C1105 C 1.01758 0.90681 0.12729 0.0
C1106 C 0.9791 0.91222 0.13907 0.0
C1107 C 0.9951 0.90198 0.12324 0.0
H1108 H 0.98435 0.98854 0.21208 0.0
H1109 H 0.99007 0.89051 0.1078 0.0
H1110 H 0.87705 0.94577 0.22978 0.0
H1111 H 0.95102 0.86409 0.31784 0.0
H1112 H 0.96169 0.90872 0.13566 0.0
H1113 H 1.0299 0.89915 0.1147 0.0
H1114 H 0.95032 0.87774 0.27201 0.0
H1115 H 1.02227 1.00362 0.21773 0.0
H1116 H 0.05885 0.92317 0.13706 0.0
H1117 H 0.06778 0.95364 0.16783 0.0
H1118 H 0.84744 0.96024 0.25823 0.0
H1119 H 0.05419 0.98404 0.19786 0.0
H1120 H 0.92402 0.87832 0.35044 0.0
N1121 N 0.89364 0.92862 0.26095 0.0
C1122 C 0.89316 0.92292 0.28692 0.0
C1123 C 0.86024 0.94978 0.2666 0.0
C1124 C 0.87623 0.93046 0.30388 0.0
C1125 C 0.87713 0.94148 0.25048 0.0
C1126 C 0.85985 0.94436 0.29347 0.0
N1127 N 0.92422 0.90087 0.27856 0.0
C1128 C 0.93894 0.88479 0.28606 0.0
C1129 C 0.90834 0.90056 0.32237 0.0
C1130 C 0.90901 0.90842 0.29605 0.0
C1131 C 0.92396 0.88478 0.33039 0.0
C1132 C 0.93923 0.87675 0.31207 0.0
H1133 H 0.84659 0.95058 0.30584 0.0
H1134 H 0.86294 0.92889 0.34372 0.0
H1135 H 0.89091 0.90235 0.35981 0.0
O1136 O 0.89688 0.89093 0.24099 0.0
O1137 O 0.92219 0.95077 0.24503 0.0
O1138 O 0.94964 0.96712 0.2187 0.0
O1139 O 0.91866 0.88958 0.207 0.0
O1140 O 0.955 0.92046 0.25344 0.0
O1141 O 0.97474 0.94532 0.22627 0.0
O1142 O 0.9681 0.95974 0.15024 0.0
O1143 O 0.96415 0.90656 0.18828 0.0
O1144 O 0.95463 0.89684 0.23063 0.0
O1145 O 0.93861 0.96859 0.17165 0.0
O1146 O 0.93118 0.92466 0.17073 0.0
O1147 O 0.90737 0.93379 0.20283 0.0
C1148 C 0.93507 0.96798 0.23864 0.0
C1149 C 0.90944 0.8553 0.22857 0.0
C1150 C 0.91502 0.8262 0.2623 0.0
C1151 C 0.92239 0.81179 0.24223 0.0
C1152 C 0.9169 0.84058 0.20906 0.0
C1153 C 0.92321 0.81893 0.21588 0.0
C1154 C 0.90816 0.84778 0.25507 0.0
C1155 C 0.97174 0.93429 0.24872 0.0
C1156 C 0.90416 0.87873 0.22159 0.0
C1157 C 0.87581 0.92329 0.33036 0.0
C1158 C 0.89172 0.90819 0.33952 0.0
C1159 C 0.96713 0.89375 0.20938 0.0
C1160 C 0.95788 0.99719 0.14687 0.0
C1161 C 0.97796 1.0249 0.11974 0.0
C1162 C 0.97147 1.04154 0.13771 0.0
C1163 C 0.95156 1.01418 0.16428 0.0
C1164 C 0.97095 1.00272 0.12454 0.0
C1165 C 0.95835 1.03619 0.15968 0.0
C1166 C 0.9106 0.929 0.17773 0.0
C1167 C 0.95171 0.97354 0.15178 0.0
H1168 H 0.92734 0.79488 0.2468 0.0
H1169 H 0.91804 0.8459 0.18859 0.0
H1170 H 0.92893 0.80767 0.20068 0.0
H1171 H 0.90245 0.85899 0.2703 0.0
H1172 H 0.97681 0.0587 0.13505 0.0
H1173 H 0.94151 1.01047 0.18152 0.0
H1174 H 0.97557 0.98966 0.11086 0.0
H1175 H 0.95355 1.04917 0.17334 0.0
Tb1176 Tb 0.44061 0.67562 0.98465 0.0
C1177 C 0.43334 0.75164 0.90479 0.0
N1178 N 0.41896 0.74998 0.92545 0.0
C1179 C 0.415 0.78975 0.92624 0.0
C1180 C 0.43893 0.77258 0.89382 0.0
C1181 C 0.41019 0.76864 0.93674 0.0
C1182 C 0.42919 0.79171 0.90446 0.0
C1183 C 0.46145 0.73405 0.87784 0.0
C1184 C 0.44445 0.73248 0.89699 0.0
C1185 C 0.46605 0.75465 0.86558 0.0
C1186 C 0.45482 0.77388 0.87356 0.0
Tb1187 Tb 0.40927 0.7145 0.93723 0.0
N1188 N 0.44019 0.71296 0.91022 0.0
C1189 C 0.47405 0.71513 0.87246 0.0
C1190 C 0.45342 0.69492 0.9059 0.0
C1191 C 0.47026 0.69563 0.88689 0.0
H1192 H 0.39917 0.76715 0.95356 0.0
H1193 H 0.48044 0.68111 0.88351 0.0
H1194 H 0.41232 0.62758 0.98011 0.0
H1195 H 0.48676 0.71073 0.06629 0.0
H1196 H 0.45149 0.6799 0.91696 0.0
H1197 H 0.48729 0.71566 0.85795 0.0
H1198 H 0.47642 0.70595 0.0194 0.0
H1199 H 0.4078 0.80449 0.93496 0.0
H1200 H 0.47888 0.75606 0.85063 0.0
H1201 H 0.45917 0.78979 0.86466 0.0
H1202 H 0.39558 0.60018 0.01072 0.0
H1203 H 0.43308 0.80812 0.89658 0.0
H1204 H 0.46838 0.68756 0.10082 0.0
N1205 N 0.42557 0.6481 0.01078 0.0
C1206 C 0.42876 0.65045 0.03724 0.0
C1207 C 0.40481 0.6143 0.01844 0.0
C1208 C 0.41969 0.63505 0.05545 0.0
C1209 C 0.41441 0.62987 1.00112 0.0
C1210 C 0.40724 0.61703 0.04574 0.0
N1211 N 0.4519 0.68104 0.02733 0.0
C1212 C 0.46812 0.69599 0.03432 0.0
C1213 C 0.44785 0.66962 0.07282 0.0
C1214 C 0.44243 0.66757 0.04582 0.0
C1215 C 0.46363 0.68567 0.08028 0.0
C1216 C 0.47405 0.69871 0.06088 0.0
H1217 H 0.39993 0.60484 0.05908 0.0
H1218 H 0.41697 0.6262 0.09696 0.0
H1219 H 0.44181 0.65641 0.11218 0.0
O1220 O 0.46439 0.65252 0.99723 0.0
O1221 O 0.40426 0.67383 0.9934 0.0
O1222 O 0.38549 0.69899 0.96647 0.0
O1223 O 0.46653 0.66778 0.9585 0.0
O1224 O 0.43464 0.70868 1.00086 0.0
O1225 O 0.40486 0.7249 0.97874 0.0
O1226 O 0.39316 0.71361 0.90007 0.0
O1227 O 0.43969 0.73204 0.95211 0.0
O1228 O 0.46156 0.70543 0.97247 0.0
O1229 O 0.38062 0.73382 0.93123 0.0
O1230 O 0.40991 0.68001 0.92053 0.0
O1231 O 0.4267 0.65639 0.95069 0.0
C1232 C 0.38587 0.68445 0.98652 0.0
C1233 C 0.50008 0.66407 0.98293 0.0
C1234 C 0.52873 0.67405 0.01545 0.0
C1235 C 0.54208 0.68234 0.99477 0.0
C1236 C 0.51387 0.67221 0.96263 0.0
C1237 C 0.53475 0.68122 0.96857 0.0
C1238 C 0.5079 0.66461 0.00925 0.0
C1239 C 0.41816 0.72292 0.99944 0.0
C1240 C 0.47707 0.65662 0.97688 0.0
C1241 C 0.42394 0.63775 0.08261 0.0
C1242 C 0.43806 0.65497 0.09128 0.0
C1243 C 0.45902 0.72569 0.96197 0.0
C1244 C 0.3558 0.72537 0.89631 0.0
C1245 C 0.32768 0.73709 0.86431 0.0
C1246 C 0.31204 0.72343 0.87737 0.0
C1247 C 0.34007 0.71168 0.90894 0.0
C1248 C 0.34961 0.73782 0.8739 0.0
C1249 C 0.31828 0.7107 0.8994 0.0
C1250 C 0.41676 0.65989 0.92769 0.0
C1251 C 0.37844 0.7282 0.90668 0.0
H1252 H 0.5583 0.68948 0.9988 0.0
H1253 H 0.50834 0.67199 0.94223 0.0
H1254 H 0.54519 0.68761 0.95281 0.0
H1255 H 0.49746 0.65844 0.02515 0.0
H1256 H 0.29505 0.72247 0.87041 0.0
H1257 H 0.34457 0.70203 0.92627 0.0
H1258 H 0.36175 0.74863 0.86438 0.0
H1259 H 0.30612 0.70018 0.90924 0.0
Tb1260 Tb 0.67734 0.19391 0.72742 0.0
C1261 C 0.59648 0.192 0.6577 0.0
N1262 N 0.60168 0.17713 0.67716 0.0
C1263 C 0.564 0.17816 0.69283 0.0
C1264 C 0.57505 0.20118 0.65577 0.0
C1265 C 0.58542 0.16936 0.69384 0.0
C1266 C 0.55887 0.19436 0.67397 0.0
C1267 C 0.60794 0.21288 0.61868 0.0
C1268 C 0.61266 0.19781 0.63932 0.0
C1269 C 0.58678 0.22246 0.61709 0.0
C1270 C 0.5704 0.21666 0.63563 0.0
Tb1271 Tb 0.6379 0.16506 0.67706 0.0
N1272 N 0.63339 0.1892 0.64235 0.0
C1273 C 0.62463 0.21781 0.60025 0.0
C1274 C 0.64924 0.19275 0.62343 0.0
C1275 C 0.64524 0.20741 0.60239 0.0
H1276 H 0.58856 0.156 0.70767 0.0
H1277 H 0.65802 0.21058 0.58777 0.0
H1278 H 0.72514 0.20015 0.69489 0.0
H1279 H 0.65924 0.15743 0.82341 0.0
H1280 H 0.66491 0.18428 0.62442 0.0
H1281 H 0.62164 0.22924 0.58402 0.0
H1282 H 0.65102 0.17962 0.78396 0.0
H1283 H 0.55137 0.17221 0.7064 0.0
H1284 H 0.58286 0.23424 0.6015 0.0
H1285 H 0.55409 0.22405 0.63402 0.0
H1286 H 0.76308 0.18568 0.69779 0.0
H1287 H 0.54223 0.20108 0.67321 0.0
H1288 H 0.69645 0.1415 0.82992 0.0
N1289 N 0.71335 0.18214 0.72845 0.0
C1290 C 0.7194 0.17051 0.75041 0.0
C1291 C 0.75085 0.18088 0.71247 0.0
C1292 C 0.7412 0.16249 0.75348 0.0
C1293 C 0.72905 0.18854 0.71043 0.0
C1294 C 0.75688 0.16746 0.73387 0.0
N1295 N 0.6829 0.17514 0.76649 0.0
C1296 C 0.66713 0.1722 0.78565 0.0
C1297 C 0.70928 0.15469 0.793 0.0
C1298 C 0.70372 0.16696 0.77011 0.0
C1299 C 0.69293 0.15101 0.81216 0.0
C1300 C 0.67182 0.15984 0.80846 0.0
H1301 H 0.77381 0.16165 0.7355 0.0
H1302 H 0.76338 0.14373 0.77878 0.0
H1303 H 0.73533 0.13664 0.81323 0.0
O1304 O 0.68557 0.21434 0.75977 0.0
O1305 O 0.67976 0.15627 0.72516 0.0
O1306 O 0.64568 0.14274 0.71173 0.0
O1307 O 0.69311 0.22469 0.71989 0.0
O1308 O 0.64273 0.19189 0.74032 0.0
O1309 O 0.62598 0.16214 0.71832 0.0
O1310 O 0.64844 0.14007 0.6506 0.0
O1311 O 0.6421 0.20249 0.6769 0.0
O1312 O 0.64628 0.21312 0.71935 0.0
O1313 O 0.61384 0.14502 0.65825 0.0
O1314 O 0.67429 0.16304 0.66818 0.0
O1315 O 0.68611 0.19638 0.68464 0.0
C1316 C 0.66394 0.14065 0.72644 0.0
C1317 C 0.68023 0.25226 0.74977 0.0
C1318 C 0.66716 0.27973 0.78184 0.0
C1319 C 0.65673 0.29139 0.76113 0.0
C1320 C 0.66961 0.26417 0.72943 0.0
C1321 C 0.65794 0.2836 0.73516 0.0
C1322 C 0.6789 0.26015 0.77585 0.0
C1323 C 0.62684 0.17679 0.73779 0.0
C1324 C 0.69149 0.23087 0.74455 0.0
C1325 C 0.74676 0.15015 0.77617 0.0
C1326 C 0.73082 0.14621 0.79585 0.0
C1327 C 0.63642 0.21605 0.69631 0.0
C1328 C 0.62359 0.10974 0.64199 0.0
C1329 C 0.60499 0.08025 0.61664 0.0
C1330 C 0.61338 0.06443 0.63461 0.0
C1331 C 0.63165 0.09379 0.6598 0.0
C1332 C 0.61033 0.10292 0.62056 0.0
C1333 C 0.62657 0.0712 0.65602 0.0
C1334 C 0.68898 0.17958 0.66817 0.0
C1335 C 0.62827 0.13369 0.64507 0.0
H1336 H 0.64775 0.30664 0.76491 0.0
H1337 H 0.67004 0.25838 0.70916 0.0
H1338 H 0.64973 0.29261 0.71941 0.0
H1339 H 0.68655 0.25058 0.79159 0.0
H1340 H 0.60947 1.04686 0.63238 0.0
H1341 H 0.64176 0.09879 0.67654 0.0
H1342 H 0.60433 0.11537 0.60674 0.0
H1343 H 0.63279 0.05889 0.6698 0.0
H1344 H 0.49999 0.21699 0.08039 0.0
H1345 H 0.53019 0.24491 0.08114 0.0
H1346 H 0.48745 0.29237 0.04303 0.0
H1347 H 0.45737 0.26432 0.04216 0.0
H1348 H 0.52874 0.29683 0.02147 0.0
H1349 H 0.50385 0.29829 0.11369 0.0
H1350 H 0.49534 0.28188 0.15738 0.0
H1351 H 0.55986 0.25213 0.16012 0.0
H1352 H 0.56908 0.26906 0.11684 0.0
H1353 H 0.60433 0.39051 0.03487 0.0
H1354 H 0.5734 0.364 0.03366 0.0
H1355 H 0.60423 0.32576 0.09581 0.0
H1356 H 0.63335 0.3537 0.09883 0.0
H1357 H 0.5679 0.31592 0.10459 0.0
H1358 H 0.59448 0.31096 0.0144 0.0
H1359 H 0.60495 0.32348 0.96953 0.0
H1360 H 0.54145 0.35449 0.96004 0.0
H1361 H 0.53032 0.34151 1.00456 0.0
C1362 C 0.49706 0.23317 0.07163 0.0
C1363 C 0.47598 0.23774 0.06056 0.0
C1364 C 0.51445 0.24955 0.07249 0.0
C1365 C 0.51176 0.27147 0.06225 0.0
C1366 C 0.49066 0.27596 0.05111 0.0
C1367 C 0.47319 0.25969 0.05065 0.0
C1368 C 0.5306 0.28946 0.06302 0.0
C1369 C 0.53709 0.30107 0.03982 0.0
C1370 C 0.54266 0.29518 0.08635 0.0
C1371 C 0.53704 0.28472 0.11201 0.0
C1372 C 0.51616 0.28814 0.12357 0.0
C1373 C 0.51122 0.27879 0.14826 0.0
C1374 C 0.52689 0.2657 0.16135 0.0
C1375 C 0.54769 0.26219 0.14992 0.0
C1376 C 0.55285 0.2718 0.12542 0.0
C1377 C 0.60449 0.37665 0.04865 0.0
C1378 C 0.62211 0.37497 0.06719 0.0
C1379 C 0.58666 0.36075 0.0475 0.0
C1380 C 0.58577 0.34143 0.06399 0.0
C1381 C 0.60343 0.33991 0.08252 0.0
C1382 C 0.62074 0.35624 0.08424 0.0
C1383 C 0.56671 0.32338 0.06277 0.0
C1384 C 0.55995 0.31176 0.086 0.0
C1385 C 0.55491 0.31714 0.03921 0.0
C1386 C 0.56173 0.32558 0.0129 0.0
C1387 C 0.58284 0.32062 1.00281 0.0
C1388 C 0.58888 0.32777 0.97744 0.0
C1389 C 0.57406 0.34016 0.96214 0.0
C1390 C 0.553 0.34507 0.972 0.0
C1391 C 0.54675 0.33769 0.99722 0.0
H1392 H 0.57884 0.34579 0.94256 0.0
H1393 H 0.52296 0.2584 0.18041 0.0
H1394 H 0.60757 0.7263 0.3446 0.0
H1395 H 0.57785 0.75376 0.34296 0.0
H1396 H 0.60399 0.77934 0.26962 0.0
H1397 H 0.63352 0.75116 0.27086 0.0
H1398 H 0.58962 0.81494 0.30389 0.0
H1399 H 0.55786 0.74736 0.26834 0.0
H1400 H 0.54997 0.70693 0.27003 0.0
H1401 H 0.51309 0.71553 0.34193 0.0
H1402 H 0.52099 0.75602 0.34083 0.0
H1403 H 0.46601 0.85067 0.2709 0.0
H1404 H 0.49556 0.82257 0.27049 0.0
H1405 H 0.52406 0.85204 0.34033 0.0
H1406 H 0.49455 0.87963 0.34084 0.0
H1407 H 0.51124 0.78884 0.30437 0.0
H1408 H 0.58021 0.84823 0.33931 0.0
H1409 H 0.58853 0.88865 0.33904 0.0
H1410 H 0.55132 0.8963 0.26714 0.0
H1411 H 0.54298 0.85592 0.26683 0.0
C1412 C 0.60714 0.73753 0.32797 0.0
C1413 C 0.62331 0.73573 0.30779 0.0
C1414 C 0.58988 0.75355 0.32705 0.0
C1415 C 0.58801 0.76906 0.30605 0.0
C1416 C 0.60456 0.76788 0.2862 0.0
C1417 C 0.62164 0.7515 0.2869 0.0
C1418 C 0.56857 0.78576 0.30462 0.0
C1419 C 0.57256 0.80905 0.30404 0.0
C1420 C 0.54586 0.7788 0.30457 0.0
C1421 C 0.54007 0.7547 0.30455 0.0
C1422 C 0.54805 0.74063 0.28451 0.0
C1423 C 0.5436 0.7177 0.28537 0.0
C1424 C 0.53102 0.70867 0.30607 0.0
C1425 C 0.52278 0.72257 0.32588 0.0
C1426 C 0.52721 0.74552 0.32512 0.0
C1427 C 0.4785 0.85134 0.28624 0.0
C1428 C 0.47753 0.86827 0.30578 0.0
C1429 C 0.49558 0.83493 0.28607 0.0
C1430 C 0.51283 0.83482 0.30516 0.0
C1431 C 0.51158 0.85142 0.32493 0.0
C1432 C 0.49438 0.86752 0.32526 0.0
C1433 C 0.53228 0.81808 0.3042 0.0
C1434 C 0.52829 0.79476 0.30429 0.0
C1435 C 0.55501 0.82502 0.3039 0.0
C1436 C 0.56091 0.84908 0.30313 0.0
C1437 C 0.57399 0.85851 0.32331 0.0
C1438 C 0.57865 0.88142 0.3233 0.0
C1439 C 0.57045 0.89502 0.30309 0.0
C1440 C 0.55765 0.88574 0.28279 0.0
C1441 C 0.55295 0.86286 0.2827 0.0
H1442 H 0.57403 0.91275 0.30315 0.0
H1443 H 0.52766 0.69091 0.30676 0.0
H1444 H 0.11276 0.87554 0.51444 0.0
H1445 H 0.08355 0.84683 0.51367 0.0
H1446 H 0.09012 0.83831 0.59791 0.0
H1447 H 0.11923 0.86708 0.59857 0.0
H1448 H 0.08352 0.79901 0.58046 0.0
H1449 H 1.04211 0.86511 0.56222 0.0
H1450 H 1.03076 0.89953 0.53933 0.0
H1451 H 1.02193 0.86305 0.46702 0.0
H1452 H 1.03317 0.82833 0.48954 0.0
H1453 H 0.98493 0.73161 0.59871 0.0
H1454 H 1.01356 0.76087 0.5985 0.0
H1455 H 1.0061 0.76784 0.51418 0.0
H1456 H 0.97659 0.73925 0.5147 0.0
H1457 H 1.01318 0.80776 0.53083 0.0
H1458 H 0.05549 0.74203 0.54849 0.0
H1459 H 0.06638 0.70741 0.57135 0.0
H1460 H 0.07298 0.74317 0.64447 0.0
H1461 H 0.06245 0.77812 0.62192 0.0
C1462 C 0.10791 0.86789 0.53299 0.0
C1463 C 0.1189 0.87429 0.55667 0.0
C1464 C 0.09085 0.85118 0.53256 0.0
C1465 C 0.08364 0.8399 0.5558 0.0
C1466 C 0.09476 0.84621 0.5794 0.0
C1467 C 0.11176 0.86294 0.57982 0.0
C1468 C 0.06517 0.8215 0.55561 0.0
C1469 C 0.06807 0.80133 0.56983 0.0
C1470 C 1.04473 0.82329 0.54135 0.0
C1471 C 1.03875 0.84419 0.52749 0.0
C1472 C 1.03799 0.86448 0.54136 0.0
C1473 C 1.03152 0.88403 0.52847 0.0
C1474 C 1.02574 0.88352 0.5017 0.0
C1475 C 1.02645 0.86343 0.48775 0.0
C1476 C 1.03282 0.8438 0.50058 0.0
C1477 C 0.98899 0.73954 0.58011 0.0
C1478 C 0.97769 0.7328 0.55687 0.0
C1479 C 1.00598 0.75627 0.57985 0.0
C1480 C 1.01294 0.76709 0.55622 0.0
C1481 C 1.00162 0.7603 0.53292 0.0
C1482 C 0.9846 0.74356 0.5332 0.0
C1483 C 1.03151 0.78538 0.55581 0.0
C1484 C 1.02864 0.80549 0.54145 0.0
C1485 C 0.052 0.78355 0.56988 0.0
C1486 C 0.05795 0.7626 0.5836 0.0
C1487 C 0.05911 0.74247 0.56948 0.0
C1488 C 0.06525 0.7228 0.58237 0.0
C1489 C 0.07015 0.72303 0.6094 0.0
C1490 C 0.0691 0.74299 0.62355 0.0
C1491 C 0.06315 0.76276 0.61071 0.0
H1492 H 0.07487 0.70776 0.61933 0.0
H1493 H 1.02059 0.89866 0.4918 0.0
H1494 H 0.97094 0.35902 0.78455 0.0
H1495 H 0.99761 0.32829 0.78373 0.0
H1496 H 1.0377 0.3626 0.84152 0.0
H1497 H 1.01074 0.39302 0.84256 0.0
H1498 H 0.06603 0.34535 0.81245 0.0
H1499 H 1.00551 0.30675 0.85304 0.0
H1500 H 0.96925 0.28885 0.86205 0.0
H1501 H 0.97181 0.25543 0.78705 0.0
H1502 H 1.00819 0.27299 0.77772 0.0
H1503 H 0.13179 0.24593 0.84533 0.0
H1504 H 0.10412 0.27602 0.84645 0.0
H1505 H 0.08086 0.25662 0.76934 0.0
H1506 H 0.10903 0.22708 0.76784 0.0
H1507 H 1.04449 0.26549 0.80817 0.0
H1508 H 0.10782 0.30308 0.77122 0.0
H1509 H 0.14691 0.31531 0.76944 0.0
H1510 H 0.13975 0.34815 0.84437 0.0
H1511 H 0.10049 0.33609 0.84654 0.0
C1512 C 0.98498 0.35978 0.79784 0.0
C1513 C 0.98765 0.3787 0.81438 0.0
C1514 C 1.00066 0.34196 0.79724 0.0
C1515 C 1.02023 0.34202 0.81297 0.0
C1516 C 1.02314 0.36125 0.82905 0.0
C1517 C 1.00738 0.37898 0.82974 0.0
C1518 C 1.03784 0.32293 0.81195 0.0
C1519 C 0.06093 0.32797 0.8119 0.0
C1520 C 1.0324 0.29961 0.81072 0.0
C1521 C 1.0094 0.29142 0.81455 0.0
C1522 C 0.99815 0.29588 0.83829 0.0
C1523 C 0.97773 0.28555 0.84361 0.0
C1524 C 0.96831 0.27088 0.82522 0.0
C1525 C 0.97918 0.2667 0.80134 0.0
C1526 C 0.99969 0.27682 0.79603 0.0
C1527 C 0.12083 0.24794 0.82854 0.0
C1528 C 0.12306 0.23356 0.8065 0.0
C1529 C 0.10485 0.26546 0.82914 0.0
C1530 C 0.08983 0.26922 0.808 0.0
C1531 C 0.09185 0.25463 0.78612 0.0
C1532 C 0.10825 0.23754 0.78522 0.0
C1533 C 0.07225 0.28809 0.80871 0.0
C1534 C 1.04932 0.28296 0.80863 0.0
C1535 C 0.07781 0.31122 0.81031 0.0
C1536 C 0.10132 0.3185 0.80917 0.0
C1537 C 0.11464 0.31276 0.78742 0.0
C1538 C 0.13682 0.3197 0.78632 0.0
C1539 C 0.14588 0.3324 0.80688 0.0
C1540 C 0.13272 0.33828 0.8285 0.0
C1541 C 0.11048 0.33145 0.82963 0.0
H1542 H 0.16307 0.33776 0.80602 0.0
H1543 H 0.95249 0.26292 0.82936 0.0
H1544 H 0.62735 0.86825 0.92032 0.0
H1545 H 0.59825 0.83974 0.92182 0.0
H1546 H 0.58382 0.85765 1.0024 0.0
H1547 H 0.61382 0.88567 1.00109 0.0
H1548 H 0.57731 0.81516 1.00089 0.0
H1549 H 0.54946 0.87163 0.94382 0.0
H1550 H 0.54988 0.8979 0.90618 0.0
H1551 H 0.5551 0.84311 0.85198 0.0
H1552 H 0.55502 0.81652 0.88936 0.0
H1553 H 0.45891 0.77089 0.94882 0.0
H1554 H 0.48894 0.79845 0.94946 0.0
H1555 H 0.53396 0.74822 0.97764 0.0
H1556 H 0.50358 0.7206 0.97744 0.0
H1557 H 0.52425 0.80802 0.92641 0.0
H1558 H 0.58017 0.77104 0.0087 0.0
H1559 H 0.57637 0.74825 0.04925 0.0
H1560 H 0.50897 0.7697 0.05815 0.0
H1561 H 0.51247 0.79292 0.01794 0.0
C1562 C 0.61825 0.86621 0.93847 0.0
C1563 C 0.62366 0.87976 0.96047 0.0
C1564 C 0.60106 0.84975 0.93931 0.0
C1565 C 0.58784 0.84606 0.96215 0.0
C1566 C 0.59326 0.85955 0.98429 0.0
C1567 C 0.61062 0.87595 0.98346 0.0
C1568 C 0.56859 0.82854 0.96273 0.0
C1569 C 0.56589 0.81368 0.9844 0.0
C1570 C 0.55267 0.82623 0.94193 0.0
C1571 C 0.55243 0.8421 0.91939 0.0
C1572 C 0.55081 0.86519 0.92388 0.0
C1573 C 0.55098 0.88014 0.90259 0.0
C1574 C 0.55256 0.87218 0.8767 0.0
C1575 C 0.5539 0.84925 0.87205 0.0
C1576 C 0.55378 0.83423 0.89328 0.0
C1577 C 0.47514 0.76544 0.95509 0.0
C1578 C 0.47826 0.74294 0.96287 0.0
C1579 C 0.49265 0.78153 0.95546 0.0
C1580 C 0.51442 0.77621 0.96385 0.0
C1581 C 0.51764 0.75363 0.97154 0.0
C1582 C 0.50003 0.73749 0.97123 0.0
C1583 C 0.53329 0.79416 0.96422 0.0
C1584 C 0.53581 0.80926 0.94279 0.0
C1585 C 0.54864 0.79701 0.98557 0.0
C1586 C 0.54653 0.78352 0.01011 0.0
C1587 C 0.56459 0.77099 0.01939 0.0
C1588 C 0.56248 0.75802 0.04231 0.0
C1589 C 0.54243 0.75749 0.0562 0.0
C1590 C 0.52447 0.77008 0.04732 0.0
C1591 C 0.52651 0.78315 0.02446 0.0
H1592 H 0.5408 0.74732 0.07381 0.0
H1593 H 0.55271 0.88378 0.86025 0.0
H1594 H 0.50395 0.39493 0.66292 0.0
H1595 H 0.5322 0.36601 0.66315 0.0
H1596 H 0.49389 0.3286 0.72013 0.0
H1597 H 0.46637 0.35854 0.72113 0.0
H1598 H 0.53298 0.31955 0.73302 0.0
H1599 H 0.50286 0.3162 0.645 0.0
H1600 H 0.49205 0.33128 0.60142 0.0
H1601 H 0.55956 0.35121 0.58658 0.0
H1602 H 0.57073 0.33644 0.63019 0.0
H1603 H 0.59426 0.21753 0.71827 0.0
H1604 H 0.56618 0.24679 0.71665 0.0
H1605 H 0.60842 0.28577 0.66533 0.0
H1606 H 0.63648 0.25596 0.66674 0.0
H1607 H 0.56804 0.29419 0.64982 0.0
H1608 H 0.5984 0.29442 0.73722 0.0
H1609 H 0.60885 0.27632 0.77919 0.0
H1610 H 0.54036 0.26164 0.79551 0.0
H1611 H 0.52951 0.27868 0.75298 0.0
C1612 C 0.50143 0.38079 0.67571 0.0
C1613 C 0.48231 0.37996 0.692 0.0
C1614 C 0.51776 0.36359 0.67555 0.0
C1615 C 0.51581 0.34392 0.69123 0.0
C1616 C 0.49661 0.34301 0.70755 0.0
C1617 C 0.48042 0.36042 0.70793 0.0
C1618 C 0.53349 0.32474 0.69084 0.0
C1619 C 0.54025 0.31401 0.71459 0.0
C1620 C 0.54416 0.31689 0.66731 0.0
C1621 C 0.53758 0.32541 0.64094 0.0
C1622 C 0.51538 0.32387 0.63247 0.0
C1623 C 0.50919 0.33236 0.60777 0.0
C1624 C 0.5251 0.34225 0.59128 0.0
C1625 C 0.54725 0.34357 0.59939 0.0
C1626 C 0.55353 0.33512 0.62408 0.0
C1627 C 0.59789 0.23244 0.70696 0.0
C1628 C 0.61832 0.23411 0.69325 0.0
C1629 C 0.58152 0.2495 0.70593 0.0
C1630 C 0.58472 0.26965 0.69153 0.0
C1631 C 0.60491 0.27098 0.67698 0.0
C1632 C 0.62123 0.25369 0.6778 0.0
C1633 C 0.56737 0.28902 0.69192 0.0
C1634 C 0.56074 0.29978 0.66823 0.0
C1635 C 0.55678 0.29682 0.71549 0.0
C1636 C 0.56314 0.2877 0.74176 0.0
C1637 C 0.58554 0.28731 0.74971 0.0
C1638 C 0.59156 0.27719 0.77359 0.0
C1639 C 0.57529 0.26797 0.79009 0.0
C1640 C 0.55295 0.26881 0.78271 0.0
C1641 C 0.54685 0.27861 0.75866 0.0
H1642 H 0.57998 0.26015 0.80856 0.0
H1643 H 0.52027 0.34885 0.57219 0.0
H1644 H 0.97214 0.24873 0.41815 0.0
H1645 H 1.0014 0.27727 0.41852 0.0
H1646 H 1.02319 0.25385 0.4947 0.0
H1647 H 0.99396 0.22507 0.49419 0.0
H1648 H 1.0257 0.29842 0.49563 0.0
H1649 H 0.05283 0.24501 0.43327 0.0
H1650 H 0.05114 0.2211 0.39367 0.0
H1651 H 1.04247 0.27891 0.34445 0.0
H1652 H 1.04381 0.30315 0.38382 0.0
H1653 H 0.12682 0.36311 0.49957 0.0
H1654 H 0.09834 0.33377 0.49866 0.0
H1655 H 0.08206 0.35169 0.41841 0.0
H1656 H 0.11114 0.38079 0.41926 0.0
H1657 H 0.07644 0.30986 0.41955 0.0
H1658 H 1.0485 0.36351 0.48068 0.0
H1659 H 1.04896 0.38807 0.51978 0.0
H1660 H 0.0576 0.33124 0.57054 0.0
H1661 H 0.05744 0.30634 0.53173 0.0
C1662 C 0.98314 0.24932 0.43499 0.0
C1663 C 0.98002 0.23398 0.45611 0.0
C1664 C 1.00024 0.26594 0.43519 0.0
C1665 C 1.01533 0.26828 0.45657 0.0
C1666 C 1.0122 0.25303 0.47777 0.0
C1667 C 0.99519 0.23626 0.47745 0.0
C1668 C 1.03401 0.28641 0.45686 0.0
C1669 C 1.0369 0.30056 0.47901 0.0
C1670 C 1.04881 0.29037 0.43522 0.0
C1671 C 1.0482 0.27587 0.41152 0.0
C1672 C 1.05042 0.25261 0.41402 0.0
C1673 C 1.04954 0.239 0.39162 0.0
C1674 C 1.04664 0.24848 0.36657 0.0
C1675 C 1.04468 0.27159 0.36387 0.0
C1676 C 1.04552 0.28528 0.38622 0.0
C1677 C 0.11722 0.36093 0.48163 0.0
C1678 C 0.12192 0.37458 0.45939 0.0
C1679 C 0.1005 0.34398 0.48115 0.0
C1680 C 0.08695 0.34007 0.45863 0.0
C1681 C 0.09174 0.35373 0.4363 0.0
C1682 C 0.10869 0.37057 0.43671 0.0
C1683 C 0.06817 0.32198 0.45834 0.0
C1684 C 0.06525 0.3078 0.43619 0.0
C1685 C 0.05317 0.31817 0.47989 0.0
C1686 C 0.05315 0.33308 0.50327 0.0
C1687 C 1.05062 0.35626 0.50017 0.0
C1688 C 0.05083 0.37025 0.52228 0.0
C1689 C 0.05337 0.36122 0.54761 0.0
C1690 C 0.05566 0.3382 0.5509 0.0
C1691 C 0.05549 0.32414 0.52886 0.0
H1692 H 0.05347 0.37204 0.56472 0.0
H1693 H 1.04596 0.23791 0.34925 0.0
H1694 H 0.12431 0.73924 0.25383 0.0
H1695 H 0.09585 0.76832 0.2539 0.0
H1696 H 0.08823 0.76115 0.16966 0.0
H1697 H 0.11697 0.73244 0.16959 0.0
H1698 H 0.0851 0.80362 0.1791 0.0
H1699 H 1.0488 0.74131 0.22051 0.0
H1700 H 1.04385 0.71131 0.25353 0.0
H1701 H 1.04283 0.75979 0.31591 0.0
H1702 H 1.04816 0.7901 0.28329 0.0
H1703 H 0.98757 0.87184 0.16688 0.0
H1704 H 1.01543 0.8424 0.16708 0.0
H1705 H 1.01549 0.84268 0.2523 0.0
H1706 H 0.98704 0.87169 0.25193 0.0
H1707 H 1.0226 0.80317 0.24273 0.0
H1708 H 0.06295 0.86459 0.20389 0.0
H1709 H 0.07224 0.89491 0.17267 0.0
H1710 H 0.06745 0.84916 0.10759 0.0
H1711 H 0.05847 0.81847 0.13856 0.0
C1712 C 0.11675 0.74379 0.23519 0.0
C1713 C 0.12343 0.73285 0.21168 0.0
C1714 C 0.10001 0.76056 0.23526 0.0
C1715 C 0.08893 0.76738 0.21183 0.0
C1716 C 0.09592 0.75671 0.1883 0.0
C1717 C 0.11256 0.73989 0.18826 0.0
C1718 C 0.07056 0.78556 0.21161 0.0
C1719 C 0.07132 0.80314 0.1929 0.0
C1720 C 0.0524 0.78613 0.22981 0.0
C1721 C 1.04909 0.76797 0.24946 0.0
C1722 C 1.04768 0.74558 0.24128 0.0
C1723 C 1.0448 0.72851 0.25993 0.0
C1724 C 1.04306 0.73365 0.28679 0.0
C1725 C 1.04421 0.75585 0.29509 0.0
C1726 C 1.04716 0.77298 0.27652 0.0
C1727 C 0.99358 0.86594 0.18576 0.0
C1728 C 0.98464 0.87489 0.20934 0.0
C1729 C 1.00997 0.84883 0.18593 0.0
C1730 C 1.01884 0.83987 0.20975 0.0
C1731 C 1.00962 0.84866 0.23334 0.0
C1732 C 0.99303 0.86558 0.23313 0.0
C1733 C 1.03713 0.82144 0.21018 0.0
C1734 C 1.03635 0.80373 0.22892 0.0
C1735 C 0.05547 0.82084 0.1922 0.0
C1736 C 0.05982 0.83934 0.17347 0.0
C1737 C 0.06368 0.86107 0.18289 0.0
C1738 C 0.06897 0.87829 0.16525 0.0
C1739 C 0.07032 0.87399 0.13812 0.0
C1740 C 0.06638 0.85246 0.12859 0.0
C1741 C 0.06128 0.83513 0.14619 0.0
H1742 H 0.07454 0.8873 0.12446 0.0
H1743 H 1.04072 0.72043 0.30117 0.0
H1744 H 0.19352 0.18337 0.89321 0.0
H1745 H 0.22414 0.1832 0.92525 0.0
H1746 H 0.27042 0.17051 0.86231 0.0
H1747 H 0.23976 0.17026 0.8304 0.0
H1748 H 0.28552 0.14816 0.90128 0.0
H1749 H 0.26312 0.22466 0.89951 0.0
H1750 H 0.23717 0.25614 0.90305 0.0
H1751 H 0.22277 0.238 0.98353 0.0
H1752 H 0.24844 0.20622 0.98036 0.0
H1753 H 0.38449 0.16949 0.97684 0.0
H1754 H 0.35339 0.16909 0.94627 0.0
H1755 H 0.30903 0.18605 0.00969 0.0
H1756 H 0.34068 0.18704 0.04056 0.0
H1757 H 0.29256 0.20593 0.97076 0.0
H1758 H 0.31549 0.12917 0.97232 0.0
H1759 H 0.34277 0.09883 0.96876 0.0
H1760 H 0.35663 0.11781 0.88842 0.0
H1761 H 0.3296 0.14841 0.89159 0.0
C1762 C 0.21017 0.18058 0.88595 0.0
C1763 C 0.21352 0.17688 0.85852 0.0
C1764 C 0.22806 0.18065 0.90459 0.0
C1765 C 0.2505 0.17724 0.89699 0.0
C1766 C 0.25377 0.17327 0.8696 0.0
C1767 C 0.23589 0.17318 0.85096 0.0
C1768 C 0.27025 0.17757 0.91714 0.0
C1769 C 0.28696 0.16107 0.91619 0.0
C1770 C 0.27287 0.19384 0.93761 0.0
C1771 C 0.25751 0.21294 0.9396 0.0
C1772 C 0.2543 0.2273 0.91791 0.0
C1773 C 0.23966 0.2452 0.91985 0.0
C1774 C 0.22828 0.24903 0.94348 0.0
C1775 C 0.23157 0.23499 0.96523 0.0
C1776 C 0.24617 0.21704 0.96338 0.0
C1777 C 0.36817 0.17283 0.98471 0.0
C1778 C 0.36572 0.17782 0.01195 0.0
C1779 C 0.34993 0.17259 0.96677 0.0
C1780 C 0.32784 0.17702 0.97481 0.0
C1781 C 0.32538 0.18235 1.00206 0.0
C1782 C 0.34376 0.18276 0.02009 0.0
C1783 C 0.30779 0.17644 0.95503 0.0
C1784 C 0.29106 0.19293 0.95598 0.0
C1785 C 0.30512 0.16013 0.93456 0.0
C1786 C 0.32065 0.14118 0.93227 0.0
C1787 C 0.32436 0.12686 0.9539 0.0
C1788 C 0.33979 0.10964 0.95196 0.0
C1789 C 0.35145 0.10642 0.92839 0.0
C1790 C 0.34758 0.12032 0.90666 0.0
C1791 C 0.33217 0.13758 0.9085 0.0
H1792 H 0.36344 0.09313 0.92697 0.0
H1793 H 0.21696 0.2629 0.94495 0.0
H1794 H 0.64891 0.48321 0.09812 0.0
H1795 H 0.64833 0.51509 0.1285 0.0
H1796 H 0.70192 0.48646 0.17308 0.0
H1797 H 0.70314 0.45488 0.14215 0.0
H1798 H 0.67008 0.50405 0.20744 0.0
H1799 H 0.7124 0.53195 0.13377 0.0
H1800 H 0.72029 0.54121 0.08713 0.0
H1801 H 0.66189 0.58177 0.08385 0.0
H1802 H 0.65378 0.57289 0.13061 0.0
H1803 H 0.70061 0.63085 0.24219 0.0
H1804 H 0.70212 0.5984 0.21293 0.0
H1805 H 0.64209 0.57255 0.2481 0.0
H1806 H 0.64059 0.60505 0.2774 0.0
H1807 H 0.6798 0.58138 0.17435 0.0
H1808 H 0.63852 0.51481 0.24234 0.0
H1809 H 0.63551 0.50532 0.28975 0.0
H1810 H 0.69578 0.54164 0.30561 0.0
H1811 H 0.69931 0.5511 0.25826 0.0
C1812 C 0.66076 0.48358 0.11422 0.0
C1813 C 0.67629 0.46607 0.11696 0.0
C1814 C 0.6604 0.50209 0.13183 0.0
C1815 C 0.67516 0.50382 0.15353 0.0
C1816 C 0.69024 0.48604 0.15679 0.0
C1817 C 0.69096 0.46777 0.13882 0.0
C1818 C 0.67493 0.52401 0.17248 0.0
C1819 C 0.67185 0.52095 0.19999 0.0
C1820 C 0.67776 0.54646 0.16368 0.0
C1821 C 0.68235 0.55153 0.13553 0.0
C1822 C 0.70115 0.54269 0.12302 0.0
C1823 C 0.70571 0.54795 0.09661 0.0
C1824 C 0.69151 0.56194 0.08247 0.0
C1825 C 0.67283 0.57087 0.0948 0.0
C1826 C 0.66829 0.56581 0.12128 0.0
C1827 C 0.6877 0.61833 0.24396 0.0
C1828 C 0.67054 0.62111 0.2628 0.0
C1829 C 0.68854 0.5995 0.22688 0.0
C1830 C 0.67242 0.58219 0.2279 0.0
C1831 C 0.65518 0.58498 0.24666 0.0
C1832 C 0.65425 0.60392 0.26361 0.0
C1833 C 0.67354 0.5617 0.20933 0.0
C1834 C 0.67717 0.56463 0.18187 0.0
C1835 C 0.67115 0.53916 0.21824 0.0
C1836 C 0.66904 0.53384 0.24679 0.0
C1837 C 0.65115 0.52074 0.25594 0.0
C1838 C 0.64937 0.51534 0.2828 0.0
C1839 C 0.66546 0.52284 0.30066 0.0
C1840 C 0.68333 0.53583 0.29174 0.0
C1841 C 0.6852 0.54126 0.26491 0.0
H1842 H 0.66406 0.51865 0.32145 0.0
H1843 H 0.69504 0.56592 0.06198 0.0
H1844 H 0.36137 0.9407 0.33365 0.0
H1845 H 0.33088 0.94031 0.36578 0.0
H1846 H 0.37155 0.90386 0.42064 0.0
H1847 H 0.40229 0.90442 0.38846 0.0
H1848 H 0.32892 0.88662 0.42205 0.0
H1849 H 0.3593 0.9606 0.42894 0.0
H1850 H 0.37162 0.99738 0.41226 0.0
H1851 H 0.30589 1.01033 0.38345 0.0
H1852 H 0.29324 0.97347 0.39962 0.0
H1853 H 0.25276 0.89639 0.53193 0.0
H1854 H 0.28466 0.8966 0.50183 0.0
H1855 H 0.25271 0.94618 0.45346 0.0
H1856 H 0.22143 0.9467 0.4842 0.0
H1857 H 0.29195 0.95652 0.44893 0.0
H1858 H 0.26134 0.88305 0.43819 0.0
H1859 H 0.24817 0.84567 0.45166 0.0
H1860 H 0.31222 0.83105 0.48425 0.0
H1861 H 0.3258 0.86845 0.47116 0.0
C1862 C 0.36401 0.9325 0.35246 0.0
C1863 C 0.3848 0.92256 0.35788 0.0
C1864 C 0.34633 0.93241 0.3712 0.0
C1865 C 0.34831 0.92217 0.39638 0.0
C1866 C 0.36899 0.91196 0.40172 0.0
C1867 C 0.38684 0.91236 0.3831 0.0
C1868 C 0.32907 0.92222 0.41685 0.0
C1869 C 0.32113 0.90204 0.4281 0.0
C1870 C 0.31786 0.94198 0.42484 0.0
C1871 C 0.32538 0.96419 0.41527 0.0
C1872 C 0.34751 0.97122 0.41887 0.0
C1873 C 0.35455 0.99209 0.40954 0.0
C1874 C 0.33956 1.00616 0.39675 0.0
C1875 C 0.31748 0.99941 0.39333 0.0
C1876 C 0.31037 0.97853 0.40259 0.0
C1877 C 0.25242 0.90745 0.51497 0.0
C1878 C 0.23395 0.92158 0.51112 0.0
C1879 C 0.27088 0.90738 0.49721 0.0
C1880 C 0.27172 0.92104 0.47416 0.0
C1881 C 0.25329 0.93531 0.47058 0.0
C1882 C 0.23502 0.9356 0.4885 0.0
C1883 C 0.29148 0.92082 0.4542 0.0
C1884 C 0.2996 0.94102 0.44298 0.0
C1885 C 0.30262 0.90102 0.4459 0.0
C1886 C 0.2945 0.87863 0.45398 0.0
C1887 C 0.27257 0.87193 0.4484 0.0
C1888 C 0.26504 0.85072 0.45592 0.0
C1889 C 0.27929 0.83602 0.46888 0.0
C1890 C 0.30117 0.84247 0.47427 0.0
C1891 C 0.30881 0.86366 0.46677 0.0
H1892 H 0.27339 0.81961 0.47469 0.0
H1893 H 0.34504 1.02231 0.38954 0.0
H1894 H 0.91374 0.61498 0.58442 0.0
H1895 H 0.91489 0.58422 0.61629 0.0
H1896 H 0.93315 0.63027 0.6779 0.0
H1897 H 0.93227 0.66121 0.64572 0.0
H1898 H 0.95539 0.59368 0.68797 0.0
H1899 H 0.8778 0.60281 0.66978 0.0
H1900 H 0.84432 0.60548 0.64186 0.0
H1901 H 0.85597 0.5397 0.61166 0.0
H1902 H 0.88968 0.53675 0.63916 0.0
H1903 H 0.93878 0.51276 0.79372 0.0
H1904 H 0.93739 0.54497 0.76357 0.0
H1905 H 0.91439 0.50213 0.70088 0.0
H1906 H 0.91513 0.47031 0.73115 0.0
H1907 H 0.89436 0.53787 0.69208 0.0
H1908 H 0.9718 0.52831 0.70867 0.0
H1909 H 1.00557 0.52478 0.73592 0.0
H1910 H 0.99504 0.59016 0.76792 0.0
H1911 H 0.96102 0.59396 0.74111 0.0
C1912 C 0.91795 0.61884 0.6047 0.0
C1913 C 0.92275 0.64126 0.61183 0.0
C1914 C 0.91848 0.6009 0.62336 0.0
C1915 C 0.92374 0.60416 0.65047 0.0
C1916 C 0.92891 0.62653 0.65756 0.0
C1917 C 0.92832 0.64455 0.63886 0.0
C1918 C 0.92385 0.58454 0.67099 0.0
C1919 C 0.94176 0.58178 0.68891 0.0
C1920 C 0.90667 0.56797 0.67277 0.0
C1921 C 0.88637 0.56965 0.65634 0.0
C1922 C 0.87329 0.58897 0.65706 0.0
C1923 C 0.85426 0.59053 0.64132 0.0
C1924 C 0.84805 0.57279 0.62495 0.0
C1925 C 0.86082 0.55343 0.62433 0.0
C1926 C 0.87987 0.5518 0.64 0.0
C1927 C 0.93327 0.51005 0.77358 0.0
C1928 C 0.92702 0.48822 0.76552 0.0
C1929 C 0.93271 0.52877 0.75589 0.0
C1930 C 0.92616 0.52678 0.72892 0.0
C1931 C 0.9196 0.505 0.7211 0.0
C1932 C 0.92008 0.48639 0.73877 0.0
C1933 C 0.92595 0.5469 0.70904 0.0
C1934 C 0.90801 0.54976 0.6912 0.0
C1935 C 0.94319 0.56342 0.70721 0.0
C1936 C 0.96375 0.56133 0.72309 0.0
C1937 C 0.97663 0.54189 0.72163 0.0
C1938 C 0.99581 0.53984 0.73699 0.0
C1939 C 1.00241 0.55721 0.7537 0.0
C1940 C 0.98988 0.5767 0.75501 0.0
C1941 C 0.97065 0.57882 0.73972 0.0
H1942 H 1.01726 0.55558 0.7656 0.0
H1943 H 0.83332 0.57403 0.61278 0.0
H1944 H 0.72303 0.94484 0.03641 0.0
H1945 H 0.75392 0.94439 0.06732 0.0
H1946 H 0.79296 0.9079 0.01097 0.0
H1947 H 0.76109 0.9072 0.98039 0.0
H1948 H 0.80636 0.89344 0.05457 0.0
H1949 H 0.79849 0.971 0.03147 0.0
H1950 H 0.77765 1.00596 0.02567 0.0
H1951 H 0.76104 1.0058 0.10829 0.0
H1952 H 0.78159 0.9707 0.11452 0.0
H1953 H 0.90974 0.91449 0.12503 0.0
H1954 H 0.87885 0.91369 0.09322 0.0
H1955 H 0.83569 0.94188 0.15191 0.0
H1956 H 0.86652 0.94262 0.1837 0.0
H1957 H 0.82508 0.96094 0.10668 0.0
H1958 H 0.83324 0.88403 0.12979 0.0
H1959 H 0.85289 0.84842 0.13574 0.0
H1960 H 0.8688 0.84738 0.05293 0.0
H1961 H 0.84948 0.88315 0.04656 0.0
C1962 C 0.7382 0.93699 0.03012 0.0
C1963 C 0.73913 0.92665 1.00498 0.0
C1964 C 0.75636 0.93685 0.04813 0.0
C1965 C 0.777 0.92693 0.04193 0.0
C1966 C 0.77783 0.91609 0.01695 0.0
C1967 C 0.75937 0.91581 0.99907 0.0
C1968 C 0.79718 0.92759 0.06139 0.0
C1969 C 0.81052 0.90849 0.06541 0.0
C1970 C 0.80312 0.94669 0.07692 0.0
C1971 C 0.79147 0.96818 0.07342 0.0
C1972 C 0.79039 0.97843 0.04839 0.0
C1973 C 0.77861 0.99825 0.04502 0.0
C1974 C 0.76802 1.00808 0.06659 0.0
C1975 C 0.76926 0.99817 0.0916 0.0
C1976 C 0.78101 0.97834 0.09508 0.0
C1977 C 0.89371 0.9205 0.13139 0.0
C1978 C 0.89118 0.92853 0.15758 0.0
C1979 C 0.87571 0.91992 0.11294 0.0
C1980 C 0.85412 0.92748 0.11952 0.0
C1981 C 0.85171 0.93582 0.14558 0.0
C1982 C 0.86964 0.93616 0.1641 0.0
C1983 C 0.83436 0.92691 0.09956 0.0
C1984 C 0.82104 0.94599 0.09559 0.0
C1985 C 0.82851 0.90784 0.08402 0.0
C1986 C 0.84014 0.88638 0.08776 0.0
C1987 C 0.84109 0.87629 0.11289 0.0
C1988 C 0.85213 0.85607 0.11634 0.0
C1989 C 0.86215 0.84568 0.09474 0.0
C1990 C 0.86107 0.85547 0.06965 0.0
C1991 C 0.85007 0.87571 0.06611 0.0
H1992 H 0.87069 0.83002 0.09744 0.0
H1993 H 0.75887 1.02339 0.06393 0.0
H1994 H 0.40525 0.6605 0.87386 0.0
H1995 H 0.40742 0.63086 0.84071 0.0
H1996 H 0.42964 0.58496 0.90062 0.0
H1997 H 0.42824 0.61486 0.9336 0.0
H1998 H 0.45103 0.57332 0.86072 0.0
H1999 H 0.37285 0.58622 0.86569 0.0
H2000 H 0.33836 0.60811 0.86433 0.0
H2001 H 0.35221 0.6274 0.78408 0.0
H2002 H 0.38692 0.60582 0.78507 0.0
H2003 H 0.43831 0.47411 0.7839 0.0
H2004 H 0.43421 0.50437 0.81538 0.0
H2005 H 0.41658 0.54876 0.75178 0.0
H2006 H 0.41918 0.51747 0.72018 0.0
H2007 H 0.39304 0.56166 0.79248 0.0
H2008 H 0.47136 0.54721 0.78813 0.0
H2009 H 0.5043 0.52305 0.78982 0.0
H2010 H 0.48893 0.50507 0.87009 0.0
H2011 H 0.45573 0.52892 0.86877 0.0
C2012 C 0.41035 0.64407 0.88029 0.0
C2013 C 0.41621 0.64061 0.90718 0.0
C2014 C 0.41152 0.62673 0.86097 0.0
C2015 C 0.41833 0.6047 0.86735 0.0
C2016 C 0.42424 0.6013 0.89425 0.0
C2017 C 0.42325 0.61869 0.91353 0.0
C2018 C 0.41974 0.58558 0.84637 0.0
C2019 C 0.43804 0.57084 0.84615 0.0
C2020 C 0.40343 0.58167 0.82624 0.0
C2021 C 0.38259 0.59461 0.82555 0.0
C2022 C 0.3686 0.59525 0.84781 0.0
C2023 C 0.34901 0.60758 0.8471 0.0
C2024 C 0.34313 0.61919 0.82416 0.0
C2025 C 0.3568 0.61843 0.80185 0.0
C2026 C 0.37643 0.60614 0.80247 0.0
C2027 C 0.43301 0.49005 0.7764 0.0
C2028 C 0.42862 0.49252 0.74901 0.0
C2029 C 0.43114 0.50791 0.7947 0.0
C2030 C 0.42546 0.52981 0.78676 0.0
C2031 C 0.42107 0.53247 0.75926 0.0
C2032 C 0.42272 0.51435 0.74086 0.0
C2033 C 0.42425 0.54946 0.80696 0.0
C2034 C 0.40603 0.56426 0.80703 0.0
C2035 C 0.44055 0.55334 0.82708 0.0
C2036 C 0.46098 0.53974 0.82829 0.0
C2037 C 0.475 0.53809 0.80614 0.0
C2038 C 0.4937 0.52443 0.80702 0.0
C2039 C 0.49868 0.5125 0.83003 0.0
C2040 C 0.48504 0.51432 0.85227 0.0
C2041 C 0.4663 0.52793 0.85149 0.0
H2042 H 0.51311 0.50188 0.83064 0.0
H2043 H 0.32796 0.62873 0.82365 0.0
H2044 H 0.71351 0.21583 0.64877 0.0
H2045 H 0.74515 0.21667 0.61819 0.0
H2046 H 0.74142 0.14521 0.61095 0.0
H2047 H 0.7096 0.14437 0.64157 0.0
H2048 H 0.78481 0.15708 0.61361 0.0
H2049 H 0.7246 0.18312 0.56026 0.0
H2050 H 0.69305 0.20737 0.54914 0.0
H2051 H 0.73619 0.26478 0.55004 0.0
H2052 H 0.76795 0.24091 0.56163 0.0
H2053 H 0.86557 0.1501 0.50878 0.0
H2054 H 0.83293 0.14804 0.5374 0.0
H2055 H 0.82507 0.21924 0.53066 0.0
H2056 H 0.85689 0.22094 0.5005 0.0
H2057 H 0.78681 0.20707 0.53544 0.0
H2058 H 0.84644 0.18266 0.59159 0.0
H2059 H 0.87782 0.15961 0.60653 0.0
H2060 H 0.83661 0.10086 0.60298 0.0
H2061 H 0.80503 0.12355 0.58786 0.0
C2062 C 0.71926 0.20019 0.64071 0.0
C2063 C 0.70848 0.18001 0.64819 0.0
C2064 C 0.73758 0.20069 0.62284 0.0
C2065 C 0.74629 0.18104 0.61142 0.0
C2066 C 0.73558 0.16083 0.61899 0.0
C2067 C 0.71704 0.16035 0.63664 0.0
C2068 C 0.76631 0.18156 0.59196 0.0
C2069 C 0.78497 0.16787 0.59635 0.0
C2070 C 0.7676 0.1959 0.56939 0.0
C2071 C 0.74862 0.21025 0.56206 0.0
C2072 C 0.72734 0.20093 0.55826 0.0
C2073 C 0.70941 0.21461 0.55186 0.0
C2074 C 0.7126 0.23761 0.54894 0.0
C2075 C 0.73374 0.24697 0.55234 0.0
C2076 C 0.75171 0.23337 0.55882 0.0
C2077 C 0.85699 0.16542 0.51326 0.0
C2078 C 0.8645 0.18572 0.50182 0.0
C2079 C 0.8381 0.1643 0.53029 0.0
C2080 C 0.82598 0.18355 0.53775 0.0
C2081 C 0.83344 0.20383 0.526 0.0
C2082 C 0.85203 0.20485 0.50847 0.0
C2083 C 0.80569 0.18266 0.55709 0.0
C2084 C 0.78686 0.19629 0.55268 0.0
C2085 C 0.80436 0.16845 0.57991 0.0
C2086 C 0.82345 0.15476 0.58838 0.0
C2087 C 0.84414 0.1648 0.5938 0.0
C2088 C 0.86194 0.1518 0.60233 0.0
C2089 C 0.8592 0.12877 0.60566 0.0
C2090 C 0.8387 0.11869 0.60037 0.0
C2091 C 0.82084 0.13161 0.59186 0.0
H2092 H 0.8729 0.11873 0.61249 0.0
H2093 H 0.69871 0.24817 0.54399 0.0
H2094 H 0.2108 0.46025 0.39215 0.0
H2095 H 0.20991 0.49198 0.3611 0.0
H2096 H 0.14255 0.50549 0.38401 0.0
H2097 H 0.14347 0.47403 0.41511 0.0
H2098 H 0.14526 0.51105 0.33174 0.0
H2099 H 0.1896 0.53958 0.40373 0.0
H2100 H 0.22102 0.54016 0.43509 0.0
H2101 H 0.26708 0.54073 0.37031 0.0
H2102 H 0.23596 0.5402 0.33854 0.0
H2103 H 0.13487 0.6151 0.26217 0.0
H2104 H 0.13593 0.5841 0.2932 0.0
H2105 H 0.20743 0.58372 0.28839 0.0
H2106 H 0.20619 0.61628 0.25898 0.0
H2107 H 0.20274 0.57058 0.33206 0.0
H2108 H 0.15991 0.53923 0.25948 0.0
H2109 H 0.12916 0.5371 0.2272 0.0
H2110 H 0.08169 0.53958 0.29042 0.0
H2111 H 0.11212 0.54147 0.32308 0.0
C2112 C 0.19573 0.46989 0.39067 0.0
C2113 C 0.17724 0.46408 0.40665 0.0
C2114 C 0.19525 0.48839 0.3728 0.0
C2115 C 0.17619 0.50194 0.36978 0.0
C2116 C 0.15762 0.49582 0.38541 0.0
C2117 C 0.15819 0.47757 0.40349 0.0
C2118 C 0.17539 0.5221 0.35048 0.0
C2119 C 0.15784 0.5241 0.33209 0.0
C2120 C 0.19178 0.53941 0.34972 0.0
C2121 C 0.21046 0.53963 0.36878 0.0
C2122 C 0.20643 0.53967 0.39618 0.0
C2123 C 0.22418 0.54002 0.41403 0.0
C2124 C 0.24601 0.54033 0.40471 0.0
C2125 C 0.25016 0.54043 0.3775 0.0
C2126 C 0.23248 0.54017 0.35957 0.0
C2127 C 0.1509 0.60845 0.26755 0.0
C2128 C 0.1704 0.6186 0.25743 0.0
C2129 C 0.15157 0.59008 0.28543 0.0
C2130 C 0.17179 0.58004 0.29346 0.0
C2131 C 0.19134 0.59035 0.28325 0.0
C2132 C 0.19067 0.60923 0.26599 0.0
C2133 C 0.17272 0.55954 0.31261 0.0
C2134 C 0.19023 0.5575 0.33124 0.0
C2135 C 0.15649 0.54191 0.31324 0.0
C2136 C 0.13825 0.5407 0.29366 0.0
C2137 C 0.1429 0.53938 0.26646 0.0
C2138 C 0.12555 0.53821 0.24811 0.0
C2139 C 0.10351 0.53837 0.25674 0.0
C2140 C 0.09877 0.53951 0.28376 0.0
C2141 C 0.11604 0.54053 0.3022 0.0
H2142 H 0.09012 0.53752 0.24248 0.0
H2143 H 0.25972 0.54058 0.41856 0.0
H2144 H 0.73671 0.66175 0.33724 0.0
H2145 H 0.76708 0.66242 0.36964 0.0
H2146 H 0.72758 0.70268 0.42156 0.0
H2147 H 0.69685 0.70163 0.3893 0.0
H2148 H 0.77241 0.71839 0.42031 0.0
H2149 H 0.73627 0.6475 0.43492 0.0
H2150 H 0.7214 0.61072 0.42171 0.0
H2151 H 0.78614 0.59113 0.39542 0.0
H2152 H 0.80134 0.62794 0.40811 0.0
H2153 H 0.8454 0.71119 0.53306 0.0
H2154 H 0.81389 0.71048 0.50238 0.0
H2155 H 0.84393 0.6564 0.45977 0.0
H2156 H 0.87489 0.65647 0.49115 0.0
H2157 H 0.80347 0.64808 0.4558 0.0
H2158 H 0.8407 0.71689 0.43992 0.0
H2159 H 0.85733 0.75334 0.45127 0.0
H2160 H 0.79353 0.77746 0.47512 0.0
H2161 H 0.77659 0.74086 0.46491 0.0
C2162 C 0.73429 0.67081 0.35549 0.0
C2163 C 0.71381 0.68162 0.36012 0.0
C2164 C 0.75191 0.67113 0.37433 0.0
C2165 C 0.75023 0.68257 0.39873 0.0
C2166 C 0.72989 0.69367 0.40324 0.0
C2167 C 0.71205 0.69298 0.38458 0.0
C2168 C 0.76936 0.68265 0.41934 0.0
C2169 C 0.77889 0.70294 0.42828 0.0
C2170 C 0.77895 0.66275 0.42966 0.0
C2171 C 0.7699 0.64056 0.42223 0.0
C2172 C 0.74731 0.63541 0.42614 0.0
C2173 C 0.73882 0.61455 0.41877 0.0
C2174 C 0.75281 0.59862 0.40767 0.0
C2175 C 0.77532 0.6035 0.40398 0.0
C2176 C 0.78388 0.62436 0.41127 0.0
C2177 C 0.84537 0.69897 0.51732 0.0
C2178 C 0.86322 0.68383 0.51524 0.0
C2179 C 0.82716 0.69872 0.49925 0.0
C2180 C 0.82598 0.6837 0.47758 0.0
C2181 C 0.8437 0.66835 0.4758 0.0
C2182 C 0.86175 0.6684 0.49407 0.0
C2183 C 0.80665 0.6839 0.45705 0.0
C2184 C 0.79708 0.66362 0.44799 0.0
C2185 C 0.79736 0.70385 0.44619 0.0
C2186 C 0.8074 0.72602 0.4519 0.0
C2187 C 0.83022 0.72991 0.44774 0.0
C2188 C 0.83971 0.7506 0.45397 0.0
C2189 C 0.8265 0.76773 0.46381 0.0
C2190 C 0.80375 0.76417 0.46751 0.0
C2191 C 0.7942 0.74343 0.46159 0.0
H2192 H 0.83389 0.78374 0.46857 0.0
H2193 H 0.74621 0.58248 0.40198 0.0
H2194 H 0.20478 0.11878 0.75737 0.0
H2195 H 0.20631 0.08711 0.72657 0.0
H2196 H 0.13522 0.08056 0.73011 0.0
H2197 H 0.13371 0.11173 0.76172 0.0
H2198 H 0.19256 1.04063 0.72896 0.0
H2199 H 0.11829 0.06641 0.66332 0.0
H2200 H 0.09928 0.10067 0.64939 0.0
H2201 H 0.15871 0.13896 0.66299 0.0
H2202 H 0.17827 0.10481 0.67655 0.0
H2203 H 0.16714 0.94703 0.64328 0.0
H2204 H 0.16606 0.97788 0.67511 0.0
H2205 H 0.18047 1.02459 0.61247 0.0
H2206 H 0.18123 0.99376 0.58057 0.0
H2207 H 0.15341 1.04542 0.64289 0.0
H2208 H 0.2198 1.00639 0.66468 0.0
H2209 H 0.24263 0.97395 0.67681 0.0
H2210 H 0.20486 0.96515 0.74818 0.0
H2211 H 0.18159 0.99737 0.73629 0.0
C2212 C 0.18938 0.11056 0.75195 0.0
C2213 C 0.16911 0.11826 0.76274 0.0
C2214 C 0.1903 0.09215 0.73411 0.0
C2215 C 0.17093 0.0808 0.72538 0.0
C2216 C 0.15063 0.08854 0.73604 0.0
C2217 C 0.14976 0.10658 0.75445 0.0
C2218 C 0.17188 0.06153 0.70487 0.0
C2219 C 0.18375 1.04176 0.7103 0.0
C2220 C 0.16115 0.06247 0.67973 0.0
C2221 C 0.14964 0.08305 0.67125 0.0
C2222 C 0.12733 0.08211 0.66324 0.0
C2223 C 0.11646 0.10154 0.65536 0.0
C2224 C 0.12772 0.12202 0.65531 0.0
C2225 C 0.14996 0.12311 0.66309 0.0
C2226 C 0.16095 0.10371 0.6709 0.0
C2227 C 0.17014 0.96382 0.63607 0.0
C2228 C 0.17441 0.96731 0.60878 0.0
C2229 C 0.16966 0.98177 0.65463 0.0
C2230 C 0.1735 1.00433 0.64705 0.0
C2231 C 0.17743 1.00781 0.61967 0.0
C2232 C 0.17798 0.98985 0.60113 0.0
C2233 C 0.17345 1.02399 0.66728 0.0
C2234 C 0.16192 1.04402 0.66171 0.0
C2235 C 0.18479 1.0234 0.69217 0.0
C2236 C 0.19882 1.00415 0.69947 0.0
C2237 C 0.21628 0.99745 0.68288 0.0
C2238 C 0.2293 0.97911 0.68972 0.0
C2239 C 0.22516 0.96746 0.71321 0.0
C2240 C 0.20802 0.97417 0.72996 0.0
C2241 C 0.19492 0.99247 0.7232 0.0
H2242 H 0.23526 0.95326 0.71847 0.0
H2243 H 0.11925 0.13703 0.64917 0.0
H2244 H 0.76007 0.44263 0.0509 0.0
H2245 H 0.79177 0.44622 0.02067 0.0
H2246 H 0.75361 0.4138 0.95939 0.0
H2247 H 0.72323 0.40828 0.99074 0.0
H2248 H 0.78928 0.40238 0.94708 0.0
H2249 H 0.77229 0.4781 0.9677 0.0
H2250 H 0.7656 0.51094 0.99593 0.0
H2251 H 0.83143 0.50597 0.02783 0.0
H2252 H 0.83842 0.47294 1.00009 0.0
H2253 H 0.86038 0.4425 0.84062 0.0
H2254 H 0.83016 0.4395 0.87304 0.0
H2255 H 0.87789 0.44179 0.93631 0.0
H2256 H 0.90828 0.44321 0.90369 0.0
H2257 H 0.83866 0.46888 0.94706 0.0
H2258 H 0.85394 0.39296 0.92054 0.0
H2259 H 0.85877 0.36369 0.88686 0.0
H2260 H 0.79202 0.37368 0.85973 0.0
H2261 H 0.78691 0.40329 0.89298 0.0
C2262 C 0.75839 0.43634 0.03093 0.0
C2263 C 0.73842 0.42557 0.02338 0.0
C2264 C 0.7767 0.43868 0.01313 0.0
C2265 C 0.77576 0.43111 0.98645 0.0
C2266 C 0.75573 0.42009 0.97929 0.0
C2267 C 0.73785 0.41707 0.99738 0.0
C2268 C 0.79532 0.43399 0.96635 0.0
C2269 C 0.79962 0.41725 0.94722 0.0
C2270 C 0.80987 0.45303 0.96546 0.0
C2271 C 0.80578 0.47291 0.98204 0.0
C2272 C 0.78528 0.48395 0.98085 0.0
C2273 C 0.78144 0.50258 0.99675 0.0
C2274 C 0.79804 0.51047 0.0137 0.0
C2275 C 0.81856 0.4998 0.01473 0.0
C2276 C 0.82249 0.48113 0.99892 0.0
C2277 C 0.86465 0.44166 0.86133 0.0
C2278 C 0.88727 0.44226 0.86891 0.0
C2279 C 0.8471 0.44032 0.88017 0.0
C2280 C 0.85118 0.44009 0.90775 0.0
C2281 C 0.87374 0.44183 0.91546 0.0
C2282 C 0.89134 0.44274 0.89655 0.0
C2283 C 0.83215 0.43746 0.92816 0.0
C2284 C 0.82807 0.45416 0.9472 0.0
C2285 C 0.81732 0.41881 0.92839 0.0
C2286 C 0.82009 0.40043 0.90913 0.0
C2287 C 0.84032 0.38896 0.90733 0.0
C2288 C 0.84311 0.37232 0.88831 0.0
C2289 C 0.82572 0.36685 0.87114 0.0
C2290 C 0.80547 0.37794 0.87304 0.0
C2291 C 0.80261 0.39464 0.89199 0.0
H2292 H 0.82794 0.35401 0.85639 0.0
H2293 H 0.79503 0.5249 0.02599 0.0
H2294 H 0.40752 0.96409 0.22623 0.0
H2295 H 0.40578 0.99653 0.19648 0.0
H2296 H 0.43901 1.03681 0.25489 0.0
H2297 H 0.44183 1.00408 0.28427 0.0
H2298 H 0.39687 0.05701 0.22848 0.0
H2299 H 0.46895 1.03008 0.20936 0.0
H2300 H 0.49922 1.00504 0.19634 0.0
H2301 H 0.46632 0.99148 0.12267 0.0
H2302 H 0.43575 1.01652 0.13529 0.0
H2303 H 0.41683 0.15553 0.14763 0.0
H2304 H 0.41853 0.124 0.1787 0.0
H2305 H 0.40902 0.07819 0.1141 0.0
H2306 H 0.40679 0.10977 0.08323 0.0
H2307 H 0.43952 0.06089 0.14473 0.0
H2308 H 0.36776 0.09073 0.16465 0.0
H2309 H 0.3411 0.11987 0.17721 0.0
H2310 H 0.37555 0.12971 0.25071 0.0
H2311 H 0.4026 0.10083 0.23843 0.0
C2312 C 0.41446 0.97981 0.23299 0.0
C2313 C 0.42461 0.98107 0.25826 0.0
C2314 C 0.41351 0.99854 0.21569 0.0
C2315 C 0.42213 1.01964 0.22302 0.0
C2316 C 0.43205 1.02104 0.24836 0.0
C2317 C 0.43362 1.00212 0.26537 0.0
C2318 C 0.42069 1.03995 0.20438 0.0
C2319 C 0.40644 0.05785 0.21033 0.0
C2320 C 0.43271 1.04151 0.1802 0.0
C2321 C 0.44991 1.02494 0.17343 0.0
C2322 C 0.46794 1.02145 0.19059 0.0
C2323 C 0.48526 1.00739 0.18318 0.0
C2324 C 0.48476 0.99675 0.15864 0.0
C2325 C 0.46675 0.99987 0.1416 0.0
C2326 C 0.44942 1.01398 0.14888 0.0
C2327 C 0.41474 0.13878 0.13996 0.0
C2328 C 0.41202 0.13558 0.11241 0.0
C2329 C 0.41577 0.1205 0.15796 0.0
C2330 C 0.41391 0.09806 0.14936 0.0
C2331 C 0.41081 0.09493 0.12186 0.0
C2332 C 0.40971 0.11322 0.10392 0.0
C2333 C 0.41553 0.07802 0.1686 0.0
C2334 C 0.42979 0.06006 0.16276 0.0
C2335 C 0.40364 0.07653 0.19299 0.0
C2336 C 0.38733 0.09377 0.2005 0.0
C2337 C 0.36973 0.09922 0.18341 0.0
C2338 C 0.35454 0.11567 0.19049 0.0
C2339 C 0.35667 0.12668 0.21471 0.0
C2340 C 0.37395 0.1212 0.23194 0.0
C2341 C 0.3892 0.10477 0.22494 0.0
H2342 H 0.34489 0.13942 0.22015 0.0
H2343 H 0.49825 0.98597 0.15288 0.0
H2344 H 0.23638 0.46011 0.5038 0.0
H2345 H 0.26794 0.46342 0.53429 0.0
H2346 H 0.27572 0.39205 0.53287 0.0
H2347 H 0.24343 0.38876 0.50364 0.0
H2348 H 0.28473 0.40291 0.58015 0.0
H2349 H 0.31225 0.43473 0.49931 0.0
H2350 H 0.31249 0.46042 0.46109 0.0
H2351 H 0.31602 0.51659 0.51355 0.0
H2352 H 0.31554 0.49123 0.55211 0.0
H2353 H 0.3924 0.39958 0.64115 0.0
H2354 H 0.36098 0.39781 0.61043 0.0
H2355 H 0.35444 0.46921 0.61468 0.0
H2356 H 0.38629 0.47099 0.64513 0.0
H2357 H 0.34452 0.45903 0.56646 0.0
H2358 H 0.31623 0.4273 0.64706 0.0
H2359 H 0.31584 0.40169 0.68544 0.0
H2360 H 0.31338 0.34538 0.63314 0.0
H2361 H 0.31408 0.37066 0.59449 0.0
C2362 C 0.24446 0.44505 0.51028 0.0
C2363 C 0.23661 0.42415 0.50109 0.0
C2364 C 0.2631 0.44695 0.52759 0.0
C2365 C 0.27519 0.42805 0.53628 0.0
C2366 C 0.26728 0.40716 0.52702 0.0
C2367 C 0.24861 0.40528 0.50986 0.0
C2368 C 0.29569 0.42979 0.55489 0.0
C2369 C 0.29785 0.41506 0.57668 0.0
C2370 C 0.31318 0.44583 0.55168 0.0
C2371 C 0.31364 0.46109 0.52858 0.0
C2372 C 0.31295 0.45257 0.50269 0.0
C2373 C 0.31314 0.46707 0.48097 0.0
C2374 C 0.31421 0.49012 0.48489 0.0
C2375 C 0.31516 0.49873 0.51054 0.0
C2376 C 0.31495 0.4843 0.53234 0.0
C2377 C 0.38445 0.41502 0.63552 0.0
C2378 C 0.3924 0.43545 0.64609 0.0
C2379 C 0.36601 0.41398 0.61791 0.0
C2380 C 0.35426 0.43329 0.61002 0.0
C2381 C 0.36261 0.45381 0.62 0.0
C2382 C 0.38114 0.45486 0.6376 0.0
C2383 C 0.33359 0.43207 0.59161 0.0
C2384 C 0.3314 0.44688 0.5699 0.0
C2385 C 0.31604 0.4161 0.59485 0.0
C2386 C 0.31551 0.40085 0.61795 0.0
C2387 C 0.31582 0.40944 0.6438 0.0
C2388 C 0.31551 0.395 0.66558 0.0
C2389 C 0.31469 0.37193 0.66173 0.0
C2390 C 0.31408 0.36325 0.63609 0.0
C2391 C 0.31442 0.37763 0.61425 0.0
H2392 H 0.31445 0.36077 0.67861 0.0
H2393 H 0.31435 0.50132 0.46805 0.0
H2394 H 0.93031 0.16218 0.37134 0.0
H2395 H 0.9322 0.13118 0.33966 0.0
H2396 H 0.92467 0.08413 0.40359 0.0
H2397 H 0.9228 0.11505 0.43522 0.0
H2398 H 0.9543 0.06749 0.37101 0.0
H2399 H 0.88184 0.09731 0.35524 0.0
H2400 H 0.85473 0.12659 0.34451 0.0
H2401 H 0.88645 0.13761 0.26947 0.0
H2402 H 0.91397 0.1086 0.27993 0.0
H2403 H 0.92096 0.97093 0.29085 0.0
H2404 H 0.92096 1.00297 0.32105 0.0
H2405 H 0.9474 1.04484 0.25924 0.0
H2406 H 0.94853 1.01246 0.22922 0.0
H2407 H 0.90866 0.06457 0.2895 0.0
H2408 H 0.98141 1.03839 0.30418 0.0
H2409 H 1.01387 1.01576 0.31605 0.0
H2410 H 0.98474 1.00059 0.39157 0.0
H2411 H 0.95209 1.02337 0.38022 0.0
C2412 C 0.92899 0.14527 0.37882 0.0
C2413 C 0.92628 0.14163 0.40635 0.0
C2414 C 0.92995 0.12727 0.36041 0.0
C2415 C 0.92834 0.10462 0.36853 0.0
C2416 C 0.92595 0.10103 0.3961 0.0
C2417 C 0.92477 0.11901 0.41445 0.0
C2418 C 0.92941 0.08486 0.34874 0.0
C2419 C 0.94389 0.06683 0.35352 0.0
C2420 C 0.91669 0.08363 0.32491 0.0
C2421 C 0.9001 0.10094 0.31849 0.0
C2422 C 0.88313 0.10609 0.33653 0.0
C2423 C 0.86768 0.12262 0.33049 0.0
C2424 C 0.8689 0.13399 0.30635 0.0
C2425 C 0.88555 0.12881 0.28818 0.0
C2426 C 0.90107 0.11231 0.29414 0.0
C2427 C 0.9268 0.9869 0.28341 0.0
C2428 C 0.9345 0.98862 0.25693 0.0
C2429 C 0.92689 1.00543 0.30102 0.0
C2430 C 0.9341 1.02692 0.29298 0.0
C2431 C 0.94161 1.0288 0.26647 0.0
C2432 C 0.94219 1.01005 0.24905 0.0
C2433 C 0.93338 1.04713 0.31201 0.0
C2434 C 0.9189 0.06516 0.30713 0.0
C2435 C 0.94627 1.0485 0.33565 0.0
C2436 C 0.96415 1.03233 0.34118 0.0
C2437 C 0.98166 1.02981 0.32307 0.0
C2438 C 1.0002 1.01713 0.32982 0.0
C2439 C 1.00139 1.00677 0.35456 0.0
C2440 C 0.98385 1.00875 0.37247 0.0
C2441 C 0.96531 1.02153 0.36588 0.0
H2442 H 1.01589 0.99723 0.35988 0.0
H2443 H 0.85693 0.14679 0.30172 0.0
H2444 H 0.23954 0.66413 0.18564 0.0
H2445 H 0.26993 0.6646 0.1536 0.0
H2446 H 0.22652 0.69325 0.09519 0.0
H2447 H 0.19575 0.69191 0.12715 0.0
H2448 H 0.25147 0.66922 0.06803 0.0
H2449 H 0.27397 0.72217 0.13305 0.0
H2450 H 0.28287 0.73674 0.17744 0.0
H2451 H 0.33382 0.68758 0.18635 0.0
H2452 H 0.32501 0.67251 0.14214 0.0
H2453 H 0.34266 0.70125 0.98035 0.0
H2454 H 0.31114 0.70012 0.01122 0.0
H2455 H 0.35026 0.66264 0.06672 0.0
H2456 H 0.38168 0.6637 0.03595 0.0
H2457 H 0.32748 0.69194 0.09469 0.0
H2458 H 0.30419 0.6399 0.02781 0.0
H2459 H 0.29546 0.62769 0.98239 0.0
H2460 H 0.24594 0.67857 0.97599 0.0
H2461 H 0.25458 0.69127 0.02128 0.0
C2462 C 0.23626 0.67065 0.16605 0.0
C2463 C 0.21463 0.67811 0.15968 0.0
C2464 C 0.25406 0.67113 0.1474 0.0
C2465 C 0.25153 0.67953 0.12127 0.0
C2466 C 0.22976 0.68671 0.11479 0.0
C2467 C 0.21186 0.68601 0.13341 0.0
C2468 C 0.27117 0.68057 0.101 0.0
C2469 C 0.26792 0.67455 0.07413 0.0
C2470 C 0.29337 0.68714 0.1078 0.0
C2471 C 0.29866 0.69606 0.13441 0.0
C2472 C 0.28696 0.71436 0.14456 0.0
C2473 C 0.292 0.72272 0.16967 0.0
C2474 C 0.30885 0.71305 0.18473 0.0
C2475 C 0.32074 0.69503 0.17468 0.0
C2476 C 0.31573 0.68657 0.1496 0.0
C2477 C 0.34464 0.69243 0.99892 0.0
C2478 C 0.36525 0.68226 1.00483 0.0
C2479 C 0.32629 0.69177 0.01689 0.0
C2480 C 0.32749 0.68106 0.04196 0.0
C2481 C 0.34815 0.67106 0.04791 0.0
C2482 C 0.36638 0.67151 0.02986 0.0
C2483 C 0.30773 0.6805 0.06193 0.0
C2484 C 0.31099 0.68662 0.0887 0.0
C2485 C 0.28551 0.67436 0.05495 0.0
C2486 C 0.28018 0.66667 0.02783 0.0
C2487 C 0.29154 0.64858 0.01665 0.0
C2488 C 0.28659 0.64156 0.99094 0.0
C2489 C 0.2702 0.65239 0.97629 0.0
C2490 C 0.25866 0.67022 0.98735 0.0
C2491 C 0.26356 0.67732 0.01305 0.0
H2492 H 0.2664 0.64694 0.95638 0.0
H2493 H 0.31274 0.71955 0.20416 0.0
H2494 H 0.63085 0.1122 0.74616 0.0
H2495 H 0.633 0.08192 0.77873 0.0
H2496 H 0.70368 0.09177 0.78423 0.0
H2497 H 0.70151 0.12191 0.75118 0.0
H2498 H 0.69758 1.04878 0.78795 0.0
H2499 H 0.66138 0.10791 0.83617 0.0
H2500 H 0.63252 0.13575 0.84612 0.0
H2501 H 0.58229 0.08468 0.84328 0.0
H2502 H 0.61075 0.05648 0.83357 0.0
H2503 H 0.67578 0.99885 0.93317 0.0
H2504 H 0.67354 1.0292 0.90051 0.0
H2505 H 0.67469 0.98108 0.83752 0.0
H2506 H 0.67693 0.9507 0.8702 0.0
H2507 H 0.6458 1.04419 0.86394 0.0
H2508 H 0.69485 1.00353 0.77997 0.0
H2509 H 0.72464 0.97598 0.77385 0.0
H2510 H 0.75101 0.99201 0.8505 0.0
H2511 H 0.72148 1.01976 0.85697 0.0
C2512 C 0.64695 0.10819 0.7543 0.0
C2513 C 0.66588 0.12057 0.74593 0.0
C2514 C 0.64818 0.09061 0.77342 0.0
C2515 C 0.66849 0.08408 0.7853 0.0
C2516 C 0.68756 0.09596 0.77625 0.0
C2517 C 0.68628 0.11367 0.7572 0.0
C2518 C 0.66988 0.06498 0.80645 0.0
C2519 C 0.68604 1.04798 0.80438 0.0
C2520 C 0.65531 0.06304 0.82875 0.0
C2521 C 0.63818 0.08011 0.83394 0.0
C2522 C 0.64416 0.10265 0.83747 0.0
C2523 C 0.62789 0.11848 0.8431 0.0
C2524 C 0.60563 0.11202 0.84518 0.0
C2525 C 0.59955 0.08968 0.84165 0.0
C2526 C 0.61573 0.07374 0.83618 0.0
C2527 C 0.67569 0.99451 0.91241 0.0
C2528 C 0.67676 0.9717 0.905 0.0
C2529 C 0.67425 1.0122 0.89339 0.0
C2530 C 0.67416 1.00827 0.86571 0.0
C2531 C 0.67508 0.98542 0.8583 0.0
C2532 C 0.67626 0.9677 0.87733 0.0
C2533 C 0.67314 1.02777 0.84504 0.0
C2534 C 0.65716 1.0449 0.84732 0.0
C2535 C 0.68782 1.02983 0.82292 0.0
C2536 C 0.70587 1.01357 0.81901 0.0
C2537 C 0.70707 1.00124 0.79545 0.0
C2538 C 0.72389 0.98557 0.79194 0.0
C2539 C 0.73968 0.98221 0.8118 0.0
C2540 C 0.73873 0.99457 0.83517 0.0
C2541 C 0.72195 1.01025 0.83878 0.0
H2542 H 0.75266 0.97005 0.80906 0.0
H2543 H 0.5931 0.1243 0.84965 0.0
H2544 H 0.54057 0.21772 0.96321 0.0
H2545 H 0.55194 0.21753 0.91665 0.0
H2546 H 0.54854 0.1455 0.91637 0.0
H2547 H 0.53635 0.14578 0.9625 0.0
H2548 H 0.58596 0.20315 0.89335 0.0
H2549 H 0.53609 0.12514 0.85607 0.0
H2550 H 0.49998 0.10676 0.86463 0.0
H2551 H 0.47361 0.16848 0.89336 0.0
H2552 H 0.50941 0.18732 0.88456 0.0
H2553 H 0.60744 0.14096 0.76289 0.0
H2554 H 0.58617 0.14228 0.80431 0.0
H2555 H 0.58538 0.2142 0.79964 0.0
H2556 H 0.60855 0.21296 0.76043 0.0
H2557 H 0.54825 0.15792 0.82425 0.0
H2558 H 0.58977 0.23798 0.85387 0.0
H2559 H 0.6226 0.26103 0.84342 0.0
H2560 H 0.66087 0.20213 0.82998 0.0
H2561 H 0.62781 0.17854 0.83963 0.0
C2562 C 0.54231 0.2019 0.95312 0.0
C2563 C 0.53758 0.18178 0.96629 0.0
C2564 C 0.54872 0.20177 0.92655 0.0
C2565 C 0.55074 0.18151 0.91281 0.0
C2566 C 0.5465 0.16138 0.92624 0.0
C2567 C 0.53973 0.16153 0.95264 0.0
C2568 C 0.55824 0.18136 0.88481 0.0
C2569 C 0.57746 0.19348 0.87824 0.0
C2570 C 0.54726 0.16873 0.86496 0.0
C2571 C 0.52554 0.15757 0.86991 0.0
C2572 C 0.52256 0.13481 0.86409 0.0
C2573 C 0.50214 0.12432 0.869 0.0
C2574 C 0.48454 0.13643 0.87962 0.0
C2575 C 0.48728 0.1591 0.88523 0.0
C2576 C 0.50764 0.16968 0.88031 0.0
C2577 C 0.60243 0.15696 0.77061 0.0
C2578 C 0.60969 0.17682 0.75855 0.0
C2579 C 0.59031 0.15774 0.79427 0.0
C2580 C 0.58497 0.1784 0.80571 0.0
C2581 C 0.5901 0.19809 0.79189 0.0
C2582 C 0.60298 0.19735 0.76909 0.0
C2583 C 0.57597 0.17957 0.83304 0.0
C2584 C 0.55659 0.16757 0.83948 0.0
C2585 C 0.58633 0.1929 0.85271 0.0
C2586 C 0.6064 0.20658 0.84731 0.0
C2587 C 0.60519 0.22994 0.84862 0.0
C2588 C 0.62376 0.24308 0.84254 0.0
C2589 C 0.64376 0.23302 0.83562 0.0
C2590 C 0.64522 0.20978 0.83483 0.0
C2591 C 0.62658 0.19653 0.8405 0.0
H2592 H 0.65823 0.24316 0.83131 0.0
H2593 H 0.46877 0.12826 0.88344 0.0
H2594 H 0.65716 0.8019 0.22214 0.0
H2595 H 0.65705 0.81486 0.17623 0.0
H2596 H 0.72262 0.7881 0.16508 0.0
H2597 H 0.72301 0.77546 0.21124 0.0
H2598 H 0.71957 0.83113 0.14754 0.0
H2599 H 0.67674 0.76272 0.13519 0.0
H2600 H 0.64598 0.73599 0.14318 0.0
H2601 H 0.59846 0.78721 0.12737 0.0
H2602 H 0.6288 0.81421 0.11894 0.0
H2603 H 0.71892 0.86408 0.01181 0.0
H2604 H 0.7216 0.83994 0.05114 0.0
H2605 H 0.65376 0.85526 0.07121 0.0
H2606 H 0.65083 0.87832 0.03173 0.0
H2607 H 0.66059 0.81388 0.08206 0.0
H2608 H 0.69841 0.88264 0.09948 0.0
H2609 H 0.72583 0.91298 0.09337 0.0
H2610 H 0.77903 0.86649 0.10368 0.0
H2611 H 0.75187 0.83573 0.10946 0.0
C2612 C 0.67157 0.79878 0.20994 0.0
C2613 C 0.69017 0.78779 0.22045 0.0
C2614 C 0.67138 0.80596 0.18357 0.0
C2615 C 0.68975 0.80228 0.16707 0.0
C2616 C 0.70822 0.79104 0.17738 0.0
C2617 C 0.70838 0.78374 0.20374 0.0
C2618 C 0.6902 0.81148 0.13966 0.0
C2619 C 0.70696 0.82696 0.13299 0.0
C2620 C 0.67329 0.80671 0.121 0.0
C2621 C 0.65507 0.79053 0.12661 0.0
C2622 C 0.65974 0.76833 0.1336 0.0
C2623 C 0.64239 0.75312 0.13815 0.0
C2624 C 0.62034 0.75994 0.13601 0.0
C2625 C 0.61555 0.78196 0.1291 0.0
C2626 C 0.63281 0.79719 0.1243 0.0
C2627 C 0.7045 0.86184 0.02436 0.0
C2628 C 0.68478 0.87336 0.01898 0.0
C2629 C 0.70608 0.84825 0.04696 0.0
C2630 C 0.68799 0.84606 0.06448 0.0
C2631 C 0.668 0.8567 0.0582 0.0
C2632 C 0.66642 0.87012 0.03573 0.0
C2633 C 0.68985 0.83368 0.09 0.0
C2634 C 0.67349 0.81769 0.09638 0.0
C2635 C 0.70672 0.8385 0.10872 0.0
C2636 C 0.72311 0.85683 0.1046 0.0
C2637 C 0.71595 0.87882 0.10014 0.0
C2638 C 0.73144 0.8961 0.09679 0.0
C2639 C 0.75414 0.89165 0.09815 0.0
C2640 C 0.76142 0.86988 0.10264 0.0
C2641 C 0.74599 0.85252 0.10594 0.0
H2642 H 0.76609 0.90509 0.09596 0.0
H2643 H 0.60697 0.74813 0.13959 0.0
H2644 H 0.98222 0.90423 0.28678 0.0
H2645 H 1.00269 0.91095 0.3275 0.0
H2646 H 1.0184 0.97775 0.30127 0.0
H2647 H 0.99708 0.97135 0.2605 0.0
H2648 H 0.05302 0.9591 0.32859 0.0
H2649 H 0.97655 0.96918 0.33927 0.0
H2650 H 0.93617 0.96367 0.34073 0.0
H2651 H 0.94395 0.90936 0.39537 0.0
H2652 H 0.98458 0.91437 0.39419 0.0
H2653 H 0.07758 0.98388 0.46759 0.0
H2654 H 0.06357 0.98584 0.42202 0.0
H2655 H 1.04216 0.91708 0.42733 0.0
H2656 H 0.05582 0.91525 0.47284 0.0
H2657 H 1.0093 0.9449 0.41017 0.0
H2658 H 0.08916 0.93009 0.37175 0.0
H2659 H 0.12883 0.94093 0.36957 0.0
H2660 H 0.11102 1.01015 0.37021 0.0
H2661 H 0.07127 0.99965 0.37123 0.0
C2662 C 0.99005 0.92036 0.28957 0.0
C2663 C 0.98766 0.93742 0.27066 0.0
C2664 C 1.00182 0.92415 0.31284 0.0
C2665 C 1.01149 0.94508 0.31776 0.0
C2666 C 1.01071 0.96163 0.29803 0.0
C2667 C 0.9987 0.95788 0.27465 0.0
C2668 C 1.02098 0.94981 0.34426 0.0
C2669 C 1.04336 0.95619 0.34641 0.0
C2670 C 1.00826 0.94648 0.36755 0.0
C2671 C 0.98383 0.94232 0.36682 0.0
C2672 C 0.96982 0.95595 0.3515 0.0
C2673 C 0.94681 0.95293 0.35229 0.0
C2674 C 0.93752 0.93635 0.36835 0.0
C2675 C 0.95121 0.92235 0.38313 0.0
C2676 C 0.97425 0.9253 0.38243 0.0
C2677 C 0.0701 0.96915 0.45883 0.0
C2678 C 0.0674 0.94951 0.47385 0.0
C2679 C 0.06228 0.97022 0.43272 0.0
C2680 C 0.05198 0.95154 0.42108 0.0
C2681 C 1.04998 0.93174 0.43587 0.0
C2682 C 0.05761 0.93073 0.46193 0.0
C2683 C 1.04158 0.95277 0.39442 0.0
C2684 C 1.01887 0.94773 0.39227 0.0
C2685 C 0.05373 0.95788 0.37123 0.0
C2686 C 0.07743 0.96412 0.37202 0.0
C2687 C 0.09379 0.94759 0.37163 0.0
C2688 C 0.11623 0.95367 0.37044 0.0
C2689 C 0.12245 0.9762 0.37012 0.0
C2690 C 0.10621 0.99272 0.37063 0.0
C2691 C 0.08374 0.98672 0.3713 0.0
H2692 H 0.13983 0.98087 0.36927 0.0
H2693 H 0.9197 0.93445 0.36949 0.0
H2694 H 0.88748 0.24585 0.52019 0.0
H2695 H 0.89112 0.26747 0.56131 0.0
H2696 H 0.96252 0.26458 0.55481 0.0
H2697 H 0.95878 0.24281 0.51433 0.0
H2698 H 0.94932 0.24918 0.60104 0.0
H2699 H 0.93495 0.31397 0.54869 0.0
H2700 H 0.91455 0.33709 0.51658 0.0
H2701 H 0.8573 0.33616 0.5672 0.0
H2702 H 0.87726 0.31274 0.59946 0.0
H2703 H 0.96951 0.3112 0.71928 0.0
H2704 H 0.96937 0.29833 0.67325 0.0
H2705 H 0.89796 0.30416 0.67111 0.0
H2706 H 0.89823 0.31782 0.71657 0.0
H2707 H 0.91365 0.31986 0.62784 0.0
H2708 H 0.92842 0.25295 0.67932 0.0
H2709 H 0.94947 0.22942 0.71046 0.0
H2710 H 1.0068 0.23383 0.66019 0.0
H2711 H 0.98628 0.2578 0.62909 0.0
C2712 C 0.90385 0.25059 0.52717 0.0
C2713 C 0.92288 0.24285 0.51429 0.0
C2714 C 0.90597 0.26283 0.55064 0.0
C2715 C 0.92713 0.26755 0.56118 0.0
C2716 C 0.94606 0.26104 0.54715 0.0
C2717 C 0.94393 0.24875 0.52396 0.0
C2718 C 0.92968 0.27706 0.58807 0.0
C2719 C 0.94181 0.26483 0.60682 0.0
C2720 C 0.91955 0.29722 0.59567 0.0
C2721 C 0.90755 0.31143 0.57639 0.0
C2722 C 0.91795 0.31855 0.55289 0.0
C2723 C 0.90648 0.33173 0.53467 0.0
C2724 C 0.88462 0.33805 0.53981 0.0
C2725 C 0.87422 0.33124 0.56323 0.0
C2726 C 0.88562 0.31803 0.5815 0.0
C2727 C 0.95383 0.30957 0.70893 0.0
C2728 C 0.93388 0.31545 0.72136 0.0
C2729 C 0.95373 0.30218 0.68269 0.0
C2730 C 0.93361 0.3 0.66874 0.0
C2731 C 0.9137 0.30579 0.68134 0.0
C2732 C 0.91385 0.31354 0.70732 0.0
C2733 C 0.93301 0.2918 0.64102 0.0
C2734 C 0.92127 0.30427 0.62207 0.0
C2735 C 0.94356 0.27183 0.6332 0.0
C2736 C 0.95588 0.25744 0.65204 0.0
C2737 C 0.94558 0.24909 0.67505 0.0
C2738 C 0.95743 0.23567 0.69269 0.0
C2739 C 0.97951 0.23024 0.68739 0.0
C2740 C 0.98976 0.23816 0.66438 0.0
C2741 C 0.97803 0.25168 0.64675 0.0
H2742 H 0.98866 0.21983 0.70106 0.0
H2743 H 0.87577 0.34825 0.52568 0.0
H2744 H 0.58041 0.97412 0.0539 0.0
H2745 H 0.56371 0.97305 0.0981 0.0
H2746 H 0.53729 0.90732 0.08222 0.0
H2747 H 0.55396 0.90824 0.03823 0.0
H2748 H 0.50604 0.93247 0.10243 0.0
H2749 H 0.5807 0.91438 0.1277 0.0
H2750 H 0.62129 0.91899 0.13025 0.0
H2751 H 0.61338 0.984 0.16446 0.0
H2752 H 0.57259 0.97951 0.16253 0.0
H2753 H 0.47362 0.8951 0.22808 0.0
H2754 H 0.49505 0.89977 0.18755 0.0
H2755 H 0.51107 0.96744 0.20967 0.0
H2756 H 0.48898 0.96302 0.25031 0.0
H2757 H 0.54666 0.94547 0.18645 0.0
H2758 H 0.46915 0.95504 0.17056 0.0
H2759 H 0.42929 0.94651 0.16778 0.0
H2760 H 0.44256 0.89205 0.11528 0.0
H2761 H 0.48266 0.90007 0.11791 0.0
C2762 C 0.57131 0.9593 0.05996 0.0
C2763 C 0.56838 0.94136 0.04233 0.0
C2764 C 0.56175 0.95871 0.08528 0.0
C2765 C 0.54917 0.9401 0.09361 0.0
C2766 C 0.5467 0.92198 0.07626 0.0
C2767 C 0.55621 0.92256 0.05101 0.0
C2768 C 0.53785 0.93968 0.11993 0.0
C2769 C 0.51497 0.935 0.12084 0.0
C2770 C 0.5493 0.94369 0.14393 0.0
C2771 C 0.57368 0.94673 0.14467 0.0
C2772 C 0.58764 0.92973 0.13556 0.0
C2773 C 0.61068 0.93229 0.13698 0.0
C2774 C 0.61996 0.95189 0.14728 0.0
C2775 C 0.60617 0.96887 0.1564 0.0
C2776 C 0.5831 0.96627 0.15529 0.0
C2777 C 0.48166 0.91102 0.22438 0.0
C2778 C 0.47926 0.92882 0.2422 0.0
C2779 C 0.49399 0.91363 0.20121 0.0
C2780 C 0.50418 0.93415 0.1952 0.0
C2781 C 0.50307 0.95157 0.21375 0.0
C2782 C 0.4906 0.94897 0.23705 0.0
C2783 C 0.51497 0.93752 0.16899 0.0
C2784 C 0.53767 0.94299 0.16807 0.0
C2785 C 0.50335 0.9337 0.14497 0.0
C2786 C 0.47913 0.92836 0.14425 0.0
C2787 C 0.46372 0.94124 0.15841 0.0
C2788 C 0.44101 0.93647 0.15689 0.0
C2789 C 0.4334 0.91889 0.14115 0.0
C2790 C 0.44849 0.90579 0.12729 0.0
C2791 C 0.47123 0.91046 0.12879 0.0
H2792 H 0.41581 0.91543 0.13964 0.0
H2793 H 0.63781 0.95387 0.14831 0.0
H2794 H 0.38478 0.3297 0.80727 0.0
H2795 H 0.38589 0.31394 0.85174 0.0
H2796 H 0.44327 0.27536 0.83076 0.0
H2797 H 0.44337 0.29222 0.7865 0.0
H2798 H 0.39826 0.25414 0.85706 0.0
H2799 H 0.46067 0.30474 0.86511 0.0
H2800 H 0.48197 0.34005 0.86447 0.0
H2801 H 0.4345 0.36976 0.91668 0.0
H2802 H 0.41268 0.3347 0.91729 0.0
H2803 H 0.45214 0.23367 0.98923 0.0
H2804 H 0.44864 0.25284 0.94683 0.0
H2805 H 0.37738 0.25302 0.95539 0.0
H2806 H 0.38075 0.23289 0.99766 0.0
H2807 H 0.4279 0.29425 0.93543 0.0
H2808 H 0.36094 0.24053 0.91311 0.0
H2809 H 0.34523 0.2023 0.91303 0.0
H2810 H 0.40783 0.17658 0.88692 0.0
H2811 H 0.424 0.21457 0.88765 0.0
C2812 C 0.39795 0.3182 0.81214 0.0
C2813 C 0.41421 0.31249 0.79335 0.0
C2814 C 0.39845 0.30917 0.83753 0.0
C2815 C 0.41486 0.29389 0.84444 0.0
C2816 C 0.43064 0.2874 0.82566 0.0
C2817 C 0.43049 0.29683 0.80034 0.0
C2818 C 0.41467 0.28392 0.87101 0.0
C2819 C 0.40466 0.26293 0.87423 0.0
C2820 C 0.42298 0.29551 0.89324 0.0
C2821 C 0.43485 0.3172 0.89089 0.0
C2822 C 0.45447 0.31895 0.87595 0.0
C2823 C 0.46675 0.33886 0.87578 0.0
C2824 C 0.45966 0.35706 0.89067 0.0
C2825 C 0.44001 0.35559 0.90527 0.0
C2826 C 0.42767 0.33573 0.90549 0.0
C2827 C 0.43571 0.23782 0.98209 0.0
C2828 C 0.41668 0.23163 0.99643 0.0
C2829 C 0.43375 0.24875 0.95791 0.0
C2830 C 0.41274 0.25379 0.94775 0.0
C2831 C 0.39369 0.24866 0.96263 0.0
C2832 C 0.39564 0.23756 0.9869 0.0
C2833 C 0.41125 0.26455 0.92158 0.0
C2834 C 0.42101 0.28571 0.91834 0.0
C2835 C 0.40294 0.25306 0.89927 0.0
C2836 C 0.39375 0.2302 0.90101 0.0
C2837 C 0.37143 0.22662 0.90793 0.0
C2838 C 0.36245 0.20502 0.90769 0.0
C2839 C 0.37559 0.18699 0.90018 0.0
C2840 C 0.39774 0.19051 0.893 0.0
C2841 C 0.40685 0.21203 0.89347 0.0
H2842 H 0.36862 0.17031 0.89976 0.0
H2843 H 0.46943 0.37229 0.89098 0.0
H2844 H 0.12262 0.20436 0.7288 0.0
H2845 H 0.09671 0.20143 0.69227 0.0
H2846 H 0.0742 0.13743 0.72163 0.0
H2847 H 0.10137 0.13986 0.75776 0.0
H2848 H 0.08044 0.13457 0.67141 0.0
H2849 H 1.04005 0.18474 0.72315 0.0
H2850 H 1.03265 0.2171 0.75174 0.0
H2851 H 0.05086 0.26163 0.68856 0.0
H2852 H 0.05877 0.22956 0.6597 0.0
H2853 H 1.01026 0.13574 0.55841 0.0
H2854 H 1.02049 0.13652 0.60517 0.0
H2855 H 0.05782 0.1973 0.59231 0.0
H2856 H 1.04686 0.1972 0.54574 0.0
H2857 H 1.03546 0.19821 0.63955 0.0
H2858 H 0.08601 0.14579 0.59481 0.0
H2859 H 0.09333 0.11274 0.56717 0.0
H2860 H 0.05324 0.07225 0.61898 0.0
H2861 H 1.04568 0.10513 0.64686 0.0
C2862 C 0.11236 0.18956 0.72746 0.0
C2863 C 0.11433 0.17224 0.74606 0.0
C2864 C 0.09713 0.18809 0.70677 0.0
C2865 C 0.08309 0.1694 0.70433 0.0
C2866 C 0.08468 0.15215 0.72318 0.0
C2867 C 0.10012 0.1536 0.74393 0.0
C2868 C 0.06835 0.16734 0.68075 0.0
C2869 C 0.07025 0.14833 0.6648 0.0
C2870 C 0.05484 0.18521 0.67201 0.0
C2871 C 1.05011 0.20467 0.68926 0.0
C2872 C 1.04264 0.20142 0.71538 0.0
C2873 C 1.03834 0.21972 0.73164 0.0
C2874 C 1.04131 0.24141 0.72198 0.0
C2875 C 1.04858 0.24482 0.69603 0.0
C2876 C 0.05296 0.22658 0.67969 0.0
C2877 C 1.02036 0.14949 0.56556 0.0
C2878 C 1.02796 0.16627 0.54814 0.0
C2879 C 1.02633 0.14981 0.59231 0.0
C2880 C 1.04021 0.16678 0.60221 0.0
C2881 C 1.04717 0.18398 0.58512 0.0
C2882 C 1.04113 0.18373 0.55839 0.0
C2883 C 1.0487 0.166 0.62986 0.0
C2884 C 1.04544 0.18441 0.64652 0.0
C2885 C 0.06078 0.14753 0.63946 0.0
C2886 C 0.06521 0.12785 0.62275 0.0
C2887 C 0.07871 0.12983 0.6002 0.0
C2888 C 0.08292 0.11115 0.58453 0.0
C2889 C 0.07372 0.09041 0.5913 0.0
C2890 C 0.06032 0.08832 0.61375 0.0
C2891 C 0.05608 0.10696 0.6295 0.0
H2892 H 0.07701 0.07596 0.57915 0.0
H2893 H 1.03796 0.25555 0.73461 0.0
H2894 H 0.14851 0.878 0.47791 0.0
H2895 H 0.1528 0.8542 0.43952 0.0
H2896 H 0.21453 0.8296 0.47107 0.0
H2897 H 0.21098 0.8548 0.50905 0.0
H2898 H 0.21893 0.84187 0.42017 0.0
H2899 H 0.16789 0.79612 0.46806 0.0
H2900 H 0.13421 0.78822 0.49427 0.0
H2901 H 0.09339 0.80813 0.42882 0.0
H2902 H 0.12682 0.81652 0.40232 0.0
H2903 H 0.22474 0.76952 0.30758 0.0
H2904 H 0.22275 0.78168 0.35379 0.0
H2905 H 0.16132 0.81546 0.33724 0.0
H2906 H 0.16296 0.80302 0.29129 0.0
H2907 H 0.15936 0.79314 0.38407 0.0
H2908 H 0.21067 0.84284 0.33907 0.0
H2909 H 0.24436 0.85326 0.3141 0.0
H2910 H 0.28515 0.82649 0.37604 0.0
H2911 H 0.25168 0.81551 0.40116 0.0
C2912 C 0.16307 0.86765 0.47672 0.0
C2913 C 0.17952 0.86853 0.49645 0.0
C2914 C 0.16535 0.85373 0.45487 0.0
C2915 C 0.18394 0.83995 0.45239 0.0
C2916 C 0.20009 0.84016 0.47251 0.0
C2917 C 0.19791 0.85436 0.49437 0.0
C2918 C 0.18704 0.82675 0.4278 0.0
C2919 C 0.20623 0.83062 0.41269 0.0
C2920 C 0.17012 0.81264 0.41759 0.0
C2921 C 0.14992 0.80705 0.43322 0.0
C2922 C 0.15174 0.79891 0.45927 0.0
C2923 C 0.13269 0.79435 0.47419 0.0
C2924 C 0.11167 0.7977 0.46323 0.0
C2925 C 0.10968 0.80554 0.43728 0.0
C2926 C 0.12868 0.81016 0.42228 0.0
C2927 C 0.21071 0.77938 0.31385 0.0
C2928 C 0.19413 0.78552 0.29565 0.0
C2929 C 0.20966 0.78641 0.34023 0.0
C2930 C 0.192 0.79968 0.34894 0.0
C2931 C 0.17514 0.80529 0.33099 0.0
C2932 C 0.17622 0.79837 0.30463 0.0
C2933 C 0.19124 0.80838 0.37647 0.0
C2934 C 0.17239 0.80378 0.392 0.0
C2935 C 0.20855 0.82175 0.38717 0.0
C2936 C 0.22864 0.82796 0.37176 0.0
C2937 C 0.22681 0.83887 0.34719 0.0
C2938 C 0.24587 0.84494 0.33304 0.0
C2939 C 0.26688 0.84043 0.3434 0.0
C2940 C 0.26887 0.82988 0.36797 0.0
C2941 C 0.24986 0.8237 0.38215 0.0
H2942 H 0.28162 0.84519 0.33244 0.0
H2943 H 0.09694 0.79421 0.47484 0.0
H2944 H 1.04586 0.69832 0.47622 0.0
H2945 H 0.05852 0.69903 0.43027 0.0
H2946 H 1.02637 0.63553 0.41652 0.0
H2947 H 1.01396 0.63454 0.46269 0.0
H2948 H 0.06859 0.63571 0.39856 0.0
H2949 H 1.00567 0.68339 0.3892 0.0
H2950 H 0.98084 0.71513 0.39773 0.0
H2951 H 1.03412 0.76112 0.38149 0.0
H2952 H 0.05932 0.72976 0.37288 0.0
H2953 H 0.10292 0.6411 0.26296 0.0
H2954 H 0.07841 0.63819 0.30169 0.0
H2955 H 0.10107 0.70294 0.328 0.0
H2956 H 0.12472 0.70612 0.28917 0.0
H2957 H 0.05871 0.69925 0.3368 0.0
H2958 H 0.12249 0.65277 0.35194 0.0
H2959 H 0.14845 0.62187 0.344 0.0
H2960 H 0.09486 0.57452 0.35078 0.0
H2961 H 0.06849 0.60515 0.35826 0.0
C2962 C 1.04148 0.68449 0.46343 0.0
C2963 C 1.02905 0.66628 0.47324 0.0
C2964 C 1.04851 0.68504 0.43705 0.0
C2965 C 1.04328 0.66741 0.41979 0.0
C2966 C 1.03057 0.64937 0.4294 0.0
C2967 C 1.0234 0.64887 0.45578 0.0
C2968 C 0.05238 0.6672 0.39235 0.0
C2969 C 0.06601 0.64938 0.38481 0.0
C2970 C 1.04946 0.68526 0.37459 0.0
C2971 C 1.03447 0.70416 0.3806 0.0
C2972 C 1.01218 0.70026 0.38773 0.0
C2973 C 0.99802 0.71818 0.39251 0.0
C2974 C 1.00593 0.74009 0.39029 0.0
C2975 C 1.02802 0.74414 0.38326 0.0
C2976 C 1.04224 0.72629 0.37835 0.0
C2977 C 0.10239 0.6548 0.27683 0.0
C2978 C 0.1162 0.67361 0.27336 0.0
C2979 C 0.08852 0.65306 0.29909 0.0
C2980 C 0.08821 0.67015 0.31817 0.0
C2981 C 0.10111 0.68941 0.31382 0.0
C2982 C 0.11489 0.69111 0.29172 0.0
C2983 C 0.0752 0.66798 0.34319 0.0
C2984 C 0.06091 0.68537 0.35033 0.0
C2985 C 0.07769 0.64965 0.36069 0.0
C2986 C 0.09346 0.63128 0.35538 0.0
C2987 C 0.11619 0.63579 0.35143 0.0
C2988 C 0.13099 0.61832 0.34709 0.0
C2989 C 0.12331 0.59625 0.34698 0.0
C2990 C 0.10079 0.59162 0.35092 0.0
C2991 C 0.0859 0.60902 0.35518 0.0
H2992 H 0.13482 0.58273 0.34391 0.0
H2993 H 0.99492 0.75393 0.39385 0.0
H2994 H 0.16933 0.26425 0.71538 0.0
H2995 H 0.16597 0.27849 0.67006 0.0
H2996 H 0.20538 0.33609 0.6913 0.0
H2997 H 0.2096 0.3214 0.73626 0.0
H2998 H 0.16411 0.34474 0.6622 0.0
H2999 H 0.22975 0.2961 0.65789 0.0
H3000 H 0.24624 0.25903 0.66526 0.0
H3001 H 0.19813 0.22945 0.61303 0.0
H3002 H 0.18126 0.26634 0.60552 0.0
H3003 H 0.20438 0.39477 0.5447 0.0
H3004 H 0.20304 0.37478 0.58714 0.0
H3005 H 0.16404 0.3224 0.55108 0.0
H3006 H 0.16423 0.34316 0.50898 0.0
H3007 H 0.20006 0.30739 0.58609 0.0
H3008 H 0.13751 0.35153 0.58318 0.0
H3009 H 0.11145 0.3826 0.57894 0.0
H3010 H 0.14116 0.41479 0.64613 0.0
H3011 H 0.16829 0.38438 0.65001 0.0
C3012 C 0.17765 0.27967 0.71022 0.0
C3013 C 0.19005 0.29141 0.72932 0.0
C3014 C 0.17553 0.28793 0.68441 0.0
C3015 C 0.18557 0.30827 0.67727 0.0
C3016 C 0.1975 0.32035 0.69642 0.0
C3017 C 0.19983 0.31196 0.72214 0.0
C3018 C 0.18384 0.31703 0.64982 0.0
C3019 C 0.1723 0.33693 0.64556 0.0
C3020 C 0.19319 0.3058 0.62797 0.0
C3021 C 0.20422 0.28394 0.63122 0.0
C3022 C 0.22273 0.28169 0.64795 0.0
C3023 C 0.23212 0.26071 0.65218 0.0
C3024 C 0.22321 0.24189 0.63965 0.0
C3025 C 0.20502 0.24404 0.62269 0.0
C3026 C 0.19558 0.26499 0.61839 0.0
C3027 C 0.19579 0.37884 0.54581 0.0
C3028 C 0.18458 0.37036 0.52363 0.0
C3029 C 0.19493 0.36749 0.57004 0.0
C3030 C 0.18327 0.34719 0.57234 0.0
C3031 C 0.17312 0.33804 0.54974 0.0
C3032 C 0.17344 0.34975 0.52565 0.0
C3033 C 0.18136 0.33603 0.59859 0.0
C3034 C 0.19203 0.31553 0.60263 0.0
C3035 C 0.17036 0.34631 0.62012 0.0
C3036 C 0.1554 0.36576 0.61649 0.0
C3037 C 0.13904 0.36551 0.59657 0.0
C3038 C 0.12393 0.38299 0.59434 0.0
C3039 C 0.12467 0.40072 0.6122 0.0
C3040 C 0.1406 0.40103 0.63231 0.0
C3041 C 0.15599 0.38374 0.63438 0.0
H3042 H 0.11295 0.41422 0.61044 0.0
H3043 H 0.23041 0.22564 0.64308 0.0
H3044 H 0.49813 0.39892 0.74858 0.0
H3045 H 0.521 0.39381 0.78839 0.0
H3046 H 0.49994 0.45791 0.81732 0.0
H3047 H 0.47802 0.46355 0.77682 0.0
H3048 H 0.55566 0.4243 0.81302 0.0
H3049 H 0.48047 0.4376 0.88521 0.0
H3050 H 0.44032 0.42935 0.88719 0.0
H3051 H 0.4475 0.37959 0.82691 0.0
H3052 H 0.48776 0.38673 0.8255 0.0
H3053 H 0.58824 0.45673 0.94092 0.0
H3054 H 0.57401 0.4508 0.89632 0.0
H3055 H 0.54358 0.38882 0.92131 0.0
H3056 H 0.55814 0.3945 0.96604 0.0
H3057 H 0.51423 0.41338 0.897 0.0
H3058 H 0.58365 0.3849 0.87093 0.0
H3059 H 0.62397 0.38057 0.86495 0.0
H3060 H 0.62838 0.44632 0.8312 0.0
H3061 H 0.58784 0.45068 0.83609 0.0
C3062 C 0.49897 0.41213 0.76316 0.0
C3063 C 0.48662 0.43167 0.75981 0.0
C3064 C 0.51189 0.40918 0.78581 0.0
C3065 C 0.51185 0.42537 0.80579 0.0
C3066 C 0.50001 0.44522 0.80209 0.0
C3067 C 0.48766 0.44848 0.77901 0.0
C3068 C 0.52342 0.42119 0.83102 0.0
C3069 C 0.54665 0.42204 0.83144 0.0
C3070 C 0.51158 0.41697 0.85468 0.0
C3071 C 0.48717 0.41309 0.85484 0.0
C3072 C 0.47351 0.4249 0.87238 0.0
C3073 C 0.45073 0.42027 0.87357 0.0
C3074 C 0.44138 0.40394 0.85721 0.0
C3075 C 0.45475 0.3923 0.8395 0.0
C3076 C 0.47757 0.39663 0.83851 0.0
C3077 C 0.57895 0.44158 0.93685 0.0
C3078 C 0.57414 0.42619 0.95715 0.0
C3079 C 0.57086 0.43817 0.91126 0.0
C3080 C 0.55778 0.41932 0.9054 0.0
C3081 C 0.55357 0.40352 0.92538 0.0
C3082 C 0.56175 0.40688 0.95098 0.0
C3083 C 0.54656 0.41761 0.87931 0.0
C3084 C 0.52331 0.4157 0.87865 0.0
C3085 C 0.55837 0.41982 0.85526 0.0
C3086 C 0.58284 0.4182 0.85415 0.0
C3087 C 0.59327 0.39852 0.8625 0.0
C3088 C 0.61612 0.39598 0.85906 0.0
C3089 C 0.62878 0.41322 0.84785 0.0
C3090 C 0.61857 0.43299 0.8399 0.0
C3091 C 0.59563 0.43544 0.8428 0.0
H3092 H 0.64649 0.41123 0.8453 0.0
H3093 H 0.42375 0.40038 0.85818 0.0
H3094 H 0.37981 0.73872 0.02184 0.0
H3095 H 0.37669 0.75807 0.06465 0.0
H3096 H 0.4481 0.75951 0.07142 0.0
H3097 H 0.45123 0.74077 0.02891 0.0
H3098 H 0.42821 0.7407 0.11453 0.0
H3099 H 0.42048 0.80653 0.06072 0.0
H3100 H 0.40357 0.82992 0.02607 0.0
H3101 H 0.34137 0.82826 0.06755 0.0
H3102 H 0.35784 0.80456 0.10228 0.0
H3103 H 0.44756 0.80465 0.2287 0.0
H3104 H 0.44655 0.79107 0.18313 0.0
H3105 H 0.37556 0.80016 0.18112 0.0
H3106 H 0.37667 0.81444 0.22653 0.0
H3107 H 0.39239 0.8127 0.13571 0.0
H3108 H 0.4003 0.74727 0.19005 0.0
H3109 H 0.41716 0.72325 0.22417 0.0
H3110 H 0.47863 0.7233 0.1811 0.0
H3111 H 0.46219 0.74764 0.14699 0.0
C3112 C 0.39477 0.74375 0.03222 0.0
C3113 C 0.41574 0.738 0.0223 0.0
C3114 C 0.393 0.75468 0.05667 0.0
C3115 C 0.41218 0.76005 0.07134 0.0
C3116 C 0.43308 0.75534 0.06063 0.0
C3117 C 0.43484 0.74456 0.03635 0.0
C3118 C 0.4108 0.76898 0.09869 0.0
C3119 C 0.42054 0.75655 0.11913 0.0
C3120 C 0.40024 0.78932 0.10479 0.0
C3121 C 0.39032 0.80354 0.08393 0.0
C3122 C 0.40314 0.81096 0.06232 0.0
C3123 C 0.39364 0.82432 0.04269 0.0
C3124 C 0.37139 0.83052 0.04456 0.0
C3125 C 0.35859 0.82341 0.0661 0.0
C3126 C 0.368 0.81003 0.08577 0.0
C3127 C 0.43173 0.80358 0.21858 0.0
C3128 C 0.41214 0.81024 0.23129 0.0
C3129 C 0.43114 0.79582 0.19253 0.0
C3130 C 0.41089 0.79406 0.1788 0.0
C3131 C 0.39137 0.80122 0.19128 0.0
C3132 C 0.392 0.80931 0.21724 0.0
C3133 C 0.41013 0.78456 0.15157 0.0
C3134 C 0.39992 0.79678 0.13118 0.0
C3135 C 0.4202 0.76392 0.14544 0.0
C3136 C 0.43008 0.74938 0.16606 0.0
C3137 C 0.41745 0.74228 0.18797 0.0
C3138 C 0.42693 0.72861 0.2073 0.0
C3139 C 0.44896 0.72178 0.20484 0.0
C3140 C 0.46157 0.7286 0.18302 0.0
C3141 C 0.45218 0.74232 0.16367 0.0
H3142 H 0.45626 0.71118 0.21982 0.0
H3143 H 0.36407 0.84087 0.02935 0.0
H3144 H 1.03655 0.45945 0.54195 0.0
H3145 H 1.02189 0.45623 0.58711 0.0
H3146 H 0.07007 0.4055 0.60481 0.0
H3147 H 0.08529 0.40923 0.55979 0.0
H3148 H 1.01669 0.40091 0.61929 0.0
H3149 H 0.08638 0.44092 0.63246 0.0
H3150 H 0.1139 0.46997 0.62062 0.0
H3151 H 0.06475 0.52063 0.63167 0.0
H3152 H 1.03684 0.49176 0.64309 0.0
H3153 H 0.99119 0.39922 0.75518 0.0
H3154 H 1.01271 0.39801 0.7142 0.0
H3155 H 0.99738 0.46726 0.69945 0.0
H3156 H 0.97697 0.46874 0.74142 0.0
H3157 H 1.03714 0.46 0.68374 0.0
H3158 H 0.96735 0.42048 0.67153 0.0
H3159 H 0.93877 0.39156 0.6803 0.0
H3160 H 0.98638 0.34019 0.66598 0.0
H3161 H 1.0153 0.36867 0.6573 0.0
C3162 C 1.04384 0.44749 0.55544 0.0
C3163 C 0.06202 0.43459 0.54763 0.0
C3164 C 1.03553 0.4457 0.58113 0.0
C3165 C 1.04504 0.43073 0.59912 0.0
C3166 C 0.06266 0.41721 0.59111 0.0
C3167 C 0.07132 0.41936 0.56557 0.0
C3168 C 1.03689 0.42997 0.62658 0.0
C3169 C 1.02138 0.41352 0.63367 0.0
C3170 C 1.04277 0.44678 0.64484 0.0
C3171 C 0.05949 0.46419 0.63826 0.0
C3172 C 0.0814 0.45823 0.63204 0.0
C3173 C 0.09707 0.47467 0.62549 0.0
C3174 C 0.09106 0.49714 0.6253 0.0
C3175 C 0.06937 0.50322 0.63176 0.0
C3176 C 0.05362 0.48683 0.63829 0.0
C3177 C 0.99289 0.41426 0.74337 0.0
C3178 C 0.98262 0.43409 0.75122 0.0
C3179 C 1.00494 0.41351 0.71986 0.0
C3180 C 1.00613 0.43234 0.70331 0.0
C3181 C 0.99661 0.45247 0.71181 0.0
C3182 C 0.98505 0.45337 0.73575 0.0
C3183 C 1.01659 0.43092 0.6768 0.0
C3184 C 1.03251 0.44711 0.6697 0.0
C3185 C 1.01095 0.41384 0.65849 0.0
C3186 C 0.99356 0.39673 0.66401 0.0
C3187 C 0.97177 0.40302 0.67046 0.0
C3188 C 0.95552 0.38673 0.67539 0.0
C3189 C 0.96078 0.36413 0.6738 0.0
C3190 C 0.98233 0.35772 0.66726 0.0
C3191 C 0.99866 0.37392 0.66229 0.0
H3192 H 0.94809 0.35163 0.6775 0.0
H3193 H 0.10321 0.50985 0.62023 0.0
H3194 H 0.94502 0.79948 0.28811 0.0
H3195 H 0.94365 0.78599 0.33366 0.0
H3196 H 0.88442 0.82423 0.34731 0.0
H3197 H 0.88484 0.83669 0.30134 0.0
H3198 H 0.94593 0.80316 0.38095 0.0
H3199 H 0.85032 0.79591 0.39058 0.0
H3200 H 0.81726 0.79042 0.36241 0.0
H3201 H 0.85711 0.7577 0.30398 0.0
H3202 H 0.89032 0.76269 0.33197 0.0
H3203 H 0.92007 0.76654 0.51376 0.0
H3204 H 0.91797 0.78931 0.47304 0.0
H3205 H 0.9026 0.73013 0.42794 0.0
H3206 H 0.90478 0.70762 0.468 0.0
H3207 H 0.87749 0.76485 0.41222 0.0
H3208 H 0.95392 0.74859 0.43051 0.0
H3209 H 0.98846 0.7487 0.45667 0.0
H3210 H 0.98955 0.82037 0.45594 0.0
H3211 H 0.9547 0.8207 0.43019 0.0
C3212 C 0.93149 0.80482 0.30062 0.0
C3213 C 0.91482 0.8189 0.29067 0.0
C3214 C 0.93093 0.79733 0.32688 0.0
C3215 C 0.91377 0.80381 0.34396 0.0
C3216 C 0.89765 0.81865 0.33447 0.0
C3217 C 0.89804 0.82595 0.30812 0.0
C3218 C 0.9122 0.79409 0.37114 0.0
C3219 C 0.93086 0.79502 0.38789 0.0
C3220 C 0.89269 0.78311 0.38022 0.0
C3221 C 0.87285 0.78001 0.36319 0.0
C3222 C 0.85201 0.78754 0.37172 0.0
C3223 C 0.83325 0.7845 0.3558 0.0
C3224 C 0.8351 0.77382 0.33136 0.0
C3225 C 0.85571 0.76607 0.32285 0.0
C3226 C 0.87452 0.76903 0.33872 0.0
C3227 C 0.91585 0.75859 0.49518 0.0
C3228 C 0.91276 0.73536 0.49393 0.0
C3229 C 0.91479 0.77152 0.47196 0.0
C3230 C 0.91032 0.76137 0.4474 0.0
C3231 C 0.9061 0.73834 0.44658 0.0
C3232 C 0.90743 0.72549 0.46951 0.0
C3233 C 0.91107 0.7741 0.4221 0.0
C3234 C 0.89232 0.77359 0.40563 0.0
C3235 C 0.93067 0.78487 0.41306 0.0
C3236 C 0.95151 0.78469 0.42873 0.0
C3237 C 0.96134 0.76439 0.43622 0.0
C3238 C 0.981 0.76437 0.45093 0.0
C3239 C 0.99116 0.78454 0.458 0.0
C3240 C 0.98163 0.80477 0.45046 0.0
C3241 C 0.96192 0.80488 0.43583 0.0
H3242 H 1.00648 0.78452 0.46919 0.0
H3243 H 0.82056 0.77149 0.31905 0.0
H3244 H 0.5248 0.6423 0.05435 0.0
H3245 H 0.53775 0.64447 0.10015 0.0
H3246 H 0.56326 0.71085 0.08573 0.0
H3247 H 0.54987 0.70899 0.04 0.0
H3248 H 0.58149 0.65041 0.11683 0.0
H3249 H 0.56202 0.7398 0.1437 0.0
H3250 H 0.53609 0.77007 0.13263 0.0
H3251 H 0.48515 0.72193 0.1151 0.0
H3252 H 0.51083 0.69121 0.12581 0.0
H3253 H 0.62126 0.7142 0.2392 0.0
H3254 H 0.59896 0.71435 0.19894 0.0
H3255 H 0.58173 0.64513 0.21208 0.0
H3256 H 0.60501 0.64477 0.25207 0.0
H3257 H 0.55829 0.70736 0.18212 0.0
H3258 H 0.58685 0.61754 0.15511 0.0
H3259 H 0.61838 0.59316 0.16647 0.0
H3260 H 0.6595 0.65073 0.18092 0.0
H3261 H 0.62847 0.67538 0.16914 0.0
C3262 C 0.53289 0.65749 0.061 0.0
C3263 C 0.53633 0.67548 0.04347 0.0
C3264 C 0.54038 0.65866 0.08716 0.0
C3265 C 0.55129 0.67789 0.09646 0.0
C3266 C 0.55461 0.69596 0.07911 0.0
C3267 C 0.54718 0.69477 0.0529 0.0
C3268 C 0.56015 0.67849 0.12391 0.0
C3269 C 0.57604 0.66257 0.13125 0.0
C3270 C 0.55405 0.69514 0.1423 0.0
C3271 C 0.5384 0.71323 0.13542 0.0
C3272 C 0.54528 0.73565 0.13746 0.0
C3273 C 0.53065 0.75286 0.13118 0.0
C3274 C 0.50903 0.74786 0.12298 0.0
C3275 C 0.50199 0.72566 0.12112 0.0
C3276 C 0.51659 0.70834 0.12723 0.0
C3277 C 0.61265 0.69904 0.23353 0.0
C3278 C 0.61536 0.67929 0.2482 0.0
C3279 C 0.59963 0.69924 0.21072 0.0
C3280 C 0.589 0.67966 0.20215 0.0
C3281 C 0.5901 0.66036 0.21811 0.0
C3282 C 0.60325 0.66016 0.241 0.0
C3283 C 0.57904 0.67887 0.17522 0.0
C3284 C 0.56332 0.6949 0.16785 0.0
C3285 C 0.58611 0.66308 0.15629 0.0
C3286 C 0.60523 0.64826 0.16157 0.0
C3287 C 0.60268 0.62496 0.16046 0.0
C3288 C 0.62045 0.61111 0.16701 0.0
C3289 C 0.64084 0.62042 0.17456 0.0
C3290 C 0.64367 0.64356 0.17517 0.0
C3291 C 0.62601 0.65746 0.16852 0.0
H3292 H 0.65445 0.60974 0.17998 0.0
H3293 H 0.49771 0.7612 0.11815 0.0
H3294 H 0.71201 0.3721 0.99187 0.0
H3295 H 0.70345 0.35014 0.9522 0.0
H3296 H 0.64173 0.32852 0.98745 0.0
H3297 H 0.64933 0.35215 0.02603 0.0
H3298 H 0.67666 0.2956 0.95384 0.0
H3299 H 0.62533 0.35581 0.95559 0.0
H3300 H 0.61198 0.39412 0.96092 0.0
H3301 H 0.65475 0.41616 0.89802 0.0
H3302 H 0.66874 0.37786 0.89268 0.0
H3303 H 0.63159 0.29928 0.80659 0.0
H3304 H 0.62875 0.31086 0.85265 0.0
H3305 H 0.6962 0.29007 0.86626 0.0
H3306 H 0.69923 0.27852 0.82031 0.0
H3307 H 0.64861 0.34111 0.87891 0.0
H3308 H 0.70573 0.27274 0.92325 0.0
H3309 H 0.7114 0.23207 0.91992 0.0
H3310 H 0.64404 0.22326 0.89391 0.0
H3311 H 0.63818 0.26393 0.89637 0.0
C3312 C 0.69682 0.36242 0.99124 0.0
C3313 C 0.68116 0.36398 0.01159 0.0
C3314 C 0.6919 0.34997 0.96864 0.0
C3315 C 0.67165 0.33836 0.96672 0.0
C3316 C 0.65715 0.33788 0.98837 0.0
C3317 C 0.66163 0.35109 0.01047 0.0
C3318 C 0.66532 0.32792 0.94145 0.0
C3319 C 0.67043 0.30545 0.93743 0.0
C3320 C 0.65624 0.34065 0.92051 0.0
C3321 C 0.64853 0.36394 0.92424 0.0
C3322 C 0.63228 0.36883 0.94327 0.0
C3323 C 0.62441 0.39056 0.94611 0.0
C3324 C 0.63247 0.4076 0.92976 0.0
C3325 C 0.64842 0.40291 0.91057 0.0
C3326 C 0.65636 0.38117 0.90767 0.0
C3327 C 0.64587 0.29719 0.81929 0.0
C3328 C 0.66555 0.28764 0.80968 0.0
C3329 C 0.64415 0.30371 0.84573 0.0
C3330 C 0.66205 0.3008 0.86315 0.0
C3331 C 0.68186 0.29172 0.8535 0.0
C3332 C 0.6836 0.28521 0.82711 0.0
C3333 C 0.66086 0.3089 0.89083 0.0
C3334 C 0.6545 0.33105 0.89531 0.0
C3335 C 0.66779 0.29562 0.91247 0.0
C3336 C 0.6716 0.27134 0.90977 0.0
C3337 C 0.6922 0.26212 0.91663 0.0
C3338 C 0.69547 0.2391 0.91477 0.0
C3339 C 0.67814 0.22512 0.90646 0.0
C3340 C 0.65753 0.23414 0.89995 0.0
C3341 C 0.65429 0.25719 0.90136 0.0
H3342 H 0.68065 0.20729 0.9052 0.0
H3343 H 0.62638 0.42443 0.93192 0.0
H3344 H 0.31774 0.26835 0.15499 0.0
H3345 H 0.30872 0.29087 0.19377 0.0
H3346 H 0.3079 0.23145 0.24228 0.0
H3347 H 0.31605 0.2088 0.20319 0.0
H3348 H 0.2766 0.25722 0.25812 0.0
H3349 H 0.35348 0.26864 0.23986 0.0
H3350 H 0.38634 0.27774 0.21269 0.0
H3351 H 0.36181 0.34396 0.19984 0.0
H3352 H 0.32861 0.33515 0.22661 0.0
H3353 H 0.29216 0.31608 0.3805 0.0
H3354 H 0.30115 0.2931 0.34181 0.0
H3355 H 0.28104 0.34656 0.29005 0.0
H3356 H 0.27154 0.36939 0.32865 0.0
H3357 H 0.32385 0.3235 0.27727 0.0
H3358 H 0.24596 0.30965 0.29632 0.0
H3359 H 0.2148 0.29917 0.32557 0.0
H3360 H 0.24441 0.23532 0.33983 0.0
H3361 H 0.27596 0.24558 0.31098 0.0
C3362 C 0.31542 0.26012 0.17392 0.0
C3363 C 0.31767 0.23688 0.17616 0.0
C3364 C 0.31042 0.27299 0.19611 0.0
C3365 C 0.30817 0.26297 0.22117 0.0
C3366 C 0.30964 0.23962 0.22324 0.0
C3367 C 0.31426 0.22668 0.20091 0.0
C3368 C 0.30474 0.27689 0.24521 0.0
C3369 C 0.28715 0.27151 0.26241 0.0
C3370 C 0.31838 0.2957 0.25091 0.0
C3371 C 0.33845 0.30116 0.23505 0.0
C3372 C 0.35502 0.2851 0.23111 0.0
C3373 C 0.37372 0.29021 0.21578 0.0
C3374 C 0.37614 0.3114 0.20449 0.0
C3375 C 0.3599 0.32755 0.20857 0.0
C3376 C 0.34114 0.32251 0.22384 0.0
C3377 C 0.28994 0.32299 0.36085 0.0
C3378 C 0.28118 0.34447 0.35748 0.0
C3379 C 0.29498 0.30985 0.33883 0.0
C3380 C 0.29169 0.31815 0.31313 0.0
C3381 C 0.28371 0.3399 0.30974 0.0
C3382 C 0.27825 0.35286 0.33173 0.0
C3383 C 0.29571 0.30383 0.28978 0.0
C3384 C 0.31341 0.30914 0.27284 0.0
C3385 C 0.28248 0.28474 0.2846 0.0
C3386 C 0.26344 0.27848 0.30174 0.0
C3387 C 0.24594 0.29346 0.30589 0.0
C3388 C 0.22818 0.28755 0.32236 0.0
C3389 C 0.22766 0.26662 0.33461 0.0
C3390 C 0.24486 0.25154 0.33036 0.0
C3391 C 0.26267 0.25739 0.31395 0.0
H3392 H 0.2139 0.26206 0.34735 0.0
H3393 H 0.39061 0.31531 0.19262 0.0
H3394 H 0.63736 0.54125 0.41464 0.0
H3395 H 0.61667 0.52774 0.45316 0.0
H3396 H 0.57566 0.5864 0.45054 0.0
H3397 H 0.59648 0.6001 0.41215 0.0
H3398 H 0.58715 0.57845 0.49946 0.0
H3399 H 0.55633 0.53407 0.43018 0.0
H3400 H 0.55662 0.50877 0.39179 0.0
H3401 H 0.58805 0.45821 0.43871 0.0
H3402 H 0.58824 0.48333 0.47731 0.0
H3403 H 0.51172 0.53648 0.59625 0.0
H3404 H 0.52519 0.54837 0.5525 0.0
H3405 H 0.57462 0.49674 0.55455 0.0
H3406 H 0.56121 0.48482 0.59814 0.0
H3407 H 0.55575 0.50174 0.50456 0.0
H3408 H 0.58865 0.5479 0.57266 0.0
H3409 H 0.58774 0.5734 0.61085 0.0
H3410 H 0.55101 0.621 0.56511 0.0
H3411 H 0.55141 0.59561 0.52674 0.0
C3412 C 0.62381 0.55118 0.42211 0.0
C3413 C 0.61858 0.57175 0.41026 0.0
C3414 C 0.61193 0.54342 0.44415 0.0
C3415 C 0.59433 0.55587 0.45463 0.0
C3416 C 0.58914 0.57646 0.44288 0.0
C3417 C 0.60112 0.58431 0.42096 0.0
C3418 C 0.58178 0.54771 0.47827 0.0
C3419 C 0.57994 0.56181 0.50031 0.0
C3420 C 0.57261 0.52586 0.47973 0.0
C3421 C 0.57247 0.51067 0.45658 0.0
C3422 C 0.56346 0.51762 0.43227 0.0
C3423 C 0.56351 0.5033 0.41047 0.0
C3424 C 0.57239 0.48192 0.41279 0.0
C3425 C 0.58119 0.47479 0.43694 0.0
C3426 C 0.5812 0.48905 0.45879 0.0
C3427 C 0.52514 0.52739 0.58707 0.0
C3428 C 0.53554 0.50985 0.60065 0.0
C3429 C 0.53292 0.53428 0.56219 0.0
C3430 C 0.55112 0.52362 0.5504 0.0
C3431 C 0.56063 0.50525 0.56327 0.0
C3432 C 0.55302 0.49852 0.58821 0.0
C3433 C 0.5613 0.53245 0.5256 0.0
C3434 C 0.56274 0.51846 0.50345 0.0
C3435 C 0.56998 0.55444 0.52395 0.0
C3436 C 0.56983 0.56975 0.54694 0.0
C3437 C 0.58021 0.56373 0.57082 0.0
C3438 C 0.57982 0.57817 0.59249 0.0
C3439 C 0.56927 0.59878 0.59043 0.0
C3440 C 0.55914 0.60501 0.56668 0.0
C3441 C 0.55945 0.5906 0.54497 0.0
H3442 H 0.56898 0.60995 0.60723 0.0
H3443 H 0.57242 0.47086 0.3959 0.0
H3444 H 0.29973 0.84485 0.64481 0.0
H3445 H 0.3092 0.82098 0.68226 0.0
H3446 H 0.26207 0.85573 0.73103 0.0
H3447 H 0.25331 0.88045 0.694 0.0
H3448 H 0.298 0.84849 0.75857 0.0
H3449 H 0.251 0.80309 0.70481 0.0
H3450 H 0.23796 0.78484 0.66392 0.0
H3451 H 0.29884 0.74829 0.65908 0.0
H3452 H 0.3124 0.76659 0.69975 0.0
H3453 H 0.2919 0.76468 0.85995 0.0
H3454 H 0.28183 0.78861 0.82239 0.0
H3455 H 0.33837 0.76478 0.77886 0.0
H3456 H 0.34869 0.74103 0.8165 0.0
H3457 H 0.29698 0.76607 0.74921 0.0
H3458 H 0.34323 0.81293 0.8042 0.0
H3459 H 0.35431 0.83096 0.84602 0.0
H3460 H 0.29157 0.86434 0.84955 0.0
H3461 H 0.27998 0.84622 0.80792 0.0
C3462 C 0.29155 0.84766 0.66356 0.0
C3463 C 0.27568 0.86464 0.66622 0.0
C3464 C 0.2968 0.83375 0.68494 0.0
C3465 C 0.28611 0.83623 0.70947 0.0
C3466 C 0.27049 0.85334 0.71233 0.0
C3467 C 0.26533 0.86736 0.69099 0.0
C3468 C 0.29131 0.82108 0.73213 0.0
C3469 C 0.29745 0.83048 0.75655 0.0
C3470 C 0.29093 0.7975 0.72959 0.0
C3471 C 0.28281 0.78638 0.70519 0.0
C3472 C 0.26169 0.79129 0.69491 0.0
C3473 C 0.25419 0.78092 0.67179 0.0
C3474 C 0.26759 0.76546 0.65887 0.0
C3475 C 0.28849 0.7603 0.66909 0.0
C3476 C 0.29609 0.77065 0.69219 0.0
C3477 C 0.30209 0.76444 0.8423 0.0
C3478 C 0.3211 0.751 0.84117 0.0
C3479 C 0.29638 0.77818 0.82092 0.0
C3480 C 0.30939 0.77853 0.79786 0.0
C3481 C 0.3281 0.76476 0.79645 0.0
C3482 C 0.33404 0.75131 0.818 0.0
C3483 C 0.30369 0.79355 0.7754 0.0
C3484 C 0.29746 0.7841 0.7511 0.0
C3485 C 0.30367 0.81705 0.77814 0.0
C3486 C 0.31064 0.82803 0.8031 0.0
C3487 C 0.33171 0.82395 0.81402 0.0
C3488 C 0.3381 0.83422 0.83767 0.0
C3489 C 0.32363 0.84873 0.85048 0.0
C3490 C 0.30275 0.85306 0.83963 0.0
C3491 C 0.29627 0.84281 0.816 0.0
H3492 H 0.32861 0.85667 0.86878 0.0
H3493 H 0.26175 0.75744 0.64098 0.0
H3494 H 0.09839 0.5983 0.10623 0.0
H3495 H 0.07754 0.58403 0.06856 0.0
H3496 H 0.10824 0.51974 0.07826 0.0
H3497 H 0.13046 0.53438 0.11477 0.0
H3498 H 0.10677 0.52855 0.0288 0.0
H3499 H 0.05235 0.53114 0.09727 0.0
H3500 H 1.03067 0.54793 0.13338 0.0
H3501 H 1.00476 0.59671 0.07945 0.0
H3502 H 1.02652 0.58041 0.04308 0.0
H3503 H 1.03386 0.47838 0.93479 0.0
H3504 H 1.04937 0.48651 0.97886 0.0
H3505 H 1.03292 0.55597 0.96901 0.0
H3506 H 1.01764 0.54787 0.92509 0.0
H3507 H 1.02566 0.54071 0.02072 0.0
H3508 H 0.08323 0.53918 0.95363 0.0
H3509 H 0.10453 0.52148 0.91781 0.0
H3510 H 0.12382 0.46885 0.97065 0.0
H3511 H 0.10233 0.48608 1.0067 0.0
C3512 C 0.10104 0.58121 0.1002 0.0
C3513 C 0.11625 0.56757 0.11374 0.0
C3514 C 0.08873 0.57292 0.07883 0.0
C3515 C 0.09087 0.5506 0.07077 0.0
C3516 C 0.10611 0.53696 0.08413 0.0
C3517 C 0.11867 0.54534 0.10527 0.0
C3518 C 0.07772 0.54173 0.04797 0.0
C3519 C 0.08896 0.53085 0.02738 0.0
C3520 C 0.05447 0.54489 0.04571 0.0
C3521 C 1.04121 0.55464 0.06749 0.0
C3522 C 1.04213 0.54553 0.09315 0.0
C3523 C 1.02982 0.55496 0.11366 0.0
C3524 C 1.01638 0.5734 0.10873 0.0
C3525 C 1.01519 0.58243 0.08325 0.0
C3526 C 1.02749 0.57309 0.06267 0.0
C3527 C 1.03304 0.49522 0.94247 0.0
C3528 C 1.02447 0.51251 0.92681 0.0
C3529 C 1.04201 0.49989 0.96749 0.0
C3530 C 1.04248 0.5219 0.97714 0.0
C3531 C 1.0327 0.53889 0.96205 0.0
C3532 C 1.02396 0.53426 0.93701 0.0
C3533 C 0.05478 0.52777 1.00174 0.0
C3534 C 1.0434 0.53814 0.02251 0.0
C3535 C 0.07785 0.52397 1.00431 0.0
C3536 C 0.09098 0.51377 0.98276 0.0
C3537 C 0.09188 0.52375 0.95755 0.0
C3538 C 0.104 0.51381 0.93722 0.0
C3539 C 0.11547 0.49402 0.94193 0.0
C3540 C 0.11489 0.48416 0.96702 0.0
C3541 C 0.10275 0.494 0.98741 0.0
H3542 H 0.12485 0.48635 0.92617 0.0
H3543 H 1.00687 0.58068 0.12464 0.0
H3544 H 0.79951 0.84296 0.87032 0.0
H3545 H 0.80943 0.81933 0.83292 0.0
H3546 H 0.7689 0.85945 0.78134 0.0
H3547 H 0.75875 0.88312 0.81884 0.0
H3548 H 0.76318 0.81685 0.76972 0.0
H3549 H 0.82705 0.86393 0.78277 0.0
H3550 H 0.85755 0.88136 0.80813 0.0
H3551 H 0.88439 0.81672 0.8251 0.0
H3552 H 0.85386 0.79888 0.80013 0.0
H3553 H 0.80628 0.7781 0.64782 0.0
H3554 H 0.79653 0.80116 0.68574 0.0
H3555 H 0.83582 0.75925 0.73664 0.0
H3556 H 0.84561 0.73594 0.69867 0.0
H3557 H 0.84223 0.80234 0.74886 0.0
H3558 H 0.77851 0.75532 0.73537 0.0
H3559 H 0.74804 0.73796 0.70991 0.0
H3560 H 0.72094 0.80261 0.69363 0.0
H3561 H 0.75144 0.82039 0.7187 0.0
C3562 C 0.7928 0.8469 0.851 0.0
C3563 C 0.77846 0.86515 0.84765 0.0
C3564 C 0.79851 0.83332 0.82955 0.0
C3565 C 0.79029 0.83774 0.80404 0.0
C3566 C 0.77556 0.85565 0.80073 0.0
C3567 C 0.76972 0.86918 0.82225 0.0
C3568 C 0.79704 0.82372 0.78089 0.0
C3569 C 0.78048 0.81396 0.76498 0.0
C3570 C 0.81961 0.81937 0.7749 0.0
C3571 C 0.83805 0.83006 0.78979 0.0
C3572 C 0.83937 0.85343 0.79207 0.0
C3573 C 0.85667 0.86338 0.80635 0.0
C3574 C 0.87286 0.85015 0.81828 0.0
C3575 C 0.87182 0.82694 0.81588 0.0
C3576 C 0.85453 0.8169 0.80165 0.0
C3577 C 0.81274 0.77361 0.66709 0.0
C3578 C 0.82658 0.75491 0.67009 0.0
C3579 C 0.80714 0.78689 0.68883 0.0
C3580 C 0.81507 0.78181 0.71429 0.0
C3581 C 0.82939 0.76354 0.71728 0.0
C3582 C 0.83505 0.75023 0.69548 0.0
C3583 C 0.80837 0.79554 0.73767 0.0
C3584 C 0.82493 0.80523 0.75362 0.0
C3585 C 0.7858 0.79985 0.74368 0.0
C3586 C 0.76738 0.7892 0.7287 0.0
C3587 C 0.76615 0.76585 0.7262 0.0
C3588 C 0.74885 0.75593 0.71186 0.0
C3589 C 0.73259 0.76918 0.70011 0.0
C3590 C 0.73356 0.79237 0.70272 0.0
C3591 C 0.75084 0.80238 0.71701 0.0
H3592 H 0.71922 0.76146 0.68902 0.0
H3593 H 0.88625 0.85789 0.82933 0.0
H3594 H 0.80857 0.33545 0.15104 0.0
H3595 H 0.81833 0.31124 0.18841 0.0
H3596 H 0.77821 0.35123 0.24029 0.0
H3597 H 0.76842 0.3755 0.20302 0.0
H3598 H 0.81927 0.33916 0.26285 0.0
H3599 H 0.75735 0.30438 0.21816 0.0
H3600 H 0.73746 0.28896 0.17958 0.0
H3601 H 0.78887 0.24062 0.1687 0.0
H3602 H 0.80925 0.256 0.207 0.0
H3603 H 0.80516 0.26526 0.37118 0.0
H3604 H 0.79814 0.28964 0.33324 0.0
H3605 H 0.83468 0.2451 0.28283 0.0
H3606 H 0.84139 0.22038 0.32063 0.0
H3607 H 0.79696 0.25931 0.25884 0.0
H3608 H 0.85843 0.29241 0.30385 0.0
H3609 H 0.87887 0.30717 0.34239 0.0
H3610 H 0.82995 0.3582 0.35219 0.0
H3611 H 0.80897 0.34348 0.31399 0.0
C3612 C 0.80208 0.33926 0.17048 0.0
C3613 C 0.78765 0.35734 0.17405 0.0
C3614 C 0.80756 0.32534 0.19178 0.0
C3615 C 0.79886 0.32931 0.21712 0.0
C3616 C 0.7851 0.34782 0.22093 0.0
C3617 C 0.77941 0.36159 0.19959 0.0
C3618 C 0.80335 0.31369 0.23941 0.0
C3619 C 0.81419 0.32176 0.26211 0.0
C3620 C 0.79723 0.29085 0.23819 0.0
C3621 C 0.78494 0.2815 0.21526 0.0
C3622 C 0.76451 0.29059 0.2074 0.0
C3623 C 0.75313 0.28183 0.18561 0.0
C3624 C 0.76193 0.26386 0.17165 0.0
C3625 C 0.78209 0.25457 0.1795 0.0
C3626 C 0.79356 0.26329 0.20126 0.0
C3627 C 0.81146 0.26049 0.35197 0.0
C3628 C 0.82388 0.24087 0.34898 0.0
C3629 C 0.80761 0.27456 0.33032 0.0
C3630 C 0.81612 0.26937 0.30521 0.0
C3631 C 0.82804 0.24952 0.30201 0.0
C3632 C 0.83198 0.23548 0.32368 0.0
C3633 C 0.81276 0.28479 0.2824 0.0
C3634 C 0.80214 0.27669 0.2596 0.0
C3635 C 0.81925 0.30756 0.28345 0.0
C3636 C 0.832 0.3167 0.30619 0.0
C3637 C 0.85193 0.30668 0.31433 0.0
C3638 C 0.86363 0.31504 0.33611 0.0
C3639 C 0.85568 0.33357 0.34977 0.0
C3640 C 0.83606 0.34382 0.34161 0.0
C3641 C 0.82427 0.33548 0.31989 0.0
H3642 H 0.86475 0.34001 0.36663 0.0
H3643 H 0.75309 0.2571 0.15479 0.0
H3644 H 0.11891 1.04731 0.9268 0.0
H3645 H 0.09558 1.03733 0.96462 0.0
H3646 H 0.06155 0.10012 0.95774 0.0
H3647 H 0.08493 0.11025 0.91984 0.0
H3648 H 0.0693 0.09098 0.0084 0.0
H3649 H 1.03807 1.0506 0.93551 0.0
H3650 H 1.03826 1.0252 0.89721 0.0
H3651 H 0.0599 0.97149 0.94711 0.0
H3652 H 0.06014 0.99667 0.98567 0.0
H3653 H 0.97596 0.06223 0.08806 0.0
H3654 H 0.99996 0.07244 0.05095 0.0
H3655 H 1.03598 1.01109 0.06058 0.0
H3656 H 1.01227 1.00087 0.0981 0.0
H3657 H 1.0272 1.01946 0.00868 0.0
H3658 H 0.05802 0.06023 0.08172 0.0
H3659 H 0.05729 0.08583 0.11982 0.0
H3660 H 1.03569 0.1391 0.06923 0.0
H3661 H 1.03598 0.11372 0.03087 0.0
C3662 C 0.1064 0.05898 0.93321 0.0
C3663 C 0.10374 0.07954 0.92006 0.0
C3664 C 0.09303 0.05324 0.9549 0.0
C3665 C 0.07647 0.06777 0.96388 0.0
C3666 C 0.07415 0.08856 0.95123 0.0
C3667 C 0.0876 0.09437 0.92957 0.0
C3668 C 0.06156 0.06124 0.98632 0.0
C3669 C 0.05987 0.07548 1.00825 0.0
C3670 C 1.04953 1.04078 0.98655 0.0
C3671 C 1.04933 1.02558 0.96342 0.0
C3672 C 1.04303 1.03342 0.93828 0.0
C3673 C 1.04303 1.01905 0.91653 0.0
C3674 C 1.04914 0.99676 0.91971 0.0
C3675 C 0.0552 0.98877 0.94467 0.0
C3676 C 0.05526 1.00308 0.96648 0.0
C3677 C 0.98911 1.05095 0.08253 0.0
C3678 C 0.99217 1.03074 0.09633 0.0
C3679 C 1.00282 0.05682 0.06118 0.0
C3680 C 1.02001 1.04269 0.05308 0.0
C3681 C 1.02285 1.0223 0.06641 0.0
C3682 C 1.00917 1.01643 0.08784 0.0
C3683 C 1.03498 1.0492 0.03072 0.0
C3684 C 1.03665 1.03495 0.0088 0.0
C3685 C 1.04692 0.06969 0.03046 0.0
C3686 C 1.04681 0.08501 0.05347 0.0
C3687 C 0.05294 0.07736 0.07875 0.0
C3688 C 0.05264 0.09184 0.10039 0.0
C3689 C 1.0464 0.11406 0.09696 0.0
C3690 C 1.0405 0.12187 0.07187 0.0
C3691 C 1.04074 0.10745 0.05016 0.0
H3692 H 1.04618 0.12525 0.11374 0.0
H3693 H 1.04913 0.98567 0.90284 0.0
H3694 H 0.60979 1.04391 0.58412 0.0
H3695 H 0.58661 1.03305 0.54643 0.0
H3696 H 0.54497 0.09017 0.55954 0.0
H3697 H 0.56765 0.10074 0.5977 0.0
H3698 H 0.52022 0.05392 0.54907 0.0
H3699 H 0.58386 0.08988 0.51005 0.0
H3700 H 0.62377 0.09617 0.50178 0.0
H3701 H 0.62953 1.02961 0.47143 0.0
H3702 H 0.58969 1.02282 0.47985 0.0
H3703 H 0.46399 0.05539 0.42565 0.0
H3704 H 0.48728 0.06506 0.46363 0.0
H3705 H 0.52822 1.00776 0.44864 0.0
H3706 H 0.50544 0.99839 0.41009 0.0
H3707 H 0.55344 1.04336 0.46021 0.0
H3708 H 0.48969 1.00753 0.49863 0.0
H3709 H 0.44977 1.00124 0.50684 0.0
H3710 H 0.4442 0.06742 0.53838 0.0
H3711 H 0.48404 0.07423 0.53001 0.0
C3712 C 0.59557 0.05405 0.57916 0.0
C3713 C 0.59069 0.07329 0.59391 0.0
C3714 C 0.58244 1.04793 0.55742 0.0
C3715 C 0.56418 0.06095 0.54987 0.0
C3716 C 0.55901 0.0799 0.56486 0.0
C3717 C 0.57213 0.08604 0.58656 0.0
C3718 C 0.55045 0.05489 0.52635 0.0
C3719 C 0.52746 1.05189 0.52958 0.0
C3720 C 0.5599 1.0517 0.50099 0.0
C3721 C 0.58384 0.05577 0.49584 0.0
C3722 C 0.59367 0.07652 0.50181 0.0
C3723 C 0.61628 0.08019 0.49706 0.0
C3724 C 0.62919 0.06328 0.48615 0.0
C3725 C 0.61951 1.04268 0.47991 0.0
C3726 C 0.59692 1.03892 0.48465 0.0
C3727 C 0.47807 1.04495 0.43025 0.0
C3728 C 0.48274 1.02604 0.41482 0.0
C3729 C 0.49126 1.05038 0.45217 0.0
C3730 C 0.50936 1.03697 0.45928 0.0
C3731 C 0.51429 1.0183 0.44367 0.0
C3732 C 0.50111 1.01286 0.42175 0.0
C3733 C 0.52319 1.04245 0.48292 0.0
C3734 C 0.5462 1.04535 0.47971 0.0
C3735 C 0.51375 1.04553 0.50831 0.0
C3736 C 0.48981 1.04146 0.51345 0.0
C3737 C 0.47992 1.02081 0.50713 0.0
C3738 C 0.45731 1.01713 0.51184 0.0
C3739 C 0.44444 1.03394 0.52306 0.0
C3740 C 0.45418 0.05443 0.52965 0.0
C3741 C 0.47677 0.0582 0.52495 0.0
H3742 H 0.42694 1.03106 0.5267 0.0
H3743 H 0.64669 0.06615 0.48249 0.0
loop_
_geom_bond_atom_site_label_1
_geom_bond_atom_site_label_2
_geom_bond_distance
_geom_bond_site_symmetry_2
_ccdc_geom_bond_type
Tb0 N29 2.617 . S
Tb0 N35 2.572 . S
Tb0 O44 2.465 . S
Tb0 O45 2.387 . S
Tb0 O47 2.428 . S
Tb0 O48 2.308 . S
Tb0 O52 2.349 . S
Tb0 O55 2.393 . S
Tb0 C64 2.802 . S
C1 N2 1.379 1_556 S
C1 C4 1.416 . S
C1 C8 1.424 . S
N2 C1 1.379 1_554 S
N2 C5 1.334 . S
N2 Tb11 2.617 . S
C3 C5 1.390 . S
C3 C6 1.339 . S
C3 H23 0.930 . S
C4 C1 1.416 . S
C4 C6 1.416 1_556 S
C4 C10 1.448 . S
C5 N2 1.334 . S
C5 C3 1.390 . S
C5 H16 0.930 . S
C6 C3 1.339 . S
C6 C4 1.416 1_554 S
C6 H27 0.930 . S
C7 C8 1.413 . S
C7 C9 1.427 . S
C7 C13 1.416 . S
C8 C1 1.424 . S
C8 C7 1.413 . S
C8 N12 1.361 . S
C9 C7 1.427 . S
C9 C10 1.328 . S
C9 H24 0.929 . S
C10 C4 1.448 . S
C10 C9 1.328 . S
C10 H25 0.930 . S
Tb11 N2 2.617 . S
Tb11 N12 2.572 1_554 S
Tb11 O46 2.349 . S
Tb11 O49 2.393 . S
Tb11 O50 2.465 1_554 S
Tb11 O51 2.387 . S
Tb11 O53 2.428 . S
Tb11 O54 2.308 . S
Tb11 C75 2.802 1_554 S
N12 C8 1.361 . S
N12 Tb11 2.572 1_556 S
N12 C14 1.340 . S
C13 C7 1.416 . S
C13 C15 1.332 . S
C13 H21 0.931 . S
C14 N12 1.340 . S
C14 C15 1.407 . S
C14 H20 0.930 . S
C15 C13 1.332 . S
C15 C14 1.407 . S
C15 H17 0.929 . S
H16 C5 0.930 . S
H17 C15 0.929 . S
H18 C33 0.930 . S
H19 C40 0.929 . S
H20 C14 0.930 . S
H21 C13 0.931 . S
H22 C36 0.930 . S
H23 C3 0.930 . S
H24 C9 0.929 . S
H25 C10 0.930 . S
H26 C31 0.930 . S
H27 C6 0.930 . S
H28 C39 0.931 . S
N29 Tb0 2.617 . S
N29 C30 1.379 . S
N29 C33 1.334 . S
C30 N29 1.379 . S
C30 C32 1.416 . S
C30 C38 1.424 . S
C31 H26 0.930 . S
C31 C33 1.390 . S
C31 C34 1.339 . S
C32 C30 1.416 . S
C32 C34 1.416 . S
C32 C65 1.448 . S
C33 H18 0.930 . S
C33 N29 1.334 . S
C33 C31 1.390 . S
C34 C31 1.339 . S
C34 C32 1.416 . S
C34 H41 0.930 . S
N35 Tb0 2.572 . S
N35 C36 1.340 . S
N35 C38 1.361 . S
C36 H22 0.930 . S
C36 N35 1.340 . S
C36 C40 1.407 . S
C37 C38 1.413 . S
C37 C39 1.416 . S
C37 C66 1.427 . S
C38 C30 1.424 . S
C38 N35 1.361 . S
C38 C37 1.413 . S
C39 H28 0.931 . S
C39 C37 1.416 . S
C39 C40 1.332 . S
C40 H19 0.929 . S
C40 C36 1.407 . S
C40 C39 1.332 . S
H41 C34 0.930 . S
H42 C65 0.930 . S
H43 C66 0.929 . S
O44 Tb0 2.465 . S
O44 C64 1.264 . S
O45 Tb0 2.387 . S
O45 C56 1.264 . S
O46 Tb11 2.349 . S
O46 C56 1.243 . S
O47 Tb0 2.428 . S
O47 C64 1.256 . S
O48 Tb0 2.308 . S
O48 C63 1.266 . S
O49 Tb11 2.393 . S
O49 C63 1.248 . S
O50 Tb11 2.465 1_556 S
O50 C75 1.264 . S
O51 Tb11 2.387 . S
O51 C67 1.264 . S
O52 Tb0 2.349 . S
O52 C67 1.243 . S
O53 Tb11 2.428 . S
O53 C75 1.256 1_554 S
O54 Tb11 2.308 . S
O54 C74 1.266 . S
O55 Tb0 2.393 . S
O55 C74 1.248 . S
C56 O45 1.264 . S
C56 O46 1.243 . S
C57 C60 1.399 . S
C57 C62 1.383 . S
C57 C64 1.496 . S
C58 C59 1.399 . S
C58 C62 1.389 . S
C59 C58 1.399 . S
C59 C61 1.380 . S
C59 H76 0.929 . S
C60 C57 1.399 . S
C60 C61 1.392 . S
C60 H77 0.929 . S
C61 C59 1.380 . S
C61 C60 1.392 . S
C61 H78 0.929 . S
C62 C57 1.383 . S
C62 C58 1.389 . S
C62 H79 0.931 . S
C63 O48 1.266 . S
C63 O49 1.248 . S
C64 Tb0 2.802 . S
C64 O44 1.264 . S
C64 O47 1.256 . S
C64 C57 1.496 . S
C65 C32 1.448 . S
C65 H42 0.930 . S
C65 C66 1.328 . S
C66 C37 1.427 . S
C66 H43 0.929 . S
C66 C65 1.328 . S
C67 O51 1.264 . S
C67 O52 1.243 . S
C68 C71 1.399 . S
C68 C72 1.383 . S
C68 C75 1.496 . S
C69 C70 1.399 . S
C69 C72 1.389 . S
C70 C69 1.399 . S
C70 C73 1.380 . S
C70 H80 0.929 . S
C71 C68 1.399 . S
C71 C73 1.392 . S
C71 H81 0.929 . S
C72 C68 1.383 . S
C72 C69 1.389 . S
C72 H82 0.931 . S
C73 C70 1.380 . S
C73 C71 1.392 . S
C73 H83 0.929 . S
C74 O54 1.266 . S
C74 O55 1.248 . S
C75 Tb11 2.802 1_556 S
C75 O50 1.264 . S
C75 O53 1.256 1_556 S
C75 C68 1.496 . S
H76 C59 0.929 . S
H77 C60 0.929 . S
H78 C61 0.929 . S
H79 C62 0.931 . S
H80 C70 0.929 . S
H81 C71 0.929 . S
H82 C72 0.931 . S
H83 C73 0.929 . S
Tb84 N113 2.617 . S
Tb84 N119 2.572 . S
Tb84 O128 2.465 . S
Tb84 O129 2.387 . S
Tb84 O131 2.428 . S
Tb84 O132 2.308 . S
Tb84 O136 2.349 . S
Tb84 O139 2.393 . S
Tb84 C148 2.802 . S
C85 N86 1.379 . S
C85 C88 1.416 . S
C85 C92 1.424 . S
N86 C85 1.379 . S
N86 C89 1.334 . S
N86 Tb95 2.617 . S
C87 C89 1.390 . S
C87 C90 1.339 . S
C87 H107 0.930 . S
C88 C85 1.416 . S
C88 C90 1.416 . S
C88 C94 1.448 . S
C89 N86 1.334 . S
C89 C87 1.390 . S
C89 H100 0.930 . S
C90 C87 1.339 . S
C90 C88 1.416 . S
C90 H111 0.930 . S
C91 C92 1.413 . S
C91 C93 1.427 . S
C91 C97 1.416 . S
C92 C85 1.424 . S
C92 C91 1.413 . S
C92 N96 1.361 . S
C93 C91 1.427 . S
C93 C94 1.328 . S
C93 H108 0.929 . S
C94 C88 1.448 . S
C94 C93 1.328 . S
C94 H109 0.930 . S
Tb95 N86 2.617 . S
Tb95 N96 2.572 . S
Tb95 O130 2.349 . S
Tb95 O133 2.393 . S
Tb95 O134 2.465 . S
Tb95 O135 2.387 . S
Tb95 O137 2.428 . S
Tb95 O138 2.308 . S
Tb95 C159 2.802 . S
N96 C92 1.361 . S
N96 Tb95 2.572 . S
N96 C98 1.340 . S
C97 C91 1.416 . S
C97 C99 1.332 . S
C97 H105 0.931 . S
C98 N96 1.340 . S
C98 C99 1.407 . S
C98 H104 0.930 . S
C99 C97 1.332 . S
C99 C98 1.407 . S
C99 H101 0.929 . S
H100 C89 0.930 . S
H101 C99 0.929 . S
H102 C117 0.930 . S
H103 C124 0.929 . S
H104 C98 0.930 . S
H105 C97 0.931 . S
H106 C120 0.930 . S
H107 C87 0.930 . S
H108 C93 0.929 . S
H109 C94 0.930 . S
H110 C115 0.930 . S
H111 C90 0.930 . S
H112 C123 0.931 . S
N113 Tb84 2.617 . S
N113 C114 1.379 . S
N113 C117 1.334 . S
C114 N113 1.379 . S
C114 C116 1.416 . S
C114 C122 1.424 . S
C115 H110 0.930 . S
C115 C117 1.390 . S
C115 C118 1.339 . S
C116 C114 1.416 . S
C116 C118 1.416 . S
C116 C149 1.448 . S
C117 H102 0.930 . S
C117 N113 1.334 . S
C117 C115 1.390 . S
C118 C115 1.339 . S
C118 C116 1.416 . S
C118 H125 0.930 . S
N119 Tb84 2.572 . S
N119 C120 1.340 . S
N119 C122 1.361 . S
C120 H106 0.930 . S
C120 N119 1.340 . S
C120 C124 1.407 . S
C121 C122 1.413 . S
C121 C123 1.416 . S
C121 C150 1.427 . S
C122 C114 1.424 . S
C122 N119 1.361 . S
C122 C121 1.413 . S
C123 H112 0.931 . S
C123 C121 1.416 . S
C123 C124 1.332 . S
C124 H103 0.929 . S
C124 C120 1.407 . S
C124 C123 1.332 . S
H125 C118 0.930 . S
H126 C149 0.930 . S
H127 C150 0.929 . S
O128 Tb84 2.465 . S
O128 C148 1.264 . S
O129 Tb84 2.387 . S
O129 C140 1.264 . S
O130 Tb95 2.349 . S
O130 C140 1.243 . S
O131 Tb84 2.428 . S
O131 C148 1.256 . S
O132 Tb84 2.308 . S
O132 C147 1.266 . S
O133 Tb95 2.393 . S
O133 C147 1.248 . S
O134 Tb95 2.465 . S
O134 C159 1.264 . S
O135 Tb95 2.387 . S
O135 C151 1.264 . S
O136 Tb84 2.349 . S
O136 C151 1.243 . S
O137 Tb95 2.428 . S
O137 C159 1.256 . S
O138 Tb95 2.308 . S
O138 C158 1.266 . S
O139 Tb84 2.393 . S
O139 C158 1.248 . S
C140 O129 1.264 . S
C140 O130 1.243 . S
C141 C144 1.399 . S
C141 C146 1.383 . S
C141 C148 1.496 . S
C142 C143 1.399 . S
C142 C146 1.389 . S
C143 C142 1.399 . S
C143 C145 1.380 . S
C143 H160 0.929 . S
C144 C141 1.399 . S
C144 C145 1.392 . S
C144 H161 0.929 . S
C145 C143 1.380 . S
C145 C144 1.392 . S
C145 H162 0.929 . S
C146 C141 1.383 . S
C146 C142 1.389 . S
C146 H163 0.931 . S
C147 O132 1.266 . S
C147 O133 1.248 . S
C148 Tb84 2.802 . S
C148 O128 1.264 . S
C148 O131 1.256 . S
C148 C141 1.496 . S
C149 C116 1.448 . S
C149 H126 0.930 . S
C149 C150 1.328 . S
C150 C121 1.427 . S
C150 H127 0.929 . S
C150 C149 1.328 . S
C151 O135 1.264 . S
C151 O136 1.243 . S
C152 C155 1.399 . S
C152 C156 1.383 . S
C152 C159 1.496 . S
C153 C154 1.399 . S
C153 C156 1.389 . S
C154 C153 1.399 . S
C154 C157 1.380 . S
C154 H164 0.929 . S
C155 C152 1.399 . S
C155 C157 1.392 . S
C155 H165 0.929 . S
C156 C152 1.383 . S
C156 C153 1.389 . S
C156 H166 0.931 . S
C157 C154 1.380 . S
C157 C155 1.392 . S
C157 H167 0.929 . S
C158 O138 1.266 . S
C158 O139 1.248 . S
C159 Tb95 2.802 . S
C159 O134 1.264 . S
C159 O137 1.256 . S
C159 C152 1.496 . S
H160 C143 0.929 . S
H161 C144 0.929 . S
H162 C145 0.929 . S
H163 C146 0.931 . S
H164 C154 0.929 . S
H165 C155 0.929 . S
H166 C156 0.931 . S
H167 C157 0.929 . S
Tb168 N197 2.617 . S
Tb168 N203 2.572 . S
Tb168 O212 2.465 . S
Tb168 O213 2.387 . S
Tb168 O215 2.428 . S
Tb168 O216 2.308 . S
Tb168 O220 2.349 . S
Tb168 O223 2.393 . S
Tb168 C232 2.802 . S
C169 N170 1.379 . S
C169 C172 1.416 . S
C169 C176 1.424 . S
N170 C169 1.379 . S
N170 C173 1.334 . S
N170 Tb179 2.617 . S
C171 C173 1.390 . S
C171 C174 1.339 . S
C171 H191 0.930 . S
C172 C169 1.416 . S
C172 C174 1.416 . S
C172 C178 1.448 . S
C173 N170 1.334 . S
C173 C171 1.390 . S
C173 H184 0.930 . S
C174 C171 1.339 . S
C174 C172 1.416 . S
C174 H195 0.930 . S
C175 C176 1.413 . S
C175 C177 1.427 . S
C175 C181 1.416 . S
C176 C169 1.424 . S
C176 C175 1.413 . S
C176 N180 1.361 . S
C177 C175 1.427 . S
C177 C178 1.328 . S
C177 H192 0.929 . S
C178 C172 1.448 . S
C178 C177 1.328 . S
C178 H193 0.930 . S
Tb179 N170 2.617 . S
Tb179 N180 2.572 . S
Tb179 O214 2.349 . S
Tb179 O217 2.393 . S
Tb179 O218 2.465 . S
Tb179 O219 2.387 . S
Tb179 O221 2.428 . S
Tb179 O222 2.308 . S
Tb179 C243 2.802 . S
N180 C176 1.361 . S
N180 Tb179 2.572 . S
N180 C182 1.340 . S
C181 C175 1.416 . S
C181 C183 1.332 . S
C181 H189 0.931 . S
C182 N180 1.340 . S
C182 C183 1.407 . S
C182 H188 0.930 . S
C183 C181 1.332 . S
C183 C182 1.407 . S
C183 H185 0.929 . S
H184 C173 0.930 . S
H185 C183 0.929 . S
H186 C201 0.930 . S
H187 C208 0.929 . S
H188 C182 0.930 . S
H189 C181 0.931 . S
H190 C204 0.930 . S
H191 C171 0.930 . S
H192 C177 0.929 . S
H193 C178 0.930 . S
H194 C199 0.930 . S
H195 C174 0.930 . S
H196 C207 0.931 . S
N197 Tb168 2.617 . S
N197 C198 1.379 . S
N197 C201 1.334 . S
C198 N197 1.379 . S
C198 C200 1.416 . S
C198 C206 1.424 . S
C199 H194 0.930 . S
C199 C201 1.390 . S
C199 C202 1.339 . S
C200 C198 1.416 . S
C200 C202 1.416 . S
C200 C233 1.448 . S
C201 H186 0.930 . S
C201 N197 1.334 . S
C201 C199 1.390 . S
C202 C199 1.339 . S
C202 C200 1.416 . S
C202 H209 0.930 . S
N203 Tb168 2.572 . S
N203 C204 1.340 . S
N203 C206 1.361 . S
C204 H190 0.930 . S
C204 N203 1.340 . S
C204 C208 1.407 . S
C205 C206 1.413 . S
C205 C207 1.416 . S
C205 C234 1.427 . S
C206 C198 1.424 . S
C206 N203 1.361 . S
C206 C205 1.413 . S
C207 H196 0.931 . S
C207 C205 1.416 . S
C207 C208 1.332 . S
C208 H187 0.929 . S
C208 C204 1.407 . S
C208 C207 1.332 . S
H209 C202 0.930 . S
H210 C233 0.930 . S
H211 C234 0.929 . S
O212 Tb168 2.465 . S
O212 C232 1.264 . S
O213 Tb168 2.387 . S
O213 C224 1.264 . S
O214 Tb179 2.349 . S
O214 C224 1.243 . S
O215 Tb168 2.428 . S
O215 C232 1.256 . S
O216 Tb168 2.308 . S
O216 C231 1.266 . S
O217 Tb179 2.393 . S
O217 C231 1.248 . S
O218 Tb179 2.465 . S
O218 C243 1.264 . S
O219 Tb179 2.387 . S
O219 C235 1.264 . S
O220 Tb168 2.349 . S
O220 C235 1.243 . S
O221 Tb179 2.428 . S
O221 C243 1.256 . S
O222 Tb179 2.308 . S
O222 C242 1.266 . S
O223 Tb168 2.393 . S
O223 C242 1.248 . S
C224 O213 1.264 . S
C224 O214 1.243 . S
C225 C228 1.399 . S
C225 C230 1.383 . S
C225 C232 1.496 . S
C226 C227 1.399 . S
C226 C230 1.389 . S
C227 C226 1.399 . S
C227 C229 1.380 . S
C227 H244 0.929 . S
C228 C225 1.399 . S
C228 C229 1.392 . S
C228 H245 0.929 . S
C229 C227 1.380 . S
C229 C228 1.392 . S
C229 H246 0.929 . S
C230 C225 1.383 . S
C230 C226 1.389 . S
C230 H247 0.931 . S
C231 O216 1.266 . S
C231 O217 1.248 . S
C232 Tb168 2.802 . S
C232 O212 1.264 . S
C232 O215 1.256 . S
C232 C225 1.496 . S
C233 C200 1.448 . S
C233 H210 0.930 . S
C233 C234 1.328 . S
C234 C205 1.427 . S
C234 H211 0.929 . S
C234 C233 1.328 . S
C235 O219 1.264 . S
C235 O220 1.243 . S
C236 C239 1.399 . S
C236 C240 1.383 . S
C236 C243 1.496 . S
C237 C238 1.399 . S
C237 C240 1.389 . S
C238 C237 1.399 . S
C238 C241 1.380 . S
C238 H248 0.929 . S
C239 C236 1.399 . S
C239 C241 1.392 . S
C239 H249 0.929 . S
C240 C236 1.383 . S
C240 C237 1.389 . S
C240 H250 0.931 . S
C241 C238 1.380 . S
C241 C239 1.392 . S
C241 H251 0.929 . S
C242 O222 1.266 . S
C242 O223 1.248 . S
C243 Tb179 2.802 . S
C243 O218 1.264 . S
C243 O221 1.256 . S
C243 C236 1.496 . S
H244 C227 0.929 . S
H245 C228 0.929 . S
H246 C229 0.929 . S
H247 C230 0.931 . S
H248 C238 0.929 . S
H249 C239 0.929 . S
H250 C240 0.931 . S
H251 C241 0.929 . S
Tb252 N281 2.617 . S
Tb252 N287 2.572 . S
Tb252 O296 2.465 . S
Tb252 O297 2.387 . S
Tb252 O299 2.428 . S
Tb252 O300 2.308 . S
Tb252 O304 2.349 . S
Tb252 O307 2.393 . S
Tb252 C316 2.802 . S
C253 N254 1.379 . S
C253 C256 1.416 . S
C253 C260 1.424 . S
N254 C253 1.379 . S
N254 C257 1.334 . S
N254 Tb263 2.617 . S
C255 C257 1.390 . S
C255 C258 1.339 . S
C255 H275 0.930 . S
C256 C253 1.416 . S
C256 C258 1.416 . S
C256 C262 1.448 . S
C257 N254 1.334 . S
C257 C255 1.390 . S
C257 H268 0.930 . S
C258 C255 1.339 . S
C258 C256 1.416 . S
C258 H279 0.930 . S
C259 C260 1.413 . S
C259 C261 1.427 . S
C259 C265 1.416 . S
C260 C253 1.424 . S
C260 C259 1.413 . S
C260 N264 1.361 . S
C261 C259 1.427 . S
C261 C262 1.328 . S
C261 H276 0.929 . S
C262 C256 1.448 . S
C262 C261 1.328 . S
C262 H277 0.930 . S
Tb263 N254 2.617 . S
Tb263 N264 2.572 . S
Tb263 O298 2.349 . S
Tb263 O301 2.393 . S
Tb263 O302 2.465 . S
Tb263 O303 2.387 . S
Tb263 O305 2.428 . S
Tb263 O306 2.308 . S
Tb263 C327 2.802 . S
N264 C260 1.361 . S
N264 Tb263 2.572 . S
N264 C266 1.340 . S
C265 C259 1.416 . S
C265 C267 1.332 . S
C265 H273 0.931 . S
C266 N264 1.340 . S
C266 C267 1.407 . S
C266 H272 0.930 . S
C267 C265 1.332 . S
C267 C266 1.407 . S
C267 H269 0.929 . S
H268 C257 0.930 . S
H269 C267 0.929 . S
H270 C285 0.930 . S
H271 C292 0.929 . S
H272 C266 0.930 . S
H273 C265 0.931 . S
H274 C288 0.930 . S
H275 C255 0.930 . S
H276 C261 0.929 . S
H277 C262 0.930 . S
H278 C283 0.930 . S
H279 C258 0.930 . S
H280 C291 0.931 . S
N281 Tb252 2.617 . S
N281 C282 1.379 . S
N281 C285 1.334 . S
C282 N281 1.379 . S
C282 C284 1.416 1_655 S
C282 C290 1.424 . S
C283 H278 0.930 . S
C283 C285 1.390 1_455 S
C283 C286 1.339 . S
C284 C282 1.416 1_455 S
C284 C286 1.416 . S
C284 C317 1.448 . S
C285 H270 0.930 . S
C285 N281 1.334 . S
C285 C283 1.390 1_655 S
C286 C283 1.339 . S
C286 C284 1.416 . S
C286 H293 0.930 . S
N287 Tb252 2.572 . S
N287 C288 1.340 . S
N287 C290 1.361 . S
C288 H274 0.930 . S
C288 N287 1.340 . S
C288 C292 1.407 . S
C289 C290 1.413 . S
C289 C291 1.416 . S
C289 C318 1.427 . S
C290 C282 1.424 . S
C290 N287 1.361 . S
C290 C289 1.413 . S
C291 H280 0.931 . S
C291 C289 1.416 . S
C291 C292 1.332 . S
C292 H271 0.929 . S
C292 C288 1.407 . S
C292 C291 1.332 . S
H293 C286 0.930 . S
H294 C317 0.930 . S
H295 C318 0.942 . S
O296 Tb252 2.465 . S
O296 C316 1.264 . S
O297 Tb252 2.387 . S
O297 C308 1.264 . S
O298 Tb263 2.349 . S
O298 C308 1.243 . S
O299 Tb252 2.428 . S
O299 C316 1.256 . S
O300 Tb252 2.308 . S
O300 C315 1.266 . S
O301 Tb263 2.393 . S
O301 C315 1.248 . S
O302 Tb263 2.465 . S
O302 C327 1.264 . S
O303 Tb263 2.387 . S
O303 C319 1.264 . S
O304 Tb252 2.349 . S
O304 C319 1.243 . S
O305 Tb263 2.428 . S
O305 C327 1.256 . S
O306 Tb263 2.308 . S
O306 C326 1.266 . S
O307 Tb252 2.393 . S
O307 C326 1.248 . S
C308 O297 1.264 . S
C308 O298 1.243 . S
C309 C312 1.399 . S
C309 C314 1.383 . S
C309 C316 1.496 . S
C310 C311 1.399 . S
C310 C314 1.389 . S
C311 C310 1.399 . S
C311 C313 1.380 . S
C311 H328 0.929 . S
C312 C309 1.399 . S
C312 C313 1.392 . S
C312 H329 0.929 . S
C313 C311 1.380 . S
C313 C312 1.392 . S
C313 H330 0.929 . S
C314 C309 1.383 . S
C314 C310 1.389 . S
C314 H331 0.931 . S
C315 O300 1.266 . S
C315 O301 1.248 . S
C316 Tb252 2.802 . S
C316 O296 1.264 . S
C316 O299 1.256 . S
C316 C309 1.496 . S
C317 C284 1.448 . S
C317 H294 0.930 . S
C317 C318 1.328 1_455 S
C318 C289 1.427 . S
C318 H295 0.942 . S
C318 C317 1.328 1_655 S
C319 O303 1.264 . S
C319 O304 1.243 . S
C320 C323 1.399 . S
C320 C324 1.383 . S
C320 C327 1.496 . S
C321 C322 1.399 . S
C321 C324 1.389 . S
C322 C321 1.399 . S
C322 C325 1.380 . S
C322 H332 0.929 . S
C323 C320 1.399 . S
C323 C325 1.392 . S
C323 H333 0.929 . S
C324 C320 1.383 . S
C324 C321 1.389 . S
C324 H334 0.931 . S
C325 C322 1.380 . S
C325 C323 1.392 . S
C325 H335 0.929 . S
C326 O306 1.266 . S
C326 O307 1.248 . S
C327 Tb263 2.802 . S
C327 O302 1.264 . S
C327 O305 1.256 . S
C327 C320 1.496 . S
H328 C311 0.929 . S
H329 C312 0.929 . S
H330 C313 0.929 . S
H331 C314 0.931 . S
H332 C322 0.929 . S
H333 C323 0.929 . S
H334 C324 0.931 . S
H335 C325 0.929 . S
Tb336 N365 2.617 . S
Tb336 N371 2.572 1_556 S
Tb336 O380 2.465 1_556 S
Tb336 O381 2.387 . S
Tb336 O383 2.428 . S
Tb336 O384 2.308 . S
Tb336 O388 2.349 . S
Tb336 O391 2.393 . S
Tb336 C400 2.802 1_556 S
C337 N338 1.379 . S
C337 C340 1.416 . S
C337 C344 1.424 . S
N338 C337 1.379 . S
N338 C341 1.334 . S
N338 Tb347 2.617 . S
C339 C341 1.390 . S
C339 C342 1.339 . S
C339 H359 0.930 . S
C340 C337 1.416 . S
C340 C342 1.416 . S
C340 C346 1.448 . S
C341 N338 1.334 . S
C341 C339 1.390 . S
C341 H352 0.930 . S
C342 C339 1.339 . S
C342 C340 1.416 . S
C342 H363 0.930 . S
C343 C344 1.413 . S
C343 C345 1.427 . S
C343 C349 1.416 . S
C344 C337 1.424 . S
C344 C343 1.413 . S
C344 N348 1.361 . S
C345 C343 1.427 . S
C345 C346 1.328 . S
C345 H360 0.929 . S
C346 C340 1.448 . S
C346 C345 1.328 . S
C346 H361 0.930 . S
Tb347 N338 2.617 . S
Tb347 N348 2.572 . S
Tb347 O382 2.349 . S
Tb347 O385 2.393 . S
Tb347 O386 2.465 . S
Tb347 O387 2.387 . S
Tb347 O389 2.428 . S
Tb347 O390 2.308 . S
Tb347 C411 2.802 . S
N348 C344 1.361 . S
N348 Tb347 2.572 . S
N348 C350 1.340 . S
C349 C343 1.416 . S
C349 C351 1.332 . S
C349 H357 0.931 . S
C350 N348 1.340 . S
C350 C351 1.407 . S
C350 H356 0.930 . S
C351 C349 1.332 . S
C351 C350 1.407 . S
C351 H353 0.929 . S
H352 C341 0.930 . S
H353 C351 0.929 . S
H354 C369 0.930 . S
H355 C376 0.929 . S
H356 C350 0.930 . S
H357 C349 0.931 . S
H358 C372 0.930 . S
H359 C339 0.930 . S
H360 C345 0.929 . S
H361 C346 0.930 . S
H362 C367 0.930 . S
H363 C342 0.930 . S
H364 C375 0.931 . S
N365 Tb336 2.617 . S
N365 C366 1.379 1_556 S
N365 C369 1.334 . S
C366 N365 1.379 1_554 S
C366 C368 1.416 . S
C366 C374 1.424 . S
C367 H362 0.930 . S
C367 C369 1.390 . S
C367 C370 1.339 . S
C368 C366 1.416 . S
C368 C370 1.416 1_554 S
C368 C401 1.448 . S
C369 H354 0.930 . S
C369 N365 1.334 . S
C369 C367 1.390 . S
C370 C367 1.339 . S
C370 C368 1.416 1_556 S
C370 H377 0.930 . S
N371 Tb336 2.572 1_554 S
N371 C372 1.340 . S
N371 C374 1.361 . S
C372 H358 0.930 . S
C372 N371 1.340 . S
C372 C376 1.407 . S
C373 C374 1.413 . S
C373 C375 1.416 . S
C373 C402 1.427 . S
C374 C366 1.424 . S
C374 N371 1.361 . S
C374 C373 1.413 . S
C375 H364 0.931 . S
C375 C373 1.416 . S
C375 C376 1.332 . S
C376 H355 0.929 . S
C376 C372 1.407 . S
C376 C375 1.332 . S
H377 C370 0.930 . S
H378 C401 0.930 . S
H379 C402 0.929 . S
O380 Tb336 2.465 1_554 S
O380 C400 1.264 . S
O381 Tb336 2.387 . S
O381 C392 1.264 . S
O382 Tb347 2.349 . S
O382 C392 1.243 . S
O383 Tb336 2.428 . S
O383 C400 1.256 1_556 S
O384 Tb336 2.308 . S
O384 C399 1.266 . S
O385 Tb347 2.393 . S
O385 C399 1.248 . S
O386 Tb347 2.465 . S
O386 C411 1.264 . S
O387 Tb347 2.387 . S
O387 C403 1.264 . S
O388 Tb336 2.349 . S
O388 C403 1.243 . S
O389 Tb347 2.428 . S
O389 C411 1.256 . S
O390 Tb347 2.308 . S
O390 C410 1.266 . S
O391 Tb336 2.393 . S
O391 C410 1.248 . S
C392 O381 1.264 . S
C392 O382 1.243 . S
C393 C396 1.399 . S
C393 C398 1.383 . S
C393 C400 1.496 . S
C394 C395 1.399 . S
C394 C398 1.389 . S
C395 C394 1.399 . S
C395 C397 1.380 . S
C395 H412 0.929 . S
C396 C393 1.399 . S
C396 C397 1.392 . S
C396 H413 0.929 . S
C397 C395 1.380 . S
C397 C396 1.392 . S
C397 H414 0.929 . S
C398 C393 1.383 . S
C398 C394 1.389 . S
C398 H415 0.931 . S
C399 O384 1.266 . S
C399 O385 1.248 . S
C400 Tb336 2.802 1_554 S
C400 O380 1.264 . S
C400 O383 1.256 1_554 S
C400 C393 1.496 . S
C401 C368 1.448 . S
C401 H378 0.930 . S
C401 C402 1.328 . S
C402 C373 1.427 . S
C402 H379 0.929 . S
C402 C401 1.328 . S
C403 O387 1.264 . S
C403 O388 1.243 . S
C404 C407 1.399 . S
C404 C408 1.383 . S
C404 C411 1.496 . S
C405 C406 1.399 . S
C405 C408 1.389 . S
C406 C405 1.399 . S
C406 C409 1.380 . S
C406 H416 0.929 . S
C407 C404 1.399 . S
C407 C409 1.392 . S
C407 H417 0.929 . S
C408 C404 1.383 . S
C408 C405 1.389 . S
C408 H418 0.931 . S
C409 C406 1.380 . S
C409 C407 1.392 . S
C409 H419 0.929 . S
C410 O390 1.266 . S
C410 O391 1.248 . S
C411 Tb347 2.802 . S
C411 O386 1.264 . S
C411 O389 1.256 . S
C411 C404 1.496 . S
H412 C395 0.929 . S
H413 C396 0.929 . S
H414 C397 0.929 . S
H415 C398 0.931 . S
H416 C406 0.929 . S
H417 C407 0.929 . S
H418 C408 0.931 . S
H419 C409 0.929 . S
Tb420 N449 2.617 . S
Tb420 N455 2.572 . S
Tb420 O464 2.465 . S
Tb420 O465 2.387 . S
Tb420 O467 2.428 . S
Tb420 O468 2.308 . S
Tb420 O472 2.349 . S
Tb420 O475 2.393 . S
Tb420 C484 2.802 . S
C421 N422 1.379 . S
C421 C424 1.416 . S
C421 C428 1.424 . S
N422 C421 1.379 . S
N422 C425 1.334 . S
N422 Tb431 2.617 . S
C423 C425 1.390 . S
C423 C426 1.339 . S
C423 H443 0.930 . S
C424 C421 1.416 . S
C424 C426 1.416 . S
C424 C430 1.448 . S
C425 N422 1.334 . S
C425 C423 1.390 . S
C425 H436 0.930 . S
C426 C423 1.339 . S
C426 C424 1.416 . S
C426 H447 0.930 . S
C427 C428 1.413 . S
C427 C429 1.427 . S
C427 C433 1.416 . S
C428 C421 1.424 . S
C428 C427 1.413 . S
C428 N432 1.361 . S
C429 C427 1.427 . S
C429 C430 1.328 . S
C429 H444 0.929 . S
C430 C424 1.448 . S
C430 C429 1.328 . S
C430 H445 0.930 . S
Tb431 N422 2.617 . S
Tb431 N432 2.572 . S
Tb431 O466 2.349 . S
Tb431 O469 2.393 . S
Tb431 O470 2.465 . S
Tb431 O471 2.387 . S
Tb431 O473 2.428 . S
Tb431 O474 2.308 . S
Tb431 C495 2.802 . S
N432 C428 1.361 . S
N432 Tb431 2.572 . S
N432 C434 1.340 . S
C433 C427 1.416 . S
C433 C435 1.332 . S
C433 H441 0.931 . S
C434 N432 1.340 . S
C434 C435 1.407 . S
C434 H440 0.930 . S
C435 C433 1.332 . S
C435 C434 1.407 . S
C435 H437 0.929 . S
H436 C425 0.930 . S
H437 C435 0.929 . S
H438 C453 0.930 . S
H439 C460 0.929 . S
H440 C434 0.930 . S
H441 C433 0.931 . S
H442 C456 0.930 . S
H443 C423 0.930 . S
H444 C429 0.929 . S
H445 C430 0.930 . S
H446 C451 0.930 . S
H447 C426 0.930 . S
H448 C459 0.931 . S
N449 Tb420 2.617 . S
N449 C450 1.379 . S
N449 C453 1.334 . S
C450 N449 1.379 . S
C450 C452 1.416 . S
C450 C458 1.424 . S
C451 H446 0.930 . S
C451 C453 1.390 . S
C451 C454 1.339 . S
C452 C450 1.416 . S
C452 C454 1.416 . S
C452 C485 1.448 . S
C453 H438 0.930 . S
C453 N449 1.334 . S
C453 C451 1.390 . S
C454 C451 1.339 . S
C454 C452 1.416 . S
C454 H461 0.930 . S
N455 Tb420 2.572 . S
N455 C456 1.340 . S
N455 C458 1.361 . S
C456 H442 0.930 . S
C456 N455 1.340 . S
C456 C460 1.407 . S
C457 C458 1.413 . S
C457 C459 1.416 . S
C457 C486 1.427 . S
C458 C450 1.424 . S
C458 N455 1.361 . S
C458 C457 1.413 . S
C459 H448 0.931 . S
C459 C457 1.416 . S
C459 C460 1.332 . S
C460 H439 0.929 . S
C460 C456 1.407 . S
C460 C459 1.332 . S
H461 C454 0.930 . S
H462 C485 0.930 . S
H463 C486 0.929 . S
O464 Tb420 2.465 . S
O464 C484 1.264 . S
O465 Tb420 2.387 . S
O465 C476 1.264 . S
O466 Tb431 2.349 . S
O466 C476 1.243 . S
O467 Tb420 2.428 . S
O467 C484 1.256 . S
O468 Tb420 2.308 . S
O468 C483 1.266 . S
O469 Tb431 2.393 . S
O469 C483 1.248 . S
O470 Tb431 2.465 . S
O470 C495 1.264 . S
O471 Tb431 2.387 . S
O471 C487 1.264 . S
O472 Tb420 2.349 . S
O472 C487 1.243 . S
O473 Tb431 2.428 . S
O473 C495 1.256 . S
O474 Tb431 2.308 . S
O474 C494 1.266 . S
O475 Tb420 2.393 . S
O475 C494 1.248 . S
C476 O465 1.264 . S
C476 O466 1.243 . S
C477 C480 1.399 . S
C477 C482 1.383 . S
C477 C484 1.496 . S
C478 C479 1.399 . S
C478 C482 1.389 . S
C479 C478 1.399 . S
C479 C481 1.380 . S
C479 H496 0.929 . S
C480 C477 1.399 . S
C480 C481 1.392 . S
C480 H497 0.929 . S
C481 C479 1.380 . S
C481 C480 1.392 . S
C481 H498 0.929 . S
C482 C477 1.383 . S
C482 C478 1.389 . S
C482 H499 0.931 . S
C483 O468 1.266 . S
C483 O469 1.248 . S
C484 Tb420 2.802 . S
C484 O464 1.264 . S
C484 O467 1.256 . S
C484 C477 1.496 . S
C485 C452 1.448 . S
C485 H462 0.930 . S
C485 C486 1.328 . S
C486 C457 1.427 . S
C486 H463 0.929 . S
C486 C485 1.328 . S
C487 O471 1.264 . S
C487 O472 1.243 . S
C488 C491 1.399 . S
C488 C492 1.383 . S
C488 C495 1.496 . S
C489 C490 1.399 . S
C489 C492 1.389 . S
C490 C489 1.399 . S
C490 C493 1.380 . S
C490 H500 0.929 . S
C491 C488 1.399 . S
C491 C493 1.392 . S
C491 H501 0.929 . S
C492 C488 1.383 . S
C492 C489 1.389 . S
C492 H502 0.931 . S
C493 C490 1.380 . S
C493 C491 1.392 . S
C493 H503 0.929 . S
C494 O474 1.266 . S
C494 O475 1.248 . S
C495 Tb431 2.802 . S
C495 O470 1.264 . S
C495 O473 1.256 . S
C495 C488 1.496 . S
H496 C479 0.929 . S
H497 C480 0.929 . S
H498 C481 0.929 . S
H499 C482 0.931 . S
H500 C490 0.929 . S
H501 C491 0.929 . S
H502 C492 0.931 . S
H503 C493 0.929 . S
Tb504 N533 2.617 . S
Tb504 N539 2.572 . S
Tb504 O548 2.465 . S
Tb504 O549 2.387 . S
Tb504 O551 2.428 . S
Tb504 O552 2.308 . S
Tb504 O556 2.349 . S
Tb504 O559 2.393 . S
Tb504 C568 2.802 . S
C505 N506 1.379 . S
C505 C508 1.416 . S
C505 C512 1.424 . S
N506 C505 1.379 . S
N506 C509 1.334 . S
N506 Tb515 2.617 . S
C507 C509 1.390 . S
C507 C510 1.339 . S
C507 H527 0.930 . S
C508 C505 1.416 . S
C508 C510 1.416 . S
C508 C514 1.448 . S
C509 N506 1.334 . S
C509 C507 1.390 . S
C509 H520 0.930 . S
C510 C507 1.339 . S
C510 C508 1.416 . S
C510 H531 0.930 . S
C511 C512 1.413 . S
C511 C513 1.427 . S
C511 C517 1.416 . S
C512 C505 1.424 . S
C512 C511 1.413 . S
C512 N516 1.361 . S
C513 C511 1.427 . S
C513 C514 1.328 . S
C513 H528 0.929 . S
C514 C508 1.448 . S
C514 C513 1.328 . S
C514 H529 0.930 . S
Tb515 N506 2.617 . S
Tb515 N516 2.572 . S
Tb515 O550 2.349 . S
Tb515 O553 2.393 . S
Tb515 O554 2.465 . S
Tb515 O555 2.387 . S
Tb515 O557 2.428 . S
Tb515 O558 2.308 . S
Tb515 C579 2.802 . S
N516 C512 1.361 . S
N516 Tb515 2.572 . S
N516 C518 1.340 . S
C517 C511 1.416 . S
C517 C519 1.332 . S
C517 H525 0.931 . S
C518 N516 1.340 . S
C518 C519 1.407 . S
C518 H524 0.930 . S
C519 C517 1.332 . S
C519 C518 1.407 . S
C519 H521 0.929 . S
H520 C509 0.930 . S
H521 C519 0.929 . S
H522 C537 0.930 . S
H523 C544 0.929 . S
H524 C518 0.930 . S
H525 C517 0.931 . S
H526 C540 0.930 . S
H527 C507 0.930 . S
H528 C513 0.929 . S
H529 C514 0.930 . S
H530 C535 0.930 . S
H531 C510 0.930 . S
H532 C543 0.931 . S
N533 Tb504 2.617 . S
N533 C534 1.379 . S
N533 C537 1.334 . S
C534 N533 1.379 . S
C534 C536 1.416 . S
C534 C542 1.424 . S
C535 H530 0.930 . S
C535 C537 1.390 . S
C535 C538 1.339 . S
C536 C534 1.416 . S
C536 C538 1.416 . S
C536 C569 1.448 . S
C537 H522 0.930 . S
C537 N533 1.334 . S
C537 C535 1.390 . S
C538 C535 1.339 . S
C538 C536 1.416 . S
C538 H545 0.930 . S
N539 Tb504 2.572 . S
N539 C540 1.340 . S
N539 C542 1.361 . S
C540 H526 0.930 . S
C540 N539 1.340 . S
C540 C544 1.407 . S
C541 C542 1.413 . S
C541 C543 1.416 . S
C541 C570 1.427 . S
C542 C534 1.424 . S
C542 N539 1.361 . S
C542 C541 1.413 . S
C543 H532 0.931 . S
C543 C541 1.416 . S
C543 C544 1.332 . S
C544 H523 0.929 . S
C544 C540 1.407 . S
C544 C543 1.332 . S
H545 C538 0.930 . S
H546 C569 0.930 . S
H547 C570 0.929 . S
O548 Tb504 2.465 . S
O548 C568 1.264 . S
O549 Tb504 2.387 . S
O549 C560 1.264 . S
O550 Tb515 2.349 . S
O550 C560 1.243 . S
O551 Tb504 2.428 . S
O551 C568 1.256 . S
O552 Tb504 2.308 . S
O552 C567 1.266 . S
O553 Tb515 2.393 . S
O553 C567 1.248 . S
O554 Tb515 2.465 . S
O554 C579 1.264 . S
O555 Tb515 2.387 . S
O555 C571 1.264 . S
O556 Tb504 2.349 . S
O556 C571 1.243 . S
O557 Tb515 2.428 . S
O557 C579 1.256 . S
O558 Tb515 2.308 . S
O558 C578 1.266 . S
O559 Tb504 2.393 . S
O559 C578 1.248 . S
C560 O549 1.264 . S
C560 O550 1.243 . S
C561 C564 1.399 . S
C561 C566 1.383 . S
C561 C568 1.496 . S
C562 C563 1.399 . S
C562 C566 1.389 . S
C563 C562 1.399 . S
C563 C565 1.380 . S
C563 H580 0.929 . S
C564 C561 1.399 . S
C564 C565 1.392 . S
C564 H581 0.929 . S
C565 C563 1.380 . S
C565 C564 1.392 . S
C565 H582 0.929 . S
C566 C561 1.383 . S
C566 C562 1.389 . S
C566 H583 0.931 . S
C567 O552 1.266 . S
C567 O553 1.248 . S
C568 Tb504 2.802 . S
C568 O548 1.264 . S
C568 O551 1.256 . S
C568 C561 1.496 . S
C569 C536 1.448 . S
C569 H546 0.930 . S
C569 C570 1.328 . S
C570 C541 1.427 . S
C570 H547 0.929 . S
C570 C569 1.328 . S
C571 O555 1.264 . S
C571 O556 1.243 . S
C572 C575 1.399 . S
C572 C576 1.383 . S
C572 C579 1.496 . S
C573 C574 1.399 . S
C573 C576 1.389 . S
C574 C573 1.399 . S
C574 C577 1.380 . S
C574 H584 0.929 . S
C575 C572 1.399 . S
C575 C577 1.392 . S
C575 H585 0.929 . S
C576 C572 1.383 . S
C576 C573 1.389 . S
C576 H586 0.931 . S
C577 C574 1.380 . S
C577 C575 1.392 . S
C577 H587 0.929 . S
C578 O558 1.266 . S
C578 O559 1.248 . S
C579 Tb515 2.802 . S
C579 O554 1.264 . S
C579 O557 1.256 . S
C579 C572 1.496 . S
H580 C563 0.929 . S
H581 C564 0.929 . S
H582 C565 0.929 . S
H583 C566 0.931 . S
H584 C574 0.929 . S
H585 C575 0.929 . S
H586 C576 0.931 . S
H587 C577 0.929 . S
Tb588 N617 2.617 . S
Tb588 N623 2.572 . S
Tb588 O632 2.465 . S
Tb588 O633 2.387 . S
Tb588 O635 2.428 . S
Tb588 O636 2.308 . S
Tb588 O640 2.349 . S
Tb588 O643 2.393 . S
Tb588 C652 2.802 . S
C589 N590 1.379 . S
C589 C592 1.416 1_455 S
C589 C596 1.424 . S
N590 C589 1.379 . S
N590 C593 1.334 . S
N590 Tb599 2.617 . S
C591 C593 1.390 1_655 S
C591 C594 1.339 . S
C591 H611 0.930 . S
C592 C589 1.416 1_655 S
C592 C594 1.416 . S
C592 C598 1.448 . S
C593 N590 1.334 . S
C593 C591 1.390 1_455 S
C593 H604 0.930 . S
C594 C591 1.339 . S
C594 C592 1.416 . S
C594 H615 0.930 . S
C595 C596 1.413 . S
C595 C597 1.427 . S
C595 C601 1.416 . S
C596 C589 1.424 . S
C596 C595 1.413 . S
C596 N600 1.361 . S
C597 C595 1.427 . S
C597 C598 1.328 1_455 S
C597 H612 0.942 . S
C598 C592 1.448 . S
C598 C597 1.328 1_655 S
C598 H613 0.930 . S
Tb599 N590 2.617 . S
Tb599 N600 2.572 . S
Tb599 O634 2.349 . S
Tb599 O637 2.393 . S
Tb599 O638 2.465 . S
Tb599 O639 2.387 . S
Tb599 O641 2.428 . S
Tb599 O642 2.308 . S
Tb599 C663 2.802 . S
N600 C596 1.361 . S
N600 Tb599 2.572 . S
N600 C602 1.340 . S
C601 C595 1.416 . S
C601 C603 1.332 . S
C601 H609 0.931 . S
C602 N600 1.340 . S
C602 C603 1.407 . S
C602 H608 0.930 . S
C603 C601 1.332 . S
C603 C602 1.407 . S
C603 H605 0.929 . S
H604 C593 0.930 . S
H605 C603 0.929 . S
H606 C621 0.930 . S
H607 C628 0.929 . S
H608 C602 0.930 . S
H609 C601 0.931 . S
H610 C624 0.930 . S
H611 C591 0.930 . S
H612 C597 0.942 . S
H613 C598 0.930 . S
H614 C619 0.930 . S
H615 C594 0.930 . S
H616 C627 0.931 . S
N617 Tb588 2.617 . S
N617 C618 1.379 . S
N617 C621 1.334 . S
C618 N617 1.379 . S
C618 C620 1.416 . S
C618 C626 1.424 . S
C619 H614 0.930 . S
C619 C621 1.390 . S
C619 C622 1.339 . S
C620 C618 1.416 . S
C620 C622 1.416 . S
C620 C653 1.448 . S
C621 H606 0.930 . S
C621 N617 1.334 . S
C621 C619 1.390 . S
C622 C619 1.339 . S
C622 C620 1.416 . S
C622 H629 0.930 . S
N623 Tb588 2.572 . S
N623 C624 1.340 . S
N623 C626 1.361 . S
C624 H610 0.930 . S
C624 N623 1.340 . S
C624 C628 1.407 . S
C625 C626 1.413 . S
C625 C627 1.416 . S
C625 C654 1.427 . S
C626 C618 1.424 . S
C626 N623 1.361 . S
C626 C625 1.413 . S
C627 H616 0.931 . S
C627 C625 1.416 . S
C627 C628 1.332 . S
C628 H607 0.929 . S
C628 C624 1.407 . S
C628 C627 1.332 . S
H629 C622 0.930 . S
H630 C653 0.930 . S
H631 C654 0.929 . S
O632 Tb588 2.465 . S
O632 C652 1.264 . S
O633 Tb588 2.387 . S
O633 C644 1.264 . S
O634 Tb599 2.349 . S
O634 C644 1.243 . S
O635 Tb588 2.428 . S
O635 C652 1.256 . S
O636 Tb588 2.308 . S
O636 C651 1.266 . S
O637 Tb599 2.393 . S
O637 C651 1.248 . S
O638 Tb599 2.465 . S
O638 C663 1.264 . S
O639 Tb599 2.387 . S
O639 C655 1.264 . S
O640 Tb588 2.349 . S
O640 C655 1.243 . S
O641 Tb599 2.428 . S
O641 C663 1.256 . S
O642 Tb599 2.308 . S
O642 C662 1.266 . S
O643 Tb588 2.393 . S
O643 C662 1.248 . S
C644 O633 1.264 . S
C644 O634 1.243 . S
C645 C648 1.399 . S
C645 C650 1.383 . S
C645 C652 1.496 . S
C646 C647 1.399 . S
C646 C650 1.389 . S
C647 C646 1.399 . S
C647 C649 1.380 . S
C647 H664 0.929 . S
C648 C645 1.399 . S
C648 C649 1.392 . S
C648 H665 0.929 . S
C649 C647 1.380 . S
C649 C648 1.392 . S
C649 H666 0.929 . S
C650 C645 1.383 . S
C650 C646 1.389 . S
C650 H667 0.931 . S
C651 O636 1.266 . S
C651 O637 1.248 . S
C652 Tb588 2.802 . S
C652 O632 1.264 . S
C652 O635 1.256 . S
C652 C645 1.496 . S
C653 C620 1.448 . S
C653 H630 0.930 . S
C653 C654 1.328 . S
C654 C625 1.427 . S
C654 H631 0.929 . S
C654 C653 1.328 . S
C655 O639 1.264 . S
C655 O640 1.243 . S
C656 C659 1.399 . S
C656 C660 1.383 . S
C656 C663 1.496 . S
C657 C658 1.399 . S
C657 C660 1.389 . S
C658 C657 1.399 . S
C658 C661 1.380 . S
C658 H668 0.929 . S
C659 C656 1.399 . S
C659 C661 1.392 . S
C659 H669 0.929 . S
C660 C656 1.383 . S
C660 C657 1.389 . S
C660 H670 0.931 . S
C661 C658 1.380 . S
C661 C659 1.392 . S
C661 H671 0.929 . S
C662 O642 1.266 . S
C662 O643 1.248 . S
C663 Tb599 2.802 . S
C663 O638 1.264 . S
C663 O641 1.256 . S
C663 C656 1.496 . S
H664 C647 0.929 . S
H665 C648 0.929 . S
H666 C649 0.929 . S
H667 C650 0.931 . S
H668 C658 0.929 . S
H669 C659 0.929 . S
H670 C660 0.931 . S
H671 C661 0.929 . S
Tb672 N701 2.617 . S
Tb672 N707 2.572 . S
Tb672 O716 2.465 . S
Tb672 O717 2.387 . S
Tb672 O719 2.428 . S
Tb672 O720 2.308 . S
Tb672 O724 2.349 . S
Tb672 O727 2.393 . S
Tb672 C736 2.802 . S
C673 N674 1.379 . S
C673 C676 1.416 . S
C673 C680 1.424 . S
N674 C673 1.379 . S
N674 C677 1.334 . S
N674 Tb683 2.617 . S
C675 C677 1.390 . S
C675 C678 1.339 . S
C675 H695 0.930 . S
C676 C673 1.416 . S
C676 C678 1.416 . S
C676 C682 1.448 . S
C677 N674 1.334 . S
C677 C675 1.390 . S
C677 H688 0.930 . S
C678 C675 1.339 . S
C678 C676 1.416 . S
C678 H699 0.930 . S
C679 C680 1.413 . S
C679 C681 1.427 . S
C679 C685 1.416 . S
C680 C673 1.424 . S
C680 C679 1.413 . S
C680 N684 1.361 . S
C681 C679 1.427 . S
C681 C682 1.328 . S
C681 H696 0.929 . S
C682 C676 1.448 . S
C682 C681 1.328 . S
C682 H697 0.930 . S
Tb683 N674 2.617 . S
Tb683 N684 2.572 . S
Tb683 O718 2.349 . S
Tb683 O721 2.393 . S
Tb683 O722 2.465 . S
Tb683 O723 2.387 . S
Tb683 O725 2.428 . S
Tb683 O726 2.308 . S
Tb683 C747 2.802 . S
N684 C680 1.361 . S
N684 Tb683 2.572 . S
N684 C686 1.340 . S
C685 C679 1.416 . S
C685 C687 1.332 . S
C685 H693 0.931 . S
C686 N684 1.340 . S
C686 C687 1.407 . S
C686 H692 0.930 . S
C687 C685 1.332 . S
C687 C686 1.407 . S
C687 H689 0.929 . S
H688 C677 0.930 . S
H689 C687 0.929 . S
H690 C705 0.930 . S
H691 C712 0.929 . S
H692 C686 0.930 . S
H693 C685 0.931 . S
H694 C708 0.930 . S
H695 C675 0.930 . S
H696 C681 0.929 . S
H697 C682 0.930 . S
H698 C703 0.930 . S
H699 C678 0.930 . S
H700 C711 0.931 . S
N701 Tb672 2.617 . S
N701 C702 1.379 . S
N701 C705 1.334 . S
C702 N701 1.379 . S
C702 C704 1.416 . S
C702 C710 1.424 . S
C703 H698 0.930 . S
C703 C705 1.390 . S
C703 C706 1.339 . S
C704 C702 1.416 . S
C704 C706 1.416 . S
C704 C737 1.448 . S
C705 H690 0.930 . S
C705 N701 1.334 . S
C705 C703 1.390 . S
C706 C703 1.339 . S
C706 C704 1.416 . S
C706 H713 0.930 . S
N707 Tb672 2.572 . S
N707 C708 1.340 . S
N707 C710 1.361 . S
C708 H694 0.930 . S
C708 N707 1.340 . S
C708 C712 1.407 . S
C709 C710 1.413 . S
C709 C711 1.416 . S
C709 C738 1.427 . S
C710 C702 1.424 . S
C710 N707 1.361 . S
C710 C709 1.413 . S
C711 H700 0.931 . S
C711 C709 1.416 . S
C711 C712 1.332 . S
C712 H691 0.929 . S
C712 C708 1.407 . S
C712 C711 1.332 . S
H713 C706 0.930 . S
H714 C737 0.930 . S
H715 C738 0.929 . S
O716 Tb672 2.465 . S
O716 C736 1.264 . S
O717 Tb672 2.387 . S
O717 C728 1.264 . S
O718 Tb683 2.349 . S
O718 C728 1.243 . S
O719 Tb672 2.428 . S
O719 C736 1.256 . S
O720 Tb672 2.308 . S
O720 C735 1.266 . S
O721 Tb683 2.393 . S
O721 C735 1.248 . S
O722 Tb683 2.465 . S
O722 C747 1.264 . S
O723 Tb683 2.387 . S
O723 C739 1.264 . S
O724 Tb672 2.349 . S
O724 C739 1.243 . S
O725 Tb683 2.428 . S
O725 C747 1.256 . S
O726 Tb683 2.308 . S
O726 C746 1.266 . S
O727 Tb672 2.393 . S
O727 C746 1.248 . S
C728 O717 1.264 . S
C728 O718 1.243 . S
C729 C732 1.399 . S
C729 C734 1.383 . S
C729 C736 1.496 . S
C730 C731 1.399 . S
C730 C734 1.389 . S
C731 C730 1.399 . S
C731 C733 1.380 . S
C731 H748 0.929 . S
C732 C729 1.399 . S
C732 C733 1.392 . S
C732 H749 0.929 . S
C733 C731 1.380 . S
C733 C732 1.392 . S
C733 H750 0.929 . S
C734 C729 1.383 . S
C734 C730 1.389 . S
C734 H751 0.931 . S
C735 O720 1.266 . S
C735 O721 1.248 . S
C736 Tb672 2.802 . S
C736 O716 1.264 . S
C736 O719 1.256 . S
C736 C729 1.496 . S
C737 C704 1.448 . S
C737 H714 0.930 . S
C737 C738 1.328 . S
C738 C709 1.427 . S
C738 H715 0.929 . S
C738 C737 1.328 . S
C739 O723 1.264 . S
C739 O724 1.243 . S
C740 C743 1.399 . S
C740 C744 1.383 . S
C740 C747 1.496 . S
C741 C742 1.399 . S
C741 C744 1.389 . S
C742 C741 1.399 . S
C742 C745 1.380 . S
C742 H752 0.929 . S
C743 C740 1.399 . S
C743 C745 1.392 . S
C743 H753 0.929 . S
C744 C740 1.383 . S
C744 C741 1.389 . S
C744 H754 0.931 . S
C745 C742 1.380 . S
C745 C743 1.392 . S
C745 H755 0.929 . S
C746 O726 1.266 . S
C746 O727 1.248 . S
C747 Tb683 2.802 . S
C747 O722 1.264 . S
C747 O725 1.256 . S
C747 C740 1.496 . S
H748 C731 0.929 . S
H749 C732 0.929 . S
H750 C733 0.929 . S
H751 C734 0.931 . S
H752 C742 0.929 . S
H753 C743 0.929 . S
H754 C744 0.931 . S
H755 C745 0.929 . S
Tb756 N785 2.617 . S
Tb756 N791 2.572 . S
Tb756 O800 2.465 . S
Tb756 O801 2.387 . S
Tb756 O803 2.428 . S
Tb756 O804 2.308 . S
Tb756 O808 2.349 . S
Tb756 O811 2.393 . S
Tb756 C820 2.802 . S
C757 N758 1.379 . S
C757 C760 1.416 . S
C757 C764 1.424 . S
N758 C757 1.379 . S
N758 C761 1.334 . S
N758 Tb767 2.617 . S
C759 C761 1.390 . S
C759 C762 1.339 . S
C759 H779 0.930 . S
C760 C757 1.416 . S
C760 C762 1.416 . S
C760 C766 1.448 . S
C761 N758 1.334 . S
C761 C759 1.390 . S
C761 H772 0.930 . S
C762 C759 1.339 . S
C762 C760 1.416 . S
C762 H783 0.930 . S
C763 C764 1.413 . S
C763 C765 1.427 . S
C763 C769 1.416 . S
C764 C757 1.424 . S
C764 C763 1.413 . S
C764 N768 1.361 . S
C765 C763 1.427 . S
C765 C766 1.328 . S
C765 H780 0.929 . S
C766 C760 1.448 . S
C766 C765 1.328 . S
C766 H781 0.930 . S
Tb767 N758 2.617 . S
Tb767 N768 2.572 . S
Tb767 O802 2.349 . S
Tb767 O805 2.393 . S
Tb767 O806 2.465 . S
Tb767 O807 2.387 . S
Tb767 O809 2.428 . S
Tb767 O810 2.308 . S
Tb767 C831 2.802 . S
N768 C764 1.361 . S
N768 Tb767 2.572 . S
N768 C770 1.340 . S
C769 C763 1.416 . S
C769 C771 1.332 . S
C769 H777 0.931 . S
C770 N768 1.340 . S
C770 C771 1.407 . S
C770 H776 0.930 . S
C771 C769 1.332 . S
C771 C770 1.407 . S
C771 H773 0.929 . S
H772 C761 0.930 . S
H773 C771 0.929 . S
H774 C789 0.930 . S
H775 C796 0.929 . S
H776 C770 0.930 . S
H777 C769 0.931 . S
H778 C792 0.930 . S
H779 C759 0.930 . S
H780 C765 0.929 . S
H781 C766 0.930 . S
H782 C787 0.930 . S
H783 C762 0.930 . S
H784 C795 0.931 . S
N785 Tb756 2.617 . S
N785 C786 1.379 . S
N785 C789 1.334 . S
C786 N785 1.379 . S
C786 C788 1.416 1_455 S
C786 C794 1.424 . S
C787 H782 0.930 . S
C787 C789 1.390 1_655 S
C787 C790 1.339 . S
C788 C786 1.416 1_655 S
C788 C790 1.416 . S
C788 C821 1.448 . S
C789 H774 0.930 . S
C789 N785 1.334 . S
C789 C787 1.390 1_455 S
C790 C787 1.339 . S
C790 C788 1.416 . S
C790 H797 0.930 . S
N791 Tb756 2.572 . S
N791 C792 1.340 . S
N791 C794 1.361 . S
C792 H778 0.930 . S
C792 N791 1.340 . S
C792 C796 1.407 . S
C793 C794 1.413 . S
C793 C795 1.416 . S
C793 C822 1.427 . S
C794 C786 1.424 . S
C794 N791 1.361 . S
C794 C793 1.413 . S
C795 H784 0.931 . S
C795 C793 1.416 . S
C795 C796 1.332 . S
C796 H775 0.929 . S
C796 C792 1.407 . S
C796 C795 1.332 . S
H797 C790 0.930 . S
H798 C821 0.930 . S
H799 C822 0.942 . S
O800 Tb756 2.465 . S
O800 C820 1.264 . S
O801 Tb756 2.387 . S
O801 C812 1.264 . S
O802 Tb767 2.349 . S
O802 C812 1.243 . S
O803 Tb756 2.428 . S
O803 C820 1.256 . S
O804 Tb756 2.308 . S
O804 C819 1.266 . S
O805 Tb767 2.393 . S
O805 C819 1.248 . S
O806 Tb767 2.465 . S
O806 C831 1.264 . S
O807 Tb767 2.387 . S
O807 C823 1.264 . S
O808 Tb756 2.349 . S
O808 C823 1.243 . S
O809 Tb767 2.428 . S
O809 C831 1.256 . S
O810 Tb767 2.308 . S
O810 C830 1.266 . S
O811 Tb756 2.393 . S
O811 C830 1.248 . S
C812 O801 1.264 . S
C812 O802 1.243 . S
C813 C816 1.399 . S
C813 C818 1.383 . S
C813 C820 1.496 . S
C814 C815 1.399 . S
C814 C818 1.389 . S
C815 C814 1.399 . S
C815 C817 1.380 . S
C815 H832 0.929 . S
C816 C813 1.399 . S
C816 C817 1.392 . S
C816 H833 0.929 . S
C817 C815 1.380 . S
C817 C816 1.392 . S
C817 H834 0.929 . S
C818 C813 1.383 . S
C818 C814 1.389 . S
C818 H835 0.931 . S
C819 O804 1.266 . S
C819 O805 1.248 . S
C820 Tb756 2.802 . S
C820 O800 1.264 . S
C820 O803 1.256 . S
C820 C813 1.496 . S
C821 C788 1.448 . S
C821 H798 0.930 . S
C821 C822 1.328 1_655 S
C822 C793 1.427 . S
C822 H799 0.942 . S
C822 C821 1.328 1_455 S
C823 O807 1.264 . S
C823 O808 1.243 . S
C824 C827 1.399 . S
C824 C828 1.383 . S
C824 C831 1.496 . S
C825 C826 1.399 . S
C825 C828 1.389 . S
C826 C825 1.399 . S
C826 C829 1.380 . S
C826 H836 0.929 . S
C827 C824 1.399 . S
C827 C829 1.392 . S
C827 H837 0.929 . S
C828 C824 1.383 . S
C828 C825 1.389 . S
C828 H838 0.931 . S
C829 C826 1.380 . S
C829 C827 1.392 . S
C829 H839 0.929 . S
C830 O810 1.266 . S
C830 O811 1.248 . S
C831 Tb767 2.802 . S
C831 O806 1.264 . S
C831 O809 1.256 . S
C831 C824 1.496 . S
H832 C815 0.929 . S
H833 C816 0.929 . S
H834 C817 0.929 . S
H835 C818 0.931 . S
H836 C826 0.929 . S
H837 C827 0.929 . S
H838 C828 0.931 . S
H839 C829 0.929 . S
Tb840 N869 2.617 . S
Tb840 N875 2.572 . S
Tb840 O884 2.465 . S
Tb840 O885 2.387 . S
Tb840 O887 2.428 . S
Tb840 O888 2.308 . S
Tb840 O892 2.349 . S
Tb840 O895 2.393 . S
Tb840 C904 2.802 . S
C841 N842 1.379 1_556 S
C841 C844 1.416 . S
C841 C848 1.424 . S
N842 C841 1.379 1_554 S
N842 C845 1.334 . S
N842 Tb851 2.617 . S
C843 C845 1.390 . S
C843 C846 1.339 . S
C843 H863 0.930 . S
C844 C841 1.416 . S
C844 C846 1.416 1_556 S
C844 C850 1.448 . S
C845 N842 1.334 . S
C845 C843 1.390 . S
C845 H856 0.930 . S
C846 C843 1.339 . S
C846 C844 1.416 1_554 S
C846 H867 0.930 . S
C847 C848 1.413 . S
C847 C849 1.427 . S
C847 C853 1.416 . S
C848 C841 1.424 . S
C848 C847 1.413 . S
C848 N852 1.361 . S
C849 C847 1.427 . S
C849 C850 1.328 . S
C849 H864 0.929 . S
C850 C844 1.448 . S
C850 C849 1.328 . S
C850 H865 0.930 . S
Tb851 N842 2.617 . S
Tb851 N852 2.572 1_554 S
Tb851 O886 2.349 . S
Tb851 O889 2.393 . S
Tb851 O890 2.465 1_554 S
Tb851 O891 2.387 . S
Tb851 O893 2.428 . S
Tb851 O894 2.308 . S
Tb851 C915 2.802 1_554 S
N852 C848 1.361 . S
N852 Tb851 2.572 1_556 S
N852 C854 1.340 . S
C853 C847 1.416 . S
C853 C855 1.332 . S
C853 H861 0.931 . S
C854 N852 1.340 . S
C854 C855 1.407 . S
C854 H860 0.930 . S
C855 C853 1.332 . S
C855 C854 1.407 . S
C855 H857 0.929 . S
H856 C845 0.930 . S
H857 C855 0.929 . S
H858 C873 0.930 . S
H859 C880 0.929 . S
H860 C854 0.930 . S
H861 C853 0.931 . S
H862 C876 0.930 . S
H863 C843 0.930 . S
H864 C849 0.929 . S
H865 C850 0.930 . S
H866 C871 0.930 . S
H867 C846 0.930 . S
H868 C879 0.931 . S
N869 Tb840 2.617 . S
N869 C870 1.379 . S
N869 C873 1.334 . S
C870 N869 1.379 . S
C870 C872 1.416 . S
C870 C878 1.424 . S
C871 H866 0.930 . S
C871 C873 1.390 . S
C871 C874 1.339 . S
C872 C870 1.416 . S
C872 C874 1.416 . S
C872 C905 1.448 . S
C873 H858 0.930 . S
C873 N869 1.334 . S
C873 C871 1.390 . S
C874 C871 1.339 . S
C874 C872 1.416 . S
C874 H881 0.930 . S
N875 Tb840 2.572 . S
N875 C876 1.340 . S
N875 C878 1.361 . S
C876 H862 0.930 . S
C876 N875 1.340 . S
C876 C880 1.407 . S
C877 C878 1.413 . S
C877 C879 1.416 . S
C877 C906 1.427 . S
C878 C870 1.424 . S
C878 N875 1.361 . S
C878 C877 1.413 . S
C879 H868 0.931 . S
C879 C877 1.416 . S
C879 C880 1.332 . S
C880 H859 0.929 . S
C880 C876 1.407 . S
C880 C879 1.332 . S
H881 C874 0.930 . S
H882 C905 0.930 . S
H883 C906 0.929 . S
O884 Tb840 2.465 . S
O884 C904 1.264 . S
O885 Tb840 2.387 . S
O885 C896 1.264 . S
O886 Tb851 2.349 . S
O886 C896 1.243 . S
O887 Tb840 2.428 . S
O887 C904 1.256 . S
O888 Tb840 2.308 . S
O888 C903 1.266 . S
O889 Tb851 2.393 . S
O889 C903 1.248 . S
O890 Tb851 2.465 1_556 S
O890 C915 1.264 . S
O891 Tb851 2.387 . S
O891 C907 1.264 . S
O892 Tb840 2.349 . S
O892 C907 1.243 . S
O893 Tb851 2.428 . S
O893 C915 1.256 1_554 S
O894 Tb851 2.308 . S
O894 C914 1.266 . S
O895 Tb840 2.393 . S
O895 C914 1.248 . S
C896 O885 1.264 . S
C896 O886 1.243 . S
C897 C900 1.399 . S
C897 C902 1.383 . S
C897 C904 1.496 . S
C898 C899 1.399 . S
C898 C902 1.389 . S
C899 C898 1.399 . S
C899 C901 1.380 . S
C899 H916 0.929 . S
C900 C897 1.399 . S
C900 C901 1.392 . S
C900 H917 0.929 . S
C901 C899 1.380 . S
C901 C900 1.392 . S
C901 H918 0.929 . S
C902 C897 1.383 . S
C902 C898 1.389 . S
C902 H919 0.931 . S
C903 O888 1.266 . S
C903 O889 1.248 . S
C904 Tb840 2.802 . S
C904 O884 1.264 . S
C904 O887 1.256 . S
C904 C897 1.496 . S
C905 C872 1.448 . S
C905 H882 0.930 . S
C905 C906 1.328 . S
C906 C877 1.427 . S
C906 H883 0.929 . S
C906 C905 1.328 . S
C907 O891 1.264 . S
C907 O892 1.243 . S
C908 C911 1.399 . S
C908 C912 1.383 . S
C908 C915 1.496 . S
C909 C910 1.399 . S
C909 C912 1.389 . S
C910 C909 1.399 . S
C910 C913 1.380 . S
C910 H920 0.929 . S
C911 C908 1.399 . S
C911 C913 1.392 . S
C911 H921 0.929 . S
C912 C908 1.383 . S
C912 C909 1.389 . S
C912 H922 0.931 . S
C913 C910 1.380 . S
C913 C911 1.392 . S
C913 H923 0.929 . S
C914 O894 1.266 . S
C914 O895 1.248 . S
C915 Tb851 2.802 1_556 S
C915 O890 1.264 . S
C915 O893 1.256 1_556 S
C915 C908 1.496 . S
H916 C899 0.929 . S
H917 C900 0.929 . S
H918 C901 0.929 . S
H919 C902 0.931 . S
H920 C910 0.929 . S
H921 C911 0.929 . S
H922 C912 0.931 . S
H923 C913 0.929 . S
Tb924 N953 2.617 . S
Tb924 N959 2.572 . S
Tb924 O968 2.465 . S
Tb924 O969 2.387 . S
Tb924 O971 2.428 . S
Tb924 O972 2.308 . S
Tb924 O976 2.349 . S
Tb924 O979 2.393 . S
Tb924 C988 2.802 . S
C925 N926 1.379 . S
C925 C928 1.416 . S
C925 C932 1.424 . S
N926 C925 1.379 . S
N926 C929 1.334 . S
N926 Tb935 2.617 . S
C927 C929 1.390 . S
C927 C930 1.339 . S
C927 H947 0.930 . S
C928 C925 1.416 . S
C928 C930 1.416 . S
C928 C934 1.448 . S
C929 N926 1.334 . S
C929 C927 1.390 . S
C929 H940 0.930 . S
C930 C927 1.339 . S
C930 C928 1.416 . S
C930 H951 0.930 . S
C931 C932 1.413 . S
C931 C933 1.427 . S
C931 C937 1.416 . S
C932 C925 1.424 . S
C932 C931 1.413 . S
C932 N936 1.361 . S
C933 C931 1.427 . S
C933 C934 1.328 . S
C933 H948 0.929 . S
C934 C928 1.448 . S
C934 C933 1.328 . S
C934 H949 0.930 . S
Tb935 N926 2.617 . S
Tb935 N936 2.572 . S
Tb935 O970 2.349 . S
Tb935 O973 2.393 . S
Tb935 O974 2.465 . S
Tb935 O975 2.387 . S
Tb935 O977 2.428 . S
Tb935 O978 2.308 . S
Tb935 C999 2.802 . S
N936 C932 1.361 . S
N936 Tb935 2.572 . S
N936 C938 1.340 . S
C937 C931 1.416 . S
C937 C939 1.332 . S
C937 H945 0.931 . S
C938 N936 1.340 . S
C938 C939 1.407 . S
C938 H944 0.930 . S
C939 C937 1.332 . S
C939 C938 1.407 . S
C939 H941 0.929 . S
H940 C929 0.930 . S
H941 C939 0.929 . S
H942 C957 0.930 . S
H943 C964 0.929 . S
H944 C938 0.930 . S
H945 C937 0.931 . S
H946 C960 0.930 . S
H947 C927 0.930 . S
H948 C933 0.929 . S
H949 C934 0.930 . S
H950 C955 0.930 . S
H951 C930 0.930 . S
H952 C963 0.931 . S
N953 Tb924 2.617 . S
N953 C954 1.379 . S
N953 C957 1.334 . S
C954 N953 1.379 . S
C954 C956 1.416 . S
C954 C962 1.424 . S
C955 H950 0.930 . S
C955 C957 1.390 . S
C955 C958 1.339 . S
C956 C954 1.416 . S
C956 C958 1.416 . S
C956 C989 1.448 . S
C957 H942 0.930 . S
C957 N953 1.334 . S
C957 C955 1.390 . S
C958 C955 1.339 . S
C958 C956 1.416 . S
C958 H965 0.930 . S
N959 Tb924 2.572 . S
N959 C960 1.340 . S
N959 C962 1.361 . S
C960 H946 0.930 . S
C960 N959 1.340 . S
C960 C964 1.407 . S
C961 C962 1.413 . S
C961 C963 1.416 . S
C961 C990 1.427 . S
C962 C954 1.424 . S
C962 N959 1.361 . S
C962 C961 1.413 . S
C963 H952 0.931 . S
C963 C961 1.416 . S
C963 C964 1.332 . S
C964 H943 0.929 . S
C964 C960 1.407 . S
C964 C963 1.332 . S
H965 C958 0.930 . S
H966 C989 0.930 . S
H967 C990 0.929 . S
O968 Tb924 2.465 . S
O968 C988 1.264 . S
O969 Tb924 2.387 . S
O969 C980 1.264 . S
O970 Tb935 2.349 . S
O970 C980 1.243 . S
O971 Tb924 2.428 . S
O971 C988 1.256 . S
O972 Tb924 2.308 . S
O972 C987 1.266 . S
O973 Tb935 2.393 . S
O973 C987 1.248 . S
O974 Tb935 2.465 . S
O974 C999 1.264 . S
O975 Tb935 2.387 . S
O975 C991 1.264 . S
O976 Tb924 2.349 . S
O976 C991 1.243 . S
O977 Tb935 2.428 . S
O977 C999 1.256 . S
O978 Tb935 2.308 . S
O978 C998 1.266 . S
O979 Tb924 2.393 . S
O979 C998 1.248 . S
C980 O969 1.264 . S
C980 O970 1.243 . S
C981 C984 1.399 . S
C981 C986 1.383 . S
C981 C988 1.496 . S
C982 C983 1.399 . S
C982 C986 1.389 . S
C983 C982 1.399 . S
C983 C985 1.380 . S
C983 H1000 0.929 . S
C984 C981 1.399 . S
C984 C985 1.392 . S
C984 H1001 0.929 . S
C985 C983 1.380 . S
C985 C984 1.392 . S
C985 H1002 0.929 . S
C986 C981 1.383 . S
C986 C982 1.389 . S
C986 H1003 0.931 . S
C987 O972 1.266 . S
C987 O973 1.248 . S
C988 Tb924 2.802 . S
C988 O968 1.264 . S
C988 O971 1.256 . S
C988 C981 1.496 . S
C989 C956 1.448 . S
C989 H966 0.930 . S
C989 C990 1.328 . S
C990 C961 1.427 . S
C990 H967 0.929 . S
C990 C989 1.328 . S
C991 O975 1.264 . S
C991 O976 1.243 . S
C992 C995 1.399 . S
C992 C996 1.383 . S
C992 C999 1.496 . S
C993 C994 1.399 . S
C993 C996 1.389 . S
C994 C993 1.399 . S
C994 C997 1.380 . S
C994 H1004 0.929 . S
C995 C992 1.399 . S
C995 C997 1.392 . S
C995 H1005 0.929 . S
C996 C992 1.383 . S
C996 C993 1.389 . S
C996 H1006 0.931 . S
C997 C994 1.380 . S
C997 C995 1.392 . S
C997 H1007 0.929 . S
C998 O978 1.266 . S
C998 O979 1.248 . S
C999 Tb935 2.802 . S
C999 O974 1.264 . S
C999 O977 1.256 . S
C999 C992 1.496 . S
H1000 C983 0.929 . S
H1001 C984 0.929 . S
H1002 C985 0.929 . S
H1003 C986 0.931 . S
H1004 C994 0.929 . S
H1005 C995 0.929 . S
H1006 C996 0.931 . S
H1007 C997 0.929 . S
Tb1008 N1037 2.617 . S
Tb1008 N1043 2.572 . S
Tb1008 O1052 2.465 . S
Tb1008 O1053 2.387 . S
Tb1008 O1055 2.428 . S
Tb1008 O1056 2.308 . S
Tb1008 O1060 2.349 . S
Tb1008 O1063 2.393 . S
Tb1008 C1072 2.802 . S
C1009 N1010 1.379 . S
C1009 C1012 1.416 . S
C1009 C1016 1.424 . S
N1010 C1009 1.379 . S
N1010 C1013 1.334 . S
N1010 Tb1019 2.617 . S
C1011 C1013 1.390 . S
C1011 C1014 1.339 . S
C1011 H1031 0.930 . S
C1012 C1009 1.416 . S
C1012 C1014 1.416 . S
C1012 C1018 1.448 . S
C1013 N1010 1.334 . S
C1013 C1011 1.390 . S
C1013 H1024 0.930 . S
C1014 C1011 1.339 . S
C1014 C1012 1.416 . S
C1014 H1035 0.930 . S
C1015 C1016 1.413 . S
C1015 C1017 1.427 . S
C1015 C1021 1.416 . S
C1016 C1009 1.424 . S
C1016 C1015 1.413 . S
C1016 N1020 1.361 . S
C1017 C1015 1.427 . S
C1017 C1018 1.328 . S
C1017 H1032 0.929 . S
C1018 C1012 1.448 . S
C1018 C1017 1.328 . S
C1018 H1033 0.930 . S
Tb1019 N1010 2.617 . S
Tb1019 N1020 2.572 . S
Tb1019 O1054 2.349 . S
Tb1019 O1057 2.393 . S
Tb1019 O1058 2.465 . S
Tb1019 O1059 2.387 . S
Tb1019 O1061 2.428 . S
Tb1019 O1062 2.308 . S
Tb1019 C1083 2.802 . S
N1020 C1016 1.361 . S
N1020 Tb1019 2.572 . S
N1020 C1022 1.340 . S
C1021 C1015 1.416 . S
C1021 C1023 1.332 . S
C1021 H1029 0.931 . S
C1022 N1020 1.340 . S
C1022 C1023 1.407 . S
C1022 H1028 0.930 . S
C1023 C1021 1.332 . S
C1023 C1022 1.407 . S
C1023 H1025 0.929 . S
H1024 C1013 0.930 . S
H1025 C1023 0.929 . S
H1026 C1041 0.930 . S
H1027 C1048 0.929 . S
H1028 C1022 0.930 . S
H1029 C1021 0.931 . S
H1030 C1044 0.930 . S
H1031 C1011 0.930 . S
H1032 C1017 0.929 . S
H1033 C1018 0.930 . S
H1034 C1039 0.930 . S
H1035 C1014 0.930 . S
H1036 C1047 0.931 . S
N1037 Tb1008 2.617 . S
N1037 C1038 1.379 . S
N1037 C1041 1.334 . S
C1038 N1037 1.379 . S
C1038 C1040 1.416 . S
C1038 C1046 1.424 . S
C1039 H1034 0.930 . S
C1039 C1041 1.390 . S
C1039 C1042 1.339 . S
C1040 C1038 1.416 . S
C1040 C1042 1.416 . S
C1040 C1073 1.448 . S
C1041 H1026 0.930 . S
C1041 N1037 1.334 . S
C1041 C1039 1.390 . S
C1042 C1039 1.339 . S
C1042 C1040 1.416 . S
C1042 H1049 0.930 . S
N1043 Tb1008 2.572 . S
N1043 C1044 1.340 . S
N1043 C1046 1.361 . S
C1044 H1030 0.930 . S
C1044 N1043 1.340 . S
C1044 C1048 1.407 . S
C1045 C1046 1.413 . S
C1045 C1047 1.416 . S
C1045 C1074 1.427 . S
C1046 C1038 1.424 . S
C1046 N1043 1.361 . S
C1046 C1045 1.413 . S
C1047 H1036 0.931 . S
C1047 C1045 1.416 . S
C1047 C1048 1.332 . S
C1048 H1027 0.929 . S
C1048 C1044 1.407 . S
C1048 C1047 1.332 . S
H1049 C1042 0.930 . S
H1050 C1073 0.930 . S
H1051 C1074 0.929 . S
O1052 Tb1008 2.465 . S
O1052 C1072 1.264 . S
O1053 Tb1008 2.387 . S
O1053 C1064 1.264 . S
O1054 Tb1019 2.349 . S
O1054 C1064 1.243 . S
O1055 Tb1008 2.428 . S
O1055 C1072 1.256 . S
O1056 Tb1008 2.308 . S
O1056 C1071 1.266 . S
O1057 Tb1019 2.393 . S
O1057 C1071 1.248 . S
O1058 Tb1019 2.465 . S
O1058 C1083 1.264 . S
O1059 Tb1019 2.387 . S
O1059 C1075 1.264 . S
O1060 Tb1008 2.349 . S
O1060 C1075 1.243 . S
O1061 Tb1019 2.428 . S
O1061 C1083 1.256 . S
O1062 Tb1019 2.308 . S
O1062 C1082 1.266 . S
O1063 Tb1008 2.393 . S
O1063 C1082 1.248 . S
C1064 O1053 1.264 . S
C1064 O1054 1.243 . S
C1065 C1068 1.399 . S
C1065 C1070 1.383 . S
C1065 C1072 1.496 . S
C1066 C1067 1.399 . S
C1066 C1070 1.389 . S
C1067 C1066 1.399 . S
C1067 C1069 1.380 . S
C1067 H1084 0.929 . S
C1068 C1065 1.399 . S
C1068 C1069 1.392 . S
C1068 H1085 0.929 . S
C1069 C1067 1.380 . S
C1069 C1068 1.392 . S
C1069 H1086 0.929 . S
C1070 C1065 1.383 . S
C1070 C1066 1.389 . S
C1070 H1087 0.931 . S
C1071 O1056 1.266 . S
C1071 O1057 1.248 . S
C1072 Tb1008 2.802 . S
C1072 O1052 1.264 . S
C1072 O1055 1.256 . S
C1072 C1065 1.496 . S
C1073 C1040 1.448 . S
C1073 H1050 0.930 . S
C1073 C1074 1.328 . S
C1074 C1045 1.427 . S
C1074 H1051 0.929 . S
C1074 C1073 1.328 . S
C1075 O1059 1.264 . S
C1075 O1060 1.243 . S
C1076 C1079 1.399 . S
C1076 C1080 1.383 . S
C1076 C1083 1.496 . S
C1077 C1078 1.399 . S
C1077 C1080 1.389 . S
C1078 C1077 1.399 . S
C1078 C1081 1.380 . S
C1078 H1088 0.929 . S
C1079 C1076 1.399 . S
C1079 C1081 1.392 . S
C1079 H1089 0.929 . S
C1080 C1076 1.383 . S
C1080 C1077 1.389 . S
C1080 H1090 0.931 . S
C1081 C1078 1.380 . S
C1081 C1079 1.392 . S
C1081 H1091 0.929 . S
C1082 O1062 1.266 . S
C1082 O1063 1.248 . S
C1083 Tb1019 2.802 . S
C1083 O1058 1.264 . S
C1083 O1061 1.256 . S
C1083 C1076 1.496 . S
H1084 C1067 0.929 . S
H1085 C1068 0.929 . S
H1086 C1069 0.929 . S
H1087 C1070 0.931 . S
H1088 C1078 0.929 . S
H1089 C1079 0.929 . S
H1090 C1080 0.931 . S
H1091 C1081 0.929 . S
Tb1092 N1121 2.617 . S
Tb1092 N1127 2.572 . S
Tb1092 O1136 2.465 . S
Tb1092 O1137 2.387 . S
Tb1092 O1139 2.428 . S
Tb1092 O1140 2.308 . S
Tb1092 O1144 2.349 . S
Tb1092 O1147 2.393 . S
Tb1092 C1156 2.802 . S
C1093 N1094 1.379 . S
C1093 C1096 1.416 1_655 S
C1093 C1100 1.424 . S
N1094 C1093 1.379 . S
N1094 C1097 1.334 . S
N1094 Tb1103 2.617 . S
C1095 C1097 1.390 1_455 S
C1095 C1098 1.339 . S
C1095 H1115 0.930 . S
C1096 C1093 1.416 1_455 S
C1096 C1098 1.416 . S
C1096 C1102 1.448 . S
C1097 N1094 1.334 . S
C1097 C1095 1.390 1_655 S
C1097 H1108 0.930 . S
C1098 C1095 1.339 . S
C1098 C1096 1.416 . S
C1098 H1119 0.930 . S
C1099 C1100 1.413 . S
C1099 C1101 1.427 . S
C1099 C1105 1.416 . S
C1100 C1093 1.424 . S
C1100 C1099 1.413 . S
C1100 N1104 1.361 . S
C1101 C1099 1.427 . S
C1101 C1102 1.328 1_655 S
C1101 H1116 0.942 . S
C1102 C1096 1.448 . S
C1102 C1101 1.328 1_455 S
C1102 H1117 0.930 . S
Tb1103 N1094 2.617 . S
Tb1103 N1104 2.572 . S
Tb1103 O1138 2.349 . S
Tb1103 O1141 2.393 . S
Tb1103 O1142 2.465 . S
Tb1103 O1143 2.387 . S
Tb1103 O1145 2.428 . S
Tb1103 O1146 2.308 . S
Tb1103 C1167 2.802 . S
N1104 C1100 1.361 . S
N1104 Tb1103 2.572 . S
N1104 C1106 1.340 . S
C1105 C1099 1.416 . S
C1105 C1107 1.332 . S
C1105 H1113 0.931 . S
C1106 N1104 1.340 . S
C1106 C1107 1.407 . S
C1106 H1112 0.930 . S
C1107 C1105 1.332 . S
C1107 C1106 1.407 . S
C1107 H1109 0.929 . S
H1108 C1097 0.930 . S
H1109 C1107 0.929 . S
H1110 C1125 0.930 . S
H1111 C1132 0.929 . S
H1112 C1106 0.930 . S
H1113 C1105 0.931 . S
H1114 C1128 0.930 . S
H1115 C1095 0.930 . S
H1116 C1101 0.942 . S
H1117 C1102 0.930 . S
H1118 C1123 0.930 . S
H1119 C1098 0.930 . S
H1120 C1131 0.931 . S
N1121 Tb1092 2.617 . S
N1121 C1122 1.379 . S
N1121 C1125 1.334 . S
C1122 N1121 1.379 . S
C1122 C1124 1.416 . S
C1122 C1130 1.424 . S
C1123 H1118 0.930 . S
C1123 C1125 1.390 . S
C1123 C1126 1.339 . S
C1124 C1122 1.416 . S
C1124 C1126 1.416 . S
C1124 C1157 1.448 . S
C1125 H1110 0.930 . S
C1125 N1121 1.334 . S
C1125 C1123 1.390 . S
C1126 C1123 1.339 . S
C1126 C1124 1.416 . S
C1126 H1133 0.930 . S
N1127 Tb1092 2.572 . S
N1127 C1128 1.340 . S
N1127 C1130 1.361 . S
C1128 H1114 0.930 . S
C1128 N1127 1.340 . S
C1128 C1132 1.407 . S
C1129 C1130 1.413 . S
C1129 C1131 1.416 . S
C1129 C1158 1.427 . S
C1130 C1122 1.424 . S
C1130 N1127 1.361 . S
C1130 C1129 1.413 . S
C1131 H1120 0.931 . S
C1131 C1129 1.416 . S
C1131 C1132 1.332 . S
C1132 H1111 0.929 . S
C1132 C1128 1.407 . S
C1132 C1131 1.332 . S
H1133 C1126 0.930 . S
H1134 C1157 0.930 . S
H1135 C1158 0.929 . S
O1136 Tb1092 2.465 . S
O1136 C1156 1.264 . S
O1137 Tb1092 2.387 . S
O1137 C1148 1.264 . S
O1138 Tb1103 2.349 . S
O1138 C1148 1.243 . S
O1139 Tb1092 2.428 . S
O1139 C1156 1.256 . S
O1140 Tb1092 2.308 . S
O1140 C1155 1.266 . S
O1141 Tb1103 2.393 . S
O1141 C1155 1.248 . S
O1142 Tb1103 2.465 . S
O1142 C1167 1.264 . S
O1143 Tb1103 2.387 . S
O1143 C1159 1.264 . S
O1144 Tb1092 2.349 . S
O1144 C1159 1.243 . S
O1145 Tb1103 2.428 . S
O1145 C1167 1.256 . S
O1146 Tb1103 2.308 . S
O1146 C1166 1.266 . S
O1147 Tb1092 2.393 . S
O1147 C1166 1.248 . S
C1148 O1137 1.264 . S
C1148 O1138 1.243 . S
C1149 C1152 1.399 . S
C1149 C1154 1.383 . S
C1149 C1156 1.496 . S
C1150 C1151 1.399 . S
C1150 C1154 1.389 . S
C1151 C1150 1.399 . S
C1151 C1153 1.380 . S
C1151 H1168 0.929 . S
C1152 C1149 1.399 . S
C1152 C1153 1.392 . S
C1152 H1169 0.929 . S
C1153 C1151 1.380 . S
C1153 C1152 1.392 . S
C1153 H1170 0.929 . S
C1154 C1149 1.383 . S
C1154 C1150 1.389 . S
C1154 H1171 0.931 . S
C1155 O1140 1.266 . S
C1155 O1141 1.248 . S
C1156 Tb1092 2.802 . S
C1156 O1136 1.264 . S
C1156 O1139 1.256 . S
C1156 C1149 1.496 . S
C1157 C1124 1.448 . S
C1157 H1134 0.930 . S
C1157 C1158 1.328 . S
C1158 C1129 1.427 . S
C1158 H1135 0.929 . S
C1158 C1157 1.328 . S
C1159 O1143 1.264 . S
C1159 O1144 1.243 . S
C1160 C1163 1.399 . S
C1160 C1164 1.383 . S
C1160 C1167 1.496 . S
C1161 C1162 1.399 . S
C1161 C1164 1.389 . S
C1162 C1161 1.399 . S
C1162 C1165 1.380 . S
C1162 H1172 0.929 . S
C1163 C1160 1.399 . S
C1163 C1165 1.392 . S
C1163 H1173 0.929 . S
C1164 C1160 1.383 . S
C1164 C1161 1.389 . S
C1164 H1174 0.931 . S
C1165 C1162 1.380 . S
C1165 C1163 1.392 . S
C1165 H1175 0.929 . S
C1166 O1146 1.266 . S
C1166 O1147 1.248 . S
C1167 Tb1103 2.802 . S
C1167 O1142 1.264 . S
C1167 O1145 1.256 . S
C1167 C1160 1.496 . S
H1168 C1151 0.929 . S
H1169 C1152 0.929 . S
H1170 C1153 0.929 . S
H1171 C1154 0.931 . S
H1172 C1162 0.929 . S
H1173 C1163 0.929 . S
H1174 C1164 0.931 . S
H1175 C1165 0.929 . S
Tb1176 N1205 2.617 . S
Tb1176 N1211 2.572 1_556 S
Tb1176 O1220 2.465 1_556 S
Tb1176 O1221 2.387 . S
Tb1176 O1223 2.428 . S
Tb1176 O1224 2.308 . S
Tb1176 O1228 2.349 . S
Tb1176 O1231 2.393 . S
Tb1176 C1240 2.802 1_556 S
C1177 N1178 1.379 . S
C1177 C1180 1.416 . S
C1177 C1184 1.424 . S
N1178 C1177 1.379 . S
N1178 C1181 1.334 . S
N1178 Tb1187 2.617 . S
C1179 C1181 1.390 . S
C1179 C1182 1.339 . S
C1179 H1199 0.930 . S
C1180 C1177 1.416 . S
C1180 C1182 1.416 . S
C1180 C1186 1.448 . S
C1181 N1178 1.334 . S
C1181 C1179 1.390 . S
C1181 H1192 0.930 . S
C1182 C1179 1.339 . S
C1182 C1180 1.416 . S
C1182 H1203 0.930 . S
C1183 C1184 1.413 . S
C1183 C1185 1.427 . S
C1183 C1189 1.416 . S
C1184 C1177 1.424 . S
C1184 C1183 1.413 . S
C1184 N1188 1.361 . S
C1185 C1183 1.427 . S
C1185 C1186 1.328 . S
C1185 H1200 0.929 . S
C1186 C1180 1.448 . S
C1186 C1185 1.328 . S
C1186 H1201 0.930 . S
Tb1187 N1178 2.617 . S
Tb1187 N1188 2.572 . S
Tb1187 O1222 2.349 . S
Tb1187 O1225 2.393 . S
Tb1187 O1226 2.465 . S
Tb1187 O1227 2.387 . S
Tb1187 O1229 2.428 . S
Tb1187 O1230 2.308 . S
Tb1187 C1251 2.802 . S
N1188 C1184 1.361 . S
N1188 Tb1187 2.572 . S
N1188 C1190 1.340 . S
C1189 C1183 1.416 . S
C1189 C1191 1.332 . S
C1189 H1197 0.931 . S
C1190 N1188 1.340 . S
C1190 C1191 1.407 . S
C1190 H1196 0.930 . S
C1191 C1189 1.332 . S
C1191 C1190 1.407 . S
C1191 H1193 0.929 . S
H1192 C1181 0.930 . S
H1193 C1191 0.929 . S
H1194 C1209 0.930 . S
H1195 C1216 0.929 . S
H1196 C1190 0.930 . S
H1197 C1189 0.931 . S
H1198 C1212 0.930 . S
H1199 C1179 0.930 . S
H1200 C1185 0.929 . S
H1201 C1186 0.930 . S
H1202 C1207 0.930 . S
H1203 C1182 0.930 . S
H1204 C1215 0.931 . S
N1205 Tb1176 2.617 . S
N1205 C1206 1.379 1_556 S
N1205 C1209 1.334 . S
C1206 N1205 1.379 1_554 S
C1206 C1208 1.416 . S
C1206 C1214 1.424 . S
C1207 H1202 0.930 . S
C1207 C1209 1.390 . S
C1207 C1210 1.339 . S
C1208 C1206 1.416 . S
C1208 C1210 1.416 1_554 S
C1208 C1241 1.448 . S
C1209 H1194 0.930 . S
C1209 N1205 1.334 . S
C1209 C1207 1.390 . S
C1210 C1207 1.339 . S
C1210 C1208 1.416 1_556 S
C1210 H1217 0.930 . S
N1211 Tb1176 2.572 1_554 S
N1211 C1212 1.340 . S
N1211 C1214 1.361 . S
C1212 H1198 0.930 . S
C1212 N1211 1.340 . S
C1212 C1216 1.407 . S
C1213 C1214 1.413 . S
C1213 C1215 1.416 . S
C1213 C1242 1.427 . S
C1214 C1206 1.424 . S
C1214 N1211 1.361 . S
C1214 C1213 1.413 . S
C1215 H1204 0.931 . S
C1215 C1213 1.416 . S
C1215 C1216 1.332 . S
C1216 H1195 0.929 . S
C1216 C1212 1.407 . S
C1216 C1215 1.332 . S
H1217 C1210 0.930 . S
H1218 C1241 0.930 . S
H1219 C1242 0.929 . S
O1220 Tb1176 2.465 1_554 S
O1220 C1240 1.264 . S
O1221 Tb1176 2.387 . S
O1221 C1232 1.264 . S
O1222 Tb1187 2.349 . S
O1222 C1232 1.243 . S
O1223 Tb1176 2.428 . S
O1223 C1240 1.256 1_556 S
O1224 Tb1176 2.308 . S
O1224 C1239 1.266 . S
O1225 Tb1187 2.393 . S
O1225 C1239 1.248 . S
O1226 Tb1187 2.465 . S
O1226 C1251 1.264 . S
O1227 Tb1187 2.387 . S
O1227 C1243 1.264 . S
O1228 Tb1176 2.349 . S
O1228 C1243 1.243 . S
O1229 Tb1187 2.428 . S
O1229 C1251 1.256 . S
O1230 Tb1187 2.308 . S
O1230 C1250 1.266 . S
O1231 Tb1176 2.393 . S
O1231 C1250 1.248 . S
C1232 O1221 1.264 . S
C1232 O1222 1.243 . S
C1233 C1236 1.399 . S
C1233 C1238 1.383 . S
C1233 C1240 1.496 . S
C1234 C1235 1.399 . S
C1234 C1238 1.389 . S
C1235 C1234 1.399 . S
C1235 C1237 1.380 . S
C1235 H1252 0.929 . S
C1236 C1233 1.399 . S
C1236 C1237 1.392 . S
C1236 H1253 0.929 . S
C1237 C1235 1.380 . S
C1237 C1236 1.392 . S
C1237 H1254 0.929 . S
C1238 C1233 1.383 . S
C1238 C1234 1.389 . S
C1238 H1255 0.931 . S
C1239 O1224 1.266 . S
C1239 O1225 1.248 . S
C1240 Tb1176 2.802 1_554 S
C1240 O1220 1.264 . S
C1240 O1223 1.256 1_554 S
C1240 C1233 1.496 . S
C1241 C1208 1.448 . S
C1241 H1218 0.930 . S
C1241 C1242 1.328 . S
C1242 C1213 1.427 . S
C1242 H1219 0.929 . S
C1242 C1241 1.328 . S
C1243 O1227 1.264 . S
C1243 O1228 1.243 . S
C1244 C1247 1.399 . S
C1244 C1248 1.383 . S
C1244 C1251 1.496 . S
C1245 C1246 1.399 . S
C1245 C1248 1.389 . S
C1246 C1245 1.399 . S
C1246 C1249 1.380 . S
C1246 H1256 0.929 . S
C1247 C1244 1.399 . S
C1247 C1249 1.392 . S
C1247 H1257 0.929 . S
C1248 C1244 1.383 . S
C1248 C1245 1.389 . S
C1248 H1258 0.931 . S
C1249 C1246 1.380 . S
C1249 C1247 1.392 . S
C1249 H1259 0.929 . S
C1250 O1230 1.266 . S
C1250 O1231 1.248 . S
C1251 Tb1187 2.802 . S
C1251 O1226 1.264 . S
C1251 O1229 1.256 . S
C1251 C1244 1.496 . S
H1252 C1235 0.929 . S
H1253 C1236 0.929 . S
H1254 C1237 0.929 . S
H1255 C1238 0.931 . S
H1256 C1246 0.929 . S
H1257 C1247 0.929 . S
H1258 C1248 0.931 . S
H1259 C1249 0.929 . S
Tb1260 N1289 2.617 . S
Tb1260 N1295 2.572 . S
Tb1260 O1304 2.465 . S
Tb1260 O1305 2.387 . S
Tb1260 O1307 2.428 . S
Tb1260 O1308 2.308 . S
Tb1260 O1312 2.349 . S
Tb1260 O1315 2.393 . S
Tb1260 C1324 2.802 . S
C1261 N1262 1.379 . S
C1261 C1264 1.416 . S
C1261 C1268 1.424 . S
N1262 C1261 1.379 . S
N1262 C1265 1.334 . S
N1262 Tb1271 2.617 . S
C1263 C1265 1.390 . S
C1263 C1266 1.339 . S
C1263 H1283 0.930 . S
C1264 C1261 1.416 . S
C1264 C1266 1.416 . S
C1264 C1270 1.448 . S
C1265 N1262 1.334 . S
C1265 C1263 1.390 . S
C1265 H1276 0.930 . S
C1266 C1263 1.339 . S
C1266 C1264 1.416 . S
C1266 H1287 0.930 . S
C1267 C1268 1.413 . S
C1267 C1269 1.427 . S
C1267 C1273 1.416 . S
C1268 C1261 1.424 . S
C1268 C1267 1.413 . S
C1268 N1272 1.361 . S
C1269 C1267 1.427 . S
C1269 C1270 1.328 . S
C1269 H1284 0.929 . S
C1270 C1264 1.448 . S
C1270 C1269 1.328 . S
C1270 H1285 0.930 . S
Tb1271 N1262 2.617 . S
Tb1271 N1272 2.572 . S
Tb1271 O1306 2.349 . S
Tb1271 O1309 2.393 . S
Tb1271 O1310 2.465 . S
Tb1271 O1311 2.387 . S
Tb1271 O1313 2.428 . S
Tb1271 O1314 2.308 . S
Tb1271 C1335 2.802 . S
N1272 C1268 1.361 . S
N1272 Tb1271 2.572 . S
N1272 C1274 1.340 . S
C1273 C1267 1.416 . S
C1273 C1275 1.332 . S
C1273 H1281 0.931 . S
C1274 N1272 1.340 . S
C1274 C1275 1.407 . S
C1274 H1280 0.930 . S
C1275 C1273 1.332 . S
C1275 C1274 1.407 . S
C1275 H1277 0.929 . S
H1276 C1265 0.930 . S
H1277 C1275 0.929 . S
H1278 C1293 0.930 . S
H1279 C1300 0.929 . S
H1280 C1274 0.930 . S
H1281 C1273 0.931 . S
H1282 C1296 0.930 . S
H1283 C1263 0.930 . S
H1284 C1269 0.929 . S
H1285 C1270 0.930 . S
H1286 C1291 0.930 . S
H1287 C1266 0.930 . S
H1288 C1299 0.931 . S
N1289 Tb1260 2.617 . S
N1289 C1290 1.379 . S
N1289 C1293 1.334 . S
C1290 N1289 1.379 . S
C1290 C1292 1.416 . S
C1290 C1298 1.424 . S
C1291 H1286 0.930 . S
C1291 C1293 1.390 . S
C1291 C1294 1.339 . S
C1292 C1290 1.416 . S
C1292 C1294 1.416 . S
C1292 C1325 1.448 . S
C1293 H1278 0.930 . S
C1293 N1289 1.334 . S
C1293 C1291 1.390 . S
C1294 C1291 1.339 . S
C1294 C1292 1.416 . S
C1294 H1301 0.930 . S
N1295 Tb1260 2.572 . S
N1295 C1296 1.340 . S
N1295 C1298 1.361 . S
C1296 H1282 0.930 . S
C1296 N1295 1.340 . S
C1296 C1300 1.407 . S
C1297 C1298 1.413 . S
C1297 C1299 1.416 . S
C1297 C1326 1.427 . S
C1298 C1290 1.424 . S
C1298 N1295 1.361 . S
C1298 C1297 1.413 . S
C1299 H1288 0.931 . S
C1299 C1297 1.416 . S
C1299 C1300 1.332 . S
C1300 H1279 0.929 . S
C1300 C1296 1.407 . S
C1300 C1299 1.332 . S
H1301 C1294 0.930 . S
H1302 C1325 0.930 . S
H1303 C1326 0.929 . S
O1304 Tb1260 2.465 . S
O1304 C1324 1.264 . S
O1305 Tb1260 2.387 . S
O1305 C1316 1.264 . S
O1306 Tb1271 2.349 . S
O1306 C1316 1.243 . S
O1307 Tb1260 2.428 . S
O1307 C1324 1.256 . S
O1308 Tb1260 2.308 . S
O1308 C1323 1.266 . S
O1309 Tb1271 2.393 . S
O1309 C1323 1.248 . S
O1310 Tb1271 2.465 . S
O1310 C1335 1.264 . S
O1311 Tb1271 2.387 . S
O1311 C1327 1.264 . S
O1312 Tb1260 2.349 . S
O1312 C1327 1.243 . S
O1313 Tb1271 2.428 . S
O1313 C1335 1.256 . S
O1314 Tb1271 2.308 . S
O1314 C1334 1.266 . S
O1315 Tb1260 2.393 . S
O1315 C1334 1.248 . S
C1316 O1305 1.264 . S
C1316 O1306 1.243 . S
C1317 C1320 1.399 . S
C1317 C1322 1.383 . S
C1317 C1324 1.496 . S
C1318 C1319 1.399 . S
C1318 C1322 1.389 . S
C1319 C1318 1.399 . S
C1319 C1321 1.380 . S
C1319 H1336 0.929 . S
C1320 C1317 1.399 . S
C1320 C1321 1.392 . S
C1320 H1337 0.929 . S
C1321 C1319 1.380 . S
C1321 C1320 1.392 . S
C1321 H1338 0.929 . S
C1322 C1317 1.383 . S
C1322 C1318 1.389 . S
C1322 H1339 0.931 . S
C1323 O1308 1.266 . S
C1323 O1309 1.248 . S
C1324 Tb1260 2.802 . S
C1324 O1304 1.264 . S
C1324 O1307 1.256 . S
C1324 C1317 1.496 . S
C1325 C1292 1.448 . S
C1325 H1302 0.930 . S
C1325 C1326 1.328 . S
C1326 C1297 1.427 . S
C1326 H1303 0.929 . S
C1326 C1325 1.328 . S
C1327 O1311 1.264 . S
C1327 O1312 1.243 . S
C1328 C1331 1.399 . S
C1328 C1332 1.383 . S
C1328 C1335 1.496 . S
C1329 C1330 1.399 . S
C1329 C1332 1.389 . S
C1330 C1329 1.399 . S
C1330 C1333 1.380 . S
C1330 H1340 0.929 . S
C1331 C1328 1.399 . S
C1331 C1333 1.392 . S
C1331 H1341 0.929 . S
C1332 C1328 1.383 . S
C1332 C1329 1.389 . S
C1332 H1342 0.931 . S
C1333 C1330 1.380 . S
C1333 C1331 1.392 . S
C1333 H1343 0.929 . S
C1334 O1314 1.266 . S
C1334 O1315 1.248 . S
C1335 Tb1271 2.802 . S
C1335 O1310 1.264 . S
C1335 O1313 1.256 . S
C1335 C1328 1.496 . S
H1336 C1319 0.929 . S
H1337 C1320 0.929 . S
H1338 C1321 0.929 . S
H1339 C1322 0.931 . S
H1340 C1330 0.929 . S
H1341 C1331 0.929 . S
H1342 C1332 0.931 . S
H1343 C1333 0.929 . S
H1344 C1362 0.951 . S
H1345 C1364 0.951 . S
H1346 C1366 0.950 . S
H1347 C1367 0.950 . S
H1348 C1369 0.950 . S
H1349 C1372 0.950 . S
H1350 C1373 0.950 . S
H1351 C1375 0.950 . S
H1352 C1376 0.950 . S
H1353 C1377 0.951 . S
H1354 C1379 0.951 . S
H1355 C1381 0.950 . S
H1356 C1382 0.950 . S
H1357 C1384 0.950 . S
H1358 C1387 0.950 . S
H1359 C1388 0.950 . S
H1360 C1390 0.950 . S
H1361 C1391 0.950 . S
C1362 H1344 0.951 . S
C1362 C1363 1.366 . S
C1362 C1364 1.388 . S
C1363 C1362 1.366 . S
C1363 C1367 1.385 . S
C1364 H1345 0.951 . S
C1364 C1362 1.388 . S
C1364 C1365 1.366 . S
C1365 C1364 1.366 . S
C1365 C1366 1.414 . S
C1365 C1368 1.499 . S
C1366 H1346 0.950 . S
C1366 C1365 1.414 . S
C1366 C1367 1.374 . S
C1367 H1347 0.950 . S
C1367 C1363 1.385 . S
C1367 C1366 1.374 . S
C1368 C1365 1.499 . S
C1368 C1369 1.373 . S
C1368 C1370 1.389 . S
C1369 H1348 0.950 . S
C1369 C1368 1.373 . S
C1369 C1385 1.377 . S
C1370 C1368 1.389 . S
C1370 C1371 1.524 . S
C1370 C1384 1.377 . S
C1371 C1370 1.524 . S
C1371 C1372 1.397 . S
C1371 C1376 1.363 . S
C1372 H1349 0.950 . S
C1372 C1371 1.397 . S
C1372 C1373 1.334 . S
C1373 H1350 0.950 . S
C1373 C1372 1.334 . S
C1373 C1374 1.287 . S
C1374 C1373 1.287 . S
C1374 C1375 1.524 . S
C1374 H1393 0.913 . S
C1375 H1351 0.950 . S
C1375 C1374 1.524 . S
C1375 C1376 1.415 . S
C1376 H1352 0.950 . S
C1376 C1371 1.363 . S
C1376 C1375 1.415 . S
C1377 H1353 0.951 . S
C1377 C1378 1.366 . S
C1377 C1379 1.388 . S
C1378 C1377 1.366 . S
C1378 C1382 1.385 . S
C1379 H1354 0.951 . S
C1379 C1377 1.388 . S
C1379 C1380 1.366 . S
C1380 C1379 1.366 . S
C1380 C1381 1.414 . S
C1380 C1383 1.499 . S
C1381 H1355 0.950 . S
C1381 C1380 1.414 . S
C1381 C1382 1.374 . S
C1382 H1356 0.950 . S
C1382 C1378 1.385 . S
C1382 C1381 1.374 . S
C1383 C1380 1.499 . S
C1383 C1384 1.373 . S
C1383 C1385 1.389 . S
C1384 H1357 0.950 . S
C1384 C1370 1.377 . S
C1384 C1383 1.373 . S
C1385 C1369 1.377 . S
C1385 C1383 1.389 . S
C1385 C1386 1.524 . S
C1386 C1385 1.524 . S
C1386 C1387 1.397 . S
C1386 C1391 1.363 . S
C1387 H1358 0.950 . S
C1387 C1386 1.397 . S
C1387 C1388 1.334 1_554 S
C1388 H1359 0.950 . S
C1388 C1387 1.334 1_556 S
C1388 C1389 1.287 . S
C1389 C1388 1.287 . S
C1389 C1390 1.524 . S
C1389 H1392 0.999 . S
C1390 H1360 0.950 . S
C1390 C1389 1.524 . S
C1390 C1391 1.415 1_556 S
C1391 H1361 0.950 . S
C1391 C1386 1.363 . S
C1391 C1390 1.415 1_554 S
H1392 C1389 0.999 . S
H1393 C1374 0.913 . S
H1394 C1412 0.951 . S
H1395 C1414 0.951 . S
H1396 C1416 0.950 . S
H1397 C1417 0.950 . S
H1398 C1419 0.950 . S
H1399 C1422 0.950 . S
H1400 C1423 0.950 . S
H1401 C1425 0.950 . S
H1402 C1426 0.950 . S
H1403 C1427 0.951 . S
H1404 C1429 0.951 . S
H1405 C1431 0.950 . S
H1406 C1432 0.950 . S
H1407 C1434 0.950 . S
H1408 C1437 0.950 . S
H1409 C1438 0.950 . S
H1410 C1440 0.950 . S
H1411 C1441 0.950 . S
C1412 H1394 0.951 . S
C1412 C1413 1.366 . S
C1412 C1414 1.388 . S
C1413 C1412 1.366 . S
C1413 C1417 1.385 . S
C1414 H1395 0.951 . S
C1414 C1412 1.388 . S
C1414 C1415 1.366 . S
C1415 C1414 1.366 . S
C1415 C1416 1.414 . S
C1415 C1418 1.499 . S
C1416 H1396 0.950 . S
C1416 C1415 1.414 . S
C1416 C1417 1.374 . S
C1417 H1397 0.950 . S
C1417 C1413 1.385 . S
C1417 C1416 1.374 . S
C1418 C1415 1.499 . S
C1418 C1419 1.373 . S
C1418 C1420 1.389 . S
C1419 H1398 0.950 . S
C1419 C1418 1.373 . S
C1419 C1435 1.377 . S
C1420 C1418 1.389 . S
C1420 C1421 1.524 . S
C1420 C1434 1.377 . S
C1421 C1420 1.524 . S
C1421 C1422 1.397 . S
C1421 C1426 1.363 . S
C1422 H1399 0.950 . S
C1422 C1421 1.397 . S
C1422 C1423 1.334 . S
C1423 H1400 0.950 . S
C1423 C1422 1.334 . S
C1423 C1424 1.287 . S
C1424 C1423 1.287 . S
C1424 C1425 1.524 . S
C1424 H1443 0.913 . S
C1425 H1401 0.950 . S
C1425 C1424 1.524 . S
C1425 C1426 1.415 . S
C1426 H1402 0.950 . S
C1426 C1421 1.363 . S
C1426 C1425 1.415 . S
C1427 H1403 0.951 . S
C1427 C1428 1.366 . S
C1427 C1429 1.388 . S
C1428 C1427 1.366 . S
C1428 C1432 1.385 . S
C1429 H1404 0.951 . S
C1429 C1427 1.388 . S
C1429 C1430 1.366 . S
C1430 C1429 1.366 . S
C1430 C1431 1.414 . S
C1430 C1433 1.499 . S
C1431 H1405 0.950 . S
C1431 C1430 1.414 . S
C1431 C1432 1.374 . S
C1432 H1406 0.950 . S
C1432 C1428 1.385 . S
C1432 C1431 1.374 . S
C1433 C1430 1.499 . S
C1433 C1434 1.373 . S
C1433 C1435 1.389 . S
C1434 H1407 0.950 . S
C1434 C1420 1.377 . S
C1434 C1433 1.373 . S
C1435 C1419 1.377 . S
C1435 C1433 1.389 . S
C1435 C1436 1.524 . S
C1436 C1435 1.524 . S
C1436 C1437 1.397 . S
C1436 C1441 1.363 . S
C1437 H1408 0.950 . S
C1437 C1436 1.397 . S
C1437 C1438 1.334 . S
C1438 H1409 0.950 . S
C1438 C1437 1.334 . S
C1438 C1439 1.287 . S
C1439 C1438 1.287 . S
C1439 C1440 1.524 . S
C1439 H1442 0.999 . S
C1440 H1410 0.950 . S
C1440 C1439 1.524 . S
C1440 C1441 1.415 . S
C1441 H1411 0.950 . S
C1441 C1436 1.363 . S
C1441 C1440 1.415 . S
H1442 C1439 0.999 . S
H1443 C1424 0.913 . S
H1444 C1462 0.951 . S
H1445 C1464 0.951 . S
H1446 C1466 0.950 . S
H1447 C1467 0.950 . S
H1448 C1469 0.950 . S
H1449 C1472 0.950 . S
H1450 C1473 0.950 . S
H1451 C1475 0.950 . S
H1452 C1476 0.950 . S
H1453 C1477 0.951 . S
H1454 C1479 0.951 . S
H1455 C1481 0.950 . S
H1456 C1482 0.950 . S
H1457 C1484 0.950 . S
H1458 C1487 0.950 . S
H1459 C1488 0.950 . S
H1460 C1490 0.950 . S
H1461 C1491 0.950 . S
C1462 H1444 0.951 . S
C1462 C1463 1.366 . S
C1462 C1464 1.388 . S
C1463 C1462 1.366 . S
C1463 C1467 1.385 . S
C1464 H1445 0.951 . S
C1464 C1462 1.388 . S
C1464 C1465 1.366 . S
C1465 C1464 1.366 . S
C1465 C1466 1.414 . S
C1465 C1468 1.499 . S
C1466 H1446 0.950 . S
C1466 C1465 1.414 . S
C1466 C1467 1.374 . S
C1467 H1447 0.950 . S
C1467 C1463 1.385 . S
C1467 C1466 1.374 . S
C1468 C1465 1.499 . S
C1468 C1469 1.373 . S
C1468 C1470 1.389 1_455 S
C1469 H1448 0.950 . S
C1469 C1468 1.373 . S
C1469 C1485 1.377 . S
C1470 C1468 1.389 1_655 S
C1470 C1471 1.524 . S
C1470 C1484 1.377 . S
C1471 C1470 1.524 . S
C1471 C1472 1.397 . S
C1471 C1476 1.363 . S
C1472 H1449 0.950 . S
C1472 C1471 1.397 . S
C1472 C1473 1.334 . S
C1473 H1450 0.950 . S
C1473 C1472 1.334 . S
C1473 C1474 1.287 . S
C1474 C1473 1.287 . S
C1474 C1475 1.524 . S
C1474 H1493 0.913 . S
C1475 H1451 0.950 . S
C1475 C1474 1.524 . S
C1475 C1476 1.415 . S
C1476 H1452 0.950 . S
C1476 C1471 1.363 . S
C1476 C1475 1.415 . S
C1477 H1453 0.951 . S
C1477 C1478 1.366 . S
C1477 C1479 1.388 . S
C1478 C1477 1.366 . S
C1478 C1482 1.385 . S
C1479 H1454 0.951 . S
C1479 C1477 1.388 . S
C1479 C1480 1.366 . S
C1480 C1479 1.366 . S
C1480 C1481 1.414 . S
C1480 C1483 1.499 . S
C1481 H1455 0.950 . S
C1481 C1480 1.414 . S
C1481 C1482 1.374 . S
C1482 H1456 0.950 . S
C1482 C1478 1.385 . S
C1482 C1481 1.374 . S
C1483 C1480 1.499 . S
C1483 C1484 1.373 . S
C1483 C1485 1.389 1_655 S
C1484 H1457 0.950 . S
C1484 C1470 1.377 . S
C1484 C1483 1.373 . S
C1485 C1469 1.377 . S
C1485 C1483 1.389 1_455 S
C1485 C1486 1.524 . S
C1486 C1485 1.524 . S
C1486 C1487 1.397 . S
C1486 C1491 1.363 . S
C1487 H1458 0.950 . S
C1487 C1486 1.397 . S
C1487 C1488 1.334 . S
C1488 H1459 0.950 . S
C1488 C1487 1.334 . S
C1488 C1489 1.287 . S
C1489 C1488 1.287 . S
C1489 C1490 1.524 . S
C1489 H1492 0.999 . S
C1490 H1460 0.950 . S
C1490 C1489 1.524 . S
C1490 C1491 1.415 . S
C1491 H1461 0.950 . S
C1491 C1486 1.363 . S
C1491 C1490 1.415 . S
H1492 C1489 0.999 . S
H1493 C1474 0.913 . S
H1494 C1512 0.951 . S
H1495 C1514 0.951 . S
H1496 C1516 0.950 . S
H1497 C1517 0.950 . S
H1498 C1519 0.950 . S
H1499 C1522 0.950 . S
H1500 C1523 0.950 . S
H1501 C1525 0.950 . S
H1502 C1526 0.950 . S
H1503 C1527 0.951 . S
H1504 C1529 0.951 . S
H1505 C1531 0.950 . S
H1506 C1532 0.950 . S
H1507 C1534 0.950 . S
H1508 C1537 0.950 . S
H1509 C1538 0.950 . S
H1510 C1540 0.950 . S
H1511 C1541 0.950 . S
C1512 H1494 0.951 . S
C1512 C1513 1.366 . S
C1512 C1514 1.388 . S
C1513 C1512 1.366 . S
C1513 C1517 1.385 . S
C1514 H1495 0.951 . S
C1514 C1512 1.388 . S
C1514 C1515 1.366 . S
C1515 C1514 1.366 . S
C1515 C1516 1.414 . S
C1515 C1518 1.499 . S
C1516 H1496 0.950 . S
C1516 C1515 1.414 . S
C1516 C1517 1.374 . S
C1517 H1497 0.950 . S
C1517 C1513 1.385 . S
C1517 C1516 1.374 . S
C1518 C1515 1.499 . S
C1518 C1519 1.373 1_655 S
C1518 C1520 1.389 . S
C1519 H1498 0.950 . S
C1519 C1518 1.373 1_455 S
C1519 C1535 1.377 . S
C1520 C1518 1.389 . S
C1520 C1521 1.524 . S
C1520 C1534 1.377 . S
C1521 C1520 1.524 . S
C1521 C1522 1.397 . S
C1521 C1526 1.363 . S
C1522 H1499 0.950 . S
C1522 C1521 1.397 . S
C1522 C1523 1.334 . S
C1523 H1500 0.950 . S
C1523 C1522 1.334 . S
C1523 C1524 1.287 . S
C1524 C1523 1.287 . S
C1524 C1525 1.524 . S
C1524 H1543 0.913 . S
C1525 H1501 0.950 . S
C1525 C1524 1.524 . S
C1525 C1526 1.415 . S
C1526 H1502 0.950 . S
C1526 C1521 1.363 . S
C1526 C1525 1.415 . S
C1527 H1503 0.951 . S
C1527 C1528 1.366 . S
C1527 C1529 1.388 . S
C1528 C1527 1.366 . S
C1528 C1532 1.385 . S
C1529 H1504 0.951 . S
C1529 C1527 1.388 . S
C1529 C1530 1.366 . S
C1530 C1529 1.366 . S
C1530 C1531 1.414 . S
C1530 C1533 1.499 . S
C1531 H1505 0.950 . S
C1531 C1530 1.414 . S
C1531 C1532 1.374 . S
C1532 H1506 0.950 . S
C1532 C1528 1.385 . S
C1532 C1531 1.374 . S
C1533 C1530 1.499 . S
C1533 C1534 1.373 1_455 S
C1533 C1535 1.389 . S
C1534 H1507 0.950 . S
C1534 C1520 1.377 . S
C1534 C1533 1.373 1_655 S
C1535 C1519 1.377 . S
C1535 C1533 1.389 . S
C1535 C1536 1.524 . S
C1536 C1535 1.524 . S
C1536 C1537 1.397 . S
C1536 C1541 1.363 . S
C1537 H1508 0.950 . S
C1537 C1536 1.397 . S
C1537 C1538 1.334 . S
C1538 H1509 0.950 . S
C1538 C1537 1.334 . S
C1538 C1539 1.287 . S
C1539 C1538 1.287 . S
C1539 C1540 1.524 . S
C1539 H1542 0.999 . S
C1540 H1510 0.950 . S
C1540 C1539 1.524 . S
C1540 C1541 1.415 . S
C1541 H1511 0.950 . S
C1541 C1536 1.363 . S
C1541 C1540 1.415 . S
H1542 C1539 0.999 . S
H1543 C1524 0.913 . S
H1544 C1562 0.951 . S
H1545 C1564 0.951 . S
H1546 C1566 0.950 . S
H1547 C1567 0.950 . S
H1548 C1569 0.950 . S
H1549 C1572 0.950 . S
H1550 C1573 0.950 . S
H1551 C1575 0.950 . S
H1552 C1576 0.950 . S
H1553 C1577 0.951 . S
H1554 C1579 0.951 . S
H1555 C1581 0.950 . S
H1556 C1582 0.950 . S
H1557 C1584 0.950 . S
H1558 C1587 0.950 . S
H1559 C1588 0.950 . S
H1560 C1590 0.950 . S
H1561 C1591 0.950 . S
C1562 H1544 0.951 . S
C1562 C1563 1.366 . S
C1562 C1564 1.388 . S
C1563 C1562 1.366 . S
C1563 C1567 1.385 . S
C1564 H1545 0.951 . S
C1564 C1562 1.388 . S
C1564 C1565 1.366 . S
C1565 C1564 1.366 . S
C1565 C1566 1.414 . S
C1565 C1568 1.499 . S
C1566 H1546 0.950 . S
C1566 C1565 1.414 . S
C1566 C1567 1.374 . S
C1567 H1547 0.950 . S
C1567 C1563 1.385 . S
C1567 C1566 1.374 . S
C1568 C1565 1.499 . S
C1568 C1569 1.373 . S
C1568 C1570 1.389 . S
C1569 H1548 0.950 . S
C1569 C1568 1.373 . S
C1569 C1585 1.377 . S
C1570 C1568 1.389 . S
C1570 C1571 1.524 . S
C1570 C1584 1.377 . S
C1571 C1570 1.524 . S
C1571 C1572 1.397 . S
C1571 C1576 1.363 . S
C1572 H1549 0.950 . S
C1572 C1571 1.397 . S
C1572 C1573 1.334 . S
C1573 H1550 0.950 . S
C1573 C1572 1.334 . S
C1573 C1574 1.287 . S
C1574 C1573 1.287 . S
C1574 C1575 1.524 . S
C1574 H1593 0.913 . S
C1575 H1551 0.950 . S
C1575 C1574 1.524 . S
C1575 C1576 1.415 . S
C1576 H1552 0.950 . S
C1576 C1571 1.363 . S
C1576 C1575 1.415 . S
C1577 H1553 0.951 . S
C1577 C1578 1.366 . S
C1577 C1579 1.388 . S
C1578 C1577 1.366 . S
C1578 C1582 1.385 . S
C1579 H1554 0.951 . S
C1579 C1577 1.388 . S
C1579 C1580 1.366 . S
C1580 C1579 1.366 . S
C1580 C1581 1.414 . S
C1580 C1583 1.499 . S
C1581 H1555 0.950 . S
C1581 C1580 1.414 . S
C1581 C1582 1.374 . S
C1582 H1556 0.950 . S
C1582 C1578 1.385 . S
C1582 C1581 1.374 . S
C1583 C1580 1.499 . S
C1583 C1584 1.373 . S
C1583 C1585 1.389 . S
C1584 H1557 0.950 . S
C1584 C1570 1.377 . S
C1584 C1583 1.373 . S
C1585 C1569 1.377 . S
C1585 C1583 1.389 . S
C1585 C1586 1.524 . S
C1586 C1585 1.524 . S
C1586 C1587 1.397 . S
C1586 C1591 1.363 . S
C1587 H1558 0.950 . S
C1587 C1586 1.397 . S
C1587 C1588 1.334 1_556 S
C1588 H1559 0.950 . S
C1588 C1587 1.334 1_554 S
C1588 C1589 1.287 . S
C1589 C1588 1.287 . S
C1589 C1590 1.524 . S
C1589 H1592 0.999 . S
C1590 H1560 0.950 . S
C1590 C1589 1.524 . S
C1590 C1591 1.415 1_554 S
C1591 H1561 0.950 . S
C1591 C1586 1.363 . S
C1591 C1590 1.415 1_556 S
H1592 C1589 0.999 . S
H1593 C1574 0.913 . S
H1594 C1612 0.951 . S
H1595 C1614 0.951 . S
H1596 C1616 0.950 . S
H1597 C1617 0.950 . S
H1598 C1619 0.950 . S
H1599 C1622 0.950 . S
H1600 C1623 0.950 . S
H1601 C1625 0.950 . S
H1602 C1626 0.950 . S
H1603 C1627 0.951 . S
H1604 C1629 0.951 . S
H1605 C1631 0.950 . S
H1606 C1632 0.950 . S
H1607 C1634 0.950 . S
H1608 C1637 0.950 . S
H1609 C1638 0.950 . S
H1610 C1640 0.950 . S
H1611 C1641 0.950 . S
C1612 H1594 0.951 . S
C1612 C1613 1.366 . S
C1612 C1614 1.388 . S
C1613 C1612 1.366 . S
C1613 C1617 1.385 . S
C1614 H1595 0.951 . S
C1614 C1612 1.388 . S
C1614 C1615 1.366 . S
C1615 C1614 1.366 . S
C1615 C1616 1.414 . S
C1615 C1618 1.499 . S
C1616 H1596 0.950 . S
C1616 C1615 1.414 . S
C1616 C1617 1.374 . S
C1617 H1597 0.950 . S
C1617 C1613 1.385 . S
C1617 C1616 1.374 . S
C1618 C1615 1.499 . S
C1618 C1619 1.373 . S
C1618 C1620 1.389 . S
C1619 H1598 0.950 . S
C1619 C1618 1.373 . S
C1619 C1635 1.377 . S
C1620 C1618 1.389 . S
C1620 C1621 1.524 . S
C1620 C1634 1.377 . S
C1621 C1620 1.524 . S
C1621 C1622 1.397 . S
C1621 C1626 1.363 . S
C1622 H1599 0.950 . S
C1622 C1621 1.397 . S
C1622 C1623 1.334 . S
C1623 H1600 0.950 . S
C1623 C1622 1.334 . S
C1623 C1624 1.287 . S
C1624 C1623 1.287 . S
C1624 C1625 1.524 . S
C1624 H1643 0.913 . S
C1625 H1601 0.950 . S
C1625 C1624 1.524 . S
C1625 C1626 1.415 . S
C1626 H1602 0.950 . S
C1626 C1621 1.363 . S
C1626 C1625 1.415 . S
C1627 H1603 0.951 . S
C1627 C1628 1.366 . S
C1627 C1629 1.388 . S
C1628 C1627 1.366 . S
C1628 C1632 1.385 . S
C1629 H1604 0.951 . S
C1629 C1627 1.388 . S
C1629 C1630 1.366 . S
C1630 C1629 1.366 . S
C1630 C1631 1.414 . S
C1630 C1633 1.499 . S
C1631 H1605 0.950 . S
C1631 C1630 1.414 . S
C1631 C1632 1.374 . S
C1632 H1606 0.950 . S
C1632 C1628 1.385 . S
C1632 C1631 1.374 . S
C1633 C1630 1.499 . S
C1633 C1634 1.373 . S
C1633 C1635 1.389 . S
C1634 H1607 0.950 . S
C1634 C1620 1.377 . S
C1634 C1633 1.373 . S
C1635 C1619 1.377 . S
C1635 C1633 1.389 . S
C1635 C1636 1.524 . S
C1636 C1635 1.524 . S
C1636 C1637 1.397 . S
C1636 C1641 1.363 . S
C1637 H1608 0.950 . S
C1637 C1636 1.397 . S
C1637 C1638 1.334 . S
C1638 H1609 0.950 . S
C1638 C1637 1.334 . S
C1638 C1639 1.287 . S
C1639 C1638 1.287 . S
C1639 C1640 1.524 . S
C1639 H1642 0.999 . S
C1640 H1610 0.950 . S
C1640 C1639 1.524 . S
C1640 C1641 1.415 . S
C1641 H1611 0.950 . S
C1641 C1636 1.363 . S
C1641 C1640 1.415 . S
H1642 C1639 0.999 . S
H1643 C1624 0.913 . S
H1644 C1662 0.951 . S
H1645 C1664 0.951 . S
H1646 C1666 0.950 . S
H1647 C1667 0.950 . S
H1648 C1669 0.950 . S
H1649 C1672 0.950 . S
H1650 C1673 0.950 . S
H1651 C1675 0.950 . S
H1652 C1676 0.950 . S
H1653 C1677 0.951 . S
H1654 C1679 0.951 . S
H1655 C1681 0.950 . S
H1656 C1682 0.950 . S
H1657 C1684 0.950 . S
H1658 C1687 0.950 . S
H1659 C1688 0.950 . S
H1660 C1690 0.950 . S
H1661 C1691 0.950 . S
C1662 H1644 0.951 . S
C1662 C1663 1.366 . S
C1662 C1664 1.388 . S
C1663 C1662 1.366 . S
C1663 C1667 1.385 . S
C1664 H1645 0.951 . S
C1664 C1662 1.388 . S
C1664 C1665 1.366 . S
C1665 C1664 1.366 . S
C1665 C1666 1.414 . S
C1665 C1668 1.499 . S
C1666 H1646 0.950 . S
C1666 C1665 1.414 . S
C1666 C1667 1.374 . S
C1667 H1647 0.950 . S
C1667 C1663 1.385 . S
C1667 C1666 1.374 . S
C1668 C1665 1.499 . S
C1668 C1669 1.373 . S
C1668 C1670 1.389 1_655 S
C1669 H1648 0.950 . S
C1669 C1668 1.373 . S
C1669 C1685 1.377 . S
C1670 C1668 1.389 1_455 S
C1670 C1671 1.524 . S
C1670 C1684 1.377 . S
C1671 C1670 1.524 . S
C1671 C1672 1.397 . S
C1671 C1676 1.363 . S
C1672 H1649 0.950 . S
C1672 C1671 1.397 . S
C1672 C1673 1.334 . S
C1673 H1650 0.950 . S
C1673 C1672 1.334 . S
C1673 C1674 1.287 . S
C1674 C1673 1.287 . S
C1674 C1675 1.524 . S
C1674 H1693 0.913 . S
C1675 H1651 0.950 . S
C1675 C1674 1.524 . S
C1675 C1676 1.415 . S
C1676 H1652 0.950 . S
C1676 C1671 1.363 . S
C1676 C1675 1.415 . S
C1677 H1653 0.951 . S
C1677 C1678 1.366 . S
C1677 C1679 1.388 . S
C1678 C1677 1.366 . S
C1678 C1682 1.385 . S
C1679 H1654 0.951 . S
C1679 C1677 1.388 . S
C1679 C1680 1.366 . S
C1680 C1679 1.366 . S
C1680 C1681 1.414 . S
C1680 C1683 1.499 . S
C1681 H1655 0.950 . S
C1681 C1680 1.414 . S
C1681 C1682 1.374 . S
C1682 H1656 0.950 . S
C1682 C1678 1.385 . S
C1682 C1681 1.374 . S
C1683 C1680 1.499 . S
C1683 C1684 1.373 . S
C1683 C1685 1.389 1_455 S
C1684 H1657 0.950 . S
C1684 C1670 1.377 . S
C1684 C1683 1.373 . S
C1685 C1669 1.377 . S
C1685 C1683 1.389 1_655 S
C1685 C1686 1.524 . S
C1686 C1685 1.524 . S
C1686 C1687 1.397 . S
C1686 C1691 1.363 . S
C1687 H1658 0.950 . S
C1687 C1686 1.397 . S
C1687 C1688 1.334 . S
C1688 H1659 0.950 . S
C1688 C1687 1.334 . S
C1688 C1689 1.287 . S
C1689 C1688 1.287 . S
C1689 C1690 1.524 . S
C1689 H1692 0.999 . S
C1690 H1660 0.950 . S
C1690 C1689 1.524 . S
C1690 C1691 1.415 . S
C1691 H1661 0.950 . S
C1691 C1686 1.363 . S
C1691 C1690 1.415 . S
H1692 C1689 0.999 . S
H1693 C1674 0.913 . S
H1694 C1712 0.951 . S
H1695 C1714 0.951 . S
H1696 C1716 0.950 . S
H1697 C1717 0.950 . S
H1698 C1719 0.950 . S
H1699 C1722 0.950 . S
H1700 C1723 0.950 . S
H1701 C1725 0.950 . S
H1702 C1726 0.950 . S
H1703 C1727 0.951 . S
H1704 C1729 0.951 . S
H1705 C1731 0.950 . S
H1706 C1732 0.950 . S
H1707 C1734 0.950 . S
H1708 C1737 0.950 . S
H1709 C1738 0.950 . S
H1710 C1740 0.950 . S
H1711 C1741 0.950 . S
C1712 H1694 0.951 . S
C1712 C1713 1.366 . S
C1712 C1714 1.388 . S
C1713 C1712 1.366 . S
C1713 C1717 1.385 . S
C1714 H1695 0.951 . S
C1714 C1712 1.388 . S
C1714 C1715 1.366 . S
C1715 C1714 1.366 . S
C1715 C1716 1.414 . S
C1715 C1718 1.499 . S
C1716 H1696 0.950 . S
C1716 C1715 1.414 . S
C1716 C1717 1.374 . S
C1717 H1697 0.950 . S
C1717 C1713 1.385 . S
C1717 C1716 1.374 . S
C1718 C1715 1.499 . S
C1718 C1719 1.373 . S
C1718 C1720 1.389 . S
C1719 H1698 0.950 . S
C1719 C1718 1.373 . S
C1719 C1735 1.377 1_455 S
C1720 C1718 1.389 . S
C1720 C1721 1.524 . S
C1720 C1734 1.377 1_455 S
C1721 C1720 1.524 . S
C1721 C1722 1.397 . S
C1721 C1726 1.363 . S
C1722 H1699 0.950 . S
C1722 C1721 1.397 . S
C1722 C1723 1.334 . S
C1723 H1700 0.950 . S
C1723 C1722 1.334 . S
C1723 C1724 1.287 . S
C1724 C1723 1.287 . S
C1724 C1725 1.524 . S
C1724 H1743 0.913 . S
C1725 H1701 0.950 . S
C1725 C1724 1.524 . S
C1725 C1726 1.415 . S
C1726 H1702 0.950 . S
C1726 C1721 1.363 . S
C1726 C1725 1.415 . S
C1727 H1703 0.951 . S
C1727 C1728 1.366 . S
C1727 C1729 1.388 . S
C1728 C1727 1.366 . S
C1728 C1732 1.385 . S
C1729 H1704 0.951 . S
C1729 C1727 1.388 . S
C1729 C1730 1.366 . S
C1730 C1729 1.366 . S
C1730 C1731 1.414 . S
C1730 C1733 1.499 . S
C1731 H1705 0.950 . S
C1731 C1730 1.414 . S
C1731 C1732 1.374 . S
C1732 H1706 0.950 . S
C1732 C1728 1.385 . S
C1732 C1731 1.374 . S
C1733 C1730 1.499 . S
C1733 C1734 1.373 . S
C1733 C1735 1.389 . S
C1734 H1707 0.950 . S
C1734 C1720 1.377 1_655 S
C1734 C1733 1.373 . S
C1735 C1719 1.377 1_655 S
C1735 C1733 1.389 . S
C1735 C1736 1.524 . S
C1736 C1735 1.524 . S
C1736 C1737 1.397 . S
C1736 C1741 1.363 . S
C1737 H1708 0.950 . S
C1737 C1736 1.397 . S
C1737 C1738 1.334 . S
C1738 H1709 0.950 . S
C1738 C1737 1.334 . S
C1738 C1739 1.287 . S
C1739 C1738 1.287 . S
C1739 C1740 1.524 . S
C1739 H1742 0.999 . S
C1740 H1710 0.950 . S
C1740 C1739 1.524 . S
C1740 C1741 1.415 . S
C1741 H1711 0.950 . S
C1741 C1736 1.363 . S
C1741 C1740 1.415 . S
H1742 C1739 0.999 . S
H1743 C1724 0.913 . S
H1744 C1762 0.951 . S
H1745 C1764 0.951 . S
H1746 C1766 0.950 . S
H1747 C1767 0.950 . S
H1748 C1769 0.950 . S
H1749 C1772 0.950 . S
H1750 C1773 0.950 . S
H1751 C1775 0.908 1_554 S
H1752 C1776 0.950 . S
H1753 C1777 0.951 . S
H1754 C1779 0.951 . S
H1755 C1781 0.950 1_554 S
H1756 C1782 0.950 . S
H1757 C1784 0.950 . S
H1758 C1787 0.950 . S
H1759 C1788 0.950 . S
H1760 C1790 0.950 . S
H1761 C1791 0.950 . S
C1762 H1744 0.951 . S
C1762 C1763 1.366 . S
C1762 C1764 1.388 . S
C1763 C1762 1.366 . S
C1763 C1767 1.385 . S
C1764 H1745 0.951 . S
C1764 C1762 1.388 . S
C1764 C1765 1.366 . S
C1765 C1764 1.366 . S
C1765 C1766 1.414 . S
C1765 C1768 1.499 . S
C1766 H1746 0.950 . S
C1766 C1765 1.414 . S
C1766 C1767 1.374 . S
C1767 H1747 0.950 . S
C1767 C1763 1.385 . S
C1767 C1766 1.374 . S
C1768 C1765 1.499 . S
C1768 C1769 1.373 . S
C1768 C1770 1.389 . S
C1769 H1748 0.950 . S
C1769 C1768 1.373 . S
C1769 C1785 1.377 . S
C1770 C1768 1.389 . S
C1770 C1771 1.524 . S
C1770 C1784 1.377 . S
C1771 C1770 1.524 . S
C1771 C1772 1.397 . S
C1771 C1776 1.363 . S
C1772 H1749 0.950 . S
C1772 C1771 1.397 . S
C1772 C1773 1.334 . S
C1773 H1750 0.950 . S
C1773 C1772 1.334 . S
C1773 C1774 1.287 . S
C1774 C1773 1.287 . S
C1774 C1775 1.524 . S
C1774 H1793 0.913 . S
C1775 H1751 0.908 1_556 S
C1775 C1774 1.524 . S
C1775 C1776 1.415 . S
C1776 H1752 0.950 . S
C1776 C1771 1.363 . S
C1776 C1775 1.415 . S
C1777 H1753 0.951 . S
C1777 C1778 1.371 1_556 S
C1777 C1779 1.388 . S
C1778 C1777 1.371 1_554 S
C1778 C1782 1.382 . S
C1779 H1754 0.951 . S
C1779 C1777 1.388 . S
C1779 C1780 1.366 . S
C1780 C1779 1.366 . S
C1780 C1781 1.414 . S
C1780 C1783 1.499 . S
C1781 H1755 0.950 1_556 S
C1781 C1780 1.414 . S
C1781 C1782 1.374 1_556 S
C1782 H1756 0.950 . S
C1782 C1778 1.382 . S
C1782 C1781 1.374 1_554 S
C1783 C1780 1.499 . S
C1783 C1784 1.373 . S
C1783 C1785 1.389 . S
C1784 H1757 0.950 . S
C1784 C1770 1.377 . S
C1784 C1783 1.373 . S
C1785 C1769 1.377 . S
C1785 C1783 1.389 . S
C1785 C1786 1.524 . S
C1786 C1785 1.524 . S
C1786 C1787 1.397 . S
C1786 C1791 1.363 . S
C1787 H1758 0.950 . S
C1787 C1786 1.397 . S
C1787 C1788 1.334 . S
C1788 H1759 0.950 . S
C1788 C1787 1.334 . S
C1788 C1789 1.287 . S
C1789 C1788 1.287 . S
C1789 C1790 1.524 . S
C1789 H1792 0.999 . S
C1790 H1760 0.950 . S
C1790 C1789 1.524 . S
C1790 C1791 1.415 . S
C1791 H1761 0.950 . S
C1791 C1786 1.363 . S
C1791 C1790 1.415 . S
H1792 C1789 0.999 . S
H1793 C1774 0.913 . S
H1794 C1812 0.951 . S
H1795 C1814 0.951 . S
H1796 C1816 0.950 . S
H1797 C1817 0.950 . S
H1798 C1819 0.950 . S
H1799 C1822 0.950 . S
H1800 C1823 0.950 . S
H1801 C1825 0.950 . S
H1802 C1826 0.950 . S
H1803 C1827 0.951 . S
H1804 C1829 0.951 . S
H1805 C1831 0.950 . S
H1806 C1832 0.950 . S
H1807 C1834 0.950 . S
H1808 C1837 0.950 . S
H1809 C1838 0.950 . S
H1810 C1840 0.950 . S
H1811 C1841 0.950 . S
C1812 H1794 0.951 . S
C1812 C1813 1.366 . S
C1812 C1814 1.388 . S
C1813 C1812 1.366 . S
C1813 C1817 1.385 . S
C1814 H1795 0.951 . S
C1814 C1812 1.388 . S
C1814 C1815 1.366 . S
C1815 C1814 1.366 . S
C1815 C1816 1.414 . S
C1815 C1818 1.499 . S
C1816 H1796 0.950 . S
C1816 C1815 1.414 . S
C1816 C1817 1.374 . S
C1817 H1797 0.950 . S
C1817 C1813 1.385 . S
C1817 C1816 1.374 . S
C1818 C1815 1.499 . S
C1818 C1819 1.373 . S
C1818 C1820 1.389 . S
C1819 H1798 0.950 . S
C1819 C1818 1.373 . S
C1819 C1835 1.377 . S
C1820 C1818 1.389 . S
C1820 C1821 1.524 . S
C1820 C1834 1.377 . S
C1821 C1820 1.524 . S
C1821 C1822 1.397 . S
C1821 C1826 1.363 . S
C1822 H1799 0.950 . S
C1822 C1821 1.397 . S
C1822 C1823 1.334 . S
C1823 H1800 0.950 . S
C1823 C1822 1.334 . S
C1823 C1824 1.287 . S
C1824 C1823 1.287 . S
C1824 C1825 1.524 . S
C1824 H1843 0.913 . S
C1825 H1801 0.950 . S
C1825 C1824 1.524 . S
C1825 C1826 1.415 . S
C1826 H1802 0.950 . S
C1826 C1821 1.363 . S
C1826 C1825 1.415 . S
C1827 H1803 0.951 . S
C1827 C1828 1.366 . S
C1827 C1829 1.388 . S
C1828 C1827 1.366 . S
C1828 C1832 1.385 . S
C1829 H1804 0.951 . S
C1829 C1827 1.388 . S
C1829 C1830 1.366 . S
C1830 C1829 1.366 . S
C1830 C1831 1.414 . S
C1830 C1833 1.499 . S
C1831 H1805 0.950 . S
C1831 C1830 1.414 . S
C1831 C1832 1.374 . S
C1832 H1806 0.950 . S
C1832 C1828 1.385 . S
C1832 C1831 1.374 . S
C1833 C1830 1.499 . S
C1833 C1834 1.373 . S
C1833 C1835 1.389 . S
C1834 H1807 0.950 . S
C1834 C1820 1.377 . S
C1834 C1833 1.373 . S
C1835 C1819 1.377 . S
C1835 C1833 1.389 . S
C1835 C1836 1.524 . S
C1836 C1835 1.524 . S
C1836 C1837 1.397 . S
C1836 C1841 1.363 . S
C1837 H1808 0.950 . S
C1837 C1836 1.397 . S
C1837 C1838 1.334 . S
C1838 H1809 0.950 . S
C1838 C1837 1.334 . S
C1838 C1839 1.287 . S
C1839 C1838 1.287 . S
C1839 C1840 1.524 . S
C1839 H1842 0.999 . S
C1840 H1810 0.950 . S
C1840 C1839 1.524 . S
C1840 C1841 1.415 . S
C1841 H1811 0.950 . S
C1841 C1836 1.363 . S
C1841 C1840 1.415 . S
H1842 C1839 0.999 . S
H1843 C1824 0.913 . S
H1844 C1862 0.951 . S
H1845 C1864 0.951 . S
H1846 C1866 0.950 . S
H1847 C1867 0.950 . S
H1848 C1869 0.950 . S
H1849 C1872 0.950 . S
H1850 C1873 0.950 . S
H1851 C1875 0.950 . S
H1852 C1876 0.950 . S
H1853 C1877 0.951 . S
H1854 C1879 0.951 . S
H1855 C1881 0.950 . S
H1856 C1882 0.950 . S
H1857 C1884 0.950 . S
H1858 C1887 0.950 . S
H1859 C1888 0.950 . S
H1860 C1890 0.950 . S
H1861 C1891 0.950 . S
C1862 H1844 0.951 . S
C1862 C1863 1.366 . S
C1862 C1864 1.388 . S
C1863 C1862 1.366 . S
C1863 C1867 1.385 . S
C1864 H1845 0.951 . S
C1864 C1862 1.388 . S
C1864 C1865 1.366 . S
C1865 C1864 1.366 . S
C1865 C1866 1.414 . S
C1865 C1868 1.499 . S
C1866 H1846 0.950 . S
C1866 C1865 1.414 . S
C1866 C1867 1.374 . S
C1867 H1847 0.950 . S
C1867 C1863 1.385 . S
C1867 C1866 1.374 . S
C1868 C1865 1.499 . S
C1868 C1869 1.373 . S
C1868 C1870 1.389 . S
C1869 H1848 0.950 . S
C1869 C1868 1.373 . S
C1869 C1885 1.377 . S
C1870 C1868 1.389 . S
C1870 C1871 1.524 . S
C1870 C1884 1.377 . S
C1871 C1870 1.524 . S
C1871 C1872 1.397 . S
C1871 C1876 1.363 . S
C1872 H1849 0.950 . S
C1872 C1871 1.397 . S
C1872 C1873 1.334 . S
C1873 H1850 0.950 . S
C1873 C1872 1.334 . S
C1873 C1874 1.287 . S
C1874 C1873 1.287 . S
C1874 C1875 1.524 . S
C1874 H1893 0.913 . S
C1875 H1851 0.950 . S
C1875 C1874 1.524 . S
C1875 C1876 1.415 . S
C1876 H1852 0.950 . S
C1876 C1871 1.363 . S
C1876 C1875 1.415 . S
C1877 H1853 0.951 . S
C1877 C1878 1.366 . S
C1877 C1879 1.388 . S
C1878 C1877 1.366 . S
C1878 C1882 1.385 . S
C1879 H1854 0.951 . S
C1879 C1877 1.388 . S
C1879 C1880 1.366 . S
C1880 C1879 1.366 . S
C1880 C1881 1.414 . S
C1880 C1883 1.499 . S
C1881 H1855 0.950 . S
C1881 C1880 1.414 . S
C1881 C1882 1.374 . S
C1882 H1856 0.950 . S
C1882 C1878 1.385 . S
C1882 C1881 1.374 . S
C1883 C1880 1.499 . S
C1883 C1884 1.373 . S
C1883 C1885 1.389 . S
C1884 H1857 0.950 . S
C1884 C1870 1.377 . S
C1884 C1883 1.373 . S
C1885 C1869 1.377 . S
C1885 C1883 1.389 . S
C1885 C1886 1.524 . S
C1886 C1885 1.524 . S
C1886 C1887 1.397 . S
C1886 C1891 1.363 . S
C1887 H1858 0.950 . S
C1887 C1886 1.397 . S
C1887 C1888 1.334 . S
C1888 H1859 0.950 . S
C1888 C1887 1.334 . S
C1888 C1889 1.287 . S
C1889 C1888 1.287 . S
C1889 C1890 1.524 . S
C1889 H1892 0.999 . S
C1890 H1860 0.950 . S
C1890 C1889 1.524 . S
C1890 C1891 1.415 . S
C1891 H1861 0.950 . S
C1891 C1886 1.363 . S
C1891 C1890 1.415 . S
H1892 C1889 0.999 . S
H1893 C1874 0.913 . S
H1894 C1912 0.951 . S
H1895 C1914 0.951 . S
H1896 C1916 0.950 . S
H1897 C1917 0.950 . S
H1898 C1919 0.950 . S
H1899 C1922 0.950 . S
H1900 C1923 0.950 . S
H1901 C1925 0.950 . S
H1902 C1926 0.950 . S
H1903 C1927 0.951 . S
H1904 C1929 0.951 . S
H1905 C1931 0.950 . S
H1906 C1932 0.950 . S
H1907 C1934 0.950 . S
H1908 C1937 0.950 . S
H1909 C1938 0.950 . S
H1910 C1940 0.950 . S
H1911 C1941 0.950 . S
C1912 H1894 0.951 . S
C1912 C1913 1.366 . S
C1912 C1914 1.388 . S
C1913 C1912 1.366 . S
C1913 C1917 1.385 . S
C1914 H1895 0.951 . S
C1914 C1912 1.388 . S
C1914 C1915 1.366 . S
C1915 C1914 1.366 . S
C1915 C1916 1.414 . S
C1915 C1918 1.499 . S
C1916 H1896 0.950 . S
C1916 C1915 1.414 . S
C1916 C1917 1.374 . S
C1917 H1897 0.950 . S
C1917 C1913 1.385 . S
C1917 C1916 1.374 . S
C1918 C1915 1.499 . S
C1918 C1919 1.373 . S
C1918 C1920 1.389 . S
C1919 H1898 0.950 . S
C1919 C1918 1.373 . S
C1919 C1935 1.377 . S
C1920 C1918 1.389 . S
C1920 C1921 1.524 . S
C1920 C1934 1.377 . S
C1921 C1920 1.524 . S
C1921 C1922 1.397 . S
C1921 C1926 1.363 . S
C1922 H1899 0.950 . S
C1922 C1921 1.397 . S
C1922 C1923 1.334 . S
C1923 H1900 0.950 . S
C1923 C1922 1.334 . S
C1923 C1924 1.287 . S
C1924 C1923 1.287 . S
C1924 C1925 1.524 . S
C1924 H1943 0.913 . S
C1925 H1901 0.950 . S
C1925 C1924 1.524 . S
C1925 C1926 1.415 . S
C1926 H1902 0.950 . S
C1926 C1921 1.363 . S
C1926 C1925 1.415 . S
C1927 H1903 0.951 . S
C1927 C1928 1.366 . S
C1927 C1929 1.388 . S
C1928 C1927 1.366 . S
C1928 C1932 1.385 . S
C1929 H1904 0.951 . S
C1929 C1927 1.388 . S
C1929 C1930 1.366 . S
C1930 C1929 1.366 . S
C1930 C1931 1.414 . S
C1930 C1933 1.499 . S
C1931 H1905 0.950 . S
C1931 C1930 1.414 . S
C1931 C1932 1.374 . S
C1932 H1906 0.950 . S
C1932 C1928 1.385 . S
C1932 C1931 1.374 . S
C1933 C1930 1.499 . S
C1933 C1934 1.373 . S
C1933 C1935 1.389 . S
C1934 H1907 0.950 . S
C1934 C1920 1.377 . S
C1934 C1933 1.373 . S
C1935 C1919 1.377 . S
C1935 C1933 1.389 . S
C1935 C1936 1.524 . S
C1936 C1935 1.524 . S
C1936 C1937 1.397 . S
C1936 C1941 1.363 . S
C1937 H1908 0.950 . S
C1937 C1936 1.397 . S
C1937 C1938 1.334 . S
C1938 H1909 0.950 . S
C1938 C1937 1.334 . S
C1938 C1939 1.287 . S
C1939 C1938 1.287 . S
C1939 C1940 1.524 . S
C1939 H1942 0.999 . S
C1940 H1910 0.950 . S
C1940 C1939 1.524 . S
C1940 C1941 1.415 . S
C1941 H1911 0.950 . S
C1941 C1936 1.363 . S
C1941 C1940 1.415 . S
H1942 C1939 0.999 . S
H1943 C1924 0.913 . S
H1944 C1962 0.951 . S
H1945 C1964 0.951 . S
H1946 C1966 0.950 1_556 S
H1947 C1967 0.950 . S
H1948 C1969 0.950 . S
H1949 C1972 0.950 . S
H1950 C1973 0.950 . S
H1951 C1975 0.950 . S
H1952 C1976 0.950 . S
H1953 C1977 0.951 . S
H1954 C1979 0.951 . S
H1955 C1981 0.950 . S
H1956 C1982 0.950 . S
H1957 C1984 0.950 . S
H1958 C1987 0.950 . S
H1959 C1988 0.950 . S
H1960 C1990 0.950 . S
H1961 C1991 0.950 . S
C1962 H1944 0.951 . S
C1962 C1963 1.371 1_554 S
C1962 C1964 1.388 . S
C1963 C1962 1.371 1_556 S
C1963 C1967 1.382 . S
C1964 H1945 0.951 . S
C1964 C1962 1.388 . S
C1964 C1965 1.366 . S
C1965 C1964 1.366 . S
C1965 C1966 1.414 . S
C1965 C1968 1.499 . S
C1966 H1946 0.950 1_554 S
C1966 C1965 1.414 . S
C1966 C1967 1.374 1_554 S
C1967 H1947 0.950 . S
C1967 C1963 1.382 . S
C1967 C1966 1.374 1_556 S
C1968 C1965 1.499 . S
C1968 C1969 1.373 . S
C1968 C1970 1.389 . S
C1969 H1948 0.950 . S
C1969 C1968 1.373 . S
C1969 C1985 1.377 . S
C1970 C1968 1.389 . S
C1970 C1971 1.524 . S
C1970 C1984 1.377 . S
C1971 C1970 1.524 . S
C1971 C1972 1.397 . S
C1971 C1976 1.363 . S
C1972 H1949 0.950 . S
C1972 C1971 1.397 . S
C1972 C1973 1.334 . S
C1973 H1950 0.950 . S
C1973 C1972 1.334 . S
C1973 C1974 1.287 . S
C1974 C1973 1.287 . S
C1974 C1975 1.524 . S
C1974 H1993 0.913 . S
C1975 H1951 0.950 . S
C1975 C1974 1.524 . S
C1975 C1976 1.415 . S
C1976 H1952 0.950 . S
C1976 C1971 1.363 . S
C1976 C1975 1.415 . S
C1977 H1953 0.951 . S
C1977 C1978 1.366 . S
C1977 C1979 1.388 . S
C1978 C1977 1.366 . S
C1978 C1982 1.385 . S
C1979 H1954 0.951 . S
C1979 C1977 1.388 . S
C1979 C1980 1.366 . S
C1980 C1979 1.366 . S
C1980 C1981 1.414 . S
C1980 C1983 1.499 . S
C1981 H1955 0.950 . S
C1981 C1980 1.414 . S
C1981 C1982 1.374 . S
C1982 H1956 0.950 . S
C1982 C1978 1.385 . S
C1982 C1981 1.374 . S
C1983 C1980 1.499 . S
C1983 C1984 1.373 . S
C1983 C1985 1.389 . S
C1984 H1957 0.950 . S
C1984 C1970 1.377 . S
C1984 C1983 1.373 . S
C1985 C1969 1.377 . S
C1985 C1983 1.389 . S
C1985 C1986 1.524 . S
C1986 C1985 1.524 . S
C1986 C1987 1.397 . S
C1986 C1991 1.363 . S
C1987 H1958 0.950 . S
C1987 C1986 1.397 . S
C1987 C1988 1.334 . S
C1988 H1959 0.950 . S
C1988 C1987 1.334 . S
C1988 C1989 1.287 . S
C1989 C1988 1.287 . S
C1989 C1990 1.524 . S
C1989 H1992 0.999 . S
C1990 H1960 0.950 . S
C1990 C1989 1.524 . S
C1990 C1991 1.415 . S
C1991 H1961 0.950 . S
C1991 C1986 1.363 . S
C1991 C1990 1.415 . S
H1992 C1989 0.999 . S
H1993 C1974 0.913 . S
H1994 C2012 0.951 . S
H1995 C2014 0.951 . S
H1996 C2016 0.950 . S
H1997 C2017 0.950 . S
H1998 C2019 0.950 . S
H1999 C2022 0.950 . S
H2000 C2023 0.950 . S
H2001 C2025 0.950 . S
H2002 C2026 0.950 . S
H2003 C2027 0.951 . S
H2004 C2029 0.951 . S
H2005 C2031 0.950 . S
H2006 C2032 0.950 . S
H2007 C2034 0.950 . S
H2008 C2037 0.950 . S
H2009 C2038 0.950 . S
H2010 C2040 0.950 . S
H2011 C2041 0.950 . S
C2012 H1994 0.951 . S
C2012 C2013 1.366 . S
C2012 C2014 1.388 . S
C2013 C2012 1.366 . S
C2013 C2017 1.385 . S
C2014 H1995 0.951 . S
C2014 C2012 1.388 . S
C2014 C2015 1.366 . S
C2015 C2014 1.366 . S
C2015 C2016 1.414 . S
C2015 C2018 1.499 . S
C2016 H1996 0.950 . S
C2016 C2015 1.414 . S
C2016 C2017 1.374 . S
C2017 H1997 0.950 . S
C2017 C2013 1.385 . S
C2017 C2016 1.374 . S
C2018 C2015 1.499 . S
C2018 C2019 1.373 . S
C2018 C2020 1.389 . S
C2019 H1998 0.950 . S
C2019 C2018 1.373 . S
C2019 C2035 1.377 . S
C2020 C2018 1.389 . S
C2020 C2021 1.524 . S
C2020 C2034 1.377 . S
C2021 C2020 1.524 . S
C2021 C2022 1.397 . S
C2021 C2026 1.363 . S
C2022 H1999 0.950 . S
C2022 C2021 1.397 . S
C2022 C2023 1.334 . S
C2023 H2000 0.950 . S
C2023 C2022 1.334 . S
C2023 C2024 1.287 . S
C2024 C2023 1.287 . S
C2024 C2025 1.524 . S
C2024 H2043 0.913 . S
C2025 H2001 0.950 . S
C2025 C2024 1.524 . S
C2025 C2026 1.415 . S
C2026 H2002 0.950 . S
C2026 C2021 1.363 . S
C2026 C2025 1.415 . S
C2027 H2003 0.951 . S
C2027 C2028 1.366 . S
C2027 C2029 1.388 . S
C2028 C2027 1.366 . S
C2028 C2032 1.385 . S
C2029 H2004 0.951 . S
C2029 C2027 1.388 . S
C2029 C2030 1.366 . S
C2030 C2029 1.366 . S
C2030 C2031 1.414 . S
C2030 C2033 1.499 . S
C2031 H2005 0.950 . S
C2031 C2030 1.414 . S
C2031 C2032 1.374 . S
C2032 H2006 0.950 . S
C2032 C2028 1.385 . S
C2032 C2031 1.374 . S
C2033 C2030 1.499 . S
C2033 C2034 1.373 . S
C2033 C2035 1.389 . S
C2034 H2007 0.950 . S
C2034 C2020 1.377 . S
C2034 C2033 1.373 . S
C2035 C2019 1.377 . S
C2035 C2033 1.389 . S
C2035 C2036 1.524 . S
C2036 C2035 1.524 . S
C2036 C2037 1.397 . S
C2036 C2041 1.363 . S
C2037 H2008 0.950 . S
C2037 C2036 1.397 . S
C2037 C2038 1.334 . S
C2038 H2009 0.950 . S
C2038 C2037 1.334 . S
C2038 C2039 1.287 . S
C2039 C2038 1.287 . S
C2039 C2040 1.524 . S
C2039 H2042 0.999 . S
C2040 H2010 0.950 . S
C2040 C2039 1.524 . S
C2040 C2041 1.415 . S
C2041 H2011 0.950 . S
C2041 C2036 1.363 . S
C2041 C2040 1.415 . S
H2042 C2039 0.999 . S
H2043 C2024 0.913 . S
H2044 C2062 0.951 . S
H2045 C2064 0.951 . S
H2046 C2066 0.950 . S
H2047 C2067 0.950 . S
H2048 C2069 0.950 . S
H2049 C2072 0.950 . S
H2050 C2073 0.950 . S
H2051 C2075 0.950 . S
H2052 C2076 0.950 . S
H2053 C2077 0.951 . S
H2054 C2079 0.951 . S
H2055 C2081 0.950 . S
H2056 C2082 0.950 . S
H2057 C2084 0.950 . S
H2058 C2087 0.950 . S
H2059 C2088 0.950 . S
H2060 C2090 0.950 . S
H2061 C2091 0.950 . S
C2062 H2044 0.951 . S
C2062 C2063 1.366 . S
C2062 C2064 1.388 . S
C2063 C2062 1.366 . S
C2063 C2067 1.385 . S
C2064 H2045 0.951 . S
C2064 C2062 1.388 . S
C2064 C2065 1.366 . S
C2065 C2064 1.366 . S
C2065 C2066 1.414 . S
C2065 C2068 1.499 . S
C2066 H2046 0.950 . S
C2066 C2065 1.414 . S
C2066 C2067 1.374 . S
C2067 H2047 0.950 . S
C2067 C2063 1.385 . S
C2067 C2066 1.374 . S
C2068 C2065 1.499 . S
C2068 C2069 1.373 . S
C2068 C2070 1.389 . S
C2069 H2048 0.950 . S
C2069 C2068 1.373 . S
C2069 C2085 1.377 . S
C2070 C2068 1.389 . S
C2070 C2071 1.524 . S
C2070 C2084 1.377 . S
C2071 C2070 1.524 . S
C2071 C2072 1.397 . S
C2071 C2076 1.363 . S
C2072 H2049 0.950 . S
C2072 C2071 1.397 . S
C2072 C2073 1.334 . S
C2073 H2050 0.950 . S
C2073 C2072 1.334 . S
C2073 C2074 1.287 . S
C2074 C2073 1.287 . S
C2074 C2075 1.524 . S
C2074 H2093 0.913 . S
C2075 H2051 0.950 . S
C2075 C2074 1.524 . S
C2075 C2076 1.415 . S
C2076 H2052 0.950 . S
C2076 C2071 1.363 . S
C2076 C2075 1.415 . S
C2077 H2053 0.951 . S
C2077 C2078 1.366 . S
C2077 C2079 1.388 . S
C2078 C2077 1.366 . S
C2078 C2082 1.385 . S
C2079 H2054 0.951 . S
C2079 C2077 1.388 . S
C2079 C2080 1.366 . S
C2080 C2079 1.366 . S
C2080 C2081 1.414 . S
C2080 C2083 1.499 . S
C2081 H2055 0.950 . S
C2081 C2080 1.414 . S
C2081 C2082 1.374 . S
C2082 H2056 0.950 . S
C2082 C2078 1.385 . S
C2082 C2081 1.374 . S
C2083 C2080 1.499 . S
C2083 C2084 1.373 . S
C2083 C2085 1.389 . S
C2084 H2057 0.950 . S
C2084 C2070 1.377 . S
C2084 C2083 1.373 . S
C2085 C2069 1.377 . S
C2085 C2083 1.389 . S
C2085 C2086 1.524 . S
C2086 C2085 1.524 . S
C2086 C2087 1.397 . S
C2086 C2091 1.363 . S
C2087 H2058 0.950 . S
C2087 C2086 1.397 . S
C2087 C2088 1.334 . S
C2088 H2059 0.950 . S
C2088 C2087 1.334 . S
C2088 C2089 1.287 . S
C2089 C2088 1.287 . S
C2089 C2090 1.524 . S
C2089 H2092 0.999 . S
C2090 H2060 0.950 . S
C2090 C2089 1.524 . S
C2090 C2091 1.415 . S
C2091 H2061 0.950 . S
C2091 C2086 1.363 . S
C2091 C2090 1.415 . S
H2092 C2089 0.999 . S
H2093 C2074 0.913 . S
H2094 C2112 0.951 . S
H2095 C2114 0.951 . S
H2096 C2116 0.950 . S
H2097 C2117 0.950 . S
H2098 C2119 0.950 . S
H2099 C2122 0.950 . S
H2100 C2123 0.950 . S
H2101 C2125 0.950 . S
H2102 C2126 0.950 . S
H2103 C2127 0.951 . S
H2104 C2129 0.951 . S
H2105 C2131 0.950 . S
H2106 C2132 0.950 . S
H2107 C2134 0.950 . S
H2108 C2137 0.950 . S
H2109 C2138 0.950 . S
H2110 C2140 0.950 . S
H2111 C2141 0.950 . S
C2112 H2094 0.951 . S
C2112 C2113 1.366 . S
C2112 C2114 1.388 . S
C2113 C2112 1.366 . S
C2113 C2117 1.385 . S
C2114 H2095 0.951 . S
C2114 C2112 1.388 . S
C2114 C2115 1.366 . S
C2115 C2114 1.366 . S
C2115 C2116 1.414 . S
C2115 C2118 1.499 . S
C2116 H2096 0.950 . S
C2116 C2115 1.414 . S
C2116 C2117 1.374 . S
C2117 H2097 0.950 . S
C2117 C2113 1.385 . S
C2117 C2116 1.374 . S
C2118 C2115 1.499 . S
C2118 C2119 1.373 . S
C2118 C2120 1.389 . S
C2119 H2098 0.950 . S
C2119 C2118 1.373 . S
C2119 C2135 1.377 . S
C2120 C2118 1.389 . S
C2120 C2121 1.524 . S
C2120 C2134 1.377 . S
C2121 C2120 1.524 . S
C2121 C2122 1.397 . S
C2121 C2126 1.363 . S
C2122 H2099 0.950 . S
C2122 C2121 1.397 . S
C2122 C2123 1.334 . S
C2123 H2100 0.950 . S
C2123 C2122 1.334 . S
C2123 C2124 1.287 . S
C2124 C2123 1.287 . S
C2124 C2125 1.524 . S
C2124 H2143 0.913 . S
C2125 H2101 0.950 . S
C2125 C2124 1.524 . S
C2125 C2126 1.415 . S
C2126 H2102 0.950 . S
C2126 C2121 1.363 . S
C2126 C2125 1.415 . S
C2127 H2103 0.951 . S
C2127 C2128 1.366 . S
C2127 C2129 1.388 . S
C2128 C2127 1.366 . S
C2128 C2132 1.385 . S
C2129 H2104 0.951 . S
C2129 C2127 1.388 . S
C2129 C2130 1.366 . S
C2130 C2129 1.366 . S
C2130 C2131 1.414 . S
C2130 C2133 1.499 . S
C2131 H2105 0.950 . S
C2131 C2130 1.414 . S
C2131 C2132 1.374 . S
C2132 H2106 0.950 . S
C2132 C2128 1.385 . S
C2132 C2131 1.374 . S
C2133 C2130 1.499 . S
C2133 C2134 1.373 . S
C2133 C2135 1.389 . S
C2134 H2107 0.950 . S
C2134 C2120 1.377 . S
C2134 C2133 1.373 . S
C2135 C2119 1.377 . S
C2135 C2133 1.389 . S
C2135 C2136 1.524 . S
C2136 C2135 1.524 . S
C2136 C2137 1.397 . S
C2136 C2141 1.363 . S
C2137 H2108 0.950 . S
C2137 C2136 1.397 . S
C2137 C2138 1.334 . S
C2138 H2109 0.950 . S
C2138 C2137 1.334 . S
C2138 C2139 1.287 . S
C2139 C2138 1.287 . S
C2139 C2140 1.524 . S
C2139 H2142 0.999 . S
C2140 H2110 0.950 . S
C2140 C2139 1.524 . S
C2140 C2141 1.415 . S
C2141 H2111 0.950 . S
C2141 C2136 1.363 . S
C2141 C2140 1.415 . S
H2142 C2139 0.999 . S
H2143 C2124 0.913 . S
H2144 C2162 0.951 . S
H2145 C2164 0.951 . S
H2146 C2166 0.950 . S
H2147 C2167 0.950 . S
H2148 C2169 0.950 . S
H2149 C2172 0.950 . S
H2150 C2173 0.950 . S
H2151 C2175 0.950 . S
H2152 C2176 0.950 . S
H2153 C2177 0.951 . S
H2154 C2179 0.951 . S
H2155 C2181 0.950 . S
H2156 C2182 0.950 . S
H2157 C2184 0.950 . S
H2158 C2187 0.950 . S
H2159 C2188 0.950 . S
H2160 C2190 0.950 . S
H2161 C2191 0.950 . S
C2162 H2144 0.951 . S
C2162 C2163 1.366 . S
C2162 C2164 1.388 . S
C2163 C2162 1.366 . S
C2163 C2167 1.385 . S
C2164 H2145 0.951 . S
C2164 C2162 1.388 . S
C2164 C2165 1.366 . S
C2165 C2164 1.366 . S
C2165 C2166 1.414 . S
C2165 C2168 1.499 . S
C2166 H2146 0.950 . S
C2166 C2165 1.414 . S
C2166 C2167 1.374 . S
C2167 H2147 0.950 . S
C2167 C2163 1.385 . S
C2167 C2166 1.374 . S
C2168 C2165 1.499 . S
C2168 C2169 1.373 . S
C2168 C2170 1.389 . S
C2169 H2148 0.950 . S
C2169 C2168 1.373 . S
C2169 C2185 1.377 . S
C2170 C2168 1.389 . S
C2170 C2171 1.524 . S
C2170 C2184 1.377 . S
C2171 C2170 1.524 . S
C2171 C2172 1.397 . S
C2171 C2176 1.363 . S
C2172 H2149 0.950 . S
C2172 C2171 1.397 . S
C2172 C2173 1.334 . S
C2173 H2150 0.950 . S
C2173 C2172 1.334 . S
C2173 C2174 1.287 . S
C2174 C2173 1.287 . S
C2174 C2175 1.524 . S
C2174 H2193 0.913 . S
C2175 H2151 0.950 . S
C2175 C2174 1.524 . S
C2175 C2176 1.415 . S
C2176 H2152 0.950 . S
C2176 C2171 1.363 . S
C2176 C2175 1.415 . S
C2177 H2153 0.951 . S
C2177 C2178 1.366 . S
C2177 C2179 1.388 . S
C2178 C2177 1.366 . S
C2178 C2182 1.385 . S
C2179 H2154 0.951 . S
C2179 C2177 1.388 . S
C2179 C2180 1.366 . S
C2180 C2179 1.366 . S
C2180 C2181 1.414 . S
C2180 C2183 1.499 . S
C2181 H2155 0.950 . S
C2181 C2180 1.414 . S
C2181 C2182 1.374 . S
C2182 H2156 0.950 . S
C2182 C2178 1.385 . S
C2182 C2181 1.374 . S
C2183 C2180 1.499 . S
C2183 C2184 1.373 . S
C2183 C2185 1.389 . S
C2184 H2157 0.950 . S
C2184 C2170 1.377 . S
C2184 C2183 1.373 . S
C2185 C2169 1.377 . S
C2185 C2183 1.389 . S
C2185 C2186 1.524 . S
C2186 C2185 1.524 . S
C2186 C2187 1.397 . S
C2186 C2191 1.363 . S
C2187 H2158 0.950 . S
C2187 C2186 1.397 . S
C2187 C2188 1.334 . S
C2188 H2159 0.950 . S
C2188 C2187 1.334 . S
C2188 C2189 1.287 . S
C2189 C2188 1.287 . S
C2189 C2190 1.524 . S
C2189 H2192 0.999 . S
C2190 H2160 0.950 . S
C2190 C2189 1.524 . S
C2190 C2191 1.415 . S
C2191 H2161 0.950 . S
C2191 C2186 1.363 . S
C2191 C2190 1.415 . S
H2192 C2189 0.999 . S
H2193 C2174 0.913 . S
H2194 C2212 0.951 . S
H2195 C2214 0.951 . S
H2196 C2216 0.950 1_565 S
H2197 C2217 0.950 . S
H2198 C2219 0.950 . S
H2199 C2222 0.950 . S
H2200 C2223 0.950 . S
H2201 C2225 0.950 . S
H2202 C2226 0.950 . S
H2203 C2227 0.951 . S
H2204 C2229 0.951 . S
H2205 C2231 0.950 . S
H2206 C2232 0.950 . S
H2207 C2234 0.950 . S
H2208 C2237 0.950 . S
H2209 C2238 0.950 . S
H2210 C2240 0.950 . S
H2211 C2241 0.950 . S
C2212 H2194 0.951 . S
C2212 C2213 1.366 . S
C2212 C2214 1.388 . S
C2213 C2212 1.366 . S
C2213 C2217 1.385 . S
C2214 H2195 0.951 . S
C2214 C2212 1.388 . S
C2214 C2215 1.366 . S
C2215 C2214 1.366 . S
C2215 C2216 1.414 . S
C2215 C2218 1.499 1_545 S
C2216 H2196 0.950 1_545 S
C2216 C2215 1.414 . S
C2216 C2217 1.374 . S
C2217 H2197 0.950 . S
C2217 C2213 1.385 . S
C2217 C2216 1.374 . S
C2218 C2215 1.499 1_565 S
C2218 C2219 1.373 . S
C2218 C2220 1.389 . S
C2219 H2198 0.950 . S
C2219 C2218 1.373 . S
C2219 C2235 1.377 . S
C2220 C2218 1.389 . S
C2220 C2221 1.524 1_565 S
C2220 C2234 1.377 . S
C2221 C2220 1.524 1_545 S
C2221 C2222 1.397 . S
C2221 C2226 1.363 . S
C2222 H2199 0.950 . S
C2222 C2221 1.397 . S
C2222 C2223 1.334 . S
C2223 H2200 0.950 . S
C2223 C2222 1.334 . S
C2223 C2224 1.287 . S
C2224 C2223 1.287 . S
C2224 C2225 1.524 . S
C2224 H2243 0.913 . S
C2225 H2201 0.950 . S
C2225 C2224 1.524 . S
C2225 C2226 1.415 . S
C2226 H2202 0.950 . S
C2226 C2221 1.363 . S
C2226 C2225 1.415 . S
C2227 H2203 0.951 . S
C2227 C2228 1.366 . S
C2227 C2229 1.388 . S
C2228 C2227 1.366 . S
C2228 C2232 1.385 . S
C2229 H2204 0.951 . S
C2229 C2227 1.388 . S
C2229 C2230 1.366 . S
C2230 C2229 1.366 . S
C2230 C2231 1.414 . S
C2230 C2233 1.499 . S
C2231 H2205 0.950 . S
C2231 C2230 1.414 . S
C2231 C2232 1.374 . S
C2232 H2206 0.950 . S
C2232 C2228 1.385 . S
C2232 C2231 1.374 . S
C2233 C2230 1.499 . S
C2233 C2234 1.373 . S
C2233 C2235 1.389 . S
C2234 H2207 0.950 . S
C2234 C2220 1.377 . S
C2234 C2233 1.373 . S
C2235 C2219 1.377 . S
C2235 C2233 1.389 . S
C2235 C2236 1.524 . S
C2236 C2235 1.524 . S
C2236 C2237 1.397 . S
C2236 C2241 1.363 . S
C2237 H2208 0.950 . S
C2237 C2236 1.397 . S
C2237 C2238 1.334 . S
C2238 H2209 0.950 . S
C2238 C2237 1.334 . S
C2238 C2239 1.287 . S
C2239 C2238 1.287 . S
C2239 C2240 1.524 . S
C2239 H2242 0.999 . S
C2240 H2210 0.950 . S
C2240 C2239 1.524 . S
C2240 C2241 1.415 . S
C2241 H2211 0.950 . S
C2241 C2236 1.363 . S
C2241 C2240 1.415 . S
H2242 C2239 0.999 . S
H2243 C2224 0.913 . S
H2244 C2262 0.951 . S
H2245 C2264 0.951 1_554 S
H2246 C2266 0.950 . S
H2247 C2267 0.950 . S
H2248 C2269 0.950 . S
H2249 C2272 0.950 . S
H2250 C2273 0.950 . S
H2251 C2275 0.950 . S
H2252 C2276 0.950 . S
H2253 C2277 0.951 . S
H2254 C2279 0.951 . S
H2255 C2281 0.950 . S
H2256 C2282 0.950 . S
H2257 C2284 0.950 . S
H2258 C2287 0.950 . S
H2259 C2288 0.950 . S
H2260 C2290 0.950 . S
H2261 C2291 0.950 . S
C2262 H2244 0.951 . S
C2262 C2263 1.367 1_554 S
C2262 C2264 1.388 1_554 S
C2263 C2262 1.367 1_556 S
C2263 C2267 1.381 . S
C2264 H2245 0.951 1_556 S
C2264 C2262 1.388 1_556 S
C2264 C2265 1.366 . S
C2265 C2264 1.366 . S
C2265 C2266 1.414 . S
C2265 C2268 1.499 . S
C2266 H2246 0.950 . S
C2266 C2265 1.414 . S
C2266 C2267 1.374 . S
C2267 H2247 0.950 . S
C2267 C2263 1.381 . S
C2267 C2266 1.374 . S
C2268 C2265 1.499 . S
C2268 C2269 1.373 . S
C2268 C2270 1.389 . S
C2269 H2248 0.950 . S
C2269 C2268 1.373 . S
C2269 C2285 1.377 . S
C2270 C2268 1.389 . S
C2270 C2271 1.524 . S
C2270 C2284 1.377 . S
C2271 C2270 1.524 . S
C2271 C2272 1.397 . S
C2271 C2276 1.363 . S
C2272 H2249 0.950 . S
C2272 C2271 1.397 . S
C2272 C2273 1.334 . S
C2273 H2250 0.950 . S
C2273 C2272 1.334 . S
C2273 C2274 1.287 1_556 S
C2274 C2273 1.287 1_554 S
C2274 C2275 1.524 . S
C2274 H2293 0.913 . S
C2275 H2251 0.950 . S
C2275 C2274 1.524 . S
C2275 C2276 1.415 1_554 S
C2276 H2252 0.950 . S
C2276 C2271 1.363 . S
C2276 C2275 1.415 1_556 S
C2277 H2253 0.951 . S
C2277 C2278 1.366 . S
C2277 C2279 1.388 . S
C2278 C2277 1.366 . S
C2278 C2282 1.385 . S
C2279 H2254 0.951 . S
C2279 C2277 1.388 . S
C2279 C2280 1.366 . S
C2280 C2279 1.366 . S
C2280 C2281 1.414 . S
C2280 C2283 1.499 . S
C2281 H2255 0.950 . S
C2281 C2280 1.414 . S
C2281 C2282 1.374 . S
C2282 H2256 0.950 . S
C2282 C2278 1.385 . S
C2282 C2281 1.374 . S
C2283 C2280 1.499 . S
C2283 C2284 1.373 . S
C2283 C2285 1.389 . S
C2284 H2257 0.950 . S
C2284 C2270 1.377 . S
C2284 C2283 1.373 . S
C2285 C2269 1.377 . S
C2285 C2283 1.389 . S
C2285 C2286 1.524 . S
C2286 C2285 1.524 . S
C2286 C2287 1.397 . S
C2286 C2291 1.363 . S
C2287 H2258 0.950 . S
C2287 C2286 1.397 . S
C2287 C2288 1.334 . S
C2288 H2259 0.950 . S
C2288 C2287 1.334 . S
C2288 C2289 1.287 . S
C2289 C2288 1.287 . S
C2289 C2290 1.524 . S
C2289 H2292 0.999 . S
C2290 H2260 0.950 . S
C2290 C2289 1.524 . S
C2290 C2291 1.415 . S
C2291 H2261 0.950 . S
C2291 C2286 1.363 . S
C2291 C2290 1.415 . S
H2292 C2289 0.999 . S
H2293 C2274 0.913 . S
H2294 C2312 0.951 . S
H2295 C2314 0.951 . S
H2296 C2316 0.950 1_545 S
H2297 C2317 0.950 . S
H2298 C2319 0.950 . S
H2299 C2322 0.950 . S
H2300 C2323 0.950 . S
H2301 C2325 0.950 . S
H2302 C2326 0.950 . S
H2303 C2327 0.951 . S
H2304 C2329 0.951 . S
H2305 C2331 0.950 . S
H2306 C2332 0.950 . S
H2307 C2334 0.950 . S
H2308 C2337 0.950 . S
H2309 C2338 0.950 . S
H2310 C2340 0.950 . S
H2311 C2341 0.950 . S
C2312 H2294 0.951 . S
C2312 C2313 1.366 . S
C2312 C2314 1.388 . S
C2313 C2312 1.366 . S
C2313 C2317 1.385 . S
C2314 H2295 0.951 . S
C2314 C2312 1.388 . S
C2314 C2315 1.366 . S
C2315 C2314 1.366 . S
C2315 C2316 1.414 . S
C2315 C2318 1.499 1_565 S
C2316 H2296 0.950 1_565 S
C2316 C2315 1.414 . S
C2316 C2317 1.374 . S
C2317 H2297 0.950 . S
C2317 C2313 1.385 . S
C2317 C2316 1.374 . S
C2318 C2315 1.499 1_545 S
C2318 C2319 1.373 . S
C2318 C2320 1.389 . S
C2319 H2298 0.950 . S
C2319 C2318 1.373 . S
C2319 C2335 1.377 . S
C2320 C2318 1.389 . S
C2320 C2321 1.524 1_545 S
C2320 C2334 1.377 . S
C2321 C2320 1.524 1_565 S
C2321 C2322 1.397 . S
C2321 C2326 1.363 . S
C2322 H2299 0.950 . S
C2322 C2321 1.397 . S
C2322 C2323 1.334 . S
C2323 H2300 0.950 . S
C2323 C2322 1.334 . S
C2323 C2324 1.287 . S
C2324 C2323 1.287 . S
C2324 C2325 1.524 . S
C2324 H2343 0.913 . S
C2325 H2301 0.950 . S
C2325 C2324 1.524 . S
C2325 C2326 1.415 . S
C2326 H2302 0.950 . S
C2326 C2321 1.363 . S
C2326 C2325 1.415 . S
C2327 H2303 0.951 . S
C2327 C2328 1.366 . S
C2327 C2329 1.388 . S
C2328 C2327 1.366 . S
C2328 C2332 1.385 . S
C2329 H2304 0.951 . S
C2329 C2327 1.388 . S
C2329 C2330 1.366 . S
C2330 C2329 1.366 . S
C2330 C2331 1.414 . S
C2330 C2333 1.499 . S
C2331 H2305 0.950 . S
C2331 C2330 1.414 . S
C2331 C2332 1.374 . S
C2332 H2306 0.950 . S
C2332 C2328 1.385 . S
C2332 C2331 1.374 . S
C2333 C2330 1.499 . S
C2333 C2334 1.373 . S
C2333 C2335 1.389 . S
C2334 H2307 0.950 . S
C2334 C2320 1.377 . S
C2334 C2333 1.373 . S
C2335 C2319 1.377 . S
C2335 C2333 1.389 . S
C2335 C2336 1.524 . S
C2336 C2335 1.524 . S
C2336 C2337 1.397 . S
C2336 C2341 1.363 . S
C2337 H2308 0.950 . S
C2337 C2336 1.397 . S
C2337 C2338 1.334 . S
C2338 H2309 0.950 . S
C2338 C2337 1.334 . S
C2338 C2339 1.287 . S
C2339 C2338 1.287 . S
C2339 C2340 1.524 . S
C2339 H2342 0.999 . S
C2340 H2310 0.950 . S
C2340 C2339 1.524 . S
C2340 C2341 1.415 . S
C2341 H2311 0.950 . S
C2341 C2336 1.363 . S
C2341 C2340 1.415 . S
H2342 C2339 0.999 . S
H2343 C2324 0.913 . S
H2344 C2362 0.951 . S
H2345 C2364 0.951 . S
H2346 C2366 0.950 . S
H2347 C2367 0.950 . S
H2348 C2369 0.950 . S
H2349 C2372 0.950 . S
H2350 C2373 0.950 . S
H2351 C2375 0.950 . S
H2352 C2376 0.950 . S
H2353 C2377 0.951 . S
H2354 C2379 0.951 . S
H2355 C2381 0.950 . S
H2356 C2382 0.950 . S
H2357 C2384 0.950 . S
H2358 C2387 0.950 . S
H2359 C2388 0.950 . S
H2360 C2390 0.950 . S
H2361 C2391 0.950 . S
C2362 H2344 0.951 . S
C2362 C2363 1.366 . S
C2362 C2364 1.388 . S
C2363 C2362 1.366 . S
C2363 C2367 1.385 . S
C2364 H2345 0.951 . S
C2364 C2362 1.388 . S
C2364 C2365 1.366 . S
C2365 C2364 1.366 . S
C2365 C2366 1.414 . S
C2365 C2368 1.499 . S
C2366 H2346 0.950 . S
C2366 C2365 1.414 . S
C2366 C2367 1.374 . S
C2367 H2347 0.950 . S
C2367 C2363 1.385 . S
C2367 C2366 1.374 . S
C2368 C2365 1.499 . S
C2368 C2369 1.373 . S
C2368 C2370 1.389 . S
C2369 H2348 0.950 . S
C2369 C2368 1.373 . S
C2369 C2385 1.377 . S
C2370 C2368 1.389 . S
C2370 C2371 1.524 . S
C2370 C2384 1.377 . S
C2371 C2370 1.524 . S
C2371 C2372 1.397 . S
C2371 C2376 1.363 . S
C2372 H2349 0.950 . S
C2372 C2371 1.397 . S
C2372 C2373 1.334 . S
C2373 H2350 0.950 . S
C2373 C2372 1.334 . S
C2373 C2374 1.287 . S
C2374 C2373 1.287 . S
C2374 C2375 1.524 . S
C2374 H2393 0.913 . S
C2375 H2351 0.950 . S
C2375 C2374 1.524 . S
C2375 C2376 1.415 . S
C2376 H2352 0.950 . S
C2376 C2371 1.363 . S
C2376 C2375 1.415 . S
C2377 H2353 0.951 . S
C2377 C2378 1.366 . S
C2377 C2379 1.388 . S
C2378 C2377 1.366 . S
C2378 C2382 1.385 . S
C2379 H2354 0.951 . S
C2379 C2377 1.388 . S
C2379 C2380 1.366 . S
C2380 C2379 1.366 . S
C2380 C2381 1.414 . S
C2380 C2383 1.499 . S
C2381 H2355 0.950 . S
C2381 C2380 1.414 . S
C2381 C2382 1.374 . S
C2382 H2356 0.950 . S
C2382 C2378 1.385 . S
C2382 C2381 1.374 . S
C2383 C2380 1.499 . S
C2383 C2384 1.373 . S
C2383 C2385 1.389 . S
C2384 H2357 0.950 . S
C2384 C2370 1.377 . S
C2384 C2383 1.373 . S
C2385 C2369 1.377 . S
C2385 C2383 1.389 . S
C2385 C2386 1.524 . S
C2386 C2385 1.524 . S
C2386 C2387 1.397 . S
C2386 C2391 1.363 . S
C2387 H2358 0.950 . S
C2387 C2386 1.397 . S
C2387 C2388 1.334 . S
C2388 H2359 0.950 . S
C2388 C2387 1.334 . S
C2388 C2389 1.287 . S
C2389 C2388 1.287 . S
C2389 C2390 1.524 . S
C2389 H2392 0.999 . S
C2390 H2360 0.950 . S
C2390 C2389 1.524 . S
C2390 C2391 1.415 . S
C2391 H2361 0.950 . S
C2391 C2386 1.363 . S
C2391 C2390 1.415 . S
H2392 C2389 0.999 . S
H2393 C2374 0.913 . S
H2394 C2412 0.951 . S
H2395 C2414 0.951 . S
H2396 C2416 0.950 . S
H2397 C2417 0.950 . S
H2398 C2419 0.950 . S
H2399 C2422 0.950 . S
H2400 C2423 0.950 . S
H2401 C2425 0.950 . S
H2402 C2426 0.950 . S
H2403 C2427 0.951 . S
H2404 C2429 0.951 . S
H2405 C2431 0.950 1_545 S
H2406 C2432 0.950 . S
H2407 C2434 0.950 . S
H2408 C2437 0.950 . S
H2409 C2438 0.950 . S
H2410 C2440 0.950 . S
H2411 C2441 0.950 . S
C2412 H2394 0.951 . S
C2412 C2413 1.366 . S
C2412 C2414 1.388 . S
C2413 C2412 1.366 . S
C2413 C2417 1.385 . S
C2414 H2395 0.951 . S
C2414 C2412 1.388 . S
C2414 C2415 1.366 . S
C2415 C2414 1.366 . S
C2415 C2416 1.414 . S
C2415 C2418 1.499 . S
C2416 H2396 0.950 . S
C2416 C2415 1.414 . S
C2416 C2417 1.374 . S
C2417 H2397 0.950 . S
C2417 C2413 1.385 . S
C2417 C2416 1.374 . S
C2418 C2415 1.499 . S
C2418 C2419 1.373 . S
C2418 C2420 1.389 . S
C2419 H2398 0.950 . S
C2419 C2418 1.373 . S
C2419 C2435 1.377 . S
C2420 C2418 1.389 . S
C2420 C2421 1.524 . S
C2420 C2434 1.377 . S
C2421 C2420 1.524 . S
C2421 C2422 1.397 . S
C2421 C2426 1.363 . S
C2422 H2399 0.950 . S
C2422 C2421 1.397 . S
C2422 C2423 1.334 . S
C2423 H2400 0.950 . S
C2423 C2422 1.334 . S
C2423 C2424 1.287 . S
C2424 C2423 1.287 . S
C2424 C2425 1.524 . S
C2424 H2443 0.913 . S
C2425 H2401 0.950 . S
C2425 C2424 1.524 . S
C2425 C2426 1.415 . S
C2426 H2402 0.950 . S
C2426 C2421 1.363 . S
C2426 C2425 1.415 . S
C2427 H2403 0.951 . S
C2427 C2428 1.366 . S
C2427 C2429 1.388 . S
C2428 C2427 1.366 . S
C2428 C2432 1.385 . S
C2429 H2404 0.951 . S
C2429 C2427 1.388 . S
C2429 C2430 1.366 . S
C2430 C2429 1.366 . S
C2430 C2431 1.414 . S
C2430 C2433 1.499 1_565 S
C2431 H2405 0.950 1_565 S
C2431 C2430 1.414 . S
C2431 C2432 1.374 . S
C2432 H2406 0.950 . S
C2432 C2428 1.385 . S
C2432 C2431 1.374 . S
C2433 C2430 1.499 1_545 S
C2433 C2434 1.373 . S
C2433 C2435 1.389 . S
C2434 H2407 0.950 . S
C2434 C2420 1.377 . S
C2434 C2433 1.373 . S
C2435 C2419 1.377 . S
C2435 C2433 1.389 . S
C2435 C2436 1.524 . S
C2436 C2435 1.524 . S
C2436 C2437 1.397 . S
C2436 C2441 1.363 . S
C2437 H2408 0.950 . S
C2437 C2436 1.397 . S
C2437 C2438 1.334 1_545 S
C2438 H2409 0.950 . S
C2438 C2437 1.334 1_565 S
C2438 C2439 1.287 . S
C2439 C2438 1.287 . S
C2439 C2440 1.524 . S
C2439 H2442 0.999 . S
C2440 H2410 0.950 . S
C2440 C2439 1.524 . S
C2440 C2441 1.415 1_565 S
C2441 H2411 0.950 . S
C2441 C2436 1.363 . S
C2441 C2440 1.415 1_545 S
H2442 C2439 0.999 . S
H2443 C2424 0.913 . S
H2444 C2462 0.951 . S
H2445 C2464 0.951 . S
H2446 C2466 0.950 . S
H2447 C2467 0.950 . S
H2448 C2469 0.950 . S
H2449 C2472 0.950 . S
H2450 C2473 0.950 . S
H2451 C2475 0.950 . S
H2452 C2476 0.950 . S
H2453 C2477 0.951 . S
H2454 C2479 0.951 1_556 S
H2455 C2481 0.950 . S
H2456 C2482 0.950 . S
H2457 C2484 0.950 . S
H2458 C2487 0.950 . S
H2459 C2488 0.950 . S
H2460 C2490 0.950 . S
H2461 C2491 0.950 . S
C2462 H2444 0.951 . S
C2462 C2463 1.366 . S
C2462 C2464 1.388 . S
C2463 C2462 1.366 . S
C2463 C2467 1.385 . S
C2464 H2445 0.951 . S
C2464 C2462 1.388 . S
C2464 C2465 1.366 . S
C2465 C2464 1.366 . S
C2465 C2466 1.414 . S
C2465 C2468 1.499 . S
C2466 H2446 0.950 . S
C2466 C2465 1.414 . S
C2466 C2467 1.374 . S
C2467 H2447 0.950 . S
C2467 C2463 1.385 . S
C2467 C2466 1.374 . S
C2468 C2465 1.499 . S
C2468 C2469 1.373 . S
C2468 C2470 1.389 . S
C2469 H2448 0.950 . S
C2469 C2468 1.373 . S
C2469 C2485 1.377 . S
C2470 C2468 1.389 . S
C2470 C2471 1.524 . S
C2470 C2484 1.377 . S
C2471 C2470 1.524 . S
C2471 C2472 1.397 . S
C2471 C2476 1.363 . S
C2472 H2449 0.950 . S
C2472 C2471 1.397 . S
C2472 C2473 1.334 . S
C2473 H2450 0.950 . S
C2473 C2472 1.334 . S
C2473 C2474 1.287 . S
C2474 C2473 1.287 . S
C2474 C2475 1.524 . S
C2474 H2493 0.913 . S
C2475 H2451 0.950 . S
C2475 C2474 1.524 . S
C2475 C2476 1.415 . S
C2476 H2452 0.950 . S
C2476 C2471 1.363 . S
C2476 C2475 1.415 . S
C2477 H2453 0.951 . S
C2477 C2478 1.367 1_556 S
C2477 C2479 1.388 1_556 S
C2478 C2477 1.367 1_554 S
C2478 C2482 1.381 . S
C2479 H2454 0.951 1_554 S
C2479 C2477 1.388 1_554 S
C2479 C2480 1.366 . S
C2480 C2479 1.366 . S
C2480 C2481 1.414 . S
C2480 C2483 1.499 . S
C2481 H2455 0.950 . S
C2481 C2480 1.414 . S
C2481 C2482 1.374 . S
C2482 H2456 0.950 . S
C2482 C2478 1.381 . S
C2482 C2481 1.374 . S
C2483 C2480 1.499 . S
C2483 C2484 1.373 . S
C2483 C2485 1.389 . S
C2484 H2457 0.950 . S
C2484 C2470 1.377 . S
C2484 C2483 1.373 . S
C2485 C2469 1.377 . S
C2485 C2483 1.389 . S
C2485 C2486 1.524 . S
C2486 C2485 1.524 . S
C2486 C2487 1.397 . S
C2486 C2491 1.363 . S
C2487 H2458 0.950 . S
C2487 C2486 1.397 . S
C2487 C2488 1.334 . S
C2488 H2459 0.950 . S
C2488 C2487 1.334 . S
C2488 C2489 1.287 1_554 S
C2489 C2488 1.287 1_556 S
C2489 C2490 1.524 . S
C2489 H2492 0.999 . S
C2490 H2460 0.950 . S
C2490 C2489 1.524 . S
C2490 C2491 1.415 1_556 S
C2491 H2461 0.950 . S
C2491 C2486 1.363 . S
C2491 C2490 1.415 1_554 S
H2492 C2489 0.999 . S
H2493 C2474 0.913 . S
H2494 C2512 0.951 . S
H2495 C2514 0.951 1_565 S
H2496 C2516 0.950 . S
H2497 C2517 0.950 . S
H2498 C2519 0.950 . S
H2499 C2522 0.950 . S
H2500 C2523 0.950 . S
H2501 C2525 0.950 . S
H2502 C2526 0.950 . S
H2503 C2527 0.951 . S
H2504 C2529 0.951 . S
H2505 C2531 0.950 . S
H2506 C2532 0.950 . S
H2507 C2534 0.950 . S
H2508 C2537 0.950 . S
H2509 C2538 0.950 . S
H2510 C2540 0.950 . S
H2511 C2541 0.950 . S
C2512 H2494 0.951 . S
C2512 C2513 1.366 . S
C2512 C2514 1.388 . S
C2513 C2512 1.366 . S
C2513 C2517 1.385 . S
C2514 H2495 0.951 1_545 S
C2514 C2512 1.388 . S
C2514 C2515 1.366 . S
C2515 C2514 1.366 . S
C2515 C2516 1.414 . S
C2515 C2518 1.499 1_545 S
C2516 H2496 0.950 . S
C2516 C2515 1.414 . S
C2516 C2517 1.374 . S
C2517 H2497 0.950 . S
C2517 C2513 1.385 . S
C2517 C2516 1.374 . S
C2518 C2515 1.499 1_565 S
C2518 C2519 1.373 . S
C2518 C2520 1.389 . S
C2519 H2498 0.950 . S
C2519 C2518 1.373 . S
C2519 C2535 1.377 . S
C2520 C2518 1.389 . S
C2520 C2521 1.524 . S
C2520 C2534 1.377 . S
C2521 C2520 1.524 . S
C2521 C2522 1.397 1_565 S
C2521 C2526 1.363 . S
C2522 H2499 0.950 . S
C2522 C2521 1.397 1_545 S
C2522 C2523 1.334 . S
C2523 H2500 0.950 . S
C2523 C2522 1.334 . S
C2523 C2524 1.287 . S
C2524 C2523 1.287 . S
C2524 C2525 1.524 1_545 S
C2524 H2543 0.913 . S
C2525 H2501 0.950 . S
C2525 C2524 1.524 1_565 S
C2525 C2526 1.415 . S
C2526 H2502 0.950 . S
C2526 C2521 1.363 . S
C2526 C2525 1.415 . S
C2527 H2503 0.951 . S
C2527 C2528 1.366 . S
C2527 C2529 1.388 . S
C2528 C2527 1.366 . S
C2528 C2532 1.385 . S
C2529 H2504 0.951 . S
C2529 C2527 1.388 . S
C2529 C2530 1.366 . S
C2530 C2529 1.366 . S
C2530 C2531 1.414 . S
C2530 C2533 1.499 . S
C2531 H2505 0.950 . S
C2531 C2530 1.414 . S
C2531 C2532 1.374 . S
C2532 H2506 0.950 . S
C2532 C2528 1.385 . S
C2532 C2531 1.374 . S
C2533 C2530 1.499 . S
C2533 C2534 1.373 . S
C2533 C2535 1.389 . S
C2534 H2507 0.950 . S
C2534 C2520 1.377 . S
C2534 C2533 1.373 . S
C2535 C2519 1.377 . S
C2535 C2533 1.389 . S
C2535 C2536 1.524 . S
C2536 C2535 1.524 . S
C2536 C2537 1.397 . S
C2536 C2541 1.363 . S
C2537 H2508 0.950 . S
C2537 C2536 1.397 . S
C2537 C2538 1.334 . S
C2538 H2509 0.950 . S
C2538 C2537 1.334 . S
C2538 C2539 1.287 . S
C2539 C2538 1.287 . S
C2539 C2540 1.524 . S
C2539 H2542 0.999 . S
C2540 H2510 0.950 . S
C2540 C2539 1.524 . S
C2540 C2541 1.415 . S
C2541 H2511 0.950 . S
C2541 C2536 1.363 . S
C2541 C2540 1.415 . S
H2542 C2539 0.999 . S
H2543 C2524 0.913 . S
H2544 C2562 0.951 . S
H2545 C2564 0.951 . S
H2546 C2566 0.950 . S
H2547 C2567 0.950 . S
H2548 C2569 0.950 . S
H2549 C2572 0.950 . S
H2550 C2573 0.950 . S
H2551 C2575 0.950 . S
H2552 C2576 0.950 . S
H2553 C2577 0.951 . S
H2554 C2579 0.951 . S
H2555 C2581 0.950 . S
H2556 C2582 0.950 . S
H2557 C2584 0.950 . S
H2558 C2587 0.950 . S
H2559 C2588 0.950 . S
H2560 C2590 0.950 . S
H2561 C2591 0.950 . S
C2562 H2544 0.951 . S
C2562 C2563 1.366 . S
C2562 C2564 1.388 . S
C2563 C2562 1.366 . S
C2563 C2567 1.385 . S
C2564 H2545 0.951 . S
C2564 C2562 1.388 . S
C2564 C2565 1.366 . S
C2565 C2564 1.366 . S
C2565 C2566 1.414 . S
C2565 C2568 1.499 . S
C2566 H2546 0.950 . S
C2566 C2565 1.414 . S
C2566 C2567 1.374 . S
C2567 H2547 0.950 . S
C2567 C2563 1.385 . S
C2567 C2566 1.374 . S
C2568 C2565 1.499 . S
C2568 C2569 1.373 . S
C2568 C2570 1.389 . S
C2569 H2548 0.950 . S
C2569 C2568 1.373 . S
C2569 C2585 1.377 . S
C2570 C2568 1.389 . S
C2570 C2571 1.524 . S
C2570 C2584 1.377 . S
C2571 C2570 1.524 . S
C2571 C2572 1.397 . S
C2571 C2576 1.363 . S
C2572 H2549 0.950 . S
C2572 C2571 1.397 . S
C2572 C2573 1.334 . S
C2573 H2550 0.950 . S
C2573 C2572 1.334 . S
C2573 C2574 1.287 . S
C2574 C2573 1.287 . S
C2574 C2575 1.524 . S
C2574 H2593 0.913 . S
C2575 H2551 0.950 . S
C2575 C2574 1.524 . S
C2575 C2576 1.415 . S
C2576 H2552 0.950 . S
C2576 C2571 1.363 . S
C2576 C2575 1.415 . S
C2577 H2553 0.951 . S
C2577 C2578 1.366 . S
C2577 C2579 1.388 . S
C2578 C2577 1.366 . S
C2578 C2582 1.385 . S
C2579 H2554 0.951 . S
C2579 C2577 1.388 . S
C2579 C2580 1.366 . S
C2580 C2579 1.366 . S
C2580 C2581 1.414 . S
C2580 C2583 1.499 . S
C2581 H2555 0.950 . S
C2581 C2580 1.414 . S
C2581 C2582 1.374 . S
C2582 H2556 0.950 . S
C2582 C2578 1.385 . S
C2582 C2581 1.374 . S
C2583 C2580 1.499 . S
C2583 C2584 1.373 . S
C2583 C2585 1.389 . S
C2584 H2557 0.950 . S
C2584 C2570 1.377 . S
C2584 C2583 1.373 . S
C2585 C2569 1.377 . S
C2585 C2583 1.389 . S
C2585 C2586 1.524 . S
C2586 C2585 1.524 . S
C2586 C2587 1.397 . S
C2586 C2591 1.363 . S
C2587 H2558 0.950 . S
C2587 C2586 1.397 . S
C2587 C2588 1.334 . S
C2588 H2559 0.950 . S
C2588 C2587 1.334 . S
C2588 C2589 1.287 . S
C2589 C2588 1.287 . S
C2589 C2590 1.524 . S
C2589 H2592 0.999 . S
C2590 H2560 0.950 . S
C2590 C2589 1.524 . S
C2590 C2591 1.415 . S
C2591 H2561 0.950 . S
C2591 C2586 1.363 . S
C2591 C2590 1.415 . S
H2592 C2589 0.999 . S
H2593 C2574 0.913 . S
H2594 C2612 0.951 . S
H2595 C2614 0.951 . S
H2596 C2616 0.950 . S
H2597 C2617 0.950 . S
H2598 C2619 0.950 . S
H2599 C2622 0.950 . S
H2600 C2623 0.950 . S
H2601 C2625 0.950 . S
H2602 C2626 0.950 . S
H2603 C2627 0.951 . S
H2604 C2629 0.951 . S
H2605 C2631 0.950 . S
H2606 C2632 0.950 . S
H2607 C2634 0.950 . S
H2608 C2637 0.950 . S
H2609 C2638 0.950 . S
H2610 C2640 0.950 . S
H2611 C2641 0.950 . S
C2612 H2594 0.951 . S
C2612 C2613 1.366 . S
C2612 C2614 1.388 . S
C2613 C2612 1.366 . S
C2613 C2617 1.385 . S
C2614 H2595 0.951 . S
C2614 C2612 1.388 . S
C2614 C2615 1.366 . S
C2615 C2614 1.366 . S
C2615 C2616 1.414 . S
C2615 C2618 1.499 . S
C2616 H2596 0.950 . S
C2616 C2615 1.414 . S
C2616 C2617 1.374 . S
C2617 H2597 0.950 . S
C2617 C2613 1.385 . S
C2617 C2616 1.374 . S
C2618 C2615 1.499 . S
C2618 C2619 1.373 . S
C2618 C2620 1.389 . S
C2619 H2598 0.950 . S
C2619 C2618 1.373 . S
C2619 C2635 1.377 . S
C2620 C2618 1.389 . S
C2620 C2621 1.524 . S
C2620 C2634 1.377 . S
C2621 C2620 1.524 . S
C2621 C2622 1.397 . S
C2621 C2626 1.363 . S
C2622 H2599 0.950 . S
C2622 C2621 1.397 . S
C2622 C2623 1.334 . S
C2623 H2600 0.950 . S
C2623 C2622 1.334 . S
C2623 C2624 1.287 . S
C2624 C2623 1.287 . S
C2624 C2625 1.524 . S
C2624 H2643 0.913 . S
C2625 H2601 0.950 . S
C2625 C2624 1.524 . S
C2625 C2626 1.415 . S
C2626 H2602 0.950 . S
C2626 C2621 1.363 . S
C2626 C2625 1.415 . S
C2627 H2603 0.951 . S
C2627 C2628 1.366 . S
C2627 C2629 1.388 1_556 S
C2628 C2627 1.366 . S
C2628 C2632 1.385 1_556 S
C2629 H2604 0.951 . S
C2629 C2627 1.388 1_554 S
C2629 C2630 1.366 . S
C2630 C2629 1.366 . S
C2630 C2631 1.414 . S
C2630 C2633 1.499 . S
C2631 H2605 0.950 . S
C2631 C2630 1.414 . S
C2631 C2632 1.374 . S
C2632 H2606 0.950 . S
C2632 C2628 1.385 1_554 S
C2632 C2631 1.374 . S
C2633 C2630 1.499 . S
C2633 C2634 1.373 . S
C2633 C2635 1.389 . S
C2634 H2607 0.950 . S
C2634 C2620 1.377 . S
C2634 C2633 1.373 . S
C2635 C2619 1.377 . S
C2635 C2633 1.389 . S
C2635 C2636 1.524 . S
C2636 C2635 1.524 . S
C2636 C2637 1.397 . S
C2636 C2641 1.363 . S
C2637 H2608 0.950 . S
C2637 C2636 1.397 . S
C2637 C2638 1.334 . S
C2638 H2609 0.950 . S
C2638 C2637 1.334 . S
C2638 C2639 1.287 . S
C2639 C2638 1.287 . S
C2639 C2640 1.524 . S
C2639 H2642 0.999 . S
C2640 H2610 0.950 . S
C2640 C2639 1.524 . S
C2640 C2641 1.415 . S
C2641 H2611 0.950 . S
C2641 C2636 1.363 . S
C2641 C2640 1.415 . S
H2642 C2639 0.999 . S
H2643 C2624 0.913 . S
H2644 C2662 0.951 . S
H2645 C2664 0.951 . S
H2646 C2666 0.950 . S
H2647 C2667 0.950 . S
H2648 C2669 0.950 . S
H2649 C2672 0.950 . S
H2650 C2673 0.950 . S
H2651 C2675 0.950 . S
H2652 C2676 0.950 . S
H2653 C2677 0.951 . S
H2654 C2679 0.951 . S
H2655 C2681 0.950 1_655 S
H2656 C2682 0.950 . S
H2657 C2684 0.950 . S
H2658 C2687 0.950 . S
H2659 C2688 0.950 . S
H2660 C2690 0.950 . S
H2661 C2691 0.950 . S
C2662 H2644 0.951 . S
C2662 C2663 1.366 . S
C2662 C2664 1.388 . S
C2663 C2662 1.366 . S
C2663 C2667 1.385 . S
C2664 H2645 0.951 . S
C2664 C2662 1.388 . S
C2664 C2665 1.366 . S
C2665 C2664 1.366 . S
C2665 C2666 1.414 . S
C2665 C2668 1.499 . S
C2666 H2646 0.950 . S
C2666 C2665 1.414 . S
C2666 C2667 1.374 . S
C2667 H2647 0.950 . S
C2667 C2663 1.385 . S
C2667 C2666 1.374 . S
C2668 C2665 1.499 . S
C2668 C2669 1.373 1_655 S
C2668 C2670 1.389 . S
C2669 H2648 0.950 . S
C2669 C2668 1.373 1_455 S
C2669 C2685 1.377 . S
C2670 C2668 1.389 . S
C2670 C2671 1.524 . S
C2670 C2684 1.377 . S
C2671 C2670 1.524 . S
C2671 C2672 1.397 . S
C2671 C2676 1.363 . S
C2672 H2649 0.950 . S
C2672 C2671 1.397 . S
C2672 C2673 1.334 . S
C2673 H2650 0.950 . S
C2673 C2672 1.334 . S
C2673 C2674 1.287 . S
C2674 C2673 1.287 . S
C2674 C2675 1.524 . S
C2674 H2693 0.913 . S
C2675 H2651 0.950 . S
C2675 C2674 1.524 . S
C2675 C2676 1.415 . S
C2676 H2652 0.950 . S
C2676 C2671 1.363 . S
C2676 C2675 1.415 . S
C2677 H2653 0.951 . S
C2677 C2678 1.366 . S
C2677 C2679 1.388 . S
C2678 C2677 1.366 . S
C2678 C2682 1.385 . S
C2679 H2654 0.951 . S
C2679 C2677 1.388 . S
C2679 C2680 1.366 . S
C2680 C2679 1.366 . S
C2680 C2681 1.414 . S
C2680 C2683 1.499 . S
C2681 H2655 0.950 1_455 S
C2681 C2680 1.414 . S
C2681 C2682 1.374 . S
C2682 H2656 0.950 . S
C2682 C2678 1.385 . S
C2682 C2681 1.374 . S
C2683 C2680 1.499 . S
C2683 C2684 1.373 1_455 S
C2683 C2685 1.389 . S
C2684 H2657 0.950 . S
C2684 C2670 1.377 . S
C2684 C2683 1.373 1_655 S
C2685 C2669 1.377 . S
C2685 C2683 1.389 . S
C2685 C2686 1.524 . S
C2686 C2685 1.524 . S
C2686 C2687 1.397 . S
C2686 C2691 1.363 . S
C2687 H2658 0.950 . S
C2687 C2686 1.397 . S
C2687 C2688 1.334 . S
C2688 H2659 0.950 . S
C2688 C2687 1.334 . S
C2688 C2689 1.287 . S
C2689 C2688 1.287 . S
C2689 C2690 1.524 . S
C2689 H2692 0.999 . S
C2690 H2660 0.950 . S
C2690 C2689 1.524 . S
C2690 C2691 1.415 . S
C2691 H2661 0.950 . S
C2691 C2686 1.363 . S
C2691 C2690 1.415 . S
H2692 C2689 0.999 . S
H2693 C2674 0.913 . S
H2694 C2712 0.951 . S
H2695 C2714 0.951 . S
H2696 C2716 0.950 . S
H2697 C2717 0.950 . S
H2698 C2719 0.950 . S
H2699 C2722 0.950 . S
H2700 C2723 0.950 . S
H2701 C2725 0.950 . S
H2702 C2726 0.950 . S
H2703 C2727 0.951 . S
H2704 C2729 0.951 . S
H2705 C2731 0.950 . S
H2706 C2732 0.950 . S
H2707 C2734 0.950 . S
H2708 C2737 0.950 . S
H2709 C2738 0.950 . S
H2710 C2740 0.950 . S
H2711 C2741 0.950 . S
C2712 H2694 0.951 . S
C2712 C2713 1.366 . S
C2712 C2714 1.388 . S
C2713 C2712 1.366 . S
C2713 C2717 1.385 . S
C2714 H2695 0.951 . S
C2714 C2712 1.388 . S
C2714 C2715 1.366 . S
C2715 C2714 1.366 . S
C2715 C2716 1.414 . S
C2715 C2718 1.499 . S
C2716 H2696 0.950 . S
C2716 C2715 1.414 . S
C2716 C2717 1.374 . S
C2717 H2697 0.950 . S
C2717 C2713 1.385 . S
C2717 C2716 1.374 . S
C2718 C2715 1.499 . S
C2718 C2719 1.373 . S
C2718 C2720 1.389 . S
C2719 H2698 0.950 . S
C2719 C2718 1.373 . S
C2719 C2735 1.377 . S
C2720 C2718 1.389 . S
C2720 C2721 1.524 . S
C2720 C2734 1.377 . S
C2721 C2720 1.524 . S
C2721 C2722 1.397 . S
C2721 C2726 1.363 . S
C2722 H2699 0.950 . S
C2722 C2721 1.397 . S
C2722 C2723 1.334 . S
C2723 H2700 0.950 . S
C2723 C2722 1.334 . S
C2723 C2724 1.287 . S
C2724 C2723 1.287 . S
C2724 C2725 1.524 . S
C2724 H2743 0.913 . S
C2725 H2701 0.950 . S
C2725 C2724 1.524 . S
C2725 C2726 1.415 . S
C2726 H2702 0.950 . S
C2726 C2721 1.363 . S
C2726 C2725 1.415 . S
C2727 H2703 0.951 . S
C2727 C2728 1.366 . S
C2727 C2729 1.388 . S
C2728 C2727 1.366 . S
C2728 C2732 1.385 . S
C2729 H2704 0.951 . S
C2729 C2727 1.388 . S
C2729 C2730 1.366 . S
C2730 C2729 1.366 . S
C2730 C2731 1.414 . S
C2730 C2733 1.499 . S
C2731 H2705 0.950 . S
C2731 C2730 1.414 . S
C2731 C2732 1.374 . S
C2732 H2706 0.950 . S
C2732 C2728 1.385 . S
C2732 C2731 1.374 . S
C2733 C2730 1.499 . S
C2733 C2734 1.373 . S
C2733 C2735 1.389 . S
C2734 H2707 0.950 . S
C2734 C2720 1.377 . S
C2734 C2733 1.373 . S
C2735 C2719 1.377 . S
C2735 C2733 1.389 . S
C2735 C2736 1.524 . S
C2736 C2735 1.524 . S
C2736 C2737 1.397 . S
C2736 C2741 1.363 . S
C2737 H2708 0.950 . S
C2737 C2736 1.397 . S
C2737 C2738 1.334 . S
C2738 H2709 0.950 . S
C2738 C2737 1.334 . S
C2738 C2739 1.287 . S
C2739 C2738 1.287 . S
C2739 C2740 1.524 . S
C2739 H2742 0.999 . S
C2740 H2710 0.950 . S
C2740 C2739 1.524 . S
C2740 C2741 1.415 . S
C2741 H2711 0.950 . S
C2741 C2736 1.363 . S
C2741 C2740 1.415 . S
H2742 C2739 0.999 . S
H2743 C2724 0.913 . S
H2744 C2762 0.951 . S
H2745 C2764 0.951 . S
H2746 C2766 0.950 . S
H2747 C2767 0.950 . S
H2748 C2769 0.950 . S
H2749 C2772 0.950 . S
H2750 C2773 0.950 . S
H2751 C2775 0.950 . S
H2752 C2776 0.950 . S
H2753 C2777 0.951 . S
H2754 C2779 0.951 . S
H2755 C2781 0.950 . S
H2756 C2782 0.950 . S
H2757 C2784 0.950 . S
H2758 C2787 0.950 . S
H2759 C2788 0.950 . S
H2760 C2790 0.950 . S
H2761 C2791 0.950 . S
C2762 H2744 0.951 . S
C2762 C2763 1.366 . S
C2762 C2764 1.388 . S
C2763 C2762 1.366 . S
C2763 C2767 1.385 . S
C2764 H2745 0.951 . S
C2764 C2762 1.388 . S
C2764 C2765 1.366 . S
C2765 C2764 1.366 . S
C2765 C2766 1.414 . S
C2765 C2768 1.499 . S
C2766 H2746 0.950 . S
C2766 C2765 1.414 . S
C2766 C2767 1.374 . S
C2767 H2747 0.950 . S
C2767 C2763 1.385 . S
C2767 C2766 1.374 . S
C2768 C2765 1.499 . S
C2768 C2769 1.373 . S
C2768 C2770 1.389 . S
C2769 H2748 0.950 . S
C2769 C2768 1.373 . S
C2769 C2785 1.377 . S
C2770 C2768 1.389 . S
C2770 C2771 1.524 . S
C2770 C2784 1.377 . S
C2771 C2770 1.524 . S
C2771 C2772 1.397 . S
C2771 C2776 1.363 . S
C2772 H2749 0.950 . S
C2772 C2771 1.397 . S
C2772 C2773 1.334 . S
C2773 H2750 0.950 . S
C2773 C2772 1.334 . S
C2773 C2774 1.287 . S
C2774 C2773 1.287 . S
C2774 C2775 1.524 . S
C2774 H2793 0.913 . S
C2775 H2751 0.950 . S
C2775 C2774 1.524 . S
C2775 C2776 1.415 . S
C2776 H2752 0.950 . S
C2776 C2771 1.363 . S
C2776 C2775 1.415 . S
C2777 H2753 0.951 . S
C2777 C2778 1.366 . S
C2777 C2779 1.388 . S
C2778 C2777 1.366 . S
C2778 C2782 1.385 . S
C2779 H2754 0.951 . S
C2779 C2777 1.388 . S
C2779 C2780 1.366 . S
C2780 C2779 1.366 . S
C2780 C2781 1.414 . S
C2780 C2783 1.499 . S
C2781 H2755 0.950 . S
C2781 C2780 1.414 . S
C2781 C2782 1.374 . S
C2782 H2756 0.950 . S
C2782 C2778 1.385 . S
C2782 C2781 1.374 . S
C2783 C2780 1.499 . S
C2783 C2784 1.373 . S
C2783 C2785 1.389 . S
C2784 H2757 0.950 . S
C2784 C2770 1.377 . S
C2784 C2783 1.373 . S
C2785 C2769 1.377 . S
C2785 C2783 1.389 . S
C2785 C2786 1.524 . S
C2786 C2785 1.524 . S
C2786 C2787 1.397 . S
C2786 C2791 1.363 . S
C2787 H2758 0.950 . S
C2787 C2786 1.397 . S
C2787 C2788 1.334 . S
C2788 H2759 0.950 . S
C2788 C2787 1.334 . S
C2788 C2789 1.287 . S
C2789 C2788 1.287 . S
C2789 C2790 1.524 . S
C2789 H2792 0.999 . S
C2790 H2760 0.950 . S
C2790 C2789 1.524 . S
C2790 C2791 1.415 . S
C2791 H2761 0.950 . S
C2791 C2786 1.363 . S
C2791 C2790 1.415 . S
H2792 C2789 0.999 . S
H2793 C2774 0.913 . S
H2794 C2812 0.951 . S
H2795 C2814 0.951 . S
H2796 C2816 0.950 . S
H2797 C2817 0.950 . S
H2798 C2819 0.950 . S
H2799 C2822 0.950 . S
H2800 C2823 0.950 . S
H2801 C2825 0.950 . S
H2802 C2826 0.950 . S
H2803 C2827 0.951 . S
H2804 C2829 0.951 . S
H2805 C2831 0.950 . S
H2806 C2832 0.950 . S
H2807 C2834 0.950 . S
H2808 C2837 0.950 . S
H2809 C2838 0.950 . S
H2810 C2840 0.950 . S
H2811 C2841 0.950 . S
C2812 H2794 0.951 . S
C2812 C2813 1.366 . S
C2812 C2814 1.388 . S
C2813 C2812 1.366 . S
C2813 C2817 1.385 . S
C2814 H2795 0.951 . S
C2814 C2812 1.388 . S
C2814 C2815 1.366 . S
C2815 C2814 1.366 . S
C2815 C2816 1.414 . S
C2815 C2818 1.499 . S
C2816 H2796 0.950 . S
C2816 C2815 1.414 . S
C2816 C2817 1.374 . S
C2817 H2797 0.950 . S
C2817 C2813 1.385 . S
C2817 C2816 1.374 . S
C2818 C2815 1.499 . S
C2818 C2819 1.373 . S
C2818 C2820 1.389 . S
C2819 H2798 0.950 . S
C2819 C2818 1.373 . S
C2819 C2835 1.377 . S
C2820 C2818 1.389 . S
C2820 C2821 1.524 . S
C2820 C2834 1.377 . S
C2821 C2820 1.524 . S
C2821 C2822 1.397 . S
C2821 C2826 1.363 . S
C2822 H2799 0.950 . S
C2822 C2821 1.397 . S
C2822 C2823 1.334 . S
C2823 H2800 0.950 . S
C2823 C2822 1.334 . S
C2823 C2824 1.287 . S
C2824 C2823 1.287 . S
C2824 C2825 1.524 . S
C2824 H2843 0.913 . S
C2825 H2801 0.950 . S
C2825 C2824 1.524 . S
C2825 C2826 1.415 . S
C2826 H2802 0.950 . S
C2826 C2821 1.363 . S
C2826 C2825 1.415 . S
C2827 H2803 0.951 . S
C2827 C2828 1.366 1_556 S
C2827 C2829 1.388 . S
C2828 C2827 1.366 1_554 S
C2828 C2832 1.385 . S
C2829 H2804 0.951 . S
C2829 C2827 1.388 . S
C2829 C2830 1.366 . S
C2830 C2829 1.366 . S
C2830 C2831 1.414 . S
C2830 C2833 1.499 . S
C2831 H2805 0.950 . S
C2831 C2830 1.414 . S
C2831 C2832 1.374 1_556 S
C2832 H2806 0.950 . S
C2832 C2828 1.385 . S
C2832 C2831 1.374 1_554 S
C2833 C2830 1.499 . S
C2833 C2834 1.373 . S
C2833 C2835 1.389 . S
C2834 H2807 0.950 . S
C2834 C2820 1.377 . S
C2834 C2833 1.373 . S
C2835 C2819 1.377 . S
C2835 C2833 1.389 . S
C2835 C2836 1.524 . S
C2836 C2835 1.524 . S
C2836 C2837 1.397 . S
C2836 C2841 1.363 . S
C2837 H2808 0.950 . S
C2837 C2836 1.397 . S
C2837 C2838 1.334 . S
C2838 H2809 0.950 . S
C2838 C2837 1.334 . S
C2838 C2839 1.287 . S
C2839 C2838 1.287 . S
C2839 C2840 1.524 . S
C2839 H2842 0.999 . S
C2840 H2810 0.950 . S
C2840 C2839 1.524 . S
C2840 C2841 1.415 . S
C2841 H2811 0.950 . S
C2841 C2836 1.363 . S
C2841 C2840 1.415 . S
H2842 C2839 0.999 . S
H2843 C2824 0.913 . S
H2844 C2862 0.951 . S
H2845 C2864 0.951 . S
H2846 C2866 0.950 . S
H2847 C2867 0.950 . S
H2848 C2869 0.950 . S
H2849 C2872 0.950 . S
H2850 C2873 0.950 . S
H2851 C2875 0.950 . S
H2852 C2876 0.950 . S
H2853 C2877 0.951 . S
H2854 C2879 0.951 . S
H2855 C2881 0.950 . S
H2856 C2882 0.950 . S
H2857 C2884 0.950 . S
H2858 C2887 0.950 . S
H2859 C2888 0.950 . S
H2860 C2890 0.950 . S
H2861 C2891 0.950 . S
C2862 H2844 0.951 . S
C2862 C2863 1.366 . S
C2862 C2864 1.388 . S
C2863 C2862 1.366 . S
C2863 C2867 1.385 . S
C2864 H2845 0.951 . S
C2864 C2862 1.388 . S
C2864 C2865 1.366 . S
C2865 C2864 1.366 . S
C2865 C2866 1.414 . S
C2865 C2868 1.499 . S
C2866 H2846 0.950 . S
C2866 C2865 1.414 . S
C2866 C2867 1.374 . S
C2867 H2847 0.950 . S
C2867 C2863 1.385 . S
C2867 C2866 1.374 . S
C2868 C2865 1.499 . S
C2868 C2869 1.373 . S
C2868 C2870 1.396 . S
C2869 H2848 0.950 . S
C2869 C2868 1.373 . S
C2869 C2885 1.377 . S
C2870 C2868 1.396 . S
C2870 C2871 1.521 1_455 S
C2870 C2884 1.372 1_455 S
C2871 C2870 1.521 1_655 S
C2871 C2872 1.397 . S
C2871 C2876 1.363 . S
C2872 H2849 0.950 . S
C2872 C2871 1.397 . S
C2872 C2873 1.334 . S
C2873 H2850 0.950 . S
C2873 C2872 1.334 . S
C2873 C2874 1.287 . S
C2874 C2873 1.287 . S
C2874 C2875 1.524 . S
C2874 H2893 0.913 . S
C2875 H2851 0.950 . S
C2875 C2874 1.524 . S
C2875 C2876 1.415 . S
C2876 H2852 0.950 . S
C2876 C2871 1.363 . S
C2876 C2875 1.415 . S
C2877 H2853 0.951 . S
C2877 C2878 1.366 . S
C2877 C2879 1.388 . S
C2878 C2877 1.366 . S
C2878 C2882 1.385 . S
C2879 H2854 0.951 . S
C2879 C2877 1.388 . S
C2879 C2880 1.366 . S
C2880 C2879 1.366 . S
C2880 C2881 1.414 . S
C2880 C2883 1.499 . S
C2881 H2855 0.950 . S
C2881 C2880 1.414 . S
C2881 C2882 1.374 . S
C2882 H2856 0.950 . S
C2882 C2878 1.385 . S
C2882 C2881 1.374 . S
C2883 C2880 1.499 . S
C2883 C2884 1.373 . S
C2883 C2885 1.389 1_655 S
C2884 H2857 0.950 . S
C2884 C2870 1.372 1_655 S
C2884 C2883 1.373 . S
C2885 C2869 1.377 . S
C2885 C2883 1.389 1_455 S
C2885 C2886 1.524 . S
C2886 C2885 1.524 . S
C2886 C2887 1.397 . S
C2886 C2891 1.363 . S
C2887 H2858 0.950 . S
C2887 C2886 1.397 . S
C2887 C2888 1.334 . S
C2888 H2859 0.950 . S
C2888 C2887 1.334 . S
C2888 C2889 1.287 . S
C2889 C2888 1.287 . S
C2889 C2890 1.524 . S
C2889 H2892 0.999 . S
C2890 H2860 0.950 . S
C2890 C2889 1.524 . S
C2890 C2891 1.415 . S
C2891 H2861 0.950 . S
C2891 C2886 1.363 . S
C2891 C2890 1.415 . S
H2892 C2889 0.999 . S
H2893 C2874 0.913 . S
H2894 C2912 0.951 . S
H2895 C2914 0.951 . S
H2896 C2916 0.950 . S
H2897 C2917 0.950 . S
H2898 C2919 0.950 . S
H2899 C2922 0.950 . S
H2900 C2923 0.950 . S
H2901 C2925 0.950 . S
H2902 C2926 0.950 . S
H2903 C2927 0.951 . S
H2904 C2929 0.951 . S
H2905 C2931 0.950 . S
H2906 C2932 0.950 . S
H2907 C2934 0.950 . S
H2908 C2937 0.950 . S
H2909 C2938 0.950 . S
H2910 C2940 0.950 . S
H2911 C2941 0.950 . S
C2912 H2894 0.951 . S
C2912 C2913 1.366 . S
C2912 C2914 1.388 . S
C2913 C2912 1.366 . S
C2913 C2917 1.385 . S
C2914 H2895 0.951 . S
C2914 C2912 1.388 . S
C2914 C2915 1.366 . S
C2915 C2914 1.366 . S
C2915 C2916 1.414 . S
C2915 C2918 1.499 . S
C2916 H2896 0.950 . S
C2916 C2915 1.414 . S
C2916 C2917 1.374 . S
C2917 H2897 0.950 . S
C2917 C2913 1.385 . S
C2917 C2916 1.374 . S
C2918 C2915 1.499 . S
C2918 C2919 1.373 . S
C2918 C2920 1.389 . S
C2919 H2898 0.950 . S
C2919 C2918 1.373 . S
C2919 C2935 1.377 . S
C2920 C2918 1.389 . S
C2920 C2921 1.524 . S
C2920 C2934 1.377 . S
C2921 C2920 1.524 . S
C2921 C2922 1.397 . S
C2921 C2926 1.363 . S
C2922 H2899 0.950 . S
C2922 C2921 1.397 . S
C2922 C2923 1.334 . S
C2923 H2900 0.950 . S
C2923 C2922 1.334 . S
C2923 C2924 1.287 . S
C2924 C2923 1.287 . S
C2924 C2925 1.524 . S
C2924 H2943 0.913 . S
C2925 H2901 0.950 . S
C2925 C2924 1.524 . S
C2925 C2926 1.415 . S
C2926 H2902 0.950 . S
C2926 C2921 1.363 . S
C2926 C2925 1.415 . S
C2927 H2903 0.951 . S
C2927 C2928 1.366 . S
C2927 C2929 1.388 . S
C2928 C2927 1.366 . S
C2928 C2932 1.385 . S
C2929 H2904 0.951 . S
C2929 C2927 1.388 . S
C2929 C2930 1.366 . S
C2930 C2929 1.366 . S
C2930 C2931 1.414 . S
C2930 C2933 1.499 . S
C2931 H2905 0.950 . S
C2931 C2930 1.414 . S
C2931 C2932 1.374 . S
C2932 H2906 0.950 . S
C2932 C2928 1.385 . S
C2932 C2931 1.374 . S
C2933 C2930 1.499 . S
C2933 C2934 1.373 . S
C2933 C2935 1.389 . S
C2934 H2907 0.950 . S
C2934 C2920 1.377 . S
C2934 C2933 1.373 . S
C2935 C2919 1.377 . S
C2935 C2933 1.389 . S
C2935 C2936 1.524 . S
C2936 C2935 1.524 . S
C2936 C2937 1.397 . S
C2936 C2941 1.363 . S
C2937 H2908 0.950 . S
C2937 C2936 1.397 . S
C2937 C2938 1.334 . S
C2938 H2909 0.950 . S
C2938 C2937 1.334 . S
C2938 C2939 1.287 . S
C2939 C2938 1.287 . S
C2939 C2940 1.524 . S
C2939 H2942 0.999 . S
C2940 H2910 0.950 . S
C2940 C2939 1.524 . S
C2940 C2941 1.415 . S
C2941 H2911 0.950 . S
C2941 C2936 1.363 . S
C2941 C2940 1.415 . S
H2942 C2939 0.999 . S
H2943 C2924 0.913 . S
H2944 C2962 0.951 . S
H2945 C2964 0.951 1_455 S
H2946 C2966 0.950 . S
H2947 C2967 0.950 . S
H2948 C2969 0.950 . S
H2949 C2972 0.950 . S
H2950 C2973 0.950 . S
H2951 C2975 0.950 . S
H2952 C2976 0.950 . S
H2953 C2977 0.951 . S
H2954 C2979 0.951 . S
H2955 C2981 0.950 . S
H2956 C2982 0.950 . S
H2957 C2984 0.950 . S
H2958 C2987 0.950 . S
H2959 C2988 0.950 . S
H2960 C2990 0.950 . S
H2961 C2991 0.950 . S
C2962 H2944 0.951 . S
C2962 C2963 1.366 . S
C2962 C2964 1.388 . S
C2963 C2962 1.366 . S
C2963 C2967 1.385 . S
C2964 H2945 0.951 1_655 S
C2964 C2962 1.388 . S
C2964 C2965 1.366 . S
C2965 C2964 1.366 . S
C2965 C2966 1.414 . S
C2965 C2968 1.499 . S
C2966 H2946 0.950 . S
C2966 C2965 1.414 . S
C2966 C2967 1.374 . S
C2967 H2947 0.950 . S
C2967 C2963 1.385 . S
C2967 C2966 1.374 . S
C2968 C2965 1.499 . S
C2968 C2969 1.373 . S
C2968 C2970 1.389 1_655 S
C2969 H2948 0.950 . S
C2969 C2968 1.373 . S
C2969 C2985 1.377 1_655 S
C2970 C2968 1.389 1_455 S
C2970 C2971 1.524 . S
C2970 C2984 1.377 . S
C2971 C2970 1.524 . S
C2971 C2972 1.397 1_455 S
C2971 C2976 1.363 . S
C2972 H2949 0.950 . S
C2972 C2971 1.397 1_655 S
C2972 C2973 1.334 . S
C2973 H2950 0.950 . S
C2973 C2972 1.334 . S
C2973 C2974 1.287 1_655 S
C2974 C2973 1.287 1_455 S
C2974 C2975 1.524 . S
C2974 H2993 0.913 . S
C2975 H2951 0.950 . S
C2975 C2974 1.524 . S
C2975 C2976 1.415 . S
C2976 H2952 0.950 . S
C2976 C2971 1.363 . S
C2976 C2975 1.415 . S
C2977 H2953 0.951 . S
C2977 C2978 1.366 . S
C2977 C2979 1.388 . S
C2978 C2977 1.366 . S
C2978 C2982 1.385 . S
C2979 H2954 0.951 . S
C2979 C2977 1.388 . S
C2979 C2980 1.366 . S
C2980 C2979 1.366 . S
C2980 C2981 1.414 . S
C2980 C2983 1.499 . S
C2981 H2955 0.950 . S
C2981 C2980 1.414 . S
C2981 C2982 1.374 . S
C2982 H2956 0.950 . S
C2982 C2978 1.385 . S
C2982 C2981 1.374 . S
C2983 C2980 1.499 . S
C2983 C2984 1.373 . S
C2983 C2985 1.389 . S
C2984 H2957 0.950 . S
C2984 C2970 1.377 . S
C2984 C2983 1.373 . S
C2985 C2969 1.377 1_455 S
C2985 C2983 1.389 . S
C2985 C2986 1.524 . S
C2986 C2985 1.524 . S
C2986 C2987 1.397 . S
C2986 C2991 1.363 1_455 S
C2987 H2958 0.950 . S
C2987 C2986 1.397 . S
C2987 C2988 1.334 . S
C2988 H2959 0.950 . S
C2988 C2987 1.334 . S
C2988 C2989 1.287 . S
C2989 C2988 1.287 . S
C2989 C2990 1.524 1_455 S
C2989 H2992 0.999 . S
C2990 H2960 0.950 . S
C2990 C2989 1.524 1_655 S
C2990 C2991 1.415 . S
C2991 H2961 0.950 . S
C2991 C2986 1.363 1_655 S
C2991 C2990 1.415 . S
H2992 C2989 0.999 . S
H2993 C2974 0.913 . S
H2994 C3012 0.951 . S
H2995 C3014 0.951 . S
H2996 C3016 0.950 . S
H2997 C3017 0.950 . S
H2998 C3019 0.950 . S
H2999 C3022 0.950 . S
H3000 C3023 0.950 . S
H3001 C3025 0.950 . S
H3002 C3026 0.950 . S
H3003 C3027 0.951 . S
H3004 C3029 0.951 . S
H3005 C3031 0.950 . S
H3006 C3032 0.950 . S
H3007 C3034 0.950 . S
H3008 C3037 0.950 . S
H3009 C3038 0.950 . S
H3010 C3040 0.950 . S
H3011 C3041 0.950 . S
C3012 H2994 0.951 . S
C3012 C3013 1.366 . S
C3012 C3014 1.388 . S
C3013 C3012 1.366 . S
C3013 C3017 1.385 . S
C3014 H2995 0.951 . S
C3014 C3012 1.388 . S
C3014 C3015 1.366 . S
C3015 C3014 1.366 . S
C3015 C3016 1.414 . S
C3015 C3018 1.499 . S
C3016 H2996 0.950 . S
C3016 C3015 1.414 . S
C3016 C3017 1.374 . S
C3017 H2997 0.950 . S
C3017 C3013 1.385 . S
C3017 C3016 1.374 . S
C3018 C3015 1.499 . S
C3018 C3019 1.373 . S
C3018 C3020 1.389 . S
C3019 H2998 0.950 . S
C3019 C3018 1.373 . S
C3019 C3035 1.377 . S
C3020 C3018 1.389 . S
C3020 C3021 1.524 . S
C3020 C3034 1.377 . S
C3021 C3020 1.524 . S
C3021 C3022 1.397 . S
C3021 C3026 1.363 . S
C3022 H2999 0.950 . S
C3022 C3021 1.397 . S
C3022 C3023 1.334 . S
C3023 H3000 0.950 . S
C3023 C3022 1.334 . S
C3023 C3024 1.287 . S
C3024 C3023 1.287 . S
C3024 C3025 1.524 . S
C3024 H3043 0.913 . S
C3025 H3001 0.950 . S
C3025 C3024 1.524 . S
C3025 C3026 1.415 . S
C3026 H3002 0.950 . S
C3026 C3021 1.363 . S
C3026 C3025 1.415 . S
C3027 H3003 0.951 . S
C3027 C3028 1.366 . S
C3027 C3029 1.388 . S
C3028 C3027 1.366 . S
C3028 C3032 1.385 . S
C3029 H3004 0.951 . S
C3029 C3027 1.388 . S
C3029 C3030 1.366 . S
C3030 C3029 1.366 . S
C3030 C3031 1.414 . S
C3030 C3033 1.499 . S
C3031 H3005 0.950 . S
C3031 C3030 1.414 . S
C3031 C3032 1.374 . S
C3032 H3006 0.950 . S
C3032 C3028 1.385 . S
C3032 C3031 1.374 . S
C3033 C3030 1.499 . S
C3033 C3034 1.373 . S
C3033 C3035 1.389 . S
C3034 H3007 0.950 . S
C3034 C3020 1.377 . S
C3034 C3033 1.373 . S
C3035 C3019 1.377 . S
C3035 C3033 1.389 . S
C3035 C3036 1.524 . S
C3036 C3035 1.524 . S
C3036 C3037 1.397 . S
C3036 C3041 1.363 . S
C3037 H3008 0.950 . S
C3037 C3036 1.397 . S
C3037 C3038 1.334 . S
C3038 H3009 0.950 . S
C3038 C3037 1.334 . S
C3038 C3039 1.287 . S
C3039 C3038 1.287 . S
C3039 C3040 1.524 . S
C3039 H3042 0.999 . S
C3040 H3010 0.950 . S
C3040 C3039 1.524 . S
C3040 C3041 1.415 . S
C3041 H3011 0.950 . S
C3041 C3036 1.363 . S
C3041 C3040 1.415 . S
H3042 C3039 0.999 . S
H3043 C3024 0.913 . S
H3044 C3062 0.951 . S
H3045 C3064 0.951 . S
H3046 C3066 0.950 . S
H3047 C3067 0.950 . S
H3048 C3069 0.950 . S
H3049 C3072 0.950 . S
H3050 C3073 0.950 . S
H3051 C3075 0.950 . S
H3052 C3076 0.950 . S
H3053 C3077 0.951 . S
H3054 C3079 0.951 . S
H3055 C3081 0.950 . S
H3056 C3082 0.950 . S
H3057 C3084 0.950 . S
H3058 C3087 0.950 . S
H3059 C3088 0.950 . S
H3060 C3090 0.950 . S
H3061 C3091 0.950 . S
C3062 H3044 0.951 . S
C3062 C3063 1.366 . S
C3062 C3064 1.388 . S
C3063 C3062 1.366 . S
C3063 C3067 1.385 . S
C3064 H3045 0.951 . S
C3064 C3062 1.388 . S
C3064 C3065 1.366 . S
C3065 C3064 1.366 . S
C3065 C3066 1.414 . S
C3065 C3068 1.499 . S
C3066 H3046 0.950 . S
C3066 C3065 1.414 . S
C3066 C3067 1.374 . S
C3067 H3047 0.950 . S
C3067 C3063 1.385 . S
C3067 C3066 1.374 . S
C3068 C3065 1.499 . S
C3068 C3069 1.373 . S
C3068 C3070 1.389 . S
C3069 H3048 0.950 . S
C3069 C3068 1.373 . S
C3069 C3085 1.377 . S
C3070 C3068 1.389 . S
C3070 C3071 1.524 . S
C3070 C3084 1.377 . S
C3071 C3070 1.524 . S
C3071 C3072 1.397 . S
C3071 C3076 1.363 . S
C3072 H3049 0.950 . S
C3072 C3071 1.397 . S
C3072 C3073 1.334 . S
C3073 H3050 0.950 . S
C3073 C3072 1.334 . S
C3073 C3074 1.287 . S
C3074 C3073 1.287 . S
C3074 C3075 1.524 . S
C3074 H3093 0.913 . S
C3075 H3051 0.950 . S
C3075 C3074 1.524 . S
C3075 C3076 1.415 . S
C3076 H3052 0.950 . S
C3076 C3071 1.363 . S
C3076 C3075 1.415 . S
C3077 H3053 0.951 . S
C3077 C3078 1.366 . S
C3077 C3079 1.388 . S
C3078 C3077 1.366 . S
C3078 C3082 1.385 . S
C3079 H3054 0.951 . S
C3079 C3077 1.388 . S
C3079 C3080 1.366 . S
C3080 C3079 1.366 . S
C3080 C3081 1.414 . S
C3080 C3083 1.499 . S
C3081 H3055 0.950 . S
C3081 C3080 1.414 . S
C3081 C3082 1.374 . S
C3082 H3056 0.950 . S
C3082 C3078 1.385 . S
C3082 C3081 1.374 . S
C3083 C3080 1.499 . S
C3083 C3084 1.373 . S
C3083 C3085 1.389 . S
C3084 H3057 0.950 . S
C3084 C3070 1.377 . S
C3084 C3083 1.373 . S
C3085 C3069 1.377 . S
C3085 C3083 1.389 . S
C3085 C3086 1.524 . S
C3086 C3085 1.524 . S
C3086 C3087 1.397 . S
C3086 C3091 1.363 . S
C3087 H3058 0.950 . S
C3087 C3086 1.397 . S
C3087 C3088 1.334 . S
C3088 H3059 0.950 . S
C3088 C3087 1.334 . S
C3088 C3089 1.287 . S
C3089 C3088 1.287 . S
C3089 C3090 1.524 . S
C3089 H3092 0.999 . S
C3090 H3060 0.950 . S
C3090 C3089 1.524 . S
C3090 C3091 1.415 . S
C3091 H3061 0.950 . S
C3091 C3086 1.363 . S
C3091 C3090 1.415 . S
H3092 C3089 0.999 . S
H3093 C3074 0.913 . S
H3094 C3112 0.941 1_556 S
H3095 C3114 0.951 . S
H3096 C3116 0.950 . S
H3097 C3117 0.950 . S
H3098 C3119 0.950 . S
H3099 C3122 0.950 . S
H3100 C3123 0.950 1_556 S
H3101 C3125 0.950 . S
H3102 C3126 0.950 . S
H3103 C3127 0.951 . S
H3104 C3129 0.951 . S
H3105 C3131 0.950 . S
H3106 C3132 0.950 . S
H3107 C3134 0.950 . S
H3108 C3137 0.950 . S
H3109 C3138 0.950 . S
H3110 C3140 0.950 . S
H3111 C3141 0.950 . S
C3112 H3094 0.941 1_554 S
C3112 C3113 1.364 1_554 S
C3112 C3114 1.400 . S
C3113 C3112 1.364 1_556 S
C3113 C3117 1.385 1_556 S
C3114 H3095 0.951 . S
C3114 C3112 1.400 . S
C3114 C3115 1.366 . S
C3115 C3114 1.366 . S
C3115 C3116 1.414 . S
C3115 C3118 1.499 . S
C3116 H3096 0.950 . S
C3116 C3115 1.414 . S
C3116 C3117 1.374 . S
C3117 H3097 0.950 . S
C3117 C3113 1.385 1_554 S
C3117 C3116 1.374 . S
C3118 C3115 1.499 . S
C3118 C3119 1.373 . S
C3118 C3120 1.389 . S
C3119 H3098 0.950 . S
C3119 C3118 1.373 . S
C3119 C3135 1.377 . S
C3120 C3118 1.389 . S
C3120 C3121 1.524 . S
C3120 C3134 1.377 . S
C3121 C3120 1.524 . S
C3121 C3122 1.397 . S
C3121 C3126 1.363 . S
C3122 H3099 0.950 . S
C3122 C3121 1.397 . S
C3122 C3123 1.334 . S
C3123 H3100 0.950 1_554 S
C3123 C3122 1.334 . S
C3123 C3124 1.282 1_554 S
C3124 C3123 1.282 1_556 S
C3124 C3125 1.510 1_556 S
C3124 H3143 0.936 . S
C3125 H3101 0.950 . S
C3125 C3124 1.510 1_554 S
C3125 C3126 1.415 . S
C3126 H3102 0.950 . S
C3126 C3121 1.363 . S
C3126 C3125 1.415 . S
C3127 H3103 0.951 . S
C3127 C3128 1.366 . S
C3127 C3129 1.388 . S
C3128 C3127 1.366 . S
C3128 C3132 1.385 . S
C3129 H3104 0.951 . S
C3129 C3127 1.388 . S
C3129 C3130 1.366 . S
C3130 C3129 1.366 . S
C3130 C3131 1.414 . S
C3130 C3133 1.499 . S
C3131 H3105 0.950 . S
C3131 C3130 1.414 . S
C3131 C3132 1.374 . S
C3132 H3106 0.950 . S
C3132 C3128 1.385 . S
C3132 C3131 1.374 . S
C3133 C3130 1.499 . S
C3133 C3134 1.373 . S
C3133 C3135 1.389 . S
C3134 H3107 0.950 . S
C3134 C3120 1.377 . S
C3134 C3133 1.373 . S
C3135 C3119 1.377 . S
C3135 C3133 1.389 . S
C3135 C3136 1.524 . S
C3136 C3135 1.524 . S
C3136 C3137 1.397 . S
C3136 C3141 1.363 . S
C3137 H3108 0.950 . S
C3137 C3136 1.397 . S
C3137 C3138 1.334 . S
C3138 H3109 0.950 . S
C3138 C3137 1.334 . S
C3138 C3139 1.287 . S
C3139 C3138 1.287 . S
C3139 C3140 1.524 . S
C3139 H3142 0.999 . S
C3140 H3110 0.950 . S
C3140 C3139 1.524 . S
C3140 C3141 1.415 . S
C3141 H3111 0.950 . S
C3141 C3136 1.363 . S
C3141 C3140 1.415 . S
H3142 C3139 0.999 . S
H3143 C3124 0.936 . S
H3144 C3162 0.951 . S
H3145 C3164 0.951 . S
H3146 C3166 0.950 . S
H3147 C3167 0.950 . S
H3148 C3169 0.950 . S
H3149 C3172 0.950 . S
H3150 C3173 0.950 . S
H3151 C3175 0.950 . S
H3152 C3176 0.950 . S
H3153 C3177 0.951 . S
H3154 C3179 0.951 . S
H3155 C3181 0.950 . S
H3156 C3182 0.950 . S
H3157 C3184 0.950 . S
H3158 C3187 0.950 . S
H3159 C3188 0.950 . S
H3160 C3190 0.950 . S
H3161 C3191 0.950 . S
C3162 H3144 0.951 . S
C3162 C3163 1.366 . S
C3162 C3164 1.388 . S
C3163 C3162 1.366 . S
C3163 C3167 1.385 . S
C3164 H3145 0.951 . S
C3164 C3162 1.388 . S
C3164 C3165 1.366 . S
C3165 C3164 1.366 . S
C3165 C3166 1.414 . S
C3165 C3168 1.499 . S
C3166 H3146 0.950 . S
C3166 C3165 1.414 . S
C3166 C3167 1.374 . S
C3167 H3147 0.950 . S
C3167 C3163 1.385 . S
C3167 C3166 1.374 . S
C3168 C3165 1.499 . S
C3168 C3169 1.373 1_455 S
C3168 C3170 1.389 . S
C3169 H3148 0.950 . S
C3169 C3168 1.373 1_655 S
C3169 C3185 1.377 . S
C3170 C3168 1.389 . S
C3170 C3171 1.524 . S
C3170 C3184 1.377 . S
C3171 C3170 1.524 . S
C3171 C3172 1.397 . S
C3171 C3176 1.363 . S
C3172 H3149 0.950 . S
C3172 C3171 1.397 . S
C3172 C3173 1.334 . S
C3173 H3150 0.950 . S
C3173 C3172 1.334 . S
C3173 C3174 1.287 . S
C3174 C3173 1.287 . S
C3174 C3175 1.524 . S
C3174 H3193 0.913 . S
C3175 H3151 0.950 . S
C3175 C3174 1.524 . S
C3175 C3176 1.415 . S
C3176 H3152 0.950 . S
C3176 C3171 1.363 . S
C3176 C3175 1.415 . S
C3177 H3153 0.951 . S
C3177 C3178 1.366 . S
C3177 C3179 1.388 . S
C3178 C3177 1.366 . S
C3178 C3182 1.385 . S
C3179 H3154 0.951 . S
C3179 C3177 1.388 . S
C3179 C3180 1.366 . S
C3180 C3179 1.366 . S
C3180 C3181 1.414 . S
C3180 C3183 1.499 . S
C3181 H3155 0.950 . S
C3181 C3180 1.414 . S
C3181 C3182 1.374 . S
C3182 H3156 0.950 . S
C3182 C3178 1.385 . S
C3182 C3181 1.374 . S
C3183 C3180 1.499 . S
C3183 C3184 1.373 1_655 S
C3183 C3185 1.389 . S
C3184 H3157 0.950 . S
C3184 C3170 1.377 . S
C3184 C3183 1.373 1_455 S
C3185 C3169 1.377 . S
C3185 C3183 1.389 . S
C3185 C3186 1.524 . S
C3186 C3185 1.524 . S
C3186 C3187 1.397 . S
C3186 C3191 1.363 . S
C3187 H3158 0.950 . S
C3187 C3186 1.397 . S
C3187 C3188 1.334 . S
C3188 H3159 0.950 . S
C3188 C3187 1.334 . S
C3188 C3189 1.287 . S
C3189 C3188 1.287 . S
C3189 C3190 1.524 . S
C3189 H3192 0.999 . S
C3190 H3160 0.950 . S
C3190 C3189 1.524 . S
C3190 C3191 1.415 . S
C3191 H3161 0.950 . S
C3191 C3186 1.363 . S
C3191 C3190 1.415 . S
H3192 C3189 0.999 . S
H3193 C3174 0.913 . S
H3194 C3212 0.951 . S
H3195 C3214 0.951 . S
H3196 C3216 0.950 . S
H3197 C3217 0.950 . S
H3198 C3219 0.950 . S
H3199 C3222 0.950 . S
H3200 C3223 0.950 . S
H3201 C3225 0.950 . S
H3202 C3226 0.950 . S
H3203 C3227 0.951 . S
H3204 C3229 0.951 . S
H3205 C3231 0.950 . S
H3206 C3232 0.950 . S
H3207 C3234 0.950 . S
H3208 C3237 0.950 . S
H3209 C3238 0.950 . S
H3210 C3240 0.950 . S
H3211 C3241 0.950 . S
C3212 H3194 0.951 . S
C3212 C3213 1.366 . S
C3212 C3214 1.388 . S
C3213 C3212 1.366 . S
C3213 C3217 1.385 . S
C3214 H3195 0.951 . S
C3214 C3212 1.388 . S
C3214 C3215 1.366 . S
C3215 C3214 1.366 . S
C3215 C3216 1.414 . S
C3215 C3218 1.499 . S
C3216 H3196 0.950 . S
C3216 C3215 1.414 . S
C3216 C3217 1.374 . S
C3217 H3197 0.950 . S
C3217 C3213 1.385 . S
C3217 C3216 1.374 . S
C3218 C3215 1.499 . S
C3218 C3219 1.373 . S
C3218 C3220 1.389 . S
C3219 H3198 0.950 . S
C3219 C3218 1.373 . S
C3219 C3235 1.377 . S
C3220 C3218 1.389 . S
C3220 C3221 1.524 . S
C3220 C3234 1.377 . S
C3221 C3220 1.524 . S
C3221 C3222 1.397 . S
C3221 C3226 1.363 . S
C3222 H3199 0.950 . S
C3222 C3221 1.397 . S
C3222 C3223 1.334 . S
C3223 H3200 0.950 . S
C3223 C3222 1.334 . S
C3223 C3224 1.287 . S
C3224 C3223 1.287 . S
C3224 C3225 1.524 . S
C3224 H3243 0.913 . S
C3225 H3201 0.950 . S
C3225 C3224 1.524 . S
C3225 C3226 1.415 . S
C3226 H3202 0.950 . S
C3226 C3221 1.363 . S
C3226 C3225 1.415 . S
C3227 H3203 0.951 . S
C3227 C3228 1.366 . S
C3227 C3229 1.388 . S
C3228 C3227 1.366 . S
C3228 C3232 1.385 . S
C3229 H3204 0.951 . S
C3229 C3227 1.388 . S
C3229 C3230 1.366 . S
C3230 C3229 1.366 . S
C3230 C3231 1.414 . S
C3230 C3233 1.499 . S
C3231 H3205 0.950 . S
C3231 C3230 1.414 . S
C3231 C3232 1.374 . S
C3232 H3206 0.950 . S
C3232 C3228 1.385 . S
C3232 C3231 1.374 . S
C3233 C3230 1.499 . S
C3233 C3234 1.373 . S
C3233 C3235 1.389 . S
C3234 H3207 0.950 . S
C3234 C3220 1.377 . S
C3234 C3233 1.373 . S
C3235 C3219 1.377 . S
C3235 C3233 1.389 . S
C3235 C3236 1.524 . S
C3236 C3235 1.524 . S
C3236 C3237 1.397 . S
C3236 C3241 1.363 . S
C3237 H3208 0.950 . S
C3237 C3236 1.397 . S
C3237 C3238 1.334 . S
C3238 H3209 0.950 . S
C3238 C3237 1.334 . S
C3238 C3239 1.287 . S
C3239 C3238 1.287 . S
C3239 C3240 1.524 . S
C3239 H3242 0.999 . S
C3240 H3210 0.950 . S
C3240 C3239 1.524 . S
C3240 C3241 1.415 . S
C3241 H3211 0.950 . S
C3241 C3236 1.363 . S
C3241 C3240 1.415 . S
H3242 C3239 0.999 . S
H3243 C3224 0.913 . S
H3244 C3262 0.951 . S
H3245 C3264 0.951 . S
H3246 C3266 0.950 . S
H3247 C3267 0.950 . S
H3248 C3269 0.950 . S
H3249 C3272 0.950 . S
H3250 C3273 0.950 . S
H3251 C3275 0.950 . S
H3252 C3276 0.950 . S
H3253 C3277 0.951 . S
H3254 C3279 0.951 . S
H3255 C3281 0.950 . S
H3256 C3282 0.950 . S
H3257 C3284 0.950 . S
H3258 C3287 0.950 . S
H3259 C3288 0.950 . S
H3260 C3290 0.950 . S
H3261 C3291 0.950 . S
C3262 H3244 0.951 . S
C3262 C3263 1.366 . S
C3262 C3264 1.388 . S
C3263 C3262 1.366 . S
C3263 C3267 1.385 . S
C3264 H3245 0.951 . S
C3264 C3262 1.388 . S
C3264 C3265 1.366 . S
C3265 C3264 1.366 . S
C3265 C3266 1.414 . S
C3265 C3268 1.499 . S
C3266 H3246 0.950 . S
C3266 C3265 1.414 . S
C3266 C3267 1.374 . S
C3267 H3247 0.950 . S
C3267 C3263 1.385 . S
C3267 C3266 1.374 . S
C3268 C3265 1.499 . S
C3268 C3269 1.373 . S
C3268 C3270 1.389 . S
C3269 H3248 0.950 . S
C3269 C3268 1.373 . S
C3269 C3285 1.377 . S
C3270 C3268 1.389 . S
C3270 C3271 1.524 . S
C3270 C3284 1.377 . S
C3271 C3270 1.524 . S
C3271 C3272 1.397 . S
C3271 C3276 1.363 . S
C3272 H3249 0.950 . S
C3272 C3271 1.397 . S
C3272 C3273 1.334 . S
C3273 H3250 0.950 . S
C3273 C3272 1.334 . S
C3273 C3274 1.287 . S
C3274 C3273 1.287 . S
C3274 C3275 1.524 . S
C3274 H3293 0.913 . S
C3275 H3251 0.950 . S
C3275 C3274 1.524 . S
C3275 C3276 1.415 . S
C3276 H3252 0.950 . S
C3276 C3271 1.363 . S
C3276 C3275 1.415 . S
C3277 H3253 0.951 . S
C3277 C3278 1.366 . S
C3277 C3279 1.388 . S
C3278 C3277 1.366 . S
C3278 C3282 1.385 . S
C3279 H3254 0.951 . S
C3279 C3277 1.388 . S
C3279 C3280 1.366 . S
C3280 C3279 1.366 . S
C3280 C3281 1.414 . S
C3280 C3283 1.499 . S
C3281 H3255 0.950 . S
C3281 C3280 1.414 . S
C3281 C3282 1.374 . S
C3282 H3256 0.950 . S
C3282 C3278 1.385 . S
C3282 C3281 1.374 . S
C3283 C3280 1.499 . S
C3283 C3284 1.373 . S
C3283 C3285 1.389 . S
C3284 H3257 0.950 . S
C3284 C3270 1.377 . S
C3284 C3283 1.373 . S
C3285 C3269 1.377 . S
C3285 C3283 1.389 . S
C3285 C3286 1.524 . S
C3286 C3285 1.524 . S
C3286 C3287 1.397 . S
C3286 C3291 1.363 . S
C3287 H3258 0.950 . S
C3287 C3286 1.397 . S
C3287 C3288 1.334 . S
C3288 H3259 0.950 . S
C3288 C3287 1.334 . S
C3288 C3289 1.287 . S
C3289 C3288 1.287 . S
C3289 C3290 1.524 . S
C3289 H3292 0.999 . S
C3290 H3260 0.950 . S
C3290 C3289 1.524 . S
C3290 C3291 1.415 . S
C3291 H3261 0.950 . S
C3291 C3286 1.363 . S
C3291 C3290 1.415 . S
H3292 C3289 0.999 . S
H3293 C3274 0.913 . S
H3294 C3312 0.951 . S
H3295 C3314 0.951 . S
H3296 C3316 0.950 . S
H3297 C3317 0.959 . S
H3298 C3319 0.950 . S
H3299 C3322 0.950 . S
H3300 C3323 0.950 . S
H3301 C3325 0.950 . S
H3302 C3326 0.950 . S
H3303 C3327 0.951 . S
H3304 C3329 0.951 . S
H3305 C3331 0.950 . S
H3306 C3332 0.950 . S
H3307 C3334 0.950 . S
H3308 C3337 0.950 . S
H3309 C3338 0.950 . S
H3310 C3340 0.950 . S
H3311 C3341 0.950 . S
C3312 H3294 0.951 . S
C3312 C3313 1.366 1_556 S
C3312 C3314 1.388 . S
C3313 C3312 1.366 1_554 S
C3313 C3317 1.386 . S
C3314 H3295 0.951 . S
C3314 C3312 1.388 . S
C3314 C3315 1.366 . S
C3315 C3314 1.366 . S
C3315 C3316 1.414 . S
C3315 C3318 1.499 . S
C3316 H3296 0.950 . S
C3316 C3315 1.414 . S
C3316 C3317 1.364 1_556 S
C3317 H3297 0.959 . S
C3317 C3313 1.386 . S
C3317 C3316 1.364 1_554 S
C3318 C3315 1.499 . S
C3318 C3319 1.373 . S
C3318 C3320 1.389 . S
C3319 H3298 0.950 . S
C3319 C3318 1.373 . S
C3319 C3335 1.377 . S
C3320 C3318 1.389 . S
C3320 C3321 1.524 . S
C3320 C3334 1.377 . S
C3321 C3320 1.524 . S
C3321 C3322 1.397 . S
C3321 C3326 1.363 . S
C3322 H3299 0.950 . S
C3322 C3321 1.397 . S
C3322 C3323 1.334 . S
C3323 H3300 0.950 . S
C3323 C3322 1.334 . S
C3323 C3324 1.287 . S
C3324 C3323 1.287 . S
C3324 C3325 1.524 . S
C3324 H3343 0.913 . S
C3325 H3301 0.950 . S
C3325 C3324 1.524 . S
C3325 C3326 1.415 . S
C3326 H3302 0.950 . S
C3326 C3321 1.363 . S
C3326 C3325 1.415 . S
C3327 H3303 0.951 . S
C3327 C3328 1.366 . S
C3327 C3329 1.388 . S
C3328 C3327 1.366 . S
C3328 C3332 1.385 . S
C3329 H3304 0.951 . S
C3329 C3327 1.388 . S
C3329 C3330 1.366 . S
C3330 C3329 1.366 . S
C3330 C3331 1.414 . S
C3330 C3333 1.499 . S
C3331 H3305 0.950 . S
C3331 C3330 1.414 . S
C3331 C3332 1.374 . S
C3332 H3306 0.950 . S
C3332 C3328 1.385 . S
C3332 C3331 1.374 . S
C3333 C3330 1.499 . S
C3333 C3334 1.373 . S
C3333 C3335 1.389 . S
C3334 H3307 0.950 . S
C3334 C3320 1.377 . S
C3334 C3333 1.373 . S
C3335 C3319 1.377 . S
C3335 C3333 1.389 . S
C3335 C3336 1.524 . S
C3336 C3335 1.524 . S
C3336 C3337 1.397 . S
C3336 C3341 1.363 . S
C3337 H3308 0.950 . S
C3337 C3336 1.397 . S
C3337 C3338 1.334 . S
C3338 H3309 0.950 . S
C3338 C3337 1.334 . S
C3338 C3339 1.287 . S
C3339 C3338 1.287 . S
C3339 C3340 1.524 . S
C3339 H3342 0.999 . S
C3340 H3310 0.950 . S
C3340 C3339 1.524 . S
C3340 C3341 1.415 . S
C3341 H3311 0.950 . S
C3341 C3336 1.363 . S
C3341 C3340 1.415 . S
H3342 C3339 0.999 . S
H3343 C3324 0.913 . S
H3344 C3362 0.951 . S
H3345 C3364 0.951 . S
H3346 C3366 0.950 . S
H3347 C3367 0.950 . S
H3348 C3369 0.950 . S
H3349 C3372 0.950 . S
H3350 C3373 0.950 . S
H3351 C3375 0.950 . S
H3352 C3376 0.950 . S
H3353 C3377 0.951 . S
H3354 C3379 0.951 . S
H3355 C3381 0.950 . S
H3356 C3382 0.950 . S
H3357 C3384 0.950 . S
H3358 C3387 0.950 . S
H3359 C3388 0.950 . S
H3360 C3390 0.950 . S
H3361 C3391 0.950 . S
C3362 H3344 0.951 . S
C3362 C3363 1.366 . S
C3362 C3364 1.388 . S
C3363 C3362 1.366 . S
C3363 C3367 1.385 . S
C3364 H3345 0.951 . S
C3364 C3362 1.388 . S
C3364 C3365 1.366 . S
C3365 C3364 1.366 . S
C3365 C3366 1.414 . S
C3365 C3368 1.499 . S
C3366 H3346 0.950 . S
C3366 C3365 1.414 . S
C3366 C3367 1.374 . S
C3367 H3347 0.950 . S
C3367 C3363 1.385 . S
C3367 C3366 1.374 . S
C3368 C3365 1.499 . S
C3368 C3369 1.373 . S
C3368 C3370 1.389 . S
C3369 H3348 0.950 . S
C3369 C3368 1.373 . S
C3369 C3385 1.377 . S
C3370 C3368 1.389 . S
C3370 C3371 1.524 . S
C3370 C3384 1.377 . S
C3371 C3370 1.524 . S
C3371 C3372 1.397 . S
C3371 C3376 1.363 . S
C3372 H3349 0.950 . S
C3372 C3371 1.397 . S
C3372 C3373 1.334 . S
C3373 H3350 0.950 . S
C3373 C3372 1.334 . S
C3373 C3374 1.287 . S
C3374 C3373 1.287 . S
C3374 C3375 1.524 . S
C3374 H3393 0.913 . S
C3375 H3351 0.950 . S
C3375 C3374 1.524 . S
C3375 C3376 1.415 . S
C3376 H3352 0.950 . S
C3376 C3371 1.363 . S
C3376 C3375 1.415 . S
C3377 H3353 0.951 . S
C3377 C3378 1.366 . S
C3377 C3379 1.388 . S
C3378 C3377 1.366 . S
C3378 C3382 1.385 . S
C3379 H3354 0.951 . S
C3379 C3377 1.388 . S
C3379 C3380 1.366 . S
C3380 C3379 1.366 . S
C3380 C3381 1.414 . S
C3380 C3383 1.499 . S
C3381 H3355 0.950 . S
C3381 C3380 1.414 . S
C3381 C3382 1.374 . S
C3382 H3356 0.950 . S
C3382 C3378 1.385 . S
C3382 C3381 1.374 . S
C3383 C3380 1.499 . S
C3383 C3384 1.373 . S
C3383 C3385 1.389 . S
C3384 H3357 0.950 . S
C3384 C3370 1.377 . S
C3384 C3383 1.373 . S
C3385 C3369 1.377 . S
C3385 C3383 1.389 . S
C3385 C3386 1.524 . S
C3386 C3385 1.524 . S
C3386 C3387 1.397 . S
C3386 C3391 1.363 . S
C3387 H3358 0.950 . S
C3387 C3386 1.397 . S
C3387 C3388 1.334 . S
C3388 H3359 0.950 . S
C3388 C3387 1.334 . S
C3388 C3389 1.287 . S
C3389 C3388 1.287 . S
C3389 C3390 1.524 . S
C3389 H3392 0.999 . S
C3390 H3360 0.950 . S
C3390 C3389 1.524 . S
C3390 C3391 1.415 . S
C3391 H3361 0.950 . S
C3391 C3386 1.363 . S
C3391 C3390 1.415 . S
H3392 C3389 0.999 . S
H3393 C3374 0.913 . S
H3394 C3412 0.951 . S
H3395 C3414 0.951 . S
H3396 C3416 0.950 . S
H3397 C3417 0.950 . S
H3398 C3419 0.950 . S
H3399 C3422 0.950 . S
H3400 C3423 0.950 . S
H3401 C3425 0.950 . S
H3402 C3426 0.950 . S
H3403 C3427 0.951 . S
H3404 C3429 0.951 . S
H3405 C3431 0.950 . S
H3406 C3432 0.950 . S
H3407 C3434 0.950 . S
H3408 C3437 0.950 . S
H3409 C3438 0.950 . S
H3410 C3440 0.950 . S
H3411 C3441 0.950 . S
C3412 H3394 0.951 . S
C3412 C3413 1.366 . S
C3412 C3414 1.388 . S
C3413 C3412 1.366 . S
C3413 C3417 1.385 . S
C3414 H3395 0.951 . S
C3414 C3412 1.388 . S
C3414 C3415 1.366 . S
C3415 C3414 1.366 . S
C3415 C3416 1.414 . S
C3415 C3418 1.499 . S
C3416 H3396 0.950 . S
C3416 C3415 1.414 . S
C3416 C3417 1.374 . S
C3417 H3397 0.950 . S
C3417 C3413 1.385 . S
C3417 C3416 1.374 . S
C3418 C3415 1.499 . S
C3418 C3419 1.373 . S
C3418 C3420 1.389 . S
C3419 H3398 0.950 . S
C3419 C3418 1.373 . S
C3419 C3435 1.377 . S
C3420 C3418 1.389 . S
C3420 C3421 1.524 . S
C3420 C3434 1.377 . S
C3421 C3420 1.524 . S
C3421 C3422 1.397 . S
C3421 C3426 1.363 . S
C3422 H3399 0.950 . S
C3422 C3421 1.397 . S
C3422 C3423 1.334 . S
C3423 H3400 0.950 . S
C3423 C3422 1.334 . S
C3423 C3424 1.287 . S
C3424 C3423 1.287 . S
C3424 C3425 1.524 . S
C3424 H3443 0.913 . S
C3425 H3401 0.950 . S
C3425 C3424 1.524 . S
C3425 C3426 1.415 . S
C3426 H3402 0.950 . S
C3426 C3421 1.363 . S
C3426 C3425 1.415 . S
C3427 H3403 0.951 . S
C3427 C3428 1.366 . S
C3427 C3429 1.388 . S
C3428 C3427 1.366 . S
C3428 C3432 1.385 . S
C3429 H3404 0.951 . S
C3429 C3427 1.388 . S
C3429 C3430 1.366 . S
C3430 C3429 1.366 . S
C3430 C3431 1.414 . S
C3430 C3433 1.499 . S
C3431 H3405 0.950 . S
C3431 C3430 1.414 . S
C3431 C3432 1.374 . S
C3432 H3406 0.950 . S
C3432 C3428 1.385 . S
C3432 C3431 1.374 . S
C3433 C3430 1.499 . S
C3433 C3434 1.373 . S
C3433 C3435 1.389 . S
C3434 H3407 0.950 . S
C3434 C3420 1.377 . S
C3434 C3433 1.373 . S
C3435 C3419 1.377 . S
C3435 C3433 1.389 . S
C3435 C3436 1.524 . S
C3436 C3435 1.524 . S
C3436 C3437 1.397 . S
C3436 C3441 1.363 . S
C3437 H3408 0.950 . S
C3437 C3436 1.397 . S
C3437 C3438 1.334 . S
C3438 H3409 0.950 . S
C3438 C3437 1.334 . S
C3438 C3439 1.287 . S
C3439 C3438 1.287 . S
C3439 C3440 1.524 . S
C3439 H3442 0.999 . S
C3440 H3410 0.950 . S
C3440 C3439 1.524 . S
C3440 C3441 1.415 . S
C3441 H3411 0.950 . S
C3441 C3436 1.363 . S
C3441 C3440 1.415 . S
H3442 C3439 0.999 . S
H3443 C3424 0.913 . S
H3444 C3462 0.951 . S
H3445 C3464 0.951 . S
H3446 C3466 0.950 . S
H3447 C3467 0.950 . S
H3448 C3469 0.950 . S
H3449 C3472 0.950 . S
H3450 C3473 0.950 . S
H3451 C3475 0.950 . S
H3452 C3476 0.950 . S
H3453 C3477 0.951 . S
H3454 C3479 0.951 . S
H3455 C3481 0.950 . S
H3456 C3482 0.950 . S
H3457 C3484 0.950 . S
H3458 C3487 0.950 . S
H3459 C3488 0.950 . S
H3460 C3490 0.950 . S
H3461 C3491 0.950 . S
C3462 H3444 0.951 . S
C3462 C3463 1.366 . S
C3462 C3464 1.388 . S
C3463 C3462 1.366 . S
C3463 C3467 1.385 . S
C3464 H3445 0.951 . S
C3464 C3462 1.388 . S
C3464 C3465 1.366 . S
C3465 C3464 1.366 . S
C3465 C3466 1.414 . S
C3465 C3468 1.499 . S
C3466 H3446 0.950 . S
C3466 C3465 1.414 . S
C3466 C3467 1.374 . S
C3467 H3447 0.950 . S
C3467 C3463 1.385 . S
C3467 C3466 1.374 . S
C3468 C3465 1.499 . S
C3468 C3469 1.373 . S
C3468 C3470 1.389 . S
C3469 H3448 0.950 . S
C3469 C3468 1.373 . S
C3469 C3485 1.377 . S
C3470 C3468 1.389 . S
C3470 C3471 1.524 . S
C3470 C3484 1.377 . S
C3471 C3470 1.524 . S
C3471 C3472 1.397 . S
C3471 C3476 1.363 . S
C3472 H3449 0.950 . S
C3472 C3471 1.397 . S
C3472 C3473 1.334 . S
C3473 H3450 0.950 . S
C3473 C3472 1.334 . S
C3473 C3474 1.287 . S
C3474 C3473 1.287 . S
C3474 C3475 1.524 . S
C3474 H3493 0.913 . S
C3475 H3451 0.950 . S
C3475 C3474 1.524 . S
C3475 C3476 1.415 . S
C3476 H3452 0.950 . S
C3476 C3471 1.363 . S
C3476 C3475 1.415 . S
C3477 H3453 0.951 . S
C3477 C3478 1.366 . S
C3477 C3479 1.388 . S
C3478 C3477 1.366 . S
C3478 C3482 1.385 . S
C3479 H3454 0.951 . S
C3479 C3477 1.388 . S
C3479 C3480 1.366 . S
C3480 C3479 1.366 . S
C3480 C3481 1.414 . S
C3480 C3483 1.499 . S
C3481 H3455 0.950 . S
C3481 C3480 1.414 . S
C3481 C3482 1.374 . S
C3482 H3456 0.950 . S
C3482 C3478 1.385 . S
C3482 C3481 1.374 . S
C3483 C3480 1.499 . S
C3483 C3484 1.373 . S
C3483 C3485 1.389 . S
C3484 H3457 0.950 . S
C3484 C3470 1.377 . S
C3484 C3483 1.373 . S
C3485 C3469 1.377 . S
C3485 C3483 1.389 . S
C3485 C3486 1.524 . S
C3486 C3485 1.524 . S
C3486 C3487 1.397 . S
C3486 C3491 1.363 . S
C3487 H3458 0.950 . S
C3487 C3486 1.397 . S
C3487 C3488 1.334 . S
C3488 H3459 0.950 . S
C3488 C3487 1.334 . S
C3488 C3489 1.287 . S
C3489 C3488 1.287 . S
C3489 C3490 1.524 . S
C3489 H3492 0.999 . S
C3490 H3460 0.950 . S
C3490 C3489 1.524 . S
C3490 C3491 1.415 . S
C3491 H3461 0.950 . S
C3491 C3486 1.363 . S
C3491 C3490 1.415 . S
H3492 C3489 0.999 . S
H3493 C3474 0.913 . S
H3494 C3512 0.951 . S
H3495 C3514 0.951 . S
H3496 C3516 0.950 . S
H3497 C3517 0.950 . S
H3498 C3519 0.950 . S
H3499 C3522 0.950 . S
H3500 C3523 0.950 . S
H3501 C3525 0.950 . S
H3502 C3526 0.950 . S
H3503 C3527 0.951 . S
H3504 C3529 0.951 . S
H3505 C3531 0.950 . S
H3506 C3532 0.950 . S
H3507 C3534 0.950 . S
H3508 C3537 0.950 . S
H3509 C3538 0.950 . S
H3510 C3540 0.950 . S
H3511 C3541 0.950 . S
C3512 H3494 0.951 . S
C3512 C3513 1.366 . S
C3512 C3514 1.388 . S
C3513 C3512 1.366 . S
C3513 C3517 1.385 . S
C3514 H3495 0.951 . S
C3514 C3512 1.388 . S
C3514 C3515 1.366 . S
C3515 C3514 1.366 . S
C3515 C3516 1.414 . S
C3515 C3518 1.499 . S
C3516 H3496 0.950 . S
C3516 C3515 1.414 . S
C3516 C3517 1.374 . S
C3517 H3497 0.950 . S
C3517 C3513 1.385 . S
C3517 C3516 1.374 . S
C3518 C3515 1.499 . S
C3518 C3519 1.373 . S
C3518 C3520 1.389 . S
C3519 H3498 0.950 . S
C3519 C3518 1.373 . S
C3519 C3535 1.377 1_454 S
C3520 C3518 1.389 . S
C3520 C3521 1.526 . S
C3520 C3534 1.377 1_454 S
C3521 C3520 1.526 . S
C3521 C3522 1.388 1_455 S
C3521 C3526 1.368 1_554 S
C3522 H3499 0.950 . S
C3522 C3521 1.388 1_655 S
C3522 C3523 1.334 . S
C3523 H3500 0.950 . S
C3523 C3522 1.334 . S
C3523 C3524 1.287 . S
C3524 C3523 1.287 . S
C3524 C3525 1.524 1_654 S
C3524 H3543 0.913 . S
C3525 H3501 0.950 . S
C3525 C3524 1.524 1_456 S
C3525 C3526 1.415 . S
C3526 H3502 0.950 . S
C3526 C3521 1.368 1_556 S
C3526 C3525 1.415 . S
C3527 H3503 0.951 . S
C3527 C3528 1.366 . S
C3527 C3529 1.388 . S
C3528 C3527 1.366 . S
C3528 C3532 1.385 . S
C3529 H3504 0.951 . S
C3529 C3527 1.388 . S
C3529 C3530 1.366 . S
C3530 C3529 1.366 . S
C3530 C3531 1.414 . S
C3530 C3533 1.499 . S
C3531 H3505 0.950 . S
C3531 C3530 1.414 . S
C3531 C3532 1.374 . S
C3532 H3506 0.950 . S
C3532 C3528 1.385 . S
C3532 C3531 1.374 . S
C3533 C3530 1.499 . S
C3533 C3534 1.373 . S
C3533 C3535 1.389 . S
C3534 H3507 0.950 . S
C3534 C3520 1.377 1_656 S
C3534 C3533 1.373 . S
C3535 C3519 1.377 1_656 S
C3535 C3533 1.389 . S
C3535 C3536 1.526 . S
C3536 C3535 1.526 . S
C3536 C3537 1.388 1_655 S
C3536 C3541 1.368 1_556 S
C3537 H3508 0.950 . S
C3537 C3536 1.388 1_455 S
C3537 C3538 1.334 . S
C3538 H3509 0.950 . S
C3538 C3537 1.334 . S
C3538 C3539 1.287 . S
C3539 C3538 1.287 . S
C3539 C3540 1.524 1_456 S
C3539 H3542 0.999 . S
C3540 H3510 0.950 . S
C3540 C3539 1.524 1_654 S
C3540 C3541 1.415 . S
C3541 H3511 0.950 . S
C3541 C3536 1.368 1_554 S
C3541 C3540 1.415 . S
H3542 C3539 0.999 . S
H3543 C3524 0.913 . S
H3544 C3562 0.951 . S
H3545 C3564 0.951 . S
H3546 C3566 0.950 . S
H3547 C3567 0.950 . S
H3548 C3569 0.950 . S
H3549 C3572 0.950 . S
H3550 C3573 0.950 . S
H3551 C3575 0.950 . S
H3552 C3576 0.950 . S
H3553 C3577 0.951 . S
H3554 C3579 0.951 . S
H3555 C3581 0.950 . S
H3556 C3582 0.950 . S
H3557 C3584 0.950 . S
H3558 C3587 0.950 . S
H3559 C3588 0.950 . S
H3560 C3590 0.950 . S
H3561 C3591 0.950 . S
C3562 H3544 0.951 . S
C3562 C3563 1.366 . S
C3562 C3564 1.388 . S
C3563 C3562 1.366 . S
C3563 C3567 1.385 . S
C3564 H3545 0.951 . S
C3564 C3562 1.388 . S
C3564 C3565 1.366 . S
C3565 C3564 1.366 . S
C3565 C3566 1.414 . S
C3565 C3568 1.499 . S
C3566 H3546 0.950 . S
C3566 C3565 1.414 . S
C3566 C3567 1.374 . S
C3567 H3547 0.950 . S
C3567 C3563 1.385 . S
C3567 C3566 1.374 . S
C3568 C3565 1.499 . S
C3568 C3569 1.373 . S
C3568 C3570 1.389 . S
C3569 H3548 0.950 . S
C3569 C3568 1.373 . S
C3569 C3585 1.377 . S
C3570 C3568 1.389 . S
C3570 C3571 1.524 . S
C3570 C3584 1.377 . S
C3571 C3570 1.524 . S
C3571 C3572 1.397 . S
C3571 C3576 1.363 . S
C3572 H3549 0.950 . S
C3572 C3571 1.397 . S
C3572 C3573 1.334 . S
C3573 H3550 0.950 . S
C3573 C3572 1.334 . S
C3573 C3574 1.287 . S
C3574 C3573 1.287 . S
C3574 C3575 1.524 . S
C3574 H3593 0.913 . S
C3575 H3551 0.950 . S
C3575 C3574 1.524 . S
C3575 C3576 1.415 . S
C3576 H3552 0.950 . S
C3576 C3571 1.363 . S
C3576 C3575 1.415 . S
C3577 H3553 0.951 . S
C3577 C3578 1.366 . S
C3577 C3579 1.388 . S
C3578 C3577 1.366 . S
C3578 C3582 1.385 . S
C3579 H3554 0.951 . S
C3579 C3577 1.388 . S
C3579 C3580 1.366 . S
C3580 C3579 1.366 . S
C3580 C3581 1.414 . S
C3580 C3583 1.499 . S
C3581 H3555 0.950 . S
C3581 C3580 1.414 . S
C3581 C3582 1.374 . S
C3582 H3556 0.950 . S
C3582 C3578 1.385 . S
C3582 C3581 1.374 . S
C3583 C3580 1.499 . S
C3583 C3584 1.373 . S
C3583 C3585 1.389 . S
C3584 H3557 0.950 . S
C3584 C3570 1.377 . S
C3584 C3583 1.373 . S
C3585 C3569 1.377 . S
C3585 C3583 1.389 . S
C3585 C3586 1.524 . S
C3586 C3585 1.524 . S
C3586 C3587 1.397 . S
C3586 C3591 1.363 . S
C3587 H3558 0.950 . S
C3587 C3586 1.397 . S
C3587 C3588 1.334 . S
C3588 H3559 0.950 . S
C3588 C3587 1.334 . S
C3588 C3589 1.287 . S
C3589 C3588 1.287 . S
C3589 C3590 1.524 . S
C3589 H3592 0.999 . S
C3590 H3560 0.950 . S
C3590 C3589 1.524 . S
C3590 C3591 1.415 . S
C3591 H3561 0.950 . S
C3591 C3586 1.363 . S
C3591 C3590 1.415 . S
H3592 C3589 0.999 . S
H3593 C3574 0.913 . S
H3594 C3612 0.951 . S
H3595 C3614 0.951 . S
H3596 C3616 0.950 . S
H3597 C3617 0.950 . S
H3598 C3619 0.950 . S
H3599 C3622 0.950 . S
H3600 C3623 0.950 . S
H3601 C3625 0.950 . S
H3602 C3626 0.950 . S
H3603 C3627 0.951 . S
H3604 C3629 0.951 . S
H3605 C3631 0.950 . S
H3606 C3632 0.950 . S
H3607 C3634 0.950 . S
H3608 C3637 0.950 . S
H3609 C3638 0.950 . S
H3610 C3640 0.950 . S
H3611 C3641 0.950 . S
C3612 H3594 0.951 . S
C3612 C3613 1.366 . S
C3612 C3614 1.388 . S
C3613 C3612 1.366 . S
C3613 C3617 1.385 . S
C3614 H3595 0.951 . S
C3614 C3612 1.388 . S
C3614 C3615 1.366 . S
C3615 C3614 1.366 . S
C3615 C3616 1.414 . S
C3615 C3618 1.499 . S
C3616 H3596 0.950 . S
C3616 C3615 1.414 . S
C3616 C3617 1.374 . S
C3617 H3597 0.950 . S
C3617 C3613 1.385 . S
C3617 C3616 1.374 . S
C3618 C3615 1.499 . S
C3618 C3619 1.373 . S
C3618 C3620 1.389 . S
C3619 H3598 0.950 . S
C3619 C3618 1.373 . S
C3619 C3635 1.377 . S
C3620 C3618 1.389 . S
C3620 C3621 1.524 . S
C3620 C3634 1.377 . S
C3621 C3620 1.524 . S
C3621 C3622 1.397 . S
C3621 C3626 1.363 . S
C3622 H3599 0.950 . S
C3622 C3621 1.397 . S
C3622 C3623 1.334 . S
C3623 H3600 0.950 . S
C3623 C3622 1.334 . S
C3623 C3624 1.287 . S
C3624 C3623 1.287 . S
C3624 C3625 1.524 . S
C3624 H3643 0.913 . S
C3625 H3601 0.950 . S
C3625 C3624 1.524 . S
C3625 C3626 1.415 . S
C3626 H3602 0.950 . S
C3626 C3621 1.363 . S
C3626 C3625 1.415 . S
C3627 H3603 0.951 . S
C3627 C3628 1.366 . S
C3627 C3629 1.388 . S
C3628 C3627 1.366 . S
C3628 C3632 1.385 . S
C3629 H3604 0.951 . S
C3629 C3627 1.388 . S
C3629 C3630 1.366 . S
C3630 C3629 1.366 . S
C3630 C3631 1.414 . S
C3630 C3633 1.499 . S
C3631 H3605 0.950 . S
C3631 C3630 1.414 . S
C3631 C3632 1.374 . S
C3632 H3606 0.950 . S
C3632 C3628 1.385 . S
C3632 C3631 1.374 . S
C3633 C3630 1.499 . S
C3633 C3634 1.373 . S
C3633 C3635 1.389 . S
C3634 H3607 0.950 . S
C3634 C3620 1.377 . S
C3634 C3633 1.373 . S
C3635 C3619 1.377 . S
C3635 C3633 1.389 . S
C3635 C3636 1.524 . S
C3636 C3635 1.524 . S
C3636 C3637 1.397 . S
C3636 C3641 1.363 . S
C3637 H3608 0.950 . S
C3637 C3636 1.397 . S
C3637 C3638 1.334 . S
C3638 H3609 0.950 . S
C3638 C3637 1.334 . S
C3638 C3639 1.287 . S
C3639 C3638 1.287 . S
C3639 C3640 1.524 . S
C3639 H3642 0.999 . S
C3640 H3610 0.950 . S
C3640 C3639 1.524 . S
C3640 C3641 1.415 . S
C3641 H3611 0.950 . S
C3641 C3636 1.363 . S
C3641 C3640 1.415 . S
H3642 C3639 0.999 . S
H3643 C3624 0.913 . S
H3644 C3662 0.951 . S
H3645 C3664 0.951 1_565 S
H3646 C3666 0.950 . S
H3647 C3667 0.950 . S
H3648 C3669 0.950 . S
H3649 C3672 0.950 1_545 S
H3650 C3673 0.950 . S
H3651 C3675 0.950 . S
H3652 C3676 0.950 . S
H3653 C3677 0.951 . S
H3654 C3679 0.951 1_545 S
H3655 C3681 0.950 . S
H3656 C3682 0.950 . S
H3657 C3684 0.950 . S
H3658 C3687 0.950 1_565 S
H3659 C3688 0.950 . S
H3660 C3690 0.950 . S
H3661 C3691 0.950 . S
C3662 H3644 0.951 . S
C3662 C3663 1.366 . S
C3662 C3664 1.388 . S
C3663 C3662 1.366 . S
C3663 C3667 1.385 . S
C3664 H3645 0.951 1_545 S
C3664 C3662 1.388 . S
C3664 C3665 1.366 . S
C3665 C3664 1.366 . S
C3665 C3666 1.414 . S
C3665 C3668 1.499 . S
C3666 H3646 0.950 . S
C3666 C3665 1.414 . S
C3666 C3667 1.374 . S
C3667 H3647 0.950 . S
C3667 C3663 1.385 . S
C3667 C3666 1.374 . S
C3668 C3665 1.499 . S
C3668 C3669 1.373 1_556 S
C3668 C3670 1.389 1_545 S
C3669 H3648 0.950 . S
C3669 C3668 1.373 1_554 S
C3669 C3685 1.377 1_455 S
C3670 C3668 1.389 1_565 S
C3670 C3671 1.524 . S
C3670 C3684 1.377 1_455 S
C3671 C3670 1.524 . S
C3671 C3672 1.397 1_455 S
C3671 C3676 1.363 . S
C3672 H3649 0.950 1_565 S
C3672 C3671 1.397 1_655 S
C3672 C3673 1.334 . S
C3673 H3650 0.950 . S
C3673 C3672 1.334 . S
C3673 C3674 1.287 . S
C3674 C3673 1.287 . S
C3674 C3675 1.524 1_655 S
C3674 H3693 0.913 . S
C3675 H3651 0.950 . S
C3675 C3674 1.524 1_455 S
C3675 C3676 1.415 . S
C3676 H3652 0.950 . S
C3676 C3671 1.363 . S
C3676 C3675 1.415 . S
C3677 H3653 0.951 . S
C3677 C3678 1.366 . S
C3677 C3679 1.388 . S
C3678 C3677 1.366 . S
C3678 C3682 1.385 . S
C3679 H3654 0.951 1_565 S
C3679 C3677 1.388 . S
C3679 C3680 1.366 . S
C3680 C3679 1.366 . S
C3680 C3681 1.414 . S
C3680 C3683 1.499 . S
C3681 H3655 0.950 . S
C3681 C3680 1.414 . S
C3681 C3682 1.374 . S
C3682 H3656 0.950 . S
C3682 C3678 1.385 . S
C3682 C3681 1.374 . S
C3683 C3680 1.499 . S
C3683 C3684 1.373 1_554 S
C3683 C3685 1.389 1_565 S
C3684 H3657 0.950 . S
C3684 C3670 1.377 1_655 S
C3684 C3683 1.373 1_556 S
C3685 C3669 1.377 1_655 S
C3685 C3683 1.389 1_545 S
C3685 C3686 1.524 . S
C3686 C3685 1.524 . S
C3686 C3687 1.397 1_655 S
C3686 C3691 1.363 . S
C3687 H3658 0.950 1_545 S
C3687 C3686 1.397 1_455 S
C3687 C3688 1.334 . S
C3688 H3659 0.950 . S
C3688 C3687 1.334 . S
C3688 C3689 1.287 . S
C3689 C3688 1.287 . S
C3689 C3690 1.524 1_455 S
C3689 H3692 0.999 . S
C3690 H3660 0.950 . S
C3690 C3689 1.524 1_655 S
C3690 C3691 1.415 . S
C3691 H3661 0.950 . S
C3691 C3686 1.363 . S
C3691 C3690 1.415 . S
H3692 C3689 0.999 . S
H3693 C3674 0.913 . S
H3694 C3712 0.951 . S
H3695 C3714 0.951 . S
H3696 C3716 0.950 . S
H3697 C3717 0.950 . S
H3698 C3719 0.950 . S
H3699 C3722 0.950 . S
H3700 C3723 0.950 . S
H3701 C3725 0.950 . S
H3702 C3726 0.950 1_565 S
H3703 C3727 0.951 . S
H3704 C3729 0.951 . S
H3705 C3731 0.950 . S
H3706 C3732 0.950 . S
H3707 C3734 0.950 . S
H3708 C3737 0.950 . S
H3709 C3738 0.950 . S
H3710 C3740 0.950 . S
H3711 C3741 0.950 1_545 S
C3712 H3694 0.951 . S
C3712 C3713 1.366 . S
C3712 C3714 1.388 . S
C3713 C3712 1.366 . S
C3713 C3717 1.385 . S
C3714 H3695 0.951 . S
C3714 C3712 1.388 . S
C3714 C3715 1.366 . S
C3715 C3714 1.366 . S
C3715 C3716 1.414 . S
C3715 C3718 1.499 . S
C3716 H3696 0.950 . S
C3716 C3715 1.414 . S
C3716 C3717 1.374 . S
C3717 H3697 0.950 . S
C3717 C3713 1.385 . S
C3717 C3716 1.374 . S
C3718 C3715 1.499 . S
C3718 C3719 1.373 . S
C3718 C3720 1.389 . S
C3719 H3698 0.950 . S
C3719 C3718 1.373 . S
C3719 C3735 1.377 1_545 S
C3720 C3718 1.389 . S
C3720 C3721 1.524 . S
C3720 C3734 1.377 1_545 S
C3721 C3720 1.524 . S
C3721 C3722 1.397 . S
C3721 C3726 1.363 . S
C3722 H3699 0.950 . S
C3722 C3721 1.397 . S
C3722 C3723 1.334 . S
C3723 H3700 0.950 . S
C3723 C3722 1.334 . S
C3723 C3724 1.287 . S
C3724 C3723 1.287 . S
C3724 C3725 1.524 . S
C3724 H3743 0.913 . S
C3725 H3701 0.950 . S
C3725 C3724 1.524 . S
C3725 C3726 1.415 . S
C3726 H3702 0.950 1_545 S
C3726 C3721 1.363 . S
C3726 C3725 1.415 . S
C3727 H3703 0.951 . S
C3727 C3728 1.366 . S
C3727 C3729 1.388 . S
C3728 C3727 1.366 . S
C3728 C3732 1.385 . S
C3729 H3704 0.951 . S
C3729 C3727 1.388 . S
C3729 C3730 1.366 . S
C3730 C3729 1.366 . S
C3730 C3731 1.414 . S
C3730 C3733 1.499 . S
C3731 H3705 0.950 . S
C3731 C3730 1.414 . S
C3731 C3732 1.374 . S
C3732 H3706 0.950 . S
C3732 C3728 1.385 . S
C3732 C3731 1.374 . S
C3733 C3730 1.499 . S
C3733 C3734 1.373 . S
C3733 C3735 1.389 . S
C3734 H3707 0.950 . S
C3734 C3720 1.377 1_565 S
C3734 C3733 1.373 . S
C3735 C3719 1.377 1_565 S
C3735 C3733 1.389 . S
C3735 C3736 1.524 . S
C3736 C3735 1.524 . S
C3736 C3737 1.397 . S
C3736 C3741 1.363 . S
C3737 H3708 0.950 . S
C3737 C3736 1.397 . S
C3737 C3738 1.334 . S
C3738 H3709 0.950 . S
C3738 C3737 1.334 . S
C3738 C3739 1.287 . S
C3739 C3738 1.287 . S
C3739 C3740 1.524 . S
C3739 H3742 0.999 . S
C3740 H3710 0.950 . S
C3740 C3739 1.524 . S
C3740 C3741 1.415 . S
C3741 H3711 0.950 1_565 S
C3741 C3736 1.363 . S
C3741 C3740 1.415 . S
H3742 C3739 0.999 . S
H3743 C3724 0.913 . S
C1363 C56 1.786 . S
C1378 C896 1.787 . S
C1413 C140 1.787 . S
C1428 C980 1.787 . S
C1463 C224 1.786 . S
C1478 C728 1.786 . S
C1513 C308 1.786 . S
C1528 C812 1.786 . S
C1563 C403 1.786 . S
C1578 C1243 1.787 . S
C1613 C487 1.786 . S
C1628 C1327 1.787 . S
C1663 C571 1.786 . S
C1678 C1075 1.786 . S
C1713 C655 1.787 . S
C1728 C1159 1.786 . S
C1763 C819 3.529 . S
C1778 C67 3.598 . S
C1813 C903 3.529 . S
C1828 C151 3.601 . S
C1863 C987 3.529 . S
C1878 C235 3.601 . S
C1913 C735 3.529 . S
C1928 C319 3.601 . S
C1963 C392 3.598 . S
C1978 C1166 3.529 . S
C2013 C1250 3.529 . S
C2028 C476 3.601 . S
C2063 C1334 3.529 . S
C2078 C560 3.601 . S
C2113 C1082 3.528 . S
C2128 C644 3.601 . S
C2163 C147 3.528 . S
C2178 C739 3.601 . S
C2213 C823 3.601 . S
C2228 C231 3.528 . S
C2263 C907 3.603 1_556 S
C2278 C315 3.529 . S
C2313 C991 3.601 . S
C2328 C63 3.528 . S
C2363 C1064 3.601 . S
C2378 C494 3.529 . S
C2413 C578 3.528 . S
C2428 C1148 3.601 . S
C2463 C662 3.529 . S
C2478 C1232 3.603 1_554 S
C2513 C1316 3.601 . S
C2528 C410 3.528 . S
C2563 C69 0.576 . S
C2578 C1323 0.451 . S
C2613 C153 0.574 . S
C2628 C399 0.451 . S
C2663 C1155 0.451 . S
C2678 C237 0.574 . S
C2713 C567 0.451 . S
C2728 C321 0.575 . S
C2763 C394 0.575 . S
C2778 C998 0.451 . S
C2813 C478 0.574 . S
C2828 C74 0.451 . S
C2863 C830 0.450 . S
C2878 C562 0.577 . S
C2913 C242 0.450 . S
C2928 C646 0.578 . S
C2963 C741 0.574 . S
C2978 C651 0.451 . S
C3013 C825 0.576 . S
C3028 C1071 0.450 . S
C3063 C483 0.451 . S
C3078 C909 0.575 . S
C3113 C1239 0.450 . S
C3128 C993 0.577 . S
C3163 C1066 0.576 . S
C3178 C326 0.451 . S
C3213 C1150 0.578 . S
C3228 C746 0.450 . S
C3263 C1234 0.574 . S
C3278 C158 0.451 . S
C3313 C914 0.451 . S
C3328 C1318 0.576 . S
C3363 C58 1.179 . S
C3378 C1077 1.179 . S
C3413 C142 1.180 . S
C3428 C489 1.180 . S
C3463 C226 1.179 . S
C3478 C1245 1.179 . S
C3513 C657 1.180 . S
C3528 C310 1.180 . S
C3563 C405 1.179 . S
C3578 C730 1.179 . S
C3613 C898 1.179 . S
C3628 C573 1.179 . S
C3663 C814 1.180 . S
C3678 C1161 1.180 . S
C3713 C1329 1.178 . S
C3728 C982 1.178 . S
