# Generated by pormake.
# Topology crs, (6)-cn, num edge types: 1
# Building blocks:
#     Node 0, Type 0, BuildingBlock: PAMTOO_clean_sbu_0, # of connection points: 6
#     Node 1, Type 0, BuildingBlock: PAMTOO_clean_sbu_0, # of connection points: 6
#     Node 2, Type 0, BuildingBlock: PAMTOO_clean_sbu_0, # of connection points: 6
#     Node 3, Type 0, BuildingBlock: PAMTOO_clean_sbu_0, # of connection points: 6
#     Node 4, Type 0, BuildingBlock: PAMTOO_clean_sbu_0, # of connection points: 6
#     Node 5, Type 0, BuildingBlock: PAMTOO_clean_sbu_0, # of connection points: 6
#     Node 6, Type 0, BuildingBlock: PAMTOO_clean_sbu_0, # of connection points: 6
#     Node 7, Type 0, BuildingBlock: PAMTOO_clean_sbu_0, # of connection points: 6
#     Node 8, Type 0, BuildingBlock: PAMTOO_clean_sbu_0, # of connection points: 6
#     Node 9, Type 0, BuildingBlock: PAMTOO_clean_sbu_0, # of connection points: 6
#     Node 10, Type 0, BuildingBlock: PAMTOO_clean_sbu_0, # of connection points: 6
#     Node 11, Type 0, BuildingBlock: PAMTOO_clean_sbu_0, # of connection points: 6
#     Node 12, Type 0, BuildingBlock: PAMTOO_clean_sbu_0, # of connection points: 6
#     Node 13, Type 0, BuildingBlock: PAMTOO_clean_sbu_0, # of connection points: 6
#     Node 14, Type 0, BuildingBlock: PAMTOO_clean_sbu_0, # of connection points: 6
#     Node 15, Type 0, BuildingBlock: PAMTOO_clean_sbu_0, # of connection points: 6
#     Edge 16, Type (0, 0), BuildingBlock: CIFDUS_clean_linker_0, # of connection points: 2
#     Edge 17, Type (0, 0), BuildingBlock: CIFDUS_clean_linker_0, # of connection points: 2
#     Edge 18, Type (0, 0), BuildingBlock: CIFDUS_clean_linker_0, # of connection points: 2
#     Edge 19, Type (0, 0), BuildingBlock: CIFDUS_clean_linker_0, # of connection points: 2
#     Edge 20, Type (0, 0), BuildingBlock: CIFDUS_clean_linker_0, # of connection points: 2
#     Edge 21, Type (0, 0), BuildingBlock: CIFDUS_clean_linker_0, # of connection points: 2
#     Edge 22, Type (0, 0), BuildingBlock: CIFDUS_clean_linker_0, # of connection points: 2
#     Edge 23, Type (0, 0), BuildingBlock: CIFDUS_clean_linker_0, # of connection points: 2
#     Edge 24, Type (0, 0), BuildingBlock: CIFDUS_clean_linker_0, # of connection points: 2
#     Edge 25, Type (0, 0), BuildingBlock: CIFDUS_clean_linker_0, # of connection points: 2
#     Edge 26, Type (0, 0), BuildingBlock: CIFDUS_clean_linker_0, # of connection points: 2
#     Edge 27, Type (0, 0), BuildingBlock: CIFDUS_clean_linker_0, # of connection points: 2
#     Edge 28, Type (0, 0), BuildingBlock: CIFDUS_clean_linker_0, # of connection points: 2
#     Edge 29, Type (0, 0), BuildingBlock: CIFDUS_clean_linker_0, # of connection points: 2
#     Edge 30, Type (0, 0), BuildingBlock: CIFDUS_clean_linker_0, # of connection points: 2
#     Edge 31, Type (0, 0), BuildingBlock: CIFDUS_clean_linker_0, # of connection points: 2
#     Edge 32, Type (0, 0), BuildingBlock: CIFDUS_clean_linker_0, # of connection points: 2
#     Edge 33, Type (0, 0), BuildingBlock: CIFDUS_clean_linker_0, # of connection points: 2
#     Edge 34, Type (0, 0), BuildingBlock: CIFDUS_clean_linker_0, # of connection points: 2
#     Edge 35, Type (0, 0), BuildingBlock: CIFDUS_clean_linker_0, # of connection points: 2
#     Edge 36, Type (0, 0), BuildingBlock: CIFDUS_clean_linker_0, # of connection points: 2
#     Edge 37, Type (0, 0), BuildingBlock: CIFDUS_clean_linker_0, # of connection points: 2
#     Edge 38, Type (0, 0), BuildingBlock: CIFDUS_clean_linker_0, # of connection points: 2
#     Edge 39, Type (0, 0), BuildingBlock: CIFDUS_clean_linker_0, # of connection points: 2
#     Edge 40, Type (0, 0), BuildingBlock: CIFDUS_clean_linker_0, # of connection points: 2
#     Edge 41, Type (0, 0), BuildingBlock: CIFDUS_clean_linker_0, # of connection points: 2
#     Edge 42, Type (0, 0), BuildingBlock: CIFDUS_clean_linker_0, # of connection points: 2
#     Edge 43, Type (0, 0), BuildingBlock: CIFDUS_clean_linker_0, # of connection points: 2
#     Edge 44, Type (0, 0), BuildingBlock: CIFDUS_clean_linker_0, # of connection points: 2
#     Edge 45, Type (0, 0), BuildingBlock: CIFDUS_clean_linker_0, # of connection points: 2
#     Edge 46, Type (0, 0), BuildingBlock: CIFDUS_clean_linker_0, # of connection points: 2
#     Edge 47, Type (0, 0), BuildingBlock: CIFDUS_clean_linker_0, # of connection points: 2
#     Edge 48, Type (0, 0), BuildingBlock: CIFDUS_clean_linker_0, # of connection points: 2
#     Edge 49, Type (0, 0), BuildingBlock: CIFDUS_clean_linker_0, # of connection points: 2
#     Edge 50, Type (0, 0), BuildingBlock: CIFDUS_clean_linker_0, # of connection points: 2
#     Edge 51, Type (0, 0), BuildingBlock: CIFDUS_clean_linker_0, # of connection points: 2
#     Edge 52, Type (0, 0), BuildingBlock: CIFDUS_clean_linker_0, # of connection points: 2
#     Edge 53, Type (0, 0), BuildingBlock: CIFDUS_clean_linker_0, # of connection points: 2
#     Edge 54, Type (0, 0), BuildingBlock: CIFDUS_clean_linker_0, # of connection points: 2
#     Edge 55, Type (0, 0), BuildingBlock: CIFDUS_clean_linker_0, # of connection points: 2
#     Edge 56, Type (0, 0), BuildingBlock: CIFDUS_clean_linker_0, # of connection points: 2
#     Edge 57, Type (0, 0), BuildingBlock: CIFDUS_clean_linker_0, # of connection points: 2
#     Edge 58, Type (0, 0), BuildingBlock: CIFDUS_clean_linker_0, # of connection points: 2
#     Edge 59, Type (0, 0), BuildingBlock: CIFDUS_clean_linker_0, # of connection points: 2
#     Edge 60, Type (0, 0), BuildingBlock: CIFDUS_clean_linker_0, # of connection points: 2
#     Edge 61, Type (0, 0), BuildingBlock: CIFDUS_clean_linker_0, # of connection points: 2
#     Edge 62, Type (0, 0), BuildingBlock: CIFDUS_clean_linker_0, # of connection points: 2
#     Edge 63, Type (0, 0), BuildingBlock: CIFDUS_clean_linker_0, # of connection points: 2
# Relax obj value: 0.431
# Max RMSD: 0.333
# Mean RMSD: 0.286
data_MOF--net-crs--node1-PAMTOO_clean_sbu_0--edge1-CIFDUS_clean_linker_0
_symmetry_space_group_name_H-M    P1
_symmetry_Int_Tables_number       1
_symmetry_cell_setting            triclinic
loop_
_symmetry_equiv_pos_as_xyz
'x, y, z'
_cell_length_a     59.510259
_cell_length_b     38.781515
_cell_length_c     37.57445
_cell_angle_alpha  89.918928
_cell_angle_beta   89.142768
_cell_angle_gamma 62.222077
loop_
_atom_site_label
_atom_site_type_symbol
_atom_site_fract_x
_atom_site_fract_y
_atom_site_fract_z
_atom_type_partial_charge
Dy0 Dy 0.96729 1.03281 0.06144 0.0
Dy1 Dy -0.0172 0.07006 0.99237 0.0
C2 C -0.02137 0.9909 0.98451 0.0
O3 O 0.00558 1.02599 0.07367 0.0
O4 O 0.01953 1.02786 1.01692 0.0
O5 O 0.97391 0.98431 0.09579 0.0
O6 O 0.94215 0.04138 0.10609 0.0
O7 O -0.01581 0.10529 0.0387 0.0
O8 O 0.95945 0.09283 0.07882 0.0
O9 O 0.94033 0.09929 0.99277 0.0
O10 O 0.93414 0.05434 1.02552 0.0
O11 O -0.01879 0.11861 0.96224 0.0
O12 O 0.00334 0.0595 0.94251 0.0
C13 C 0.02384 1.02099 0.05105 0.0
O14 O -0.01884 0.98583 1.01918 0.0
O15 O 0.97465 1.02393 0.96985 0.0
C16 C 0.93533 0.9879 0.11631 0.0
C17 C 0.89659 0.96589 0.12095 0.0
C18 C 0.90516 0.97189 0.08757 0.0
C19 C 0.92438 0.98281 0.08529 0.0
C20 C 0.9274 0.98097 0.14959 0.0
C21 C 0.90817 0.96994 0.15192 0.0
C22 C 0.95291 1.00446 0.11399 0.0
C23 C 0.97125 0.1128 0.06883 0.0
C24 C 0.92595 0.08367 1.00331 0.0
C25 C 0.02128 0.10102 0.93649 0.0
C26 C 0.06828 0.10144 0.9316 0.0
C27 C 0.0575 0.10101 0.96502 0.0
C28 C 0.03427 0.10062 0.96743 0.0
C29 C 0.03163 0.10212 0.90307 0.0
C30 C 0.055 0.10245 0.90061 0.0
C31 C -0.00144 0.09576 0.93946 0.0
H32 H 0.89639 0.96957 0.06326 0.0
H33 H 0.93012 0.98857 0.05938 0.0
H34 H 0.93559 0.98509 0.17377 0.0
H35 H 0.90215 0.96506 0.17796 0.0
H36 H 0.06702 0.10094 0.98939 0.0
H37 H 0.02669 0.09918 0.99348 0.0
H38 H 0.02198 0.10174 0.87897 0.0
H39 H 0.06296 0.10252 0.87451 0.0
Dy40 Dy 0.9704 0.26957 0.31057 0.0
Dy41 Dy -0.01986 0.32455 0.25135 0.0
C42 C 0.92437 0.34751 0.28069 0.0
O43 O -0.01814 0.23454 0.26068 0.0
O44 O 0.97001 0.2839 0.22019 0.0
O45 O 0.95458 0.23116 0.32399 0.0
O46 O -0.02406 0.24438 0.36305 0.0
O47 O 0.01769 0.2721 0.25485 0.0
O48 O 0.01257 0.24786 0.30874 0.0
O49 O -0.01249 0.34233 0.30541 0.0
O50 O 0.96296 0.32393 0.33992 0.0
O51 O -0.00353 0.362 0.2371 0.0
O52 O 0.97283 0.35216 0.19961 0.0
C53 C 0.97533 0.24787 0.22838 0.0
O54 O 0.93198 0.31095 0.28954 0.0
O55 O 0.94058 0.36014 0.27155 0.0
C56 C 0.942 0.23423 0.38375 0.0
C57 C 0.90255 0.24566 0.43214 0.0
C58 C 0.90263 0.27753 0.41426 0.0
C59 C 0.92219 0.27183 0.39019 0.0
C60 C 0.94232 0.20249 0.40197 0.0
C61 C 0.92274 0.20813 0.426 0.0
C62 C 0.96176 0.22762 0.35699 0.0
C63 C 0.02695 0.24922 0.28237 0.0
C64 C 0.97539 0.3441 0.33554 0.0
C65 C 0.00618 0.36321 0.17668 0.0
C66 C 0.04534 0.35729 0.13007 0.0
C67 C 0.04625 0.32369 0.14574 0.0
C68 C 0.02683 0.32665 0.16903 0.0
C69 C 0.00455 0.39641 0.15965 0.0
C70 C 0.02396 0.39352 0.13654 0.0
C71 C -0.01233 0.36787 0.20494 0.0
H72 H 0.88717 0.30671 0.41805 0.0
H73 H 0.92163 0.29662 0.37611 0.0
H74 H 0.95753 0.17328 0.39723 0.0
H75 H 0.92333 0.1831 0.43964 0.0
H76 H 0.06261 0.29547 0.14156 0.0
H77 H 0.02844 0.30074 0.18219 0.0
H78 H -0.01126 0.42485 0.16533 0.0
H79 H 0.02266 0.41982 0.12461 0.0
Dy80 Dy 0.72251 0.26735 0.51551 0.0
Dy81 Dy 0.73231 0.31596 0.58025 0.0
C82 C 0.67717 0.32362 0.56746 0.0
O83 O 0.72762 0.31448 0.48769 0.0
O84 O 0.72039 0.35719 0.53417 0.0
O85 O 0.70505 0.26659 0.46583 0.0
O86 O 0.72942 0.21237 0.4921 0.0
O87 O 0.76609 0.29585 0.54438 0.0
O88 O 0.76467 0.24327 0.51884 0.0
O89 O 0.74468 0.25525 0.59968 0.0
O90 O 0.71878 0.23994 0.56643 0.0
O91 O 0.75493 0.3147 0.62492 0.0
O92 O 0.72167 0.36832 0.61128 0.0
C93 C 0.72323 0.34889 0.49991 0.0
O94 O 0.68392 0.31031 0.53487 0.0
O95 O 0.69357 0.32279 0.59081 0.0
C96 C 0.69292 0.21744 0.46427 0.0
C97 C 0.65216 0.20018 0.45817 0.0
C98 C 0.65692 0.21306 0.49079 0.0
C99 C 0.67711 0.22168 0.49379 0.0
C100 C 0.68843 0.20435 0.43176 0.0
C101 C 0.66818 0.19575 0.42869 0.0
C102 C 0.71297 0.22911 0.46698 0.0
C103 C 0.77684 0.26325 0.52604 0.0
C104 C 0.73285 0.23437 0.59457 0.0
C105 C 0.75778 0.37223 0.63068 0.0
C106 C 0.79309 0.40129 0.63147 0.0
C107 C 0.785 0.39323 0.59899 0.0
C108 C 0.76753 0.37871 0.59862 0.0
C109 C 0.76505 0.38145 0.66308 0.0
C110 C 0.78256 0.39602 0.66351 0.0
C111 C 0.74218 0.35219 0.63029 0.0
H112 H 0.64471 0.21731 0.51381 0.0
H113 H 0.68017 0.23224 0.51901 0.0
H114 H 0.70039 0.2012 0.40868 0.0
H115 H 0.66509 0.18554 0.40333 0.0
H116 H 0.79251 0.3975 0.57388 0.0
H117 H 0.7622 0.37146 0.57334 0.0
H118 H 0.75784 0.3762 0.68804 0.0
H119 H 0.78861 0.40164 0.68892 0.0
Dy120 Dy 0.72854 0.06382 0.8129 0.0
Dy121 Dy 0.7188 1.00638 0.75778 0.0
C122 C 0.77531 0.98421 0.78388 0.0
O123 O 0.73902 0.07494 0.75812 0.0
O124 O 0.71184 0.0602 0.72739 0.0
O125 O 0.73767 0.11076 0.82265 0.0
O126 O 0.72801 0.08411 0.86671 0.0
O127 O 0.68082 0.04675 0.78145 0.0
O128 O 0.68817 0.09818 0.79538 0.0
O129 O 0.73003 0.97418 0.8091 0.0
O130 O 0.71548 1.02755 0.84551 0.0
O131 O 0.70269 0.96803 0.74662 0.0
O132 O 0.72461 0.97934 0.70595 0.0
C133 C 0.72564 0.07844 0.72961 0.0
O134 O 0.76644 1.01059 0.80943 0.0
O135 O 0.76088 0.98199 0.7588 0.0
C136 C 0.75812 0.10629 0.87767 0.0
C137 C 0.79879 0.10205 0.91848 0.0
C138 C 0.80146 0.09666 0.88136 0.0
C139 C 0.78136 0.09858 0.86114 0.0
C140 C 0.75535 0.11215 0.91465 0.0
C141 C 0.77551 0.10988 0.93489 0.0
C142 C 0.73662 0.10807 0.85713 0.0
C143 C 0.67252 0.08381 0.78895 0.0
C144 C 0.72248 0.99031 0.84061 0.0
C145 C 0.69084 0.96867 0.68737 0.0
C146 C 0.6523 0.97826 0.6399 0.0
C147 C 0.65151 1.01062 0.6579 0.0
C148 C 0.67064 1.00584 0.6815 0.0
C149 C 0.69203 0.93645 0.66903 0.0
C150 C 0.67289 0.94118 0.64544 0.0
C151 C 0.71027 0.96303 0.71341 0.0
H152 H 0.81929 0.09009 0.86805 0.0
H153 H 0.78412 0.09369 0.83267 0.0
H154 H 0.73759 0.11826 0.92795 0.0
H155 H 0.77285 0.11442 0.96341 0.0
H156 H 0.63572 0.03947 0.65458 0.0
H157 H 0.66946 1.03098 0.69565 0.0
H158 H 0.70758 0.90758 0.6733 0.0
H159 H 0.67413 0.91581 0.63169 0.0
Dy160 Dy 0.46784 0.76443 0.31176 0.0
Dy161 Dy 0.47966 0.81005 0.24654 0.0
C162 C 0.42299 0.83926 0.27762 0.0
O163 O 0.45706 0.7458 0.26114 0.0
O164 O 0.48415 0.7542 0.22267 0.0
O165 O 0.44771 0.73465 0.33226 0.0
O166 O 0.47718 0.73714 0.36359 0.0
O167 O 0.5177 0.76819 0.26795 0.0
O168 O 0.50636 0.72342 0.29019 0.0
O169 O 0.47039 0.84977 0.29382 0.0
O170 O 0.4804 0.80443 0.33796 0.0
O171 O 0.49616 0.84568 0.22711 0.0
O172 O 0.4746 0.82872 0.19171 0.0
C173 C 0.46957 0.73814 0.23064 0.0
O174 O 0.43221 0.82101 0.30763 0.0
O175 O 0.43747 0.83296 0.24909 0.0
C176 C 0.44327 0.73367 0.39419 0.0
C177 C 0.40742 0.74324 0.44794 0.0
C178 C 0.40473 0.77524 0.4273 0.0
C179 C 0.42254 0.77045 0.40054 0.0
C180 C 0.4469 0.70236 0.41615 0.0
C181 C 0.42913 0.70709 0.44289 0.0
C182 C 0.4595 0.72631 0.36247 0.0
C183 C 0.52373 0.73283 0.27895 0.0
C184 C 0.47608 0.8392 0.32708 0.0
C185 C 0.50852 0.83649 0.16692 0.0
C186 C 0.54849 0.82204 0.11855 0.0
C187 C 0.54922 0.79195 0.14026 0.0
C188 C 0.52937 0.79917 0.16438 0.0
C189 C 0.50717 0.86604 0.14425 0.0
C190 C 0.52699 0.85889 0.12022 0.0
C191 C 0.48889 0.84575 0.19455 0.0
H192 H 0.38809 0.80335 0.43032 0.0
H193 H 0.41946 0.79491 0.38368 0.0
H194 H 0.46286 0.67379 0.41155 0.0
H195 H 0.43184 0.68208 0.45866 0.0
H196 H 0.56567 0.7634 0.13984 0.0
H197 H 0.53067 0.77607 0.18184 0.0
H198 H 0.49112 0.89497 0.14588 0.0
H199 H 0.52582 0.88249 0.10358 0.0
Dy200 Dy 0.2297 0.75076 0.49726 0.0
Dy201 Dy 0.22824 0.80811 0.56204 0.0
C202 C 0.17832 0.80516 0.53869 0.0
O203 O 0.2392 0.79421 0.472 0.0
O204 O 0.21859 0.84413 0.51168 0.0
O205 O 0.21868 0.7456 0.44393 0.0
O206 O 0.24104 0.69368 0.47473 0.0
O207 O 0.26655 0.78556 0.53707 0.0
O208 O 0.27025 0.72905 0.51256 0.0
O209 O 0.23784 0.75013 0.58742 0.0
O210 O 0.2209 0.72612 0.54596 0.0
O211 O 0.243 0.81564 0.61172 0.0
O212 O 0.21207 0.86512 0.58685 0.0
C213 C 0.22873 0.83141 0.47987 0.0
O214 O 0.18876 0.79374 0.50702 0.0
O215 O 0.19138 0.80712 0.5656 0.0
C216 C 0.20616 0.69714 0.44313 0.0
C217 C 0.15989 0.69465 0.43822 0.0
C218 C 0.17194 0.68909 0.4711 0.0
C219 C 0.19479 0.69046 0.47357 0.0
C220 C 0.19493 0.70056 0.40989 0.0
C221 C 0.17194 0.69916 0.40741 0.0
C222 C 0.22637 0.70832 0.44732 0.0
C223 C 0.2804 0.751 0.52294 0.0
C224 C 0.22921 0.72576 0.57814 0.0
C225 C 0.24417 0.87451 0.61416 0.0
C226 C 0.28076 0.9005 0.621 0.0
C227 C 0.27517 0.89099 0.58733 0.0
C228 C 0.25707 0.87799 0.58395 0.0
C229 C 0.24864 0.88593 0.64754 0.0
C230 C 0.26677 0.89904 0.65095 0.0
C231 C 0.2293 0.85342 0.61146 0.0
H232 H 0.16332 0.68477 0.49516 0.0
H233 H 0.20286 0.68828 0.49963 0.0
H234 H 0.20319 0.70644 0.38625 0.0
H235 H 0.16299 0.70355 0.38174 0.0
H236 H 0.28543 0.89233 0.56374 0.0
H237 H 0.25401 0.86889 0.55799 0.0
H238 H 0.23905 0.88289 0.67115 0.0
H239 H 0.27083 0.90595 0.67723 0.0
Dy240 Dy 0.22756 0.57275 0.82221 0.0
Dy241 Dy 0.22161 0.51633 0.76203 0.0
C242 C 0.27673 0.49574 0.79411 0.0
O243 O 0.24162 0.58455 0.77068 0.0
O244 O 0.21648 0.57109 0.73425 0.0
O245 O 0.23851 0.61671 0.83652 0.0
O246 O 0.21993 0.59718 0.87537 0.0
O247 O 0.18298 0.55403 0.78535 0.0
O248 O 0.18876 0.60647 0.79975 0.0
O249 O 0.23146 0.48095 0.81197 0.0
O250 O 0.21708 0.53174 0.85175 0.0
O251 O 0.20648 0.47795 0.74603 0.0
O252 O 0.22778 0.4938 0.70816 0.0
C253 C 0.23025 0.58886 0.7402 0.0
O254 O 0.26613 0.52126 0.8201 0.0
O255 O 0.2637 0.49212 0.76762 0.0
C256 C 0.25163 0.61224 0.89539 0.0
C257 C 0.29184 0.60212 0.93984 0.0
C258 C 0.2895 0.56969 0.92763 0.0
C259 C 0.26962 0.57471 0.90546 0.0
C260 C 0.25356 0.64472 0.90801 0.0
C261 C 0.27356 0.63972 0.93006 0.0
C262 C 0.23196 0.61747 0.86979 0.0
C263 C 0.17376 0.59124 0.79262 0.0
C264 C 0.22413 0.49492 0.84434 0.0
C265 C 0.19338 0.48606 0.68672 0.0
C266 C 0.15322 0.50218 0.63966 0.0
C267 C 0.153 0.53175 0.66159 0.0
C268 C 0.1729 0.52374 0.68494 0.0
C269 C 0.19401 0.45668 0.66447 0.0
C270 C 0.17411 0.46464 0.6411 0.0
C271 C 0.21348 0.47689 0.71285 0.0
H272 H 0.30353 0.54035 0.93424 0.0
H273 H 0.26861 0.54925 0.89554 0.0
H274 H 0.23989 0.67387 0.90024 0.0
H275 H 0.27485 0.66519 0.93923 0.0
H276 H 0.13708 0.56081 0.66153 0.0
H277 H 0.17207 0.54674 0.70212 0.0
H278 H 0.20971 0.42743 0.66553 0.0
H279 H 0.17502 0.44135 0.62429 0.0
Dy280 Dy 0.97524 0.52317 0.55749 0.0
Dy281 Dy -0.01702 0.5733 0.49288 0.0
C282 C -0.0129 0.48976 0.47803 0.0
O283 O 0.01713 0.50159 0.55177 0.0
O284 O 0.01737 0.55513 0.52617 0.0
O285 O -0.01435 0.46769 0.58229 0.0
O286 O 0.95635 0.52076 0.60623 0.0
O287 O 0.96808 0.61474 0.53947 0.0
O288 O -0.02004 0.57065 0.58504 0.0
O289 O 0.94669 0.57199 0.48229 0.0
O290 O 0.93621 0.56443 0.53939 0.0
O291 O 0.97003 0.62703 0.46348 0.0
O292 O 0.003 0.57464 0.44525 0.0
C293 C 0.02867 0.52257 0.54419 0.0
O294 O 0.97325 0.49397 0.50682 0.0
O295 O -0.00187 0.51189 0.47303 0.0
C296 C 0.94986 0.46579 0.60731 0.0
C297 C 0.91349 0.43872 0.60963 0.0
C298 C 0.92247 0.44517 0.5768 0.0
C299 C 0.94039 0.45879 0.57565 0.0
C300 C 0.94125 0.45895 0.64013 0.0
C301 C 0.92313 0.44554 0.64131 0.0
C302 C 0.96729 0.48277 0.60597 0.0
C303 C 0.97286 0.60618 0.57338 0.0
C304 C 0.93005 0.57294 0.50599 0.0
C305 C 0.00363 0.63329 0.43566 0.0
C306 C 0.03882 0.66132 0.42355 0.0
C307 C 0.03379 0.65294 0.45833 0.0
C308 C 0.01633 0.63897 0.46432 0.0
C309 C 0.00756 0.64339 0.4012 0.0
C310 C 0.02505 0.65742 0.39515 0.0
C311 C -0.01091 0.612 0.44089 0.0
H312 H 0.91509 0.44073 0.55199 0.0
H313 H 0.94652 0.46453 0.55003 0.0
H314 H 0.94822 0.46455 0.66479 0.0
H315 H 0.91662 0.44058 0.66696 0.0
H316 H 0.04438 0.65502 0.4807 0.0
H317 H 0.01369 0.63076 0.49104 0.0
H318 H -0.00205 0.63885 0.37882 0.0
H319 H 0.0284 0.66398 0.36817 0.0
Dy320 Dy 0.23128 0.24489 0.99557 0.0
Dy321 Dy 0.22908 0.30502 0.05888 0.0
C322 C 0.17845 0.30087 0.03629 0.0
O323 O 0.23684 0.29147 0.96802 0.0
O324 O 0.2194 0.34116 1.00896 0.0
O325 O 0.2214 0.23597 0.94262 0.0
O326 O 0.24672 0.18655 0.97422 0.0
O327 O 0.26631 0.28447 1.03082 0.0
O328 O 0.27109 0.22533 1.01295 0.0
O329 O 0.23766 0.24809 0.08586 0.0
O330 O 0.22209 0.22144 0.04471 0.0
O331 O 0.24626 0.31289 0.10617 0.0
O332 O 0.21236 0.36108 0.08533 0.0
C333 C 0.22756 0.3285 0.9764 0.0
O334 O 0.18966 0.28125 1.00712 0.0
O335 O 0.19063 0.30916 0.0609 0.0
C336 C 0.21752 0.17907 0.93771 0.0
C337 C 0.18289 0.15123 0.92194 0.0
C338 C 0.18699 0.15798 0.95742 0.0
C339 C 0.20407 0.17198 0.96523 0.0
C340 C 0.21406 0.17138 0.90235 0.0
C341 C 0.19677 0.15761 0.89446 0.0
C342 C 0.23311 0.19811 0.94553 0.0
C343 C 0.28068 0.24904 1.01901 0.0
C344 C 0.2295 0.22295 0.07712 0.0
C345 C 0.24395 0.37446 0.10875 0.0
C346 C 0.27538 0.41046 0.11106 0.0
C347 C 0.26798 0.40207 0.0782 0.0
C348 C 0.25248 0.38402 0.07706 0.0
C349 C 0.25038 0.38422 0.14155 0.0
C350 C 0.266 0.40214 0.14272 0.0
C351 C 0.23104 0.35029 0.10762 0.0
H352 H 0.17618 0.15404 0.97906 0.0
H353 H 0.20615 0.17845 0.99266 0.0
H354 H 0.22415 0.17712 0.88082 0.0
H355 H 0.19393 0.15258 0.86693 0.0
H356 H 0.27519 0.40767 0.0534 0.0
H357 H 0.24798 0.37613 0.05147 0.0
H358 H 0.2441 0.37672 0.16622 0.0
H359 H 0.27127 0.40859 0.16838 0.0
Dy360 Dy 0.22683 0.07248 0.32367 0.0
Dy361 Dy 0.22114 1.01691 0.26267 0.0
C362 C 0.2757 0.99526 0.29516 0.0
O363 O 0.24172 0.08411 0.27249 0.0
O364 O 0.21599 0.07206 0.23601 0.0
O365 O 0.23227 0.12207 0.33829 0.0
O366 O 0.226 0.08792 0.37896 0.0
O367 O 0.18219 0.05425 0.28513 0.0
O368 O 0.18754 0.10635 0.30286 0.0
O369 O 0.23032 0.9831 0.31358 0.0
O370 O 0.2118 1.03569 0.35076 0.0
O371 O 0.21124 0.97198 0.24811 0.0
O372 O 0.22247 1.00034 0.20728 0.0
C373 C 0.23015 0.08916 0.242 0.0
O374 O 0.26443 1.01879 0.32229 0.0
O375 O 0.26318 0.9949 0.26662 0.0
C376 C 0.25394 0.11358 0.39214 0.0
C377 C 0.29574 0.11119 0.42836 0.0
C378 C 0.29407 0.07675 0.42203 0.0
C379 C 0.27344 0.07788 0.40387 0.0
C380 C 0.2554 0.14804 0.39877 0.0
C381 C 0.2762 0.14686 0.41661 0.0
C382 C 0.23239 0.11516 0.37222 0.0
C383 C 0.17279 0.0911 0.2941 0.0
C384 C 0.22048 0.99823 0.34484 0.0
C385 C 0.18999 0.98392 0.19392 0.0
C386 C 0.14563 0.99333 0.15965 0.0
C387 C 0.14427 1.01926 0.18674 0.0
C388 C 0.16624 1.01468 0.20362 0.0
C389 C 0.1916 0.95866 0.16618 0.0
C390 C 0.16958 0.96344 0.14901 0.0
C391 C 0.21271 0.97709 0.21406 0.0
H392 H 0.30908 0.04879 0.43028 0.0
H393 H 0.2729 0.05081 0.39867 0.0
H394 H 0.24057 0.17582 0.38983 0.0
H395 H 0.27702 0.17382 0.42123 0.0
H396 H 0.12614 0.04289 0.19518 0.0
H397 H 0.16461 1.03464 0.22482 0.0
H398 H 0.20979 0.93475 0.15836 0.0
H399 H 0.17118 0.94295 0.12833 0.0
Dy400 Dy 0.47163 0.2612 0.80774 0.0
Dy401 Dy 0.4768 0.31823 0.74702 0.0
C402 C 0.42296 0.33628 0.77986 0.0
O403 O 0.4817 0.22654 0.75693 0.0
O404 O 0.46524 0.27817 0.71891 0.0
O405 O 0.45807 0.22065 0.82365 0.0
O406 O 0.47868 0.23745 0.86088 0.0
O407 O 0.51579 0.26737 0.74805 0.0
O408 O 0.51345 0.23987 0.80161 0.0
O409 O 0.48881 0.33282 0.79834 0.0
O410 O 0.4654 0.31601 0.83651 0.0
O411 O 0.48659 0.36332 0.73154 0.0
O412 O 0.47003 0.3406 0.69339 0.0
C413 C 0.47327 0.24101 0.72536 0.0
O414 O 0.43242 0.29922 0.78788 0.0
O415 O 0.43768 0.35162 0.77049 0.0
C416 C 0.4457 0.22617 0.88365 0.0
C417 C 0.4064 0.23794 0.93249 0.0
C418 C 0.40466 0.26855 0.91061 0.0
C419 C 0.42416 0.2627 0.88638 0.0
C420 C 0.44789 0.19584 0.90595 0.0
C421 C 0.42839 0.20166 0.93024 0.0
C422 C 0.46529 0.21912 0.85645 0.0
C423 C 0.52653 0.24295 0.77436 0.0
C424 C 0.47769 0.33601 0.82944 0.0
C425 C 0.50089 0.35794 0.67246 0.0
C426 C 0.54193 0.34955 0.62873 0.0
C427 C 0.53935 0.31667 0.63892 0.0
C428 C 0.51906 0.32081 0.66083 0.0
C429 C 0.50288 0.39089 0.6613 0.0
C430 C 0.52328 0.38675 0.63964 0.0
C431 C 0.481 0.3624 0.69834 0.0
H432 H 0.38784 0.29666 0.91127 0.0
H433 H 0.42217 0.28638 0.86918 0.0
H434 H 0.46446 0.16748 0.90415 0.0
H435 H 0.43041 0.17767 0.94698 0.0
H436 H 0.55364 0.28764 0.6313 0.0
H437 H 0.51798 0.29497 0.66953 0.0
H438 H 0.48906 0.41973 0.67018 0.0
H439 H 0.52479 0.41256 0.63201 0.0
Dy440 Dy 0.97234 0.77165 0.81246 0.0
Dy441 Dy -0.02038 0.82244 0.74683 0.0
C442 C 0.92559 0.84902 0.78324 0.0
O443 O -0.01578 0.73299 0.76432 0.0
O444 O 0.96794 0.78034 0.72229 0.0
O445 O 0.95799 0.73222 0.82874 0.0
O446 O -0.02264 0.75071 0.86662 0.0
O447 O 0.01788 0.77124 0.75198 0.0
O448 O 0.01438 0.74945 0.80797 0.0
O449 O -0.01177 0.84546 0.79671 0.0
O450 O 0.9687 0.8257 0.83945 0.0
O451 O -0.00508 0.85883 0.72535 0.0
O452 O 0.97106 0.8439 0.69287 0.0
C453 C -0.0239 0.74392 0.73193 0.0
O454 O 0.9333 0.81277 0.79319 0.0
O455 O 0.94141 0.8607 0.77016 0.0
C456 C 0.94458 0.73801 0.88831 0.0
C457 C 0.90471 0.74763 0.93521 0.0
C458 C 0.90308 0.77909 0.91466 0.0
C459 C 0.92285 0.77428 0.89134 0.0
C460 C 0.94661 0.70686 0.90932 0.0
C461 C 0.92684 0.7116 0.93262 0.0
C462 C 0.96447 0.73164 0.86181 0.0
C463 C 0.02798 0.74982 0.78018 0.0
C464 C -0.02079 0.84745 0.82929 0.0
C465 C 0.00612 0.84655 0.66541 0.0
C466 C 0.05029 0.823 0.62315 0.0
C467 C 0.04495 0.79511 0.63986 0.0
C468 C 0.02306 0.80681 0.66089 0.0
C469 C 0.01041 0.87431 0.64678 0.0
C470 C 0.03232 0.86261 0.62561 0.0
C471 C -0.01348 0.85908 0.69353 0.0
H472 H 0.88615 0.80706 0.91568 0.0
H473 H 0.92095 0.79856 0.87505 0.0
H474 H 0.96329 0.67865 0.9072 0.0
H475 H 0.92877 0.68698 0.94836 0.0
H476 H 0.05839 0.76439 0.6382 0.0
H477 H 0.0201 0.78497 0.67526 0.0
H478 H -0.00238 0.90512 0.65027 0.0
H479 H 0.03607 0.88474 0.61333 0.0
Dy480 Dy 0.72972 0.55719 0.31178 0.0
Dy481 Dy 0.71638 0.50511 0.25429 0.0
C482 C 0.77307 0.47745 0.2802 0.0
O483 O 0.72118 0.59108 0.26091 0.0
O484 O 0.72772 0.54247 0.2209 0.0
O485 O 0.74438 0.59739 0.32243 0.0
O486 O 0.73037 0.57584 0.36596 0.0
O487 O 0.68072 0.5619 0.25789 0.0
O488 O 0.68734 0.58543 0.311 0.0
O489 O 0.7067 0.49097 0.30799 0.0
O490 O 0.73311 0.5047 0.342 0.0
O491 O 0.69548 0.47438 0.24068 0.0
O492 O 0.72488 0.47245 0.20486 0.0
C493 C 0.72491 0.57742 0.22815 0.0
O494 O 0.76679 0.51383 0.28797 0.0
O495 O 0.75573 0.46659 0.27332 0.0
C496 C 0.76504 0.58803 0.37671 0.0
C497 C 0.81003 0.57873 0.40852 0.0
C498 C 0.81056 0.55061 0.38442 0.0
C499 C 0.78823 0.55519 0.36869 0.0
C500 C 0.76423 0.61531 0.40177 0.0
C501 C 0.78656 0.61064 0.4177 0.0
C502 C 0.74217 0.59569 0.35683 0.0
C503 C 0.67257 0.58669 0.28477 0.0
C504 C 0.71935 0.48665 0.33734 0.0
C505 C 0.69007 0.46804 0.17993 0.0
C506 C 0.65336 0.47676 0.12953 0.0
C507 C 0.654 0.50973 0.14401 0.0
C508 C 0.67221 0.50539 0.16918 0.0
C509 C 0.69033 0.43516 0.16419 0.0
C510 C 0.67213 0.43945 0.13917 0.0
C511 C 0.70684 0.46274 0.20986 0.0
H512 H 0.82833 0.52548 0.37719 0.0
H513 H 0.78916 0.53378 0.34942 0.0
H514 H 0.74647 0.64089 0.40812 0.0
H515 H 0.78561 0.63289 0.43596 0.0
H516 H 0.63963 0.53882 0.13733 0.0
H517 H 0.67172 0.53108 0.1813 0.0
H518 H 0.70402 0.40614 0.17227 0.0
H519 H 0.67222 0.41358 0.12816 0.0
Dy520 Dy 0.72973 0.74813 1.00487 0.0
Dy521 Dy 0.72955 0.81151 0.06396 0.0
C522 C 0.67822 0.80771 0.0467 0.0
O523 O 0.73469 0.79337 0.97371 0.0
O524 O 0.71836 0.84498 1.0128 0.0
O525 O 0.71822 0.73826 0.95336 0.0
O526 O 0.74213 0.68921 0.98639 0.0
O527 O 0.76602 0.7892 0.03379 0.0
O528 O 0.77053 0.72983 1.01628 0.0
O529 O 0.73907 0.75624 0.09383 0.0
O530 O 0.72333 0.72588 0.05689 0.0
O531 O 0.74718 0.82005 0.11039 0.0
O532 O 0.71549 0.86929 0.0865 0.0
C533 C 0.72575 0.83074 0.98051 0.0
O534 O 0.68866 0.78649 1.01803 0.0
O535 O 0.69101 0.81678 0.06969 0.0
C536 C 0.71064 0.68443 0.9524 0.0
C537 C 0.67284 0.66178 0.9405 0.0
C538 C 0.6785 0.66808 0.97532 0.0
C539 C 0.69714 0.67957 0.98122 0.0
C540 C 0.70546 0.67735 0.91768 0.0
C541 C 0.68663 0.6662 0.91173 0.0
C542 C 0.72815 0.70073 0.95802 0.0
C543 C 0.78007 0.75387 1.02147 0.0
C544 C 0.73138 0.72996 0.08815 0.0
C545 C 0.74971 0.87791 0.10741 0.0
C546 C 0.78746 0.90218 0.10412 0.0
C547 C 0.77683 0.89688 0.07273 0.0
C548 C 0.75822 0.88462 0.07436 0.0
C549 C 0.75937 0.88483 0.1388 0.0
C550 C 0.7781 0.89693 0.13721 0.0
C551 C 0.73409 0.85787 0.109 0.0
H552 H 0.66788 0.66547 0.99792 0.0
H553 H 0.70051 0.68567 1.0082 0.0
H554 H 0.71552 0.68144 0.89514 0.0
H555 H 0.68267 0.66136 0.88467 0.0
H556 H 0.78335 0.90123 0.04687 0.0
H557 H 0.75124 0.87884 0.04977 0.0
H558 H 0.75332 0.87909 0.16448 0.0
H559 H 0.7861 0.90029 0.16185 0.0
Dy560 Dy 0.47314 0.99775 0.57214 0.0
Dy561 Dy 0.47927 0.05289 0.50942 0.0
C562 C 0.47818 0.97214 0.49004 0.0
O563 O 0.51492 0.97343 0.56233 0.0
O564 O 0.51493 1.02834 0.54001 0.0
O565 O 0.48386 0.9413 0.59507 0.0
O566 O 0.45525 0.99347 0.62122 0.0
O567 O 0.46799 0.08965 0.5596 0.0
O568 O 0.48076 0.04112 0.60125 0.0
O569 O 0.44045 0.06016 0.50193 0.0
O570 O 0.43359 0.04046 0.55698 0.0
O571 O 0.4677 0.10835 0.48363 0.0
O572 O 0.50063 0.05654 0.46407 0.0
C573 C 0.52669 0.99401 0.5548 0.0
O574 O 0.46829 0.97246 0.52153 0.0
O575 O 0.4871 0.99658 0.48182 0.0
C576 C 0.44794 0.93923 0.61966 0.0
C577 C 0.40965 0.91607 0.61913 0.0
C578 C 0.42183 0.91747 0.58729 0.0
C579 C 0.44069 0.92915 0.58752 0.0
C580 C 0.43622 0.93714 0.65162 0.0
C581 C 0.41714 0.92569 0.65138 0.0
C582 C 0.46579 0.95554 0.61924 0.0
C583 C 0.47404 0.07738 0.59254 0.0
C584 C 0.42538 0.05687 0.52595 0.0
C585 C 0.50385 0.1141 0.46471 0.0
C586 C 0.54111 0.13926 0.46993 0.0
C587 C 0.52681 0.1393 0.5001 0.0
C588 C 0.50848 0.12658 0.49757 0.0
C589 C 0.51728 0.1155 0.43429 0.0
C590 C 0.53577 0.12798 0.43684 0.0
C591 C 0.48795 0.09447 0.46304 0.0
H592 H 0.41616 0.91086 0.562 0.0
H593 H 0.44913 0.93128 0.56242 0.0
H594 H 0.44138 0.94527 0.6766 0.0
H595 H 0.40808 0.9247 0.67631 0.0
H596 H 0.53016 0.14837 0.52587 0.0
H597 H 0.49858 0.12519 0.52153 0.0
H598 H 0.51424 0.10534 0.40885 0.0
H599 H 0.54664 0.12708 0.41317 0.0
Dy600 Dy 0.46704 0.51371 0.06775 0.0
Dy601 Dy 0.48151 0.554 0.99921 0.0
C602 C 0.47595 0.47578 0.9887 0.0
O603 O 0.50702 0.50034 0.07685 0.0
O604 O 0.51879 0.51023 1.02059 0.0
O605 O 0.47321 0.46465 0.10101 0.0
O606 O 0.44253 0.52213 0.1132 0.0
O607 O 0.4872 0.58198 0.04766 0.0
O608 O 0.46024 0.57304 0.08604 0.0
O609 O 0.43905 0.58478 1.00394 0.0
O610 O 0.43355 0.53713 0.03289 0.0
O611 O 0.47738 0.60554 0.97178 0.0
O612 O 0.50186 0.54827 0.9497 0.0
C613 C 0.52431 0.49751 0.05334 0.0
O614 O 0.47764 0.46971 1.02332 0.0
O615 O 0.47358 0.5084 0.97479 0.0
C616 C 0.43454 0.46952 0.12258 0.0
C617 C 0.3958 0.44752 0.12751 0.0
C618 C 0.40426 0.45358 0.09408 0.0
C619 C 0.42345 0.46456 0.09164 0.0
C620 C 0.4266 0.46277 0.15593 0.0
C621 C 0.40739 0.45173 0.15841 0.0
C622 C 0.4527 0.485 0.1201 0.0
C623 C 0.47381 0.59061 0.07734 0.0
C624 C 0.4247 0.56888 1.01377 0.0
C625 C 0.51694 0.59401 0.94784 0.0
C626 C 0.56121 0.60305 0.94697 0.0
C627 C 0.55042 0.59943 0.97938 0.0
C628 C 0.52859 0.59479 0.97978 0.0
C629 C 0.52726 0.59829 0.91541 0.0
C630 C 0.54924 0.60291 0.91495 0.0
C631 C 0.49545 0.58532 0.94877 0.0
H632 H 0.39596 0.45001 0.06979 0.0
H633 H 0.4293 0.46995 0.06566 0.0
H634 H 0.43483 0.46695 0.18004 0.0
H635 H 0.4011 0.44762 0.18453 0.0
H636 H 0.55888 0.60011 1.00453 0.0
H637 H 0.52105 0.59113 1.00509 0.0
H638 H 0.51865 0.59724 0.8905 0.0
H639 H 0.55723 0.60535 0.88957 0.0
H640 H 0.96227 0.11946 0.14037 0.0
H641 H -0.01896 0.17365 0.05264 0.0
H642 H -0.01708 0.22144 0.09345 0.0
H643 H -0.01972 0.24708 0.15502 0.0
H644 H 0.96428 0.18892 0.24226 0.0
H645 H 0.96026 0.14395 0.20096 0.0
C646 C 0.96653 0.14194 0.13005 0.0
C647 C 0.97126 0.14305 0.09335 0.0
C648 C 0.96822 0.16872 0.15379 0.0
C649 C -0.02278 0.17207 0.08071 0.0
C650 C -0.02168 0.19945 0.10409 0.0
C651 C -0.0242 0.22467 0.16488 0.0
C652 C 0.97263 0.22152 0.20182 0.0
C653 C 0.97401 0.19798 0.14081 0.0
C654 C 0.96705 0.19199 0.21409 0.0
C655 C 0.96465 0.1662 0.19044 0.0
H656 H 0.80575 0.30024 0.53167 0.0
H657 H 0.80523 0.19918 0.48428 0.0
H658 H 0.84507 0.18353 0.45282 0.0
H659 H 0.87811 0.20148 0.43515 0.0
H660 H 0.87811 0.3031 0.48182 0.0
H661 H 0.84018 0.31575 0.51705 0.0
C662 C 0.81442 0.27452 0.51477 0.0
C663 C 0.80237 0.25108 0.51018 0.0
C664 C 0.83708 0.26603 0.49634 0.0
C665 C 0.81401 0.21783 0.48823 0.0
C666 C 0.83676 0.20891 0.47013 0.0
C667 C 0.87008 0.226 0.4535 0.0
C668 C 0.88083 0.25144 0.45572 0.0
C669 C 0.8482 0.23322 0.47347 0.0
C670 C 0.86998 0.28341 0.47925 0.0
C671 C 0.84836 0.29057 0.49949 0.0
H672 H 0.75097 0.12181 0.72562 0.0
H673 H 0.69928 0.0945 0.66729 0.0
H674 H 0.69731 0.1393 0.6202 0.0
H675 H 0.70948 0.18768 0.59597 0.0
H676 H 0.76104 0.21478 0.65496 0.0
H677 H 0.76378 0.16878 0.70099 0.0
C678 C 0.73933 0.12545 0.70257 0.0
C679 C 0.72529 0.10464 0.70022 0.0
C680 C 0.73819 0.15143 0.67553 0.0
C681 C 0.71033 0.10998 0.66999 0.0
C682 C 0.70916 0.13571 0.64297 0.0
C683 C 0.72142 0.18342 0.61879 0.0
C684 C 0.735 0.20492 0.62178 0.0
C685 C 0.72289 0.1568 0.6455 0.0
C686 C 0.75032 0.19886 0.65172 0.0
C687 C 0.75191 0.17247 0.67821 0.0
H688 H 0.89041 0.06112 1.02139 0.0
H689 H 0.90541 0.13336 0.94719 0.0
H690 H 0.86689 0.14644 0.91502 0.0
H691 H 0.83036 0.13395 0.90574 0.0
H692 H 0.81589 0.06128 0.97989 0.0
H693 H 0.85279 0.05186 1.01431 0.0
C694 C 0.88518 0.08006 0.99839 0.0
C695 C 0.90094 0.09599 0.98663 0.0
C696 C 0.86318 0.08715 0.97982 0.0
C697 C 0.89368 0.12069 0.9569 0.0
C698 C 0.87171 0.12802 0.93834 0.0
C699 C 0.83532 0.11608 0.92946 0.0
C700 C 0.8205 0.09817 0.94015 0.0
C701 C 0.85659 0.11078 0.94915 0.0
C702 C 0.82689 0.07558 0.97123 0.0
C703 C 0.84804 0.07006 0.99085 0.0
H704 H 0.03738 1.01456 0.12028 0.0
H705 H 0.06752 1.00615 1.01358 0.0
H706 H 0.10827 0.99535 0.03761 0.0
H707 H 0.13482 0.99114 0.08935 0.0
H708 H 0.10329 1.00231 0.19542 0.0
H709 H 0.06361 1.00936 0.17116 0.0
C710 C 0.05289 1.00995 0.10213 0.0
C711 C 0.04934 1.01096 0.06512 0.0
C712 C 0.07602 1.00458 0.11608 0.0
C713 C 0.0697 1.0053 0.04218 0.0
C714 C 0.09301 0.99926 0.05592 0.0
C715 C 0.11929 0.99482 0.10706 0.0
C716 C 0.12193 0.99647 0.14413 0.0
C717 C 0.09631 0.99926 0.09287 0.0
C718 C 0.1016 1.00152 0.1668 0.0
C719 C 0.07895 1.00535 0.15296 0.0
H720 H 0.96271 0.44482 0.47468 0.0
H721 H 0.01512 0.47245 0.41608 0.0
H722 H 0.01619 0.43036 0.3672 0.0
H723 H 0.00165 0.38643 0.3401 0.0
H724 H 0.94923 0.35889 0.39889 0.0
H725 H 0.94882 0.39999 0.44814 0.0
C726 C 0.97453 0.44145 0.45136 0.0
C727 C -0.01116 0.46192 0.44934 0.0
C728 C 0.97498 0.41723 0.42303 0.0
C729 C 0.00391 0.45717 0.41864 0.0
C730 C 0.0045 0.43309 0.39049 0.0
C731 C -0.00988 0.38937 0.36366 0.0
C732 C 0.97547 0.36943 0.36546 0.0
C733 C -0.01001 0.41314 0.39223 0.0
C734 C 0.96075 0.37371 0.39646 0.0
C735 C 0.96048 0.39729 0.42481 0.0
H736 H 0.64378 0.30085 0.54166 0.0
H737 H 0.6515 0.37541 0.62039 0.0
H738 H 0.60915 0.39261 0.64422 0.0
H739 H 0.57152 0.3825 0.64568 0.0
H740 H 0.5647 0.30476 0.56976 0.0
H741 H 0.60523 0.29252 0.5418 0.0
C742 C 0.63601 0.32132 0.56368 0.0
C743 C 0.65067 0.33691 0.57927 0.0
C744 C 0.61197 0.33015 0.57791 0.0
C745 C 0.64056 0.36295 0.60808 0.0
C746 C 0.61639 0.37276 0.62172 0.0
C747 C 0.57869 0.36347 0.62258 0.0
C748 C 0.56517 0.34471 0.60964 0.0
C749 C 0.60215 0.35598 0.60727 0.0
C750 C 0.57489 0.31942 0.5802 0.0
C751 C 0.598 0.31247 0.56423 0.0
H752 H 0.73233 0.91427 0.83878 0.0
H753 H 0.71052 1.01156 0.91089 0.0
H754 H 0.70917 0.97146 0.96039 0.0
H755 H 0.71453 0.90817 0.98347 0.0
H756 H 0.73628 0.81162 0.91028 0.0
H757 H 0.73721 0.85202 0.86134 0.0
C758 C 0.72726 0.92686 0.86529 0.0
C759 C 0.72155 0.96603 0.8709 0.0
C760 C 0.72646 0.90366 0.89365 0.0
C761 C 0.71499 0.98158 0.90559 0.0
C762 C 0.71421 0.95861 0.934 0.0
C763 C 0.71934 0.89601 0.9568 0.0
C764 C 0.7253 0.8567 0.95084 0.0
C765 C 0.71992 0.91954 0.92839 0.0
C766 C 0.73163 0.8416 0.91597 0.0
C767 C 0.73218 0.86473 0.88779 0.0
H768 H 0.14476 0.36095 0.07627 0.0
H769 H 0.15249 0.26229 1.01451 0.0
H770 H 0.11088 0.27226 0.03648 0.0
H771 H 0.07414 0.30559 0.07795 0.0
H772 H 0.06718 0.40429 0.13913 0.0
H773 H 0.1065 0.39794 0.1125 0.0
C774 C 0.13717 0.34197 0.06722 0.0
C775 C 0.1517 0.31079 0.04407 0.0
C776 C 0.11344 0.34773 0.08009 0.0
C777 C 0.14156 0.28665 0.03221 0.0
C778 C 0.11788 0.29214 0.04501 0.0
C779 C 0.08118 0.32584 0.08514 0.0
C780 C 0.06781 0.35528 0.11057 0.0
C781 C 0.10395 0.32199 0.0697 0.0
C782 C 0.07697 0.38161 0.1194 0.0
C783 C 0.09955 0.37787 0.10436 0.0
H784 H 0.72878 0.48345 0.40924 0.0
H785 H 0.70923 0.42627 0.32581 0.0
H786 H 0.70887 0.37899 0.36813 0.0
H787 H 0.71418 0.35316 0.42876 0.0
H788 H 0.73149 0.41147 0.51347 0.0
H789 H 0.7325 0.45872 0.47108 0.0
C790 C 0.72445 0.46064 0.40039 0.0
C791 C 0.71904 0.45859 0.36427 0.0
C792 C 0.72379 0.43362 0.42519 0.0
C793 C 0.71329 0.4289 0.35339 0.0
C794 C 0.71314 0.40165 0.3776 0.0
C795 C 0.71814 0.37622 0.438 0.0
C796 C 0.72277 0.37861 0.47431 0.0
C797 C 0.71834 0.40367 0.41356 0.0
C798 C 0.72768 0.40897 0.48575 0.0
C799 C 0.72837 0.43598 0.46145 0.0
H800 H 0.5555 1.03078 0.5457 0.0
H801 H 0.55642 0.92858 0.59312 0.0
H802 H 0.59671 0.91304 0.62141 0.0
H803 H 0.62921 0.93223 0.63746 0.0
H804 H 0.62745 1.03535 0.59112 0.0
H805 H 0.58964 0.04701 0.55784 0.0
C806 C 0.5646 1.00479 0.56187 0.0
C807 C 0.55278 0.98109 0.56756 0.0
C808 C 0.58741 0.99651 0.57862 0.0
C809 C 0.56502 0.94743 0.58839 0.0
C810 C 0.588 0.93861 0.60472 0.0
C811 C 0.62085 0.95681 0.61953 0.0
C812 C 0.631 0.98305 0.61695 0.0
C813 C 0.59902 0.9635 0.60072 0.0
C814 C 0.61976 1.01507 0.59397 0.0
C815 C 0.59822 1.02166 0.57485 0.0
H816 H -0.01462 0.98452 0.91265 0.0
H817 H 0.97309 0.9265 1.00315 0.0
H818 H 0.9719 0.87719 0.96353 0.0
H819 H 0.9736 0.8511 0.90249 0.0
H820 H -0.01269 0.90921 0.81304 0.0
H821 H -0.01141 0.95766 0.85284 0.0
C822 C -0.01752 0.96108 0.92385 0.0
C823 C -0.02074 0.95944 0.96096 0.0
C824 C -0.01801 0.93273 0.90095 0.0
C825 C -0.02425 0.92852 0.97479 0.0
C826 C 0.97495 0.90035 0.95207 0.0
C827 C -0.02312 0.87436 0.89172 0.0
C828 C -0.01969 0.87631 0.85461 0.0
C829 C -0.02208 0.90223 0.91501 0.0
C830 C -0.01529 0.90663 0.84133 0.0
C831 C -0.0146 0.93454 0.86413 0.0
H832 H 0.08213 0.14451 0.88801 0.0
H833 H 0.11037 0.05771 0.97059 0.0
H834 H 0.14966 0.06281 0.97241 0.0
H835 H 0.17433 0.09592 0.95416 0.0
H836 H 0.14599 0.18329 0.87224 0.0
H837 H 0.10878 0.17293 0.86556 0.0
C838 C 0.09709 0.12614 0.90587 0.0
C839 C 0.09319 0.10126 0.92951 0.0
C840 C 0.11962 0.12925 0.90683 0.0
C841 C 0.1127 0.07778 0.95268 0.0
C842 C 0.13522 0.0805 0.95363 0.0
C843 C 0.16009 0.11238 0.93463 0.0
C844 C 0.1627 0.14052 0.91397 0.0
C845 C 0.13859 0.10684 0.93146 0.0
C846 C 0.14442 0.16128 0.88831 0.0
C847 C 0.12305 0.15563 0.88471 0.0
H848 H 0.63044 0.5831 0.26233 0.0
H849 H 0.65536 0.66111 0.3081 0.0
H850 H 0.61177 0.71411 0.30835 0.0
H851 H 0.56619 0.73818 0.29643 0.0
H852 H 0.54079 0.65831 0.25657 0.0
H853 H 0.58469 0.60632 0.25299 0.0
C854 C 0.62626 0.61175 0.27227 0.0
C855 C 0.64604 0.61827 0.28507 0.0
C856 C 0.60101 0.64178 0.27339 0.0
C857 C 0.64039 0.65537 0.29829 0.0
C858 C 0.61549 0.68571 0.29834 0.0
C859 C 0.57038 0.7094 0.28684 0.0
C860 C 0.55041 0.70203 0.27659 0.0
C861 C 0.59561 0.67926 0.28607 0.0
C862 C 0.55593 0.66454 0.2647 0.0
C863 C 0.58101 0.63485 0.2626 0.0
H864 H 0.32753 0.86044 0.59126 0.0
H865 H 0.28298 0.95802 0.66062 0.0
H866 H 0.31951 0.97022 0.66771 0.0
H867 H 0.36373 0.95414 0.65257 0.0
H868 H 0.40785 0.8567 0.5828 0.0
H869 H 0.37167 0.84364 0.57712 0.0
C870 C 0.32573 0.88466 0.60762 0.0
C871 C 0.30256 0.90858 0.6251 0.0
C872 C 0.3467 0.89143 0.61151 0.0
C873 C 0.30067 0.93921 0.64694 0.0
C874 C 0.3215 0.94621 0.65094 0.0
C875 C 0.3655 0.92972 0.63658 0.0
C876 C 0.38837 0.9064 0.61813 0.0
C877 C 0.34459 0.92254 0.63327 0.0
C878 C 0.39033 0.87521 0.59701 0.0
C879 C 0.36971 0.86771 0.59379 0.0
H880 H 0.05402 0.67656 0.80616 0.0
H881 H 0.06405 0.7676 0.75394 0.0
H882 H 0.11022 0.72725 0.75453 0.0
H883 H 0.14783 0.66576 0.76976 0.0
H884 H 0.13761 0.57219 0.81609 0.0
H885 H 0.09152 0.61358 0.81796 0.0
C886 C 0.06639 0.6875 0.79508 0.0
C887 C 0.05578 0.72506 0.78042 0.0
C888 C 0.09286 0.66364 0.79442 0.0
C889 C 0.07188 0.73875 0.76544 0.0
C890 C 0.09824 0.71574 0.76581 0.0
C891 C 0.13545 0.6546 0.78036 0.0
C892 C 0.14599 0.61624 0.79313 0.0
C893 C 0.10895 0.67813 0.78024 0.0
C894 C 0.12983 0.60171 0.80615 0.0
C895 C 0.10352 0.62536 0.80728 0.0
H896 H 0.83658 0.37069 0.59199 0.0
H897 H 0.79546 0.45782 0.67234 0.0
H898 H 0.82962 0.4761 0.67362 0.0
H899 H 0.87076 0.46809 0.65095 0.0
H900 H 0.91142 0.38147 0.57003 0.0
H901 H 0.87758 0.36257 0.5695 0.0
C902 C 0.83495 0.394 0.60949 0.0
C903 C 0.81347 0.41304 0.63189 0.0
C904 C 0.85454 0.40441 0.60996 0.0
C905 C 0.81189 0.44258 0.655 0.0
C906 C 0.83135 0.45311 0.65566 0.0
C907 C 0.87232 0.44477 0.63353 0.0
C908 C 0.89353 0.42614 0.61061 0.0
C909 C 0.85276 0.43421 0.63326 0.0
C910 C 0.89515 0.39642 0.58771 0.0
C911 C 0.87586 0.38556 0.58746 0.0
H912 H 0.30877 0.95488 0.2412 0.0
H913 H 0.30441 0.97251 0.355 0.0
H914 H 0.34917 0.92516 0.35991 0.0
H915 H 0.38981 0.87842 0.33194 0.0
H916 H 0.39456 0.86341 0.21782 0.0
H917 H 0.3496 0.90976 0.2131 0.0
C918 C 0.3176 0.94836 0.26708 0.0
C919 C 0.30315 0.96722 0.29765 0.0
C920 C 0.34352 0.92142 0.26972 0.0
C921 C 0.31503 0.95861 0.33095 0.0
C922 C 0.34066 0.93139 0.33384 0.0
C923 C 0.38097 0.8852 0.30607 0.0
C924 C 0.39556 0.8673 0.27532 0.0
C925 C 0.35511 0.91254 0.30342 0.0
C926 C 0.38385 0.87679 0.24195 0.0
C927 C 0.35808 0.9033 0.23919 0.0
H928 H 0.30307 0.42026 0.77228 0.0
H929 H 0.31274 0.51479 0.81686 0.0
H930 H 0.35891 0.47436 0.81532 0.0
H931 H 0.3967 0.41207 0.80069 0.0
H932 H 0.38681 0.31562 0.76167 0.0
H933 H 0.34069 0.35661 0.76164 0.0
C934 C 0.31534 0.43193 0.78162 0.0
C935 C 0.30457 0.47053 0.79434 0.0
C936 C 0.34184 0.40813 0.78162 0.0
C937 C 0.32061 0.48514 0.80696 0.0
C938 C 0.347 0.46208 0.80599 0.0
C939 C 0.38439 0.40015 0.79214 0.0
C940 C 0.39509 0.36106 0.78083 0.0
C941 C 0.35785 0.42357 0.79326 0.0
C942 C 0.37898 0.34567 0.77046 0.0
C943 C 0.35263 0.3691 0.77037 0.0
H944 H 0.16512 0.77559 0.59432 0.0
H945 H 0.13507 0.84274 0.49929 0.0
H946 H 0.0923 0.85248 0.5158 0.0
H947 H 0.06328 0.84529 0.56009 0.0
H948 H 0.09506 0.77575 0.65372 0.0
H949 H 0.13749 0.76293 0.63464 0.0
C950 C 0.14916 0.7924 0.57724 0.0
C951 C 0.15287 0.80934 0.54621 0.0
C952 C 0.12505 0.7972 0.5866 0.0
C953 C 0.13239 0.82992 0.52358 0.0
C954 C 0.10804 0.83546 0.53305 0.0
C955 C 0.07957 0.82703 0.57601 0.0
C956 C 0.07603 0.81155 0.60829 0.0
C957 C 0.10408 0.81979 0.56489 0.0
C958 C 0.09728 0.78763 0.62858 0.0
C959 C 0.12155 0.78056 0.61789 0.0
H960 H 0.23806 0.91954 0.34293 0.0
H961 H 0.20102 1.01929 0.41273 0.0
H962 H 0.20019 0.97722 0.46073 0.0
H963 H 0.21018 0.9114 0.48325 0.0
H964 H 0.24746 0.81251 0.41223 0.0
H965 H 0.24795 0.85478 0.36497 0.0
C966 C 0.22973 0.93222 0.36858 0.0
C967 C 0.21958 0.97267 0.37397 0.0
C968 C 0.22937 0.90785 0.39617 0.0
C969 C 0.20896 0.98831 0.4076 0.0
C970 C 0.20849 0.96421 0.43519 0.0
C971 C 0.21839 0.89912 0.45745 0.0
C972 C 0.22873 0.8586 0.45164 0.0
C973 C 0.21867 0.92382 0.42985 0.0
C974 C 0.23933 0.84342 0.41786 0.0
C975 C 0.23964 0.86764 0.39057 0.0
H976 H 0.96317 0.75307 0.66106 0.0
H977 H -0.01031 0.66743 0.74476 0.0
H978 H -0.00944 0.61818 0.70387 0.0
H979 H -0.01577 0.59859 0.64426 0.0
H980 H 0.95815 0.68339 0.55993 0.0
H981 H 0.95666 0.73328 0.60098 0.0
C982 C 0.9691 0.72367 0.67041 0.0
C983 C -0.02367 0.71429 0.7062 0.0
C984 C 0.96964 0.69507 0.64654 0.0
C985 C -0.01598 0.67582 0.71754 0.0
C986 C -0.01548 0.64745 0.6941 0.0
C987 C -0.0219 0.628 0.63477 0.0
C988 C 0.97123 0.63697 0.59886 0.0
C989 C -0.02259 0.65666 0.65853 0.0
C990 C 0.96349 0.67539 0.58732 0.0
C991 C 0.96266 0.70406 0.61084 0.0
H992 H 0.30606 0.79221 0.53493 0.0
H993 H 0.31517 0.68377 0.49016 0.0
H994 H 0.35699 0.66985 0.46659 0.0
H995 H 0.38824 0.69235 0.45231 0.0
H996 H 0.37848 0.80185 0.49489 0.0
H997 H 0.33945 0.81153 0.52576 0.0
C998 C 0.3173 0.7652 0.52047 0.0
C999 C 0.30729 0.73932 0.51391 0.0
C1000 C 0.34105 0.75782 0.50627 0.0
C1001 C 0.32227 0.70437 0.49538 0.0
C1002 C 0.34617 0.69644 0.48177 0.0
C1003 C 0.37795 0.71786 0.46909 0.0
C1004 C 0.38616 0.74645 0.47118 0.0
C1005 C 0.35537 0.72352 0.48613 0.0
C1006 C 0.37236 0.77966 0.49255 0.0
C1007 C 0.35009 0.78517 0.51019 0.0
H1008 H 0.21238 0.10247 0.17379 0.0
H1009 H 0.25337 0.13536 0.24875 0.0
H1010 H 0.25677 0.1794 0.20506 0.0
H1011 H 0.24791 0.20935 0.14536 0.0
H1012 H 0.20753 0.17528 0.07031 0.0
H1013 H 0.2042 0.1314 0.11399 0.0
C1014 C 0.22209 0.11921 0.18063 0.0
C1015 C 0.23256 0.11541 0.21472 0.0
C1016 C 0.22412 0.14453 0.15521 0.0
C1017 C 0.24513 0.13743 0.22282 0.0
C1018 C 0.24708 0.16279 0.1978 0.0
C1019 C 0.23839 0.19233 0.13851 0.0
C1020 C 0.22803 0.19586 0.10436 0.0
C1021 C 0.23661 0.16669 0.16388 0.0
C1022 C 0.21582 0.17331 0.09618 0.0
C1023 C 0.21384 0.14811 0.12125 0.0
H1024 H 0.8045 0.79776 1.02608 0.0
H1025 H 0.81428 0.68651 0.98792 0.0
H1026 H 0.85483 0.6736 0.96002 0.0
H1027 H 0.88536 0.69669 0.94181 0.0
H1028 H 0.87478 0.80862 0.979 0.0
H1029 H 0.83638 0.81865 1.01161 0.0
C1030 C 0.81557 0.77043 1.01202 0.0
C1031 C 0.80619 0.74328 1.00886 0.0
C1032 C 0.83855 0.76356 0.99548 0.0
C1033 C 0.82096 0.70798 0.9907 0.0
C1034 C 0.84411 0.70065 0.9746 0.0
C1035 C 0.87494 0.72294 0.95762 0.0
C1036 C 0.88284 0.75198 0.95778 0.0
C1037 C 0.85279 0.72863 0.97614 0.0
C1038 C 0.8689 0.78608 0.978 0.0
C1039 C 0.84702 0.79176 0.99679 0.0
H1040 H 0.21086 0.60499 0.6727 0.0
H1041 H 0.25492 0.63277 0.74677 0.0
H1042 H 0.25848 0.67715 0.70389 0.0
H1043 H 0.24902 0.70887 0.64525 0.0
H1044 H 0.20535 0.68071 0.57085 0.0
H1045 H 0.20181 0.6362 0.61367 0.0
C1046 C 0.22128 0.62067 0.67946 0.0
C1047 C 0.23257 0.6153 0.7131 0.0
C1048 C 0.22338 0.64634 0.65449 0.0
C1049 C 0.24601 0.63604 0.72119 0.0
C1050 C 0.24807 0.66161 0.69663 0.0
C1051 C 0.23875 0.69298 0.63835 0.0
C1052 C 0.22759 0.69825 0.60466 0.0
C1053 C 0.23681 0.6671 0.66318 0.0
C1054 C 0.21435 0.67725 0.59638 0.0
C1055 C 0.21223 0.65172 0.62095 0.0
H1056 H 0.31817 0.07277 0.4888 0.0
H1057 H 0.32422 0.14556 0.40629 0.0
H1058 H 0.36396 0.13793 0.43122 0.0
H1059 H 0.39855 0.10637 0.47347 0.0
H1060 H 0.39273 1.03341 0.55617 0.0
H1061 H 0.35121 0.04561 0.53439 0.0
C1062 C 0.32817 0.08708 0.47646 0.0
C1063 C 0.31845 0.10942 0.44563 0.0
C1064 C 0.35102 0.08249 0.49091 0.0
C1065 C 0.33131 0.12836 0.43014 0.0
C1066 C 0.35408 0.12384 0.44426 0.0
C1067 C 0.38808 0.09347 0.48699 0.0
C1068 C 0.39881 0.06879 0.5162 0.0
C1069 C 0.36433 0.1004 0.47422 0.0
C1070 C 0.38488 0.05265 0.53368 0.0
C1071 C 0.3612 0.05938 0.5211 0.0
H1072 H 0.79612 0.95181 0.14615 0.0
H1073 H 0.82817 0.87092 0.05831 0.0
H1074 H 0.86475 0.88323 0.05596 0.0
H1075 H 0.88803 0.91604 0.07946 0.0
H1076 H 0.8563 0.99653 0.1676 0.0
H1077 H 0.81963 0.98421 0.17004 0.0
C1078 C 0.81118 0.93669 0.12666 0.0
C1079 C 0.8093 0.9107 0.10232 0.0
C1080 C 0.83238 0.94344 0.12578 0.0
C1081 C 0.82887 0.89167 0.07692 0.0
C1082 C 0.84993 0.8984 0.07576 0.0
C1083 C 0.87302 0.93104 0.09908 0.0
C1084 C 0.8749 0.9571 0.12332 0.0
C1085 C 0.85189 0.92417 0.10008 0.0
C1086 C 0.85548 0.97589 0.14894 0.0
C1087 C 0.83441 0.96913 0.15017 0.0
H1088 H 0.63744 0.16059 0.50456 0.0
H1089 H 0.61793 0.22131 0.40441 0.0
H1090 H 0.58159 0.20847 0.39945 0.0
H1091 H 0.55511 0.18066 0.42398 0.0
H1092 H 0.57553 0.11838 0.52344 0.0
H1093 H 0.61128 0.13226 0.52876 0.0
C1094 C 0.62512 0.17125 0.48178 0.0
C1095 C 0.63035 0.19186 0.45492 0.0
C1096 C 0.60427 0.16385 0.47915 0.0
C1097 C 0.61446 0.20498 0.42526 0.0
C1098 C 0.59359 0.19787 0.42252 0.0
C1099 C 0.56747 0.16989 0.4467 0.0
C1100 C 0.56248 0.14874 0.47335 0.0
C1101 C 0.58832 0.17733 0.44931 0.0
C1102 C 0.57856 0.13542 0.50285 0.0
C1103 C 0.59918 0.14302 0.50579 0.0
H1104 H 0.81414 0.49029 0.28481 0.0
H1105 H 0.7933 0.39797 0.27557 0.0
H1106 H 0.83809 0.34943 0.27611 0.0
H1107 H 0.88349 0.33311 0.27861 0.0
H1108 H 0.90369 0.42629 0.2857 0.0
H1109 H 0.85898 0.47428 0.28678 0.0
C1110 C 0.81933 0.45957 0.28291 0.0
C1111 C 0.8003 0.44792 0.28011 0.0
C1112 C 0.84512 0.43181 0.28289 0.0
C1113 C 0.8075 0.40789 0.27759 0.0
C1114 C 0.83315 0.38004 0.27798 0.0
C1115 C 0.87807 0.3639 0.2805 0.0
C1116 C 0.89697 0.37599 0.28196 0.0
C1117 C 0.85217 0.39164 0.28055 0.0
C1118 C 0.8896 0.41608 0.28422 0.0
C1119 C 0.86399 0.44364 0.28492 0.0
H1120 H 0.05096 0.70949 0.4617 0.0
H1121 H 0.07494 0.63197 0.37081 0.0
H1122 H 0.11376 0.63826 0.36527 0.0
H1123 H 0.14301 0.6599 0.3904 0.0
H1124 H 0.11957 0.73547 0.48266 0.0
H1125 H 0.07865 0.73522 0.48395 0.0
C1126 C 0.06462 0.6942 0.44055 0.0
C1127 C 0.06019 0.67011 0.41691 0.0
C1128 C 0.08719 0.69704 0.43814 0.0
C1129 C 0.0778 0.65101 0.38919 0.0
C1130 C 0.10014 0.65425 0.38622 0.0
C1131 C 0.12876 0.67677 0.4104 0.0
C1132 C 0.13439 0.6971 0.43671 0.0
C1133 C 0.10534 0.67633 0.41113 0.0
C1134 C 0.11583 0.71883 0.46259 0.0
C1135 C 0.0924 0.7189 0.46324 0.0
H1136 H 0.64681 0.15748 0.76299 0.0
H1137 H 0.63614 0.06751 0.81618 0.0
H1138 H 0.59012 0.10909 0.81715 0.0
H1139 H 0.55284 0.17082 0.80251 0.0
H1140 H 0.56286 0.25871 0.74429 0.0
H1141 H 0.60906 0.21825 0.74533 0.0
C1142 C 0.63434 0.14722 0.77497 0.0
C1143 C 0.64479 0.10973 0.78991 0.0
C1144 C 0.60779 0.17083 0.7743 0.0
C1145 C 0.62849 0.09633 0.80465 0.0
C1146 C 0.60219 0.12008 0.8052 0.0
C1147 C 0.56515 0.18113 0.79009 0.0
C1148 C 0.55445 0.21785 0.77361 0.0
C1149 C 0.59162 0.15733 0.79004 0.0
C1150 C 0.57062 0.23053 0.75711 0.0
C1151 C 0.59705 0.20747 0.75782 0.0
H1152 H 0.73162 0.64264 0.23138 0.0
H1153 H 0.71977 0.56802 0.15719 0.0
H1154 H 0.72062 0.60828 0.10773 0.0
H1155 H 0.7246 0.66485 0.08518 0.0
H1156 H 0.73792 0.73828 0.15903 0.0
H1157 H 0.73669 0.69839 0.20859 0.0
C1158 C 0.72918 0.6352 0.20441 0.0
C1159 C 0.72558 0.60226 0.19821 0.0
C1160 C 0.73001 0.65829 0.17584 0.0
C1161 C 0.72267 0.59302 0.16292 0.0
C1162 C 0.7231 0.61611 0.13452 0.0
C1163 C 0.72727 0.67217 0.11209 0.0
C1164 C 0.73134 0.70471 0.11816 0.0
C1165 C 0.72677 0.64883 0.14061 0.0
C1166 C 0.73486 0.71343 0.15334 0.0
C1167 C 0.73409 0.69064 0.18183 0.0
H1168 H 0.91763 0.56529 0.43871 0.0
H1169 H 0.88695 0.59081 0.54584 0.0
H1170 H 0.84688 0.59505 0.52519 0.0
H1171 H 0.82093 0.59013 0.47654 0.0
H1172 H 0.85294 0.56228 0.3702 0.0
H1173 H 0.89229 0.55982 0.39086 0.0
C1174 C 0.9021 0.57227 0.45756 0.0
C1175 C 0.90516 0.57822 0.49369 0.0
C1176 C 0.87947 0.57376 0.44569 0.0
C1177 C 0.885 0.58637 0.51783 0.0
C1178 C 0.86213 0.58868 0.50606 0.0
C1179 C 0.83652 0.58367 0.45795 0.0
C1180 C 0.83406 0.57624 0.42193 0.0
C1181 C 0.85921 0.5822 0.47005 0.0
C1182 C 0.85449 0.56754 0.39815 0.0
C1183 C 0.87693 0.56642 0.40987 0.0
H1184 H 0.13081 0.45591 0.62911 0.0
H1185 H 0.1259 0.56654 0.59878 0.0
H1186 H 0.08785 0.58157 0.56457 0.0
H1187 H 0.05472 0.56472 0.54592 0.0
H1188 H 0.05966 0.45416 0.577 0.0
H1189 H 0.09924 0.43742 0.60756 0.0
C1190 C 0.12171 0.48302 0.61451 0.0
C1191 C 0.13119 0.5101 0.61666 0.0
C1192 C 0.0998 0.49153 0.59501 0.0
C1193 C 0.11883 0.54539 0.59802 0.0
C1194 C 0.09713 0.55394 0.57831 0.0
C1195 C 0.0646 0.53674 0.55897 0.0
C1196 C 0.0541 0.51084 0.55922 0.0
C1197 C 0.08723 0.52745 0.57701 0.0
C1198 C 0.06718 0.47478 0.57645 0.0
C1199 C 0.08983 0.46516 0.59403 0.0
H1200 H 0.56969 0.87012 0.11517 0.0
H1201 H 0.57845 0.76037 0.07495 0.0
H1202 H 0.61837 0.7483 0.04504 0.0
H1203 H 0.65253 0.76661 0.035 0.0
H1204 H 0.64442 0.87452 0.07916 0.0
H1205 H 0.60212 0.89021 0.10215 0.0
C1206 C 0.58003 0.84396 0.09919 0.0
C1207 C 0.57114 0.81622 0.09717 0.0
C1208 C 0.60308 0.83692 0.08284 0.0
C1209 C 0.58504 0.78203 0.07704 0.0
C1210 C 0.6078 0.77518 0.05993 0.0
C1211 C 0.64121 0.79392 0.04899 0.0
C1212 C 0.65142 0.81947 0.0554 0.0
C1213 C 0.61726 0.80207 0.06326 0.0
C1214 C 0.63687 0.85444 0.07405 0.0
C1215 C 0.61276 0.86335 0.08726 0.0
H1216 H 0.62574 0.43829 0.13717 0.0
H1217 H 0.632 0.52611 0.07345 0.0
H1218 H 0.59372 0.53719 0.04127 0.0
H1219 H 0.55701 0.52489 0.03417 0.0
H1220 H 0.54938 0.44064 0.10145 0.0
H1221 H 0.5902 0.4242 0.12862 0.0
C1222 C 0.61907 0.45923 0.11567 0.0
C1223 C 0.63173 0.48118 0.10752 0.0
C1224 C 0.59692 0.46589 0.09784 0.0
C1225 C 0.6225 0.50894 0.08023 0.0
C1226 C 0.60071 0.51517 0.06176 0.0
C1227 C 0.56461 0.50234 0.05423 0.0
C1228 C 0.55043 0.4837 0.06569 0.0
C1229 C 0.58757 0.4942 0.0707 0.0
C1230 C 0.56009 0.4552 0.09224 0.0
C1231 C 0.58333 0.44594 0.10783 0.0
H1232 H 0.35193 0.47943 0.09048 0.0
H1233 H 0.39212 0.39346 0.17051 0.0
H1234 H 0.3575 0.37635 0.17407 0.0
H1235 H 0.31689 0.38364 0.15243 0.0
H1236 H 0.27711 0.46836 0.07139 0.0
H1237 H 0.31076 0.48782 0.06983 0.0
C1238 C 0.35319 0.45674 0.10852 0.0
C1239 C 0.37461 0.43759 0.13007 0.0
C1240 C 0.33336 0.44682 0.11017 0.0
C1241 C 0.37574 0.40884 0.15384 0.0
C1242 C 0.35603 0.39892 0.15577 0.0
C1243 C 0.31538 0.40684 0.13488 0.0
C1244 C 0.29454 0.42466 0.11215 0.0
C1245 C 0.33484 0.41755 0.13391 0.0
C1246 C 0.29306 0.45411 0.089 0.0
C1247 C 0.31225 0.46524 0.08813 0.0
H1248 H 0.05284 0.17388 0.30356 0.0
H1249 H 0.06306 0.26997 0.26361 0.0
H1250 H 0.10921 0.23015 0.26533 0.0
H1251 H 0.14673 0.16762 0.27746 0.0
H1252 H 0.13664 0.06939 0.31129 0.0
H1253 H 0.09049 0.11013 0.31264 0.0
C1254 C 0.06526 0.186 0.29544 0.0
C1255 C 0.05471 0.22478 0.28382 0.0
C1256 C 0.09177 0.1625 0.29531 0.0
C1257 C 0.07086 0.24012 0.27268 0.0
C1258 C 0.0972 0.21741 0.2737 0.0
C1259 C 0.13437 0.15528 0.28528 0.0
C1260 C 0.14497 0.11577 0.29462 0.0
C1261 C 0.10788 0.17854 0.28487 0.0
C1262 C 0.12884 0.09981 0.30402 0.0
C1263 C 0.10248 0.12308 0.30486 0.0
H1264 H 0.21614 0.40596 0.98267 0.0
H1265 H 0.23884 0.31244 0.90585 0.0
H1266 H 0.2399 0.35491 0.85898 0.0
H1267 H 0.2347 0.41843 0.83907 0.0
H1268 H 0.21203 0.51254 0.91507 0.0
H1269 H 0.21072 0.47024 0.9624 0.0
C1270 C 0.22121 0.3949 0.95567 0.0
C1271 C 0.22737 0.35582 0.94811 0.0
C1272 C 0.22188 0.41966 0.92841 0.0
C1273 C 0.23403 0.3422 0.91281 0.0
C1274 C 0.23466 0.36654 0.88578 0.0
C1275 C 0.22946 0.4298 0.86596 0.0
C1276 C 0.22346 0.46881 0.87323 0.0
C1277 C 0.22869 0.40529 0.8932 0.0
C1278 C 0.21672 0.48275 0.90842 0.0
C1279 C 0.21595 0.45851 0.93565 0.0
H1280 H 0.30512 0.29318 1.02211 0.0
H1281 H 0.31556 0.17983 0.98946 0.0
H1282 H 0.35659 0.16522 0.96238 0.0
H1283 H 0.3872 0.18728 0.94257 0.0
H1284 H 0.37642 0.30096 0.97434 0.0
H1285 H 0.33763 0.31287 1.00696 0.0
C1286 C 0.31649 0.26502 1.00953 0.0
C1287 C 0.30711 0.23781 1.00753 0.0
C1288 C 0.33984 0.25707 0.99342 0.0
C1289 C 0.32222 0.20143 0.99125 0.0
C1290 C 0.34566 0.19308 0.97561 0.0
C1291 C 0.37669 0.21432 0.95727 0.0
C1292 C 0.3846 0.24331 0.95576 0.0
C1293 C 0.35433 0.22107 0.97575 0.0
C1294 C 0.37052 0.27841 0.97458 0.0
C1295 C 0.3484 0.28519 0.99335 0.0
H1296 H 0.38989 0.54516 1.03186 0.0
H1297 H 0.40057 0.62773 0.96573 0.0
H1298 H 0.3591 0.64772 0.9391 0.0
H1299 H 0.32174 0.63728 0.93082 0.0
H1300 H 0.31204 0.55338 0.9961 0.0
H1301 H 0.35144 0.53817 1.02679 0.0
C1302 C 0.38314 0.56779 1.01183 0.0
C1303 C 0.39848 0.58462 1.00054 0.0
C1304 C 0.35958 0.57862 0.99627 0.0
C1305 C 0.38922 0.61418 0.97483 0.0
C1306 C 0.36555 0.62552 0.95949 0.0
C1307 C 0.32802 0.61623 0.95223 0.0
C1308 C 0.31412 0.59627 0.96104 0.0
C1309 C 0.35083 0.60733 0.96947 0.0
C1310 C 0.32261 0.56872 0.98855 0.0
C1311 C 0.34507 0.5601 1.00613 0.0
H1312 H 0.66408 0.60745 0.97437 0.0
H1313 H 0.63446 0.69534 0.89305 0.0
H1314 H 0.59775 0.6836 0.88639 0.0
H1315 H 0.57276 0.65134 0.90668 0.0
H1316 H 0.60313 0.56244 0.98715 0.0
H1317 H 0.64067 0.57198 0.99156 0.0
C1318 C 0.64959 0.62391 0.95513 0.0
C1319 C 0.65183 0.65232 0.93438 0.0
C1320 C 0.62858 0.61713 0.95158 0.0
C1321 C 0.63318 0.67311 0.90916 0.0
C1322 C 0.61214 0.66659 0.9055 0.0
C1323 C 0.58778 0.63365 0.92476 0.0
C1324 C 0.58494 0.6067 0.947 0.0
C1325 C 0.60947 0.63903 0.92693 0.0
C1326 C 0.60453 0.58412 0.97043 0.0
C1327 C 0.6261 0.58935 0.97279 0.0
H1328 H 0.88421 0.83841 0.77192 0.0
H1329 H 0.9066 0.92471 0.8032 0.0
H1330 H 0.86203 0.97395 0.80849 0.0
H1331 H 0.81646 0.99311 0.8023 0.0
H1332 H 0.79446 0.90821 0.76518 0.0
H1333 H 0.83882 0.85798 0.76408 0.0
C1334 C 0.87924 0.86796 0.78011 0.0
C1335 C 0.89855 0.87797 0.78728 0.0
C1336 C 0.85359 0.89645 0.78187 0.0
C1337 C 0.89198 0.91644 0.79739 0.0
C1338 C 0.86652 0.94457 0.80046 0.0
C1339 C 0.82145 0.96356 0.79414 0.0
C1340 C 0.80228 0.95432 0.78387 0.0
C1341 C 0.84713 0.93504 0.79247 0.0
C1342 C 0.80895 0.91605 0.77297 0.0
C1343 C 0.8343 0.88727 0.77242 0.0
H1344 H 0.48198 0.16535 0.73022 0.0
H1345 H 0.4626 0.2587 0.65493 0.0
H1346 H 0.46092 0.21714 0.60737 0.0
H1347 H 0.46497 0.15379 0.58674 0.0
H1348 H 0.48394 0.06119 0.66294 0.0
H1349 H 0.48566 0.10278 0.70995 0.0
C1350 C 0.47742 0.17668 0.70343 0.0
C1351 C 0.47243 0.21526 0.69641 0.0
C1352 C 0.47632 0.15264 0.67608 0.0
C1353 C 0.46646 0.22924 0.66137 0.0
C1354 C 0.4655 0.20542 0.63402 0.0
C1355 C 0.46937 0.14274 0.61363 0.0
C1356 C 0.47426 0.10419 0.62096 0.0
C1357 C 0.47035 0.16702 0.641 0.0
C1358 C 0.48006 0.09057 0.65615 0.0
C1359 C 0.48108 0.1144 0.68327 0.0
H1360 H 0.46871 0.3403 0.9021 0.0
H1361 H 0.48816 0.3958 0.8159 0.0
H1362 H 0.48932 0.44313 0.85712 0.0
H1363 H 0.48479 0.46948 0.91727 0.0
H1364 H 0.46696 0.41395 1.00487 0.0
H1365 H 0.46538 0.36613 0.96374 0.0
C1366 C 0.47318 0.36277 0.8924 0.0
C1367 C 0.47834 0.36427 0.85578 0.0
C1368 C 0.47421 0.38998 0.91655 0.0
C1369 C 0.48426 0.39356 0.84382 0.0
C1370 C 0.48488 0.42084 0.86742 0.0
C1371 C 0.48056 0.44694 0.9275 0.0
C1372 C 0.47595 0.44552 0.96421 0.0
C1373 C 0.47991 0.41938 0.90379 0.0
C1374 C 0.47072 0.41576 0.97681 0.0
C1375 C 0.46972 0.38843 0.95324 0.0
H1376 H 0.47622 0.83569 0.39975 0.0
H1377 H 0.47873 0.90653 0.31271 0.0
H1378 H 0.48073 0.95296 0.35483 0.0
H1379 H 0.4811 0.97434 0.41691 0.0
H1380 H 0.47666 0.90434 0.50343 0.0
H1381 H 0.47618 0.8571 0.46124 0.0
C1382 C 0.4773 0.86119 0.38992 0.0
C1383 C 0.47738 0.86738 0.35297 0.0
C1384 C 0.47811 0.88816 0.41435 0.0
C1385 C 0.47856 0.90091 0.34093 0.0
C1386 C 0.47976 0.92754 0.36506 0.0
C1387 C 0.48022 0.94861 0.4265 0.0
C1388 C 0.47897 0.94305 0.46343 0.0
C1389 C 0.47949 0.92158 0.4019 0.0
C1390 C 0.47753 0.90965 0.47526 0.0
C1391 C 0.47728 0.88246 0.4511 0.0
H1392 H 0.44987 0.61591 0.14216 0.0
H1393 H 0.50039 0.63159 0.06788 0.0
H1394 H 0.5034 0.6784 0.10814 0.0
H1395 H 0.49223 0.71463 0.16491 0.0
H1396 H 0.44178 0.69891 0.23926 0.0
H1397 H 0.4383 0.65274 0.19864 0.0
C1398 C 0.46148 0.62963 0.13467 0.0
C1399 C 0.47484 0.62004 0.10187 0.0
C1400 C 0.46322 0.65665 0.15808 0.0
C1401 C 0.48982 0.63824 0.09283 0.0
C1402 C 0.49161 0.6651 0.11592 0.0
C1403 C 0.48043 0.7012 0.17225 0.0
C1404 C 0.46732 0.71043 0.20525 0.0
C1405 C 0.47847 0.67448 0.14868 0.0
C1406 C 0.45212 0.69256 0.21413 0.0
C1407 C 0.4501 0.66603 0.19087 0.0
loop_
_geom_bond_atom_site_label_1
_geom_bond_atom_site_label_2
_geom_bond_distance
_geom_bond_site_symmetry_2
_ccdc_geom_bond_type
Dy0 O3 2.307 1_655 S
Dy0 O5 2.395 . S
Dy0 O6 2.379 . S
Dy0 O8 2.339 1_565 S
Dy0 O10 2.298 1_564 S
Dy0 O14 2.275 1_654 S
Dy0 C22 2.738 . S
Dy1 O4 2.298 1_546 S
Dy1 O7 2.275 1_456 S
Dy1 O9 2.307 1_455 S
Dy1 O11 2.395 . S
Dy1 O12 2.379 . S
Dy1 O15 2.339 1_545 S
Dy1 C31 2.738 . S
C2 O14 1.254 . S
C2 O15 1.257 . S
O3 Dy0 2.307 1_455 S
O3 C13 1.266 . S
O4 Dy1 2.298 1_564 S
O4 C13 1.236 . S
O5 Dy0 2.395 . S
O5 C22 1.255 . S
O6 Dy0 2.379 . S
O6 C22 1.249 . S
O7 Dy1 2.275 1_654 S
O7 C23 1.254 . S
O8 Dy0 2.339 1_545 S
O8 C23 1.257 . S
O9 Dy1 2.307 1_655 S
O9 C24 1.266 . S
O10 Dy0 2.298 1_546 S
O10 C24 1.236 . S
O11 Dy1 2.395 . S
O11 C31 1.255 . S
O12 Dy1 2.379 . S
O12 C31 1.249 . S
C13 O3 1.266 . S
C13 O4 1.236 . S
O14 Dy0 2.275 1_456 S
O14 C2 1.254 . S
O15 Dy1 2.339 1_565 S
O15 C2 1.257 . S
C16 C19 1.344 . S
C16 C20 1.328 . S
C16 C22 1.516 . S
C17 C18 1.304 . S
C17 C21 1.323 . S
C18 C17 1.304 . S
C18 C19 1.371 . S
C18 H32 0.953 . S
C19 C16 1.344 . S
C19 C18 1.371 . S
C19 H33 0.931 1_554 S
C20 C16 1.328 . S
C20 C21 1.433 . S
C20 H34 0.931 . S
C21 C17 1.323 . S
C21 C20 1.433 . S
C21 H35 0.933 . S
C22 Dy0 2.738 . S
C22 O5 1.255 . S
C22 O6 1.249 . S
C22 C16 1.516 . S
C23 O7 1.254 . S
C23 O8 1.257 . S
C24 O9 1.266 . S
C24 O10 1.236 . S
C25 C28 1.344 . S
C25 C29 1.328 . S
C25 C31 1.516 . S
C26 C27 1.304 . S
C26 C30 1.323 . S
C27 C26 1.304 . S
C27 C28 1.371 . S
C27 H36 0.931 1_556 S
C28 C25 1.344 . S
C28 C27 1.371 . S
C28 H37 0.931 1_556 S
C29 C25 1.328 . S
C29 C30 1.433 . S
C29 H38 0.931 . S
C30 C26 1.323 . S
C30 C29 1.433 . S
C30 H39 0.933 . S
C31 Dy1 2.738 . S
C31 O11 1.255 . S
C31 O12 1.249 . S
C31 C25 1.516 . S
H32 C18 0.953 . S
H33 C19 0.931 1_556 S
H34 C20 0.931 . S
H35 C21 0.933 . S
H36 C27 0.931 1_554 S
H37 C28 0.931 1_554 S
H38 C29 0.931 . S
H39 C30 0.933 . S
Dy40 O43 2.307 . S
Dy40 O45 2.395 . S
Dy40 O46 2.379 . S
Dy40 O48 2.339 1_655 S
Dy40 O50 2.298 . S
Dy40 O54 2.275 . S
Dy40 C62 2.738 . S
Dy41 O44 2.298 . S
Dy41 O47 2.275 . S
Dy41 O49 2.307 . S
Dy41 O51 2.395 . S
Dy41 O52 2.379 . S
Dy41 O55 2.339 1_455 S
Dy41 C71 2.738 . S
C42 O54 1.254 . S
C42 O55 1.257 . S
O43 Dy40 2.307 . S
O43 C53 1.266 1_655 S
O44 Dy41 2.298 . S
O44 C53 1.236 . S
O45 Dy40 2.395 . S
O45 C62 1.255 . S
O46 Dy40 2.379 . S
O46 C62 1.249 . S
O47 Dy41 2.275 . S
O47 C63 1.254 . S
O48 Dy40 2.339 1_455 S
O48 C63 1.257 . S
O49 Dy41 2.307 . S
O49 C64 1.266 1_455 S
O50 Dy40 2.298 . S
O50 C64 1.236 . S
O51 Dy41 2.395 . S
O51 C71 1.255 . S
O52 Dy41 2.379 . S
O52 C71 1.249 . S
C53 O43 1.266 1_455 S
C53 O44 1.236 . S
O54 Dy40 2.275 . S
O54 C42 1.254 . S
O55 Dy41 2.339 1_655 S
O55 C42 1.257 . S
C56 C59 1.344 . S
C56 C60 1.328 . S
C56 C62 1.516 . S
C57 C58 1.304 . S
C57 C61 1.323 . S
C58 C57 1.304 . S
C58 C59 1.371 . S
C58 H72 0.930 . S
C59 C56 1.344 . S
C59 C58 1.371 . S
C59 H73 0.931 . S
C60 C56 1.328 . S
C60 C61 1.433 . S
C60 H74 0.931 . S
C61 C57 1.323 . S
C61 C60 1.433 . S
C61 H75 0.933 . S
C62 Dy40 2.738 . S
C62 O45 1.255 . S
C62 O46 1.249 . S
C62 C56 1.516 . S
C63 O47 1.254 . S
C63 O48 1.257 . S
C64 O49 1.266 1_655 S
C64 O50 1.236 . S
C65 C68 1.344 . S
C65 C69 1.328 . S
C65 C71 1.516 . S
C66 C67 1.304 . S
C66 C70 1.323 . S
C67 C66 1.304 . S
C67 C68 1.371 . S
C67 H76 0.930 . S
C68 C65 1.344 . S
C68 C67 1.371 . S
C68 H77 0.931 . S
C69 C65 1.328 . S
C69 C70 1.433 . S
C69 H78 0.931 . S
C70 C66 1.323 . S
C70 C69 1.433 . S
C70 H79 0.933 . S
C71 Dy41 2.738 . S
C71 O51 1.255 . S
C71 O52 1.249 . S
C71 C65 1.516 . S
H72 C58 0.930 . S
H73 C59 0.931 . S
H74 C60 0.931 . S
H75 C61 0.933 . S
H76 C67 0.930 . S
H77 C68 0.931 . S
H78 C69 0.931 . S
H79 C70 0.933 . S
Dy80 O83 2.307 . S
Dy80 O85 2.395 . S
Dy80 O86 2.379 . S
Dy80 O88 2.339 . S
Dy80 O90 2.298 . S
Dy80 O94 2.275 . S
Dy80 C102 2.738 . S
Dy81 O84 2.298 . S
Dy81 O87 2.275 . S
Dy81 O89 2.307 . S
Dy81 O91 2.395 . S
Dy81 O92 2.379 . S
Dy81 O95 2.339 . S
Dy81 C111 2.738 . S
C82 O94 1.254 . S
C82 O95 1.257 . S
O83 Dy80 2.307 . S
O83 C93 1.266 . S
O84 Dy81 2.298 . S
O84 C93 1.236 . S
O85 Dy80 2.395 . S
O85 C102 1.255 . S
O86 Dy80 2.379 . S
O86 C102 1.249 . S
O87 Dy81 2.275 . S
O87 C103 1.254 . S
O88 Dy80 2.339 . S
O88 C103 1.257 . S
O89 Dy81 2.307 . S
O89 C104 1.266 . S
O90 Dy80 2.298 . S
O90 C104 1.236 . S
O91 Dy81 2.395 . S
O91 C111 1.255 . S
O92 Dy81 2.379 . S
O92 C111 1.249 . S
C93 O83 1.266 . S
C93 O84 1.236 . S
O94 Dy80 2.275 . S
O94 C82 1.254 . S
O95 Dy81 2.339 . S
O95 C82 1.257 . S
C96 C99 1.344 . S
C96 C100 1.328 . S
C96 C102 1.516 . S
C97 C98 1.304 . S
C97 C101 1.323 . S
C98 C97 1.304 . S
C98 C99 1.371 . S
C98 H112 0.930 . S
C99 C96 1.344 . S
C99 C98 1.371 . S
C99 H113 0.931 . S
C100 C96 1.328 . S
C100 C101 1.433 . S
C100 H114 0.931 . S
C101 C97 1.323 . S
C101 C100 1.433 . S
C101 H115 0.933 . S
C102 Dy80 2.738 . S
C102 O85 1.255 . S
C102 O86 1.249 . S
C102 C96 1.516 . S
C103 O87 1.254 . S
C103 O88 1.257 . S
C104 O89 1.266 . S
C104 O90 1.236 . S
C105 C108 1.344 . S
C105 C109 1.328 . S
C105 C111 1.516 . S
C106 C107 1.304 . S
C106 C110 1.323 . S
C107 C106 1.304 . S
C107 C108 1.371 . S
C107 H116 0.930 . S
C108 C105 1.344 . S
C108 C107 1.371 . S
C108 H117 0.931 . S
C109 C105 1.328 . S
C109 C110 1.433 . S
C109 H118 0.931 . S
C110 C106 1.323 . S
C110 C109 1.433 . S
C110 H119 0.933 . S
C111 Dy81 2.738 . S
C111 O91 1.255 . S
C111 O92 1.249 . S
C111 C105 1.516 . S
H112 C98 0.930 . S
H113 C99 0.931 . S
H114 C100 0.931 . S
H115 C101 0.933 . S
H116 C107 0.930 . S
H117 C108 0.931 . S
H118 C109 0.931 . S
H119 C110 0.933 . S
Dy120 O123 2.307 . S
Dy120 O125 2.395 1_545 S
Dy120 O126 2.379 . S
Dy120 O128 2.339 . S
Dy120 O130 2.298 1_545 S
Dy120 O134 2.275 1_545 S
Dy120 C142 2.738 . S
Dy121 O124 2.298 1_565 S
Dy121 O127 2.275 1_565 S
Dy121 O129 2.307 . S
Dy121 O131 2.395 1_565 S
Dy121 O132 2.379 . S
Dy121 O135 2.339 . S
Dy121 C151 2.738 . S
C122 O134 1.254 . S
C122 O135 1.257 . S
O123 Dy120 2.307 . S
O123 C133 1.266 . S
O124 Dy121 2.298 1_545 S
O124 C133 1.236 . S
O125 Dy120 2.395 1_565 S
O125 C142 1.255 1_565 S
O126 Dy120 2.379 . S
O126 C142 1.249 . S
O127 Dy121 2.275 1_545 S
O127 C143 1.254 . S
O128 Dy120 2.339 . S
O128 C143 1.257 . S
O129 Dy121 2.307 . S
O129 C144 1.266 . S
O130 Dy120 2.298 1_565 S
O130 C144 1.236 . S
O131 Dy121 2.395 1_545 S
O131 C151 1.255 1_545 S
O132 Dy121 2.379 . S
O132 C151 1.249 . S
C133 O123 1.266 . S
C133 O124 1.236 . S
O134 Dy120 2.275 1_565 S
O134 C122 1.254 . S
O135 Dy121 2.339 . S
O135 C122 1.257 . S
C136 C139 1.344 1_545 S
C136 C140 1.328 . S
C136 C142 1.516 . S
C137 C138 1.304 1_545 S
C137 C141 1.323 . S
C138 C137 1.304 1_565 S
C138 C139 1.371 . S
C138 H152 0.930 . S
C139 C136 1.344 1_565 S
C139 C138 1.371 . S
C139 H153 0.931 . S
C140 C136 1.328 . S
C140 C141 1.433 . S
C140 H154 0.931 . S
C141 C137 1.323 . S
C141 C140 1.433 . S
C141 H155 0.933 . S
C142 Dy120 2.738 . S
C142 O125 1.255 1_545 S
C142 O126 1.249 . S
C142 C136 1.516 . S
C143 O127 1.254 . S
C143 O128 1.257 . S
C144 O129 1.266 . S
C144 O130 1.236 . S
C145 C148 1.344 1_565 S
C145 C149 1.328 . S
C145 C151 1.516 . S
C146 C147 1.304 1_565 S
C146 C150 1.323 . S
C147 C146 1.304 1_545 S
C147 C148 1.371 . S
C147 H156 0.930 . S
C148 C145 1.344 1_545 S
C148 C147 1.371 . S
C148 H157 0.931 . S
C149 C145 1.328 . S
C149 C150 1.433 . S
C149 H158 0.931 . S
C150 C146 1.323 . S
C150 C149 1.433 . S
C150 H159 0.933 . S
C151 Dy121 2.738 . S
C151 O131 1.255 1_565 S
C151 O132 1.249 . S
C151 C145 1.516 . S
H152 C138 0.930 . S
H153 C139 0.931 . S
H154 C140 0.931 . S
H155 C141 0.933 . S
H156 C147 0.930 . S
H157 C148 0.931 . S
H158 C149 0.931 . S
H159 C150 0.933 . S
Dy160 O163 2.307 . S
Dy160 O165 2.395 . S
Dy160 O166 2.379 . S
Dy160 O168 2.339 . S
Dy160 O170 2.298 . S
Dy160 O174 2.275 . S
Dy160 C182 2.738 . S
Dy161 O164 2.298 . S
Dy161 O167 2.275 . S
Dy161 O169 2.307 . S
Dy161 O171 2.395 . S
Dy161 O172 2.379 . S
Dy161 O175 2.339 . S
Dy161 C191 2.738 . S
C162 O174 1.254 . S
C162 O175 1.257 . S
O163 Dy160 2.307 . S
O163 C173 1.266 . S
O164 Dy161 2.298 . S
O164 C173 1.236 . S
O165 Dy160 2.395 . S
O165 C182 1.255 . S
O166 Dy160 2.379 . S
O166 C182 1.249 . S
O167 Dy161 2.275 . S
O167 C183 1.254 . S
O168 Dy160 2.339 . S
O168 C183 1.257 . S
O169 Dy161 2.307 . S
O169 C184 1.266 . S
O170 Dy160 2.298 . S
O170 C184 1.236 . S
O171 Dy161 2.395 . S
O171 C191 1.255 . S
O172 Dy161 2.379 . S
O172 C191 1.249 . S
C173 O163 1.266 . S
C173 O164 1.236 . S
O174 Dy160 2.275 . S
O174 C162 1.254 . S
O175 Dy161 2.339 . S
O175 C162 1.257 . S
C176 C179 1.344 . S
C176 C180 1.328 . S
C176 C182 1.516 . S
C177 C178 1.304 . S
C177 C181 1.323 . S
C178 C177 1.304 . S
C178 C179 1.371 . S
C178 H192 0.930 . S
C179 C176 1.344 . S
C179 C178 1.371 . S
C179 H193 0.931 . S
C180 C176 1.328 . S
C180 C181 1.433 . S
C180 H194 0.931 . S
C181 C177 1.323 . S
C181 C180 1.433 . S
C181 H195 0.933 . S
C182 Dy160 2.738 . S
C182 O165 1.255 . S
C182 O166 1.249 . S
C182 C176 1.516 . S
C183 O167 1.254 . S
C183 O168 1.257 . S
C184 O169 1.266 . S
C184 O170 1.236 . S
C185 C188 1.344 . S
C185 C189 1.328 . S
C185 C191 1.516 . S
C186 C187 1.304 . S
C186 C190 1.323 . S
C187 C186 1.304 . S
C187 C188 1.371 . S
C187 H196 0.930 . S
C188 C185 1.344 . S
C188 C187 1.371 . S
C188 H197 0.931 . S
C189 C185 1.328 . S
C189 C190 1.433 . S
C189 H198 0.931 . S
C190 C186 1.323 . S
C190 C189 1.433 . S
C190 H199 0.933 . S
C191 Dy161 2.738 . S
C191 O171 1.255 . S
C191 O172 1.249 . S
C191 C185 1.516 . S
H192 C178 0.930 . S
H193 C179 0.931 . S
H194 C180 0.931 . S
H195 C181 0.933 . S
H196 C187 0.930 . S
H197 C188 0.931 . S
H198 C189 0.931 . S
H199 C190 0.933 . S
Dy200 O203 2.307 . S
Dy200 O205 2.395 . S
Dy200 O206 2.379 . S
Dy200 O208 2.339 . S
Dy200 O210 2.298 . S
Dy200 O214 2.275 . S
Dy200 C222 2.738 . S
Dy201 O204 2.298 . S
Dy201 O207 2.275 . S
Dy201 O209 2.307 . S
Dy201 O211 2.395 . S
Dy201 O212 2.379 . S
Dy201 O215 2.339 . S
Dy201 C231 2.738 . S
C202 O214 1.254 . S
C202 O215 1.257 . S
O203 Dy200 2.307 . S
O203 C213 1.266 . S
O204 Dy201 2.298 . S
O204 C213 1.236 . S
O205 Dy200 2.395 . S
O205 C222 1.255 . S
O206 Dy200 2.379 . S
O206 C222 1.249 . S
O207 Dy201 2.275 . S
O207 C223 1.254 . S
O208 Dy200 2.339 . S
O208 C223 1.257 . S
O209 Dy201 2.307 . S
O209 C224 1.266 . S
O210 Dy200 2.298 . S
O210 C224 1.236 . S
O211 Dy201 2.395 . S
O211 C231 1.255 . S
O212 Dy201 2.379 . S
O212 C231 1.249 . S
C213 O203 1.266 . S
C213 O204 1.236 . S
O214 Dy200 2.275 . S
O214 C202 1.254 . S
O215 Dy201 2.339 . S
O215 C202 1.257 . S
C216 C219 1.344 . S
C216 C220 1.328 . S
C216 C222 1.516 . S
C217 C218 1.304 . S
C217 C221 1.323 . S
C218 C217 1.304 . S
C218 C219 1.371 . S
C218 H232 0.930 . S
C219 C216 1.344 . S
C219 C218 1.371 . S
C219 H233 0.931 . S
C220 C216 1.328 . S
C220 C221 1.433 . S
C220 H234 0.931 . S
C221 C217 1.323 . S
C221 C220 1.433 . S
C221 H235 0.933 . S
C222 Dy200 2.738 . S
C222 O205 1.255 . S
C222 O206 1.249 . S
C222 C216 1.516 . S
C223 O207 1.254 . S
C223 O208 1.257 . S
C224 O209 1.266 . S
C224 O210 1.236 . S
C225 C228 1.344 . S
C225 C229 1.328 . S
C225 C231 1.516 . S
C226 C227 1.304 . S
C226 C230 1.323 . S
C227 C226 1.304 . S
C227 C228 1.371 . S
C227 H236 0.930 . S
C228 C225 1.344 . S
C228 C227 1.371 . S
C228 H237 0.931 . S
C229 C225 1.328 . S
C229 C230 1.433 . S
C229 H238 0.931 . S
C230 C226 1.323 . S
C230 C229 1.433 . S
C230 H239 0.933 . S
C231 Dy201 2.738 . S
C231 O211 1.255 . S
C231 O212 1.249 . S
C231 C225 1.516 . S
H232 C218 0.930 . S
H233 C219 0.931 . S
H234 C220 0.931 . S
H235 C221 0.933 . S
H236 C227 0.930 . S
H237 C228 0.931 . S
H238 C229 0.931 . S
H239 C230 0.933 . S
Dy240 O243 2.307 . S
Dy240 O245 2.395 . S
Dy240 O246 2.379 . S
Dy240 O248 2.339 . S
Dy240 O250 2.298 . S
Dy240 O254 2.275 . S
Dy240 C262 2.738 . S
Dy241 O244 2.298 . S
Dy241 O247 2.275 . S
Dy241 O249 2.307 . S
Dy241 O251 2.395 . S
Dy241 O252 2.379 . S
Dy241 O255 2.339 . S
Dy241 C271 2.738 . S
C242 O254 1.254 . S
C242 O255 1.257 . S
O243 Dy240 2.307 . S
O243 C253 1.266 . S
O244 Dy241 2.298 . S
O244 C253 1.236 . S
O245 Dy240 2.395 . S
O245 C262 1.255 . S
O246 Dy240 2.379 . S
O246 C262 1.249 . S
O247 Dy241 2.275 . S
O247 C263 1.254 . S
O248 Dy240 2.339 . S
O248 C263 1.257 . S
O249 Dy241 2.307 . S
O249 C264 1.266 . S
O250 Dy240 2.298 . S
O250 C264 1.236 . S
O251 Dy241 2.395 . S
O251 C271 1.255 . S
O252 Dy241 2.379 . S
O252 C271 1.249 . S
C253 O243 1.266 . S
C253 O244 1.236 . S
O254 Dy240 2.275 . S
O254 C242 1.254 . S
O255 Dy241 2.339 . S
O255 C242 1.257 . S
C256 C259 1.344 . S
C256 C260 1.328 . S
C256 C262 1.516 . S
C257 C258 1.304 . S
C257 C261 1.323 . S
C258 C257 1.304 . S
C258 C259 1.371 . S
C258 H272 0.930 . S
C259 C256 1.344 . S
C259 C258 1.371 . S
C259 H273 0.931 . S
C260 C256 1.328 . S
C260 C261 1.433 . S
C260 H274 0.931 . S
C261 C257 1.323 . S
C261 C260 1.433 . S
C261 H275 0.933 . S
C262 Dy240 2.738 . S
C262 O245 1.255 . S
C262 O246 1.249 . S
C262 C256 1.516 . S
C263 O247 1.254 . S
C263 O248 1.257 . S
C264 O249 1.266 . S
C264 O250 1.236 . S
C265 C268 1.344 . S
C265 C269 1.328 . S
C265 C271 1.516 . S
C266 C267 1.304 . S
C266 C270 1.323 . S
C267 C266 1.304 . S
C267 C268 1.371 . S
C267 H276 0.930 . S
C268 C265 1.344 . S
C268 C267 1.371 . S
C268 H277 0.931 . S
C269 C265 1.328 . S
C269 C270 1.433 . S
C269 H278 0.931 . S
C270 C266 1.323 . S
C270 C269 1.433 . S
C270 H279 0.933 . S
C271 Dy241 2.738 . S
C271 O251 1.255 . S
C271 O252 1.249 . S
C271 C265 1.516 . S
H272 C258 0.930 . S
H273 C259 0.931 . S
H274 C260 0.931 . S
H275 C261 0.933 . S
H276 C267 0.930 . S
H277 C268 0.931 . S
H278 C269 0.931 . S
H279 C270 0.933 . S
Dy280 O283 2.307 1_655 S
Dy280 O285 2.395 . S
Dy280 O286 2.379 . S
Dy280 O288 2.339 . S
Dy280 O290 2.298 . S
Dy280 O294 2.275 1_655 S
Dy280 C302 2.738 . S
Dy281 O284 2.298 . S
Dy281 O287 2.275 1_455 S
Dy281 O289 2.307 1_455 S
Dy281 O291 2.395 . S
Dy281 O292 2.379 . S
Dy281 O295 2.339 . S
Dy281 C311 2.738 . S
C282 O294 1.254 . S
C282 O295 1.257 . S
O283 Dy280 2.307 1_455 S
O283 C293 1.266 . S
O284 Dy281 2.298 . S
O284 C293 1.236 . S
O285 Dy280 2.395 . S
O285 C302 1.255 . S
O286 Dy280 2.379 . S
O286 C302 1.249 . S
O287 Dy281 2.275 1_655 S
O287 C303 1.254 . S
O288 Dy280 2.339 . S
O288 C303 1.257 . S
O289 Dy281 2.307 1_655 S
O289 C304 1.266 . S
O290 Dy280 2.298 . S
O290 C304 1.236 . S
O291 Dy281 2.395 . S
O291 C311 1.255 . S
O292 Dy281 2.379 . S
O292 C311 1.249 . S
C293 O283 1.266 . S
C293 O284 1.236 . S
O294 Dy280 2.275 1_455 S
O294 C282 1.254 . S
O295 Dy281 2.339 . S
O295 C282 1.257 . S
C296 C299 1.344 . S
C296 C300 1.328 . S
C296 C302 1.516 . S
C297 C298 1.304 . S
C297 C301 1.323 . S
C298 C297 1.304 . S
C298 C299 1.371 . S
C298 H312 0.930 . S
C299 C296 1.344 . S
C299 C298 1.371 . S
C299 H313 0.931 . S
C300 C296 1.328 . S
C300 C301 1.433 . S
C300 H314 0.931 . S
C301 C297 1.323 . S
C301 C300 1.433 . S
C301 H315 0.933 . S
C302 Dy280 2.738 . S
C302 O285 1.255 . S
C302 O286 1.249 . S
C302 C296 1.516 . S
C303 O287 1.254 . S
C303 O288 1.257 . S
C304 O289 1.266 . S
C304 O290 1.236 . S
C305 C308 1.344 . S
C305 C309 1.328 . S
C305 C311 1.516 . S
C306 C307 1.304 . S
C306 C310 1.323 . S
C307 C306 1.304 . S
C307 C308 1.371 . S
C307 H316 0.930 . S
C308 C305 1.344 . S
C308 C307 1.371 . S
C308 H317 0.931 . S
C309 C305 1.328 . S
C309 C310 1.433 . S
C309 H318 0.931 . S
C310 C306 1.323 . S
C310 C309 1.433 . S
C310 H319 0.933 . S
C311 Dy281 2.738 . S
C311 O291 1.255 . S
C311 O292 1.249 . S
C311 C305 1.516 . S
H312 C298 0.930 . S
H313 C299 0.931 . S
H314 C300 0.931 . S
H315 C301 0.933 . S
H316 C307 0.930 . S
H317 C308 0.931 . S
H318 C309 0.931 . S
H319 C310 0.933 . S
Dy320 O323 2.307 . S
Dy320 O325 2.395 . S
Dy320 O326 2.379 . S
Dy320 O328 2.339 . S
Dy320 O330 2.298 1_556 S
Dy320 O334 2.275 1_556 S
Dy320 C342 2.738 . S
Dy321 O324 2.298 1_554 S
Dy321 O327 2.275 1_554 S
Dy321 O329 2.307 . S
Dy321 O331 2.395 . S
Dy321 O332 2.379 . S
Dy321 O335 2.339 . S
Dy321 C351 2.738 . S
C322 O334 1.254 . S
C322 O335 1.257 . S
O323 Dy320 2.307 . S
O323 C333 1.266 . S
O324 Dy321 2.298 1_556 S
O324 C333 1.236 . S
O325 Dy320 2.395 . S
O325 C342 1.255 . S
O326 Dy320 2.379 . S
O326 C342 1.249 . S
O327 Dy321 2.275 1_556 S
O327 C343 1.254 . S
O328 Dy320 2.339 . S
O328 C343 1.257 . S
O329 Dy321 2.307 . S
O329 C344 1.266 . S
O330 Dy320 2.298 1_554 S
O330 C344 1.236 . S
O331 Dy321 2.395 . S
O331 C351 1.255 . S
O332 Dy321 2.379 . S
O332 C351 1.249 . S
C333 O323 1.266 . S
C333 O324 1.236 . S
O334 Dy320 2.275 1_554 S
O334 C322 1.254 . S
O335 Dy321 2.339 . S
O335 C322 1.257 . S
C336 C339 1.344 . S
C336 C340 1.328 . S
C336 C342 1.516 . S
C337 C338 1.304 . S
C337 C341 1.323 . S
C338 C337 1.304 . S
C338 C339 1.371 . S
C338 H352 0.930 1_556 S
C339 C336 1.344 . S
C339 C338 1.371 . S
C339 H353 0.931 1_556 S
C340 C336 1.328 . S
C340 C341 1.433 . S
C340 H354 0.931 . S
C341 C337 1.323 . S
C341 C340 1.433 . S
C341 H355 0.933 . S
C342 Dy320 2.738 . S
C342 O325 1.255 . S
C342 O326 1.249 . S
C342 C336 1.516 . S
C343 O327 1.254 . S
C343 O328 1.257 . S
C344 O329 1.266 . S
C344 O330 1.236 . S
C345 C348 1.344 . S
C345 C349 1.328 . S
C345 C351 1.516 . S
C346 C347 1.304 . S
C346 C350 1.323 . S
C347 C346 1.304 . S
C347 C348 1.371 . S
C347 H356 0.930 1_554 S
C348 C345 1.344 . S
C348 C347 1.371 . S
C348 H357 0.931 1_554 S
C349 C345 1.328 . S
C349 C350 1.433 . S
C349 H358 0.931 . S
C350 C346 1.323 . S
C350 C349 1.433 . S
C350 H359 0.933 . S
C351 Dy321 2.738 . S
C351 O331 1.255 . S
C351 O332 1.249 . S
C351 C345 1.516 . S
H352 C338 0.930 1_554 S
H353 C339 0.931 1_554 S
H354 C340 0.931 . S
H355 C341 0.933 . S
H356 C347 0.930 1_556 S
H357 C348 0.931 1_556 S
H358 C349 0.931 . S
H359 C350 0.933 . S
Dy360 O363 2.307 . S
Dy360 O365 2.395 1_545 S
Dy360 O366 2.379 . S
Dy360 O368 2.339 . S
Dy360 O370 2.298 1_545 S
Dy360 O374 2.275 1_545 S
Dy360 C382 2.738 . S
Dy361 O364 2.298 1_565 S
Dy361 O367 2.275 1_565 S
Dy361 O369 2.307 . S
Dy361 O371 2.395 1_565 S
Dy361 O372 2.379 . S
Dy361 O375 2.339 . S
Dy361 C391 2.738 . S
C362 O374 1.254 . S
C362 O375 1.257 . S
O363 Dy360 2.307 . S
O363 C373 1.266 . S
O364 Dy361 2.298 1_545 S
O364 C373 1.236 . S
O365 Dy360 2.395 1_565 S
O365 C382 1.255 1_565 S
O366 Dy360 2.379 . S
O366 C382 1.249 . S
O367 Dy361 2.275 1_545 S
O367 C383 1.254 . S
O368 Dy360 2.339 . S
O368 C383 1.257 . S
O369 Dy361 2.307 . S
O369 C384 1.266 . S
O370 Dy360 2.298 1_565 S
O370 C384 1.236 . S
O371 Dy361 2.395 1_545 S
O371 C391 1.255 1_545 S
O372 Dy361 2.379 . S
O372 C391 1.249 . S
C373 O363 1.266 . S
C373 O364 1.236 . S
O374 Dy360 2.275 1_565 S
O374 C362 1.254 . S
O375 Dy361 2.339 . S
O375 C362 1.257 . S
C376 C379 1.344 1_545 S
C376 C380 1.328 . S
C376 C382 1.516 . S
C377 C378 1.304 1_545 S
C377 C381 1.323 . S
C378 C377 1.304 1_565 S
C378 C379 1.371 . S
C378 H392 0.930 . S
C379 C376 1.344 1_565 S
C379 C378 1.371 . S
C379 H393 0.931 . S
C380 C376 1.328 . S
C380 C381 1.433 . S
C380 H394 0.931 . S
C381 C377 1.323 . S
C381 C380 1.433 . S
C381 H395 0.933 . S
C382 Dy360 2.738 . S
C382 O365 1.255 1_545 S
C382 O366 1.249 . S
C382 C376 1.516 . S
C383 O367 1.254 . S
C383 O368 1.257 . S
C384 O369 1.266 . S
C384 O370 1.236 . S
C385 C388 1.344 1_565 S
C385 C389 1.328 . S
C385 C391 1.516 . S
C386 C387 1.304 1_565 S
C386 C390 1.323 . S
C387 C386 1.304 1_545 S
C387 C388 1.371 . S
C387 H396 0.930 . S
C388 C385 1.344 1_545 S
C388 C387 1.371 . S
C388 H397 0.931 . S
C389 C385 1.328 . S
C389 C390 1.433 . S
C389 H398 0.931 . S
C390 C386 1.323 . S
C390 C389 1.433 . S
C390 H399 0.933 . S
C391 Dy361 2.738 . S
C391 O371 1.255 1_565 S
C391 O372 1.249 . S
C391 C385 1.516 . S
H392 C378 0.930 . S
H393 C379 0.931 . S
H394 C380 0.931 . S
H395 C381 0.933 . S
H396 C387 0.930 . S
H397 C388 0.931 . S
H398 C389 0.931 . S
H399 C390 0.933 . S
Dy400 O403 2.307 . S
Dy400 O405 2.395 . S
Dy400 O406 2.379 . S
Dy400 O408 2.339 . S
Dy400 O410 2.298 . S
Dy400 O414 2.275 . S
Dy400 C422 2.738 . S
Dy401 O404 2.298 . S
Dy401 O407 2.275 . S
Dy401 O409 2.307 . S
Dy401 O411 2.395 . S
Dy401 O412 2.379 . S
Dy401 O415 2.339 . S
Dy401 C431 2.738 . S
C402 O414 1.254 . S
C402 O415 1.257 . S
O403 Dy400 2.307 . S
O403 C413 1.266 . S
O404 Dy401 2.298 . S
O404 C413 1.236 . S
O405 Dy400 2.395 . S
O405 C422 1.255 . S
O406 Dy400 2.379 . S
O406 C422 1.249 . S
O407 Dy401 2.275 . S
O407 C423 1.254 . S
O408 Dy400 2.339 . S
O408 C423 1.257 . S
O409 Dy401 2.307 . S
O409 C424 1.266 . S
O410 Dy400 2.298 . S
O410 C424 1.236 . S
O411 Dy401 2.395 . S
O411 C431 1.255 . S
O412 Dy401 2.379 . S
O412 C431 1.249 . S
C413 O403 1.266 . S
C413 O404 1.236 . S
O414 Dy400 2.275 . S
O414 C402 1.254 . S
O415 Dy401 2.339 . S
O415 C402 1.257 . S
C416 C419 1.344 . S
C416 C420 1.328 . S
C416 C422 1.516 . S
C417 C418 1.304 . S
C417 C421 1.323 . S
C418 C417 1.304 . S
C418 C419 1.371 . S
C418 H432 0.930 . S
C419 C416 1.344 . S
C419 C418 1.371 . S
C419 H433 0.931 . S
C420 C416 1.328 . S
C420 C421 1.433 . S
C420 H434 0.931 . S
C421 C417 1.323 . S
C421 C420 1.433 . S
C421 H435 0.933 . S
C422 Dy400 2.738 . S
C422 O405 1.255 . S
C422 O406 1.249 . S
C422 C416 1.516 . S
C423 O407 1.254 . S
C423 O408 1.257 . S
C424 O409 1.266 . S
C424 O410 1.236 . S
C425 C428 1.344 . S
C425 C429 1.328 . S
C425 C431 1.516 . S
C426 C427 1.304 . S
C426 C430 1.323 . S
C427 C426 1.304 . S
C427 C428 1.371 . S
C427 H436 0.930 . S
C428 C425 1.344 . S
C428 C427 1.371 . S
C428 H437 0.931 . S
C429 C425 1.328 . S
C429 C430 1.433 . S
C429 H438 0.931 . S
C430 C426 1.323 . S
C430 C429 1.433 . S
C430 H439 0.933 . S
C431 Dy401 2.738 . S
C431 O411 1.255 . S
C431 O412 1.249 . S
C431 C425 1.516 . S
H432 C418 0.930 . S
H433 C419 0.931 . S
H434 C420 0.931 . S
H435 C421 0.933 . S
H436 C427 0.930 . S
H437 C428 0.931 . S
H438 C429 0.931 . S
H439 C430 0.933 . S
Dy440 O443 2.307 . S
Dy440 O445 2.395 . S
Dy440 O446 2.379 . S
Dy440 O448 2.339 1_655 S
Dy440 O450 2.298 . S
Dy440 O454 2.275 . S
Dy440 C462 2.738 . S
Dy441 O444 2.298 . S
Dy441 O447 2.275 . S
Dy441 O449 2.307 . S
Dy441 O451 2.395 . S
Dy441 O452 2.379 . S
Dy441 O455 2.339 1_455 S
Dy441 C471 2.738 . S
C442 O454 1.254 . S
C442 O455 1.257 . S
O443 Dy440 2.307 . S
O443 C453 1.266 1_655 S
O444 Dy441 2.298 . S
O444 C453 1.236 . S
O445 Dy440 2.395 . S
O445 C462 1.255 . S
O446 Dy440 2.379 . S
O446 C462 1.249 . S
O447 Dy441 2.275 . S
O447 C463 1.254 . S
O448 Dy440 2.339 1_455 S
O448 C463 1.257 . S
O449 Dy441 2.307 . S
O449 C464 1.266 1_455 S
O450 Dy440 2.298 . S
O450 C464 1.236 . S
O451 Dy441 2.395 . S
O451 C471 1.255 . S
O452 Dy441 2.379 . S
O452 C471 1.249 . S
C453 O443 1.266 1_455 S
C453 O444 1.236 . S
O454 Dy440 2.275 . S
O454 C442 1.254 . S
O455 Dy441 2.339 1_655 S
O455 C442 1.257 . S
C456 C459 1.344 . S
C456 C460 1.328 . S
C456 C462 1.516 . S
C457 C458 1.304 . S
C457 C461 1.323 . S
C458 C457 1.304 . S
C458 C459 1.371 . S
C458 H472 0.930 . S
C459 C456 1.344 . S
C459 C458 1.371 . S
C459 H473 0.931 . S
C460 C456 1.328 . S
C460 C461 1.433 . S
C460 H474 0.931 . S
C461 C457 1.323 . S
C461 C460 1.433 . S
C461 H475 0.933 . S
C462 Dy440 2.738 . S
C462 O445 1.255 . S
C462 O446 1.249 . S
C462 C456 1.516 . S
C463 O447 1.254 . S
C463 O448 1.257 . S
C464 O449 1.266 1_655 S
C464 O450 1.236 . S
C465 C468 1.344 . S
C465 C469 1.328 . S
C465 C471 1.516 . S
C466 C467 1.304 . S
C466 C470 1.323 . S
C467 C466 1.304 . S
C467 C468 1.371 . S
C467 H476 0.930 . S
C468 C465 1.344 . S
C468 C467 1.371 . S
C468 H477 0.931 . S
C469 C465 1.328 . S
C469 C470 1.433 . S
C469 H478 0.931 . S
C470 C466 1.323 . S
C470 C469 1.433 . S
C470 H479 0.933 . S
C471 Dy441 2.738 . S
C471 O451 1.255 . S
C471 O452 1.249 . S
C471 C465 1.516 . S
H472 C458 0.930 . S
H473 C459 0.931 . S
H474 C460 0.931 . S
H475 C461 0.933 . S
H476 C467 0.930 . S
H477 C468 0.931 . S
H478 C469 0.931 . S
H479 C470 0.933 . S
Dy480 O483 2.307 . S
Dy480 O485 2.395 . S
Dy480 O486 2.379 . S
Dy480 O488 2.339 . S
Dy480 O490 2.298 . S
Dy480 O494 2.275 . S
Dy480 C502 2.738 . S
Dy481 O484 2.298 . S
Dy481 O487 2.275 . S
Dy481 O489 2.307 . S
Dy481 O491 2.395 . S
Dy481 O492 2.379 . S
Dy481 O495 2.339 . S
Dy481 C511 2.738 . S
C482 O494 1.254 . S
C482 O495 1.257 . S
O483 Dy480 2.307 . S
O483 C493 1.266 . S
O484 Dy481 2.298 . S
O484 C493 1.236 . S
O485 Dy480 2.395 . S
O485 C502 1.255 . S
O486 Dy480 2.379 . S
O486 C502 1.249 . S
O487 Dy481 2.275 . S
O487 C503 1.254 . S
O488 Dy480 2.339 . S
O488 C503 1.257 . S
O489 Dy481 2.307 . S
O489 C504 1.266 . S
O490 Dy480 2.298 . S
O490 C504 1.236 . S
O491 Dy481 2.395 . S
O491 C511 1.255 . S
O492 Dy481 2.379 . S
O492 C511 1.249 . S
C493 O483 1.266 . S
C493 O484 1.236 . S
O494 Dy480 2.275 . S
O494 C482 1.254 . S
O495 Dy481 2.339 . S
O495 C482 1.257 . S
C496 C499 1.344 . S
C496 C500 1.328 . S
C496 C502 1.516 . S
C497 C498 1.304 . S
C497 C501 1.323 . S
C498 C497 1.304 . S
C498 C499 1.371 . S
C498 H512 0.930 . S
C499 C496 1.344 . S
C499 C498 1.371 . S
C499 H513 0.931 . S
C500 C496 1.328 . S
C500 C501 1.433 . S
C500 H514 0.931 . S
C501 C497 1.323 . S
C501 C500 1.433 . S
C501 H515 0.933 . S
C502 Dy480 2.738 . S
C502 O485 1.255 . S
C502 O486 1.249 . S
C502 C496 1.516 . S
C503 O487 1.254 . S
C503 O488 1.257 . S
C504 O489 1.266 . S
C504 O490 1.236 . S
C505 C508 1.344 . S
C505 C509 1.328 . S
C505 C511 1.516 . S
C506 C507 1.304 . S
C506 C510 1.323 . S
C507 C506 1.304 . S
C507 C508 1.371 . S
C507 H516 0.930 . S
C508 C505 1.344 . S
C508 C507 1.371 . S
C508 H517 0.931 . S
C509 C505 1.328 . S
C509 C510 1.433 . S
C509 H518 0.931 . S
C510 C506 1.323 . S
C510 C509 1.433 . S
C510 H519 0.933 . S
C511 Dy481 2.738 . S
C511 O491 1.255 . S
C511 O492 1.249 . S
C511 C505 1.516 . S
H512 C498 0.930 . S
H513 C499 0.931 . S
H514 C500 0.931 . S
H515 C501 0.933 . S
H516 C507 0.930 . S
H517 C508 0.931 . S
H518 C509 0.931 . S
H519 C510 0.933 . S
Dy520 O523 2.307 . S
Dy520 O525 2.395 . S
Dy520 O526 2.379 . S
Dy520 O528 2.339 . S
Dy520 O530 2.298 1_556 S
Dy520 O534 2.275 1_556 S
Dy520 C542 2.738 . S
Dy521 O524 2.298 1_554 S
Dy521 O527 2.275 1_554 S
Dy521 O529 2.307 . S
Dy521 O531 2.395 . S
Dy521 O532 2.379 . S
Dy521 O535 2.339 . S
Dy521 C551 2.738 . S
C522 O534 1.254 . S
C522 O535 1.257 . S
O523 Dy520 2.307 . S
O523 C533 1.266 . S
O524 Dy521 2.298 1_556 S
O524 C533 1.236 . S
O525 Dy520 2.395 . S
O525 C542 1.255 . S
O526 Dy520 2.379 . S
O526 C542 1.249 . S
O527 Dy521 2.275 1_556 S
O527 C543 1.254 . S
O528 Dy520 2.339 . S
O528 C543 1.257 . S
O529 Dy521 2.307 . S
O529 C544 1.266 . S
O530 Dy520 2.298 1_554 S
O530 C544 1.236 . S
O531 Dy521 2.395 . S
O531 C551 1.255 . S
O532 Dy521 2.379 . S
O532 C551 1.249 . S
C533 O523 1.266 . S
C533 O524 1.236 . S
O534 Dy520 2.275 1_554 S
O534 C522 1.254 . S
O535 Dy521 2.339 . S
O535 C522 1.257 . S
C536 C539 1.344 . S
C536 C540 1.328 . S
C536 C542 1.516 . S
C537 C538 1.304 . S
C537 C541 1.323 . S
C538 C537 1.304 . S
C538 C539 1.371 . S
C538 H552 0.930 1_556 S
C539 C536 1.344 . S
C539 C538 1.371 . S
C539 H553 0.931 1_556 S
C540 C536 1.328 . S
C540 C541 1.433 . S
C540 H554 0.931 . S
C541 C537 1.323 . S
C541 C540 1.433 . S
C541 H555 0.933 . S
C542 Dy520 2.738 . S
C542 O525 1.255 . S
C542 O526 1.249 . S
C542 C536 1.516 . S
C543 O527 1.254 . S
C543 O528 1.257 . S
C544 O529 1.266 . S
C544 O530 1.236 . S
C545 C548 1.344 . S
C545 C549 1.328 . S
C545 C551 1.516 . S
C546 C547 1.304 . S
C546 C550 1.323 . S
C547 C546 1.304 . S
C547 C548 1.371 . S
C547 H556 0.930 1_554 S
C548 C545 1.344 . S
C548 C547 1.371 . S
C548 H557 0.931 1_554 S
C549 C545 1.328 . S
C549 C550 1.433 . S
C549 H558 0.931 . S
C550 C546 1.323 . S
C550 C549 1.433 . S
C550 H559 0.933 . S
C551 Dy521 2.738 . S
C551 O531 1.255 . S
C551 O532 1.249 . S
C551 C545 1.516 . S
H552 C538 0.930 1_554 S
H553 C539 0.931 1_554 S
H554 C540 0.931 . S
H555 C541 0.933 . S
H556 C547 0.930 1_556 S
H557 C548 0.931 1_556 S
H558 C549 0.931 . S
H559 C550 0.933 . S
Dy560 O563 2.307 . S
Dy560 O565 2.395 . S
Dy560 O566 2.379 . S
Dy560 O568 2.339 1_565 S
Dy560 O570 2.298 1_565 S
Dy560 O574 2.275 . S
Dy560 C582 2.738 . S
Dy561 O564 2.298 1_545 S
Dy561 O567 2.275 . S
Dy561 O569 2.307 . S
Dy561 O571 2.395 . S
Dy561 O572 2.379 . S
Dy561 O575 2.339 1_545 S
Dy561 C591 2.738 . S
C562 O574 1.254 . S
C562 O575 1.257 . S
O563 Dy560 2.307 . S
O563 C573 1.266 . S
O564 Dy561 2.298 1_565 S
O564 C573 1.236 . S
O565 Dy560 2.395 . S
O565 C582 1.255 . S
O566 Dy560 2.379 . S
O566 C582 1.249 . S
O567 Dy561 2.275 . S
O567 C583 1.254 . S
O568 Dy560 2.339 1_545 S
O568 C583 1.257 . S
O569 Dy561 2.307 . S
O569 C584 1.266 . S
O570 Dy560 2.298 1_545 S
O570 C584 1.236 . S
O571 Dy561 2.395 . S
O571 C591 1.255 . S
O572 Dy561 2.379 . S
O572 C591 1.249 . S
C573 O563 1.266 . S
C573 O564 1.236 . S
O574 Dy560 2.275 . S
O574 C562 1.254 . S
O575 Dy561 2.339 1_565 S
O575 C562 1.257 . S
C576 C579 1.344 . S
C576 C580 1.328 . S
C576 C582 1.516 . S
C577 C578 1.304 . S
C577 C581 1.323 . S
C578 C577 1.304 . S
C578 C579 1.371 . S
C578 H592 0.930 . S
C579 C576 1.344 . S
C579 C578 1.371 . S
C579 H593 0.931 . S
C580 C576 1.328 . S
C580 C581 1.433 . S
C580 H594 0.931 . S
C581 C577 1.323 . S
C581 C580 1.433 . S
C581 H595 0.933 . S
C582 Dy560 2.738 . S
C582 O565 1.255 . S
C582 O566 1.249 . S
C582 C576 1.516 . S
C583 O567 1.254 . S
C583 O568 1.257 . S
C584 O569 1.266 . S
C584 O570 1.236 . S
C585 C588 1.344 . S
C585 C589 1.328 . S
C585 C591 1.516 . S
C586 C587 1.304 . S
C586 C590 1.323 . S
C587 C586 1.304 . S
C587 C588 1.371 . S
C587 H596 0.930 . S
C588 C585 1.344 . S
C588 C587 1.371 . S
C588 H597 0.931 . S
C589 C585 1.328 . S
C589 C590 1.433 . S
C589 H598 0.931 . S
C590 C586 1.323 . S
C590 C589 1.433 . S
C590 H599 0.933 . S
C591 Dy561 2.738 . S
C591 O571 1.255 . S
C591 O572 1.249 . S
C591 C585 1.516 . S
H592 C578 0.930 . S
H593 C579 0.931 . S
H594 C580 0.931 . S
H595 C581 0.933 . S
H596 C587 0.930 . S
H597 C588 0.931 . S
H598 C589 0.931 . S
H599 C590 0.933 . S
Dy600 O603 2.307 . S
Dy600 O605 2.395 . S
Dy600 O606 2.379 . S
Dy600 O608 2.339 . S
Dy600 O610 2.298 1_554 S
Dy600 O614 2.275 1_554 S
Dy600 C622 2.738 . S
Dy601 O604 2.298 1_556 S
Dy601 O607 2.275 1_556 S
Dy601 O609 2.307 . S
Dy601 O611 2.395 . S
Dy601 O612 2.379 . S
Dy601 O615 2.339 . S
Dy601 C631 2.738 . S
C602 O614 1.254 . S
C602 O615 1.257 . S
O603 Dy600 2.307 . S
O603 C613 1.266 . S
O604 Dy601 2.298 1_554 S
O604 C613 1.236 . S
O605 Dy600 2.395 . S
O605 C622 1.255 . S
O606 Dy600 2.379 . S
O606 C622 1.249 . S
O607 Dy601 2.275 1_554 S
O607 C623 1.254 . S
O608 Dy600 2.339 . S
O608 C623 1.257 . S
O609 Dy601 2.307 . S
O609 C624 1.266 . S
O610 Dy600 2.298 1_556 S
O610 C624 1.236 . S
O611 Dy601 2.395 . S
O611 C631 1.255 . S
O612 Dy601 2.379 . S
O612 C631 1.249 . S
C613 O603 1.266 . S
C613 O604 1.236 . S
O614 Dy600 2.275 1_556 S
O614 C602 1.254 . S
O615 Dy601 2.339 . S
O615 C602 1.257 . S
C616 C619 1.344 . S
C616 C620 1.328 . S
C616 C622 1.516 . S
C617 C618 1.304 . S
C617 C621 1.323 . S
C618 C617 1.304 . S
C618 C619 1.371 . S
C618 H632 0.952 . S
C619 C616 1.344 . S
C619 C618 1.371 . S
C619 H633 0.931 1_554 S
C620 C616 1.328 . S
C620 C621 1.433 . S
C620 H634 0.931 . S
C621 C617 1.323 . S
C621 C620 1.433 . S
C621 H635 0.933 . S
C622 Dy600 2.738 . S
C622 O605 1.255 . S
C622 O606 1.249 . S
C622 C616 1.516 . S
C623 O607 1.254 . S
C623 O608 1.257 . S
C624 O609 1.266 . S
C624 O610 1.236 . S
C625 C628 1.344 . S
C625 C629 1.328 . S
C625 C631 1.516 . S
C626 C627 1.304 . S
C626 C630 1.323 . S
C627 C626 1.304 . S
C627 C628 1.371 . S
C627 H636 0.932 1_556 S
C628 C625 1.344 . S
C628 C627 1.371 . S
C628 H637 0.931 1_556 S
C629 C625 1.328 . S
C629 C630 1.433 . S
C629 H638 0.931 . S
C630 C626 1.323 . S
C630 C629 1.433 . S
C630 H639 0.933 . S
C631 Dy601 2.738 . S
C631 O611 1.255 . S
C631 O612 1.249 . S
C631 C625 1.516 . S
H632 C618 0.952 . S
H633 C619 0.931 1_556 S
H634 C620 0.931 . S
H635 C621 0.933 . S
H636 C627 0.932 1_554 S
H637 C628 0.931 1_554 S
H638 C629 0.931 . S
H639 C630 0.933 . S
H640 C646 0.930 . S
H641 C649 0.930 . S
H642 C650 0.930 . S
H643 C651 0.930 . S
H644 C654 0.930 . S
H645 C655 0.930 . S
C646 H640 0.930 . S
C646 C647 1.355 . S
C646 C648 1.415 . S
C647 C646 1.355 . S
C647 C649 1.419 1_655 S
C648 C646 1.415 . S
C648 C653 1.425 1_655 S
C648 C655 1.409 . S
C649 H641 0.930 . S
C649 C647 1.419 1_455 S
C649 C650 1.362 . S
C650 H642 0.930 . S
C650 C649 1.362 . S
C650 C653 1.409 . S
C651 H643 0.930 . S
C651 C652 1.346 1_455 S
C651 C653 1.415 . S
C652 C651 1.346 1_655 S
C652 C654 1.447 . S
C653 C648 1.425 1_455 S
C653 C650 1.409 . S
C653 C651 1.415 . S
C654 H644 0.930 . S
C654 C652 1.447 . S
C654 C655 1.362 . S
C655 H645 0.930 . S
C655 C648 1.409 . S
C655 C654 1.362 . S
H656 C662 0.930 . S
H657 C665 0.930 . S
H658 C666 0.930 . S
H659 C667 0.930 . S
H660 C670 0.930 . S
H661 C671 0.930 . S
C662 H656 0.930 . S
C662 C663 1.355 . S
C662 C664 1.415 . S
C663 C662 1.355 . S
C663 C665 1.419 . S
C664 C662 1.415 . S
C664 C669 1.425 . S
C664 C671 1.409 . S
C665 H657 0.930 . S
C665 C663 1.419 . S
C665 C666 1.362 . S
C666 H658 0.930 . S
C666 C665 1.362 . S
C666 C669 1.409 . S
C667 H659 0.930 . S
C667 C668 1.355 . S
C667 C669 1.415 . S
C668 C667 1.355 . S
C668 C670 1.419 . S
C669 C664 1.425 . S
C669 C666 1.409 . S
C669 C667 1.415 . S
C670 H660 0.930 . S
C670 C668 1.419 . S
C670 C671 1.362 . S
C671 H661 0.930 . S
C671 C664 1.409 . S
C671 C670 1.362 . S
H672 C678 0.930 . S
H673 C681 0.930 . S
H674 C682 0.930 . S
H675 C683 0.930 . S
H676 C686 0.930 . S
H677 C687 0.930 . S
C678 H672 0.930 . S
C678 C679 1.355 . S
C678 C680 1.415 . S
C679 C678 1.355 . S
C679 C681 1.419 . S
C680 C678 1.415 . S
C680 C685 1.425 . S
C680 C687 1.409 . S
C681 H673 0.930 . S
C681 C679 1.419 . S
C681 C682 1.362 . S
C682 H674 0.930 . S
C682 C681 1.362 . S
C682 C685 1.409 . S
C683 H675 0.930 . S
C683 C684 1.355 . S
C683 C685 1.415 . S
C684 C683 1.355 . S
C684 C686 1.419 . S
C685 C680 1.425 . S
C685 C682 1.409 . S
C685 C683 1.415 . S
C686 H676 0.930 . S
C686 C684 1.419 . S
C686 C687 1.362 . S
C687 H677 0.930 . S
C687 C680 1.409 . S
C687 C686 1.362 . S
H688 C694 0.930 . S
H689 C697 0.930 . S
H690 C698 0.930 . S
H691 C699 0.930 . S
H692 C702 0.930 . S
H693 C703 0.930 1_554 S
C694 H688 0.930 . S
C694 C695 1.355 . S
C694 C696 1.415 . S
C695 C694 1.355 . S
C695 C697 1.419 . S
C696 C694 1.415 . S
C696 C701 1.425 . S
C696 C703 1.409 . S
C697 H689 0.930 . S
C697 C695 1.419 . S
C697 C698 1.362 . S
C698 H690 0.930 . S
C698 C697 1.362 . S
C698 C701 1.409 . S
C699 H691 0.930 . S
C699 C700 1.355 . S
C699 C701 1.415 . S
C700 C699 1.355 . S
C700 C702 1.419 . S
C701 C696 1.425 . S
C701 C698 1.409 . S
C701 C699 1.415 . S
C702 H692 0.930 . S
C702 C700 1.419 . S
C702 C703 1.362 . S
C703 H693 0.930 1_556 S
C703 C696 1.409 . S
C703 C702 1.362 . S
H704 C710 0.924 1_545 S
H705 C713 0.930 1_556 S
H706 C714 0.930 1_556 S
H707 C715 0.930 . S
H708 C718 0.930 . S
H709 C719 0.930 . S
C710 H704 0.924 1_565 S
C710 C711 1.355 . S
C710 C712 1.415 . S
C711 C710 1.355 . S
C711 C713 1.419 . S
C712 C710 1.415 . S
C712 C717 1.425 . S
C712 C719 1.409 1_565 S
C713 H705 0.930 1_554 S
C713 C711 1.419 . S
C713 C714 1.362 . S
C714 H706 0.930 1_554 S
C714 C713 1.362 . S
C714 C717 1.409 . S
C715 H707 0.930 . S
C715 C716 1.355 . S
C715 C717 1.415 . S
C716 C715 1.355 . S
C716 C718 1.419 1_565 S
C717 C712 1.425 . S
C717 C714 1.409 . S
C717 C715 1.415 . S
C718 H708 0.930 . S
C718 C716 1.419 1_545 S
C718 C719 1.362 . S
C719 H709 0.930 . S
C719 C712 1.409 1_545 S
C719 C718 1.362 . S
H720 C726 0.930 . S
H721 C729 0.930 . S
H722 C730 0.930 . S
H723 C731 0.930 . S
H724 C734 0.930 . S
H725 C735 0.930 . S
C726 H720 0.930 . S
C726 C727 1.355 . S
C726 C728 1.415 . S
C727 C726 1.355 . S
C727 C729 1.419 . S
C728 C726 1.415 . S
C728 C733 1.425 . S
C728 C735 1.409 . S
C729 H721 0.930 . S
C729 C727 1.419 . S
C729 C730 1.362 . S
C730 H722 0.930 . S
C730 C729 1.362 . S
C730 C733 1.409 . S
C731 H723 0.930 . S
C731 C732 1.355 . S
C731 C733 1.415 1_655 S
C732 C731 1.355 . S
C732 C734 1.419 1_655 S
C733 C728 1.425 . S
C733 C730 1.409 . S
C733 C731 1.415 1_455 S
C734 H724 0.930 . S
C734 C732 1.419 1_455 S
C734 C735 1.362 . S
C735 H725 0.930 . S
C735 C728 1.409 . S
C735 C734 1.362 . S
H736 C742 0.930 . S
H737 C745 0.930 . S
H738 C746 0.930 . S
H739 C747 0.930 . S
H740 C750 0.930 . S
H741 C751 0.930 . S
C742 H736 0.930 . S
C742 C743 1.355 . S
C742 C744 1.415 . S
C743 C742 1.355 . S
C743 C745 1.419 . S
C744 C742 1.415 . S
C744 C749 1.425 . S
C744 C751 1.409 . S
C745 H737 0.930 . S
C745 C743 1.419 . S
C745 C746 1.362 . S
C746 H738 0.930 . S
C746 C745 1.362 . S
C746 C749 1.409 . S
C747 H739 0.930 . S
C747 C748 1.355 . S
C747 C749 1.415 . S
C748 C747 1.355 . S
C748 C750 1.419 . S
C749 C744 1.425 . S
C749 C746 1.409 . S
C749 C747 1.415 . S
C750 H740 0.930 . S
C750 C748 1.419 . S
C750 C751 1.362 . S
C751 H741 0.930 . S
C751 C744 1.409 . S
C751 C750 1.362 . S
H752 C758 0.930 . S
H753 C761 0.930 . S
H754 C762 0.930 . S
H755 C763 0.930 . S
H756 C766 0.930 . S
H757 C767 0.930 . S
C758 H752 0.930 . S
C758 C759 1.355 . S
C758 C760 1.415 . S
C759 C758 1.355 . S
C759 C761 1.419 . S
C760 C758 1.415 . S
C760 C765 1.425 . S
C760 C767 1.409 . S
C761 H753 0.930 . S
C761 C759 1.419 . S
C761 C762 1.362 . S
C762 H754 0.930 . S
C762 C761 1.362 . S
C762 C765 1.409 . S
C763 H755 0.930 . S
C763 C764 1.355 . S
C763 C765 1.415 . S
C764 C763 1.355 . S
C764 C766 1.419 . S
C765 C760 1.425 . S
C765 C762 1.409 . S
C765 C763 1.415 . S
C766 H756 0.930 . S
C766 C764 1.419 . S
C766 C767 1.362 . S
C767 H757 0.930 . S
C767 C760 1.409 . S
C767 C766 1.362 . S
H768 C774 0.930 . S
H769 C777 0.930 . S
H770 C778 0.930 . S
H771 C779 0.930 . S
H772 C782 0.930 . S
H773 C783 0.930 . S
C774 H768 0.930 . S
C774 C775 1.355 . S
C774 C776 1.415 . S
C775 C774 1.355 . S
C775 C777 1.419 . S
C776 C774 1.415 . S
C776 C781 1.425 . S
C776 C783 1.409 . S
C777 H769 0.930 . S
C777 C775 1.419 . S
C777 C778 1.362 . S
C778 H770 0.930 . S
C778 C777 1.362 . S
C778 C781 1.409 . S
C779 H771 0.930 . S
C779 C780 1.355 . S
C779 C781 1.415 . S
C780 C779 1.355 . S
C780 C782 1.419 . S
C781 C776 1.425 . S
C781 C778 1.409 . S
C781 C779 1.415 . S
C782 H772 0.930 . S
C782 C780 1.419 . S
C782 C783 1.362 . S
C783 H773 0.930 . S
C783 C776 1.409 . S
C783 C782 1.362 . S
H784 C790 0.930 . S
H785 C793 0.930 . S
H786 C794 0.930 . S
H787 C795 0.930 . S
H788 C798 0.930 . S
H789 C799 0.930 . S
C790 H784 0.930 . S
C790 C791 1.355 . S
C790 C792 1.415 . S
C791 C790 1.355 . S
C791 C793 1.419 . S
C792 C790 1.415 . S
C792 C797 1.425 . S
C792 C799 1.409 . S
C793 H785 0.930 . S
C793 C791 1.419 . S
C793 C794 1.362 . S
C794 H786 0.930 . S
C794 C793 1.362 . S
C794 C797 1.409 . S
C795 H787 0.930 . S
C795 C796 1.355 . S
C795 C797 1.415 . S
C796 C795 1.355 . S
C796 C798 1.419 . S
C797 C792 1.425 . S
C797 C794 1.409 . S
C797 C795 1.415 . S
C798 H788 0.930 . S
C798 C796 1.419 . S
C798 C799 1.362 . S
C799 H789 0.930 . S
C799 C792 1.409 . S
C799 C798 1.362 . S
H800 C806 0.930 . S
H801 C809 0.930 . S
H802 C810 0.930 . S
H803 C811 0.930 . S
H804 C814 0.930 . S
H805 C815 0.930 . S
C806 H800 0.930 . S
C806 C807 1.355 . S
C806 C808 1.415 . S
C807 C806 1.355 . S
C807 C809 1.419 . S
C808 C806 1.415 . S
C808 C813 1.425 . S
C808 C815 1.409 . S
C809 H801 0.930 . S
C809 C807 1.419 . S
C809 C810 1.362 . S
C810 H802 0.930 . S
C810 C809 1.362 . S
C810 C813 1.409 . S
C811 H803 0.930 . S
C811 C812 1.355 . S
C811 C813 1.415 . S
C812 C811 1.355 . S
C812 C814 1.419 . S
C813 C808 1.425 . S
C813 C810 1.409 . S
C813 C811 1.415 . S
C814 H804 0.930 . S
C814 C812 1.419 . S
C814 C815 1.362 . S
C815 H805 0.930 . S
C815 C808 1.409 . S
C815 C814 1.362 . S
H816 C822 0.930 . S
H817 C825 0.930 . S
H818 C826 0.930 . S
H819 C827 0.930 . S
H820 C830 0.930 . S
H821 C831 0.930 . S
C822 H816 0.930 . S
C822 C823 1.355 . S
C822 C824 1.415 . S
C823 C822 1.355 . S
C823 C825 1.419 1_455 S
C824 C822 1.415 . S
C824 C829 1.425 1_455 S
C824 C831 1.409 . S
C825 H817 0.930 . S
C825 C823 1.419 1_655 S
C825 C826 1.362 . S
C826 H818 0.930 . S
C826 C825 1.362 . S
C826 C829 1.409 . S
C827 H819 0.930 . S
C827 C828 1.355 1_655 S
C827 C829 1.415 . S
C828 C827 1.355 1_455 S
C828 C830 1.419 . S
C829 C824 1.425 1_655 S
C829 C826 1.409 . S
C829 C827 1.415 . S
C830 H820 0.930 . S
C830 C828 1.419 . S
C830 C831 1.362 . S
C831 H821 0.930 . S
C831 C824 1.409 . S
C831 C830 1.362 . S
H832 C838 0.930 . S
H833 C841 0.930 . S
H834 C842 0.930 . S
H835 C843 0.930 . S
H836 C846 0.930 . S
H837 C847 0.930 . S
C838 H832 0.930 . S
C838 C839 1.355 . S
C838 C840 1.415 . S
C839 C838 1.355 . S
C839 C841 1.419 . S
C840 C838 1.415 . S
C840 C845 1.425 . S
C840 C847 1.409 . S
C841 H833 0.930 . S
C841 C839 1.419 . S
C841 C842 1.362 . S
C842 H834 0.930 . S
C842 C841 1.362 . S
C842 C845 1.409 . S
C843 H835 0.930 . S
C843 C844 1.355 . S
C843 C845 1.415 . S
C844 C843 1.355 . S
C844 C846 1.419 . S
C845 C840 1.425 . S
C845 C842 1.409 . S
C845 C843 1.415 . S
C846 H836 0.930 . S
C846 C844 1.419 . S
C846 C847 1.362 . S
C847 H837 0.930 . S
C847 C840 1.409 . S
C847 C846 1.362 . S
H848 C854 0.930 . S
H849 C857 0.930 . S
H850 C858 0.930 . S
H851 C859 0.930 . S
H852 C862 0.930 . S
H853 C863 0.930 . S
C854 H848 0.930 . S
C854 C855 1.355 . S
C854 C856 1.415 . S
C855 C854 1.355 . S
C855 C857 1.419 . S
C856 C854 1.415 . S
C856 C861 1.425 . S
C856 C863 1.409 . S
C857 H849 0.930 . S
C857 C855 1.419 . S
C857 C858 1.362 . S
C858 H850 0.930 . S
C858 C857 1.362 . S
C858 C861 1.409 . S
C859 H851 0.930 . S
C859 C860 1.355 . S
C859 C861 1.415 . S
C860 C859 1.355 . S
C860 C862 1.419 . S
C861 C856 1.425 . S
C861 C858 1.409 . S
C861 C859 1.415 . S
C862 H852 0.930 . S
C862 C860 1.419 . S
C862 C863 1.362 . S
C863 H853 0.930 . S
C863 C856 1.409 . S
C863 C862 1.362 . S
H864 C870 0.930 . S
H865 C873 0.930 . S
H866 C874 0.930 . S
H867 C875 0.930 . S
H868 C878 0.930 . S
H869 C879 0.930 . S
C870 H864 0.930 . S
C870 C871 1.355 . S
C870 C872 1.415 . S
C871 C870 1.355 . S
C871 C873 1.419 . S
C872 C870 1.415 . S
C872 C877 1.425 . S
C872 C879 1.409 . S
C873 H865 0.930 . S
C873 C871 1.419 . S
C873 C874 1.362 . S
C874 H866 0.930 . S
C874 C873 1.362 . S
C874 C877 1.409 . S
C875 H867 0.930 . S
C875 C876 1.355 . S
C875 C877 1.415 . S
C876 C875 1.355 . S
C876 C878 1.419 . S
C877 C872 1.425 . S
C877 C874 1.409 . S
C877 C875 1.415 . S
C878 H868 0.930 . S
C878 C876 1.419 . S
C878 C879 1.362 . S
C879 H869 0.930 . S
C879 C872 1.409 . S
C879 C878 1.362 . S
H880 C886 0.930 . S
H881 C889 0.930 . S
H882 C890 0.930 . S
H883 C891 0.930 . S
H884 C894 0.930 . S
H885 C895 0.930 . S
C886 H880 0.930 . S
C886 C887 1.355 . S
C886 C888 1.415 . S
C887 C886 1.355 . S
C887 C889 1.419 . S
C888 C886 1.415 . S
C888 C893 1.425 . S
C888 C895 1.409 . S
C889 H881 0.930 . S
C889 C887 1.419 . S
C889 C890 1.362 . S
C890 H882 0.930 . S
C890 C889 1.362 . S
C890 C893 1.409 . S
C891 H883 0.930 . S
C891 C892 1.355 . S
C891 C893 1.415 . S
C892 C891 1.355 . S
C892 C894 1.419 . S
C893 C888 1.425 . S
C893 C890 1.409 . S
C893 C891 1.415 . S
C894 H884 0.930 . S
C894 C892 1.419 . S
C894 C895 1.362 . S
C895 H885 0.930 . S
C895 C888 1.409 . S
C895 C894 1.362 . S
H896 C902 0.930 . S
H897 C905 0.930 . S
H898 C906 0.930 . S
H899 C907 0.930 . S
H900 C910 0.930 . S
H901 C911 0.930 . S
C902 H896 0.930 . S
C902 C903 1.355 . S
C902 C904 1.415 . S
C903 C902 1.355 . S
C903 C905 1.419 . S
C904 C902 1.415 . S
C904 C909 1.425 . S
C904 C911 1.409 . S
C905 H897 0.930 . S
C905 C903 1.419 . S
C905 C906 1.362 . S
C906 H898 0.930 . S
C906 C905 1.362 . S
C906 C909 1.409 . S
C907 H899 0.930 . S
C907 C908 1.355 . S
C907 C909 1.415 . S
C908 C907 1.355 . S
C908 C910 1.419 . S
C909 C904 1.425 . S
C909 C906 1.409 . S
C909 C907 1.415 . S
C910 H900 0.930 . S
C910 C908 1.419 . S
C910 C911 1.362 . S
C911 H901 0.930 . S
C911 C904 1.409 . S
C911 C910 1.362 . S
H912 C918 0.930 . S
H913 C921 0.930 . S
H914 C922 0.930 . S
H915 C923 0.930 . S
H916 C926 0.930 . S
H917 C927 0.930 . S
C918 H912 0.930 . S
C918 C919 1.355 . S
C918 C920 1.415 . S
C919 C918 1.355 . S
C919 C921 1.419 . S
C920 C918 1.415 . S
C920 C925 1.425 . S
C920 C927 1.409 . S
C921 H913 0.930 . S
C921 C919 1.419 . S
C921 C922 1.362 . S
C922 H914 0.930 . S
C922 C921 1.362 . S
C922 C925 1.409 . S
C923 H915 0.930 . S
C923 C924 1.355 . S
C923 C925 1.415 . S
C924 C923 1.355 . S
C924 C926 1.419 . S
C925 C920 1.425 . S
C925 C922 1.409 . S
C925 C923 1.415 . S
C926 H916 0.930 . S
C926 C924 1.419 . S
C926 C927 1.362 . S
C927 H917 0.930 . S
C927 C920 1.409 . S
C927 C926 1.362 . S
H928 C934 0.930 . S
H929 C937 0.930 . S
H930 C938 0.930 . S
H931 C939 0.930 . S
H932 C942 0.930 . S
H933 C943 0.930 . S
C934 H928 0.930 . S
C934 C935 1.355 . S
C934 C936 1.415 . S
C935 C934 1.355 . S
C935 C937 1.419 . S
C936 C934 1.415 . S
C936 C941 1.425 . S
C936 C943 1.409 . S
C937 H929 0.930 . S
C937 C935 1.419 . S
C937 C938 1.362 . S
C938 H930 0.930 . S
C938 C937 1.362 . S
C938 C941 1.409 . S
C939 H931 0.930 . S
C939 C940 1.355 . S
C939 C941 1.415 . S
C940 C939 1.355 . S
C940 C942 1.419 . S
C941 C936 1.425 . S
C941 C938 1.409 . S
C941 C939 1.415 . S
C942 H932 0.930 . S
C942 C940 1.419 . S
C942 C943 1.362 . S
C943 H933 0.930 . S
C943 C936 1.409 . S
C943 C942 1.362 . S
H944 C950 0.930 . S
H945 C953 0.930 . S
H946 C954 0.930 . S
H947 C955 0.930 . S
H948 C958 0.930 . S
H949 C959 0.930 . S
C950 H944 0.930 . S
C950 C951 1.355 . S
C950 C952 1.415 . S
C951 C950 1.355 . S
C951 C953 1.419 . S
C952 C950 1.415 . S
C952 C957 1.425 . S
C952 C959 1.409 . S
C953 H945 0.930 . S
C953 C951 1.419 . S
C953 C954 1.362 . S
C954 H946 0.930 . S
C954 C953 1.362 . S
C954 C957 1.409 . S
C955 H947 0.930 . S
C955 C956 1.355 . S
C955 C957 1.415 . S
C956 C955 1.355 . S
C956 C958 1.419 . S
C957 C952 1.425 . S
C957 C954 1.409 . S
C957 C955 1.415 . S
C958 H948 0.930 . S
C958 C956 1.419 . S
C958 C959 1.362 . S
C959 H949 0.930 . S
C959 C952 1.409 . S
C959 C958 1.362 . S
H960 C966 0.930 . S
H961 C969 0.930 . S
H962 C970 0.930 . S
H963 C971 0.930 . S
H964 C974 0.930 . S
H965 C975 0.930 . S
C966 H960 0.930 . S
C966 C967 1.355 . S
C966 C968 1.415 . S
C967 C966 1.355 . S
C967 C969 1.419 . S
C968 C966 1.415 . S
C968 C973 1.425 . S
C968 C975 1.409 . S
C969 H961 0.930 . S
C969 C967 1.419 . S
C969 C970 1.362 . S
C970 H962 0.930 . S
C970 C969 1.362 . S
C970 C973 1.409 . S
C971 H963 0.930 . S
C971 C972 1.355 . S
C971 C973 1.415 . S
C972 C971 1.355 . S
C972 C974 1.419 . S
C973 C968 1.425 . S
C973 C970 1.409 . S
C973 C971 1.415 . S
C974 H964 0.930 . S
C974 C972 1.419 . S
C974 C975 1.362 . S
C975 H965 0.930 . S
C975 C968 1.409 . S
C975 C974 1.362 . S
H976 C982 0.930 . S
H977 C985 0.929 1_455 S
H978 C986 0.930 . S
H979 C987 0.930 . S
H980 C990 0.930 . S
H981 C991 0.930 . S
C982 H976 0.930 . S
C982 C983 1.349 1_655 S
C982 C984 1.415 . S
C983 C982 1.349 1_455 S
C983 C985 1.399 1_455 S
C984 C982 1.415 . S
C984 C989 1.425 . S
C984 C991 1.409 . S
C985 H977 0.929 1_655 S
C985 C983 1.399 1_655 S
C985 C986 1.364 . S
C986 H978 0.930 . S
C986 C985 1.364 . S
C986 C989 1.409 . S
C987 H979 0.930 . S
C987 C988 1.355 . S
C987 C989 1.415 . S
C988 C987 1.355 . S
C988 C990 1.419 . S
C989 C984 1.425 . S
C989 C986 1.409 . S
C989 C987 1.415 . S
C990 H980 0.930 . S
C990 C988 1.419 . S
C990 C991 1.362 . S
C991 H981 0.930 . S
C991 C984 1.409 . S
C991 C990 1.362 . S
H992 C998 0.930 . S
H993 C1001 0.930 . S
H994 C1002 0.930 . S
H995 C1003 0.930 . S
H996 C1006 0.930 . S
H997 C1007 0.930 . S
C998 H992 0.930 . S
C998 C999 1.355 . S
C998 C1000 1.415 . S
C999 C998 1.355 . S
C999 C1001 1.419 . S
C1000 C998 1.415 . S
C1000 C1005 1.425 . S
C1000 C1007 1.409 . S
C1001 H993 0.930 . S
C1001 C999 1.419 . S
C1001 C1002 1.362 . S
C1002 H994 0.930 . S
C1002 C1001 1.362 . S
C1002 C1005 1.409 . S
C1003 H995 0.930 . S
C1003 C1004 1.355 . S
C1003 C1005 1.415 . S
C1004 C1003 1.355 . S
C1004 C1006 1.419 . S
C1005 C1000 1.425 . S
C1005 C1002 1.409 . S
C1005 C1003 1.415 . S
C1006 H996 0.930 . S
C1006 C1004 1.419 . S
C1006 C1007 1.362 . S
C1007 H997 0.930 . S
C1007 C1000 1.409 . S
C1007 C1006 1.362 . S
H1008 C1014 0.930 . S
H1009 C1017 0.930 . S
H1010 C1018 0.930 . S
H1011 C1019 0.930 . S
H1012 C1022 0.930 . S
H1013 C1023 0.930 . S
C1014 H1008 0.930 . S
C1014 C1015 1.355 . S
C1014 C1016 1.415 . S
C1015 C1014 1.355 . S
C1015 C1017 1.419 . S
C1016 C1014 1.415 . S
C1016 C1021 1.425 . S
C1016 C1023 1.409 . S
C1017 H1009 0.930 . S
C1017 C1015 1.419 . S
C1017 C1018 1.362 . S
C1018 H1010 0.930 . S
C1018 C1017 1.362 . S
C1018 C1021 1.409 . S
C1019 H1011 0.930 . S
C1019 C1020 1.355 . S
C1019 C1021 1.415 . S
C1020 C1019 1.355 . S
C1020 C1022 1.419 . S
C1021 C1016 1.425 . S
C1021 C1018 1.409 . S
C1021 C1019 1.415 . S
C1022 H1012 0.930 . S
C1022 C1020 1.419 . S
C1022 C1023 1.362 . S
C1023 H1013 0.930 . S
C1023 C1016 1.409 . S
C1023 C1022 1.362 . S
H1024 C1030 0.930 . S
H1025 C1033 0.930 . S
H1026 C1034 0.930 . S
H1027 C1035 0.930 . S
H1028 C1038 0.930 . S
H1029 C1039 0.930 . S
C1030 H1024 0.930 . S
C1030 C1031 1.355 . S
C1030 C1032 1.415 . S
C1031 C1030 1.355 . S
C1031 C1033 1.419 . S
C1032 C1030 1.415 . S
C1032 C1037 1.425 . S
C1032 C1039 1.409 . S
C1033 H1025 0.930 . S
C1033 C1031 1.419 . S
C1033 C1034 1.362 . S
C1034 H1026 0.930 . S
C1034 C1033 1.362 . S
C1034 C1037 1.409 . S
C1035 H1027 0.930 . S
C1035 C1036 1.355 . S
C1035 C1037 1.415 . S
C1036 C1035 1.355 . S
C1036 C1038 1.419 . S
C1037 C1032 1.425 . S
C1037 C1034 1.409 . S
C1037 C1035 1.415 . S
C1038 H1028 0.930 . S
C1038 C1036 1.419 . S
C1038 C1039 1.362 . S
C1039 H1029 0.930 . S
C1039 C1032 1.409 . S
C1039 C1038 1.362 . S
H1040 C1046 0.930 . S
H1041 C1049 0.930 . S
H1042 C1050 0.930 . S
H1043 C1051 0.930 . S
H1044 C1054 0.930 . S
H1045 C1055 0.930 . S
C1046 H1040 0.930 . S
C1046 C1047 1.355 . S
C1046 C1048 1.415 . S
C1047 C1046 1.355 . S
C1047 C1049 1.419 . S
C1048 C1046 1.415 . S
C1048 C1053 1.425 . S
C1048 C1055 1.409 . S
C1049 H1041 0.930 . S
C1049 C1047 1.419 . S
C1049 C1050 1.362 . S
C1050 H1042 0.930 . S
C1050 C1049 1.362 . S
C1050 C1053 1.409 . S
C1051 H1043 0.930 . S
C1051 C1052 1.355 . S
C1051 C1053 1.415 . S
C1052 C1051 1.355 . S
C1052 C1054 1.419 . S
C1053 C1048 1.425 . S
C1053 C1050 1.409 . S
C1053 C1051 1.415 . S
C1054 H1044 0.930 . S
C1054 C1052 1.419 . S
C1054 C1055 1.362 . S
C1055 H1045 0.930 . S
C1055 C1048 1.409 . S
C1055 C1054 1.362 . S
H1056 C1062 0.930 . S
H1057 C1065 0.930 . S
H1058 C1066 0.930 . S
H1059 C1067 0.930 . S
H1060 C1070 0.930 . S
H1061 C1071 0.930 . S
C1062 H1056 0.930 . S
C1062 C1063 1.355 1_565 S
C1062 C1064 1.415 1_565 S
C1063 C1062 1.355 1_545 S
C1063 C1065 1.419 . S
C1064 C1062 1.415 1_545 S
C1064 C1069 1.425 . S
C1064 C1071 1.409 1_545 S
C1065 H1057 0.930 . S
C1065 C1063 1.419 . S
C1065 C1066 1.362 . S
C1066 H1058 0.930 . S
C1066 C1065 1.362 . S
C1066 C1069 1.409 . S
C1067 H1059 0.930 . S
C1067 C1068 1.355 . S
C1067 C1069 1.415 . S
C1068 C1067 1.355 . S
C1068 C1070 1.419 1_545 S
C1069 C1064 1.425 . S
C1069 C1066 1.409 . S
C1069 C1067 1.415 . S
C1070 H1060 0.930 . S
C1070 C1068 1.419 1_565 S
C1070 C1071 1.362 . S
C1071 H1061 0.930 . S
C1071 C1064 1.409 1_565 S
C1071 C1070 1.362 . S
H1072 C1078 0.930 . S
H1073 C1081 0.930 . S
H1074 C1082 0.930 . S
H1075 C1083 0.930 . S
H1076 C1086 0.930 . S
H1077 C1087 0.930 . S
C1078 H1072 0.930 . S
C1078 C1079 1.355 . S
C1078 C1080 1.415 . S
C1079 C1078 1.355 . S
C1079 C1081 1.419 . S
C1080 C1078 1.415 . S
C1080 C1085 1.425 . S
C1080 C1087 1.409 . S
C1081 H1073 0.930 . S
C1081 C1079 1.419 . S
C1081 C1082 1.362 . S
C1082 H1074 0.930 . S
C1082 C1081 1.362 . S
C1082 C1085 1.409 . S
C1083 H1075 0.930 . S
C1083 C1084 1.355 . S
C1083 C1085 1.415 . S
C1084 C1083 1.355 . S
C1084 C1086 1.419 . S
C1085 C1080 1.425 . S
C1085 C1082 1.409 . S
C1085 C1083 1.415 . S
C1086 H1076 0.930 . S
C1086 C1084 1.419 . S
C1086 C1087 1.362 . S
C1087 H1077 0.930 . S
C1087 C1080 1.409 . S
C1087 C1086 1.362 . S
H1088 C1094 0.930 . S
H1089 C1097 0.930 . S
H1090 C1098 0.930 . S
H1091 C1099 0.930 . S
H1092 C1102 0.930 . S
H1093 C1103 0.930 . S
C1094 H1088 0.930 . S
C1094 C1095 1.355 . S
C1094 C1096 1.415 . S
C1095 C1094 1.355 . S
C1095 C1097 1.419 . S
C1096 C1094 1.415 . S
C1096 C1101 1.425 . S
C1096 C1103 1.409 . S
C1097 H1089 0.930 . S
C1097 C1095 1.419 . S
C1097 C1098 1.362 . S
C1098 H1090 0.930 . S
C1098 C1097 1.362 . S
C1098 C1101 1.409 . S
C1099 H1091 0.930 . S
C1099 C1100 1.355 . S
C1099 C1101 1.415 . S
C1100 C1099 1.355 . S
C1100 C1102 1.419 . S
C1101 C1096 1.425 . S
C1101 C1098 1.409 . S
C1101 C1099 1.415 . S
C1102 H1092 0.930 . S
C1102 C1100 1.419 . S
C1102 C1103 1.362 . S
C1103 H1093 0.930 . S
C1103 C1096 1.409 . S
C1103 C1102 1.362 . S
H1104 C1110 0.930 . S
H1105 C1113 0.930 . S
H1106 C1114 0.930 . S
H1107 C1115 0.930 . S
H1108 C1118 0.930 . S
H1109 C1119 0.930 . S
C1110 H1104 0.930 . S
C1110 C1111 1.355 . S
C1110 C1112 1.415 . S
C1111 C1110 1.355 . S
C1111 C1113 1.419 . S
C1112 C1110 1.415 . S
C1112 C1117 1.425 . S
C1112 C1119 1.409 . S
C1113 H1105 0.930 . S
C1113 C1111 1.419 . S
C1113 C1114 1.362 . S
C1114 H1106 0.930 . S
C1114 C1113 1.362 . S
C1114 C1117 1.409 . S
C1115 H1107 0.930 . S
C1115 C1116 1.355 . S
C1115 C1117 1.415 . S
C1116 C1115 1.355 . S
C1116 C1118 1.419 . S
C1117 C1112 1.425 . S
C1117 C1114 1.409 . S
C1117 C1115 1.415 . S
C1118 H1108 0.930 . S
C1118 C1116 1.419 . S
C1118 C1119 1.362 . S
C1119 H1109 0.930 . S
C1119 C1112 1.409 . S
C1119 C1118 1.362 . S
H1120 C1126 0.930 . S
H1121 C1129 0.930 . S
H1122 C1130 0.930 . S
H1123 C1131 0.930 . S
H1124 C1134 0.930 . S
H1125 C1135 0.930 . S
C1126 H1120 0.930 . S
C1126 C1127 1.355 . S
C1126 C1128 1.415 . S
C1127 C1126 1.355 . S
C1127 C1129 1.419 . S
C1128 C1126 1.415 . S
C1128 C1133 1.425 . S
C1128 C1135 1.409 . S
C1129 H1121 0.930 . S
C1129 C1127 1.419 . S
C1129 C1130 1.362 . S
C1130 H1122 0.930 . S
C1130 C1129 1.362 . S
C1130 C1133 1.409 . S
C1131 H1123 0.930 . S
C1131 C1132 1.355 . S
C1131 C1133 1.415 . S
C1132 C1131 1.355 . S
C1132 C1134 1.419 . S
C1133 C1128 1.425 . S
C1133 C1130 1.409 . S
C1133 C1131 1.415 . S
C1134 H1124 0.930 . S
C1134 C1132 1.419 . S
C1134 C1135 1.362 . S
C1135 H1125 0.930 . S
C1135 C1128 1.409 . S
C1135 C1134 1.362 . S
H1136 C1142 0.930 . S
H1137 C1145 0.930 . S
H1138 C1146 0.930 . S
H1139 C1147 0.930 . S
H1140 C1150 0.930 . S
H1141 C1151 0.930 . S
C1142 H1136 0.930 . S
C1142 C1143 1.355 . S
C1142 C1144 1.415 . S
C1143 C1142 1.355 . S
C1143 C1145 1.419 . S
C1144 C1142 1.415 . S
C1144 C1149 1.425 . S
C1144 C1151 1.409 . S
C1145 H1137 0.930 . S
C1145 C1143 1.419 . S
C1145 C1146 1.362 . S
C1146 H1138 0.930 . S
C1146 C1145 1.362 . S
C1146 C1149 1.409 . S
C1147 H1139 0.930 . S
C1147 C1148 1.355 . S
C1147 C1149 1.415 . S
C1148 C1147 1.355 . S
C1148 C1150 1.419 . S
C1149 C1144 1.425 . S
C1149 C1146 1.409 . S
C1149 C1147 1.415 . S
C1150 H1140 0.930 . S
C1150 C1148 1.419 . S
C1150 C1151 1.362 . S
C1151 H1141 0.930 . S
C1151 C1144 1.409 . S
C1151 C1150 1.362 . S
H1152 C1158 0.930 . S
H1153 C1161 0.930 . S
H1154 C1162 0.930 . S
H1155 C1163 0.930 . S
H1156 C1166 0.930 . S
H1157 C1167 0.930 . S
C1158 H1152 0.930 . S
C1158 C1159 1.355 . S
C1158 C1160 1.415 . S
C1159 C1158 1.355 . S
C1159 C1161 1.419 . S
C1160 C1158 1.415 . S
C1160 C1165 1.425 . S
C1160 C1167 1.409 . S
C1161 H1153 0.930 . S
C1161 C1159 1.419 . S
C1161 C1162 1.362 . S
C1162 H1154 0.930 . S
C1162 C1161 1.362 . S
C1162 C1165 1.409 . S
C1163 H1155 0.930 . S
C1163 C1164 1.355 . S
C1163 C1165 1.415 . S
C1164 C1163 1.355 . S
C1164 C1166 1.419 . S
C1165 C1160 1.425 . S
C1165 C1162 1.409 . S
C1165 C1163 1.415 . S
C1166 H1156 0.930 . S
C1166 C1164 1.419 . S
C1166 C1167 1.362 . S
C1167 H1157 0.930 . S
C1167 C1160 1.409 . S
C1167 C1166 1.362 . S
H1168 C1174 0.930 . S
H1169 C1177 0.930 . S
H1170 C1178 0.930 . S
H1171 C1179 0.930 . S
H1172 C1182 0.930 . S
H1173 C1183 0.930 . S
C1174 H1168 0.930 . S
C1174 C1175 1.355 . S
C1174 C1176 1.415 . S
C1175 C1174 1.355 . S
C1175 C1177 1.419 . S
C1176 C1174 1.415 . S
C1176 C1181 1.425 . S
C1176 C1183 1.409 . S
C1177 H1169 0.930 . S
C1177 C1175 1.419 . S
C1177 C1178 1.362 . S
C1178 H1170 0.930 . S
C1178 C1177 1.362 . S
C1178 C1181 1.409 . S
C1179 H1171 0.930 . S
C1179 C1180 1.355 . S
C1179 C1181 1.415 . S
C1180 C1179 1.355 . S
C1180 C1182 1.419 . S
C1181 C1176 1.425 . S
C1181 C1178 1.409 . S
C1181 C1179 1.415 . S
C1182 H1172 0.930 . S
C1182 C1180 1.419 . S
C1182 C1183 1.362 . S
C1183 H1173 0.930 . S
C1183 C1176 1.409 . S
C1183 C1182 1.362 . S
H1184 C1190 0.930 . S
H1185 C1193 0.930 . S
H1186 C1194 0.930 . S
H1187 C1195 0.930 . S
H1188 C1198 0.930 . S
H1189 C1199 0.930 . S
C1190 H1184 0.930 . S
C1190 C1191 1.355 . S
C1190 C1192 1.415 . S
C1191 C1190 1.355 . S
C1191 C1193 1.419 . S
C1192 C1190 1.415 . S
C1192 C1197 1.425 . S
C1192 C1199 1.409 . S
C1193 H1185 0.930 . S
C1193 C1191 1.419 . S
C1193 C1194 1.362 . S
C1194 H1186 0.930 . S
C1194 C1193 1.362 . S
C1194 C1197 1.409 . S
C1195 H1187 0.930 . S
C1195 C1196 1.355 . S
C1195 C1197 1.415 . S
C1196 C1195 1.355 . S
C1196 C1198 1.419 . S
C1197 C1192 1.425 . S
C1197 C1194 1.409 . S
C1197 C1195 1.415 . S
C1198 H1188 0.930 . S
C1198 C1196 1.419 . S
C1198 C1199 1.362 . S
C1199 H1189 0.930 . S
C1199 C1192 1.409 . S
C1199 C1198 1.362 . S
H1200 C1206 0.930 . S
H1201 C1209 0.930 . S
H1202 C1210 0.955 . S
H1203 C1211 0.930 . S
H1204 C1214 0.930 . S
H1205 C1215 0.930 . S
C1206 H1200 0.930 . S
C1206 C1207 1.355 . S
C1206 C1208 1.415 . S
C1207 C1206 1.355 . S
C1207 C1209 1.419 . S
C1208 C1206 1.415 . S
C1208 C1213 1.425 . S
C1208 C1215 1.409 . S
C1209 H1201 0.930 . S
C1209 C1207 1.419 . S
C1209 C1210 1.362 . S
C1210 H1202 0.955 . S
C1210 C1209 1.362 . S
C1210 C1213 1.409 . S
C1211 H1203 0.930 . S
C1211 C1212 1.355 . S
C1211 C1213 1.415 . S
C1212 C1211 1.355 . S
C1212 C1214 1.419 . S
C1213 C1208 1.425 . S
C1213 C1210 1.409 . S
C1213 C1211 1.415 . S
C1214 H1204 0.930 . S
C1214 C1212 1.419 . S
C1214 C1215 1.362 . S
C1215 H1205 0.930 . S
C1215 C1208 1.409 . S
C1215 C1214 1.362 . S
H1216 C1222 0.930 . S
H1217 C1225 0.930 . S
H1218 C1226 0.930 1_556 S
H1219 C1227 0.930 . S
H1220 C1230 0.930 . S
H1221 C1231 0.930 . S
C1222 H1216 0.930 . S
C1222 C1223 1.355 . S
C1222 C1224 1.415 . S
C1223 C1222 1.355 . S
C1223 C1225 1.419 . S
C1224 C1222 1.415 . S
C1224 C1229 1.425 . S
C1224 C1231 1.409 . S
C1225 H1217 0.930 . S
C1225 C1223 1.419 . S
C1225 C1226 1.362 . S
C1226 H1218 0.930 1_554 S
C1226 C1225 1.362 . S
C1226 C1229 1.409 . S
C1227 H1219 0.930 . S
C1227 C1228 1.355 . S
C1227 C1229 1.415 . S
C1228 C1227 1.355 . S
C1228 C1230 1.419 . S
C1229 C1224 1.425 . S
C1229 C1226 1.409 . S
C1229 C1227 1.415 . S
C1230 H1220 0.930 . S
C1230 C1228 1.419 . S
C1230 C1231 1.362 . S
C1231 H1221 0.930 . S
C1231 C1224 1.409 . S
C1231 C1230 1.362 . S
H1232 C1238 0.930 . S
H1233 C1241 0.930 . S
H1234 C1242 0.930 . S
H1235 C1243 0.930 . S
H1236 C1246 0.930 1_556 S
H1237 C1247 0.930 1_556 S
C1238 H1232 0.930 . S
C1238 C1239 1.355 . S
C1238 C1240 1.415 . S
C1239 C1238 1.355 . S
C1239 C1241 1.419 . S
C1240 C1238 1.415 . S
C1240 C1245 1.425 . S
C1240 C1247 1.409 . S
C1241 H1233 0.930 . S
C1241 C1239 1.419 . S
C1241 C1242 1.362 . S
C1242 H1234 0.930 . S
C1242 C1241 1.362 . S
C1242 C1245 1.409 . S
C1243 H1235 0.930 . S
C1243 C1244 1.355 . S
C1243 C1245 1.415 . S
C1244 C1243 1.355 . S
C1244 C1246 1.419 . S
C1245 C1240 1.425 . S
C1245 C1242 1.409 . S
C1245 C1243 1.415 . S
C1246 H1236 0.930 1_554 S
C1246 C1244 1.419 . S
C1246 C1247 1.362 . S
C1247 H1237 0.930 1_554 S
C1247 C1240 1.409 . S
C1247 C1246 1.362 . S
H1248 C1254 0.930 . S
H1249 C1257 0.930 . S
H1250 C1258 0.930 . S
H1251 C1259 0.930 . S
H1252 C1262 0.930 . S
H1253 C1263 0.930 . S
C1254 H1248 0.930 . S
C1254 C1255 1.355 . S
C1254 C1256 1.415 . S
C1255 C1254 1.355 . S
C1255 C1257 1.419 . S
C1256 C1254 1.415 . S
C1256 C1261 1.425 . S
C1256 C1263 1.409 . S
C1257 H1249 0.930 . S
C1257 C1255 1.419 . S
C1257 C1258 1.362 . S
C1258 H1250 0.930 . S
C1258 C1257 1.362 . S
C1258 C1261 1.409 . S
C1259 H1251 0.930 . S
C1259 C1260 1.355 . S
C1259 C1261 1.415 . S
C1260 C1259 1.355 . S
C1260 C1262 1.419 . S
C1261 C1256 1.425 . S
C1261 C1258 1.409 . S
C1261 C1259 1.415 . S
C1262 H1252 0.930 . S
C1262 C1260 1.419 . S
C1262 C1263 1.362 . S
C1263 H1253 0.930 . S
C1263 C1256 1.409 . S
C1263 C1262 1.362 . S
H1264 C1270 0.930 . S
H1265 C1273 0.930 . S
H1266 C1274 0.930 . S
H1267 C1275 0.930 . S
H1268 C1278 0.930 . S
H1269 C1279 0.930 . S
C1270 H1264 0.930 . S
C1270 C1271 1.355 . S
C1270 C1272 1.415 . S
C1271 C1270 1.355 . S
C1271 C1273 1.419 . S
C1272 C1270 1.415 . S
C1272 C1277 1.425 . S
C1272 C1279 1.409 . S
C1273 H1265 0.930 . S
C1273 C1271 1.419 . S
C1273 C1274 1.362 . S
C1274 H1266 0.930 . S
C1274 C1273 1.362 . S
C1274 C1277 1.409 . S
C1275 H1267 0.930 . S
C1275 C1276 1.355 . S
C1275 C1277 1.415 . S
C1276 C1275 1.355 . S
C1276 C1278 1.419 . S
C1277 C1272 1.425 . S
C1277 C1274 1.409 . S
C1277 C1275 1.415 . S
C1278 H1268 0.930 . S
C1278 C1276 1.419 . S
C1278 C1279 1.362 . S
C1279 H1269 0.930 . S
C1279 C1272 1.409 . S
C1279 C1278 1.362 . S
H1280 C1286 0.930 . S
H1281 C1289 0.930 . S
H1282 C1290 0.930 . S
H1283 C1291 0.930 . S
H1284 C1294 0.930 . S
H1285 C1295 0.930 . S
C1286 H1280 0.930 . S
C1286 C1287 1.355 . S
C1286 C1288 1.415 . S
C1287 C1286 1.355 . S
C1287 C1289 1.419 . S
C1288 C1286 1.415 . S
C1288 C1293 1.425 . S
C1288 C1295 1.409 . S
C1289 H1281 0.930 . S
C1289 C1287 1.419 . S
C1289 C1290 1.362 . S
C1290 H1282 0.930 . S
C1290 C1289 1.362 . S
C1290 C1293 1.409 . S
C1291 H1283 0.930 . S
C1291 C1292 1.355 . S
C1291 C1293 1.415 . S
C1292 C1291 1.355 . S
C1292 C1294 1.419 . S
C1293 C1288 1.425 . S
C1293 C1290 1.409 . S
C1293 C1291 1.415 . S
C1294 H1284 0.930 . S
C1294 C1292 1.419 . S
C1294 C1295 1.362 . S
C1295 H1285 0.930 . S
C1295 C1288 1.409 . S
C1295 C1294 1.362 . S
H1296 C1302 0.930 . S
H1297 C1305 0.930 . S
H1298 C1306 0.930 . S
H1299 C1307 0.930 . S
H1300 C1310 0.930 . S
H1301 C1311 0.930 . S
C1302 H1296 0.930 . S
C1302 C1303 1.355 . S
C1302 C1304 1.415 . S
C1303 C1302 1.355 . S
C1303 C1305 1.419 . S
C1304 C1302 1.415 . S
C1304 C1309 1.425 . S
C1304 C1311 1.409 . S
C1305 H1297 0.930 . S
C1305 C1303 1.419 . S
C1305 C1306 1.362 . S
C1306 H1298 0.930 . S
C1306 C1305 1.362 . S
C1306 C1309 1.409 . S
C1307 H1299 0.930 . S
C1307 C1308 1.355 . S
C1307 C1309 1.415 . S
C1308 C1307 1.355 . S
C1308 C1310 1.419 . S
C1309 C1304 1.425 . S
C1309 C1306 1.409 . S
C1309 C1307 1.415 . S
C1310 H1300 0.930 . S
C1310 C1308 1.419 . S
C1310 C1311 1.362 . S
C1311 H1301 0.930 . S
C1311 C1304 1.409 . S
C1311 C1310 1.362 . S
H1312 C1318 0.930 . S
H1313 C1321 0.930 . S
H1314 C1322 0.930 . S
H1315 C1323 0.930 . S
H1316 C1326 0.930 . S
H1317 C1327 0.930 . S
C1318 H1312 0.930 . S
C1318 C1319 1.355 . S
C1318 C1320 1.415 . S
C1319 C1318 1.355 . S
C1319 C1321 1.419 . S
C1320 C1318 1.415 . S
C1320 C1325 1.425 . S
C1320 C1327 1.409 . S
C1321 H1313 0.930 . S
C1321 C1319 1.419 . S
C1321 C1322 1.362 . S
C1322 H1314 0.930 . S
C1322 C1321 1.362 . S
C1322 C1325 1.409 . S
C1323 H1315 0.930 . S
C1323 C1324 1.355 . S
C1323 C1325 1.415 . S
C1324 C1323 1.355 . S
C1324 C1326 1.419 . S
C1325 C1320 1.425 . S
C1325 C1322 1.409 . S
C1325 C1323 1.415 . S
C1326 H1316 0.930 . S
C1326 C1324 1.419 . S
C1326 C1327 1.362 . S
C1327 H1317 0.930 . S
C1327 C1320 1.409 . S
C1327 C1326 1.362 . S
H1328 C1334 0.930 . S
H1329 C1337 0.930 . S
H1330 C1338 0.930 . S
H1331 C1339 0.930 . S
H1332 C1342 0.930 . S
H1333 C1343 0.930 . S
C1334 H1328 0.930 . S
C1334 C1335 1.355 . S
C1334 C1336 1.415 . S
C1335 C1334 1.355 . S
C1335 C1337 1.419 . S
C1336 C1334 1.415 . S
C1336 C1341 1.425 . S
C1336 C1343 1.409 . S
C1337 H1329 0.930 . S
C1337 C1335 1.419 . S
C1337 C1338 1.362 . S
C1338 H1330 0.930 . S
C1338 C1337 1.362 . S
C1338 C1341 1.409 . S
C1339 H1331 0.930 . S
C1339 C1340 1.355 . S
C1339 C1341 1.415 . S
C1340 C1339 1.355 . S
C1340 C1342 1.419 . S
C1341 C1336 1.425 . S
C1341 C1338 1.409 . S
C1341 C1339 1.415 . S
C1342 H1332 0.930 . S
C1342 C1340 1.419 . S
C1342 C1343 1.362 . S
C1343 H1333 0.930 . S
C1343 C1336 1.409 . S
C1343 C1342 1.362 . S
H1344 C1350 0.930 . S
H1345 C1353 0.930 . S
H1346 C1354 0.930 . S
H1347 C1355 0.930 . S
H1348 C1358 0.930 . S
H1349 C1359 0.930 . S
C1350 H1344 0.930 . S
C1350 C1351 1.355 . S
C1350 C1352 1.415 . S
C1351 C1350 1.355 . S
C1351 C1353 1.419 . S
C1352 C1350 1.415 . S
C1352 C1357 1.425 . S
C1352 C1359 1.409 . S
C1353 H1345 0.930 . S
C1353 C1351 1.419 . S
C1353 C1354 1.362 . S
C1354 H1346 0.930 . S
C1354 C1353 1.362 . S
C1354 C1357 1.409 . S
C1355 H1347 0.930 . S
C1355 C1356 1.355 . S
C1355 C1357 1.415 . S
C1356 C1355 1.355 . S
C1356 C1358 1.419 . S
C1357 C1352 1.425 . S
C1357 C1354 1.409 . S
C1357 C1355 1.415 . S
C1358 H1348 0.930 . S
C1358 C1356 1.419 . S
C1358 C1359 1.362 . S
C1359 H1349 0.930 . S
C1359 C1352 1.409 . S
C1359 C1358 1.362 . S
H1360 C1366 0.930 . S
H1361 C1369 0.930 . S
H1362 C1370 0.930 . S
H1363 C1371 0.930 . S
H1364 C1374 0.930 . S
H1365 C1375 0.930 . S
C1366 H1360 0.930 . S
C1366 C1367 1.355 . S
C1366 C1368 1.415 . S
C1367 C1366 1.355 . S
C1367 C1369 1.419 . S
C1368 C1366 1.415 . S
C1368 C1373 1.425 . S
C1368 C1375 1.409 . S
C1369 H1361 0.930 . S
C1369 C1367 1.419 . S
C1369 C1370 1.362 . S
C1370 H1362 0.930 . S
C1370 C1369 1.362 . S
C1370 C1373 1.409 . S
C1371 H1363 0.930 . S
C1371 C1372 1.355 . S
C1371 C1373 1.415 . S
C1372 C1371 1.355 . S
C1372 C1374 1.419 . S
C1373 C1368 1.425 . S
C1373 C1370 1.409 . S
C1373 C1371 1.415 . S
C1374 H1364 0.930 . S
C1374 C1372 1.419 . S
C1374 C1375 1.362 . S
C1375 H1365 0.930 . S
C1375 C1368 1.409 . S
C1375 C1374 1.362 . S
H1376 C1382 0.930 . S
H1377 C1385 0.930 . S
H1378 C1386 0.930 . S
H1379 C1387 0.930 . S
H1380 C1390 0.930 . S
H1381 C1391 0.930 . S
C1382 H1376 0.930 . S
C1382 C1383 1.355 . S
C1382 C1384 1.415 . S
C1383 C1382 1.355 . S
C1383 C1385 1.419 . S
C1384 C1382 1.415 . S
C1384 C1389 1.425 . S
C1384 C1391 1.409 . S
C1385 H1377 0.930 . S
C1385 C1383 1.419 . S
C1385 C1386 1.362 . S
C1386 H1378 0.930 . S
C1386 C1385 1.362 . S
C1386 C1389 1.409 . S
C1387 H1379 0.930 . S
C1387 C1388 1.355 . S
C1387 C1389 1.415 . S
C1388 C1387 1.355 . S
C1388 C1390 1.419 . S
C1389 C1384 1.425 . S
C1389 C1386 1.409 . S
C1389 C1387 1.415 . S
C1390 H1380 0.930 . S
C1390 C1388 1.419 . S
C1390 C1391 1.362 . S
C1391 H1381 0.930 . S
C1391 C1384 1.409 . S
C1391 C1390 1.362 . S
H1392 C1398 0.930 . S
H1393 C1401 0.930 . S
H1394 C1402 0.930 . S
H1395 C1403 0.930 . S
H1396 C1406 0.930 . S
H1397 C1407 0.930 . S
C1398 H1392 0.930 . S
C1398 C1399 1.355 . S
C1398 C1400 1.415 . S
C1399 C1398 1.355 . S
C1399 C1401 1.419 . S
C1400 C1398 1.415 . S
C1400 C1405 1.425 . S
C1400 C1407 1.409 . S
C1401 H1393 0.930 . S
C1401 C1399 1.419 . S
C1401 C1402 1.362 . S
C1402 H1394 0.930 . S
C1402 C1401 1.362 . S
C1402 C1405 1.409 . S
C1403 H1395 0.930 . S
C1403 C1404 1.355 . S
C1403 C1405 1.415 . S
C1404 C1403 1.355 . S
C1404 C1406 1.419 . S
C1405 C1400 1.425 . S
C1405 C1402 1.409 . S
C1405 C1403 1.415 . S
C1406 H1396 0.930 . S
C1406 C1404 1.419 . S
C1406 C1407 1.362 . S
C1407 H1397 0.930 . S
C1407 C1400 1.409 . S
C1407 C1406 1.362 . S
C647 C23 2.337 . S
C652 C53 2.297 1_655 S
C663 C103 1.426 . S
C668 C57 1.371 . S
C679 C133 2.082 . S
C684 C104 2.093 . S
C695 C24 1.307 . S
C700 C137 1.291 . S
C711 C13 1.258 . S
C716 C386 1.181 . S
C727 C282 2.337 . S
C732 C64 2.341 . S
C743 C82 1.432 . S
C748 C426 1.381 . S
C759 C144 2.075 . S
C764 C533 2.084 . S
C775 C322 1.426 . S
C780 C66 1.371 . S
C791 C504 2.048 . S
C796 C93 2.073 . S
C807 C573 1.326 . S
C812 C146 1.293 . S
C823 C2 2.335 . S
C828 C464 2.312 1_455 S
C839 C26 0.372 . S
C844 C337 0.452 . S
C855 C503 1.839 . S
C860 C183 1.833 . S
C871 C226 0.700 . S
C876 C577 0.511 . S
C887 C463 1.840 . S
C892 C263 1.843 . S
C903 C106 0.703 . S
C908 C297 0.521 . S
C919 C362 1.835 . S
C924 C162 1.837 . S
C935 C242 1.844 . S
C940 C402 1.838 . S
C951 C202 1.436 . S
C956 C466 1.296 . S
C967 C384 2.053 . S
C972 C213 2.073 . S
C983 C453 2.336 . S
C988 C303 2.350 . S
C999 C223 1.449 . S
C1004 C177 1.397 . S
C1015 C373 2.071 . S
C1020 C344 2.093 . S
C1031 C543 1.458 . S
C1036 C457 1.339 . S
C1047 C253 2.047 . S
C1052 C224 2.074 . S
C1063 C377 1.265 . S
C1068 C584 1.281 . S
C1079 C546 0.459 . S
C1084 C17 0.445 . S
C1095 C97 0.550 . S
C1100 C586 0.330 . S
C1111 C482 1.834 . S
C1116 C42 1.837 . S
C1127 C306 0.438 . S
C1132 C217 0.457 . S
C1143 C143 1.839 . S
C1148 C423 1.844 . S
C1159 C493 2.082 . S
C1164 C544 2.094 . S
C1175 C304 1.297 . S
C1180 C497 1.212 . S
C1191 C266 1.279 . S
C1196 C293 1.329 . S
C1207 C186 1.394 . S
C1212 C522 1.459 . S
C1223 C506 1.295 . S
C1228 C613 1.324 . S
C1239 C617 0.471 . S
C1244 C346 0.473 . S
C1255 C63 1.840 . S
C1260 C383 1.843 . S
C1271 C333 2.089 . S
C1276 C264 2.080 . S
C1287 C343 1.462 . S
C1292 C417 1.355 . S
C1303 C624 1.273 . S
C1308 C257 1.256 . S
C1319 C537 0.486 . S
C1324 C626 0.331 . S
C1335 C442 1.834 . S
C1340 C122 1.838 . S
C1351 C413 2.327 . S
C1356 C583 2.329 . S
C1367 C424 2.341 . S
C1372 C602 2.359 . S
C1383 C184 2.342 . S
C1388 C562 2.359 . S
C1399 C623 2.333 . S
C1404 C173 2.312 . S
