# Generated by pormake.
# Topology wkf, (6)-cn, num edge types: 1
# Building blocks:
#     Node 0, Type 0, BuildingBlock: OJICUG_clean_sbu_0, # of connection points: 6
#     Node 1, Type 0, BuildingBlock: OJICUG_clean_sbu_0, # of connection points: 6
#     Node 2, Type 0, BuildingBlock: OJICUG_clean_sbu_0, # of connection points: 6
#     Node 3, Type 0, BuildingBlock: OJICUG_clean_sbu_0, # of connection points: 6
#     Node 4, Type 0, BuildingBlock: OJICUG_clean_sbu_0, # of connection points: 6
#     Node 5, Type 0, BuildingBlock: OJICUG_clean_sbu_0, # of connection points: 6
#     Node 6, Type 0, BuildingBlock: OJICUG_clean_sbu_0, # of connection points: 6
#     Node 7, Type 0, BuildingBlock: OJICUG_clean_sbu_0, # of connection points: 6
#     Node 8, Type 0, BuildingBlock: OJICUG_clean_sbu_0, # of connection points: 6
#     Node 9, Type 0, BuildingBlock: OJICUG_clean_sbu_0, # of connection points: 6
#     Node 10, Type 0, BuildingBlock: OJICUG_clean_sbu_0, # of connection points: 6
#     Node 11, Type 0, BuildingBlock: OJICUG_clean_sbu_0, # of connection points: 6
#     Edge 12, Type (0, 0), BuildingBlock: AJUNOK_clean_linker_0, # of connection points: 2
#     Edge 13, Type (0, 0), BuildingBlock: AJUNOK_clean_linker_0, # of connection points: 2
#     Edge 14, Type (0, 0), BuildingBlock: AJUNOK_clean_linker_0, # of connection points: 2
#     Edge 15, Type (0, 0), BuildingBlock: AJUNOK_clean_linker_0, # of connection points: 2
#     Edge 16, Type (0, 0), BuildingBlock: AJUNOK_clean_linker_0, # of connection points: 2
#     Edge 17, Type (0, 0), BuildingBlock: AJUNOK_clean_linker_0, # of connection points: 2
#     Edge 18, Type (0, 0), BuildingBlock: AJUNOK_clean_linker_0, # of connection points: 2
#     Edge 19, Type (0, 0), BuildingBlock: AJUNOK_clean_linker_0, # of connection points: 2
#     Edge 20, Type (0, 0), BuildingBlock: AJUNOK_clean_linker_0, # of connection points: 2
#     Edge 21, Type (0, 0), BuildingBlock: AJUNOK_clean_linker_0, # of connection points: 2
#     Edge 22, Type (0, 0), BuildingBlock: AJUNOK_clean_linker_0, # of connection points: 2
#     Edge 23, Type (0, 0), BuildingBlock: AJUNOK_clean_linker_0, # of connection points: 2
#     Edge 24, Type (0, 0), BuildingBlock: AJUNOK_clean_linker_0, # of connection points: 2
#     Edge 25, Type (0, 0), BuildingBlock: AJUNOK_clean_linker_0, # of connection points: 2
#     Edge 26, Type (0, 0), BuildingBlock: AJUNOK_clean_linker_0, # of connection points: 2
#     Edge 27, Type (0, 0), BuildingBlock: AJUNOK_clean_linker_0, # of connection points: 2
#     Edge 28, Type (0, 0), BuildingBlock: AJUNOK_clean_linker_0, # of connection points: 2
#     Edge 29, Type (0, 0), BuildingBlock: AJUNOK_clean_linker_0, # of connection points: 2
#     Edge 30, Type (0, 0), BuildingBlock: AJUNOK_clean_linker_0, # of connection points: 2
#     Edge 31, Type (0, 0), BuildingBlock: AJUNOK_clean_linker_0, # of connection points: 2
#     Edge 32, Type (0, 0), BuildingBlock: AJUNOK_clean_linker_0, # of connection points: 2
#     Edge 33, Type (0, 0), BuildingBlock: AJUNOK_clean_linker_0, # of connection points: 2
#     Edge 34, Type (0, 0), BuildingBlock: AJUNOK_clean_linker_0, # of connection points: 2
#     Edge 35, Type (0, 0), BuildingBlock: AJUNOK_clean_linker_0, # of connection points: 2
#     Edge 36, Type (0, 0), BuildingBlock: AJUNOK_clean_linker_0, # of connection points: 2
#     Edge 37, Type (0, 0), BuildingBlock: AJUNOK_clean_linker_0, # of connection points: 2
#     Edge 38, Type (0, 0), BuildingBlock: AJUNOK_clean_linker_0, # of connection points: 2
#     Edge 39, Type (0, 0), BuildingBlock: AJUNOK_clean_linker_0, # of connection points: 2
#     Edge 40, Type (0, 0), BuildingBlock: AJUNOK_clean_linker_0, # of connection points: 2
#     Edge 41, Type (0, 0), BuildingBlock: AJUNOK_clean_linker_0, # of connection points: 2
#     Edge 42, Type (0, 0), BuildingBlock: AJUNOK_clean_linker_0, # of connection points: 2
#     Edge 43, Type (0, 0), BuildingBlock: AJUNOK_clean_linker_0, # of connection points: 2
#     Edge 44, Type (0, 0), BuildingBlock: AJUNOK_clean_linker_0, # of connection points: 2
#     Edge 45, Type (0, 0), BuildingBlock: AJUNOK_clean_linker_0, # of connection points: 2
#     Edge 46, Type (0, 0), BuildingBlock: AJUNOK_clean_linker_0, # of connection points: 2
#     Edge 47, Type (0, 0), BuildingBlock: AJUNOK_clean_linker_0, # of connection points: 2
# Relax obj value: 0.170
# Max RMSD: 0.210
# Mean RMSD: 0.210
data_MOF--net-wkf--node1-OJICUG_clean_sbu_0--edge1-AJUNOK_clean_linker_0
_symmetry_space_group_name_H-M    P1
_symmetry_Int_Tables_number       1
_symmetry_cell_setting            triclinic
loop_
_symmetry_equiv_pos_as_xyz
'x, y, z'
_cell_length_a     22.025367
_cell_length_b     22.206148
_cell_length_c     54.38698
_cell_angle_alpha  89.74608
_cell_angle_beta   90.3301
_cell_angle_gamma 120.31346
loop_
_atom_site_label
_atom_site_type_symbol
_atom_site_fract_x
_atom_site_fract_y
_atom_site_fract_z
_atom_type_partial_charge
Sc0 Sc 0.45429 0.10602 0.34294 0.0
Sc1 Sc 0.29441 0.08673 0.36329 0.0
Sc2 Sc 0.40164 0.0565 0.40396 0.0
O3 O 0.38309 0.08293 0.37008 0.0
C4 C 0.45236 0.97687 0.3695 0.0
C5 C 0.30651 0.00732 0.31662 0.0
C6 C 0.23559 0.96024 0.40115 0.0
C7 C 0.40481 0.21401 0.33011 0.0
C8 C 0.55317 0.17881 0.38869 0.0
C9 C 0.34628 0.16207 0.41513 0.0
O10 O 0.47264 0.02445 0.35342 0.0
O11 O 0.27209 0.02421 0.33094 0.0
O12 O 0.2955 0.97714 0.40982 0.0
O13 O 0.44724 0.19172 0.32831 0.0
O14 O 0.5106 0.13253 0.40337 0.0
O15 O 0.31092 0.14848 0.3953 0.0
O16 O 0.53925 0.1805 0.36602 0.0
O17 O 0.34839 0.18205 0.34243 0.0
O18 O 0.38293 0.13427 0.42103 0.0
O19 O 0.37267 0.03164 0.31849 0.0
O20 O 0.42123 0.97701 0.38915 0.0
O21 O 0.22659 -0.00683 0.38373 0.0
Sc22 Sc 0.32131 0.4002 0.57455 0.0
Sc23 Sc 0.19593 0.30443 0.52916 0.0
Sc24 Sc 0.34076 0.46803 0.51509 0.0
O25 O 0.28576 0.39054 0.53956 0.0
C26 C 0.35394 0.5535 0.56252 0.0
C27 C 0.15808 0.34241 0.58141 0.0
C28 C 0.18368 0.4198 0.49851 0.0
C29 C 0.2543 0.23715 0.56664 0.0
C30 C 0.46135 0.45956 0.54498 0.0
C31 C 0.30095 0.33111 0.48481 0.0
O32 O 0.35867 0.50958 0.57614 0.0
O33 O 0.14196 0.30882 0.56125 0.0
O34 O 0.24954 0.46146 0.4975 0.0
O35 O 0.2887 0.29256 0.579 0.0
O36 O 0.43996 0.48713 0.52924 0.0
O37 O 0.24389 0.29425 0.49649 0.0
O38 O 0.42237 0.41847 0.56185 0.0
O39 O 0.22235 0.23419 0.54684 0.0
O40 O 0.34399 0.39512 0.48954 0.0
O41 O 0.22143 0.3817 0.58864 0.0
O42 O 0.3406 0.54371 0.53962 0.0
O43 O 0.15693 0.36268 0.51024 0.0
Sc44 Sc 0.84362 0.34528 0.67906 0.0
Sc45 Sc 0.8619 0.20129 0.69381 0.0
Sc46 Sc 0.89334 0.32688 0.73875 0.0
O47 O 0.86651 0.29109 0.70383 0.0
C48 C -0.02706 0.46672 0.70901 0.0
C49 C 0.93817 0.30242 0.64838 0.0
C50 C -0.00992 0.26088 0.73058 0.0
C51 C 0.73265 0.18896 0.66346 0.0
C52 C 0.772 0.3597 0.72682 0.0
C53 C 0.78884 0.16449 0.74661 0.0
O54 O 0.92548 0.44394 0.69253 0.0
O55 O 0.91872 0.24694 0.6607 0.0
O56 O 0.97004 0.29624 0.74262 0.0
O57 O 0.75694 0.25427 0.66221 0.0
O58 O 0.81963 0.36176 0.74052 0.0
O59 O 0.80468 0.14824 0.72622 0.0
O60 O 0.76868 0.3477 0.70382 0.0
O61 O 0.76341 0.16265 0.6753 0.0
O62 O 0.81316 0.2274 0.75356 0.0
O63 O 0.91868 0.34632 0.65309 0.0
O64 O -0.02489 0.42871 0.7262 0.0
O65 O 0.95981 0.22773 0.71116 0.0
Sc66 Sc 0.53305 0.89854 0.90326 0.0
Sc67 Sc 0.63908 0.87181 0.86205 0.0
Sc68 Sc 0.47495 0.84484 0.84367 0.0
O69 O 0.54994 0.87219 0.86957 0.0
C70 C 0.38497 0.7724 0.8899 0.0
C71 C 0.5913 0.79684 0.91454 0.0
C72 C 0.53073 0.74233 0.83011 0.0
C73 C 0.69853 -0.00212 0.89891 0.0
C74 C 0.47914 0.97443 0.86939 0.0
C75 C 0.61542 0.9453 0.8152 0.0
O76 O 0.42207 0.82712 0.90236 0.0
O77 O 0.63034 0.81652 0.89554 0.0
O78 O 0.48867 0.76493 0.82714 0.0
O79 O 0.6403 0.9743 0.90978 0.0
O80 O 0.44817 0.91979 0.85629 0.0
O81 O 0.65202 0.92725 0.82817 0.0
O82 O 0.51893 -0.01974 0.88739 0.0
O83 O 0.70628 0.97018 0.87974 0.0
O84 O 0.55039 0.92349 0.81896 0.0
O85 O 0.54841 0.81779 0.91972 0.0
O86 O 0.39974 0.76573 0.86788 0.0
O87 O 0.58483 0.77291 0.84373 0.0
Sc88 Sc 0.6059 0.48833 0.01207 0.0
Sc89 Sc 0.74717 0.65327 0.02774 0.0
Sc90 Sc 0.62083 0.55191 0.07187 0.0
O91 O 0.65814 0.5649 0.03717 0.0
C92 C 0.48099 0.48849 0.04169 0.0
C93 C 0.64237 0.62695 0.98295 0.0
C94 C 0.68424 0.71511 0.06553 0.0
C95 C 0.76443 0.54252 0.99617 0.0
C96 C 0.59312 0.40072 0.05902 0.0
C97 C 0.78469 0.61241 0.07975 0.0
O98 O 0.50501 0.46456 0.02569 0.0
O99 O 0.69849 0.66443 0.99519 0.0
O100 O 0.64933 0.65822 0.07707 0.0
O101 O 0.69898 0.49921 0.99488 0.0
O102 O 0.58718 0.44365 0.07259 0.0
O103 O 0.80128 0.64721 0.05979 0.0
O104 O 0.60741 0.41162 0.03621 0.0
O105 O 0.78913 0.59878 0.00828 0.0
O106 O 0.72117 0.5727 0.08655 0.0
O107 O 0.60114 0.56203 0.98694 0.0
O108 O 0.51864 0.52988 0.05874 0.0
O109 O 0.71843 0.72077 0.04613 0.0
Sc110 Sc 0.03413 0.62052 0.2403 0.0
Sc111 Sc 0.06512 0.7472 0.19605 0.0
Sc112 Sc 0.09262 0.60894 0.18204 0.0
O113 O 0.06338 0.65887 0.206 0.0
C114 C 0.1603 0.5963 0.23097 0.0
C115 C 0.13208 0.78183 0.24999 0.0
C116 C 0.20087 0.7667 0.16915 0.0
C117 C 0.93584 0.68485 0.23103 0.0
C118 C 0.96217 0.48359 0.20978 0.0
C119 C -0.00094 0.64847 0.14922 0.0
O120 O 0.10641 0.58438 0.24295 0.0
O121 O 0.11368 0.79808 0.22998 0.0
O122 O 0.17675 0.70214 0.16572 0.0
O123 O 0.95843 0.65207 0.24349 0.0
O124 O 0.0139 0.50847 0.19508 0.0
O125 O 0.01685 0.70384 0.16132 0.0
O126 O 0.95436 0.5203 0.22603 0.0
O127 O 0.96263 0.71467 0.21074 0.0
O128 O 0.01755 0.6043 0.15504 0.0
O129 O 0.11328 0.71918 0.25599 0.0
O130 O 0.16835 0.61207 0.20822 0.0
O131 O 0.16831 0.79047 0.18112 0.0
Sc132 Sc 0.84402 0.48169 0.49276 0.0
Sc133 Sc 0.86327 0.64589 0.47979 0.0
Sc134 Sc 0.90931 0.56246 0.43556 0.0
O135 O 0.87213 0.56313 0.46945 0.0
C136 C -0.02186 0.49149 0.4667 0.0
C137 C 0.93901 0.61986 0.52477 0.0
C138 C 0.00085 0.72115 0.4462 0.0
C139 C 0.73367 0.52475 0.50953 0.0
C140 C 0.78038 0.40809 0.44133 0.0
C141 C 0.79964 0.61594 0.42669 0.0
O142 O 0.93088 0.46941 0.483 0.0
O143 O 0.92794 0.6603 0.51119 0.0
O144 O -0.0044 0.66529 0.43842 0.0
O145 O 0.75156 0.4793 0.50667 0.0
O146 O 0.82691 0.4589 0.42906 0.0
O147 O 0.79695 0.63158 0.44895 0.0
O148 O 0.7778 0.40721 0.46481 0.0
O149 O 0.77029 0.5863 0.50132 0.0
O150 O 0.84233 0.59738 0.4189 0.0
O151 O 0.91096 0.55412 0.52124 0.0
O152 O -0.01989 0.52856 0.44857 0.0
O153 O 0.95471 0.72262 0.45966 0.0
Sc154 Sc 0.31751 0.89973 0.60193 0.0
Sc155 Sc 0.19139 0.87202 0.64607 0.0
Sc156 Sc 0.33391 0.84938 0.66103 0.0
O157 O 0.28045 0.87381 0.6365 0.0
C158 C 0.34943 0.78007 0.61366 0.0
C159 C 0.15552 0.79089 0.59458 0.0
C160 C 0.17676 0.74459 0.67816 0.0
C161 C 0.24761 -0.0066 0.60718 0.0
C162 C 0.45492 -0.01937 0.63197 0.0
C163 C 0.29789 0.9516 0.69019 0.0
O164 O 0.36124 0.83347 0.60152 0.0
O165 O 0.13791 0.81041 0.614 0.0
O166 O 0.24207 0.76561 0.67846 0.0
O167 O 0.28173 0.97114 0.59559 0.0
O168 O 0.43383 0.92954 0.64685 0.0
O169 O 0.24221 0.93458 0.67787 0.0
O170 O 0.41564 -0.01556 0.61553 0.0
O171 O 0.21742 0.96754 0.62742 0.0
O172 O 0.33763 0.92601 0.68665 0.0
O173 O 0.21929 0.81522 0.58791 0.0
O174 O 0.33172 0.77229 0.63621 0.0
O175 O 0.15149 0.77649 0.66643 0.0
Sc176 Sc 0.45705 0.33918 0.82719 0.0
Sc177 Sc 0.29481 0.19732 0.80912 0.0
Sc178 Sc 0.39433 0.33196 0.7676 0.0
O179 O 0.38127 0.28933 0.80144 0.0
C180 C 0.45218 0.46445 0.79946 0.0
C181 C 0.31422 0.29399 0.85552 0.0
C182 C 0.22882 0.25774 0.77217 0.0
C183 C 0.40914 0.18241 0.84012 0.0
C184 C 0.54517 0.36022 0.77984 0.0
C185 C 0.34339 0.17277 0.75658 0.0
O186 O 0.47835 0.43983 0.81457 0.0
O187 O 0.27915 0.23968 0.84233 0.0
O188 O 0.2864 0.29658 0.76147 0.0
O189 O 0.44958 0.24712 0.8435 0.0
O190 O 0.50504 0.37494 0.76789 0.0
O191 O 0.3064 0.15104 0.77605 0.0
O192 O 0.53451 0.34095 0.80228 0.0
O193 O 0.35375 0.15767 0.8272 0.0
O194 O 0.38119 0.23738 0.75111 0.0
O195 O 0.37986 0.33708 0.85251 0.0
O196 O 0.4085 0.42802 0.78271 0.0
O197 O 0.22361 0.22324 0.79144 0.0
Sc198 Sc 0.03491 0.39355 0.93498 0.0
Sc199 Sc 0.07393 0.30021 0.97728 0.0
Sc200 Sc 0.09431 0.4619 0.99413 0.0
O201 O 0.06802 0.38583 0.96889 0.0
C202 C 0.16669 0.54316 0.94457 0.0
C203 C 0.14231 0.33736 0.92563 0.0
C204 C 0.20104 0.41374 0.01025 0.0
C205 C 0.93868 0.23546 0.94242 0.0
C206 C 0.96736 0.46458 0.96691 0.0
C207 C -0.00941 0.31687 0.0213 0.0
O208 O 0.1229 0.49461 0.93078 0.0
O209 O 0.14615 0.32189 0.94788 0.0
O210 O 0.18482 0.4604 0.00757 0.0
O211 O 0.94424 0.29333 0.93699 0.0
O212 O 0.00945 0.47757 0.98468 0.0
O213 O 0.0016 0.27902 0.00654 0.0
O214 O 0.96868 0.43366 0.9475 0.0
O215 O -0.01397 0.23024 0.95401 0.0
O216 O 0.02422 0.38373 0.02078 0.0
O217 O 0.09779 0.35414 0.918 0.0
O218 O 0.16365 0.54152 0.96805 0.0
O219 O 0.16332 0.35284 1.00158 0.0
Sc220 Sc 0.60312 0.10382 0.15935 0.0
Sc221 Sc 0.74326 0.08065 0.1436 0.0
Sc222 Sc 0.60738 0.04283 0.10164 0.0
O223 O 0.65247 0.07595 0.13487 0.0
C224 C 0.47864 0.97236 0.13557 0.0
C225 C 0.64052 0.0045 0.18927 0.0
C226 C 0.67976 0.95131 0.10759 0.0
C227 C 0.76082 0.2079 0.17527 0.0
C228 C 0.5888 0.17134 0.11182 0.0
C229 C 0.76817 0.14915 0.08985 0.0
O230 O 0.50159 0.03229 0.14472 0.0
O231 O 0.69781 0.02519 0.17747 0.0
O232 O 0.64084 0.96932 0.09655 0.0
O233 O 0.69533 0.18231 0.17778 0.0
O234 O 0.56776 0.11353 0.10104 0.0
O235 O 0.79026 0.13651 0.10991 0.0
O236 O 0.61103 0.18201 0.13396 0.0
O237 O 0.7862 0.18006 0.16156 0.0
O238 O 0.70301 0.12178 0.08425 0.0
O239 O 0.59653 0.02452 0.18438 0.0
O240 O 0.51251 0.96153 0.11899 0.0
O241 O 0.71522 -0.01798 0.12667 0.0
Sc242 Sc 0.53906 0.62932 0.26953 0.0
Sc243 Sc 0.64355 0.75996 0.31178 0.0
Sc244 Sc 0.48219 0.61761 0.33037 0.0
O245 O 0.55533 0.66902 0.30395 0.0
C246 C 0.38721 0.59726 0.28446 0.0
C247 C 0.5955 0.79017 0.25988 0.0
C248 C 0.5317 0.77422 0.34399 0.0
C249 C 0.70419 0.69684 0.27405 0.0
C250 C 0.48258 0.49349 0.30078 0.0
C251 C 0.62657 0.66221 0.35762 0.0
O252 O 0.42972 0.59227 0.27028 0.0
O253 O 0.63351 0.80934 0.2792 0.0
O254 O 0.4911 0.70936 0.34701 0.0
O255 O 0.64602 0.66052 0.26316 0.0
O256 O 0.46066 0.51786 0.31735 0.0
O257 O 0.66088 0.71676 0.34454 0.0
O258 O 0.52128 0.52992 0.28301 0.0
O259 O 0.71129 0.73183 0.2933 0.0
O260 O 0.56102 0.61924 0.35477 0.0
O261 O 0.55495 0.72637 0.25408 0.0
O262 O 0.40053 0.61355 0.30706 0.0
O263 O 0.58619 0.79969 0.33067 0.0
C264 C 0.23425 0.84164 0.27897 0.0
C265 C 0.17662 0.83942 0.26686 0.0
C266 C 0.2784 0.898 0.29423 0.0
C267 C 0.26566 0.95329 0.29808 0.0
H268 H 0.24571 0.80007 0.27642 0.0
H269 H 0.3212 0.89709 0.30372 0.0
S270 S 0.12167 0.97194 0.27047 0.0
N271 N 0.10955 0.89745 0.2595 0.0
N272 N 0.19189 0.00265 0.28834 0.0
C273 C 0.20843 0.95168 0.28594 0.0
C274 C 0.16412 0.89496 0.27025 0.0
C275 C 0.26215 0.24532 0.45101 0.0
C276 C 0.31744 0.29533 0.46551 0.0
C277 C 0.27282 0.20332 0.4347 0.0
C278 C 0.33894 0.20862 0.43256 0.0
H279 H 0.20973 0.23785 0.45254 0.0
H280 H 0.22825 0.16504 0.42409 0.0
S281 S 0.50188 0.33314 0.4658 0.0
N282 N 0.44153 0.34985 0.47622 0.0
N283 N 0.46142 0.26938 0.44561 0.0
C284 C 0.39523 0.25907 0.44667 0.0
C285 C 0.38458 0.30304 0.46307 0.0
C286 C 0.05357 0.37983 0.62817 0.0
C287 C -0.01089 0.31662 0.62867 0.0
C288 C 0.10831 0.38818 0.61277 0.0
C289 C 0.09968 0.33394 0.59715 0.0
H290 H 0.06293 0.42168 0.64061 0.0
H291 H 0.15781 0.4371 0.61326 0.0
S292 S 0.93877 0.15967 0.59093 0.0
N293 N 0.91847 0.20022 0.61183 0.0
N294 N 0.02025 0.21578 0.58264 0.0
C295 C 0.03423 0.27151 0.5969 0.0
C296 C -0.02079 0.2629 0.61274 0.0
C297 C 0.69382 0.11293 0.77848 0.0
C298 C 0.74154 0.10673 0.76308 0.0
C299 C 0.64945 0.0584 0.79438 0.0
C300 C 0.65264 -0.00321 0.79566 0.0
H301 H 0.69092 0.16021 0.7783 0.0
H302 H 0.61476 0.06569 0.80647 0.0
S303 S 0.76696 0.95395 0.75896 0.0
N304 N 0.78752 0.03291 0.74974 0.0
N305 N 0.7053 0.93164 0.77993 0.0
C306 C 0.69907 -0.01047 0.78011 0.0
C307 C 0.74324 0.04421 0.76373 0.0
C308 C 0.66772 0.7587 0.93439 0.0
C309 C 0.6003 0.75017 0.93166 0.0
C310 C 0.67979 0.71646 0.95033 0.0
C311 C 0.62476 0.66307 0.96389 0.0
H312 H 0.71217 0.79958 0.92453 0.0
H313 H 0.73308 0.72642 0.95232 0.0
S314 S 0.43746 0.61615 0.96238 0.0
N315 N 0.47691 0.68265 0.94313 0.0
N316 N 0.49962 0.60205 0.97309 0.0
C317 C 0.55645 0.6522 0.96085 0.0
C318 C 0.54426 0.69627 0.9448 0.0
C319 C 0.88478 0.57239 0.12812 0.0
C320 C 0.95036 0.6343 0.1286 0.0
C321 C 0.8314 0.56519 0.11204 0.0
C322 C 0.84245 0.61933 0.09576 0.0
H323 H 0.87337 0.53097 0.14115 0.0
H324 H 0.78087 0.5174 0.11266 0.0
S325 S 0.00774 0.7898 0.08901 0.0
N326 N 0.02511 0.74891 0.1109 0.0
N327 N 0.92588 0.73549 0.0804 0.0
C328 C 0.90928 0.68013 0.09537 0.0
C329 C 0.96297 0.68758 0.11189 0.0
C330 C 0.03534 0.74207 0.577 0.0
C331 C 0.0984 0.74063 0.57837 0.0
C332 C -0.01774 0.69978 0.56039 0.0
C333 C -0.01058 0.65317 0.54502 0.0
H334 H 0.02807 0.77837 0.58807 0.0
H335 H 0.936 0.705 0.55905 0.0
S336 S 0.14118 0.62468 0.54275 0.0
N337 N 0.16334 0.68583 0.56382 0.0
N338 N 0.06218 0.60498 0.53286 0.0
C339 C 0.05043 0.6484 0.54697 0.0
C340 C 0.10538 0.69262 0.56357 0.0
C341 C 0.31143 -0.00147 0.73264 0.0
C342 C 0.3206 0.01014 0.70726 0.0
C343 C 0.321 0.05225 0.74853 0.0
C344 C 0.34064 0.11944 0.73955 0.0
H345 H 0.29378 0.947 0.7401 0.0
H346 H 0.31131 0.04051 0.76795 0.0
S347 S 0.37437 0.17581 0.67426 0.0
N348 N 0.35264 0.09295 0.6737 0.0
N349 N 0.37166 0.19443 0.70346 0.0
C350 C 0.35289 0.13206 0.71419 0.0
C351 C 0.34242 0.07715 0.69806 0.0
C352 C 0.16122 0.29845 0.88507 0.0
C353 C 0.18887 0.33144 0.90765 0.0
C354 C 0.20261 0.28696 0.86849 0.0
C355 C 0.27376 0.30929 0.8736 0.0
H356 H 0.10656 0.27948 0.88048 0.0
H357 H 0.17847 0.26034 0.85144 0.0
S358 S 0.3728 0.40461 0.92936 0.0
N359 N 0.29235 0.39003 0.9339 0.0
N360 N 0.3711 0.37016 0.9023 0.0
C361 C 0.30291 0.34509 0.89572 0.0
C362 C 0.26016 0.35554 0.91287 0.0
C363 C 0.88704 0.25106 0.08037 0.0
C364 C 0.82163 0.1963 0.07199 0.0
C365 C 0.94099 0.29274 0.06384 0.0
C366 C 0.93164 0.27976 0.03849 0.0
H367 H 0.89694 0.26117 0.09988 0.0
H368 H -0.00891 0.33326 0.07097 0.0
S369 S 0.76977 0.14579 0.00698 0.0
N370 N 0.74979 0.13425 0.03649 0.0
N371 N 0.85161 0.21137 0.00555 0.0
C372 C 0.866 0.22673 0.02982 0.0
C373 C 0.81079 0.18531 0.04654 0.0
C374 C 0.66957 0.90559 0.24011 0.0
C375 C 0.60304 0.8455 0.24286 0.0
C376 C 0.68033 0.95779 0.22331 0.0
C377 C 0.6247 0.95277 0.20896 0.0
H378 H 0.71439 0.91138 0.25046 0.0
H379 H 0.73302 0.00206 0.22126 0.0
S380 S 0.43902 0.8086 0.21058 0.0
N381 N 0.47974 0.78536 0.23081 0.0
N382 N 0.49984 0.88453 0.19934 0.0
C383 C 0.55717 0.89438 0.21221 0.0
C384 C 0.5464 0.84035 0.22909 0.0
C385 C 0.77969 0.65531 0.38627 0.0
C386 C 0.75285 0.62265 0.40894 0.0
C387 C 0.73801 0.66764 0.36991 0.0
C388 C 0.66751 0.64643 0.37541 0.0
H389 H 0.83391 0.67338 0.38145 0.0
H390 H 0.76133 0.69402 0.35277 0.0
S391 S 0.57092 0.55305 0.43164 0.0
N392 N 0.65102 0.56598 0.43576 0.0
N393 N 0.57167 0.58748 0.40456 0.0
C394 C 0.6392 0.61113 0.39763 0.0
C395 C 0.68222 0.59982 0.41455 0.0
C396 C 0.49931 0.83432 0.37597 0.0
C397 C 0.50623 0.82094 0.35121 0.0
C398 C 0.47882 0.88303 0.38217 0.0
C399 C 0.4646 0.91888 0.36369 0.0
H400 H 0.51185 0.80879 0.3905 0.0
H401 H 0.47671 0.89454 0.40137 0.0
S402 S 0.46429 0.8918 0.29615 0.0
N403 N 0.49009 0.84029 0.30839 0.0
N404 N 0.45095 0.9305 0.31962 0.0
C405 C 0.46741 0.90198 0.33889 0.0
C406 C 0.48848 0.85331 0.33275 0.0
C407 C 0.58642 0.54364 0.5369 0.0
C408 C 0.53395 0.47461 0.5418 0.0
C409 C 0.65163 0.55915 0.52753 0.0
C410 C 0.66689 0.50609 0.52232 0.0
H411 H 0.57573 0.58586 0.53927 0.0
H412 H 0.68929 0.61324 0.5235 0.0
S413 S 0.54778 0.31653 0.53359 0.0
N414 N 0.50184 0.35282 0.54229 0.0
N415 N 0.62473 0.38133 0.52448 0.0
C416 C 0.6159 0.4368 0.52843 0.0
C417 C 0.54935 0.42122 0.53823 0.0
C418 C 0.14768 0.62835 0.69609 0.0
C419 C 0.12724 0.67782 0.69058 0.0
C420 C 0.09844 0.56082 0.70422 0.0
C421 C 0.02741 0.54085 0.7071 0.0
H422 H 0.20114 0.64043 0.69281 0.0
H423 H 0.11507 0.52283 0.70664 0.0
S424 S 0.94892 0.65322 0.69946 0.0
N425 N 0.03233 0.70398 0.69198 0.0
N426 N 0.9404 0.57714 0.70681 0.0
C427 C 0.00742 0.59104 0.70348 0.0
C428 C 0.05718 0.65954 0.69535 0.0
C429 C 0.44866 0.12848 0.87254 0.0
C430 C 0.43274 0.13417 0.84786 0.0
C431 C 0.46614 0.07802 0.87966 0.0
C432 C 0.46835 0.03257 0.86219 0.0
H433 H 0.44531 0.16149 0.88643 0.0
H434 H 0.47557 0.073 0.89893 0.0
S435 S 0.44402 0.03693 0.79462 0.0
N436 N 0.42883 0.09709 0.80571 0.0
N437 N 0.46259 0.00365 0.81871 0.0
C438 C 0.4569 0.04146 0.83725 0.0
C439 C 0.43878 0.09192 0.83017 0.0
C440 C 0.29077 0.38241 0.02306 0.0
C441 C 0.26903 0.4321 0.02229 0.0
C442 C 0.35826 0.40036 0.03101 0.0
C443 C 0.40659 0.46842 0.03882 0.0
H444 H 0.25666 0.32978 0.01646 0.0
H445 H 0.37373 0.36119 0.0301 0.0
S446 S 0.37502 0.61678 0.04273 0.0
N447 N 0.30052 0.55175 0.03192 0.0
N448 N 0.42756 0.58472 0.04694 0.0
C449 C 0.38467 0.51764 0.0397 0.0
C450 C 0.31587 0.49968 0.03139 0.0
C451 C 0.9306 0.36465 0.19662 0.0
C452 C 0.90877 0.4095 0.20611 0.0
C453 C 0.88215 0.29857 0.18772 0.0
C454 C 0.80961 0.27436 0.1879 0.0
H455 H -0.01392 0.38191 0.19509 0.0
H456 H 0.90219 0.26731 0.17986 0.0
S457 S 0.72485 0.36904 0.21342 0.0
N458 N 0.80996 0.42344 0.21717 0.0
N459 N 0.71784 0.29854 0.20056 0.0
C460 C 0.78664 0.31692 0.19892 0.0
C461 C 0.83646 0.3846 0.20804 0.0
C462 C 0.01385 0.40476 0.4759 0.0
C463 C 0.0335 0.47375 0.46998 0.0
C464 C 0.0636 0.38758 0.48386 0.0
C465 C 0.13499 0.439 0.4866 0.0
H466 H 0.95902 0.36402 0.47519 0.0
H467 H 0.04524 0.33374 0.48873 0.0
S468 S 0.21306 0.62783 0.47273 0.0
N469 N 0.12856 0.59368 0.46638 0.0
N470 N 0.22294 0.56212 0.48175 0.0
C471 C 0.1558 0.5081 0.47971 0.0
C472 C 0.1048 0.52532 0.47132 0.0
C473 C 0.57993 0.02006 0.63999 0.0
C474 C 0.5281 0.03744 0.63494 0.0
C475 C 0.64692 0.07042 0.64794 0.0
C476 C 0.66466 0.14023 0.65146 0.0
H477 H 0.56773 0.96639 0.63869 0.0
H478 H 0.68425 0.05367 0.6522 0.0
S479 S 0.54804 0.21296 0.63927 0.0
N480 N 0.49912 0.12928 0.63252 0.0
N481 N 0.62547 0.22481 0.64777 0.0
C482 C 0.61427 0.15913 0.64516 0.0
C483 C 0.54582 0.10748 0.63684 0.0
C484 C 0.44368 0.62738 0.81135 0.0
C485 C 0.51349 0.67529 0.81851 0.0
C486 C 0.42439 0.55998 0.80339 0.0
C487 C 0.4743 0.53852 0.80242 0.0
H488 H 0.40288 0.64071 0.81304 0.0
H489 H 0.36955 0.52332 0.79942 0.0
S490 S 0.66556 0.647 0.81491 0.0
N491 N 0.63397 0.69877 0.82089 0.0
N492 N 0.59735 0.5721 0.80621 0.0
C493 C 0.54486 0.58721 0.80783 0.0
C494 C 0.56458 0.65562 0.81582 0.0
C495 C 0.88751 0.56953 0.98898 0.0
C496 C 0.81498 0.52506 0.98482 0.0
C497 C 0.93647 0.55083 0.98176 0.0
C498 C 0.91541 0.48735 0.96977 0.0
H499 H 0.9069 0.61816 0.99884 0.0
H500 H -0.00867 0.58551 0.98638 0.0
S501 S 0.73348 0.35526 0.95196 0.0
N502 N 0.72526 0.41656 0.96599 0.0
N503 N 0.8184 0.38208 0.95227 0.0
C504 C 0.84396 0.44421 0.96398 0.0
C505 C 0.7935 0.46287 0.97157 0.0
C506 C 0.36493 0.85887 0.12969 0.0
C507 C 0.40953 0.91659 0.14442 0.0
C508 C 0.29724 0.80924 0.13784 0.0
C509 C 0.27251 0.81644 0.16083 0.0
H510 H 0.38161 0.85299 0.11161 0.0
H511 H 0.26349 0.76615 0.12588 0.0
S512 S 0.37293 0.9511 0.20797 0.0
N513 N 0.42675 0.97284 0.18437 0.0
N514 N 0.30016 0.88032 0.19927 0.0
C515 C 0.3178 0.87184 0.17612 0.0
C516 C 0.38621 0.92173 0.16802 0.0
C517 C 0.39348 0.37254 0.31181 0.0
C518 C 0.46156 0.41952 0.30332 0.0
C519 C 0.37476 0.30514 0.31923 0.0
C520 C 0.42364 0.2821 0.31871 0.0
H521 H 0.35496 0.38894 0.31359 0.0
H522 H 0.32219 0.2719 0.32631 0.0
S523 S 0.60785 0.38438 0.29615 0.0
N524 N 0.57683 0.43797 0.29318 0.0
N525 N 0.54245 0.31097 0.30726 0.0
C526 C 0.49107 0.32758 0.30891 0.0
C527 C 0.50983 0.39638 0.30116 0.0
C528 C 0.12637 0.79039 0.43493 0.0
C529 C 0.06092 0.78625 0.43721 0.0
C530 C 0.18229 0.84684 0.42312 0.0
C531 C 0.17437 0.90058 0.4127 0.0
H532 H 0.1341 0.74903 0.44204 0.0
H533 H 0.23181 0.84773 0.42176 0.0
S534 S 0.01347 0.9144 0.41405 0.0
N535 N -0.00894 0.8406 0.42857 0.0
N536 N 0.0965 0.94714 0.40599 0.0
C537 C 0.1093 0.89747 0.41505 0.0
C538 C 0.05252 0.84029 0.4275 0.0
C539 C 0.25083 0.16432 0.60203 0.0
C540 C 0.24976 0.17324 0.57641 0.0
C541 C 0.2476 0.10463 0.61196 0.0
C542 C 0.24464 0.05272 0.59657 0.0
H543 H 0.25401 0.2037 0.61453 0.0
H544 H 0.24945 0.10007 0.63176 0.0
S545 S 0.23843 0.05017 0.52833 0.0
N546 N 0.24333 0.12442 0.53591 0.0
N547 N 0.23833 0.01239 0.55456 0.0
C548 C 0.24254 0.06047 0.57094 0.0
C549 C 0.24475 0.12072 0.56084 0.0
C550 C 0.11529 0.25439 0.77649 0.0
C551 C 0.16573 0.25299 0.76134 0.0
C552 C 0.05824 0.25662 0.76624 0.0
C553 C 0.04935 0.25608 0.74056 0.0
H554 H 0.12118 0.25611 0.79632 0.0
H555 H 0.02088 0.25892 0.77851 0.0
S556 S 0.16457 0.24707 0.69315 0.0
N557 N 0.20207 0.24761 0.7196 0.0
N558 N 0.09362 0.25055 0.70029 0.0
C559 C 0.09803 0.25192 0.72525 0.0
C560 C 0.15671 0.2508 0.73567 0.0
C561 C 0.82623 0.06489 0.90949 0.0
C562 C 0.7596 0.05897 0.90982 0.0
C563 C 0.88385 0.12071 0.92121 0.0
C564 C 0.87656 0.1727 0.93312 0.0
H565 H 0.83365 0.02573 0.90043 0.0
H566 H 0.93474 0.12435 0.9203 0.0
S567 S 0.71342 0.18084 0.93933 0.0
N568 N 0.68952 0.10917 0.92338 0.0
N569 N 0.79823 0.21472 0.94491 0.0
C570 C 0.81032 0.16724 0.93363 0.0
C571 C 0.75166 0.11015 0.92209 0.0
C572 C 0.68391 0.84164 0.11185 0.0
C573 C 0.68533 0.89376 0.09682 0.0
C574 C 0.68359 0.78389 0.10147 0.0
C575 C 0.68633 0.77737 0.07579 0.0
H576 H 0.68095 0.84448 0.13166 0.0
H577 H 0.68133 0.7441 0.11367 0.0
S578 S 0.69537 0.9027 0.02867 0.0
N579 N 0.69232 0.93719 0.05514 0.0
N580 N 0.69313 0.82918 0.0357 0.0
C581 C 0.69009 0.8304 0.06064 0.0
C582 C 0.68916 0.88848 0.07116 0.0
C583 C 0.76938 0.69181 0.23779 0.0
C584 C 0.76579 0.69816 0.26343 0.0
C585 C 0.82574 0.68949 0.22715 0.0
C586 C 0.87925 0.69202 0.24193 0.0
H587 H 0.7282 0.68842 0.22585 0.0
H588 H 0.82643 0.68371 0.20739 0.0
S589 S 0.89602 0.71212 0.30984 0.0
N590 N 0.82167 0.70979 0.30316 0.0
N591 N 0.92768 0.70492 0.28327 0.0
C592 C 0.87712 0.7 0.26754 0.0
C593 C 0.82032 0.70328 0.27829 0.0
C594 C 0.69349 0.28134 0.43624 0.0
C595 C 0.72543 0.34952 0.42702 0.0
C596 C 0.64075 0.22573 0.42284 0.0
C597 C 0.61749 0.23639 0.39985 0.0
H598 H 0.70915 0.27087 0.45393 0.0
H599 H 0.61668 0.17408 0.43091 0.0
S600 S 0.68326 0.40603 0.36801 0.0
N601 N 0.73003 0.42532 0.39359 0.0
N602 N 0.63047 0.32062 0.36858 0.0
C603 C 0.65001 0.30428 0.39021 0.0
C604 C 0.70388 0.36092 0.40381 0.0
C605 C 0.36196 0.67433 0.61314 0.0
C606 C 0.35482 0.7252 0.60026 0.0
C607 C 0.36426 0.62065 0.60063 0.0
C608 C 0.35872 0.61522 0.57474 0.0
H609 H 0.36538 0.67563 0.63303 0.0
H610 H 0.3688 0.58219 0.61155 0.0
S611 S 0.33966 0.73603 0.53231 0.0
N612 N 0.34283 0.76748 0.56 0.0
N613 N 0.34705 0.66648 0.53668 0.0
C614 C 0.35266 0.66649 0.5616 0.0
C615 C 0.35067 0.7214 0.5743 0.0
C616 C 0.66704 0.38003 0.77776 0.0
C617 C 0.60368 0.36286 0.76602 0.0
C618 C 0.72225 0.38193 0.76456 0.0
C619 C 0.71568 0.36563 0.73921 0.0
H620 H 0.67409 0.39223 0.7972 0.0
H621 H 0.77003 0.39502 0.77455 0.0
S622 S 0.55861 0.31534 0.70019 0.0
N623 N 0.53642 0.32846 0.72772 0.0
N624 N 0.64009 0.33157 0.70305 0.0
C625 C 0.65256 0.34902 0.72724 0.0
C626 C 0.59652 0.34753 0.74063 0.0
C627 C 0.29486 0.72563 0.92303 0.0
C628 C 0.32693 0.7132 0.90282 0.0
C629 C 0.2447 0.67059 0.93736 0.0
C630 C 0.22528 0.60164 0.93184 0.0
H631 H 0.30864 0.77836 0.92782 0.0
H632 H 0.21978 0.68183 0.95235 0.0
S633 S 0.29908 0.54151 0.88289 0.0
N634 N 0.33929 0.62699 0.87935 0.0
N635 N 0.24496 0.52353 0.90623 0.0
C636 C 0.25814 0.58854 0.91214 0.0
C637 C 0.30886 0.64433 0.89756 0.0
C638 C 0.5804 0.27878 0.11019 0.0
C639 C 0.58667 0.22711 0.09781 0.0
C640 C 0.58037 0.33314 0.09727 0.0
C641 C 0.58761 0.33869 0.07142 0.0
H642 H 0.57551 0.27733 0.13003 0.0
H643 H 0.57596 0.37188 0.1079 0.0
S644 S 0.60734 0.21662 0.03041 0.0
N645 N 0.60087 0.1843 0.05829 0.0
N646 N 0.60128 0.28717 0.03398 0.0
C647 C 0.5935 0.2869 0.05876 0.0
C648 C 0.59295 0.231 0.07196 0.0
C649 C 0.30583 0.56254 0.24864 0.0
C650 C 0.32377 0.59057 0.27263 0.0
C651 C 0.25344 0.56523 0.23499 0.0
C652 C 0.2162 0.59466 0.24506 0.0
H653 H 0.33366 0.5397 0.23998 0.0
H654 H 0.24175 0.54381 0.21657 0.0
S655 S 0.24178 0.67513 0.30683 0.0
N656 N 0.29975 0.64893 0.30569 0.0
N657 N 0.1996 0.65231 0.28026 0.0
C658 C 0.23204 0.62135 0.26919 0.0
C659 C 0.28605 0.61944 0.28298 0.0
loop_
_geom_bond_atom_site_label_1
_geom_bond_atom_site_label_2
_geom_bond_distance
_geom_bond_site_symmetry_2
_ccdc_geom_bond_type
Sc0 O3 2.025 . S
Sc0 O10 2.105 . S
Sc0 O13 2.105 . S
Sc0 O16 2.105 . S
Sc0 O19 2.105 . S
Sc1 O3 2.025 . S
Sc1 O11 2.105 . S
Sc1 O15 2.105 . S
Sc1 O17 2.105 . S
Sc1 O21 2.105 . S
Sc2 O3 2.025 . S
Sc2 O12 2.105 1_545 S
Sc2 O14 2.105 . S
Sc2 O18 2.105 . S
Sc2 O20 2.105 . S
O3 Sc0 2.025 . S
O3 Sc1 2.025 . S
O3 Sc2 2.025 . S
C4 O10 1.268 . S
C4 O20 1.268 . S
C5 O11 1.268 . S
C5 O19 1.268 . S
C6 O12 1.268 . S
C6 O21 1.268 1_565 S
C7 O13 1.268 . S
C7 O17 1.268 . S
C8 O14 1.268 . S
C8 O16 1.268 . S
C9 O15 1.268 . S
C9 O18 1.268 . S
O10 Sc0 2.105 . S
O10 C4 1.268 . S
O11 Sc1 2.105 . S
O11 C5 1.268 . S
O12 Sc2 2.105 1_565 S
O12 C6 1.268 . S
O13 Sc0 2.105 . S
O13 C7 1.268 . S
O14 Sc2 2.105 . S
O14 C8 1.268 . S
O15 Sc1 2.105 . S
O15 C9 1.268 . S
O16 Sc0 2.105 . S
O16 C8 1.268 . S
O17 Sc1 2.105 . S
O17 C7 1.268 . S
O18 Sc2 2.105 . S
O18 C9 1.268 . S
O19 Sc0 2.105 . S
O19 C5 1.268 . S
O20 Sc2 2.105 . S
O20 C4 1.268 . S
O21 Sc1 2.105 . S
O21 C6 1.268 1_545 S
Sc22 O25 2.025 . S
Sc22 O32 2.105 . S
Sc22 O35 2.105 . S
Sc22 O38 2.105 . S
Sc22 O41 2.105 . S
Sc23 O25 2.025 . S
Sc23 O33 2.105 . S
Sc23 O37 2.105 . S
Sc23 O39 2.105 . S
Sc23 O43 2.105 . S
Sc24 O25 2.025 . S
Sc24 O34 2.105 . S
Sc24 O36 2.105 . S
Sc24 O40 2.105 . S
Sc24 O42 2.105 . S
O25 Sc22 2.025 . S
O25 Sc23 2.025 . S
O25 Sc24 2.025 . S
C26 O32 1.268 . S
C26 O42 1.268 . S
C27 O33 1.268 . S
C27 O41 1.268 . S
C28 O34 1.268 . S
C28 O43 1.268 . S
C29 O35 1.268 . S
C29 O39 1.268 . S
C30 O36 1.268 . S
C30 O38 1.268 . S
C31 O37 1.268 . S
C31 O40 1.268 . S
O32 Sc22 2.105 . S
O32 C26 1.268 . S
O33 Sc23 2.105 . S
O33 C27 1.268 . S
O34 Sc24 2.105 . S
O34 C28 1.268 . S
O35 Sc22 2.105 . S
O35 C29 1.268 . S
O36 Sc24 2.105 . S
O36 C30 1.268 . S
O37 Sc23 2.105 . S
O37 C31 1.268 . S
O38 Sc22 2.105 . S
O38 C30 1.268 . S
O39 Sc23 2.105 . S
O39 C29 1.268 . S
O40 Sc24 2.105 . S
O40 C31 1.268 . S
O41 Sc22 2.105 . S
O41 C27 1.268 . S
O42 Sc24 2.105 . S
O42 C26 1.268 . S
O43 Sc23 2.105 . S
O43 C28 1.268 . S
Sc44 O47 2.025 . S
Sc44 O54 2.105 . S
Sc44 O57 2.105 . S
Sc44 O60 2.105 . S
Sc44 O63 2.105 . S
Sc45 O47 2.025 . S
Sc45 O55 2.105 . S
Sc45 O59 2.105 . S
Sc45 O61 2.105 . S
Sc45 O65 2.105 . S
Sc46 O47 2.025 . S
Sc46 O56 2.105 1_655 S
Sc46 O58 2.105 . S
Sc46 O62 2.105 . S
Sc46 O64 2.105 . S
O47 Sc44 2.025 . S
O47 Sc45 2.025 . S
O47 Sc46 2.025 . S
C48 O54 1.268 . S
C48 O64 1.268 . S
C49 O55 1.268 . S
C49 O63 1.268 . S
C50 O56 1.268 . S
C50 O65 1.268 1_455 S
C51 O57 1.268 . S
C51 O61 1.268 . S
C52 O58 1.268 . S
C52 O60 1.268 . S
C53 O59 1.268 . S
C53 O62 1.268 . S
O54 Sc44 2.105 . S
O54 C48 1.268 . S
O55 Sc45 2.105 . S
O55 C49 1.268 . S
O56 Sc46 2.105 1_455 S
O56 C50 1.268 . S
O57 Sc44 2.105 . S
O57 C51 1.268 . S
O58 Sc46 2.105 . S
O58 C52 1.268 . S
O59 Sc45 2.105 . S
O59 C53 1.268 . S
O60 Sc44 2.105 . S
O60 C52 1.268 . S
O61 Sc45 2.105 . S
O61 C51 1.268 . S
O62 Sc46 2.105 . S
O62 C53 1.268 . S
O63 Sc44 2.105 . S
O63 C49 1.268 . S
O64 Sc46 2.105 . S
O64 C48 1.268 . S
O65 Sc45 2.105 . S
O65 C50 1.268 1_655 S
Sc66 O69 2.025 . S
Sc66 O76 2.105 . S
Sc66 O79 2.105 1_565 S
Sc66 O82 2.105 . S
Sc66 O85 2.105 . S
Sc67 O69 2.025 . S
Sc67 O77 2.105 . S
Sc67 O81 2.105 . S
Sc67 O83 2.105 . S
Sc67 O87 2.105 . S
Sc68 O69 2.025 . S
Sc68 O78 2.105 . S
Sc68 O80 2.105 . S
Sc68 O84 2.105 . S
Sc68 O86 2.105 . S
O69 Sc66 2.025 . S
O69 Sc67 2.025 . S
O69 Sc68 2.025 . S
C70 O76 1.268 . S
C70 O86 1.268 . S
C71 O77 1.268 . S
C71 O85 1.268 . S
C72 O78 1.268 . S
C72 O87 1.268 . S
C73 O79 1.268 . S
C73 O83 1.268 1_545 S
C74 O80 1.268 . S
C74 O82 1.268 . S
C75 O81 1.268 . S
C75 O84 1.268 . S
O76 Sc66 2.105 . S
O76 C70 1.268 . S
O77 Sc67 2.105 . S
O77 C71 1.268 . S
O78 Sc68 2.105 . S
O78 C72 1.268 . S
O79 Sc66 2.105 1_545 S
O79 C73 1.268 . S
O80 Sc68 2.105 . S
O80 C74 1.268 . S
O81 Sc67 2.105 . S
O81 C75 1.268 . S
O82 Sc66 2.105 . S
O82 C74 1.268 . S
O83 Sc67 2.105 . S
O83 C73 1.268 1_565 S
O84 Sc68 2.105 . S
O84 C75 1.268 . S
O85 Sc66 2.105 . S
O85 C71 1.268 . S
O86 Sc68 2.105 . S
O86 C70 1.268 . S
O87 Sc67 2.105 . S
O87 C72 1.268 . S
Sc88 O91 2.025 . S
Sc88 O98 2.105 . S
Sc88 O101 2.105 . S
Sc88 O104 2.105 . S
Sc88 O107 2.105 1_554 S
Sc89 O91 2.025 . S
Sc89 O99 2.094 1_554 S
Sc89 O103 2.105 . S
Sc89 O105 2.105 . S
Sc89 O109 2.105 . S
Sc90 O91 2.025 . S
Sc90 O100 2.105 . S
Sc90 O102 2.105 . S
Sc90 O106 2.105 . S
Sc90 O108 2.105 . S
O91 Sc88 2.025 . S
O91 Sc89 2.025 . S
O91 Sc90 2.025 . S
C92 O98 1.268 . S
C92 O108 1.268 . S
C93 O99 1.276 . S
C93 O107 1.268 . S
C94 O100 1.268 . S
C94 O109 1.268 . S
C95 O101 1.268 . S
C95 O105 1.268 . S
C96 O102 1.268 . S
C96 O104 1.268 . S
C97 O103 1.268 . S
C97 O106 1.268 . S
O98 Sc88 2.105 . S
O98 C92 1.268 . S
O99 Sc89 2.094 1_556 S
O99 C93 1.276 . S
O100 Sc90 2.105 . S
O100 C94 1.268 . S
O101 Sc88 2.105 . S
O101 C95 1.268 . S
O102 Sc90 2.105 . S
O102 C96 1.268 . S
O103 Sc89 2.105 . S
O103 C97 1.268 . S
O104 Sc88 2.105 . S
O104 C96 1.268 . S
O105 Sc89 2.105 . S
O105 C95 1.268 . S
O106 Sc90 2.105 . S
O106 C97 1.268 . S
O107 Sc88 2.105 1_556 S
O107 C93 1.268 . S
O108 Sc90 2.105 . S
O108 C92 1.268 . S
O109 Sc89 2.105 . S
O109 C94 1.268 . S
Sc110 O113 2.025 . S
Sc110 O120 2.105 . S
Sc110 O123 2.105 1_455 S
Sc110 O126 2.105 . S
Sc110 O129 2.105 . S
Sc111 O113 2.025 . S
Sc111 O121 2.105 . S
Sc111 O125 2.105 . S
Sc111 O127 2.105 . S
Sc111 O131 2.105 . S
Sc112 O113 2.025 . S
Sc112 O122 2.105 . S
Sc112 O124 2.105 . S
Sc112 O128 2.105 . S
Sc112 O130 2.105 . S
O113 Sc110 2.025 . S
O113 Sc111 2.025 . S
O113 Sc112 2.025 . S
C114 O120 1.268 . S
C114 O130 1.268 . S
C115 O121 1.268 . S
C115 O129 1.268 . S
C116 O122 1.268 . S
C116 O131 1.268 . S
C117 O123 1.268 . S
C117 O127 1.268 1_655 S
C118 O124 1.268 . S
C118 O126 1.268 . S
C119 O125 1.268 . S
C119 O128 1.268 . S
O120 Sc110 2.105 . S
O120 C114 1.268 . S
O121 Sc111 2.105 . S
O121 C115 1.268 . S
O122 Sc112 2.105 . S
O122 C116 1.268 . S
O123 Sc110 2.105 1_655 S
O123 C117 1.268 . S
O124 Sc112 2.105 . S
O124 C118 1.268 . S
O125 Sc111 2.105 . S
O125 C119 1.268 . S
O126 Sc110 2.105 . S
O126 C118 1.268 . S
O127 Sc111 2.105 . S
O127 C117 1.268 1_455 S
O128 Sc112 2.105 . S
O128 C119 1.268 . S
O129 Sc110 2.105 . S
O129 C115 1.268 . S
O130 Sc112 2.105 . S
O130 C114 1.268 . S
O131 Sc111 2.105 . S
O131 C116 1.268 . S
Sc132 O135 2.025 . S
Sc132 O142 2.105 . S
Sc132 O145 2.105 . S
Sc132 O148 2.105 . S
Sc132 O151 2.105 . S
Sc133 O135 2.025 . S
Sc133 O143 2.105 . S
Sc133 O147 2.105 . S
Sc133 O149 2.105 . S
Sc133 O153 2.105 . S
Sc134 O135 2.025 . S
Sc134 O144 2.105 1_655 S
Sc134 O146 2.105 . S
Sc134 O150 2.105 . S
Sc134 O152 2.105 . S
O135 Sc132 2.025 . S
O135 Sc133 2.025 . S
O135 Sc134 2.025 . S
C136 O142 1.268 . S
C136 O152 1.268 . S
C137 O143 1.268 . S
C137 O151 1.268 . S
C138 O144 1.268 . S
C138 O153 1.268 1_455 S
C139 O145 1.268 . S
C139 O149 1.268 . S
C140 O146 1.268 . S
C140 O148 1.268 . S
C141 O147 1.268 . S
C141 O150 1.268 . S
O142 Sc132 2.105 . S
O142 C136 1.268 . S
O143 Sc133 2.105 . S
O143 C137 1.268 . S
O144 Sc134 2.105 1_455 S
O144 C138 1.268 . S
O145 Sc132 2.105 . S
O145 C139 1.268 . S
O146 Sc134 2.105 . S
O146 C140 1.268 . S
O147 Sc133 2.105 . S
O147 C141 1.268 . S
O148 Sc132 2.105 . S
O148 C140 1.268 . S
O149 Sc133 2.105 . S
O149 C139 1.268 . S
O150 Sc134 2.105 . S
O150 C141 1.268 . S
O151 Sc132 2.105 . S
O151 C137 1.268 . S
O152 Sc134 2.105 . S
O152 C136 1.268 . S
O153 Sc133 2.105 . S
O153 C138 1.268 1_655 S
Sc154 O157 2.025 . S
Sc154 O164 2.105 . S
Sc154 O167 2.105 1_565 S
Sc154 O170 2.105 . S
Sc154 O173 2.105 . S
Sc155 O157 2.025 . S
Sc155 O165 2.105 . S
Sc155 O169 2.105 . S
Sc155 O171 2.105 . S
Sc155 O175 2.105 . S
Sc156 O157 2.025 . S
Sc156 O166 2.105 . S
Sc156 O168 2.105 . S
Sc156 O172 2.105 . S
Sc156 O174 2.105 . S
O157 Sc154 2.025 . S
O157 Sc155 2.025 . S
O157 Sc156 2.025 . S
C158 O164 1.268 . S
C158 O174 1.268 . S
C159 O165 1.268 . S
C159 O173 1.268 . S
C160 O166 1.268 . S
C160 O175 1.268 . S
C161 O167 1.268 . S
C161 O171 1.268 1_545 S
C162 O168 1.268 . S
C162 O170 1.268 . S
C163 O169 1.268 . S
C163 O172 1.268 . S
O164 Sc154 2.105 . S
O164 C158 1.268 . S
O165 Sc155 2.105 . S
O165 C159 1.268 . S
O166 Sc156 2.105 . S
O166 C160 1.268 . S
O167 Sc154 2.105 1_545 S
O167 C161 1.268 . S
O168 Sc156 2.105 . S
O168 C162 1.268 . S
O169 Sc155 2.105 . S
O169 C163 1.268 . S
O170 Sc154 2.105 . S
O170 C162 1.268 . S
O171 Sc155 2.105 . S
O171 C161 1.268 1_565 S
O172 Sc156 2.105 . S
O172 C163 1.268 . S
O173 Sc154 2.105 . S
O173 C159 1.268 . S
O174 Sc156 2.105 . S
O174 C158 1.268 . S
O175 Sc155 2.105 . S
O175 C160 1.268 . S
Sc176 O179 2.025 . S
Sc176 O186 2.105 . S
Sc176 O189 2.105 . S
Sc176 O192 2.105 . S
Sc176 O195 2.105 . S
Sc177 O179 2.025 . S
Sc177 O187 2.105 . S
Sc177 O191 2.105 . S
Sc177 O193 2.105 . S
Sc177 O197 2.105 . S
Sc178 O179 2.025 . S
Sc178 O188 2.105 . S
Sc178 O190 2.105 . S
Sc178 O194 2.105 . S
Sc178 O196 2.105 . S
O179 Sc176 2.025 . S
O179 Sc177 2.025 . S
O179 Sc178 2.025 . S
C180 O186 1.268 . S
C180 O196 1.268 . S
C181 O187 1.268 . S
C181 O195 1.268 . S
C182 O188 1.268 . S
C182 O197 1.268 . S
C183 O189 1.268 . S
C183 O193 1.268 . S
C184 O190 1.268 . S
C184 O192 1.268 . S
C185 O191 1.268 . S
C185 O194 1.268 . S
O186 Sc176 2.105 . S
O186 C180 1.268 . S
O187 Sc177 2.105 . S
O187 C181 1.268 . S
O188 Sc178 2.105 . S
O188 C182 1.268 . S
O189 Sc176 2.105 . S
O189 C183 1.268 . S
O190 Sc178 2.105 . S
O190 C184 1.268 . S
O191 Sc177 2.105 . S
O191 C185 1.268 . S
O192 Sc176 2.105 . S
O192 C184 1.268 . S
O193 Sc177 2.105 . S
O193 C183 1.268 . S
O194 Sc178 2.105 . S
O194 C185 1.268 . S
O195 Sc176 2.105 . S
O195 C181 1.268 . S
O196 Sc178 2.105 . S
O196 C180 1.268 . S
O197 Sc177 2.105 . S
O197 C182 1.268 . S
Sc198 O201 2.025 . S
Sc198 O208 2.105 . S
Sc198 O211 2.105 1_455 S
Sc198 O214 2.105 . S
Sc198 O217 2.105 . S
Sc199 O201 2.025 . S
Sc199 O209 2.105 . S
Sc199 O213 2.122 . S
Sc199 O215 2.105 . S
Sc199 O219 2.105 . S
Sc200 O201 2.025 . S
Sc200 O210 2.105 . S
Sc200 O212 2.105 . S
Sc200 O216 2.105 1_556 S
Sc200 O218 2.105 . S
O201 Sc198 2.025 . S
O201 Sc199 2.025 . S
O201 Sc200 2.025 . S
C202 O208 1.268 . S
C202 O218 1.268 . S
C203 O209 1.268 . S
C203 O217 1.268 . S
C204 O210 1.268 . S
C204 O219 1.268 . S
C205 O211 1.268 . S
C205 O215 1.268 1_655 S
C206 O212 1.268 . S
C206 O214 1.268 . S
C207 O213 1.256 1_554 S
C207 O216 1.268 . S
O208 Sc198 2.105 . S
O208 C202 1.268 . S
O209 Sc199 2.105 . S
O209 C203 1.268 . S
O210 Sc200 2.105 . S
O210 C204 1.268 . S
O211 Sc198 2.105 1_655 S
O211 C205 1.268 . S
O212 Sc200 2.105 . S
O212 C206 1.268 . S
O213 Sc199 2.122 . S
O213 C207 1.256 1_556 S
O214 Sc198 2.105 . S
O214 C206 1.268 . S
O215 Sc199 2.105 . S
O215 C205 1.268 1_455 S
O216 Sc200 2.105 1_554 S
O216 C207 1.268 . S
O217 Sc198 2.105 . S
O217 C203 1.268 . S
O218 Sc200 2.105 . S
O218 C202 1.268 . S
O219 Sc199 2.105 . S
O219 C204 1.268 . S
Sc220 O223 2.025 . S
Sc220 O230 2.105 . S
Sc220 O233 2.105 . S
Sc220 O236 2.105 . S
Sc220 O239 2.105 . S
Sc221 O223 2.025 . S
Sc221 O231 2.105 . S
Sc221 O235 2.105 . S
Sc221 O237 2.105 . S
Sc221 O241 2.105 . S
Sc222 O223 2.025 . S
Sc222 O232 2.105 1_545 S
Sc222 O234 2.105 . S
Sc222 O238 2.105 . S
Sc222 O240 2.105 . S
O223 Sc220 2.025 . S
O223 Sc221 2.025 . S
O223 Sc222 2.025 . S
C224 O230 1.268 . S
C224 O240 1.268 . S
C225 O231 1.268 . S
C225 O239 1.268 . S
C226 O232 1.268 . S
C226 O241 1.268 1_565 S
C227 O233 1.268 . S
C227 O237 1.268 . S
C228 O234 1.268 . S
C228 O236 1.268 . S
C229 O235 1.268 . S
C229 O238 1.268 . S
O230 Sc220 2.105 . S
O230 C224 1.268 . S
O231 Sc221 2.105 . S
O231 C225 1.268 . S
O232 Sc222 2.105 1_565 S
O232 C226 1.268 . S
O233 Sc220 2.105 . S
O233 C227 1.268 . S
O234 Sc222 2.105 . S
O234 C228 1.268 . S
O235 Sc221 2.105 . S
O235 C229 1.268 . S
O236 Sc220 2.105 . S
O236 C228 1.268 . S
O237 Sc221 2.105 . S
O237 C227 1.268 . S
O238 Sc222 2.105 . S
O238 C229 1.268 . S
O239 Sc220 2.105 . S
O239 C225 1.268 . S
O240 Sc222 2.105 . S
O240 C224 1.268 . S
O241 Sc221 2.105 . S
O241 C226 1.268 1_545 S
Sc242 O245 2.025 . S
Sc242 O252 2.105 . S
Sc242 O255 2.105 . S
Sc242 O258 2.105 . S
Sc242 O261 2.105 . S
Sc243 O245 2.025 . S
Sc243 O253 2.105 . S
Sc243 O257 2.105 . S
Sc243 O259 2.105 . S
Sc243 O263 2.105 . S
Sc244 O245 2.025 . S
Sc244 O254 2.105 . S
Sc244 O256 2.105 . S
Sc244 O260 2.105 . S
Sc244 O262 2.105 . S
O245 Sc242 2.025 . S
O245 Sc243 2.025 . S
O245 Sc244 2.025 . S
C246 O252 1.268 . S
C246 O262 1.268 . S
C247 O253 1.268 . S
C247 O261 1.268 . S
C248 O254 1.268 . S
C248 O263 1.268 . S
C249 O255 1.268 . S
C249 O259 1.268 . S
C250 O256 1.268 . S
C250 O258 1.268 . S
C251 O257 1.268 . S
C251 O260 1.268 . S
O252 Sc242 2.105 . S
O252 C246 1.268 . S
O253 Sc243 2.105 . S
O253 C247 1.268 . S
O254 Sc244 2.105 . S
O254 C248 1.268 . S
O255 Sc242 2.105 . S
O255 C249 1.268 . S
O256 Sc244 2.105 . S
O256 C250 1.268 . S
O257 Sc243 2.105 . S
O257 C251 1.268 . S
O258 Sc242 2.105 . S
O258 C250 1.268 . S
O259 Sc243 2.105 . S
O259 C249 1.268 . S
O260 Sc244 2.105 . S
O260 C251 1.268 . S
O261 Sc242 2.105 . S
O261 C247 1.268 . S
O262 Sc244 2.105 . S
O262 C246 1.268 . S
O263 Sc243 2.105 . S
O263 C248 1.268 . S
C264 C265 1.369 . S
C264 C266 1.419 . S
C264 H268 0.930 . S
C265 C264 1.369 . S
C265 C274 1.429 . S
C266 C264 1.419 . S
C266 C267 1.363 1_565 S
C266 H269 0.929 . S
C267 C266 1.363 1_545 S
C267 C273 1.428 1_545 S
H268 C264 0.930 . S
H269 C266 0.929 . S
S270 N271 1.613 . S
S270 N272 1.610 1_565 S
N271 S270 1.613 . S
N271 C274 1.350 . S
N272 S270 1.610 1_545 S
N272 C273 1.351 1_545 S
C273 C267 1.428 1_565 S
C273 N272 1.351 1_565 S
C273 C274 1.434 . S
C274 C265 1.429 . S
C274 N271 1.350 . S
C274 C273 1.434 . S
C275 C276 1.369 . S
C275 C277 1.419 . S
C275 H279 0.930 . S
C276 C275 1.369 . S
C276 C285 1.429 . S
C277 C275 1.419 . S
C277 C278 1.363 . S
C277 H280 0.929 . S
C278 C277 1.363 . S
C278 C284 1.428 . S
H279 C275 0.930 . S
H280 C277 0.929 . S
S281 N282 1.613 . S
S281 N283 1.610 . S
N282 S281 1.613 . S
N282 C285 1.350 . S
N283 S281 1.610 . S
N283 C284 1.351 . S
C284 C278 1.428 . S
C284 N283 1.351 . S
C284 C285 1.434 . S
C285 C276 1.429 . S
C285 N282 1.350 . S
C285 C284 1.434 . S
C286 C287 1.369 1_455 S
C286 C288 1.419 . S
C286 H290 0.930 . S
C287 C286 1.369 1_655 S
C287 C296 1.429 . S
C288 C286 1.419 . S
C288 C289 1.363 . S
C288 H291 0.929 . S
C289 C288 1.363 . S
C289 C295 1.428 . S
H290 C286 0.930 . S
H291 C288 0.929 . S
S292 N293 1.613 . S
S292 N294 1.610 1_655 S
N293 S292 1.613 . S
N293 C296 1.350 . S
N294 S292 1.610 1_455 S
N294 C295 1.351 . S
C295 C289 1.428 . S
C295 N294 1.351 . S
C295 C296 1.434 1_455 S
C296 C287 1.429 . S
C296 N293 1.350 . S
C296 C295 1.434 1_655 S
C297 C298 1.369 . S
C297 C299 1.419 . S
C297 H301 0.930 . S
C298 C297 1.369 . S
C298 C307 1.429 . S
C299 C297 1.419 . S
C299 C300 1.363 1_545 S
C299 H302 0.929 . S
C300 C299 1.363 1_565 S
C300 C306 1.428 . S
H301 C297 0.930 . S
H302 C299 0.929 . S
S303 N304 1.613 1_565 S
S303 N305 1.610 . S
N304 S303 1.613 1_545 S
N304 C307 1.350 . S
N305 S303 1.610 . S
N305 C306 1.351 . S
C306 C300 1.428 . S
C306 N305 1.351 . S
C306 C307 1.434 1_565 S
C307 C298 1.429 . S
C307 N304 1.350 . S
C307 C306 1.434 1_545 S
C308 C309 1.369 . S
C308 C310 1.419 . S
C308 H312 0.930 . S
C309 C308 1.369 . S
C309 C318 1.429 . S
C310 C308 1.419 . S
C310 C311 1.363 . S
C310 H313 0.929 . S
C311 C310 1.363 . S
C311 C317 1.428 . S
H312 C308 0.930 . S
H313 C310 0.929 . S
S314 N315 1.613 . S
S314 N316 1.610 . S
N315 S314 1.613 . S
N315 C318 1.350 . S
N316 S314 1.610 . S
N316 C317 1.351 . S
C317 C311 1.428 . S
C317 N316 1.351 . S
C317 C318 1.434 . S
C318 C309 1.429 . S
C318 N315 1.350 . S
C318 C317 1.434 . S
C319 C320 1.369 1_655 S
C319 C321 1.419 . S
C319 H323 0.930 . S
C320 C319 1.369 1_455 S
C320 C329 1.429 1_455 S
C321 C319 1.419 . S
C321 C322 1.363 . S
C321 H324 0.929 . S
C322 C321 1.363 . S
C322 C328 1.428 . S
H323 C319 0.930 . S
H324 C321 0.929 . S
S325 N326 1.613 . S
S325 N327 1.610 . S
N326 S325 1.613 . S
N326 C329 1.350 . S
N327 S325 1.610 . S
N327 C328 1.351 . S
C328 C322 1.428 . S
C328 N327 1.351 . S
C328 C329 1.434 . S
C329 C320 1.429 1_655 S
C329 N326 1.350 . S
C329 C328 1.434 . S
C330 C331 1.369 . S
C330 C332 1.419 . S
C330 H334 0.930 . S
C331 C330 1.369 . S
C331 C340 1.429 . S
C332 C330 1.419 . S
C332 C333 1.363 1_455 S
C332 H335 0.929 1_455 S
C333 C332 1.363 1_655 S
C333 C339 1.428 1_655 S
H334 C330 0.930 . S
H335 C332 0.929 1_655 S
S336 N337 1.613 . S
S336 N338 1.610 . S
N337 S336 1.613 . S
N337 C340 1.350 . S
N338 S336 1.610 . S
N338 C339 1.351 . S
C339 C333 1.428 1_455 S
C339 N338 1.351 . S
C339 C340 1.434 . S
C340 C331 1.429 . S
C340 N337 1.350 . S
C340 C339 1.434 . S
C341 C342 1.369 . S
C341 C343 1.419 1_565 S
C341 H345 0.930 . S
C342 C341 1.369 . S
C342 C351 1.429 1_565 S
C343 C341 1.419 1_545 S
C343 C344 1.363 . S
C343 H346 0.929 . S
C344 C343 1.363 . S
C344 C350 1.428 . S
H345 C341 0.930 . S
H346 C343 0.929 . S
S347 N348 1.613 . S
S347 N349 1.610 . S
N348 S347 1.613 . S
N348 C351 1.350 . S
N349 S347 1.610 . S
N349 C350 1.351 . S
C350 C344 1.428 . S
C350 N349 1.351 . S
C350 C351 1.434 . S
C351 C342 1.429 1_545 S
C351 N348 1.350 . S
C351 C350 1.434 . S
C352 C353 1.369 . S
C352 C354 1.419 . S
C352 H356 0.930 . S
C353 C352 1.369 . S
C353 C362 1.429 . S
C354 C352 1.419 . S
C354 C355 1.363 . S
C354 H357 0.929 . S
C355 C354 1.363 . S
C355 C361 1.428 . S
H356 C352 0.930 . S
H357 C354 0.929 . S
S358 N359 1.613 . S
S358 N360 1.610 . S
N359 S358 1.613 . S
N359 C362 1.350 . S
N360 S358 1.610 . S
N360 C361 1.351 . S
C361 C355 1.428 . S
C361 N360 1.351 . S
C361 C362 1.434 . S
C362 C353 1.429 . S
C362 N359 1.350 . S
C362 C361 1.434 . S
C363 C364 1.369 . S
C363 C365 1.419 1_655 S
C363 H367 0.930 . S
C364 C363 1.369 . S
C364 C373 1.429 . S
C365 C363 1.419 1_455 S
C365 C366 1.363 . S
C365 H368 0.929 . S
C366 C365 1.363 . S
C366 C372 1.428 1_455 S
H367 C363 0.930 . S
H368 C365 0.929 . S
S369 N370 1.613 . S
S369 N371 1.610 . S
N370 S369 1.613 . S
N370 C373 1.350 . S
N371 S369 1.610 . S
N371 C372 1.351 . S
C372 C366 1.428 1_655 S
C372 N371 1.351 . S
C372 C373 1.434 . S
C373 C364 1.429 . S
C373 N370 1.350 . S
C373 C372 1.434 . S
C374 C375 1.369 . S
C374 C376 1.419 1_565 S
C374 H378 0.930 . S
C375 C374 1.369 . S
C375 C384 1.429 . S
C376 C374 1.419 1_545 S
C376 C377 1.363 . S
C376 H379 0.929 . S
C377 C376 1.363 . S
C377 C383 1.428 1_545 S
H378 C374 0.930 . S
H379 C376 0.929 . S
S380 N381 1.613 . S
S380 N382 1.610 . S
N381 S380 1.613 . S
N381 C384 1.350 . S
N382 S380 1.610 . S
N382 C383 1.351 . S
C383 C377 1.428 1_565 S
C383 N382 1.351 . S
C383 C384 1.434 . S
C384 C375 1.429 . S
C384 N381 1.350 . S
C384 C383 1.434 . S
C385 C386 1.369 . S
C385 C387 1.419 . S
C385 H389 0.930 . S
C386 C385 1.369 . S
C386 C395 1.429 . S
C387 C385 1.419 . S
C387 C388 1.363 . S
C387 H390 0.929 . S
C388 C387 1.363 . S
C388 C394 1.428 . S
H389 C385 0.930 . S
H390 C387 0.929 . S
S391 N392 1.613 . S
S391 N393 1.610 . S
N392 S391 1.613 . S
N392 C395 1.350 . S
N393 S391 1.610 . S
N393 C394 1.351 . S
C394 C388 1.428 . S
C394 N393 1.351 . S
C394 C395 1.434 . S
C395 C386 1.429 . S
C395 N392 1.350 . S
C395 C394 1.434 . S
C396 C397 1.369 . S
C396 C398 1.419 . S
C396 H400 0.930 . S
C397 C396 1.369 . S
C397 C406 1.429 . S
C398 C396 1.419 . S
C398 C399 1.363 . S
C398 H401 0.929 . S
C399 C398 1.363 . S
C399 C405 1.428 . S
H400 C396 0.930 . S
H401 C398 0.929 . S
S402 N403 1.613 . S
S402 N404 1.610 . S
N403 S402 1.613 . S
N403 C406 1.350 . S
N404 S402 1.610 . S
N404 C405 1.351 . S
C405 C399 1.428 . S
C405 N404 1.351 . S
C405 C406 1.434 . S
C406 C397 1.429 . S
C406 N403 1.350 . S
C406 C405 1.434 . S
C407 C408 1.369 . S
C407 C409 1.419 . S
C407 H411 0.930 . S
C408 C407 1.369 . S
C408 C417 1.429 . S
C409 C407 1.419 . S
C409 C410 1.363 . S
C409 H412 0.929 . S
C410 C409 1.363 . S
C410 C416 1.428 . S
H411 C407 0.930 . S
H412 C409 0.929 . S
S413 N414 1.613 . S
S413 N415 1.610 . S
N414 S413 1.613 . S
N414 C417 1.350 . S
N415 S413 1.610 . S
N415 C416 1.351 . S
C416 C410 1.428 . S
C416 N415 1.351 . S
C416 C417 1.434 . S
C417 C408 1.429 . S
C417 N414 1.350 . S
C417 C416 1.434 . S
C418 C419 1.369 . S
C418 C420 1.419 . S
C418 H422 0.930 . S
C419 C418 1.369 . S
C419 C428 1.429 . S
C420 C418 1.419 . S
C420 C421 1.363 . S
C420 H423 0.929 . S
C421 C420 1.363 . S
C421 C427 1.428 . S
H422 C418 0.930 . S
H423 C420 0.929 . S
S424 N425 1.613 1_655 S
S424 N426 1.610 . S
N425 S424 1.613 1_455 S
N425 C428 1.350 . S
N426 S424 1.610 . S
N426 C427 1.351 1_655 S
C427 C421 1.428 . S
C427 N426 1.351 1_455 S
C427 C428 1.434 . S
C428 C419 1.429 . S
C428 N425 1.350 . S
C428 C427 1.434 . S
C429 C430 1.369 . S
C429 C431 1.419 . S
C429 H433 0.930 . S
C430 C429 1.369 . S
C430 C439 1.429 . S
C431 C429 1.419 . S
C431 C432 1.363 . S
C431 H434 0.929 . S
C432 C431 1.363 . S
C432 C438 1.428 . S
H433 C429 0.930 . S
H434 C431 0.929 . S
S435 N436 1.613 . S
S435 N437 1.610 . S
N436 S435 1.613 . S
N436 C439 1.350 . S
N437 S435 1.610 . S
N437 C438 1.351 . S
C438 C432 1.428 . S
C438 N437 1.351 . S
C438 C439 1.434 . S
C439 C430 1.429 . S
C439 N436 1.350 . S
C439 C438 1.434 . S
C440 C441 1.372 . S
C440 C442 1.419 1_556 S
C440 H444 0.930 . S
C441 C440 1.372 . S
C441 C450 1.418 1_556 S
C442 C440 1.419 1_554 S
C442 C443 1.363 . S
C442 H445 0.929 . S
C443 C442 1.363 . S
C443 C449 1.428 . S
H444 C440 0.930 . S
H445 C442 0.929 . S
S446 N447 1.613 . S
S446 N448 1.610 . S
N447 S446 1.613 . S
N447 C450 1.350 . S
N448 S446 1.610 . S
N448 C449 1.351 . S
C449 C443 1.428 . S
C449 N448 1.351 . S
C449 C450 1.434 . S
C450 C441 1.418 1_554 S
C450 N447 1.350 . S
C450 C449 1.434 . S
C451 C452 1.366 1_455 S
C451 C453 1.418 1_455 S
C451 H455 0.933 . S
C452 C451 1.366 1_655 S
C452 C461 1.429 . S
C453 C451 1.418 1_655 S
C453 C454 1.363 . S
C453 H456 0.929 . S
C454 C453 1.363 . S
C454 C460 1.428 . S
H455 C451 0.933 . S
H456 C453 0.929 . S
S457 N458 1.613 . S
S457 N459 1.610 . S
N458 S457 1.613 . S
N458 C461 1.350 . S
N459 S457 1.610 . S
N459 C460 1.351 . S
C460 C454 1.428 . S
C460 N459 1.351 . S
C460 C461 1.434 . S
C461 C452 1.429 . S
C461 N458 1.350 . S
C461 C460 1.434 . S
C462 C463 1.369 1_655 S
C462 C464 1.419 1_655 S
C462 H466 0.930 . S
C463 C462 1.369 1_455 S
C463 C472 1.429 . S
C464 C462 1.419 1_455 S
C464 C465 1.363 . S
C464 H467 0.929 . S
C465 C464 1.363 . S
C465 C471 1.428 . S
H466 C462 0.930 . S
H467 C464 0.929 . S
S468 N469 1.613 . S
S468 N470 1.610 . S
N469 S468 1.613 . S
N469 C472 1.350 . S
N470 S468 1.610 . S
N470 C471 1.351 . S
C471 C465 1.428 . S
C471 N470 1.351 . S
C471 C472 1.434 . S
C472 C463 1.429 . S
C472 N469 1.350 . S
C472 C471 1.434 . S
C473 C474 1.369 . S
C473 C475 1.419 . S
C473 H477 0.930 1_545 S
C474 C473 1.369 . S
C474 C483 1.429 . S
C475 C473 1.419 . S
C475 C476 1.363 . S
C475 H478 0.929 . S
C476 C475 1.363 . S
C476 C482 1.428 . S
H477 C473 0.930 1_565 S
H478 C475 0.929 . S
S479 N480 1.613 . S
S479 N481 1.610 . S
N480 S479 1.613 . S
N480 C483 1.350 . S
N481 S479 1.610 . S
N481 C482 1.351 . S
C482 C476 1.428 . S
C482 N481 1.351 . S
C482 C483 1.434 . S
C483 C474 1.429 . S
C483 N480 1.350 . S
C483 C482 1.434 . S
C484 C485 1.369 . S
C484 C486 1.419 . S
C484 H488 0.930 . S
C485 C484 1.369 . S
C485 C494 1.429 . S
C486 C484 1.419 . S
C486 C487 1.363 . S
C486 H489 0.929 . S
C487 C486 1.363 . S
C487 C493 1.428 . S
H488 C484 0.930 . S
H489 C486 0.929 . S
S490 N491 1.613 . S
S490 N492 1.610 . S
N491 S490 1.613 . S
N491 C494 1.350 . S
N492 S490 1.610 . S
N492 C493 1.351 . S
C493 C487 1.428 . S
C493 N492 1.351 . S
C493 C494 1.434 . S
C494 C485 1.429 . S
C494 N491 1.350 . S
C494 C493 1.434 . S
C495 C496 1.364 1_554 S
C495 C497 1.419 1_554 S
C495 H499 0.930 . S
C496 C495 1.364 1_556 S
C496 C505 1.444 . S
C497 C495 1.419 1_556 S
C497 C498 1.363 . S
C497 H500 0.940 1_655 S
C498 C497 1.363 . S
C498 C504 1.428 . S
H499 C495 0.930 . S
H500 C497 0.940 1_455 S
S501 N502 1.613 . S
S501 N503 1.610 . S
N502 S501 1.613 . S
N502 C505 1.350 . S
N503 S501 1.610 . S
N503 C504 1.351 . S
C504 C498 1.428 . S
C504 N503 1.351 . S
C504 C505 1.434 . S
C505 C496 1.444 . S
C505 N502 1.350 . S
C505 C504 1.434 . S
C506 C507 1.369 . S
C506 C508 1.419 . S
C506 H510 0.930 . S
C507 C506 1.369 . S
C507 C516 1.429 . S
C508 C506 1.419 . S
C508 C509 1.363 . S
C508 H511 0.929 . S
C509 C508 1.363 . S
C509 C515 1.428 . S
H510 C506 0.930 . S
H511 C508 0.929 . S
S512 N513 1.613 . S
S512 N514 1.610 . S
N513 S512 1.613 . S
N513 C516 1.350 . S
N514 S512 1.610 . S
N514 C515 1.351 . S
C515 C509 1.428 . S
C515 N514 1.351 . S
C515 C516 1.434 . S
C516 C507 1.429 . S
C516 N513 1.350 . S
C516 C515 1.434 . S
C517 C518 1.369 . S
C517 C519 1.419 . S
C517 H521 0.930 . S
C518 C517 1.369 . S
C518 C527 1.429 . S
C519 C517 1.419 . S
C519 C520 1.363 . S
C519 H522 0.929 . S
C520 C519 1.363 . S
C520 C526 1.428 . S
H521 C517 0.930 . S
H522 C519 0.929 . S
S523 N524 1.613 . S
S523 N525 1.610 . S
N524 S523 1.613 . S
N524 C527 1.350 . S
N525 S523 1.610 . S
N525 C526 1.351 . S
C526 C520 1.428 . S
C526 N525 1.351 . S
C526 C527 1.434 . S
C527 C518 1.429 . S
C527 N524 1.350 . S
C527 C526 1.434 . S
C528 C529 1.369 . S
C528 C530 1.419 . S
C528 H532 0.930 . S
C529 C528 1.369 . S
C529 C538 1.429 . S
C530 C528 1.419 . S
C530 C531 1.363 . S
C530 H533 0.929 . S
C531 C530 1.363 . S
C531 C537 1.428 . S
H532 C528 0.930 . S
H533 C530 0.929 . S
S534 N535 1.613 . S
S534 N536 1.610 . S
N535 S534 1.613 . S
N535 C538 1.350 . S
N536 S534 1.610 . S
N536 C537 1.351 . S
C537 C531 1.428 . S
C537 N536 1.351 . S
C537 C538 1.434 . S
C538 C529 1.429 . S
C538 N535 1.350 . S
C538 C537 1.434 . S
C539 C540 1.369 . S
C539 C541 1.419 . S
C539 H543 0.930 . S
C540 C539 1.369 . S
C540 C549 1.429 . S
C541 C539 1.419 . S
C541 C542 1.363 . S
C541 H544 0.929 . S
C542 C541 1.363 . S
C542 C548 1.428 . S
H543 C539 0.930 . S
H544 C541 0.929 . S
S545 N546 1.613 . S
S545 N547 1.610 . S
N546 S545 1.613 . S
N546 C549 1.350 . S
N547 S545 1.610 . S
N547 C548 1.351 . S
C548 C542 1.428 . S
C548 N547 1.351 . S
C548 C549 1.434 . S
C549 C540 1.429 . S
C549 N546 1.350 . S
C549 C548 1.434 . S
C550 C551 1.369 . S
C550 C552 1.419 . S
C550 H554 0.930 . S
C551 C550 1.369 . S
C551 C560 1.429 . S
C552 C550 1.419 . S
C552 C553 1.363 . S
C552 H555 0.929 . S
C553 C552 1.363 . S
C553 C559 1.428 . S
H554 C550 0.930 . S
H555 C552 0.929 . S
S556 N557 1.613 . S
S556 N558 1.610 . S
N557 S556 1.613 . S
N557 C560 1.350 . S
N558 S556 1.610 . S
N558 C559 1.351 . S
C559 C553 1.428 . S
C559 N558 1.351 . S
C559 C560 1.434 . S
C560 C551 1.429 . S
C560 N557 1.350 . S
C560 C559 1.434 . S
C561 C562 1.369 . S
C561 C563 1.419 . S
C561 H565 0.930 . S
C562 C561 1.369 . S
C562 C571 1.429 . S
C563 C561 1.419 . S
C563 C564 1.363 . S
C563 H566 0.929 . S
C564 C563 1.363 . S
C564 C570 1.428 . S
H565 C561 0.930 . S
H566 C563 0.929 . S
S567 N568 1.613 . S
S567 N569 1.610 . S
N568 S567 1.613 . S
N568 C571 1.350 . S
N569 S567 1.610 . S
N569 C570 1.351 . S
C570 C564 1.428 . S
C570 N569 1.351 . S
C570 C571 1.434 . S
C571 C562 1.429 . S
C571 N568 1.350 . S
C571 C570 1.434 . S
C572 C573 1.369 . S
C572 C574 1.419 . S
C572 H576 0.930 . S
C573 C572 1.369 . S
C573 C582 1.429 . S
C574 C572 1.419 . S
C574 C575 1.363 . S
C574 H577 0.929 . S
C575 C574 1.363 . S
C575 C581 1.428 . S
H576 C572 0.930 . S
H577 C574 0.929 . S
S578 N579 1.613 . S
S578 N580 1.610 . S
N579 S578 1.613 . S
N579 C582 1.350 . S
N580 S578 1.610 . S
N580 C581 1.351 . S
C581 C575 1.428 . S
C581 N580 1.351 . S
C581 C582 1.434 . S
C582 C573 1.429 . S
C582 N579 1.350 . S
C582 C581 1.434 . S
C583 C584 1.369 . S
C583 C585 1.419 . S
C583 H587 0.930 . S
C584 C583 1.369 . S
C584 C593 1.429 . S
C585 C583 1.419 . S
C585 C586 1.363 . S
C585 H588 0.929 . S
C586 C585 1.363 . S
C586 C592 1.428 . S
H587 C583 0.930 . S
H588 C585 0.929 . S
S589 N590 1.613 . S
S589 N591 1.610 . S
N590 S589 1.613 . S
N590 C593 1.350 . S
N591 S589 1.610 . S
N591 C592 1.351 . S
C592 C586 1.428 . S
C592 N591 1.351 . S
C592 C593 1.434 . S
C593 C584 1.429 . S
C593 N590 1.350 . S
C593 C592 1.434 . S
C594 C595 1.369 . S
C594 C596 1.419 . S
C594 H598 0.930 . S
C595 C594 1.369 . S
C595 C604 1.429 . S
C596 C594 1.419 . S
C596 C597 1.363 . S
C596 H599 0.929 . S
C597 C596 1.363 . S
C597 C603 1.428 . S
H598 C594 0.930 . S
H599 C596 0.929 . S
S600 N601 1.613 . S
S600 N602 1.610 . S
N601 S600 1.613 . S
N601 C604 1.350 . S
N602 S600 1.610 . S
N602 C603 1.351 . S
C603 C597 1.428 . S
C603 N602 1.351 . S
C603 C604 1.434 . S
C604 C595 1.429 . S
C604 N601 1.350 . S
C604 C603 1.434 . S
C605 C606 1.369 . S
C605 C607 1.419 . S
C605 H609 0.930 . S
C606 C605 1.369 . S
C606 C615 1.429 . S
C607 C605 1.419 . S
C607 C608 1.363 . S
C607 H610 0.929 . S
C608 C607 1.363 . S
C608 C614 1.428 . S
H609 C605 0.930 . S
H610 C607 0.929 . S
S611 N612 1.613 . S
S611 N613 1.610 . S
N612 S611 1.613 . S
N612 C615 1.350 . S
N613 S611 1.610 . S
N613 C614 1.351 . S
C614 C608 1.428 . S
C614 N613 1.351 . S
C614 C615 1.434 . S
C615 C606 1.429 . S
C615 N612 1.350 . S
C615 C614 1.434 . S
C616 C617 1.369 . S
C616 C618 1.419 . S
C616 H620 0.930 . S
C617 C616 1.369 . S
C617 C626 1.429 . S
C618 C616 1.419 . S
C618 C619 1.363 . S
C618 H621 0.929 . S
C619 C618 1.363 . S
C619 C625 1.428 . S
H620 C616 0.930 . S
H621 C618 0.929 . S
S622 N623 1.613 . S
S622 N624 1.610 . S
N623 S622 1.613 . S
N623 C626 1.350 . S
N624 S622 1.610 . S
N624 C625 1.351 . S
C625 C619 1.428 . S
C625 N624 1.351 . S
C625 C626 1.434 . S
C626 C617 1.429 . S
C626 N623 1.350 . S
C626 C625 1.434 . S
C627 C628 1.369 . S
C627 C629 1.419 . S
C627 H631 0.930 . S
C628 C627 1.369 . S
C628 C637 1.429 . S
C629 C627 1.419 . S
C629 C630 1.363 . S
C629 H632 0.929 . S
C630 C629 1.363 . S
C630 C636 1.428 . S
H631 C627 0.930 . S
H632 C629 0.929 . S
S633 N634 1.613 . S
S633 N635 1.610 . S
N634 S633 1.613 . S
N634 C637 1.350 . S
N635 S633 1.610 . S
N635 C636 1.351 . S
C636 C630 1.428 . S
C636 N635 1.351 . S
C636 C637 1.434 . S
C637 C628 1.429 . S
C637 N634 1.350 . S
C637 C636 1.434 . S
C638 C639 1.369 . S
C638 C640 1.419 . S
C638 H642 0.930 . S
C639 C638 1.369 . S
C639 C648 1.429 . S
C640 C638 1.419 . S
C640 C641 1.363 . S
C640 H643 0.929 . S
C641 C640 1.363 . S
C641 C647 1.428 . S
H642 C638 0.930 . S
H643 C640 0.929 . S
S644 N645 1.613 . S
S644 N646 1.610 . S
N645 S644 1.613 . S
N645 C648 1.350 . S
N646 S644 1.610 . S
N646 C647 1.351 . S
C647 C641 1.428 . S
C647 N646 1.351 . S
C647 C648 1.434 . S
C648 C639 1.429 . S
C648 N645 1.350 . S
C648 C647 1.434 . S
C649 C650 1.369 . S
C649 C651 1.419 . S
C649 H653 0.930 . S
C650 C649 1.369 . S
C650 C659 1.429 . S
C651 C649 1.419 . S
C651 C652 1.363 . S
C651 H654 0.929 . S
C652 C651 1.363 . S
C652 C658 1.428 . S
H653 C649 0.930 . S
H654 C651 0.929 . S
S655 N656 1.613 . S
S655 N657 1.610 . S
N656 S655 1.613 . S
N656 C659 1.350 . S
N657 S655 1.610 . S
N657 C658 1.351 . S
C658 C652 1.428 . S
C658 N657 1.351 . S
C658 C659 1.434 . S
C659 C650 1.429 . S
C659 N656 1.350 . S
C659 C658 1.434 . S
C265 C115 1.252 . S
C267 C5 1.270 . S
C276 C31 1.269 . S
C278 C9 1.257 . S
C287 C49 1.270 . S
C289 C27 1.252 . S
C298 C53 1.253 . S
C300 C75 1.270 . S
C309 C71 1.256 . S
C311 C93 1.269 . S
C320 C119 1.270 . S
C322 C97 1.257 . S
C331 C159 1.258 . S
C333 C137 1.269 . S
C342 C163 1.268 . S
C344 C185 1.255 . S
C353 C203 1.256 . S
C355 C181 1.270 . S
C364 C229 1.252 . S
C366 C207 1.269 . S
C375 C247 1.257 . S
C377 C225 1.269 . S
C386 C141 1.258 . S
C388 C251 1.270 . S
C397 C248 1.436 . S
C399 C4 1.418 1_565 S
C408 C30 1.425 . S
C410 C139 1.430 . S
C419 C160 1.431 . S
C421 C48 1.420 1_455 S
C430 C183 1.436 . S
C432 C74 1.418 1_545 S
C441 C204 1.434 . S
C443 C92 1.424 . S
C452 C118 1.424 1_655 S
C454 C227 1.430 . S
C463 C136 1.425 1_455 S
C465 C28 1.430 . S
C474 C162 1.425 1_545 S
C476 C51 1.431 . S
C485 C72 1.433 . S
C487 C180 1.418 . S
C496 C95 1.423 1_556 S
C498 C206 1.424 1_655 S
C507 C224 1.421 1_565 S
C509 C116 1.433 . S
C518 C250 1.419 . S
C520 C7 1.432 . S
C529 C138 1.240 . S
C531 C6 1.240 . S
C540 C29 1.243 . S
C542 C161 1.239 . S
C551 C182 1.238 . S
C553 C50 1.244 . S
C562 C73 1.247 . S
C564 C205 1.245 . S
C573 C226 1.238 . S
C575 C94 1.244 . S
C584 C249 1.248 . S
C586 C117 1.243 . S
C595 C140 1.125 . S
C597 C8 1.129 . S
C606 C158 1.124 . S
C608 C26 1.129 . S
C617 C184 1.124 . S
C619 C52 1.129 . S
C628 C70 1.128 . S
C630 C202 1.127 . S
C639 C228 1.124 . S
C641 C96 1.129 . S
C650 C246 1.130 . S
C652 C114 1.124 . S
