# Generated by pormake.
# Topology sxa, (6)-cn, num edge types: 1
# Building blocks:
#     Node 0, Type 0, BuildingBlock: BETDEL_clean_sbu_0, # of connection points: 6
#     Node 1, Type 0, BuildingBlock: BETDEL_clean_sbu_0, # of connection points: 6
#     Node 2, Type 0, BuildingBlock: BETDEL_clean_sbu_0, # of connection points: 6
#     Node 3, Type 0, BuildingBlock: BETDEL_clean_sbu_0, # of connection points: 6
#     Edge 4, Type (0, 0), BuildingBlock: KIFKEQ_clean_linker_1, # of connection points: 2
#     Edge 5, Type (0, 0), BuildingBlock: KIFKEQ_clean_linker_1, # of connection points: 2
#     Edge 6, Type (0, 0), BuildingBlock: KIFKEQ_clean_linker_1, # of connection points: 2
#     Edge 7, Type (0, 0), BuildingBlock: KIFKEQ_clean_linker_1, # of connection points: 2
#     Edge 8, Type (0, 0), BuildingBlock: KIFKEQ_clean_linker_1, # of connection points: 2
#     Edge 9, Type (0, 0), BuildingBlock: KIFKEQ_clean_linker_1, # of connection points: 2
#     Edge 10, Type (0, 0), BuildingBlock: KIFKEQ_clean_linker_1, # of connection points: 2
#     Edge 11, Type (0, 0), BuildingBlock: KIFKEQ_clean_linker_1, # of connection points: 2
#     Edge 12, Type (0, 0), BuildingBlock: KIFKEQ_clean_linker_1, # of connection points: 2
#     Edge 13, Type (0, 0), BuildingBlock: KIFKEQ_clean_linker_1, # of connection points: 2
#     Edge 14, Type (0, 0), BuildingBlock: KIFKEQ_clean_linker_1, # of connection points: 2
#     Edge 15, Type (0, 0), BuildingBlock: KIFKEQ_clean_linker_1, # of connection points: 2
# Relax obj value: 0.078
# Max RMSD: 0.218
# Mean RMSD: 0.218
data_MOF--net-sxa--node1-BETDEL_clean_sbu_0--edge1-KIFKEQ_clean_linker_1
_symmetry_space_group_name_H-M    P1
_symmetry_Int_Tables_number       1
_symmetry_cell_setting            triclinic
loop_
_symmetry_equiv_pos_as_xyz
'x, y, z'
_cell_length_a     29.113706
_cell_length_b     27.475792
_cell_length_c     13.260065
_cell_angle_alpha  93.060399
_cell_angle_beta   90.487013
_cell_angle_gamma 90.012108
loop_
_atom_site_label
_atom_site_type_symbol
_atom_site_fract_x
_atom_site_fract_y
_atom_site_fract_z
_atom_type_partial_charge
Dy0 Dy 0.05926 0.80191 0.08713 0.0
C1 C 0.93131 0.78392 0.41115 0.0
C2 C 0.12534 0.8182 0.94777 0.0
Dy3 Dy 0.99835 0.79872 0.2702 0.0
O4 O 0.10567 0.77666 0.96081 0.0
O5 O 0.10353 0.85157 0.0012 0.0
O6 O 0.08416 0.72769 0.12219 0.0
O7 O 1.01624 0.74453 0.14825 0.0
C8 C 0.0451 0.71018 0.14907 0.0
C9 C 1.00578 0.88712 0.19235 0.0
O10 O 0.06869 0.7874 0.34353 0.0
O11 O 0.10874 0.8185 0.21162 0.0
O12 O 0.95711 0.82248 0.40832 0.0
O13 O 0.94537 0.75179 0.34282 0.0
O14 O 0.96915 0.87163 0.23478 0.0
O15 O 0.03756 0.85642 0.20091 0.0
O16 O 0.9922 0.80906 0.00562 0.0
O17 O 0.95014 0.78326 0.14118 0.0
C18 C 0.10784 0.80212 0.30316 0.0
C19 C 0.95326 0.79529 0.04621 0.0
Dy20 Dy 0.53917 0.29726 0.05538 0.0
C21 C 0.41846 0.26382 0.37597 0.0
C22 C 0.60996 0.29189 0.92264 0.0
Dy23 Dy 0.48755 0.29154 0.25222 0.0
O24 O 0.5878 0.25546 0.95642 0.0
O25 O 0.59007 0.33223 0.95445 0.0
O26 O 0.49449 0.23741 -0.00713 0.0
O27 O 0.51624 0.23585 0.14408 0.0
C28 C 0.49395 0.21282 0.07357 0.0
C29 C 0.50211 0.38345 0.19634 0.0
O30 O 0.55806 0.27901 0.31981 0.0
O31 O 0.59595 0.29488 0.17121 0.0
O32 O 0.45026 0.29583 0.40195 0.0
O33 O 0.42761 0.24419 0.28717 0.0
O34 O 0.46801 0.37136 0.25199 0.0
O35 O 0.52839 0.34729 0.18404 0.0
O36 O 0.47634 0.33523 0.00543 0.0
O37 O 0.43562 0.29686 0.12786 0.0
C38 C 0.59662 0.28574 0.26852 0.0
C39 C 0.4373 0.3231 0.04727 0.0
Dy40 Dy 0.04988 0.28862 0.8954 0.0
C41 C 0.92082 0.28279 0.56794 0.0
C42 C 0.10908 0.29117 0.05662 0.0
Dy43 Dy 0.98947 0.2809 0.71356 0.0
O44 O 0.0814 0.32588 0.03351 0.0
O45 O 0.10029 0.25323 -0.00298 0.0
O46 O 0.07483 0.35898 0.83889 0.0
O47 O 1.00574 0.34215 0.82274 0.0
C48 C 0.03511 0.37545 0.81282 0.0
C49 C 0.99887 0.1971 0.80971 0.0
O50 O 0.05971 0.2845 0.63726 0.0
O51 O 0.10104 0.26608 0.78008 0.0
O52 O 0.93878 0.24422 0.60428 0.0
O53 O 0.94346 0.32073 0.60475 0.0
O54 O 0.96137 0.2106 0.76656 0.0
O55 O 0.0303 0.22734 0.79458 0.0
O56 O 0.98304 0.27462 0.96948 0.0
O57 O 0.94358 0.30772 0.83852 0.0
C58 C 0.09927 0.27334 0.68258 0.0
C59 C 0.94507 0.29224 0.93106 0.0
Dy60 Dy 0.56315 0.76029 0.92143 0.0
C61 C 0.43083 0.80563 0.60168 0.0
C62 C 0.63148 0.71516 0.02309 0.0
Dy63 Dy 0.4996 0.78075 0.73217 0.0
O64 O 0.60803 0.75254 0.05845 0.0
O65 O 0.61341 0.70002 0.93757 0.0
O66 O 0.57594 0.837 0.98026 0.0
O67 O 0.5356 0.82383 0.85069 0.0
C68 C 0.55141 0.85704 0.91145 0.0
C69 C 0.50162 0.68855 0.7964 0.0
O70 O 0.56945 0.79153 0.66035 0.0
O71 O 0.61416 0.77313 0.80119 0.0
O72 O 0.45989 0.77002 0.58529 0.0
O73 O 0.44251 0.83017 0.68448 0.0
O74 O 0.46562 0.708 0.75757 0.0
O75 O 0.53427 0.71824 0.79358 0.0
O76 O 0.49274 0.75184 0.98617 0.0
O77 O 0.46006 0.80242 0.86979 0.0
C78 C 0.61006 0.78544 0.70622 0.0
C79 C 0.45866 0.77964 0.9551 0.0
H80 H 0.08093 0.45635 0.75961 0.0
H81 H 0.96962 0.40998 0.94464 0.0
H82 H 0.07613 0.53858 0.84051 0.0
H83 H 0.96597 0.4917 0.02799 0.0
H84 H 0.04102 0.62122 0.23509 0.0
H85 H 0.03051 0.54092 0.14548 0.0
H86 H 1.01453 0.61107 0.86389 0.0
H87 H 0.02375 0.69078 0.95344 0.0
C88 C 0.05464 0.46413 0.81553 0.0
C89 C 0.02515 0.42697 0.84427 0.0
C90 C 0.05211 0.51102 0.86241 0.0
C91 C 0.02091 0.5214 0.94116 0.0
C92 C 0.99046 0.48466 0.96792 0.0
C93 C 0.99218 0.43809 0.91917 0.0
C94 C 0.03415 0.61929 0.15457 0.0
C95 C 0.03282 0.662 0.10118 0.0
C96 C 0.02819 0.57352 0.10326 0.0
C97 C 0.02186 0.56981 -0.00243 0.0
C98 C 0.01951 0.61277 0.94507 0.0
C99 C 0.02456 0.6583 -0.00362 0.0
H100 H 0.56461 0.40854 0.05526 0.0
H101 H 0.44511 0.46204 0.21506 0.0
H102 H 0.56369 0.47973 0.95347 0.0
H103 H 0.4457 0.53516 0.11918 0.0
H104 H 0.42839 0.63984 0.86965 0.0
H105 H 0.42923 0.5663 0.96475 0.0
H106 H 0.57742 0.5614 0.94367 0.0
H107 H 0.57543 0.63203 0.84057 0.0
C108 C 0.53833 0.43578 0.06899 0.0
C109 C 0.50453 0.4292 0.14179 0.0
C110 C 0.538 0.47713 0.01141 0.0
C111 C 0.50436 0.51369 0.02675 0.0
C112 C 0.47147 0.50758 0.10253 0.0
C113 C 0.47141 0.4658 0.15869 0.0
C114 C 0.46105 0.62273 0.88501 0.0
C115 C 0.50208 0.64273 0.85081 0.0
C116 C 0.4617 0.58078 0.94079 0.0
C117 C 0.50351 0.55782 0.96444 0.0
C118 C 0.54442 0.57748 0.92752 0.0
C119 C 0.54356 0.61891 0.87035 0.0
H120 H 0.60446 0.92835 -0.00632 0.0
H121 H 0.47166 0.90366 0.85368 0.0
H122 H 0.58374 1.01203 0.03935 0.0
H123 H 0.44985 0.98813 0.90225 0.0
H124 H 0.45344 0.15941 0.91928 0.0
H125 H 0.46364 0.07293 0.87542 0.0
H126 H 0.53684 0.05705 0.15658 0.0
H127 H 0.52799 0.14427 0.1985 0.0
C128 C 0.5708 0.94114 0.97174 0.0
C129 C 0.53979 0.90953 0.91966 0.0
C130 C 0.55858 0.98902 -0.00048 0.0
C131 C 0.51463 1.00682 0.97719 0.0
C132 C 0.484 0.97574 0.92107 0.0
C133 C 0.49651 0.92745 0.89239 0.0
C134 C 0.471 0.13725 0.97271 0.0
C135 C 0.49052 0.15887 0.06178 0.0
C136 C 0.47674 0.08749 0.94753 0.0
C137 C 0.50203 0.05795 0.01105 0.0
C138 C 0.5183 0.07891 0.10422 0.0
C139 C 0.51272 0.12883 0.12921 0.0
H140 H 0.08053 0.92944 0.10444 0.0
H141 H 0.93664 0.95111 0.1666 0.0
H142 H 0.08118 1.00367 0.00971 0.0
H143 H 0.93766 1.02627 0.07886 0.0
H144 H 0.93458 0.12687 0.82495 0.0
H145 H 0.93908 0.05274 0.91577 0.0
H146 H 0.07711 0.09059 0.01408 0.0
H147 H 0.07307 0.16424 0.91762 0.0
C148 C 0.04908 0.94999 0.09766 0.0
C149 C 1.00829 0.9337 0.14072 0.0
C150 C 0.04952 0.99299 0.04461 0.0
C151 C 1.00924 1.02094 0.03465 0.0
C152 C 0.96905 1.00527 0.08165 0.0
C153 C 0.96854 0.96222 0.13314 0.0
C154 C 0.96602 0.11935 0.86557 0.0
C155 C 1.00336 0.15163 0.86461 0.0
C156 C 0.9685 0.07688 0.91876 0.0
C157 C 1.00821 0.06561 0.97425 0.0
C158 C 0.04601 0.09768 0.97203 0.0
C159 C 0.04365 0.14015 0.91742 0.0
H160 H 0.39801 0.75198 0.43697 0.0
H161 H 0.35775 0.86224 0.66277 0.0
H162 H 0.31915 0.74766 0.37306 0.0
H163 H 0.27865 0.85829 0.59839 0.0
H164 H 0.13071 0.8034 0.50907 0.0
H165 H 0.20893 0.80454 0.58293 0.0
H166 H 0.26612 0.79647 0.28305 0.0
H167 H 0.18993 0.79438 0.21095 0.0
C168 C 0.37247 0.77594 0.47184 0.0
C169 C 0.38444 0.80797 0.55391 0.0
C170 C 0.32708 0.77335 0.43558 0.0
C171 C 0.29219 0.80253 0.48069 0.0
C172 C 0.30431 0.83484 0.56252 0.0
C173 C 0.34987 0.83765 0.59837 0.0
C174 C 0.16009 0.80131 0.45949 0.0
C175 C 0.15371 0.79911 0.3541 0.0
C176 C 0.20492 0.80241 0.50155 0.0
C177 C 0.24409 0.80057 0.43896 0.0
C178 C 0.23721 0.79732 0.33401 0.0
C179 C 0.19305 0.79656 0.29257 0.0
H180 H 0.18156 0.249 0.76386 0.0
H181 H 0.12075 0.28854 0.4809 0.0
H182 H 0.25641 0.24632 0.6887 0.0
H183 H 0.19777 0.28537 0.40424 0.0
H184 H 0.34102 0.22189 0.29323 0.0
H185 H 0.26279 0.22521 0.35905 0.0
H186 H 0.31225 0.30518 0.62734 0.0
H187 H 0.39049 0.30231 0.56079 0.0
C188 C 0.18382 0.25716 0.68505 0.0
C189 C 0.14437 0.26934 0.6289 0.0
C190 C 0.22735 0.25584 0.6421 0.0
C191 C 0.23349 0.26625 0.54088 0.0
C192 C 0.19422 0.27715 0.48278 0.0
C193 C 0.15007 0.279 0.52655 0.0
C194 C 0.33532 0.23966 0.36695 0.0
C195 C 0.37223 0.26117 0.42264 0.0
C196 C 0.29029 0.24214 0.40391 0.0
C197 C 0.28103 0.26553 0.49834 0.0
C198 C 0.31811 0.28654 0.55453 0.0
C199 C 0.36305 0.28471 0.51683 0.0
H200 H 0.87558 0.35996 0.4869 0.0
H201 H 0.8603 0.20735 0.54018 0.0
H202 H 0.79662 0.36149 0.42053 0.0
H203 H 0.7814 0.20904 0.47577 0.0
H204 H 0.62467 0.24685 0.44923 0.0
H205 H 0.703 0.24642 0.52126 0.0
H206 H 0.752 0.32566 0.27134 0.0
H207 H 0.67513 0.32585 0.19977 0.0
C208 C 0.8556 0.32665 0.48346 0.0
C209 C 0.87463 0.28344 0.51774 0.0
C210 C 0.81022 0.32751 0.44587 0.0
C211 C 0.7823 0.28542 0.44342 0.0
C212 C 0.8015 0.24226 0.47761 0.0
C213 C 0.84705 0.2412 0.51341 0.0
C214 C 0.65213 0.26434 0.41011 0.0
C215 C 0.64316 0.28619 0.31837 0.0
C216 C 0.69712 0.2639 0.45102 0.0
C217 C 0.73401 0.28616 0.40226 0.0
C218 C 0.72465 0.30864 0.31175 0.0
C219 C 0.68024 0.30838 0.27033 0.0
H220 H 0.86287 0.71592 0.38166 0.0
H221 H 0.8946 0.85158 0.54609 0.0
H222 H 0.78399 0.72015 0.4444 0.0
H223 H 0.81592 0.85617 0.60818 0.0
H224 H 0.68952 0.8182 0.79196 0.0
H225 H 0.76597 0.81716 0.72174 0.0
H226 H 0.71066 0.76579 0.43212 0.0
H227 H 0.63289 0.76596 0.5044 0.0
C228 C 0.85321 0.74632 0.43243 0.0
C229 C 0.88535 0.78307 0.46003 0.0
C230 C 0.8077 0.74914 0.46716 0.0
C231 C 0.79315 0.78864 0.53112 0.0
C232 C 0.8257 0.82494 0.55987 0.0
C233 C 0.87102 0.82226 0.52459 0.0
C234 C 0.69327 0.80723 0.71274 0.0
C235 C 0.65474 0.79219 0.65392 0.0
C236 C 0.73743 0.80684 0.67222 0.0
C237 C 0.74496 0.79128 0.57109 0.0
C238 C 0.70631 0.77752 0.51073 0.0
C239 C 0.66161 0.77825 0.55156 0.0
H240 H 0.41914 0.86352 0.01787 0.0
H241 H 0.39888 0.70796 -0.00059 0.0
H242 H 0.33704 0.87627 0.01442 0.0
H243 H 0.31568 0.72016 0.00209 0.0
H244 H 0.18118 0.75284 0.84718 0.0
H245 H 0.26339 0.74298 0.87709 0.0
H246 H 0.26344 0.8744 0.07203 0.0
H247 H 0.18278 0.88594 0.03553 0.0
C248 C 0.39679 0.832 0.01971 0.0
C249 C 0.4151 0.78482 0.00862 0.0
C250 C 0.34948 0.83922 0.01654 0.0
C251 C 0.31945 0.79923 0.00425 0.0
C252 C 0.33786 0.75184 0.00754 0.0
C253 C 0.38548 0.74468 0.00923 0.0
C254 C 0.19938 0.78053 0.89301 0.0
C255 C 0.17565 0.82032 0.93806 0.0
C256 C 0.24621 0.77423 0.91272 0.0
C257 C 0.27005 0.8071 0.97959 0.0
C258 C 0.24662 0.84836 0.01988 0.0
C259 C 0.2002 0.85526 -0.00191 0.0
H260 H 0.14746 0.3804 0.0981 0.0
H261 H 0.17793 0.22634 0.08389 0.0
H262 H 0.22835 0.39858 0.07513 0.0
H263 H 0.2592 0.24455 0.06515 0.0
H264 H 0.38461 0.27568 0.90588 0.0
H265 H 0.3012 0.27262 0.92127 0.0
H266 H 0.30626 0.39656 0.13609 0.0
H267 H 0.38916 0.40046 0.11663 0.0
C268 C 0.17172 0.35047 0.09469 0.0
C269 C 0.15638 0.30185 0.0905 0.0
C270 C 0.21805 0.36092 0.08025 0.0
C271 C 0.24972 0.3229 0.06334 0.0
C272 C 0.23514 0.27456 0.07303 0.0
C273 C 0.1888 0.26411 0.08642 0.0
C274 C 0.36739 0.30417 0.95085 0.0
C275 C 0.39289 0.33848 0.00955 0.0
C276 C 0.31989 0.30156 0.96236 0.0
C277 C 0.29756 0.33299 0.03353 0.0
C278 C 0.32247 0.37149 0.08158 0.0
C279 C 0.36989 0.37433 0.06905 0.0
H280 H 0.66168 0.21141 0.93901 0.0
H281 H 0.67029 0.36407 0.87866 0.0
H282 H 0.74248 0.20968 0.97544 0.0
H283 H 0.75333 0.36117 0.90282 0.0
H284 H 0.89317 0.36307 0.02208 0.0
H285 H 0.80947 0.36053 0.02358 0.0
H286 H 0.81452 0.2078 0.92335 0.0
H287 H 0.89719 0.21004 0.93368 0.0
C288 C 0.68136 0.24426 0.929 0.0
C289 C 0.65963 0.28808 0.90673 0.0
C290 C 0.72811 0.24327 0.95017 0.0
C291 C 0.75491 0.28552 0.94443 0.0
C292 C 0.7337 0.32834 0.9125 0.0
C293 C 0.6863 0.32981 0.89547 0.0
C294 C 0.87587 0.32848 0.00709 0.0
C295 C 0.90098 0.28661 0.97898 0.0
C296 C 0.82799 0.3272 0.0044 0.0
C297 C 0.80481 0.2845 0.96922 0.0
C298 C 0.83048 0.24148 0.95117 0.0
C299 C 0.87816 0.24245 0.95789 0.0
H300 H 0.88368 0.85758 0.01811 0.0
H301 H 0.92884 0.70994 0.95414 0.0
H302 H 0.80389 0.83032 0.01165 0.0
H303 H 0.84943 0.68197 0.95128 0.0
H304 H 0.69155 0.65906 0.9128 0.0
H305 H 0.77169 0.6799 0.88758 0.0
H306 H 0.76512 0.78567 0.14021 0.0
H307 H 0.6843 0.76626 0.16263 0.0
C308 C 0.8763 0.81973 -0.00328 0.0
C309 C 0.91201 0.78584 0.98574 0.0
C310 C 0.8308 0.80381 -0.00387 0.0
C311 C 0.82063 0.75371 0.98549 0.0
C312 C 0.85614 0.72072 0.96078 0.0
C313 C 0.90162 0.73681 0.9605 0.0
C314 C 0.70763 0.68563 0.96515 0.0
C315 C 0.68146 0.71182 0.03841 0.0
C316 C 0.75346 0.69793 0.94986 0.0
C317 C 0.77405 0.73596 0.00891 0.0
C318 C 0.74947 0.75773 0.09043 0.0
C319 C 0.70351 0.74577 0.10506 0.0
loop_
_geom_bond_atom_site_label_1
_geom_bond_atom_site_label_2
_geom_bond_distance
_geom_bond_site_symmetry_2
_ccdc_geom_bond_type
Dy0 O4 2.398 1_554 S
Dy0 O5 2.491 . S
Dy0 O6 2.403 . S
Dy0 O7 2.664 1_455 S
Dy0 O11 2.326 . S
Dy0 O15 2.310 . S
Dy0 O16 2.351 1_455 S
C1 O12 1.185 . S
C1 O13 1.355 . S
C2 O4 1.185 . S
C2 O5 1.355 1_556 S
Dy3 O7 2.310 . S
Dy3 O10 2.351 1_655 S
Dy3 O12 2.398 . S
Dy3 O13 2.491 . S
Dy3 O14 2.403 . S
Dy3 O15 2.664 1_655 S
Dy3 O17 2.326 . S
O4 Dy0 2.398 1_556 S
O4 C2 1.185 . S
O5 Dy0 2.491 . S
O5 C2 1.355 1_554 S
O6 Dy0 2.403 . S
O6 C8 1.254 . S
O7 Dy0 2.664 1_655 S
O7 Dy3 2.310 . S
O7 C8 1.268 1_655 S
C8 O6 1.254 . S
C8 O7 1.268 1_455 S
C9 O14 1.254 1_455 S
C9 O15 1.268 . S
O10 Dy3 2.351 1_455 S
O10 C18 1.249 . S
O11 Dy0 2.326 . S
O11 C18 1.267 . S
O12 C1 1.185 . S
O12 Dy3 2.398 . S
O13 C1 1.355 . S
O13 Dy3 2.491 . S
O14 Dy3 2.403 . S
O14 C9 1.254 1_655 S
O15 Dy0 2.310 . S
O15 Dy3 2.664 1_455 S
O15 C9 1.268 . S
O16 Dy0 2.351 1_655 S
O16 C19 1.249 . S
O17 Dy3 2.326 . S
O17 C19 1.267 . S
C18 O10 1.249 . S
C18 O11 1.267 . S
C19 O16 1.249 . S
C19 O17 1.267 . S
Dy20 O24 2.398 1_554 S
Dy20 O25 2.491 . S
Dy20 O26 2.403 . S
Dy20 O27 2.664 . S
Dy20 O31 2.326 . S
Dy20 O35 2.310 . S
Dy20 O36 2.351 . S
C21 O32 1.185 . S
C21 O33 1.355 . S
C22 O24 1.185 . S
C22 O25 1.355 1_556 S
Dy23 O27 2.310 . S
Dy23 O30 2.351 . S
Dy23 O32 2.398 . S
Dy23 O33 2.491 . S
Dy23 O34 2.403 . S
Dy23 O35 2.664 . S
Dy23 O37 2.326 . S
O24 Dy20 2.398 1_556 S
O24 C22 1.185 . S
O25 Dy20 2.491 . S
O25 C22 1.355 1_554 S
O26 Dy20 2.403 . S
O26 C28 1.254 . S
O27 Dy20 2.664 . S
O27 Dy23 2.310 . S
O27 C28 1.268 . S
C28 O26 1.254 . S
C28 O27 1.268 . S
C29 O34 1.254 . S
C29 O35 1.268 . S
O30 Dy23 2.351 . S
O30 C38 1.249 . S
O31 Dy20 2.326 . S
O31 C38 1.267 . S
O32 C21 1.185 . S
O32 Dy23 2.398 . S
O33 C21 1.355 . S
O33 Dy23 2.491 . S
O34 Dy23 2.403 . S
O34 C29 1.254 . S
O35 Dy20 2.310 . S
O35 Dy23 2.664 . S
O35 C29 1.268 . S
O36 Dy20 2.351 . S
O36 C39 1.249 . S
O37 Dy23 2.326 . S
O37 C39 1.267 . S
C38 O30 1.249 . S
C38 O31 1.267 . S
C39 O36 1.249 . S
C39 O37 1.267 . S
Dy40 O44 2.398 1_556 S
Dy40 O45 2.491 . S
Dy40 O46 2.403 . S
Dy40 O47 2.664 1_455 S
Dy40 O51 2.326 . S
Dy40 O55 2.310 . S
Dy40 O56 2.351 1_455 S
C41 O52 1.185 . S
C41 O53 1.355 . S
C42 O44 1.185 . S
C42 O45 1.355 1_554 S
Dy43 O47 2.310 . S
Dy43 O50 2.351 1_655 S
Dy43 O52 2.398 . S
Dy43 O53 2.491 . S
Dy43 O54 2.403 . S
Dy43 O55 2.664 1_655 S
Dy43 O57 2.326 . S
O44 Dy40 2.398 1_554 S
O44 C42 1.185 . S
O45 Dy40 2.491 . S
O45 C42 1.355 1_556 S
O46 Dy40 2.403 . S
O46 C48 1.254 . S
O47 Dy40 2.664 1_655 S
O47 Dy43 2.310 . S
O47 C48 1.268 1_655 S
C48 O46 1.254 . S
C48 O47 1.268 1_455 S
C49 O54 1.254 1_455 S
C49 O55 1.268 . S
O50 Dy43 2.351 1_455 S
O50 C58 1.249 . S
O51 Dy40 2.326 . S
O51 C58 1.267 . S
O52 C41 1.185 . S
O52 Dy43 2.398 . S
O53 C41 1.355 . S
O53 Dy43 2.491 . S
O54 Dy43 2.403 . S
O54 C49 1.254 1_655 S
O55 Dy40 2.310 . S
O55 Dy43 2.664 1_455 S
O55 C49 1.268 . S
O56 Dy40 2.351 1_655 S
O56 C59 1.249 . S
O57 Dy43 2.326 . S
O57 C59 1.267 . S
C58 O50 1.249 . S
C58 O51 1.267 . S
C59 O56 1.249 . S
C59 O57 1.267 . S
Dy60 O64 2.398 1_556 S
Dy60 O65 2.491 . S
Dy60 O66 2.403 . S
Dy60 O67 2.664 . S
Dy60 O71 2.326 . S
Dy60 O75 2.310 . S
Dy60 O76 2.351 . S
C61 O72 1.185 . S
C61 O73 1.355 . S
C62 O64 1.185 . S
C62 O65 1.355 1_554 S
Dy63 O67 2.310 . S
Dy63 O70 2.351 . S
Dy63 O72 2.398 . S
Dy63 O73 2.491 . S
Dy63 O74 2.403 . S
Dy63 O75 2.664 . S
Dy63 O77 2.326 . S
O64 Dy60 2.398 1_554 S
O64 C62 1.185 . S
O65 Dy60 2.491 . S
O65 C62 1.355 1_556 S
O66 Dy60 2.403 . S
O66 C68 1.254 . S
O67 Dy60 2.664 . S
O67 Dy63 2.310 . S
O67 C68 1.268 . S
C68 O66 1.254 . S
C68 O67 1.268 . S
C69 O74 1.254 . S
C69 O75 1.268 . S
O70 Dy63 2.351 . S
O70 C78 1.249 . S
O71 Dy60 2.326 . S
O71 C78 1.267 . S
O72 C61 1.185 . S
O72 Dy63 2.398 . S
O73 C61 1.355 . S
O73 Dy63 2.491 . S
O74 Dy63 2.403 . S
O74 C69 1.254 . S
O75 Dy60 2.310 . S
O75 Dy63 2.664 . S
O75 C69 1.268 . S
O76 Dy60 2.351 . S
O76 C79 1.249 . S
O77 Dy63 2.326 . S
O77 C79 1.267 . S
C78 O70 1.249 . S
C78 O71 1.267 . S
C79 O76 1.249 . S
C79 O77 1.267 . S
H80 C88 0.950 . S
H81 C93 0.950 . S
H82 C90 0.950 . S
H83 C92 0.950 . S
H84 C94 0.950 . S
H85 C96 0.950 . S
H86 C98 0.950 . S
H87 C99 0.950 . S
C88 H80 0.950 . S
C88 C89 1.386 1_455 S
C88 C90 1.391 . S
C89 C88 1.386 1_655 S
C89 C93 1.393 . S
C90 H82 0.950 . S
C90 C88 1.391 . S
C90 C91 1.400 1_455 S
C91 C90 1.400 1_655 S
C91 C92 1.398 1_556 S
C91 C97 1.491 1_556 S
C92 H83 0.950 . S
C92 C91 1.398 1_554 S
C92 C93 1.391 1_554 S
C93 H81 0.950 . S
C93 C89 1.393 . S
C93 C92 1.391 1_556 S
C94 H84 0.950 . S
C94 C95 1.394 . S
C94 C96 1.391 . S
C95 C94 1.394 . S
C95 C99 1.385 1_655 S
C96 H85 0.950 . S
C96 C94 1.391 . S
C96 C97 1.400 . S
C97 C91 1.491 1_554 S
C97 C96 1.400 . S
C97 C98 1.398 1_654 S
C98 H86 0.950 . S
C98 C97 1.398 1_456 S
C98 C99 1.391 1_556 S
C99 H87 0.950 . S
C99 C95 1.385 1_455 S
C99 C98 1.391 1_554 S
H100 C108 0.950 . S
H101 C113 0.950 . S
H102 C110 0.950 . S
H103 C112 0.950 . S
H104 C114 0.950 . S
H105 C116 0.950 . S
H106 C118 0.950 . S
H107 C119 0.950 . S
C108 H100 0.950 . S
C108 C109 1.386 . S
C108 C110 1.391 . S
C109 C108 1.386 . S
C109 C113 1.393 . S
C110 H102 0.950 . S
C110 C108 1.391 . S
C110 C111 1.400 . S
C111 C110 1.400 . S
C111 C112 1.398 . S
C111 C117 1.491 1_554 S
C112 H103 0.950 . S
C112 C111 1.398 . S
C112 C113 1.391 . S
C113 H101 0.950 . S
C113 C109 1.393 . S
C113 C112 1.391 . S
C114 H104 0.950 . S
C114 C115 1.386 . S
C114 C116 1.391 . S
C115 C114 1.386 . S
C115 C119 1.393 . S
C116 H105 0.950 . S
C116 C114 1.391 . S
C116 C117 1.400 . S
C117 C111 1.491 1_556 S
C117 C116 1.400 . S
C117 C118 1.398 . S
C118 H106 0.950 . S
C118 C117 1.398 . S
C118 C119 1.391 . S
C119 H107 0.950 . S
C119 C115 1.393 . S
C119 C118 1.391 . S
H120 C128 0.950 . S
H121 C133 0.950 . S
H122 C130 0.950 . S
H123 C132 0.950 . S
H124 C134 0.950 . S
H125 C136 0.950 . S
H126 C138 0.950 . S
H127 C139 0.950 . S
C128 H120 0.950 . S
C128 C129 1.386 . S
C128 C130 1.391 . S
C129 C128 1.386 . S
C129 C133 1.393 . S
C130 H122 0.950 . S
C130 C128 1.391 . S
C130 C131 1.400 . S
C131 C130 1.400 . S
C131 C132 1.398 . S
C131 C137 1.491 1_566 S
C132 H123 0.950 . S
C132 C131 1.398 . S
C132 C133 1.391 . S
C133 H121 0.950 . S
C133 C129 1.393 . S
C133 C132 1.391 . S
C134 H124 0.950 . S
C134 C135 1.386 . S
C134 C136 1.391 . S
C135 C134 1.386 . S
C135 C139 1.393 . S
C136 H125 0.950 . S
C136 C134 1.391 . S
C136 C137 1.400 . S
C137 C131 1.491 1_544 S
C137 C136 1.400 . S
C137 C138 1.398 . S
C138 H126 0.950 . S
C138 C137 1.398 . S
C138 C139 1.391 . S
C139 H127 0.950 . S
C139 C135 1.393 . S
C139 C138 1.391 . S
H140 C148 0.950 . S
H141 C153 0.950 . S
H142 C150 0.950 . S
H143 C152 0.950 . S
H144 C154 0.950 . S
H145 C156 0.950 . S
H146 C158 0.950 . S
H147 C159 0.950 . S
C148 H140 0.950 . S
C148 C149 1.386 . S
C148 C150 1.391 . S
C149 C148 1.386 . S
C149 C153 1.393 1_455 S
C150 H142 0.950 . S
C150 C148 1.391 . S
C150 C151 1.400 . S
C151 C150 1.400 . S
C151 C152 1.398 1_455 S
C151 C157 1.491 1_564 S
C152 H143 0.950 . S
C152 C151 1.398 1_655 S
C152 C153 1.391 . S
C153 H141 0.950 . S
C153 C149 1.393 1_655 S
C153 C152 1.391 . S
C154 H144 0.950 . S
C154 C155 1.386 1_655 S
C154 C156 1.391 . S
C155 C154 1.386 1_455 S
C155 C159 1.393 . S
C156 H145 0.950 . S
C156 C154 1.391 . S
C156 C157 1.400 1_655 S
C157 C151 1.491 1_546 S
C157 C156 1.400 1_455 S
C157 C158 1.398 . S
C158 H146 0.950 . S
C158 C157 1.398 . S
C158 C159 1.391 . S
C159 H147 0.950 . S
C159 C155 1.393 . S
C159 C158 1.391 . S
H160 C168 0.950 . S
H161 C173 0.950 . S
H162 C170 0.950 . S
H163 C172 0.950 . S
H164 C174 0.950 . S
H165 C176 0.950 . S
H166 C178 0.950 . S
H167 C179 0.950 . S
C168 H160 0.950 . S
C168 C169 1.386 . S
C168 C170 1.391 . S
C169 C168 1.386 . S
C169 C173 1.393 . S
C170 H162 0.950 . S
C170 C168 1.391 . S
C170 C171 1.400 . S
C171 C170 1.400 . S
C171 C172 1.398 . S
C171 C177 1.491 . S
C172 H163 0.950 . S
C172 C171 1.398 . S
C172 C173 1.391 . S
C173 H161 0.950 . S
C173 C169 1.393 . S
C173 C172 1.391 . S
C174 H164 0.950 . S
C174 C175 1.386 . S
C174 C176 1.391 . S
C175 C174 1.386 . S
C175 C179 1.393 . S
C176 H165 0.950 . S
C176 C174 1.391 . S
C176 C177 1.400 . S
C177 C171 1.491 . S
C177 C176 1.400 . S
C177 C178 1.398 . S
C178 H166 0.950 . S
C178 C177 1.398 . S
C178 C179 1.391 . S
C179 H167 0.950 . S
C179 C175 1.393 . S
C179 C178 1.391 . S
H180 C188 0.950 . S
H181 C193 0.950 . S
H182 C190 0.950 . S
H183 C192 0.950 . S
H184 C194 0.950 . S
H185 C196 0.950 . S
H186 C198 0.950 . S
H187 C199 0.950 . S
C188 H180 0.950 . S
C188 C189 1.386 . S
C188 C190 1.391 . S
C189 C188 1.386 . S
C189 C193 1.393 . S
C190 H182 0.950 . S
C190 C188 1.391 . S
C190 C191 1.400 . S
C191 C190 1.400 . S
C191 C192 1.398 . S
C191 C197 1.491 . S
C192 H183 0.950 . S
C192 C191 1.398 . S
C192 C193 1.391 . S
C193 H181 0.950 . S
C193 C189 1.393 . S
C193 C192 1.391 . S
C194 H184 0.950 . S
C194 C195 1.386 . S
C194 C196 1.391 . S
C195 C194 1.386 . S
C195 C199 1.393 . S
C196 H185 0.950 . S
C196 C194 1.391 . S
C196 C197 1.400 . S
C197 C191 1.491 . S
C197 C196 1.400 . S
C197 C198 1.398 . S
C198 H186 0.950 . S
C198 C197 1.398 . S
C198 C199 1.391 . S
C199 H187 0.950 . S
C199 C195 1.393 . S
C199 C198 1.391 . S
H200 C208 0.950 . S
H201 C213 0.950 . S
H202 C210 0.950 . S
H203 C212 0.950 . S
H204 C214 0.950 . S
H205 C216 0.950 . S
H206 C218 0.950 . S
H207 C219 0.950 . S
C208 H200 0.950 . S
C208 C209 1.386 . S
C208 C210 1.391 . S
C209 C208 1.386 . S
C209 C213 1.393 . S
C210 H202 0.950 . S
C210 C208 1.391 . S
C210 C211 1.400 . S
C211 C210 1.400 . S
C211 C212 1.398 . S
C211 C217 1.491 . S
C212 H203 0.950 . S
C212 C211 1.398 . S
C212 C213 1.391 . S
C213 H201 0.950 . S
C213 C209 1.393 . S
C213 C212 1.391 . S
C214 H204 0.950 . S
C214 C215 1.386 . S
C214 C216 1.391 . S
C215 C214 1.386 . S
C215 C219 1.393 . S
C216 H205 0.950 . S
C216 C214 1.391 . S
C216 C217 1.400 . S
C217 C211 1.491 . S
C217 C216 1.400 . S
C217 C218 1.398 . S
C218 H206 0.950 . S
C218 C217 1.398 . S
C218 C219 1.391 . S
C219 H207 0.950 . S
C219 C215 1.393 . S
C219 C218 1.391 . S
H220 C228 0.950 . S
H221 C233 0.950 . S
H222 C230 0.950 . S
H223 C232 0.950 . S
H224 C234 0.950 . S
H225 C236 0.950 . S
H226 C238 0.950 . S
H227 C239 0.950 . S
C228 H220 0.950 . S
C228 C229 1.386 . S
C228 C230 1.391 . S
C229 C228 1.386 . S
C229 C233 1.393 . S
C230 H222 0.950 . S
C230 C228 1.391 . S
C230 C231 1.400 . S
C231 C230 1.400 . S
C231 C232 1.398 . S
C231 C237 1.491 . S
C232 H223 0.950 . S
C232 C231 1.398 . S
C232 C233 1.391 . S
C233 H221 0.950 . S
C233 C229 1.393 . S
C233 C232 1.391 . S
C234 H224 0.950 . S
C234 C235 1.386 . S
C234 C236 1.391 . S
C235 C234 1.386 . S
C235 C239 1.393 . S
C236 H225 0.950 . S
C236 C234 1.391 . S
C236 C237 1.400 . S
C237 C231 1.491 . S
C237 C236 1.400 . S
C237 C238 1.398 . S
C238 H226 0.950 . S
C238 C237 1.398 . S
C238 C239 1.391 . S
C239 H227 0.950 . S
C239 C235 1.393 . S
C239 C238 1.391 . S
H240 C248 0.950 1_554 S
H241 C253 0.950 . S
H242 C250 0.950 1_554 S
H243 C252 0.950 . S
H244 C254 0.950 . S
H245 C256 0.950 . S
H246 C258 0.950 . S
H247 C259 0.950 . S
C248 H240 0.950 1_556 S
C248 C249 1.386 . S
C248 C250 1.391 . S
C249 C248 1.386 . S
C249 C253 1.393 . S
C250 H242 0.950 1_556 S
C250 C248 1.391 . S
C250 C251 1.400 . S
C251 C250 1.400 . S
C251 C252 1.398 . S
C251 C257 1.491 . S
C252 H243 0.950 . S
C252 C251 1.398 . S
C252 C253 1.391 . S
C253 H241 0.950 . S
C253 C249 1.393 . S
C253 C252 1.391 . S
C254 H244 0.950 . S
C254 C255 1.386 . S
C254 C256 1.391 . S
C255 C254 1.386 . S
C255 C259 1.393 1_556 S
C256 H245 0.950 . S
C256 C254 1.391 . S
C256 C257 1.400 . S
C257 C251 1.491 . S
C257 C256 1.400 . S
C257 C258 1.398 1_556 S
C258 H246 0.950 . S
C258 C257 1.398 1_554 S
C258 C259 1.391 . S
C259 H247 0.950 . S
C259 C255 1.393 1_554 S
C259 C258 1.391 . S
H260 C268 0.950 . S
H261 C273 0.950 . S
H262 C270 0.950 . S
H263 C272 0.950 . S
H264 C274 0.950 . S
H265 C276 0.950 . S
H266 C278 0.950 . S
H267 C279 0.950 . S
C268 H260 0.950 . S
C268 C269 1.386 1_556 S
C268 C270 1.391 . S
C269 C268 1.386 1_554 S
C269 C273 1.393 . S
C270 H262 0.950 . S
C270 C268 1.391 . S
C270 C271 1.400 1_556 S
C271 C270 1.400 1_554 S
C271 C272 1.398 . S
C271 C277 1.491 . S
C272 H263 0.950 . S
C272 C271 1.398 . S
C272 C273 1.391 . S
C273 H261 0.950 . S
C273 C269 1.393 . S
C273 C272 1.391 . S
C274 H264 0.950 . S
C274 C275 1.386 . S
C274 C276 1.391 . S
C275 C274 1.386 . S
C275 C279 1.393 1_554 S
C276 H265 0.950 . S
C276 C274 1.391 . S
C276 C277 1.400 . S
C277 C271 1.491 . S
C277 C276 1.400 . S
C277 C278 1.398 1_554 S
C278 H266 0.950 . S
C278 C277 1.398 1_556 S
C278 C279 1.391 . S
C279 H267 0.950 . S
C279 C275 1.393 1_556 S
C279 C278 1.391 . S
H280 C288 0.950 . S
H281 C293 0.950 . S
H282 C290 0.950 . S
H283 C292 0.950 . S
H284 C294 0.950 . S
H285 C296 0.950 . S
H286 C298 0.950 . S
H287 C299 0.950 . S
C288 H280 0.950 . S
C288 C289 1.386 1_554 S
C288 C290 1.391 . S
C289 C288 1.386 1_556 S
C289 C293 1.393 . S
C290 H282 0.950 . S
C290 C288 1.391 . S
C290 C291 1.400 1_554 S
C291 C290 1.400 1_556 S
C291 C292 1.398 . S
C291 C297 1.491 . S
C292 H283 0.950 . S
C292 C291 1.398 . S
C292 C293 1.391 . S
C293 H281 0.950 . S
C293 C289 1.393 . S
C293 C292 1.391 . S
C294 H284 0.950 . S
C294 C295 1.386 . S
C294 C296 1.391 . S
C295 C294 1.386 . S
C295 C299 1.393 1_556 S
C296 H285 0.950 . S
C296 C294 1.391 . S
C296 C297 1.400 . S
C297 C291 1.491 . S
C297 C296 1.400 . S
C297 C298 1.398 1_556 S
C298 H286 0.950 . S
C298 C297 1.398 1_554 S
C298 C299 1.391 . S
C299 H287 0.950 . S
C299 C295 1.393 1_554 S
C299 C298 1.391 . S
H300 C308 0.950 . S
H301 C313 0.950 . S
H302 C310 0.950 . S
H303 C312 0.950 . S
H304 C314 0.950 . S
H305 C316 0.950 . S
H306 C318 0.950 . S
H307 C319 0.950 . S
C308 H300 0.950 . S
C308 C309 1.386 . S
C308 C310 1.391 . S
C309 C308 1.386 . S
C309 C313 1.393 . S
C310 H302 0.950 . S
C310 C308 1.391 . S
C310 C311 1.400 . S
C311 C310 1.400 . S
C311 C312 1.398 . S
C311 C317 1.491 . S
C312 H303 0.950 . S
C312 C311 1.398 . S
C312 C313 1.391 . S
C313 H301 0.950 . S
C313 C309 1.393 . S
C313 C312 1.391 . S
C314 H304 0.950 . S
C314 C315 1.386 . S
C314 C316 1.391 . S
C315 C314 1.386 . S
C315 C319 1.393 . S
C316 H305 0.950 . S
C316 C314 1.391 . S
C316 C317 1.400 . S
C317 C311 1.491 . S
C317 C316 1.400 . S
C317 C318 1.398 . S
C318 H306 0.950 . S
C318 C317 1.398 . S
C318 C319 1.391 . S
C319 H307 0.950 . S
C319 C315 1.393 . S
C319 C318 1.391 . S
C89 C48 1.744 1_655 S
C95 C8 1.732 1_655 S
C109 C29 1.985 . S
C115 C69 1.985 . S
C129 C68 1.750 . S
C135 C28 1.750 . S
C149 C9 1.984 . S
C155 C49 1.986 . S
C169 C61 1.525 . S
C175 C18 1.532 . S
C189 C58 1.532 . S
C195 C21 1.516 . S
C209 C41 1.515 . S
C215 C38 1.528 . S
C229 C1 1.521 . S
C235 C78 1.522 . S
C249 C79 0.988 . S
C255 C2 1.008 . S
C269 C42 1.016 . S
C275 C39 1.015 . S
C289 C22 1.018 . S
C295 C59 1.016 . S
C309 C19 1.014 . S
C315 C62 1.022 . S
