# Generated by pormake.
# Topology sxc, (6)-cn, num edge types: 1
# Building blocks:
#     Node 0, Type 0, BuildingBlock: BETFAJ_clean_sbu_0, # of connection points: 6
#     Node 1, Type 0, BuildingBlock: BETFAJ_clean_sbu_0, # of connection points: 6
#     Node 2, Type 0, BuildingBlock: BETFAJ_clean_sbu_0, # of connection points: 6
#     Edge 3, Type (0, 0), BuildingBlock: ZUJKAS_clean_linker_0, # of connection points: 2
#     Edge 4, Type (0, 0), BuildingBlock: ZUJKAS_clean_linker_0, # of connection points: 2
#     Edge 5, Type (0, 0), BuildingBlock: ZUJKAS_clean_linker_0, # of connection points: 2
#     Edge 6, Type (0, 0), BuildingBlock: ZUJKAS_clean_linker_0, # of connection points: 2
#     Edge 7, Type (0, 0), BuildingBlock: ZUJKAS_clean_linker_0, # of connection points: 2
#     Edge 8, Type (0, 0), BuildingBlock: ZUJKAS_clean_linker_0, # of connection points: 2
#     Edge 9, Type (0, 0), BuildingBlock: ZUJKAS_clean_linker_0, # of connection points: 2
#     Edge 10, Type (0, 0), BuildingBlock: ZUJKAS_clean_linker_0, # of connection points: 2
#     Edge 11, Type (0, 0), BuildingBlock: ZUJKAS_clean_linker_0, # of connection points: 2
# Relax obj value: 0.213
# Max RMSD: 0.143
# Mean RMSD: 0.078
data_MOF--net-sxc--node1-BETFAJ_clean_sbu_0--edge1-ZUJKAS_clean_linker_0
_symmetry_space_group_name_H-M    P1
_symmetry_Int_Tables_number       1
_symmetry_cell_setting            triclinic
loop_
_symmetry_equiv_pos_as_xyz
'x, y, z'
_cell_length_a     20.314556
_cell_length_b     21.434705
_cell_length_c     58.312197
_cell_angle_alpha  94.707232
_cell_angle_beta   91.026649
_cell_angle_gamma 94.574795
loop_
_atom_site_label
_atom_site_type_symbol
_atom_site_fract_x
_atom_site_fract_y
_atom_site_fract_z
_atom_type_partial_charge
Sm0 Sm 0.1734 0.12817 0.00746 0.0
Sm1 Sm 1.03628 0.12292 0.01126 0.0
C2 C 0.29835 0.15244 0.99653 0.0
C3 C 0.34101 0.21013 0.99437 0.0
C4 C 0.31546 0.2629 0.98585 0.0
C5 C 0.3547 0.31937 0.98592 0.0
C6 C 0.42007 0.32411 0.99459 0.0
C7 C 0.44597 0.27073 0.00258 0.0
C8 C 0.40667 0.21418 0.00247 0.0
C9 C 0.13626 0.12268 0.05267 0.0
C10 C 0.10275 0.26857 0.01072 0.0
C11 C 0.91176 0.09798 0.02253 0.0
C12 C 0.8682 1.04008 0.0232 0.0
C13 C 0.8923 0.98554 0.03081 0.0
C14 C 0.85226 0.92932 0.02939 0.0
C15 C 0.78749 0.92657 0.02027 0.0
C16 C 0.76307 0.98156 0.0131 0.0
C17 C 0.80316 1.03788 0.01457 0.0
C18 C 0.0724 0.12934 0.96603 0.0
C19 C 0.107 0.98238 0.00787 0.0
O20 O 0.25031 0.13965 0.98124 0.0
O21 O 0.27999 0.14296 0.01737 0.0
O22 O 0.11331 0.15815 0.03867 0.0
O23 O 0.17859 1.08785 0.04275 0.0
O24 O 0.156 0.23785 0.0055 0.0
O25 O 1.04851 0.23415 0.01588 0.0
O26 O 0.96071 0.10668 0.03761 0.0
O27 O 0.92912 0.1122 0.00205 0.0
O28 O 0.0966 1.09413 0.97989 0.0
O29 O 1.02827 0.16196 0.97594 0.0
O30 O 1.05342 1.01298 0.01268 0.0
O31 O 0.16161 1.01691 0.00316 0.0
H32 H 0.26473 0.261 0.97964 0.0
H33 H 0.3331 0.35988 0.97993 0.0
H34 H 0.4964 0.27289 0.00914 0.0
H35 H 0.42708 0.17396 0.00917 0.0
H36 H 0.94253 0.98591 0.03739 0.0
H37 H 0.87275 0.88756 0.03477 0.0
H38 H 0.71311 0.98094 0.00622 0.0
H39 H 0.78384 1.07946 0.00854 0.0
Sm40 Sm 0.10626 0.19396 0.3463 0.0
Sm41 Sm 0.0943 1.06586 0.34336 0.0
C42 C 0.09093 0.31133 0.33816 0.0
C43 C 0.06928 0.33693 0.31682 0.0
C44 C 0.1022 0.32506 0.29608 0.0
C45 C 0.07922 0.34663 0.27571 0.0
C46 C 1.02279 0.38047 0.27563 0.0
C47 C 0.98883 0.39068 0.29626 0.0
C48 C 1.012 0.36929 0.31666 0.0
C49 C 0.11879 0.1548 0.39043 0.0
C50 C 0.95905 0.12437 0.34643 0.0
C51 C 0.10107 0.94293 0.34055 0.0
C52 C 0.10694 0.90086 0.3197 0.0
C53 C 0.08569 0.83718 0.31943 0.0
C54 C 0.08451 0.79886 0.29884 0.0
C55 C 0.10453 0.82374 0.27817 0.0
C56 C 0.12668 0.88757 0.27864 0.0
C57 C 0.12781 0.92581 0.29924 0.0
C58 C 0.0826 0.10909 0.29963 0.0
C59 C 0.24342 0.13376 0.34618 0.0
O60 O 0.14835 0.28804 0.33799 0.0
O61 O 1.04603 0.27637 0.34794 0.0
O62 O 0.07719 0.13021 0.37526 0.0
O63 O 0.15312 0.20181 0.38278 0.0
O64 O 0.99532 0.16779 0.33656 0.0
O65 O 0.98947 1.08051 0.35572 0.0
O66 O 0.15204 0.98276 0.34589 0.0
O67 O 1.04541 0.96908 0.34204 0.0
O68 O 0.12538 0.12976 0.31486 0.0
O69 O 1.04442 1.06511 0.30733 0.0
O70 O 0.2057 1.08667 0.35331 0.0
O71 O 0.21517 0.18133 0.33856 0.0
H72 H 0.14605 0.29946 0.29558 0.0
H73 H 0.1071 0.33874 0.26023 0.0
H74 H 0.94476 0.41601 0.29671 0.0
H75 H 0.98506 0.37789 0.33232 0.0
H76 H 1.06837 0.8175 0.33497 0.0
H77 H 1.06594 0.75012 0.29899 0.0
H78 H 0.14278 0.90801 0.2631 0.0
H79 H 0.14369 0.97525 0.2991 0.0
Sm80 Sm 0.10388 1.04185 0.68067 0.0
Sm81 Sm 0.11783 0.19455 0.67417 0.0
C82 C 0.08653 0.93211 0.69789 0.0
C83 C 1.03648 0.87965 0.69278 0.0
C84 C 1.02793 0.83187 0.7077 0.0
C85 C 0.97502 0.78598 0.70409 0.0
C86 C 0.93005 0.78757 0.68554 0.0
C87 C 0.94025 0.83468 0.67028 0.0
C88 C 0.99292 0.88039 0.67391 0.0
C89 C 0.09347 1.06594 0.63445 0.0
C90 C 0.96885 0.11875 0.67661 0.0
C91 C 0.13442 0.30453 0.65698 0.0
C92 C 0.18519 0.35677 0.66109 0.0
C93 C 0.19382 0.402 0.64516 0.0
C94 C 0.24836 0.44636 0.64733 0.0
C95 C 0.29496 0.44576 0.66545 0.0
C96 C 0.28457 0.40154 0.68181 0.0
C97 C 0.23023 0.35733 0.67961 0.0
C98 C 0.12918 0.16957 0.72029 0.0
C99 C 0.25278 0.11785 0.67824 0.0
O100 O 1.06357 0.98322 0.70744 0.0
O101 O 0.12799 0.94294 0.68139 0.0
O102 O 0.10219 0.10451 0.65194 0.0
O103 O 0.08837 1.00975 0.64144 0.0
O104 O 0.9956 1.06765 0.68256 0.0
O105 O 1.00465 0.16957 0.67086 0.0
O106 O 0.15602 0.2532 0.64714 0.0
O107 O 0.09515 0.29415 0.67413 0.0
O108 O 0.1195 0.13166 0.70271 0.0
O109 O 0.13499 0.22597 0.71349 0.0
O110 O 0.226 0.16868 0.67204 0.0
O111 O 0.21701 1.06728 0.68423 0.0
H112 H 1.061 0.83104 0.72243 0.0
H113 H 0.9686 0.74996 0.71603 0.0
H114 H 0.90588 0.83793 0.65609 0.0
H115 H 0.99838 0.91763 0.66242 0.0
H116 H 0.15969 0.40167 0.63065 0.0
H117 H 0.25488 0.48019 0.63458 0.0
H118 H 0.3201 0.3991 0.69572 0.0
H119 H 0.22481 0.32192 0.69183 0.0
H120 H 0.20697 0.36037 0.00319 0.0
H121 H 0.20701 0.47524 0.00307 0.0
H122 H 0.99918 0.46225 0.01661 0.0
H123 H 0.99968 0.34823 0.01743 0.0
H124 H 0.16293 0.56093 0.98023 0.0
H125 H 1.03529 0.60452 0.06173 0.0
H126 H 1.06228 0.52843 0.05287 0.0
H127 H 0.98539 0.5521 0.04178 0.0
C128 C 0.161 0.38151 0.00638 0.0
C129 C 0.10345 0.34209 0.01058 0.0
C130 C 0.16095 0.44872 0.00625 0.0
C131 C 0.10348 0.48163 0.01044 0.0
C132 C 1.04576 0.4418 0.01419 0.0
H133 H 1.00252 0.89043 0.01498 0.0
H134 H 1.0025 0.77558 0.01514 0.0
C135 C 1.04586 0.37477 0.01441 0.0
C136 C 0.10376 0.55567 0.01031 0.0
H137 H 1.04682 0.69004 0.03836 0.0
C138 C 0.13761 0.58843 0.99321 0.0
C139 C 0.07129 0.59543 0.02682 0.0
C140 C 1.0371 0.56854 0.04696 0.0
C141 C 0.13851 0.65553 0.99179 0.0
C142 C 0.10599 0.69528 0.00829 0.0
C143 C 0.07214 0.66252 0.02539 0.0
C144 C 0.10626 0.7693 0.00814 0.0
C145 C 0.17287 0.68248 0.9717 0.0
C146 C 0.1641 0.80916 0.00459 0.0
C147 C 0.16401 0.87621 0.00437 0.0
C148 C 0.10629 0.90884 0.00798 0.0
C149 C 1.0486 0.86935 0.01197 0.0
C150 C 1.04866 0.80214 0.01212 0.0
H151 H 0.17489 0.64653 0.95693 0.0
H152 H 0.14768 0.72256 0.96577 0.0
H153 H 0.2245 0.69903 0.97695 0.0
H154 H 0.21073 0.78873 0.00231 0.0
H155 H 0.21028 0.90279 0.00151 0.0
H156 H 0.3364 0.22189 0.33191 0.0
H157 H 0.45673 0.2189 0.332 0.0
H158 H 0.43833 1.04142 0.36206 0.0
H159 H 0.31806 1.04354 0.36167 0.0
H160 H 0.54699 0.21616 0.367 0.0
H161 H 0.55457 1.00011 0.30836 0.0
H162 H 0.4806 1.04077 0.31215 0.0
H163 H 0.50471 0.98903 0.33302 0.0
C164 C 0.35783 0.18206 0.33849 0.0
C165 C 0.31707 0.13279 0.34667 0.0
C166 C 0.42688 0.18044 0.33855 0.0
C167 C 0.45715 0.12938 0.34664 0.0
C168 C 0.41658 1.08065 0.35517 0.0
H169 H 0.86811 1.03839 0.36323 0.0
H170 H 0.74752 1.04039 0.36365 0.0
C171 C 0.34754 1.08217 0.35509 0.0
C172 C 0.53096 0.1278 0.34655 0.0
H173 H 0.65573 1.04003 0.32719 0.0
C174 C 0.57064 0.17774 0.35818 0.0
C175 C 0.56245 1.07773 0.3351 0.0
C176 C 0.5235 1.02415 0.32126 0.0
C177 C 0.64019 0.17848 0.35902 0.0
C178 C 0.67161 0.12838 0.34761 0.0
C179 C 0.632 1.07839 0.33602 0.0
C180 C 0.74538 0.12728 0.34731 0.0
C181 C 0.67938 0.23238 0.3726 0.0
C182 C 0.78488 0.17489 0.33771 0.0
C183 C 0.8539 0.17379 0.33741 0.0
C184 C 0.88543 0.1249 0.34664 0.0
C185 C 0.84577 1.07689 0.35603 0.0
C186 C 0.77664 1.07793 0.35626 0.0
H187 H 0.64837 0.25746 0.38523 0.0
H188 H 0.72185 0.21576 0.38196 0.0
H189 H 0.69899 0.26655 0.36061 0.0
H190 H 0.76226 0.21283 0.33024 0.0
H191 H 0.88256 0.21145 0.32992 0.0
H192 H 0.84825 0.75073 0.71938 0.0
H193 H 0.74213 0.68845 0.71473 0.0
H194 H 0.76786 0.66489 0.64136 0.0
H195 H 0.87459 0.72683 0.64587 0.0
H196 H 0.6469 0.71025 0.65436 0.0
H197 H 0.69651 0.49964 0.69917 0.0
H198 H 0.7197 0.57267 0.71574 0.0
H199 H 0.76171 0.55294 0.68959 0.0
C200 C 0.83221 0.73092 0.70232 0.0
C201 C 0.86979 0.7436 0.68298 0.0
C202 C 0.7715 0.69545 0.6997 0.0
C203 C 0.74759 0.67171 0.67774 0.0
C204 C 0.78568 0.68281 0.65845 0.0
H205 H 0.37424 0.4739 0.62978 0.0
H206 H 0.48282 0.5324 0.63199 0.0
C207 C 0.84643 0.71828 0.66106 0.0
C208 C 0.6807 0.63928 0.67479 0.0
H209 H 0.58369 0.51381 0.69084 0.0
C210 C 0.63309 0.66698 0.66214 0.0
C211 C 0.6631 0.58303 0.68505 0.0
C212 C 0.71305 0.54992 0.69797 0.0
C213 C 0.56761 0.64069 0.65997 0.0
C214 C 0.54983 0.58497 0.67052 0.0
C215 C 0.59761 0.55685 0.68293 0.0
C216 C 0.48191 0.55464 0.66884 0.0
C217 C 0.5176 0.67349 0.64695 0.0
C218 C 0.44556 0.54814 0.68884 0.0
C219 C 0.38346 0.515 0.68763 0.0
C220 C 0.35693 0.48741 0.66641 0.0
C221 C 0.39281 0.49553 0.64632 0.0
C222 C 0.45491 0.52875 0.64755 0.0
H223 H 0.53552 0.72275 0.64444 0.0
H224 H 0.5078 0.64803 0.62973 0.0
H225 H 0.47017 0.67363 0.65612 0.0
H226 H 0.46575 0.56789 0.70543 0.0
H227 H 0.35669 0.51002 0.70336 0.0
H228 H 0.87692 1.02274 0.68538 0.0
H229 H 0.75657 1.02309 0.68523 0.0
H230 H 0.77225 0.21525 0.66789 0.0
H231 H 0.89263 0.21513 0.66764 0.0
H232 H 0.67639 0.0953 0.71154 0.0
H233 H 0.63879 0.13516 0.61967 0.0
H234 H 0.71628 0.11359 0.63098 0.0
H235 H 0.69497 0.19355 0.635 0.0
C236 C 0.855 1.06513 0.68141 0.0
C237 C 0.89509 0.11885 0.6764 0.0
C238 C 0.78588 1.06523 0.68137 0.0
C239 C 0.75477 0.11883 0.67619 0.0
C240 C 0.7946 0.17272 0.6714 0.0
H241 H 0.34461 0.2138 0.66934 0.0
H242 H 0.46496 0.21355 0.66949 0.0
C243 C 0.86376 0.17268 0.67141 0.0
C244 C 0.68093 0.11869 0.67638 0.0
H245 H 0.54526 0.14155 0.64332 0.0
C246 C 0.64776 0.1051 0.69657 0.0
C247 C 0.64313 0.1316 0.65691 0.0
C248 C 0.67493 0.14372 0.63434 0.0
C249 C 0.57851 0.10526 0.69796 0.0
C250 C 0.5407 0.11814 0.67848 0.0
C251 C 0.57389 0.13174 0.6583 0.0
C252 C 0.46687 0.11794 0.67867 0.0
C253 C 0.54674 1.09323 0.72054 0.0
C254 C 0.42708 1.06409 0.68353 0.0
C255 C 0.35791 1.06408 0.68353 0.0
C256 C 0.32654 0.11781 0.67846 0.0
C257 C 0.36657 0.17148 0.67337 0.0
C258 C 0.43569 0.17144 0.67342 0.0
H259 H 0.58287 0.10195 0.73521 0.0
H260 H 0.50532 0.1233 0.72387 0.0
H261 H 0.52681 1.04338 0.71992 0.0
H262 H 0.44947 1.02162 0.6871 0.0
H263 H 0.32908 1.02166 0.68735 0.0
H264 H 0.77287 0.83729 0.05107 0.0
H265 H 0.70971 0.73479 0.04557 0.0
H266 H 0.64599 0.77688 0.97801 0.0
H267 H 0.71016 0.87886 0.98314 0.0
H268 H 0.57096 0.70884 0.03531 0.0
H269 H 0.72776 0.60592 0.96717 0.0
H270 H 0.75515 0.67524 0.98564 0.0
H271 H 0.6984 0.6806 0.96204 0.0
C272 C 0.74568 0.82454 0.035 0.0
C273 C 0.74662 0.86594 0.0175 0.0
C274 C 0.70947 0.76621 0.03194 0.0
C275 C 0.67408 0.74819 0.01128 0.0
C276 C 0.67385 0.78975 0.99394 0.0
H277 H 0.43117 0.41 0.96237 0.0
H278 H 0.49189 0.51395 0.96633 0.0
C279 C 0.7099 0.84817 -0.003 0.0
C280 C 0.63702 0.68592 0.00799 0.0
H281 H 0.63057 0.54496 0.9759 0.0
C282 C 0.58396 0.6729 0.02237 0.0
C283 C 0.65426 0.63946 0.99103 0.0
C284 C 0.71231 0.65054 0.97567 0.0
C285 C 0.5471 0.61451 0.0201 0.0
C286 C 0.5647 0.56785 0.00328 0.0
C287 C 0.61741 0.58102 0.98877 0.0
C288 C 0.52942 0.50469 0.00073 0.0
C289 C 0.48907 0.60347 0.03548 0.0
C290 C 0.53167 0.46497 0.01861 0.0
C291 C 0.49708 0.40581 0.01644 0.0
C292 C 0.45983 0.38536 0.99628 0.0
C293 C 0.45885 0.42484 0.97819 0.0
C294 C 0.49365 0.48397 0.98037 0.0
H295 H 0.47246 0.64826 0.04342 0.0
H296 H 0.44682 0.57709 0.0257 0.0
H297 H 0.50367 0.57512 0.04954 0.0
H298 H 0.55988 0.47993 0.03432 0.0
H299 H 0.49826 0.3767 0.03074 0.0
H300 H 1.0206 0.33377 0.22995 0.0
H301 H 1.01015 0.39427 0.19621 0.0
H302 H 0.97648 0.55805 0.24142 0.0
H303 H 0.98586 0.49871 0.27444 0.0
H304 H 0.90556 0.55551 0.19933 0.0
H305 H 0.16456 0.51117 0.18053 0.0
H306 H 0.09814 0.44971 0.17835 0.0
H307 H 0.13334 0.47886 0.20611 0.0
C308 C 1.00959 0.38244 0.2325 0.0
C309 C 1.00458 0.41165 0.25489 0.0
C310 C 1.00351 0.41685 0.21321 0.0
C311 C 0.99301 0.48095 0.21615 0.0
C312 C 0.98351 0.50846 0.23847 0.0
H313 H 0.13737 0.70334 0.27122 0.0
H314 H 0.11257 0.63068 0.23763 0.0
C315 C 0.98905 0.47434 0.25753 0.0
C316 C 1.00324 0.52391 0.19758 0.0
H317 H 0.14296 0.61772 0.19105 0.0
C318 C 0.95703 0.56891 0.19619 0.0
C319 C 1.06886 0.54034 0.19127 0.0
C320 C 0.11918 0.49242 0.18883 0.0
C321 C 0.97879 0.63299 0.19744 0.0
C322 C 1.04762 0.65007 0.19874 0.0
C323 C 0.09043 0.60428 0.19166 0.0
C324 C 0.07395 0.69934 0.21668 0.0
C325 C 0.92902 0.68082 0.20184 0.0
C326 C 1.06225 0.76286 0.21613 0.0
C327 C 0.07495 0.8045 0.23583 0.0
C328 C 0.10001 0.78315 0.25623 0.0
C329 C 0.11649 0.72087 0.25602 0.0
C330 C 0.10326 0.67948 0.23658 0.0
H331 H 0.87772 0.66036 0.19783 0.0
H332 H 0.93211 0.6992 0.22023 0.0
H333 H 0.93959 0.72075 0.19114 0.0
H334 H 1.04065 0.77961 0.20092 0.0
H335 H 1.06195 0.85242 0.23544 0.0
H336 H 0.16636 0.19297 0.2785 0.0
H337 H 0.17215 0.2078 0.23719 0.0
H338 H 1.01523 1.06118 0.22308 0.0
H339 H 1.00758 1.04825 0.26417 0.0
H340 H 0.20335 0.13186 0.20206 0.0
H341 H 0.94852 0.19064 0.1853 0.0
H342 H 0.98226 0.18952 0.21408 0.0
H343 H 0.94858 0.1178 0.19835 0.0
C344 C 0.13242 0.16471 0.26659 0.0
C345 C 0.08606 0.11991 0.27471 0.0
C346 C 0.13589 0.17299 0.24292 0.0
C347 C 0.09323 0.13653 0.2268 0.0
C348 C 1.04736 1.09145 0.235 0.0
H349 H 0.17208 1.04115 0.08307 0.0
H350 H 0.16111 1.04847 0.1248 0.0
C351 C 1.04344 1.08366 0.25859 0.0
C352 C 0.09891 0.14273 0.2014 0.0
H353 H 1.00814 0.15474 0.15207 0.0
C354 C 0.16067 0.13754 0.19122 0.0
C355 C 1.04387 0.15164 0.18703 0.0
C356 C 0.97729 0.16344 0.19679 0.0
C357 C 0.16833 0.13833 0.16725 0.0
C358 C 0.1123 0.14232 0.15268 0.0
C359 C 1.05107 0.15032 0.16296 0.0
C360 C 0.1161 0.13693 0.12686 0.0
C361 C 0.23694 0.13574 0.1579 0.0
C362 C 0.09125 0.18229 0.11357 0.0
C363 C 0.09622 0.17739 0.08943 0.0
C364 C 0.12638 0.12711 0.07804 0.0
C365 C 0.14945 1.081 0.09128 0.0
C366 C 0.14375 1.08547 0.11527 0.0
H367 H 0.27511 0.15504 0.17104 0.0
H368 H 0.24617 1.08608 0.15312 0.0
H369 H 0.24307 0.16244 0.14244 0.0
H370 H 1.06897 0.22217 0.12191 0.0
H371 H 0.07769 0.21358 0.07974 0.0
H372 H 1.04346 1.0643 0.4114 0.0
H373 H 1.03706 1.05072 0.45283 0.0
H374 H 0.18 0.20927 0.46739 0.0
H375 H 0.18698 0.22278 0.42619 0.0
H376 H 0.14576 1.03294 0.48524 0.0
H377 H 1.02134 0.24965 0.50923 0.0
H378 H 1.02126 0.21432 0.48001 0.0
H379 H 0.09366 0.25947 0.49214 0.0
C380 C 0.07352 0.09623 0.42344 0.0
C381 C 0.11546 0.14483 0.41544 0.0
C382 C 0.06982 1.08844 0.44713 0.0
C383 C 0.1073 0.12954 0.46335 0.0
C384 C 0.14973 0.17758 0.45533 0.0
H385 H 0.14555 0.17041 0.61421 0.0
H386 H 0.14858 0.18608 0.57297 0.0
C387 C 0.15388 0.18504 0.4317 0.0
C388 C 0.10314 0.12175 0.48858 0.0
H389 H 1.05732 0.19369 0.53979 0.0
C390 C 0.12607 1.0679 0.49715 0.0
C391 C 0.07823 0.16767 0.50424 0.0
C392 C 1.0517 0.22592 0.49603 0.0
C393 C 0.12583 1.05918 0.52087 0.0
C394 C 0.09986 0.10464 0.53658 0.0
C395 C 0.07708 0.15864 0.52794 0.0
C396 C 0.0955 0.09671 0.56189 0.0
C397 C 0.15553 1.00214 0.52887 0.0
C398 C 1.06314 1.0423 0.56973 0.0
C399 C 1.06173 1.0334 0.59328 0.0
C400 C 0.09119 1.07929 0.60976 0.0
C401 C 0.1214 0.1348 0.60207 0.0
C402 C 0.12352 0.14346 0.5784 0.0
H403 H 0.19152 0.98388 0.5164 0.0
H404 H 0.18102 1.01282 0.54591 0.0
H405 H 0.11569 0.96427 0.53037 0.0
H406 H 1.03918 1.00626 0.5576 0.0
H407 H 1.03766 0.9902 0.59861 0.0
H408 H 0.20161 0.23543 0.75493 0.0
H409 H 0.20146 0.21995 0.79597 0.0
H410 H 1.05924 1.05986 0.78262 0.0
H411 H 1.0625 1.07361 0.74128 0.0
H412 H 0.113 0.23241 0.8246 0.0
H413 H 0.17227 0.98602 0.82682 0.0
H414 H 0.18006 1.0269 0.80107 0.0
H415 H 0.10093 0.99148 0.80882 0.0
C416 C 0.17146 0.19602 0.76071 0.0
C417 C 0.1329 0.15511 0.7448 0.0
C418 C 0.1711 0.18728 0.78428 0.0
C419 C 0.131 0.13812 0.79278 0.0
C420 C 0.09249 0.0969 0.77676 0.0
H421 H 0.99418 0.17242 0.93355 0.0
H422 H 1.00965 0.17132 0.8922 0.0
C423 C 0.09413 0.10482 0.75302 0.0
C424 C 0.12615 0.13372 0.81838 0.0
H425 H 0.12657 1.03289 0.86113 0.0
C426 C 0.11667 0.18865 0.83247 0.0
C427 C 0.13187 1.0772 0.82913 0.0
C428 C 0.14758 1.01728 0.81569 0.0
C429 C 0.11181 0.18869 0.85654 0.0
C430 C 0.11328 0.1315 0.86712 0.0
C431 C 0.12426 1.07669 0.85318 0.0
C432 C 0.10225 0.12787 0.89244 0.0
C433 C 0.10678 0.2508 0.87035 0.0
C434 C 0.14699 0.1005 0.90662 0.0
C435 C 0.13717 0.09957 0.93048 0.0
C436 C 0.08264 0.12638 0.94068 0.0
C437 C 1.03727 0.15217 0.92639 0.0
C438 C 1.0464 0.15206 0.90263 0.0
H439 H 0.12972 0.29041 0.86131 0.0
H440 H 1.05395 0.25889 0.87263 0.0
H441 H 0.13116 0.25175 0.88758 0.0
H442 H 0.19022 1.08089 0.8993 0.0
H443 H 0.17288 1.07909 0.94097 0.0
loop_
_geom_bond_atom_site_label_1
_geom_bond_atom_site_label_2
_geom_bond_distance
_geom_bond_site_symmetry_2
_ccdc_geom_bond_type
Sm0 C2 2.846 . S
Sm0 O20 2.543 1_554 S
Sm0 O21 2.450 . S
Sm0 O22 2.681 1_455 S
Sm0 O23 2.464 . S
Sm0 O24 2.396 . S
Sm0 O28 2.386 1_554 S
Sm0 O31 2.408 1_545 S
Sm1 C11 2.843 1_546 S
Sm1 O22 2.386 1_556 S
Sm1 O25 2.408 1_556 S
Sm1 O26 2.543 1_546 S
Sm1 O27 2.450 1_545 S
Sm1 O28 2.681 1_655 S
Sm1 O29 2.464 1_545 S
Sm1 O30 2.396 1_545 S
C2 Sm0 2.846 . S
C2 C3 1.506 . S
C2 O20 1.261 1_554 S
C2 O21 1.242 . S
C3 C2 1.506 . S
C3 C4 1.358 1_554 S
C3 C8 1.382 . S
C4 C3 1.358 1_556 S
C4 C5 1.385 . S
C4 H32 0.930 . S
C5 C4 1.385 . S
C5 C6 1.382 1_556 S
C5 H33 0.929 . S
C6 C5 1.382 1_554 S
C6 C7 1.350 . S
C7 C6 1.350 . S
C7 C8 1.398 . S
C7 H34 0.930 . S
C8 C3 1.382 . S
C8 C7 1.398 . S
C8 H35 0.929 . S
C9 O22 1.271 1_455 S
C9 O23 1.251 . S
C10 O24 1.250 . S
C10 O25 1.273 1_455 S
C11 Sm1 2.843 1_564 S
C11 C12 1.508 . S
C11 O26 1.276 . S
C11 O27 1.225 1_554 S
C12 C11 1.508 . S
C12 C13 1.358 . S
C12 C17 1.382 1_554 S
C13 C12 1.358 . S
C13 C14 1.385 . S
C13 H36 0.930 . S
C14 C13 1.385 . S
C14 C15 1.395 . S
C14 H37 0.929 . S
C15 C14 1.395 . S
C15 C16 1.335 1_554 S
C16 C15 1.335 1_556 S
C16 C17 1.398 . S
C16 H38 0.930 . S
C17 C12 1.382 1_556 S
C17 C16 1.398 . S
C17 H39 0.929 . S
C18 O28 1.271 1_655 S
C18 O29 1.250 1_545 S
C19 O30 1.252 1_455 S
C19 O31 1.272 1_556 S
O20 Sm0 2.543 1_556 S
O20 C2 1.261 1_556 S
O21 Sm0 2.450 . S
O21 C2 1.242 . S
O22 Sm0 2.681 1_655 S
O22 Sm1 2.386 1_554 S
O22 C9 1.271 1_655 S
O23 Sm0 2.464 . S
O23 C9 1.251 . S
O24 Sm0 2.396 . S
O24 C10 1.250 . S
O25 Sm1 2.408 1_554 S
O25 C10 1.273 1_655 S
O26 Sm1 2.543 1_564 S
O26 C11 1.276 . S
O27 Sm1 2.450 1_565 S
O27 C11 1.225 1_556 S
O28 Sm0 2.386 1_556 S
O28 Sm1 2.681 1_455 S
O28 C18 1.271 1_455 S
O29 Sm1 2.464 1_565 S
O29 C18 1.250 1_565 S
O30 Sm1 2.396 1_565 S
O30 C19 1.252 1_655 S
O31 Sm0 2.408 1_565 S
O31 C19 1.272 1_554 S
H32 C4 0.930 . S
H33 C5 0.929 . S
H34 C7 0.930 . S
H35 C8 0.929 . S
H36 C13 0.930 . S
H37 C14 0.929 . S
H38 C16 0.930 . S
H39 C17 0.929 . S
Sm40 C42 2.846 . S
Sm40 O60 2.543 . S
Sm40 O61 2.450 . S
Sm40 O62 2.681 . S
Sm40 O63 2.464 . S
Sm40 O64 2.396 1_455 S
Sm40 O68 2.386 . S
Sm40 O71 2.408 . S
Sm41 C51 2.845 1_655 S
Sm41 O62 2.386 1_665 S
Sm41 O65 2.410 . S
Sm41 O66 2.541 1_655 S
Sm41 O67 2.449 1_655 S
Sm41 O68 2.681 1_665 S
Sm41 O69 2.463 1_655 S
Sm41 O70 2.393 1_655 S
C42 Sm40 2.846 . S
C42 C43 1.506 . S
C42 O60 1.261 . S
C42 O61 1.242 . S
C43 C42 1.506 . S
C43 C44 1.358 1_455 S
C43 C48 1.382 . S
C44 C43 1.358 1_655 S
C44 C45 1.385 . S
C44 H72 0.930 . S
C45 C44 1.385 . S
C45 C46 1.395 . S
C45 H73 0.929 . S
C46 C45 1.395 . S
C46 C47 1.327 1_655 S
C47 C46 1.327 1_455 S
C47 C48 1.407 . S
C47 H74 0.929 . S
C48 C43 1.382 . S
C48 C47 1.407 . S
C48 H75 0.929 . S
C49 O62 1.271 . S
C49 O63 1.251 . S
C50 O64 1.252 . S
C50 O65 1.272 1_545 S
C51 Sm41 2.845 1_455 S
C51 C52 1.506 . S
C51 O66 1.261 . S
C51 O67 1.242 . S
C52 C51 1.506 . S
C52 C53 1.358 . S
C52 C57 1.382 . S
C53 C52 1.358 . S
C53 C54 1.385 . S
C53 H76 0.930 . S
C54 C53 1.385 . S
C54 C55 1.395 . S
C54 H77 0.929 . S
C55 C54 1.395 . S
C55 C56 1.335 . S
C56 C55 1.335 . S
C56 C57 1.398 . S
C56 H78 0.930 . S
C57 C52 1.382 . S
C57 C56 1.398 . S
C57 H79 0.929 . S
C58 O68 1.271 . S
C58 O69 1.251 1_545 S
C59 O70 1.252 1_545 S
C59 O71 1.272 . S
O60 Sm40 2.543 . S
O60 C42 1.261 . S
O61 Sm40 2.450 . S
O61 C42 1.242 . S
O62 Sm40 2.681 . S
O62 Sm41 2.386 1_445 S
O62 C49 1.271 . S
O63 Sm40 2.464 . S
O63 C49 1.251 . S
O64 Sm40 2.396 1_655 S
O64 C50 1.252 . S
O65 Sm41 2.410 . S
O65 C50 1.272 1_565 S
O66 Sm41 2.541 1_455 S
O66 C51 1.261 . S
O67 Sm41 2.449 1_455 S
O67 C51 1.242 . S
O68 Sm40 2.386 . S
O68 Sm41 2.681 1_445 S
O68 C58 1.271 . S
O69 Sm41 2.463 1_455 S
O69 C58 1.251 1_565 S
O70 Sm41 2.393 1_455 S
O70 C59 1.252 1_565 S
O71 Sm40 2.408 . S
O71 C59 1.272 . S
H72 C44 0.930 . S
H73 C45 0.929 . S
H74 C47 0.929 . S
H75 C48 0.929 . S
H76 C53 0.930 . S
H77 C54 0.929 . S
H78 C56 0.930 . S
H79 C57 0.929 . S
Sm80 C82 2.846 1_455 S
Sm80 O100 2.543 1_455 S
Sm80 O101 2.450 1_455 S
Sm80 O102 2.681 1_565 S
Sm80 O103 2.464 . S
Sm80 O104 2.396 1_455 S
Sm80 O108 2.386 1_565 S
Sm80 O111 2.408 . S
Sm81 C91 2.846 . S
Sm81 O102 2.386 . S
Sm81 O105 2.408 1_455 S
Sm81 O106 2.543 . S
Sm81 O107 2.450 . S
Sm81 O108 2.681 . S
Sm81 O109 2.464 . S
Sm81 O110 2.396 . S
C82 Sm80 2.846 1_655 S
C82 C83 1.506 . S
C82 O100 1.261 . S
C82 O101 1.242 . S
C83 C82 1.506 . S
C83 C84 1.358 . S
C83 C88 1.382 . S
C84 C83 1.358 . S
C84 C85 1.385 . S
C84 H112 0.930 . S
C85 C84 1.385 . S
C85 C86 1.395 . S
C85 H113 0.929 . S
C86 C85 1.395 . S
C86 C87 1.335 . S
C87 C86 1.335 . S
C87 C88 1.398 . S
C87 H114 0.930 . S
C88 C83 1.382 . S
C88 C87 1.398 . S
C88 H115 0.929 . S
C89 O102 1.271 1_565 S
C89 O103 1.252 . S
C90 O104 1.252 1_545 S
C90 O105 1.272 . S
C91 Sm81 2.846 . S
C91 C92 1.506 . S
C91 O106 1.261 . S
C91 O107 1.242 . S
C92 C91 1.506 . S
C92 C93 1.358 . S
C92 C97 1.382 . S
C93 C92 1.358 . S
C93 C94 1.385 . S
C93 H116 0.930 . S
C94 C93 1.385 . S
C94 C95 1.395 . S
C94 H117 0.929 . S
C95 C94 1.395 . S
C95 C96 1.335 . S
C96 C95 1.335 . S
C96 C97 1.398 . S
C96 H118 0.930 . S
C97 C92 1.382 . S
C97 C96 1.398 . S
C97 H119 0.929 . S
C98 O108 1.271 . S
C98 O109 1.251 . S
C99 O110 1.252 . S
C99 O111 1.272 1_545 S
O100 Sm80 2.543 1_655 S
O100 C82 1.261 . S
O101 Sm80 2.450 1_655 S
O101 C82 1.242 . S
O102 Sm80 2.681 1_545 S
O102 Sm81 2.386 . S
O102 C89 1.271 1_545 S
O103 Sm80 2.464 . S
O103 C89 1.252 . S
O104 Sm80 2.396 1_655 S
O104 C90 1.252 1_565 S
O105 Sm81 2.408 1_655 S
O105 C90 1.272 . S
O106 Sm81 2.543 . S
O106 C91 1.261 . S
O107 Sm81 2.450 . S
O107 C91 1.242 . S
O108 Sm80 2.386 1_545 S
O108 Sm81 2.681 . S
O108 C98 1.271 . S
O109 Sm81 2.464 . S
O109 C98 1.251 . S
O110 Sm81 2.396 . S
O110 C99 1.252 . S
O111 Sm80 2.408 . S
O111 C99 1.272 1_565 S
H112 C84 0.930 . S
H113 C85 0.929 . S
H114 C87 0.930 . S
H115 C88 0.929 . S
H116 C93 0.930 . S
H117 C94 0.929 . S
H118 C96 0.930 . S
H119 C97 0.929 . S
H120 C128 0.929 . S
H121 C130 0.930 . S
H122 C132 0.930 . S
H123 C135 0.929 . S
H124 C138 0.930 . S
H125 C140 0.960 . S
H126 C140 0.960 . S
H127 C140 0.960 . S
C128 H120 0.929 . S
C128 C129 1.377 . S
C128 C130 1.384 . S
C129 C128 1.377 . S
C129 C135 1.390 1_454 S
C130 H121 0.930 . S
C130 C128 1.384 . S
C130 C131 1.372 . S
C131 C130 1.372 . S
C131 C132 1.400 1_454 S
C131 C136 1.490 . S
C132 H122 0.930 . S
C132 C131 1.400 1_656 S
C132 C135 1.386 . S
H133 C149 0.930 . S
H134 C150 0.931 . S
C135 H123 0.929 . S
C135 C129 1.390 1_656 S
C135 C132 1.386 . S
C136 C131 1.490 . S
C136 C138 1.395 1_554 S
C136 C139 1.403 1_455 S
H137 C143 0.930 . S
C138 H124 0.930 . S
C138 C136 1.395 1_556 S
C138 C141 1.403 . S
C139 C136 1.403 1_655 S
C139 C140 1.524 . S
C139 C143 1.400 . S
C140 H125 0.960 . S
C140 H126 0.960 . S
C140 H127 0.960 . S
C140 C139 1.524 . S
C141 C138 1.403 . S
C141 C142 1.410 . S
C141 C145 1.495 . S
C142 C141 1.410 . S
C142 C143 1.363 1_456 S
C142 C144 1.483 . S
C143 H137 0.930 . S
C143 C139 1.400 . S
C143 C142 1.363 1_654 S
C144 C142 1.483 . S
C144 C146 1.381 1_556 S
C144 C150 1.383 1_455 S
C145 C141 1.495 . S
C145 H151 0.959 . S
C145 H152 0.961 . S
C145 H153 0.960 . S
C146 C144 1.381 1_554 S
C146 C147 1.394 . S
C146 H154 0.930 . S
C147 C146 1.394 . S
C147 C148 1.382 1_554 S
C147 H155 0.929 . S
C148 C147 1.382 1_556 S
C148 C149 1.378 1_455 S
C149 H133 0.930 . S
C149 C148 1.378 1_655 S
C149 C150 1.379 . S
C150 H134 0.931 . S
C150 C144 1.383 1_655 S
C150 C149 1.379 . S
H151 C145 0.959 . S
H152 C145 0.961 . S
H153 C145 0.960 . S
H154 C146 0.930 . S
H155 C147 0.929 . S
H156 C164 0.929 . S
H157 C166 0.930 . S
H158 C168 0.930 . S
H159 C171 0.929 . S
H160 C174 0.930 . S
H161 C176 0.960 . S
H162 C176 0.960 . S
H163 C176 0.960 1_565 S
C164 H156 0.929 . S
C164 C165 1.377 . S
C164 C166 1.384 . S
C165 C164 1.377 . S
C165 C171 1.390 1_545 S
C166 H157 0.930 . S
C166 C164 1.384 . S
C166 C167 1.372 . S
C167 C166 1.372 . S
C167 C168 1.400 1_545 S
C167 C172 1.490 . S
C168 H158 0.930 . S
C168 C167 1.400 1_565 S
C168 C171 1.386 . S
H169 C185 0.920 1_565 S
H170 C186 0.931 . S
C171 H159 0.929 . S
C171 C165 1.390 1_565 S
C171 C168 1.386 . S
C172 C167 1.490 . S
C172 C174 1.395 . S
C172 C175 1.403 . S
H173 C179 0.930 . S
C174 H160 0.930 . S
C174 C172 1.395 . S
C174 C177 1.403 . S
C175 C172 1.403 . S
C175 C176 1.524 . S
C175 C179 1.400 . S
C176 H161 0.960 . S
C176 H162 0.960 . S
C176 H163 0.960 1_545 S
C176 C175 1.524 . S
C177 C174 1.403 . S
C177 C178 1.392 . S
C177 C181 1.495 . S
C178 C177 1.392 . S
C178 C179 1.385 . S
C178 C180 1.478 . S
C179 H173 0.930 . S
C179 C175 1.400 . S
C179 C178 1.385 . S
C180 C178 1.478 . S
C180 C182 1.381 . S
C180 C186 1.383 1_545 S
C181 C177 1.495 . S
C181 H187 0.959 . S
C181 H188 0.961 . S
C181 H189 0.960 . S
C182 C180 1.381 . S
C182 C183 1.394 . S
C182 H190 0.930 . S
C183 C182 1.394 . S
C183 C184 1.383 . S
C183 H191 0.929 . S
C184 C183 1.383 . S
C184 C185 1.384 . S
C185 H169 0.920 1_545 S
C185 C184 1.384 . S
C185 C186 1.382 1_545 S
C186 H170 0.931 . S
C186 C180 1.383 1_565 S
C186 C185 1.382 1_565 S
H187 C181 0.959 . S
H188 C181 0.961 . S
H189 C181 0.960 . S
H190 C182 0.930 . S
H191 C183 0.929 . S
H192 C200 0.929 . S
H193 C202 0.930 . S
H194 C204 0.930 . S
H195 C207 0.929 . S
H196 C210 0.930 . S
H197 C212 0.960 . S
H198 C212 0.960 . S
H199 C212 0.960 . S
C200 H192 0.929 . S
C200 C201 1.377 . S
C200 C202 1.384 . S
C201 C200 1.377 . S
C201 C207 1.390 . S
C202 H193 0.930 . S
C202 C200 1.384 . S
C202 C203 1.372 . S
C203 C202 1.372 . S
C203 C204 1.400 . S
C203 C208 1.490 . S
C204 H194 0.930 . S
C204 C203 1.400 . S
C204 C207 1.386 . S
H205 C221 0.930 . S
H206 C222 0.931 . S
C207 H195 0.929 . S
C207 C201 1.390 . S
C207 C204 1.386 . S
C208 C203 1.490 . S
C208 C210 1.395 . S
C208 C211 1.403 . S
H209 C215 0.930 . S
C210 H196 0.930 . S
C210 C208 1.395 . S
C210 C213 1.403 . S
C211 C208 1.403 . S
C211 C212 1.524 . S
C211 C215 1.400 . S
C212 H197 0.960 . S
C212 H198 0.960 . S
C212 H199 0.960 . S
C212 C211 1.524 . S
C213 C210 1.403 . S
C213 C214 1.392 . S
C213 C217 1.495 . S
C214 C213 1.392 . S
C214 C215 1.385 . S
C214 C216 1.478 . S
C215 H209 0.930 . S
C215 C211 1.400 . S
C215 C214 1.385 . S
C216 C214 1.478 . S
C216 C218 1.381 . S
C216 C222 1.383 . S
C217 C213 1.495 . S
C217 H223 0.959 . S
C217 H224 0.961 . S
C217 H225 0.960 . S
C218 C216 1.381 . S
C218 C219 1.394 . S
C218 H226 0.930 . S
C219 C218 1.394 . S
C219 C220 1.383 . S
C219 H227 0.929 . S
C220 C219 1.383 . S
C220 C221 1.377 . S
C221 H205 0.930 . S
C221 C220 1.377 . S
C221 C222 1.379 . S
C222 H206 0.931 . S
C222 C216 1.383 . S
C222 C221 1.379 . S
H223 C217 0.959 . S
H224 C217 0.961 . S
H225 C217 0.960 . S
H226 C218 0.930 . S
H227 C219 0.929 . S
H228 C236 0.929 . S
H229 C238 0.930 . S
H230 C240 0.930 . S
H231 C243 0.929 . S
H232 C246 0.930 . S
H233 C248 0.960 . S
H234 C248 0.960 . S
H235 C248 0.960 . S
C236 H228 0.929 . S
C236 C237 1.377 1_565 S
C236 C238 1.384 . S
C237 C236 1.377 1_545 S
C237 C243 1.390 . S
C238 H229 0.930 . S
C238 C236 1.384 . S
C238 C239 1.372 1_565 S
C239 C238 1.372 1_545 S
C239 C240 1.400 . S
C239 C244 1.490 . S
C240 H230 0.930 . S
C240 C239 1.400 . S
C240 C243 1.386 . S
H241 C257 0.930 . S
H242 C258 0.931 . S
C243 H231 0.929 . S
C243 C237 1.390 . S
C243 C240 1.386 . S
C244 C239 1.490 . S
C244 C246 1.395 1_545 S
C244 C247 1.403 . S
H245 C251 0.930 . S
C246 H232 0.930 . S
C246 C244 1.395 1_565 S
C246 C249 1.403 . S
C247 C244 1.403 . S
C247 C248 1.524 . S
C247 C251 1.400 . S
C248 H233 0.960 . S
C248 H234 0.960 . S
C248 H235 0.960 . S
C248 C247 1.524 . S
C249 C246 1.403 . S
C249 C250 1.392 1_565 S
C249 C253 1.495 . S
C250 C249 1.392 1_545 S
C250 C251 1.385 . S
C250 C252 1.478 . S
C251 H245 0.930 . S
C251 C247 1.400 . S
C251 C250 1.385 . S
C252 C250 1.478 . S
C252 C254 1.381 1_545 S
C252 C258 1.383 . S
C253 C249 1.495 . S
C253 H259 0.959 . S
C253 H260 0.961 . S
C253 H261 0.960 . S
C254 C252 1.381 1_565 S
C254 C255 1.394 . S
C254 H262 0.930 . S
C255 C254 1.394 . S
C255 C256 1.383 1_565 S
C255 H263 0.929 . S
C256 C255 1.383 1_545 S
C256 C257 1.377 . S
C257 H241 0.930 . S
C257 C256 1.377 . S
C257 C258 1.379 . S
C258 H242 0.931 . S
C258 C252 1.383 . S
C258 C257 1.379 . S
H259 C253 0.959 . S
H260 C253 0.961 . S
H261 C253 0.960 . S
H262 C254 0.930 . S
H263 C255 0.929 . S
H264 C272 0.929 . S
H265 C274 0.930 . S
H266 C276 0.930 . S
H267 C279 0.929 . S
H268 C282 0.927 1_556 S
H269 C284 0.960 . S
H270 C284 0.960 . S
H271 C284 0.960 1_556 S
C272 H264 0.929 . S
C272 C273 1.377 . S
C272 C274 1.384 . S
C273 C272 1.377 . S
C273 C279 1.390 1_554 S
C274 H265 0.930 . S
C274 C272 1.384 . S
C274 C275 1.372 . S
C275 C274 1.372 . S
C275 C276 1.400 1_554 S
C275 C280 1.490 . S
C276 H266 0.930 . S
C276 C275 1.400 1_556 S
C276 C279 1.386 . S
H277 C293 0.930 . S
H278 C294 0.931 . S
C279 H267 0.929 . S
C279 C273 1.390 1_556 S
C279 C276 1.386 . S
C280 C275 1.490 . S
C280 C282 1.397 . S
C280 C283 1.403 . S
H281 C287 0.930 . S
C282 H268 0.927 1_554 S
C282 C280 1.397 . S
C282 C285 1.406 1_554 S
C283 C280 1.403 . S
C283 C284 1.524 . S
C283 C287 1.400 . S
C284 H269 0.960 . S
C284 H270 0.960 . S
C284 H271 0.960 1_554 S
C284 C283 1.524 . S
C285 C282 1.406 1_556 S
C285 C286 1.392 1_556 S
C285 C289 1.495 . S
C286 C285 1.392 1_554 S
C286 C287 1.385 . S
C286 C288 1.477 . S
C287 H281 0.930 . S
C287 C283 1.400 . S
C287 C286 1.385 . S
C288 C286 1.477 . S
C288 C290 1.383 . S
C288 C294 1.381 1_554 S
C289 C285 1.495 . S
C289 H295 0.959 . S
C289 H296 0.961 . S
C289 H297 0.960 1_556 S
C290 C288 1.383 . S
C290 C291 1.394 . S
C290 H298 0.930 . S
C291 C290 1.394 . S
C291 C292 1.368 1_554 S
C291 H299 0.929 . S
C292 C291 1.368 1_556 S
C292 C293 1.394 . S
C293 H277 0.930 . S
C293 C292 1.394 . S
C293 C294 1.379 . S
C294 H278 0.931 . S
C294 C288 1.381 1_556 S
C294 C293 1.379 . S
H295 C289 0.959 . S
H296 C289 0.961 . S
H297 C289 0.960 1_554 S
H298 C290 0.930 . S
H299 C291 0.929 . S
H300 C308 0.929 . S
H301 C310 0.930 . S
H302 C312 0.930 . S
H303 C315 0.929 1_455 S
H304 C318 0.930 . S
H305 C320 0.960 . S
H306 C320 0.960 . S
H307 C320 0.960 . S
C308 H300 0.929 . S
C308 C309 1.377 . S
C308 C310 1.384 . S
C309 C308 1.377 . S
C309 C315 1.390 . S
C310 H301 0.930 . S
C310 C308 1.384 . S
C310 C311 1.372 . S
C311 C310 1.372 . S
C311 C312 1.400 1_655 S
C311 C316 1.490 1_655 S
C312 H302 0.930 . S
C312 C311 1.400 1_455 S
C312 C315 1.386 1_455 S
H313 C329 0.930 . S
H314 C330 0.931 . S
C315 H303 0.929 1_655 S
C315 C309 1.390 . S
C315 C312 1.386 1_655 S
C316 C311 1.490 1_455 S
C316 C318 1.395 1_455 S
C316 C319 1.403 . S
H317 C323 0.930 . S
C318 H304 0.930 . S
C318 C316 1.395 1_655 S
C318 C321 1.403 . S
C319 C316 1.403 . S
C319 C320 1.524 . S
C319 C323 1.400 . S
C320 H305 0.960 . S
C320 H306 0.960 . S
C320 H307 0.960 . S
C320 C319 1.524 . S
C321 C318 1.403 . S
C321 C322 1.392 1_655 S
C321 C325 1.495 . S
C322 C321 1.392 1_455 S
C322 C323 1.385 . S
C322 C324 1.478 . S
C323 H317 0.930 . S
C323 C319 1.400 . S
C323 C322 1.385 . S
C324 C322 1.478 . S
C324 C326 1.381 . S
C324 C330 1.383 . S
C325 C321 1.495 . S
C325 H331 0.959 . S
C325 H332 0.961 . S
C325 H333 0.960 . S
C326 C324 1.381 . S
C326 C327 1.394 . S
C326 H334 0.930 . S
C327 C326 1.394 . S
C327 C328 1.383 . S
C327 H335 0.929 . S
C328 C327 1.383 . S
C328 C329 1.377 . S
C329 H313 0.930 . S
C329 C328 1.377 . S
C329 C330 1.379 . S
C330 H314 0.931 . S
C330 C324 1.383 . S
C330 C329 1.379 . S
H331 C325 0.959 . S
H332 C325 0.961 . S
H333 C325 0.960 . S
H334 C326 0.930 . S
H335 C327 0.929 . S
H336 C344 0.929 . S
H337 C346 0.930 . S
H338 C348 0.930 . S
H339 C351 0.929 . S
H340 C354 0.930 . S
H341 C356 0.960 . S
H342 C356 0.960 . S
H343 C356 0.960 1_565 S
C344 H336 0.929 . S
C344 C345 1.377 . S
C344 C346 1.384 . S
C345 C344 1.377 . S
C345 C351 1.390 1_445 S
C346 H337 0.930 . S
C346 C344 1.384 . S
C346 C347 1.372 . S
C347 C346 1.372 . S
C347 C348 1.400 1_445 S
C347 C352 1.490 . S
C348 H338 0.930 . S
C348 C347 1.400 1_665 S
C348 C351 1.386 . S
H349 C365 0.930 . S
H350 C366 0.933 . S
C351 H339 0.929 . S
C351 C345 1.390 1_665 S
C351 C348 1.386 . S
C352 C347 1.490 . S
C352 C354 1.395 . S
C352 C355 1.403 1_455 S
H353 C359 0.930 . S
C354 H340 0.930 . S
C354 C352 1.395 . S
C354 C357 1.403 . S
C355 C352 1.403 1_655 S
C355 C356 1.524 . S
C355 C359 1.400 . S
C356 H341 0.960 . S
C356 H342 0.960 . S
C356 H343 0.960 1_545 S
C356 C355 1.524 . S
C357 C354 1.403 . S
C357 C358 1.392 . S
C357 C361 1.495 . S
C358 C357 1.392 . S
C358 C359 1.385 1_455 S
C358 C360 1.478 . S
C359 H353 0.930 . S
C359 C355 1.400 . S
C359 C358 1.385 1_655 S
C360 C358 1.478 . S
C360 C362 1.381 . S
C360 C366 1.380 1_445 S
C361 C357 1.495 . S
C361 H367 0.959 . S
C361 H368 0.961 . S
C361 H369 0.960 . S
C362 C360 1.381 . S
C362 C363 1.394 . S
C362 H370 0.930 . S
C363 C362 1.394 . S
C363 C364 1.383 . S
C363 H371 0.929 . S
C364 C363 1.383 . S
C364 C365 1.377 1_445 S
C365 H349 0.930 . S
C365 C364 1.377 1_665 S
C365 C366 1.381 . S
C366 H350 0.933 . S
C366 C360 1.380 1_665 S
C366 C365 1.381 . S
H367 C361 0.959 . S
H368 C361 0.961 . S
H369 C361 0.960 . S
H370 C362 0.930 . S
H371 C363 0.929 . S
H372 C380 0.929 . S
H373 C382 0.930 . S
H374 C384 0.930 . S
H375 C387 0.929 . S
H376 C390 0.930 1_655 S
H377 C392 0.960 . S
H378 C392 0.960 . S
H379 C392 0.960 . S
C380 H372 0.929 . S
C380 C381 1.377 1_655 S
C380 C382 1.384 . S
C381 C380 1.377 1_455 S
C381 C387 1.390 . S
C382 H373 0.930 . S
C382 C380 1.384 . S
C382 C383 1.372 1_655 S
C383 C382 1.372 1_455 S
C383 C384 1.400 . S
C383 C388 1.490 . S
C384 H374 0.930 . S
C384 C383 1.400 . S
C384 C387 1.386 . S
H385 C401 0.930 . S
H386 C402 0.931 . S
C387 H375 0.929 . S
C387 C381 1.390 . S
C387 C384 1.386 . S
C388 C383 1.490 . S
C388 C390 1.395 1_545 S
C388 C391 1.403 . S
H389 C395 0.930 . S
C390 H376 0.930 1_455 S
C390 C388 1.395 1_565 S
C390 C393 1.403 . S
C391 C388 1.403 . S
C391 C392 1.524 . S
C391 C395 1.400 . S
C392 H377 0.960 . S
C392 H378 0.960 . S
C392 H379 0.960 . S
C392 C391 1.524 . S
C393 C390 1.403 . S
C393 C394 1.392 1_565 S
C393 C397 1.495 1_455 S
C394 C393 1.392 1_545 S
C394 C395 1.385 . S
C394 C396 1.478 . S
C395 H389 0.930 . S
C395 C391 1.400 . S
C395 C394 1.385 . S
C396 C394 1.478 . S
C396 C398 1.380 1_455 S
C396 C402 1.383 . S
C397 C393 1.495 1_655 S
C397 H403 0.959 . S
C397 H404 0.961 1_655 S
C397 H405 0.960 . S
C398 C396 1.380 1_655 S
C398 C399 1.393 . S
C398 H406 0.933 1_545 S
C399 C398 1.393 . S
C399 C400 1.383 1_655 S
C399 H407 0.929 1_545 S
C400 C399 1.383 1_455 S
C400 C401 1.377 . S
C401 H385 0.930 . S
C401 C400 1.377 . S
C401 C402 1.379 . S
C402 H386 0.931 . S
C402 C396 1.383 . S
C402 C401 1.379 . S
H403 C397 0.959 . S
H404 C397 0.961 1_455 S
H405 C397 0.960 . S
H406 C398 0.933 1_565 S
H407 C399 0.929 1_565 S
H408 C416 0.929 . S
H409 C418 0.930 . S
H410 C420 0.930 . S
H411 C423 0.929 . S
H412 C426 0.930 . S
H413 C428 0.960 . S
H414 C428 0.960 . S
H415 C428 0.960 . S
C416 H408 0.929 . S
C416 C417 1.377 . S
C416 C418 1.384 . S
C417 C416 1.377 . S
C417 C423 1.390 1_445 S
C418 H409 0.930 . S
C418 C416 1.384 . S
C418 C419 1.372 . S
C419 C418 1.372 . S
C419 C420 1.400 1_445 S
C419 C424 1.490 . S
C420 H410 0.930 . S
C420 C419 1.400 1_665 S
C420 C423 1.386 . S
H421 C437 0.930 . S
H422 C438 0.932 . S
C423 H411 0.929 . S
C423 C417 1.390 1_665 S
C423 C420 1.386 . S
C424 C419 1.490 . S
C424 C426 1.395 . S
C424 C427 1.403 1_545 S
H425 C431 0.930 . S
C426 H412 0.930 . S
C426 C424 1.395 . S
C426 C429 1.403 . S
C427 C424 1.403 1_565 S
C427 C428 1.524 . S
C427 C431 1.400 . S
C428 H413 0.960 . S
C428 H414 0.960 . S
C428 H415 0.960 . S
C428 C427 1.524 . S
C429 C426 1.403 . S
C429 C430 1.392 . S
C429 C433 1.495 . S
C430 C429 1.392 . S
C430 C431 1.385 1_545 S
C430 C432 1.478 . S
C431 H425 0.930 . S
C431 C427 1.400 . S
C431 C430 1.385 1_565 S
C432 C430 1.478 . S
C432 C434 1.381 . S
C432 C438 1.381 1_445 S
C433 C429 1.495 . S
C433 H439 0.959 . S
C433 H440 0.961 1_455 S
C433 H441 0.960 . S
C434 C432 1.381 . S
C434 C435 1.394 . S
C434 H442 0.930 . S
C435 C434 1.394 . S
C435 C436 1.383 . S
C435 H443 0.929 . S
C436 C435 1.383 . S
C436 C437 1.377 1_445 S
C437 H421 0.930 . S
C437 C436 1.377 1_665 S
C437 C438 1.380 . S
C438 H422 0.932 . S
C438 C432 1.381 1_665 S
C438 C437 1.380 . S
H439 C433 0.959 . S
H440 C433 0.961 1_655 S
H441 C433 0.960 . S
H442 C434 0.930 . S
H443 C435 0.929 . S
C129 C10 4.851 . S
C148 C19 4.844 . S
C165 C59 3.025 . S
C184 C50 3.017 . S
C201 C86 0.584 . S
C220 C95 0.570 . S
C237 C90 2.983 . S
C256 C99 2.972 . S
C273 C15 0.599 . S
C292 C6 0.584 1_556 S
C309 C46 0.870 . S
C328 C55 0.839 . S
C345 C58 1.461 . S
C364 C9 1.419 . S
C381 C49 1.462 . S
C400 C89 1.439 1_545 S
C417 C98 1.456 . S
C436 C18 1.462 1_455 S
