# Generated by pormake.
# Topology fnr, (5)-cn, num edge types: 1
# Building blocks:
#     Node 0, Type 0, BuildingBlock: BEQFEK_clean_sbu_0, # of connection points: 5
#     Node 1, Type 0, BuildingBlock: BEQFEK_clean_sbu_0, # of connection points: 5
#     Node 2, Type 0, BuildingBlock: BEQFEK_clean_sbu_0, # of connection points: 5
#     Node 3, Type 0, BuildingBlock: BEQFEK_clean_sbu_0, # of connection points: 5
#     Node 4, Type 0, BuildingBlock: BEQFEK_clean_sbu_0, # of connection points: 5
#     Node 5, Type 0, BuildingBlock: BEQFEK_clean_sbu_0, # of connection points: 5
#     Node 6, Type 0, BuildingBlock: BEQFEK_clean_sbu_0, # of connection points: 5
#     Node 7, Type 0, BuildingBlock: BEQFEK_clean_sbu_0, # of connection points: 5
#     Node 8, Type 0, BuildingBlock: BEQFEK_clean_sbu_0, # of connection points: 5
#     Node 9, Type 0, BuildingBlock: BEQFEK_clean_sbu_0, # of connection points: 5
#     Node 10, Type 0, BuildingBlock: BEQFEK_clean_sbu_0, # of connection points: 5
#     Node 11, Type 0, BuildingBlock: BEQFEK_clean_sbu_0, # of connection points: 5
#     Edge 12, Type (0, 0), BuildingBlock: EZIPEK_clean_linker_0, # of connection points: 2
#     Edge 13, Type (0, 0), BuildingBlock: EZIPEK_clean_linker_0, # of connection points: 2
#     Edge 14, Type (0, 0), BuildingBlock: EZIPEK_clean_linker_0, # of connection points: 2
#     Edge 15, Type (0, 0), BuildingBlock: EZIPEK_clean_linker_0, # of connection points: 2
#     Edge 16, Type (0, 0), BuildingBlock: EZIPEK_clean_linker_0, # of connection points: 2
#     Edge 17, Type (0, 0), BuildingBlock: EZIPEK_clean_linker_0, # of connection points: 2
#     Edge 18, Type (0, 0), BuildingBlock: EZIPEK_clean_linker_0, # of connection points: 2
#     Edge 19, Type (0, 0), BuildingBlock: EZIPEK_clean_linker_0, # of connection points: 2
#     Edge 20, Type (0, 0), BuildingBlock: EZIPEK_clean_linker_0, # of connection points: 2
#     Edge 21, Type (0, 0), BuildingBlock: EZIPEK_clean_linker_0, # of connection points: 2
#     Edge 22, Type (0, 0), BuildingBlock: EZIPEK_clean_linker_0, # of connection points: 2
#     Edge 23, Type (0, 0), BuildingBlock: EZIPEK_clean_linker_0, # of connection points: 2
#     Edge 24, Type (0, 0), BuildingBlock: EZIPEK_clean_linker_0, # of connection points: 2
#     Edge 25, Type (0, 0), BuildingBlock: EZIPEK_clean_linker_0, # of connection points: 2
#     Edge 26, Type (0, 0), BuildingBlock: EZIPEK_clean_linker_0, # of connection points: 2
#     Edge 27, Type (0, 0), BuildingBlock: EZIPEK_clean_linker_0, # of connection points: 2
#     Edge 28, Type (0, 0), BuildingBlock: EZIPEK_clean_linker_0, # of connection points: 2
#     Edge 29, Type (0, 0), BuildingBlock: EZIPEK_clean_linker_0, # of connection points: 2
#     Edge 30, Type (0, 0), BuildingBlock: EZIPEK_clean_linker_0, # of connection points: 2
#     Edge 31, Type (0, 0), BuildingBlock: EZIPEK_clean_linker_0, # of connection points: 2
#     Edge 32, Type (0, 0), BuildingBlock: EZIPEK_clean_linker_0, # of connection points: 2
#     Edge 33, Type (0, 0), BuildingBlock: EZIPEK_clean_linker_0, # of connection points: 2
#     Edge 34, Type (0, 0), BuildingBlock: EZIPEK_clean_linker_0, # of connection points: 2
#     Edge 35, Type (0, 0), BuildingBlock: EZIPEK_clean_linker_0, # of connection points: 2
#     Edge 36, Type (0, 0), BuildingBlock: EZIPEK_clean_linker_0, # of connection points: 2
#     Edge 37, Type (0, 0), BuildingBlock: EZIPEK_clean_linker_0, # of connection points: 2
#     Edge 38, Type (0, 0), BuildingBlock: EZIPEK_clean_linker_0, # of connection points: 2
#     Edge 39, Type (0, 0), BuildingBlock: EZIPEK_clean_linker_0, # of connection points: 2
#     Edge 40, Type (0, 0), BuildingBlock: EZIPEK_clean_linker_0, # of connection points: 2
#     Edge 41, Type (0, 0), BuildingBlock: EZIPEK_clean_linker_0, # of connection points: 2
# Relax obj value: 0.159
# Max RMSD: 0.109
# Mean RMSD: 0.109
data_MOF--net-fnr--node1-BEQFEK_clean_sbu_0--edge1-EZIPEK_clean_linker_0
_symmetry_space_group_name_H-M    P1
_symmetry_Int_Tables_number       1
_symmetry_cell_setting            triclinic
loop_
_symmetry_equiv_pos_as_xyz
'x, y, z'
_cell_length_a     34.293833
_cell_length_b     34.360754
_cell_length_c     35.83836
_cell_angle_alpha  89.943895
_cell_angle_beta   90.092537
_cell_angle_gamma 120.15555
loop_
_atom_site_label
_atom_site_type_symbol
_atom_site_fract_x
_atom_site_fract_y
_atom_site_fract_z
_atom_type_partial_charge
Co0 Co 0.48321 0.29514 0.12288 0.0
Co1 Co 0.40185 0.1984 0.10343 0.0
C2 C 0.49653 0.21884 0.09759 0.0
O3 O 0.51032 0.25911 0.10756 0.0
O4 O 0.45474 0.19063 0.09368 0.0
C5 C 0.56167 0.36955 0.09594 0.0
O6 O 0.54775 0.34377 0.06616 0.0
C7 C 0.34494 0.11574 0.06127 0.0
C8 C 0.27783 0.09113 0.08655 0.0
C9 C 0.30043 0.08132 0.05951 0.0
N10 N 0.34862 0.14474 0.08807 0.0
N11 N 0.30839 0.12977 0.10315 0.0
C12 C 0.38367 0.12078 0.0384 0.0
H13 H 0.40552 0.1131 0.05611 0.0
H14 H 0.4041 0.15614 0.02873 0.0
H15 H 0.37216 0.09769 0.0141 0.0
C16 C 0.43113 0.32148 0.07255 0.0
N17 N 0.43829 0.29019 0.08882 0.0
N18 N 0.4054 0.24986 0.07942 0.0
C19 C 0.3768 0.25446 0.0563 0.0
C20 C 0.39207 0.29993 0.05128 0.0
C21 C 0.45979 0.37096 0.07888 0.0
H22 H 0.46975 0.3774 0.1087 0.0
H23 H 0.49077 0.38394 0.06175 0.0
H24 H 0.44195 0.38913 0.07081 0.0
O25 O 0.45729 0.27113 0.17309 0.0
O26 O 0.39944 0.20334 0.15865 0.0
H27 H 0.30994 0.19952 0.06415 0.0
H28 H 0.31856 0.22779 0.0199 0.0
C29 C 0.33418 0.21618 0.04102 0.0
H30 H 0.34151 0.19124 0.02815 0.0
H31 H 0.30181 0.14599 0.12476 0.0
O32 O 0.53682 0.35734 0.12493 0.0
C33 C 0.42419 0.23291 0.18271 0.0
Co34 Co 0.19802 0.48233 0.62897 0.0
Co35 Co 0.21707 0.40657 0.60205 0.0
C36 C 0.28905 0.49847 0.59745 0.0
O37 O 0.26258 0.50967 0.61263 0.0
O38 O 0.27562 0.45806 0.5881 0.0
C39 C 0.206 0.56404 0.60533 0.0
O40 O 0.23289 0.55987 0.58177 0.0
C41 C 0.24035 0.34637 0.56254 0.0
C42 C 0.18951 0.27958 0.58418 0.0
C43 C 0.22575 0.30091 0.56006 0.0
N44 N 0.21398 0.35192 0.58708 0.0
N45 N 0.1837 0.31188 0.59997 0.0
C46 C 0.27899 0.38404 0.54224 0.0
H47 H 0.30588 0.40488 0.56261 0.0
H48 H 0.26762 0.40579 0.52888 0.0
H49 H 0.29319 0.37142 0.5208 0.0
C50 C 0.11544 0.42704 0.58434 0.0
N51 N 0.15649 0.43682 0.59661 0.0
N52 N 0.16799 0.40979 0.58066 0.0
C53 C 0.13651 0.38454 0.55503 0.0
C54 C 0.10105 0.39369 0.55683 0.0
C55 C 0.08945 0.44685 0.60142 0.0
H56 H 0.0968 0.45209 0.63177 0.0
H57 H 0.10055 0.48034 0.58886 0.0
H58 H 0.05263 0.4248 0.59708 0.0
O59 O 0.19726 0.45727 0.67855 0.0
O60 O 0.21573 0.40715 0.65837 0.0
H61 H 0.13299 0.3221 0.54154 0.0
H62 H 0.12073 0.34805 0.50283 0.0
C63 C 0.14215 0.35457 0.52792 0.0
H64 H 0.17802 0.37044 0.51937 0.0
H65 H 0.1589 0.30662 0.61943 0.0
O66 O 0.18488 0.533 0.62933 0.0
C67 C 0.20775 0.42712 0.68482 0.0
Co68 Co 0.72311 0.18678 0.11904 0.0
Co69 Co 0.82268 0.2087 0.10805 0.0
C70 C 0.79472 0.2789 0.09899 0.0
O71 O 0.75337 0.2491 0.10072 0.0
O72 O 0.82522 0.26815 0.10127 0.0
C73 C 0.64479 0.18445 0.09263 0.0
O74 O 0.67141 0.20301 0.06379 0.0
C75 C 0.90205 0.23278 0.06218 0.0
C76 C 0.94594 0.22203 0.10096 0.0
C77 C 0.94396 0.23623 0.06518 0.0
N78 N 0.88018 0.21727 0.09467 0.0
N79 N 0.90654 0.21084 0.11775 0.0
C80 C 0.88294 0.24382 0.02896 0.0
H81 H 0.84589 0.22876 0.03183 0.0
H82 H 0.891 0.23152 1.00311 0.0
H83 H 0.89846 0.28084 0.0266 0.0
C84 C 0.7046 0.11017 0.07013 0.0
N85 N 0.73334 0.14893 0.08751 0.0
N86 N 0.77505 0.15814 0.08186 0.0
C87 C 0.77389 0.12505 0.06056 0.0
C88 C 0.72921 0.09389 0.05218 0.0
C89 C 0.65438 0.08815 0.07207 0.0
H90 H 0.64386 0.08986 0.10099 0.0
H91 H 0.64338 0.10664 0.05359 0.0
H92 H 0.63762 0.05255 0.06281 0.0
O93 O 0.7473 0.18947 0.17097 0.0
O94 O 0.81581 0.1986 0.16239 0.0
H95 H 0.8366 0.12952 0.07544 0.0
H96 H 0.80414 0.08683 0.04087 0.0
C97 C 0.8142 0.12122 0.0508 0.0
H98 H 0.83331 0.14551 0.02828 0.0
H99 H 0.89785 0.19927 0.1451 0.0
O100 O 0.65836 0.17021 0.11974 0.0
C101 C 0.78415 0.19381 0.18384 0.0
Co102 Co 0.54408 0.72666 0.62587 0.0
Co103 Co 0.62252 0.82039 0.59968 0.0
C104 C 0.5293 0.80114 0.59428 0.0
O105 O 0.51618 0.76214 0.60761 0.0
O106 O 0.57072 0.82845 0.5878 0.0
C107 C 0.47215 0.64763 0.59822 0.0
O108 O 0.49065 0.66964 0.56722 0.0
C109 C 0.68165 0.90257 0.55757 0.0
C110 C 0.74909 0.9203 0.579 0.0
C111 C 0.72707 0.934 0.55451 0.0
N112 N 0.67681 0.87152 0.58281 0.0
N113 N 0.71724 0.88228 0.5955 0.0
C114 C 0.64334 0.90248 0.53749 0.0
H115 H 0.62027 0.86835 0.52624 0.0
H116 H 0.65536 0.92744 0.51446 0.0
H117 H 0.62401 0.91081 0.55756 0.0
C118 C 0.59868 0.69728 0.58188 0.0
N119 N 0.58911 0.72882 0.59358 0.0
N120 N 0.61701 0.76733 0.57769 0.0
C121 C 0.64234 0.76072 0.55256 0.0
C122 C 0.63252 0.71596 0.55473 0.0
C123 C 0.57902 0.65178 0.59959 0.0
H124 H 0.57075 0.65357 0.62925 0.0
H125 H 0.54726 0.62797 0.58514 0.0
H126 H 0.60273 0.63875 0.59781 0.0
O127 O 0.57011 0.75258 0.67469 0.0
O128 O 0.6266 0.81897 0.65603 0.0
H129 H 0.70577 0.81926 0.53972 0.0
H130 H 0.68008 0.78111 0.50092 0.0
C131 C 0.67338 0.79623 0.52569 0.0
H132 H 0.65823 0.81658 0.51653 0.0
H133 H 0.72306 0.86367 0.61549 0.0
O134 O 0.49159 0.66438 0.62918 0.0
C135 C 0.60345 0.79148 0.682 0.0
Co136 Co 0.83784 0.53939 0.13419 0.0
Co137 Co 0.81658 0.61125 0.10221 0.0
C138 C 0.74612 0.51868 0.10023 0.0
O139 O 0.77336 0.50988 0.11735 0.0
O140 O 0.75878 0.55816 0.08853 0.0
C141 C 0.84451 0.46766 0.10512 0.0
O142 O 0.84138 0.48657 0.07427 0.0
C143 C 0.79137 0.66951 0.06102 0.0
C144 C 0.84667 0.7373 0.07649 0.0
C145 C 0.8078 0.715 0.05524 0.0
N146 N 0.81936 0.66496 0.08456 0.0
N147 N 0.85219 0.70561 0.09386 0.0
C148 C 0.74976 0.63097 0.04458 0.0
H149 H 0.72648 0.61088 0.06742 0.0
H150 H 0.75898 0.60878 0.02913 0.0
H151 H 0.73216 0.64262 0.02554 0.0
C152 C 0.92095 0.59448 0.08938 0.0
N153 N 0.87921 0.58351 0.10064 0.0
N154 N 0.86617 0.60804 0.08237 0.0
C155 C 0.89715 0.63223 0.05616 0.0
C156 C 0.93392 0.62541 0.06001 0.0
C157 C 0.94911 0.57891 0.10926 0.0
H158 H 0.94085 0.57482 0.13947 0.0
H159 H 0.94117 0.54556 0.0984 0.0
H160 H 0.98562 0.603 0.10536 0.0
O161 O 0.83878 0.56702 0.18253 0.0
O162 O 0.81897 0.61472 0.15876 0.0
H163 H 0.89954 0.69269 0.03744 0.0
H164 H 0.91031 0.66268 1.0014 0.0
C165 C 0.8899 0.65884 0.0266 0.0
H166 H 0.85364 0.64187 0.01895 0.0
H167 H 0.87874 0.71168 0.11171 0.0
O168 O 0.84795 0.4871 0.13628 0.0
C169 C 0.82781 0.59716 0.18669 0.0
Co170 Co 0.30602 0.83309 0.62875 0.0
Co171 Co 0.21056 0.81363 0.60371 0.0
C172 C 0.22984 0.7416 0.59897 0.0
O173 O 0.2678 0.76818 0.61395 0.0
O174 O 0.20267 0.75486 0.58992 0.0
C175 C 0.3823 0.838 0.59619 0.0
O176 O 0.35906 0.83552 0.5662 0.0
C177 C 0.12649 0.78942 0.56401 0.0
C178 C 0.1079 0.83739 0.58737 0.0
C179 C 0.09427 0.80235 0.56218 0.0
N180 N 0.15789 0.81553 0.5892 0.0
N181 N 0.14658 0.84414 0.60307 0.0
C182 C 0.12714 0.75242 0.54253 0.0
H183 H 0.11992 0.72434 0.56184 0.0
H184 H 0.16117 0.76481 0.53051 0.0
H185 H 0.10158 0.73946 0.51991 0.0
C186 C 0.33257 0.91505 0.58315 0.0
N187 N 0.30171 0.87413 0.59597 0.0
N188 N 0.26246 0.86231 0.5809 0.0
C189 C 0.26784 0.89329 0.55514 0.0
C190 C 0.31264 0.92883 0.556 0.0
C191 C 0.37878 0.94192 0.59968 0.0
H192 H 0.3782 0.93269 0.62945 0.0
H193 H 0.40226 0.93398 0.58486 0.0
H194 H 0.39147 0.97857 0.59727 0.0
O195 O 0.28474 0.83685 0.67865 0.0
O196 O 0.21455 0.81568 0.66048 0.0
H197 H 0.20778 0.89562 0.54335 0.0
H198 H 0.24509 0.90876 0.5038 0.0
C199 C 0.23114 0.88719 0.52889 0.0
H200 H 0.21132 0.85141 0.5202 0.0
H201 H 0.16534 0.86836 0.62321 0.0
O202 O 0.36787 0.84154 0.62802 0.0
C203 C 0.24397 0.8251 0.6862 0.0
Co204 Co 0.72491 0.54637 0.39518 0.0
Co205 Co 0.82033 0.62101 0.42194 0.0
C206 C 0.79954 0.52783 0.42099 0.0
O207 O 0.7606 0.51705 0.40854 0.0
O208 O 0.82802 0.56832 0.42938 0.0
C209 C 0.64995 0.46868 0.42074 0.0
O210 O 0.67734 0.47957 0.44945 0.0
C211 C 0.90367 0.67807 0.4641 0.0
C212 C 0.9217 0.74615 0.44458 0.0
C213 C 0.93535 0.72329 0.46817 0.0
N214 N 0.87256 0.67424 0.43922 0.0
N215 N 0.88357 0.71505 0.42764 0.0
C216 C 0.90312 0.63902 0.4831 0.0
H217 H 0.9104 0.61966 0.46227 0.0
H218 H 0.869 0.6163 0.4946 0.0
H219 H 0.92857 0.65012 0.50576 0.0
C220 C 0.69808 0.59809 0.44419 0.0
N221 N 0.72907 0.58875 0.4307 0.0
N222 N 0.76813 0.61521 0.4465 0.0
C223 C 0.76244 0.63952 0.47328 0.0
C224 C 0.71773 0.63047 0.47235 0.0
C225 C 0.65227 0.57972 0.42707 0.0
H226 H 0.65404 0.57473 0.39665 0.0
H227 H 0.6289 0.54633 0.43939 0.0
H228 H 0.63866 0.60256 0.43177 0.0
O229 O 0.74866 0.57604 0.34689 0.0
O230 O 0.8168 0.62748 0.36604 0.0
H231 H 0.82247 0.70147 0.48663 0.0
H232 H 0.78454 0.67565 0.52558 0.0
C233 C 0.79882 0.66904 0.50022 0.0
H234 H 0.81841 0.65267 0.50833 0.0
H235 H 0.86491 0.72166 0.40823 0.0
O236 O 0.66186 0.49511 0.39275 0.0
C237 C 0.78794 0.60902 0.33981 0.0
Co238 Co 0.19321 0.71328 0.898 0.0
Co239 Co 0.2126 0.80966 0.91904 0.0
C240 C 0.28598 0.78968 0.92176 0.0
O241 O 0.25801 0.74973 0.91148 0.0
O242 O 0.27365 0.81846 0.92716 0.0
C243 C 0.18704 0.63563 0.92871 0.0
O244 O 0.18954 0.6577 0.95937 0.0
C245 C 0.23859 0.89368 0.95941 0.0
C246 C 0.18875 0.91135 0.93854 0.0
C247 C 0.22487 0.9252 0.96273 0.0
N248 N 0.21174 0.86245 0.93443 0.0
N249 N 0.18212 0.8733 0.92197 0.0
C250 C 0.27659 0.89314 0.9795 0.0
H251 H 0.26464 0.8592 0.99146 0.0
H252 H 0.29065 0.9188 1.00195 0.0
H253 H 0.30376 0.90005 0.95926 0.0
C254 C 0.11446 0.68821 0.94676 0.0
N255 N 0.15445 0.71866 0.93211 0.0
N256 N 0.16663 0.75862 0.94564 0.0
C257 C 0.13688 0.75419 0.9723 0.0
C258 C 0.10183 0.70926 0.97357 0.0
C259 C 0.08682 0.64128 0.93191 0.0
H260 H 0.09454 0.64044 0.90195 0.0
H261 H 0.09545 0.6185 0.9471 0.0
H262 H 0.05024 0.62873 0.93538 0.0
O263 O 0.1869 0.73434 0.84896 0.0
O264 O 0.20155 0.80302 0.86301 0.0
H265 H 0.13419 0.81429 0.98204 0.0
H266 H 0.12269 0.77918 0.02286 0.0
C267 C 0.14345 0.79196 0.99722 0.0
H268 H 0.17952 0.8123 1.0051 0.0
H269 H 0.15705 0.85443 0.90243 0.0
O270 O 0.18355 0.65121 0.89741 0.0
C271 C 0.19124 0.77188 0.83887 0.0
Co272 Co 0.48419 0.19213 0.39651 0.0
Co273 Co 0.40854 0.21165 0.42205 0.0
C274 C 0.50192 0.28462 0.42299 0.0
O275 O 0.51298 0.25666 0.41101 0.0
O276 O 0.46116 0.2723 0.4307 0.0
C277 C 0.56253 0.19696 0.42232 0.0
O278 O 0.5524 0.21525 0.45006 0.0
C279 C 0.35005 0.23593 0.46332 0.0
C280 C 0.28244 0.18566 0.44243 0.0
C281 C 0.30461 0.22173 0.46657 0.0
N282 N 0.3547 0.20947 0.43833 0.0
N283 N 0.3142 0.1795 0.42593 0.0
C284 C 0.38853 0.27426 0.48323 0.0
H285 H 0.40808 0.30173 0.46299 0.0
H286 H 0.4114 0.26308 0.49464 0.0
H287 H 0.37669 0.28751 0.50607 0.0
C288 C 0.43063 0.11186 0.44367 0.0
N289 N 0.44021 0.15238 0.43044 0.0
N290 N 0.41342 0.16451 0.44599 0.0
C291 C 0.38855 0.13396 0.47234 0.0
C292 C 0.39763 0.09844 0.47141 0.0
C293 C 0.44988 0.08518 0.42696 0.0
H294 H 0.45501 0.09196 0.39654 0.0
H295 H 0.4834 0.09606 0.4395 0.0
H296 H 0.42745 0.04857 0.43169 0.0
O297 O 0.45749 0.18972 0.34752 0.0
O298 O 0.40414 0.20444 0.36602 0.0
H299 H 0.32631 0.13136 0.48537 0.0
H300 H 0.35198 0.11929 0.52445 0.0
C301 C 0.35873 0.14034 0.49913 0.0
H302 H 0.375 0.17627 0.50736 0.0
H303 H 0.30825 0.1547 0.40629 0.0
O304 O 0.53533 0.18053 0.3949 0.0
C305 C 0.42566 0.19757 0.3402 0.0
Co306 Co 0.30673 0.48039 0.90187 0.0
Co307 Co 0.20952 0.39845 0.91588 0.0
C308 C 0.22854 0.49219 0.92449 0.0
O309 O 0.26944 0.50726 0.91543 0.0
O310 O 0.20115 0.45022 0.92738 0.0
C311 C 0.38223 0.55629 0.9325 0.0
O312 O 0.35645 0.54067 0.9622 0.0
C313 C 0.13025 0.34151 0.96013 0.0
C314 C 0.08957 0.28357 0.92312 0.0
C315 C 0.08914 0.302 0.95739 0.0
N316 N 0.15392 0.34645 0.92895 0.0
N317 N 0.12958 0.31157 0.90697 0.0
C318 C 0.14641 0.37492 0.99137 0.0
H319 H 0.18382 0.39371 0.99252 0.0
H320 H 0.13227 0.35782 0.01839 0.0
H321 H 0.13503 0.39954 0.98638 0.0
C322 C 0.3302 0.42649 0.95291 0.0
N323 N 0.2998 0.4344 0.93577 0.0
N324 N 0.25899 0.4003 0.94216 0.0
C325 C 0.2623 0.36992 0.96389 0.0
C326 C 0.3075 0.38566 0.97157 0.0
C327 C 0.38011 0.45523 0.94848 0.0
H328 H 0.38803 0.46566 0.91889 0.0
H329 H 0.39238 0.48579 0.96596 0.0
H330 H 0.39793 0.43728 0.95724 0.0
O331 O 0.28764 0.45468 0.8508 0.0
O332 O 0.21866 0.39793 0.86093 0.0
H333 H 0.20333 0.30793 0.94894 0.0
H334 H 0.2351 0.30312 0.98728 0.0
C335 C 0.22348 0.32482 0.97419 0.0
H336 H 0.20142 0.32934 0.99416 0.0
H337 H 0.13969 0.30748 0.88054 0.0
O338 O 0.36938 0.53362 0.90235 0.0
C339 C 0.25123 0.42109 0.83861 0.0
Co340 Co 0.83955 0.30587 0.39694 0.0
Co341 Co 0.81569 0.20976 0.42205 0.0
C342 C 0.74574 0.23138 0.4253 0.0
O343 O 0.77385 0.26884 0.41035 0.0
O344 O 0.75757 0.20349 0.43569 0.0
C345 C 0.83497 0.37996 0.42236 0.0
O346 O 0.81664 0.35215 0.45055 0.0
C347 C 0.79064 0.12459 0.45994 0.0
C348 C 0.84101 0.1085 0.43771 0.0
C349 C 0.80481 0.09334 0.46188 0.0
N350 N 0.81726 0.15692 0.43568 0.0
N351 N 0.84722 0.14705 0.42241 0.0
C352 C 0.7524 0.12379 0.48065 0.0
H353 H 0.72575 0.11891 0.46046 0.0
H354 H 0.76437 0.15666 0.49469 0.0
H355 H 0.73767 0.0963 0.50158 0.0
C356 C 0.9188 0.33082 0.44458 0.0
N357 N 0.87822 0.30051 0.43085 0.0
N358 N 0.86538 0.26092 0.4454 0.0
C359 C 0.89551 0.26552 0.47183 0.0
C360 C 0.93148 0.31013 0.47184 0.0
C361 C 0.94618 0.3773 0.42882 0.0
H362 H 0.93978 0.37667 0.39839 0.0
H363 H 0.93551 0.39973 0.44183 0.0
H364 H 0.98275 0.39116 0.43378 0.0
O365 O 0.84541 0.28446 0.34812 0.0
O366 O 0.81596 0.21295 0.36531 0.0
H367 H 0.89658 0.20494 0.48372 0.0
H368 H 0.90905 0.24176 0.52349 0.0
C369 C 0.88812 0.22837 0.49796 0.0
H370 H 0.85199 0.20887 0.50587 0.0
H371 H 0.8722 0.1669 0.40316 0.0
O372 O 0.85131 0.36869 0.39535 0.0
C373 C 0.82852 0.24303 0.33986 0.0
Co374 Co 0.54908 0.82879 0.90086 0.0
Co375 Co 0.62854 0.81109 0.91965 0.0
C376 C 0.53395 0.73848 0.92867 0.0
O377 O 0.5209 0.76493 0.9167 0.0
O378 O 0.57556 0.75217 0.9338 0.0
C379 C 0.47005 0.82575 0.92668 0.0
O380 O 0.47983 0.80921 0.95592 0.0
C381 C 0.68698 0.78637 0.9603 0.0
C382 C 0.75191 0.82505 0.93064 0.0
C383 C 0.73097 0.79498 0.95963 0.0
N384 N 0.68196 0.81027 0.93296 0.0
N385 N 0.72088 0.8333 0.91529 0.0
C386 C 0.64987 0.75512 0.98582 0.0
H387 H 0.62998 0.77085 0.99477 0.0
H388 H 0.66313 0.74618 1.01063 0.0
H389 H 0.62698 0.72378 0.97041 0.0
C390 C 0.60428 0.90822 0.94971 0.0
N391 N 0.59559 0.86908 0.93379 0.0
N392 N 0.62804 0.86087 0.94267 0.0
C393 C 0.65783 0.8941 0.96515 0.0
C394 C 0.64385 0.92524 0.97029 0.0
C395 C 0.57613 0.92973 0.94422 0.0
H396 H 0.56257 0.92372 0.91537 0.0
H397 H 0.54737 0.9143 0.96387 0.0
H398 H 0.59581 0.96643 0.94985 0.0
O399 O 0.57351 0.83073 0.85017 0.0
O400 O 0.62815 0.8159 0.86413 0.0
H401 H 0.72311 0.9022 0.95674 0.0
H402 H 0.71736 0.92535 1.0002 0.0
C403 C 0.69995 0.8971 0.98017 0.0
H404 H 0.69139 0.86508 0.99429 0.0
H405 H 0.7262 0.85456 0.89268 0.0
O406 O 0.49752 0.8404 0.89937 0.0
C407 C 0.60482 0.82312 0.84027 0.0
C408 C 0.57202 0.17312 0.06532 0.0
C409 C 0.60307 0.18732 0.09564 0.0
C410 C 0.55641 0.2106 0.12968 0.0
C411 C 0.52993 0.2035 0.09721 0.0
N412 N 0.51485 0.18184 0.03256 0.0
N413 N 0.62948 0.22931 0.15347 0.0
C414 C 0.53802 0.18537 0.06462 0.0
C415 C 0.5964 0.20834 0.12716 0.0
N416 N 0.5745 0.14726 0.03755 0.0
N417 N 0.54307 0.21895 0.16321 0.0
H418 H 0.66074 0.2313 0.15208 0.0
H419 H 0.6278 0.24924 0.1746 0.0
H420 H 0.51335 0.21991 0.16651 0.0
H421 H 0.5589 0.21998 0.18834 0.0
H422 H 0.55021 0.13225 0.01672 0.0
H423 H 0.59857 0.13725 0.03735 0.0
H424 H 0.52277 0.17356 1.00683 0.0
H425 H 0.48993 0.1907 0.03106 0.0
C426 C 0.37076 0.53035 0.61496 0.0
C427 C 0.33726 0.53322 0.59363 0.0
C428 C 0.39114 0.61159 0.57864 0.0
C429 C 0.42584 0.60794 0.59717 0.0
N430 N 0.45047 0.56124 0.62745 0.0
N431 N 0.31912 0.57209 0.54706 0.0
C432 C 0.41621 0.5665 0.61372 0.0
C433 C 0.34866 0.57247 0.57286 0.0
N434 N 0.35898 0.49423 0.63781 0.0
N435 N 0.39761 0.65282 0.56874 0.0
H436 H 0.28834 0.5432 0.54127 0.0
H437 H 0.32728 0.5987 0.52877 0.0
H438 H 0.42696 0.68277 0.57521 0.0
H439 H 0.37192 0.65755 0.5583 0.0
H440 H 0.38083 0.49306 0.6574 0.0
H441 H 0.32637 0.4667 0.63934 0.0
H442 H 0.44611 0.53031 0.63598 0.0
H443 H 0.48402 0.58703 0.62747 0.0
C444 C 0.84279 0.35957 0.07689 0.0
C445 C 0.80714 0.32735 0.09958 0.0
C446 C 0.79314 0.38685 0.12201 0.0
C447 C 0.83278 0.41977 0.1039 0.0
N448 N 0.89842 0.43822 0.06681 0.0
N449 N 0.75461 0.31377 0.15046 0.0
C450 C 0.85855 0.40634 0.0821 0.0
C451 C 0.78398 0.34185 0.12397 0.0
N452 N 0.86 0.34552 0.04904 0.0
N453 N 0.76275 0.39779 0.13593 0.0
H454 H 0.7466 0.28067 0.15459 0.0
H455 H 0.74151 0.32498 0.17137 0.0
H456 H 0.76716 0.43003 0.13448 0.0
H457 H 0.73076 0.37372 0.1452 0.0
H458 H 0.88311 0.3672 0.02944 0.0
H459 H 0.8475 0.31163 0.04294 0.0
H460 H 0.92103 0.43062 0.05402 0.0
H461 H 0.91064 0.47264 0.06968 0.0
C462 C 0.45691 0.78995 0.56772 0.0
C463 C 0.49554 0.81591 0.59001 0.0
C464 C 0.46336 0.86214 0.61047 0.0
C465 C 0.4219 0.83146 0.5931 0.0
N466 N 0.37689 0.76061 0.56082 0.0
N467 N 0.53385 0.87443 0.63619 0.0
C468 C 0.41807 0.79403 0.5729 0.0
C469 C 0.49858 0.85173 0.61211 0.0
N470 N 0.45761 0.76185 0.54115 0.0
N471 N 0.46963 0.90182 0.6246 0.0
H472 H 0.5608 0.86869 0.63801 0.0
H473 H 0.53475 0.89667 0.65636 0.0
H474 H 0.44481 0.91081 0.62383 0.0
H475 H 0.50078 0.92761 0.63388 0.0
H476 H 0.43195 0.7453 0.52158 0.0
H477 H 0.48588 0.75859 0.53648 0.0
H478 H 0.37191 0.73074 0.54905 0.0
H479 H 0.34683 0.76019 0.56618 0.0
C480 C 0.66239 0.4883 0.10911 0.0
C481 C 0.69824 0.48222 0.09612 0.0
C482 C 0.64499 0.40162 0.08805 0.0
C483 C 0.60855 0.40847 0.09707 0.0
N484 N 0.58194 0.46006 0.11001 0.0
N485 N 0.72126 0.43497 0.06473 0.0
C486 C 0.61705 0.45233 0.10581 0.0
C487 C 0.68877 0.4394 0.08304 0.0
N488 N 0.67139 0.52736 0.12649 0.0
N489 N 0.6384 0.35897 0.08611 0.0
H490 H 0.75313 0.4623 0.059 0.0
H491 H 0.715 0.40526 0.05172 0.0
H492 H 0.60737 0.33023 0.09135 0.0
H493 H 0.66479 0.35235 0.08347 0.0
H494 H 0.64694 0.53122 0.14048 0.0
H495 H 0.70372 0.55474 0.13 0.0
H496 H 0.58616 0.49221 0.11193 0.0
H497 H 0.54835 0.43463 0.10838 0.0
C498 C 0.20172 0.62841 0.63641 0.0
C499 C 0.20232 0.60547 0.60356 0.0
C500 C 0.21573 0.67094 0.56586 0.0
C501 C 0.2142 0.69288 0.59863 0.0
N502 N 0.18658 0.68476 0.66145 0.0
N503 N 0.193 0.59922 0.5365 0.0
C504 C 0.20081 0.669 0.63272 0.0
C505 C 0.20408 0.62499 0.56801 0.0
N506 N 0.2056 0.61411 0.67107 0.0
N507 N 0.22906 0.69402 0.53296 0.0
H508 H 0.18097 0.56466 0.53734 0.0
H509 H 0.19048 0.61091 0.51028 0.0
H510 H 0.23634 0.72728 0.53043 0.0
H511 H 0.23549 0.681 0.50901 0.0
H512 H 0.20962 0.63283 0.69513 0.0
H513 H 0.20986 0.58663 0.67585 0.0
H514 H 0.17229 0.66618 0.68568 0.0
H515 H 0.18445 0.71393 0.65915 0.0
C516 C 0.80698 0.46797 0.38764 0.0
C517 C 0.81331 0.49315 0.42077 0.0
C518 C 0.84451 0.45083 0.45137 0.0
C519 C 0.83092 0.42098 0.42042 0.0
N520 N 0.79 0.3963 0.36199 0.0
N521 N 0.83337 0.50504 0.48604 0.0
C522 C 0.80988 0.4283 0.38918 0.0
C523 C 0.83116 0.48392 0.45316 0.0
N524 N 0.79952 0.48261 0.35434 0.0
N525 N 0.87101 0.44822 0.47863 0.0
H526 H 0.82297 0.52866 0.48869 0.0
H527 H 0.8417 0.49618 0.51138 0.0
H528 H 0.88227 0.42511 0.47774 0.0
H529 H 0.88549 0.47179 0.50001 0.0
H530 H 0.79889 0.4676 0.32892 0.0
H531 H 0.79925 0.5127 0.35153 0.0
H532 H 0.77019 0.39836 0.34086 0.0
H533 H 0.78892 0.36546 0.36257 0.0
C534 C 0.36115 0.8223 0.95489 0.0
C535 C 0.33463 0.80381 0.92233 0.0
C536 C 0.39655 0.79932 0.89268 0.0
C537 C 0.42461 0.8212 0.92396 0.0
N538 N 0.43624 0.86201 0.98159 0.0
N539 N 0.33207 0.78766 0.85649 0.0
C540 C 0.40769 0.83532 0.95411 0.0
C541 C 0.35394 0.79643 0.89004 0.0
N542 N 0.34157 0.8255 0.98704 0.0
N543 N 0.40884 0.77842 0.86665 0.0
H544 H 0.30145 0.78683 0.85297 0.0
H545 H 0.34679 0.78629 0.83146 0.0
H546 H 0.43834 0.77685 0.86832 0.0
H547 H 0.38718 0.75814 0.84558 0.0
H548 H 0.35813 0.83415 0.01269 0.0
H549 H 0.30752 0.81575 0.98881 0.0
H550 H 0.42681 0.87702 1.0022 0.0
H551 H 0.47056 0.87274 0.98172 0.0
C552 C 0.60162 0.39384 0.38939 0.0
C553 C 0.60881 0.42337 0.41963 0.0
C554 C 0.54552 0.36153 0.45332 0.0
C555 C 0.53648 0.33328 0.42181 0.0
N556 N 0.54731 0.32793 0.35569 0.0
N557 N 0.58125 0.43808 0.47673 0.0
C558 C 0.56182 0.35114 0.38853 0.0
C559 C 0.57874 0.40804 0.45052 0.0
N560 N 0.63391 0.40494 0.36262 0.0
N561 N 0.52409 0.34374 0.48637 0.0
H562 H 0.60444 0.47247 0.4751 0.0
H563 H 0.55755 0.42963 0.49791 0.0
H564 H 0.50026 0.30976 0.48969 0.0
H565 H 0.53281 0.36184 0.51125 0.0
H566 H 0.63185 0.38224 0.34235 0.0
H567 H 0.66496 0.43468 0.36289 0.0
H568 H 0.56241 0.34163 0.3301 0.0
H569 H 0.51728 0.29729 0.35327 0.0
C570 C 0.16527 0.55633 0.91076 0.0
C571 C 0.1945 0.59661 0.93025 0.0
C572 C 0.23677 0.56169 0.95401 0.0
C573 C 0.21265 0.52482 0.92959 0.0
N574 N 0.15761 0.49018 0.88008 0.0
N575 N 0.2646 0.64071 0.96408 0.0
C576 C 0.17753 0.52265 0.90689 0.0
C577 C 0.23187 0.60011 0.95048 0.0
N578 N 0.12537 0.54973 0.89664 0.0
N579 N 0.26407 0.55981 0.9809 0.0
H580 H 0.26477 0.67077 0.95966 0.0
H581 H 0.29439 0.64544 0.97603 0.0
H582 H 0.26768 0.53166 0.98469 0.0
H583 H 0.27927 0.58414 1.00166 0.0
H584 H 0.10079 0.51914 0.88545 0.0
H585 H 0.11484 0.57324 0.89954 0.0
H586 H 0.13553 0.4903 0.86015 0.0
H587 H 0.16604 0.46538 0.87543 0.0
C588 C 0.62371 0.1895 0.45448 0.0
C589 C 0.60744 0.20033 0.42182 0.0
C590 C 0.67783 0.21956 0.39007 0.0
C591 C 0.69715 0.2174 0.42446 0.0
N592 N 0.68933 0.20368 0.4908 0.0
N593 N 0.62421 0.23546 0.3607 0.0
C594 C 0.67027 0.20296 0.45712 0.0
C595 C 0.63573 0.2178 0.39004 0.0
N596 N 0.59449 0.16526 0.48247 0.0
N597 N 0.69886 0.22161 0.35719 0.0
H598 H 0.59521 0.238 0.36009 0.0
H599 H 0.64622 0.25236 0.33873 0.0
H600 H 0.72809 0.21944 0.356 0.0
H601 H 0.68422 0.2196 0.33122 0.0
H602 H 0.60373 0.15298 0.50538 0.0
H603 H 0.55991 0.15331 0.48081 0.0
H604 H 0.67227 0.19797 0.51604 0.0
H605 H 0.72334 0.21368 0.49383 0.0
C606 C 0.46511 0.60996 0.91972 0.0
C607 C 0.42292 0.60219 0.93338 0.0
C608 C 0.45926 0.68071 0.95403 0.0
C609 C 0.49913 0.69039 0.93475 0.0
N610 N 0.53792 0.66405 0.89459 0.0
N611 N 0.37835 0.63415 0.95546 0.0
C612 C 0.50178 0.65495 0.91656 0.0
C613 C 0.41956 0.63858 0.94857 0.0
N614 N 0.47074 0.5745 0.91068 0.0
N615 N 0.45947 0.71163 0.97806 0.0
H616 H 0.34809 0.60522 0.94881 0.0
H617 H 0.37435 0.66113 0.96332 0.0
H618 H 0.48879 0.74192 0.9841 0.0
H619 H 0.43214 0.70483 0.99509 0.0
H620 H 0.50205 0.57805 0.90448 0.0
H621 H 0.445 0.54116 0.91291 0.0
H622 H 0.53859 0.6402 0.87708 0.0
H623 H 0.56587 0.69601 0.89143 0.0
C624 C 0.42043 0.24435 0.2879 0.0
C625 C 0.41708 0.20339 0.30043 0.0
C626 C 0.41747 0.18121 0.23557 0.0
C627 C 0.41764 0.22064 0.22298 0.0
N628 N 0.40721 0.28329 0.23738 0.0
N629 N 0.39984 0.12795 0.286 0.0
C630 C 0.41518 0.25011 0.24926 0.0
C631 C 0.4114 0.1702 0.27414 0.0
N632 N 0.43168 0.27911 0.31216 0.0
N633 N 0.4263 0.15581 0.21141 0.0
H634 H 0.39428 0.11857 0.31406 0.0
H635 H 0.39108 0.10117 0.26777 0.0
H636 H 0.43327 0.16331 0.1832 0.0
H637 H 0.43141 0.12979 0.22019 0.0
H638 H 0.43963 0.3112 0.30345 0.0
H639 H 0.43739 0.27762 0.34052 0.0
H640 H 0.40071 0.30298 0.25559 0.0
H641 H 0.40238 0.2879 0.20932 0.0
C642 C 0.26481 0.44967 0.73584 0.0
C643 C 0.21984 0.42135 0.7233 0.0
C644 C 0.20141 0.38014 0.78256 0.0
C645 C 0.24403 0.41309 0.7971 0.0
N646 N 0.32222 0.46006 0.78055 0.0
N647 N 0.14475 0.35967 0.73407 0.0
C648 C 0.27773 0.44246 0.77171 0.0
C649 C 0.18803 0.38625 0.74635 0.0
N650 N 0.29494 0.48444 0.71396 0.0
N651 N 0.17591 0.34101 0.80173 0.0
H652 H 0.1343 0.36269 0.70739 0.0
H653 H 0.11859 0.33692 0.75109 0.0
H654 H 0.18844 0.33251 0.82496 0.0
H655 H 0.14582 0.31429 0.79173 0.0
H656 H 0.32649 0.50928 0.72341 0.0
H657 H 0.28719 0.49062 0.68725 0.0
H658 H 0.34845 0.47892 0.76204 0.0
H659 H 0.33256 0.44989 0.80418 0.0
C660 C 0.79958 0.25087 0.27729 0.0
C661 C 0.81728 0.22926 0.29995 0.0
C662 C 0.80729 0.17907 0.24719 0.0
C663 C 0.79505 0.20468 0.22398 0.0
N664 N 0.79705 0.27523 0.21491 0.0
N665 N 0.84642 0.17818 0.30337 0.0
C666 C 0.79623 0.24354 0.23842 0.0
C667 C 0.82337 0.19462 0.28413 0.0
N668 N 0.78403 0.27697 0.29252 0.0
N669 N 0.80314 0.13983 0.23418 0.0
H670 H 0.86093 0.19039 0.32944 0.0
H671 H 0.85528 0.15589 0.29182 0.0
H672 H 0.79178 0.12793 0.20726 0.0
H673 H 0.80733 0.11746 0.25102 0.0
H674 H 0.76742 0.28976 0.27672 0.0
H675 H 0.78237 0.28139 0.32107 0.0
H676 H 0.80162 0.30599 0.22429 0.0
H677 H 0.79959 0.27343 0.18608 0.0
C678 C 0.60758 0.77778 0.78611 0.0
C679 C 0.61147 0.81839 0.79987 0.0
C680 C 0.61555 0.84494 0.73565 0.0
C681 C 0.61354 0.80498 0.72199 0.0
N682 N 0.62233 0.74101 0.73498 0.0
N683 N 0.63137 0.89522 0.7882 0.0
C684 C 0.61444 0.77396 0.74755 0.0
C685 C 0.61938 0.85347 0.77475 0.0
N686 N 0.59427 0.74157 0.80916 0.0
N687 N 0.61105 0.87353 0.71188 0.0
H688 H 0.63507 0.90272 0.81665 0.0
H689 H 0.64207 0.92335 0.77115 0.0
H690 H 0.60865 0.86952 0.68311 0.0
H691 H 0.60633 0.89965 0.721 0.0
H692 H 0.58633 0.70981 0.79955 0.0
H693 H 0.58652 0.74175 0.8372 0.0
H694 H 0.62741 0.71996 0.75278 0.0
H695 H 0.62885 0.73816 0.70697 0.0
C696 C 0.77482 0.59533 0.2358 0.0
C697 C 0.81955 0.60817 0.22495 0.0
C698 C 0.84677 0.64006 0.28745 0.0
C699 C 0.80124 0.62108 0.29952 0.0
N700 N 0.72687 0.60359 0.28083 0.0
N701 N 0.89859 0.64294 0.23977 0.0
C702 C 0.76673 0.60581 0.27223 0.0
C703 C 0.85576 0.63089 0.25055 0.0
N704 N 0.73949 0.57007 0.21234 0.0
N705 N 0.88113 0.6699 0.3098 0.0
H706 H 0.90671 0.63921 0.21247 0.0
H707 H 0.92563 0.65422 0.2582 0.0
H708 H 0.87557 0.68339 0.33384 0.0
H709 H 0.91488 0.68683 0.30191 0.0
H710 H 0.70585 0.55547 0.22037 0.0
H711 H 0.74354 0.5599 0.18596 0.0
H712 H 0.70163 0.5965 0.2613 0.0
H713 H 0.72173 0.61476 0.30645 0.0
C714 C 0.1971 0.82299 0.78395 0.0
C715 C 0.19213 0.78169 0.79763 0.0
C716 C 0.22192 0.77107 0.7392 0.0
C717 C 0.22796 0.81234 0.72523 0.0
N718 N 0.21419 0.87414 0.73117 0.0
N719 N 0.17369 0.70727 0.77726 0.0
C720 C 0.21315 0.83727 0.74664 0.0
C721 C 0.19658 0.75279 0.77201 0.0
N722 N 0.18503 0.84756 0.806 0.0
N723 N 0.24024 0.74887 0.72145 0.0
H724 H 0.14859 0.69179 0.79744 0.0
H725 H 0.17413 0.68488 0.75786 0.0
H726 H 0.25846 0.75992 0.6967 0.0
H727 H 0.24003 0.72096 0.73321 0.0
H728 H 0.19343 0.88058 0.80037 0.0
H729 H 0.1651 0.83403 0.82971 0.0
H730 H 0.20041 0.89184 0.74362 0.0
H731 H 0.22734 0.88606 0.70465 0.0
C732 C 0.23988 0.95943 0.02678 0.0
C733 C 0.24368 0.96519 0.98749 0.0
C734 C 0.27916 0.04682 0.99556 0.0
C735 C 0.28051 0.04131 0.0347 0.0
N736 N 0.26946 0.99269 0.08718 0.0
N737 N 0.27386 0.01474 0.93435 0.0
C738 C 0.26284 0.99768 0.05027 0.0
C739 C 0.26521 1.00902 0.97178 0.0
N740 N 0.21316 0.91761 0.04171 0.0
N741 N 0.28981 0.08782 0.98113 0.0
H742 H 0.26474 0.98795 0.91603 0.0
H743 H 0.29376 0.04615 0.92205 0.0
H744 H 0.29949 0.11616 0.9977 0.0
H745 H 0.28499 0.09272 0.95319 0.0
H746 H 0.20548 0.91211 0.07002 0.0
H747 H 0.19508 0.88887 0.0254 0.0
H748 H 0.26146 0.96187 0.09904 0.0
H749 H 0.2869 0.01986 0.10525 0.0
C750 C 0.26778 0.25907 0.55282 0.0
C751 C 0.24441 0.27899 0.53626 0.0
C752 C 0.26318 0.26405 0.47401 0.0
C753 C 0.28331 0.24088 0.49054 0.0
N754 N 0.29714 0.20849 0.54518 0.0
N755 N 0.21187 0.29259 0.48157 0.0
C756 C 0.28336 0.23605 0.52985 0.0
C757 C 0.2397 0.27913 0.49694 0.0
N758 N 0.27667 0.26364 0.59026 0.0
N759 N 0.268 0.27324 0.43662 0.0
H760 H 0.19382 0.30355 0.49751 0.0
H761 H 0.20347 0.28902 0.45335 0.0
H762 H 0.28534 0.26316 0.41887 0.0
H763 H 0.25833 0.2943 0.42379 0.0
H764 H 0.29789 0.25418 0.60315 0.0
H765 H 0.26605 0.28048 0.60807 0.0
H766 H 0.29347 0.19994 0.57336 0.0
H767 H 0.30857 0.19087 0.52922 0.0
C768 C 0.99559 0.22357 0.02373 0.0
C769 C 0.98028 0.25256 0.0368 0.0
C770 C 0.0311 0.31075 0.99319 0.0
C771 C 0.05086 0.28432 0.98402 0.0
N772 N 0.05696 0.21833 0.9957 0.0
N773 N 0.99133 0.32769 0.0401 0.0
C774 C 0.03448 0.24138 1.00066 0.0
C775 C 1.00018 0.29731 0.02325 0.0
N776 N 0.97222 0.17875 0.03229 0.0
N777 N 0.0404 0.34775 0.97237 0.0
H778 H 0.97036 0.31977 0.0633 0.0
H779 H 1.00846 0.36184 0.03343 0.0
H780 H 0.06134 0.35762 0.94901 0.0
H781 H 0.02355 0.36567 0.97591 0.0
H782 H 0.97936 0.15537 0.02041 0.0
H783 H 0.94287 0.16416 0.0483 0.0
H784 H 0.0491 0.18908 1.01036 0.0
H785 H 0.08617 0.23061 0.9797 0.0
C786 C 0.74865 0.97043 0.49148 0.0
C787 C 0.74828 0.97482 0.53081 0.0
C788 C 0.79064 0.05691 0.52488 0.0
C789 C 0.78624 0.05247 0.48552 0.0
N790 N 0.75504 1.00513 0.43124 0.0
N791 N 0.76216 0.02181 0.58493 0.0
C792 C 0.7637 1.00924 0.46871 0.0
C793 C 0.76751 0.01797 0.54757 0.0
N794 N 0.73568 0.92936 0.47594 0.0
N795 N 0.81796 0.09818 0.54056 0.0
H796 H 0.74506 0.99409 0.60253 0.0
H797 H 0.7711 0.05231 0.59787 0.0
H798 H 0.83594 0.12746 0.52481 0.0
H799 H 0.82612 0.10276 0.56883 0.0
H800 H 0.73971 0.92491 0.44776 0.0
H801 H 0.72455 0.90017 0.49176 0.0
H802 H 0.73444 0.9744 0.41815 0.0
H803 H 0.76514 0.03272 0.41361 0.0
C804 C 0.77231 0.76291 0.04646 0.0
C805 C 0.78899 0.73628 0.03068 0.0
C806 C 0.76455 0.74543 0.96867 0.0
C807 C 0.75166 0.77536 0.98396 0.0
N808 N 0.75185 0.82 0.03597 0.0
N809 N 0.80995 0.71013 0.97595 0.0
C810 C 0.75809 0.78633 0.02247 0.0
C811 C 0.78775 0.72984 0.9915 0.0
N812 N 0.76834 0.76445 0.0843 0.0
N813 N 0.75312 0.73047 0.93279 0.0
H814 H 0.82801 0.69893 0.99168 0.0
H815 H 0.81406 0.70878 0.94728 0.0
H816 H 0.73554 0.74056 0.91524 0.0
H817 H 0.75736 0.70489 0.92156 0.0
H818 H 0.75189 0.77939 0.09712 0.0
H819 H 0.77774 0.74721 0.10286 0.0
H820 H 0.7605 0.83256 0.06301 0.0
H821 H 0.74194 0.83829 0.01914 0.0
C822 C 0.01948 0.76541 0.47589 0.0
C823 C 0.97599 0.74393 0.49234 0.0
C824 C 1.01006 0.75812 0.55463 0.0
C825 C 0.05344 0.78308 0.53826 0.0
N826 N 0.09927 0.81811 0.48389 0.0
N827 N 0.9296 0.72735 0.54723 0.0
C828 C 0.05812 0.789 0.49901 0.0
C829 C 0.97116 0.74244 0.53171 0.0
N830 N 0.02402 0.76183 0.43835 0.0
N831 N 1.00596 0.7479 0.59181 0.0
H832 H 0.90033 0.7159 0.53136 0.0
H833 H 0.92468 0.72993 0.57558 0.0
H834 H 0.03362 0.75848 0.60953 0.0
H835 H 0.97536 0.72564 0.60442 0.0
H836 H 0.05499 0.77263 0.42545 0.0
H837 H 0.99658 0.74432 0.42049 0.0
H838 H 0.10384 0.82734 0.45585 0.0
H839 H 0.12832 0.83628 0.49995 0.0
C840 C 0.71112 0.05123 0.99149 0.0
C841 C 0.7109 0.0508 0.03109 0.0
C842 C 0.66563 0.96823 0.03083 0.0
C843 C 0.6676 0.96854 0.99128 0.0
N844 N 0.69903 1.00922 0.93406 0.0
N845 N 0.69596 1.00943 0.08862 0.0
C846 C 0.69241 1.00977 0.97162 0.0
C847 C 0.69057 1.00938 0.05081 0.0
N848 N 0.72778 0.09121 0.97288 0.0
N849 N 0.63869 0.92876 0.04925 0.0
H850 H 0.714 0.03895 0.10409 0.0
H851 H 0.68602 0.98038 0.10424 0.0
H852 H 0.62035 0.89791 0.03561 0.0
H853 H 0.63174 0.92695 0.07766 0.0
H854 H 0.72411 0.09354 0.94426 0.0
H855 H 0.7427 0.12228 0.98641 0.0
H856 H 0.72078 0.03773 0.91874 0.0
H857 H 0.68554 0.97956 0.91855 0.0
C858 C 0.65144 0.62649 0.5079 0.0
C859 C 0.69632 0.65227 0.49437 0.0
C860 C 0.7019 0.71677 0.52807 0.0
C861 C 0.65457 0.69376 0.53417 0.0
N862 N 0.58313 0.629 0.51656 0.0
N863 N 0.75729 0.72802 0.48179 0.0
C864 C 0.62876 0.64914 0.52023 0.0
C865 C 0.71977 0.69932 0.50154 0.0
N866 N 0.6308 0.58081 0.51052 0.0
N867 N 0.73028 0.75379 0.54847 0.0
H868 H 0.76818 0.7175 0.45878 0.0
H869 H 0.77353 0.76284 0.48544 0.0
H870 H 0.71913 0.76459 0.57114 0.0
H871 H 0.76526 0.76975 0.54558 0.0
H872 H 0.59878 0.56151 0.52216 0.0
H873 H 0.64783 0.56334 0.50535 0.0
H874 H 0.56391 0.59724 0.50451 0.0
H875 H 0.56581 0.6463 0.52107 0.0
C876 C 0.99974 0.69375 0.02937 0.0
C877 C 0.97756 0.64724 0.03853 0.0
C878 C 0.04267 0.64524 0.01306 0.0
C879 C 0.05944 0.68844 0.9967 0.0
N880 N 0.04134 0.74603 0.98027 0.0
N881 N 0.97396 0.57613 0.02633 0.0
C882 C 0.03438 0.71065 1.00214 0.0
C883 C 0.99777 0.622 0.02668 0.0
N884 N 0.98976 0.72244 0.04759 0.0
N885 N 0.06965 0.62694 0.01723 0.0
H886 H 0.93951 0.55782 0.03205 0.0
H887 H 0.98742 0.55707 0.01581 0.0
H888 H 0.10401 0.64479 1.01107 0.0
H889 H 0.05876 0.59641 0.031 0.0
H890 H 1.00734 0.75705 0.04259 0.0
H891 H 0.96828 0.71241 0.07061 0.0
H892 H 0.02158 0.76114 0.98259 0.0
H893 H 0.06248 0.75607 0.95705 0.0
C894 C 0.31108 0.99627 0.52748 0.0
C895 C 0.33418 0.97227 0.53412 0.0
C896 C 0.40145 0.0362 0.5072 0.0
C897 C 0.37571 0.0551 0.49343 0.0
N898 N 0.29983 0.0398 0.48055 0.0
N899 N 0.39855 0.96536 0.51621 0.0
C900 C 0.32855 0.0313 0.50056 0.0
C901 C 0.37866 0.99092 0.51982 0.0
N902 N 0.2741 0.9878 0.5478 0.0
N903 N 0.44721 0.0614 0.51 0.0
H904 H 0.38105 0.93073 0.521 0.0
H905 H 0.43024 0.97784 0.504 0.0
H906 H 0.46478 0.09597 0.50492 0.0
H907 H 0.46642 0.04871 0.52177 0.0
H908 H 0.25812 1.00664 0.54449 0.0
H909 H 0.26342 0.96632 0.57082 0.0
H910 H 0.26494 0.02108 0.4842 0.0
H911 H 0.31042 0.0611 0.45742 0.0
C912 C 0.32721 0.36131 0.03157 0.0
C913 C 0.32754 0.36202 0.99198 0.0
C914 C 0.37179 0.32375 0.99128 0.0
C915 C 0.36922 0.32073 0.03078 0.0
N916 N 0.33787 0.32912 0.08831 0.0
N917 N 0.34259 0.33692 0.93384 0.0
C918 C 0.34497 0.33735 0.05088 0.0
C919 C 0.34764 0.34115 0.97173 0.0
N920 N 0.31117 0.38474 0.05074 0.0
N921 N 0.39842 0.31121 0.97253 0.0
H922 H 0.32526 0.34936 0.9186 0.0
H923 H 0.35222 0.3179 0.91783 0.0
H924 H 0.41604 0.29771 0.98584 0.0
H925 H 0.40584 0.31727 0.94423 0.0
H926 H 0.31471 0.38993 0.07945 0.0
H927 H 0.29716 0.40199 0.0376 0.0
H928 H 0.3164 0.33598 0.10384 0.0
H929 H 0.35058 0.31196 0.10343 0.0
C930 C 0.03851 0.39782 0.52163 0.0
C931 C 0.05729 0.37195 0.53531 0.0
C932 C 0.99811 0.30755 0.5013 0.0
C933 C 0.9744 0.33092 0.49449 0.0
N934 N 0.96778 0.39539 0.51229 0.0
N935 N 0.04176 0.29619 0.54816 0.0
C936 C 0.99318 0.37525 0.50896 0.0
C937 C 0.03321 0.32488 0.52824 0.0
N938 N 0.06397 0.44346 0.5187 0.0
N939 N 0.98952 0.27059 0.48095 0.0
H940 H 0.06339 0.3068 0.57113 0.0
H941 H 0.02287 0.26136 0.54458 0.0
H942 H 0.96822 0.26012 0.45779 0.0
H943 H 1.00821 0.25446 0.48436 0.0
H944 H 0.05137 0.46272 0.50692 0.0
H945 H 0.09866 0.46085 0.52359 0.0
H946 H 0.98036 0.427 0.52457 0.0
H947 H 0.93317 0.37822 0.50708 0.0
loop_
_geom_bond_atom_site_label_1
_geom_bond_atom_site_label_2
_geom_bond_distance
_geom_bond_site_symmetry_2
_ccdc_geom_bond_type
Co0 O3 1.970 . S
Co0 N17 1.989 . S
Co0 O25 1.967 . S
Co0 O32 1.920 . S
Co1 O4 1.966 . S
Co1 N10 2.022 . S
Co1 N18 1.993 . S
Co1 O26 1.941 . S
C2 O3 1.258 . S
C2 O4 1.263 . S
O3 Co0 1.970 . S
O3 C2 1.258 . S
O4 Co1 1.966 . S
O4 C2 1.263 . S
C5 O6 1.235 . S
C5 O32 1.289 . S
O6 C5 1.235 . S
C7 C9 1.400 . S
C7 N10 1.351 . S
C7 C12 1.501 . S
C8 C9 1.387 . S
C8 N11 1.341 . S
C9 C7 1.400 . S
C9 C8 1.387 . S
N10 Co1 2.022 . S
N10 C7 1.351 . S
N10 N11 1.365 . S
N11 C8 1.341 . S
N11 N10 1.365 . S
N11 H31 0.862 . S
C12 C7 1.501 . S
C12 H13 0.961 . S
C12 H14 0.961 . S
C12 H15 0.960 . S
H13 C12 0.961 . S
H14 C12 0.961 . S
H15 C12 0.960 . S
C16 N17 1.342 . S
C16 C20 1.401 . S
C16 C21 1.499 . S
N17 Co0 1.989 . S
N17 C16 1.342 . S
N17 N18 1.388 . S
N18 Co1 1.993 . S
N18 N17 1.388 . S
N18 C19 1.346 . S
C19 N18 1.346 . S
C19 C20 1.396 . S
C19 C29 1.510 . S
C20 C16 1.401 . S
C20 C19 1.396 . S
C21 C16 1.499 . S
C21 H22 0.959 . S
C21 H23 0.960 . S
C21 H24 0.961 . S
H22 C21 0.959 . S
H23 C21 0.960 . S
H24 C21 0.961 . S
O25 Co0 1.967 . S
O25 C33 1.258 . S
O26 Co1 1.941 . S
O26 C33 1.266 . S
H27 C29 0.959 . S
H28 C29 0.961 . S
C29 C19 1.510 . S
C29 H27 0.959 . S
C29 H28 0.961 . S
C29 H30 0.960 . S
H30 C29 0.960 . S
H31 N11 0.862 . S
O32 Co0 1.920 . S
O32 C5 1.289 . S
C33 O25 1.258 . S
C33 O26 1.266 . S
Co34 O37 1.970 . S
Co34 N51 1.989 . S
Co34 O59 1.967 . S
Co34 O66 1.920 . S
Co35 O38 1.966 . S
Co35 N44 2.022 . S
Co35 N52 1.993 . S
Co35 O60 1.941 . S
C36 O37 1.258 . S
C36 O38 1.263 . S
O37 Co34 1.970 . S
O37 C36 1.258 . S
O38 Co35 1.966 . S
O38 C36 1.263 . S
C39 O40 1.235 . S
C39 O66 1.289 . S
O40 C39 1.235 . S
C41 C43 1.400 . S
C41 N44 1.351 . S
C41 C46 1.501 . S
C42 C43 1.387 . S
C42 N45 1.341 . S
C43 C41 1.400 . S
C43 C42 1.387 . S
N44 Co35 2.022 . S
N44 C41 1.351 . S
N44 N45 1.365 . S
N45 C42 1.341 . S
N45 N44 1.365 . S
N45 H65 0.862 . S
C46 C41 1.501 . S
C46 H47 0.961 . S
C46 H48 0.961 . S
C46 H49 0.960 . S
H47 C46 0.961 . S
H48 C46 0.961 . S
H49 C46 0.960 . S
C50 N51 1.342 . S
C50 C54 1.401 . S
C50 C55 1.499 . S
N51 Co34 1.989 . S
N51 C50 1.342 . S
N51 N52 1.388 . S
N52 Co35 1.993 . S
N52 N51 1.388 . S
N52 C53 1.346 . S
C53 N52 1.346 . S
C53 C54 1.396 . S
C53 C63 1.510 . S
C54 C50 1.401 . S
C54 C53 1.396 . S
C55 C50 1.499 . S
C55 H56 0.959 . S
C55 H57 0.960 . S
C55 H58 0.961 . S
H56 C55 0.959 . S
H57 C55 0.960 . S
H58 C55 0.961 . S
O59 Co34 1.967 . S
O59 C67 1.258 . S
O60 Co35 1.941 . S
O60 C67 1.266 . S
H61 C63 0.959 . S
H62 C63 0.961 . S
C63 C53 1.510 . S
C63 H61 0.959 . S
C63 H62 0.961 . S
C63 H64 0.960 . S
H64 C63 0.960 . S
H65 N45 0.862 . S
O66 Co34 1.920 . S
O66 C39 1.289 . S
C67 O59 1.258 . S
C67 O60 1.266 . S
Co68 O71 1.970 . S
Co68 N85 1.989 . S
Co68 O93 1.967 . S
Co68 O100 1.920 . S
Co69 O72 1.966 . S
Co69 N78 2.022 . S
Co69 N86 1.993 . S
Co69 O94 1.941 . S
C70 O71 1.258 . S
C70 O72 1.263 . S
O71 Co68 1.970 . S
O71 C70 1.258 . S
O72 Co69 1.966 . S
O72 C70 1.263 . S
C73 O74 1.235 . S
C73 O100 1.289 . S
O74 C73 1.235 . S
C75 C77 1.400 . S
C75 N78 1.351 . S
C75 C80 1.501 . S
C76 C77 1.387 . S
C76 N79 1.341 . S
C77 C75 1.400 . S
C77 C76 1.387 . S
N78 Co69 2.022 . S
N78 C75 1.351 . S
N78 N79 1.365 . S
N79 C76 1.341 . S
N79 N78 1.365 . S
N79 H99 0.862 . S
C80 C75 1.501 . S
C80 H81 0.961 . S
C80 H82 0.961 . S
C80 H83 0.960 . S
H81 C80 0.961 . S
H82 C80 0.961 . S
H83 C80 0.960 . S
C84 N85 1.342 . S
C84 C88 1.401 . S
C84 C89 1.499 . S
N85 Co68 1.989 . S
N85 C84 1.342 . S
N85 N86 1.388 . S
N86 Co69 1.993 . S
N86 N85 1.388 . S
N86 C87 1.346 . S
C87 N86 1.346 . S
C87 C88 1.396 . S
C87 C97 1.510 . S
C88 C84 1.401 . S
C88 C87 1.396 . S
C89 C84 1.499 . S
C89 H90 0.959 . S
C89 H91 0.960 . S
C89 H92 0.961 . S
H90 C89 0.959 . S
H91 C89 0.960 . S
H92 C89 0.961 . S
O93 Co68 1.967 . S
O93 C101 1.258 . S
O94 Co69 1.941 . S
O94 C101 1.266 . S
H95 C97 0.959 . S
H96 C97 0.961 . S
C97 C87 1.510 . S
C97 H95 0.959 . S
C97 H96 0.961 . S
C97 H98 0.960 . S
H98 C97 0.960 . S
H99 N79 0.862 . S
O100 Co68 1.920 . S
O100 C73 1.289 . S
C101 O93 1.258 . S
C101 O94 1.266 . S
Co102 O105 1.970 . S
Co102 N119 1.989 . S
Co102 O127 1.967 . S
Co102 O134 1.920 . S
Co103 O106 1.966 . S
Co103 N112 2.022 . S
Co103 N120 1.993 . S
Co103 O128 1.941 . S
C104 O105 1.258 . S
C104 O106 1.263 . S
O105 Co102 1.970 . S
O105 C104 1.258 . S
O106 Co103 1.966 . S
O106 C104 1.263 . S
C107 O108 1.235 . S
C107 O134 1.289 . S
O108 C107 1.235 . S
C109 C111 1.400 . S
C109 N112 1.351 . S
C109 C114 1.501 . S
C110 C111 1.387 . S
C110 N113 1.341 . S
C111 C109 1.400 . S
C111 C110 1.387 . S
N112 Co103 2.022 . S
N112 C109 1.351 . S
N112 N113 1.365 . S
N113 C110 1.341 . S
N113 N112 1.365 . S
N113 H133 0.862 . S
C114 C109 1.501 . S
C114 H115 0.961 . S
C114 H116 0.961 . S
C114 H117 0.960 . S
H115 C114 0.961 . S
H116 C114 0.961 . S
H117 C114 0.960 . S
C118 N119 1.342 . S
C118 C122 1.401 . S
C118 C123 1.499 . S
N119 Co102 1.989 . S
N119 C118 1.342 . S
N119 N120 1.388 . S
N120 Co103 1.993 . S
N120 N119 1.388 . S
N120 C121 1.346 . S
C121 N120 1.346 . S
C121 C122 1.396 . S
C121 C131 1.510 . S
C122 C118 1.401 . S
C122 C121 1.396 . S
C123 C118 1.499 . S
C123 H124 0.959 . S
C123 H125 0.960 . S
C123 H126 0.961 . S
H124 C123 0.959 . S
H125 C123 0.960 . S
H126 C123 0.961 . S
O127 Co102 1.967 . S
O127 C135 1.258 . S
O128 Co103 1.941 . S
O128 C135 1.266 . S
H129 C131 0.959 . S
H130 C131 0.961 . S
C131 C121 1.510 . S
C131 H129 0.959 . S
C131 H130 0.961 . S
C131 H132 0.960 . S
H132 C131 0.960 . S
H133 N113 0.862 . S
O134 Co102 1.920 . S
O134 C107 1.289 . S
C135 O127 1.258 . S
C135 O128 1.266 . S
Co136 O139 1.970 . S
Co136 N153 1.989 . S
Co136 O161 1.967 . S
Co136 O168 1.920 . S
Co137 O140 1.966 . S
Co137 N146 2.022 . S
Co137 N154 1.993 . S
Co137 O162 1.941 . S
C138 O139 1.258 . S
C138 O140 1.263 . S
O139 Co136 1.970 . S
O139 C138 1.258 . S
O140 Co137 1.966 . S
O140 C138 1.263 . S
C141 O142 1.235 . S
C141 O168 1.289 . S
O142 C141 1.235 . S
C143 C145 1.400 . S
C143 N146 1.351 . S
C143 C148 1.501 . S
C144 C145 1.387 . S
C144 N147 1.341 . S
C145 C143 1.400 . S
C145 C144 1.387 . S
N146 Co137 2.022 . S
N146 C143 1.351 . S
N146 N147 1.365 . S
N147 C144 1.341 . S
N147 N146 1.365 . S
N147 H167 0.862 . S
C148 C143 1.501 . S
C148 H149 0.961 . S
C148 H150 0.961 . S
C148 H151 0.960 . S
H149 C148 0.961 . S
H150 C148 0.961 . S
H151 C148 0.960 . S
C152 N153 1.342 . S
C152 C156 1.401 . S
C152 C157 1.499 . S
N153 Co136 1.989 . S
N153 C152 1.342 . S
N153 N154 1.388 . S
N154 Co137 1.993 . S
N154 N153 1.388 . S
N154 C155 1.346 . S
C155 N154 1.346 . S
C155 C156 1.396 . S
C155 C165 1.510 . S
C156 C152 1.401 . S
C156 C155 1.396 . S
C157 C152 1.499 . S
C157 H158 0.959 . S
C157 H159 0.960 . S
C157 H160 0.961 . S
H158 C157 0.959 . S
H159 C157 0.960 . S
H160 C157 0.961 . S
O161 Co136 1.967 . S
O161 C169 1.258 . S
O162 Co137 1.941 . S
O162 C169 1.266 . S
H163 C165 0.959 . S
H164 C165 0.961 . S
C165 C155 1.510 . S
C165 H163 0.959 . S
C165 H164 0.961 . S
C165 H166 0.960 . S
H166 C165 0.960 . S
H167 N147 0.862 . S
O168 Co136 1.920 . S
O168 C141 1.289 . S
C169 O161 1.258 . S
C169 O162 1.266 . S
Co170 O173 1.970 . S
Co170 N187 1.989 . S
Co170 O195 1.967 . S
Co170 O202 1.920 . S
Co171 O174 1.966 . S
Co171 N180 2.022 . S
Co171 N188 1.993 . S
Co171 O196 1.941 . S
C172 O173 1.258 . S
C172 O174 1.263 . S
O173 Co170 1.970 . S
O173 C172 1.258 . S
O174 Co171 1.966 . S
O174 C172 1.263 . S
C175 O176 1.235 . S
C175 O202 1.289 . S
O176 C175 1.235 . S
C177 C179 1.400 . S
C177 N180 1.351 . S
C177 C182 1.501 . S
C178 C179 1.387 . S
C178 N181 1.341 . S
C179 C177 1.400 . S
C179 C178 1.387 . S
N180 Co171 2.022 . S
N180 C177 1.351 . S
N180 N181 1.365 . S
N181 C178 1.341 . S
N181 N180 1.365 . S
N181 H201 0.862 . S
C182 C177 1.501 . S
C182 H183 0.961 . S
C182 H184 0.961 . S
C182 H185 0.960 . S
H183 C182 0.961 . S
H184 C182 0.961 . S
H185 C182 0.960 . S
C186 N187 1.342 . S
C186 C190 1.401 . S
C186 C191 1.499 . S
N187 Co170 1.989 . S
N187 C186 1.342 . S
N187 N188 1.388 . S
N188 Co171 1.993 . S
N188 N187 1.388 . S
N188 C189 1.346 . S
C189 N188 1.346 . S
C189 C190 1.396 . S
C189 C199 1.510 . S
C190 C186 1.401 . S
C190 C189 1.396 . S
C191 C186 1.499 . S
C191 H192 0.959 . S
C191 H193 0.960 . S
C191 H194 0.961 . S
H192 C191 0.959 . S
H193 C191 0.960 . S
H194 C191 0.961 . S
O195 Co170 1.967 . S
O195 C203 1.258 . S
O196 Co171 1.941 . S
O196 C203 1.266 . S
H197 C199 0.959 . S
H198 C199 0.961 . S
C199 C189 1.510 . S
C199 H197 0.959 . S
C199 H198 0.961 . S
C199 H200 0.960 . S
H200 C199 0.960 . S
H201 N181 0.862 . S
O202 Co170 1.920 . S
O202 C175 1.289 . S
C203 O195 1.258 . S
C203 O196 1.266 . S
Co204 O207 1.970 . S
Co204 N221 1.989 . S
Co204 O229 1.967 . S
Co204 O236 1.920 . S
Co205 O208 1.966 . S
Co205 N214 2.022 . S
Co205 N222 1.993 . S
Co205 O230 1.941 . S
C206 O207 1.258 . S
C206 O208 1.263 . S
O207 Co204 1.970 . S
O207 C206 1.258 . S
O208 Co205 1.966 . S
O208 C206 1.263 . S
C209 O210 1.235 . S
C209 O236 1.289 . S
O210 C209 1.235 . S
C211 C213 1.400 . S
C211 N214 1.351 . S
C211 C216 1.501 . S
C212 C213 1.387 . S
C212 N215 1.341 . S
C213 C211 1.400 . S
C213 C212 1.387 . S
N214 Co205 2.022 . S
N214 C211 1.351 . S
N214 N215 1.365 . S
N215 C212 1.341 . S
N215 N214 1.365 . S
N215 H235 0.862 . S
C216 C211 1.501 . S
C216 H217 0.961 . S
C216 H218 0.961 . S
C216 H219 0.960 . S
H217 C216 0.961 . S
H218 C216 0.961 . S
H219 C216 0.960 . S
C220 N221 1.342 . S
C220 C224 1.401 . S
C220 C225 1.499 . S
N221 Co204 1.989 . S
N221 C220 1.342 . S
N221 N222 1.388 . S
N222 Co205 1.993 . S
N222 N221 1.388 . S
N222 C223 1.346 . S
C223 N222 1.346 . S
C223 C224 1.396 . S
C223 C233 1.510 . S
C224 C220 1.401 . S
C224 C223 1.396 . S
C225 C220 1.499 . S
C225 H226 0.959 . S
C225 H227 0.960 . S
C225 H228 0.961 . S
H226 C225 0.959 . S
H227 C225 0.960 . S
H228 C225 0.961 . S
O229 Co204 1.967 . S
O229 C237 1.258 . S
O230 Co205 1.941 . S
O230 C237 1.266 . S
H231 C233 0.959 . S
H232 C233 0.961 . S
C233 C223 1.510 . S
C233 H231 0.959 . S
C233 H232 0.961 . S
C233 H234 0.960 . S
H234 C233 0.960 . S
H235 N215 0.862 . S
O236 Co204 1.920 . S
O236 C209 1.289 . S
C237 O229 1.258 . S
C237 O230 1.266 . S
Co238 O241 1.970 . S
Co238 N255 1.989 . S
Co238 O263 1.967 . S
Co238 O270 1.920 . S
Co239 O242 1.966 . S
Co239 N248 2.022 . S
Co239 N256 1.993 . S
Co239 O264 1.941 . S
C240 O241 1.258 . S
C240 O242 1.263 . S
O241 Co238 1.970 . S
O241 C240 1.258 . S
O242 Co239 1.966 . S
O242 C240 1.263 . S
C243 O244 1.235 . S
C243 O270 1.289 . S
O244 C243 1.235 . S
C245 C247 1.400 . S
C245 N248 1.351 . S
C245 C250 1.501 . S
C246 C247 1.387 . S
C246 N249 1.341 . S
C247 C245 1.400 . S
C247 C246 1.387 . S
N248 Co239 2.022 . S
N248 C245 1.351 . S
N248 N249 1.365 . S
N249 C246 1.341 . S
N249 N248 1.365 . S
N249 H269 0.862 . S
C250 C245 1.501 . S
C250 H251 0.961 . S
C250 H252 0.961 . S
C250 H253 0.960 . S
H251 C250 0.961 . S
H252 C250 0.961 . S
H253 C250 0.960 . S
C254 N255 1.342 . S
C254 C258 1.401 . S
C254 C259 1.499 . S
N255 Co238 1.989 . S
N255 C254 1.342 . S
N255 N256 1.388 . S
N256 Co239 1.993 . S
N256 N255 1.388 . S
N256 C257 1.346 . S
C257 N256 1.346 . S
C257 C258 1.396 . S
C257 C267 1.510 . S
C258 C254 1.401 . S
C258 C257 1.396 . S
C259 C254 1.499 . S
C259 H260 0.959 . S
C259 H261 0.960 . S
C259 H262 0.961 . S
H260 C259 0.959 . S
H261 C259 0.960 . S
H262 C259 0.961 . S
O263 Co238 1.967 . S
O263 C271 1.258 . S
O264 Co239 1.941 . S
O264 C271 1.266 . S
H265 C267 0.959 . S
H266 C267 0.961 . S
C267 C257 1.510 . S
C267 H265 0.959 . S
C267 H266 0.961 . S
C267 H268 0.960 . S
H268 C267 0.960 . S
H269 N249 0.862 . S
O270 Co238 1.920 . S
O270 C243 1.289 . S
C271 O263 1.258 . S
C271 O264 1.266 . S
Co272 O275 1.970 . S
Co272 N289 1.989 . S
Co272 O297 1.967 . S
Co272 O304 1.920 . S
Co273 O276 1.966 . S
Co273 N282 2.022 . S
Co273 N290 1.993 . S
Co273 O298 1.941 . S
C274 O275 1.258 . S
C274 O276 1.263 . S
O275 Co272 1.970 . S
O275 C274 1.258 . S
O276 Co273 1.966 . S
O276 C274 1.263 . S
C277 O278 1.235 . S
C277 O304 1.289 . S
O278 C277 1.235 . S
C279 C281 1.400 . S
C279 N282 1.351 . S
C279 C284 1.501 . S
C280 C281 1.387 . S
C280 N283 1.341 . S
C281 C279 1.400 . S
C281 C280 1.387 . S
N282 Co273 2.022 . S
N282 C279 1.351 . S
N282 N283 1.365 . S
N283 C280 1.341 . S
N283 N282 1.365 . S
N283 H303 0.862 . S
C284 C279 1.501 . S
C284 H285 0.961 . S
C284 H286 0.961 . S
C284 H287 0.960 . S
H285 C284 0.961 . S
H286 C284 0.961 . S
H287 C284 0.960 . S
C288 N289 1.342 . S
C288 C292 1.401 . S
C288 C293 1.499 . S
N289 Co272 1.989 . S
N289 C288 1.342 . S
N289 N290 1.388 . S
N290 Co273 1.993 . S
N290 N289 1.388 . S
N290 C291 1.346 . S
C291 N290 1.346 . S
C291 C292 1.396 . S
C291 C301 1.510 . S
C292 C288 1.401 . S
C292 C291 1.396 . S
C293 C288 1.499 . S
C293 H294 0.959 . S
C293 H295 0.960 . S
C293 H296 0.961 . S
H294 C293 0.959 . S
H295 C293 0.960 . S
H296 C293 0.961 . S
O297 Co272 1.967 . S
O297 C305 1.258 . S
O298 Co273 1.941 . S
O298 C305 1.266 . S
H299 C301 0.959 . S
H300 C301 0.961 . S
C301 C291 1.510 . S
C301 H299 0.959 . S
C301 H300 0.961 . S
C301 H302 0.960 . S
H302 C301 0.960 . S
H303 N283 0.862 . S
O304 Co272 1.920 . S
O304 C277 1.289 . S
C305 O297 1.258 . S
C305 O298 1.266 . S
Co306 O309 1.970 . S
Co306 N323 1.989 . S
Co306 O331 1.967 . S
Co306 O338 1.920 . S
Co307 O310 1.966 . S
Co307 N316 2.022 . S
Co307 N324 1.993 . S
Co307 O332 1.941 . S
C308 O309 1.258 . S
C308 O310 1.263 . S
O309 Co306 1.970 . S
O309 C308 1.258 . S
O310 Co307 1.966 . S
O310 C308 1.263 . S
C311 O312 1.235 . S
C311 O338 1.289 . S
O312 C311 1.235 . S
C313 C315 1.400 . S
C313 N316 1.351 . S
C313 C318 1.501 . S
C314 C315 1.387 . S
C314 N317 1.341 . S
C315 C313 1.400 . S
C315 C314 1.387 . S
N316 Co307 2.022 . S
N316 C313 1.351 . S
N316 N317 1.365 . S
N317 C314 1.341 . S
N317 N316 1.365 . S
N317 H337 0.862 . S
C318 C313 1.501 . S
C318 H319 0.961 . S
C318 H320 0.961 . S
C318 H321 0.960 . S
H319 C318 0.961 . S
H320 C318 0.961 . S
H321 C318 0.960 . S
C322 N323 1.342 . S
C322 C326 1.401 . S
C322 C327 1.499 . S
N323 Co306 1.989 . S
N323 C322 1.342 . S
N323 N324 1.388 . S
N324 Co307 1.993 . S
N324 N323 1.388 . S
N324 C325 1.346 . S
C325 N324 1.346 . S
C325 C326 1.396 . S
C325 C335 1.510 . S
C326 C322 1.401 . S
C326 C325 1.396 . S
C327 C322 1.499 . S
C327 H328 0.959 . S
C327 H329 0.960 . S
C327 H330 0.961 . S
H328 C327 0.959 . S
H329 C327 0.960 . S
H330 C327 0.961 . S
O331 Co306 1.967 . S
O331 C339 1.258 . S
O332 Co307 1.941 . S
O332 C339 1.266 . S
H333 C335 0.959 . S
H334 C335 0.961 . S
C335 C325 1.510 . S
C335 H333 0.959 . S
C335 H334 0.961 . S
C335 H336 0.960 . S
H336 C335 0.960 . S
H337 N317 0.862 . S
O338 Co306 1.920 . S
O338 C311 1.289 . S
C339 O331 1.258 . S
C339 O332 1.266 . S
Co340 O343 1.970 . S
Co340 N357 1.989 . S
Co340 O365 1.967 . S
Co340 O372 1.920 . S
Co341 O344 1.966 . S
Co341 N350 2.022 . S
Co341 N358 1.993 . S
Co341 O366 1.941 . S
C342 O343 1.258 . S
C342 O344 1.263 . S
O343 Co340 1.970 . S
O343 C342 1.258 . S
O344 Co341 1.966 . S
O344 C342 1.263 . S
C345 O346 1.235 . S
C345 O372 1.289 . S
O346 C345 1.235 . S
C347 C349 1.400 . S
C347 N350 1.351 . S
C347 C352 1.501 . S
C348 C349 1.387 . S
C348 N351 1.341 . S
C349 C347 1.400 . S
C349 C348 1.387 . S
N350 Co341 2.022 . S
N350 C347 1.351 . S
N350 N351 1.365 . S
N351 C348 1.341 . S
N351 N350 1.365 . S
N351 H371 0.862 . S
C352 C347 1.501 . S
C352 H353 0.961 . S
C352 H354 0.961 . S
C352 H355 0.960 . S
H353 C352 0.961 . S
H354 C352 0.961 . S
H355 C352 0.960 . S
C356 N357 1.342 . S
C356 C360 1.401 . S
C356 C361 1.499 . S
N357 Co340 1.989 . S
N357 C356 1.342 . S
N357 N358 1.388 . S
N358 Co341 1.993 . S
N358 N357 1.388 . S
N358 C359 1.346 . S
C359 N358 1.346 . S
C359 C360 1.396 . S
C359 C369 1.510 . S
C360 C356 1.401 . S
C360 C359 1.396 . S
C361 C356 1.499 . S
C361 H362 0.959 . S
C361 H363 0.960 . S
C361 H364 0.961 . S
H362 C361 0.959 . S
H363 C361 0.960 . S
H364 C361 0.961 . S
O365 Co340 1.967 . S
O365 C373 1.258 . S
O366 Co341 1.941 . S
O366 C373 1.266 . S
H367 C369 0.959 . S
H368 C369 0.961 . S
C369 C359 1.510 . S
C369 H367 0.959 . S
C369 H368 0.961 . S
C369 H370 0.960 . S
H370 C369 0.960 . S
H371 N351 0.862 . S
O372 Co340 1.920 . S
O372 C345 1.289 . S
C373 O365 1.258 . S
C373 O366 1.266 . S
Co374 O377 1.970 . S
Co374 N391 1.989 . S
Co374 O399 1.967 . S
Co374 O406 1.920 . S
Co375 O378 1.966 . S
Co375 N384 2.022 . S
Co375 N392 1.993 . S
Co375 O400 1.941 . S
C376 O377 1.258 . S
C376 O378 1.263 . S
O377 Co374 1.970 . S
O377 C376 1.258 . S
O378 Co375 1.966 . S
O378 C376 1.263 . S
C379 O380 1.235 . S
C379 O406 1.289 . S
O380 C379 1.235 . S
C381 C383 1.400 . S
C381 N384 1.351 . S
C381 C386 1.501 . S
C382 C383 1.387 . S
C382 N385 1.341 . S
C383 C381 1.400 . S
C383 C382 1.387 . S
N384 Co375 2.022 . S
N384 C381 1.351 . S
N384 N385 1.365 . S
N385 C382 1.341 . S
N385 N384 1.365 . S
N385 H405 0.862 . S
C386 C381 1.501 . S
C386 H387 0.961 . S
C386 H388 0.961 . S
C386 H389 0.960 . S
H387 C386 0.961 . S
H388 C386 0.961 . S
H389 C386 0.960 . S
C390 N391 1.342 . S
C390 C394 1.401 . S
C390 C395 1.499 . S
N391 Co374 1.989 . S
N391 C390 1.342 . S
N391 N392 1.388 . S
N392 Co375 1.993 . S
N392 N391 1.388 . S
N392 C393 1.346 . S
C393 N392 1.346 . S
C393 C394 1.396 . S
C393 C403 1.510 . S
C394 C390 1.401 . S
C394 C393 1.396 . S
C395 C390 1.499 . S
C395 H396 0.959 . S
C395 H397 0.960 . S
C395 H398 0.961 . S
H396 C395 0.959 . S
H397 C395 0.960 . S
H398 C395 0.961 . S
O399 Co374 1.967 . S
O399 C407 1.258 . S
O400 Co375 1.941 . S
O400 C407 1.266 . S
H401 C403 0.959 . S
H402 C403 0.961 . S
C403 C393 1.510 . S
C403 H401 0.959 . S
C403 H402 0.961 . S
C403 H404 0.960 . S
H404 C403 0.960 . S
H405 N385 0.862 . S
O406 Co374 1.920 . S
O406 C379 1.289 . S
C407 O399 1.258 . S
C407 O400 1.266 . S
C408 C409 1.363 . S
C408 C414 1.379 . S
C408 N416 1.356 . S
C409 C408 1.363 . S
C409 C415 1.363 . S
C410 C411 1.363 . S
C410 C415 1.379 . S
C410 N417 1.356 . S
C411 C410 1.363 . S
C411 C414 1.363 . S
N412 C414 1.356 . S
N412 H424 0.984 . S
N412 H425 0.985 . S
N413 C415 1.356 . S
N413 H418 0.984 . S
N413 H419 0.985 . S
C414 C408 1.379 . S
C414 C411 1.363 . S
C414 N412 1.356 . S
C415 C409 1.363 . S
C415 C410 1.379 . S
C415 N413 1.356 . S
N416 C408 1.356 . S
N416 H422 0.984 . S
N416 H423 0.984 . S
N417 C410 1.356 . S
N417 H420 0.984 . S
N417 H421 0.985 . S
H418 N413 0.984 . S
H419 N413 0.985 . S
H420 N417 0.984 . S
H421 N417 0.985 . S
H422 N416 0.984 . S
H423 N416 0.984 . S
H424 N412 0.984 . S
H425 N412 0.985 . S
C426 C427 1.363 . S
C426 C432 1.379 . S
C426 N434 1.356 . S
C427 C426 1.363 . S
C427 C433 1.363 . S
C428 C429 1.363 . S
C428 C433 1.379 . S
C428 N435 1.356 . S
C429 C428 1.363 . S
C429 C432 1.363 . S
N430 C432 1.356 . S
N430 H442 0.984 . S
N430 H443 0.985 . S
N431 C433 1.356 . S
N431 H436 0.984 . S
N431 H437 0.985 . S
C432 C426 1.379 . S
C432 C429 1.363 . S
C432 N430 1.356 . S
C433 C427 1.363 . S
C433 C428 1.379 . S
C433 N431 1.356 . S
N434 C426 1.356 . S
N434 H440 0.984 . S
N434 H441 0.984 . S
N435 C428 1.356 . S
N435 H438 0.984 . S
N435 H439 0.985 . S
H436 N431 0.984 . S
H437 N431 0.985 . S
H438 N435 0.984 . S
H439 N435 0.985 . S
H440 N434 0.984 . S
H441 N434 0.984 . S
H442 N430 0.984 . S
H443 N430 0.985 . S
C444 C445 1.363 . S
C444 C450 1.379 . S
C444 N452 1.356 . S
C445 C444 1.363 . S
C445 C451 1.363 . S
C446 C447 1.363 . S
C446 C451 1.379 . S
C446 N453 1.356 . S
C447 C446 1.363 . S
C447 C450 1.363 . S
N448 C450 1.356 . S
N448 H460 0.984 . S
N448 H461 0.985 . S
N449 C451 1.356 . S
N449 H454 0.984 . S
N449 H455 0.985 . S
C450 C444 1.379 . S
C450 C447 1.363 . S
C450 N448 1.356 . S
C451 C445 1.363 . S
C451 C446 1.379 . S
C451 N449 1.356 . S
N452 C444 1.356 . S
N452 H458 0.984 . S
N452 H459 0.984 . S
N453 C446 1.356 . S
N453 H456 0.984 . S
N453 H457 0.985 . S
H454 N449 0.984 . S
H455 N449 0.985 . S
H456 N453 0.984 . S
H457 N453 0.985 . S
H458 N452 0.984 . S
H459 N452 0.984 . S
H460 N448 0.984 . S
H461 N448 0.985 . S
C462 C463 1.363 . S
C462 C468 1.379 . S
C462 N470 1.356 . S
C463 C462 1.363 . S
C463 C469 1.363 . S
C464 C465 1.363 . S
C464 C469 1.379 . S
C464 N471 1.356 . S
C465 C464 1.363 . S
C465 C468 1.363 . S
N466 C468 1.356 . S
N466 H478 0.984 . S
N466 H479 0.985 . S
N467 C469 1.356 . S
N467 H472 0.984 . S
N467 H473 0.985 . S
C468 C462 1.379 . S
C468 C465 1.363 . S
C468 N466 1.356 . S
C469 C463 1.363 . S
C469 C464 1.379 . S
C469 N467 1.356 . S
N470 C462 1.356 . S
N470 H476 0.984 . S
N470 H477 0.984 . S
N471 C464 1.356 . S
N471 H474 0.984 . S
N471 H475 0.985 . S
H472 N467 0.984 . S
H473 N467 0.985 . S
H474 N471 0.984 . S
H475 N471 0.985 . S
H476 N470 0.984 . S
H477 N470 0.984 . S
H478 N466 0.984 . S
H479 N466 0.985 . S
C480 C481 1.363 . S
C480 C486 1.379 . S
C480 N488 1.356 . S
C481 C480 1.363 . S
C481 C487 1.363 . S
C482 C483 1.363 . S
C482 C487 1.379 . S
C482 N489 1.356 . S
C483 C482 1.363 . S
C483 C486 1.363 . S
N484 C486 1.356 . S
N484 H496 0.984 . S
N484 H497 0.985 . S
N485 C487 1.356 . S
N485 H490 0.984 . S
N485 H491 0.985 . S
C486 C480 1.379 . S
C486 C483 1.363 . S
C486 N484 1.356 . S
C487 C481 1.363 . S
C487 C482 1.379 . S
C487 N485 1.356 . S
N488 C480 1.356 . S
N488 H494 0.984 . S
N488 H495 0.984 . S
N489 C482 1.356 . S
N489 H492 0.984 . S
N489 H493 0.985 . S
H490 N485 0.984 . S
H491 N485 0.985 . S
H492 N489 0.984 . S
H493 N489 0.985 . S
H494 N488 0.984 . S
H495 N488 0.984 . S
H496 N484 0.984 . S
H497 N484 0.985 . S
C498 C499 1.363 . S
C498 C504 1.379 . S
C498 N506 1.356 . S
C499 C498 1.363 . S
C499 C505 1.363 . S
C500 C501 1.363 . S
C500 C505 1.379 . S
C500 N507 1.356 . S
C501 C500 1.363 . S
C501 C504 1.363 . S
N502 C504 1.356 . S
N502 H514 0.984 . S
N502 H515 0.985 . S
N503 C505 1.356 . S
N503 H508 0.984 . S
N503 H509 0.985 . S
C504 C498 1.379 . S
C504 C501 1.363 . S
C504 N502 1.356 . S
C505 C499 1.363 . S
C505 C500 1.379 . S
C505 N503 1.356 . S
N506 C498 1.356 . S
N506 H512 0.984 . S
N506 H513 0.984 . S
N507 C500 1.356 . S
N507 H510 0.984 . S
N507 H511 0.985 . S
H508 N503 0.984 . S
H509 N503 0.985 . S
H510 N507 0.984 . S
H511 N507 0.985 . S
H512 N506 0.984 . S
H513 N506 0.984 . S
H514 N502 0.984 . S
H515 N502 0.985 . S
C516 C517 1.363 . S
C516 C522 1.379 . S
C516 N524 1.356 . S
C517 C516 1.363 . S
C517 C523 1.363 . S
C518 C519 1.363 . S
C518 C523 1.379 . S
C518 N525 1.356 . S
C519 C518 1.363 . S
C519 C522 1.363 . S
N520 C522 1.356 . S
N520 H532 0.984 . S
N520 H533 0.985 . S
N521 C523 1.356 . S
N521 H526 0.984 . S
N521 H527 0.985 . S
C522 C516 1.379 . S
C522 C519 1.363 . S
C522 N520 1.356 . S
C523 C517 1.363 . S
C523 C518 1.379 . S
C523 N521 1.356 . S
N524 C516 1.356 . S
N524 H530 0.984 . S
N524 H531 0.984 . S
N525 C518 1.356 . S
N525 H528 0.984 . S
N525 H529 0.985 . S
H526 N521 0.984 . S
H527 N521 0.985 . S
H528 N525 0.984 . S
H529 N525 0.985 . S
H530 N524 0.984 . S
H531 N524 0.984 . S
H532 N520 0.984 . S
H533 N520 0.985 . S
C534 C535 1.363 . S
C534 C540 1.379 . S
C534 N542 1.356 . S
C535 C534 1.363 . S
C535 C541 1.363 . S
C536 C537 1.363 . S
C536 C541 1.379 . S
C536 N543 1.356 . S
C537 C536 1.363 . S
C537 C540 1.363 . S
N538 C540 1.356 . S
N538 H550 0.984 . S
N538 H551 0.985 . S
N539 C541 1.356 . S
N539 H544 0.984 . S
N539 H545 0.985 . S
C540 C534 1.379 . S
C540 C537 1.363 . S
C540 N538 1.356 . S
C541 C535 1.363 . S
C541 C536 1.379 . S
C541 N539 1.356 . S
N542 C534 1.356 . S
N542 H548 0.984 . S
N542 H549 0.984 . S
N543 C536 1.356 . S
N543 H546 0.984 . S
N543 H547 0.985 . S
H544 N539 0.984 . S
H545 N539 0.985 . S
H546 N543 0.984 . S
H547 N543 0.985 . S
H548 N542 0.984 . S
H549 N542 0.984 . S
H550 N538 0.984 . S
H551 N538 0.985 . S
C552 C553 1.363 . S
C552 C558 1.379 . S
C552 N560 1.356 . S
C553 C552 1.363 . S
C553 C559 1.363 . S
C554 C555 1.363 . S
C554 C559 1.379 . S
C554 N561 1.356 . S
C555 C554 1.363 . S
C555 C558 1.363 . S
N556 C558 1.356 . S
N556 H568 0.984 . S
N556 H569 0.985 . S
N557 C559 1.356 . S
N557 H562 0.984 . S
N557 H563 0.985 . S
C558 C552 1.379 . S
C558 C555 1.363 . S
C558 N556 1.356 . S
C559 C553 1.363 . S
C559 C554 1.379 . S
C559 N557 1.356 . S
N560 C552 1.356 . S
N560 H566 0.984 . S
N560 H567 0.984 . S
N561 C554 1.356 . S
N561 H564 0.984 . S
N561 H565 0.985 . S
H562 N557 0.984 . S
H563 N557 0.985 . S
H564 N561 0.984 . S
H565 N561 0.985 . S
H566 N560 0.984 . S
H567 N560 0.984 . S
H568 N556 0.984 . S
H569 N556 0.985 . S
C570 C571 1.363 . S
C570 C576 1.379 . S
C570 N578 1.356 . S
C571 C570 1.363 . S
C571 C577 1.363 . S
C572 C573 1.363 . S
C572 C577 1.379 . S
C572 N579 1.356 . S
C573 C572 1.363 . S
C573 C576 1.363 . S
N574 C576 1.356 . S
N574 H586 0.984 . S
N574 H587 0.985 . S
N575 C577 1.356 . S
N575 H580 0.984 . S
N575 H581 0.985 . S
C576 C570 1.379 . S
C576 C573 1.363 . S
C576 N574 1.356 . S
C577 C571 1.363 . S
C577 C572 1.379 . S
C577 N575 1.356 . S
N578 C570 1.356 . S
N578 H584 0.984 . S
N578 H585 0.984 . S
N579 C572 1.356 . S
N579 H582 0.984 . S
N579 H583 0.985 . S
H580 N575 0.984 . S
H581 N575 0.985 . S
H582 N579 0.984 . S
H583 N579 0.985 . S
H584 N578 0.984 . S
H585 N578 0.984 . S
H586 N574 0.984 . S
H587 N574 0.985 . S
C588 C589 1.363 . S
C588 C594 1.379 . S
C588 N596 1.356 . S
C589 C588 1.363 . S
C589 C595 1.363 . S
C590 C591 1.363 . S
C590 C595 1.379 . S
C590 N597 1.356 . S
C591 C590 1.363 . S
C591 C594 1.363 . S
N592 C594 1.356 . S
N592 H604 0.984 . S
N592 H605 0.985 . S
N593 C595 1.356 . S
N593 H598 0.984 . S
N593 H599 0.985 . S
C594 C588 1.379 . S
C594 C591 1.363 . S
C594 N592 1.356 . S
C595 C589 1.363 . S
C595 C590 1.379 . S
C595 N593 1.356 . S
N596 C588 1.356 . S
N596 H602 0.984 . S
N596 H603 0.984 . S
N597 C590 1.356 . S
N597 H600 0.984 . S
N597 H601 0.985 . S
H598 N593 0.984 . S
H599 N593 0.985 . S
H600 N597 0.984 . S
H601 N597 0.985 . S
H602 N596 0.984 . S
H603 N596 0.984 . S
H604 N592 0.984 . S
H605 N592 0.985 . S
C606 C607 1.363 . S
C606 C612 1.379 . S
C606 N614 1.356 . S
C607 C606 1.363 . S
C607 C613 1.363 . S
C608 C609 1.363 . S
C608 C613 1.379 . S
C608 N615 1.356 . S
C609 C608 1.363 . S
C609 C612 1.363 . S
N610 C612 1.356 . S
N610 H622 0.984 . S
N610 H623 0.985 . S
N611 C613 1.356 . S
N611 H616 0.984 . S
N611 H617 0.985 . S
C612 C606 1.379 . S
C612 C609 1.363 . S
C612 N610 1.356 . S
C613 C607 1.363 . S
C613 C608 1.379 . S
C613 N611 1.356 . S
N614 C606 1.356 . S
N614 H620 0.984 . S
N614 H621 0.984 . S
N615 C608 1.356 . S
N615 H618 0.984 . S
N615 H619 0.985 . S
H616 N611 0.984 . S
H617 N611 0.985 . S
H618 N615 0.984 . S
H619 N615 0.985 . S
H620 N614 0.984 . S
H621 N614 0.984 . S
H622 N610 0.984 . S
H623 N610 0.985 . S
C624 C625 1.363 . S
C624 C630 1.379 . S
C624 N632 1.356 . S
C625 C624 1.363 . S
C625 C631 1.363 . S
C626 C627 1.363 . S
C626 C631 1.379 . S
C626 N633 1.356 . S
C627 C626 1.363 . S
C627 C630 1.363 . S
N628 C630 1.356 . S
N628 H640 0.984 . S
N628 H641 0.985 . S
N629 C631 1.356 . S
N629 H634 0.984 . S
N629 H635 0.985 . S
C630 C624 1.379 . S
C630 C627 1.363 . S
C630 N628 1.356 . S
C631 C625 1.363 . S
C631 C626 1.379 . S
C631 N629 1.356 . S
N632 C624 1.356 . S
N632 H638 0.984 . S
N632 H639 0.984 . S
N633 C626 1.356 . S
N633 H636 0.984 . S
N633 H637 0.985 . S
H634 N629 0.984 . S
H635 N629 0.985 . S
H636 N633 0.984 . S
H637 N633 0.985 . S
H638 N632 0.984 . S
H639 N632 0.984 . S
H640 N628 0.984 . S
H641 N628 0.985 . S
C642 C643 1.363 . S
C642 C648 1.379 . S
C642 N650 1.356 . S
C643 C642 1.363 . S
C643 C649 1.363 . S
C644 C645 1.363 . S
C644 C649 1.379 . S
C644 N651 1.356 . S
C645 C644 1.363 . S
C645 C648 1.363 . S
N646 C648 1.356 . S
N646 H658 0.984 . S
N646 H659 0.985 . S
N647 C649 1.356 . S
N647 H652 0.984 . S
N647 H653 0.985 . S
C648 C642 1.379 . S
C648 C645 1.363 . S
C648 N646 1.356 . S
C649 C643 1.363 . S
C649 C644 1.379 . S
C649 N647 1.356 . S
N650 C642 1.356 . S
N650 H656 0.984 . S
N650 H657 0.984 . S
N651 C644 1.356 . S
N651 H654 0.984 . S
N651 H655 0.985 . S
H652 N647 0.984 . S
H653 N647 0.985 . S
H654 N651 0.984 . S
H655 N651 0.985 . S
H656 N650 0.984 . S
H657 N650 0.984 . S
H658 N646 0.984 . S
H659 N646 0.985 . S
C660 C661 1.363 . S
C660 C666 1.379 . S
C660 N668 1.356 . S
C661 C660 1.363 . S
C661 C667 1.363 . S
C662 C663 1.363 . S
C662 C667 1.379 . S
C662 N669 1.356 . S
C663 C662 1.363 . S
C663 C666 1.363 . S
N664 C666 1.356 . S
N664 H676 0.984 . S
N664 H677 0.985 . S
N665 C667 1.356 . S
N665 H670 0.984 . S
N665 H671 0.985 . S
C666 C660 1.379 . S
C666 C663 1.363 . S
C666 N664 1.356 . S
C667 C661 1.363 . S
C667 C662 1.379 . S
C667 N665 1.356 . S
N668 C660 1.356 . S
N668 H674 0.984 . S
N668 H675 0.984 . S
N669 C662 1.356 . S
N669 H672 0.984 . S
N669 H673 0.985 . S
H670 N665 0.984 . S
H671 N665 0.985 . S
H672 N669 0.984 . S
H673 N669 0.985 . S
H674 N668 0.984 . S
H675 N668 0.984 . S
H676 N664 0.984 . S
H677 N664 0.985 . S
C678 C679 1.363 . S
C678 C684 1.379 . S
C678 N686 1.356 . S
C679 C678 1.363 . S
C679 C685 1.363 . S
C680 C681 1.363 . S
C680 C685 1.379 . S
C680 N687 1.356 . S
C681 C680 1.363 . S
C681 C684 1.363 . S
N682 C684 1.356 . S
N682 H694 0.984 . S
N682 H695 0.985 . S
N683 C685 1.356 . S
N683 H688 0.984 . S
N683 H689 0.985 . S
C684 C678 1.379 . S
C684 C681 1.363 . S
C684 N682 1.356 . S
C685 C679 1.363 . S
C685 C680 1.379 . S
C685 N683 1.356 . S
N686 C678 1.356 . S
N686 H692 0.984 . S
N686 H693 0.984 . S
N687 C680 1.356 . S
N687 H690 0.984 . S
N687 H691 0.985 . S
H688 N683 0.984 . S
H689 N683 0.985 . S
H690 N687 0.984 . S
H691 N687 0.985 . S
H692 N686 0.984 . S
H693 N686 0.984 . S
H694 N682 0.984 . S
H695 N682 0.985 . S
C696 C697 1.363 . S
C696 C702 1.379 . S
C696 N704 1.356 . S
C697 C696 1.363 . S
C697 C703 1.363 . S
C698 C699 1.363 . S
C698 C703 1.379 . S
C698 N705 1.356 . S
C699 C698 1.363 . S
C699 C702 1.363 . S
N700 C702 1.356 . S
N700 H712 0.984 . S
N700 H713 0.985 . S
N701 C703 1.356 . S
N701 H706 0.984 . S
N701 H707 0.985 . S
C702 C696 1.379 . S
C702 C699 1.363 . S
C702 N700 1.356 . S
C703 C697 1.363 . S
C703 C698 1.379 . S
C703 N701 1.356 . S
N704 C696 1.356 . S
N704 H710 0.984 . S
N704 H711 0.984 . S
N705 C698 1.356 . S
N705 H708 0.984 . S
N705 H709 0.985 . S
H706 N701 0.984 . S
H707 N701 0.985 . S
H708 N705 0.984 . S
H709 N705 0.985 . S
H710 N704 0.984 . S
H711 N704 0.984 . S
H712 N700 0.984 . S
H713 N700 0.985 . S
C714 C715 1.363 . S
C714 C720 1.379 . S
C714 N722 1.356 . S
C715 C714 1.363 . S
C715 C721 1.363 . S
C716 C717 1.363 . S
C716 C721 1.379 . S
C716 N723 1.356 . S
C717 C716 1.363 . S
C717 C720 1.363 . S
N718 C720 1.356 . S
N718 H730 0.984 . S
N718 H731 0.985 . S
N719 C721 1.356 . S
N719 H724 0.984 . S
N719 H725 0.985 . S
C720 C714 1.379 . S
C720 C717 1.363 . S
C720 N718 1.356 . S
C721 C715 1.363 . S
C721 C716 1.379 . S
C721 N719 1.356 . S
N722 C714 1.356 . S
N722 H728 0.984 . S
N722 H729 0.984 . S
N723 C716 1.356 . S
N723 H726 0.984 . S
N723 H727 0.985 . S
H724 N719 0.984 . S
H725 N719 0.985 . S
H726 N723 0.984 . S
H727 N723 0.985 . S
H728 N722 0.984 . S
H729 N722 0.984 . S
H730 N718 0.984 . S
H731 N718 0.985 . S
C732 C733 1.363 . S
C732 C738 1.379 1_566 S
C732 N740 1.356 . S
C733 C732 1.363 . S
C733 C739 1.363 . S
C734 C735 1.363 . S
C734 C739 1.379 1_544 S
C734 N741 1.356 . S
C735 C734 1.363 . S
C735 C738 1.363 . S
N736 C738 1.356 . S
N736 H748 0.984 . S
N736 H749 0.985 . S
N737 C739 1.356 . S
N737 H742 0.984 . S
N737 H743 0.985 . S
C738 C732 1.379 1_544 S
C738 C735 1.363 . S
C738 N736 1.356 . S
C739 C733 1.363 . S
C739 C734 1.379 1_566 S
C739 N737 1.356 . S
N740 C732 1.356 . S
N740 H746 0.975 1_556 S
N740 H747 0.984 . S
N741 C734 1.356 . S
N741 H744 0.984 . S
N741 H745 0.975 1_554 S
H742 N737 0.984 . S
H743 N737 0.985 . S
H744 N741 0.984 . S
H745 N741 0.975 1_556 S
H746 N740 0.975 1_554 S
H747 N740 0.984 . S
H748 N736 0.984 . S
H749 N736 0.985 . S
C750 C751 1.363 . S
C750 C756 1.379 . S
C750 N758 1.356 . S
C751 C750 1.363 . S
C751 C757 1.363 . S
C752 C753 1.363 . S
C752 C757 1.379 . S
C752 N759 1.356 . S
C753 C752 1.363 . S
C753 C756 1.363 . S
N754 C756 1.356 . S
N754 H766 0.984 . S
N754 H767 0.985 . S
N755 C757 1.356 . S
N755 H760 0.984 . S
N755 H761 0.985 . S
C756 C750 1.379 . S
C756 C753 1.363 . S
C756 N754 1.356 . S
C757 C751 1.363 . S
C757 C752 1.379 . S
C757 N755 1.356 . S
N758 C750 1.356 . S
N758 H764 0.984 . S
N758 H765 0.984 . S
N759 C752 1.356 . S
N759 H762 0.984 . S
N759 H763 0.985 . S
H760 N755 0.984 . S
H761 N755 0.985 . S
H762 N759 0.984 . S
H763 N759 0.985 . S
H764 N758 0.984 . S
H765 N758 0.984 . S
H766 N754 0.984 . S
H767 N754 0.985 . S
C768 C769 1.363 . S
C768 C774 1.379 1_654 S
C768 N776 1.356 . S
C769 C768 1.363 . S
C769 C775 1.363 . S
C770 C771 1.363 . S
C770 C775 1.379 1_456 S
C770 N777 1.356 . S
C771 C770 1.363 . S
C771 C774 1.363 . S
N772 C774 1.356 . S
N772 H784 0.984 . S
N772 H785 0.985 . S
N773 C775 1.356 . S
N773 H778 0.984 . S
N773 H779 0.985 . S
C774 C768 1.379 1_456 S
C774 C771 1.363 . S
C774 N772 1.356 . S
C775 C769 1.363 . S
C775 C770 1.379 1_654 S
C775 N773 1.356 . S
N776 C768 1.356 . S
N776 H782 0.984 . S
N776 H783 0.984 . S
N777 C770 1.356 . S
N777 H780 0.984 . S
N777 H781 0.985 . S
H778 N773 0.984 . S
H779 N773 0.985 . S
H780 N777 0.984 . S
H781 N777 0.985 . S
H782 N776 0.984 . S
H783 N776 0.984 . S
H784 N772 0.984 . S
H785 N772 0.985 . S
C786 C787 1.363 . S
C786 C792 1.381 . S
C786 N794 1.356 . S
C787 C786 1.363 . S
C787 C793 1.359 1_565 S
C788 C789 1.363 . S
C788 C793 1.382 . S
C788 N795 1.356 . S
C789 C788 1.363 . S
C789 C792 1.359 1_545 S
N790 C792 1.356 1_545 S
N790 H802 0.984 1_545 S
N790 H803 0.985 . S
N791 C793 1.356 1_565 S
N791 H796 0.984 . S
N791 H797 0.985 1_565 S
C792 C786 1.381 . S
C792 C789 1.359 1_565 S
C792 N790 1.356 1_565 S
C793 C787 1.359 1_545 S
C793 C788 1.382 . S
C793 N791 1.356 1_545 S
N794 C786 1.356 . S
N794 H800 0.984 . S
N794 H801 0.984 . S
N795 C788 1.356 . S
N795 H798 0.984 . S
N795 H799 0.985 . S
H796 N791 0.984 . S
H797 N791 0.985 1_545 S
H798 N795 0.984 . S
H799 N795 0.985 . S
H800 N794 0.984 . S
H801 N794 0.984 . S
H802 N790 0.984 1_565 S
H803 N790 0.985 . S
C804 C805 1.363 . S
C804 C810 1.379 . S
C804 N812 1.356 . S
C805 C804 1.363 . S
C805 C811 1.363 1_554 S
C806 C807 1.363 . S
C806 C811 1.379 . S
C806 N813 1.356 . S
C807 C806 1.363 . S
C807 C810 1.363 1_556 S
N808 C810 1.356 . S
N808 H820 0.984 . S
N808 H821 0.985 1_554 S
N809 C811 1.356 . S
N809 H814 0.984 1_556 S
N809 H815 0.985 . S
C810 C804 1.379 . S
C810 C807 1.363 1_554 S
C810 N808 1.356 . S
C811 C805 1.363 1_556 S
C811 C806 1.379 . S
C811 N809 1.356 . S
N812 C804 1.356 . S
N812 H818 0.984 . S
N812 H819 0.984 . S
N813 C806 1.356 . S
N813 H816 0.984 . S
N813 H817 0.985 . S
H814 N809 0.984 1_554 S
H815 N809 0.985 . S
H816 N813 0.984 . S
H817 N813 0.985 . S
H818 N812 0.984 . S
H819 N812 0.984 . S
H820 N808 0.984 . S
H821 N808 0.985 1_556 S
C822 C823 1.363 1_455 S
C822 C828 1.379 . S
C822 N830 1.356 1_455 S
C823 C822 1.363 1_655 S
C823 C829 1.363 . S
C824 C825 1.363 1_655 S
C824 C829 1.379 . S
C824 N831 1.356 1_655 S
C825 C824 1.363 1_455 S
C825 C828 1.363 . S
N826 C828 1.356 . S
N826 H838 0.984 . S
N826 H839 0.985 . S
N827 C829 1.356 . S
N827 H832 0.984 . S
N827 H833 0.985 . S
C828 C822 1.379 . S
C828 C825 1.363 . S
C828 N826 1.356 . S
C829 C823 1.363 . S
C829 C824 1.379 . S
C829 N827 1.356 . S
N830 C822 1.356 1_655 S
N830 H836 0.984 1_655 S
N830 H837 0.984 . S
N831 C824 1.356 1_455 S
N831 H834 0.984 . S
N831 H835 0.985 1_455 S
H832 N827 0.984 . S
H833 N827 0.985 . S
H834 N831 0.984 . S
H835 N831 0.985 1_655 S
H836 N830 0.984 1_455 S
H837 N830 0.984 . S
H838 N826 0.984 . S
H839 N826 0.985 . S
C840 C841 1.363 1_556 S
C840 C846 1.379 . S
C840 N848 1.356 . S
C841 C840 1.363 1_554 S
C841 C847 1.363 1_545 S
C842 C843 1.363 1_554 S
C842 C847 1.379 . S
C842 N849 1.356 . S
C843 C842 1.363 1_556 S
C843 C846 1.363 1_565 S
N844 C846 1.356 1_565 S
N844 H856 0.984 1_565 S
N844 H857 0.985 . S
N845 C847 1.356 1_545 S
N845 H850 0.984 . S
N845 H851 0.985 1_545 S
C846 C840 1.379 . S
C846 C843 1.363 1_545 S
C846 N844 1.356 1_545 S
C847 C841 1.363 1_565 S
C847 C842 1.379 . S
C847 N845 1.356 1_565 S
N848 C840 1.356 . S
N848 H854 0.984 . S
N848 H855 0.984 1_556 S
N849 C842 1.356 . S
N849 H852 0.984 1_554 S
N849 H853 0.985 . S
H850 N845 0.984 . S
H851 N845 0.985 1_565 S
H852 N849 0.984 1_556 S
H853 N849 0.985 . S
H854 N848 0.984 . S
H855 N848 0.984 1_554 S
H856 N844 0.984 1_545 S
H857 N844 0.985 . S
C858 C859 1.363 . S
C858 C864 1.379 . S
C858 N866 1.356 . S
C859 C858 1.363 . S
C859 C865 1.363 . S
C860 C861 1.363 . S
C860 C865 1.379 . S
C860 N867 1.356 . S
C861 C860 1.363 . S
C861 C864 1.363 . S
N862 C864 1.356 . S
N862 H874 0.984 . S
N862 H875 0.985 . S
N863 C865 1.356 . S
N863 H868 0.984 . S
N863 H869 0.985 . S
C864 C858 1.379 . S
C864 C861 1.363 . S
C864 N862 1.356 . S
C865 C859 1.363 . S
C865 C860 1.379 . S
C865 N863 1.356 . S
N866 C858 1.356 . S
N866 H872 0.984 . S
N866 H873 0.984 . S
N867 C860 1.356 . S
N867 H870 0.984 . S
N867 H871 0.985 . S
H868 N863 0.984 . S
H869 N863 0.985 . S
H870 N867 0.984 . S
H871 N867 0.985 . S
H872 N866 0.984 . S
H873 N866 0.984 . S
H874 N862 0.984 . S
H875 N862 0.985 . S
C876 C877 1.363 . S
C876 C882 1.379 1_654 S
C876 N884 1.356 . S
C877 C876 1.363 . S
C877 C883 1.363 . S
C878 C879 1.363 . S
C878 C883 1.379 1_456 S
C878 N885 1.356 . S
C879 C878 1.363 . S
C879 C882 1.363 . S
N880 C882 1.356 . S
N880 H892 0.984 . S
N880 H893 0.985 . S
N881 C883 1.356 . S
N881 H886 0.984 . S
N881 H887 0.985 . S
C882 C876 1.379 1_456 S
C882 C879 1.363 . S
C882 N880 1.356 . S
C883 C877 1.363 . S
C883 C878 1.379 1_654 S
C883 N881 1.356 . S
N884 C876 1.356 . S
N884 H890 0.984 . S
N884 H891 0.984 . S
N885 C878 1.356 . S
N885 H888 0.984 . S
N885 H889 0.985 . S
H886 N881 0.984 . S
H887 N881 0.985 . S
H888 N885 0.984 . S
H889 N885 0.985 . S
H890 N884 0.984 . S
H891 N884 0.984 . S
H892 N880 0.984 . S
H893 N880 0.985 . S
C894 C895 1.363 . S
C894 C900 1.379 1_565 S
C894 N902 1.356 . S
C895 C894 1.363 . S
C895 C901 1.363 . S
C896 C897 1.363 . S
C896 C901 1.379 1_545 S
C896 N903 1.356 . S
C897 C896 1.363 . S
C897 C900 1.363 . S
N898 C900 1.356 . S
N898 H910 0.984 . S
N898 H911 0.985 . S
N899 C901 1.356 . S
N899 H904 0.984 . S
N899 H905 0.985 . S
C900 C894 1.379 1_545 S
C900 C897 1.363 . S
C900 N898 1.356 . S
C901 C895 1.363 . S
C901 C896 1.379 1_565 S
C901 N899 1.356 . S
N902 C894 1.356 . S
N902 H908 0.984 . S
N902 H909 0.984 . S
N903 C896 1.356 . S
N903 H906 0.984 . S
N903 H907 0.985 . S
H904 N899 0.984 . S
H905 N899 0.985 . S
H906 N903 0.984 . S
H907 N903 0.985 . S
H908 N902 0.984 . S
H909 N902 0.984 . S
H910 N898 0.984 . S
H911 N898 0.985 . S
C912 C913 1.363 1_554 S
C912 C918 1.379 . S
C912 N920 1.356 . S
C913 C912 1.363 1_556 S
C913 C919 1.363 . S
C914 C915 1.363 1_556 S
C914 C919 1.379 . S
C914 N921 1.356 . S
C915 C914 1.363 1_554 S
C915 C918 1.363 . S
N916 C918 1.356 . S
N916 H928 0.984 . S
N916 H929 0.985 . S
N917 C919 1.356 . S
N917 H922 0.984 . S
N917 H923 0.985 . S
C918 C912 1.379 . S
C918 C915 1.363 . S
C918 N916 1.356 . S
C919 C913 1.363 . S
C919 C914 1.379 . S
C919 N917 1.356 . S
N920 C912 1.356 . S
N920 H926 0.984 . S
N920 H927 0.984 1_554 S
N921 C914 1.356 . S
N921 H924 0.984 1_556 S
N921 H925 0.985 . S
H922 N917 0.984 . S
H923 N917 0.985 . S
H924 N921 0.984 1_554 S
H925 N921 0.985 . S
H926 N920 0.984 . S
H927 N920 0.984 1_556 S
H928 N916 0.984 . S
H929 N916 0.985 . S
C930 C931 1.363 . S
C930 C936 1.379 1_455 S
C930 N938 1.356 . S
C931 C930 1.363 . S
C931 C937 1.363 . S
C932 C933 1.363 . S
C932 C937 1.379 1_655 S
C932 N939 1.356 . S
C933 C932 1.363 . S
C933 C936 1.363 . S
N934 C936 1.356 . S
N934 H946 0.984 . S
N934 H947 0.985 . S
N935 C937 1.356 . S
N935 H940 0.984 . S
N935 H941 0.985 . S
C936 C930 1.379 1_655 S
C936 C933 1.363 . S
C936 N934 1.356 . S
C937 C931 1.363 . S
C937 C932 1.379 1_455 S
C937 N935 1.356 . S
N938 C930 1.356 . S
N938 H944 0.984 . S
N938 H945 0.984 . S
N939 C932 1.356 . S
N939 H942 0.984 . S
N939 H943 0.985 . S
H940 N935 0.984 . S
H941 N935 0.985 . S
H942 N939 0.984 . S
H943 N939 0.985 . S
H944 N938 0.984 . S
H945 N938 0.984 . S
H946 N934 0.984 . S
H947 N934 0.985 . S
C409 C73 1.575 . S
C411 C2 1.730 . S
C427 C36 1.730 . S
C429 C107 1.575 . S
C445 C70 1.730 . S
C447 C141 1.575 . S
C463 C104 1.730 . S
C465 C175 1.575 . S
C481 C138 1.730 . S
C483 C5 1.575 . S
C499 C39 1.575 . S
C501 C172 1.730 . S
C517 C206 1.730 . S
C519 C345 1.575 . S
C535 C240 1.730 . S
C537 C379 1.575 . S
C553 C209 1.575 . S
C555 C274 1.730 . S
C571 C243 1.575 . S
C573 C308 1.730 . S
C589 C277 1.575 . S
C591 C342 1.730 . S
C607 C311 1.575 . S
C609 C376 1.730 . S
C625 C305 1.314 . S
C627 C33 1.314 . S
C643 C67 1.314 . S
C645 C339 1.314 . S
C661 C373 1.314 . S
C663 C101 1.314 . S
C679 C407 1.314 . S
C681 C135 1.314 . S
C697 C169 1.314 . S
C699 C237 1.314 . S
C715 C271 1.314 . S
C717 C203 1.314 . S
C733 C247 1.511 . S
C735 C9 1.511 . S
C751 C43 1.511 . S
C753 C281 1.511 . S
C769 C77 1.511 . S
C771 C315 1.511 . S
C787 C111 1.511 . S
C789 C349 1.511 . S
C805 C145 1.511 . S
C807 C383 1.511 . S
C823 C213 1.511 . S
C825 C179 1.511 . S
C841 C88 1.884 . S
C843 C394 1.884 . S
C859 C224 1.884 . S
C861 C122 1.884 . S
C877 C156 1.884 . S
C879 C258 1.884 . S
C895 C190 1.884 . S
C897 C292 1.884 . S
C913 C326 1.884 . S
C915 C20 1.884 . S
C931 C54 1.884 . S
C933 C360 1.884 . S
