# Generated by pormake.
# Topology lhb, (8)-cn, num edge types: 1
# Building blocks:
#     Node 0, Type 0, BuildingBlock: VETTIZ_charged_sbu_0, # of connection points: 8
#     Node 1, Type 0, BuildingBlock: VETTIZ_charged_sbu_0, # of connection points: 8
#     Node 2, Type 0, BuildingBlock: VETTIZ_charged_sbu_0, # of connection points: 8
#     Node 3, Type 0, BuildingBlock: VETTIZ_charged_sbu_0, # of connection points: 8
#     Node 4, Type 0, BuildingBlock: VETTIZ_charged_sbu_0, # of connection points: 8
#     Node 5, Type 0, BuildingBlock: VETTIZ_charged_sbu_0, # of connection points: 8
#     Node 6, Type 0, BuildingBlock: VETTIZ_charged_sbu_0, # of connection points: 8
#     Node 7, Type 0, BuildingBlock: VETTIZ_charged_sbu_0, # of connection points: 8
#     Edge 8, Type (0, 0), BuildingBlock: XIVTED_clean_linker_0, # of connection points: 2
#     Edge 9, Type (0, 0), BuildingBlock: XIVTED_clean_linker_0, # of connection points: 2
#     Edge 10, Type (0, 0), BuildingBlock: XIVTED_clean_linker_0, # of connection points: 2
#     Edge 11, Type (0, 0), BuildingBlock: XIVTED_clean_linker_0, # of connection points: 2
#     Edge 12, Type (0, 0), BuildingBlock: XIVTED_clean_linker_0, # of connection points: 2
#     Edge 13, Type (0, 0), BuildingBlock: XIVTED_clean_linker_0, # of connection points: 2
#     Edge 14, Type (0, 0), BuildingBlock: XIVTED_clean_linker_0, # of connection points: 2
#     Edge 15, Type (0, 0), BuildingBlock: XIVTED_clean_linker_0, # of connection points: 2
#     Edge 16, Type (0, 0), BuildingBlock: XIVTED_clean_linker_0, # of connection points: 2
#     Edge 17, Type (0, 0), BuildingBlock: XIVTED_clean_linker_0, # of connection points: 2
#     Edge 18, Type (0, 0), BuildingBlock: XIVTED_clean_linker_0, # of connection points: 2
#     Edge 19, Type (0, 0), BuildingBlock: XIVTED_clean_linker_0, # of connection points: 2
#     Edge 20, Type (0, 0), BuildingBlock: XIVTED_clean_linker_0, # of connection points: 2
#     Edge 21, Type (0, 0), BuildingBlock: XIVTED_clean_linker_0, # of connection points: 2
#     Edge 22, Type (0, 0), BuildingBlock: XIVTED_clean_linker_0, # of connection points: 2
#     Edge 23, Type (0, 0), BuildingBlock: XIVTED_clean_linker_0, # of connection points: 2
#     Edge 24, Type (0, 0), BuildingBlock: XIVTED_clean_linker_0, # of connection points: 2
#     Edge 25, Type (0, 0), BuildingBlock: XIVTED_clean_linker_0, # of connection points: 2
#     Edge 26, Type (0, 0), BuildingBlock: XIVTED_clean_linker_0, # of connection points: 2
#     Edge 27, Type (0, 0), BuildingBlock: XIVTED_clean_linker_0, # of connection points: 2
#     Edge 28, Type (0, 0), BuildingBlock: XIVTED_clean_linker_0, # of connection points: 2
#     Edge 29, Type (0, 0), BuildingBlock: XIVTED_clean_linker_0, # of connection points: 2
#     Edge 30, Type (0, 0), BuildingBlock: XIVTED_clean_linker_0, # of connection points: 2
#     Edge 31, Type (0, 0), BuildingBlock: XIVTED_clean_linker_0, # of connection points: 2
#     Edge 32, Type (0, 0), BuildingBlock: XIVTED_clean_linker_0, # of connection points: 2
#     Edge 33, Type (0, 0), BuildingBlock: XIVTED_clean_linker_0, # of connection points: 2
#     Edge 34, Type (0, 0), BuildingBlock: XIVTED_clean_linker_0, # of connection points: 2
#     Edge 35, Type (0, 0), BuildingBlock: XIVTED_clean_linker_0, # of connection points: 2
#     Edge 36, Type (0, 0), BuildingBlock: XIVTED_clean_linker_0, # of connection points: 2
#     Edge 37, Type (0, 0), BuildingBlock: XIVTED_clean_linker_0, # of connection points: 2
#     Edge 38, Type (0, 0), BuildingBlock: XIVTED_clean_linker_0, # of connection points: 2
#     Edge 39, Type (0, 0), BuildingBlock: XIVTED_clean_linker_0, # of connection points: 2
# Relax obj value: 0.196
# Max RMSD: 0.257
# Mean RMSD: 0.257
data_MOF--net-lhb--node1-VETTIZ_charged_sbu_0--edge1-XIVTED_clean_linker_0
_symmetry_space_group_name_H-M    P1
_symmetry_Int_Tables_number       1
_symmetry_cell_setting            triclinic
loop_
_symmetry_equiv_pos_as_xyz
'x, y, z'
_cell_length_a     30.96296
_cell_length_b     16.606683
_cell_length_c     54.017659
_cell_angle_alpha  92.165678
_cell_angle_beta   89.685481
_cell_angle_gamma 90.488686
loop_
_atom_site_label
_atom_site_type_symbol
_atom_site_fract_x
_atom_site_fract_y
_atom_site_fract_z
_atom_type_partial_charge
Fe0 Fe 0.94256 0.89079 0.99188 0.0
O1 O 0.96519 0.95508 1.02013 0.0
Fe2 Fe 0.02205 0.01973 1.01532 0.0
Fe3 Fe 0.97721 0.91099 0.05334 0.0
O4 O 0.96699 0.95906 1.0184 0.0
O5 O 0.03483 0.97425 0.04832 0.0
O6 O 0.03291 0.9698 0.05016 0.0
Fe7 Fe 0.05451 0.04013 0.0773 0.0
C8 C 0.88479 0.8707 1.03669 0.0
O9 O 0.95573 0.78231 1.00752 0.0
O10 O 0.00408 0.80957 1.03724 0.0
O11 O 0.10847 0.0462 0.05544 0.0
O12 O 0.08189 0.0775 1.01703 0.0
O13 O 0.05211 0.92197 0.99778 0.0
O14 O 0.99978 0.8801 0.97205 0.0
O15 O 0.99878 0.87234 0.08862 0.0
O16 O 0.06632 0.93107 0.09187 0.0
C17 C 0.03908 0.87966 0.97904 0.0
O18 O 0.03776 0.14815 0.06287 0.0
O19 O 0.99303 0.11879 1.03163 0.0
O20 O 0.88895 0.89428 1.01414 0.0
O21 O 0.91614 0.85803 0.05199 0.0
C22 C 0.9846 0.76013 1.02251 0.0
C23 C 0.03693 0.88082 0.09887 0.0
C24 C 0.95792 0.03121 0.09203 0.0
O25 O 0.94826 0.00957 0.07001 0.0
O26 O 0.99749 0.03829 0.09821 0.0
C27 C 0.11273 0.07089 1.03305 0.0
O28 O 1.00022 0.06298 0.9812 0.0
O29 O 0.93393 0.00057 0.97592 0.0
C30 C 0.01004 0.16888 0.04709 0.0
C31 C 0.96171 0.05726 0.97155 0.0
Fe32 Fe 0.21844 0.23553 0.26513 0.0
O33 O 0.27412 0.17785 0.26791 0.0
Fe34 Fe 0.18559 0.25317 0.32713 0.0
Fe35 Fe 0.29892 0.11031 0.24124 0.0
O36 O 0.20625 0.18912 0.29813 0.0
O37 O 0.2083 0.18457 0.29994 0.0
O38 O 0.27596 0.17341 0.2696 0.0
Fe39 Fe 0.26455 0.12893 0.30295 0.0
C40 C 0.20267 0.09353 0.22934 0.0
O41 O 0.24013 0.2797 0.23085 0.0
O42 O 0.30678 0.22033 0.22514 0.0
O43 O 0.2926 0.22965 0.31922 0.0
O44 O 0.24277 0.25579 0.34758 0.0
O45 O 0.2013 0.36252 0.31276 0.0
O46 O 0.24649 0.33652 0.2813 0.0
O47 O 0.3529 0.11584 0.26296 0.0
O48 O 0.32639 0.07879 0.30111 0.0
C49 C 0.22904 0.38523 0.29697 0.0
O50 O 0.24332 0.09048 0.33862 0.0
O51 O 0.17485 0.1428 0.34138 0.0
O52 O 0.18921 0.13584 0.24795 0.0
O53 O 0.24176 0.09695 0.22188 0.0
C54 C 0.27857 0.2753 0.22083 0.0
C55 C 0.35754 0.09055 0.28524 0.0
C56 C 0.25791 -0.02275 0.27225 0.0
O57 O 0.28634 0.00115 0.25695 0.0
O58 O 0.23843 0.02544 0.28731 0.0
C59 C 0.28243 0.25215 0.34114 0.0
O60 O 0.13139 0.2558 0.30567 0.0
O61 O 0.15772 0.29017 0.2673 0.0
C62 C 0.20505 0.09677 0.34908 0.0
C63 C 0.12688 0.28204 0.28355 0.0
Fe64 Fe 0.72555 0.75328 0.26911 0.0
O65 O 0.77863 0.68824 0.27234 0.0
Fe66 Fe 0.69248 0.77366 0.33135 0.0
Fe67 Fe 0.80168 0.61926 0.24556 0.0
O68 O 0.71062 0.70792 0.30203 0.0
O69 O 0.71231 0.70274 0.30386 0.0
O70 O 0.78028 0.68339 0.27415 0.0
Fe71 Fe 0.76558 0.63802 0.30706 0.0
C72 C 0.70559 0.6146 0.23268 0.0
O73 O 0.74975 0.79512 0.23496 0.0
O74 O 0.81452 0.72876 0.23007 0.0
O75 O 0.79732 0.73311 0.32418 0.0
O76 O 0.74856 0.76383 0.35258 0.0
O77 O 0.71422 0.88009 0.31782 0.0
O78 O 0.75704 0.85025 0.28554 0.0
O79 O 0.8547 0.61595 0.26798 0.0
O80 O 0.82514 0.57846 0.30543 0.0
C81 C 0.74196 0.90008 0.30172 0.0
O82 O 0.74046 0.60027 0.34232 0.0
O83 O 0.67515 0.66552 0.34472 0.0
O84 O 0.69303 0.65752 0.25142 0.0
O85 O 0.74491 0.61468 0.22552 0.0
C86 C 0.7883 0.7866 0.22531 0.0
C87 C 0.85727 0.58733 0.28998 0.0
C88 C 0.75472 0.4901 0.27539 0.0
O89 O 0.78436 0.51167 0.26053 0.0
O90 O 0.73591 0.53969 0.29033 0.0
C91 C 0.78798 0.75376 0.34634 0.0
O92 O 0.63955 0.78778 0.30951 0.0
O93 O 0.66729 0.81615 0.27088 0.0
C94 C 0.702 0.61269 0.35219 0.0
C95 C 0.6363 0.81332 0.28722 0.0
Fe96 Fe 0.99424 0.4205 0.51539 0.0
O97 O 0.96712 0.47705 0.54489 0.0
Fe98 Fe 0.07628 0.5538 0.49899 0.0
Fe99 Fe 0.93953 0.41971 0.57218 0.0
O100 O 0.04469 0.492 0.52344 0.0
O101 O 0.04542 0.49796 0.52496 0.0
O102 O 0.96806 0.48354 0.54664 0.0
Fe103 Fe 0.0196 0.55191 0.55519 0.0
C104 C 0.89999 0.35782 0.52312 0.0
O105 O 0.01997 0.33365 0.53673 0.0
O106 O 0.96513 0.30953 0.56215 0.0
O107 O 0.07883 0.61489 0.56028 0.0
O108 O 0.1213 0.57097 0.52705 0.0
O109 O 0.09485 0.43942 0.48657 0.0
O110 O 0.03067 0.36792 0.48585 0.0
O111 O 0.98806 0.4399 0.59913 0.0
O112 O 0.04426 0.46177 0.5753 0.0
C113 C 0.07161 0.37625 0.48043 0.0
O114 O 0.9964 0.6442 0.53512 0.0
O115 O 0.05334 0.66536 0.51055 0.0
O116 O 0.93668 0.35237 0.51117 0.0
O117 O 0.89445 0.39338 0.54476 0.0
C118 C 0.99846 0.28646 0.55013 0.0
C119 C 0.02885 0.44811 0.59644 0.0
C120 C 0.94256 0.5879 0.59255 0.0
O121 O 0.9183 0.5318 0.58264 0.0
O122 O 0.98347 0.59858 0.58676 0.0
C123 C 0.11586 0.6064 0.54876 0.0
O124 O 0.02733 0.5459 0.47272 0.0
O125 O 0.96825 0.50547 0.49282 0.0
C126 C 0.01978 0.69029 0.52221 0.0
C127 C 0.98629 0.54136 0.47498 0.0
Fe128 Fe 0.23936 0.82951 0.7663 0.0
O129 O 0.29274 0.76534 0.76982 0.0
Fe130 Fe 0.20294 0.84391 0.8278 0.0
Fe131 Fe 0.31778 0.69921 0.74298 0.0
O132 O 0.22311 0.78029 0.79844 0.0
O133 O 0.22504 0.77532 0.80035 0.0
O134 O 0.29433 0.76041 0.77152 0.0
Fe135 Fe 0.27906 0.71274 0.80394 0.0
C136 C 0.22252 0.6974 0.72737 0.0
O137 O 0.26551 0.87565 0.73321 0.0
O138 O 0.33084 0.81047 0.72898 0.0
O139 O 0.30918 0.80822 0.82188 0.0
O140 O 0.25855 0.83756 0.84941 0.0
O141 O 0.22261 0.95289 0.81481 0.0
O142 O 0.26925 0.9256 0.78428 0.0
O143 O 0.36974 0.69491 0.7661 0.0
O144 O 0.33911 0.65519 0.80294 0.0
C145 C 0.25146 0.97491 0.79962 0.0
O146 O 0.25385 0.6721 0.83856 0.0
O147 O 0.18758 0.73402 0.841 0.0
O148 O 0.20848 0.73536 0.74675 0.0
O149 O 0.26254 0.69676 0.72173 0.0
C150 C 0.3048 0.86882 0.72446 0.0
C151 C 0.37172 0.66524 0.78795 0.0
C152 C 0.27054 0.56576 0.77136 0.0
O153 O 0.30006 0.58932 0.75667 0.0
O154 O 0.25105 0.61396 0.78645 0.0
C155 C 0.29837 0.82927 0.84379 0.0
O156 O 0.15058 0.85498 0.80533 0.0
O157 O 0.18024 0.89059 0.76779 0.0
C158 C 0.21519 0.68206 0.84825 0.0
C159 C 0.14825 0.88384 0.78341 0.0
Fe160 Fe 0.7374 0.32114 0.76881 0.0
O161 O 0.7918 0.26043 0.77264 0.0
Fe162 Fe 0.70213 0.34093 0.83046 0.0
Fe163 Fe 0.81761 0.19343 0.74632 0.0
O164 O 0.72238 0.27475 0.80156 0.0
O165 O 0.72448 0.27031 0.80354 0.0
O166 O 0.79348 0.25606 0.77436 0.0
Fe167 Fe 0.77982 0.21216 0.8075 0.0
C168 C 0.72237 0.18031 0.73211 0.0
O169 O 0.76255 0.36637 0.73532 0.0
O170 O 0.82859 0.30407 0.73129 0.0
O171 O 0.80823 0.31219 0.82375 0.0
O172 O 0.75844 0.3397 0.8518 0.0
O173 O 0.72013 0.44891 0.81625 0.0
O174 O 0.7664 0.4199 0.78568 0.0
O175 O 0.87008 0.19524 0.76921 0.0
O176 O 0.84105 0.15882 0.80682 0.0
C177 C 0.74882 0.46991 0.80084 0.0
O178 O 0.756 0.17479 0.84295 0.0
O179 O 0.68858 0.2322 0.8449 0.0
O180 O 0.70767 0.22274 0.75046 0.0
O181 O 0.76189 0.18458 0.7255 0.0
C182 C 0.8022 0.36207 0.72693 0.0
C183 C 0.87315 0.16928 0.79149 0.0
C184 C 0.77272 0.06143 0.77628 0.0
O185 O 0.80188 0.08445 0.76126 0.0
O186 O 0.75341 0.10986 0.79137 0.0
C187 C 0.79817 0.33378 0.8457 0.0
O188 O 0.64908 0.34712 0.80822 0.0
O189 O 0.67749 0.3791 0.77004 0.0
C190 C 0.71732 0.18354 0.85279 0.0
C191 C 0.64589 0.37281 0.78593 0.0
Fe192 Fe 0.44458 0.88229 0.50054 0.0
O193 O 0.47522 0.95196 0.52448 0.0
Fe194 Fe 0.53141 0.01189 0.51366 0.0
Fe195 Fe 0.49311 0.92058 0.55827 0.0
O196 O 0.47643 0.95667 0.5227 0.0
O197 O 0.55112 0.97494 0.54659 0.0
O198 O 0.5494 0.97044 0.54875 0.0
Fe199 Fe 0.57877 0.04729 0.57166 0.0
C200 C 0.39564 0.8769 0.54974 0.0
O201 O 0.45993 0.78012 0.51833 0.0
O202 O 0.51338 0.80992 0.54507 0.0
O203 O 0.62843 0.0418 0.54576 0.0
O204 O 0.59287 0.0657 0.50919 0.0
O205 O 0.55544 0.90735 0.49704 0.0
O206 O 0.49715 0.85963 0.47701 0.0
O207 O 0.52111 0.8974 0.59387 0.0
O208 O 0.59077 0.9428 0.58897 0.0
C209 C 0.53786 0.85952 0.48097 0.0
O210 O 0.56158 0.15019 0.55517 0.0
O211 O 0.50804 0.11742 0.52922 0.0
O212 O 0.39524 0.8955 0.52653 0.0
O213 O 0.43023 0.87318 0.56341 0.0
C214 C 0.49139 0.75975 0.53175 0.0
C215 C 0.56129 0.90597 0.60136 0.0
C216 C 0.48498 0.05981 0.59167 0.0
O217 O 0.47121 0.02955 0.57138 0.0
O218 O 0.52555 0.06106 0.59605 0.0
C219 C 0.62757 0.06266 0.52278 0.0
O220 O 0.50188 0.04562 0.48019 0.0
O221 O 0.43417 -0.01353 0.48185 0.0
C222 C 0.5288 0.16859 0.54269 0.0
C223 C 0.46147 0.03871 0.47346 0.0
Fe224 Fe 0.44391 0.39745 0.99393 0.0
O225 O 0.46429 0.46229 1.02255 0.0
Fe226 Fe 0.51982 0.53135 1.01844 0.0
Fe227 Fe 0.47574 0.41921 0.056 0.0
O228 O 0.46593 0.46682 1.02085 0.0
O229 O 0.53211 0.48695 0.0517 0.0
O230 O 0.53025 0.48214 0.05354 0.0
Fe231 Fe 0.54879 0.55424 0.08105 0.0
C232 C 0.38501 0.36983 1.03779 0.0
O233 O 0.4591 0.29037 1.00954 0.0
O234 O 0.50505 0.31924 0.0405 0.0
O235 O 0.6034 0.56514 0.06008 0.0
O236 O 0.5783 0.59344 1.02104 0.0
O237 O 0.55254 0.43535 1.00135 0.0
O238 O 0.50189 0.39184 0.97478 0.0
O239 O 0.49681 0.38331 0.09199 0.0
O240 O 0.56297 0.44681 0.09566 0.0
C241 C 0.54081 0.39244 0.98241 0.0
O242 O 0.53014 0.6602 0.06647 0.0
O243 O 0.48817 0.62859 1.03415 0.0
O244 O 0.38948 0.39583 1.01553 0.0
O245 O 0.41587 0.36122 0.05375 0.0
C246 C 0.48731 0.26942 1.0251 0.0
C247 C 0.53441 0.39536 0.10275 0.0
C248 C 0.45182 0.53837 0.09388 0.0
O249 O 0.44425 0.51633 0.07166 0.0
O250 O 0.49077 0.54758 0.10106 0.0
C251 C 0.60827 0.58939 1.0377 0.0
O252 O 0.49851 0.57279 0.98393 0.0
O253 O 0.43341 0.50664 0.97803 0.0
C254 C 0.50308 0.67927 0.05016 0.0
C255 C 0.46045 0.56465 0.9738 0.0
H256 H 0.1037 0.78875 0.11317 0.0
H257 H 0.11327 0.09152 0.23027 0.0
H258 H 0.9928 0.91662 0.14148 0.0
H259 H 0.22264 0.9694 0.19679 0.0
H260 H 0.06497 0.00533 0.20461 0.0
H261 H 0.14186 0.82224 0.1516 0.0
C262 C 0.08643 0.82013 0.12808 0.0
C263 C 0.04539 0.85193 0.12385 0.0
C264 C 0.09954 -0.00317 0.20314 0.0
C265 C 0.08976 0.8949 0.16742 0.0
C266 C 0.12715 0.04628 0.21771 0.0
C267 C 0.17221 0.03911 0.21532 0.0
C268 C 0.11708 0.93932 0.1862 0.0
C269 C 0.18823 -0.02134 0.19892 0.0
C270 C 0.10868 0.84124 0.14984 0.0
C271 C 0.02475 0.89257 0.1438 0.0
N272 N 0.16082 0.93185 0.18493 0.0
N273 N 0.04767 0.91583 0.16438 0.0
H274 H 0.87423 0.97396 0.08776 0.0
H275 H 0.86312 0.8708 0.22942 0.0
H276 H 0.96537 0.06772 0.14193 0.0
H277 H 0.75345 0.83548 0.18143 0.0
H278 H 0.89854 0.9506 0.19797 0.0
H279 H 0.82687 0.93207 0.12141 0.0
C280 C 0.88399 -0.01256 0.10669 0.0
C281 C 0.9245 0.02329 0.11189 0.0
C282 C 0.86642 0.92683 0.19436 0.0
C283 C 0.8703 0.9741 0.15066 0.0
C284 C 0.84616 0.88132 0.21236 0.0
C285 C 0.80525 0.84683 0.20805 0.0
C286 C 0.84622 0.93651 0.17144 0.0
C287 C 0.78483 0.86173 0.18555 0.0
C288 C 0.85686 0.96311 0.12595 0.0
C289 C 0.93488 0.03938 0.13691 0.0
N290 N 0.80584 0.90432 0.16789 0.0
N291 N 0.90846 0.01338 0.15526 0.0
H292 H 0.0367 0.23742 0.4583 0.0
H293 H 0.25731 0.12883 0.38876 0.0
H294 H 0.15831 0.36133 0.47064 0.0
H295 H 0.13428 0.02402 0.36898 0.0
H296 H 0.22573 0.1822 0.42757 0.0
H297 H 0.07475 0.13412 0.43314 0.0
C298 C 0.07133 0.24289 0.45589 0.0
C299 C 0.09398 0.30964 0.46623 0.0
C300 C 0.20584 0.1453 0.41513 0.0
C301 C 0.13797 0.19048 0.43768 0.0
C302 C 0.22422 0.11341 0.39314 0.0
C303 C 0.19793 0.07524 0.37512 0.0
C304 C 0.16108 0.13693 0.41923 0.0
C305 C 0.15548 0.055 0.38214 0.0
C306 C 0.09311 0.18353 0.4416 0.0
C307 C 0.13908 0.31225 0.46269 0.0
N308 N 0.13786 0.08867 0.40319 0.0
N309 N 0.15937 0.25428 0.4486 0.0
H310 H 0.78019 0.77892 0.39695 0.0
H311 H 0.00941 0.58702 0.42831 0.0
H312 H 0.87151 0.70012 0.34063 0.0
H313 H 0.90049 0.58299 0.47843 0.0
H314 H 0.96399 0.65009 0.39763 0.0
H315 H 0.8293 0.73189 0.42871 0.0
C316 C 0.81076 0.75285 0.39121 0.0
C317 C 0.82107 0.74205 0.36593 0.0
C318 C 0.95006 0.63551 0.41536 0.0
C319 C 0.87782 0.68884 0.40235 0.0
C320 C 0.97598 0.59947 0.43293 0.0
C321 C 0.95879 0.57896 0.45603 0.0
C322 C 0.90667 0.65274 0.42097 0.0
C323 C 0.91514 0.5969 0.46084 0.0
C324 C 0.83868 0.72558 0.40939 0.0
C325 C 0.86168 0.70905 0.3598 0.0
N326 N 0.8907 0.63294 0.44355 0.0
N327 N 0.88833 0.68327 0.37781 0.0
H328 H 0.11653 0.46446 0.59612 0.0
H329 H 0.13354 0.67495 0.73139 0.0
H330 H 0.0076 0.47116 0.64631 0.0
H331 H 0.24221 0.61809 0.68362 0.0
H332 H 0.08595 0.60186 0.70159 0.0
H333 H 0.16233 0.51819 0.62915 0.0
C334 C 0.10218 0.47628 0.61422 0.0
C335 C 0.05769 0.46457 0.61816 0.0
C336 C 0.12028 0.60522 0.69781 0.0
C337 C 0.11057 0.5283 0.65646 0.0
C338 C 0.14746 0.64726 0.71475 0.0
C339 C 0.19212 0.65349 0.71007 0.0
C340 C 0.13784 0.56954 0.67598 0.0
C341 C 0.20816 0.61574 0.68818 0.0
C342 C 0.1285 0.50753 0.63316 0.0
C343 C 0.04148 0.48054 0.64223 0.0
N344 N 0.18118 0.57612 0.67208 0.0
N345 N 0.06772 0.51288 0.66038 0.0
H346 H 0.88502 0.41631 0.72691 0.0
H347 H 0.86021 0.63827 0.60164 0.0
H348 H 0.7617 0.45932 0.69339 0.0
H349 H 0.98173 0.60537 0.6379 0.0
H350 H 0.82237 0.60796 0.63997 0.0
H351 H 0.91876 0.51142 0.69946 0.0
C352 C 0.86487 0.44625 0.71381 0.0
C353 C 0.82051 0.42818 0.7121 0.0
C354 C 0.85734 0.60949 0.63988 0.0
C355 C 0.8594 0.53807 0.68026 0.0
C356 C 0.87911 0.62851 0.61807 0.0
C357 C 0.9243 0.6208 0.61625 0.0
C358 C 0.88099 0.58314 0.66008 0.0
C359 C 0.94689 0.60891 0.63819 0.0
C360 C 0.88424 0.50117 0.6982 0.0
C361 C 0.79604 0.47061 0.69518 0.0
N362 N 0.92505 0.58744 0.65896 0.0
N363 N 0.81595 0.52238 0.67957 0.0
H364 H 0.14595 0.59018 0.8605 0.0
H365 H 0.12849 0.88106 0.98059 0.0
H366 H 0.25511 0.71719 0.89213 0.0
H367 H 0.02097 0.76052 0.94415 0.0
H368 H 0.17815 0.80059 0.95426 0.0
H369 H 0.1044 0.62194 0.89805 0.0
C370 C 0.16205 0.62091 0.87596 0.0
C371 C 0.20388 0.65254 0.87293 0.0
C372 C 0.14368 0.79121 0.95225 0.0
C373 C 0.15562 0.69359 0.91558 0.0
C374 C 0.11526 0.8374 0.96722 0.0
C375 C 0.07031 0.82888 0.96434 0.0
C376 C 0.12712 0.73553 0.93435 0.0
C377 C 0.05524 0.77062 0.94681 0.0
C378 C 0.13788 0.6411 0.89722 0.0
C379 C 0.22279 0.69278 0.89353 0.0
N380 N 0.08344 0.7269 0.93247 0.0
N381 N 0.19813 0.71487 0.91363 0.0
H382 H 0.79036 0.36839 0.89575 0.0
H383 H 1.00143 0.11906 0.93036 0.0
H384 H 0.88145 0.27766 0.84096 0.0
H385 H 0.88661 0.13833 0.97553 0.0
H386 H 0.9683 0.20915 0.90058 0.0
H387 H 0.83687 0.31915 0.9283 0.0
C388 C 0.82053 0.33971 0.89053 0.0
C389 C 0.83113 0.325 0.86546 0.0
C390 C 0.95076 0.19462 0.91725 0.0
C391 C 0.88479 0.26875 0.90275 0.0
C392 C 0.96973 0.14369 0.93425 0.0
C393 C 0.9465 0.1209 0.95526 0.0
C394 C 0.90874 0.2239 0.92166 0.0
C395 C 0.90539 0.1539 0.9594 0.0
C396 C 0.84699 0.31121 0.90915 0.0
C397 C 0.87127 0.2889 0.85996 0.0
N398 N 0.88782 0.20336 0.94277 0.0
N399 N 0.89626 0.26088 0.8784 0.0
H400 H 0.7469 0.04927 0.70395 0.0
H401 H 0.51643 0.96006 0.64266 0.0
H402 H 0.63259 0.1781 0.72755 0.0
H403 H 0.63503 0.84572 0.62027 0.0
H404 H 0.5531 0.01993 0.67939 0.0
H405 H 0.70255 0.95829 0.67845 0.0
C406 C 0.71233 0.05873 0.70375 0.0
C407 C 0.69374 0.12291 0.71765 0.0
C408 C 0.57082 -0.02009 0.66681 0.0
C409 C 0.64197 0.01722 0.68808 0.0
C410 C 0.54967 0.94498 0.64598 0.0
C411 C 0.57295 0.90011 0.62792 0.0
C412 C 0.61542 0.96796 0.6698 0.0
C413 C 0.6158 0.88068 0.63352 0.0
C414 C 0.68684 0.00605 0.68922 0.0
C415 C 0.64847 0.13014 0.71698 0.0
N416 N 0.63581 0.91607 0.65353 0.0
N417 N 0.62421 0.07873 0.70217 0.0
H418 H 0.49895 0.10694 0.64067 0.0
H419 H 0.26949 0.92809 0.68219 0.0
H420 H 0.3973 0.035 0.58991 0.0
H421 H 0.38187 0.94549 0.72883 0.0
H422 H 0.30873 0.00387 0.65067 0.0
H423 H 0.44909 0.08593 0.6753 0.0
C424 C 0.466 0.0884 0.63673 0.0
C425 C 0.45301 0.0698 0.61231 0.0
C426 C 0.32442 -0.00732 0.66806 0.0
C427 C 0.39552 0.04645 0.65186 0.0
C428 C 0.30188 0.95008 0.68609 0.0
C429 C 0.32264 0.93025 0.708 0.0
C430 C 0.36777 0.01591 0.67217 0.0
C431 C 0.36487 0.95915 0.71204 0.0
C432 C 0.43754 0.07614 0.65653 0.0
C433 C 0.40939 0.04801 0.60841 0.0
N434 N 0.38615 -0.00025 0.69425 0.0
N435 N 0.38254 0.03559 0.62793 0.0
H436 H 0.63043 0.39968 0.98331 0.0
H437 H 0.6496 0.09115 0.8672 0.0
H438 H 0.52427 0.26749 0.94942 0.0
H439 H 0.75784 0.22761 0.89592 0.0
H440 H 0.60857 0.12749 0.90457 0.0
H441 H 0.68093 0.3186 0.95755 0.0
C442 C 0.61771 0.35337 0.97065 0.0
C443 C 0.57284 0.34172 0.96826 0.0
C444 C 0.64175 0.14801 0.90315 0.0
C445 C 0.63056 0.24767 0.93899 0.0
C446 C 0.66569 0.12521 0.88202 0.0
C447 C 0.70703 0.15797 0.87811 0.0
C448 C 0.65921 0.20429 0.92055 0.0
C449 C 0.72585 0.20248 0.89794 0.0
C450 C 0.64659 0.30687 0.95599 0.0
C451 C 0.55842 0.28013 0.95163 0.0
N452 N 0.70139 0.22699 0.9179 0.0
N453 N 0.587 0.23616 0.93764 0.0
H454 H 0.5006 0.62442 0.93245 0.0
H455 H 0.28793 0.86221 0.89371 0.0
H456 H 0.38423 0.64254 0.97633 0.0
H457 H 0.38173 0.77232 0.84033 0.0
H458 H 0.33341 0.81525 0.927 0.0
H459 H 0.46711 0.70955 0.90143 0.0
C460 C 0.46847 0.64787 0.9358 0.0
C461 C 0.44499 0.62625 0.95686 0.0
C462 C 0.34437 0.80696 0.90801 0.0
C463 C 0.40674 0.72343 0.92177 0.0
C464 C 0.31849 0.8342 0.88895 0.0
C465 C 0.33034 0.81974 0.86405 0.0
C466 C 0.38282 0.76572 0.90226 0.0
C467 C 0.37078 0.78392 0.85918 0.0
C468 C 0.44929 0.69589 0.91808 0.0
C469 C 0.40329 0.65743 0.96024 0.0
N470 N 0.39524 0.75719 0.87807 0.0
N471 N 0.38552 0.7041 0.94291 0.0
H472 H 0.60044 0.30355 0.11821 0.0
H473 H 0.61597 0.61868 0.23305 0.0
H474 H 0.49191 0.44103 0.14515 0.0
H475 H 0.7234 0.49029 0.19972 0.0
H476 H 0.56639 0.53504 0.20729 0.0
H477 H 0.6402 0.34336 0.15563 0.0
C478 C 0.58394 0.3384 0.1327 0.0
C479 C 0.54297 0.37035 0.12823 0.0
C480 C 0.60081 0.52475 0.20584 0.0
C481 C 0.58933 0.42052 0.1707 0.0
C482 C 0.62917 0.57273 0.22049 0.0
C483 C 0.67412 0.56284 0.21829 0.0
C484 C 0.61744 0.46576 0.18905 0.0
C485 C 0.68916 0.50159 0.2018 0.0
C486 C 0.60718 0.36322 0.15383 0.0
C487 C 0.52359 0.41606 0.14763 0.0
N488 N 0.66106 0.45609 0.18782 0.0
N489 N 0.5474 0.44239 0.16759 0.0
H490 H 0.34391 0.38113 0.22913 0.0
H491 H 0.36994 0.4759 0.08684 0.0
H492 H 0.24906 0.30954 0.17445 0.0
H493 H 0.45377 0.57493 0.14404 0.0
H494 H 0.32029 0.42996 0.1187 0.0
H495 H 0.37926 0.46632 0.19898 0.0
C496 C 0.32999 0.38503 0.21085 0.0
C497 C 0.29342 0.33887 0.20426 0.0
C498 C 0.34918 0.46285 0.12432 0.0
C499 C 0.33452 0.43433 0.16925 0.0
C500 C 0.37765 0.48952 0.10608 0.0
C501 C 0.41689 0.52787 0.11268 0.0
C502 C 0.35989 0.47431 0.14945 0.0
C503 C 0.42446 0.54432 0.138 0.0
C504 C 0.35026 0.43341 0.19359 0.0
C505 C 0.27692 0.34505 0.18029 0.0
N506 N 0.39672 0.51624 0.1554 0.0
N507 N 0.29799 0.39093 0.1635 0.0
H508 H 0.62683 0.84898 0.48036 0.0
H509 H 0.62982 0.53142 0.36616 0.0
H510 H 0.51304 0.73793 0.44777 0.0
H511 H 0.74438 0.64566 0.39561 0.0
H512 H 0.58958 0.57896 0.40275 0.0
H513 H 0.67175 0.75715 0.45495 0.0
C514 C 0.61116 0.80521 0.46796 0.0
C515 C 0.56583 0.80248 0.46604 0.0
C516 C 0.62384 0.59206 0.40167 0.0
C517 C 0.61751 0.69576 0.43697 0.0
C518 C 0.64725 0.56268 0.38103 0.0
C519 C 0.69039 0.58699 0.37734 0.0
C520 C 0.64385 0.64541 0.41897 0.0
C521 C 0.71096 0.62768 0.39731 0.0
C522 C 0.63695 0.75237 0.45352 0.0
C523 C 0.54771 0.74352 0.44973 0.0
N524 N 0.68728 0.65845 0.4168 0.0
N525 N 0.5735 0.69321 0.43578 0.0
H526 H 0.49577 0.08352 0.42857 0.0
H527 H 0.27445 0.29461 0.3906 0.0
H528 H 0.3855 0.11752 0.47672 0.0
H529 H 0.36712 0.20295 0.33683 0.0
H530 H 0.32391 0.26122 0.42369 0.0
H531 H 0.45765 0.15629 0.39629 0.0
C532 C 0.46405 0.10794 0.43254 0.0
C533 C 0.44361 0.09414 0.45526 0.0
C534 C 0.33375 0.24958 0.40463 0.0
C535 C 0.39998 0.17711 0.41866 0.0
C536 C 0.30557 0.26917 0.38566 0.0
C537 C 0.31608 0.25036 0.3608 0.0
C538 C 0.37309 0.21138 0.39882 0.0
C539 C 0.35722 0.21781 0.35569 0.0
C540 C 0.44219 0.14889 0.4141 0.0
C541 C 0.40227 0.12629 0.45937 0.0
N542 N 0.38391 0.19835 0.37451 0.0
N543 N 0.38185 0.16578 0.4413 0.0
H544 H 0.03502 0.68612 0.05631 0.0
H545 H 0.96092 0.24116 1.01219 0.0
H546 H 0.94908 0.63533 0.9948 0.0
H547 H 0.04145 0.29463 0.07593 0.0
H548 H 0.95571 0.38532 1.00555 0.0
H549 H 0.03935 0.54204 0.06293 0.0
C550 C 0.01738 0.64473 0.04404 0.0
C551 C 0.99148 0.673 1.02504 0.0
C552 C 0.9743 0.36542 1.02107 0.0
C553 C 0.9959 0.50797 1.03272 0.0
C554 C 0.97707 0.28311 1.02498 0.0
C555 C 1.00179 0.25562 0.04462 0.0
C556 C 0.99647 0.42052 1.03687 0.0
C557 C 0.02214 0.3129 0.0605 0.0
C558 C 0.01965 0.56243 0.04793 0.0
C559 C 0.96931 0.61638 1.00975 0.0
N560 N 0.01921 0.39255 0.05619 0.0
N561 N 0.9719 0.53658 1.014 0.0
H562 H 0.19859 0.50796 0.32721 0.0
H563 H 0.29165 0.85514 0.2429 0.0
H564 H 0.27677 0.46186 0.26175 0.0
H565 H 0.21011 0.89936 0.30708 0.0
H566 H 0.28681 0.71099 0.24952 0.0
H567 H 0.20461 0.65189 0.32079 0.0
C568 C 0.2174 0.52803 0.3116 0.0
C569 C 0.23706 0.47253 0.29494 0.0
C570 C 0.26985 0.75221 0.2621 0.0
C571 C 0.24365 0.63763 0.28735 0.0
C572 C 0.27244 0.83461 0.25829 0.0
C573 C 0.25137 0.88963 0.27452 0.0
C574 C 0.24609 0.72449 0.28231 0.0
C575 C 0.22688 0.8593 0.29408 0.0
C576 C 0.22062 0.61036 0.30789 0.0
C577 C 0.26106 0.50234 0.27509 0.0
N578 N 0.22509 0.77876 0.29748 0.0
N579 N 0.26348 0.58292 0.27178 0.0
H580 H 0.78338 0.9744 0.26364 0.0
H581 H 0.71356 0.41443 0.31323 0.0
H582 H 0.71979 0.02351 0.33396 0.0
H583 H 0.78182 0.36738 0.24428 0.0
H584 H 0.71384 0.27035 0.32058 0.0
H585 H 0.78503 0.11873 0.25666 0.0
C586 C 0.77046 0.0155 0.27781 0.0
C587 C 0.75104 -0.01328 0.29932 0.0
C588 C 0.72857 0.29158 0.30378 0.0
C589 C 0.75202 0.15157 0.2912 0.0
C590 C 0.728 0.37375 0.29945 0.0
C591 C 0.74794 0.40302 0.27818 0.0
C592 C 0.74914 0.2385 0.28671 0.0
C593 C 0.76638 0.34751 0.26104 0.0
C594 C 0.77103 0.09787 0.27371 0.0
C595 C 0.73471 0.04288 0.317 0.0
N596 N 0.76675 0.26794 0.26575 0.0
N597 N 0.73523 0.12255 0.31244 0.0
H598 H 0.96201 0.77255 0.55216 0.0
H599 H 0.05467 0.20639 0.51853 0.0
H600 H 0.0622 0.80861 0.49758 0.0
H601 H 0.96081 0.16708 0.57644 0.0
H602 H 0.05846 0.06088 0.51066 0.0
H603 H 0.95914 0.91798 0.56 0.0
C604 C 0.98297 0.81099 0.54155 0.0
C605 C 0.01255 0.77811 0.52427 0.0
C606 C 0.03732 0.08415 0.52523 0.0
C607 C 0.00995 0.94468 0.53349 0.0
C608 C 0.03543 0.16725 0.5299 0.0
C609 C 0.00723 0.19916 0.54813 0.0
C610 C 0.01078 0.03271 0.53884 0.0
C611 C 0.98286 0.14534 0.56212 0.0
C612 C 0.9816 0.89406 0.54621 0.0
C613 C 0.03902 0.83111 0.51117 0.0
N614 N 0.98498 0.06486 0.55705 0.0
N615 N 0.03726 0.91172 0.51616 0.0
H616 H 0.22209 0.09797 0.83005 0.0
H617 H 0.30337 0.44382 0.74159 0.0
H618 H 0.29684 0.05135 0.76334 0.0
H619 H 0.22396 0.48746 0.80666 0.0
H620 H 0.30124 0.30001 0.74908 0.0
H621 H 0.22489 0.24143 0.82245 0.0
C622 C 0.23958 0.11789 0.81394 0.0
C623 C 0.25911 0.06227 0.79726 0.0
C624 C 0.28408 0.34099 0.76164 0.0
C625 C 0.26187 0.22687 0.78826 0.0
C626 C 0.28506 0.42318 0.75731 0.0
C627 C 0.26396 0.47806 0.77359 0.0
C628 C 0.26196 0.3133 0.78244 0.0
C629 C 0.24068 0.44755 0.79359 0.0
C630 C 0.2409 0.19994 0.80954 0.0
C631 C 0.28136 0.09192 0.77674 0.0
N632 N 0.24056 0.36727 0.79754 0.0
N633 N 0.28189 0.17223 0.77274 0.0
H634 H 0.79666 0.54345 0.76505 0.0
H635 H 0.72303 -0.0147 0.81056 0.0
H636 H 0.71909 0.59444 0.83046 0.0
H637 H 0.80675 0.93837 0.74745 0.0
H638 H 0.71922 0.84109 0.81708 0.0
H639 H 0.8012 0.6878 0.75821 0.0
C640 C 0.78109 0.58493 0.77816 0.0
C641 C 0.75728 0.55672 0.79831 0.0
C642 C 0.73831 0.86233 0.80174 0.0
C643 C 0.76177 0.72161 0.79034 0.0
C644 C 0.74024 0.94471 0.79789 0.0
C645 C 0.76548 0.97412 0.77852 0.0
C646 C 0.76172 0.80896 0.78611 0.0
C647 C 0.7871 0.9185 0.76273 0.0
C648 C 0.78343 0.6673 0.77413 0.0
C649 C 0.73761 0.61331 0.81461 0.0
N650 N 0.7849 0.83856 0.76696 0.0
N651 N 0.74009 0.69298 0.81017 0.0
H652 H 0.53758 0.6824 0.56675 0.0
H653 H 0.47882 0.24465 0.50909 0.0
H654 H 0.46293 0.64033 0.50006 0.0
H655 H 0.55425 0.28707 0.57547 0.0
H656 H 0.46952 0.39012 0.50651 0.0
H657 H 0.5437 0.5368 0.57048 0.0
C658 C 0.52286 0.64258 0.55281 0.0
C659 C 0.49948 0.67324 0.5332 0.0
C660 C 0.48793 0.36738 0.52169 0.0
C661 C 0.5058 0.50751 0.53746 0.0
C662 C 0.49295 0.28448 0.52325 0.0
C663 C 0.51778 0.25415 0.54232 0.0
C664 C 0.50786 0.41959 0.53935 0.0
C665 C 0.53541 0.30815 0.56022 0.0
C666 C 0.52604 0.55961 0.55502 0.0
C667 C 0.48086 0.61914 0.51565 0.0
N668 N 0.53034 0.38838 0.5582 0.0
N669 N 0.48431 0.53881 0.51825 0.0
H670 H 0.46367 0.75197 1.01158 0.0
H671 H 0.52759 0.19477 0.06291 0.0
H672 H 0.52375 0.80338 0.08254 0.0
H673 H 0.4616 0.14613 0.99359 0.0
H674 H 0.52852 0.05046 0.0697 0.0
H675 H 0.4613 0.89642 1.00484 0.0
C676 C 0.47571 0.79357 1.02592 0.0
C677 C 0.49427 0.76554 0.04757 0.0
C678 C 0.514 0.07139 0.05295 0.0
C679 C 0.49242 0.93042 0.03976 0.0
C680 C 0.51384 0.15374 0.04895 0.0
C681 C 0.49422 0.18257 1.02774 0.0
C682 C 0.49449 0.01766 1.03559 0.0
C683 C 0.47675 0.12659 1.01033 0.0
C684 C 0.47471 0.87599 1.02196 0.0
C685 C 0.50952 0.82222 0.06546 0.0
N686 N 0.47709 0.04679 1.01471 0.0
N687 N 0.50855 0.90193 0.06106 0.0
H688 H 0.36748 0.23567 0.06329 0.0
H689 H 0.12978 0.2054 1.00764 0.0
H690 H 0.30773 0.42424 1.02296 0.0
H691 H 0.1902 0.0161 0.04733 0.0
H692 H 0.19643 0.28442 1.0111 0.0
H693 H 0.30092 0.1566 0.05959 0.0
C694 C 0.3398 0.26135 0.05438 0.0
C695 C 0.34284 0.33552 0.04307 0.0
C696 C 0.19529 0.22509 1.01875 0.0
C697 C 0.26791 0.24526 1.03795 0.0
C698 C 0.15763 0.17955 1.01633 0.0
C699 C 0.15479 0.10517 1.02752 0.0
C700 C 0.22977 0.19535 1.03243 0.0
C701 C 0.19133 0.07408 0.03879 0.0
C702 C 0.30219 0.21576 0.05183 0.0
C703 C 0.30647 0.3664 1.03156 0.0
N704 N 0.22733 0.12002 0.0413 0.0
N705 N 0.2705 0.32042 1.02895 0.0
H706 H 0.80951 0.93633 1.0227 0.0
H707 H 0.68524 0.52996 0.05024 0.0
H708 H 0.86245 0.74582 0.06517 0.0
H709 H 0.62507 0.73021 1.01573 0.0
H710 H 0.75183 0.60791 0.0543 0.0
H711 H 0.73998 0.86671 1.02203 0.0
C712 C 0.806 0.88074 1.03243 0.0
C713 C 0.84156 0.84516 0.04345 0.0
C714 C 0.72426 0.63471 0.04563 0.0
C715 C 0.76331 0.76494 0.04221 0.0
C716 C 0.68668 0.58983 0.04293 0.0
C717 C 0.65017 0.62445 1.03272 0.0
C718 C 0.72496 0.71452 1.03809 0.0
C719 C 0.653 0.70175 1.02351 0.0
C720 C 0.76658 0.8408 1.03185 0.0
C721 C 0.83568 0.77437 0.05624 0.0
N722 N 0.68991 0.74504 1.02669 0.0
N723 N 0.79725 0.73534 0.05482 0.0
H724 H 0.04901 0.22342 0.29743 0.0
H725 H 0.93646 0.64638 0.27923 0.0
H726 H 0.10987 0.42155 0.26092 0.0
H727 H 0.87139 0.44373 0.31097 0.0
H728 H 1.00218 0.56721 0.27518 0.0
H729 H 0.98299 0.3017 0.30199 0.0
C730 C 0.0479 0.28272 0.28974 0.0
C731 C 0.08468 0.31661 0.27888 0.0
C732 C 0.97376 0.54025 0.28334 0.0
C733 C 0.01024 0.40716 0.28479 0.0
C734 C 0.93654 0.58574 0.28599 0.0
C735 C 0.89873 0.55097 0.29532 0.0
C736 C 0.97288 0.45943 0.28994 0.0
C737 C 0.90014 0.47256 0.30383 0.0
C738 C 0.01051 0.3277 0.29265 0.0
C739 C 0.08197 0.39334 0.26925 0.0
N740 N 0.93663 0.4287 0.30059 0.0
N741 N 0.04542 0.43677 0.27277 0.0
H742 H 0.38122 0.7445 0.5772 0.0
H743 H 0.12385 0.76316 0.56513 0.0
H744 H 0.31548 0.94074 0.54397 0.0
H745 H 0.19586 0.54339 0.55497 0.0
H746 H 0.19199 0.83691 0.57313 0.0
H747 H 0.31088 0.67981 0.58485 0.0
C748 C 0.35194 0.77525 0.57229 0.0
C749 C 0.35406 0.84788 0.55986 0.0
C750 C 0.19263 0.77221 0.56978 0.0
C751 C 0.2739 0.77465 0.56863 0.0
C752 C 0.15386 0.73011 0.56544 0.0
C753 C 0.15444 0.64724 0.55939 0.0
C754 C 0.23198 0.73068 0.56856 0.0
C755 C 0.1942 0.60735 0.55954 0.0
C756 C 0.31194 0.73802 0.57647 0.0
C757 C 0.31517 0.88454 0.55351 0.0
N758 N 0.23143 0.64944 0.56394 0.0
N759 N 0.27667 0.84739 0.55785 0.0
H760 H 0.81933 0.41712 0.51731 0.0
H761 H 0.70835 0.00194 0.52813 0.0
H762 H 0.89382 0.20033 0.50712 0.0
H763 H 0.64011 0.1976 0.4962 0.0
H764 H 0.77689 0.07095 0.5198 0.0
H765 H 0.75324 0.33889 0.50877 0.0
C766 C 0.82173 0.35326 0.51265 0.0
C767 C 0.86189 0.31495 0.51278 0.0
C768 C 0.74701 0.09787 0.51405 0.0
C769 C 0.78654 0.22477 0.50389 0.0
C770 C 0.70794 0.05858 0.51882 0.0
C771 C 0.66863 0.09425 0.51284 0.0
C772 C 0.74664 0.1746 0.504 0.0
C773 C 0.66978 0.16788 0.50093 0.0
C774 C 0.7841 0.30869 0.50778 0.0
C775 C 0.86341 0.23202 0.50693 0.0
N776 N 0.70814 0.20666 0.49744 0.0
N777 N 0.82611 0.1892 0.50328 0.0
H778 H 0.89128 0.03134 0.81477 0.0
H779 H 0.13491 0.03165 0.76497 0.0
H780 H 0.95077 0.23406 0.7799 0.0
H781 H 0.06899 0.82312 0.79248 0.0
H782 H 0.06826 0.1089 0.77053 0.0
H783 H 0.95957 0.95902 0.81088 0.0
C784 C 0.9192 0.06154 0.80712 0.0
C785 C 0.91563 0.13802 0.79739 0.0
C786 C 0.06822 0.04585 0.77497 0.0
C787 C 0.99275 0.05535 0.79194 0.0
C788 C 0.1059 0.00154 0.77128 0.0
C789 C 0.10703 0.92135 0.77827 0.0
C790 C 0.03195 0.00919 0.78574 0.0
C791 C 0.06911 0.88513 0.78693 0.0
C792 C 0.95786 0.01983 0.80441 0.0
C793 C 0.95242 0.17453 0.78735 0.0
N794 N 0.03315 0.92965 0.79072 0.0
N795 N 0.98943 0.13233 0.78453 0.0
H796 H 0.63006 0.51027 0.76177 0.0
H797 H 0.38615 0.52497 0.81095 0.0
H798 H 0.56745 0.31573 0.79916 0.0
H799 H 0.45091 0.72276 0.77631 0.0
H800 H 0.45312 0.44809 0.80808 0.0
H801 H 0.56282 0.5864 0.76464 0.0
C802 C 0.6017 0.4827 0.76984 0.0
C803 C 0.60402 0.40727 0.78038 0.0
C804 C 0.45282 0.50877 0.80142 0.0
C805 C 0.5281 0.49427 0.78462 0.0
C806 C 0.41489 0.55304 0.80351 0.0
C807 C 0.41325 0.62966 0.79368 0.0
C808 C 0.48891 0.54188 0.78944 0.0
C809 C 0.45103 0.66326 0.78387 0.0
C810 C 0.56364 0.52658 0.77192 0.0
C811 C 0.56676 0.37429 0.791 0.0
N812 N 0.48728 0.61868 0.7817 0.0
N813 N 0.53035 0.41847 0.79312 0.0
H814 H 0.62147 0.9518 0.26324 0.0
H815 H 0.37923 0.96778 0.31472 0.0
H816 H 0.55785 0.7585 0.3007 0.0
H817 H 0.43371 0.1474 0.26765 0.0
H818 H 0.44851 0.89877 0.31397 0.0
H819 H 0.55415 0.02842 0.26556 0.0
C820 C 0.59292 0.9247 0.27123 0.0
C821 C 0.59482 0.84933 0.28186 0.0
C822 C 0.44541 0.95378 0.30401 0.0
C823 C 0.51903 0.93667 0.28545 0.0
C824 C 0.40613 -0.00622 0.30479 0.0
C825 C 0.4008 0.06226 0.29087 0.0
C826 C 0.47921 -0.01704 0.28926 0.0
C827 C 0.43652 0.09363 0.27825 0.0
C828 C 0.55485 0.96877 0.27297 0.0
C829 C 0.55744 0.81693 0.29245 0.0
N830 N 0.47421 0.05302 0.27745 0.0
N831 N 0.5211 0.86122 0.29421 0.0
loop_
_geom_bond_atom_site_label_1
_geom_bond_atom_site_label_2
_geom_bond_distance
_geom_bond_site_symmetry_2
_ccdc_geom_bond_type
Fe0 O1 1.886 1_556 S
Fe0 O4 1.715 . S
Fe0 O9 2.077 . S
Fe0 O14 1.935 1_655 S
Fe0 O20 2.077 . S
Fe0 O29 1.935 . S
O1 Fe0 1.886 1_554 S
O1 Fe3 1.715 . S
Fe2 O4 1.886 1_445 S
Fe2 O5 1.715 . S
Fe2 O12 1.935 . S
Fe2 O13 2.077 . S
Fe2 O19 1.935 1_455 S
Fe2 O28 2.077 1_455 S
Fe3 O1 1.715 . S
Fe3 O6 1.886 1_665 S
Fe3 O10 1.935 1_655 S
Fe3 O15 2.077 1_655 S
Fe3 O21 1.935 . S
Fe3 O25 2.077 . S
O4 Fe0 1.715 . S
O4 Fe2 1.886 1_665 S
O5 Fe2 1.715 . S
O5 Fe7 1.886 1_556 S
O6 Fe3 1.886 1_445 S
O6 Fe7 1.715 . S
Fe7 O5 1.886 1_554 S
Fe7 O6 1.715 . S
Fe7 O11 2.077 . S
Fe7 O16 1.935 . S
Fe7 O18 2.077 . S
Fe7 O26 1.935 1_455 S
C8 O20 1.381 1_554 S
C8 O21 1.421 . S
O9 Fe0 2.077 . S
O9 C22 1.381 1_656 S
O10 Fe3 1.935 1_455 S
O10 C22 1.421 . S
O11 Fe7 2.077 . S
O11 C27 1.381 1_554 S
O12 Fe2 1.935 . S
O12 C27 1.421 . S
O13 Fe2 2.077 . S
O13 C17 1.381 1_545 S
O14 Fe0 1.935 1_455 S
O14 C17 1.421 . S
O15 Fe3 2.077 1_455 S
O15 C23 1.381 . S
O16 Fe7 1.935 . S
O16 C23 1.421 1_545 S
C17 O13 1.381 1_565 S
C17 O14 1.421 . S
O18 Fe7 2.077 . S
O18 C30 1.381 1_454 S
O19 Fe2 1.935 1_655 S
O19 C30 1.421 . S
O20 Fe0 2.077 . S
O20 C8 1.381 1_556 S
O21 Fe3 1.935 . S
O21 C8 1.421 . S
C22 O9 1.381 1_454 S
C22 O10 1.421 . S
C23 O15 1.381 . S
C23 O16 1.421 1_565 S
C24 O25 1.381 1_545 S
C24 O26 1.421 . S
O25 Fe3 2.077 . S
O25 C24 1.381 1_565 S
O26 Fe7 1.935 1_655 S
O26 C24 1.421 . S
C27 O11 1.381 1_556 S
C27 O12 1.421 . S
O28 Fe2 2.077 1_655 S
O28 C31 1.381 . S
O29 Fe0 1.935 . S
O29 C31 1.421 1_565 S
C30 O18 1.381 1_656 S
C30 O19 1.421 . S
C31 O28 1.381 . S
C31 O29 1.421 1_545 S
Fe32 O33 1.886 . S
Fe32 O36 1.715 . S
Fe32 O41 2.077 . S
Fe32 O46 1.935 . S
Fe32 O52 2.077 . S
Fe32 O61 1.935 . S
O33 Fe32 1.886 . S
O33 Fe35 1.715 . S
Fe34 O36 1.886 . S
Fe34 O37 1.715 . S
Fe34 O44 1.935 . S
Fe34 O45 2.077 . S
Fe34 O51 1.935 . S
Fe34 O60 2.077 . S
Fe35 O33 1.715 . S
Fe35 O38 1.886 . S
Fe35 O42 1.935 . S
Fe35 O47 2.077 . S
Fe35 O53 1.935 . S
Fe35 O57 2.077 . S
O36 Fe32 1.715 . S
O36 Fe34 1.886 . S
O37 Fe34 1.715 . S
O37 Fe39 1.886 . S
O38 Fe35 1.886 . S
O38 Fe39 1.715 . S
Fe39 O37 1.886 . S
Fe39 O38 1.715 . S
Fe39 O43 2.077 . S
Fe39 O48 1.935 . S
Fe39 O50 2.077 . S
Fe39 O58 1.935 . S
C40 O52 1.381 . S
C40 O53 1.421 . S
O41 Fe32 2.077 . S
O41 C54 1.381 . S
O42 Fe35 1.935 . S
O42 C54 1.421 . S
O43 Fe39 2.077 . S
O43 C59 1.381 . S
O44 Fe34 1.935 . S
O44 C59 1.421 . S
O45 Fe34 2.077 . S
O45 C49 1.381 . S
O46 Fe32 1.935 . S
O46 C49 1.421 . S
O47 Fe35 2.077 . S
O47 C55 1.381 . S
O48 Fe39 1.935 . S
O48 C55 1.421 . S
C49 O45 1.381 . S
C49 O46 1.421 . S
O50 Fe39 2.077 . S
O50 C62 1.381 . S
O51 Fe34 1.935 . S
O51 C62 1.421 . S
O52 Fe32 2.077 . S
O52 C40 1.381 . S
O53 Fe35 1.935 . S
O53 C40 1.421 . S
C54 O41 1.381 . S
C54 O42 1.421 . S
C55 O47 1.381 . S
C55 O48 1.421 . S
C56 O57 1.381 . S
C56 O58 1.421 . S
O57 Fe35 2.077 . S
O57 C56 1.381 . S
O58 Fe39 1.935 . S
O58 C56 1.421 . S
C59 O43 1.381 . S
C59 O44 1.421 . S
O60 Fe34 2.077 . S
O60 C63 1.381 . S
O61 Fe32 1.935 . S
O61 C63 1.421 . S
C62 O50 1.381 . S
C62 O51 1.421 . S
C63 O60 1.381 . S
C63 O61 1.421 . S
Fe64 O65 1.886 . S
Fe64 O68 1.715 . S
Fe64 O73 2.077 . S
Fe64 O78 1.935 . S
Fe64 O84 2.077 . S
Fe64 O93 1.935 . S
O65 Fe64 1.886 . S
O65 Fe67 1.715 . S
Fe66 O68 1.886 . S
Fe66 O69 1.715 . S
Fe66 O76 1.935 . S
Fe66 O77 2.077 . S
Fe66 O83 1.935 . S
Fe66 O92 2.077 . S
Fe67 O65 1.715 . S
Fe67 O70 1.886 . S
Fe67 O74 1.935 . S
Fe67 O79 2.077 . S
Fe67 O85 1.935 . S
Fe67 O89 2.077 . S
O68 Fe64 1.715 . S
O68 Fe66 1.886 . S
O69 Fe66 1.715 . S
O69 Fe71 1.886 . S
O70 Fe67 1.886 . S
O70 Fe71 1.715 . S
Fe71 O69 1.886 . S
Fe71 O70 1.715 . S
Fe71 O75 2.077 . S
Fe71 O80 1.935 . S
Fe71 O82 2.077 . S
Fe71 O90 1.935 . S
C72 O84 1.381 . S
C72 O85 1.421 . S
O73 Fe64 2.077 . S
O73 C86 1.381 . S
O74 Fe67 1.935 . S
O74 C86 1.421 . S
O75 Fe71 2.077 . S
O75 C91 1.381 . S
O76 Fe66 1.935 . S
O76 C91 1.421 . S
O77 Fe66 2.077 . S
O77 C81 1.381 . S
O78 Fe64 1.935 . S
O78 C81 1.421 . S
O79 Fe67 2.077 . S
O79 C87 1.381 . S
O80 Fe71 1.935 . S
O80 C87 1.421 . S
C81 O77 1.381 . S
C81 O78 1.421 . S
O82 Fe71 2.077 . S
O82 C94 1.381 . S
O83 Fe66 1.935 . S
O83 C94 1.421 . S
O84 Fe64 2.077 . S
O84 C72 1.381 . S
O85 Fe67 1.935 . S
O85 C72 1.421 . S
C86 O73 1.381 . S
C86 O74 1.421 . S
C87 O79 1.381 . S
C87 O80 1.421 . S
C88 O89 1.381 . S
C88 O90 1.421 . S
O89 Fe67 2.077 . S
O89 C88 1.381 . S
O90 Fe71 1.935 . S
O90 C88 1.421 . S
C91 O75 1.381 . S
C91 O76 1.421 . S
O92 Fe66 2.077 . S
O92 C95 1.381 . S
O93 Fe64 1.935 . S
O93 C95 1.421 . S
C94 O82 1.381 . S
C94 O83 1.421 . S
C95 O92 1.381 . S
C95 O93 1.421 . S
Fe96 O97 1.886 . S
Fe96 O100 1.715 . S
Fe96 O105 2.077 . S
Fe96 O110 1.935 1_655 S
Fe96 O116 2.077 . S
Fe96 O125 1.935 . S
O97 Fe96 1.886 . S
O97 Fe99 1.715 . S
Fe98 O100 1.886 1_455 S
Fe98 O101 1.715 . S
Fe98 O108 1.935 . S
Fe98 O109 2.077 . S
Fe98 O115 1.935 1_455 S
Fe98 O124 2.077 1_455 S
Fe99 O97 1.715 . S
Fe99 O102 1.886 1_655 S
Fe99 O106 1.935 1_655 S
Fe99 O111 2.077 1_655 S
Fe99 O117 1.935 . S
Fe99 O121 2.077 . S
O100 Fe96 1.715 . S
O100 Fe98 1.886 1_655 S
O101 Fe98 1.715 . S
O101 Fe103 1.886 . S
O102 Fe99 1.886 1_455 S
O102 Fe103 1.715 . S
Fe103 O101 1.886 . S
Fe103 O102 1.715 . S
Fe103 O107 2.077 . S
Fe103 O112 1.935 . S
Fe103 O114 2.077 . S
Fe103 O122 1.935 1_455 S
C104 O116 1.381 . S
C104 O117 1.421 . S
O105 Fe96 2.077 . S
O105 C118 1.381 1_655 S
O106 Fe99 1.935 1_455 S
O106 C118 1.421 . S
O107 Fe103 2.077 . S
O107 C123 1.381 . S
O108 Fe98 1.935 . S
O108 C123 1.421 . S
O109 Fe98 2.077 . S
O109 C113 1.381 . S
O110 Fe96 1.935 1_455 S
O110 C113 1.421 . S
O111 Fe99 2.077 1_455 S
O111 C119 1.381 . S
O112 Fe103 1.935 . S
O112 C119 1.421 . S
C113 O109 1.381 . S
C113 O110 1.421 . S
O114 Fe103 2.077 . S
O114 C126 1.381 1_455 S
O115 Fe98 1.935 1_655 S
O115 C126 1.421 . S
O116 Fe96 2.077 . S
O116 C104 1.381 . S
O117 Fe99 1.935 . S
O117 C104 1.421 . S
C118 O105 1.381 1_455 S
C118 O106 1.421 . S
C119 O111 1.381 . S
C119 O112 1.421 . S
C120 O121 1.381 . S
C120 O122 1.421 . S
O121 Fe99 2.077 . S
O121 C120 1.381 . S
O122 Fe103 1.935 1_655 S
O122 C120 1.421 . S
C123 O107 1.381 . S
C123 O108 1.421 . S
O124 Fe98 2.077 1_655 S
O124 C127 1.381 . S
O125 Fe96 1.935 . S
O125 C127 1.421 . S
C126 O114 1.381 1_655 S
C126 O115 1.421 . S
C127 O124 1.381 . S
C127 O125 1.421 . S
Fe128 O129 1.886 . S
Fe128 O132 1.715 . S
Fe128 O137 2.077 . S
Fe128 O142 1.935 . S
Fe128 O148 2.077 . S
Fe128 O157 1.935 . S
O129 Fe128 1.886 . S
O129 Fe131 1.715 . S
Fe130 O132 1.886 . S
Fe130 O133 1.715 . S
Fe130 O140 1.935 . S
Fe130 O141 2.077 . S
Fe130 O147 1.935 . S
Fe130 O156 2.077 . S
Fe131 O129 1.715 . S
Fe131 O134 1.886 . S
Fe131 O138 1.935 . S
Fe131 O143 2.077 . S
Fe131 O149 1.935 . S
Fe131 O153 2.077 . S
O132 Fe128 1.715 . S
O132 Fe130 1.886 . S
O133 Fe130 1.715 . S
O133 Fe135 1.886 . S
O134 Fe131 1.886 . S
O134 Fe135 1.715 . S
Fe135 O133 1.886 . S
Fe135 O134 1.715 . S
Fe135 O139 2.077 . S
Fe135 O144 1.935 . S
Fe135 O146 2.077 . S
Fe135 O154 1.935 . S
C136 O148 1.381 . S
C136 O149 1.421 . S
O137 Fe128 2.077 . S
O137 C150 1.381 . S
O138 Fe131 1.935 . S
O138 C150 1.421 . S
O139 Fe135 2.077 . S
O139 C155 1.381 . S
O140 Fe130 1.935 . S
O140 C155 1.421 . S
O141 Fe130 2.077 . S
O141 C145 1.381 . S
O142 Fe128 1.935 . S
O142 C145 1.421 . S
O143 Fe131 2.077 . S
O143 C151 1.381 . S
O144 Fe135 1.935 . S
O144 C151 1.421 . S
C145 O141 1.381 . S
C145 O142 1.421 . S
O146 Fe135 2.077 . S
O146 C158 1.381 . S
O147 Fe130 1.935 . S
O147 C158 1.421 . S
O148 Fe128 2.077 . S
O148 C136 1.381 . S
O149 Fe131 1.935 . S
O149 C136 1.421 . S
C150 O137 1.381 . S
C150 O138 1.421 . S
C151 O143 1.381 . S
C151 O144 1.421 . S
C152 O153 1.381 . S
C152 O154 1.421 . S
O153 Fe131 2.077 . S
O153 C152 1.381 . S
O154 Fe135 1.935 . S
O154 C152 1.421 . S
C155 O139 1.381 . S
C155 O140 1.421 . S
O156 Fe130 2.077 . S
O156 C159 1.381 . S
O157 Fe128 1.935 . S
O157 C159 1.421 . S
C158 O146 1.381 . S
C158 O147 1.421 . S
C159 O156 1.381 . S
C159 O157 1.421 . S
Fe160 O161 1.886 . S
Fe160 O164 1.715 . S
Fe160 O169 2.077 . S
Fe160 O174 1.935 . S
Fe160 O180 2.077 . S
Fe160 O189 1.935 . S
O161 Fe160 1.886 . S
O161 Fe163 1.715 . S
Fe162 O164 1.886 . S
Fe162 O165 1.715 . S
Fe162 O172 1.935 . S
Fe162 O173 2.077 . S
Fe162 O179 1.935 . S
Fe162 O188 2.077 . S
Fe163 O161 1.715 . S
Fe163 O166 1.886 . S
Fe163 O170 1.935 . S
Fe163 O175 2.077 . S
Fe163 O181 1.935 . S
Fe163 O185 2.077 . S
O164 Fe160 1.715 . S
O164 Fe162 1.886 . S
O165 Fe162 1.715 . S
O165 Fe167 1.886 . S
O166 Fe163 1.886 . S
O166 Fe167 1.715 . S
Fe167 O165 1.886 . S
Fe167 O166 1.715 . S
Fe167 O171 2.077 . S
Fe167 O176 1.935 . S
Fe167 O178 2.077 . S
Fe167 O186 1.935 . S
C168 O180 1.381 . S
C168 O181 1.421 . S
O169 Fe160 2.077 . S
O169 C182 1.381 . S
O170 Fe163 1.935 . S
O170 C182 1.421 . S
O171 Fe167 2.077 . S
O171 C187 1.381 . S
O172 Fe162 1.935 . S
O172 C187 1.421 . S
O173 Fe162 2.077 . S
O173 C177 1.381 . S
O174 Fe160 1.935 . S
O174 C177 1.421 . S
O175 Fe163 2.077 . S
O175 C183 1.381 . S
O176 Fe167 1.935 . S
O176 C183 1.421 . S
C177 O173 1.381 . S
C177 O174 1.421 . S
O178 Fe167 2.077 . S
O178 C190 1.381 . S
O179 Fe162 1.935 . S
O179 C190 1.421 . S
O180 Fe160 2.077 . S
O180 C168 1.381 . S
O181 Fe163 1.935 . S
O181 C168 1.421 . S
C182 O169 1.381 . S
C182 O170 1.421 . S
C183 O175 1.381 . S
C183 O176 1.421 . S
C184 O185 1.381 . S
C184 O186 1.421 . S
O185 Fe163 2.077 . S
O185 C184 1.381 . S
O186 Fe167 1.935 . S
O186 C184 1.421 . S
C187 O171 1.381 . S
C187 O172 1.421 . S
O188 Fe162 2.077 . S
O188 C191 1.381 . S
O189 Fe160 1.935 . S
O189 C191 1.421 . S
C190 O178 1.381 . S
C190 O179 1.421 . S
C191 O188 1.381 . S
C191 O189 1.421 . S
Fe192 O193 1.886 . S
Fe192 O196 1.715 . S
Fe192 O201 2.077 . S
Fe192 O206 1.935 . S
Fe192 O212 2.077 . S
Fe192 O221 1.935 . S
O193 Fe192 1.886 . S
O193 Fe195 1.715 . S
Fe194 O196 1.886 1_545 S
Fe194 O197 1.715 . S
Fe194 O204 1.935 . S
Fe194 O205 2.077 . S
Fe194 O211 1.935 . S
Fe194 O220 2.077 . S
Fe195 O193 1.715 . S
Fe195 O198 1.886 1_565 S
Fe195 O202 1.935 . S
Fe195 O207 2.077 . S
Fe195 O213 1.935 . S
Fe195 O217 2.077 . S
O196 Fe192 1.715 . S
O196 Fe194 1.886 1_565 S
O197 Fe194 1.715 . S
O197 Fe199 1.886 . S
O198 Fe195 1.886 1_545 S
O198 Fe199 1.715 . S
Fe199 O197 1.886 . S
Fe199 O198 1.715 . S
Fe199 O203 2.077 . S
Fe199 O208 1.935 . S
Fe199 O210 2.077 . S
Fe199 O218 1.935 . S
C200 O212 1.381 . S
C200 O213 1.421 . S
O201 Fe192 2.077 . S
O201 C214 1.381 . S
O202 Fe195 1.935 . S
O202 C214 1.421 . S
O203 Fe199 2.077 . S
O203 C219 1.381 . S
O204 Fe194 1.935 . S
O204 C219 1.421 . S
O205 Fe194 2.077 . S
O205 C209 1.381 1_545 S
O206 Fe192 1.935 . S
O206 C209 1.421 . S
O207 Fe195 2.077 . S
O207 C215 1.381 . S
O208 Fe199 1.935 . S
O208 C215 1.421 1_545 S
C209 O205 1.381 1_565 S
C209 O206 1.421 . S
O210 Fe199 2.077 . S
O210 C222 1.381 . S
O211 Fe194 1.935 . S
O211 C222 1.421 . S
O212 Fe192 2.077 . S
O212 C200 1.381 . S
O213 Fe195 1.935 . S
O213 C200 1.421 . S
C214 O201 1.381 . S
C214 O202 1.421 . S
C215 O207 1.381 . S
C215 O208 1.421 1_565 S
C216 O217 1.381 1_545 S
C216 O218 1.421 . S
O217 Fe195 2.077 . S
O217 C216 1.381 1_565 S
O218 Fe199 1.935 . S
O218 C216 1.421 . S
C219 O203 1.381 . S
C219 O204 1.421 . S
O220 Fe194 2.077 . S
O220 C223 1.381 . S
O221 Fe192 1.935 . S
O221 C223 1.421 1_565 S
C222 O210 1.381 . S
C222 O211 1.421 . S
C223 O220 1.381 . S
C223 O221 1.421 1_545 S
Fe224 O225 1.886 1_556 S
Fe224 O228 1.715 . S
Fe224 O233 2.077 . S
Fe224 O238 1.935 . S
Fe224 O244 2.077 . S
Fe224 O253 1.935 . S
O225 Fe224 1.886 1_554 S
O225 Fe227 1.715 . S
Fe226 O228 1.886 . S
Fe226 O229 1.715 . S
Fe226 O236 1.935 . S
Fe226 O237 2.077 . S
Fe226 O243 1.935 . S
Fe226 O252 2.077 . S
Fe227 O225 1.715 . S
Fe227 O230 1.886 . S
Fe227 O234 1.935 . S
Fe227 O239 2.077 . S
Fe227 O245 1.935 . S
Fe227 O249 2.077 . S
O228 Fe224 1.715 . S
O228 Fe226 1.886 . S
O229 Fe226 1.715 . S
O229 Fe231 1.886 1_556 S
O230 Fe227 1.886 . S
O230 Fe231 1.715 . S
Fe231 O229 1.886 1_554 S
Fe231 O230 1.715 . S
Fe231 O235 2.077 . S
Fe231 O240 1.935 . S
Fe231 O242 2.077 . S
Fe231 O250 1.935 . S
C232 O244 1.381 1_554 S
C232 O245 1.421 . S
O233 Fe224 2.077 . S
O233 C246 1.381 1_556 S
O234 Fe227 1.935 . S
O234 C246 1.421 . S
O235 Fe231 2.077 . S
O235 C251 1.381 1_554 S
O236 Fe226 1.935 . S
O236 C251 1.421 . S
O237 Fe226 2.077 . S
O237 C241 1.381 . S
O238 Fe224 1.935 . S
O238 C241 1.421 . S
O239 Fe227 2.077 . S
O239 C247 1.381 . S
O240 Fe231 1.935 . S
O240 C247 1.421 . S
C241 O237 1.381 . S
C241 O238 1.421 . S
O242 Fe231 2.077 . S
O242 C254 1.381 1_554 S
O243 Fe226 1.935 . S
O243 C254 1.421 . S
O244 Fe224 2.077 . S
O244 C232 1.381 1_556 S
O245 Fe227 1.935 . S
O245 C232 1.421 . S
C246 O233 1.381 1_554 S
C246 O234 1.421 . S
C247 O239 1.381 . S
C247 O240 1.421 . S
C248 O249 1.381 . S
C248 O250 1.421 . S
O249 Fe227 2.077 . S
O249 C248 1.381 . S
O250 Fe231 1.935 . S
O250 C248 1.421 . S
C251 O235 1.381 1_556 S
C251 O236 1.421 . S
O252 Fe226 2.077 . S
O252 C255 1.381 . S
O253 Fe224 1.935 . S
O253 C255 1.421 . S
C254 O242 1.381 1_556 S
C254 O243 1.421 . S
C255 O252 1.381 . S
C255 O253 1.421 . S
H256 C262 0.930 . S
H257 C266 0.930 . S
H258 C271 0.929 . S
H259 C269 0.929 . S
H260 C264 0.929 . S
H261 C270 0.929 . S
C262 H256 0.930 . S
C262 C263 1.367 . S
C262 C270 1.378 . S
C263 C262 1.367 . S
C263 C271 1.433 1_565 S
C264 H260 0.929 . S
C264 C266 1.378 . S
C264 C268 1.350 . S
C265 C268 1.463 . S
C265 C270 1.350 1_545 S
C265 N273 1.427 . S
C266 H257 0.930 . S
C266 C264 1.378 . S
C266 C267 1.367 . S
C267 C266 1.367 . S
C267 C269 1.433 . S
C268 C264 1.350 . S
C268 C265 1.463 . S
C268 N272 1.427 . S
C269 H259 0.929 . S
C269 C267 1.433 . S
C269 N272 1.384 . S
C270 H261 0.929 . S
C270 C262 1.378 . S
C270 C265 1.350 1_565 S
C271 H258 0.929 . S
C271 C263 1.433 1_545 S
C271 N273 1.384 . S
N272 C268 1.427 . S
N272 C269 1.384 . S
N273 C265 1.427 . S
N273 C271 1.384 . S
H274 C280 0.930 . S
H275 C284 0.930 . S
H276 C289 0.929 . S
H277 C287 0.929 . S
H278 C282 0.929 1_545 S
H279 C288 0.929 . S
C280 H274 0.930 . S
C280 C281 1.367 1_565 S
C280 C288 1.378 . S
C281 C280 1.367 1_545 S
C281 C289 1.433 . S
C282 H278 0.929 1_565 S
C282 C284 1.378 . S
C282 C286 1.350 . S
C283 C286 1.463 . S
C283 C288 1.350 . S
C283 N291 1.427 1_565 S
C284 H275 0.930 . S
C284 C282 1.378 . S
C284 C285 1.367 . S
C285 C284 1.367 . S
C285 C287 1.433 . S
C286 C282 1.350 . S
C286 C283 1.463 . S
C286 N290 1.427 . S
C287 H277 0.929 . S
C287 C285 1.433 . S
C287 N290 1.384 . S
C288 H279 0.929 . S
C288 C280 1.378 . S
C288 C283 1.350 . S
C289 H276 0.929 . S
C289 C281 1.433 . S
C289 N291 1.384 . S
N290 C286 1.427 . S
N290 C287 1.384 . S
N291 C283 1.427 1_545 S
N291 C289 1.384 . S
H292 C298 0.930 . S
H293 C302 0.930 . S
H294 C307 0.929 . S
H295 C305 0.929 . S
H296 C300 0.929 . S
H297 C306 0.929 . S
C298 H292 0.930 . S
C298 C299 1.367 . S
C298 C306 1.378 . S
C299 C298 1.367 . S
C299 C307 1.433 . S
C300 H296 0.929 . S
C300 C302 1.378 . S
C300 C304 1.350 . S
C301 C304 1.463 . S
C301 C306 1.350 . S
C301 N309 1.427 . S
C302 H293 0.930 . S
C302 C300 1.378 . S
C302 C303 1.367 . S
C303 C302 1.367 . S
C303 C305 1.433 . S
C304 C300 1.350 . S
C304 C301 1.463 . S
C304 N308 1.427 . S
C305 H295 0.929 . S
C305 C303 1.433 . S
C305 N308 1.384 . S
C306 H297 0.929 . S
C306 C298 1.378 . S
C306 C301 1.350 . S
C307 H294 0.929 . S
C307 C299 1.433 . S
C307 N309 1.384 . S
N308 C304 1.427 . S
N308 C305 1.384 . S
N309 C301 1.427 . S
N309 C307 1.384 . S
H310 C316 0.930 . S
H311 C320 0.930 . S
H312 C325 0.929 . S
H313 C323 0.929 . S
H314 C318 0.929 . S
H315 C324 0.929 . S
C316 H310 0.930 . S
C316 C317 1.367 . S
C316 C324 1.378 . S
C317 C316 1.367 . S
C317 C325 1.433 . S
C318 H314 0.929 . S
C318 C320 1.378 . S
C318 C322 1.350 . S
C319 C322 1.463 . S
C319 C324 1.350 . S
C319 N327 1.427 . S
C320 H311 0.930 . S
C320 C318 1.378 . S
C320 C321 1.367 . S
C321 C320 1.367 . S
C321 C323 1.433 . S
C322 C318 1.350 . S
C322 C319 1.463 . S
C322 N326 1.427 . S
C323 H313 0.929 . S
C323 C321 1.433 . S
C323 N326 1.384 . S
C324 H315 0.929 . S
C324 C316 1.378 . S
C324 C319 1.350 . S
C325 H312 0.929 . S
C325 C317 1.433 . S
C325 N327 1.384 . S
N326 C322 1.427 . S
N326 C323 1.384 . S
N327 C319 1.427 . S
N327 C325 1.384 . S
H328 C334 0.930 . S
H329 C338 0.930 . S
H330 C343 0.929 . S
H331 C341 0.929 . S
H332 C336 0.929 . S
H333 C342 0.929 . S
C334 H328 0.930 . S
C334 C335 1.367 . S
C334 C342 1.378 . S
C335 C334 1.367 . S
C335 C343 1.433 . S
C336 H332 0.929 . S
C336 C338 1.378 . S
C336 C340 1.350 . S
C337 C340 1.463 . S
C337 C342 1.350 . S
C337 N345 1.427 . S
C338 H329 0.930 . S
C338 C336 1.378 . S
C338 C339 1.367 . S
C339 C338 1.367 . S
C339 C341 1.433 . S
C340 C336 1.350 . S
C340 C337 1.463 . S
C340 N344 1.427 . S
C341 H331 0.929 . S
C341 C339 1.433 . S
C341 N344 1.384 . S
C342 H333 0.929 . S
C342 C334 1.378 . S
C342 C337 1.350 . S
C343 H330 0.929 . S
C343 C335 1.433 . S
C343 N345 1.384 . S
N344 C340 1.427 . S
N344 C341 1.384 . S
N345 C337 1.427 . S
N345 C343 1.384 . S
H346 C352 0.930 . S
H347 C356 0.930 . S
H348 C361 0.929 . S
H349 C359 0.929 . S
H350 C354 0.929 . S
H351 C360 0.929 . S
C352 H346 0.930 . S
C352 C353 1.367 . S
C352 C360 1.378 . S
C353 C352 1.367 . S
C353 C361 1.433 . S
C354 H350 0.929 . S
C354 C356 1.378 . S
C354 C358 1.350 . S
C355 C358 1.463 . S
C355 C360 1.350 . S
C355 N363 1.427 . S
C356 H347 0.930 . S
C356 C354 1.378 . S
C356 C357 1.367 . S
C357 C356 1.367 . S
C357 C359 1.433 . S
C358 C354 1.350 . S
C358 C355 1.463 . S
C358 N362 1.427 . S
C359 H349 0.929 . S
C359 C357 1.433 . S
C359 N362 1.384 . S
C360 H351 0.929 . S
C360 C352 1.378 . S
C360 C355 1.350 . S
C361 H348 0.929 . S
C361 C353 1.433 . S
C361 N363 1.384 . S
N362 C358 1.427 . S
N362 C359 1.384 . S
N363 C355 1.427 . S
N363 C361 1.384 . S
H364 C370 0.930 . S
H365 C374 0.930 . S
H366 C379 0.929 . S
H367 C377 0.929 . S
H368 C372 0.929 . S
H369 C378 0.929 . S
C370 H364 0.930 . S
C370 C371 1.367 . S
C370 C378 1.378 . S
C371 C370 1.367 . S
C371 C379 1.433 . S
C372 H368 0.929 . S
C372 C374 1.378 . S
C372 C376 1.350 . S
C373 C376 1.463 . S
C373 C378 1.350 . S
C373 N381 1.427 . S
C374 H365 0.930 . S
C374 C372 1.378 . S
C374 C375 1.367 . S
C375 C374 1.367 . S
C375 C377 1.433 . S
C376 C372 1.350 . S
C376 C373 1.463 . S
C376 N380 1.427 . S
C377 H367 0.929 . S
C377 C375 1.433 . S
C377 N380 1.384 . S
C378 H369 0.929 . S
C378 C370 1.378 . S
C378 C373 1.350 . S
C379 H366 0.929 . S
C379 C371 1.433 . S
C379 N381 1.384 . S
N380 C376 1.427 . S
N380 C377 1.384 . S
N381 C373 1.427 . S
N381 C379 1.384 . S
H382 C388 0.930 . S
H383 C392 0.930 1_565 S
H384 C397 0.929 . S
H385 C395 0.929 . S
H386 C390 0.929 . S
H387 C396 0.929 . S
C388 H382 0.930 . S
C388 C389 1.367 . S
C388 C396 1.378 . S
C389 C388 1.367 . S
C389 C397 1.433 . S
C390 H386 0.929 . S
C390 C392 1.378 . S
C390 C394 1.350 . S
C391 C394 1.463 . S
C391 C396 1.350 . S
C391 N399 1.427 . S
C392 H383 0.930 1_545 S
C392 C390 1.378 . S
C392 C393 1.367 . S
C393 C392 1.367 . S
C393 C395 1.433 . S
C394 C390 1.350 . S
C394 C391 1.463 . S
C394 N398 1.427 . S
C395 H385 0.929 . S
C395 C393 1.433 . S
C395 N398 1.384 . S
C396 H387 0.929 . S
C396 C388 1.378 . S
C396 C391 1.350 . S
C397 H384 0.929 . S
C397 C389 1.433 . S
C397 N399 1.384 . S
N398 C394 1.427 . S
N398 C395 1.384 . S
N399 C391 1.427 . S
N399 C397 1.384 . S
H400 C406 0.930 . S
H401 C410 0.930 . S
H402 C415 0.929 . S
H403 C413 0.929 . S
H404 C408 0.929 . S
H405 C414 0.929 1_565 S
C406 H400 0.930 . S
C406 C407 1.367 . S
C406 C414 1.378 . S
C407 C406 1.367 . S
C407 C415 1.433 . S
C408 H404 0.929 . S
C408 C410 1.378 . S
C408 C412 1.350 . S
C409 C412 1.463 . S
C409 C414 1.350 . S
C409 N417 1.427 . S
C410 H401 0.930 . S
C410 C408 1.378 . S
C410 C411 1.367 1_545 S
C411 C410 1.367 1_565 S
C411 C413 1.433 . S
C412 C408 1.350 . S
C412 C409 1.463 . S
C412 N416 1.427 1_545 S
C413 H403 0.929 . S
C413 C411 1.433 . S
C413 N416 1.384 . S
C414 H405 0.929 1_545 S
C414 C406 1.378 . S
C414 C409 1.350 . S
C415 H402 0.929 . S
C415 C407 1.433 . S
C415 N417 1.384 . S
N416 C412 1.427 1_565 S
N416 C413 1.384 . S
N417 C409 1.427 . S
N417 C415 1.384 . S
H418 C424 0.930 . S
H419 C428 0.930 . S
H420 C433 0.929 . S
H421 C431 0.929 . S
H422 C426 0.929 . S
H423 C432 0.929 . S
C424 H418 0.930 . S
C424 C425 1.367 . S
C424 C432 1.378 . S
C425 C424 1.367 . S
C425 C433 1.433 1_545 S
C426 H422 0.929 . S
C426 C428 1.378 . S
C426 C430 1.350 . S
C427 C430 1.463 . S
C427 C432 1.350 1_565 S
C427 N435 1.427 . S
C428 H419 0.930 . S
C428 C426 1.378 . S
C428 C429 1.367 . S
C429 C428 1.367 . S
C429 C431 1.433 . S
C430 C426 1.350 . S
C430 C427 1.463 . S
C430 N434 1.427 . S
C431 H421 0.929 . S
C431 C429 1.433 . S
C431 N434 1.384 . S
C432 H423 0.929 . S
C432 C424 1.378 . S
C432 C427 1.350 1_545 S
C433 H420 0.929 . S
C433 C425 1.433 1_565 S
C433 N435 1.384 . S
N434 C430 1.427 . S
N434 C431 1.384 . S
N435 C427 1.427 . S
N435 C433 1.384 . S
H436 C442 0.930 . S
H437 C446 0.930 . S
H438 C451 0.929 . S
H439 C449 0.929 . S
H440 C444 0.929 . S
H441 C450 0.929 . S
C442 H436 0.930 . S
C442 C443 1.367 . S
C442 C450 1.378 . S
C443 C442 1.367 . S
C443 C451 1.433 . S
C444 H440 0.929 . S
C444 C446 1.378 . S
C444 C448 1.350 . S
C445 C448 1.463 . S
C445 C450 1.350 . S
C445 N453 1.427 . S
C446 H437 0.930 . S
C446 C444 1.378 . S
C446 C447 1.367 . S
C447 C446 1.367 . S
C447 C449 1.433 . S
C448 C444 1.350 . S
C448 C445 1.463 . S
C448 N452 1.427 . S
C449 H439 0.929 . S
C449 C447 1.433 . S
C449 N452 1.384 . S
C450 H441 0.929 . S
C450 C442 1.378 . S
C450 C445 1.350 . S
C451 H438 0.929 . S
C451 C443 1.433 . S
C451 N453 1.384 . S
N452 C448 1.427 . S
N452 C449 1.384 . S
N453 C445 1.427 . S
N453 C451 1.384 . S
H454 C460 0.930 . S
H455 C464 0.930 . S
H456 C469 0.929 . S
H457 C467 0.929 . S
H458 C462 0.929 . S
H459 C468 0.929 . S
C460 H454 0.930 . S
C460 C461 1.367 . S
C460 C468 1.378 . S
C461 C460 1.367 . S
C461 C469 1.433 . S
C462 H458 0.929 . S
C462 C464 1.378 . S
C462 C466 1.350 . S
C463 C466 1.463 . S
C463 C468 1.350 . S
C463 N471 1.427 . S
C464 H455 0.930 . S
C464 C462 1.378 . S
C464 C465 1.367 . S
C465 C464 1.367 . S
C465 C467 1.433 . S
C466 C462 1.350 . S
C466 C463 1.463 . S
C466 N470 1.427 . S
C467 H457 0.929 . S
C467 C465 1.433 . S
C467 N470 1.384 . S
C468 H459 0.929 . S
C468 C460 1.378 . S
C468 C463 1.350 . S
C469 H456 0.929 . S
C469 C461 1.433 . S
C469 N471 1.384 . S
N470 C466 1.427 . S
N470 C467 1.384 . S
N471 C463 1.427 . S
N471 C469 1.384 . S
H472 C478 0.930 . S
H473 C482 0.930 . S
H474 C487 0.929 . S
H475 C485 0.929 . S
H476 C480 0.929 . S
H477 C486 0.929 . S
C478 H472 0.930 . S
C478 C479 1.367 . S
C478 C486 1.378 . S
C479 C478 1.367 . S
C479 C487 1.433 . S
C480 H476 0.929 . S
C480 C482 1.378 . S
C480 C484 1.350 . S
C481 C484 1.463 . S
C481 C486 1.350 . S
C481 N489 1.427 . S
C482 H473 0.930 . S
C482 C480 1.378 . S
C482 C483 1.367 . S
C483 C482 1.367 . S
C483 C485 1.433 . S
C484 C480 1.350 . S
C484 C481 1.463 . S
C484 N488 1.427 . S
C485 H475 0.929 . S
C485 C483 1.433 . S
C485 N488 1.384 . S
C486 H477 0.929 . S
C486 C478 1.378 . S
C486 C481 1.350 . S
C487 H474 0.929 . S
C487 C479 1.433 . S
C487 N489 1.384 . S
N488 C484 1.427 . S
N488 C485 1.384 . S
N489 C481 1.427 . S
N489 C487 1.384 . S
H490 C496 0.930 . S
H491 C500 0.930 . S
H492 C505 0.929 . S
H493 C503 0.929 . S
H494 C498 0.929 . S
H495 C504 0.929 . S
C496 H490 0.930 . S
C496 C497 1.367 . S
C496 C504 1.378 . S
C497 C496 1.367 . S
C497 C505 1.433 . S
C498 H494 0.929 . S
C498 C500 1.378 . S
C498 C502 1.350 . S
C499 C502 1.463 . S
C499 C504 1.350 . S
C499 N507 1.427 . S
C500 H491 0.930 . S
C500 C498 1.378 . S
C500 C501 1.367 . S
C501 C500 1.367 . S
C501 C503 1.433 . S
C502 C498 1.350 . S
C502 C499 1.463 . S
C502 N506 1.427 . S
C503 H493 0.929 . S
C503 C501 1.433 . S
C503 N506 1.384 . S
C504 H495 0.929 . S
C504 C496 1.378 . S
C504 C499 1.350 . S
C505 H492 0.929 . S
C505 C497 1.433 . S
C505 N507 1.384 . S
N506 C502 1.427 . S
N506 C503 1.384 . S
N507 C499 1.427 . S
N507 C505 1.384 . S
H508 C514 0.930 . S
H509 C518 0.930 . S
H510 C523 0.929 . S
H511 C521 0.929 . S
H512 C516 0.929 . S
H513 C522 0.929 . S
C514 H508 0.930 . S
C514 C515 1.367 . S
C514 C522 1.378 . S
C515 C514 1.367 . S
C515 C523 1.433 . S
C516 H512 0.929 . S
C516 C518 1.378 . S
C516 C520 1.350 . S
C517 C520 1.463 . S
C517 C522 1.350 . S
C517 N525 1.427 . S
C518 H509 0.930 . S
C518 C516 1.378 . S
C518 C519 1.367 . S
C519 C518 1.367 . S
C519 C521 1.433 . S
C520 C516 1.350 . S
C520 C517 1.463 . S
C520 N524 1.427 . S
C521 H511 0.929 . S
C521 C519 1.433 . S
C521 N524 1.384 . S
C522 H513 0.929 . S
C522 C514 1.378 . S
C522 C517 1.350 . S
C523 H510 0.929 . S
C523 C515 1.433 . S
C523 N525 1.384 . S
N524 C520 1.427 . S
N524 C521 1.384 . S
N525 C517 1.427 . S
N525 C523 1.384 . S
H526 C532 0.930 1_565 S
H527 C536 0.930 . S
H528 C541 0.929 . S
H529 C539 0.929 . S
H530 C534 0.929 . S
H531 C540 0.929 . S
C532 H526 0.930 1_545 S
C532 C533 1.367 . S
C532 C540 1.378 . S
C533 C532 1.367 . S
C533 C541 1.433 . S
C534 H530 0.929 . S
C534 C536 1.378 . S
C534 C538 1.350 . S
C535 C538 1.463 . S
C535 C540 1.350 . S
C535 N543 1.427 . S
C536 H527 0.930 . S
C536 C534 1.378 . S
C536 C537 1.367 . S
C537 C536 1.367 . S
C537 C539 1.433 . S
C538 C534 1.350 . S
C538 C535 1.463 . S
C538 N542 1.427 . S
C539 H529 0.929 . S
C539 C537 1.433 . S
C539 N542 1.384 . S
C540 H531 0.929 . S
C540 C532 1.378 . S
C540 C535 1.350 . S
C541 H528 0.929 . S
C541 C533 1.433 . S
C541 N543 1.384 . S
N542 C538 1.427 . S
N542 C539 1.384 . S
N543 C535 1.427 . S
N543 C541 1.384 . S
H544 C550 0.930 . S
H545 C554 0.930 . S
H546 C559 0.929 . S
H547 C557 0.929 . S
H548 C552 0.929 . S
H549 C558 0.929 . S
C550 H544 0.930 . S
C550 C551 1.393 . S
C550 C558 1.378 . S
C551 C550 1.393 . S
C551 C559 1.406 1_554 S
C552 H548 0.929 . S
C552 C554 1.378 . S
C552 C556 1.372 . S
C553 C556 1.460 1_454 S
C553 C558 1.388 . S
C553 N561 1.389 1_554 S
C554 H545 0.930 . S
C554 C552 1.378 . S
C554 C555 1.378 . S
C555 C554 1.378 . S
C555 C557 1.422 1_556 S
C556 C552 1.372 . S
C556 C553 1.460 1_656 S
C556 N560 1.405 1_556 S
C557 H547 0.929 . S
C557 C555 1.422 1_554 S
C557 N560 1.384 . S
C558 H549 0.929 . S
C558 C550 1.378 . S
C558 C553 1.388 . S
C559 H546 0.929 . S
C559 C551 1.406 1_556 S
C559 N561 1.384 . S
N560 C556 1.405 1_554 S
N560 C557 1.384 . S
N561 C553 1.389 1_556 S
N561 C559 1.384 . S
H562 C568 0.930 . S
H563 C572 0.930 . S
H564 C577 0.929 . S
H565 C575 0.929 . S
H566 C570 0.929 . S
H567 C576 0.929 . S
C568 H562 0.930 . S
C568 C569 1.367 . S
C568 C576 1.378 . S
C569 C568 1.367 . S
C569 C577 1.433 . S
C570 H566 0.929 . S
C570 C572 1.378 . S
C570 C574 1.350 . S
C571 C574 1.463 . S
C571 C576 1.350 . S
C571 N579 1.427 . S
C572 H563 0.930 . S
C572 C570 1.378 . S
C572 C573 1.367 . S
C573 C572 1.367 . S
C573 C575 1.433 . S
C574 C570 1.350 . S
C574 C571 1.463 . S
C574 N578 1.427 . S
C575 H565 0.929 . S
C575 C573 1.433 . S
C575 N578 1.384 . S
C576 H567 0.929 . S
C576 C568 1.378 . S
C576 C571 1.350 . S
C577 H564 0.929 . S
C577 C569 1.433 . S
C577 N579 1.384 . S
N578 C574 1.427 . S
N578 C575 1.384 . S
N579 C571 1.427 . S
N579 C577 1.384 . S
H580 C586 0.930 . S
H581 C590 0.930 . S
H582 C595 0.929 . S
H583 C593 0.929 . S
H584 C588 0.929 . S
H585 C594 0.929 . S
C586 H580 0.930 . S
C586 C587 1.367 . S
C586 C594 1.378 . S
C587 C586 1.367 . S
C587 C595 1.433 . S
C588 H584 0.929 . S
C588 C590 1.378 . S
C588 C592 1.350 . S
C589 C592 1.463 . S
C589 C594 1.350 . S
C589 N597 1.427 . S
C590 H581 0.930 . S
C590 C588 1.378 . S
C590 C591 1.367 . S
C591 C590 1.367 . S
C591 C593 1.433 . S
C592 C588 1.350 . S
C592 C589 1.463 . S
C592 N596 1.427 . S
C593 H583 0.929 . S
C593 C591 1.433 . S
C593 N596 1.384 . S
C594 H585 0.929 . S
C594 C586 1.378 . S
C594 C589 1.350 . S
C595 H582 0.929 . S
C595 C587 1.433 . S
C595 N597 1.384 . S
N596 C592 1.427 . S
N596 C593 1.384 . S
N597 C589 1.427 . S
N597 C595 1.384 . S
H598 C604 0.930 . S
H599 C608 0.930 . S
H600 C613 0.929 . S
H601 C611 0.929 . S
H602 C606 0.933 . S
H603 C612 0.935 . S
C604 H598 0.930 . S
C604 C605 1.367 . S
C604 C612 1.374 1_655 S
C605 C604 1.367 . S
C605 C613 1.433 . S
C606 H602 0.933 . S
C606 C608 1.375 1_655 S
C606 C610 1.349 1_655 S
C607 C610 1.463 1_665 S
C607 C612 1.348 1_655 S
C607 N615 1.427 . S
C608 H599 0.930 . S
C608 C606 1.375 1_455 S
C608 C609 1.367 . S
C609 C608 1.367 . S
C609 C611 1.433 . S
C610 C606 1.349 1_455 S
C610 C607 1.463 1_445 S
C610 N614 1.427 . S
C611 H601 0.929 . S
C611 C609 1.433 . S
C611 N614 1.384 . S
C612 H603 0.935 . S
C612 C604 1.374 1_455 S
C612 C607 1.348 1_455 S
C613 H600 0.929 . S
C613 C605 1.433 . S
C613 N615 1.384 . S
N614 C610 1.427 . S
N614 C611 1.384 . S
N615 C607 1.427 . S
N615 C613 1.384 . S
H616 C622 0.930 . S
H617 C626 0.930 . S
H618 C631 0.929 . S
H619 C629 0.929 . S
H620 C624 0.929 . S
H621 C630 0.929 . S
C622 H616 0.930 . S
C622 C623 1.367 . S
C622 C630 1.378 . S
C623 C622 1.367 . S
C623 C631 1.433 . S
C624 H620 0.929 . S
C624 C626 1.378 . S
C624 C628 1.350 . S
C625 C628 1.463 . S
C625 C630 1.350 . S
C625 N633 1.427 . S
C626 H617 0.930 . S
C626 C624 1.378 . S
C626 C627 1.367 . S
C627 C626 1.367 . S
C627 C629 1.433 . S
C628 C624 1.350 . S
C628 C625 1.463 . S
C628 N632 1.427 . S
C629 H619 0.929 . S
C629 C627 1.433 . S
C629 N632 1.384 . S
C630 H621 0.929 . S
C630 C622 1.378 . S
C630 C625 1.350 . S
C631 H618 0.929 . S
C631 C623 1.433 . S
C631 N633 1.384 . S
N632 C628 1.427 . S
N632 C629 1.384 . S
N633 C625 1.427 . S
N633 C631 1.384 . S
H634 C640 0.930 . S
H635 C644 0.930 . S
H636 C649 0.929 . S
H637 C647 0.929 . S
H638 C642 0.929 . S
H639 C648 0.929 . S
C640 H634 0.930 . S
C640 C641 1.367 . S
C640 C648 1.378 . S
C641 C640 1.367 . S
C641 C649 1.433 . S
C642 H638 0.929 . S
C642 C644 1.378 . S
C642 C646 1.350 . S
C643 C646 1.463 . S
C643 C648 1.350 . S
C643 N651 1.427 . S
C644 H635 0.930 . S
C644 C642 1.378 . S
C644 C645 1.367 . S
C645 C644 1.367 . S
C645 C647 1.433 . S
C646 C642 1.350 . S
C646 C643 1.463 . S
C646 N650 1.427 . S
C647 H637 0.929 . S
C647 C645 1.433 . S
C647 N650 1.384 . S
C648 H639 0.929 . S
C648 C640 1.378 . S
C648 C643 1.350 . S
C649 H636 0.929 . S
C649 C641 1.433 . S
C649 N651 1.384 . S
N650 C646 1.427 . S
N650 C647 1.384 . S
N651 C643 1.427 . S
N651 C649 1.384 . S
H652 C658 0.930 . S
H653 C662 0.930 . S
H654 C667 0.929 . S
H655 C665 0.929 . S
H656 C660 0.929 . S
H657 C666 0.929 . S
C658 H652 0.930 . S
C658 C659 1.367 . S
C658 C666 1.378 . S
C659 C658 1.367 . S
C659 C667 1.433 . S
C660 H656 0.929 . S
C660 C662 1.378 . S
C660 C664 1.350 . S
C661 C664 1.463 . S
C661 C666 1.350 . S
C661 N669 1.427 . S
C662 H653 0.930 . S
C662 C660 1.378 . S
C662 C663 1.367 . S
C663 C662 1.367 . S
C663 C665 1.433 . S
C664 C660 1.350 . S
C664 C661 1.463 . S
C664 N668 1.427 . S
C665 H655 0.929 . S
C665 C663 1.433 . S
C665 N668 1.384 . S
C666 H657 0.929 . S
C666 C658 1.378 . S
C666 C661 1.350 . S
C667 H654 0.929 . S
C667 C659 1.433 . S
C667 N669 1.384 . S
N668 C664 1.427 . S
N668 C665 1.384 . S
N669 C661 1.427 . S
N669 C667 1.384 . S
H670 C676 0.930 . S
H671 C680 0.930 . S
H672 C685 0.929 . S
H673 C683 0.929 . S
H674 C678 0.929 . S
H675 C684 0.929 . S
C676 H670 0.930 . S
C676 C677 1.378 . S
C676 C684 1.378 . S
C677 C676 1.378 . S
C677 C685 1.422 1_556 S
C678 H674 0.929 . S
C678 C680 1.378 . S
C678 C682 1.388 . S
C679 C682 1.460 1_566 S
C679 C684 1.373 . S
C679 N687 1.404 1_556 S
C680 H671 0.930 . S
C680 C678 1.378 . S
C680 C681 1.394 . S
C681 C680 1.394 . S
C681 C683 1.406 1_554 S
C682 C678 1.388 . S
C682 C679 1.460 1_544 S
C682 N686 1.389 1_554 S
C683 H673 0.929 . S
C683 C681 1.406 1_556 S
C683 N686 1.384 . S
C684 H675 0.929 . S
C684 C676 1.378 . S
C684 C679 1.373 . S
C685 H672 0.929 . S
C685 C677 1.422 1_554 S
C685 N687 1.384 . S
N686 C682 1.389 1_556 S
N686 C683 1.384 . S
N687 C679 1.404 1_554 S
N687 C685 1.384 . S
H688 C694 0.930 . S
H689 C698 0.930 . S
H690 C703 0.929 . S
H691 C701 0.929 . S
H692 C696 0.929 . S
H693 C702 0.929 . S
C694 H688 0.930 . S
C694 C695 1.367 1_556 S
C694 C702 1.378 . S
C695 C694 1.367 1_554 S
C695 C703 1.433 . S
C696 H692 0.929 . S
C696 C698 1.378 . S
C696 C700 1.351 . S
C697 C700 1.462 . S
C697 C702 1.350 1_554 S
C697 N705 1.427 . S
C698 H689 0.930 . S
C698 C696 1.378 . S
C698 C699 1.368 . S
C699 C698 1.368 . S
C699 C701 1.432 1_554 S
C700 C696 1.351 . S
C700 C697 1.462 . S
C700 N704 1.426 1_554 S
C701 H691 0.929 . S
C701 C699 1.432 1_556 S
C701 N704 1.384 . S
C702 H693 0.929 . S
C702 C694 1.378 . S
C702 C697 1.350 1_556 S
C703 H690 0.929 . S
C703 C695 1.433 . S
C703 N705 1.384 . S
N704 C700 1.426 1_556 S
N704 C701 1.384 . S
N705 C697 1.427 . S
N705 C703 1.384 . S
H706 C712 0.930 . S
H707 C716 0.930 . S
H708 C721 0.929 . S
H709 C719 0.929 . S
H710 C714 0.929 . S
H711 C720 0.929 . S
C712 H706 0.930 . S
C712 C713 1.367 1_556 S
C712 C720 1.378 . S
C713 C712 1.367 1_554 S
C713 C721 1.433 . S
C714 H710 0.929 . S
C714 C716 1.378 . S
C714 C718 1.350 . S
C715 C718 1.462 . S
C715 C720 1.350 1_554 S
C715 N723 1.427 . S
C716 H707 0.930 . S
C716 C714 1.378 . S
C716 C717 1.367 . S
C717 C716 1.367 . S
C717 C719 1.433 1_554 S
C718 C714 1.350 . S
C718 C715 1.462 . S
C718 N722 1.427 1_554 S
C719 H709 0.929 . S
C719 C717 1.433 1_556 S
C719 N722 1.384 . S
C720 H711 0.929 . S
C720 C712 1.378 . S
C720 C715 1.350 1_556 S
C721 H708 0.929 . S
C721 C713 1.433 . S
C721 N723 1.384 . S
N722 C718 1.427 1_556 S
N722 C719 1.384 . S
N723 C715 1.427 . S
N723 C721 1.384 . S
H724 C730 0.930 . S
H725 C734 0.930 . S
H726 C739 0.929 . S
H727 C737 0.929 . S
H728 C732 0.929 . S
H729 C738 0.929 . S
C730 H724 0.930 . S
C730 C731 1.367 . S
C730 C738 1.378 . S
C731 C730 1.367 . S
C731 C739 1.433 . S
C732 H728 0.929 . S
C732 C734 1.378 . S
C732 C736 1.350 . S
C733 C736 1.463 1_455 S
C733 C738 1.350 . S
C733 N741 1.427 . S
C734 H725 0.930 . S
C734 C732 1.378 . S
C734 C735 1.367 . S
C735 C734 1.367 . S
C735 C737 1.433 . S
C736 C732 1.350 . S
C736 C733 1.463 1_655 S
C736 N740 1.427 . S
C737 H727 0.929 . S
C737 C735 1.433 . S
C737 N740 1.384 . S
C738 H729 0.929 . S
C738 C730 1.378 . S
C738 C733 1.350 . S
C739 H726 0.929 . S
C739 C731 1.433 . S
C739 N741 1.384 . S
N740 C736 1.427 . S
N740 C737 1.384 . S
N741 C733 1.427 . S
N741 C739 1.384 . S
H742 C748 0.930 . S
H743 C752 0.930 . S
H744 C757 0.929 . S
H745 C755 0.929 . S
H746 C750 0.929 . S
H747 C756 0.929 . S
C748 H742 0.930 . S
C748 C749 1.367 . S
C748 C756 1.378 . S
C749 C748 1.367 . S
C749 C757 1.433 . S
C750 H746 0.929 . S
C750 C752 1.378 . S
C750 C754 1.350 . S
C751 C754 1.463 . S
C751 C756 1.350 . S
C751 N759 1.427 . S
C752 H743 0.930 . S
C752 C750 1.378 . S
C752 C753 1.367 . S
C753 C752 1.367 . S
C753 C755 1.433 . S
C754 C750 1.350 . S
C754 C751 1.463 . S
C754 N758 1.427 . S
C755 H745 0.929 . S
C755 C753 1.433 . S
C755 N758 1.384 . S
C756 H747 0.929 . S
C756 C748 1.378 . S
C756 C751 1.350 . S
C757 H744 0.929 . S
C757 C749 1.433 . S
C757 N759 1.384 . S
N758 C754 1.427 . S
N758 C755 1.384 . S
N759 C751 1.427 . S
N759 C757 1.384 . S
H760 C766 0.930 . S
H761 C770 0.930 . S
H762 C775 0.929 . S
H763 C773 0.929 . S
H764 C768 0.929 . S
H765 C774 0.929 . S
C766 H760 0.930 . S
C766 C767 1.367 . S
C766 C774 1.378 . S
C767 C766 1.367 . S
C767 C775 1.433 . S
C768 H764 0.929 . S
C768 C770 1.378 . S
C768 C772 1.350 . S
C769 C772 1.463 . S
C769 C774 1.350 . S
C769 N777 1.427 . S
C770 H761 0.930 . S
C770 C768 1.378 . S
C770 C771 1.367 . S
C771 C770 1.367 . S
C771 C773 1.433 . S
C772 C768 1.350 . S
C772 C769 1.463 . S
C772 N776 1.427 . S
C773 H763 0.929 . S
C773 C771 1.433 . S
C773 N776 1.384 . S
C774 H765 0.929 . S
C774 C766 1.378 . S
C774 C769 1.350 . S
C775 H762 0.929 . S
C775 C767 1.433 . S
C775 N777 1.384 . S
N776 C772 1.427 . S
N776 C773 1.384 . S
N777 C769 1.427 . S
N777 C775 1.384 . S
H778 C784 0.930 . S
H779 C788 0.930 . S
H780 C793 0.929 . S
H781 C791 0.929 . S
H782 C786 0.929 . S
H783 C792 0.929 . S
C784 H778 0.930 . S
C784 C785 1.367 1_565 S
C784 C792 1.378 . S
C785 C784 1.367 1_545 S
C785 C793 1.433 . S
C786 H782 0.929 . S
C786 C788 1.378 . S
C786 C790 1.350 1_545 S
C787 C790 1.463 1_645 S
C787 C792 1.350 1_545 S
C787 N795 1.427 . S
C788 H779 0.930 . S
C788 C786 1.378 . S
C788 C789 1.367 1_545 S
C789 C788 1.367 1_565 S
C789 C791 1.433 . S
C790 C786 1.350 1_565 S
C790 C787 1.463 1_465 S
C790 N794 1.427 . S
C791 H781 0.929 . S
C791 C789 1.433 . S
C791 N794 1.384 . S
C792 H783 0.929 . S
C792 C784 1.378 . S
C792 C787 1.350 1_565 S
C793 H780 0.929 . S
C793 C785 1.433 . S
C793 N795 1.384 . S
N794 C790 1.427 . S
N794 C791 1.384 . S
N795 C787 1.427 . S
N795 C793 1.384 . S
H796 C802 0.930 . S
H797 C806 0.930 . S
H798 C811 0.929 . S
H799 C809 0.929 . S
H800 C804 0.929 . S
H801 C810 0.929 . S
C802 H796 0.930 . S
C802 C803 1.367 . S
C802 C810 1.378 . S
C803 C802 1.367 . S
C803 C811 1.433 . S
C804 H800 0.929 . S
C804 C806 1.378 . S
C804 C808 1.350 . S
C805 C808 1.463 . S
C805 C810 1.350 . S
C805 N813 1.427 . S
C806 H797 0.930 . S
C806 C804 1.378 . S
C806 C807 1.367 . S
C807 C806 1.367 . S
C807 C809 1.433 . S
C808 C804 1.350 . S
C808 C805 1.463 . S
C808 N812 1.427 . S
C809 H799 0.929 . S
C809 C807 1.433 . S
C809 N812 1.384 . S
C810 H801 0.929 . S
C810 C802 1.378 . S
C810 C805 1.350 . S
C811 H798 0.929 . S
C811 C803 1.433 . S
C811 N813 1.384 . S
N812 C808 1.427 . S
N812 C809 1.384 . S
N813 C805 1.427 . S
N813 C811 1.384 . S
H814 C820 0.930 . S
H815 C824 0.930 . S
H816 C829 0.929 . S
H817 C827 0.929 . S
H818 C822 0.929 . S
H819 C828 0.929 . S
C820 H814 0.930 . S
C820 C821 1.367 . S
C820 C828 1.378 . S
C821 C820 1.367 . S
C821 C829 1.433 . S
C822 H818 0.929 . S
C822 C824 1.378 . S
C822 C826 1.350 . S
C823 C826 1.463 1_565 S
C823 C828 1.350 . S
C823 N831 1.427 . S
C824 H815 0.930 . S
C824 C822 1.378 . S
C824 C825 1.367 . S
C825 C824 1.367 . S
C825 C827 1.433 . S
C826 C822 1.350 . S
C826 C823 1.463 1_545 S
C826 N830 1.427 . S
C827 H817 0.929 . S
C827 C825 1.433 . S
C827 N830 1.384 . S
C828 H819 0.929 . S
C828 C820 1.378 . S
C828 C823 1.350 . S
C829 H816 0.929 . S
C829 C821 1.433 . S
C829 N831 1.384 . S
N830 C826 1.427 . S
N830 C827 1.384 . S
N831 C823 1.427 . S
N831 C829 1.384 . S
C263 C23 1.390 . S
C267 C40 1.547 . S
C281 C24 1.419 . S
C285 C86 1.570 . S
C299 C113 1.539 . S
C303 C62 1.376 . S
C317 C91 1.422 . S
C321 C127 1.560 . S
C335 C119 1.363 . S
C339 C136 1.539 . S
C353 C182 1.571 . S
C357 C120 1.440 . S
C371 C158 1.372 . S
C375 C17 1.547 . S
C389 C187 1.431 . S
C393 C31 1.562 . S
C407 C168 1.540 . S
C411 C215 1.362 . S
C425 C216 1.438 . S
C429 C150 1.568 . S
C443 C241 1.547 . S
C447 C190 1.389 . S
C461 C255 1.560 . S
C465 C155 1.428 . S
C479 C247 1.384 . S
C483 C72 1.543 . S
C497 C54 1.569 . S
C501 C248 1.421 . S
C515 C209 1.551 . S
C519 C94 1.390 . S
C533 C223 1.564 . S
C537 C59 1.435 . S
C551 C22 0.729 . S
C555 C30 0.728 . S
C569 C49 0.743 . S
C573 C56 0.743 1_565 S
C587 C81 0.704 1_545 S
C591 C88 0.704 . S
C605 C126 0.723 . S
C609 C118 0.723 . S
C623 C145 0.742 1_545 S
C627 C152 0.742 . S
C641 C177 0.705 . S
C645 C184 0.705 1_565 S
C659 C214 0.714 . S
C663 C222 0.714 . S
C677 C254 0.722 . S
C681 C246 0.724 . S
C695 C232 1.460 . S
C699 C27 1.457 1_554 S
C713 C8 1.471 . S
C717 C251 1.474 1_554 S
C731 C63 1.470 . S
C735 C87 1.470 . S
C749 C200 1.466 . S
C753 C123 1.463 . S
C767 C104 1.468 . S
C771 C219 1.470 . S
C785 C183 1.460 . S
C789 C159 1.460 . S
C803 C191 1.463 . S
C807 C151 1.463 . S
C821 C95 1.466 . S
C825 C55 1.466 . S
