# Generated by pormake.
# Topology sol, (6)-cn, num edge types: 1
# Building blocks:
#     Node 0, Type 0, BuildingBlock: IZENUY_clean_sbu_0, # of connection points: 6
#     Node 1, Type 0, BuildingBlock: IZENUY_clean_sbu_0, # of connection points: 6
#     Node 2, Type 0, BuildingBlock: IZENUY_clean_sbu_0, # of connection points: 6
#     Node 3, Type 0, BuildingBlock: IZENUY_clean_sbu_0, # of connection points: 6
#     Node 4, Type 0, BuildingBlock: IZENUY_clean_sbu_0, # of connection points: 6
#     Node 5, Type 0, BuildingBlock: IZENUY_clean_sbu_0, # of connection points: 6
#     Node 6, Type 0, BuildingBlock: IZENUY_clean_sbu_0, # of connection points: 6
#     Node 7, Type 0, BuildingBlock: IZENUY_clean_sbu_0, # of connection points: 6
#     Edge 8, Type (0, 0), BuildingBlock: CIFDUS_clean_linker_0, # of connection points: 2
#     Edge 9, Type (0, 0), BuildingBlock: CIFDUS_clean_linker_0, # of connection points: 2
#     Edge 10, Type (0, 0), BuildingBlock: CIFDUS_clean_linker_0, # of connection points: 2
#     Edge 11, Type (0, 0), BuildingBlock: CIFDUS_clean_linker_0, # of connection points: 2
#     Edge 12, Type (0, 0), BuildingBlock: CIFDUS_clean_linker_0, # of connection points: 2
#     Edge 13, Type (0, 0), BuildingBlock: CIFDUS_clean_linker_0, # of connection points: 2
#     Edge 14, Type (0, 0), BuildingBlock: CIFDUS_clean_linker_0, # of connection points: 2
#     Edge 15, Type (0, 0), BuildingBlock: CIFDUS_clean_linker_0, # of connection points: 2
#     Edge 16, Type (0, 0), BuildingBlock: CIFDUS_clean_linker_0, # of connection points: 2
#     Edge 17, Type (0, 0), BuildingBlock: CIFDUS_clean_linker_0, # of connection points: 2
#     Edge 18, Type (0, 0), BuildingBlock: CIFDUS_clean_linker_0, # of connection points: 2
#     Edge 19, Type (0, 0), BuildingBlock: CIFDUS_clean_linker_0, # of connection points: 2
#     Edge 20, Type (0, 0), BuildingBlock: CIFDUS_clean_linker_0, # of connection points: 2
#     Edge 21, Type (0, 0), BuildingBlock: CIFDUS_clean_linker_0, # of connection points: 2
#     Edge 22, Type (0, 0), BuildingBlock: CIFDUS_clean_linker_0, # of connection points: 2
#     Edge 23, Type (0, 0), BuildingBlock: CIFDUS_clean_linker_0, # of connection points: 2
#     Edge 24, Type (0, 0), BuildingBlock: CIFDUS_clean_linker_0, # of connection points: 2
#     Edge 25, Type (0, 0), BuildingBlock: CIFDUS_clean_linker_0, # of connection points: 2
#     Edge 26, Type (0, 0), BuildingBlock: CIFDUS_clean_linker_0, # of connection points: 2
#     Edge 27, Type (0, 0), BuildingBlock: CIFDUS_clean_linker_0, # of connection points: 2
#     Edge 28, Type (0, 0), BuildingBlock: CIFDUS_clean_linker_0, # of connection points: 2
#     Edge 29, Type (0, 0), BuildingBlock: CIFDUS_clean_linker_0, # of connection points: 2
#     Edge 30, Type (0, 0), BuildingBlock: CIFDUS_clean_linker_0, # of connection points: 2
#     Edge 31, Type (0, 0), BuildingBlock: CIFDUS_clean_linker_0, # of connection points: 2
# Relax obj value: 0.162
# Max RMSD: 0.160
# Mean RMSD: 0.159
data_MOF--net-sol--node1-IZENUY_clean_sbu_0--edge1-CIFDUS_clean_linker_0
_symmetry_space_group_name_H-M    P1
_symmetry_Int_Tables_number       1
_symmetry_cell_setting            triclinic
loop_
_symmetry_equiv_pos_as_xyz
'x, y, z'
_cell_length_a     31.041935
_cell_length_b     24.405088
_cell_length_c     24.584073
_cell_angle_alpha  90.820474
_cell_angle_beta   89.773916
_cell_angle_gamma 90.179453
loop_
_atom_site_label
_atom_site_type_symbol
_atom_site_fract_x
_atom_site_fract_y
_atom_site_fract_z
_atom_type_partial_charge
Fe0 Fe 0.16433 0.12468 0.15375 0.0
Fe1 Fe 0.24349 0.1801 0.10555 0.0
O2 O 0.18706 0.17014 0.10626 0.0
Fe3 Fe 0.15355 0.20771 0.06182 0.0
O4 O 0.12517 0.23929 0.11894 0.0
O5 O 0.11453 0.16325 0.16349 0.0
O6 O 0.18624 0.16422 0.21045 0.0
C7 C 0.22558 0.17552 0.21687 0.0
C8 C 0.11376 0.10109 0.06602 0.0
O9 O 0.25187 0.16792 0.17823 0.0
C10 C 0.22108 0.18567 0.99377 0.0
O11 O 0.21046 0.07804 0.15251 0.0
O12 O 0.2529 0.10909 0.08794 0.0
O13 O 0.11309 0.15185 0.05439 0.0
O14 O 0.14037 0.08313 0.10019 0.0
C15 C 0.21406 0.2848 0.09924 0.0
O16 O 0.24613 0.19522 0.03324 0.0
O17 O 0.18091 0.18053 1.00139 0.0
C18 C 0.2408 0.07096 0.11849 0.0
O19 O 0.23681 0.25084 0.12403 0.0
O20 O 0.18778 0.26949 0.06272 0.0
C21 C 0.10813 0.21379 0.1575 0.0
Fe22 Fe 0.3561 0.35949 0.65514 0.0
Fe23 Fe 0.30165 0.27669 0.59248 0.0
O24 O 0.35236 0.3068 0.60547 0.0
Fe25 Fe 0.39868 0.28251 0.57004 0.0
O26 O 0.4245 0.26359 0.63358 0.0
O27 O 0.40899 0.33963 0.6786 0.0
O28 O 0.33415 0.31522 0.70767 0.0
C29 C 0.29773 0.29256 0.70501 0.0
C30 C 0.41349 0.39856 0.58 0.0
O31 O 0.27846 0.28896 0.66016 0.0
C32 C 0.33903 0.27967 0.48854 0.0
O33 O 0.30321 0.38824 0.63934 0.0
O34 O 0.28102 0.34074 0.56769 0.0
O35 O 0.42611 0.34992 0.56981 0.0
O36 O 0.37931 0.40715 0.60693 0.0
C37 C 0.35211 0.18627 0.59496 0.0
O38 O 0.31412 0.25813 0.52272 0.0
O39 O 0.37523 0.29875 0.50348 0.0
C40 C 0.28098 0.38391 0.59636 0.0
O41 O 0.32089 0.21176 0.61647 0.0
O42 O 0.3794 0.21095 0.56538 0.0
C43 C 0.42749 0.29379 0.67554 0.0
Fe44 Fe 0.67735 0.34877 0.90747 0.0
Fe45 Fe 0.74212 0.26774 0.95284 0.0
O46 O 0.6891 0.29408 0.95092 0.0
Fe47 Fe 0.64783 0.2636 0.99079 0.0
O48 O 0.61768 0.24432 0.93045 0.0
O49 O 0.62343 0.32413 0.89031 0.0
O50 O 0.69569 0.31067 0.84796 0.0
C51 C 0.73236 0.28964 0.84184 0.0
C52 C 0.62565 0.37786 0.99284 0.0
O53 O 0.75672 0.28405 0.88235 0.0
C54 C 0.71418 0.26229 0.06288 0.0
O55 O 0.72966 0.38212 0.91779 0.0
O56 O 0.76356 0.33176 0.97807 0.0
O57 O 0.6162 0.3277 1.00007 0.0
O58 O 0.65734 0.39069 0.96337 0.0
C59 C 0.69514 0.17408 0.95007 0.0
O60 O 0.73794 0.24611 1.0238 0.0
O61 O 0.67651 0.27982 0.05384 0.0
C62 C 0.75773 0.37657 0.95464 0.0
O63 O 0.72313 0.20298 0.92698 0.0
O64 O 0.67131 0.19421 0.98726 0.0
C65 C 0.60829 0.27611 0.89247 0.0
Fe66 Fe 0.89458 0.12779 0.3998 0.0
Fe67 Fe 0.81668 0.18502 0.45112 0.0
O68 O 0.87309 0.17542 0.44743 0.0
Fe69 Fe 0.90822 0.21462 0.48983 0.0
O70 O 0.93432 0.24462 0.43077 0.0
O71 O 0.94397 0.16643 0.38761 0.0
O72 O 0.87122 0.16384 0.34328 0.0
C73 C 0.83185 0.175 0.33799 0.0
C74 C 0.94657 0.10818 0.48649 0.0
O75 O 0.80642 0.17178 0.37825 0.0
C76 C 0.84351 0.19417 0.56209 0.0
O77 O 0.84897 0.08064 0.40341 0.0
O78 O 0.80746 0.11402 0.46839 0.0
O79 O 0.94892 0.15957 0.49559 0.0
O80 O 0.91956 0.08883 0.45309 0.0
C81 C 0.84425 0.29089 0.46034 0.0
O82 O 0.81654 0.20106 0.52421 0.0
O83 O 0.88322 0.18869 0.55156 0.0
C84 C 0.82052 0.07418 0.4397 0.0
O85 O 0.82237 0.25611 0.43399 0.0
O86 O 0.87408 0.27606 0.49179 0.0
C87 C 0.94986 0.21745 0.39156 0.0
Fe88 Fe 0.8082 0.77792 0.97246 0.0
Fe89 Fe 0.87948 0.84603 0.92015 0.0
O90 O 0.86327 0.79518 0.96666 0.0
Fe91 Fe 0.9022 0.75988 1.00566 0.0
O92 O 0.87198 0.69481 1.00822 0.0
O93 O 0.819 0.70876 0.9515 0.0
O94 O 0.79438 0.79049 0.90045 0.0
C95 C 0.81868 0.79105 0.85887 0.0
C96 C 0.83866 0.77296 0.08222 0.0
O97 O 0.85693 0.80792 0.86305 0.0
C98 C 0.93458 0.87005 1.00322 0.0
O99 O 0.79422 0.84634 0.99378 0.0
O100 O 0.83045 0.8872 0.92878 0.0
O101 O 0.87765 0.78289 0.06998 0.0
O102 O 0.81153 0.7615 0.04518 0.0
C103 C 0.94042 0.76321 0.9049 0.0
O104 O 0.90437 0.88731 0.9737 0.0
O105 O 0.93949 0.81893 1.01044 0.0
C106 C 0.80205 0.88791 0.96595 0.0
O107 O 0.93061 0.8133 0.90315 0.0
O108 O 0.92828 0.73364 0.94384 0.0
C109 C 0.84186 0.67677 0.97839 0.0
Fe110 Fe 0.73049 0.68878 0.4788 0.0
Fe111 Fe 0.65664 0.63809 0.41306 0.0
O112 O 0.6744 0.68037 0.46729 0.0
Fe113 Fe 0.63543 0.71512 0.50832 0.0
O114 O 0.65693 0.78153 0.48879 0.0
O115 O 0.72552 0.76032 0.49955 0.0
O116 O 0.74036 0.71369 0.40969 0.0
C117 C 0.72888 0.6895 0.36646 0.0
C118 C 0.70193 0.68969 0.5844 0.0
O119 O 0.70298 0.64969 0.36856 0.0
C120 C 0.59723 0.61443 0.49677 0.0
O121 O 0.74418 0.61742 0.45962 0.0
O122 O 0.68114 0.57924 0.44231 0.0
O123 O 0.66832 0.71526 0.57049 0.0
O124 O 0.7259 0.66681 0.5491 0.0
C125 C 0.60127 0.72232 0.40202 0.0
O126 O 0.60661 0.61692 0.44675 0.0
O127 O 0.61131 0.65026 0.53006 0.0
C128 C 0.72058 0.57519 0.453 0.0
O129 O 0.63161 0.6955 0.38078 0.0
O130 O 0.5956 0.72201 0.45315 0.0
C131 C 0.69624 0.79509 0.49111 0.0
Fe132 Fe 0.38019 0.6233 0.14782 0.0
Fe133 Fe 0.40868 0.69858 0.05452 0.0
O134 O 0.36786 0.67169 0.0977 0.0
Fe135 Fe 0.31414 0.69483 0.09208 0.0
O136 O 0.29886 0.68581 0.16432 0.0
O137 O 0.36065 0.66828 0.20215 0.0
O138 O 0.43361 0.65091 0.16237 0.0
C139 C 0.44957 0.69758 0.15332 0.0
C140 C 0.30103 0.58638 0.10328 0.0
O141 O 0.43941 0.72451 0.11204 0.0
C142 C 0.34293 0.69246 0.98178 0.0
O143 O 0.40147 0.5752 0.09758 0.0
O144 O 0.44054 0.63441 0.05171 0.0
O145 O 0.29545 0.62719 0.07339 0.0
O146 O 0.32836 0.58752 0.14156 0.0
C147 C 0.35842 0.7904 0.08476 0.0
O148 O 0.38033 0.67562 0.99304 0.0
O149 O 0.31812 0.70951 1.01931 0.0
C150 C 0.43217 0.5854 0.06538 0.0
O151 O 0.3843 0.76756 0.05139 0.0
O152 O 0.33097 0.76279 0.11056 0.0
C153 C 0.32289 0.68674 0.20575 0.0
Fe154 Fe 0.14307 0.76847 0.57129 0.0
Fe155 Fe 0.24086 0.78101 0.5891 0.0
O156 O 0.18716 0.80176 0.60321 0.0
Fe157 Fe 0.17791 0.85553 0.65036 0.0
O158 O 0.14833 0.81121 0.69414 0.0
O159 O 0.10668 0.77424 0.63152 0.0
O160 O 0.15868 0.70327 0.59815 0.0
C161 C 0.19475 0.68156 0.59035 0.0
C162 C 0.11404 0.87399 0.56984 0.0
O163 O 0.22698 0.70914 0.57504 0.0
C164 C 0.24759 0.89671 0.60038 0.0
O165 O 0.17263 0.75613 0.50608 0.0
O166 O 0.23523 0.79776 0.518 0.0
O167 O 0.12861 0.88105 0.61753 0.0
O168 O 0.1238 0.8317 0.54253 0.0
C169 C 0.24389 0.79438 0.6996 0.0
O170 O 0.26466 0.84962 0.60086 0.0
O171 O 0.20788 0.90236 0.60897 0.0
C172 C 0.20769 0.77557 0.48685 0.0
O173 O 0.24937 0.76193 0.65974 0.0
O174 O 0.22486 0.83971 0.69292 0.0
C175 C 0.11671 0.7817 0.68126 0.0
H176 H 1.02299 0.23661 0.16147 0.0
H177 H 0.14136 0.25349 0.25045 0.0
H178 H 0.10136 0.26675 0.33557 0.0
H179 H 0.03292 0.25168 0.3853 0.0
H180 H 0.9145 0.24064 0.29533 0.0
H181 H 0.95372 0.24864 0.20966 0.0
C182 C 0.03975 0.24577 0.19918 0.0
C183 C 0.08471 0.24286 0.20068 0.0
C184 C 1.01645 0.25363 0.24769 0.0
C185 C 0.10653 0.25454 0.24932 0.0
C186 C 0.0837 0.26202 0.29783 0.0
C187 C 1.01576 0.25369 0.34702 0.0
C188 C 0.97126 0.24432 0.34597 0.0
C189 C 0.03866 0.25837 0.29788 0.0
C190 C 0.94901 0.24668 0.2965 0.0
C191 C 0.97141 0.25114 0.24756 0.0
H192 H 0.50695 0.24635 0.67597 0.0
H193 H 0.40493 0.30619 0.78029 0.0
H194 H 0.45044 0.29639 0.85992 0.0
H195 H 0.52259 0.28538 0.89775 0.0
H196 H 0.62675 0.23232 0.794 0.0
H197 H 0.57756 0.22428 0.71643 0.0
C198 C 0.49462 0.25585 0.71635 0.0
C199 C 0.45312 0.27754 0.72254 0.0
C200 C 0.52156 0.25192 0.76193 0.0
C201 C 0.43717 0.29006 0.77481 0.0
C202 C 0.46311 0.28456 0.82032 0.0
C203 C 0.53392 0.27042 0.85845 0.0
C204 C 0.57757 0.25906 0.85092 0.0
C205 C 0.50584 0.26769 0.8141 0.0
C206 C 0.5928 0.24075 0.80008 0.0
C207 C 0.56483 0.23653 0.75586 0.0
H208 H 0.02648 0.74999 0.9062 0.0
H209 H 0.91483 0.73271 0.80453 0.0
H210 H 0.96037 0.73036 0.72291 0.0
H211 H 0.03142 0.74979 0.68075 0.0
H212 H 0.14265 0.76681 0.78466 0.0
H213 H 0.09837 0.75155 0.86455 0.0
C214 C 1.01248 0.7433 0.86626 0.0
C215 C 0.96769 0.7416 0.86084 0.0
C216 C 0.03885 0.74312 0.81971 0.0
C217 C 0.94947 0.73413 0.8091 0.0
C218 C 0.97547 0.7332 0.76253 0.0
C219 C 0.046 0.74887 0.72074 0.0
C220 C 0.08997 0.76119 0.72673 0.0
C221 C 1.02015 0.74036 0.76719 0.0
C222 C 0.10856 0.7591 0.7789 0.0
C223 C 0.08332 0.75017 0.82483 0.0
H224 H 0.60845 0.7557 0.29802 0.0
H225 H 0.51531 0.72128 0.42391 0.0
H226 H 0.45812 0.71635 0.35618 0.0
H227 H 0.43829 0.70367 0.26048 0.0
H228 H 0.52961 0.74031 0.13387 0.0
H229 H 0.58461 0.76192 0.20265 0.0
C230 C 0.57535 0.74888 0.31069 0.0
C231 C 0.56607 0.73786 0.36555 0.0
C232 C 0.54286 0.74505 0.27142 0.0
C233 C 0.52317 0.72978 0.38188 0.0
C234 C 0.49059 0.72624 0.34311 0.0
C235 C 0.46985 0.718 0.24819 0.0
C236 C 0.4804 0.71993 0.19278 0.0
C237 C 0.50059 0.73096 0.28769 0.0
C238 C 0.52119 0.73843 0.17661 0.0
C239 C 0.55247 0.75061 0.21583 0.0
H240 H 0.09727 -0.00397 0.09692 0.0
H241 H 0.05012 0.12254 0.99186 0.0
H242 H 0.98965 0.0637 0.96503 0.0
H243 H 0.94975 0.97606 0.97166 0.0
H244 H 0.99767 0.85039 0.07724 0.0
H245 H 0.05767 0.90946 0.10391 0.0
C246 C 0.07402 0.01082 0.06783 0.0
C247 C 0.07862 0.06386 0.04637 0.0
C248 C 0.03901 0.97701 0.05302 0.0
C249 C 0.04772 0.082 1.009 0.0
C250 C 1.01293 0.04838 0.99377 0.0
C251 C 0.97306 0.96174 1.00091 0.0
C252 C 0.96889 0.90863 1.02243 0.0
C253 C 1.00806 -0.00413 1.01576 0.0
C254 C 0.99984 0.89087 0.0599 0.0
C255 C 0.03436 0.92463 0.07511 0.0
H256 H 0.52171 0.6193 0.55575 0.0
H257 H 0.60809 0.50761 0.47331 0.0
H258 H 0.55907 0.43136 0.49054 0.0
H259 H 0.49089 0.39629 0.52671 0.0
H260 H 0.40206 0.50757 0.60592 0.0
H261 H 0.45208 0.58359 0.59163 0.0
C262 C 0.52993 0.57806 0.54247 0.0
C263 C 0.56876 0.56891 0.514 0.0
C264 C 0.50075 0.53431 0.55109 0.0
C265 C 0.57857 0.51554 0.49573 0.0
C266 C 0.55043 0.47194 0.50529 0.0
C267 C 0.48223 0.43715 0.54067 0.0
C268 C 0.4425 0.44577 0.56733 0.0
C269 C 0.51119 0.48085 0.53236 0.0
C270 C 0.4322 0.49936 0.58506 0.0
C271 C 0.46097 0.54301 0.57717 0.0
H272 H 0.51675 0.59381 0.03498 0.0
H273 H 0.41661 0.47497 0.06498 0.0
H274 H 0.46769 0.4004 0.04854 0.0
H275 H 0.54114 0.36849 1.02538 0.0
H276 H 0.64127 0.48798 0.99709 0.0
H277 H 0.59024 0.5621 1.01391 0.0
C278 C 0.50592 0.55161 0.03732 0.0
C279 C 0.46262 0.54025 0.05069 0.0
C280 C 0.53576 0.50875 1.02888 0.0
C281 C 0.44959 0.48512 0.05451 0.0
C282 C 0.47889 0.44234 0.04534 0.0
C283 C 0.55198 0.41071 1.02365 0.0
C284 C 0.59526 0.42227 1.01007 0.0
C285 C 0.52218 0.45357 0.03282 0.0
C286 C 0.60833 0.47751 1.00744 0.0
C287 C 0.57905 0.52013 1.01681 0.0
H288 H 0.96794 0.0059 0.45057 0.0
H289 H 0.99914 0.12638 0.5745 0.0
H290 H 0.0535 0.0648 0.61157 0.0
H291 H 0.09245 0.97639 0.60844 0.0
H292 H 0.06242 0.85855 0.48133 0.0
H293 H 1.00764 0.91954 0.44594 0.0
C294 C 0.98644 0.01875 0.48588 0.0
C295 C 0.97919 0.07072 0.50986 0.0
C296 C 1.0181 0.98359 0.50634 0.0
C297 C 1.00398 0.08669 0.55518 0.0
C298 C 0.03509 0.05145 0.57642 0.0
C299 C 0.07393 0.96406 0.57299 0.0
C300 C 0.08166 0.91267 0.54781 0.0
C301 C 0.04252 -0.00023 0.55226 0.0
C302 C 0.05744 0.89773 0.50161 0.0
C303 C 0.02592 0.93258 0.48133 0.0
H304 H 0.33018 0.84897 0.16944 0.0
H305 H 0.37245 0.86415 1.00308 0.0
H306 H 0.34258 0.95711 1.00035 0.0
H307 H 0.29453 0.02734 0.04153 0.0
H308 H 0.24694 0.00455 0.20513 0.0
H309 H 0.28808 0.92059 0.21236 0.0
C310 C 0.33356 0.87311 0.13288 0.0
C311 C 0.3527 0.84995 0.08634 0.0
C312 C 0.31431 0.92441 0.13073 0.0
C313 C 0.35776 0.88151 0.03944 0.0
C314 C 0.34015 0.93418 0.03768 0.0
C315 C 0.29353 0.00404 0.07877 0.0
C316 C 0.26715 0.02138 0.12228 0.0
C317 C 0.31665 0.95496 0.08235 0.0
C318 C 0.26623 -0.00869 0.17058 0.0
C319 C 0.29002 0.94358 0.175 0.0
H320 H 0.22487 0.61129 0.51464 0.0
H321 H 0.17306 0.62134 0.67735 0.0
H322 H 0.18959 0.52445 0.69127 0.0
H323 H 0.22822 0.44192 0.66102 0.0
H324 H 0.27789 0.4305 0.49736 0.0
H325 H 0.25157 0.5229 0.47874 0.0
C326 C 0.21672 0.59167 0.55269 0.0
C327 C 0.19881 0.62257 0.59545 0.0
C328 C 0.22571 0.53622 0.5599 0.0
C329 C 0.18728 0.59758 0.64434 0.0
C330 C 0.19673 0.54254 0.65223 0.0
C331 C 0.23205 0.45933 0.62089 0.0
C332 C 0.25511 0.43065 0.58068 0.0
C333 C 0.21722 0.51211 0.6109 0.0
C334 C 0.25994 0.45247 0.5286 0.0
C335 C 0.24538 0.50528 0.51825 0.0
H336 H 0.72576 0.47026 0.99003 0.0
H337 H 0.84535 0.38877 0.95341 0.0
H338 H 0.8847 0.47597 0.9644 0.0
H339 H 0.88229 0.57781 0.9725 0.0
H340 H 0.76053 0.65614 1.00678 0.0
H341 H 0.72458 0.56762 1.00979 0.0
C342 C 0.76056 0.4717 0.98545 0.0
C343 C 0.78292 0.42444 0.97036 0.0
C344 C 0.7823 0.52131 0.99114 0.0
C345 C 0.82789 0.42551 0.96501 0.0
C346 C 0.85016 0.47517 0.97097 0.0
C347 C 0.84813 0.57492 0.98155 0.0
C348 C 0.82366 0.6227 0.98809 0.0
C349 C 0.8274 0.52373 0.98223 0.0
C350 C 0.77953 0.61938 1.00034 0.0
C351 C 0.759 0.56901 1.0022 0.0
H352 H 0.74232 0.04709 0.48418 0.0
H353 H 0.85591 0.97835 0.40755 0.0
H354 H 0.82599 0.88683 0.41507 0.0
H355 H 0.76926 0.82629 0.44438 0.0
H356 H 0.65404 0.89081 0.51951 0.0
H357 H 0.68265 0.98456 0.51093 0.0
C358 C 0.76042 0.01196 0.46936 0.0
C359 C 0.80129 0.01942 0.44549 0.0
C360 C 0.74279 0.95903 0.47328 0.0
C361 C 0.82432 0.97373 0.42588 0.0
C362 C 0.80732 0.92135 0.43018 0.0
C363 C 0.75035 0.86086 0.45906 0.0
C364 C 0.71003 0.85203 0.48325 0.0
C365 C 0.76682 0.91363 0.45392 0.0
C366 C 0.68531 0.89699 0.50083 0.0
C367 C 0.70175 0.95032 0.49618 0.0
H368 H 0.69644 0.09781 1.02849 0.0
H369 H 0.70647 0.11993 0.8552 0.0
H370 H 0.73805 0.02901 0.84418 0.0
H371 H 0.77362 0.95113 0.88556 0.0
H372 H 0.76588 0.92873 0.05894 0.0
H373 H 0.7227 0.01226 0.06863 0.0
C374 C 0.70402 0.08163 0.98825 0.0
C375 C 0.6996 0.11497 0.9427 0.0
C376 C 0.72377 0.03033 0.98256 0.0
C377 C 0.70987 0.09443 0.89066 0.0
C378 C 0.72832 0.04291 0.88445 0.0
C379 C 0.76224 0.96454 0.92537 0.0
C380 C 0.77363 0.9353 0.97166 0.0
C381 C 0.73742 0.0119 0.93041 0.0
C382 C 0.75781 0.95158 1.02293 0.0
C383 C 0.73312 -0.00096 1.02842 0.0
H384 H 0.79816 0.54127 0.49268 0.0
H385 H 0.68589 0.48565 0.40391 0.0
H386 H 0.71606 0.39459 0.39536 0.0
H387 H 0.77234 0.33012 0.41454 0.0
H388 H 0.88375 0.38071 0.50731 0.0
H389 H 0.85602 0.47459 0.51227 0.0
C390 C 0.78047 0.50913 0.47148 0.0
C391 C 0.73981 0.52022 0.44928 0.0
C392 C 0.79776 0.45609 0.46721 0.0
C393 C 0.71707 0.47821 0.42197 0.0
C394 C 0.73433 0.42605 0.41675 0.0
C395 C 0.79089 0.36157 0.43562 0.0
C396 C 0.82999 0.34845 0.46056 0.0
C397 C 0.77441 0.41453 0.43943 0.0
C398 C 0.85343 0.38983 0.4878 0.0
C399 C 0.83757 0.44342 0.49077 0.0
H400 H 0.20806 0.36969 1.02913 0.0
H401 H 0.23766 0.32925 0.19523 0.0
H402 H 0.26227 0.42252 0.21293 0.0
H403 H 0.28374 0.51095 0.1785 0.0
H404 H 0.25815 0.55239 1.01173 0.0
H405 H 0.22283 0.4635 0.99704 0.0
C406 C 0.21914 0.38186 0.06933 0.0
C407 C 0.22193 0.34292 0.11056 0.0
C408 C 0.23428 0.43529 0.07892 0.0
C409 C 0.23613 0.35867 0.16266 0.0
C410 C 0.25013 0.41184 0.17285 0.0
C411 C 0.27009 0.50076 0.13903 0.0
C412 C 0.27418 0.53733 0.09597 0.0
C413 C 0.2508 0.44975 0.13077 0.0
C414 C 0.25554 0.5244 0.04539 0.0
C415 C 0.23556 0.47362 0.03694 0.0
H416 H 0.30794 0.94342 0.53447 0.0
H417 H 0.24663 0.95677 0.69178 0.0
H418 H 0.28165 0.04471 0.70873 0.0
H419 H 0.31981 0.12335 0.67328 0.0
H420 H 0.37789 0.11535 0.51386 0.0
H421 H 0.35534 0.01941 0.50364 0.0
C422 C 0.30314 0.96542 0.57265 0.0
C423 C 0.27439 0.94483 0.61147 0.0
C424 C 0.32262 0.01684 0.5816 0.0
C425 C 0.26822 0.97287 0.66111 0.0
C426 C 0.28823 0.02293 0.67087 0.0
C427 C 0.32834 0.10013 0.63682 0.0
C428 C 0.34965 0.12619 0.59407 0.0
C429 C 0.31402 0.04621 0.63057 0.0
C430 C 0.36131 0.09586 0.5473 0.0
C431 C 0.34802 0.04127 0.54121 0.0
H432 H 0.18004 0.21837 0.90117 0.0
H433 H 0.30396 0.17012 0.96313 0.0
H434 H 0.33885 0.19985 0.87972 0.0
H435 H 0.33525 0.24599 0.79193 0.0
H436 H 0.21176 0.29163 0.72748 0.0
H437 H 0.17576 0.25703 0.80891 0.0
C438 C 0.21449 0.21317 0.89581 0.0
C439 C 0.23934 0.19247 0.93853 0.0
C440 C 0.23464 0.23103 0.84773 0.0
C441 C 0.28407 0.18633 0.93104 0.0
C442 C 0.30417 0.20362 0.88347 0.0
C443 C 0.30049 0.24857 0.79597 0.0
C444 C 0.27625 0.27221 0.75446 0.0
C445 C 0.27998 0.22747 0.84222 0.0
C446 C 0.23112 0.27399 0.75932 0.0
C447 C 0.21051 0.25407 0.80574 0.0
H448 H 0.30746 0.20869 0.24385 0.0
H449 H 0.17869 0.19182 0.30936 0.0
H450 H 0.20215 0.23208 0.39511 0.0
H451 H 0.25869 0.2672 0.45284 0.0
H452 H 0.3899 0.27519 0.39495 0.0
H453 H 0.36573 0.24509 0.30389 0.0
C454 C 0.28459 0.21365 0.27698 0.0
C455 C 0.24116 0.19743 0.26983 0.0
C456 C 0.29862 0.23577 0.32716 0.0
C457 C 0.21205 0.20431 0.31323 0.0
C458 C 0.22545 0.22736 0.36242 0.0
C459 C 0.28226 0.26267 0.42035 0.0
C460 C 0.32617 0.27279 0.43085 0.0
C461 C 0.26856 0.24275 0.36984 0.0
C462 C 0.35594 0.26782 0.38794 0.0
C463 C 0.34213 0.24994 0.33617 0.0
H464 H 0.7525 0.21634 0.31175 0.0
H465 H 0.87405 0.16627 0.24095 0.0
H466 H 0.84876 0.19128 0.15127 0.0
H467 H 0.79268 0.22583 0.09255 0.0
H468 H 0.67012 0.27551 0.16022 0.0
H469 H 0.6955 0.25262 0.25152 0.0
C470 C 0.77335 0.21066 0.27665 0.0
C471 C 0.81518 0.18925 0.28337 0.0
C472 C 0.75856 0.22526 0.22463 0.0
C473 C 0.84183 0.18269 0.23735 0.0
C474 C 0.82739 0.19699 0.18586 0.0
C475 C 0.77129 0.23187 0.1271 0.0
C476 C 0.72937 0.25221 0.11923 0.0
C477 C 0.78589 0.21819 0.17904 0.0
C478 C 0.70251 0.25996 0.16489 0.0
C479 C 0.71699 0.24666 0.21712 0.0
H480 H 0.76447 0.22774 0.59534 0.0
H481 H 0.88943 0.18348 0.65714 0.0
H482 H 0.86595 0.20853 0.74948 0.0
H483 H 0.81057 0.24664 0.81194 0.0
H484 H 0.68697 0.29338 0.74732 0.0
H485 H 0.70964 0.26402 0.6567 0.0
C486 C 0.78666 0.22296 0.62889 0.0
C487 C 0.82876 0.20366 0.61906 0.0
C488 C 0.77332 0.23854 0.6814 0.0
C489 C 0.85687 0.19815 0.66337 0.0
C490 C 0.8435 0.21271 0.71617 0.0
C491 C 0.78862 0.25052 0.77802 0.0
C492 C 0.74715 0.27261 0.78663 0.0
C493 C 0.80195 0.23369 0.72555 0.0
C494 C 0.71912 0.27695 0.7421 0.0
C495 C 0.732 0.25998 0.69015 0.0
H496 H 0.76163 0.73546 0.11818 0.0
H497 H 0.88444 0.79359 0.17727 0.0
H498 H 0.86118 0.77605 0.27118 0.0
H499 H 0.80593 0.74005 0.3367 0.0
H500 H 0.68546 0.6788 0.27249 0.0
H501 H 0.70785 0.70194 0.18101 0.0
C502 C 0.78351 0.74479 0.15136 0.0
C503 C 0.82487 0.76592 0.14018 0.0
C504 C 0.77028 0.73368 0.2048 0.0
C505 C 0.85244 0.77731 0.18432 0.0
C506 C 0.83912 0.76717 0.23814 0.0
C507 C 0.78464 0.73208 0.30263 0.0
C508 C 0.74414 0.70708 0.31174 0.0
C509 C 0.79814 0.74475 0.24898 0.0
C510 C 0.717 0.69712 0.26694 0.0
C511 C 0.7297 0.71053 0.21439 0.0
H512 H 0.73821 0.75125 0.83142 0.0
H513 H 0.86271 0.78948 0.76251 0.0
H514 H 0.83941 0.75485 0.67422 0.0
H515 H 0.78314 0.71663 0.6147 0.0
H516 H 0.65627 0.68706 0.67962 0.0
H517 H 0.68092 0.7146 0.77076 0.0
C518 C 0.76023 0.75212 0.79711 0.0
C519 C 0.80249 0.7725 0.80436 0.0
C520 C 0.74623 0.73316 0.74545 0.0
C521 C 0.83029 0.77345 0.75892 0.0
C522 C 0.81696 0.75366 0.70807 0.0
C523 C 0.76116 0.71507 0.64907 0.0
C524 C 0.71818 0.69859 0.64065 0.0
C525 C 0.77506 0.73339 0.70076 0.0
C526 C 0.68967 0.69874 0.68523 0.0
C527 C 0.70371 0.7149 0.73726 0.0
H528 H 0.30441 0.71729 0.72893 0.0
H529 H 0.21841 0.84037 0.79507 0.0
H530 H 0.24085 0.81851 0.88669 0.0
H531 H 0.28409 0.76547 0.94845 0.0
H532 H 0.37345 0.64479 0.88623 0.0
H533 H 0.35064 0.66479 0.79283 0.0
C534 C 0.29073 0.73935 0.76344 0.0
C535 C 0.25979 0.78067 0.7548 0.0
C536 C 0.30429 0.72699 0.81677 0.0
C537 C 0.24251 0.80886 0.80012 0.0
C538 C 0.25519 0.79623 0.85275 0.0
C539 C 0.29855 0.74305 0.91465 0.0
C540 C 0.33013 0.70313 0.92455 0.0
C541 C 0.28591 0.75545 0.86155 0.0
C542 C 0.34898 0.67555 0.87988 0.0
C543 C 0.33589 0.68701 0.82649 0.0
H544 H 0.28847 0.77839 0.44377 0.0
H545 H 0.15677 0.74164 0.401 0.0
H546 H 0.18011 0.71297 0.3095 0.0
H547 H 0.23896 0.69459 0.24248 0.0
H548 H 0.37032 0.7272 0.28973 0.0
H549 H 0.34614 0.76084 0.37821 0.0
C550 C 0.26461 0.76477 0.4144 0.0
C551 C 0.22075 0.76266 0.42949 0.0
C552 C 0.27838 0.74693 0.36251 0.0
C553 C 0.19068 0.74397 0.3907 0.0
C554 C 0.20407 0.72738 0.33832 0.0
C555 C 0.26223 0.70924 0.27212 0.0
C556 C 0.30663 0.70781 0.25929 0.0
C557 C 0.24798 0.72803 0.32388 0.0
C558 C 0.33619 0.72689 0.29844 0.0
C559 C 0.32231 0.74652 0.34915 0.0
loop_
_geom_bond_atom_site_label_1
_geom_bond_atom_site_label_2
_geom_bond_distance
_geom_bond_site_symmetry_2
_ccdc_geom_bond_type
Fe0 O2 1.918 . S
Fe0 O5 1.997 . S
Fe0 O6 2.002 . S
Fe0 O11 1.976 . S
Fe0 O14 1.996 . S
Fe1 O2 1.918 . S
Fe1 O9 1.997 . S
Fe1 O12 1.996 . S
Fe1 O16 1.976 . S
Fe1 O19 2.002 . S
O2 Fe0 1.918 . S
O2 Fe1 1.918 . S
O2 Fe3 1.918 . S
Fe3 O2 1.918 . S
Fe3 O4 2.002 . S
Fe3 O13 1.976 . S
Fe3 O17 1.996 1_554 S
Fe3 O20 1.997 . S
O4 Fe3 2.002 . S
O4 C21 1.295 . S
O5 Fe0 1.997 . S
O5 C21 1.235 . S
O6 Fe0 2.002 . S
O6 C7 1.295 . S
C7 O6 1.295 . S
C7 O9 1.235 . S
C8 O13 1.287 . S
C8 O14 1.255 . S
O9 Fe1 1.997 . S
O9 C7 1.235 . S
C10 O16 1.287 1_556 S
C10 O17 1.255 . S
O11 Fe0 1.976 . S
O11 C18 1.287 . S
O12 Fe1 1.996 . S
O12 C18 1.255 . S
O13 Fe3 1.976 . S
O13 C8 1.287 . S
O14 Fe0 1.996 . S
O14 C8 1.255 . S
C15 O19 1.295 . S
C15 O20 1.235 . S
O16 Fe1 1.976 . S
O16 C10 1.287 1_554 S
O17 Fe3 1.996 1_556 S
O17 C10 1.255 . S
C18 O11 1.287 . S
C18 O12 1.255 . S
O19 Fe1 2.002 . S
O19 C15 1.295 . S
O20 Fe3 1.997 . S
O20 C15 1.235 . S
C21 O4 1.295 . S
C21 O5 1.235 . S
Fe22 O24 1.918 . S
Fe22 O27 1.997 . S
Fe22 O28 2.002 . S
Fe22 O33 1.976 . S
Fe22 O36 1.996 . S
Fe23 O24 1.918 . S
Fe23 O31 1.997 . S
Fe23 O34 1.996 . S
Fe23 O38 1.976 . S
Fe23 O41 2.002 . S
O24 Fe22 1.918 . S
O24 Fe23 1.918 . S
O24 Fe25 1.918 . S
Fe25 O24 1.918 . S
Fe25 O26 2.002 . S
Fe25 O35 1.976 . S
Fe25 O39 1.996 . S
Fe25 O42 1.997 . S
O26 Fe25 2.002 . S
O26 C43 1.295 . S
O27 Fe22 1.997 . S
O27 C43 1.235 . S
O28 Fe22 2.002 . S
O28 C29 1.295 . S
C29 O28 1.295 . S
C29 O31 1.235 . S
C30 O35 1.287 . S
C30 O36 1.255 . S
O31 Fe23 1.997 . S
O31 C29 1.235 . S
C32 O38 1.287 . S
C32 O39 1.255 . S
O33 Fe22 1.976 . S
O33 C40 1.287 . S
O34 Fe23 1.996 . S
O34 C40 1.255 . S
O35 Fe25 1.976 . S
O35 C30 1.287 . S
O36 Fe22 1.996 . S
O36 C30 1.255 . S
C37 O41 1.295 . S
C37 O42 1.235 . S
O38 Fe23 1.976 . S
O38 C32 1.287 . S
O39 Fe25 1.996 . S
O39 C32 1.255 . S
C40 O33 1.287 . S
C40 O34 1.255 . S
O41 Fe23 2.002 . S
O41 C37 1.295 . S
O42 Fe25 1.997 . S
O42 C37 1.235 . S
C43 O26 1.295 . S
C43 O27 1.235 . S
Fe44 O46 1.918 . S
Fe44 O49 1.997 . S
Fe44 O50 2.002 . S
Fe44 O55 1.976 . S
Fe44 O58 1.996 . S
Fe45 O46 1.918 . S
Fe45 O53 1.997 . S
Fe45 O56 1.996 . S
Fe45 O60 1.976 . S
Fe45 O63 2.002 . S
O46 Fe44 1.918 . S
O46 Fe45 1.918 . S
O46 Fe47 1.918 . S
Fe47 O46 1.918 . S
Fe47 O48 2.002 . S
Fe47 O57 1.976 . S
Fe47 O61 1.996 1_556 S
Fe47 O64 1.997 . S
O48 Fe47 2.002 . S
O48 C65 1.295 . S
O49 Fe44 1.997 . S
O49 C65 1.235 . S
O50 Fe44 2.002 . S
O50 C51 1.295 . S
C51 O50 1.295 . S
C51 O53 1.235 . S
C52 O57 1.287 . S
C52 O58 1.255 . S
O53 Fe45 1.997 . S
O53 C51 1.235 . S
C54 O60 1.287 1_554 S
C54 O61 1.255 . S
O55 Fe44 1.976 . S
O55 C62 1.287 . S
O56 Fe45 1.996 . S
O56 C62 1.255 . S
O57 Fe47 1.976 . S
O57 C52 1.287 . S
O58 Fe44 1.996 . S
O58 C52 1.255 . S
C59 O63 1.295 . S
C59 O64 1.235 . S
O60 Fe45 1.976 . S
O60 C54 1.287 1_556 S
O61 Fe47 1.996 1_554 S
O61 C54 1.255 . S
C62 O55 1.287 . S
C62 O56 1.255 . S
O63 Fe45 2.002 . S
O63 C59 1.295 . S
O64 Fe47 1.997 . S
O64 C59 1.235 . S
C65 O48 1.295 . S
C65 O49 1.235 . S
Fe66 O68 1.918 . S
Fe66 O71 1.997 . S
Fe66 O72 2.002 . S
Fe66 O77 1.976 . S
Fe66 O80 1.996 . S
Fe67 O68 1.918 . S
Fe67 O75 1.997 . S
Fe67 O78 1.996 . S
Fe67 O82 1.976 . S
Fe67 O85 2.002 . S
O68 Fe66 1.918 . S
O68 Fe67 1.918 . S
O68 Fe69 1.918 . S
Fe69 O68 1.918 . S
Fe69 O70 2.002 . S
Fe69 O79 1.976 . S
Fe69 O83 1.996 . S
Fe69 O86 1.997 . S
O70 Fe69 2.002 . S
O70 C87 1.295 . S
O71 Fe66 1.997 . S
O71 C87 1.235 . S
O72 Fe66 2.002 . S
O72 C73 1.295 . S
C73 O72 1.295 . S
C73 O75 1.235 . S
C74 O79 1.287 . S
C74 O80 1.255 . S
O75 Fe67 1.997 . S
O75 C73 1.235 . S
C76 O82 1.287 . S
C76 O83 1.255 . S
O77 Fe66 1.976 . S
O77 C84 1.287 . S
O78 Fe67 1.996 . S
O78 C84 1.255 . S
O79 Fe69 1.976 . S
O79 C74 1.287 . S
O80 Fe66 1.996 . S
O80 C74 1.255 . S
C81 O85 1.295 . S
C81 O86 1.235 . S
O82 Fe67 1.976 . S
O82 C76 1.287 . S
O83 Fe69 1.996 . S
O83 C76 1.255 . S
C84 O77 1.287 . S
C84 O78 1.255 . S
O85 Fe67 2.002 . S
O85 C81 1.295 . S
O86 Fe69 1.997 . S
O86 C81 1.235 . S
C87 O70 1.295 . S
C87 O71 1.235 . S
Fe88 O90 1.918 . S
Fe88 O93 1.997 . S
Fe88 O94 2.002 . S
Fe88 O99 1.976 . S
Fe88 O102 1.996 . S
Fe89 O90 1.918 . S
Fe89 O97 1.997 . S
Fe89 O100 1.996 . S
Fe89 O104 1.976 . S
Fe89 O107 2.002 . S
O90 Fe88 1.918 . S
O90 Fe89 1.918 . S
O90 Fe91 1.918 . S
Fe91 O90 1.918 . S
Fe91 O92 2.002 . S
Fe91 O101 1.976 1_556 S
Fe91 O105 1.996 . S
Fe91 O108 1.997 . S
O92 Fe91 2.002 . S
O92 C109 1.295 . S
O93 Fe88 1.997 . S
O93 C109 1.235 . S
O94 Fe88 2.002 . S
O94 C95 1.295 . S
C95 O94 1.295 . S
C95 O97 1.235 . S
C96 O101 1.287 . S
C96 O102 1.255 1_554 S
O97 Fe89 1.997 . S
O97 C95 1.235 . S
C98 O104 1.287 . S
C98 O105 1.255 . S
O99 Fe88 1.976 . S
O99 C106 1.287 . S
O100 Fe89 1.996 . S
O100 C106 1.255 . S
O101 Fe91 1.976 1_554 S
O101 C96 1.287 . S
O102 Fe88 1.996 . S
O102 C96 1.255 1_556 S
C103 O107 1.295 . S
C103 O108 1.235 . S
O104 Fe89 1.976 . S
O104 C98 1.287 . S
O105 Fe91 1.996 . S
O105 C98 1.255 . S
C106 O99 1.287 . S
C106 O100 1.255 . S
O107 Fe89 2.002 . S
O107 C103 1.295 . S
O108 Fe91 1.997 . S
O108 C103 1.235 . S
C109 O92 1.295 . S
C109 O93 1.235 . S
Fe110 O112 1.918 . S
Fe110 O115 1.997 . S
Fe110 O116 2.002 . S
Fe110 O121 1.976 . S
Fe110 O124 1.996 . S
Fe111 O112 1.918 . S
Fe111 O119 1.997 . S
Fe111 O122 1.996 . S
Fe111 O126 1.976 . S
Fe111 O129 2.002 . S
O112 Fe110 1.918 . S
O112 Fe111 1.918 . S
O112 Fe113 1.918 . S
Fe113 O112 1.918 . S
Fe113 O114 2.002 . S
Fe113 O123 1.976 . S
Fe113 O127 1.996 . S
Fe113 O130 1.997 . S
O114 Fe113 2.002 . S
O114 C131 1.295 . S
O115 Fe110 1.997 . S
O115 C131 1.235 . S
O116 Fe110 2.002 . S
O116 C117 1.295 . S
C117 O116 1.295 . S
C117 O119 1.235 . S
C118 O123 1.287 . S
C118 O124 1.255 . S
O119 Fe111 1.997 . S
O119 C117 1.235 . S
C120 O126 1.287 . S
C120 O127 1.255 . S
O121 Fe110 1.976 . S
O121 C128 1.287 . S
O122 Fe111 1.996 . S
O122 C128 1.255 . S
O123 Fe113 1.976 . S
O123 C118 1.287 . S
O124 Fe110 1.996 . S
O124 C118 1.255 . S
C125 O129 1.295 . S
C125 O130 1.235 . S
O126 Fe111 1.976 . S
O126 C120 1.287 . S
O127 Fe113 1.996 . S
O127 C120 1.255 . S
C128 O121 1.287 . S
C128 O122 1.255 . S
O129 Fe111 2.002 . S
O129 C125 1.295 . S
O130 Fe113 1.997 . S
O130 C125 1.235 . S
C131 O114 1.295 . S
C131 O115 1.235 . S
Fe132 O134 1.918 . S
Fe132 O137 1.997 . S
Fe132 O138 2.002 . S
Fe132 O143 1.976 . S
Fe132 O146 1.996 . S
Fe133 O134 1.918 . S
Fe133 O141 1.997 . S
Fe133 O144 1.996 . S
Fe133 O148 1.976 1_554 S
Fe133 O151 2.002 . S
O134 Fe132 1.918 . S
O134 Fe133 1.918 . S
O134 Fe135 1.918 . S
Fe135 O134 1.918 . S
Fe135 O136 2.002 . S
Fe135 O145 1.976 . S
Fe135 O149 1.996 . S
Fe135 O152 1.997 . S
O136 Fe135 2.002 . S
O136 C153 1.295 . S
O137 Fe132 1.997 . S
O137 C153 1.235 . S
O138 Fe132 2.002 . S
O138 C139 1.295 . S
C139 O138 1.295 . S
C139 O141 1.235 . S
C140 O145 1.287 . S
C140 O146 1.255 . S
O141 Fe133 1.997 . S
O141 C139 1.235 . S
C142 O148 1.287 . S
C142 O149 1.255 1_556 S
O143 Fe132 1.976 . S
O143 C150 1.287 . S
O144 Fe133 1.996 . S
O144 C150 1.255 . S
O145 Fe135 1.976 . S
O145 C140 1.287 . S
O146 Fe132 1.996 . S
O146 C140 1.255 . S
C147 O151 1.295 . S
C147 O152 1.235 . S
O148 Fe133 1.976 1_556 S
O148 C142 1.287 . S
O149 Fe135 1.996 . S
O149 C142 1.255 1_554 S
C150 O143 1.287 . S
C150 O144 1.255 . S
O151 Fe133 2.002 . S
O151 C147 1.295 . S
O152 Fe135 1.997 . S
O152 C147 1.235 . S
C153 O136 1.295 . S
C153 O137 1.235 . S
Fe154 O156 1.918 . S
Fe154 O159 1.997 . S
Fe154 O160 2.002 . S
Fe154 O165 1.976 . S
Fe154 O168 1.996 . S
Fe155 O156 1.918 . S
Fe155 O163 1.997 . S
Fe155 O166 1.996 . S
Fe155 O170 1.976 . S
Fe155 O173 2.002 . S
O156 Fe154 1.918 . S
O156 Fe155 1.918 . S
O156 Fe157 1.918 . S
Fe157 O156 1.918 . S
Fe157 O158 2.002 . S
Fe157 O167 1.976 . S
Fe157 O171 1.996 . S
Fe157 O174 1.997 . S
O158 Fe157 2.002 . S
O158 C175 1.295 . S
O159 Fe154 1.997 . S
O159 C175 1.235 . S
O160 Fe154 2.002 . S
O160 C161 1.295 . S
C161 O160 1.295 . S
C161 O163 1.235 . S
C162 O167 1.287 . S
C162 O168 1.255 . S
O163 Fe155 1.997 . S
O163 C161 1.235 . S
C164 O170 1.287 . S
C164 O171 1.255 . S
O165 Fe154 1.976 . S
O165 C172 1.287 . S
O166 Fe155 1.996 . S
O166 C172 1.255 . S
O167 Fe157 1.976 . S
O167 C162 1.287 . S
O168 Fe154 1.996 . S
O168 C162 1.255 . S
C169 O173 1.295 . S
C169 O174 1.235 . S
O170 Fe155 1.976 . S
O170 C164 1.287 . S
O171 Fe157 1.996 . S
O171 C164 1.255 . S
C172 O165 1.287 . S
C172 O166 1.255 . S
O173 Fe155 2.002 . S
O173 C169 1.295 . S
O174 Fe157 1.997 . S
O174 C169 1.235 . S
C175 O158 1.295 . S
C175 O159 1.235 . S
H176 C182 0.930 . S
H177 C185 0.930 . S
H178 C186 0.930 . S
H179 C187 0.930 . S
H180 C190 0.930 . S
H181 C191 0.930 . S
C182 H176 0.930 . S
C182 C183 1.355 . S
C182 C184 1.415 1_455 S
C183 C182 1.355 . S
C183 C185 1.419 . S
C184 C182 1.415 1_655 S
C184 C189 1.425 1_655 S
C184 C191 1.409 . S
C185 H177 0.930 . S
C185 C183 1.419 . S
C185 C186 1.362 . S
C186 H178 0.930 . S
C186 C185 1.362 . S
C186 C189 1.409 . S
C187 H179 0.930 . S
C187 C188 1.355 . S
C187 C189 1.415 1_655 S
C188 C187 1.355 . S
C188 C190 1.419 . S
C189 C184 1.425 1_455 S
C189 C186 1.409 . S
C189 C187 1.415 1_455 S
C190 H180 0.930 . S
C190 C188 1.419 . S
C190 C191 1.362 . S
C191 H181 0.930 . S
C191 C184 1.409 . S
C191 C190 1.362 . S
H192 C198 0.930 . S
H193 C201 0.930 . S
H194 C202 0.930 . S
H195 C203 0.930 . S
H196 C206 0.930 . S
H197 C207 0.930 . S
C198 H192 0.930 . S
C198 C199 1.355 . S
C198 C200 1.415 . S
C199 C198 1.355 . S
C199 C201 1.419 . S
C200 C198 1.415 . S
C200 C205 1.425 . S
C200 C207 1.409 . S
C201 H193 0.930 . S
C201 C199 1.419 . S
C201 C202 1.362 . S
C202 H194 0.930 . S
C202 C201 1.362 . S
C202 C205 1.409 . S
C203 H195 0.930 . S
C203 C204 1.355 . S
C203 C205 1.415 . S
C204 C203 1.355 . S
C204 C206 1.419 . S
C205 C200 1.425 . S
C205 C202 1.409 . S
C205 C203 1.415 . S
C206 H196 0.930 . S
C206 C204 1.419 . S
C206 C207 1.362 . S
C207 H197 0.930 . S
C207 C200 1.409 . S
C207 C206 1.362 . S
H208 C214 0.930 . S
H209 C217 0.930 . S
H210 C218 0.930 . S
H211 C219 0.930 . S
H212 C222 0.930 . S
H213 C223 0.930 . S
C214 H208 0.930 . S
C214 C215 1.355 . S
C214 C216 1.415 1_655 S
C215 C214 1.355 . S
C215 C217 1.419 . S
C216 C214 1.415 1_455 S
C216 C221 1.425 1_455 S
C216 C223 1.409 . S
C217 H209 0.930 . S
C217 C215 1.419 . S
C217 C218 1.362 . S
C218 H210 0.930 . S
C218 C217 1.362 . S
C218 C221 1.409 . S
C219 H211 0.930 . S
C219 C220 1.355 . S
C219 C221 1.415 1_455 S
C220 C219 1.355 . S
C220 C222 1.419 . S
C221 C216 1.425 1_655 S
C221 C218 1.409 . S
C221 C219 1.415 1_655 S
C222 H212 0.930 . S
C222 C220 1.419 . S
C222 C223 1.362 . S
C223 H213 0.930 . S
C223 C216 1.409 . S
C223 C222 1.362 . S
H224 C230 0.930 . S
H225 C233 0.930 . S
H226 C234 0.930 . S
H227 C235 0.930 . S
H228 C238 0.930 . S
H229 C239 0.930 . S
C230 H224 0.930 . S
C230 C231 1.355 . S
C230 C232 1.415 . S
C231 C230 1.355 . S
C231 C233 1.419 . S
C232 C230 1.415 . S
C232 C237 1.425 . S
C232 C239 1.409 . S
C233 H225 0.930 . S
C233 C231 1.419 . S
C233 C234 1.362 . S
C234 H226 0.930 . S
C234 C233 1.362 . S
C234 C237 1.409 . S
C235 H227 0.930 . S
C235 C236 1.355 . S
C235 C237 1.415 . S
C236 C235 1.355 . S
C236 C238 1.419 . S
C237 C232 1.425 . S
C237 C234 1.409 . S
C237 C235 1.415 . S
C238 H228 0.930 . S
C238 C236 1.419 . S
C238 C239 1.362 . S
C239 H229 0.930 . S
C239 C232 1.409 . S
C239 C238 1.362 . S
H240 C246 0.930 . S
H241 C249 0.930 . S
H242 C250 0.930 . S
H243 C251 0.930 . S
H244 C254 0.930 . S
H245 C255 0.930 . S
C246 H240 0.930 . S
C246 C247 1.355 . S
C246 C248 1.415 1_545 S
C247 C246 1.355 . S
C247 C249 1.419 1_554 S
C248 C246 1.415 1_565 S
C248 C253 1.425 1_464 S
C248 C255 1.409 . S
C249 H241 0.930 . S
C249 C247 1.419 1_556 S
C249 C250 1.362 1_455 S
C250 H242 0.930 . S
C250 C249 1.362 1_655 S
C250 C253 1.409 . S
C251 H243 0.930 . S
C251 C252 1.355 . S
C251 C253 1.415 1_565 S
C252 C251 1.355 . S
C252 C254 1.419 1_556 S
C253 C248 1.425 1_646 S
C253 C250 1.409 . S
C253 C251 1.415 1_545 S
C254 H244 0.930 . S
C254 C252 1.419 1_554 S
C254 C255 1.362 1_655 S
C255 H245 0.930 . S
C255 C248 1.409 . S
C255 C254 1.362 1_455 S
H256 C262 0.930 . S
H257 C265 0.930 . S
H258 C266 0.930 . S
H259 C267 0.930 . S
H260 C270 0.930 . S
H261 C271 0.930 . S
C262 H256 0.930 . S
C262 C263 1.355 . S
C262 C264 1.415 . S
C263 C262 1.355 . S
C263 C265 1.419 . S
C264 C262 1.415 . S
C264 C269 1.425 . S
C264 C271 1.409 . S
C265 H257 0.930 . S
C265 C263 1.419 . S
C265 C266 1.362 . S
C266 H258 0.930 . S
C266 C265 1.362 . S
C266 C269 1.409 . S
C267 H259 0.930 . S
C267 C268 1.355 . S
C267 C269 1.415 . S
C268 C267 1.355 . S
C268 C270 1.419 . S
C269 C264 1.425 . S
C269 C266 1.409 . S
C269 C267 1.415 . S
C270 H260 0.930 . S
C270 C268 1.419 . S
C270 C271 1.362 . S
C271 H261 0.930 . S
C271 C264 1.409 . S
C271 C270 1.362 . S
H272 C278 0.930 1_556 S
H273 C281 0.930 . S
H274 C282 0.930 . S
H275 C283 0.930 1_554 S
H276 C286 0.930 . S
H277 C287 0.930 . S
C278 H272 0.930 1_554 S
C278 C279 1.355 . S
C278 C280 1.415 1_554 S
C279 C278 1.355 . S
C279 C281 1.419 . S
C280 C278 1.415 1_556 S
C280 C285 1.425 1_556 S
C280 C287 1.409 . S
C281 H273 0.930 . S
C281 C279 1.419 . S
C281 C282 1.362 . S
C282 H274 0.930 . S
C282 C281 1.362 . S
C282 C285 1.409 . S
C283 H275 0.930 1_556 S
C283 C284 1.355 . S
C283 C285 1.415 1_556 S
C284 C283 1.355 . S
C284 C286 1.419 . S
C285 C280 1.425 1_554 S
C285 C282 1.409 . S
C285 C283 1.415 1_554 S
C286 H276 0.930 . S
C286 C284 1.419 . S
C286 C287 1.362 . S
C287 H277 0.930 . S
C287 C280 1.409 . S
C287 C286 1.362 . S
H288 C294 0.930 . S
H289 C297 0.930 1_455 S
H290 C298 0.930 . S
H291 C299 0.930 . S
H292 C302 0.930 1_655 S
H293 C303 0.930 . S
C294 H288 0.930 . S
C294 C295 1.355 . S
C294 C296 1.415 1_545 S
C295 C294 1.355 . S
C295 C297 1.419 . S
C296 C294 1.415 1_565 S
C296 C301 1.425 1_665 S
C296 C303 1.409 . S
C297 H289 0.930 1_655 S
C297 C295 1.419 . S
C297 C298 1.362 1_655 S
C298 H290 0.930 . S
C298 C297 1.362 1_455 S
C298 C301 1.409 . S
C299 H291 0.930 . S
C299 C300 1.355 . S
C299 C301 1.415 1_565 S
C300 C299 1.355 . S
C300 C302 1.419 . S
C301 C296 1.425 1_445 S
C301 C298 1.409 . S
C301 C299 1.415 1_545 S
C302 H292 0.930 1_455 S
C302 C300 1.419 . S
C302 C303 1.362 1_455 S
C303 H293 0.930 . S
C303 C296 1.409 . S
C303 C302 1.362 1_655 S
H304 C310 0.930 . S
H305 C313 0.930 . S
H306 C314 0.930 . S
H307 C315 0.930 . S
H308 C318 0.930 . S
H309 C319 0.930 . S
C310 H304 0.930 . S
C310 C311 1.355 . S
C310 C312 1.415 . S
C311 C310 1.355 . S
C311 C313 1.419 . S
C312 C310 1.415 . S
C312 C317 1.425 . S
C312 C319 1.409 1_565 S
C313 H305 0.930 . S
C313 C311 1.419 . S
C313 C314 1.362 . S
C314 H306 0.930 . S
C314 C313 1.362 . S
C314 C317 1.409 . S
C315 H307 0.930 . S
C315 C316 1.355 . S
C315 C317 1.415 1_545 S
C316 C315 1.355 . S
C316 C318 1.419 . S
C317 C312 1.425 . S
C317 C314 1.409 . S
C317 C315 1.415 1_565 S
C318 H308 0.930 . S
C318 C316 1.419 . S
C318 C319 1.362 . S
C319 H309 0.930 . S
C319 C312 1.409 1_545 S
C319 C318 1.362 . S
H320 C326 0.930 . S
H321 C329 0.930 . S
H322 C330 0.930 . S
H323 C331 0.930 . S
H324 C334 0.930 . S
H325 C335 0.930 . S
C326 H320 0.930 . S
C326 C327 1.355 . S
C326 C328 1.415 . S
C327 C326 1.355 . S
C327 C329 1.419 . S
C328 C326 1.415 . S
C328 C333 1.425 . S
C328 C335 1.409 . S
C329 H321 0.930 . S
C329 C327 1.419 . S
C329 C330 1.362 . S
C330 H322 0.930 . S
C330 C329 1.362 . S
C330 C333 1.409 . S
C331 H323 0.930 . S
C331 C332 1.355 . S
C331 C333 1.415 . S
C332 C331 1.355 . S
C332 C334 1.419 . S
C333 C328 1.425 . S
C333 C330 1.409 . S
C333 C331 1.415 . S
C334 H324 0.930 . S
C334 C332 1.419 . S
C334 C335 1.362 . S
C335 H325 0.930 . S
C335 C328 1.409 . S
C335 C334 1.362 . S
H336 C342 0.930 . S
H337 C345 0.930 . S
H338 C346 0.930 . S
H339 C347 0.930 . S
H340 C350 0.930 . S
H341 C351 0.930 . S
C342 H336 0.930 . S
C342 C343 1.355 . S
C342 C344 1.415 . S
C343 C342 1.355 . S
C343 C345 1.419 . S
C344 C342 1.415 . S
C344 C349 1.425 . S
C344 C351 1.409 . S
C345 H337 0.930 . S
C345 C343 1.419 . S
C345 C346 1.362 . S
C346 H338 0.930 . S
C346 C345 1.362 . S
C346 C349 1.409 . S
C347 H339 0.930 . S
C347 C348 1.355 . S
C347 C349 1.415 . S
C348 C347 1.355 . S
C348 C350 1.419 . S
C349 C344 1.425 . S
C349 C346 1.409 . S
C349 C347 1.415 . S
C350 H340 0.930 . S
C350 C348 1.419 . S
C350 C351 1.362 . S
C351 H341 0.930 . S
C351 C344 1.409 . S
C351 C350 1.362 . S
H352 C358 0.930 . S
H353 C361 0.930 . S
H354 C362 0.930 . S
H355 C363 0.930 . S
H356 C366 0.930 . S
H357 C367 0.930 . S
C358 H352 0.930 . S
C358 C359 1.355 . S
C358 C360 1.415 1_545 S
C359 C358 1.355 . S
C359 C361 1.419 . S
C360 C358 1.415 1_565 S
C360 C365 1.425 . S
C360 C367 1.409 . S
C361 H353 0.930 . S
C361 C359 1.419 . S
C361 C362 1.362 1_545 S
C362 H354 0.930 . S
C362 C361 1.362 1_565 S
C362 C365 1.409 . S
C363 H355 0.930 . S
C363 C364 1.355 . S
C363 C365 1.415 . S
C364 C363 1.355 . S
C364 C366 1.419 . S
C365 C360 1.425 . S
C365 C362 1.409 . S
C365 C363 1.415 . S
C366 H356 0.930 . S
C366 C364 1.419 . S
C366 C367 1.362 . S
C367 H357 0.930 . S
C367 C360 1.409 . S
C367 C366 1.362 . S
H368 C374 0.930 . S
H369 C377 0.930 . S
H370 C378 0.930 . S
H371 C379 0.930 . S
H372 C382 0.930 . S
H373 C383 0.930 . S
C374 H368 0.930 . S
C374 C375 1.355 . S
C374 C376 1.415 . S
C375 C374 1.355 . S
C375 C377 1.419 . S
C376 C374 1.415 . S
C376 C381 1.425 . S
C376 C383 1.409 . S
C377 H369 0.930 . S
C377 C375 1.419 . S
C377 C378 1.362 . S
C378 H370 0.930 . S
C378 C377 1.362 . S
C378 C381 1.409 . S
C379 H371 0.930 . S
C379 C380 1.355 . S
C379 C381 1.415 1_565 S
C380 C379 1.355 . S
C380 C382 1.419 . S
C381 C376 1.425 . S
C381 C378 1.409 . S
C381 C379 1.415 1_545 S
C382 H372 0.930 . S
C382 C380 1.419 . S
C382 C383 1.362 1_565 S
C383 H373 0.930 . S
C383 C376 1.409 . S
C383 C382 1.362 1_545 S
H384 C390 0.930 . S
H385 C393 0.930 . S
H386 C394 0.930 . S
H387 C395 0.930 . S
H388 C398 0.930 . S
H389 C399 0.930 . S
C390 H384 0.930 . S
C390 C391 1.355 . S
C390 C392 1.415 . S
C391 C390 1.355 . S
C391 C393 1.419 . S
C392 C390 1.415 . S
C392 C397 1.425 . S
C392 C399 1.409 . S
C393 H385 0.930 . S
C393 C391 1.419 . S
C393 C394 1.362 . S
C394 H386 0.930 . S
C394 C393 1.362 . S
C394 C397 1.409 . S
C395 H387 0.930 . S
C395 C396 1.355 . S
C395 C397 1.415 . S
C396 C395 1.355 . S
C396 C398 1.419 . S
C397 C392 1.425 . S
C397 C394 1.409 . S
C397 C395 1.415 . S
C398 H388 0.930 . S
C398 C396 1.419 . S
C398 C399 1.362 . S
C399 H389 0.930 . S
C399 C392 1.409 . S
C399 C398 1.362 . S
H400 C406 0.930 . S
H401 C409 0.930 . S
H402 C410 0.930 . S
H403 C411 0.930 . S
H404 C414 0.930 . S
H405 C415 0.930 . S
C406 H400 0.930 . S
C406 C407 1.355 . S
C406 C408 1.415 . S
C407 C406 1.355 . S
C407 C409 1.419 . S
C408 C406 1.415 . S
C408 C413 1.425 . S
C408 C415 1.409 . S
C409 H401 0.930 . S
C409 C407 1.419 . S
C409 C410 1.362 . S
C410 H402 0.930 . S
C410 C409 1.362 . S
C410 C413 1.409 . S
C411 H403 0.930 . S
C411 C412 1.355 . S
C411 C413 1.415 . S
C412 C411 1.355 . S
C412 C414 1.419 . S
C413 C408 1.425 . S
C413 C410 1.409 . S
C413 C411 1.415 . S
C414 H404 0.930 . S
C414 C412 1.419 . S
C414 C415 1.362 . S
C415 H405 0.930 . S
C415 C408 1.409 . S
C415 C414 1.362 . S
H416 C422 0.930 . S
H417 C425 0.930 . S
H418 C426 0.930 . S
H419 C427 0.930 . S
H420 C430 0.930 . S
H421 C431 0.930 . S
C422 H416 0.930 . S
C422 C423 1.355 . S
C422 C424 1.415 1_565 S
C423 C422 1.355 . S
C423 C425 1.419 . S
C424 C422 1.415 1_545 S
C424 C429 1.425 . S
C424 C431 1.409 . S
C425 H417 0.930 . S
C425 C423 1.419 . S
C425 C426 1.362 1_565 S
C426 H418 0.930 . S
C426 C425 1.362 1_545 S
C426 C429 1.409 . S
C427 H419 0.930 . S
C427 C428 1.355 . S
C427 C429 1.415 . S
C428 C427 1.355 . S
C428 C430 1.419 . S
C429 C424 1.425 . S
C429 C426 1.409 . S
C429 C427 1.415 . S
C430 H420 0.930 . S
C430 C428 1.419 . S
C430 C431 1.362 . S
C431 H421 0.930 . S
C431 C424 1.409 . S
C431 C430 1.362 . S
H432 C438 0.930 . S
H433 C441 0.930 . S
H434 C442 0.930 . S
H435 C443 0.930 . S
H436 C446 0.930 . S
H437 C447 0.930 . S
C438 H432 0.930 . S
C438 C439 1.355 . S
C438 C440 1.415 . S
C439 C438 1.355 . S
C439 C441 1.419 . S
C440 C438 1.415 . S
C440 C445 1.425 . S
C440 C447 1.409 . S
C441 H433 0.930 . S
C441 C439 1.419 . S
C441 C442 1.362 . S
C442 H434 0.930 . S
C442 C441 1.362 . S
C442 C445 1.409 . S
C443 H435 0.930 . S
C443 C444 1.355 . S
C443 C445 1.415 . S
C444 C443 1.355 . S
C444 C446 1.419 . S
C445 C440 1.425 . S
C445 C442 1.409 . S
C445 C443 1.415 . S
C446 H436 0.930 . S
C446 C444 1.419 . S
C446 C447 1.362 . S
C447 H437 0.930 . S
C447 C440 1.409 . S
C447 C446 1.362 . S
H448 C454 0.930 . S
H449 C457 0.930 . S
H450 C458 0.930 . S
H451 C459 0.930 . S
H452 C462 0.930 . S
H453 C463 0.930 . S
C454 H448 0.930 . S
C454 C455 1.355 . S
C454 C456 1.415 . S
C455 C454 1.355 . S
C455 C457 1.419 . S
C456 C454 1.415 . S
C456 C461 1.425 . S
C456 C463 1.409 . S
C457 H449 0.930 . S
C457 C455 1.419 . S
C457 C458 1.362 . S
C458 H450 0.930 . S
C458 C457 1.362 . S
C458 C461 1.409 . S
C459 H451 0.930 . S
C459 C460 1.355 . S
C459 C461 1.415 . S
C460 C459 1.355 . S
C460 C462 1.419 . S
C461 C456 1.425 . S
C461 C458 1.409 . S
C461 C459 1.415 . S
C462 H452 0.930 . S
C462 C460 1.419 . S
C462 C463 1.362 . S
C463 H453 0.930 . S
C463 C456 1.409 . S
C463 C462 1.362 . S
H464 C470 0.930 . S
H465 C473 0.930 . S
H466 C474 0.930 . S
H467 C475 0.930 . S
H468 C478 0.930 . S
H469 C479 0.930 . S
C470 H464 0.930 . S
C470 C471 1.355 . S
C470 C472 1.415 . S
C471 C470 1.355 . S
C471 C473 1.419 . S
C472 C470 1.415 . S
C472 C477 1.425 . S
C472 C479 1.409 . S
C473 H465 0.930 . S
C473 C471 1.419 . S
C473 C474 1.362 . S
C474 H466 0.930 . S
C474 C473 1.362 . S
C474 C477 1.409 . S
C475 H467 0.930 . S
C475 C476 1.355 . S
C475 C477 1.415 . S
C476 C475 1.355 . S
C476 C478 1.419 . S
C477 C472 1.425 . S
C477 C474 1.409 . S
C477 C475 1.415 . S
C478 H468 0.930 . S
C478 C476 1.419 . S
C478 C479 1.362 . S
C479 H469 0.930 . S
C479 C472 1.409 . S
C479 C478 1.362 . S
H480 C486 0.930 . S
H481 C489 0.930 . S
H482 C490 0.930 . S
H483 C491 0.930 . S
H484 C494 0.930 . S
H485 C495 0.930 . S
C486 H480 0.930 . S
C486 C487 1.355 . S
C486 C488 1.415 . S
C487 C486 1.355 . S
C487 C489 1.419 . S
C488 C486 1.415 . S
C488 C493 1.425 . S
C488 C495 1.409 . S
C489 H481 0.930 . S
C489 C487 1.419 . S
C489 C490 1.362 . S
C490 H482 0.930 . S
C490 C489 1.362 . S
C490 C493 1.409 . S
C491 H483 0.930 . S
C491 C492 1.355 . S
C491 C493 1.415 . S
C492 C491 1.355 . S
C492 C494 1.419 . S
C493 C488 1.425 . S
C493 C490 1.409 . S
C493 C491 1.415 . S
C494 H484 0.930 . S
C494 C492 1.419 . S
C494 C495 1.362 . S
C495 H485 0.930 . S
C495 C488 1.409 . S
C495 C494 1.362 . S
H496 C502 0.930 . S
H497 C505 0.930 . S
H498 C506 0.930 . S
H499 C507 0.930 . S
H500 C510 0.930 . S
H501 C511 0.930 . S
C502 H496 0.930 . S
C502 C503 1.355 . S
C502 C504 1.415 . S
C503 C502 1.355 . S
C503 C505 1.419 . S
C504 C502 1.415 . S
C504 C509 1.425 . S
C504 C511 1.409 . S
C505 H497 0.930 . S
C505 C503 1.419 . S
C505 C506 1.362 . S
C506 H498 0.930 . S
C506 C505 1.362 . S
C506 C509 1.409 . S
C507 H499 0.930 . S
C507 C508 1.355 . S
C507 C509 1.415 . S
C508 C507 1.355 . S
C508 C510 1.419 . S
C509 C504 1.425 . S
C509 C506 1.409 . S
C509 C507 1.415 . S
C510 H500 0.930 . S
C510 C508 1.419 . S
C510 C511 1.362 . S
C511 H501 0.930 . S
C511 C504 1.409 . S
C511 C510 1.362 . S
H512 C518 0.930 . S
H513 C521 0.930 . S
H514 C522 0.930 . S
H515 C523 0.930 . S
H516 C526 0.930 . S
H517 C527 0.930 . S
C518 H512 0.930 . S
C518 C519 1.355 . S
C518 C520 1.415 . S
C519 C518 1.355 . S
C519 C521 1.419 . S
C520 C518 1.415 . S
C520 C525 1.425 . S
C520 C527 1.409 . S
C521 H513 0.930 . S
C521 C519 1.419 . S
C521 C522 1.362 . S
C522 H514 0.930 . S
C522 C521 1.362 . S
C522 C525 1.409 . S
C523 H515 0.930 . S
C523 C524 1.355 . S
C523 C525 1.415 . S
C524 C523 1.355 . S
C524 C526 1.419 . S
C525 C520 1.425 . S
C525 C522 1.409 . S
C525 C523 1.415 . S
C526 H516 0.930 . S
C526 C524 1.419 . S
C526 C527 1.362 . S
C527 H517 0.930 . S
C527 C520 1.409 . S
C527 C526 1.362 . S
H528 C534 0.930 . S
H529 C537 0.930 . S
H530 C538 0.930 . S
H531 C539 0.930 . S
H532 C542 0.930 . S
H533 C543 0.930 . S
C534 H528 0.930 . S
C534 C535 1.355 . S
C534 C536 1.415 . S
C535 C534 1.355 . S
C535 C537 1.419 . S
C536 C534 1.415 . S
C536 C541 1.425 . S
C536 C543 1.409 . S
C537 H529 0.930 . S
C537 C535 1.419 . S
C537 C538 1.362 . S
C538 H530 0.930 . S
C538 C537 1.362 . S
C538 C541 1.409 . S
C539 H531 0.930 . S
C539 C540 1.355 . S
C539 C541 1.415 . S
C540 C539 1.355 . S
C540 C542 1.419 . S
C541 C536 1.425 . S
C541 C538 1.409 . S
C541 C539 1.415 . S
C542 H532 0.930 . S
C542 C540 1.419 . S
C542 C543 1.362 . S
C543 H533 0.930 . S
C543 C536 1.409 . S
C543 C542 1.362 . S
H544 C550 0.930 . S
H545 C553 0.930 . S
H546 C554 0.930 . S
H547 C555 0.930 . S
H548 C558 0.930 . S
H549 C559 0.930 . S
C550 H544 0.930 . S
C550 C551 1.355 . S
C550 C552 1.415 . S
C551 C550 1.355 . S
C551 C553 1.419 . S
C552 C550 1.415 . S
C552 C557 1.425 . S
C552 C559 1.409 . S
C553 H545 0.930 . S
C553 C551 1.419 . S
C553 C554 1.362 . S
C554 H546 0.930 . S
C554 C553 1.362 . S
C554 C557 1.409 . S
C555 H547 0.930 . S
C555 C556 1.355 . S
C555 C557 1.415 . S
C556 C555 1.355 . S
C556 C558 1.419 . S
C557 C552 1.425 . S
C557 C554 1.409 . S
C557 C555 1.415 . S
C558 H548 0.930 . S
C558 C556 1.419 . S
C558 C559 1.362 . S
C559 H549 0.930 . S
C559 C552 1.409 . S
C559 C558 1.362 . S
C183 C21 1.031 . S
C188 C87 0.993 . S
C199 C43 1.020 . S
C204 C65 1.005 . S
C215 C103 0.953 . S
C220 C175 1.025 . S
C231 C125 0.947 . S
C236 C139 1.039 . S
C247 C8 1.902 . S
C252 C98 1.905 . S
C263 C120 1.893 . S
C268 C30 1.885 . S
C279 C150 1.889 . S
C284 C52 1.880 . S
C295 C74 1.897 . S
C300 C162 1.901 . S
C311 C147 0.948 . S
C316 C18 0.995 . S
C327 C161 1.020 . S
C332 C40 0.997 . S
C343 C62 0.993 . S
C348 C109 0.943 . S
C359 C84 0.995 . S
C364 C131 1.010 . S
C375 C59 1.011 . S
C380 C106 0.997 . S
C391 C128 0.985 . S
C396 C81 0.985 . S
C407 C15 1.020 . S
C412 C140 0.992 . S
C423 C164 0.986 . S
C428 C37 0.961 . S
C439 C10 1.552 . S
C444 C29 1.547 . S
C455 C7 1.544 . S
C460 C32 1.532 . S
C471 C73 1.554 . S
C476 C54 1.553 . S
C487 C76 1.554 . S
C492 C51 1.548 . S
C503 C96 1.559 . S
C508 C117 1.564 . S
C519 C95 1.562 . S
C524 C118 1.552 . S
C535 C169 1.554 . S
C540 C142 1.557 . S
C551 C172 1.546 . S
C556 C153 1.559 . S
