# Generated by pormake.
# Topology can, (4)-cn, num edge types: 1
# Building blocks:
#     Node 0, Type 0, BuildingBlock: NAHDIM_clean_sbu_0, # of connection points: 4
#     Node 1, Type 0, BuildingBlock: NAHDIM_clean_sbu_0, # of connection points: 4
#     Node 2, Type 0, BuildingBlock: NAHDIM_clean_sbu_0, # of connection points: 4
#     Node 3, Type 0, BuildingBlock: NAHDIM_clean_sbu_0, # of connection points: 4
#     Node 4, Type 0, BuildingBlock: NAHDIM_clean_sbu_0, # of connection points: 4
#     Node 5, Type 0, BuildingBlock: NAHDIM_clean_sbu_0, # of connection points: 4
#     Node 6, Type 0, BuildingBlock: NAHDIM_clean_sbu_0, # of connection points: 4
#     Node 7, Type 0, BuildingBlock: NAHDIM_clean_sbu_0, # of connection points: 4
#     Node 8, Type 0, BuildingBlock: NAHDIM_clean_sbu_0, # of connection points: 4
#     Node 9, Type 0, BuildingBlock: NAHDIM_clean_sbu_0, # of connection points: 4
#     Node 10, Type 0, BuildingBlock: NAHDIM_clean_sbu_0, # of connection points: 4
#     Node 11, Type 0, BuildingBlock: NAHDIM_clean_sbu_0, # of connection points: 4
#     Edge 12, Type (0, 0), BuildingBlock: ZUJKAS_clean_linker_0, # of connection points: 2
#     Edge 13, Type (0, 0), BuildingBlock: ZUJKAS_clean_linker_0, # of connection points: 2
#     Edge 14, Type (0, 0), BuildingBlock: ZUJKAS_clean_linker_0, # of connection points: 2
#     Edge 15, Type (0, 0), BuildingBlock: ZUJKAS_clean_linker_0, # of connection points: 2
#     Edge 16, Type (0, 0), BuildingBlock: ZUJKAS_clean_linker_0, # of connection points: 2
#     Edge 17, Type (0, 0), BuildingBlock: ZUJKAS_clean_linker_0, # of connection points: 2
#     Edge 18, Type (0, 0), BuildingBlock: ZUJKAS_clean_linker_0, # of connection points: 2
#     Edge 19, Type (0, 0), BuildingBlock: ZUJKAS_clean_linker_0, # of connection points: 2
#     Edge 20, Type (0, 0), BuildingBlock: ZUJKAS_clean_linker_0, # of connection points: 2
#     Edge 21, Type (0, 0), BuildingBlock: ZUJKAS_clean_linker_0, # of connection points: 2
#     Edge 22, Type (0, 0), BuildingBlock: ZUJKAS_clean_linker_0, # of connection points: 2
#     Edge 23, Type (0, 0), BuildingBlock: ZUJKAS_clean_linker_0, # of connection points: 2
#     Edge 24, Type (0, 0), BuildingBlock: ZUJKAS_clean_linker_0, # of connection points: 2
#     Edge 25, Type (0, 0), BuildingBlock: ZUJKAS_clean_linker_0, # of connection points: 2
#     Edge 26, Type (0, 0), BuildingBlock: ZUJKAS_clean_linker_0, # of connection points: 2
#     Edge 27, Type (0, 0), BuildingBlock: ZUJKAS_clean_linker_0, # of connection points: 2
#     Edge 28, Type (0, 0), BuildingBlock: ZUJKAS_clean_linker_0, # of connection points: 2
#     Edge 29, Type (0, 0), BuildingBlock: ZUJKAS_clean_linker_0, # of connection points: 2
#     Edge 30, Type (0, 0), BuildingBlock: ZUJKAS_clean_linker_0, # of connection points: 2
#     Edge 31, Type (0, 0), BuildingBlock: ZUJKAS_clean_linker_0, # of connection points: 2
#     Edge 32, Type (0, 0), BuildingBlock: ZUJKAS_clean_linker_0, # of connection points: 2
#     Edge 33, Type (0, 0), BuildingBlock: ZUJKAS_clean_linker_0, # of connection points: 2
#     Edge 34, Type (0, 0), BuildingBlock: ZUJKAS_clean_linker_0, # of connection points: 2
#     Edge 35, Type (0, 0), BuildingBlock: ZUJKAS_clean_linker_0, # of connection points: 2
# Relax obj value: 0.094
# Max RMSD: 0.084
# Mean RMSD: 0.084
data_MOF--net-can--node1-NAHDIM_clean_sbu_0--edge1-ZUJKAS_clean_linker_0
_symmetry_space_group_name_H-M    P1
_symmetry_Int_Tables_number       1
_symmetry_cell_setting            triclinic
loop_
_symmetry_equiv_pos_as_xyz
'x, y, z'
_cell_length_a     77.027088
_cell_length_b     77.0202
_cell_length_c     32.946154
_cell_angle_alpha  90.039611
_cell_angle_beta   89.953814
_cell_angle_gamma 119.98831
loop_
_atom_site_label
_atom_site_type_symbol
_atom_site_fract_x
_atom_site_fract_y
_atom_site_fract_z
_atom_type_partial_charge
C0 C 0.09762 0.39308 0.24642 0.0
O1 O 0.07983 0.377 0.24312 0.0
O2 O 0.05958 0.40065 0.19461 0.0
Zn3 Zn 0.0737 0.4116 0.24777 0.0
O4 O 0.05643 0.39597 0.29487 0.0
C5 C 0.0827 0.45133 0.22352 0.0
O6 O 0.08176 0.44423 0.18682 0.0
O7 O 0.09891 0.41015 0.24884 0.0
C8 C 0.04183 0.3983 0.3051 0.0
O9 O 0.03793 0.41029 0.28351 0.0
C10 C 0.04401 0.38355 0.19033 0.0
O11 O 0.03625 0.37188 0.22212 0.0
O12 O 0.08018 0.4402 0.25398 0.0
C13 C 0.70281 0.10198 0.74359 0.0
O14 O 0.70143 0.08444 0.74898 0.0
O15 O 0.65846 0.06288 0.68345 0.0
Zn16 Zn 0.66071 0.07704 0.73605 0.0
O17 O 0.65948 0.06027 0.78384 0.0
C18 C 0.62118 0.07025 0.72268 0.0
O19 O 0.61992 0.05494 0.70252 0.0
O20 O 0.68695 0.10277 0.73733 0.0
C21 C 0.64535 0.04232 0.78828 0.0
O22 O 0.6314 0.03421 0.7603 0.0
C23 C 0.66371 0.04986 0.67739 0.0
O24 O 0.67189 0.04504 0.70705 0.0
O25 O 0.63763 0.08241 0.73987 0.0
C26 C 0.59004 0.69894 0.23994 0.0
O27 O 0.60612 0.69888 0.22681 0.0
O28 O 0.58687 0.65424 0.197 0.0
Zn29 Zn 0.57583 0.65702 0.25039 0.0
O30 O 0.59239 0.6566 0.29685 0.0
C31 C 0.53625 0.62629 0.22689 0.0
O32 O 0.54247 0.63429 0.19081 0.0
O33 O 0.57504 0.68261 0.25163 0.0
C34 C 0.59302 0.64069 0.30356 0.0
O35 O 0.58345 0.62535 0.27893 0.0
C36 C 0.6049 0.65847 0.19153 0.0
O37 O 0.61755 0.6653 0.22204 0.0
O38 O 0.54792 0.63375 0.25711 0.0
C39 C 0.88987 0.60233 0.73693 0.0
O40 O 0.90754 0.61864 0.739 0.0
O41 O 0.92777 0.59328 0.68064 0.0
Zn42 Zn 0.91394 0.58371 0.73446 0.0
O43 O 0.93185 0.60009 0.78009 0.0
C44 C 0.90101 0.54277 0.71345 0.0
O45 O 0.89848 0.54863 0.67758 0.0
O46 O 0.88885 0.58538 0.73485 0.0
C47 C 0.949 0.60172 0.78381 0.0
O48 O 0.95484 0.59312 0.75682 0.0
C49 C 0.94124 0.61124 0.67333 0.0
O50 O 0.94678 0.62478 0.70216 0.0
O51 O 0.9072 0.55519 0.74267 0.0
C52 C 0.29667 0.88355 0.22715 0.0
O53 O 0.30593 0.89025 0.19227 0.0
O54 O 0.33371 0.93558 0.21028 0.0
Zn55 Zn 0.33045 0.91947 0.26048 0.0
O56 O 0.33037 0.93433 0.31038 0.0
C57 C 0.37088 0.92745 0.25559 0.0
O58 O 0.37396 0.94507 0.24386 0.0
O59 O 0.30446 0.89356 0.25927 0.0
C60 C 0.34033 0.95328 0.314 0.0
O61 O 0.35132 0.96423 0.28347 0.0
C62 C 0.32079 0.94021 0.19885 0.0
O63 O 0.30446 0.93429 0.22053 0.0
O64 O 0.35318 0.9138 0.2643 0.0
C65 C 0.38894 0.28637 0.7459 0.0
O66 O 0.37301 0.28768 0.73704 0.0
O67 O 0.39837 0.33308 0.69538 0.0
Zn68 Zn 0.40676 0.32893 0.75071 0.0
O69 O 0.38908 0.33005 0.7941 0.0
C70 C 0.44774 0.3585 0.73322 0.0
O71 O 0.44252 0.35151 0.69616 0.0
O72 O 0.40542 0.3023 0.75294 0.0
C73 C 0.38744 0.34558 0.79782 0.0
O74 O 0.3969 0.36045 0.77211 0.0
C75 C 0.38075 0.32929 0.68671 0.0
O76 O 0.36683 0.32212 0.71492 0.0
O77 O 0.43495 0.35089 0.76165 0.0
C78 C 0.58356 0.8817 0.26576 0.0
O79 O 0.58195 0.88856 0.30125 0.0
O80 O 0.59889 0.93257 0.28681 0.0
Zn81 Zn 0.58438 0.9173 0.23679 0.0
O82 O 0.59798 0.93368 0.18709 0.0
C83 C 0.54572 0.90737 0.27105 0.0
O84 O 0.55365 0.90573 0.3051 0.0
O85 O 0.58473 0.89151 0.23391 0.0
C86 C 0.59143 0.94414 0.17034 0.0
O87 O 0.57591 0.94438 0.18623 0.0
C88 C 0.59829 0.94821 0.29655 0.0
O89 O 0.58854 0.95425 0.27312 0.0
O90 O 0.55589 0.91164 0.2385 0.0
C91 C 0.70328 0.60102 0.74891 0.0
O92 O 0.70157 0.61716 0.74971 0.0
O93 O 0.65897 0.59604 0.8008 0.0
Zn94 Zn 0.66073 0.58204 0.75083 0.0
O95 O 0.65766 0.59521 0.70076 0.0
C96 C 0.63173 0.54313 0.78393 0.0
O97 O 0.63879 0.55182 0.81914 0.0
O98 O 0.68753 0.58389 0.7493 0.0
C99 C 0.64063 0.58827 0.68388 0.0
O100 O 0.62504 0.57266 0.69995 0.0
C101 C 0.64307 0.59646 0.809 0.0
O102 O 0.62775 0.5878 0.78409 0.0
O103 O 0.63909 0.55304 0.75148 0.0
C104 C 0.10876 0.70004 0.26052 0.0
O105 O 0.10171 0.6922 0.29635 0.0
O106 O 0.05713 0.66459 0.28162 0.0
Zn107 Zn 0.07239 0.66578 0.23131 0.0
O108 O 0.05658 0.66401 0.18173 0.0
C109 C 0.08071 0.63559 0.26272 0.0
O110 O 0.08129 0.64399 0.2978 0.0
O111 O 0.0987 0.69135 0.22896 0.0
C112 C 0.06435 0.66413 0.14764 0.0
O113 O 0.08212 0.66565 0.14685 0.0
C114 C 0.04016 0.6491 0.28766 0.0
O115 O 0.03302 0.63476 0.26032 0.0
O116 O 0.07729 0.6425 0.23061 0.0
C117 C 0.38573 0.09855 0.7514 0.0
O118 O 0.37135 0.08251 0.73369 0.0
O119 O 0.38826 0.05497 0.813 0.0
Zn120 Zn 0.40154 0.07232 0.7642 0.0
O121 O 0.38897 0.0582 0.7118 0.0
C122 C 0.43345 0.06473 0.75327 0.0
O123 O 0.41807 0.04704 0.74465 0.0
O124 O 0.40036 0.09776 0.76722 0.0
C125 C 0.37353 0.04093 0.7085 0.0
O126 O 0.36431 0.03092 0.74138 0.0
C127 C 0.37205 0.05228 0.82888 0.0
O128 O 0.36266 0.06082 0.8125 0.0
O129 O 0.43027 0.07883 0.76333 0.0
C130 C 0.2793 0.38426 0.24608 0.0
O131 O 0.27961 0.36749 0.24107 0.0
O132 O 0.32476 0.38674 0.2942 0.0
Zn133 Zn 0.32156 0.40042 0.24538 0.0
O134 O 0.32162 0.38617 0.19453 0.0
C135 C 0.35302 0.4392 0.27335 0.0
O136 O 0.34625 0.43166 0.30951 0.0
O137 O 0.29577 0.40065 0.24908 0.0
C138 C 0.32056 0.39371 0.16099 0.0
O139 O 0.31899 0.40993 0.16138 0.0
C140 C 0.3407 0.3859 0.29868 0.0
O141 O 0.35464 0.39364 0.27055 0.0
O142 O 0.34462 0.42866 0.24209 0.0
C143 C 0.8896 0.28741 0.75306 0.0
O144 O 0.90707 0.28856 0.75788 0.0
O145 O 0.92897 0.33413 0.80069 0.0
Zn146 Zn 0.91398 0.33013 0.74841 0.0
O147 O 0.93075 0.33178 0.70036 0.0
C148 C 0.90424 0.3604 0.77277 0.0
O149 O 0.906 0.3549 0.80957 0.0
O150 O 0.88888 0.30342 0.74865 0.0
C151 C 0.94511 0.34881 0.68989 0.0
O152 O 0.94898 0.36461 0.71177 0.0
C153 C 0.94453 0.3325 0.80409 0.0
O154 O 0.95149 0.32778 0.77207 0.0
O155 O 0.90674 0.35171 0.74241 0.0
H156 H 0.00854 0.34991 0.17124 0.0
H157 H -0.00747 0.34018 0.10458 0.0
H158 H 0.04225 0.39268 0.05139 0.0
H159 H 0.05815 0.40275 0.11793 0.0
H160 H 0.00651 0.38823 0.02873 0.0
H161 H 0.00611 0.3166 0.00754 0.0
H162 H -0.00541 0.31772 0.05411 0.0
H163 H 0.02092 0.33457 0.04617 0.0
C164 C 0.01614 0.3593 0.14531 0.0
C165 C 0.03461 0.3771 0.14989 0.0
C166 C 0.00703 0.35364 0.10718 0.0
C167 C 0.01635 0.36555 0.07294 0.0
C168 C 0.03485 0.38323 0.07741 0.0
H169 H 0.9801 0.33406 0.82083 0.0
H170 H -0.00216 0.3421 0.88585 0.0
C171 C 0.04391 0.38896 0.11548 0.0
C172 C 0.00634 0.36023 0.03282 0.0
H173 H 0.98648 0.32334 0.96103 0.0
C174 C 0.00222 0.37408 0.01383 0.0
C175 C 0.001 0.34189 0.01322 0.0
C176 C 0.00605 0.32691 0.03107 0.0
C177 C -0.00742 0.36995 0.97608 0.0
C178 C 0.98649 0.35126 0.95727 0.0
C179 C 0.99097 0.33756 0.9758 0.0
C180 C 0.97542 0.3457 0.91834 0.0
C181 C 0.98926 0.38576 0.95647 0.0
C182 C 0.95677 0.34468 0.91535 0.0
C183 C 0.94667 0.34022 0.87829 0.0
C184 C 0.95494 0.33647 0.84359 0.0
C185 C 0.97336 0.33693 0.84695 0.0
C186 C 0.98351 0.34149 0.88406 0.0
H187 H -0.00041 0.40092 0.96887 0.0
H188 H 0.99139 0.3861 0.92308 0.0
H189 H 0.97368 0.38231 0.96254 0.0
H190 H 0.95006 0.34742 0.94168 0.0
H191 H 0.93241 0.33979 0.87686 0.0
H192 H 0.59795 0.98087 0.32771 0.0
H193 H 0.61149 -0.00265 0.39276 0.0
H194 H 0.63251 0.956 0.41759 0.0
H195 H 0.6191 0.93942 0.35237 0.0
H196 H 0.59991 0.97746 0.46979 0.0
H197 H 0.68183 0.01217 0.44092 0.0
H198 H 0.66366 0.00405 0.40036 0.0
H199 H 0.66664 0.98594 0.42916 0.0
C200 C 0.60561 0.97537 0.34677 0.0
C201 C 0.60744 0.95883 0.33488 0.0
C202 C 0.61333 0.98481 0.38392 0.0
C203 C 0.62314 0.97799 0.40969 0.0
C204 C 0.62525 0.96166 0.39777 0.0
H205 H 0.67095 0.01983 0.6541 0.0
H206 H 0.66154 0.00134 0.58968 0.0
C207 C 0.6175 0.95217 0.36061 0.0
C208 C 0.63008 0.98733 0.45 0.0
H209 H 0.67197 0.01603 0.50669 0.0
C210 C 0.61566 0.98585 0.47792 0.0
C211 C 0.65062 -0.00194 0.46052 0.0
C212 C 0.66666 0.00034 0.43118 0.0
C213 C 0.62124 -0.00492 0.51604 0.0
C214 C 0.6418 0.00637 0.52611 0.0
C215 C 0.65623 0.00738 0.4987 0.0
C216 C 0.64852 0.01809 0.5641 0.0
C217 C 0.60508 0.99269 0.54524 0.0
C218 C 0.64473 0.03388 0.5704 0.0
C219 C 0.65004 0.04442 0.60693 0.0
C220 C 0.65935 0.03942 0.63785 0.0
C221 C 0.66372 0.02398 0.63095 0.0
C222 C 0.65839 0.01342 0.59423 0.0
H223 H 0.59035 0.97944 0.53763 0.0
H224 H 0.60901 0.99114 0.57693 0.0
H225 H 0.60344 0.0062 0.54365 0.0
H226 H 0.63743 0.03792 0.54716 0.0
H227 H 0.64657 0.05631 0.61108 0.0
H228 H 0.64159 0.6638 0.16983 0.0
H229 H 0.65153 0.65714 0.10357 0.0
H230 H 0.59261 0.63882 0.05651 0.0
H231 H 0.5826 0.64557 0.12223 0.0
H232 H 0.63338 0.62008 0.06324 0.0
H233 H 0.62985 0.67817 0.9702 0.0
H234 H 0.63079 0.67909 0.02498 0.0
H235 H 0.60753 0.66316 -0.0007 0.0
C236 C 0.63081 0.65854 0.14526 0.0
C237 C 0.61131 0.65523 0.15128 0.0
C238 C 0.63652 0.65475 0.10747 0.0
C239 C 0.6229 0.64779 0.07505 0.0
C240 C 0.60349 0.64461 0.0809 0.0
H241 H 0.61076 0.59848 0.8372 0.0
H242 H 0.60769 0.6123 0.90188 0.0
C243 C 0.59776 0.64834 0.11861 0.0
C244 C 0.62843 0.64259 0.03575 0.0
H245 H 0.63069 0.65167 0.93395 0.0
C246 C 0.63308 0.62716 0.03499 0.0
C247 C 0.62797 0.65186 -0.00095 0.0
C248 C 0.62395 0.66912 -0.00168 0.0
C249 C 0.63646 0.62014 -0.00178 0.0
C250 C 0.63549 0.62906 0.96142 0.0
C251 C 0.63135 0.64484 0.96226 0.0
C252 C 0.63788 0.62161 0.92161 0.0
C253 C 0.64024 0.6027 -0.00106 0.0
C254 C 0.65601 0.62264 0.91106 0.0
C255 C 0.65781 0.61471 0.87418 0.0
C256 C 0.64152 0.60572 0.84715 0.0
C257 C 0.62356 0.60523 0.85739 0.0
C258 C 0.62178 0.61314 0.89428 0.0
H259 H 0.63621 0.59483 0.02866 0.0
H260 H 0.63156 0.59172 0.97472 0.0
H261 H 0.65639 0.60829 0.9934 0.0
H262 H 0.66872 0.62945 0.93148 0.0
H263 H 0.6719 0.61545 0.86707 0.0
H264 H 0.05116 0.67551 0.35108 0.0
H265 H 0.03401 0.67037 0.41632 0.0
H266 H 0.98741 0.61225 0.37639 0.0
H267 H 0.00445 0.61714 0.31123 0.0
H268 H -0.00678 0.66106 0.43371 0.0
H269 H 0.00913 0.60144 0.48324 0.0
H270 H 0.02238 0.61834 0.44193 0.0
H271 H -0.00246 0.59756 0.43423 0.0
C272 C 0.03721 0.66167 0.35609 0.0
C273 C 0.02924 0.64665 0.32609 0.0
C274 C 0.02744 0.65879 0.39333 0.0
C275 C 0.00964 0.64084 0.40124 0.0
C276 C 0.00133 0.62608 0.37099 0.0
H277 H 0.9314 0.58736 0.60626 0.0
H278 H 0.94789 0.59574 0.54013 0.0
C279 C 0.01105 0.62895 0.33375 0.0
C280 C -6e-05 0.63729 0.44147 0.0
H281 H 0.98726 0.60701 0.52465 0.0
C282 C 0.99196 0.64932 0.45376 0.0
C283 C -0.00157 0.622 0.46743 0.0
C284 C 0.00746 0.60918 0.45633 0.0
C285 C 0.98197 0.64607 0.49107 0.0
C286 C 0.9803 0.63063 0.51688 0.0
C287 C 0.98851 0.61878 0.5047 0.0
C288 C 0.96982 0.62619 0.55645 0.0
C289 C 0.97281 0.65878 0.50201 0.0
C290 C 0.97673 0.64054 0.58759 0.0
C291 C 0.96727 0.63583 0.62549 0.0
C292 C 0.95088 0.6166 0.63294 0.0
C293 C 0.94399 0.6023 0.60157 0.0
C294 C 0.95339 0.60706 0.56373 0.0
H295 H 0.97099 0.66634 0.47497 0.0
H296 H 0.95794 0.6496 0.51662 0.0
H297 H 0.98275 0.67055 0.52383 0.0
H298 H 0.98966 0.65526 0.58286 0.0
H299 H 0.973 0.64714 0.64909 0.0
H300 H 0.38895 0.0342 0.87173 0.0
H301 H 0.37712 0.0155 0.93513 0.0
H302 H 0.32618 0.02449 0.93487 0.0
H303 H 0.33786 0.04323 0.8711 0.0
H304 H 0.37009 0.03136 0.0095 0.0
H305 H 0.3022 0.96287 0.95317 0.0
H306 H 0.3222 0.97958 0.91969 0.0
H307 H 0.30499 0.98675 0.93946 0.0
C308 C 0.37514 0.03211 0.88491 0.0
C309 C 0.36434 0.04022 0.86635 0.0
C310 C 0.36843 0.02144 0.92116 0.0
C311 C 0.35073 0.01853 0.93942 0.0
C312 C 0.33975 0.02638 0.92089 0.0
H313 H 0.29636 0.95263 0.16471 0.0
H314 H 0.30264 0.9727 0.10298 0.0
C315 C 0.34649 0.03714 0.88458 0.0
C316 C 0.34438 0.00793 0.97873 0.0
H317 H 0.30952 0.96414 0.0229 0.0
C318 C 0.35678 0.01672 0.01255 0.0
C319 C 0.32691 0.98895 0.98255 0.0
C320 C 0.31329 0.97883 0.94684 0.0
C321 C 0.3524 0.00682 0.05003 0.0
C322 C 0.3354 0.98746 0.05346 0.0
C323 C 0.32258 0.97896 0.02004 0.0
C324 C 0.33146 0.97533 0.09072 0.0
C325 C 0.36607 0.01715 0.08559 0.0
C326 C 0.34543 0.96993 0.10378 0.0
C327 C 0.34193 0.95853 0.13888 0.0
C328 C 0.32428 0.95217 0.16151 0.0
C329 C 0.31014 0.95736 0.14805 0.0
C330 C 0.31368 0.9688 0.11281 0.0
H331 H 0.37454 0.03369 0.08157 0.0
H332 H 0.35749 0.01358 0.11443 0.0
H333 H 0.37712 0.01196 0.08816 0.0
H334 H 0.35905 0.97447 0.08666 0.0
H335 H 0.35308 0.9547 0.14821 0.0
H336 H 0.37418 0.38442 0.32045 0.0
H337 H 0.38034 0.37239 0.38453 0.0
H338 H 0.32124 0.35684 0.42631 0.0
H339 H 0.31485 0.36867 0.36231 0.0
H340 H 0.37927 0.38768 0.46189 0.0
H341 H 0.32465 0.30617 0.45082 0.0
H342 H 0.33258 0.32258 0.40722 0.0
H343 H 0.31427 0.32215 0.44168 0.0
C344 C 0.3624 0.37823 0.34306 0.0
C345 C 0.34403 0.3775 0.33629 0.0
C346 C 0.36596 0.37138 0.37964 0.0
C347 C 0.35116 0.36352 0.40988 0.0
C348 C 0.33271 0.3625 0.40302 0.0
H349 H 0.34551 0.32548 0.65907 0.0
H350 H 0.33856 0.3336 0.59136 0.0
C351 C 0.32914 0.36939 0.36651 0.0
C352 C 0.3555 0.35764 0.44965 0.0
H353 H 0.34024 0.31825 0.51493 0.0
C354 C 0.37086 0.37247 0.47341 0.0
C355 C 0.34438 0.33782 0.46457 0.0
C356 C 0.32815 0.32119 0.43967 0.0
C357 C 0.37516 0.36812 0.51217 0.0
C358 C 0.36405 0.34829 0.52714 0.0
C359 C 0.34872 0.33343 0.50332 0.0
C360 C 0.3681 0.34276 0.56758 0.0
C361 C 0.3912 0.3849 0.53718 0.0
C362 C 0.38688 0.34487 0.5763 0.0
C363 C 0.39093 0.34034 0.61493 0.0
C364 C 0.37618 0.33343 0.64546 0.0
C365 C 0.3572 0.33083 0.63629 0.0
C366 C 0.35319 0.33543 0.59763 0.0
H367 H 0.39455 0.39985 0.52589 0.0
H368 H 0.38667 0.38352 0.56955 0.0
H369 H 0.4052 0.38416 0.53543 0.0
H370 H 0.39844 0.3501 0.55324 0.0
H371 H 0.40565 0.34235 0.62087 0.0
H372 H 0.98656 0.60826 0.8004 0.0
H373 H 0.00626 0.62283 0.86206 0.0
H374 H 0.95986 0.63293 0.90947 0.0
H375 H 0.93999 0.61834 0.84802 0.0
H376 H 0.01945 0.6623 0.90064 0.0
H377 H 0.96723 0.59666 -0.00526 0.0
H378 H 0.96758 0.5956 0.94001 0.0
H379 H 0.95625 0.60823 0.96482 0.0
C380 C 0.98059 0.61371 0.82378 0.0
C381 C 0.96163 0.61197 0.81949 0.0
C382 C 0.99189 0.62206 0.8589 0.0
C383 C 0.98436 0.6287 0.89033 0.0
C384 C 0.96577 0.62765 0.88563 0.0
H385 H 0.02804 0.66202 0.13824 0.0
H386 H 0.00894 0.65599 0.07541 0.0
C387 C 0.95449 0.61936 0.85048 0.0
C388 C -0.00439 0.6359 0.92873 0.0
H389 H -0.00508 0.62291 0.02789 0.0
C390 C 0.0141 0.65379 0.92857 0.0
C391 C 0.98845 0.62474 0.96499 0.0
C392 C 0.96886 0.60516 0.9664 0.0
C393 C 0.02575 0.66081 0.96393 0.0
C394 C 0.01886 0.64935 -3e-05 0.0
C395 C 0.00015 0.63168 0.00022 0.0
C396 C 0.03119 0.65477 0.03726 0.0
C397 C 0.04522 0.68049 0.9624 0.0
C398 C 0.05001 0.65607 0.0366 0.0
C399 C 0.06099 0.65959 0.07235 0.0
C400 C 0.05322 0.66161 0.10955 0.0
C401 C 0.03444 0.66051 0.11008 0.0
C402 C 0.02351 0.65709 0.07423 0.0
H403 H 0.04519 0.69021 0.93753 0.0
H404 H 0.04819 0.68874 0.99155 0.0
H405 H 0.0577 0.67753 0.95657 0.0
H406 H 0.05599 0.65382 0.00859 0.0
H407 H 0.07535 0.66024 0.07093 0.0
H408 H 0.31763 0.93498 0.38099 0.0
H409 H 0.31932 0.94989 0.44733 0.0
H410 H 0.36504 0.00742 0.40269 0.0
H411 H 0.36325 0.9927 0.33591 0.0
H412 H 0.35273 0.96748 0.49565 0.0
H413 H 0.32714 0.02159 0.46139 0.0
H414 H 0.32309 0.0016 0.4271 0.0
H415 H 0.34709 0.0242 0.42911 0.0
C416 C 0.32788 0.95087 0.38507 0.0
C417 C 0.34036 0.96266 0.35319 0.0
C418 C 0.3288 0.95935 0.42301 0.0
C419 C 0.34213 0.97978 0.42978 0.0
C420 C 0.35434 0.9917 0.39785 0.0
H421 H 0.38963 0.0578 0.63518 0.0
H422 H 0.38007 0.0422 0.56829 0.0
C423 C 0.35339 0.98324 0.35978 0.0
C424 C 0.34442 0.98821 0.47111 0.0
H425 H 0.34294 0.02514 0.52567 0.0
C426 C 0.35036 0.97993 0.50236 0.0
C427 C 0.34136 0.00447 0.47965 0.0
C428 C 0.33414 0.01338 0.44764 0.0
C429 C 0.35396 0.9879 0.54172 0.0
C430 C 0.35122 0.00437 0.55013 0.0
C431 C 0.34498 0.01247 0.51906 0.0
C432 C 0.35583 0.01404 0.59051 0.0
C433 C 0.36137 0.97908 0.57361 0.0
C434 C 0.34506 0.00348 0.62504 0.0
C435 C 0.35053 0.01232 0.66345 0.0
C436 C 0.3668 0.0319 0.66784 0.0
C437 C 0.37709 0.04265 0.63293 0.0
C438 C 0.37162 0.0338 0.59464 0.0
H439 H 0.36669 0.96935 0.56011 0.0
H440 H 0.3738 0.99112 0.59143 0.0
H441 H 0.34895 0.96984 0.59487 0.0
H442 H 0.33261 0.9883 0.62232 0.0
H443 H 0.34221 0.0037 0.68968 0.0
H444 H 0.38084 0.37659 0.81455 0.0
H445 H 0.36489 0.3809 0.87503 0.0
H446 H 0.35275 0.32328 0.91958 0.0
H447 H 0.36868 0.31879 0.85935 0.0
H448 H 0.32423 0.35411 0.91074 0.0
H449 H 0.38836 0.36585 0.00793 0.0
H450 H 0.39026 0.36815 0.95335 0.0
H451 H 0.37723 0.34381 0.97644 0.0
C452 C 0.37462 0.36474 0.83701 0.0
C453 C 0.37622 0.34744 0.83237 0.0
C454 C 0.36547 0.36721 0.87144 0.0
C455 C 0.35788 0.35249 0.90178 0.0
C456 C 0.35873 0.33487 0.89656 0.0
H457 H 0.32207 0.35933 0.14916 0.0
H458 H 0.32822 0.34701 0.0854 0.0
C459 C 0.36781 0.33234 0.86212 0.0
C460 C 0.35015 0.35613 0.93996 0.0
H461 H 0.36164 0.36683 0.0401 0.0
C462 C 0.3323 0.35681 0.93913 0.0
C463 C 0.36077 0.35956 0.97679 0.0
C464 C 0.3803 0.35947 0.97894 0.0
C465 C 0.32474 0.36087 0.97445 0.0
C466 C 0.33562 0.36479 0.01115 0.0
C467 C 0.3533 0.36376 0.01197 0.0
C468 C 0.32961 0.37098 0.04873 0.0
C469 C 0.30511 0.36073 0.97219 0.0
C470 C 0.32823 0.38847 0.0492 0.0
C471 C 0.32462 0.39549 0.08551 0.0
C472 C 0.32261 0.38529 0.12214 0.0
C473 C 0.3236 0.36755 0.12147 0.0
C474 C 0.32709 0.36048 0.08508 0.0
H475 H 0.29577 0.35138 0.94651 0.0
H476 H 0.29642 0.35502 0.00076 0.0
H477 H 0.30817 0.37626 0.96718 0.0
H478 H 0.33065 0.3971 0.02173 0.0
H479 H 0.32405 0.40925 0.08502 0.0
H480 H 0.94108 0.31923 0.63801 0.0
H481 H 0.95815 0.32333 0.57305 0.0
H482 H 0.99102 0.38739 0.59061 0.0
H483 H 0.97435 0.38345 0.65574 0.0
H484 H 0.95641 0.34361 0.50696 0.0
H485 H 0.03509 0.37606 0.55738 0.0
H486 H 0.01417 0.36395 0.59196 0.0
H487 H 0.02361 0.38962 0.5771 0.0
C488 C 0.95214 0.33418 0.62829 0.0
C489 C 0.95638 0.35103 0.65205 0.0
C490 C 0.96186 0.33648 0.59118 0.0
C491 C 0.97604 0.35563 0.57729 0.0
C492 C 0.98047 0.37244 0.60118 0.0
H493 H 0.01208 0.40298 0.33906 0.0
H494 H -0.00478 0.38976 0.40384 0.0
C495 C 0.97082 0.37016 0.63832 0.0
C496 C 0.9852 0.35827 0.53659 0.0
H497 H 0.03012 0.38081 0.48711 0.0
C498 C 0.97253 0.3515 0.5026 0.0
C499 C 0.0062 0.36825 0.53099 0.0
C500 C 0.02055 0.3747 0.56634 0.0
C501 C 0.98033 0.35531 0.46306 0.0
C502 C 0.00133 0.36652 0.45747 0.0
C503 C 0.014 0.37242 0.49145 0.0
C504 C 0.01048 0.37321 0.41683 0.0
C505 C 0.966 0.34739 0.42769 0.0
C506 C 0.02486 0.36852 0.40285 0.0
C507 C 0.03468 0.37622 0.36596 0.0
C508 C 0.03036 0.38886 0.34252 0.0
C509 C 0.01568 0.39322 0.35626 0.0
C510 C 0.00592 0.38556 0.39318 0.0
H511 H 0.95152 0.3341 0.43652 0.0
H512 H 0.96279 0.35919 0.41716 0.0
H513 H 0.97247 0.34319 0.40193 0.0
H514 H 0.02867 0.3591 0.42078 0.0
H515 H 0.04592 0.37258 0.35622 0.0
H516 H 0.67291 0.05364 0.84938 0.0
H517 H 0.66907 0.03679 0.91439 0.0
H518 H 0.61036 0.98982 0.87822 0.0
H519 H 0.61424 0.00627 0.81288 0.0
H520 H 0.64149 0.03033 0.9707 0.0
H521 H 0.63366 0.95762 0.92553 0.0
H522 H 0.64294 0.97868 0.89124 0.0
H523 H 0.61638 0.96259 0.89862 0.0
C524 C 0.65931 0.03955 0.85501 0.0
C525 C 0.64385 0.0313 0.82602 0.0
C526 C 0.65716 0.02995 0.89216 0.0
C527 C 0.63955 0.01192 0.90095 0.0
C528 C 0.62428 0.00344 0.87171 0.0
H529 H 0.57941 0.96581 0.1249 0.0
H530 H 0.59374 0.98324 0.0612 0.0
C531 C 0.62647 0.01296 0.83446 0.0
C532 C 0.63627 0.00297 0.94197 0.0
H533 H 0.62082 0.95879 0.99175 0.0
C534 C 0.63728 0.01476 0.97538 0.0
C535 C 0.63111 0.98278 0.94818 0.0
C536 C 0.63117 0.96976 0.914 0.0
C537 C 0.63226 0.00663 0.01452 0.0
C538 C 0.62561 0.98604 0.02019 0.0
C539 C 0.62564 0.97451 0.98721 0.0
C540 C 0.61748 0.97596 0.05952 0.0
C541 C 0.63394 0.02012 0.04934 0.0
C542 C 0.62579 0.96567 0.07923 0.0
C543 C 0.6175 0.9555 0.11556 0.0
C544 C 0.60069 0.95537 0.13262 0.0
C545 C 0.59244 0.96572 0.11275 0.0
C546 C 0.60069 0.97581 0.07645 0.0
H547 H 0.64509 0.03604 0.04276 0.0
H548 H 0.61921 0.01912 0.05421 0.0
H549 H 0.63832 0.01564 0.07786 0.0
H550 H 0.63867 0.96549 0.06645 0.0
H551 H 0.62418 0.94763 0.13009 0.0
H552 H 0.61368 0.66937 0.36105 0.0
H553 H 0.62731 0.66529 0.42507 0.0
H554 H 0.60785 0.60383 0.39405 0.0
H555 H 0.5945 0.60784 0.32981 0.0
H556 H 0.60522 0.6393 0.48495 0.0
H557 H 0.66446 0.62348 0.43452 0.0
H558 H 0.65364 0.63416 0.40124 0.0
H559 H 0.64092 0.60754 0.41008 0.0
C560 C 0.61259 0.65508 0.36755 0.0
C561 C 0.60295 0.6389 0.3404 0.0
C562 C 0.62039 0.65279 0.40413 0.0
C563 C 0.61881 0.63434 0.41407 0.0
C564 C 0.60965 0.61833 0.38658 0.0
H565 H 0.60639 0.57691 0.64076 0.0
H566 H 0.6029 0.59069 0.57663 0.0
C567 C 0.60188 0.62061 0.34998 0.0
C568 C 0.62496 0.63119 0.45468 0.0
H569 H 0.65213 0.61336 0.50265 0.0
C570 C 0.61571 0.63392 0.48888 0.0
C571 C 0.63886 0.62445 0.4598 0.0
C572 C 0.6502 0.62244 0.42447 0.0
C573 C 0.61922 0.62912 0.52791 0.0
C574 C 0.63203 0.62105 0.53268 0.0
C575 C 0.6421 0.6193 0.49879 0.0
C576 C 0.63427 0.61328 0.57219 0.0
C577 C 0.60898 0.6325 0.56362 0.0
C578 C 0.65315 0.62118 0.59052 0.0
C579 C 0.65523 0.61326 0.62717 0.0
C580 C 0.63846 0.59719 0.64585 0.0
C581 C 0.61959 0.58934 0.62731 0.0
C582 C 0.61753 0.59727 0.59076 0.0
H583 H 0.60484 0.6441 0.55683 0.0
H584 H 0.595 0.61832 0.57074 0.0
H585 H 0.61872 0.63718 0.59095 0.0
H586 H 0.66626 0.63345 0.57645 0.0
H587 H 0.66999 0.61959 0.64063 0.0
H588 H 0.085 0.6149 0.32576 0.0
H589 H 0.08829 0.58491 0.32178 0.0
H590 H 0.08547 0.58614 0.19118 0.0
H591 H 0.0823 0.61611 0.19474 0.0
H592 H 0.06026 0.54791 0.28523 0.0
H593 H 0.13523 0.58059 0.21297 0.0
H594 H 0.12646 0.59575 0.23761 0.0
H595 H 0.11805 0.58621 0.1873 0.0
C596 C 0.08526 0.60889 0.29617 0.0
C597 C 0.08342 0.61791 0.26056 0.0
C598 C 0.08713 0.59177 0.29398 0.0
C599 C 0.0874 0.58351 0.25618 0.0
C600 C 0.08568 0.59252 0.22061 0.0
H601 H 0.08532 0.47775 0.16511 0.0
H602 H 0.08725 0.51014 0.17513 0.0
C603 C 0.08374 0.60958 0.22275 0.0
C604 C 0.08836 0.56483 0.25385 0.0
H605 H 0.11577 0.54495 0.21515 0.0
C606 C 0.07248 0.54726 0.27031 0.0
C607 C 0.1043 0.5641 0.23419 0.0
C608 C 0.12208 0.58269 0.21729 0.0
C609 C 0.07178 0.52878 0.26651 0.0
C610 C 0.08762 0.52799 0.24644 0.0
C611 C 0.10366 0.54563 0.23049 0.0
C612 C 0.08751 0.50887 0.24071 0.0
C613 C 0.05376 0.51017 0.28275 0.0
C614 C 0.08748 0.49767 0.27428 0.0
C615 C 0.08629 0.47912 0.2687 0.0
C616 C 0.08528 0.47153 0.22938 0.0
C617 C 0.08601 0.48313 0.19579 0.0
C618 C 0.08713 0.50165 0.20143 0.0
H619 H 0.04088 0.51258 0.28822 0.0
H620 H 0.04895 0.49741 0.26141 0.0
H621 H 0.05773 0.50596 0.31206 0.0
H622 H 0.08819 0.50319 0.30483 0.0
H623 H 0.08592 0.47064 0.29522 0.0
H624 H 0.46852 0.09815 0.77594 0.0
H625 H 0.50261 0.10342 0.77074 0.0
H626 H 0.47904 0.04435 0.7195 0.0
H627 H 0.44505 0.03889 0.72459 0.0
H628 H 0.51713 0.07756 0.80591 0.0
H629 H 0.52313 0.08356 0.638 0.0
H630 H 0.50526 0.08743 0.66641 0.0
H631 H 0.50048 0.06246 0.65671 0.0
C632 C 0.47061 0.0863 0.76348 0.0
C633 C 0.45409 0.06812 0.75055 0.0
C634 C 0.49006 0.08934 0.76059 0.0
C635 C 0.49328 0.07436 0.74429 0.0
C636 C 0.47684 0.05619 0.73164 0.0
H637 H 0.58353 0.04508 0.6945 0.0
H638 H 0.5539 0.04857 0.70108 0.0
C639 C 0.45743 0.05308 0.73475 0.0
C640 C 0.51373 0.07735 0.74108 0.0
H641 H 0.54742 0.07849 0.67238 0.0
C642 C 0.52396 0.07808 0.7768 0.0
C643 C 0.52248 0.07802 0.70301 0.0
C644 C 0.51239 0.07801 0.66378 0.0
C645 C 0.54234 0.07838 0.77542 0.0
C646 C 0.5508 0.07838 0.73726 0.0
C647 C 0.54088 0.07844 0.70158 0.0
C648 C 0.5691 0.07675 0.73349 0.0
C649 C 0.55203 0.07769 0.81473 0.0
C650 C 0.58755 0.09157 0.74923 0.0
C651 C 0.60458 0.08957 0.74572 0.0
C652 C 0.60343 0.07279 0.72607 0.0
C653 C 0.58496 0.05818 0.70983 0.0
C654 C 0.568 0.06015 0.71351 0.0
H655 H 0.54154 0.07346 0.84083 0.0
H656 H 0.55749 0.06683 0.81267 0.0
H657 H 0.56509 0.09272 0.82099 0.0
H658 H 0.58881 0.1047 0.76406 0.0
H659 H 0.61862 0.10114 0.75833 0.0
H660 H 0.50891 0.60473 0.16788 0.0
H661 H 0.4766 0.57398 0.17632 0.0
H662 H 0.48625 0.57612 0.30556 0.0
H663 H 0.51852 0.60689 0.29755 0.0
H664 H 0.47126 0.53774 0.21175 0.0
H665 H 0.42895 0.56768 0.29461 0.0
H666 H 0.4515 0.58354 0.26619 0.0
H667 H 0.45308 0.57446 0.31547 0.0
C668 C 0.50409 0.59878 0.19816 0.0
C669 C 0.51628 0.60827 0.23205 0.0
C670 C 0.48564 0.58122 0.20289 0.0
C671 C 0.47898 0.57296 0.24159 0.0
C672 C 0.49098 0.58248 0.27553 0.0
H673 H 0.37708 0.46423 0.33341 0.0
H674 H 0.40755 0.49684 0.32531 0.0
C675 C 0.50947 0.6 0.27083 0.0
C676 C 0.45999 0.55376 0.24621 0.0
H677 H 0.41354 0.5323 0.28948 0.0
C678 C 0.45857 0.53653 0.22851 0.0
C679 C 0.44359 0.5523 0.26838 0.0
C680 C 0.4442 0.57048 0.28702 0.0
C681 C 0.44125 0.51774 0.23293 0.0
C682 C 0.42477 0.51626 0.25489 0.0
C683 C 0.4262 0.53351 0.27263 0.0
C684 C 0.40593 0.49691 0.25975 0.0
C685 C 0.44096 0.49957 0.21492 0.0
C686 C 0.39473 0.48639 0.22562 0.0
C687 C 0.3774 0.46776 0.2301 0.0
C688 C 0.37083 0.45938 0.26888 0.0
C689 C 0.38176 0.47024 0.30312 0.0
C690 C 0.39915 0.48887 0.29857 0.0
H691 H 0.45634 0.50236 0.20886 0.0
H692 H 0.43321 0.48641 0.23539 0.0
H693 H 0.43275 0.49576 0.18564 0.0
H694 H 0.39946 0.49256 0.19545 0.0
H695 H 0.36923 0.45987 0.20311 0.0
H696 H 0.90405 0.52579 0.78397 0.0
H697 H 0.90137 0.49299 0.79249 0.0
H698 H 0.88841 0.48082 0.66499 0.0
H699 H 0.89113 0.51364 0.65601 0.0
H700 H 0.86846 0.45292 0.77199 0.0
H701 H 0.93883 0.4752 0.68635 0.0
H702 H 0.93263 0.4933 0.70609 0.0
H703 H 0.92052 0.47933 0.66109 0.0
C704 C 0.90051 0.51611 0.75774 0.0
C705 C 0.89797 0.52239 0.71921 0.0
C706 C 0.89894 0.49737 0.76272 0.0
C707 C 0.89494 0.48466 0.72928 0.0
C708 C 0.89177 0.49058 0.69105 0.0
H709 H 0.89796 0.37414 0.70096 0.0
H710 H 0.89361 0.40313 0.69033 0.0
C711 C 0.89327 0.5093 0.68603 0.0
C712 C 0.89479 0.46552 0.73425 0.0
H713 H 0.92073 0.44183 0.70937 0.0
C714 C 0.87983 0.45042 0.75828 0.0
C715 C 0.90968 0.4624 0.71627 0.0
C716 C 0.92645 0.47843 0.69123 0.0
C717 C 0.87927 0.43211 0.76457 0.0
C718 C 0.89433 0.42909 0.74702 0.0
C719 C 0.90918 0.44417 0.72271 0.0
C720 C 0.89534 0.41063 0.75406 0.0
C721 C 0.86241 0.41609 0.7894 0.0
C722 C 0.89774 0.40522 0.79345 0.0
C723 C 0.90014 0.3886 0.79968 0.0
C724 C 0.90044 0.37723 0.76654 0.0
C725 C 0.89782 0.38258 0.72715 0.0
C726 C 0.89533 0.39913 0.721 0.0
H727 H 0.84926 0.41835 0.79045 0.0
H728 H 0.85755 0.40093 0.777 0.0
H729 H 0.86766 0.41669 0.821 0.0
H730 H 0.89827 0.41416 0.81932 0.0
H731 H 0.90224 0.38495 0.83037 0.0
H732 H 0.36982 0.89298 0.28018 0.0
H733 H 0.39808 0.88703 0.28671 0.0
H734 H 0.43838 0.9471 0.24477 0.0
H735 H 0.41033 0.95329 0.23864 0.0
H736 H 0.42476 0.8889 0.22743 0.0
H737 H 0.46456 0.94382 0.35039 0.0
H738 H 0.43883 0.9355 0.3371 0.0
H739 H 0.45897 0.95447 0.30735 0.0
C740 C 0.38471 0.90495 0.27247 0.0
C741 C 0.38785 0.92366 0.25911 0.0
C742 C 0.40082 0.90152 0.2762 0.0
C743 C 0.42034 0.91673 0.26686 0.0
C744 C 0.42348 0.93531 0.25298 0.0
H745 H 0.52626 0.91226 0.20665 0.0
H746 H 0.49463 0.91234 0.2074 0.0
C747 C 0.40741 0.93877 0.24927 0.0
C748 C 0.43741 0.9131 0.2707 0.0
H749 H 0.48302 0.93093 0.31599 0.0
C750 C 0.43744 0.89795 0.24705 0.0
C751 C 0.45374 0.92472 0.29683 0.0
C752 C 0.454 0.94041 0.32468 0.0
C753 C 0.45375 0.89461 0.24771 0.0
C754 C 0.47056 0.90696 0.27219 0.0
C755 C 0.47019 0.9216 0.29696 0.0
C756 C 0.48903 0.90553 0.27142 0.0
C757 C 0.45283 0.87789 0.22223 0.0
C758 C 0.49654 0.90195 0.30731 0.0
C759 C 0.51474 0.90205 0.30708 0.0
C760 C 0.5258 0.90585 0.27095 0.0
C761 C 0.51807 0.90916 0.23495 0.0
C762 C 0.49991 0.90909 0.23525 0.0
H763 H 0.4371 0.8663 0.21536 0.0
H764 H 0.4606 0.88413 0.19295 0.0
H765 H 0.46033 0.8706 0.23768 0.0
H766 H 0.48841 0.8993 0.3356 0.0
H767 H 0.52028 0.89948 0.33533 0.0
H768 H 0.60938 0.51914 0.84687 0.0
H769 H 0.57961 0.48573 0.84254 0.0
H770 H 0.58528 0.48713 0.71221 0.0
H771 H 0.61501 0.5204 0.71614 0.0
H772 H 0.54424 0.47682 0.79888 0.0
H773 H 0.57751 0.43177 0.74361 0.0
H774 H 0.59225 0.45604 0.76716 0.0
H775 H 0.58471 0.45421 0.715 0.0
C776 C 0.60444 0.51223 0.81732 0.0
C777 C 0.61456 0.52242 0.78185 0.0
C778 C 0.58744 0.49317 0.81493 0.0
C779 C 0.58044 0.4839 0.77712 0.0
C780 C 0.59068 0.49388 0.74174 0.0
H781 H 0.4772 0.38083 0.67832 0.0
H782 H 0.50964 0.41068 0.69167 0.0
C783 C 0.6076 0.51295 0.74405 0.0
C784 C 0.5616 0.46443 0.77421 0.0
H785 H 0.54193 0.41647 0.73957 0.0
C786 C 0.54371 0.46353 0.78639 0.0
C787 C 0.56104 0.44722 0.75767 0.0
C788 C 0.57991 0.44723 0.74541 0.0
C789 C 0.52513 0.44602 0.78115 0.0
C790 C 0.52452 0.42885 0.7641 0.0
C791 C 0.54246 0.42966 0.75261 0.0
C792 C 0.50533 0.41015 0.75666 0.0
C793 C 0.50629 0.44632 0.79244 0.0
C794 C 0.49236 0.39973 0.7889 0.0
C795 C 0.47377 0.38275 0.78137 0.0
C796 C 0.4679 0.37577 0.74146 0.0
C797 C 0.48123 0.38585 0.70938 0.0
C798 C 0.49979 0.40289 0.71695 0.0
H799 H 0.50903 0.46186 0.79556 0.0
H800 H 0.49438 0.43834 0.76939 0.0
H801 H 0.50067 0.43864 0.82202 0.0
H802 H 0.49656 0.40484 0.81986 0.0
H803 H 0.46392 0.37522 0.80679 0.0
H804 H 0.10011 0.35899 0.24045 0.0
H805 H 0.13041 0.35623 0.24261 0.0
H806 H 0.16657 0.42034 0.25641 0.0
H807 H 0.13642 0.42327 0.25466 0.0
H808 H 0.16404 0.37474 0.19014 0.0
H809 H 0.18494 0.39809 0.35044 0.0
H810 H 0.16028 0.39035 0.33058 0.0
H811 H 0.18072 0.41516 0.32067 0.0
C812 C 0.1145 0.3725 0.24411 0.0
C813 C 0.11586 0.39134 0.24756 0.0
C814 C 0.13177 0.37088 0.24531 0.0
C815 C 0.15064 0.38804 0.25028 0.0
C816 C 0.15208 0.40688 0.25336 0.0
H817 H 0.27367 0.41637 0.25505 0.0
H818 H 0.2419 0.41627 0.25592 0.0
C819 C 0.13485 0.40853 0.25212 0.0
C820 C 0.16892 0.38636 0.25107 0.0
H821 H 0.20925 0.39589 0.30962 0.0
C822 C 0.17386 0.3792 0.21633 0.0
C823 C 0.18164 0.3922 0.28534 0.0
C824 C 0.17659 0.39922 0.32404 0.0
C825 C 0.19158 0.37828 0.21451 0.0
C826 C 0.20444 0.38437 0.24861 0.0
C827 C 0.19935 0.39128 0.28353 0.0
C828 C 0.22352 0.38417 0.24832 0.0
C829 C 0.19671 0.37139 0.17571 0.0
C830 C 0.22364 0.3661 0.24428 0.0
C831 C 0.24177 0.36609 0.24371 0.0
C832 C 0.26007 0.38416 0.2474 0.0
C833 C 0.25984 0.4022 0.25203 0.0
C834 C 0.24172 0.40218 0.25258 0.0
H835 H 0.18772 0.37169 0.14963 0.0
H836 H 0.21286 0.38093 0.16833 0.0
H837 H 0.19353 0.35576 0.17958 0.0
H838 H 0.2097 0.352 0.24171 0.0
H839 H 0.24143 0.35194 0.24032 0.0
H840 H 0.8855 0.25024 0.7629 0.0
H841 H 0.85447 0.21774 0.76018 0.0
H842 H 0.82065 0.24765 0.73883 0.0
H843 H 0.85146 0.28011 0.74118 0.0
H844 H 0.81947 0.20414 0.80933 0.0
H845 H 0.80342 0.20638 0.64581 0.0
H846 H 0.82777 0.22257 0.66783 0.0
H847 H 0.80797 0.22829 0.67376 0.0
C848 C 0.87146 0.2499 0.75752 0.0
C849 C 0.87095 0.26774 0.75204 0.0
C850 C 0.85378 0.23134 0.756 0.0
C851 C 0.83538 0.23035 0.74868 0.0
C852 C 0.83478 0.24812 0.74373 0.0
H853 H 0.71085 0.14053 0.73345 0.0
H854 H 0.74356 0.17115 0.73549 0.0
C855 C 0.8524 0.26665 0.74531 0.0
C856 C 0.81665 0.21079 0.74705 0.0
H857 H 0.77716 0.18108 0.68556 0.0
C858 C 0.81027 0.19896 0.78222 0.0
C859 C 0.80477 0.20417 0.71157 0.0
C860 C 0.81138 0.2159 0.67245 0.0
C861 C 0.79191 0.18091 0.78325 0.0
C862 C 0.77986 0.17448 0.74796 0.0
C863 C 0.78643 0.18615 0.7126 0.0
C864 C 0.76017 0.15587 0.74726 0.0
C865 C 0.78525 0.16921 0.8224 0.0
C866 C 0.75876 0.13716 0.75283 0.0
C867 C 0.7401 0.11963 0.75172 0.0
C868 C 0.72255 0.12053 0.74481 0.0
C869 C 0.72407 0.13932 0.73894 0.0
C870 C 0.74273 0.15682 0.74005 0.0
H871 H 0.79395 0.1784 0.84884 0.0
H872 H 0.76907 0.16356 0.828 0.0
H873 H 0.7875 0.15609 0.82027 0.0
H874 H 0.77212 0.13611 0.75769 0.0
H875 H 0.73946 0.10538 0.75616 0.0
H876 H 0.56017 0.70455 0.27021 0.0
H877 H 0.55934 0.73581 0.27335 0.0
H878 H 0.61742 0.76717 0.21608 0.0
H879 H 0.61857 0.73602 0.2134 0.0
H880 H 0.61423 0.78691 0.28345 0.0
H881 H 0.54996 0.76449 0.17904 0.0
H882 H 0.5447 0.74736 0.22033 0.0
H883 H 0.56314 0.75068 0.18295 0.0
C884 C 0.57274 0.71807 0.25812 0.0
C885 C 0.58941 0.7178 0.24141 0.0
C886 C 0.57218 0.73589 0.25974 0.0
C887 C 0.58817 0.7537 0.24435 0.0
C888 C 0.60489 0.75353 0.22792 0.0
H889 H 0.58755 0.86403 0.1972 0.0
H890 H 0.58925 0.83326 0.19238 0.0
C891 C 0.60551 0.73572 0.2264 0.0
C892 C 0.58767 0.77262 0.24638 0.0
H893 H 0.56088 0.79468 0.21625 0.0
C894 C 0.60262 0.78867 0.26864 0.0
C895 C 0.57264 0.7749 0.2266 0.0
C896 C 0.5568 0.75852 0.20055 0.0
C897 C 0.60275 0.80687 0.27225 0.0
C898 C 0.58731 0.80889 0.25367 0.0
C899 C 0.57257 0.79297 0.23082 0.0
C900 C 0.58636 0.82753 0.257 0.0
C901 C 0.61955 0.82387 0.2954 0.0
C902 C 0.58393 0.83434 0.29493 0.0
C903 C 0.58299 0.85194 0.29784 0.0
C904 C 0.58433 0.86296 0.2628 0.0
C905 C 0.58651 0.85593 0.22479 0.0
C906 C 0.58747 0.83835 0.22194 0.0
H907 H 0.63269 0.8217 0.29875 0.0
H908 H 0.62449 0.83844 0.28005 0.0
H909 H 0.61419 0.82466 0.32625 0.0
H910 H 0.58264 0.82596 0.32226 0.0
H911 H 0.58119 0.85689 0.32753 0.0
H912 H 0.85122 0.57145 0.73372 0.0
H913 H 0.82064 0.57356 0.73373 0.0
H914 H 0.85587 0.63804 0.7398 0.0
H915 H 0.88665 0.63611 0.74029 0.0
H916 H 0.82382 0.62096 0.79521 0.0
H917 H 0.79883 0.59179 0.63948 0.0
H918 H 0.8042 0.57585 0.67035 0.0
H919 H 0.82406 0.6005 0.65704 0.0
C920 C 0.85251 0.58611 0.73492 0.0
C921 C 0.87137 0.60363 0.73683 0.0
C922 C 0.83501 0.58727 0.73468 0.0
C923 C 0.83605 0.60597 0.73605 0.0
C924 C 0.85481 0.62349 0.73841 0.0
H925 H 0.73998 0.63525 0.74777 0.0
H926 H 0.77293 0.6378 0.74432 0.0
C927 C 0.87235 0.62235 0.73867 0.0
C928 C 0.81745 0.60708 0.73622 0.0
H929 H 0.7747 0.5934 0.68238 0.0
C930 C 0.81315 0.61516 0.7704 0.0
C931 C 0.80365 0.59953 0.70369 0.0
C932 C 0.80796 0.5916 0.66538 0.0
C933 C 0.79498 0.61514 0.77362 0.0
C934 C 0.78097 0.6071 0.74155 0.0
C935 C 0.78548 0.59946 0.70697 0.0
C936 C 0.76118 0.60574 0.74384 0.0
C937 C 0.7906 0.62307 0.81185 0.0
C938 C 0.74373 0.58688 0.74399 0.0
C939 C 0.72492 0.58536 0.7458 0.0
C940 C 0.72324 0.60271 0.74726 0.0
C941 C 0.74077 0.62161 0.74686 0.0
C942 C 0.75961 0.62311 0.74508 0.0
H943 H 0.80108 0.62492 0.83682 0.0
H944 H 0.79215 0.63793 0.80552 0.0
H945 H 0.77501 0.61288 0.82228 0.0
H946 H 0.74468 0.57332 0.74291 0.0
H947 H 0.71172 0.57058 0.74598 0.0
H948 H 0.27455 0.85909 0.16446 0.0
H949 H 0.24222 0.82794 0.16891 0.0
H950 H 0.243 0.83393 0.29915 0.0
H951 H 0.27502 0.86509 0.29506 0.0
H952 H 0.23267 0.79266 0.21082 0.0
H953 H 0.18824 0.8262 0.26827 0.0
H954 H 0.21284 0.84105 0.2462 0.0
H955 H 0.21019 0.83262 0.29791 0.0
C956 C 0.26779 0.85381 0.19402 0.0
C957 C 0.27729 0.86463 0.22937 0.0
C958 C 0.24935 0.83603 0.19649 0.0
C959 C 0.2401 0.82887 0.23429 0.0
C960 C 0.24969 0.83946 0.26962 0.0
H961 H 0.13319 0.72391 0.32144 0.0
H962 H 0.16541 0.75498 0.31438 0.0
C963 C 0.26805 0.85722 0.2672 0.0
C964 C 0.22064 0.81005 0.23707 0.0
H965 H 0.17254 0.79062 0.27074 0.0
C966 C 0.21946 0.7922 0.22362 0.0
C967 C 0.20349 0.80956 0.25385 0.0
C968 C 0.20363 0.8284 0.26704 0.0
C969 C 0.20166 0.77375 0.22738 0.0
C970 C 0.1846 0.77326 0.24459 0.0
C971 C 0.18573 0.7911 0.25779 0.0
C972 C 0.16533 0.75438 0.24874 0.0
C973 C 0.20132 0.75488 0.21376 0.0
C974 C 0.15464 0.74397 0.21411 0.0
C975 C 0.13626 0.7263 0.21799 0.0
C976 C 0.12824 0.71876 0.25662 0.0
C977 C 0.13899 0.72929 0.29128 0.0
C978 C 0.15736 0.74703 0.28733 0.0
H979 H 0.21667 0.75724 0.20975 0.0
H980 H 0.19312 0.74258 0.23597 0.0
H981 H 0.19342 0.75001 0.1842 0.0
H982 H 0.16043 0.74961 0.18407 0.0
H983 H 0.12834 0.71858 0.19067 0.0
H984 H 0.35694 0.24978 0.72671 0.0
H985 H 0.35514 0.21715 0.72955 0.0
H986 H 0.41626 0.24567 0.77171 0.0
H987 H 0.41825 0.27833 0.76909 0.0
H988 H 0.38142 0.20624 0.68733 0.0
H989 H 0.38386 0.19994 0.85502 0.0
H990 H 0.37725 0.21684 0.83066 0.0
H991 H 0.40303 0.22316 0.8337 0.0
C992 C 0.36998 0.24911 0.73676 0.0
C993 C 0.38773 0.26663 0.74777 0.0
C994 C 0.36891 0.23048 0.73832 0.0
C995 C 0.38548 0.22905 0.75132 0.0
C996 C 0.40322 0.24648 0.76223 0.0
H997 H 0.41446 0.13518 0.77954 0.0
H998 H 0.41367 0.16652 0.77891 0.0
C999 C 0.40435 0.26512 0.7605 0.0
C1000 C 0.38448 0.20941 0.75223 0.0
H1001 H 0.38704 0.17583 0.81582 0.0
C1002 C 0.3825 0.19947 0.71538 0.0
C1003 C 0.38597 0.20077 0.78894 0.0
C1004 C 0.38748 0.2106 0.82943 0.0
C1005 C 0.3825 0.18127 0.71412 0.0
C1006 C 0.38407 0.17264 0.75084 0.0
C1007 C 0.38585 0.18251 0.78775 0.0
C1008 C 0.38426 0.15354 0.75158 0.0
C1009 C 0.38144 0.17178 0.67342 0.0
C1010 C 0.36783 0.13583 0.737 0.0
C1011 C 0.36827 0.11792 0.7371 0.0
C1012 C 0.38507 0.11739 0.7522 0.0
C1013 C 0.40132 0.13509 0.76761 0.0
C1014 C 0.4009 0.153 0.76731 0.0
H1015 H 0.38553 0.18272 0.64819 0.0
H1016 H 0.39154 0.16538 0.67247 0.0
H1017 H 0.36588 0.15944 0.66812 0.0
H1018 H 0.35466 0.13585 0.72558 0.0
H1019 H 0.35545 0.10451 0.72534 0.0
loop_
_geom_bond_atom_site_label_1
_geom_bond_atom_site_label_2
_geom_bond_distance
_geom_bond_site_symmetry_2
_ccdc_geom_bond_type
C0 O1 1.160 . S
C0 O7 1.185 . S
O1 C0 1.160 . S
O2 Zn3 1.899 . S
O2 C10 1.284 . S
Zn3 O2 1.899 . S
Zn3 O4 2.032 . S
Zn3 O7 2.086 . S
Zn3 O12 1.977 . S
O4 Zn3 2.032 . S
O4 C8 1.278 . S
C5 O6 1.203 . S
C5 O12 1.267 . S
O6 C5 1.203 . S
O7 C0 1.185 . S
O7 Zn3 2.086 . S
C8 O4 1.278 . S
C8 O9 1.211 . S
O9 C8 1.211 . S
C10 O2 1.284 . S
C10 O11 1.273 . S
O11 C10 1.273 . S
O12 Zn3 1.977 . S
O12 C5 1.267 . S
C13 O14 1.160 . S
C13 O20 1.185 . S
O14 C13 1.160 . S
O15 Zn16 1.899 . S
O15 C23 1.284 . S
Zn16 O15 1.899 . S
Zn16 O17 2.032 . S
Zn16 O20 2.086 . S
Zn16 O25 1.977 . S
O17 Zn16 2.032 . S
O17 C21 1.278 . S
C18 O19 1.203 . S
C18 O25 1.267 . S
O19 C18 1.203 . S
O20 C13 1.185 . S
O20 Zn16 2.086 . S
C21 O17 1.278 . S
C21 O22 1.211 . S
O22 C21 1.211 . S
C23 O15 1.284 . S
C23 O24 1.273 . S
O24 C23 1.273 . S
O25 Zn16 1.977 . S
O25 C18 1.267 . S
C26 O27 1.160 . S
C26 O33 1.185 . S
O27 C26 1.160 . S
O28 Zn29 1.899 . S
O28 C36 1.284 . S
Zn29 O28 1.899 . S
Zn29 O30 2.032 . S
Zn29 O33 2.086 . S
Zn29 O38 1.977 . S
O30 Zn29 2.032 . S
O30 C34 1.278 . S
C31 O32 1.203 . S
C31 O38 1.267 . S
O32 C31 1.203 . S
O33 C26 1.185 . S
O33 Zn29 2.086 . S
C34 O30 1.278 . S
C34 O35 1.211 . S
O35 C34 1.211 . S
C36 O28 1.284 . S
C36 O37 1.273 . S
O37 C36 1.273 . S
O38 Zn29 1.977 . S
O38 C31 1.267 . S
C39 O40 1.160 . S
C39 O46 1.185 . S
O40 C39 1.160 . S
O41 Zn42 1.899 . S
O41 C49 1.284 . S
Zn42 O41 1.899 . S
Zn42 O43 2.032 . S
Zn42 O46 2.086 . S
Zn42 O51 1.977 . S
O43 Zn42 2.032 . S
O43 C47 1.278 . S
C44 O45 1.203 . S
C44 O51 1.267 . S
O45 C44 1.203 . S
O46 C39 1.185 . S
O46 Zn42 2.086 . S
C47 O43 1.278 . S
C47 O48 1.211 . S
O48 C47 1.211 . S
C49 O41 1.284 . S
C49 O50 1.273 . S
O50 C49 1.273 . S
O51 Zn42 1.977 . S
O51 C44 1.267 . S
C52 O53 1.160 . S
C52 O59 1.185 . S
O53 C52 1.160 . S
O54 Zn55 1.899 . S
O54 C62 1.284 . S
Zn55 O54 1.899 . S
Zn55 O56 2.032 . S
Zn55 O59 2.086 . S
Zn55 O64 1.977 . S
O56 Zn55 2.032 . S
O56 C60 1.278 . S
C57 O58 1.203 . S
C57 O64 1.267 . S
O58 C57 1.203 . S
O59 C52 1.185 . S
O59 Zn55 2.086 . S
C60 O56 1.278 . S
C60 O61 1.211 . S
O61 C60 1.211 . S
C62 O54 1.284 . S
C62 O63 1.273 . S
O63 C62 1.273 . S
O64 Zn55 1.977 . S
O64 C57 1.267 . S
C65 O66 1.160 . S
C65 O72 1.185 . S
O66 C65 1.160 . S
O67 Zn68 1.899 . S
O67 C75 1.284 . S
Zn68 O67 1.899 . S
Zn68 O69 2.032 . S
Zn68 O72 2.086 . S
Zn68 O77 1.977 . S
O69 Zn68 2.032 . S
O69 C73 1.278 . S
C70 O71 1.203 . S
C70 O77 1.267 . S
O71 C70 1.203 . S
O72 C65 1.185 . S
O72 Zn68 2.086 . S
C73 O69 1.278 . S
C73 O74 1.211 . S
O74 C73 1.211 . S
C75 O67 1.284 . S
C75 O76 1.273 . S
O76 C75 1.273 . S
O77 Zn68 1.977 . S
O77 C70 1.267 . S
C78 O79 1.160 . S
C78 O85 1.185 . S
O79 C78 1.160 . S
O80 Zn81 1.899 . S
O80 C88 1.284 . S
Zn81 O80 1.899 . S
Zn81 O82 2.032 . S
Zn81 O85 2.086 . S
Zn81 O90 1.977 . S
O82 Zn81 2.032 . S
O82 C86 1.278 . S
C83 O84 1.203 . S
C83 O90 1.267 . S
O84 C83 1.203 . S
O85 C78 1.185 . S
O85 Zn81 2.086 . S
C86 O82 1.278 . S
C86 O87 1.211 . S
O87 C86 1.211 . S
C88 O80 1.284 . S
C88 O89 1.273 . S
O89 C88 1.273 . S
O90 Zn81 1.977 . S
O90 C83 1.267 . S
C91 O92 1.160 . S
C91 O98 1.185 . S
O92 C91 1.160 . S
O93 Zn94 1.899 . S
O93 C101 1.284 . S
Zn94 O93 1.899 . S
Zn94 O95 2.032 . S
Zn94 O98 2.086 . S
Zn94 O103 1.977 . S
O95 Zn94 2.032 . S
O95 C99 1.278 . S
C96 O97 1.203 . S
C96 O103 1.267 . S
O97 C96 1.203 . S
O98 C91 1.185 . S
O98 Zn94 2.086 . S
C99 O95 1.278 . S
C99 O100 1.211 . S
O100 C99 1.211 . S
C101 O93 1.284 . S
C101 O102 1.273 . S
O102 C101 1.273 . S
O103 Zn94 1.977 . S
O103 C96 1.267 . S
C104 O105 1.160 . S
C104 O111 1.185 . S
O105 C104 1.160 . S
O106 Zn107 1.899 . S
O106 C114 1.284 . S
Zn107 O106 1.899 . S
Zn107 O108 2.032 . S
Zn107 O111 2.086 . S
Zn107 O116 1.977 . S
O108 Zn107 2.032 . S
O108 C112 1.278 . S
C109 O110 1.203 . S
C109 O116 1.267 . S
O110 C109 1.203 . S
O111 C104 1.185 . S
O111 Zn107 2.086 . S
C112 O108 1.278 . S
C112 O113 1.211 . S
O113 C112 1.211 . S
C114 O106 1.284 . S
C114 O115 1.273 . S
O115 C114 1.273 . S
O116 Zn107 1.977 . S
O116 C109 1.267 . S
C117 O118 1.160 . S
C117 O124 1.185 . S
O118 C117 1.160 . S
O119 Zn120 1.899 . S
O119 C127 1.284 . S
Zn120 O119 1.899 . S
Zn120 O121 2.032 . S
Zn120 O124 2.086 . S
Zn120 O129 1.977 . S
O121 Zn120 2.032 . S
O121 C125 1.278 . S
C122 O123 1.203 . S
C122 O129 1.267 . S
O123 C122 1.203 . S
O124 C117 1.185 . S
O124 Zn120 2.086 . S
C125 O121 1.278 . S
C125 O126 1.211 . S
O126 C125 1.211 . S
C127 O119 1.284 . S
C127 O128 1.273 . S
O128 C127 1.273 . S
O129 Zn120 1.977 . S
O129 C122 1.267 . S
C130 O131 1.160 . S
C130 O137 1.185 . S
O131 C130 1.160 . S
O132 Zn133 1.899 . S
O132 C140 1.284 . S
Zn133 O132 1.899 . S
Zn133 O134 2.032 . S
Zn133 O137 2.086 . S
Zn133 O142 1.977 . S
O134 Zn133 2.032 . S
O134 C138 1.278 . S
C135 O136 1.203 . S
C135 O142 1.267 . S
O136 C135 1.203 . S
O137 C130 1.185 . S
O137 Zn133 2.086 . S
C138 O134 1.278 . S
C138 O139 1.211 . S
O139 C138 1.211 . S
C140 O132 1.284 . S
C140 O141 1.273 . S
O141 C140 1.273 . S
O142 Zn133 1.977 . S
O142 C135 1.267 . S
C143 O144 1.160 . S
C143 O150 1.185 . S
O144 C143 1.160 . S
O145 Zn146 1.899 . S
O145 C153 1.284 . S
Zn146 O145 1.899 . S
Zn146 O147 2.032 . S
Zn146 O150 2.086 . S
Zn146 O155 1.977 . S
O147 Zn146 2.032 . S
O147 C151 1.278 . S
C148 O149 1.203 . S
C148 O155 1.267 . S
O149 C148 1.203 . S
O150 C143 1.185 . S
O150 Zn146 2.086 . S
C151 O147 1.278 . S
C151 O152 1.211 . S
O152 C151 1.211 . S
C153 O145 1.284 . S
C153 O154 1.273 . S
O154 C153 1.273 . S
O155 Zn146 1.977 . S
O155 C148 1.267 . S
H156 C164 0.929 . S
H157 C166 0.930 1_655 S
H158 C168 0.930 . S
H159 C171 0.929 . S
H160 C174 0.930 . S
H161 C176 0.960 1_556 S
H162 C176 0.960 . S
H163 C176 0.960 . S
C164 H156 0.929 . S
C164 C165 1.377 . S
C164 C166 1.384 . S
C165 C164 1.377 . S
C165 C171 1.390 . S
C166 H157 0.930 1_455 S
C166 C164 1.384 . S
C166 C167 1.372 . S
C167 C166 1.372 . S
C167 C168 1.400 . S
C167 C172 1.490 . S
C168 H158 0.930 . S
C168 C167 1.400 . S
C168 C171 1.386 . S
H169 C185 0.930 . S
H170 C186 0.931 1_455 S
C171 H159 0.929 . S
C171 C165 1.390 . S
C171 C168 1.386 . S
C172 C167 1.490 . S
C172 C174 1.395 1_455 S
C172 C175 1.403 . S
H173 C179 0.930 . S
C174 H160 0.930 . S
C174 C172 1.395 1_655 S
C174 C177 1.403 1_554 S
C175 C172 1.403 . S
C175 C176 1.524 . S
C175 C179 1.400 1_454 S
C176 H161 0.960 1_554 S
C176 H162 0.960 . S
C176 H163 0.960 . S
C176 C175 1.524 . S
C177 C174 1.403 1_556 S
C177 C178 1.392 . S
C177 C181 1.495 . S
C178 C177 1.392 . S
C178 C179 1.385 . S
C178 C180 1.478 . S
C179 H173 0.930 . S
C179 C175 1.400 1_656 S
C179 C178 1.385 . S
C180 C178 1.478 . S
C180 C182 1.381 . S
C180 C186 1.383 . S
C181 C177 1.495 . S
C181 H187 0.959 1_556 S
C181 H188 0.961 . S
C181 H189 0.960 . S
C182 C180 1.381 . S
C182 C183 1.394 . S
C182 H190 0.930 . S
C183 C182 1.394 . S
C183 C184 1.383 . S
C183 H191 0.929 . S
C184 C183 1.383 . S
C184 C185 1.377 . S
C185 H169 0.930 . S
C185 C184 1.377 . S
C185 C186 1.379 . S
C186 H170 0.931 1_655 S
C186 C180 1.383 . S
C186 C185 1.379 . S
H187 C181 0.959 1_554 S
H188 C181 0.961 . S
H189 C181 0.960 . S
H190 C182 0.930 . S
H191 C183 0.929 . S
H192 C200 0.929 . S
H193 C202 0.930 . S
H194 C204 0.930 . S
H195 C207 0.929 . S
H196 C210 0.930 . S
H197 C212 0.960 . S
H198 C212 0.960 . S
H199 C212 0.960 . S
C200 H192 0.929 . S
C200 C201 1.377 . S
C200 C202 1.384 . S
C201 C200 1.377 . S
C201 C207 1.390 . S
C202 H193 0.930 . S
C202 C200 1.384 . S
C202 C203 1.372 . S
C203 C202 1.372 . S
C203 C204 1.400 . S
C203 C208 1.490 . S
C204 H194 0.930 . S
C204 C203 1.400 . S
C204 C207 1.386 . S
H205 C221 0.930 . S
H206 C222 0.931 . S
C207 H195 0.929 . S
C207 C201 1.390 . S
C207 C204 1.386 . S
C208 C203 1.490 . S
C208 C210 1.395 . S
C208 C211 1.403 1_565 S
H209 C215 0.930 . S
C210 H196 0.930 . S
C210 C208 1.395 . S
C210 C213 1.403 . S
C211 C208 1.403 1_545 S
C211 C212 1.524 . S
C211 C215 1.400 . S
C212 H197 0.960 . S
C212 H198 0.960 . S
C212 H199 0.960 . S
C212 C211 1.524 . S
C213 C210 1.403 . S
C213 C214 1.392 1_565 S
C213 C217 1.495 . S
C214 C213 1.392 1_545 S
C214 C215 1.385 . S
C214 C216 1.478 . S
C215 H209 0.930 . S
C215 C211 1.400 . S
C215 C214 1.385 . S
C216 C214 1.478 . S
C216 C218 1.381 . S
C216 C222 1.383 . S
C217 C213 1.495 . S
C217 H223 0.959 . S
C217 H224 0.961 . S
C217 H225 0.960 . S
C218 C216 1.381 . S
C218 C219 1.394 . S
C218 H226 0.930 . S
C219 C218 1.394 . S
C219 C220 1.383 . S
C219 H227 0.929 . S
C220 C219 1.383 . S
C220 C221 1.377 . S
C221 H205 0.930 . S
C221 C220 1.377 . S
C221 C222 1.379 . S
C222 H206 0.931 . S
C222 C216 1.383 . S
C222 C221 1.379 . S
H223 C217 0.959 . S
H224 C217 0.961 . S
H225 C217 0.960 . S
H226 C218 0.930 . S
H227 C219 0.929 . S
H228 C236 0.929 . S
H229 C238 0.930 . S
H230 C240 0.930 . S
H231 C243 0.929 . S
H232 C246 0.930 . S
H233 C248 0.960 1_556 S
H234 C248 0.960 . S
H235 C248 0.960 . S
C236 H228 0.929 . S
C236 C237 1.377 . S
C236 C238 1.384 . S
C237 C236 1.377 . S
C237 C243 1.390 . S
C238 H229 0.930 . S
C238 C236 1.384 . S
C238 C239 1.372 . S
C239 C238 1.372 . S
C239 C240 1.400 . S
C239 C244 1.490 . S
C240 H230 0.930 . S
C240 C239 1.400 . S
C240 C243 1.386 . S
H241 C257 0.930 . S
H242 C258 0.931 . S
C243 H231 0.929 . S
C243 C237 1.390 . S
C243 C240 1.386 . S
C244 C239 1.490 . S
C244 C246 1.395 . S
C244 C247 1.403 . S
H245 C251 0.930 . S
C246 H232 0.930 . S
C246 C244 1.395 . S
C246 C249 1.403 . S
C247 C244 1.403 . S
C247 C248 1.524 . S
C247 C251 1.400 1_554 S
C248 H233 0.960 1_554 S
C248 H234 0.960 . S
C248 H235 0.960 . S
C248 C247 1.524 . S
C249 C246 1.403 . S
C249 C250 1.392 1_554 S
C249 C253 1.495 . S
C250 C249 1.392 1_556 S
C250 C251 1.385 . S
C250 C252 1.478 . S
C251 H245 0.930 . S
C251 C247 1.400 1_556 S
C251 C250 1.385 . S
C252 C250 1.478 . S
C252 C254 1.381 . S
C252 C258 1.383 . S
C253 C249 1.495 . S
C253 H259 0.959 . S
C253 H260 0.961 1_554 S
C253 H261 0.960 1_554 S
C254 C252 1.381 . S
C254 C255 1.394 . S
C254 H262 0.930 . S
C255 C254 1.394 . S
C255 C256 1.383 . S
C255 H263 0.929 . S
C256 C255 1.383 . S
C256 C257 1.377 . S
C257 H241 0.930 . S
C257 C256 1.377 . S
C257 C258 1.379 . S
C258 H242 0.931 . S
C258 C252 1.383 . S
C258 C257 1.379 . S
H259 C253 0.959 . S
H260 C253 0.961 1_556 S
H261 C253 0.960 1_556 S
H262 C254 0.930 . S
H263 C255 0.929 . S
H264 C272 0.929 . S
H265 C274 0.930 . S
H266 C276 0.930 1_655 S
H267 C279 0.929 . S
H268 C282 0.930 . S
H269 C284 0.960 . S
H270 C284 0.960 1_455 S
H271 C284 0.960 . S
C272 H264 0.929 . S
C272 C273 1.377 . S
C272 C274 1.384 . S
C273 C272 1.377 . S
C273 C279 1.390 . S
C274 H265 0.930 . S
C274 C272 1.384 . S
C274 C275 1.372 . S
C275 C274 1.372 . S
C275 C276 1.400 . S
C275 C280 1.490 . S
C276 H266 0.930 1_455 S
C276 C275 1.400 . S
C276 C279 1.386 . S
H277 C293 0.930 . S
H278 C294 0.931 . S
C279 H267 0.929 . S
C279 C273 1.390 . S
C279 C276 1.386 . S
C280 C275 1.490 . S
C280 C282 1.395 . S
C280 C283 1.402 1_455 S
H281 C287 0.930 . S
C282 H268 0.930 . S
C282 C280 1.395 . S
C282 C285 1.403 . S
C283 C280 1.402 1_655 S
C283 C284 1.522 . S
C283 C287 1.402 . S
C284 H269 0.960 . S
C284 H270 0.960 1_655 S
C284 H271 0.960 . S
C284 C283 1.522 . S
C285 C282 1.403 . S
C285 C286 1.392 1_455 S
C285 C289 1.495 . S
C286 C285 1.392 1_655 S
C286 C287 1.385 . S
C286 C288 1.478 . S
C287 H281 0.930 . S
C287 C283 1.402 . S
C287 C286 1.385 . S
C288 C286 1.478 . S
C288 C290 1.381 . S
C288 C294 1.383 . S
C289 C285 1.495 . S
C289 H295 0.959 . S
C289 H296 0.961 1_455 S
C289 H297 0.960 . S
C290 C288 1.381 . S
C290 C291 1.394 . S
C290 H298 0.930 1_655 S
C291 C290 1.394 . S
C291 C292 1.383 . S
C291 H299 0.929 . S
C292 C291 1.383 . S
C292 C293 1.377 . S
C293 H277 0.930 . S
C293 C292 1.377 . S
C293 C294 1.379 . S
C294 H278 0.931 . S
C294 C288 1.383 . S
C294 C293 1.379 . S
H295 C289 0.959 . S
H296 C289 0.961 1_655 S
H297 C289 0.960 . S
H298 C290 0.930 1_455 S
H299 C291 0.929 . S
H300 C308 0.929 . S
H301 C310 0.930 . S
H302 C312 0.930 . S
H303 C315 0.929 . S
H304 C318 0.930 . S
H305 C320 0.960 . S
H306 C320 0.960 . S
H307 C320 0.960 . S
C308 H300 0.929 . S
C308 C309 1.377 . S
C308 C310 1.384 . S
C309 C308 1.377 . S
C309 C315 1.390 . S
C310 H301 0.930 . S
C310 C308 1.384 . S
C310 C311 1.372 . S
C311 C310 1.372 . S
C311 C312 1.400 . S
C311 C316 1.490 . S
C312 H302 0.930 . S
C312 C311 1.400 . S
C312 C315 1.386 . S
H313 C329 0.930 . S
H314 C330 0.931 . S
C315 H303 0.929 . S
C315 C309 1.390 . S
C315 C312 1.386 . S
C316 C311 1.490 . S
C316 C318 1.395 . S
C316 C319 1.403 1_545 S
H317 C323 0.930 . S
C318 H304 0.930 . S
C318 C316 1.395 . S
C318 C321 1.403 1_556 S
C319 C316 1.403 1_565 S
C319 C320 1.524 . S
C319 C323 1.400 1_556 S
C320 H305 0.960 . S
C320 H306 0.960 . S
C320 H307 0.960 . S
C320 C319 1.524 . S
C321 C318 1.403 1_554 S
C321 C322 1.392 1_545 S
C321 C325 1.495 . S
C322 C321 1.392 1_565 S
C322 C323 1.385 . S
C322 C324 1.478 . S
C323 H317 0.930 . S
C323 C319 1.400 1_554 S
C323 C322 1.385 . S
C324 C322 1.478 . S
C324 C326 1.381 . S
C324 C330 1.383 . S
C325 C321 1.495 . S
C325 H331 0.959 . S
C325 H332 0.961 . S
C325 H333 0.960 . S
C326 C324 1.381 . S
C326 C327 1.394 . S
C326 H334 0.930 . S
C327 C326 1.394 . S
C327 C328 1.383 . S
C327 H335 0.929 . S
C328 C327 1.383 . S
C328 C329 1.377 . S
C329 H313 0.930 . S
C329 C328 1.377 . S
C329 C330 1.379 . S
C330 H314 0.931 . S
C330 C324 1.383 . S
C330 C329 1.379 . S
H331 C325 0.959 . S
H332 C325 0.961 . S
H333 C325 0.960 . S
H334 C326 0.930 . S
H335 C327 0.929 . S
H336 C344 0.929 . S
H337 C346 0.930 . S
H338 C348 0.930 . S
H339 C351 0.929 . S
H340 C354 0.930 . S
H341 C356 0.960 . S
H342 C356 0.960 . S
H343 C356 0.960 . S
C344 H336 0.929 . S
C344 C345 1.377 . S
C344 C346 1.384 . S
C345 C344 1.377 . S
C345 C351 1.390 . S
C346 H337 0.930 . S
C346 C344 1.384 . S
C346 C347 1.372 . S
C347 C346 1.372 . S
C347 C348 1.400 . S
C347 C352 1.490 . S
C348 H338 0.930 . S
C348 C347 1.400 . S
C348 C351 1.386 . S
H349 C365 0.930 . S
H350 C366 0.931 . S
C351 H339 0.929 . S
C351 C345 1.390 . S
C351 C348 1.386 . S
C352 C347 1.490 . S
C352 C354 1.395 . S
C352 C355 1.403 . S
H353 C359 0.930 . S
C354 H340 0.930 . S
C354 C352 1.395 . S
C354 C357 1.403 . S
C355 C352 1.403 . S
C355 C356 1.524 . S
C355 C359 1.400 . S
C356 H341 0.960 . S
C356 H342 0.960 . S
C356 H343 0.960 . S
C356 C355 1.524 . S
C357 C354 1.403 . S
C357 C358 1.392 . S
C357 C361 1.495 . S
C358 C357 1.392 . S
C358 C359 1.385 . S
C358 C360 1.478 . S
C359 H353 0.930 . S
C359 C355 1.400 . S
C359 C358 1.385 . S
C360 C358 1.478 . S
C360 C362 1.381 . S
C360 C366 1.383 . S
C361 C357 1.495 . S
C361 H367 0.959 . S
C361 H368 0.961 . S
C361 H369 0.960 . S
C362 C360 1.381 . S
C362 C363 1.394 . S
C362 H370 0.930 . S
C363 C362 1.394 . S
C363 C364 1.383 . S
C363 H371 0.929 . S
C364 C363 1.383 . S
C364 C365 1.377 . S
C365 H349 0.930 . S
C365 C364 1.377 . S
C365 C366 1.379 . S
C366 H350 0.931 . S
C366 C360 1.383 . S
C366 C365 1.379 . S
H367 C361 0.959 . S
H368 C361 0.961 . S
H369 C361 0.960 . S
H370 C362 0.930 . S
H371 C363 0.929 . S
H372 C380 0.929 . S
H373 C382 0.930 . S
H374 C384 0.930 . S
H375 C387 0.929 . S
H376 C390 0.930 . S
H377 C392 0.960 . S
H378 C392 0.960 1_556 S
H379 C392 0.960 1_556 S
C380 H372 0.929 . S
C380 C381 1.377 . S
C380 C382 1.384 . S
C381 C380 1.377 . S
C381 C387 1.390 . S
C382 H373 0.930 . S
C382 C380 1.384 . S
C382 C383 1.372 . S
C383 C382 1.372 . S
C383 C384 1.400 . S
C383 C388 1.490 . S
C384 H374 0.930 . S
C384 C383 1.400 . S
C384 C387 1.386 . S
H385 C401 0.930 . S
H386 C402 0.931 . S
C387 H375 0.929 . S
C387 C381 1.390 . S
C387 C384 1.386 . S
C388 C383 1.490 . S
C388 C390 1.395 1_655 S
C388 C391 1.410 . S
H389 C395 0.930 . S
C390 H376 0.930 . S
C390 C388 1.395 1_455 S
C390 C393 1.403 . S
C391 C388 1.410 . S
C391 C392 1.523 1_556 S
C391 C395 1.393 1_556 S
C392 H377 0.960 . S
C392 H378 0.960 1_554 S
C392 H379 0.960 1_554 S
C392 C391 1.523 1_554 S
C393 C390 1.403 . S
C393 C394 1.392 1_556 S
C393 C397 1.495 . S
C394 C393 1.392 1_554 S
C394 C395 1.385 1_455 S
C394 C396 1.478 . S
C395 H389 0.930 . S
C395 C391 1.393 1_554 S
C395 C394 1.385 1_655 S
C396 C394 1.478 . S
C396 C398 1.381 . S
C396 C402 1.383 . S
C397 C393 1.495 . S
C397 H403 0.959 . S
C397 H404 0.961 1_556 S
C397 H405 0.960 1_556 S
C398 C396 1.381 . S
C398 C399 1.394 . S
C398 H406 0.930 . S
C399 C398 1.394 . S
C399 C400 1.383 . S
C399 H407 0.929 . S
C400 C399 1.383 . S
C400 C401 1.377 . S
C401 H385 0.930 . S
C401 C400 1.377 . S
C401 C402 1.379 . S
C402 H386 0.931 . S
C402 C396 1.383 . S
C402 C401 1.379 . S
H403 C397 0.959 . S
H404 C397 0.961 1_554 S
H405 C397 0.960 1_554 S
H406 C398 0.930 . S
H407 C399 0.929 . S
H408 C416 0.929 . S
H409 C418 0.930 . S
H410 C420 0.937 . S
H411 C423 0.929 . S
H412 C426 0.930 . S
H413 C428 0.960 . S
H414 C428 0.960 . S
H415 C428 0.960 . S
C416 H408 0.929 . S
C416 C417 1.377 . S
C416 C418 1.384 . S
C417 C416 1.377 . S
C417 C423 1.390 . S
C418 H409 0.930 . S
C418 C416 1.384 . S
C418 C419 1.372 . S
C419 C418 1.372 . S
C419 C420 1.400 . S
C419 C424 1.490 . S
C420 H410 0.937 . S
C420 C419 1.400 . S
C420 C423 1.386 . S
H421 C437 0.930 . S
H422 C438 0.931 . S
C423 H411 0.929 . S
C423 C417 1.390 . S
C423 C420 1.386 . S
C424 C419 1.490 . S
C424 C426 1.395 . S
C424 C427 1.403 1_565 S
H425 C431 0.930 . S
C426 H412 0.930 . S
C426 C424 1.395 . S
C426 C429 1.403 . S
C427 C424 1.403 1_545 S
C427 C428 1.524 . S
C427 C431 1.400 . S
C428 H413 0.960 . S
C428 H414 0.960 . S
C428 H415 0.960 . S
C428 C427 1.524 . S
C429 C426 1.403 . S
C429 C430 1.392 1_565 S
C429 C433 1.495 . S
C430 C429 1.392 1_545 S
C430 C431 1.385 . S
C430 C432 1.478 . S
C431 H425 0.930 . S
C431 C427 1.400 . S
C431 C430 1.385 . S
C432 C430 1.478 . S
C432 C434 1.381 . S
C432 C438 1.383 . S
C433 C429 1.495 . S
C433 H439 0.959 . S
C433 H440 0.961 . S
C433 H441 0.960 . S
C434 C432 1.381 . S
C434 C435 1.394 . S
C434 H442 0.900 1_545 S
C435 C434 1.394 . S
C435 C436 1.383 . S
C435 H443 0.929 . S
C436 C435 1.383 . S
C436 C437 1.377 . S
C437 H421 0.930 . S
C437 C436 1.377 . S
C437 C438 1.379 . S
C438 H422 0.931 . S
C438 C432 1.383 . S
C438 C437 1.379 . S
H439 C433 0.959 . S
H440 C433 0.961 . S
H441 C433 0.960 . S
H442 C434 0.900 1_565 S
H443 C435 0.929 . S
H444 C452 0.929 . S
H445 C454 0.930 . S
H446 C456 0.930 . S
H447 C459 0.929 . S
H448 C462 0.930 . S
H449 C464 0.960 1_554 S
H450 C464 0.960 . S
H451 C464 0.960 . S
C452 H444 0.929 . S
C452 C453 1.377 . S
C452 C454 1.384 . S
C453 C452 1.377 . S
C453 C459 1.390 . S
C454 H445 0.930 . S
C454 C452 1.384 . S
C454 C455 1.372 . S
C455 C454 1.372 . S
C455 C456 1.400 . S
C455 C460 1.490 . S
C456 H446 0.930 . S
C456 C455 1.400 . S
C456 C459 1.386 . S
H457 C473 0.930 . S
H458 C474 0.931 . S
C459 H447 0.929 . S
C459 C453 1.390 . S
C459 C456 1.386 . S
C460 C455 1.490 . S
C460 C462 1.395 . S
C460 C463 1.403 . S
H461 C467 0.930 . S
C462 H448 0.930 . S
C462 C460 1.395 . S
C462 C465 1.403 . S
C463 C460 1.403 . S
C463 C464 1.524 . S
C463 C467 1.400 1_556 S
C464 H449 0.960 1_556 S
C464 H450 0.960 . S
C464 H451 0.960 . S
C464 C463 1.524 . S
C465 C462 1.403 . S
C465 C466 1.392 1_556 S
C465 C469 1.495 . S
C466 C465 1.392 1_554 S
C466 C467 1.385 . S
C466 C468 1.478 . S
C467 H461 0.930 . S
C467 C463 1.400 1_554 S
C467 C466 1.385 . S
C468 C466 1.478 . S
C468 C470 1.381 . S
C468 C474 1.383 . S
C469 C465 1.495 . S
C469 H475 0.959 . S
C469 H476 0.961 1_556 S
C469 H477 0.960 1_556 S
C470 C468 1.381 . S
C470 C471 1.394 . S
C470 H478 0.930 . S
C471 C470 1.394 . S
C471 C472 1.383 . S
C471 H479 0.929 . S
C472 C471 1.383 . S
C472 C473 1.377 . S
C473 H457 0.930 . S
C473 C472 1.377 . S
C473 C474 1.379 . S
C474 H458 0.931 . S
C474 C468 1.383 . S
C474 C473 1.379 . S
H475 C469 0.959 . S
H476 C469 0.961 1_554 S
H477 C469 0.960 1_554 S
H478 C470 0.930 . S
H479 C471 0.929 . S
H480 C488 0.929 . S
H481 C490 0.930 . S
H482 C492 0.930 . S
H483 C495 0.929 . S
H484 C498 0.930 . S
H485 C500 0.960 . S
H486 C500 0.960 . S
H487 C500 0.960 . S
C488 H480 0.929 . S
C488 C489 1.377 . S
C488 C490 1.384 . S
C489 C488 1.377 . S
C489 C495 1.390 . S
C490 H481 0.930 . S
C490 C488 1.384 . S
C490 C491 1.372 . S
C491 C490 1.372 . S
C491 C492 1.400 . S
C491 C496 1.490 . S
C492 H482 0.930 . S
C492 C491 1.400 . S
C492 C495 1.386 . S
H493 C509 0.930 . S
H494 C510 0.931 . S
C495 H483 0.929 . S
C495 C489 1.390 . S
C495 C492 1.386 . S
C496 C491 1.490 . S
C496 C498 1.395 . S
C496 C499 1.403 1_655 S
H497 C503 0.930 . S
C498 H484 0.930 . S
C498 C496 1.395 . S
C498 C501 1.403 . S
C499 C496 1.403 1_455 S
C499 C500 1.524 . S
C499 C503 1.400 . S
C500 H485 0.960 . S
C500 H486 0.960 . S
C500 H487 0.960 . S
C500 C499 1.524 . S
C501 C498 1.403 . S
C501 C502 1.392 1_655 S
C501 C505 1.495 . S
C502 C501 1.392 1_455 S
C502 C503 1.385 . S
C502 C504 1.478 . S
C503 H497 0.930 . S
C503 C499 1.400 . S
C503 C502 1.385 . S
C504 C502 1.478 . S
C504 C506 1.381 . S
C504 C510 1.383 . S
C505 C501 1.495 . S
C505 H511 0.959 . S
C505 H512 0.961 . S
C505 H513 0.960 . S
C506 C504 1.381 . S
C506 C507 1.394 . S
C506 H514 0.930 . S
C507 C506 1.394 . S
C507 C508 1.383 . S
C507 H515 0.929 . S
C508 C507 1.383 . S
C508 C509 1.377 . S
C509 H493 0.930 . S
C509 C508 1.377 . S
C509 C510 1.379 . S
C510 H494 0.931 . S
C510 C504 1.383 . S
C510 C509 1.379 . S
H511 C505 0.959 . S
H512 C505 0.961 . S
H513 C505 0.960 . S
H514 C506 0.930 . S
H515 C507 0.929 . S
H516 C524 0.929 . S
H517 C526 0.930 . S
H518 C528 0.930 . S
H519 C531 0.929 . S
H520 C534 0.930 1_556 S
H521 C536 0.960 . S
H522 C536 0.960 . S
H523 C536 0.960 . S
C524 H516 0.929 . S
C524 C525 1.377 . S
C524 C526 1.384 . S
C525 C524 1.377 . S
C525 C531 1.390 . S
C526 H517 0.930 . S
C526 C524 1.384 . S
C526 C527 1.372 . S
C527 C526 1.372 . S
C527 C528 1.400 . S
C527 C532 1.490 . S
C528 H518 0.930 . S
C528 C527 1.400 . S
C528 C531 1.386 . S
H529 C545 0.930 . S
H530 C546 0.931 . S
C531 H519 0.929 . S
C531 C525 1.390 . S
C531 C528 1.386 . S
C532 C527 1.490 . S
C532 C534 1.394 1_556 S
C532 C535 1.403 1_545 S
H533 C539 0.930 . S
C534 H520 0.930 1_554 S
C534 C532 1.394 1_554 S
C534 C537 1.404 . S
C535 C532 1.403 1_565 S
C535 C536 1.524 . S
C535 C539 1.400 1_556 S
C536 H521 0.960 . S
C536 H522 0.960 . S
C536 H523 0.960 . S
C536 C535 1.524 . S
C537 C534 1.404 . S
C537 C538 1.392 1_545 S
C537 C541 1.495 . S
C538 C537 1.392 1_565 S
C538 C539 1.385 . S
C538 C540 1.478 . S
C539 H533 0.930 . S
C539 C535 1.400 1_554 S
C539 C538 1.385 . S
C540 C538 1.478 . S
C540 C542 1.381 . S
C540 C546 1.383 . S
C541 C537 1.495 . S
C541 H547 0.959 . S
C541 H548 0.961 . S
C541 H549 0.960 . S
C542 C540 1.381 . S
C542 C543 1.394 . S
C542 H550 0.930 . S
C543 C542 1.394 . S
C543 C544 1.383 . S
C543 H551 0.929 . S
C544 C543 1.383 . S
C544 C545 1.377 . S
C545 H529 0.930 . S
C545 C544 1.377 . S
C545 C546 1.379 . S
C546 H530 0.931 . S
C546 C540 1.383 . S
C546 C545 1.379 . S
H547 C541 0.959 . S
H548 C541 0.961 . S
H549 C541 0.960 . S
H550 C542 0.930 . S
H551 C543 0.929 . S
H552 C560 0.929 . S
H553 C562 0.930 . S
H554 C564 0.930 . S
H555 C567 0.929 . S
H556 C570 0.930 . S
H557 C572 0.960 . S
H558 C572 0.960 . S
H559 C572 0.960 . S
C560 H552 0.929 . S
C560 C561 1.377 . S
C560 C562 1.384 . S
C561 C560 1.377 . S
C561 C567 1.390 . S
C562 H553 0.930 . S
C562 C560 1.384 . S
C562 C563 1.372 . S
C563 C562 1.372 . S
C563 C564 1.400 . S
C563 C568 1.490 . S
C564 H554 0.930 . S
C564 C563 1.400 . S
C564 C567 1.386 . S
H565 C581 0.930 . S
H566 C582 0.931 . S
C567 H555 0.929 . S
C567 C561 1.390 . S
C567 C564 1.386 . S
C568 C563 1.490 . S
C568 C570 1.395 . S
C568 C571 1.403 . S
H569 C575 0.930 . S
C570 H556 0.930 . S
C570 C568 1.395 . S
C570 C573 1.403 . S
C571 C568 1.403 . S
C571 C572 1.524 . S
C571 C575 1.400 . S
C572 H557 0.960 . S
C572 H558 0.960 . S
C572 H559 0.960 . S
C572 C571 1.524 . S
C573 C570 1.403 . S
C573 C574 1.392 . S
C573 C577 1.495 . S
C574 C573 1.392 . S
C574 C575 1.385 . S
C574 C576 1.478 . S
C575 H569 0.930 . S
C575 C571 1.400 . S
C575 C574 1.385 . S
C576 C574 1.478 . S
C576 C578 1.381 . S
C576 C582 1.383 . S
C577 C573 1.495 . S
C577 H583 0.959 . S
C577 H584 0.961 . S
C577 H585 0.960 . S
C578 C576 1.381 . S
C578 C579 1.394 . S
C578 H586 0.930 . S
C579 C578 1.394 . S
C579 C580 1.383 . S
C579 H587 0.929 . S
C580 C579 1.383 . S
C580 C581 1.377 . S
C581 H565 0.930 . S
C581 C580 1.377 . S
C581 C582 1.379 . S
C582 H566 0.931 . S
C582 C576 1.383 . S
C582 C581 1.379 . S
H583 C577 0.959 . S
H584 C577 0.961 . S
H585 C577 0.960 . S
H586 C578 0.930 . S
H587 C579 0.929 . S
H588 C596 0.929 . S
H589 C598 0.930 . S
H590 C600 0.930 . S
H591 C603 0.929 . S
H592 C606 0.930 . S
H593 C608 0.960 . S
H594 C608 0.960 . S
H595 C608 0.960 . S
C596 H588 0.929 . S
C596 C597 1.377 . S
C596 C598 1.384 . S
C597 C596 1.377 . S
C597 C603 1.390 . S
C598 H589 0.930 . S
C598 C596 1.384 . S
C598 C599 1.372 . S
C599 C598 1.372 . S
C599 C600 1.400 . S
C599 C604 1.490 . S
C600 H590 0.930 . S
C600 C599 1.400 . S
C600 C603 1.386 . S
H601 C617 0.930 . S
H602 C618 0.931 . S
C603 H591 0.929 . S
C603 C597 1.390 . S
C603 C600 1.386 . S
C604 C599 1.490 . S
C604 C606 1.395 . S
C604 C607 1.403 . S
H605 C611 0.930 . S
C606 H592 0.930 . S
C606 C604 1.395 . S
C606 C609 1.403 . S
C607 C604 1.403 . S
C607 C608 1.524 . S
C607 C611 1.400 . S
C608 H593 0.960 . S
C608 H594 0.960 . S
C608 H595 0.960 . S
C608 C607 1.524 . S
C609 C606 1.403 . S
C609 C610 1.392 . S
C609 C613 1.495 . S
C610 C609 1.392 . S
C610 C611 1.385 . S
C610 C612 1.478 . S
C611 H605 0.930 . S
C611 C607 1.400 . S
C611 C610 1.385 . S
C612 C610 1.478 . S
C612 C614 1.381 . S
C612 C618 1.383 . S
C613 C609 1.495 . S
C613 H619 0.959 . S
C613 H620 0.961 . S
C613 H621 0.960 . S
C614 C612 1.381 . S
C614 C615 1.394 . S
C614 H622 0.930 . S
C615 C614 1.394 . S
C615 C616 1.383 . S
C615 H623 0.929 . S
C616 C615 1.383 . S
C616 C617 1.377 . S
C617 H601 0.930 . S
C617 C616 1.377 . S
C617 C618 1.379 . S
C618 H602 0.931 . S
C618 C612 1.383 . S
C618 C617 1.379 . S
H619 C613 0.959 . S
H620 C613 0.961 . S
H621 C613 0.960 . S
H622 C614 0.930 . S
H623 C615 0.929 . S
H624 C632 0.929 . S
H625 C634 0.930 . S
H626 C636 0.930 . S
H627 C639 0.929 . S
H628 C642 0.930 . S
H629 C644 0.960 . S
H630 C644 0.960 . S
H631 C644 0.960 . S
C632 H624 0.929 . S
C632 C633 1.377 . S
C632 C634 1.384 . S
C633 C632 1.377 . S
C633 C639 1.390 . S
C634 H625 0.930 . S
C634 C632 1.384 . S
C634 C635 1.372 . S
C635 C634 1.372 . S
C635 C636 1.400 . S
C635 C640 1.490 . S
C636 H626 0.930 . S
C636 C635 1.400 . S
C636 C639 1.386 . S
H637 C653 0.930 . S
H638 C654 0.931 . S
C639 H627 0.929 . S
C639 C633 1.390 . S
C639 C636 1.386 . S
C640 C635 1.490 . S
C640 C642 1.395 . S
C640 C643 1.403 . S
H641 C647 0.930 . S
C642 H628 0.930 . S
C642 C640 1.395 . S
C642 C645 1.403 . S
C643 C640 1.403 . S
C643 C644 1.524 . S
C643 C647 1.400 . S
C644 H629 0.960 . S
C644 H630 0.960 . S
C644 H631 0.960 . S
C644 C643 1.524 . S
C645 C642 1.403 . S
C645 C646 1.392 . S
C645 C649 1.495 . S
C646 C645 1.392 . S
C646 C647 1.385 . S
C646 C648 1.478 . S
C647 H641 0.930 . S
C647 C643 1.400 . S
C647 C646 1.385 . S
C648 C646 1.478 . S
C648 C650 1.381 . S
C648 C654 1.383 . S
C649 C645 1.495 . S
C649 H655 0.959 . S
C649 H656 0.961 . S
C649 H657 0.960 . S
C650 C648 1.381 . S
C650 C651 1.394 . S
C650 H658 0.930 . S
C651 C650 1.394 . S
C651 C652 1.383 . S
C651 H659 0.929 . S
C652 C651 1.383 . S
C652 C653 1.377 . S
C653 H637 0.930 . S
C653 C652 1.377 . S
C653 C654 1.379 . S
C654 H638 0.931 . S
C654 C648 1.383 . S
C654 C653 1.379 . S
H655 C649 0.959 . S
H656 C649 0.961 . S
H657 C649 0.960 . S
H658 C650 0.930 . S
H659 C651 0.929 . S
H660 C668 0.929 . S
H661 C670 0.930 . S
H662 C672 0.930 . S
H663 C675 0.929 . S
H664 C678 0.930 . S
H665 C680 0.960 . S
H666 C680 0.960 . S
H667 C680 0.960 . S
C668 H660 0.929 . S
C668 C669 1.377 . S
C668 C670 1.384 . S
C669 C668 1.377 . S
C669 C675 1.390 . S
C670 H661 0.930 . S
C670 C668 1.384 . S
C670 C671 1.372 . S
C671 C670 1.372 . S
C671 C672 1.400 . S
C671 C676 1.490 . S
C672 H662 0.930 . S
C672 C671 1.400 . S
C672 C675 1.386 . S
H673 C689 0.930 . S
H674 C690 0.931 . S
C675 H663 0.929 . S
C675 C669 1.390 . S
C675 C672 1.386 . S
C676 C671 1.490 . S
C676 C678 1.395 . S
C676 C679 1.403 . S
H677 C683 0.930 . S
C678 H664 0.930 . S
C678 C676 1.395 . S
C678 C681 1.403 . S
C679 C676 1.403 . S
C679 C680 1.524 . S
C679 C683 1.400 . S
C680 H665 0.960 . S
C680 H666 0.960 . S
C680 H667 0.960 . S
C680 C679 1.524 . S
C681 C678 1.403 . S
C681 C682 1.392 . S
C681 C685 1.495 . S
C682 C681 1.392 . S
C682 C683 1.385 . S
C682 C684 1.478 . S
C683 H677 0.930 . S
C683 C679 1.400 . S
C683 C682 1.385 . S
C684 C682 1.478 . S
C684 C686 1.381 . S
C684 C690 1.383 . S
C685 C681 1.495 . S
C685 H691 0.959 . S
C685 H692 0.961 . S
C685 H693 0.960 . S
C686 C684 1.381 . S
C686 C687 1.394 . S
C686 H694 0.930 . S
C687 C686 1.394 . S
C687 C688 1.383 . S
C687 H695 0.929 . S
C688 C687 1.383 . S
C688 C689 1.377 . S
C689 H673 0.930 . S
C689 C688 1.377 . S
C689 C690 1.379 . S
C690 H674 0.931 . S
C690 C684 1.383 . S
C690 C689 1.379 . S
H691 C685 0.959 . S
H692 C685 0.961 . S
H693 C685 0.960 . S
H694 C686 0.930 . S
H695 C687 0.929 . S
H696 C704 0.929 . S
H697 C706 0.930 . S
H698 C708 0.930 . S
H699 C711 0.929 . S
H700 C714 0.930 . S
H701 C716 0.960 . S
H702 C716 0.960 . S
H703 C716 0.960 . S
C704 H696 0.929 . S
C704 C705 1.377 . S
C704 C706 1.384 . S
C705 C704 1.377 . S
C705 C711 1.390 . S
C706 H697 0.930 . S
C706 C704 1.384 . S
C706 C707 1.372 . S
C707 C706 1.372 . S
C707 C708 1.400 . S
C707 C712 1.490 . S
C708 H698 0.930 . S
C708 C707 1.400 . S
C708 C711 1.386 . S
H709 C725 0.930 . S
H710 C726 0.931 . S
C711 H699 0.929 . S
C711 C705 1.390 . S
C711 C708 1.386 . S
C712 C707 1.490 . S
C712 C714 1.395 . S
C712 C715 1.403 . S
H713 C719 0.930 . S
C714 H700 0.930 . S
C714 C712 1.395 . S
C714 C717 1.403 . S
C715 C712 1.403 . S
C715 C716 1.524 . S
C715 C719 1.400 . S
C716 H701 0.960 . S
C716 H702 0.960 . S
C716 H703 0.960 . S
C716 C715 1.524 . S
C717 C714 1.403 . S
C717 C718 1.392 . S
C717 C721 1.495 . S
C718 C717 1.392 . S
C718 C719 1.385 . S
C718 C720 1.478 . S
C719 H713 0.930 . S
C719 C715 1.400 . S
C719 C718 1.385 . S
C720 C718 1.478 . S
C720 C722 1.381 . S
C720 C726 1.383 . S
C721 C717 1.495 . S
C721 H727 0.959 . S
C721 H728 0.961 . S
C721 H729 0.960 . S
C722 C720 1.381 . S
C722 C723 1.394 . S
C722 H730 0.930 . S
C723 C722 1.394 . S
C723 C724 1.383 . S
C723 H731 0.929 . S
C724 C723 1.383 . S
C724 C725 1.377 . S
C725 H709 0.930 . S
C725 C724 1.377 . S
C725 C726 1.379 . S
C726 H710 0.931 . S
C726 C720 1.383 . S
C726 C725 1.379 . S
H727 C721 0.959 . S
H728 C721 0.961 . S
H729 C721 0.960 . S
H730 C722 0.930 . S
H731 C723 0.929 . S
H732 C740 0.929 . S
H733 C742 0.930 . S
H734 C744 0.930 . S
H735 C747 0.929 . S
H736 C750 0.930 . S
H737 C752 0.960 . S
H738 C752 0.960 . S
H739 C752 0.960 . S
C740 H732 0.929 . S
C740 C741 1.377 . S
C740 C742 1.384 . S
C741 C740 1.377 . S
C741 C747 1.390 . S
C742 H733 0.930 . S
C742 C740 1.384 . S
C742 C743 1.372 . S
C743 C742 1.372 . S
C743 C744 1.400 . S
C743 C748 1.490 . S
C744 H734 0.930 . S
C744 C743 1.400 . S
C744 C747 1.386 . S
H745 C761 0.930 . S
H746 C762 0.931 . S
C747 H735 0.929 . S
C747 C741 1.390 . S
C747 C744 1.386 . S
C748 C743 1.490 . S
C748 C750 1.395 . S
C748 C751 1.403 . S
H749 C755 0.930 . S
C750 H736 0.930 . S
C750 C748 1.395 . S
C750 C753 1.403 . S
C751 C748 1.403 . S
C751 C752 1.524 . S
C751 C755 1.400 . S
C752 H737 0.960 . S
C752 H738 0.960 . S
C752 H739 0.960 . S
C752 C751 1.524 . S
C753 C750 1.403 . S
C753 C754 1.392 . S
C753 C757 1.495 . S
C754 C753 1.392 . S
C754 C755 1.385 . S
C754 C756 1.478 . S
C755 H749 0.930 . S
C755 C751 1.400 . S
C755 C754 1.385 . S
C756 C754 1.478 . S
C756 C758 1.381 . S
C756 C762 1.383 . S
C757 C753 1.495 . S
C757 H763 0.959 . S
C757 H764 0.961 . S
C757 H765 0.960 . S
C758 C756 1.381 . S
C758 C759 1.394 . S
C758 H766 0.930 . S
C759 C758 1.394 . S
C759 C760 1.383 . S
C759 H767 0.929 . S
C760 C759 1.383 . S
C760 C761 1.377 . S
C761 H745 0.930 . S
C761 C760 1.377 . S
C761 C762 1.379 . S
C762 H746 0.931 . S
C762 C756 1.383 . S
C762 C761 1.379 . S
H763 C757 0.959 . S
H764 C757 0.961 . S
H765 C757 0.960 . S
H766 C758 0.930 . S
H767 C759 0.929 . S
H768 C776 0.929 . S
H769 C778 0.930 . S
H770 C780 0.930 . S
H771 C783 0.929 . S
H772 C786 0.930 . S
H773 C788 0.960 . S
H774 C788 0.960 . S
H775 C788 0.960 . S
C776 H768 0.929 . S
C776 C777 1.377 . S
C776 C778 1.384 . S
C777 C776 1.377 . S
C777 C783 1.390 . S
C778 H769 0.930 . S
C778 C776 1.384 . S
C778 C779 1.372 . S
C779 C778 1.372 . S
C779 C780 1.400 . S
C779 C784 1.490 . S
C780 H770 0.930 . S
C780 C779 1.400 . S
C780 C783 1.386 . S
H781 C797 0.930 . S
H782 C798 0.931 . S
C783 H771 0.929 . S
C783 C777 1.390 . S
C783 C780 1.386 . S
C784 C779 1.490 . S
C784 C786 1.395 . S
C784 C787 1.403 . S
H785 C791 0.930 . S
C786 H772 0.930 . S
C786 C784 1.395 . S
C786 C789 1.403 . S
C787 C784 1.403 . S
C787 C788 1.524 . S
C787 C791 1.400 . S
C788 H773 0.960 . S
C788 H774 0.960 . S
C788 H775 0.960 . S
C788 C787 1.524 . S
C789 C786 1.403 . S
C789 C790 1.392 . S
C789 C793 1.495 . S
C790 C789 1.392 . S
C790 C791 1.385 . S
C790 C792 1.478 . S
C791 H785 0.930 . S
C791 C787 1.400 . S
C791 C790 1.385 . S
C792 C790 1.478 . S
C792 C794 1.381 . S
C792 C798 1.383 . S
C793 C789 1.495 . S
C793 H799 0.959 . S
C793 H800 0.961 . S
C793 H801 0.960 . S
C794 C792 1.381 . S
C794 C795 1.394 . S
C794 H802 0.930 . S
C795 C794 1.394 . S
C795 C796 1.383 . S
C795 H803 0.929 . S
C796 C795 1.383 . S
C796 C797 1.377 . S
C797 H781 0.930 . S
C797 C796 1.377 . S
C797 C798 1.379 . S
C798 H782 0.931 . S
C798 C792 1.383 . S
C798 C797 1.379 . S
H799 C793 0.959 . S
H800 C793 0.961 . S
H801 C793 0.960 . S
H802 C794 0.930 . S
H803 C795 0.929 . S
H804 C812 0.929 . S
H805 C814 0.930 . S
H806 C816 0.930 . S
H807 C819 0.929 . S
H808 C822 0.930 . S
H809 C824 0.960 . S
H810 C824 0.960 . S
H811 C824 0.960 . S
C812 H804 0.929 . S
C812 C813 1.377 . S
C812 C814 1.384 . S
C813 C812 1.377 . S
C813 C819 1.390 . S
C814 H805 0.930 . S
C814 C812 1.384 . S
C814 C815 1.372 . S
C815 C814 1.372 . S
C815 C816 1.400 . S
C815 C820 1.490 . S
C816 H806 0.930 . S
C816 C815 1.400 . S
C816 C819 1.386 . S
H817 C833 0.930 . S
H818 C834 0.931 . S
C819 H807 0.929 . S
C819 C813 1.390 . S
C819 C816 1.386 . S
C820 C815 1.490 . S
C820 C822 1.395 . S
C820 C823 1.403 . S
H821 C827 0.930 . S
C822 H808 0.930 . S
C822 C820 1.395 . S
C822 C825 1.403 . S
C823 C820 1.403 . S
C823 C824 1.524 . S
C823 C827 1.400 . S
C824 H809 0.960 . S
C824 H810 0.960 . S
C824 H811 0.960 . S
C824 C823 1.524 . S
C825 C822 1.403 . S
C825 C826 1.392 . S
C825 C829 1.495 . S
C826 C825 1.392 . S
C826 C827 1.385 . S
C826 C828 1.478 . S
C827 H821 0.930 . S
C827 C823 1.400 . S
C827 C826 1.385 . S
C828 C826 1.478 . S
C828 C830 1.381 . S
C828 C834 1.383 . S
C829 C825 1.495 . S
C829 H835 0.959 . S
C829 H836 0.961 . S
C829 H837 0.960 . S
C830 C828 1.381 . S
C830 C831 1.394 . S
C830 H838 0.930 . S
C831 C830 1.394 . S
C831 C832 1.383 . S
C831 H839 0.929 . S
C832 C831 1.383 . S
C832 C833 1.377 . S
C833 H817 0.930 . S
C833 C832 1.377 . S
C833 C834 1.379 . S
C834 H818 0.931 . S
C834 C828 1.383 . S
C834 C833 1.379 . S
H835 C829 0.959 . S
H836 C829 0.961 . S
H837 C829 0.960 . S
H838 C830 0.930 . S
H839 C831 0.929 . S
H840 C848 0.929 . S
H841 C850 0.930 . S
H842 C852 0.930 . S
H843 C855 0.929 . S
H844 C858 0.930 . S
H845 C860 0.960 . S
H846 C860 0.960 . S
H847 C860 0.960 . S
C848 H840 0.929 . S
C848 C849 1.377 . S
C848 C850 1.384 . S
C849 C848 1.377 . S
C849 C855 1.390 . S
C850 H841 0.930 . S
C850 C848 1.384 . S
C850 C851 1.372 . S
C851 C850 1.372 . S
C851 C852 1.400 . S
C851 C856 1.490 . S
C852 H842 0.930 . S
C852 C851 1.400 . S
C852 C855 1.386 . S
H853 C869 0.930 . S
H854 C870 0.931 . S
C855 H843 0.929 . S
C855 C849 1.390 . S
C855 C852 1.386 . S
C856 C851 1.490 . S
C856 C858 1.395 . S
C856 C859 1.403 . S
H857 C863 0.930 . S
C858 H844 0.930 . S
C858 C856 1.395 . S
C858 C861 1.403 . S
C859 C856 1.403 . S
C859 C860 1.524 . S
C859 C863 1.400 . S
C860 H845 0.960 . S
C860 H846 0.960 . S
C860 H847 0.960 . S
C860 C859 1.524 . S
C861 C858 1.403 . S
C861 C862 1.392 . S
C861 C865 1.495 . S
C862 C861 1.392 . S
C862 C863 1.385 . S
C862 C864 1.478 . S
C863 H857 0.930 . S
C863 C859 1.400 . S
C863 C862 1.385 . S
C864 C862 1.478 . S
C864 C866 1.381 . S
C864 C870 1.383 . S
C865 C861 1.495 . S
C865 H871 0.959 . S
C865 H872 0.961 . S
C865 H873 0.960 . S
C866 C864 1.381 . S
C866 C867 1.394 . S
C866 H874 0.930 . S
C867 C866 1.394 . S
C867 C868 1.383 . S
C867 H875 0.929 . S
C868 C867 1.383 . S
C868 C869 1.377 . S
C869 H853 0.930 . S
C869 C868 1.377 . S
C869 C870 1.379 . S
C870 H854 0.931 . S
C870 C864 1.383 . S
C870 C869 1.379 . S
H871 C865 0.959 . S
H872 C865 0.961 . S
H873 C865 0.960 . S
H874 C866 0.930 . S
H875 C867 0.929 . S
H876 C884 0.929 . S
H877 C886 0.930 . S
H878 C888 0.930 . S
H879 C891 0.929 . S
H880 C894 0.930 . S
H881 C896 0.960 . S
H882 C896 0.960 . S
H883 C896 0.960 . S
C884 H876 0.929 . S
C884 C885 1.377 . S
C884 C886 1.384 . S
C885 C884 1.377 . S
C885 C891 1.390 . S
C886 H877 0.930 . S
C886 C884 1.384 . S
C886 C887 1.372 . S
C887 C886 1.372 . S
C887 C888 1.400 . S
C887 C892 1.490 . S
C888 H878 0.930 . S
C888 C887 1.400 . S
C888 C891 1.386 . S
H889 C905 0.930 . S
H890 C906 0.931 . S
C891 H879 0.929 . S
C891 C885 1.390 . S
C891 C888 1.386 . S
C892 C887 1.490 . S
C892 C894 1.395 . S
C892 C895 1.403 . S
H893 C899 0.930 . S
C894 H880 0.930 . S
C894 C892 1.395 . S
C894 C897 1.403 . S
C895 C892 1.403 . S
C895 C896 1.524 . S
C895 C899 1.400 . S
C896 H881 0.960 . S
C896 H882 0.960 . S
C896 H883 0.960 . S
C896 C895 1.524 . S
C897 C894 1.403 . S
C897 C898 1.392 . S
C897 C901 1.495 . S
C898 C897 1.392 . S
C898 C899 1.385 . S
C898 C900 1.478 . S
C899 H893 0.930 . S
C899 C895 1.400 . S
C899 C898 1.385 . S
C900 C898 1.478 . S
C900 C902 1.381 . S
C900 C906 1.383 . S
C901 C897 1.495 . S
C901 H907 0.959 . S
C901 H908 0.961 . S
C901 H909 0.960 . S
C902 C900 1.381 . S
C902 C903 1.394 . S
C902 H910 0.930 . S
C903 C902 1.394 . S
C903 C904 1.383 . S
C903 H911 0.929 . S
C904 C903 1.383 . S
C904 C905 1.377 . S
C905 H889 0.930 . S
C905 C904 1.377 . S
C905 C906 1.379 . S
C906 H890 0.931 . S
C906 C900 1.383 . S
C906 C905 1.379 . S
H907 C901 0.959 . S
H908 C901 0.961 . S
H909 C901 0.960 . S
H910 C902 0.930 . S
H911 C903 0.929 . S
H912 C920 0.929 . S
H913 C922 0.930 . S
H914 C924 0.930 . S
H915 C927 0.929 . S
H916 C930 0.930 . S
H917 C932 0.960 . S
H918 C932 0.960 . S
H919 C932 0.960 . S
C920 H912 0.929 . S
C920 C921 1.377 . S
C920 C922 1.384 . S
C921 C920 1.377 . S
C921 C927 1.390 . S
C922 H913 0.930 . S
C922 C920 1.384 . S
C922 C923 1.372 . S
C923 C922 1.372 . S
C923 C924 1.400 . S
C923 C928 1.490 . S
C924 H914 0.930 . S
C924 C923 1.400 . S
C924 C927 1.386 . S
H925 C941 0.930 . S
H926 C942 0.931 . S
C927 H915 0.929 . S
C927 C921 1.390 . S
C927 C924 1.386 . S
C928 C923 1.490 . S
C928 C930 1.395 . S
C928 C931 1.403 . S
H929 C935 0.930 . S
C930 H916 0.930 . S
C930 C928 1.395 . S
C930 C933 1.403 . S
C931 C928 1.403 . S
C931 C932 1.524 . S
C931 C935 1.400 . S
C932 H917 0.960 . S
C932 H918 0.960 . S
C932 H919 0.960 . S
C932 C931 1.524 . S
C933 C930 1.403 . S
C933 C934 1.392 . S
C933 C937 1.495 . S
C934 C933 1.392 . S
C934 C935 1.385 . S
C934 C936 1.478 . S
C935 H929 0.930 . S
C935 C931 1.400 . S
C935 C934 1.385 . S
C936 C934 1.478 . S
C936 C938 1.381 . S
C936 C942 1.383 . S
C937 C933 1.495 . S
C937 H943 0.959 . S
C937 H944 0.961 . S
C937 H945 0.960 . S
C938 C936 1.381 . S
C938 C939 1.394 . S
C938 H946 0.930 . S
C939 C938 1.394 . S
C939 C940 1.383 . S
C939 H947 0.929 . S
C940 C939 1.383 . S
C940 C941 1.377 . S
C941 H925 0.930 . S
C941 C940 1.377 . S
C941 C942 1.379 . S
C942 H926 0.931 . S
C942 C936 1.383 . S
C942 C941 1.379 . S
H943 C937 0.959 . S
H944 C937 0.961 . S
H945 C937 0.960 . S
H946 C938 0.930 . S
H947 C939 0.929 . S
H948 C956 0.929 . S
H949 C958 0.930 . S
H950 C960 0.930 . S
H951 C963 0.929 . S
H952 C966 0.930 . S
H953 C968 0.960 . S
H954 C968 0.960 . S
H955 C968 0.960 . S
C956 H948 0.929 . S
C956 C957 1.377 . S
C956 C958 1.384 . S
C957 C956 1.377 . S
C957 C963 1.390 . S
C958 H949 0.930 . S
C958 C956 1.384 . S
C958 C959 1.372 . S
C959 C958 1.372 . S
C959 C960 1.400 . S
C959 C964 1.490 . S
C960 H950 0.930 . S
C960 C959 1.400 . S
C960 C963 1.386 . S
H961 C977 0.930 . S
H962 C978 0.931 . S
C963 H951 0.929 . S
C963 C957 1.390 . S
C963 C960 1.386 . S
C964 C959 1.490 . S
C964 C966 1.395 . S
C964 C967 1.403 . S
H965 C971 0.930 . S
C966 H952 0.930 . S
C966 C964 1.395 . S
C966 C969 1.403 . S
C967 C964 1.403 . S
C967 C968 1.524 . S
C967 C971 1.400 . S
C968 H953 0.960 . S
C968 H954 0.960 . S
C968 H955 0.960 . S
C968 C967 1.524 . S
C969 C966 1.403 . S
C969 C970 1.392 . S
C969 C973 1.495 . S
C970 C969 1.392 . S
C970 C971 1.385 . S
C970 C972 1.478 . S
C971 H965 0.930 . S
C971 C967 1.400 . S
C971 C970 1.385 . S
C972 C970 1.478 . S
C972 C974 1.381 . S
C972 C978 1.383 . S
C973 C969 1.495 . S
C973 H979 0.959 . S
C973 H980 0.961 . S
C973 H981 0.960 . S
C974 C972 1.381 . S
C974 C975 1.394 . S
C974 H982 0.930 . S
C975 C974 1.394 . S
C975 C976 1.383 . S
C975 H983 0.929 . S
C976 C975 1.383 . S
C976 C977 1.377 . S
C977 H961 0.930 . S
C977 C976 1.377 . S
C977 C978 1.379 . S
C978 H962 0.931 . S
C978 C972 1.383 . S
C978 C977 1.379 . S
H979 C973 0.959 . S
H980 C973 0.961 . S
H981 C973 0.960 . S
H982 C974 0.930 . S
H983 C975 0.929 . S
H984 C992 0.929 . S
H985 C994 0.930 . S
H986 C996 0.930 . S
H987 C999 0.929 . S
H988 C1002 0.930 . S
H989 C1004 0.960 . S
H990 C1004 0.960 . S
H991 C1004 0.960 . S
C992 H984 0.929 . S
C992 C993 1.377 . S
C992 C994 1.384 . S
C993 C992 1.377 . S
C993 C999 1.390 . S
C994 H985 0.930 . S
C994 C992 1.384 . S
C994 C995 1.372 . S
C995 C994 1.372 . S
C995 C996 1.400 . S
C995 C1000 1.490 . S
C996 H986 0.930 . S
C996 C995 1.400 . S
C996 C999 1.386 . S
H997 C1013 0.930 . S
H998 C1014 0.931 . S
C999 H987 0.929 . S
C999 C993 1.390 . S
C999 C996 1.386 . S
C1000 C995 1.490 . S
C1000 C1002 1.395 . S
C1000 C1003 1.403 . S
H1001 C1007 0.930 . S
C1002 H988 0.930 . S
C1002 C1000 1.395 . S
C1002 C1005 1.403 . S
C1003 C1000 1.403 . S
C1003 C1004 1.524 . S
C1003 C1007 1.400 . S
C1004 H989 0.960 . S
C1004 H990 0.960 . S
C1004 H991 0.960 . S
C1004 C1003 1.524 . S
C1005 C1002 1.403 . S
C1005 C1006 1.392 . S
C1005 C1009 1.495 . S
C1006 C1005 1.392 . S
C1006 C1007 1.385 . S
C1006 C1008 1.478 . S
C1007 H1001 0.930 . S
C1007 C1003 1.400 . S
C1007 C1006 1.385 . S
C1008 C1006 1.478 . S
C1008 C1010 1.381 . S
C1008 C1014 1.383 . S
C1009 C1005 1.495 . S
C1009 H1015 0.959 . S
C1009 H1016 0.961 . S
C1009 H1017 0.960 . S
C1010 C1008 1.381 . S
C1010 C1011 1.394 . S
C1010 H1018 0.930 . S
C1011 C1010 1.394 . S
C1011 C1012 1.383 . S
C1011 H1019 0.929 . S
C1012 C1011 1.383 . S
C1012 C1013 1.377 . S
C1013 H997 0.930 . S
C1013 C1012 1.377 . S
C1013 C1014 1.379 . S
C1014 H998 0.931 . S
C1014 C1008 1.383 . S
C1014 C1013 1.379 . S
H1015 C1009 0.959 . S
H1016 C1009 0.961 . S
H1017 C1009 0.960 . S
H1018 C1010 0.930 . S
H1019 C1011 0.929 . S
C165 C10 1.276 . S
C184 C153 1.270 . S
C201 C88 1.274 . S
C220 C23 1.261 . S
C237 C36 1.278 . S
C256 C101 1.279 . S
C273 C114 1.277 . S
C292 C49 1.277 . S
C309 C127 1.274 . S
C328 C62 1.261 . S
C345 C140 1.275 . S
C364 C75 1.266 . S
C381 C47 1.302 . S
C400 C112 1.318 . S
C417 C60 1.316 . S
C436 C125 1.286 . S
C453 C73 1.302 . S
C472 C138 1.326 . S
C489 C151 1.315 . S
C508 C8 1.311 . S
C525 C21 1.316 . S
C544 C86 1.298 . S
C561 C34 1.316 . S
C580 C99 1.306 . S
C597 C109 1.474 . S
C616 C5 1.450 . S
C633 C122 1.477 . S
C652 C18 1.482 . S
C669 C31 1.475 . S
C688 C135 1.450 . S
C705 C44 1.470 . S
C724 C148 1.483 . S
C741 C57 1.473 . S
C760 C83 1.492 . S
C777 C96 1.475 . S
C796 C70 1.451 . S
C813 C0 1.260 . S
C832 C130 1.281 . S
C849 C143 1.261 . S
C868 C13 1.281 . S
C885 C26 1.265 . S
C904 C78 1.246 . S
C921 C39 1.263 . S
C940 C91 1.237 . S
C957 C52 1.256 . S
C976 C104 1.270 . S
C993 C65 1.265 . S
C1012 C117 1.270 . S
