# Generated by pormake.
# Topology unw, (4)-cn, num edge types: 1
# Building blocks:
#     Node 0, Type 0, BuildingBlock: CEKHIL_clean_sbu_0, # of connection points: 4
#     Node 1, Type 0, BuildingBlock: CEKHIL_clean_sbu_0, # of connection points: 4
#     Node 2, Type 0, BuildingBlock: CEKHIL_clean_sbu_0, # of connection points: 4
#     Node 3, Type 0, BuildingBlock: CEKHIL_clean_sbu_0, # of connection points: 4
#     Node 4, Type 0, BuildingBlock: CEKHIL_clean_sbu_0, # of connection points: 4
#     Node 5, Type 0, BuildingBlock: CEKHIL_clean_sbu_0, # of connection points: 4
#     Node 6, Type 0, BuildingBlock: CEKHIL_clean_sbu_0, # of connection points: 4
#     Node 7, Type 0, BuildingBlock: CEKHIL_clean_sbu_0, # of connection points: 4
#     Node 8, Type 0, BuildingBlock: CEKHIL_clean_sbu_0, # of connection points: 4
#     Node 9, Type 0, BuildingBlock: CEKHIL_clean_sbu_0, # of connection points: 4
#     Node 10, Type 0, BuildingBlock: CEKHIL_clean_sbu_0, # of connection points: 4
#     Node 11, Type 0, BuildingBlock: CEKHIL_clean_sbu_0, # of connection points: 4
#     Node 12, Type 0, BuildingBlock: CEKHIL_clean_sbu_0, # of connection points: 4
#     Node 13, Type 0, BuildingBlock: CEKHIL_clean_sbu_0, # of connection points: 4
#     Node 14, Type 0, BuildingBlock: CEKHIL_clean_sbu_0, # of connection points: 4
#     Node 15, Type 0, BuildingBlock: CEKHIL_clean_sbu_0, # of connection points: 4
#     Node 16, Type 0, BuildingBlock: CEKHIL_clean_sbu_0, # of connection points: 4
#     Node 17, Type 0, BuildingBlock: CEKHIL_clean_sbu_0, # of connection points: 4
#     Node 18, Type 0, BuildingBlock: CEKHIL_clean_sbu_0, # of connection points: 4
#     Node 19, Type 0, BuildingBlock: CEKHIL_clean_sbu_0, # of connection points: 4
#     Node 20, Type 0, BuildingBlock: CEKHIL_clean_sbu_0, # of connection points: 4
#     Node 21, Type 0, BuildingBlock: CEKHIL_clean_sbu_0, # of connection points: 4
#     Node 22, Type 0, BuildingBlock: CEKHIL_clean_sbu_0, # of connection points: 4
#     Node 23, Type 0, BuildingBlock: CEKHIL_clean_sbu_0, # of connection points: 4
#     Edge 24, Type (0, 0), BuildingBlock: XIVTED_clean_linker_0, # of connection points: 2
#     Edge 25, Type (0, 0), BuildingBlock: XIVTED_clean_linker_0, # of connection points: 2
#     Edge 26, Type (0, 0), BuildingBlock: XIVTED_clean_linker_0, # of connection points: 2
#     Edge 27, Type (0, 0), BuildingBlock: XIVTED_clean_linker_0, # of connection points: 2
#     Edge 28, Type (0, 0), BuildingBlock: XIVTED_clean_linker_0, # of connection points: 2
#     Edge 29, Type (0, 0), BuildingBlock: XIVTED_clean_linker_0, # of connection points: 2
#     Edge 30, Type (0, 0), BuildingBlock: XIVTED_clean_linker_0, # of connection points: 2
#     Edge 31, Type (0, 0), BuildingBlock: XIVTED_clean_linker_0, # of connection points: 2
#     Edge 32, Type (0, 0), BuildingBlock: XIVTED_clean_linker_0, # of connection points: 2
#     Edge 33, Type (0, 0), BuildingBlock: XIVTED_clean_linker_0, # of connection points: 2
#     Edge 34, Type (0, 0), BuildingBlock: XIVTED_clean_linker_0, # of connection points: 2
#     Edge 35, Type (0, 0), BuildingBlock: XIVTED_clean_linker_0, # of connection points: 2
#     Edge 36, Type (0, 0), BuildingBlock: XIVTED_clean_linker_0, # of connection points: 2
#     Edge 37, Type (0, 0), BuildingBlock: XIVTED_clean_linker_0, # of connection points: 2
#     Edge 38, Type (0, 0), BuildingBlock: XIVTED_clean_linker_0, # of connection points: 2
#     Edge 39, Type (0, 0), BuildingBlock: XIVTED_clean_linker_0, # of connection points: 2
#     Edge 40, Type (0, 0), BuildingBlock: XIVTED_clean_linker_0, # of connection points: 2
#     Edge 41, Type (0, 0), BuildingBlock: XIVTED_clean_linker_0, # of connection points: 2
#     Edge 42, Type (0, 0), BuildingBlock: XIVTED_clean_linker_0, # of connection points: 2
#     Edge 43, Type (0, 0), BuildingBlock: XIVTED_clean_linker_0, # of connection points: 2
#     Edge 44, Type (0, 0), BuildingBlock: XIVTED_clean_linker_0, # of connection points: 2
#     Edge 45, Type (0, 0), BuildingBlock: XIVTED_clean_linker_0, # of connection points: 2
#     Edge 46, Type (0, 0), BuildingBlock: XIVTED_clean_linker_0, # of connection points: 2
#     Edge 47, Type (0, 0), BuildingBlock: XIVTED_clean_linker_0, # of connection points: 2
#     Edge 48, Type (0, 0), BuildingBlock: XIVTED_clean_linker_0, # of connection points: 2
#     Edge 49, Type (0, 0), BuildingBlock: XIVTED_clean_linker_0, # of connection points: 2
#     Edge 50, Type (0, 0), BuildingBlock: XIVTED_clean_linker_0, # of connection points: 2
#     Edge 51, Type (0, 0), BuildingBlock: XIVTED_clean_linker_0, # of connection points: 2
#     Edge 52, Type (0, 0), BuildingBlock: XIVTED_clean_linker_0, # of connection points: 2
#     Edge 53, Type (0, 0), BuildingBlock: XIVTED_clean_linker_0, # of connection points: 2
#     Edge 54, Type (0, 0), BuildingBlock: XIVTED_clean_linker_0, # of connection points: 2
#     Edge 55, Type (0, 0), BuildingBlock: XIVTED_clean_linker_0, # of connection points: 2
#     Edge 56, Type (0, 0), BuildingBlock: XIVTED_clean_linker_0, # of connection points: 2
#     Edge 57, Type (0, 0), BuildingBlock: XIVTED_clean_linker_0, # of connection points: 2
#     Edge 58, Type (0, 0), BuildingBlock: XIVTED_clean_linker_0, # of connection points: 2
#     Edge 59, Type (0, 0), BuildingBlock: XIVTED_clean_linker_0, # of connection points: 2
#     Edge 60, Type (0, 0), BuildingBlock: XIVTED_clean_linker_0, # of connection points: 2
#     Edge 61, Type (0, 0), BuildingBlock: XIVTED_clean_linker_0, # of connection points: 2
#     Edge 62, Type (0, 0), BuildingBlock: XIVTED_clean_linker_0, # of connection points: 2
#     Edge 63, Type (0, 0), BuildingBlock: XIVTED_clean_linker_0, # of connection points: 2
#     Edge 64, Type (0, 0), BuildingBlock: XIVTED_clean_linker_0, # of connection points: 2
#     Edge 65, Type (0, 0), BuildingBlock: XIVTED_clean_linker_0, # of connection points: 2
#     Edge 66, Type (0, 0), BuildingBlock: XIVTED_clean_linker_0, # of connection points: 2
#     Edge 67, Type (0, 0), BuildingBlock: XIVTED_clean_linker_0, # of connection points: 2
#     Edge 68, Type (0, 0), BuildingBlock: XIVTED_clean_linker_0, # of connection points: 2
#     Edge 69, Type (0, 0), BuildingBlock: XIVTED_clean_linker_0, # of connection points: 2
#     Edge 70, Type (0, 0), BuildingBlock: XIVTED_clean_linker_0, # of connection points: 2
#     Edge 71, Type (0, 0), BuildingBlock: XIVTED_clean_linker_0, # of connection points: 2
# Relax obj value: 0.378
# Max RMSD: 0.301
# Mean RMSD: 0.288
data_MOF--net-unw--node1-CEKHIL_clean_sbu_0--edge1-XIVTED_clean_linker_0
_symmetry_space_group_name_H-M    P1
_symmetry_Int_Tables_number       1
_symmetry_cell_setting            triclinic
loop_
_symmetry_equiv_pos_as_xyz
'x, y, z'
_cell_length_a     44.38621
_cell_length_b     45.211391
_cell_length_c     44.849468
_cell_angle_alpha  90.007647
_cell_angle_beta   90.182895
_cell_angle_gamma 90.459344
loop_
_atom_site_label
_atom_site_type_symbol
_atom_site_fract_x
_atom_site_fract_y
_atom_site_fract_z
_atom_type_partial_charge
Co0 Co 0.1084 0.39234 0.29472 0.0
O1 O 0.09901 0.43028 0.27865 0.0
O2 O 0.13759 0.42112 0.30877 0.0
C3 C 0.06212 0.37763 0.30849 0.0
O4 O 0.12394 0.35573 0.31588 0.0
Co5 Co 0.08307 0.33715 0.26148 0.0
O6 O 0.09824 0.31655 0.29753 0.0
C7 C 0.13586 0.36746 0.23711 0.0
C8 C 0.12314 0.43986 0.29206 0.0
C9 C 0.11666 0.32809 0.31615 0.0
O10 O 0.13594 0.38432 0.26013 0.0
O11 O 0.11503 0.3484 0.23191 0.0
O12 O 0.0774 0.39591 0.32521 0.0
O13 O 0.07308 0.37338 0.28218 0.0
Co14 Co 0.62657 0.12975 0.23036 0.0
O15 O 0.61418 0.10052 0.2587 0.0
O16 O 0.63672 0.09055 0.21589 0.0
C17 C 0.58472 0.15756 0.23068 0.0
O18 O 0.64135 0.15532 0.19546 0.0
Co19 Co 0.63533 0.19416 0.25286 0.0
O20 O 0.63157 0.20208 0.20963 0.0
C21 C 0.68383 0.15155 0.26236 0.0
C22 C 0.62568 0.08097 0.24104 0.0
C23 C 0.63808 0.18309 0.18973 0.0
O24 O 0.66755 0.13173 0.24955 0.0
O25 O 0.67507 0.1781 0.26668 0.0
O26 O 0.58568 0.13333 0.21507 0.0
O27 O 0.60703 0.16149 0.24893 0.0
Co28 Co 0.88633 0.61379 0.27844 0.0
O29 O 0.90358 0.58481 0.25262 0.0
O30 O 0.86806 0.5757 0.28615 0.0
C31 C 0.92878 0.63703 0.2928 0.0
O32 O 0.86368 0.63863 0.30893 0.0
Co33 Co 0.89182 0.68039 0.26184 0.0
O34 O 0.88105 0.68531 0.30438 0.0
C35 C 0.84295 0.64428 0.23565 0.0
C36 C 0.88475 0.56611 0.26441 0.0
C37 C 0.86618 0.66549 0.31828 0.0
O38 O 0.85347 0.62129 0.24859 0.0
O39 O 0.85505 0.67 0.23766 0.0
O40 O 0.92082 0.61223 0.30532 0.0
O41 O 0.91355 0.64422 0.26931 0.0
Co42 Co 0.35613 0.89716 0.18868 0.0
O43 O 0.39276 0.89009 0.16738 0.0
O44 O 0.37165 0.85869 0.19919 0.0
C45 C 0.36488 0.9433 0.20474 0.0
O46 O 0.31849 0.89758 0.21491 0.0
Co47 Co 0.31214 0.94366 0.16303 0.0
O48 O 0.29031 0.93635 0.20066 0.0
C49 C 0.31136 0.88428 0.13776 0.0
C50 C 0.39305 0.86433 0.18022 0.0
C51 C 0.29553 0.91468 0.21801 0.0
O52 O 0.33263 0.87785 0.15587 0.0
O53 O 0.29941 0.90988 0.13636 0.0
O54 O 0.37716 0.92083 0.21798 0.0
O55 O 0.35246 0.93752 0.17909 0.0
Co56 Co 0.13954 0.59473 0.69202 0.0
O57 O 0.1328 0.55502 0.7048 0.0
O58 O 0.16876 0.56891 0.67349 0.0
C59 C 0.0918 0.60803 0.68335 0.0
O60 O 0.15155 0.63456 0.67387 0.0
Co61 Co 0.11597 0.64338 0.73447 0.0
O62 O 0.1238 0.66807 0.69868 0.0
C63 C 0.171 0.61284 0.75072 0.0
C64 C 0.1566 0.54809 0.68973 0.0
C65 C 0.14092 0.66086 0.67711 0.0
O66 O 0.16949 0.60028 0.72518 0.0
O67 O 0.15034 0.62988 0.76041 0.0
O68 O 0.10628 0.59249 0.66368 0.0
O69 O 0.10479 0.61014 0.70914 0.0
Co70 Co 0.39496 0.09762 0.78754 0.0
O71 O 0.40724 0.06193 0.7686 0.0
O72 O 0.36792 0.06588 0.79877 0.0
C73 C 0.43988 0.11478 0.803 0.0
O74 O 0.37679 0.13146 0.8112 0.0
Co75 Co 0.41633 0.15614 0.75775 0.0
O76 O 0.40075 0.1728 0.79557 0.0
C77 C 0.36541 0.12437 0.73159 0.0
C78 C 0.38363 0.04974 0.78052 0.0
C79 C 0.38314 0.15922 0.81346 0.0
O80 O 0.36674 0.10621 0.75349 0.0
O81 O 0.38492 0.14492 0.72744 0.0
O82 O 0.42615 0.09412 0.81807 0.0
O83 O 0.42881 0.11978 0.7768 0.0
Co84 Co 0.86592 0.36978 0.7167 0.0
O85 O 0.90687 0.36241 0.70576 0.0
O86 O 0.87708 0.33017 0.72879 0.0
C87 C 0.87158 0.41489 0.73662 0.0
O88 O 0.82241 0.37046 0.73145 0.0
Co89 Co 0.83158 0.41857 0.68265 0.0
O90 O 0.80279 0.4137 0.71598 0.0
C91 C 0.839 0.36132 0.65386 0.0
C92 C 0.9029 0.3359 0.71626 0.0
C93 C 0.80163 0.39025 0.73164 0.0
O94 O 0.85249 0.35307 0.67764 0.0
O95 O 0.82873 0.38745 0.65028 0.0
O96 O 0.87839 0.39137 0.7518 0.0
O97 O 0.86618 0.41062 0.70843 0.0
Co98 Co 0.618 0.88199 0.77727 0.0
O99 O 0.60649 0.918 0.75826 0.0
O100 O 0.64391 0.91392 0.79091 0.0
C101 C 0.57224 0.86453 0.78946 0.0
O102 O 0.63508 0.84784 0.80169 0.0
Co103 Co 0.59901 0.823 0.74657 0.0
O104 O 0.61174 0.80642 0.7854 0.0
C105 C 0.6528 0.85436 0.72534 0.0
C106 C 0.62886 0.93035 0.77233 0.0
C107 C 0.62876 0.82001 0.80389 0.0
O108 O 0.64824 0.87439 0.74497 0.0
O109 O 0.63519 0.83215 0.72141 0.0
O110 O 0.5851 0.88494 0.80564 0.0
O111 O 0.58495 0.85954 0.76406 0.0
Co112 Co 0.2848 0.12227 0.38889 0.0
O113 O 0.30546 0.08549 0.38374 0.0
O114 O 0.27055 0.10312 0.35314 0.0
C115 C 0.27312 0.11994 0.4373 0.0
O116 O 0.2585 0.15885 0.3875 0.0
Co117 Co 0.31578 0.171 0.42649 0.0
O118 O 0.27737 0.19216 0.42003 0.0
C119 C 0.33799 0.16058 0.36664 0.0
C120 C 0.29055 0.083 0.35883 0.0
C121 C 0.2572 0.18362 0.40162 0.0
O122 O 0.31612 0.14221 0.36391 0.0
O123 O 0.34359 0.17426 0.39102 0.0
O124 O 0.25759 0.10508 0.41765 0.0
O125 O 0.29842 0.13108 0.42771 0.0
Co126 Co 0.88135 0.20313 0.37625 0.0
O127 O 0.86954 0.1839 0.41263 0.0
O128 O 0.83924 0.20979 0.38316 0.0
C129 C 0.92395 0.2256 0.39118 0.0
O130 O 0.88498 0.22612 0.33746 0.0
Co131 Co 0.93866 0.18395 0.34242 0.0
O132 O 0.93092 0.21935 0.31755 0.0
C133 C 0.88325 0.14927 0.33483 0.0
C134 C 0.8426 0.19354 0.40679 0.0
C135 C 0.90542 0.23195 0.31801 0.0
O136 O 0.87055 0.16666 0.35338 0.0
O137 O 0.91083 0.1519 0.327 0.0
O138 O 0.89784 0.23654 0.39787 0.0
O139 O 0.92335 0.19897 0.38023 0.0
Co140 Co 0.69366 0.86585 0.38979 0.0
O141 O 0.67301 0.90294 0.38661 0.0
O142 O 0.70249 0.88409 0.35177 0.0
C143 C 0.7129 0.86999 0.43597 0.0
O144 O 0.71886 0.82847 0.38561 0.0
Co145 Co 0.67098 0.8187 0.43486 0.0
O146 O 0.71 0.79983 0.42586 0.0
C147 C 0.64143 0.82296 0.37655 0.0
C148 C 0.68451 0.90511 0.36008 0.0
C149 C 0.72473 0.80602 0.40235 0.0
O150 O 0.65863 0.84505 0.37062 0.0
O151 O 0.64228 0.80894 0.40131 0.0
O152 O 0.72544 0.88361 0.41366 0.0
O153 O 0.68635 0.85893 0.43055 0.0
Co154 Co 0.10928 0.78977 0.38103 0.0
O155 O 0.12353 0.81038 0.41567 0.0
O156 O 0.14824 0.77473 0.39228 0.0
C157 C 0.06175 0.77976 0.39421 0.0
O158 O 0.10108 0.76366 0.34483 0.0
Co159 Co 0.06167 0.82071 0.34171 0.0
O160 O 0.06392 0.78408 0.31751 0.0
C161 C 0.12354 0.84177 0.33907 0.0
C162 C 0.14785 0.79476 0.41309 0.0
C163 C 0.08271 0.76349 0.32248 0.0
O164 O 0.13033 0.81963 0.35545 0.0
O165 O 0.09634 0.84813 0.33232 0.0
O166 O 0.08385 0.76418 0.40475 0.0
O167 O 0.06973 0.80423 0.38114 0.0
Co168 Co 0.29129 0.87586 0.60329 0.0
O169 O 0.28007 0.88763 0.56396 0.0
O170 O 0.30884 0.84911 0.57469 0.0
C171 C 0.30348 0.91998 0.62262 0.0
O172 O 0.30794 0.85823 0.64155 0.0
Co173 Co 0.25126 0.89693 0.65578 0.0
O174 O 0.28507 0.88103 0.67989 0.0
C175 C 0.23025 0.84745 0.61915 0.0
C176 C 0.29454 0.86456 0.55472 0.0
C177 C 0.3051 0.86375 0.66958 0.0
O178 O 0.25548 0.8484 0.60531 0.0
O179 O 0.22277 0.8666 0.63873 0.0
O180 O 0.32244 0.90631 0.60546 0.0
O181 O 0.27643 0.90918 0.62272 0.0
Co182 Co 0.11484 0.21107 0.63446 0.0
O183 O 0.07533 0.22453 0.62487 0.0
O184 O 0.08583 0.19419 0.66223 0.0
C185 C 0.13082 0.19999 0.58833 0.0
O186 O 0.15394 0.19221 0.6491 0.0
Co187 Co 0.16731 0.25083 0.61184 0.0
O188 O 0.19029 0.21478 0.6221 0.0
C189 C 0.13429 0.2697 0.66439 0.0
C190 C 0.06591 0.20973 0.6478 0.0
C191 C 0.18126 0.19416 0.6394 0.0
O192 O 0.12015 0.24488 0.66322 0.0
O193 O 0.15303 0.27791 0.64436 0.0
O194 O 0.11326 0.18179 0.60269 0.0
O195 O 0.13335 0.22605 0.60012 0.0
Co196 Co 0.70837 0.12594 0.60998 0.0
O197 O 0.724 0.1118 0.57319 0.0
O198 O 0.68867 0.14605 0.57723 0.0
C199 C 0.70201 0.08245 0.63314 0.0
O200 O 0.68648 0.1443 0.64514 0.0
Co201 Co 0.74835 0.1172 0.66613 0.0
O202 O 0.70976 0.12669 0.68611 0.0
C203 C 0.76338 0.16519 0.62503 0.0
C204 C 0.70633 0.13056 0.56023 0.0
C205 C 0.68786 0.13994 0.67351 0.0
O206 O 0.73921 0.15887 0.61054 0.0
O207 O 0.77278 0.14969 0.64701 0.0
O208 O 0.68234 0.09146 0.61367 0.0
O209 O 0.72697 0.09746 0.63392 0.0
Co210 Co 0.88181 0.76255 0.61718 0.0
O211 O 0.90967 0.73339 0.60371 0.0
O212 O 0.92113 0.7703 0.63441 0.0
C213 C 0.85924 0.77215 0.57325 0.0
O214 O 0.85819 0.79684 0.63516 0.0
Co215 Co 0.81345 0.74827 0.61401 0.0
O216 O 0.81134 0.79195 0.61657 0.0
C217 C 0.84852 0.72699 0.66522 0.0
C218 C 0.92947 0.74632 0.62071 0.0
C219 C 0.83167 0.80704 0.62986 0.0
O220 O 0.87234 0.73783 0.65324 0.0
O221 O 0.82238 0.72839 0.65318 0.0
O222 O 0.88511 0.78429 0.57977 0.0
O223 O 0.85041 0.75157 0.59135 0.0
Co224 Co 0.39202 0.29863 0.1385 0.0
O225 O 0.43262 0.28804 0.13007 0.0
O226 O 0.41884 0.3156 0.16844 0.0
C227 C 0.37717 0.31036 0.09226 0.0
O228 O 0.35122 0.31407 0.15244 0.0
Co229 Co 0.34297 0.25697 0.11262 0.0
O230 O 0.31757 0.29169 0.12195 0.0
C231 C 0.37438 0.23854 0.16647 0.0
C232 C 0.44012 0.30139 0.15458 0.0
C233 C 0.32453 0.31143 0.14116 0.0
O234 O 0.3881 0.26352 0.16553 0.0
O235 O 0.35593 0.23013 0.14613 0.0
O236 O 0.39234 0.32942 0.10819 0.0
O237 O 0.37606 0.28373 0.10284 0.0
Co238 Co 0.3881 0.7012 0.87893 0.0
O239 O 0.38357 0.67998 0.91569 0.0
O240 O 0.35148 0.71317 0.89801 0.0
C241 C 0.43641 0.71511 0.88203 0.0
O242 O 0.3856 0.72768 0.84242 0.0
Co243 Co 0.4281 0.67475 0.82958 0.0
O244 O 0.41929 0.71227 0.80852 0.0
C245 C 0.36864 0.64903 0.83891 0.0
C246 C 0.35803 0.69366 0.91826 0.0
C247 C 0.39952 0.7305 0.81742 0.0
O248 O 0.3645 0.66951 0.85811 0.0
O249 O 0.39361 0.64571 0.8252 0.0
O250 O 0.41583 0.72901 0.89696 0.0
O251 O 0.42788 0.69008 0.87034 0.0
Co252 Co 0.24174 0.38006 0.87183 0.0
O253 O 0.2306 0.42015 0.86323 0.0
O254 O 0.25689 0.39125 0.83315 0.0
C255 C 0.25845 0.38397 0.91865 0.0
O256 O 0.2578 0.33814 0.87344 0.0
Co257 Co 0.20426 0.34418 0.91714 0.0
O258 O 0.23574 0.31384 0.91152 0.0
C259 C 0.17906 0.35325 0.85807 0.0
C260 C 0.24315 0.41619 0.83736 0.0
C261 C 0.25503 0.31545 0.8906 0.0
O262 O 0.20393 0.36621 0.85166 0.0
O263 O 0.1733 0.34318 0.88409 0.0
O264 O 0.27528 0.39234 0.89646 0.0
O265 O 0.23024 0.37912 0.91226 0.0
Co266 Co 0.6041 0.29335 0.87661 0.0
O267 O 0.61661 0.31714 0.91009 0.0
O268 O 0.6449 0.28405 0.88688 0.0
C269 C 0.55887 0.27722 0.89168 0.0
O270 O 0.59943 0.26454 0.8421 0.0
Co271 Co 0.55103 0.31279 0.83653 0.0
O272 O 0.5588 0.27578 0.81431 0.0
C273 C 0.60933 0.34159 0.82862 0.0
C274 C 0.6426 0.30427 0.90727 0.0
C275 C 0.58129 0.25948 0.8202 0.0
O276 O 0.6197 0.32458 0.84893 0.0
O277 O 0.58178 0.34138 0.82025 0.0
O278 O 0.5834 0.26563 0.90225 0.0
O279 O 0.56262 0.30184 0.87713 0.0
Co280 Co 0.79785 0.62215 0.89576 0.0
O281 O 0.82086 0.58645 0.89291 0.0
O282 O 0.78705 0.60115 0.8597 0.0
C283 C 0.7831 0.61991 0.94345 0.0
O284 O 0.76949 0.65729 0.89191 0.0
Co285 Co 0.82206 0.67311 0.93568 0.0
O286 O 0.78259 0.69103 0.9267 0.0
C287 C 0.84595 0.66703 0.8754 0.0
C288 C 0.80728 0.58198 0.86757 0.0
C289 C 0.76514 0.68173 0.90608 0.0
O290 O 0.82928 0.64398 0.8723 0.0
O291 O 0.84706 0.68226 0.89941 0.0
O292 O 0.76978 0.60385 0.92322 0.0
O293 O 0.80834 0.63208 0.93524 0.0
Co294 Co 0.60732 0.71892 0.12184 0.0
O295 O 0.57654 0.74432 0.10698 0.0
O296 O 0.56862 0.70684 0.13794 0.0
C297 C 0.632 0.71155 0.07873 0.0
O298 O 0.63448 0.68792 0.14101 0.0
Co299 Co 0.67372 0.74095 0.12007 0.0
O300 O 0.6809 0.69788 0.12357 0.0
C301 C 0.63513 0.75862 0.1701 0.0
C302 C 0.55785 0.72937 0.12338 0.0
C303 C 0.66215 0.68077 0.13655 0.0
O304 O 0.61287 0.74505 0.15779 0.0
O305 O 0.66147 0.76005 0.15862 0.0
O306 O 0.60768 0.69645 0.08469 0.0
O307 O 0.63777 0.7332 0.09675 0.0
Co308 Co 0.21546 0.62606 0.1291 0.0
O309 O 0.24226 0.61365 0.09852 0.0
O310 O 0.20056 0.63944 0.09085 0.0
C311 C 0.21287 0.58365 0.15476 0.0
O312 O 0.18211 0.64143 0.1562 0.0
Co313 Co 0.23993 0.62936 0.19378 0.0
O314 O 0.19627 0.62853 0.20263 0.0
C315 C 0.2522 0.67877 0.15322 0.0
C316 C 0.2247 0.62729 0.08002 0.0
C317 C 0.17647 0.63737 0.18409 0.0
O318 O 0.23791 0.66467 0.13275 0.0
O319 O 0.25632 0.66846 0.17948 0.0
O320 O 0.19697 0.58714 0.13063 0.0
O321 O 0.23324 0.60377 0.15961 0.0
Co322 Co 0.80093 0.3735 0.09641 0.0
O323 O 0.78472 0.3895 0.06053 0.0
O324 O 0.81467 0.35049 0.06281 0.0
C325 C 0.81492 0.4161 0.11826 0.0
O326 O 0.8221 0.35191 0.13011 0.0
Co327 Co 0.76844 0.38865 0.15582 0.0
O328 O 0.80675 0.37335 0.1728 0.0
C329 C 0.74217 0.34349 0.11639 0.0
C330 C 0.79785 0.36791 0.04681 0.0
C331 C 0.82424 0.3563 0.1584 0.0
O332 O 0.76557 0.34552 0.09978 0.0
O333 O 0.73756 0.36055 0.13869 0.0
O334 O 0.83205 0.40426 0.0981 0.0
O335 O 0.7885 0.40426 0.12094 0.0
H336 H 0.24224 0.56631 0.20595 0.0
H337 H 0.09409 0.48645 0.26748 0.0
H338 H 0.15798 0.55727 0.15836 0.0
H339 H 0.18243 0.45745 0.29451 0.0
H340 H 0.11738 0.52566 0.23799 0.0
H341 H 0.22076 0.53657 0.24696 0.0
C342 C 0.21939 0.55792 0.20407 0.0
C343 C 0.20198 0.56387 0.1786 0.0
C344 C 0.13167 0.51106 0.25084 0.0
C345 C 0.17719 0.53125 0.22547 0.0
C346 C 0.11839 0.48887 0.26788 0.0
C347 C 0.1364 0.46842 0.283 0.0
C348 C 0.16316 0.51273 0.24879 0.0
C349 C 0.16778 0.47273 0.283 0.0
C350 C 0.20716 0.54123 0.22746 0.0
C351 C 0.17239 0.55289 0.17734 0.0
N352 N 0.18031 0.49416 0.26556 0.0
N353 N 0.16092 0.53729 0.20049 0.0
H354 H 0.5574 0.16512 0.17708 0.0
H355 H 0.45306 0.29692 0.21443 0.0
H356 H 0.56802 0.20639 0.26325 0.0
H357 H 0.49155 0.28475 0.12716 0.0
H358 H 0.49237 0.2649 0.2354 0.0
H359 H 0.52822 0.2074 0.16034 0.0
C360 C 0.55323 0.18294 0.19264 0.0
C361 C 0.56487 0.18213 0.22171 0.0
C362 C 0.49268 0.27008 0.21182 0.0
C363 C 0.53152 0.2308 0.20256 0.0
C364 C 0.4705 0.28862 0.19989 0.0
C365 C 0.46887 0.2932 0.16894 0.0
C366 C 0.51284 0.25593 0.19251 0.0
C367 C 0.49178 0.28151 0.15109 0.0
C368 C 0.53692 0.20727 0.18293 0.0
C369 C 0.55921 0.20616 0.24071 0.0
N370 N 0.51232 0.26283 0.16299 0.0
N371 N 0.54254 0.22948 0.23094 0.0
H372 H 0.87236 0.43817 0.12327 0.0
H373 H 0.83616 0.52922 0.27182 0.0
H374 H 0.78504 0.4403 0.16527 0.0
H375 H 0.91871 0.53896 0.22207 0.0
H376 H 0.82053 0.48951 0.23798 0.0
H377 H 0.89236 0.46975 0.16312 0.0
C378 C 0.85736 0.44543 0.14077 0.0
C379 C 0.82695 0.43679 0.14086 0.0
C380 C 0.84226 0.50006 0.23474 0.0
C381 C 0.84975 0.47243 0.18672 0.0
C382 C 0.85134 0.5225 0.25426 0.0
C383 C 0.8786 0.53762 0.2495 0.0
C384 C 0.86063 0.49274 0.2104 0.0
C385 C 0.89734 0.52807 0.22632 0.0
C386 C 0.86883 0.46326 0.16361 0.0
C387 C 0.8086 0.44655 0.16425 0.0
N388 N 0.88785 0.50647 0.2074 0.0
N389 N 0.82029 0.46385 0.18623 0.0
H390 H 0.52069 0.72014 0.17156 0.0
H391 H 0.43193 0.86704 0.13372 0.0
H392 H 0.52663 0.7666 0.08776 0.0
H393 H 0.40429 0.81023 0.20614 0.0
H394 H 0.46721 0.8296 0.11759 0.0
H395 H 0.47702 0.75052 0.18487 0.0
C396 C 0.51227 0.73609 0.15563 0.0
C397 C 0.52744 0.74114 0.12866 0.0
C398 C 0.4534 0.82513 0.13696 0.0
C399 C 0.47829 0.77621 0.14395 0.0
C400 C 0.43339 0.84668 0.14636 0.0
C401 C 0.41528 0.84184 0.17144 0.0
C402 C 0.45574 0.79852 0.15291 0.0
C403 C 0.41798 0.81487 0.18674 0.0
C404 C 0.48755 0.75357 0.16334 0.0
C405 C 0.51582 0.76225 0.10894 0.0
N406 N 0.43806 0.79423 0.17737 0.0
N407 N 0.49226 0.77924 0.11715 0.0
H408 H 0.27257 0.42113 0.78352 0.0
H409 H 0.21753 0.53767 0.68758 0.0
H410 H 0.19725 0.45509 0.83319 0.0
H411 H 0.13287 0.49826 0.71389 0.0
H412 H 0.24388 0.50264 0.72034 0.0
H413 H 0.2551 0.44902 0.73944 0.0
C414 C 0.25273 0.4348 0.78528 0.0
C415 C 0.2365 0.4361 0.81212 0.0
C416 C 0.21963 0.50107 0.71799 0.0
C417 C 0.21603 0.46667 0.76197 0.0
C418 C 0.20458 0.52081 0.6991 0.0
C419 C 0.17292 0.52105 0.6983 0.0
C420 C 0.20269 0.48197 0.73618 0.0
C421 C 0.15726 0.49906 0.71411 0.0
C422 C 0.24279 0.45049 0.76019 0.0
C423 C 0.2107 0.45375 0.81315 0.0
N424 N 0.17223 0.48103 0.73311 0.0
N425 N 0.20102 0.46791 0.78831 0.0
H426 H 0.51149 0.28447 0.85258 0.0
H427 H 0.45658 0.11653 0.86187 0.0
H428 H 0.54697 0.22431 0.91836 0.0
H429 H 0.4648 0.16494 0.77927 0.0
H430 H 0.47961 0.15855 0.88824 0.0
H431 H 0.48071 0.24402 0.8322 0.0
C432 C 0.51234 0.263 0.86318 0.0
C433 C 0.53278 0.2574 0.88635 0.0
C434 C 0.47633 0.15983 0.86434 0.0
C435 C 0.49745 0.21142 0.86354 0.0
C436 C 0.46354 0.1358 0.84922 0.0
C437 C 0.45862 0.1373 0.81832 0.0
C438 C 0.48375 0.1856 0.84848 0.0
C439 C 0.46797 0.16288 0.80311 0.0
C440 C 0.49495 0.23991 0.85139 0.0
C441 C 0.53211 0.22936 0.89989 0.0
N442 N 0.47976 0.18619 0.8184 0.0
N443 N 0.51509 0.20723 0.888 0.0
H444 H 0.84699 0.53805 0.87981 0.0
H445 H 0.83958 0.46375 0.7175 0.0
H446 H 0.78922 0.57085 0.80985 0.0
H447 H 0.88932 0.42928 0.79248 0.0
H448 H 0.82379 0.50566 0.74868 0.0
H449 H 0.86484 0.49986 0.84621 0.0
C450 C 0.8379 0.53711 0.85738 0.0
C451 C 0.81646 0.55759 0.84769 0.0
C452 C 0.83834 0.48897 0.75814 0.0
C453 C 0.83709 0.51386 0.80875 0.0
C454 C 0.84749 0.46519 0.74032 0.0
C455 C 0.86548 0.44283 0.75255 0.0
C456 C 0.84756 0.49037 0.78816 0.0
C457 C 0.87517 0.44582 0.78219 0.0
C458 C 0.84819 0.51531 0.8381 0.0
C459 C 0.80562 0.55534 0.81829 0.0
N460 N 0.86599 0.46897 0.79894 0.0
N461 N 0.81609 0.53385 0.79979 0.0
H462 H 0.54994 0.86501 0.84602 0.0
H463 H 0.47337 0.70447 0.83379 0.0
H464 H 0.54794 0.81422 0.76452 0.0
H465 H 0.45994 0.76464 0.90715 0.0
H466 H 0.50761 0.74078 0.81092 0.0
H467 H 0.52167 0.8257 0.87074 0.0
C468 C 0.54325 0.84572 0.8332 0.0
C469 C 0.55135 0.84289 0.80316 0.0
C470 C 0.49736 0.74582 0.83218 0.0
C471 C 0.51943 0.79744 0.83153 0.0
C472 C 0.47802 0.72503 0.84534 0.0
C473 C 0.46315 0.73194 0.87197 0.0
C474 C 0.50213 0.77333 0.84611 0.0
C475 C 0.47048 0.75865 0.88628 0.0
C476 C 0.52731 0.82315 0.84741 0.0
C477 C 0.54218 0.8173 0.78774 0.0
N478 N 0.48917 0.77848 0.87303 0.0
N479 N 0.52683 0.79544 0.80215 0.0
H480 H 0.13197 0.14479 0.56448 0.0
H481 H 0.2852 0.16854 0.47326 0.0
H482 H 0.1783 0.22901 0.56107 0.0
H483 H 0.2259 0.09301 0.46408 0.0
H484 H 0.25097 0.1889 0.51101 0.0
H485 H 0.16992 0.12398 0.53185 0.0
C486 C 0.15002 0.15903 0.55664 0.0
C487 C 0.15192 0.18871 0.56556 0.0
C488 C 0.2457 0.16775 0.50086 0.0
C489 C 0.19597 0.16478 0.5283 0.0
C490 C 0.26531 0.15603 0.47949 0.0
C491 C 0.25799 0.12938 0.46501 0.0
C492 C 0.21904 0.15233 0.50803 0.0
C493 C 0.2322 0.11386 0.47432 0.0
C494 C 0.17184 0.14706 0.53811 0.0
C495 C 0.17594 0.20601 0.55471 0.0
N496 N 0.21361 0.12565 0.49499 0.0
N497 N 0.19716 0.19376 0.53671 0.0
H498 H 0.72507 0.09309 0.51726 0.0
H499 H 0.78899 0.22227 0.41407 0.0
H500 H 0.70116 0.18413 0.53225 0.0
H501 H 0.83667 0.14327 0.43917 0.0
H502 H 0.74574 0.20545 0.44416 0.0
H503 H 0.75251 0.10796 0.47259 0.0
C504 C 0.72467 0.11609 0.51048 0.0
C505 C 0.71143 0.13754 0.52866 0.0
C506 C 0.76563 0.19181 0.44274 0.0
C507 C 0.74329 0.15469 0.47824 0.0
C508 C 0.79025 0.20138 0.42581 0.0
C509 C 0.8165 0.1843 0.42469 0.0
C510 C 0.76717 0.16465 0.45773 0.0
C511 C 0.81706 0.15733 0.43996 0.0
C512 C 0.74054 0.12457 0.48519 0.0
C513 C 0.7113 0.16699 0.51884 0.0
N514 N 0.79272 0.1483 0.4558 0.0
N515 N 0.72778 0.17492 0.49453 0.0
H516 H 0.69862 0.83047 0.48066 0.0
H517 H 0.86908 0.82144 0.53925 0.0
H518 H 0.77101 0.88579 0.44802 0.0
H519 H 0.80126 0.75562 0.5596 0.0
H520 H 0.83225 0.84786 0.50896 0.0
H521 H 0.7343 0.80652 0.51462 0.0
C522 C 0.72186 0.83792 0.48096 0.0
C523 C 0.73194 0.85979 0.46107 0.0
C524 C 0.82542 0.82757 0.51995 0.0
C525 C 0.77282 0.83248 0.4997 0.0
C526 C 0.84652 0.81236 0.5371 0.0
C527 C 0.83825 0.78627 0.55198 0.0
C528 C 0.79575 0.81672 0.51774 0.0
C529 C 0.80862 0.77565 0.5485 0.0
C530 C 0.74226 0.82407 0.50016 0.0
C531 C 0.76227 0.86877 0.46267 0.0
N532 N 0.78838 0.791 0.53187 0.0
N533 N 0.78165 0.85492 0.48141 0.0
H534 H 0.19662 0.75997 0.42689 0.0
H535 H 0.27978 0.8962 0.50555 0.0
H536 H 0.16167 0.84825 0.43637 0.0
H537 H 0.29267 0.80683 0.53638 0.0
H538 H 0.24974 0.87723 0.46401 0.0
H539 H 0.24251 0.77577 0.45403 0.0
C540 C 0.19864 0.78259 0.43466 0.0
C541 C 0.17518 0.80273 0.43 0.0
C542 C 0.25985 0.8617 0.4794 0.0
C543 C 0.22758 0.82102 0.45945 0.0
C544 C 0.27722 0.87249 0.50291 0.0
C545 C 0.28811 0.85307 0.52468 0.0
C546 C 0.25316 0.83136 0.47787 0.0
C547 C 0.2844 0.82252 0.52012 0.0
C548 C 0.22478 0.79157 0.44986 0.0
C549 C 0.17893 0.83185 0.44006 0.0
N550 N 0.26646 0.81254 0.49754 0.0
N551 N 0.20463 0.84012 0.45421 0.0
H552 H 0.59542 0.97474 0.74934 0.0
H553 H 0.73707 0.05862 0.67774 0.0
H554 H 0.68687 0.95156 0.77137 0.0
H555 H 0.64603 0.06041 0.64372 0.0
H556 H 0.71973 0.02669 0.71885 0.0
H557 H 0.61424 0.0158 0.71938 0.0
C558 C 0.61949 0.97883 0.74848 0.0
C559 C 0.63965 0.95964 0.76255 0.0
C560 C 0.70366 0.0342 0.70235 0.0
C561 C 0.66145 0.00593 0.72744 0.0
C562 C 0.71354 0.05219 0.67884 0.0
C563 C 0.69302 0.06185 0.6571 0.0
C564 C 0.67305 0.02629 0.7042 0.0
C565 C 0.66274 0.05323 0.65973 0.0
C566 C 0.63026 0.00208 0.73112 0.0
C567 C 0.67062 0.96594 0.76083 0.0
N568 N 0.65372 0.03603 0.68281 0.0
N569 N 0.68069 0.9883 0.74301 0.0
H570 H 0.9653 0.7527 0.67027 0.0
H571 H 0.06555 0.61219 0.62851 0.0
H572 H 0.95732 0.70429 0.5877 0.0
H573 H 0.06255 0.6496 0.71698 0.0
H574 H 0.02923 0.64886 0.61185 0.0
H575 H 0.00587 0.71943 0.68578 0.0
C576 C 0.97259 0.73555 0.65512 0.0
C577 C 0.95793 0.73115 0.6277 0.0
C578 C 0.03641 0.64903 0.63495 0.0
C579 C 0.0037 0.6928 0.64546 0.0
C580 C 0.05701 0.62795 0.64454 0.0
C581 C 0.06709 0.62782 0.6742 0.0
C582 C 0.0258 0.67027 0.65511 0.0
C583 C 0.05535 0.64889 0.69391 0.0
C584 C 0.99545 0.71635 0.66413 0.0
C585 C 0.96795 0.70836 0.60908 0.0
N586 N 0.03541 0.66939 0.68399 0.0
N587 N 0.99007 0.68995 0.61837 0.0
H588 H 0.41512 0.00617 0.75342 0.0
H589 H 0.26989 0.94965 0.66384 0.0
H590 H 0.3247 0.03245 0.77549 0.0
H591 H 0.36172 0.93248 0.63808 0.0
H592 H 0.28857 0.97525 0.70841 0.0
H593 H 0.39474 0.97157 0.71671 0.0
C594 C 0.39089 0.00393 0.75117 0.0
C595 C 0.37156 0.02234 0.76726 0.0
C596 C 0.3046 0.96591 0.69296 0.0
C597 C 0.34809 0.98367 0.72454 0.0
C598 C 0.29398 0.95157 0.66739 0.0
C599 C 0.3143 0.93909 0.64714 0.0
C600 C 0.33574 0.96771 0.6983 0.0
C601 C 0.34524 0.94199 0.65293 0.0
C602 C 0.37926 0.98447 0.72994 0.0
C603 C 0.34037 0.0186 0.76354 0.0
N604 N 0.35499 0.95593 0.678 0.0
N605 N 0.32957 6e-05 0.74208 0.0
H606 H 0.01707 0.22533 0.61553 0.0
H607 H 0.91305 0.28322 0.746 0.0
H608 H 0.04597 0.20912 0.70593 0.0
H609 H 0.94183 0.33499 0.67029 0.0
H610 H 0.94861 0.24402 0.73091 0.0
H611 H 0.97309 0.2512 0.63452 0.0
C612 C 0.01361 0.22635 0.63942 0.0
C613 C 0.03537 0.21549 0.6592 0.0
C614 C 0.94694 0.26406 0.71781 0.0
C615 C 0.98535 0.24536 0.68097 0.0
C616 C 0.92686 0.28635 0.72637 0.0
C617 C 0.92485 0.31249 0.70955 0.0
C618 C 0.96397 0.26775 0.69174 0.0
C619 C 0.94296 0.31544 0.68417 0.0
C620 C 0.98865 0.24126 0.65019 0.0
C621 C 0.02968 0.21727 0.68997 0.0
N622 N 0.96148 0.29326 0.67591 0.0
N623 N 0.00538 0.2326 0.70004 0.0
H624 H 0.70698 0.91854 0.30444 0.0
H625 H 0.59219 0.05258 0.28262 0.0
H626 H 0.64104 0.94622 0.36899 0.0
H627 H 0.66875 0.04042 0.22507 0.0
H628 H 0.60502 0.0073 0.30891 0.0
H629 H 0.68985 0.95802 0.27083 0.0
C630 C 0.68899 0.93292 0.31157 0.0
C631 C 0.67558 0.92924 0.33968 0.0
C632 C 0.61891 0.01426 0.29034 0.0
C633 C 0.6556 0.97389 0.30124 0.0
C634 C 0.61144 0.04002 0.27516 0.0
C635 C 0.62957 0.05037 0.2518 0.0
C636 C 0.64494 -0.00127 0.28238 0.0
C637 C 0.65416 0.03313 0.24296 0.0
C638 C 0.67918 0.95534 0.29235 0.0
C639 C 0.65223 0.94835 0.34768 0.0
N640 N 0.66142 0.00828 0.25856 0.0
N641 N 0.64302 0.96974 0.32859 0.0
H642 H 0.94509 0.69247 0.27429 0.0
H643 H 0.04082 0.72887 0.41911 0.0
H644 H 0.95294 0.63253 0.34876 0.0
H645 H 0.01737 0.79506 0.35397 0.0
H646 H 0.00456 0.69503 0.39642 0.0
H647 H 0.97012 0.73093 0.30382 0.0
C648 C 0.95228 0.68733 0.29678 0.0
C649 C 0.94704 0.65921 0.30905 0.0
C650 C 0.00698 0.71709 0.38727 0.0
C651 C 0.9753 0.70323 0.34308 0.0
C652 C 0.02752 0.73655 0.40039 0.0
C653 C 0.03302 0.7644 0.38761 0.0
C654 C 0.99203 0.72546 0.36104 0.0
C655 C 0.01462 0.77341 0.36388 0.0
C656 C 0.96625 0.70941 0.31374 0.0
C657 C 0.95672 0.65382 0.33833 0.0
N658 N 0.99549 0.75365 0.35075 0.0
N659 N 0.97045 0.67561 0.35432 0.0
H660 H 0.32289 0.98704 0.19402 0.0
H661 H 0.33303 0.04018 0.36392 0.0
H662 H 0.39078 0.95942 0.25699 0.0
H663 H 0.27007 0.07778 0.30122 0.0
H664 H 0.35352 0.00989 0.32416 0.0
H665 H 0.30385 0.02199 0.23132 0.0
C666 C 0.33412 0.98868 0.21542 0.0
C667 C 0.35793 0.96975 0.22271 0.0
C668 C 0.33515 0.02467 0.319 0.0
C669 C 0.33628 0.00929 0.26533 0.0
C670 C 0.32323 0.04178 0.34183 0.0
C671 C 0.29975 0.06147 0.33592 0.0
C672 C 0.32354 0.02716 0.28993 0.0
C673 C 0.28808 0.06273 0.30678 0.0
C674 C 0.32312 0.00847 0.23676 0.0
C675 C 0.37196 0.97315 0.25059 0.0
N676 N 0.30015 0.04583 0.28479 0.0
N677 N 0.36069 0.99217 0.27095 0.0
H678 H 0.03574 0.32931 0.28223 0.0
H679 H 0.93041 0.28155 0.41292 0.0
H680 H 0.0388 0.3781 0.36497 0.0
H681 H 0.97577 0.21668 0.359 0.0
H682 H 0.96527 0.31949 0.3945 0.0
H683 H 0.00642 0.29053 0.30695 0.0
C684 C 0.03006 0.33203 0.30551 0.0
C685 C 0.04011 0.3568 0.32169 0.0
C686 C 0.96777 0.29685 0.38706 0.0
C687 C 0.00644 0.31264 0.3499 0.0
C688 C 0.94804 0.27515 0.39762 0.0
C689 C 0.94966 0.24605 0.38679 0.0
C690 C 0.98879 0.28944 0.36514 0.0
C691 C 0.97319 0.23895 0.36734 0.0
C692 C 0.01361 0.30975 0.31963 0.0
C693 C 0.03166 0.35928 0.35173 0.0
N694 N 0.99138 0.2607 0.35646 0.0
N695 N 0.01517 0.33746 0.3649 0.0
H696 H 0.7979 0.66359 0.98401 0.0
H697 H 0.6857 0.73729 0.06315 0.0
H698 H 0.72719 0.60173 0.96055 0.0
H699 H 0.63166 0.65881 0.04887 0.0
H700 H 0.72602 0.71539 0.03404 0.0
H701 H 0.76357 0.68756 0.01871 0.0
C702 C 0.77522 0.65491 0.98635 0.0
C703 C 0.76526 0.63099 0.9689 0.0
C704 C 0.70564 0.70264 0.03748 0.0
C705 C 0.72528 0.65891 0.00784 0.0
C706 C 0.68234 0.71542 0.05379 0.0
C707 C 0.65527 0.69987 0.05845 0.0
C708 C 0.70189 0.67394 0.02584 0.0
C709 C 0.65209 0.67167 0.04577 0.0
C710 C 0.75535 0.66893 0.00588 0.0
C711 C 0.73578 0.62039 0.97319 0.0
N712 N 0.67511 0.65965 0.03012 0.0
N713 N 0.71683 0.63457 0.99196 0.0
H714 H 0.26063 0.59208 0.04716 0.0
H715 H 0.304 0.71957 0.93144 0.0
H716 H 0.21407 0.6754 0.04452 0.0
H717 H 0.36072 0.64605 0.95515 0.0
H718 H 0.26543 0.70073 0.96583 0.0
H719 H 0.29021 0.60733 0.0041 0.0
C720 C 0.25613 0.61333 0.03696 0.0
C721 C 0.2352 0.63268 0.04949 0.0
C722 C 0.28635 0.68882 0.96343 0.0
C723 C 0.2696 0.65069 0.0009 0.0
C724 C 0.30842 0.69962 0.94403 0.0
C725 C 0.3357 0.68449 0.94072 0.0
C726 C 0.29157 0.66253 0.9792 0.0
C727 C 0.34018 0.65861 0.95726 0.0
C728 C 0.27322 0.62215 0.01259 0.0
C729 C 0.23005 0.65988 0.03541 0.0
N730 N 0.31831 0.64843 0.9757 0.0
N731 N 0.24761 0.66839 0.01207 0.0
H732 H 0.3078 0.34966 0.91952 0.0
H733 H 0.348 0.3628 0.0872 0.0
H734 H 0.2425 0.38938 0.97784 0.0
H735 H 0.36102 0.27968 0.04208 0.0
H736 H 0.31496 0.37877 0.04631 0.0
H737 H 0.3337 0.32914 0.96288 0.0
C738 C 0.29893 0.35406 0.94154 0.0
C739 C 0.27305 0.37128 0.94524 0.0
C740 C 0.32496 0.35701 0.04553 0.0
C741 C 0.30304 0.34847 0.99481 0.0
C742 C 0.34404 0.34802 0.06855 0.0
C743 C 0.35753 0.32006 0.06764 0.0
C744 C 0.32016 0.33825 0.02108 0.0
C745 C 0.3512 0.30149 0.04339 0.0
C746 C 0.31362 0.3422 0.96617 0.0
C747 C 0.2624 0.37618 0.97419 0.0
N748 N 0.33338 0.31113 0.02071 0.0
N749 N 0.27782 0.36526 0.99808 0.0
H750 H 0.79844 0.31345 0.01999 0.0
H751 H 0.65063 0.35661 0.93625 0.0
H752 H 0.77195 0.404 0.00596 0.0
H753 H 0.69535 0.27463 0.91608 0.0
H754 H 0.69584 0.37371 0.96233 0.0
H755 H 0.76397 0.29812 0.98 0.0
C756 C 0.78631 0.33022 0.00771 0.0
C757 C 0.78749 0.35995 0.01665 0.0
C758 C 0.69588 0.35204 0.95203 0.0
C759 C 0.74755 0.34255 0.97187 0.0
C760 C 0.66993 0.34214 0.93752 0.0
C761 C 0.6692 0.31407 0.92436 0.0
C762 C 0.72109 0.33353 0.95388 0.0
C763 C 0.69501 0.29638 0.92618 0.0
C764 C 0.7664 0.32143 0.98512 0.0
C765 C 0.77121 0.38076 0.00011 0.0
N766 N 0.71987 0.30625 0.94103 0.0
N767 N 0.75132 0.37159 0.979 0.0
H768 H 0.16341 0.34075 0.35454 0.0
H769 H 0.20485 0.17181 0.37114 0.0
H770 H 0.10516 0.26933 0.32528 0.0
H771 H 0.25212 0.24157 0.41819 0.0
H772 H 0.16587 0.20707 0.35741 0.0
H773 H 0.19374 0.30499 0.382 0.0
C774 C 0.15671 0.31766 0.35424 0.0
C775 C 0.13213 0.30795 0.33699 0.0
C776 C 0.18461 0.21458 0.37104 0.0
C777 C 0.16684 0.26697 0.36805 0.0
C778 C 0.20695 0.19447 0.37874 0.0
C779 C 0.23203 0.20384 0.39541 0.0
C780 C 0.18761 0.24433 0.37971 0.0
C781 C 0.23333 0.23341 0.40504 0.0
C782 C 0.17404 0.29724 0.36991 0.0
C783 C 0.12432 0.27779 0.33771 0.0
N784 N 0.21165 0.25271 0.39668 0.0
N785 N 0.14191 0.25832 0.35256 0.0
H786 H 0.87554 0.15034 0.27521 0.0
H787 H 0.70394 0.09971 0.28651 0.0
H788 H 0.84149 0.10987 0.3554 0.0
H789 H 0.73437 0.18481 0.25464 0.0
H790 H 0.75663 0.0869 0.29812 0.0
H791 H 0.82607 0.14333 0.25184 0.0
C792 C 0.85825 0.13824 0.28723 0.0
C793 C 0.86238 0.13088 0.31731 0.0
C794 C 0.7516 0.10818 0.28826 0.0
C795 C 0.80603 0.1233 0.29104 0.0
C796 C 0.72174 0.11559 0.2819 0.0
C797 C 0.71495 0.1436 0.27027 0.0
C798 C 0.77467 0.12851 0.28177 0.0
C799 C 0.73868 0.16328 0.26425 0.0
C800 C 0.82992 0.13476 0.27408 0.0
C801 C 0.83903 0.11587 0.33215 0.0
N802 N 0.76754 0.15531 0.26997 0.0
N803 N 0.81149 0.11311 0.31907 0.0
H804 H 0.8801 0.7006 0.36568 0.0
H805 H 0.73094 0.78226 0.34726 0.0
H806 H 0.80589 0.65758 0.32057 0.0
H807 H 0.76805 0.77994 0.43622 0.0
H808 H 0.76406 0.74133 0.33326 0.0
H809 H 0.84418 0.73307 0.39107 0.0
C810 C 0.85615 0.69723 0.36215 0.0
C811 C 0.84575 0.67639 0.34128 0.0
C812 C 0.7649 0.74988 0.35582 0.0
C813 C 0.80523 0.71417 0.36861 0.0
C814 C 0.74648 0.77343 0.36362 0.0
C815 C 0.74718 0.78446 0.39275 0.0
C816 C 0.78458 0.73795 0.37711 0.0
C817 C 0.76716 0.77196 0.41345 0.0
C818 C 0.8358 0.71585 0.37636 0.0
C819 C 0.81465 0.67317 0.33683 0.0
N820 N 0.7855 0.7495 0.40513 0.0
N821 N 0.79544 0.69256 0.3497 0.0
H822 H 0.29648 0.87185 0.26171 0.0
H823 H 0.12212 0.88576 0.2964 0.0
H824 H 0.24177 0.94243 0.22646 0.0
H825 H 0.18332 0.83595 0.35181 0.0
H826 H 0.16562 0.90758 0.27077 0.0
H827 H 0.25525 0.8585 0.29536 0.0
C828 C 0.276 0.88471 0.26122 0.0
C829 C 0.27256 0.90806 0.24096 0.0
C830 C 0.16942 0.89212 0.2888 0.0
C831 C 0.22523 0.89275 0.2791 0.0
C832 C 0.1446 0.8797 0.30345 0.0
C833 C 0.14898 0.85863 0.32596 0.0
C834 C 0.19869 0.88313 0.29657 0.0
C835 C 0.17872 0.85171 0.33423 0.0
C836 C 0.25248 0.87712 0.28045 0.0
C837 C 0.24547 0.92406 0.24147 0.0
N838 N 0.20237 0.8636 0.31928 0.0
N839 N 0.22275 0.91587 0.25992 0.0
H840 H 0.19242 0.66646 0.6433 0.0
H841 H 0.17179 0.83859 0.63698 0.0
H842 H 0.10892 0.71004 0.66404 0.0
H843 H 0.24577 0.79477 0.59351 0.0
H844 H 0.14554 0.79117 0.64065 0.0
H845 H 0.20993 0.71178 0.61842 0.0
C846 C 0.17754 0.6853 0.64201 0.0
C847 C 0.14957 0.68484 0.65643 0.0
C848 C 0.16728 0.79197 0.6298 0.0
C849 C 0.16939 0.73659 0.62844 0.0
C850 C 0.18228 0.81911 0.62771 0.0
C851 C 0.21128 0.82062 0.6155 0.0
C852 C 0.18164 0.76605 0.62018 0.0
C853 C 0.22359 0.79463 0.60349 0.0
C854 C 0.18753 0.71118 0.62789 0.0
C855 C 0.13105 0.70976 0.65395 0.0
N856 N 0.20902 0.7683 0.60676 0.0
N857 N 0.14149 0.73476 0.64076 0.0
H858 H 0.31082 0.09928 0.74499 0.0
H859 H 0.22954 0.17671 0.60745 0.0
H860 H 0.35669 0.14917 0.67644 0.0
H861 H 0.18564 0.16282 0.69208 0.0
H862 H 0.27352 0.1505 0.62595 0.0
H863 H 0.26304 0.10728 0.719 0.0
C864 C 0.31101 0.11133 0.72411 0.0
C865 C 0.3378 0.12399 0.71305 0.0
C866 C 0.25411 0.15277 0.64033 0.0
C867 C 0.28325 0.13288 0.6833 0.0
C868 C 0.229 0.16773 0.62985 0.0
C869 C 0.20427 0.17263 0.64863 0.0
C870 C 0.25458 0.14259 0.66979 0.0
C871 C 0.20442 0.15981 0.67708 0.0
C872 C 0.28368 0.11596 0.70944 0.0
C873 C 0.33658 0.13935 0.68595 0.0
N874 N 0.22954 0.14574 0.68707 0.0
N875 N 0.3097 0.14354 0.6721 0.0
H876 H 0.82088 0.1825 0.6401 0.0
H877 H 0.78634 0.35017 0.62348 0.0
H878 H 0.74137 0.21237 0.5937 0.0
H879 H 0.87613 0.31712 0.63735 0.0
H880 H 0.77074 0.30105 0.60565 0.0
H881 H 0.84307 0.23174 0.63426 0.0
C882 C 0.80825 0.19928 0.62834 0.0
C883 C 0.77907 0.19335 0.61778 0.0
C884 C 0.79411 0.30481 0.61165 0.0
C885 C 0.80414 0.25002 0.61136 0.0
C886 C 0.80307 0.33297 0.62148 0.0
C887 C 0.83242 0.3375 0.63227 0.0
C888 C 0.81462 0.28125 0.61308 0.0
C889 C 0.85314 0.31435 0.62958 0.0
C890 C 0.82097 0.22741 0.62487 0.0
C891 C 0.76387 0.21597 0.60243 0.0
N892 N 0.84369 0.28705 0.62098 0.0
N893 N 0.7763 0.24347 0.60024 0.0
H894 H 0.80119 0.85417 0.60778 0.0
H895 H 0.68744 0.80727 0.71201 0.0
H896 H 0.83325 0.81519 0.68942 0.0
H897 H 0.68549 0.90253 0.70597 0.0
H898 H 0.73924 0.80815 0.69364 0.0
H899 H 0.75894 0.87562 0.63515 0.0
C900 C 0.80041 0.85176 0.63181 0.0
C901 C 0.82036 0.83259 0.64639 0.0
C902 C 0.72734 0.82882 0.69633 0.0
C903 C 0.77179 0.85568 0.67713 0.0
C904 C 0.69772 0.82831 0.70624 0.0
C905 C 0.68213 0.85483 0.71011 0.0
C906 C 0.74124 0.85591 0.68954 0.0
C907 C 0.69681 0.88161 0.70299 0.0
C908 C 0.77614 0.86371 0.64731 0.0
C909 C 0.81821 0.82974 0.67741 0.0
N910 N 0.7256 0.88151 0.6925 0.0
N911 N 0.79339 0.83994 0.6916 0.0
H912 H 0.37248 0.20997 0.35323 0.0
H913 H 0.3479 0.18512 0.18131 0.0
H914 H 0.34115 0.1269 0.31652 0.0
H915 H 0.40886 0.25214 0.21536 0.0
H916 H 0.34769 0.16188 0.23057 0.0
H917 H 0.38934 0.22469 0.30327 0.0
C918 C 0.3698 0.19457 0.33489 0.0
C919 C 0.35481 0.16747 0.33898 0.0
C920 C 0.36149 0.18142 0.22708 0.0
C921 C 0.3734 0.1843 0.28186 0.0
C922 C 0.3616 0.19469 0.19892 0.0
C923 C 0.37795 0.22093 0.19419 0.0
C924 C 0.37744 0.19475 0.25077 0.0
C925 C 0.39546 0.23219 0.21795 0.0
C926 C 0.37929 0.20301 0.30634 0.0
C927 C 0.35196 0.14835 0.31433 0.0
N928 N 0.39429 0.21938 0.2453 0.0
N929 N 0.36059 0.15735 0.2868 0.0
H930 H 0.93742 0.27923 0.2967 0.0
H931 H 0.83504 0.29752 0.15286 0.0
H932 H 0.85677 0.2273 0.28218 0.0
H933 H 0.85955 0.37447 0.20466 0.0
H934 H 0.86013 0.26622 0.19004 0.0
H935 H 0.92406 0.30996 0.25313 0.0
C936 C 0.91699 0.27439 0.28426 0.0
C937 C 0.89777 0.25126 0.29302 0.0
C938 C 0.86061 0.29004 0.19272 0.0
C939 C 0.88345 0.28482 0.24315 0.0
C940 C 0.8466 0.30783 0.17152 0.0
C941 C 0.84516 0.33843 0.17603 0.0
C942 C 0.87376 0.30315 0.21798 0.0
C943 C 0.86009 0.35085 0.2007 0.0
C944 C 0.90954 0.29169 0.25955 0.0
C945 C 0.87175 0.24539 0.27627 0.0
N946 N 0.87373 0.33309 0.22098 0.0
N947 N 0.86542 0.26198 0.25191 0.0
H948 H 0.58628 0.78729 0.19336 0.0
H949 H 0.64028 0.76532 0.36015 0.0
H950 H 0.67348 0.75263 0.21672 0.0
H951 H 0.6096 0.85157 0.33323 0.0
H952 H 0.6333 0.74792 0.30881 0.0
H953 H 0.57835 0.80043 0.24622 0.0
C954 C 0.60377 0.78269 0.20958 0.0
C955 C 0.63085 0.76948 0.20075 0.0
C956 C 0.62706 0.77034 0.31451 0.0
C957 C 0.62116 0.78266 0.2607 0.0
C958 C 0.63056 0.78015 0.34382 0.0
C959 C 0.62555 0.80992 0.35081 0.0
C960 C 0.61784 0.79028 0.29241 0.0
C961 C 0.61368 0.82844 0.32861 0.0
C962 C 0.59912 0.78992 0.23955 0.0
C963 C 0.65261 0.76341 0.22256 0.0
N964 N 0.61054 0.81841 0.30017 0.0
N965 N 0.64717 0.76978 0.25161 0.0
H966 H 0.14703 0.61292 0.23092 0.0
H967 H 0.0646 0.76451 0.26418 0.0
H968 H 0.1417 0.68452 0.16764 0.0
H969 H 0.10508 0.70779 0.33032 0.0
H970 H 0.07474 0.7272 0.22605 0.0
H971 H 0.11187 0.63886 0.26328 0.0
C972 C 0.13762 0.63369 0.22341 0.0
C973 C 0.14782 0.64709 0.19705 0.0
C974 C 0.08081 0.72275 0.24902 0.0
C975 C 0.10814 0.6769 0.23404 0.0
C976 C 0.07509 0.74397 0.27081 0.0
C977 C 0.08466 0.73945 0.30036 0.0
C978 C 0.09575 0.69673 0.25698 0.0
C979 C 0.09794 0.71241 0.3077 0.0
C980 C 0.11772 0.6485 0.24193 0.0
C981 C 0.13463 0.67368 0.18801 0.0
N982 N 0.10335 0.69215 0.28607 0.0
N983 N 0.11595 0.6882 0.20692 0.0
H984 H 0.36286 0.77757 0.82911 0.0
H985 H 0.3488 0.82251 0.6584 0.0
H986 H 0.41686 0.73886 0.75949 0.0
H987 H 0.30635 0.87029 0.73016 0.0
H988 H 0.37704 0.79409 0.69526 0.0
H989 H 0.3449 0.81427 0.79355 0.0
C990 C 0.37113 0.77691 0.80643 0.0
C991 C 0.39102 0.75481 0.79719 0.0
C992 C 0.36176 0.81102 0.70289 0.0
C993 C 0.37042 0.79663 0.7563 0.0
C994 C 0.34559 0.82722 0.68185 0.0
C995 C 0.32475 0.84846 0.69117 0.0
C996 C 0.35688 0.81598 0.73341 0.0
C997 C 0.32179 0.85382 0.72188 0.0
C998 C 0.36092 0.79793 0.78613 0.0
C999 C 0.40128 0.7553 0.76758 0.0
N1000 N 0.33739 0.83744 0.74188 0.0
N1001 N 0.39055 0.77563 0.74809 0.0
H1002 H 0.14045 0.30601 0.84959 0.0
H1003 H 0.1567 0.32546 0.67608 0.0
H1004 H 0.17236 0.38638 0.80807 0.0
H1005 H 0.1038 0.25507 0.71543 0.0
H1006 H 0.1569 0.35098 0.72404 0.0
H1007 H 0.11999 0.28994 0.80131 0.0
C1008 C 0.14225 0.32069 0.83058 0.0
C1009 C 0.15863 0.34726 0.83266 0.0
C1010 C 0.14483 0.33016 0.72208 0.0
C1011 C 0.13608 0.32881 0.7774 0.0
C1012 C 0.14479 0.31554 0.69465 0.0
C1013 C 0.13073 0.28779 0.69175 0.0
C1014 C 0.13116 0.31675 0.74696 0.0
C1015 C 0.11535 0.27622 0.71662 0.0
C1016 C 0.13081 0.31143 0.80294 0.0
C1017 C 0.16042 0.3654 0.80729 0.0
N1018 N 0.11646 0.29047 0.74329 0.0
N1019 N 0.14988 0.35559 0.78062 0.0
H1020 H 0.64457 0.18137 0.66056 0.0
H1021 H 0.61486 0.21039 0.83124 0.0
H1022 H 0.67678 0.12473 0.73115 0.0
H1023 H 0.56441 0.25399 0.76177 0.0
H1024 H 0.63351 0.17534 0.79453 0.0
H1025 H 0.6107 0.205 0.69628 0.0
C1026 C 0.64421 0.17362 0.68341 0.0
C1027 C 0.66409 0.15162 0.69308 0.0
C1028 C 0.61799 0.19228 0.78732 0.0
C1029 C 0.62565 0.17846 0.73389 0.0
C1030 C 0.60741 0.21233 0.8083 0.0
C1031 C 0.5885 0.23536 0.79942 0.0
C1032 C 0.6101 0.19569 0.75715 0.0
C1033 C 0.57918 0.23664 0.76949 0.0
C1034 C 0.62488 0.18707 0.70377 0.0
C1035 C 0.66246 0.14219 0.72286 0.0
N1036 N 0.59056 0.21741 0.74926 0.0
N1037 N 0.64394 0.15594 0.74227 0.0
H1038 H 0.89427 0.69446 0.68934 0.0
H1039 H 0.84357 0.7237 0.85584 0.0
H1040 H 0.8102 0.73629 0.71129 0.0
H1041 H 0.8747 0.63699 0.83121 0.0
H1042 H 0.84764 0.73907 0.80354 0.0
H1043 H 0.90116 0.68186 0.7424 0.0
C1044 C 0.87716 0.70067 0.70529 0.0
C1045 C 0.85132 0.71588 0.69599 0.0
C1046 C 0.85442 0.71697 0.80986 0.0
C1047 C 0.85993 0.70313 0.75628 0.0
C1048 C 0.85261 0.70834 0.83968 0.0
C1049 C 0.85889 0.67907 0.84774 0.0
C1050 C 0.86321 0.69635 0.78825 0.0
C1051 C 0.86977 0.65978 0.82578 0.0
C1052 C 0.88124 0.69371 0.7354 0.0
C1053 C 0.83007 0.72396 0.7175 0.0
N1054 N 0.87141 0.6687 0.79687 0.0
N1055 N 0.83501 0.71778 0.74674 0.0
H1056 H 0.14273 0.34236 0.1819 0.0
H1057 H 0.2771 0.33053 0.1085 0.0
H1058 H 0.19104 0.39245 0.24898 0.0
H1059 H 0.31534 0.33512 0.19694 0.0
H1060 H 0.2307 0.35205 0.12732 0.0
H1061 H 0.18965 0.33631 0.15466 0.0
C1062 C 0.16307 0.35265 0.19057 0.0
C1063 C 0.16289 0.36782 0.21783 0.0
C1064 C 0.24917 0.34836 0.14266 0.0
C1065 C 0.21687 0.36118 0.18661 0.0
C1066 C 0.27576 0.33635 0.13191 0.0
C1067 C 0.29975 0.33038 0.15141 0.0
C1068 C 0.24636 0.35408 0.17324 0.0
C1069 C 0.2972 0.33909 0.18128 0.0
C1070 C 0.1899 0.3494 0.17486 0.0
C1071 C 0.19006 0.38058 0.22803 0.0
N1072 N 0.27068 0.35013 0.19145 0.0
N1073 N 0.21607 0.37647 0.21271 0.0
H1074 H 0.31841 0.63974 0.87229 0.0
H1075 H 0.22111 0.58193 0.73438 0.0
H1076 H 0.35694 0.61885 0.78663 0.0
H1077 H 0.18565 0.63466 0.80638 0.0
H1078 H 0.26992 0.58132 0.75939 0.0
H1079 H 0.2694 0.62275 0.8543 0.0
C1080 C 0.31672 0.63098 0.84984 0.0
C1081 C 0.34171 0.63135 0.83065 0.0
C1082 C 0.25133 0.59269 0.76984 0.0
C1083 C 0.28552 0.61199 0.81003 0.0
C1084 C 0.22337 0.59311 0.75564 0.0
C1085 C 0.19923 0.60895 0.768 0.0
C1086 C 0.2552 0.6079 0.79679 0.0
C1087 C 0.20363 0.62256 0.79579 0.0
C1088 C 0.28867 0.62139 0.83962 0.0
C1089 C 0.33825 0.6192 0.80206 0.0
N1090 N 0.23118 0.62193 0.80913 0.0
N1091 N 0.31046 0.61044 0.7924 0.0
H1092 H 0.24505 0.25711 0.90406 0.0
H1093 H 0.4044 0.20957 0.83902 0.0
H1094 H 0.31165 0.31702 0.86776 0.0
H1095 H 0.32737 0.15069 0.83858 0.0
H1096 H 0.3749 0.24614 0.86583 0.0
H1097 H 0.27905 0.21562 0.89424 0.0
C1098 C 0.26691 0.26153 0.89429 0.0
C1099 C 0.27547 0.2904 0.88624 0.0
C1100 C 0.36459 0.22503 0.86029 0.0
C1101 C 0.31435 0.24348 0.87572 0.0
C1102 C 0.38138 0.20415 0.84507 0.0
C1103 C 0.36795 0.17746 0.83592 0.0
C1104 C 0.33415 0.21923 0.86629 0.0
C1105 C 0.33836 0.1712 0.84495 0.0
C1106 C 0.2862 0.23792 0.88876 0.0
C1107 C 0.304 0.29503 0.87379 0.0
N1108 N 0.32213 0.19228 0.85923 0.0
N1109 N 0.32241 0.27179 0.86889 0.0
H1110 H 0.61964 0.33893 0.76924 0.0
H1111 H 0.77405 0.42786 0.7698 0.0
H1112 H 0.65172 0.37946 0.85046 0.0
H1113 H 0.7652 0.34175 0.72926 0.0
H1114 H 0.72368 0.42154 0.79191 0.0
H1115 H 0.66709 0.35312 0.74479 0.0
C1116 C 0.63614 0.35196 0.78147 0.0
C1117 C 0.63188 0.35837 0.81171 0.0
C1118 C 0.73294 0.40407 0.77827 0.0
C1119 C 0.6858 0.37409 0.78429 0.0
C1120 C 0.76156 0.40751 0.76593 0.0
C1121 C 0.77373 0.38499 0.74827 0.0
C1122 C 0.71614 0.37846 0.77186 0.0
C1123 C 0.75669 0.35927 0.74331 0.0
C1124 C 0.66328 0.35955 0.76773 0.0
C1125 C 0.65423 0.37447 0.82698 0.0
N1126 N 0.72849 0.3568 0.7548 0.0
N1127 N 0.68041 0.38176 0.81311 0.0
H1128 H 0.7164 0.66835 0.87058 0.0
H1129 H 0.67578 0.83525 0.84126 0.0
H1130 H 0.75741 0.73983 0.9206 0.0
H1131 H 0.61574 0.76287 0.81875 0.0
H1132 H 0.70525 0.80127 0.87207 0.0
H1133 H 0.6786 0.70286 0.85197 0.0
C1134 C 0.71731 0.6912 0.87784 0.0
C1135 C 0.74028 0.70125 0.89689 0.0
C1136 C 0.68533 0.79302 0.86071 0.0
C1137 C 0.69737 0.74085 0.87555 0.0
C1138 C 0.66849 0.81241 0.84317 0.0
C1139 C 0.64367 0.80177 0.82685 0.0
C1140 C 0.67738 0.76286 0.86158 0.0
C1141 C 0.63513 0.77196 0.83035 0.0
C1142 C 0.69567 0.71086 0.86734 0.0
C1143 C 0.7402 0.73109 0.90581 0.0
N1144 N 0.65225 0.75346 0.8469 0.0
N1145 N 0.71936 0.74993 0.89471 0.0
H1146 H 0.65857 0.67107 0.19584 0.0
H1147 H 0.82167 0.59968 0.19956 0.0
H1148 H 0.69925 0.63804 0.11549 0.0
H1149 H 0.79615 0.68153 0.24155 0.0
H1150 H 0.77018 0.59505 0.17885 0.0
H1151 H 0.7013 0.65222 0.2245 0.0
C1152 C 0.67551 0.65818 0.18448 0.0
C1153 C 0.67583 0.65649 0.15331 0.0
C1154 C 0.77599 0.61376 0.19288 0.0
C1155 C 0.72462 0.63554 0.18563 0.0
C1156 C 0.80524 0.61661 0.20433 0.0
C1157 C 0.81319 0.64148 0.22146 0.0
C1158 C 0.75453 0.63529 0.19982 0.0
C1159 C 0.79108 0.6625 0.22769 0.0
C1160 C 0.70011 0.64788 0.20076 0.0
C1161 C 0.69853 0.63995 0.13956 0.0
N1162 N 0.76272 0.65888 0.21695 0.0
N1163 N 0.7226 0.63073 0.15575 0.0
H1164 H 0.33669 0.84236 0.10248 0.0
H1165 H 0.24984 0.72617 0.19041 0.0
H1166 H 0.25384 0.86653 0.14553 0.0
H1167 H 0.27333 0.70137 0.10059 0.0
H1168 H 0.25861 0.77818 0.17734 0.0
H1169 H 0.3193 0.79068 0.10101 0.0
C1170 C 0.31418 0.83699 0.11016 0.0
C1171 C 0.29648 0.85866 0.12387 0.0
C1172 C 0.26183 0.76127 0.16055 0.0
C1173 C 0.27756 0.79981 0.12405 0.0
C1174 C 0.25735 0.73166 0.16811 0.0
C1175 C 0.2612 0.70953 0.14663 0.0
C1176 C 0.27098 0.7687 0.13157 0.0
C1177 C 0.27033 0.71787 0.11781 0.0
C1178 C 0.30449 0.80752 0.1097 0.0
C1179 C 0.2679 0.85051 0.13438 0.0
N1180 N 0.27537 0.74687 0.11117 0.0
N1181 N 0.25972 0.8215 0.13522 0.0
H1182 H 0.75555 0.28985 0.0918 0.0
H1183 H 0.60478 0.22092 0.15711 0.0
H1184 H 0.68257 0.33848 0.13137 0.0
H1185 H 0.68983 0.1757 0.1578 0.0
H1186 H 0.62639 0.25865 0.12439 0.0
H1187 H 0.72497 0.24455 0.09472 0.0
C1188 C 0.73278 0.2912 0.1003 0.0
C1189 C 0.72174 0.31787 0.11193 0.0
C1190 C 0.64 0.23988 0.13074 0.0
C1191 C 0.68672 0.26632 0.1148 0.0
C1192 C 0.62761 0.21818 0.1491 0.0
C1193 C 0.64578 0.19554 0.16045 0.0
C1194 C 0.67079 0.23896 0.12395 0.0
C1195 C 0.67519 0.19294 0.14957 0.0
C1196 C 0.71544 0.26532 0.10196 0.0
C1197 C 0.69213 0.3183 0.12266 0.0
N1198 N 0.68715 0.21497 0.13251 0.0
N1199 N 0.67576 0.29284 0.12411 0.0
loop_
_geom_bond_atom_site_label_1
_geom_bond_atom_site_label_2
_geom_bond_distance
_geom_bond_site_symmetry_2
_ccdc_geom_bond_type
Co0 O1 2.216 . S
Co0 O2 2.091 . S
Co0 O4 2.004 . S
Co0 O10 2.021 . S
Co0 O12 2.137 . S
Co0 O13 2.244 . S
O1 Co0 2.216 . S
O1 C8 1.247 . S
O2 Co0 2.091 . S
O2 C8 1.261 . S
C3 O12 1.247 . S
C3 O13 1.272 . S
O4 Co0 2.004 . S
O4 C9 1.259 . S
Co5 O6 2.061 . S
Co5 O11 2.052 . S
Co5 O13 2.135 . S
O6 Co5 2.061 . S
O6 C9 1.235 . S
C7 O10 1.238 . S
C7 O11 1.241 . S
C8 O1 1.247 . S
C8 O2 1.261 . S
C9 O4 1.259 . S
C9 O6 1.235 . S
O10 Co0 2.021 . S
O10 C7 1.238 . S
O11 Co5 2.052 . S
O11 C7 1.241 . S
O12 Co0 2.137 . S
O12 C3 1.247 . S
O13 Co0 2.244 . S
O13 C3 1.272 . S
O13 Co5 2.135 . S
Co14 O15 2.216 . S
Co14 O16 2.091 . S
Co14 O18 2.004 . S
Co14 O24 2.021 . S
Co14 O26 2.137 . S
Co14 O27 2.244 . S
O15 Co14 2.216 . S
O15 C22 1.247 . S
O16 Co14 2.091 . S
O16 C22 1.261 . S
C17 O26 1.247 . S
C17 O27 1.272 . S
O18 Co14 2.004 . S
O18 C23 1.259 . S
Co19 O20 2.061 . S
Co19 O25 2.052 . S
Co19 O27 2.135 . S
O20 Co19 2.061 . S
O20 C23 1.235 . S
C21 O24 1.238 . S
C21 O25 1.241 . S
C22 O15 1.247 . S
C22 O16 1.261 . S
C23 O18 1.259 . S
C23 O20 1.235 . S
O24 Co14 2.021 . S
O24 C21 1.238 . S
O25 Co19 2.052 . S
O25 C21 1.241 . S
O26 Co14 2.137 . S
O26 C17 1.247 . S
O27 Co14 2.244 . S
O27 C17 1.272 . S
O27 Co19 2.135 . S
Co28 O29 2.216 . S
Co28 O30 2.091 . S
Co28 O32 2.004 . S
Co28 O38 2.021 . S
Co28 O40 2.137 . S
Co28 O41 2.244 . S
O29 Co28 2.216 . S
O29 C36 1.247 . S
O30 Co28 2.091 . S
O30 C36 1.261 . S
C31 O40 1.247 . S
C31 O41 1.272 . S
O32 Co28 2.004 . S
O32 C37 1.259 . S
Co33 O34 2.061 . S
Co33 O39 2.052 . S
Co33 O41 2.135 . S
O34 Co33 2.061 . S
O34 C37 1.235 . S
C35 O38 1.238 . S
C35 O39 1.241 . S
C36 O29 1.247 . S
C36 O30 1.261 . S
C37 O32 1.259 . S
C37 O34 1.235 . S
O38 Co28 2.021 . S
O38 C35 1.238 . S
O39 Co33 2.052 . S
O39 C35 1.241 . S
O40 Co28 2.137 . S
O40 C31 1.247 . S
O41 Co28 2.244 . S
O41 C31 1.272 . S
O41 Co33 2.135 . S
Co42 O43 2.216 . S
Co42 O44 2.091 . S
Co42 O46 2.004 . S
Co42 O52 2.021 . S
Co42 O54 2.137 . S
Co42 O55 2.244 . S
O43 Co42 2.216 . S
O43 C50 1.247 . S
O44 Co42 2.091 . S
O44 C50 1.261 . S
C45 O54 1.247 . S
C45 O55 1.272 . S
O46 Co42 2.004 . S
O46 C51 1.259 . S
Co47 O48 2.061 . S
Co47 O53 2.052 . S
Co47 O55 2.135 . S
O48 Co47 2.061 . S
O48 C51 1.235 . S
C49 O52 1.238 . S
C49 O53 1.241 . S
C50 O43 1.247 . S
C50 O44 1.261 . S
C51 O46 1.259 . S
C51 O48 1.235 . S
O52 Co42 2.021 . S
O52 C49 1.238 . S
O53 Co47 2.052 . S
O53 C49 1.241 . S
O54 Co42 2.137 . S
O54 C45 1.247 . S
O55 Co42 2.244 . S
O55 C45 1.272 . S
O55 Co47 2.135 . S
Co56 O57 2.216 . S
Co56 O58 2.091 . S
Co56 O60 2.004 . S
Co56 O66 2.021 . S
Co56 O68 2.137 . S
Co56 O69 2.244 . S
O57 Co56 2.216 . S
O57 C64 1.247 . S
O58 Co56 2.091 . S
O58 C64 1.261 . S
C59 O68 1.247 . S
C59 O69 1.272 . S
O60 Co56 2.004 . S
O60 C65 1.259 . S
Co61 O62 2.061 . S
Co61 O67 2.052 . S
Co61 O69 2.135 . S
O62 Co61 2.061 . S
O62 C65 1.235 . S
C63 O66 1.238 . S
C63 O67 1.241 . S
C64 O57 1.247 . S
C64 O58 1.261 . S
C65 O60 1.259 . S
C65 O62 1.235 . S
O66 Co56 2.021 . S
O66 C63 1.238 . S
O67 Co61 2.052 . S
O67 C63 1.241 . S
O68 Co56 2.137 . S
O68 C59 1.247 . S
O69 Co56 2.244 . S
O69 C59 1.272 . S
O69 Co61 2.135 . S
Co70 O71 2.216 . S
Co70 O72 2.091 . S
Co70 O74 2.004 . S
Co70 O80 2.021 . S
Co70 O82 2.137 . S
Co70 O83 2.244 . S
O71 Co70 2.216 . S
O71 C78 1.247 . S
O72 Co70 2.091 . S
O72 C78 1.261 . S
C73 O82 1.247 . S
C73 O83 1.272 . S
O74 Co70 2.004 . S
O74 C79 1.259 . S
Co75 O76 2.061 . S
Co75 O81 2.052 . S
Co75 O83 2.135 . S
O76 Co75 2.061 . S
O76 C79 1.235 . S
C77 O80 1.238 . S
C77 O81 1.241 . S
C78 O71 1.247 . S
C78 O72 1.261 . S
C79 O74 1.259 . S
C79 O76 1.235 . S
O80 Co70 2.021 . S
O80 C77 1.238 . S
O81 Co75 2.052 . S
O81 C77 1.241 . S
O82 Co70 2.137 . S
O82 C73 1.247 . S
O83 Co70 2.244 . S
O83 C73 1.272 . S
O83 Co75 2.135 . S
Co84 O85 2.216 . S
Co84 O86 2.091 . S
Co84 O88 2.004 . S
Co84 O94 2.021 . S
Co84 O96 2.137 . S
Co84 O97 2.244 . S
O85 Co84 2.216 . S
O85 C92 1.247 . S
O86 Co84 2.091 . S
O86 C92 1.261 . S
C87 O96 1.247 . S
C87 O97 1.272 . S
O88 Co84 2.004 . S
O88 C93 1.259 . S
Co89 O90 2.061 . S
Co89 O95 2.052 . S
Co89 O97 2.135 . S
O90 Co89 2.061 . S
O90 C93 1.235 . S
C91 O94 1.238 . S
C91 O95 1.241 . S
C92 O85 1.247 . S
C92 O86 1.261 . S
C93 O88 1.259 . S
C93 O90 1.235 . S
O94 Co84 2.021 . S
O94 C91 1.238 . S
O95 Co89 2.052 . S
O95 C91 1.241 . S
O96 Co84 2.137 . S
O96 C87 1.247 . S
O97 Co84 2.244 . S
O97 C87 1.272 . S
O97 Co89 2.135 . S
Co98 O99 2.216 . S
Co98 O100 2.091 . S
Co98 O102 2.004 . S
Co98 O108 2.021 . S
Co98 O110 2.137 . S
Co98 O111 2.244 . S
O99 Co98 2.216 . S
O99 C106 1.247 . S
O100 Co98 2.091 . S
O100 C106 1.261 . S
C101 O110 1.247 . S
C101 O111 1.272 . S
O102 Co98 2.004 . S
O102 C107 1.259 . S
Co103 O104 2.061 . S
Co103 O109 2.052 . S
Co103 O111 2.135 . S
O104 Co103 2.061 . S
O104 C107 1.235 . S
C105 O108 1.238 . S
C105 O109 1.241 . S
C106 O99 1.247 . S
C106 O100 1.261 . S
C107 O102 1.259 . S
C107 O104 1.235 . S
O108 Co98 2.021 . S
O108 C105 1.238 . S
O109 Co103 2.052 . S
O109 C105 1.241 . S
O110 Co98 2.137 . S
O110 C101 1.247 . S
O111 Co98 2.244 . S
O111 C101 1.272 . S
O111 Co103 2.135 . S
Co112 O113 2.216 . S
Co112 O114 2.091 . S
Co112 O116 2.004 . S
Co112 O122 2.021 . S
Co112 O124 2.137 . S
Co112 O125 2.244 . S
O113 Co112 2.216 . S
O113 C120 1.247 . S
O114 Co112 2.091 . S
O114 C120 1.261 . S
C115 O124 1.247 . S
C115 O125 1.272 . S
O116 Co112 2.004 . S
O116 C121 1.259 . S
Co117 O118 2.061 . S
Co117 O123 2.052 . S
Co117 O125 2.135 . S
O118 Co117 2.061 . S
O118 C121 1.235 . S
C119 O122 1.238 . S
C119 O123 1.241 . S
C120 O113 1.247 . S
C120 O114 1.261 . S
C121 O116 1.259 . S
C121 O118 1.235 . S
O122 Co112 2.021 . S
O122 C119 1.238 . S
O123 Co117 2.052 . S
O123 C119 1.241 . S
O124 Co112 2.137 . S
O124 C115 1.247 . S
O125 Co112 2.244 . S
O125 C115 1.272 . S
O125 Co117 2.135 . S
Co126 O127 2.216 . S
Co126 O128 2.091 . S
Co126 O130 2.004 . S
Co126 O136 2.021 . S
Co126 O138 2.137 . S
Co126 O139 2.244 . S
O127 Co126 2.216 . S
O127 C134 1.247 . S
O128 Co126 2.091 . S
O128 C134 1.261 . S
C129 O138 1.247 . S
C129 O139 1.272 . S
O130 Co126 2.004 . S
O130 C135 1.259 . S
Co131 O132 2.061 . S
Co131 O137 2.052 . S
Co131 O139 2.135 . S
O132 Co131 2.061 . S
O132 C135 1.235 . S
C133 O136 1.238 . S
C133 O137 1.241 . S
C134 O127 1.247 . S
C134 O128 1.261 . S
C135 O130 1.259 . S
C135 O132 1.235 . S
O136 Co126 2.021 . S
O136 C133 1.238 . S
O137 Co131 2.052 . S
O137 C133 1.241 . S
O138 Co126 2.137 . S
O138 C129 1.247 . S
O139 Co126 2.244 . S
O139 C129 1.272 . S
O139 Co131 2.135 . S
Co140 O141 2.216 . S
Co140 O142 2.091 . S
Co140 O144 2.004 . S
Co140 O150 2.021 . S
Co140 O152 2.137 . S
Co140 O153 2.244 . S
O141 Co140 2.216 . S
O141 C148 1.247 . S
O142 Co140 2.091 . S
O142 C148 1.261 . S
C143 O152 1.247 . S
C143 O153 1.272 . S
O144 Co140 2.004 . S
O144 C149 1.259 . S
Co145 O146 2.061 . S
Co145 O151 2.052 . S
Co145 O153 2.135 . S
O146 Co145 2.061 . S
O146 C149 1.235 . S
C147 O150 1.238 . S
C147 O151 1.241 . S
C148 O141 1.247 . S
C148 O142 1.261 . S
C149 O144 1.259 . S
C149 O146 1.235 . S
O150 Co140 2.021 . S
O150 C147 1.238 . S
O151 Co145 2.052 . S
O151 C147 1.241 . S
O152 Co140 2.137 . S
O152 C143 1.247 . S
O153 Co140 2.244 . S
O153 C143 1.272 . S
O153 Co145 2.135 . S
Co154 O155 2.216 . S
Co154 O156 2.091 . S
Co154 O158 2.004 . S
Co154 O164 2.021 . S
Co154 O166 2.137 . S
Co154 O167 2.244 . S
O155 Co154 2.216 . S
O155 C162 1.247 . S
O156 Co154 2.091 . S
O156 C162 1.261 . S
C157 O166 1.247 . S
C157 O167 1.272 . S
O158 Co154 2.004 . S
O158 C163 1.259 . S
Co159 O160 2.061 . S
Co159 O165 2.052 . S
Co159 O167 2.135 . S
O160 Co159 2.061 . S
O160 C163 1.235 . S
C161 O164 1.238 . S
C161 O165 1.241 . S
C162 O155 1.247 . S
C162 O156 1.261 . S
C163 O158 1.259 . S
C163 O160 1.235 . S
O164 Co154 2.021 . S
O164 C161 1.238 . S
O165 Co159 2.052 . S
O165 C161 1.241 . S
O166 Co154 2.137 . S
O166 C157 1.247 . S
O167 Co154 2.244 . S
O167 C157 1.272 . S
O167 Co159 2.135 . S
Co168 O169 2.216 . S
Co168 O170 2.091 . S
Co168 O172 2.004 . S
Co168 O178 2.021 . S
Co168 O180 2.137 . S
Co168 O181 2.244 . S
O169 Co168 2.216 . S
O169 C176 1.247 . S
O170 Co168 2.091 . S
O170 C176 1.261 . S
C171 O180 1.247 . S
C171 O181 1.272 . S
O172 Co168 2.004 . S
O172 C177 1.259 . S
Co173 O174 2.061 . S
Co173 O179 2.052 . S
Co173 O181 2.135 . S
O174 Co173 2.061 . S
O174 C177 1.235 . S
C175 O178 1.238 . S
C175 O179 1.241 . S
C176 O169 1.247 . S
C176 O170 1.261 . S
C177 O172 1.259 . S
C177 O174 1.235 . S
O178 Co168 2.021 . S
O178 C175 1.238 . S
O179 Co173 2.052 . S
O179 C175 1.241 . S
O180 Co168 2.137 . S
O180 C171 1.247 . S
O181 Co168 2.244 . S
O181 C171 1.272 . S
O181 Co173 2.135 . S
Co182 O183 2.216 . S
Co182 O184 2.091 . S
Co182 O186 2.004 . S
Co182 O192 2.021 . S
Co182 O194 2.137 . S
Co182 O195 2.244 . S
O183 Co182 2.216 . S
O183 C190 1.247 . S
O184 Co182 2.091 . S
O184 C190 1.261 . S
C185 O194 1.247 . S
C185 O195 1.272 . S
O186 Co182 2.004 . S
O186 C191 1.259 . S
Co187 O188 2.061 . S
Co187 O193 2.052 . S
Co187 O195 2.135 . S
O188 Co187 2.061 . S
O188 C191 1.235 . S
C189 O192 1.238 . S
C189 O193 1.241 . S
C190 O183 1.247 . S
C190 O184 1.261 . S
C191 O186 1.259 . S
C191 O188 1.235 . S
O192 Co182 2.021 . S
O192 C189 1.238 . S
O193 Co187 2.052 . S
O193 C189 1.241 . S
O194 Co182 2.137 . S
O194 C185 1.247 . S
O195 Co182 2.244 . S
O195 C185 1.272 . S
O195 Co187 2.135 . S
Co196 O197 2.216 . S
Co196 O198 2.091 . S
Co196 O200 2.004 . S
Co196 O206 2.021 . S
Co196 O208 2.137 . S
Co196 O209 2.244 . S
O197 Co196 2.216 . S
O197 C204 1.247 . S
O198 Co196 2.091 . S
O198 C204 1.261 . S
C199 O208 1.247 . S
C199 O209 1.272 . S
O200 Co196 2.004 . S
O200 C205 1.259 . S
Co201 O202 2.061 . S
Co201 O207 2.052 . S
Co201 O209 2.135 . S
O202 Co201 2.061 . S
O202 C205 1.235 . S
C203 O206 1.238 . S
C203 O207 1.241 . S
C204 O197 1.247 . S
C204 O198 1.261 . S
C205 O200 1.259 . S
C205 O202 1.235 . S
O206 Co196 2.021 . S
O206 C203 1.238 . S
O207 Co201 2.052 . S
O207 C203 1.241 . S
O208 Co196 2.137 . S
O208 C199 1.247 . S
O209 Co196 2.244 . S
O209 C199 1.272 . S
O209 Co201 2.135 . S
Co210 O211 2.216 . S
Co210 O212 2.091 . S
Co210 O214 2.004 . S
Co210 O220 2.021 . S
Co210 O222 2.137 . S
Co210 O223 2.244 . S
O211 Co210 2.216 . S
O211 C218 1.247 . S
O212 Co210 2.091 . S
O212 C218 1.261 . S
C213 O222 1.247 . S
C213 O223 1.272 . S
O214 Co210 2.004 . S
O214 C219 1.259 . S
Co215 O216 2.061 . S
Co215 O221 2.052 . S
Co215 O223 2.135 . S
O216 Co215 2.061 . S
O216 C219 1.235 . S
C217 O220 1.238 . S
C217 O221 1.241 . S
C218 O211 1.247 . S
C218 O212 1.261 . S
C219 O214 1.259 . S
C219 O216 1.235 . S
O220 Co210 2.021 . S
O220 C217 1.238 . S
O221 Co215 2.052 . S
O221 C217 1.241 . S
O222 Co210 2.137 . S
O222 C213 1.247 . S
O223 Co210 2.244 . S
O223 C213 1.272 . S
O223 Co215 2.135 . S
Co224 O225 2.216 . S
Co224 O226 2.091 . S
Co224 O228 2.004 . S
Co224 O234 2.021 . S
Co224 O236 2.137 . S
Co224 O237 2.244 . S
O225 Co224 2.216 . S
O225 C232 1.247 . S
O226 Co224 2.091 . S
O226 C232 1.261 . S
C227 O236 1.247 . S
C227 O237 1.272 . S
O228 Co224 2.004 . S
O228 C233 1.259 . S
Co229 O230 2.061 . S
Co229 O235 2.052 . S
Co229 O237 2.135 . S
O230 Co229 2.061 . S
O230 C233 1.235 . S
C231 O234 1.238 . S
C231 O235 1.241 . S
C232 O225 1.247 . S
C232 O226 1.261 . S
C233 O228 1.259 . S
C233 O230 1.235 . S
O234 Co224 2.021 . S
O234 C231 1.238 . S
O235 Co229 2.052 . S
O235 C231 1.241 . S
O236 Co224 2.137 . S
O236 C227 1.247 . S
O237 Co224 2.244 . S
O237 C227 1.272 . S
O237 Co229 2.135 . S
Co238 O239 2.216 . S
Co238 O240 2.091 . S
Co238 O242 2.004 . S
Co238 O248 2.021 . S
Co238 O250 2.137 . S
Co238 O251 2.244 . S
O239 Co238 2.216 . S
O239 C246 1.247 . S
O240 Co238 2.091 . S
O240 C246 1.261 . S
C241 O250 1.247 . S
C241 O251 1.272 . S
O242 Co238 2.004 . S
O242 C247 1.259 . S
Co243 O244 2.061 . S
Co243 O249 2.052 . S
Co243 O251 2.135 . S
O244 Co243 2.061 . S
O244 C247 1.235 . S
C245 O248 1.238 . S
C245 O249 1.241 . S
C246 O239 1.247 . S
C246 O240 1.261 . S
C247 O242 1.259 . S
C247 O244 1.235 . S
O248 Co238 2.021 . S
O248 C245 1.238 . S
O249 Co243 2.052 . S
O249 C245 1.241 . S
O250 Co238 2.137 . S
O250 C241 1.247 . S
O251 Co238 2.244 . S
O251 C241 1.272 . S
O251 Co243 2.135 . S
Co252 O253 2.216 . S
Co252 O254 2.091 . S
Co252 O256 2.004 . S
Co252 O262 2.021 . S
Co252 O264 2.137 . S
Co252 O265 2.244 . S
O253 Co252 2.216 . S
O253 C260 1.247 . S
O254 Co252 2.091 . S
O254 C260 1.261 . S
C255 O264 1.247 . S
C255 O265 1.272 . S
O256 Co252 2.004 . S
O256 C261 1.259 . S
Co257 O258 2.061 . S
Co257 O263 2.052 . S
Co257 O265 2.135 . S
O258 Co257 2.061 . S
O258 C261 1.235 . S
C259 O262 1.238 . S
C259 O263 1.241 . S
C260 O253 1.247 . S
C260 O254 1.261 . S
C261 O256 1.259 . S
C261 O258 1.235 . S
O262 Co252 2.021 . S
O262 C259 1.238 . S
O263 Co257 2.052 . S
O263 C259 1.241 . S
O264 Co252 2.137 . S
O264 C255 1.247 . S
O265 Co252 2.244 . S
O265 C255 1.272 . S
O265 Co257 2.135 . S
Co266 O267 2.216 . S
Co266 O268 2.091 . S
Co266 O270 2.004 . S
Co266 O276 2.021 . S
Co266 O278 2.137 . S
Co266 O279 2.244 . S
O267 Co266 2.216 . S
O267 C274 1.247 . S
O268 Co266 2.091 . S
O268 C274 1.261 . S
C269 O278 1.247 . S
C269 O279 1.272 . S
O270 Co266 2.004 . S
O270 C275 1.259 . S
Co271 O272 2.061 . S
Co271 O277 2.052 . S
Co271 O279 2.135 . S
O272 Co271 2.061 . S
O272 C275 1.235 . S
C273 O276 1.238 . S
C273 O277 1.241 . S
C274 O267 1.247 . S
C274 O268 1.261 . S
C275 O270 1.259 . S
C275 O272 1.235 . S
O276 Co266 2.021 . S
O276 C273 1.238 . S
O277 Co271 2.052 . S
O277 C273 1.241 . S
O278 Co266 2.137 . S
O278 C269 1.247 . S
O279 Co266 2.244 . S
O279 C269 1.272 . S
O279 Co271 2.135 . S
Co280 O281 2.216 . S
Co280 O282 2.091 . S
Co280 O284 2.004 . S
Co280 O290 2.021 . S
Co280 O292 2.137 . S
Co280 O293 2.244 . S
O281 Co280 2.216 . S
O281 C288 1.247 . S
O282 Co280 2.091 . S
O282 C288 1.261 . S
C283 O292 1.247 . S
C283 O293 1.272 . S
O284 Co280 2.004 . S
O284 C289 1.259 . S
Co285 O286 2.061 . S
Co285 O291 2.052 . S
Co285 O293 2.135 . S
O286 Co285 2.061 . S
O286 C289 1.235 . S
C287 O290 1.238 . S
C287 O291 1.241 . S
C288 O281 1.247 . S
C288 O282 1.261 . S
C289 O284 1.259 . S
C289 O286 1.235 . S
O290 Co280 2.021 . S
O290 C287 1.238 . S
O291 Co285 2.052 . S
O291 C287 1.241 . S
O292 Co280 2.137 . S
O292 C283 1.247 . S
O293 Co280 2.244 . S
O293 C283 1.272 . S
O293 Co285 2.135 . S
Co294 O295 2.216 . S
Co294 O296 2.091 . S
Co294 O298 2.004 . S
Co294 O304 2.021 . S
Co294 O306 2.137 . S
Co294 O307 2.244 . S
O295 Co294 2.216 . S
O295 C302 1.247 . S
O296 Co294 2.091 . S
O296 C302 1.261 . S
C297 O306 1.247 . S
C297 O307 1.272 . S
O298 Co294 2.004 . S
O298 C303 1.259 . S
Co299 O300 2.061 . S
Co299 O305 2.052 . S
Co299 O307 2.135 . S
O300 Co299 2.061 . S
O300 C303 1.235 . S
C301 O304 1.238 . S
C301 O305 1.241 . S
C302 O295 1.247 . S
C302 O296 1.261 . S
C303 O298 1.259 . S
C303 O300 1.235 . S
O304 Co294 2.021 . S
O304 C301 1.238 . S
O305 Co299 2.052 . S
O305 C301 1.241 . S
O306 Co294 2.137 . S
O306 C297 1.247 . S
O307 Co294 2.244 . S
O307 C297 1.272 . S
O307 Co299 2.135 . S
Co308 O309 2.216 . S
Co308 O310 2.091 . S
Co308 O312 2.004 . S
Co308 O318 2.021 . S
Co308 O320 2.137 . S
Co308 O321 2.244 . S
O309 Co308 2.216 . S
O309 C316 1.247 . S
O310 Co308 2.091 . S
O310 C316 1.261 . S
C311 O320 1.247 . S
C311 O321 1.272 . S
O312 Co308 2.004 . S
O312 C317 1.259 . S
Co313 O314 2.061 . S
Co313 O319 2.052 . S
Co313 O321 2.135 . S
O314 Co313 2.061 . S
O314 C317 1.235 . S
C315 O318 1.238 . S
C315 O319 1.241 . S
C316 O309 1.247 . S
C316 O310 1.261 . S
C317 O312 1.259 . S
C317 O314 1.235 . S
O318 Co308 2.021 . S
O318 C315 1.238 . S
O319 Co313 2.052 . S
O319 C315 1.241 . S
O320 Co308 2.137 . S
O320 C311 1.247 . S
O321 Co308 2.244 . S
O321 C311 1.272 . S
O321 Co313 2.135 . S
Co322 O323 2.216 . S
Co322 O324 2.091 . S
Co322 O326 2.004 . S
Co322 O332 2.021 . S
Co322 O334 2.137 . S
Co322 O335 2.244 . S
O323 Co322 2.216 . S
O323 C330 1.247 . S
O324 Co322 2.091 . S
O324 C330 1.261 . S
C325 O334 1.247 . S
C325 O335 1.272 . S
O326 Co322 2.004 . S
O326 C331 1.259 . S
Co327 O328 2.061 . S
Co327 O333 2.052 . S
Co327 O335 2.135 . S
O328 Co327 2.061 . S
O328 C331 1.235 . S
C329 O332 1.238 . S
C329 O333 1.241 . S
C330 O323 1.247 . S
C330 O324 1.261 . S
C331 O326 1.259 . S
C331 O328 1.235 . S
O332 Co322 2.021 . S
O332 C329 1.238 . S
O333 Co327 2.052 . S
O333 C329 1.241 . S
O334 Co322 2.137 . S
O334 C325 1.247 . S
O335 Co322 2.244 . S
O335 C325 1.272 . S
O335 Co327 2.135 . S
H336 C342 0.930 . S
H337 C346 0.930 . S
H338 C351 0.929 . S
H339 C349 0.929 . S
H340 C344 0.929 . S
H341 C350 0.929 . S
C342 H336 0.930 . S
C342 C343 1.367 . S
C342 C350 1.378 . S
C343 C342 1.367 . S
C343 C351 1.433 . S
C344 H340 0.929 . S
C344 C346 1.378 . S
C344 C348 1.350 . S
C345 C348 1.463 . S
C345 C350 1.350 . S
C345 N353 1.427 . S
C346 H337 0.930 . S
C346 C344 1.378 . S
C346 C347 1.367 . S
C347 C346 1.367 . S
C347 C349 1.433 . S
C348 C344 1.350 . S
C348 C345 1.463 . S
C348 N352 1.427 . S
C349 H339 0.929 . S
C349 C347 1.433 . S
C349 N352 1.384 . S
C350 H341 0.929 . S
C350 C342 1.378 . S
C350 C345 1.350 . S
C351 H338 0.929 . S
C351 C343 1.433 . S
C351 N353 1.384 . S
N352 C348 1.427 . S
N352 C349 1.384 . S
N353 C345 1.427 . S
N353 C351 1.384 . S
H354 C360 0.930 . S
H355 C364 0.930 . S
H356 C369 0.929 . S
H357 C367 0.929 . S
H358 C362 0.929 . S
H359 C368 0.929 . S
C360 H354 0.930 . S
C360 C361 1.367 . S
C360 C368 1.378 . S
C361 C360 1.367 . S
C361 C369 1.433 . S
C362 H358 0.929 . S
C362 C364 1.378 . S
C362 C366 1.350 . S
C363 C366 1.463 . S
C363 C368 1.350 . S
C363 N371 1.427 . S
C364 H355 0.930 . S
C364 C362 1.378 . S
C364 C365 1.367 . S
C365 C364 1.367 . S
C365 C367 1.433 . S
C366 C362 1.350 . S
C366 C363 1.463 . S
C366 N370 1.427 . S
C367 H357 0.929 . S
C367 C365 1.433 . S
C367 N370 1.384 . S
C368 H359 0.929 . S
C368 C360 1.378 . S
C368 C363 1.350 . S
C369 H356 0.929 . S
C369 C361 1.433 . S
C369 N371 1.384 . S
N370 C366 1.427 . S
N370 C367 1.384 . S
N371 C363 1.427 . S
N371 C369 1.384 . S
H372 C378 0.930 . S
H373 C382 0.930 . S
H374 C387 0.929 . S
H375 C385 0.929 . S
H376 C380 0.929 . S
H377 C386 0.929 . S
C378 H372 0.930 . S
C378 C379 1.367 . S
C378 C386 1.378 . S
C379 C378 1.367 . S
C379 C387 1.433 . S
C380 H376 0.929 . S
C380 C382 1.378 . S
C380 C384 1.350 . S
C381 C384 1.463 . S
C381 C386 1.350 . S
C381 N389 1.427 . S
C382 H373 0.930 . S
C382 C380 1.378 . S
C382 C383 1.367 . S
C383 C382 1.367 . S
C383 C385 1.433 . S
C384 C380 1.350 . S
C384 C381 1.463 . S
C384 N388 1.427 . S
C385 H375 0.929 . S
C385 C383 1.433 . S
C385 N388 1.384 . S
C386 H377 0.929 . S
C386 C378 1.378 . S
C386 C381 1.350 . S
C387 H374 0.929 . S
C387 C379 1.433 . S
C387 N389 1.384 . S
N388 C384 1.427 . S
N388 C385 1.384 . S
N389 C381 1.427 . S
N389 C387 1.384 . S
H390 C396 0.930 . S
H391 C400 0.930 . S
H392 C405 0.929 . S
H393 C403 0.929 . S
H394 C398 0.929 . S
H395 C404 0.929 . S
C396 H390 0.930 . S
C396 C397 1.367 . S
C396 C404 1.378 . S
C397 C396 1.367 . S
C397 C405 1.433 . S
C398 H394 0.929 . S
C398 C400 1.378 . S
C398 C402 1.350 . S
C399 C402 1.463 . S
C399 C404 1.350 . S
C399 N407 1.427 . S
C400 H391 0.930 . S
C400 C398 1.378 . S
C400 C401 1.367 . S
C401 C400 1.367 . S
C401 C403 1.433 . S
C402 C398 1.350 . S
C402 C399 1.463 . S
C402 N406 1.427 . S
C403 H393 0.929 . S
C403 C401 1.433 . S
C403 N406 1.384 . S
C404 H395 0.929 . S
C404 C396 1.378 . S
C404 C399 1.350 . S
C405 H392 0.929 . S
C405 C397 1.433 . S
C405 N407 1.384 . S
N406 C402 1.427 . S
N406 C403 1.384 . S
N407 C399 1.427 . S
N407 C405 1.384 . S
H408 C414 0.930 . S
H409 C418 0.930 . S
H410 C423 0.929 . S
H411 C421 0.929 . S
H412 C416 0.929 . S
H413 C422 0.929 . S
C414 H408 0.930 . S
C414 C415 1.367 . S
C414 C422 1.378 . S
C415 C414 1.367 . S
C415 C423 1.433 . S
C416 H412 0.929 . S
C416 C418 1.378 . S
C416 C420 1.350 . S
C417 C420 1.463 . S
C417 C422 1.350 . S
C417 N425 1.427 . S
C418 H409 0.930 . S
C418 C416 1.378 . S
C418 C419 1.367 . S
C419 C418 1.367 . S
C419 C421 1.433 . S
C420 C416 1.350 . S
C420 C417 1.463 . S
C420 N424 1.427 . S
C421 H411 0.929 . S
C421 C419 1.433 . S
C421 N424 1.384 . S
C422 H413 0.929 . S
C422 C414 1.378 . S
C422 C417 1.350 . S
C423 H410 0.929 . S
C423 C415 1.433 . S
C423 N425 1.384 . S
N424 C420 1.427 . S
N424 C421 1.384 . S
N425 C417 1.427 . S
N425 C423 1.384 . S
H426 C432 0.930 . S
H427 C436 0.930 . S
H428 C441 0.929 . S
H429 C439 0.929 . S
H430 C434 0.929 . S
H431 C440 0.929 . S
C432 H426 0.930 . S
C432 C433 1.367 . S
C432 C440 1.378 . S
C433 C432 1.367 . S
C433 C441 1.433 . S
C434 H430 0.929 . S
C434 C436 1.378 . S
C434 C438 1.350 . S
C435 C438 1.463 . S
C435 C440 1.350 . S
C435 N443 1.427 . S
C436 H427 0.930 . S
C436 C434 1.378 . S
C436 C437 1.367 . S
C437 C436 1.367 . S
C437 C439 1.433 . S
C438 C434 1.350 . S
C438 C435 1.463 . S
C438 N442 1.427 . S
C439 H429 0.929 . S
C439 C437 1.433 . S
C439 N442 1.384 . S
C440 H431 0.929 . S
C440 C432 1.378 . S
C440 C435 1.350 . S
C441 H428 0.929 . S
C441 C433 1.433 . S
C441 N443 1.384 . S
N442 C438 1.427 . S
N442 C439 1.384 . S
N443 C435 1.427 . S
N443 C441 1.384 . S
H444 C450 0.930 . S
H445 C454 0.930 . S
H446 C459 0.929 . S
H447 C457 0.929 . S
H448 C452 0.929 . S
H449 C458 0.929 . S
C450 H444 0.930 . S
C450 C451 1.367 . S
C450 C458 1.378 . S
C451 C450 1.367 . S
C451 C459 1.433 . S
C452 H448 0.929 . S
C452 C454 1.378 . S
C452 C456 1.350 . S
C453 C456 1.463 . S
C453 C458 1.350 . S
C453 N461 1.427 . S
C454 H445 0.930 . S
C454 C452 1.378 . S
C454 C455 1.367 . S
C455 C454 1.367 . S
C455 C457 1.433 . S
C456 C452 1.350 . S
C456 C453 1.463 . S
C456 N460 1.427 . S
C457 H447 0.929 . S
C457 C455 1.433 . S
C457 N460 1.384 . S
C458 H449 0.929 . S
C458 C450 1.378 . S
C458 C453 1.350 . S
C459 H446 0.929 . S
C459 C451 1.433 . S
C459 N461 1.384 . S
N460 C456 1.427 . S
N460 C457 1.384 . S
N461 C453 1.427 . S
N461 C459 1.384 . S
H462 C468 0.930 . S
H463 C472 0.930 . S
H464 C477 0.929 . S
H465 C475 0.929 . S
H466 C470 0.929 . S
H467 C476 0.929 . S
C468 H462 0.930 . S
C468 C469 1.367 . S
C468 C476 1.378 . S
C469 C468 1.367 . S
C469 C477 1.433 . S
C470 H466 0.929 . S
C470 C472 1.378 . S
C470 C474 1.350 . S
C471 C474 1.463 . S
C471 C476 1.350 . S
C471 N479 1.427 . S
C472 H463 0.930 . S
C472 C470 1.378 . S
C472 C473 1.367 . S
C473 C472 1.367 . S
C473 C475 1.433 . S
C474 C470 1.350 . S
C474 C471 1.463 . S
C474 N478 1.427 . S
C475 H465 0.929 . S
C475 C473 1.433 . S
C475 N478 1.384 . S
C476 H467 0.929 . S
C476 C468 1.378 . S
C476 C471 1.350 . S
C477 H464 0.929 . S
C477 C469 1.433 . S
C477 N479 1.384 . S
N478 C474 1.427 . S
N478 C475 1.384 . S
N479 C471 1.427 . S
N479 C477 1.384 . S
H480 C486 0.930 . S
H481 C490 0.930 . S
H482 C495 0.929 . S
H483 C493 0.929 . S
H484 C488 0.929 . S
H485 C494 0.929 . S
C486 H480 0.930 . S
C486 C487 1.367 . S
C486 C494 1.378 . S
C487 C486 1.367 . S
C487 C495 1.433 . S
C488 H484 0.929 . S
C488 C490 1.378 . S
C488 C492 1.350 . S
C489 C492 1.463 . S
C489 C494 1.350 . S
C489 N497 1.427 . S
C490 H481 0.930 . S
C490 C488 1.378 . S
C490 C491 1.367 . S
C491 C490 1.367 . S
C491 C493 1.433 . S
C492 C488 1.350 . S
C492 C489 1.463 . S
C492 N496 1.427 . S
C493 H483 0.929 . S
C493 C491 1.433 . S
C493 N496 1.384 . S
C494 H485 0.929 . S
C494 C486 1.378 . S
C494 C489 1.350 . S
C495 H482 0.929 . S
C495 C487 1.433 . S
C495 N497 1.384 . S
N496 C492 1.427 . S
N496 C493 1.384 . S
N497 C489 1.427 . S
N497 C495 1.384 . S
H498 C504 0.930 . S
H499 C508 0.930 . S
H500 C513 0.929 . S
H501 C511 0.929 . S
H502 C506 0.929 . S
H503 C512 0.929 . S
C504 H498 0.930 . S
C504 C505 1.367 . S
C504 C512 1.378 . S
C505 C504 1.367 . S
C505 C513 1.433 . S
C506 H502 0.929 . S
C506 C508 1.378 . S
C506 C510 1.350 . S
C507 C510 1.463 . S
C507 C512 1.350 . S
C507 N515 1.427 . S
C508 H499 0.930 . S
C508 C506 1.378 . S
C508 C509 1.367 . S
C509 C508 1.367 . S
C509 C511 1.433 . S
C510 C506 1.350 . S
C510 C507 1.463 . S
C510 N514 1.427 . S
C511 H501 0.929 . S
C511 C509 1.433 . S
C511 N514 1.384 . S
C512 H503 0.929 . S
C512 C504 1.378 . S
C512 C507 1.350 . S
C513 H500 0.929 . S
C513 C505 1.433 . S
C513 N515 1.384 . S
N514 C510 1.427 . S
N514 C511 1.384 . S
N515 C507 1.427 . S
N515 C513 1.384 . S
H516 C522 0.930 . S
H517 C526 0.930 . S
H518 C531 0.929 . S
H519 C529 0.929 . S
H520 C524 0.929 . S
H521 C530 0.929 . S
C522 H516 0.930 . S
C522 C523 1.367 . S
C522 C530 1.378 . S
C523 C522 1.367 . S
C523 C531 1.433 . S
C524 H520 0.929 . S
C524 C526 1.378 . S
C524 C528 1.350 . S
C525 C528 1.463 . S
C525 C530 1.350 . S
C525 N533 1.427 . S
C526 H517 0.930 . S
C526 C524 1.378 . S
C526 C527 1.367 . S
C527 C526 1.367 . S
C527 C529 1.433 . S
C528 C524 1.350 . S
C528 C525 1.463 . S
C528 N532 1.427 . S
C529 H519 0.929 . S
C529 C527 1.433 . S
C529 N532 1.384 . S
C530 H521 0.929 . S
C530 C522 1.378 . S
C530 C525 1.350 . S
C531 H518 0.929 . S
C531 C523 1.433 . S
C531 N533 1.384 . S
N532 C528 1.427 . S
N532 C529 1.384 . S
N533 C525 1.427 . S
N533 C531 1.384 . S
H534 C540 0.930 . S
H535 C544 0.930 . S
H536 C549 0.929 . S
H537 C547 0.929 . S
H538 C542 0.929 . S
H539 C548 0.929 . S
C540 H534 0.930 . S
C540 C541 1.367 . S
C540 C548 1.378 . S
C541 C540 1.367 . S
C541 C549 1.433 . S
C542 H538 0.929 . S
C542 C544 1.378 . S
C542 C546 1.350 . S
C543 C546 1.463 . S
C543 C548 1.350 . S
C543 N551 1.427 . S
C544 H535 0.930 . S
C544 C542 1.378 . S
C544 C545 1.367 . S
C545 C544 1.367 . S
C545 C547 1.433 . S
C546 C542 1.350 . S
C546 C543 1.463 . S
C546 N550 1.427 . S
C547 H537 0.929 . S
C547 C545 1.433 . S
C547 N550 1.384 . S
C548 H539 0.929 . S
C548 C540 1.378 . S
C548 C543 1.350 . S
C549 H536 0.929 . S
C549 C541 1.433 . S
C549 N551 1.384 . S
N550 C546 1.427 . S
N550 C547 1.384 . S
N551 C543 1.427 . S
N551 C549 1.384 . S
H552 C558 0.930 . S
H553 C562 0.930 . S
H554 C567 0.929 . S
H555 C565 0.929 . S
H556 C560 0.929 . S
H557 C566 0.930 . S
C558 H552 0.930 . S
C558 C559 1.367 . S
C558 C566 1.383 . S
C559 C558 1.367 . S
C559 C567 1.433 1_565 S
C560 H556 0.929 . S
C560 C562 1.378 . S
C560 C564 1.350 . S
C561 C564 1.463 . S
C561 C566 1.344 1_545 S
C561 N569 1.427 . S
C562 H553 0.930 . S
C562 C560 1.378 . S
C562 C563 1.367 . S
C563 C562 1.367 . S
C563 C565 1.433 . S
C564 C560 1.350 . S
C564 C561 1.463 . S
C564 N568 1.427 . S
C565 H555 0.929 . S
C565 C563 1.433 . S
C565 N568 1.384 . S
C566 H557 0.930 . S
C566 C558 1.383 . S
C566 C561 1.344 1_565 S
C567 H554 0.929 . S
C567 C559 1.433 1_545 S
C567 N569 1.384 . S
N568 C564 1.427 . S
N568 C565 1.384 . S
N569 C561 1.427 . S
N569 C567 1.384 . S
H570 C576 0.930 . S
H571 C580 0.930 . S
H572 C585 0.929 . S
H573 C583 0.929 . S
H574 C578 0.929 . S
H575 C584 0.929 . S
C576 H570 0.930 . S
C576 C577 1.367 . S
C576 C584 1.378 . S
C577 C576 1.367 . S
C577 C585 1.433 1_655 S
C578 H574 0.929 . S
C578 C580 1.378 . S
C578 C582 1.350 . S
C579 C582 1.463 . S
C579 C584 1.350 1_455 S
C579 N587 1.427 . S
C580 H571 0.930 . S
C580 C578 1.378 . S
C580 C581 1.367 . S
C581 C580 1.367 . S
C581 C583 1.433 . S
C582 C578 1.350 . S
C582 C579 1.463 . S
C582 N586 1.427 . S
C583 H573 0.929 . S
C583 C581 1.433 . S
C583 N586 1.384 . S
C584 H575 0.929 . S
C584 C576 1.378 . S
C584 C579 1.350 1_655 S
C585 H572 0.929 . S
C585 C577 1.433 1_455 S
C585 N587 1.384 . S
N586 C582 1.427 . S
N586 C583 1.384 . S
N587 C579 1.427 . S
N587 C585 1.384 . S
H588 C594 0.930 . S
H589 C598 0.930 . S
H590 C603 0.929 . S
H591 C601 0.929 . S
H592 C596 0.929 . S
H593 C602 0.929 . S
C594 H588 0.930 . S
C594 C595 1.367 . S
C594 C602 1.378 . S
C595 C594 1.367 . S
C595 C603 1.433 1_545 S
C596 H592 0.929 . S
C596 C598 1.378 . S
C596 C600 1.350 . S
C597 C600 1.463 . S
C597 C602 1.350 1_565 S
C597 N605 1.427 . S
C598 H589 0.930 . S
C598 C596 1.378 . S
C598 C599 1.367 . S
C599 C598 1.367 . S
C599 C601 1.433 . S
C600 C596 1.350 . S
C600 C597 1.463 . S
C600 N604 1.427 . S
C601 H591 0.929 . S
C601 C599 1.433 . S
C601 N604 1.384 . S
C602 H593 0.929 . S
C602 C594 1.378 . S
C602 C597 1.350 1_545 S
C603 H590 0.929 . S
C603 C595 1.433 1_565 S
C603 N605 1.384 . S
N604 C600 1.427 . S
N604 C601 1.384 . S
N605 C597 1.427 . S
N605 C603 1.384 . S
H606 C612 0.931 . S
H607 C616 0.930 . S
H608 C621 0.929 . S
H609 C619 0.929 . S
H610 C614 0.929 . S
H611 C620 0.929 . S
C612 H606 0.931 . S
C612 C613 1.359 1_655 S
C612 C620 1.385 . S
C613 C612 1.359 1_455 S
C613 C621 1.433 . S
C614 H610 0.929 . S
C614 C616 1.378 . S
C614 C618 1.350 . S
C615 C618 1.463 . S
C615 C620 1.350 . S
C615 N623 1.427 1_655 S
C616 H607 0.930 . S
C616 C614 1.378 . S
C616 C617 1.367 . S
C617 C616 1.367 . S
C617 C619 1.433 . S
C618 C614 1.350 . S
C618 C615 1.463 . S
C618 N622 1.427 . S
C619 H609 0.929 . S
C619 C617 1.433 . S
C619 N622 1.384 . S
C620 H611 0.929 . S
C620 C612 1.385 . S
C620 C615 1.350 . S
C621 H608 0.929 . S
C621 C613 1.433 . S
C621 N623 1.384 . S
N622 C618 1.427 . S
N622 C619 1.384 . S
N623 C615 1.427 1_455 S
N623 C621 1.384 . S
H624 C630 0.930 . S
H625 C634 0.930 . S
H626 C639 0.929 . S
H627 C637 0.929 . S
H628 C632 0.929 . S
H629 C638 0.929 . S
C630 H624 0.930 . S
C630 C631 1.367 . S
C630 C638 1.378 . S
C631 C630 1.367 . S
C631 C639 1.433 . S
C632 H628 0.929 . S
C632 C634 1.378 . S
C632 C636 1.350 1_545 S
C633 C636 1.463 . S
C633 C638 1.350 . S
C633 N641 1.427 . S
C634 H625 0.930 . S
C634 C632 1.378 . S
C634 C635 1.367 . S
C635 C634 1.367 . S
C635 C637 1.433 1_545 S
C636 C632 1.350 1_565 S
C636 C633 1.463 . S
C636 N640 1.427 . S
C637 H627 0.929 . S
C637 C635 1.433 1_565 S
C637 N640 1.384 . S
C638 H629 0.929 . S
C638 C630 1.378 . S
C638 C633 1.350 . S
C639 H626 0.929 . S
C639 C631 1.433 . S
C639 N641 1.384 . S
N640 C636 1.427 . S
N640 C637 1.384 . S
N641 C633 1.427 . S
N641 C639 1.384 . S
H642 C648 0.930 . S
H643 C652 0.930 . S
H644 C657 0.929 . S
H645 C655 0.929 . S
H646 C650 0.929 . S
H647 C656 0.929 . S
C648 H642 0.930 . S
C648 C649 1.367 . S
C648 C656 1.378 . S
C649 C648 1.367 . S
C649 C657 1.433 . S
C650 H646 0.929 . S
C650 C652 1.378 . S
C650 C654 1.350 1_455 S
C651 C654 1.463 . S
C651 C656 1.350 . S
C651 N659 1.427 . S
C652 H643 0.930 . S
C652 C650 1.378 . S
C652 C653 1.367 . S
C653 C652 1.367 . S
C653 C655 1.433 1_455 S
C654 C650 1.350 1_655 S
C654 C651 1.463 . S
C654 N658 1.427 . S
C655 H645 0.929 . S
C655 C653 1.433 1_655 S
C655 N658 1.384 . S
C656 H647 0.929 . S
C656 C648 1.378 . S
C656 C651 1.350 . S
C657 H644 0.929 . S
C657 C649 1.433 . S
C657 N659 1.384 . S
N658 C654 1.427 . S
N658 C655 1.384 . S
N659 C651 1.427 . S
N659 C657 1.384 . S
H660 C666 0.930 . S
H661 C670 0.930 . S
H662 C675 0.929 . S
H663 C673 0.929 . S
H664 C668 0.929 1_565 S
H665 C674 0.929 . S
C666 H660 0.930 . S
C666 C667 1.367 1_545 S
C666 C674 1.378 . S
C667 C666 1.367 1_565 S
C667 C675 1.433 . S
C668 H664 0.929 1_545 S
C668 C670 1.378 . S
C668 C672 1.350 . S
C669 C672 1.463 . S
C669 C674 1.350 . S
C669 N677 1.427 1_545 S
C670 H661 0.930 . S
C670 C668 1.378 . S
C670 C671 1.367 . S
C671 C670 1.367 . S
C671 C673 1.433 . S
C672 C668 1.350 . S
C672 C669 1.463 . S
C672 N676 1.427 . S
C673 H663 0.929 . S
C673 C671 1.433 . S
C673 N676 1.384 . S
C674 H665 0.929 . S
C674 C666 1.378 . S
C674 C669 1.350 . S
C675 H662 0.929 . S
C675 C667 1.433 . S
C675 N677 1.384 . S
N676 C672 1.427 . S
N676 C673 1.384 . S
N677 C669 1.427 1_565 S
N677 C675 1.384 . S
H678 C684 0.930 . S
H679 C688 0.930 . S
H680 C693 0.929 . S
H681 C691 0.929 . S
H682 C686 0.929 . S
H683 C692 0.929 . S
C684 H678 0.930 . S
C684 C685 1.367 . S
C684 C692 1.378 . S
C685 C684 1.367 . S
C685 C693 1.433 . S
C686 H682 0.929 . S
C686 C688 1.378 1_455 S
C686 C690 1.350 . S
C687 C690 1.463 . S
C687 C692 1.350 . S
C687 N695 1.427 . S
C688 H679 0.930 . S
C688 C686 1.378 1_655 S
C688 C689 1.367 . S
C689 C688 1.367 . S
C689 C691 1.433 . S
C690 C686 1.350 . S
C690 C687 1.463 . S
C690 N694 1.427 . S
C691 H681 0.929 . S
C691 C689 1.433 . S
C691 N694 1.384 1_655 S
C692 H683 0.929 . S
C692 C684 1.378 . S
C692 C687 1.350 . S
C693 H680 0.929 . S
C693 C685 1.433 . S
C693 N695 1.384 . S
N694 C690 1.427 . S
N694 C691 1.384 1_455 S
N695 C687 1.427 . S
N695 C693 1.384 . S
H696 C702 0.930 . S
H697 C706 0.930 . S
H698 C711 0.929 . S
H699 C709 0.929 . S
H700 C704 0.929 . S
H701 C710 0.929 . S
C702 H696 0.930 . S
C702 C703 1.367 . S
C702 C710 1.378 1_556 S
C703 C702 1.367 . S
C703 C711 1.433 . S
C704 H700 0.929 . S
C704 C706 1.378 . S
C704 C708 1.350 . S
C705 C708 1.463 . S
C705 C710 1.350 . S
C705 N713 1.427 1_554 S
C706 H697 0.930 . S
C706 C704 1.378 . S
C706 C707 1.367 . S
C707 C706 1.367 . S
C707 C709 1.433 . S
C708 C704 1.350 . S
C708 C705 1.463 . S
C708 N712 1.427 . S
C709 H699 0.929 . S
C709 C707 1.433 . S
C709 N712 1.384 . S
C710 H701 0.929 . S
C710 C702 1.378 1_554 S
C710 C705 1.350 . S
C711 H698 0.929 . S
C711 C703 1.433 . S
C711 N713 1.384 . S
N712 C708 1.427 . S
N712 C709 1.384 . S
N713 C705 1.427 1_556 S
N713 C711 1.384 . S
H714 C720 0.930 . S
H715 C724 0.930 . S
H716 C729 0.929 . S
H717 C727 0.929 . S
H718 C722 0.929 . S
H719 C728 0.929 . S
C720 H714 0.930 . S
C720 C721 1.367 . S
C720 C728 1.378 . S
C721 C720 1.367 . S
C721 C729 1.433 1_554 S
C722 H718 0.929 . S
C722 C724 1.378 . S
C722 C726 1.350 . S
C723 C726 1.463 . S
C723 C728 1.350 1_556 S
C723 N731 1.427 . S
C724 H715 0.930 . S
C724 C722 1.378 . S
C724 C725 1.367 . S
C725 C724 1.367 . S
C725 C727 1.433 . S
C726 C722 1.350 . S
C726 C723 1.463 . S
C726 N730 1.427 . S
C727 H717 0.929 . S
C727 C725 1.433 . S
C727 N730 1.384 . S
C728 H719 0.929 . S
C728 C720 1.378 . S
C728 C723 1.350 1_554 S
C729 H716 0.929 . S
C729 C721 1.433 1_556 S
C729 N731 1.384 . S
N730 C726 1.427 . S
N730 C727 1.384 . S
N731 C723 1.427 . S
N731 C729 1.384 . S
H732 C738 0.930 . S
H733 C742 0.930 . S
H734 C747 0.929 . S
H735 C745 0.929 . S
H736 C740 0.929 . S
H737 C746 0.929 . S
C738 H732 0.930 . S
C738 C739 1.367 . S
C738 C746 1.378 . S
C739 C738 1.367 . S
C739 C747 1.433 1_556 S
C740 H736 0.929 . S
C740 C742 1.378 . S
C740 C744 1.350 . S
C741 C744 1.463 . S
C741 C746 1.350 1_554 S
C741 N749 1.427 . S
C742 H733 0.930 . S
C742 C740 1.378 . S
C742 C743 1.367 . S
C743 C742 1.367 . S
C743 C745 1.433 . S
C744 C740 1.350 . S
C744 C741 1.463 . S
C744 N748 1.427 . S
C745 H735 0.929 . S
C745 C743 1.433 . S
C745 N748 1.384 . S
C746 H737 0.929 . S
C746 C738 1.378 . S
C746 C741 1.350 1_556 S
C747 H734 0.929 . S
C747 C739 1.433 1_554 S
C747 N749 1.384 . S
N748 C744 1.427 . S
N748 C745 1.384 . S
N749 C741 1.427 . S
N749 C747 1.384 . S
H750 C756 0.930 . S
H751 C760 0.930 . S
H752 C765 0.929 . S
H753 C763 0.929 . S
H754 C758 0.929 . S
H755 C764 0.929 . S
C756 H750 0.930 . S
C756 C757 1.367 1_556 S
C756 C764 1.378 . S
C757 C756 1.367 1_554 S
C757 C765 1.433 . S
C758 H754 0.929 . S
C758 C760 1.378 . S
C758 C762 1.350 . S
C759 C762 1.463 . S
C759 C764 1.350 . S
C759 N767 1.427 1_556 S
C760 H751 0.930 . S
C760 C758 1.378 . S
C760 C761 1.367 . S
C761 C760 1.367 . S
C761 C763 1.433 . S
C762 C758 1.350 . S
C762 C759 1.463 . S
C762 N766 1.427 . S
C763 H753 0.929 . S
C763 C761 1.433 . S
C763 N766 1.384 . S
C764 H755 0.929 . S
C764 C756 1.378 . S
C764 C759 1.350 . S
C765 H752 0.929 . S
C765 C757 1.433 . S
C765 N767 1.384 . S
N766 C762 1.427 . S
N766 C763 1.384 . S
N767 C759 1.427 1_554 S
N767 C765 1.384 . S
H768 C774 0.930 . S
H769 C778 0.930 . S
H770 C783 0.929 . S
H771 C781 0.929 . S
H772 C776 0.929 . S
H773 C782 0.929 . S
C774 H768 0.930 . S
C774 C775 1.367 . S
C774 C782 1.378 . S
C775 C774 1.367 . S
C775 C783 1.433 . S
C776 H772 0.929 . S
C776 C778 1.378 . S
C776 C780 1.350 . S
C777 C780 1.463 . S
C777 C782 1.350 . S
C777 N785 1.427 . S
C778 H769 0.930 . S
C778 C776 1.378 . S
C778 C779 1.367 . S
C779 C778 1.367 . S
C779 C781 1.433 . S
C780 C776 1.350 . S
C780 C777 1.463 . S
C780 N784 1.427 . S
C781 H771 0.929 . S
C781 C779 1.433 . S
C781 N784 1.384 . S
C782 H773 0.929 . S
C782 C774 1.378 . S
C782 C777 1.350 . S
C783 H770 0.929 . S
C783 C775 1.433 . S
C783 N785 1.384 . S
N784 C780 1.427 . S
N784 C781 1.384 . S
N785 C777 1.427 . S
N785 C783 1.384 . S
H786 C792 0.930 . S
H787 C796 0.930 . S
H788 C801 0.929 . S
H789 C799 0.929 . S
H790 C794 0.929 . S
H791 C800 0.929 . S
C792 H786 0.930 . S
C792 C793 1.367 . S
C792 C800 1.378 . S
C793 C792 1.367 . S
C793 C801 1.433 . S
C794 H790 0.929 . S
C794 C796 1.378 . S
C794 C798 1.350 . S
C795 C798 1.463 . S
C795 C800 1.350 . S
C795 N803 1.427 . S
C796 H787 0.930 . S
C796 C794 1.378 . S
C796 C797 1.367 . S
C797 C796 1.367 . S
C797 C799 1.433 . S
C798 C794 1.350 . S
C798 C795 1.463 . S
C798 N802 1.427 . S
C799 H789 0.929 . S
C799 C797 1.433 . S
C799 N802 1.384 . S
C800 H791 0.929 . S
C800 C792 1.378 . S
C800 C795 1.350 . S
C801 H788 0.929 . S
C801 C793 1.433 . S
C801 N803 1.384 . S
N802 C798 1.427 . S
N802 C799 1.384 . S
N803 C795 1.427 . S
N803 C801 1.384 . S
H804 C810 0.930 . S
H805 C814 0.930 . S
H806 C819 0.929 . S
H807 C817 0.929 . S
H808 C812 0.929 . S
H809 C818 0.929 . S
C810 H804 0.930 . S
C810 C811 1.367 . S
C810 C818 1.378 . S
C811 C810 1.367 . S
C811 C819 1.433 . S
C812 H808 0.929 . S
C812 C814 1.378 . S
C812 C816 1.350 . S
C813 C816 1.463 . S
C813 C818 1.350 . S
C813 N821 1.427 . S
C814 H805 0.930 . S
C814 C812 1.378 . S
C814 C815 1.367 . S
C815 C814 1.367 . S
C815 C817 1.433 . S
C816 C812 1.350 . S
C816 C813 1.463 . S
C816 N820 1.427 . S
C817 H807 0.929 . S
C817 C815 1.433 . S
C817 N820 1.384 . S
C818 H809 0.929 . S
C818 C810 1.378 . S
C818 C813 1.350 . S
C819 H806 0.929 . S
C819 C811 1.433 . S
C819 N821 1.384 . S
N820 C816 1.427 . S
N820 C817 1.384 . S
N821 C813 1.427 . S
N821 C819 1.384 . S
H822 C828 0.930 . S
H823 C832 0.930 . S
H824 C837 0.929 . S
H825 C835 0.929 . S
H826 C830 0.929 . S
H827 C836 0.929 . S
C828 H822 0.930 . S
C828 C829 1.367 . S
C828 C836 1.378 . S
C829 C828 1.367 . S
C829 C837 1.433 . S
C830 H826 0.929 . S
C830 C832 1.378 . S
C830 C834 1.350 . S
C831 C834 1.463 . S
C831 C836 1.350 . S
C831 N839 1.427 . S
C832 H823 0.930 . S
C832 C830 1.378 . S
C832 C833 1.367 . S
C833 C832 1.367 . S
C833 C835 1.433 . S
C834 C830 1.350 . S
C834 C831 1.463 . S
C834 N838 1.427 . S
C835 H825 0.929 . S
C835 C833 1.433 . S
C835 N838 1.384 . S
C836 H827 0.929 . S
C836 C828 1.378 . S
C836 C831 1.350 . S
C837 H824 0.929 . S
C837 C829 1.433 . S
C837 N839 1.384 . S
N838 C834 1.427 . S
N838 C835 1.384 . S
N839 C831 1.427 . S
N839 C837 1.384 . S
H840 C846 0.930 . S
H841 C850 0.930 . S
H842 C855 0.929 . S
H843 C853 0.929 . S
H844 C848 0.929 . S
H845 C854 0.929 . S
C846 H840 0.930 . S
C846 C847 1.367 . S
C846 C854 1.378 . S
C847 C846 1.367 . S
C847 C855 1.433 . S
C848 H844 0.929 . S
C848 C850 1.378 . S
C848 C852 1.350 . S
C849 C852 1.463 . S
C849 C854 1.350 . S
C849 N857 1.427 . S
C850 H841 0.930 . S
C850 C848 1.378 . S
C850 C851 1.367 . S
C851 C850 1.367 . S
C851 C853 1.433 . S
C852 C848 1.350 . S
C852 C849 1.463 . S
C852 N856 1.427 . S
C853 H843 0.929 . S
C853 C851 1.433 . S
C853 N856 1.384 . S
C854 H845 0.929 . S
C854 C846 1.378 . S
C854 C849 1.350 . S
C855 H842 0.929 . S
C855 C847 1.433 . S
C855 N857 1.384 . S
N856 C852 1.427 . S
N856 C853 1.384 . S
N857 C849 1.427 . S
N857 C855 1.384 . S
H858 C864 0.930 . S
H859 C868 0.930 . S
H860 C873 0.929 . S
H861 C871 0.929 . S
H862 C866 0.929 . S
H863 C872 0.929 . S
C864 H858 0.930 . S
C864 C865 1.367 . S
C864 C872 1.378 . S
C865 C864 1.367 . S
C865 C873 1.433 . S
C866 H862 0.929 . S
C866 C868 1.378 . S
C866 C870 1.350 . S
C867 C870 1.463 . S
C867 C872 1.350 . S
C867 N875 1.427 . S
C868 H859 0.930 . S
C868 C866 1.378 . S
C868 C869 1.367 . S
C869 C868 1.367 . S
C869 C871 1.433 . S
C870 C866 1.350 . S
C870 C867 1.463 . S
C870 N874 1.427 . S
C871 H861 0.929 . S
C871 C869 1.433 . S
C871 N874 1.384 . S
C872 H863 0.929 . S
C872 C864 1.378 . S
C872 C867 1.350 . S
C873 H860 0.929 . S
C873 C865 1.433 . S
C873 N875 1.384 . S
N874 C870 1.427 . S
N874 C871 1.384 . S
N875 C867 1.427 . S
N875 C873 1.384 . S
H876 C882 0.930 . S
H877 C886 0.930 . S
H878 C891 0.929 . S
H879 C889 0.929 . S
H880 C884 0.929 . S
H881 C890 0.929 . S
C882 H876 0.930 . S
C882 C883 1.367 . S
C882 C890 1.378 . S
C883 C882 1.367 . S
C883 C891 1.433 . S
C884 H880 0.929 . S
C884 C886 1.378 . S
C884 C888 1.350 . S
C885 C888 1.463 . S
C885 C890 1.350 . S
C885 N893 1.427 . S
C886 H877 0.930 . S
C886 C884 1.378 . S
C886 C887 1.367 . S
C887 C886 1.367 . S
C887 C889 1.433 . S
C888 C884 1.350 . S
C888 C885 1.463 . S
C888 N892 1.427 . S
C889 H879 0.929 . S
C889 C887 1.433 . S
C889 N892 1.384 . S
C890 H881 0.929 . S
C890 C882 1.378 . S
C890 C885 1.350 . S
C891 H878 0.929 . S
C891 C883 1.433 . S
C891 N893 1.384 . S
N892 C888 1.427 . S
N892 C889 1.384 . S
N893 C885 1.427 . S
N893 C891 1.384 . S
H894 C900 0.930 . S
H895 C904 0.930 . S
H896 C909 0.929 . S
H897 C907 0.929 . S
H898 C902 0.929 . S
H899 C908 0.929 . S
C900 H894 0.930 . S
C900 C901 1.367 . S
C900 C908 1.378 . S
C901 C900 1.367 . S
C901 C909 1.433 . S
C902 H898 0.929 . S
C902 C904 1.378 . S
C902 C906 1.350 . S
C903 C906 1.463 . S
C903 C908 1.350 . S
C903 N911 1.427 . S
C904 H895 0.930 . S
C904 C902 1.378 . S
C904 C905 1.367 . S
C905 C904 1.367 . S
C905 C907 1.433 . S
C906 C902 1.350 . S
C906 C903 1.463 . S
C906 N910 1.427 . S
C907 H897 0.929 . S
C907 C905 1.433 . S
C907 N910 1.384 . S
C908 H899 0.929 . S
C908 C900 1.378 . S
C908 C903 1.350 . S
C909 H896 0.929 . S
C909 C901 1.433 . S
C909 N911 1.384 . S
N910 C906 1.427 . S
N910 C907 1.384 . S
N911 C903 1.427 . S
N911 C909 1.384 . S
H912 C918 0.930 . S
H913 C922 0.930 . S
H914 C927 0.929 . S
H915 C925 0.929 . S
H916 C920 0.929 . S
H917 C926 0.929 . S
C918 H912 0.930 . S
C918 C919 1.367 . S
C918 C926 1.378 . S
C919 C918 1.367 . S
C919 C927 1.433 . S
C920 H916 0.929 . S
C920 C922 1.378 . S
C920 C924 1.350 . S
C921 C924 1.463 . S
C921 C926 1.350 . S
C921 N929 1.427 . S
C922 H913 0.930 . S
C922 C920 1.378 . S
C922 C923 1.367 . S
C923 C922 1.367 . S
C923 C925 1.433 . S
C924 C920 1.350 . S
C924 C921 1.463 . S
C924 N928 1.427 . S
C925 H915 0.929 . S
C925 C923 1.433 . S
C925 N928 1.384 . S
C926 H917 0.929 . S
C926 C918 1.378 . S
C926 C921 1.350 . S
C927 H914 0.929 . S
C927 C919 1.433 . S
C927 N929 1.384 . S
N928 C924 1.427 . S
N928 C925 1.384 . S
N929 C921 1.427 . S
N929 C927 1.384 . S
H930 C936 0.930 . S
H931 C940 0.930 . S
H932 C945 0.929 . S
H933 C943 0.929 . S
H934 C938 0.929 . S
H935 C944 0.929 . S
C936 H930 0.930 . S
C936 C937 1.367 . S
C936 C944 1.378 . S
C937 C936 1.367 . S
C937 C945 1.433 . S
C938 H934 0.929 . S
C938 C940 1.378 . S
C938 C942 1.350 . S
C939 C942 1.463 . S
C939 C944 1.350 . S
C939 N947 1.427 . S
C940 H931 0.930 . S
C940 C938 1.378 . S
C940 C941 1.367 . S
C941 C940 1.367 . S
C941 C943 1.433 . S
C942 C938 1.350 . S
C942 C939 1.463 . S
C942 N946 1.427 . S
C943 H933 0.929 . S
C943 C941 1.433 . S
C943 N946 1.384 . S
C944 H935 0.929 . S
C944 C936 1.378 . S
C944 C939 1.350 . S
C945 H932 0.929 . S
C945 C937 1.433 . S
C945 N947 1.384 . S
N946 C942 1.427 . S
N946 C943 1.384 . S
N947 C939 1.427 . S
N947 C945 1.384 . S
H948 C954 0.930 . S
H949 C958 0.930 . S
H950 C963 0.929 . S
H951 C961 0.929 . S
H952 C956 0.929 . S
H953 C962 0.929 . S
C954 H948 0.930 . S
C954 C955 1.367 . S
C954 C962 1.378 . S
C955 C954 1.367 . S
C955 C963 1.433 . S
C956 H952 0.929 . S
C956 C958 1.378 . S
C956 C960 1.350 . S
C957 C960 1.463 . S
C957 C962 1.350 . S
C957 N965 1.427 . S
C958 H949 0.930 . S
C958 C956 1.378 . S
C958 C959 1.367 . S
C959 C958 1.367 . S
C959 C961 1.433 . S
C960 C956 1.350 . S
C960 C957 1.463 . S
C960 N964 1.427 . S
C961 H951 0.929 . S
C961 C959 1.433 . S
C961 N964 1.384 . S
C962 H953 0.929 . S
C962 C954 1.378 . S
C962 C957 1.350 . S
C963 H950 0.929 . S
C963 C955 1.433 . S
C963 N965 1.384 . S
N964 C960 1.427 . S
N964 C961 1.384 . S
N965 C957 1.427 . S
N965 C963 1.384 . S
H966 C972 0.930 . S
H967 C976 0.930 . S
H968 C981 0.929 . S
H969 C979 0.929 . S
H970 C974 0.929 . S
H971 C980 0.929 . S
C972 H966 0.930 . S
C972 C973 1.367 . S
C972 C980 1.378 . S
C973 C972 1.367 . S
C973 C981 1.433 . S
C974 H970 0.929 . S
C974 C976 1.378 . S
C974 C978 1.350 . S
C975 C978 1.463 . S
C975 C980 1.350 . S
C975 N983 1.427 . S
C976 H967 0.930 . S
C976 C974 1.378 . S
C976 C977 1.367 . S
C977 C976 1.367 . S
C977 C979 1.433 . S
C978 C974 1.350 . S
C978 C975 1.463 . S
C978 N982 1.427 . S
C979 H969 0.929 . S
C979 C977 1.433 . S
C979 N982 1.384 . S
C980 H971 0.929 . S
C980 C972 1.378 . S
C980 C975 1.350 . S
C981 H968 0.929 . S
C981 C973 1.433 . S
C981 N983 1.384 . S
N982 C978 1.427 . S
N982 C979 1.384 . S
N983 C975 1.427 . S
N983 C981 1.384 . S
H984 C990 0.930 . S
H985 C994 0.930 . S
H986 C999 0.929 . S
H987 C997 0.929 . S
H988 C992 0.929 . S
H989 C998 0.929 . S
C990 H984 0.930 . S
C990 C991 1.367 . S
C990 C998 1.378 . S
C991 C990 1.367 . S
C991 C999 1.433 . S
C992 H988 0.929 . S
C992 C994 1.378 . S
C992 C996 1.350 . S
C993 C996 1.463 . S
C993 C998 1.350 . S
C993 N1001 1.427 . S
C994 H985 0.930 . S
C994 C992 1.378 . S
C994 C995 1.367 . S
C995 C994 1.367 . S
C995 C997 1.433 . S
C996 C992 1.350 . S
C996 C993 1.463 . S
C996 N1000 1.427 . S
C997 H987 0.929 . S
C997 C995 1.433 . S
C997 N1000 1.384 . S
C998 H989 0.929 . S
C998 C990 1.378 . S
C998 C993 1.350 . S
C999 H986 0.929 . S
C999 C991 1.433 . S
C999 N1001 1.384 . S
N1000 C996 1.427 . S
N1000 C997 1.384 . S
N1001 C993 1.427 . S
N1001 C999 1.384 . S
H1002 C1008 0.930 . S
H1003 C1012 0.930 . S
H1004 C1017 0.929 . S
H1005 C1015 0.929 . S
H1006 C1010 0.929 . S
H1007 C1016 0.929 . S
C1008 H1002 0.930 . S
C1008 C1009 1.367 . S
C1008 C1016 1.378 . S
C1009 C1008 1.367 . S
C1009 C1017 1.433 . S
C1010 H1006 0.929 . S
C1010 C1012 1.378 . S
C1010 C1014 1.350 . S
C1011 C1014 1.463 . S
C1011 C1016 1.350 . S
C1011 N1019 1.427 . S
C1012 H1003 0.930 . S
C1012 C1010 1.378 . S
C1012 C1013 1.367 . S
C1013 C1012 1.367 . S
C1013 C1015 1.433 . S
C1014 C1010 1.350 . S
C1014 C1011 1.463 . S
C1014 N1018 1.427 . S
C1015 H1005 0.929 . S
C1015 C1013 1.433 . S
C1015 N1018 1.384 . S
C1016 H1007 0.929 . S
C1016 C1008 1.378 . S
C1016 C1011 1.350 . S
C1017 H1004 0.929 . S
C1017 C1009 1.433 . S
C1017 N1019 1.384 . S
N1018 C1014 1.427 . S
N1018 C1015 1.384 . S
N1019 C1011 1.427 . S
N1019 C1017 1.384 . S
H1020 C1026 0.930 . S
H1021 C1030 0.930 . S
H1022 C1035 0.929 . S
H1023 C1033 0.929 . S
H1024 C1028 0.929 . S
H1025 C1034 0.929 . S
C1026 H1020 0.930 . S
C1026 C1027 1.367 . S
C1026 C1034 1.378 . S
C1027 C1026 1.367 . S
C1027 C1035 1.433 . S
C1028 H1024 0.929 . S
C1028 C1030 1.378 . S
C1028 C1032 1.350 . S
C1029 C1032 1.463 . S
C1029 C1034 1.350 . S
C1029 N1037 1.427 . S
C1030 H1021 0.930 . S
C1030 C1028 1.378 . S
C1030 C1031 1.367 . S
C1031 C1030 1.367 . S
C1031 C1033 1.433 . S
C1032 C1028 1.350 . S
C1032 C1029 1.463 . S
C1032 N1036 1.427 . S
C1033 H1023 0.929 . S
C1033 C1031 1.433 . S
C1033 N1036 1.384 . S
C1034 H1025 0.929 . S
C1034 C1026 1.378 . S
C1034 C1029 1.350 . S
C1035 H1022 0.929 . S
C1035 C1027 1.433 . S
C1035 N1037 1.384 . S
N1036 C1032 1.427 . S
N1036 C1033 1.384 . S
N1037 C1029 1.427 . S
N1037 C1035 1.384 . S
H1038 C1044 0.930 . S
H1039 C1048 0.930 . S
H1040 C1053 0.929 . S
H1041 C1051 0.929 . S
H1042 C1046 0.929 . S
H1043 C1052 0.929 . S
C1044 H1038 0.930 . S
C1044 C1045 1.367 . S
C1044 C1052 1.378 . S
C1045 C1044 1.367 . S
C1045 C1053 1.433 . S
C1046 H1042 0.929 . S
C1046 C1048 1.378 . S
C1046 C1050 1.350 . S
C1047 C1050 1.463 . S
C1047 C1052 1.350 . S
C1047 N1055 1.427 . S
C1048 H1039 0.930 . S
C1048 C1046 1.378 . S
C1048 C1049 1.367 . S
C1049 C1048 1.367 . S
C1049 C1051 1.433 . S
C1050 C1046 1.350 . S
C1050 C1047 1.463 . S
C1050 N1054 1.427 . S
C1051 H1041 0.929 . S
C1051 C1049 1.433 . S
C1051 N1054 1.384 . S
C1052 H1043 0.929 . S
C1052 C1044 1.378 . S
C1052 C1047 1.350 . S
C1053 H1040 0.929 . S
C1053 C1045 1.433 . S
C1053 N1055 1.384 . S
N1054 C1050 1.427 . S
N1054 C1051 1.384 . S
N1055 C1047 1.427 . S
N1055 C1053 1.384 . S
H1056 C1062 0.930 . S
H1057 C1066 0.930 . S
H1058 C1071 0.929 . S
H1059 C1069 0.929 . S
H1060 C1064 0.929 . S
H1061 C1070 0.929 . S
C1062 H1056 0.930 . S
C1062 C1063 1.367 . S
C1062 C1070 1.378 . S
C1063 C1062 1.367 . S
C1063 C1071 1.433 . S
C1064 H1060 0.929 . S
C1064 C1066 1.378 . S
C1064 C1068 1.350 . S
C1065 C1068 1.463 . S
C1065 C1070 1.350 . S
C1065 N1073 1.427 . S
C1066 H1057 0.930 . S
C1066 C1064 1.378 . S
C1066 C1067 1.367 . S
C1067 C1066 1.367 . S
C1067 C1069 1.433 . S
C1068 C1064 1.350 . S
C1068 C1065 1.463 . S
C1068 N1072 1.427 . S
C1069 H1059 0.929 . S
C1069 C1067 1.433 . S
C1069 N1072 1.384 . S
C1070 H1061 0.929 . S
C1070 C1062 1.378 . S
C1070 C1065 1.350 . S
C1071 H1058 0.929 . S
C1071 C1063 1.433 . S
C1071 N1073 1.384 . S
N1072 C1068 1.427 . S
N1072 C1069 1.384 . S
N1073 C1065 1.427 . S
N1073 C1071 1.384 . S
H1074 C1080 0.930 . S
H1075 C1084 0.930 . S
H1076 C1089 0.929 . S
H1077 C1087 0.929 . S
H1078 C1082 0.929 . S
H1079 C1088 0.929 . S
C1080 H1074 0.930 . S
C1080 C1081 1.367 . S
C1080 C1088 1.378 . S
C1081 C1080 1.367 . S
C1081 C1089 1.433 . S
C1082 H1078 0.929 . S
C1082 C1084 1.378 . S
C1082 C1086 1.350 . S
C1083 C1086 1.463 . S
C1083 C1088 1.350 . S
C1083 N1091 1.427 . S
C1084 H1075 0.930 . S
C1084 C1082 1.378 . S
C1084 C1085 1.367 . S
C1085 C1084 1.367 . S
C1085 C1087 1.433 . S
C1086 C1082 1.350 . S
C1086 C1083 1.463 . S
C1086 N1090 1.427 . S
C1087 H1077 0.929 . S
C1087 C1085 1.433 . S
C1087 N1090 1.384 . S
C1088 H1079 0.929 . S
C1088 C1080 1.378 . S
C1088 C1083 1.350 . S
C1089 H1076 0.929 . S
C1089 C1081 1.433 . S
C1089 N1091 1.384 . S
N1090 C1086 1.427 . S
N1090 C1087 1.384 . S
N1091 C1083 1.427 . S
N1091 C1089 1.384 . S
H1092 C1098 0.930 . S
H1093 C1102 0.930 . S
H1094 C1107 0.929 . S
H1095 C1105 0.929 . S
H1096 C1100 0.929 . S
H1097 C1106 0.929 . S
C1098 H1092 0.930 . S
C1098 C1099 1.367 . S
C1098 C1106 1.378 . S
C1099 C1098 1.367 . S
C1099 C1107 1.433 . S
C1100 H1096 0.929 . S
C1100 C1102 1.378 . S
C1100 C1104 1.350 . S
C1101 C1104 1.463 . S
C1101 C1106 1.350 . S
C1101 N1109 1.427 . S
C1102 H1093 0.930 . S
C1102 C1100 1.378 . S
C1102 C1103 1.367 . S
C1103 C1102 1.367 . S
C1103 C1105 1.433 . S
C1104 C1100 1.350 . S
C1104 C1101 1.463 . S
C1104 N1108 1.427 . S
C1105 H1095 0.929 . S
C1105 C1103 1.433 . S
C1105 N1108 1.384 . S
C1106 H1097 0.929 . S
C1106 C1098 1.378 . S
C1106 C1101 1.350 . S
C1107 H1094 0.929 . S
C1107 C1099 1.433 . S
C1107 N1109 1.384 . S
N1108 C1104 1.427 . S
N1108 C1105 1.384 . S
N1109 C1101 1.427 . S
N1109 C1107 1.384 . S
H1110 C1116 0.930 . S
H1111 C1120 0.930 . S
H1112 C1125 0.929 . S
H1113 C1123 0.929 . S
H1114 C1118 0.929 . S
H1115 C1124 0.929 . S
C1116 H1110 0.930 . S
C1116 C1117 1.367 . S
C1116 C1124 1.378 . S
C1117 C1116 1.367 . S
C1117 C1125 1.433 . S
C1118 H1114 0.929 . S
C1118 C1120 1.378 . S
C1118 C1122 1.350 . S
C1119 C1122 1.463 . S
C1119 C1124 1.350 . S
C1119 N1127 1.427 . S
C1120 H1111 0.930 . S
C1120 C1118 1.378 . S
C1120 C1121 1.367 . S
C1121 C1120 1.367 . S
C1121 C1123 1.433 . S
C1122 C1118 1.350 . S
C1122 C1119 1.463 . S
C1122 N1126 1.427 . S
C1123 H1113 0.929 . S
C1123 C1121 1.433 . S
C1123 N1126 1.384 . S
C1124 H1115 0.929 . S
C1124 C1116 1.378 . S
C1124 C1119 1.350 . S
C1125 H1112 0.929 . S
C1125 C1117 1.433 . S
C1125 N1127 1.384 . S
N1126 C1122 1.427 . S
N1126 C1123 1.384 . S
N1127 C1119 1.427 . S
N1127 C1125 1.384 . S
H1128 C1134 0.930 . S
H1129 C1138 0.930 . S
H1130 C1143 0.929 . S
H1131 C1141 0.929 . S
H1132 C1136 0.929 . S
H1133 C1142 0.929 . S
C1134 H1128 0.930 . S
C1134 C1135 1.367 . S
C1134 C1142 1.378 . S
C1135 C1134 1.367 . S
C1135 C1143 1.433 . S
C1136 H1132 0.929 . S
C1136 C1138 1.378 . S
C1136 C1140 1.350 . S
C1137 C1140 1.463 . S
C1137 C1142 1.350 . S
C1137 N1145 1.427 . S
C1138 H1129 0.930 . S
C1138 C1136 1.378 . S
C1138 C1139 1.367 . S
C1139 C1138 1.367 . S
C1139 C1141 1.433 . S
C1140 C1136 1.350 . S
C1140 C1137 1.463 . S
C1140 N1144 1.427 . S
C1141 H1131 0.929 . S
C1141 C1139 1.433 . S
C1141 N1144 1.384 . S
C1142 H1133 0.929 . S
C1142 C1134 1.378 . S
C1142 C1137 1.350 . S
C1143 H1130 0.929 . S
C1143 C1135 1.433 . S
C1143 N1145 1.384 . S
N1144 C1140 1.427 . S
N1144 C1141 1.384 . S
N1145 C1137 1.427 . S
N1145 C1143 1.384 . S
H1146 C1152 0.930 . S
H1147 C1156 0.930 . S
H1148 C1161 0.929 . S
H1149 C1159 0.929 . S
H1150 C1154 0.929 . S
H1151 C1160 0.929 . S
C1152 H1146 0.930 . S
C1152 C1153 1.367 . S
C1152 C1160 1.378 . S
C1153 C1152 1.367 . S
C1153 C1161 1.433 . S
C1154 H1150 0.929 . S
C1154 C1156 1.378 . S
C1154 C1158 1.350 . S
C1155 C1158 1.463 . S
C1155 C1160 1.350 . S
C1155 N1163 1.427 . S
C1156 H1147 0.930 . S
C1156 C1154 1.378 . S
C1156 C1157 1.367 . S
C1157 C1156 1.367 . S
C1157 C1159 1.433 . S
C1158 C1154 1.350 . S
C1158 C1155 1.463 . S
C1158 N1162 1.427 . S
C1159 H1149 0.929 . S
C1159 C1157 1.433 . S
C1159 N1162 1.384 . S
C1160 H1151 0.929 . S
C1160 C1152 1.378 . S
C1160 C1155 1.350 . S
C1161 H1148 0.929 . S
C1161 C1153 1.433 . S
C1161 N1163 1.384 . S
N1162 C1158 1.427 . S
N1162 C1159 1.384 . S
N1163 C1155 1.427 . S
N1163 C1161 1.384 . S
H1164 C1170 0.930 . S
H1165 C1174 0.930 . S
H1166 C1179 0.929 . S
H1167 C1177 0.929 . S
H1168 C1172 0.929 . S
H1169 C1178 0.929 . S
C1170 H1164 0.930 . S
C1170 C1171 1.367 . S
C1170 C1178 1.378 . S
C1171 C1170 1.367 . S
C1171 C1179 1.433 . S
C1172 H1168 0.929 . S
C1172 C1174 1.378 . S
C1172 C1176 1.350 . S
C1173 C1176 1.463 . S
C1173 C1178 1.350 . S
C1173 N1181 1.427 . S
C1174 H1165 0.930 . S
C1174 C1172 1.378 . S
C1174 C1175 1.367 . S
C1175 C1174 1.367 . S
C1175 C1177 1.433 . S
C1176 C1172 1.350 . S
C1176 C1173 1.463 . S
C1176 N1180 1.427 . S
C1177 H1167 0.929 . S
C1177 C1175 1.433 . S
C1177 N1180 1.384 . S
C1178 H1169 0.929 . S
C1178 C1170 1.378 . S
C1178 C1173 1.350 . S
C1179 H1166 0.929 . S
C1179 C1171 1.433 . S
C1179 N1181 1.384 . S
N1180 C1176 1.427 . S
N1180 C1177 1.384 . S
N1181 C1173 1.427 . S
N1181 C1179 1.384 . S
H1182 C1188 0.930 . S
H1183 C1192 0.930 . S
H1184 C1197 0.929 . S
H1185 C1195 0.929 . S
H1186 C1190 0.929 . S
H1187 C1196 0.929 . S
C1188 H1182 0.930 . S
C1188 C1189 1.367 . S
C1188 C1196 1.378 . S
C1189 C1188 1.367 . S
C1189 C1197 1.433 . S
C1190 H1186 0.929 . S
C1190 C1192 1.378 . S
C1190 C1194 1.350 . S
C1191 C1194 1.463 . S
C1191 C1196 1.350 . S
C1191 N1199 1.427 . S
C1192 H1183 0.930 . S
C1192 C1190 1.378 . S
C1192 C1193 1.367 . S
C1193 C1192 1.367 . S
C1193 C1195 1.433 . S
C1194 C1190 1.350 . S
C1194 C1191 1.463 . S
C1194 N1198 1.427 . S
C1195 H1185 0.929 . S
C1195 C1193 1.433 . S
C1195 N1198 1.384 . S
C1196 H1187 0.929 . S
C1196 C1188 1.378 . S
C1196 C1191 1.350 . S
C1197 H1184 0.929 . S
C1197 C1189 1.433 . S
C1197 N1199 1.384 . S
N1198 C1194 1.427 . S
N1198 C1195 1.384 . S
N1199 C1191 1.427 . S
N1199 C1197 1.384 . S
C343 C311 2.032 . S
C347 C8 1.963 . S
C361 C17 2.000 . S
C365 C232 1.938 . S
C379 C325 1.983 . S
C383 C36 1.912 . S
C397 C302 1.932 . S
C401 C50 1.990 . S
C415 C260 1.981 . S
C419 C64 1.924 . S
C433 C269 1.863 . S
C437 C73 2.008 . S
C451 C288 2.026 . S
C455 C87 1.909 . S
C469 C101 1.992 . S
C473 C241 1.860 . S
C487 C185 2.032 . S
C491 C115 1.912 . S
C505 C204 1.927 . S
C509 C134 1.989 . S
C523 C143 1.919 . S
C527 C213 2.043 . S
C541 C162 1.981 . S
C545 C176 1.917 . S
C559 C106 1.958 . S
C563 C199 2.029 . S
C577 C218 1.931 . S
C581 C59 1.996 . S
C595 C78 1.899 . S
C599 C171 1.974 . S
C613 C190 1.942 . S
C617 C92 1.994 . S
C631 C148 1.980 . S
C635 C22 1.923 . S
C649 C31 2.005 . S
C653 C157 1.857 . S
C667 C45 1.910 . S
C671 C120 2.027 . S
C685 C3 1.992 . S
C689 C129 1.858 . S
C703 C283 1.910 . S
C707 C297 2.032 . S
C721 C316 1.916 . S
C725 C246 1.982 . S
C739 C255 1.903 . S
C743 C227 2.034 . S
C757 C330 1.924 . S
C761 C274 1.990 . S
C775 C9 0.821 . S
C779 C121 0.893 . S
C793 C133 0.796 . S
C797 C21 0.855 . S
C811 C37 0.811 . S
C815 C149 0.834 . S
C829 C51 0.848 . S
C833 C161 0.831 . S
C847 C65 0.805 . S
C851 C175 0.850 . S
C865 C77 0.875 . S
C869 C191 0.796 . S
C883 C203 0.851 . S
C887 C91 0.829 . S
C901 C219 0.851 . S
C905 C105 0.888 . S
C919 C119 0.865 . S
C923 C231 0.916 . S
C937 C135 0.833 . S
C941 C331 0.778 . S
C955 C301 0.937 . S
C959 C147 0.861 . S
C973 C317 0.759 . S
C977 C163 0.802 . S
C991 C247 0.831 . S
C995 C177 0.774 . S
C1009 C259 0.882 . S
C1013 C189 0.935 . S
C1027 C205 0.779 . S
C1031 C275 0.820 . S
C1045 C217 0.919 . S
C1049 C287 0.847 . S
C1063 C7 0.888 . S
C1067 C233 0.850 . S
C1081 C245 0.815 . S
C1085 C63 0.846 . S
C1099 C261 0.812 . S
C1103 C79 0.762 . S
C1117 C273 0.791 . S
C1121 C93 0.830 . S
C1135 C289 0.900 . S
C1139 C107 0.844 . S
C1153 C303 0.810 . S
C1157 C35 0.883 . S
C1171 C49 0.833 . S
C1175 C315 0.845 . S
C1189 C329 0.845 . S
C1193 C23 0.776 . S
