# Generated by pormake.
# Topology fau, (4)-cn, num edge types: 1
# Building blocks:
#     Node 0, Type 0, BuildingBlock: GALJAG_clean_sbu_0, # of connection points: 4
#     Node 1, Type 0, BuildingBlock: GALJAG_clean_sbu_0, # of connection points: 4
#     Node 2, Type 0, BuildingBlock: GALJAG_clean_sbu_0, # of connection points: 4
#     Node 3, Type 0, BuildingBlock: GALJAG_clean_sbu_0, # of connection points: 4
#     Node 4, Type 0, BuildingBlock: GALJAG_clean_sbu_0, # of connection points: 4
#     Node 5, Type 0, BuildingBlock: GALJAG_clean_sbu_0, # of connection points: 4
#     Node 6, Type 0, BuildingBlock: GALJAG_clean_sbu_0, # of connection points: 4
#     Node 7, Type 0, BuildingBlock: GALJAG_clean_sbu_0, # of connection points: 4
#     Node 8, Type 0, BuildingBlock: GALJAG_clean_sbu_0, # of connection points: 4
#     Node 9, Type 0, BuildingBlock: GALJAG_clean_sbu_0, # of connection points: 4
#     Node 10, Type 0, BuildingBlock: GALJAG_clean_sbu_0, # of connection points: 4
#     Node 11, Type 0, BuildingBlock: GALJAG_clean_sbu_0, # of connection points: 4
#     Node 12, Type 0, BuildingBlock: GALJAG_clean_sbu_0, # of connection points: 4
#     Node 13, Type 0, BuildingBlock: GALJAG_clean_sbu_0, # of connection points: 4
#     Node 14, Type 0, BuildingBlock: GALJAG_clean_sbu_0, # of connection points: 4
#     Node 15, Type 0, BuildingBlock: GALJAG_clean_sbu_0, # of connection points: 4
#     Node 16, Type 0, BuildingBlock: GALJAG_clean_sbu_0, # of connection points: 4
#     Node 17, Type 0, BuildingBlock: GALJAG_clean_sbu_0, # of connection points: 4
#     Node 18, Type 0, BuildingBlock: GALJAG_clean_sbu_0, # of connection points: 4
#     Node 19, Type 0, BuildingBlock: GALJAG_clean_sbu_0, # of connection points: 4
#     Node 20, Type 0, BuildingBlock: GALJAG_clean_sbu_0, # of connection points: 4
#     Node 21, Type 0, BuildingBlock: GALJAG_clean_sbu_0, # of connection points: 4
#     Node 22, Type 0, BuildingBlock: GALJAG_clean_sbu_0, # of connection points: 4
#     Node 23, Type 0, BuildingBlock: GALJAG_clean_sbu_0, # of connection points: 4
#     Node 24, Type 0, BuildingBlock: GALJAG_clean_sbu_0, # of connection points: 4
#     Node 25, Type 0, BuildingBlock: GALJAG_clean_sbu_0, # of connection points: 4
#     Node 26, Type 0, BuildingBlock: GALJAG_clean_sbu_0, # of connection points: 4
#     Node 27, Type 0, BuildingBlock: GALJAG_clean_sbu_0, # of connection points: 4
#     Node 28, Type 0, BuildingBlock: GALJAG_clean_sbu_0, # of connection points: 4
#     Node 29, Type 0, BuildingBlock: GALJAG_clean_sbu_0, # of connection points: 4
#     Node 30, Type 0, BuildingBlock: GALJAG_clean_sbu_0, # of connection points: 4
#     Node 31, Type 0, BuildingBlock: GALJAG_clean_sbu_0, # of connection points: 4
#     Node 32, Type 0, BuildingBlock: GALJAG_clean_sbu_0, # of connection points: 4
#     Node 33, Type 0, BuildingBlock: GALJAG_clean_sbu_0, # of connection points: 4
#     Node 34, Type 0, BuildingBlock: GALJAG_clean_sbu_0, # of connection points: 4
#     Node 35, Type 0, BuildingBlock: GALJAG_clean_sbu_0, # of connection points: 4
#     Node 36, Type 0, BuildingBlock: GALJAG_clean_sbu_0, # of connection points: 4
#     Node 37, Type 0, BuildingBlock: GALJAG_clean_sbu_0, # of connection points: 4
#     Node 38, Type 0, BuildingBlock: GALJAG_clean_sbu_0, # of connection points: 4
#     Node 39, Type 0, BuildingBlock: GALJAG_clean_sbu_0, # of connection points: 4
#     Node 40, Type 0, BuildingBlock: GALJAG_clean_sbu_0, # of connection points: 4
#     Node 41, Type 0, BuildingBlock: GALJAG_clean_sbu_0, # of connection points: 4
#     Node 42, Type 0, BuildingBlock: GALJAG_clean_sbu_0, # of connection points: 4
#     Node 43, Type 0, BuildingBlock: GALJAG_clean_sbu_0, # of connection points: 4
#     Node 44, Type 0, BuildingBlock: GALJAG_clean_sbu_0, # of connection points: 4
#     Node 45, Type 0, BuildingBlock: GALJAG_clean_sbu_0, # of connection points: 4
#     Node 46, Type 0, BuildingBlock: GALJAG_clean_sbu_0, # of connection points: 4
#     Node 47, Type 0, BuildingBlock: GALJAG_clean_sbu_0, # of connection points: 4
#     Node 48, Type 0, BuildingBlock: GALJAG_clean_sbu_0, # of connection points: 4
#     Node 49, Type 0, BuildingBlock: GALJAG_clean_sbu_0, # of connection points: 4
#     Node 50, Type 0, BuildingBlock: GALJAG_clean_sbu_0, # of connection points: 4
#     Node 51, Type 0, BuildingBlock: GALJAG_clean_sbu_0, # of connection points: 4
#     Node 52, Type 0, BuildingBlock: GALJAG_clean_sbu_0, # of connection points: 4
#     Node 53, Type 0, BuildingBlock: GALJAG_clean_sbu_0, # of connection points: 4
#     Node 54, Type 0, BuildingBlock: GALJAG_clean_sbu_0, # of connection points: 4
#     Node 55, Type 0, BuildingBlock: GALJAG_clean_sbu_0, # of connection points: 4
#     Node 56, Type 0, BuildingBlock: GALJAG_clean_sbu_0, # of connection points: 4
#     Node 57, Type 0, BuildingBlock: GALJAG_clean_sbu_0, # of connection points: 4
#     Node 58, Type 0, BuildingBlock: GALJAG_clean_sbu_0, # of connection points: 4
#     Node 59, Type 0, BuildingBlock: GALJAG_clean_sbu_0, # of connection points: 4
#     Node 60, Type 0, BuildingBlock: GALJAG_clean_sbu_0, # of connection points: 4
#     Node 61, Type 0, BuildingBlock: GALJAG_clean_sbu_0, # of connection points: 4
#     Node 62, Type 0, BuildingBlock: GALJAG_clean_sbu_0, # of connection points: 4
#     Node 63, Type 0, BuildingBlock: GALJAG_clean_sbu_0, # of connection points: 4
#     Node 64, Type 0, BuildingBlock: GALJAG_clean_sbu_0, # of connection points: 4
#     Node 65, Type 0, BuildingBlock: GALJAG_clean_sbu_0, # of connection points: 4
#     Node 66, Type 0, BuildingBlock: GALJAG_clean_sbu_0, # of connection points: 4
#     Node 67, Type 0, BuildingBlock: GALJAG_clean_sbu_0, # of connection points: 4
#     Node 68, Type 0, BuildingBlock: GALJAG_clean_sbu_0, # of connection points: 4
#     Node 69, Type 0, BuildingBlock: GALJAG_clean_sbu_0, # of connection points: 4
#     Node 70, Type 0, BuildingBlock: GALJAG_clean_sbu_0, # of connection points: 4
#     Node 71, Type 0, BuildingBlock: GALJAG_clean_sbu_0, # of connection points: 4
#     Node 72, Type 0, BuildingBlock: GALJAG_clean_sbu_0, # of connection points: 4
#     Node 73, Type 0, BuildingBlock: GALJAG_clean_sbu_0, # of connection points: 4
#     Node 74, Type 0, BuildingBlock: GALJAG_clean_sbu_0, # of connection points: 4
#     Node 75, Type 0, BuildingBlock: GALJAG_clean_sbu_0, # of connection points: 4
#     Node 76, Type 0, BuildingBlock: GALJAG_clean_sbu_0, # of connection points: 4
#     Node 77, Type 0, BuildingBlock: GALJAG_clean_sbu_0, # of connection points: 4
#     Node 78, Type 0, BuildingBlock: GALJAG_clean_sbu_0, # of connection points: 4
#     Node 79, Type 0, BuildingBlock: GALJAG_clean_sbu_0, # of connection points: 4
#     Node 80, Type 0, BuildingBlock: GALJAG_clean_sbu_0, # of connection points: 4
#     Node 81, Type 0, BuildingBlock: GALJAG_clean_sbu_0, # of connection points: 4
#     Node 82, Type 0, BuildingBlock: GALJAG_clean_sbu_0, # of connection points: 4
#     Node 83, Type 0, BuildingBlock: GALJAG_clean_sbu_0, # of connection points: 4
#     Node 84, Type 0, BuildingBlock: GALJAG_clean_sbu_0, # of connection points: 4
#     Node 85, Type 0, BuildingBlock: GALJAG_clean_sbu_0, # of connection points: 4
#     Node 86, Type 0, BuildingBlock: GALJAG_clean_sbu_0, # of connection points: 4
#     Node 87, Type 0, BuildingBlock: GALJAG_clean_sbu_0, # of connection points: 4
#     Node 88, Type 0, BuildingBlock: GALJAG_clean_sbu_0, # of connection points: 4
#     Node 89, Type 0, BuildingBlock: GALJAG_clean_sbu_0, # of connection points: 4
#     Node 90, Type 0, BuildingBlock: GALJAG_clean_sbu_0, # of connection points: 4
#     Node 91, Type 0, BuildingBlock: GALJAG_clean_sbu_0, # of connection points: 4
#     Node 92, Type 0, BuildingBlock: GALJAG_clean_sbu_0, # of connection points: 4
#     Node 93, Type 0, BuildingBlock: GALJAG_clean_sbu_0, # of connection points: 4
#     Node 94, Type 0, BuildingBlock: GALJAG_clean_sbu_0, # of connection points: 4
#     Node 95, Type 0, BuildingBlock: GALJAG_clean_sbu_0, # of connection points: 4
#     Node 96, Type 0, BuildingBlock: GALJAG_clean_sbu_0, # of connection points: 4
#     Node 97, Type 0, BuildingBlock: GALJAG_clean_sbu_0, # of connection points: 4
#     Node 98, Type 0, BuildingBlock: GALJAG_clean_sbu_0, # of connection points: 4
#     Node 99, Type 0, BuildingBlock: GALJAG_clean_sbu_0, # of connection points: 4
#     Node 100, Type 0, BuildingBlock: GALJAG_clean_sbu_0, # of connection points: 4
#     Node 101, Type 0, BuildingBlock: GALJAG_clean_sbu_0, # of connection points: 4
#     Node 102, Type 0, BuildingBlock: GALJAG_clean_sbu_0, # of connection points: 4
#     Node 103, Type 0, BuildingBlock: GALJAG_clean_sbu_0, # of connection points: 4
#     Node 104, Type 0, BuildingBlock: GALJAG_clean_sbu_0, # of connection points: 4
#     Node 105, Type 0, BuildingBlock: GALJAG_clean_sbu_0, # of connection points: 4
#     Node 106, Type 0, BuildingBlock: GALJAG_clean_sbu_0, # of connection points: 4
#     Node 107, Type 0, BuildingBlock: GALJAG_clean_sbu_0, # of connection points: 4
#     Node 108, Type 0, BuildingBlock: GALJAG_clean_sbu_0, # of connection points: 4
#     Node 109, Type 0, BuildingBlock: GALJAG_clean_sbu_0, # of connection points: 4
#     Node 110, Type 0, BuildingBlock: GALJAG_clean_sbu_0, # of connection points: 4
#     Node 111, Type 0, BuildingBlock: GALJAG_clean_sbu_0, # of connection points: 4
#     Node 112, Type 0, BuildingBlock: GALJAG_clean_sbu_0, # of connection points: 4
#     Node 113, Type 0, BuildingBlock: GALJAG_clean_sbu_0, # of connection points: 4
#     Node 114, Type 0, BuildingBlock: GALJAG_clean_sbu_0, # of connection points: 4
#     Node 115, Type 0, BuildingBlock: GALJAG_clean_sbu_0, # of connection points: 4
#     Node 116, Type 0, BuildingBlock: GALJAG_clean_sbu_0, # of connection points: 4
#     Node 117, Type 0, BuildingBlock: GALJAG_clean_sbu_0, # of connection points: 4
#     Node 118, Type 0, BuildingBlock: GALJAG_clean_sbu_0, # of connection points: 4
#     Node 119, Type 0, BuildingBlock: GALJAG_clean_sbu_0, # of connection points: 4
#     Node 120, Type 0, BuildingBlock: GALJAG_clean_sbu_0, # of connection points: 4
#     Node 121, Type 0, BuildingBlock: GALJAG_clean_sbu_0, # of connection points: 4
#     Node 122, Type 0, BuildingBlock: GALJAG_clean_sbu_0, # of connection points: 4
#     Node 123, Type 0, BuildingBlock: GALJAG_clean_sbu_0, # of connection points: 4
#     Node 124, Type 0, BuildingBlock: GALJAG_clean_sbu_0, # of connection points: 4
#     Node 125, Type 0, BuildingBlock: GALJAG_clean_sbu_0, # of connection points: 4
#     Node 126, Type 0, BuildingBlock: GALJAG_clean_sbu_0, # of connection points: 4
#     Node 127, Type 0, BuildingBlock: GALJAG_clean_sbu_0, # of connection points: 4
#     Node 128, Type 0, BuildingBlock: GALJAG_clean_sbu_0, # of connection points: 4
#     Node 129, Type 0, BuildingBlock: GALJAG_clean_sbu_0, # of connection points: 4
#     Node 130, Type 0, BuildingBlock: GALJAG_clean_sbu_0, # of connection points: 4
#     Node 131, Type 0, BuildingBlock: GALJAG_clean_sbu_0, # of connection points: 4
#     Node 132, Type 0, BuildingBlock: GALJAG_clean_sbu_0, # of connection points: 4
#     Node 133, Type 0, BuildingBlock: GALJAG_clean_sbu_0, # of connection points: 4
#     Node 134, Type 0, BuildingBlock: GALJAG_clean_sbu_0, # of connection points: 4
#     Node 135, Type 0, BuildingBlock: GALJAG_clean_sbu_0, # of connection points: 4
#     Node 136, Type 0, BuildingBlock: GALJAG_clean_sbu_0, # of connection points: 4
#     Node 137, Type 0, BuildingBlock: GALJAG_clean_sbu_0, # of connection points: 4
#     Node 138, Type 0, BuildingBlock: GALJAG_clean_sbu_0, # of connection points: 4
#     Node 139, Type 0, BuildingBlock: GALJAG_clean_sbu_0, # of connection points: 4
#     Node 140, Type 0, BuildingBlock: GALJAG_clean_sbu_0, # of connection points: 4
#     Node 141, Type 0, BuildingBlock: GALJAG_clean_sbu_0, # of connection points: 4
#     Node 142, Type 0, BuildingBlock: GALJAG_clean_sbu_0, # of connection points: 4
#     Node 143, Type 0, BuildingBlock: GALJAG_clean_sbu_0, # of connection points: 4
#     Node 144, Type 0, BuildingBlock: GALJAG_clean_sbu_0, # of connection points: 4
#     Node 145, Type 0, BuildingBlock: GALJAG_clean_sbu_0, # of connection points: 4
#     Node 146, Type 0, BuildingBlock: GALJAG_clean_sbu_0, # of connection points: 4
#     Node 147, Type 0, BuildingBlock: GALJAG_clean_sbu_0, # of connection points: 4
#     Node 148, Type 0, BuildingBlock: GALJAG_clean_sbu_0, # of connection points: 4
#     Node 149, Type 0, BuildingBlock: GALJAG_clean_sbu_0, # of connection points: 4
#     Node 150, Type 0, BuildingBlock: GALJAG_clean_sbu_0, # of connection points: 4
#     Node 151, Type 0, BuildingBlock: GALJAG_clean_sbu_0, # of connection points: 4
#     Node 152, Type 0, BuildingBlock: GALJAG_clean_sbu_0, # of connection points: 4
#     Node 153, Type 0, BuildingBlock: GALJAG_clean_sbu_0, # of connection points: 4
#     Node 154, Type 0, BuildingBlock: GALJAG_clean_sbu_0, # of connection points: 4
#     Node 155, Type 0, BuildingBlock: GALJAG_clean_sbu_0, # of connection points: 4
#     Node 156, Type 0, BuildingBlock: GALJAG_clean_sbu_0, # of connection points: 4
#     Node 157, Type 0, BuildingBlock: GALJAG_clean_sbu_0, # of connection points: 4
#     Node 158, Type 0, BuildingBlock: GALJAG_clean_sbu_0, # of connection points: 4
#     Node 159, Type 0, BuildingBlock: GALJAG_clean_sbu_0, # of connection points: 4
#     Node 160, Type 0, BuildingBlock: GALJAG_clean_sbu_0, # of connection points: 4
#     Node 161, Type 0, BuildingBlock: GALJAG_clean_sbu_0, # of connection points: 4
#     Node 162, Type 0, BuildingBlock: GALJAG_clean_sbu_0, # of connection points: 4
#     Node 163, Type 0, BuildingBlock: GALJAG_clean_sbu_0, # of connection points: 4
#     Node 164, Type 0, BuildingBlock: GALJAG_clean_sbu_0, # of connection points: 4
#     Node 165, Type 0, BuildingBlock: GALJAG_clean_sbu_0, # of connection points: 4
#     Node 166, Type 0, BuildingBlock: GALJAG_clean_sbu_0, # of connection points: 4
#     Node 167, Type 0, BuildingBlock: GALJAG_clean_sbu_0, # of connection points: 4
#     Node 168, Type 0, BuildingBlock: GALJAG_clean_sbu_0, # of connection points: 4
#     Node 169, Type 0, BuildingBlock: GALJAG_clean_sbu_0, # of connection points: 4
#     Node 170, Type 0, BuildingBlock: GALJAG_clean_sbu_0, # of connection points: 4
#     Node 171, Type 0, BuildingBlock: GALJAG_clean_sbu_0, # of connection points: 4
#     Node 172, Type 0, BuildingBlock: GALJAG_clean_sbu_0, # of connection points: 4
#     Node 173, Type 0, BuildingBlock: GALJAG_clean_sbu_0, # of connection points: 4
#     Node 174, Type 0, BuildingBlock: GALJAG_clean_sbu_0, # of connection points: 4
#     Node 175, Type 0, BuildingBlock: GALJAG_clean_sbu_0, # of connection points: 4
#     Node 176, Type 0, BuildingBlock: GALJAG_clean_sbu_0, # of connection points: 4
#     Node 177, Type 0, BuildingBlock: GALJAG_clean_sbu_0, # of connection points: 4
#     Node 178, Type 0, BuildingBlock: GALJAG_clean_sbu_0, # of connection points: 4
#     Node 179, Type 0, BuildingBlock: GALJAG_clean_sbu_0, # of connection points: 4
#     Node 180, Type 0, BuildingBlock: GALJAG_clean_sbu_0, # of connection points: 4
#     Node 181, Type 0, BuildingBlock: GALJAG_clean_sbu_0, # of connection points: 4
#     Node 182, Type 0, BuildingBlock: GALJAG_clean_sbu_0, # of connection points: 4
#     Node 183, Type 0, BuildingBlock: GALJAG_clean_sbu_0, # of connection points: 4
#     Node 184, Type 0, BuildingBlock: GALJAG_clean_sbu_0, # of connection points: 4
#     Node 185, Type 0, BuildingBlock: GALJAG_clean_sbu_0, # of connection points: 4
#     Node 186, Type 0, BuildingBlock: GALJAG_clean_sbu_0, # of connection points: 4
#     Node 187, Type 0, BuildingBlock: GALJAG_clean_sbu_0, # of connection points: 4
#     Node 188, Type 0, BuildingBlock: GALJAG_clean_sbu_0, # of connection points: 4
#     Node 189, Type 0, BuildingBlock: GALJAG_clean_sbu_0, # of connection points: 4
#     Node 190, Type 0, BuildingBlock: GALJAG_clean_sbu_0, # of connection points: 4
#     Node 191, Type 0, BuildingBlock: GALJAG_clean_sbu_0, # of connection points: 4
#     Edge 192, Type (0, 0), BuildingBlock: OJICUG_clean_linker_0, # of connection points: 2
#     Edge 193, Type (0, 0), BuildingBlock: OJICUG_clean_linker_0, # of connection points: 2
#     Edge 194, Type (0, 0), BuildingBlock: OJICUG_clean_linker_0, # of connection points: 2
#     Edge 195, Type (0, 0), BuildingBlock: OJICUG_clean_linker_0, # of connection points: 2
#     Edge 196, Type (0, 0), BuildingBlock: OJICUG_clean_linker_0, # of connection points: 2
#     Edge 197, Type (0, 0), BuildingBlock: OJICUG_clean_linker_0, # of connection points: 2
#     Edge 198, Type (0, 0), BuildingBlock: OJICUG_clean_linker_0, # of connection points: 2
#     Edge 199, Type (0, 0), BuildingBlock: OJICUG_clean_linker_0, # of connection points: 2
#     Edge 200, Type (0, 0), BuildingBlock: OJICUG_clean_linker_0, # of connection points: 2
#     Edge 201, Type (0, 0), BuildingBlock: OJICUG_clean_linker_0, # of connection points: 2
#     Edge 202, Type (0, 0), BuildingBlock: OJICUG_clean_linker_0, # of connection points: 2
#     Edge 203, Type (0, 0), BuildingBlock: OJICUG_clean_linker_0, # of connection points: 2
#     Edge 204, Type (0, 0), BuildingBlock: OJICUG_clean_linker_0, # of connection points: 2
#     Edge 205, Type (0, 0), BuildingBlock: OJICUG_clean_linker_0, # of connection points: 2
#     Edge 206, Type (0, 0), BuildingBlock: OJICUG_clean_linker_0, # of connection points: 2
#     Edge 207, Type (0, 0), BuildingBlock: OJICUG_clean_linker_0, # of connection points: 2
#     Edge 208, Type (0, 0), BuildingBlock: OJICUG_clean_linker_0, # of connection points: 2
#     Edge 209, Type (0, 0), BuildingBlock: OJICUG_clean_linker_0, # of connection points: 2
#     Edge 210, Type (0, 0), BuildingBlock: OJICUG_clean_linker_0, # of connection points: 2
#     Edge 211, Type (0, 0), BuildingBlock: OJICUG_clean_linker_0, # of connection points: 2
#     Edge 212, Type (0, 0), BuildingBlock: OJICUG_clean_linker_0, # of connection points: 2
#     Edge 213, Type (0, 0), BuildingBlock: OJICUG_clean_linker_0, # of connection points: 2
#     Edge 214, Type (0, 0), BuildingBlock: OJICUG_clean_linker_0, # of connection points: 2
#     Edge 215, Type (0, 0), BuildingBlock: OJICUG_clean_linker_0, # of connection points: 2
#     Edge 216, Type (0, 0), BuildingBlock: OJICUG_clean_linker_0, # of connection points: 2
#     Edge 217, Type (0, 0), BuildingBlock: OJICUG_clean_linker_0, # of connection points: 2
#     Edge 218, Type (0, 0), BuildingBlock: OJICUG_clean_linker_0, # of connection points: 2
#     Edge 219, Type (0, 0), BuildingBlock: OJICUG_clean_linker_0, # of connection points: 2
#     Edge 220, Type (0, 0), BuildingBlock: OJICUG_clean_linker_0, # of connection points: 2
#     Edge 221, Type (0, 0), BuildingBlock: OJICUG_clean_linker_0, # of connection points: 2
#     Edge 222, Type (0, 0), BuildingBlock: OJICUG_clean_linker_0, # of connection points: 2
#     Edge 223, Type (0, 0), BuildingBlock: OJICUG_clean_linker_0, # of connection points: 2
#     Edge 224, Type (0, 0), BuildingBlock: OJICUG_clean_linker_0, # of connection points: 2
#     Edge 225, Type (0, 0), BuildingBlock: OJICUG_clean_linker_0, # of connection points: 2
#     Edge 226, Type (0, 0), BuildingBlock: OJICUG_clean_linker_0, # of connection points: 2
#     Edge 227, Type (0, 0), BuildingBlock: OJICUG_clean_linker_0, # of connection points: 2
#     Edge 228, Type (0, 0), BuildingBlock: OJICUG_clean_linker_0, # of connection points: 2
#     Edge 229, Type (0, 0), BuildingBlock: OJICUG_clean_linker_0, # of connection points: 2
#     Edge 230, Type (0, 0), BuildingBlock: OJICUG_clean_linker_0, # of connection points: 2
#     Edge 231, Type (0, 0), BuildingBlock: OJICUG_clean_linker_0, # of connection points: 2
#     Edge 232, Type (0, 0), BuildingBlock: OJICUG_clean_linker_0, # of connection points: 2
#     Edge 233, Type (0, 0), BuildingBlock: OJICUG_clean_linker_0, # of connection points: 2
#     Edge 234, Type (0, 0), BuildingBlock: OJICUG_clean_linker_0, # of connection points: 2
#     Edge 235, Type (0, 0), BuildingBlock: OJICUG_clean_linker_0, # of connection points: 2
#     Edge 236, Type (0, 0), BuildingBlock: OJICUG_clean_linker_0, # of connection points: 2
#     Edge 237, Type (0, 0), BuildingBlock: OJICUG_clean_linker_0, # of connection points: 2
#     Edge 238, Type (0, 0), BuildingBlock: OJICUG_clean_linker_0, # of connection points: 2
#     Edge 239, Type (0, 0), BuildingBlock: OJICUG_clean_linker_0, # of connection points: 2
#     Edge 240, Type (0, 0), BuildingBlock: OJICUG_clean_linker_0, # of connection points: 2
#     Edge 241, Type (0, 0), BuildingBlock: OJICUG_clean_linker_0, # of connection points: 2
#     Edge 242, Type (0, 0), BuildingBlock: OJICUG_clean_linker_0, # of connection points: 2
#     Edge 243, Type (0, 0), BuildingBlock: OJICUG_clean_linker_0, # of connection points: 2
#     Edge 244, Type (0, 0), BuildingBlock: OJICUG_clean_linker_0, # of connection points: 2
#     Edge 245, Type (0, 0), BuildingBlock: OJICUG_clean_linker_0, # of connection points: 2
#     Edge 246, Type (0, 0), BuildingBlock: OJICUG_clean_linker_0, # of connection points: 2
#     Edge 247, Type (0, 0), BuildingBlock: OJICUG_clean_linker_0, # of connection points: 2
#     Edge 248, Type (0, 0), BuildingBlock: OJICUG_clean_linker_0, # of connection points: 2
#     Edge 249, Type (0, 0), BuildingBlock: OJICUG_clean_linker_0, # of connection points: 2
#     Edge 250, Type (0, 0), BuildingBlock: OJICUG_clean_linker_0, # of connection points: 2
#     Edge 251, Type (0, 0), BuildingBlock: OJICUG_clean_linker_0, # of connection points: 2
#     Edge 252, Type (0, 0), BuildingBlock: OJICUG_clean_linker_0, # of connection points: 2
#     Edge 253, Type (0, 0), BuildingBlock: OJICUG_clean_linker_0, # of connection points: 2
#     Edge 254, Type (0, 0), BuildingBlock: OJICUG_clean_linker_0, # of connection points: 2
#     Edge 255, Type (0, 0), BuildingBlock: OJICUG_clean_linker_0, # of connection points: 2
#     Edge 256, Type (0, 0), BuildingBlock: OJICUG_clean_linker_0, # of connection points: 2
#     Edge 257, Type (0, 0), BuildingBlock: OJICUG_clean_linker_0, # of connection points: 2
#     Edge 258, Type (0, 0), BuildingBlock: OJICUG_clean_linker_0, # of connection points: 2
#     Edge 259, Type (0, 0), BuildingBlock: OJICUG_clean_linker_0, # of connection points: 2
#     Edge 260, Type (0, 0), BuildingBlock: OJICUG_clean_linker_0, # of connection points: 2
#     Edge 261, Type (0, 0), BuildingBlock: OJICUG_clean_linker_0, # of connection points: 2
#     Edge 262, Type (0, 0), BuildingBlock: OJICUG_clean_linker_0, # of connection points: 2
#     Edge 263, Type (0, 0), BuildingBlock: OJICUG_clean_linker_0, # of connection points: 2
#     Edge 264, Type (0, 0), BuildingBlock: OJICUG_clean_linker_0, # of connection points: 2
#     Edge 265, Type (0, 0), BuildingBlock: OJICUG_clean_linker_0, # of connection points: 2
#     Edge 266, Type (0, 0), BuildingBlock: OJICUG_clean_linker_0, # of connection points: 2
#     Edge 267, Type (0, 0), BuildingBlock: OJICUG_clean_linker_0, # of connection points: 2
#     Edge 268, Type (0, 0), BuildingBlock: OJICUG_clean_linker_0, # of connection points: 2
#     Edge 269, Type (0, 0), BuildingBlock: OJICUG_clean_linker_0, # of connection points: 2
#     Edge 270, Type (0, 0), BuildingBlock: OJICUG_clean_linker_0, # of connection points: 2
#     Edge 271, Type (0, 0), BuildingBlock: OJICUG_clean_linker_0, # of connection points: 2
#     Edge 272, Type (0, 0), BuildingBlock: OJICUG_clean_linker_0, # of connection points: 2
#     Edge 273, Type (0, 0), BuildingBlock: OJICUG_clean_linker_0, # of connection points: 2
#     Edge 274, Type (0, 0), BuildingBlock: OJICUG_clean_linker_0, # of connection points: 2
#     Edge 275, Type (0, 0), BuildingBlock: OJICUG_clean_linker_0, # of connection points: 2
#     Edge 276, Type (0, 0), BuildingBlock: OJICUG_clean_linker_0, # of connection points: 2
#     Edge 277, Type (0, 0), BuildingBlock: OJICUG_clean_linker_0, # of connection points: 2
#     Edge 278, Type (0, 0), BuildingBlock: OJICUG_clean_linker_0, # of connection points: 2
#     Edge 279, Type (0, 0), BuildingBlock: OJICUG_clean_linker_0, # of connection points: 2
#     Edge 280, Type (0, 0), BuildingBlock: OJICUG_clean_linker_0, # of connection points: 2
#     Edge 281, Type (0, 0), BuildingBlock: OJICUG_clean_linker_0, # of connection points: 2
#     Edge 282, Type (0, 0), BuildingBlock: OJICUG_clean_linker_0, # of connection points: 2
#     Edge 283, Type (0, 0), BuildingBlock: OJICUG_clean_linker_0, # of connection points: 2
#     Edge 284, Type (0, 0), BuildingBlock: OJICUG_clean_linker_0, # of connection points: 2
#     Edge 285, Type (0, 0), BuildingBlock: OJICUG_clean_linker_0, # of connection points: 2
#     Edge 286, Type (0, 0), BuildingBlock: OJICUG_clean_linker_0, # of connection points: 2
#     Edge 287, Type (0, 0), BuildingBlock: OJICUG_clean_linker_0, # of connection points: 2
#     Edge 288, Type (0, 0), BuildingBlock: OJICUG_clean_linker_0, # of connection points: 2
#     Edge 289, Type (0, 0), BuildingBlock: OJICUG_clean_linker_0, # of connection points: 2
#     Edge 290, Type (0, 0), BuildingBlock: OJICUG_clean_linker_0, # of connection points: 2
#     Edge 291, Type (0, 0), BuildingBlock: OJICUG_clean_linker_0, # of connection points: 2
#     Edge 292, Type (0, 0), BuildingBlock: OJICUG_clean_linker_0, # of connection points: 2
#     Edge 293, Type (0, 0), BuildingBlock: OJICUG_clean_linker_0, # of connection points: 2
#     Edge 294, Type (0, 0), BuildingBlock: OJICUG_clean_linker_0, # of connection points: 2
#     Edge 295, Type (0, 0), BuildingBlock: OJICUG_clean_linker_0, # of connection points: 2
#     Edge 296, Type (0, 0), BuildingBlock: OJICUG_clean_linker_0, # of connection points: 2
#     Edge 297, Type (0, 0), BuildingBlock: OJICUG_clean_linker_0, # of connection points: 2
#     Edge 298, Type (0, 0), BuildingBlock: OJICUG_clean_linker_0, # of connection points: 2
#     Edge 299, Type (0, 0), BuildingBlock: OJICUG_clean_linker_0, # of connection points: 2
#     Edge 300, Type (0, 0), BuildingBlock: OJICUG_clean_linker_0, # of connection points: 2
#     Edge 301, Type (0, 0), BuildingBlock: OJICUG_clean_linker_0, # of connection points: 2
#     Edge 302, Type (0, 0), BuildingBlock: OJICUG_clean_linker_0, # of connection points: 2
#     Edge 303, Type (0, 0), BuildingBlock: OJICUG_clean_linker_0, # of connection points: 2
#     Edge 304, Type (0, 0), BuildingBlock: OJICUG_clean_linker_0, # of connection points: 2
#     Edge 305, Type (0, 0), BuildingBlock: OJICUG_clean_linker_0, # of connection points: 2
#     Edge 306, Type (0, 0), BuildingBlock: OJICUG_clean_linker_0, # of connection points: 2
#     Edge 307, Type (0, 0), BuildingBlock: OJICUG_clean_linker_0, # of connection points: 2
#     Edge 308, Type (0, 0), BuildingBlock: OJICUG_clean_linker_0, # of connection points: 2
#     Edge 309, Type (0, 0), BuildingBlock: OJICUG_clean_linker_0, # of connection points: 2
#     Edge 310, Type (0, 0), BuildingBlock: OJICUG_clean_linker_0, # of connection points: 2
#     Edge 311, Type (0, 0), BuildingBlock: OJICUG_clean_linker_0, # of connection points: 2
#     Edge 312, Type (0, 0), BuildingBlock: OJICUG_clean_linker_0, # of connection points: 2
#     Edge 313, Type (0, 0), BuildingBlock: OJICUG_clean_linker_0, # of connection points: 2
#     Edge 314, Type (0, 0), BuildingBlock: OJICUG_clean_linker_0, # of connection points: 2
#     Edge 315, Type (0, 0), BuildingBlock: OJICUG_clean_linker_0, # of connection points: 2
#     Edge 316, Type (0, 0), BuildingBlock: OJICUG_clean_linker_0, # of connection points: 2
#     Edge 317, Type (0, 0), BuildingBlock: OJICUG_clean_linker_0, # of connection points: 2
#     Edge 318, Type (0, 0), BuildingBlock: OJICUG_clean_linker_0, # of connection points: 2
#     Edge 319, Type (0, 0), BuildingBlock: OJICUG_clean_linker_0, # of connection points: 2
#     Edge 320, Type (0, 0), BuildingBlock: OJICUG_clean_linker_0, # of connection points: 2
#     Edge 321, Type (0, 0), BuildingBlock: OJICUG_clean_linker_0, # of connection points: 2
#     Edge 322, Type (0, 0), BuildingBlock: OJICUG_clean_linker_0, # of connection points: 2
#     Edge 323, Type (0, 0), BuildingBlock: OJICUG_clean_linker_0, # of connection points: 2
#     Edge 324, Type (0, 0), BuildingBlock: OJICUG_clean_linker_0, # of connection points: 2
#     Edge 325, Type (0, 0), BuildingBlock: OJICUG_clean_linker_0, # of connection points: 2
#     Edge 326, Type (0, 0), BuildingBlock: OJICUG_clean_linker_0, # of connection points: 2
#     Edge 327, Type (0, 0), BuildingBlock: OJICUG_clean_linker_0, # of connection points: 2
#     Edge 328, Type (0, 0), BuildingBlock: OJICUG_clean_linker_0, # of connection points: 2
#     Edge 329, Type (0, 0), BuildingBlock: OJICUG_clean_linker_0, # of connection points: 2
#     Edge 330, Type (0, 0), BuildingBlock: OJICUG_clean_linker_0, # of connection points: 2
#     Edge 331, Type (0, 0), BuildingBlock: OJICUG_clean_linker_0, # of connection points: 2
#     Edge 332, Type (0, 0), BuildingBlock: OJICUG_clean_linker_0, # of connection points: 2
#     Edge 333, Type (0, 0), BuildingBlock: OJICUG_clean_linker_0, # of connection points: 2
#     Edge 334, Type (0, 0), BuildingBlock: OJICUG_clean_linker_0, # of connection points: 2
#     Edge 335, Type (0, 0), BuildingBlock: OJICUG_clean_linker_0, # of connection points: 2
#     Edge 336, Type (0, 0), BuildingBlock: OJICUG_clean_linker_0, # of connection points: 2
#     Edge 337, Type (0, 0), BuildingBlock: OJICUG_clean_linker_0, # of connection points: 2
#     Edge 338, Type (0, 0), BuildingBlock: OJICUG_clean_linker_0, # of connection points: 2
#     Edge 339, Type (0, 0), BuildingBlock: OJICUG_clean_linker_0, # of connection points: 2
#     Edge 340, Type (0, 0), BuildingBlock: OJICUG_clean_linker_0, # of connection points: 2
#     Edge 341, Type (0, 0), BuildingBlock: OJICUG_clean_linker_0, # of connection points: 2
#     Edge 342, Type (0, 0), BuildingBlock: OJICUG_clean_linker_0, # of connection points: 2
#     Edge 343, Type (0, 0), BuildingBlock: OJICUG_clean_linker_0, # of connection points: 2
#     Edge 344, Type (0, 0), BuildingBlock: OJICUG_clean_linker_0, # of connection points: 2
#     Edge 345, Type (0, 0), BuildingBlock: OJICUG_clean_linker_0, # of connection points: 2
#     Edge 346, Type (0, 0), BuildingBlock: OJICUG_clean_linker_0, # of connection points: 2
#     Edge 347, Type (0, 0), BuildingBlock: OJICUG_clean_linker_0, # of connection points: 2
#     Edge 348, Type (0, 0), BuildingBlock: OJICUG_clean_linker_0, # of connection points: 2
#     Edge 349, Type (0, 0), BuildingBlock: OJICUG_clean_linker_0, # of connection points: 2
#     Edge 350, Type (0, 0), BuildingBlock: OJICUG_clean_linker_0, # of connection points: 2
#     Edge 351, Type (0, 0), BuildingBlock: OJICUG_clean_linker_0, # of connection points: 2
#     Edge 352, Type (0, 0), BuildingBlock: OJICUG_clean_linker_0, # of connection points: 2
#     Edge 353, Type (0, 0), BuildingBlock: OJICUG_clean_linker_0, # of connection points: 2
#     Edge 354, Type (0, 0), BuildingBlock: OJICUG_clean_linker_0, # of connection points: 2
#     Edge 355, Type (0, 0), BuildingBlock: OJICUG_clean_linker_0, # of connection points: 2
#     Edge 356, Type (0, 0), BuildingBlock: OJICUG_clean_linker_0, # of connection points: 2
#     Edge 357, Type (0, 0), BuildingBlock: OJICUG_clean_linker_0, # of connection points: 2
#     Edge 358, Type (0, 0), BuildingBlock: OJICUG_clean_linker_0, # of connection points: 2
#     Edge 359, Type (0, 0), BuildingBlock: OJICUG_clean_linker_0, # of connection points: 2
#     Edge 360, Type (0, 0), BuildingBlock: OJICUG_clean_linker_0, # of connection points: 2
#     Edge 361, Type (0, 0), BuildingBlock: OJICUG_clean_linker_0, # of connection points: 2
#     Edge 362, Type (0, 0), BuildingBlock: OJICUG_clean_linker_0, # of connection points: 2
#     Edge 363, Type (0, 0), BuildingBlock: OJICUG_clean_linker_0, # of connection points: 2
#     Edge 364, Type (0, 0), BuildingBlock: OJICUG_clean_linker_0, # of connection points: 2
#     Edge 365, Type (0, 0), BuildingBlock: OJICUG_clean_linker_0, # of connection points: 2
#     Edge 366, Type (0, 0), BuildingBlock: OJICUG_clean_linker_0, # of connection points: 2
#     Edge 367, Type (0, 0), BuildingBlock: OJICUG_clean_linker_0, # of connection points: 2
#     Edge 368, Type (0, 0), BuildingBlock: OJICUG_clean_linker_0, # of connection points: 2
#     Edge 369, Type (0, 0), BuildingBlock: OJICUG_clean_linker_0, # of connection points: 2
#     Edge 370, Type (0, 0), BuildingBlock: OJICUG_clean_linker_0, # of connection points: 2
#     Edge 371, Type (0, 0), BuildingBlock: OJICUG_clean_linker_0, # of connection points: 2
#     Edge 372, Type (0, 0), BuildingBlock: OJICUG_clean_linker_0, # of connection points: 2
#     Edge 373, Type (0, 0), BuildingBlock: OJICUG_clean_linker_0, # of connection points: 2
#     Edge 374, Type (0, 0), BuildingBlock: OJICUG_clean_linker_0, # of connection points: 2
#     Edge 375, Type (0, 0), BuildingBlock: OJICUG_clean_linker_0, # of connection points: 2
#     Edge 376, Type (0, 0), BuildingBlock: OJICUG_clean_linker_0, # of connection points: 2
#     Edge 377, Type (0, 0), BuildingBlock: OJICUG_clean_linker_0, # of connection points: 2
#     Edge 378, Type (0, 0), BuildingBlock: OJICUG_clean_linker_0, # of connection points: 2
#     Edge 379, Type (0, 0), BuildingBlock: OJICUG_clean_linker_0, # of connection points: 2
#     Edge 380, Type (0, 0), BuildingBlock: OJICUG_clean_linker_0, # of connection points: 2
#     Edge 381, Type (0, 0), BuildingBlock: OJICUG_clean_linker_0, # of connection points: 2
#     Edge 382, Type (0, 0), BuildingBlock: OJICUG_clean_linker_0, # of connection points: 2
#     Edge 383, Type (0, 0), BuildingBlock: OJICUG_clean_linker_0, # of connection points: 2
#     Edge 384, Type (0, 0), BuildingBlock: OJICUG_clean_linker_0, # of connection points: 2
#     Edge 385, Type (0, 0), BuildingBlock: OJICUG_clean_linker_0, # of connection points: 2
#     Edge 386, Type (0, 0), BuildingBlock: OJICUG_clean_linker_0, # of connection points: 2
#     Edge 387, Type (0, 0), BuildingBlock: OJICUG_clean_linker_0, # of connection points: 2
#     Edge 388, Type (0, 0), BuildingBlock: OJICUG_clean_linker_0, # of connection points: 2
#     Edge 389, Type (0, 0), BuildingBlock: OJICUG_clean_linker_0, # of connection points: 2
#     Edge 390, Type (0, 0), BuildingBlock: OJICUG_clean_linker_0, # of connection points: 2
#     Edge 391, Type (0, 0), BuildingBlock: OJICUG_clean_linker_0, # of connection points: 2
#     Edge 392, Type (0, 0), BuildingBlock: OJICUG_clean_linker_0, # of connection points: 2
#     Edge 393, Type (0, 0), BuildingBlock: OJICUG_clean_linker_0, # of connection points: 2
#     Edge 394, Type (0, 0), BuildingBlock: OJICUG_clean_linker_0, # of connection points: 2
#     Edge 395, Type (0, 0), BuildingBlock: OJICUG_clean_linker_0, # of connection points: 2
#     Edge 396, Type (0, 0), BuildingBlock: OJICUG_clean_linker_0, # of connection points: 2
#     Edge 397, Type (0, 0), BuildingBlock: OJICUG_clean_linker_0, # of connection points: 2
#     Edge 398, Type (0, 0), BuildingBlock: OJICUG_clean_linker_0, # of connection points: 2
#     Edge 399, Type (0, 0), BuildingBlock: OJICUG_clean_linker_0, # of connection points: 2
#     Edge 400, Type (0, 0), BuildingBlock: OJICUG_clean_linker_0, # of connection points: 2
#     Edge 401, Type (0, 0), BuildingBlock: OJICUG_clean_linker_0, # of connection points: 2
#     Edge 402, Type (0, 0), BuildingBlock: OJICUG_clean_linker_0, # of connection points: 2
#     Edge 403, Type (0, 0), BuildingBlock: OJICUG_clean_linker_0, # of connection points: 2
#     Edge 404, Type (0, 0), BuildingBlock: OJICUG_clean_linker_0, # of connection points: 2
#     Edge 405, Type (0, 0), BuildingBlock: OJICUG_clean_linker_0, # of connection points: 2
#     Edge 406, Type (0, 0), BuildingBlock: OJICUG_clean_linker_0, # of connection points: 2
#     Edge 407, Type (0, 0), BuildingBlock: OJICUG_clean_linker_0, # of connection points: 2
#     Edge 408, Type (0, 0), BuildingBlock: OJICUG_clean_linker_0, # of connection points: 2
#     Edge 409, Type (0, 0), BuildingBlock: OJICUG_clean_linker_0, # of connection points: 2
#     Edge 410, Type (0, 0), BuildingBlock: OJICUG_clean_linker_0, # of connection points: 2
#     Edge 411, Type (0, 0), BuildingBlock: OJICUG_clean_linker_0, # of connection points: 2
#     Edge 412, Type (0, 0), BuildingBlock: OJICUG_clean_linker_0, # of connection points: 2
#     Edge 413, Type (0, 0), BuildingBlock: OJICUG_clean_linker_0, # of connection points: 2
#     Edge 414, Type (0, 0), BuildingBlock: OJICUG_clean_linker_0, # of connection points: 2
#     Edge 415, Type (0, 0), BuildingBlock: OJICUG_clean_linker_0, # of connection points: 2
#     Edge 416, Type (0, 0), BuildingBlock: OJICUG_clean_linker_0, # of connection points: 2
#     Edge 417, Type (0, 0), BuildingBlock: OJICUG_clean_linker_0, # of connection points: 2
#     Edge 418, Type (0, 0), BuildingBlock: OJICUG_clean_linker_0, # of connection points: 2
#     Edge 419, Type (0, 0), BuildingBlock: OJICUG_clean_linker_0, # of connection points: 2
#     Edge 420, Type (0, 0), BuildingBlock: OJICUG_clean_linker_0, # of connection points: 2
#     Edge 421, Type (0, 0), BuildingBlock: OJICUG_clean_linker_0, # of connection points: 2
#     Edge 422, Type (0, 0), BuildingBlock: OJICUG_clean_linker_0, # of connection points: 2
#     Edge 423, Type (0, 0), BuildingBlock: OJICUG_clean_linker_0, # of connection points: 2
#     Edge 424, Type (0, 0), BuildingBlock: OJICUG_clean_linker_0, # of connection points: 2
#     Edge 425, Type (0, 0), BuildingBlock: OJICUG_clean_linker_0, # of connection points: 2
#     Edge 426, Type (0, 0), BuildingBlock: OJICUG_clean_linker_0, # of connection points: 2
#     Edge 427, Type (0, 0), BuildingBlock: OJICUG_clean_linker_0, # of connection points: 2
#     Edge 428, Type (0, 0), BuildingBlock: OJICUG_clean_linker_0, # of connection points: 2
#     Edge 429, Type (0, 0), BuildingBlock: OJICUG_clean_linker_0, # of connection points: 2
#     Edge 430, Type (0, 0), BuildingBlock: OJICUG_clean_linker_0, # of connection points: 2
#     Edge 431, Type (0, 0), BuildingBlock: OJICUG_clean_linker_0, # of connection points: 2
#     Edge 432, Type (0, 0), BuildingBlock: OJICUG_clean_linker_0, # of connection points: 2
#     Edge 433, Type (0, 0), BuildingBlock: OJICUG_clean_linker_0, # of connection points: 2
#     Edge 434, Type (0, 0), BuildingBlock: OJICUG_clean_linker_0, # of connection points: 2
#     Edge 435, Type (0, 0), BuildingBlock: OJICUG_clean_linker_0, # of connection points: 2
#     Edge 436, Type (0, 0), BuildingBlock: OJICUG_clean_linker_0, # of connection points: 2
#     Edge 437, Type (0, 0), BuildingBlock: OJICUG_clean_linker_0, # of connection points: 2
#     Edge 438, Type (0, 0), BuildingBlock: OJICUG_clean_linker_0, # of connection points: 2
#     Edge 439, Type (0, 0), BuildingBlock: OJICUG_clean_linker_0, # of connection points: 2
#     Edge 440, Type (0, 0), BuildingBlock: OJICUG_clean_linker_0, # of connection points: 2
#     Edge 441, Type (0, 0), BuildingBlock: OJICUG_clean_linker_0, # of connection points: 2
#     Edge 442, Type (0, 0), BuildingBlock: OJICUG_clean_linker_0, # of connection points: 2
#     Edge 443, Type (0, 0), BuildingBlock: OJICUG_clean_linker_0, # of connection points: 2
#     Edge 444, Type (0, 0), BuildingBlock: OJICUG_clean_linker_0, # of connection points: 2
#     Edge 445, Type (0, 0), BuildingBlock: OJICUG_clean_linker_0, # of connection points: 2
#     Edge 446, Type (0, 0), BuildingBlock: OJICUG_clean_linker_0, # of connection points: 2
#     Edge 447, Type (0, 0), BuildingBlock: OJICUG_clean_linker_0, # of connection points: 2
#     Edge 448, Type (0, 0), BuildingBlock: OJICUG_clean_linker_0, # of connection points: 2
#     Edge 449, Type (0, 0), BuildingBlock: OJICUG_clean_linker_0, # of connection points: 2
#     Edge 450, Type (0, 0), BuildingBlock: OJICUG_clean_linker_0, # of connection points: 2
#     Edge 451, Type (0, 0), BuildingBlock: OJICUG_clean_linker_0, # of connection points: 2
#     Edge 452, Type (0, 0), BuildingBlock: OJICUG_clean_linker_0, # of connection points: 2
#     Edge 453, Type (0, 0), BuildingBlock: OJICUG_clean_linker_0, # of connection points: 2
#     Edge 454, Type (0, 0), BuildingBlock: OJICUG_clean_linker_0, # of connection points: 2
#     Edge 455, Type (0, 0), BuildingBlock: OJICUG_clean_linker_0, # of connection points: 2
#     Edge 456, Type (0, 0), BuildingBlock: OJICUG_clean_linker_0, # of connection points: 2
#     Edge 457, Type (0, 0), BuildingBlock: OJICUG_clean_linker_0, # of connection points: 2
#     Edge 458, Type (0, 0), BuildingBlock: OJICUG_clean_linker_0, # of connection points: 2
#     Edge 459, Type (0, 0), BuildingBlock: OJICUG_clean_linker_0, # of connection points: 2
#     Edge 460, Type (0, 0), BuildingBlock: OJICUG_clean_linker_0, # of connection points: 2
#     Edge 461, Type (0, 0), BuildingBlock: OJICUG_clean_linker_0, # of connection points: 2
#     Edge 462, Type (0, 0), BuildingBlock: OJICUG_clean_linker_0, # of connection points: 2
#     Edge 463, Type (0, 0), BuildingBlock: OJICUG_clean_linker_0, # of connection points: 2
#     Edge 464, Type (0, 0), BuildingBlock: OJICUG_clean_linker_0, # of connection points: 2
#     Edge 465, Type (0, 0), BuildingBlock: OJICUG_clean_linker_0, # of connection points: 2
#     Edge 466, Type (0, 0), BuildingBlock: OJICUG_clean_linker_0, # of connection points: 2
#     Edge 467, Type (0, 0), BuildingBlock: OJICUG_clean_linker_0, # of connection points: 2
#     Edge 468, Type (0, 0), BuildingBlock: OJICUG_clean_linker_0, # of connection points: 2
#     Edge 469, Type (0, 0), BuildingBlock: OJICUG_clean_linker_0, # of connection points: 2
#     Edge 470, Type (0, 0), BuildingBlock: OJICUG_clean_linker_0, # of connection points: 2
#     Edge 471, Type (0, 0), BuildingBlock: OJICUG_clean_linker_0, # of connection points: 2
#     Edge 472, Type (0, 0), BuildingBlock: OJICUG_clean_linker_0, # of connection points: 2
#     Edge 473, Type (0, 0), BuildingBlock: OJICUG_clean_linker_0, # of connection points: 2
#     Edge 474, Type (0, 0), BuildingBlock: OJICUG_clean_linker_0, # of connection points: 2
#     Edge 475, Type (0, 0), BuildingBlock: OJICUG_clean_linker_0, # of connection points: 2
#     Edge 476, Type (0, 0), BuildingBlock: OJICUG_clean_linker_0, # of connection points: 2
#     Edge 477, Type (0, 0), BuildingBlock: OJICUG_clean_linker_0, # of connection points: 2
#     Edge 478, Type (0, 0), BuildingBlock: OJICUG_clean_linker_0, # of connection points: 2
#     Edge 479, Type (0, 0), BuildingBlock: OJICUG_clean_linker_0, # of connection points: 2
#     Edge 480, Type (0, 0), BuildingBlock: OJICUG_clean_linker_0, # of connection points: 2
#     Edge 481, Type (0, 0), BuildingBlock: OJICUG_clean_linker_0, # of connection points: 2
#     Edge 482, Type (0, 0), BuildingBlock: OJICUG_clean_linker_0, # of connection points: 2
#     Edge 483, Type (0, 0), BuildingBlock: OJICUG_clean_linker_0, # of connection points: 2
#     Edge 484, Type (0, 0), BuildingBlock: OJICUG_clean_linker_0, # of connection points: 2
#     Edge 485, Type (0, 0), BuildingBlock: OJICUG_clean_linker_0, # of connection points: 2
#     Edge 486, Type (0, 0), BuildingBlock: OJICUG_clean_linker_0, # of connection points: 2
#     Edge 487, Type (0, 0), BuildingBlock: OJICUG_clean_linker_0, # of connection points: 2
#     Edge 488, Type (0, 0), BuildingBlock: OJICUG_clean_linker_0, # of connection points: 2
#     Edge 489, Type (0, 0), BuildingBlock: OJICUG_clean_linker_0, # of connection points: 2
#     Edge 490, Type (0, 0), BuildingBlock: OJICUG_clean_linker_0, # of connection points: 2
#     Edge 491, Type (0, 0), BuildingBlock: OJICUG_clean_linker_0, # of connection points: 2
#     Edge 492, Type (0, 0), BuildingBlock: OJICUG_clean_linker_0, # of connection points: 2
#     Edge 493, Type (0, 0), BuildingBlock: OJICUG_clean_linker_0, # of connection points: 2
#     Edge 494, Type (0, 0), BuildingBlock: OJICUG_clean_linker_0, # of connection points: 2
#     Edge 495, Type (0, 0), BuildingBlock: OJICUG_clean_linker_0, # of connection points: 2
#     Edge 496, Type (0, 0), BuildingBlock: OJICUG_clean_linker_0, # of connection points: 2
#     Edge 497, Type (0, 0), BuildingBlock: OJICUG_clean_linker_0, # of connection points: 2
#     Edge 498, Type (0, 0), BuildingBlock: OJICUG_clean_linker_0, # of connection points: 2
#     Edge 499, Type (0, 0), BuildingBlock: OJICUG_clean_linker_0, # of connection points: 2
#     Edge 500, Type (0, 0), BuildingBlock: OJICUG_clean_linker_0, # of connection points: 2
#     Edge 501, Type (0, 0), BuildingBlock: OJICUG_clean_linker_0, # of connection points: 2
#     Edge 502, Type (0, 0), BuildingBlock: OJICUG_clean_linker_0, # of connection points: 2
#     Edge 503, Type (0, 0), BuildingBlock: OJICUG_clean_linker_0, # of connection points: 2
#     Edge 504, Type (0, 0), BuildingBlock: OJICUG_clean_linker_0, # of connection points: 2
#     Edge 505, Type (0, 0), BuildingBlock: OJICUG_clean_linker_0, # of connection points: 2
#     Edge 506, Type (0, 0), BuildingBlock: OJICUG_clean_linker_0, # of connection points: 2
#     Edge 507, Type (0, 0), BuildingBlock: OJICUG_clean_linker_0, # of connection points: 2
#     Edge 508, Type (0, 0), BuildingBlock: OJICUG_clean_linker_0, # of connection points: 2
#     Edge 509, Type (0, 0), BuildingBlock: OJICUG_clean_linker_0, # of connection points: 2
#     Edge 510, Type (0, 0), BuildingBlock: OJICUG_clean_linker_0, # of connection points: 2
#     Edge 511, Type (0, 0), BuildingBlock: OJICUG_clean_linker_0, # of connection points: 2
#     Edge 512, Type (0, 0), BuildingBlock: OJICUG_clean_linker_0, # of connection points: 2
#     Edge 513, Type (0, 0), BuildingBlock: OJICUG_clean_linker_0, # of connection points: 2
#     Edge 514, Type (0, 0), BuildingBlock: OJICUG_clean_linker_0, # of connection points: 2
#     Edge 515, Type (0, 0), BuildingBlock: OJICUG_clean_linker_0, # of connection points: 2
#     Edge 516, Type (0, 0), BuildingBlock: OJICUG_clean_linker_0, # of connection points: 2
#     Edge 517, Type (0, 0), BuildingBlock: OJICUG_clean_linker_0, # of connection points: 2
#     Edge 518, Type (0, 0), BuildingBlock: OJICUG_clean_linker_0, # of connection points: 2
#     Edge 519, Type (0, 0), BuildingBlock: OJICUG_clean_linker_0, # of connection points: 2
#     Edge 520, Type (0, 0), BuildingBlock: OJICUG_clean_linker_0, # of connection points: 2
#     Edge 521, Type (0, 0), BuildingBlock: OJICUG_clean_linker_0, # of connection points: 2
#     Edge 522, Type (0, 0), BuildingBlock: OJICUG_clean_linker_0, # of connection points: 2
#     Edge 523, Type (0, 0), BuildingBlock: OJICUG_clean_linker_0, # of connection points: 2
#     Edge 524, Type (0, 0), BuildingBlock: OJICUG_clean_linker_0, # of connection points: 2
#     Edge 525, Type (0, 0), BuildingBlock: OJICUG_clean_linker_0, # of connection points: 2
#     Edge 526, Type (0, 0), BuildingBlock: OJICUG_clean_linker_0, # of connection points: 2
#     Edge 527, Type (0, 0), BuildingBlock: OJICUG_clean_linker_0, # of connection points: 2
#     Edge 528, Type (0, 0), BuildingBlock: OJICUG_clean_linker_0, # of connection points: 2
#     Edge 529, Type (0, 0), BuildingBlock: OJICUG_clean_linker_0, # of connection points: 2
#     Edge 530, Type (0, 0), BuildingBlock: OJICUG_clean_linker_0, # of connection points: 2
#     Edge 531, Type (0, 0), BuildingBlock: OJICUG_clean_linker_0, # of connection points: 2
#     Edge 532, Type (0, 0), BuildingBlock: OJICUG_clean_linker_0, # of connection points: 2
#     Edge 533, Type (0, 0), BuildingBlock: OJICUG_clean_linker_0, # of connection points: 2
#     Edge 534, Type (0, 0), BuildingBlock: OJICUG_clean_linker_0, # of connection points: 2
#     Edge 535, Type (0, 0), BuildingBlock: OJICUG_clean_linker_0, # of connection points: 2
#     Edge 536, Type (0, 0), BuildingBlock: OJICUG_clean_linker_0, # of connection points: 2
#     Edge 537, Type (0, 0), BuildingBlock: OJICUG_clean_linker_0, # of connection points: 2
#     Edge 538, Type (0, 0), BuildingBlock: OJICUG_clean_linker_0, # of connection points: 2
#     Edge 539, Type (0, 0), BuildingBlock: OJICUG_clean_linker_0, # of connection points: 2
#     Edge 540, Type (0, 0), BuildingBlock: OJICUG_clean_linker_0, # of connection points: 2
#     Edge 541, Type (0, 0), BuildingBlock: OJICUG_clean_linker_0, # of connection points: 2
#     Edge 542, Type (0, 0), BuildingBlock: OJICUG_clean_linker_0, # of connection points: 2
#     Edge 543, Type (0, 0), BuildingBlock: OJICUG_clean_linker_0, # of connection points: 2
#     Edge 544, Type (0, 0), BuildingBlock: OJICUG_clean_linker_0, # of connection points: 2
#     Edge 545, Type (0, 0), BuildingBlock: OJICUG_clean_linker_0, # of connection points: 2
#     Edge 546, Type (0, 0), BuildingBlock: OJICUG_clean_linker_0, # of connection points: 2
#     Edge 547, Type (0, 0), BuildingBlock: OJICUG_clean_linker_0, # of connection points: 2
#     Edge 548, Type (0, 0), BuildingBlock: OJICUG_clean_linker_0, # of connection points: 2
#     Edge 549, Type (0, 0), BuildingBlock: OJICUG_clean_linker_0, # of connection points: 2
#     Edge 550, Type (0, 0), BuildingBlock: OJICUG_clean_linker_0, # of connection points: 2
#     Edge 551, Type (0, 0), BuildingBlock: OJICUG_clean_linker_0, # of connection points: 2
#     Edge 552, Type (0, 0), BuildingBlock: OJICUG_clean_linker_0, # of connection points: 2
#     Edge 553, Type (0, 0), BuildingBlock: OJICUG_clean_linker_0, # of connection points: 2
#     Edge 554, Type (0, 0), BuildingBlock: OJICUG_clean_linker_0, # of connection points: 2
#     Edge 555, Type (0, 0), BuildingBlock: OJICUG_clean_linker_0, # of connection points: 2
#     Edge 556, Type (0, 0), BuildingBlock: OJICUG_clean_linker_0, # of connection points: 2
#     Edge 557, Type (0, 0), BuildingBlock: OJICUG_clean_linker_0, # of connection points: 2
#     Edge 558, Type (0, 0), BuildingBlock: OJICUG_clean_linker_0, # of connection points: 2
#     Edge 559, Type (0, 0), BuildingBlock: OJICUG_clean_linker_0, # of connection points: 2
#     Edge 560, Type (0, 0), BuildingBlock: OJICUG_clean_linker_0, # of connection points: 2
#     Edge 561, Type (0, 0), BuildingBlock: OJICUG_clean_linker_0, # of connection points: 2
#     Edge 562, Type (0, 0), BuildingBlock: OJICUG_clean_linker_0, # of connection points: 2
#     Edge 563, Type (0, 0), BuildingBlock: OJICUG_clean_linker_0, # of connection points: 2
#     Edge 564, Type (0, 0), BuildingBlock: OJICUG_clean_linker_0, # of connection points: 2
#     Edge 565, Type (0, 0), BuildingBlock: OJICUG_clean_linker_0, # of connection points: 2
#     Edge 566, Type (0, 0), BuildingBlock: OJICUG_clean_linker_0, # of connection points: 2
#     Edge 567, Type (0, 0), BuildingBlock: OJICUG_clean_linker_0, # of connection points: 2
#     Edge 568, Type (0, 0), BuildingBlock: OJICUG_clean_linker_0, # of connection points: 2
#     Edge 569, Type (0, 0), BuildingBlock: OJICUG_clean_linker_0, # of connection points: 2
#     Edge 570, Type (0, 0), BuildingBlock: OJICUG_clean_linker_0, # of connection points: 2
#     Edge 571, Type (0, 0), BuildingBlock: OJICUG_clean_linker_0, # of connection points: 2
#     Edge 572, Type (0, 0), BuildingBlock: OJICUG_clean_linker_0, # of connection points: 2
#     Edge 573, Type (0, 0), BuildingBlock: OJICUG_clean_linker_0, # of connection points: 2
#     Edge 574, Type (0, 0), BuildingBlock: OJICUG_clean_linker_0, # of connection points: 2
#     Edge 575, Type (0, 0), BuildingBlock: OJICUG_clean_linker_0, # of connection points: 2
# Relax obj value: 0.083
# Max RMSD: 0.055
# Mean RMSD: 0.055
data_MOF--net-fau--node1-GALJAG_clean_sbu_0--edge1-OJICUG_clean_linker_0
_symmetry_space_group_name_H-M    P1
_symmetry_Int_Tables_number       1
_symmetry_cell_setting            triclinic
loop_
_symmetry_equiv_pos_as_xyz
'x, y, z'
_cell_length_a     87.654979
_cell_length_b     87.655786
_cell_length_c     87.660114
_cell_angle_alpha  90.013105
_cell_angle_beta   89.992603
_cell_angle_gamma 89.999029
loop_
_atom_site_label
_atom_site_type_symbol
_atom_site_fract_x
_atom_site_fract_y
_atom_site_fract_z
_atom_type_partial_charge
In0 In 0.03581 0.1251 0.44538 0.0
O1 O 0.02139 0.12282 0.42345 0.0
O2 O 0.02373 0.10366 0.43814 0.0
C3 C 0.04913 0.15274 0.44266 0.0
C4 C 0.01538 0.12886 0.46799 0.0
C5 C 0.06072 0.10705 0.44728 0.0
O6 O 0.04493 0.14519 0.43112 0.0
O7 O 0.04619 0.14654 0.45527 0.0
O8 O 0.05188 0.10927 0.45842 0.0
O9 O 0.05712 0.1141 0.43528 0.0
C10 C 0.01808 0.10901 0.42606 0.0
O11 O 0.02773 0.12163 0.4697 0.0
O12 O 0.01339 0.13445 0.45484 0.0
In13 In 0.87034 0.28577 0.69373 0.0
O14 O 0.87955 0.27648 0.71622 0.0
O15 O 0.86082 0.26492 0.70601 0.0
C16 C 0.89035 0.30885 0.69738 0.0
C17 C 0.88086 0.26926 0.66966 0.0
C18 C 0.84315 0.30036 0.69382 0.0
O19 O 0.89099 0.29676 0.70522 0.0
O20 O 0.87959 0.30927 0.6878 0.0
O21 O 0.84908 0.29539 0.68169 0.0
O22 O 0.85072 0.29762 0.7057 0.0
C23 C 0.87011 0.26562 0.71698 0.0
O24 O 0.8702 0.26467 0.67811 0.0
O25 O 0.88586 0.28226 0.67304 0.0
In26 In 0.71226 0.12598 0.94696 0.0
O27 O 0.72079 0.12876 0.97121 0.0
O28 O 0.73502 0.1167 0.95565 0.0
C29 C 0.68795 0.1447 0.9496 0.0
C30 C 0.72926 0.14175 0.92669 0.0
C31 C 0.69811 0.09868 0.94501 0.0
O32 O 0.69803 0.14362 0.95982 0.0
O33 O 0.69001 0.13614 0.9382 0.0
O34 O 0.70249 0.10579 0.93325 0.0
O35 O 0.70128 0.10514 0.95745 0.0
C36 C 0.73322 0.12182 0.96901 0.0
O37 O 0.72654 0.1277 0.9248 0.0
O38 O 0.72337 0.14746 0.93848 0.0
In39 In 0.87816 0.96352 0.19306 0.0
O40 O 0.87719 0.98536 0.17865 0.0
O41 O 0.86361 0.96677 0.17159 0.0
C42 C 0.9055 0.94926 0.19247 0.0
C43 C 0.87897 0.98315 0.21671 0.0
C44 C 0.85794 0.94064 0.19694 0.0
O45 O 0.89933 0.95434 0.18051 0.0
O46 O 0.89806 0.9517 0.20451 0.0
O47 O 0.85698 0.95309 0.20415 0.0
O48 O 0.86911 0.93975 0.18789 0.0
C49 C 0.86752 0.98037 0.1693 0.0
O50 O 0.86942 0.97237 0.21591 0.0
O51 O 0.8881 0.98398 0.20559 0.0
In52 In 0.03625 0.12301 0.80183 0.0
O53 O 0.02218 0.12504 0.82397 0.0
O54 O 0.0231 0.14393 0.80877 0.0
C55 C 0.04968 0.09541 0.80437 0.0
C56 C 0.01606 0.11923 0.779 0.0
C57 C 0.0609 0.14151 0.80068 0.0
O58 O 0.04499 0.10265 0.81592 0.0
O59 O 0.04719 0.10192 0.79181 0.0
O60 O 0.05238 0.13923 0.78932 0.0
O61 O 0.05712 0.1343 0.81253 0.0
C62 C 0.01804 0.13857 0.82111 0.0
O63 O 0.0284 0.12652 0.77743 0.0
O64 O 0.01399 0.11355 0.7921 0.0
In65 In 0.8774 0.28565 0.05393 0.0
O66 O 0.87507 0.27146 0.07601 0.0
O67 O 0.85623 0.27289 0.06081 0.0
C68 C 0.90486 0.29933 0.05691 0.0
C69 C 0.88168 0.26535 0.03132 0.0
C70 C 0.85886 0.31016 0.05153 0.0
O71 O 0.89712 0.29531 0.06838 0.0
O72 O 0.89893 0.29605 0.04425 0.0
O73 O 0.86158 0.30137 0.04047 0.0
O74 O 0.86567 0.30673 0.06372 0.0
C75 C 0.86146 0.26763 0.07311 0.0
O76 O 0.87436 0.27763 0.02957 0.0
O77 O 0.88711 0.26334 0.04453 0.0
In78 In 0.71264 0.12567 0.30201 0.0
O79 O 0.72045 0.12235 0.27756 0.0
O80 O 0.73532 0.13438 0.29255 0.0
C81 C 0.68765 0.10772 0.30021 0.0
C82 C 0.73007 0.10958 0.32159 0.0
C83 C 0.69964 0.15346 0.30485 0.0
O84 O 0.69664 0.10961 0.28914 0.0
O85 O 0.69112 0.11508 0.31207 0.0
O86 O 0.70379 0.14581 0.31633 0.0
O87 O 0.70247 0.14727 0.2922 0.0
C88 C 0.73307 0.12909 0.27932 0.0
O89 O 0.72701 0.12349 0.32395 0.0
O90 O 0.72437 0.10412 0.30958 0.0
In91 In 0.87282 0.96301 0.55295 0.0
O92 O 0.87612 0.97106 0.52863 0.0
O93 O 0.86295 0.98518 0.5434 0.0
C94 C 0.89167 0.93866 0.55122 0.0
C95 C 0.88822 0.98134 0.57229 0.0
C96 C 0.84539 0.94917 0.5553 0.0
O97 O 0.88923 0.9474 0.54006 0.0
O98 O 0.88446 0.94207 0.56318 0.0
O99 O 0.8526 0.9537 0.56692 0.0
O100 O 0.85185 0.95199 0.54278 0.0
C101 C 0.86862 0.98325 0.53027 0.0
O102 O 0.87478 0.97699 0.57522 0.0
O103 O 0.89357 0.97641 0.5599 0.0
In104 In 0.44605 0.03547 0.12606 0.0
O105 O 0.42407 0.02116 0.12364 0.0
O106 O 0.43844 0.0241 0.10433 0.0
C107 C 0.44319 0.04862 0.15377 0.0
C108 C 0.46849 0.01481 0.12966 0.0
C109 C 0.4483 0.06048 0.10822 0.0
O110 O 0.4317 0.04454 0.14609 0.0
O111 O 0.45584 0.04562 0.14766 0.0
O112 O 0.45928 0.0514 0.11024 0.0
O113 O 0.43631 0.05709 0.11539 0.0
C114 C 0.42642 0.01834 0.10968 0.0
O115 O 0.47036 0.0273 0.12273 0.0
O116 O 0.45526 0.01278 0.13502 0.0
In117 In 0.96263 0.69736 0.37519 0.0
O118 O 0.97107 0.72163 0.37204 0.0
O119 O 0.98516 0.70638 0.38466 0.0
C120 C 0.9378 0.69908 0.357 0.0
C121 C 0.98016 0.67799 0.35901 0.0
C122 C 0.94931 0.6945 0.40279 0.0
O123 O 0.94658 0.71028 0.35919 0.0
O124 O 0.94141 0.68715 0.36418 0.0
O125 O 0.95393 0.68304 0.39537 0.0
O126 O 0.9518 0.70715 0.39646 0.0
C127 C 0.9834 0.71962 0.37922 0.0
O128 O 0.97659 0.67521 0.37272 0.0
O129 O 0.97489 0.6903 0.35379 0.0
In130 In 0.30237 0.21355 0.62434 0.0
O131 O 0.27804 0.2216 0.62083 0.0
O132 O 0.29289 0.23604 0.63351 0.0
C133 C 0.30057 0.18845 0.60657 0.0
C134 C 0.32213 0.23079 0.60825 0.0
C135 C 0.30499 0.20047 0.65206 0.0
O136 O 0.28957 0.19758 0.60823 0.0
O137 O 0.31239 0.19187 0.61402 0.0
O138 O 0.3165 0.20515 0.64475 0.0
O139 O 0.2924 0.2028 0.64556 0.0
C140 C 0.27973 0.23398 0.62799 0.0
O141 O 0.32441 0.22778 0.62217 0.0
O142 O 0.31009 0.22516 0.60278 0.0
In143 In 0.78667 0.55195 0.87494 0.0
O144 O 0.7787 0.52757 0.87144 0.0
O145 O 0.76401 0.54252 0.88373 0.0
C146 C 0.81176 0.55015 0.85712 0.0
C147 C 0.76942 0.57175 0.85892 0.0
C148 C 0.79965 0.55451 0.90275 0.0
O149 O 0.80262 0.53916 0.85877 0.0
O150 O 0.80837 0.56194 0.86463 0.0
O151 O 0.79545 0.56607 0.89524 0.0
O152 O 0.79689 0.54192 0.8964 0.0
C153 C 0.76616 0.52932 0.87832 0.0
O154 O 0.77238 0.57395 0.87287 0.0
O155 O 0.77512 0.55978 0.85338 0.0
In156 In 0.44623 0.21142 0.12233 0.0
O157 O 0.47048 0.21963 0.12596 0.0
O158 O 0.45567 0.23386 0.11299 0.0
C159 C 0.448 0.18664 0.14055 0.0
C160 C 0.42663 0.22905 0.13823 0.0
C161 C 0.44392 0.19788 0.09475 0.0
O162 O 0.4591 0.19556 0.13849 0.0
O163 O 0.4361 0.19008 0.13324 0.0
O164 O 0.43228 0.20227 0.10204 0.0
O165 O 0.45644 0.20075 0.10118 0.0
C166 C 0.46878 0.23194 0.11869 0.0
O167 O 0.42421 0.22577 0.12438 0.0
O168 O 0.43867 0.22343 0.14371 0.0
In169 In 0.78598 0.69697 0.37332 0.0
O170 O 0.77176 0.67495 0.37557 0.0
O171 O 0.77414 0.68953 0.39482 0.0
C172 C 0.79917 0.69447 0.34562 0.0
C173 C 0.76532 0.71942 0.36984 0.0
C174 C 0.81097 0.69859 0.39127 0.0
O175 O 0.79473 0.6829 0.35297 0.0
O176 O 0.79653 0.70704 0.35206 0.0
O177 O 0.80214 0.70978 0.38926 0.0
O178 O 0.80733 0.6867 0.38403 0.0
C179 C 0.76856 0.67744 0.38942 0.0
O180 O 0.77771 0.72122 0.37697 0.0
O181 O 0.76343 0.70629 0.36418 0.0
In182 In 0.30179 0.0368 0.62477 0.0
O183 O 0.32386 0.02253 0.62682 0.0
O184 O 0.30944 0.02491 0.64617 0.0
C185 C 0.30446 0.05019 0.59718 0.0
C186 C 0.27926 0.01634 0.62047 0.0
C187 C 0.29988 0.06146 0.6432 0.0
O188 O 0.31598 0.04569 0.60458 0.0
O189 O 0.29184 0.04759 0.60356 0.0
O190 O 0.28942 0.05162 0.64232 0.0
O191 O 0.31115 0.05901 0.63459 0.0
C192 C 0.32146 0.01928 0.64068 0.0
O193 O 0.27724 0.02888 0.62726 0.0
O194 O 0.29265 0.0142 0.61555 0.0
In195 In 0.96293 0.55168 0.87364 0.0
O196 O 0.97719 0.57366 0.876 0.0
O197 O 0.97483 0.55899 0.89517 0.0
C198 C 0.9499 0.55461 0.8459 0.0
C199 C 0.98349 0.52917 0.86995 0.0
C200 C 0.93794 0.54987 0.89159 0.0
O201 O 0.95423 0.56606 0.8535 0.0
O202 O 0.95253 0.54194 0.85213 0.0
O203 O 0.94681 0.53873 0.88951 0.0
O204 O 0.94154 0.56181 0.88442 0.0
C205 C 0.98041 0.57111 0.88983 0.0
O206 O 0.97105 0.52733 0.87697 0.0
O207 O 0.9855 0.54237 0.86452 0.0
In208 In 0.12629 0.4464 0.03615 0.0
O209 O 0.12409 0.42424 0.02211 0.0
O210 O 0.10514 0.43932 0.02346 0.0
C211 C 0.15387 0.44364 0.0496 0.0
C212 C 0.13034 0.46893 0.01571 0.0
C213 C 0.10785 0.44843 0.06078 0.0
O214 O 0.14633 0.43212 0.04533 0.0
O215 O 0.14766 0.45626 0.0467 0.0
O216 O 0.1102 0.45951 0.05191 0.0
O217 O 0.11499 0.43641 0.05736 0.0
C218 C 0.11046 0.42703 0.01826 0.0
O219 O 0.12313 0.47074 0.02805 0.0
O220 O 0.1358 0.45572 0.01374 0.0
In221 In 0.62622 0.30157 0.21175 0.0
O222 O 0.62422 0.32383 0.22571 0.0
O223 O 0.60508 0.30898 0.22424 0.0
C224 C 0.65361 0.30363 0.19783 0.0
C225 C 0.63012 0.27928 0.23249 0.0
C226 C 0.60761 0.29977 0.18726 0.0
O227 O 0.64657 0.31533 0.20245 0.0
O228 O 0.64704 0.29118 0.20068 0.0
O229 O 0.60981 0.28867 0.19616 0.0
O230 O 0.61497 0.31168 0.19059 0.0
C231 C 0.61052 0.32122 0.22945 0.0
O232 O 0.62276 0.2774 0.22025 0.0
O233 O 0.63582 0.29242 0.2342 0.0
In234 In 0.69519 0.87569 0.46321 0.0
O235 O 0.71957 0.87238 0.47119 0.0
O236 O 0.7046 0.88478 0.48577 0.0
C237 C 0.6973 0.85773 0.43824 0.0
C238 C 0.67564 0.85956 0.48066 0.0
C239 C 0.69226 0.90339 0.45005 0.0
O240 O 0.70829 0.85972 0.44732 0.0
O241 O 0.68535 0.86499 0.44163 0.0
O242 O 0.68079 0.89566 0.4541 0.0
O243 O 0.70493 0.89732 0.45306 0.0
C244 C 0.71781 0.87939 0.48366 0.0
O245 O 0.67328 0.87347 0.47766 0.0
O246 O 0.68762 0.85412 0.47489 0.0
In247 In 0.12235 0.94613 0.71248 0.0
O248 O 0.12577 0.97042 0.72062 0.0
O249 O 0.11289 0.95554 0.73488 0.0
C250 C 0.14083 0.94792 0.68787 0.0
C251 C 0.13804 0.9267 0.73041 0.0
C252 C 0.09476 0.9437 0.69903 0.0
O253 O 0.13853 0.95906 0.69668 0.0
O254 O 0.13363 0.93596 0.69134 0.0
O255 O 0.10212 0.9321 0.70335 0.0
O256 O 0.10115 0.95625 0.70187 0.0
C257 C 0.11851 0.96869 0.73294 0.0
O258 O 0.12441 0.92396 0.72653 0.0
O259 O 0.14343 0.93896 0.72522 0.0
In260 In 0.55299 0.37394 0.46206 0.0
O261 O 0.52853 0.37758 0.46969 0.0
O262 O 0.54319 0.36524 0.48461 0.0
C263 C 0.55126 0.39181 0.43701 0.0
C264 C 0.57265 0.38987 0.47959 0.0
C265 C 0.55562 0.34615 0.44901 0.0
O266 O 0.54021 0.39004 0.44605 0.0
O267 O 0.56309 0.3844 0.44047 0.0
O268 O 0.56717 0.35375 0.45307 0.0
O269 O 0.54302 0.35239 0.45197 0.0
C270 C 0.53006 0.37071 0.48225 0.0
O271 O 0.57478 0.37588 0.47675 0.0
O272 O 0.56085 0.39548 0.47363 0.0
In273 In 0.12307 0.80166 0.0363 0.0
O274 O 0.12507 0.82383 0.02224 0.0
O275 O 0.14423 0.80903 0.0238 0.0
C276 C 0.09549 0.8039 0.04978 0.0
C277 C 0.11928 0.77911 0.01582 0.0
C278 C 0.14136 0.79999 0.06105 0.0
O279 O 0.1027 0.81555 0.04532 0.0
O280 O 0.10201 0.7914 0.04703 0.0
O281 O 0.13931 0.78887 0.05215 0.0
O282 O 0.13402 0.81187 0.05758 0.0
C283 C 0.13878 0.82123 0.01853 0.0
O284 O 0.12667 0.77742 0.02807 0.0
O285 O 0.11355 0.79222 0.01394 0.0
In286 In 0.69653 0.8733 0.28689 0.0
O287 O 0.67454 0.87533 0.27256 0.0
O288 O 0.68925 0.89452 0.27441 0.0
C289 C 0.69385 0.8456 0.3001 0.0
C290 C 0.71939 0.86971 0.2667 0.0
C291 C 0.69789 0.8915 0.31174 0.0
O292 O 0.68233 0.85302 0.29564 0.0
O293 O 0.70645 0.85197 0.29749 0.0
O294 O 0.70915 0.88943 0.30301 0.0
O295 O 0.68605 0.88422 0.30806 0.0
C296 C 0.67712 0.88906 0.26898 0.0
O297 O 0.72097 0.87679 0.27914 0.0
O298 O 0.70626 0.86416 0.2645 0.0
In299 In 0.05214 0.37513 0.78682 0.0
O300 O 0.02768 0.37176 0.77907 0.0
O301 O 0.04255 0.38402 0.76428 0.0
C302 C 0.05065 0.35722 0.81186 0.0
C303 C 0.07165 0.35905 0.76929 0.0
C304 C 0.0549 0.40289 0.79985 0.0
O305 O 0.03953 0.35894 0.80289 0.0
O306 O 0.06241 0.36472 0.80833 0.0
O307 O 0.0664 0.39538 0.79548 0.0
O308 O 0.04227 0.39657 0.79722 0.0
C309 C 0.02935 0.37866 0.76653 0.0
O310 O 0.07403 0.37294 0.77237 0.0
O311 O 0.05965 0.3536 0.77501 0.0
In312 In 0.9628 0.87356 0.55131 0.0
O313 O 0.97113 0.87697 0.52706 0.0
O314 O 0.98502 0.86368 0.54193 0.0
C315 C 0.93829 0.89223 0.55025 0.0
C316 C 0.98083 0.88914 0.5707 0.0
C317 C 0.94905 0.8461 0.55345 0.0
O318 O 0.94688 0.89006 0.53891 0.0
O319 O 0.94193 0.88481 0.56202 0.0
O320 O 0.95417 0.85293 0.56507 0.0
O321 O 0.95125 0.85295 0.54102 0.0
C322 C 0.98328 0.86942 0.52881 0.0
O323 O 0.97654 0.87568 0.57365 0.0
O324 O 0.97603 0.8944 0.55822 0.0
In325 In 0.12622 0.71143 0.30205 0.0
O326 O 0.12435 0.7255 0.32426 0.0
O327 O 0.10522 0.72421 0.3094 0.0
C328 C 0.15343 0.69715 0.3043 0.0
C329 C 0.13041 0.73196 0.27959 0.0
C330 C 0.1073 0.68718 0.30015 0.0
O331 O 0.14636 0.70185 0.31595 0.0
O332 O 0.147 0.7001 0.29181 0.0
O333 O 0.10966 0.69607 0.28908 0.0
O334 O 0.11465 0.6904 0.31209 0.0
C335 C 0.11069 0.72939 0.32163 0.0
O336 O 0.12294 0.71977 0.27781 0.0
O337 O 0.13607 0.73374 0.29274 0.0
In338 In 0.28596 0.87522 0.0517 0.0
O339 O 0.27766 0.87182 0.02744 0.0
O340 O 0.26359 0.88482 0.0424 0.0
C341 C 0.31061 0.85677 0.05013 0.0
C342 C 0.26811 0.85948 0.07115 0.0
C343 C 0.29952 0.90276 0.05416 0.0
O344 O 0.30187 0.85898 0.03892 0.0
O345 O 0.30705 0.86403 0.06203 0.0
O346 O 0.29486 0.89555 0.06573 0.0
O347 O 0.29695 0.89625 0.04161 0.0
C348 C 0.2654 0.87917 0.02925 0.0
O349 O 0.27199 0.87311 0.07391 0.0
O350 O 0.27325 0.85412 0.05885 0.0
In351 In 0.12318 0.03567 0.80195 0.0
O352 O 0.12639 0.02742 0.77767 0.0
O353 O 0.11351 0.0133 0.79267 0.0
C354 C 0.14162 0.06028 0.79994 0.0
C355 C 0.13903 0.01786 0.82138 0.0
C356 C 0.09566 0.04925 0.80452 0.0
O357 O 0.13933 0.05139 0.78886 0.0
O358 O 0.13444 0.05689 0.81193 0.0
O359 O 0.10303 0.04483 0.81609 0.0
O360 O 0.102 0.04644 0.79195 0.0
C361 C 0.11903 0.01517 0.77948 0.0
O362 O 0.12539 0.02169 0.82415 0.0
O363 O 0.14435 0.02303 0.80907 0.0
In364 In 0.96389 0.87478 0.19733 0.0
O365 O 0.97793 0.87235 0.17523 0.0
O366 O 0.97584 0.85327 0.19007 0.0
C367 C 0.95081 0.90248 0.19465 0.0
C368 C 0.98446 0.87855 0.21981 0.0
C369 C 0.93885 0.8569 0.19886 0.0
O370 O 0.95581 0.89531 0.18319 0.0
O371 O 0.9528 0.89584 0.20723 0.0
O372 O 0.94772 0.85879 0.21003 0.0
O373 O 0.94249 0.8642 0.18701 0.0
C374 C 0.98125 0.85856 0.17785 0.0
O375 O 0.9721 0.87137 0.22163 0.0
O376 O 0.98638 0.88408 0.20664 0.0
In377 In 0.12307 0.71202 0.94686 0.0
O378 O 0.12507 0.72608 0.9247 0.0
O379 O 0.14416 0.72469 0.9396 0.0
C380 C 0.09549 0.69852 0.94456 0.0
C381 C 0.11922 0.7325 0.96938 0.0
C382 C 0.14147 0.68734 0.94851 0.0
O383 O 0.10273 0.70299 0.93292 0.0
O384 O 0.10199 0.70124 0.95707 0.0
O385 O 0.1393 0.69616 0.95967 0.0
O386 O 0.13419 0.69084 0.9366 0.0
C387 C 0.13873 0.72992 0.92737 0.0
O388 O 0.1266 0.72025 0.9711 0.0
O389 O 0.1135 0.73436 0.95627 0.0
In390 In 0.2851 0.87225 0.69631 0.0
O391 O 0.27692 0.8756 0.72062 0.0
O392 O 0.26251 0.86308 0.70558 0.0
C393 C 0.30999 0.89029 0.69839 0.0
C394 C 0.26768 0.88857 0.67692 0.0
C395 C 0.29843 0.84464 0.69329 0.0
O396 O 0.3012 0.88791 0.70954 0.0
O397 O 0.30637 0.88336 0.68632 0.0
O398 O 0.29421 0.85232 0.68185 0.0
O399 O 0.29547 0.85069 0.70598 0.0
C400 C 0.26449 0.86855 0.71879 0.0
O401 O 0.27078 0.8747 0.67436 0.0
O402 O 0.27333 0.89385 0.68903 0.0
In403 In 0.12594 0.03621 0.44655 0.0
O404 O 0.12383 0.02204 0.42446 0.0
O405 O 0.10478 0.02356 0.43942 0.0
C406 C 0.15354 0.04962 0.44409 0.0
C407 C 0.12969 0.01584 0.4692 0.0
C408 C 0.10758 0.06093 0.44793 0.0
O409 O 0.1463 0.04502 0.43251 0.0
O410 O 0.14703 0.04706 0.45664 0.0
O411 O 0.10975 0.05225 0.4592 0.0
O412 O 0.11484 0.05727 0.43607 0.0
C413 C 0.11016 0.01828 0.42718 0.0
O414 O 0.12239 0.02815 0.47086 0.0
O415 O 0.13538 0.01387 0.45609 0.0
In416 In 0.55282 0.96305 0.87511 0.0
O417 O 0.52931 0.97253 0.88061 0.0
O418 O 0.5433 0.98522 0.86534 0.0
C419 C 0.55094 0.93775 0.89252 0.0
C420 C 0.57295 0.97997 0.89109 0.0
C421 C 0.5548 0.94974 0.84741 0.0
O422 O 0.53971 0.94652 0.8904 0.0
O423 O 0.56298 0.94161 0.88565 0.0
O424 O 0.5665 0.95419 0.85456 0.0
O425 O 0.54233 0.95244 0.85405 0.0
C426 C 0.53078 0.9843 0.87243 0.0
O427 O 0.57475 0.97757 0.87697 0.0
O428 O 0.56128 0.97381 0.89678 0.0
In429 In 0.03529 0.30008 0.62495 0.0
O430 O 0.02587 0.27644 0.62996 0.0
O431 O 0.01326 0.29065 0.61481 0.0
C432 C 0.06035 0.29871 0.6428 0.0
C433 C 0.01781 0.31981 0.64076 0.0
C434 C 0.04869 0.30219 0.59732 0.0
O435 O 0.05193 0.28727 0.64041 0.0
O436 O 0.05626 0.3107 0.63599 0.0
O437 O 0.04381 0.31382 0.6043 0.0
O438 O 0.04643 0.28972 0.60411 0.0
C439 C 0.01415 0.27802 0.62172 0.0
O440 O 0.02127 0.32229 0.62697 0.0
O441 O 0.02321 0.30768 0.64624 0.0
In442 In 0.69598 0.78627 0.37378 0.0
O443 O 0.72027 0.7781 0.37736 0.0
O444 O 0.70538 0.76375 0.36461 0.0
C445 C 0.69773 0.81124 0.39177 0.0
C446 C 0.67634 0.76884 0.38981 0.0
C447 C 0.69352 0.79951 0.3461 0.0
O448 O 0.7088 0.80223 0.38991 0.0
O449 O 0.68588 0.80778 0.38437 0.0
O450 O 0.68193 0.79517 0.35348 0.0
O451 O 0.70608 0.79675 0.3525 0.0
C452 C 0.71853 0.76572 0.3702 0.0
O453 O 0.67399 0.77194 0.37591 0.0
O454 O 0.68835 0.77451 0.39528 0.0
In455 In 0.21378 0.44656 0.1229 0.0
O456 O 0.222 0.47086 0.12612 0.0
O457 O 0.23623 0.45581 0.11339 0.0
C458 C 0.18912 0.44866 0.14126 0.0
C459 C 0.23146 0.42716 0.13891 0.0
C460 C 0.20023 0.44371 0.09538 0.0
O461 O 0.1979 0.45979 0.13878 0.0
O462 O 0.19263 0.43658 0.13429 0.0
O463 O 0.20454 0.43222 0.10293 0.0
O464 O 0.20317 0.45636 0.10153 0.0
C465 C 0.23432 0.46902 0.11888 0.0
O466 O 0.22785 0.42443 0.1252 0.0
O467 O 0.22618 0.43943 0.1442 0.0
In468 In 0.55339 0.78659 0.87661 0.0
O469 O 0.57536 0.77226 0.87438 0.0
O470 O 0.5613 0.77542 0.85489 0.0
C471 C 0.55624 0.79962 0.90439 0.0
C472 C 0.531 0.76578 0.87985 0.0
C473 C 0.55107 0.81166 0.85883 0.0
O474 O 0.56772 0.79566 0.89663 0.0
O475 O 0.54358 0.79658 0.89832 0.0
O476 O 0.54012 0.80254 0.86083 0.0
O477 O 0.56307 0.80828 0.866 0.0
C478 C 0.57321 0.76955 0.86037 0.0
O479 O 0.52912 0.77832 0.87303 0.0
O480 O 0.54419 0.76379 0.88534 0.0
In481 In 0.21154 0.30195 0.62557 0.0
O482 O 0.22585 0.3239 0.62324 0.0
O483 O 0.22307 0.30947 0.60394 0.0
C484 C 0.19862 0.30475 0.65337 0.0
C485 C 0.23241 0.27969 0.62897 0.0
C486 C 0.18651 0.29978 0.60775 0.0
O487 O 0.20258 0.31626 0.64565 0.0
O488 O 0.20157 0.2921 0.64722 0.0
O489 O 0.19545 0.28871 0.60992 0.0
O490 O 0.19005 0.31182 0.61477 0.0
C491 C 0.22884 0.32146 0.60933 0.0
O492 O 0.21993 0.27773 0.62205 0.0
O493 O 0.23428 0.29289 0.63448 0.0
In494 In 0.69528 0.96277 0.37646 0.0
O495 O 0.71965 0.97075 0.37319 0.0
O496 O 0.7047 0.98522 0.38575 0.0
C497 C 0.69724 0.93794 0.35829 0.0
C498 C 0.67603 0.98058 0.36041 0.0
C499 C 0.6923 0.94949 0.40409 0.0
O500 O 0.70838 0.94675 0.36061 0.0
O501 O 0.68521 0.94151 0.36533 0.0
O502 O 0.68084 0.95362 0.3964 0.0
O503 O 0.70498 0.95247 0.39802 0.0
C504 C 0.7179 0.98316 0.38029 0.0
O505 O 0.67337 0.97719 0.37418 0.0
O506 O 0.68813 0.97496 0.35505 0.0
In507 In 0.03676 0.44819 0.12583 0.0
O508 O 0.02306 0.42578 0.12389 0.0
O509 O 0.02408 0.44076 0.10482 0.0
C510 C 0.0507 0.44654 0.15323 0.0
C511 C 0.01585 0.47036 0.1296 0.0
C512 C 0.06133 0.4494 0.10727 0.0
O513 O 0.0456 0.43479 0.14661 0.0
O514 O 0.04833 0.45886 0.14623 0.0
O515 O 0.0526 0.46067 0.10931 0.0
O516 O 0.05778 0.43763 0.11474 0.0
C517 C 0.0191 0.42842 0.11026 0.0
O518 O 0.02798 0.47223 0.12205 0.0
O519 O 0.01437 0.45731 0.13556 0.0
In520 In 0.8729 0.55166 0.9626 0.0
O521 O 0.87492 0.57373 0.97681 0.0
O522 O 0.89407 0.55892 0.97518 0.0
C523 C 0.84534 0.55435 0.94913 0.0
C524 C 0.86898 0.52898 0.98292 0.0
C525 C 0.89125 0.54993 0.93789 0.0
O526 O 0.85278 0.56588 0.95355 0.0
O527 O 0.85162 0.54174 0.95191 0.0
O528 O 0.88907 0.53878 0.94672 0.0
O529 O 0.88401 0.56185 0.9414 0.0
C530 C 0.88862 0.5711 0.98051 0.0
O531 O 0.87631 0.52732 0.97062 0.0
O532 O 0.86336 0.54212 0.98491 0.0
In533 In 0.37343 0.69779 0.78684 0.0
O534 O 0.37579 0.67552 0.77305 0.0
O535 O 0.39466 0.69073 0.77428 0.0
C536 C 0.34587 0.69531 0.8003 0.0
C537 C 0.36926 0.72 0.76606 0.0
C538 C 0.39188 0.69943 0.81148 0.0
O539 O 0.35304 0.68375 0.79553 0.0
O540 O 0.35246 0.70786 0.79793 0.0
O541 O 0.38981 0.71058 0.8026 0.0
O542 O 0.38444 0.6876 0.80807 0.0
C543 C 0.38942 0.67835 0.76922 0.0
O544 O 0.3765 0.72204 0.77835 0.0
O545 O 0.36385 0.70674 0.76433 0.0
In546 In 0.30249 0.12275 0.5363 0.0
O547 O 0.27822 0.12627 0.52808 0.0
O548 O 0.29313 0.11349 0.51377 0.0
C549 C 0.30057 0.14112 0.56095 0.0
C550 C 0.32219 0.13863 0.5188 0.0
C551 C 0.30491 0.0953 0.55009 0.0
O552 O 0.28953 0.13906 0.55194 0.0
O553 O 0.31246 0.13373 0.55766 0.0
O554 O 0.31652 0.10264 0.54572 0.0
O555 O 0.29236 0.10158 0.54702 0.0
C556 C 0.27999 0.11912 0.51571 0.0
O557 O 0.32446 0.12471 0.52187 0.0
O558 O 0.31024 0.14418 0.52453 0.0
In559 In 0.87436 0.04995 0.28606 0.0
O560 O 0.87249 0.07212 0.27197 0.0
O561 O 0.85337 0.05725 0.2733 0.0
C562 C 0.90181 0.05208 0.29981 0.0
C563 C 0.87789 0.02765 0.26524 0.0
C564 C 0.85616 0.04881 0.31088 0.0
O565 O 0.89495 0.06369 0.29471 0.0
O566 O 0.895 0.03962 0.29757 0.0
O567 O 0.85869 0.03729 0.30262 0.0
O568 O 0.86296 0.06079 0.30674 0.0
C569 C 0.85885 0.06945 0.26806 0.0
O570 O 0.86945 0.02622 0.27683 0.0
O571 O 0.88485 0.04025 0.26432 0.0
In572 In 0.44626 0.6237 0.53626 0.0
O573 O 0.47083 0.62123 0.52842 0.0
O574 O 0.45544 0.63284 0.51365 0.0
C575 C 0.448 0.60518 0.56084 0.0
C576 C 0.42657 0.60775 0.51877 0.0
C577 C 0.44375 0.65125 0.54978 0.0
O578 O 0.45841 0.60589 0.55093 0.0
O579 O 0.43688 0.61401 0.55851 0.0
O580 O 0.43218 0.64398 0.54517 0.0
O581 O 0.45632 0.64477 0.54721 0.0
C582 C 0.46883 0.62797 0.51584 0.0
O583 O 0.4242 0.62164 0.52192 0.0
O584 O 0.43856 0.60228 0.52447 0.0
In585 In 0.87789 0.19685 0.96386 0.0
O586 O 0.87473 0.22112 0.97212 0.0
O587 O 0.88763 0.20608 0.98621 0.0
C588 C 0.85927 0.19853 0.93937 0.0
C589 C 0.86195 0.17773 0.98185 0.0
C590 C 0.90537 0.19413 0.95025 0.0
O591 O 0.86196 0.20984 0.94785 0.0
O592 O 0.86617 0.18647 0.94308 0.0
O593 O 0.89804 0.18261 0.95488 0.0
O594 O 0.89901 0.20673 0.95288 0.0
C595 C 0.88208 0.21928 0.98438 0.0
O596 O 0.87541 0.1746 0.97769 0.0
O597 O 0.85686 0.19024 0.97695 0.0
In598 In 0.30568 0.12768 0.71292 0.0
O599 O 0.28229 0.12016 0.72155 0.0
O600 O 0.29476 0.13596 0.73505 0.0
C601 C 0.30175 0.10838 0.68929 0.0
C602 C 0.32948 0.11584 0.72877 0.0
C603 C 0.30666 0.15512 0.69884 0.0
O604 O 0.29369 0.10772 0.70124 0.0
O605 O 0.31165 0.11885 0.68925 0.0
O606 O 0.31858 0.14825 0.70304 0.0
O607 O 0.29443 0.14833 0.7021 0.0
C608 C 0.28274 0.1282 0.73349 0.0
O609 O 0.32306 0.12811 0.73263 0.0
O610 O 0.32411 0.10981 0.71693 0.0
In611 In 0.94478 0.62306 0.21179 0.0
O612 O 0.96916 0.6265 0.21972 0.0
O613 O 0.95426 0.61404 0.23432 0.0
C614 C 0.94668 0.64096 0.18678 0.0
C615 C 0.92546 0.63928 0.22938 0.0
C616 C 0.94187 0.59528 0.1988 0.0
O617 O 0.95781 0.63883 0.19565 0.0
O618 O 0.9347 0.63385 0.19037 0.0
O619 O 0.93039 0.60301 0.20283 0.0
O620 O 0.95453 0.6014 0.20171 0.0
C621 C 0.96744 0.61951 0.23219 0.0
O622 O 0.92296 0.6254 0.22633 0.0
O623 O 0.93745 0.64465 0.22356 0.0
In624 In 0.03596 0.62491 0.94759 0.0
O625 O 0.02194 0.62272 0.92544 0.0
O626 O 0.02346 0.60368 0.9404 0.0
C627 C 0.0494 0.65248 0.94502 0.0
C628 C 0.01535 0.62886 0.97003 0.0
C629 C 0.06074 0.60664 0.94907 0.0
O630 O 0.04468 0.64524 0.93348 0.0
O631 O 0.04694 0.64598 0.9576 0.0
O632 O 0.05199 0.60874 0.9603 0.0
O633 O 0.05711 0.61392 0.93721 0.0
C634 C 0.01823 0.60904 0.92814 0.0
O635 O 0.02763 0.62154 0.97187 0.0
O636 O 0.01355 0.63446 0.95686 0.0
In637 In 0.87275 0.78689 0.19676 0.0
O638 O 0.87623 0.77854 0.22095 0.0
O639 O 0.86292 0.76462 0.20613 0.0
C640 C 0.89156 0.81123 0.19851 0.0
C641 C 0.8882 0.76892 0.17714 0.0
C642 C 0.84547 0.80105 0.19471 0.0
O643 O 0.88929 0.80237 0.20961 0.0
O644 O 0.88419 0.80794 0.1866 0.0
O645 O 0.8525 0.79643 0.183 0.0
O646 O 0.85199 0.79808 0.20715 0.0
C647 C 0.8687 0.76638 0.21923 0.0
O648 O 0.87456 0.77286 0.17452 0.0
O649 O 0.8937 0.77407 0.18937 0.0
In650 In 0.71289 0.62362 0.44705 0.0
O651 O 0.72697 0.6258 0.42494 0.0
O652 O 0.72543 0.64484 0.4399 0.0
C653 C 0.6995 0.59604 0.44428 0.0
C654 C 0.73337 0.61966 0.46959 0.0
C655 C 0.68811 0.64191 0.44869 0.0
O656 O 0.70408 0.60343 0.43279 0.0
O657 O 0.70206 0.6024 0.45691 0.0
O658 O 0.69688 0.63972 0.45989 0.0
O659 O 0.69172 0.63471 0.43677 0.0
C660 C 0.73069 0.63948 0.42765 0.0
O661 O 0.72107 0.62695 0.47138 0.0
O662 O 0.73527 0.6141 0.45642 0.0
In663 In 0.8761 0.46251 0.69713 0.0
O664 O 0.87404 0.47662 0.67496 0.0
O665 O 0.85472 0.47441 0.68946 0.0
C666 C 0.90346 0.4485 0.69483 0.0
C667 C 0.87998 0.48335 0.71934 0.0
C668 C 0.85761 0.43798 0.69941 0.0
O669 O 0.89618 0.45286 0.68318 0.0
O670 O 0.89716 0.45169 0.70734 0.0
O671 O 0.8599 0.44701 0.71039 0.0
O672 O 0.86483 0.4412 0.68739 0.0
C673 C 0.86018 0.47989 0.67736 0.0
O674 O 0.8727 0.47107 0.72127 0.0
O675 O 0.88559 0.48507 0.70617 0.0
In676 In 0.03484 0.62372 0.30088 0.0
O677 O 0.02653 0.62714 0.27661 0.0
O678 O 0.0124 0.61427 0.2916 0.0
C679 C 0.05982 0.64169 0.29951 0.0
C680 C 0.01747 0.63983 0.32045 0.0
C681 C 0.04807 0.59608 0.30345 0.0
O682 O 0.05097 0.63986 0.28831 0.0
O683 O 0.05618 0.63431 0.31131 0.0
O684 O 0.04276 0.60304 0.31491 0.0
O685 O 0.04629 0.60289 0.29093 0.0
C686 C 0.01424 0.61986 0.27844 0.0
O687 O 0.02098 0.62608 0.32309 0.0
O688 O 0.02269 0.64513 0.30815 0.0
In689 In 0.8754 0.78641 0.55131 0.0
O690 O 0.87199 0.77803 0.52709 0.0
O691 O 0.88509 0.76406 0.54205 0.0
C692 C 0.85688 0.811 0.5498 0.0
C693 C 0.85968 0.76861 0.57083 0.0
C694 C 0.9029 0.80006 0.5535 0.0
O695 O 0.85899 0.80219 0.53862 0.0
O696 O 0.86428 0.80754 0.56164 0.0
O697 O 0.89591 0.79523 0.56514 0.0
O698 O 0.8962 0.79762 0.54103 0.0
C699 C 0.87942 0.76582 0.52891 0.0
O700 O 0.87328 0.77258 0.57361 0.0
O701 O 0.85435 0.77363 0.55847 0.0
In702 In 0.71391 0.62634 0.80184 0.0
O703 O 0.7279 0.62392 0.824 0.0
O704 O 0.72673 0.60518 0.80864 0.0
C705 C 0.70035 0.65386 0.80471 0.0
C706 C 0.73437 0.63052 0.77934 0.0
C707 C 0.68934 0.60783 0.7999 0.0
O708 O 0.70486 0.64641 0.81619 0.0
O709 O 0.70306 0.6476 0.79207 0.0
O710 O 0.69797 0.61045 0.7887 0.0
O711 O 0.69295 0.61474 0.81199 0.0
C712 C 0.73183 0.61035 0.82103 0.0
O713 O 0.7221 0.62319 0.77753 0.0
O714 O 0.73626 0.63603 0.79254 0.0
In715 In 0.87282 0.46158 0.05155 0.0
O716 O 0.87471 0.47547 0.07387 0.0
O717 O 0.89372 0.47455 0.05881 0.0
C718 C 0.84539 0.44772 0.05332 0.0
C719 C 0.8689 0.48213 0.0291 0.0
C720 C 0.89153 0.43712 0.05028 0.0
O721 O 0.85217 0.4526 0.06508 0.0
O722 O 0.85226 0.45024 0.04096 0.0
O723 O 0.88945 0.44588 0.03906 0.0
O724 O 0.884 0.44056 0.06205 0.0
C725 C 0.88829 0.47955 0.07114 0.0
O726 O 0.87643 0.46997 0.02737 0.0
O727 O 0.86307 0.48386 0.04218 0.0
In728 In 0.44157 0.53593 0.62756 0.0
O729 O 0.46443 0.5271 0.61881 0.0
O730 O 0.45384 0.51511 0.63707 0.0
C731 C 0.44551 0.5591 0.60771 0.0
C732 C 0.4178 0.51925 0.61668 0.0
C733 C 0.44101 0.55004 0.65496 0.0
O734 O 0.45297 0.54678 0.60679 0.0
O735 O 0.43619 0.55971 0.61868 0.0
O736 O 0.42899 0.54538 0.64857 0.0
O737 O 0.45308 0.54728 0.6477 0.0
C738 C 0.46506 0.5161 0.62809 0.0
O739 O 0.42639 0.51456 0.62718 0.0
O740 O 0.42088 0.53245 0.61202 0.0
In741 In 0.96395 0.19671 0.87596 0.0
O742 O 0.97251 0.22087 0.87246 0.0
O743 O 0.98687 0.20558 0.88471 0.0
C744 C 0.93888 0.19935 0.85827 0.0
C745 C 0.98064 0.17675 0.85955 0.0
C746 C 0.95098 0.19401 0.90376 0.0
O747 O 0.94813 0.2102 0.86027 0.0
O748 O 0.94213 0.1873 0.86542 0.0
O749 O 0.95492 0.18248 0.89607 0.0
O750 O 0.954 0.20663 0.89761 0.0
C751 C 0.98502 0.21882 0.8793 0.0
O752 O 0.97802 0.17459 0.87358 0.0
O753 O 0.97487 0.18875 0.85415 0.0
In754 In 0.30247 0.71224 0.12526 0.0
O755 O 0.32448 0.72652 0.12309 0.0
O756 O 0.3101 0.72392 0.10373 0.0
C757 C 0.30492 0.69899 0.15294 0.0
C758 C 0.28001 0.73289 0.12883 0.0
C759 C 0.30069 0.68729 0.10725 0.0
O760 O 0.31651 0.70336 0.14558 0.0
O761 O 0.29236 0.70171 0.14652 0.0
O762 O 0.28962 0.69631 0.10912 0.0
O763 O 0.31253 0.69073 0.11466 0.0
C764 C 0.32213 0.72958 0.10919 0.0
O765 O 0.27819 0.72048 0.12173 0.0
O766 O 0.29318 0.73483 0.13438 0.0
In767 In 0.78521 0.0519 0.37593 0.0
O768 O 0.7769 0.02763 0.37269 0.0
O769 O 0.76275 0.04271 0.38547 0.0
C770 C 0.8099 0.04981 0.3576 0.0
C771 C 0.76755 0.07134 0.35993 0.0
C772 C 0.79869 0.05464 0.40348 0.0
O773 O 0.80109 0.0387 0.36003 0.0
O774 O 0.80638 0.06188 0.3646 0.0
O775 O 0.79436 0.06616 0.39599 0.0
O776 O 0.79581 0.04202 0.39725 0.0
C777 C 0.7646 0.02951 0.37996 0.0
O778 O 0.77126 0.0741 0.3736 0.0
O779 O 0.77274 0.05902 0.35466 0.0
In780 In 0.44603 0.71207 0.62254 0.0
O781 O 0.47028 0.72031 0.62611 0.0
O782 O 0.45543 0.73454 0.61319 0.0
C783 C 0.4479 0.68751 0.64106 0.0
C784 C 0.42645 0.72976 0.63838 0.0
C785 C 0.44356 0.6982 0.59512 0.0
O786 O 0.45903 0.69633 0.63872 0.0
O787 O 0.43592 0.69094 0.63386 0.0
O788 O 0.43197 0.70265 0.60244 0.0
O789 O 0.45611 0.70122 0.60141 0.0
C790 C 0.46854 0.73265 0.6189 0.0
O791 O 0.424 0.72641 0.62455 0.0
O792 O 0.43851 0.7242 0.64386 0.0
In793 In 0.78767 0.19852 0.87483 0.0
O794 O 0.77355 0.17627 0.87629 0.0
O795 O 0.77384 0.19143 0.89523 0.0
C796 C 0.80155 0.19692 0.84738 0.0
C797 C 0.76733 0.22127 0.87154 0.0
C798 C 0.81226 0.19925 0.89338 0.0
O799 O 0.79642 0.18517 0.85397 0.0
O800 O 0.79929 0.20922 0.85445 0.0
O801 O 0.80425 0.21089 0.89066 0.0
O802 O 0.80797 0.1873 0.88662 0.0
C803 C 0.76889 0.17914 0.88965 0.0
O804 O 0.77882 0.22227 0.88017 0.0
O805 O 0.76626 0.20886 0.86426 0.0
In806 In 0.30343 0.53598 0.12261 0.0
O807 O 0.27909 0.52789 0.12586 0.0
O808 O 0.29409 0.51351 0.11327 0.0
C809 C 0.30146 0.56074 0.14088 0.0
C810 C 0.32278 0.51821 0.1386 0.0
C811 C 0.30626 0.54934 0.09501 0.0
O812 O 0.29035 0.55188 0.1386 0.0
O813 O 0.31346 0.55725 0.13376 0.0
O814 O 0.31776 0.54515 0.10261 0.0
O815 O 0.29362 0.5464 0.10116 0.0
C816 C 0.28089 0.51551 0.11873 0.0
O817 O 0.32542 0.52166 0.12484 0.0
O818 O 0.31065 0.52373 0.14397 0.0
In819 In 0.96196 0.05087 0.37318 0.0
O820 O 0.97591 0.07314 0.37503 0.0
O821 O 0.97444 0.05845 0.39427 0.0
C822 C 0.94816 0.05268 0.34572 0.0
C823 C 0.98275 0.02857 0.36947 0.0
C824 C 0.93734 0.04943 0.39165 0.0
O825 O 0.95296 0.06442 0.35257 0.0
O826 O 0.95075 0.04029 0.35252 0.0
O827 O 0.94616 0.03824 0.38961 0.0
O828 O 0.94082 0.06125 0.38422 0.0
C829 C 0.97965 0.07064 0.38874 0.0
O830 O 0.97057 0.02676 0.37696 0.0
O831 O 0.98437 0.04163 0.36357 0.0
In832 In 0.12527 0.94695 0.53637 0.0
O833 O 0.12189 0.97122 0.52809 0.0
O834 O 0.13486 0.95627 0.51399 0.0
C835 C 0.1069 0.94881 0.56107 0.0
C836 C 0.10958 0.92732 0.51862 0.0
C837 C 0.15283 0.94452 0.54989 0.0
O838 O 0.10893 0.95985 0.55206 0.0
O839 O 0.11429 0.93693 0.55773 0.0
O840 O 0.14553 0.93293 0.54541 0.0
O841 O 0.14639 0.95707 0.54716 0.0
C842 C 0.12925 0.96943 0.51583 0.0
O843 O 0.12328 0.92475 0.52235 0.0
O844 O 0.10411 0.93953 0.52385 0.0
In845 In 0.62528 0.80337 0.71338 0.0
O846 O 0.62216 0.77906 0.72161 0.0
O847 O 0.63527 0.79402 0.73558 0.0
C848 C 0.60655 0.80153 0.68896 0.0
C849 C 0.60963 0.82267 0.73154 0.0
C850 C 0.6527 0.80579 0.69953 0.0
O851 O 0.60889 0.79042 0.69779 0.0
O852 O 0.61382 0.81348 0.69231 0.0
O853 O 0.64546 0.8174 0.70407 0.0
O854 O 0.64627 0.79326 0.70235 0.0
C855 C 0.6297 0.78084 0.73376 0.0
O856 O 0.62314 0.8256 0.72738 0.0
O857 O 0.60434 0.81029 0.72651 0.0
In858 In 0.69438 0.37579 0.96266 0.0
O859 O 0.68047 0.37529 0.98466 0.0
O860 O 0.67072 0.36481 0.96525 0.0
C861 C 0.69296 0.40274 0.94771 0.0
C862 C 0.7182 0.3772 0.98214 0.0
C863 C 0.69897 0.35374 0.94155 0.0
O864 O 0.68109 0.39558 0.95164 0.0
O865 O 0.70528 0.39647 0.95163 0.0
O866 O 0.699 0.35099 0.95569 0.0
O867 O 0.69688 0.36756 0.93815 0.0
C868 C 0.66952 0.36775 0.97926 0.0
O869 O 0.71761 0.36767 0.97135 0.0
O870 O 0.70688 0.38604 0.98298 0.0
In871 In 0.12467 0.44879 0.21283 0.0
O872 O 0.12641 0.4265 0.22677 0.0
O873 O 0.14546 0.44148 0.22592 0.0
C874 C 0.09724 0.44692 0.19899 0.0
C875 C 0.12111 0.47117 0.23356 0.0
C876 C 0.14295 0.44978 0.18807 0.0
O877 O 0.10388 0.43526 0.20426 0.0
O878 O 0.10426 0.4593 0.20109 0.0
O879 O 0.14044 0.46133 0.19629 0.0
O880 O 0.13609 0.43784 0.19222 0.0
C881 C 0.13996 0.4292 0.23094 0.0
O882 O 0.12978 0.47244 0.22212 0.0
O883 O 0.11395 0.45868 0.23438 0.0
In884 In 0.55345 0.87324 0.96378 0.0
O885 O 0.57535 0.87569 0.97822 0.0
O886 O 0.56085 0.89491 0.97541 0.0
C887 C 0.55632 0.84554 0.9506 0.0
C888 C 0.53081 0.86953 0.98419 0.0
C889 C 0.55131 0.89108 0.93874 0.0
O890 O 0.56781 0.85322 0.95469 0.0
O891 O 0.54367 0.85165 0.95359 0.0
O892 O 0.54029 0.88904 0.94776 0.0
O893 O 0.56331 0.88394 0.94222 0.0
C894 C 0.57288 0.8896 0.98118 0.0
O895 O 0.52909 0.87663 0.97178 0.0
O896 O 0.544 0.86406 0.98628 0.0
In897 In 0.12155 0.30056 0.5367 0.0
O898 O 0.12524 0.27642 0.52816 0.0
O899 O 0.11203 0.29133 0.51425 0.0
C900 C 0.13988 0.29909 0.56141 0.0
C901 C 0.13737 0.32016 0.51905 0.0
C902 C 0.09408 0.30256 0.55046 0.0
O903 O 0.13784 0.28788 0.55261 0.0
O904 O 0.13253 0.31093 0.55786 0.0
O905 O 0.10103 0.31426 0.54569 0.0
O906 O 0.10077 0.29013 0.54782 0.0
C907 C 0.11786 0.27824 0.51593 0.0
O908 O 0.12362 0.32274 0.52264 0.0
O909 O 0.1428 0.30798 0.52439 0.0
In910 In 0.69118 0.37168 0.78479 0.0
O911 O 0.71389 0.38053 0.77575 0.0
O912 O 0.70351 0.36197 0.76406 0.0
C913 C 0.69538 0.39131 0.80808 0.0
C914 C 0.66733 0.3826 0.76826 0.0
C915 C 0.69055 0.34447 0.79927 0.0
O916 O 0.70294 0.39213 0.79583 0.0
O917 O 0.68576 0.38059 0.80854 0.0
O918 O 0.67855 0.35088 0.79458 0.0
O919 O 0.70266 0.35156 0.79626 0.0
C920 C 0.71463 0.37109 0.76489 0.0
O921 O 0.67547 0.37165 0.76378 0.0
O922 O 0.67095 0.38774 0.78114 0.0
In923 In 0.0536 0.87518 0.28676 0.0
O924 O 0.07556 0.87288 0.27241 0.0
O925 O 0.061 0.85365 0.27493 0.0
C926 C 0.05621 0.90295 0.29979 0.0
C927 C 0.03107 0.87874 0.26623 0.0
C928 C 0.05176 0.85723 0.31173 0.0
O929 O 0.06778 0.89541 0.29565 0.0
O930 O 0.04362 0.89665 0.29697 0.0
O931 O 0.04066 0.85926 0.30281 0.0
O932 O 0.06369 0.86447 0.30821 0.0
C933 C 0.07305 0.85902 0.26926 0.0
O934 O 0.02929 0.8717 0.27867 0.0
O935 O 0.04425 0.88424 0.2642 0.0
In936 In 0.96374 0.37344 0.05333 0.0
O937 O 0.97175 0.37664 0.02893 0.0
O938 O 0.98629 0.36427 0.04396 0.0
C939 C 0.93873 0.39134 0.05119 0.0
C940 C 0.98123 0.38975 0.0727 0.0
C941 C 0.95058 0.34576 0.0565 0.0
O942 O 0.94771 0.38921 0.04015 0.0
O943 O 0.94224 0.38427 0.06322 0.0
O944 O 0.95468 0.35357 0.0679 0.0
O945 O 0.95354 0.35174 0.04378 0.0
C946 C 0.9842 0.36961 0.03073 0.0
O947 O 0.9782 0.37587 0.07521 0.0
O948 O 0.97546 0.39507 0.06067 0.0
In949 In 0.12694 0.21176 0.8025 0.0
O950 O 0.12515 0.22559 0.82487 0.0
O951 O 0.10636 0.22537 0.80952 0.0
C952 C 0.15434 0.19779 0.80434 0.0
C953 C 0.13089 0.23219 0.77995 0.0
C954 C 0.10793 0.18753 0.80108 0.0
O955 O 0.14745 0.20252 0.81609 0.0
O956 O 0.14758 0.20049 0.79195 0.0
O957 O 0.11042 0.19611 0.78982 0.0
O958 O 0.11518 0.19103 0.813 0.0
C959 C 0.11177 0.23015 0.82194 0.0
O960 O 0.1233 0.22005 0.77831 0.0
O961 O 0.1368 0.23395 0.79299 0.0
In962 In 0.2851 0.3746 0.55173 0.0
O963 O 0.27672 0.37096 0.52755 0.0
O964 O 0.26275 0.38417 0.54241 0.0
C965 C 0.30994 0.35644 0.55009 0.0
C966 C 0.26733 0.35886 0.57122 0.0
C967 C 0.29829 0.40227 0.55416 0.0
O968 O 0.30119 0.35864 0.53889 0.0
O969 O 0.30627 0.36354 0.56205 0.0
O970 O 0.29341 0.39516 0.5657 0.0
O971 O 0.29616 0.39557 0.54163 0.0
C972 C 0.2645 0.37837 0.52932 0.0
O973 O 0.27128 0.37246 0.57399 0.0
O974 O 0.2724 0.35349 0.55889 0.0
In975 In 0.12075 0.53498 0.30592 0.0
O976 O 0.12977 0.52611 0.2832 0.0
O977 O 0.1103 0.51518 0.29282 0.0
C978 C 0.14153 0.55749 0.30275 0.0
C979 C 0.13087 0.51742 0.3294 0.0
C980 C 0.0935 0.54941 0.30602 0.0
O981 O 0.14224 0.54523 0.2952 0.0
O982 O 0.13036 0.55836 0.31178 0.0
O983 O 0.09907 0.54367 0.31799 0.0
O984 O 0.10148 0.54757 0.29425 0.0
C985 C 0.1198 0.51575 0.282 0.0
O986 O 0.12257 0.51236 0.31886 0.0
O987 O 0.1336 0.53147 0.32848 0.0
In988 In 0.96178 0.37359 0.69811 0.0
O989 O 0.96975 0.37128 0.72266 0.0
O990 O 0.98436 0.38292 0.70713 0.0
C991 C 0.93727 0.35494 0.69973 0.0
C992 C 0.97941 0.35774 0.67852 0.0
C993 C 0.94832 0.40115 0.69553 0.0
O994 O 0.94702 0.35584 0.71028 0.0
O995 O 0.93972 0.36365 0.68855 0.0
O996 O 0.95313 0.39394 0.684 0.0
O997 O 0.95063 0.3946 0.70811 0.0
C998 C 0.98228 0.37808 0.72055 0.0
O999 O 0.9757 0.37143 0.67585 0.0
O1000 O 0.97418 0.35239 0.69077 0.0
In1001 In 0.12276 0.21232 0.44579 0.0
O1002 O 0.12482 0.22658 0.42373 0.0
O1003 O 0.14397 0.22484 0.4385 0.0
C1004 C 0.09522 0.1988 0.44291 0.0
C1005 C 0.11869 0.23255 0.46856 0.0
C1006 C 0.14119 0.18767 0.44774 0.0
O1007 O 0.10279 0.20312 0.43144 0.0
O1008 O 0.10138 0.20169 0.45556 0.0
O1009 O 0.139 0.19662 0.45879 0.0
O1010 O 0.13391 0.19102 0.4358 0.0
C1011 C 0.13854 0.2302 0.42633 0.0
O1012 O 0.12596 0.22023 0.4702 0.0
O1013 O 0.11322 0.23464 0.45537 0.0
In1014 In 0.2864 0.37291 0.19688 0.0
O1015 O 0.2721 0.37508 0.1749 0.0
O1016 O 0.27454 0.3944 0.18936 0.0
C1017 C 0.29964 0.34523 0.19401 0.0
C1018 C 0.26591 0.36937 0.21951 0.0
C1019 C 0.31131 0.391 0.19859 0.0
O1020 O 0.29521 0.35275 0.18255 0.0
O1021 O 0.29695 0.35147 0.20667 0.0
O1022 O 0.30239 0.38902 0.20972 0.0
O1023 O 0.3078 0.38367 0.18673 0.0
C1024 C 0.26894 0.38896 0.17731 0.0
O1025 O 0.27845 0.37623 0.2213 0.0
O1026 O 0.26377 0.364 0.2063 0.0
In1027 In 0.12606 0.53584 0.94665 0.0
O1028 O 0.12386 0.52173 0.92452 0.0
O1029 O 0.10493 0.52307 0.93964 0.0
C1030 C 0.15359 0.54937 0.94395 0.0
C1031 C 0.1302 0.51543 0.96919 0.0
C1032 C 0.10755 0.56043 0.94853 0.0
O1033 O 0.14616 0.54497 0.93242 0.0
O1034 O 0.1473 0.54657 0.95656 0.0
O1035 O 0.10987 0.55161 0.95965 0.0
O1036 O 0.11474 0.55699 0.93655 0.0
C1037 C 0.11025 0.51785 0.92736 0.0
O1038 O 0.12293 0.52773 0.97099 0.0
O1039 O 0.13567 0.51348 0.95598 0.0
In1040 In 0.55339 0.4627 0.37197 0.0
O1041 O 0.52902 0.47076 0.37517 0.0
O1042 O 0.54407 0.48524 0.36275 0.0
C1043 C 0.55143 0.43788 0.39012 0.0
C1044 C 0.57281 0.48027 0.38811 0.0
C1045 C 0.55621 0.44936 0.34436 0.0
O1046 O 0.54038 0.44686 0.38806 0.0
O1047 O 0.56336 0.44127 0.38284 0.0
O1048 O 0.56771 0.45361 0.35193 0.0
O1049 O 0.54357 0.45226 0.35054 0.0
C1050 C 0.53084 0.48319 0.36812 0.0
O1051 O 0.57536 0.47705 0.37427 0.0
O1052 O 0.56073 0.47465 0.39347 0.0
In1053 In 0.03631 0.80071 0.12368 0.0
O1054 O 0.02776 0.77649 0.12695 0.0
O1055 O 0.01382 0.79169 0.11411 0.0
C1056 C 0.06108 0.7991 0.14197 0.0
C1057 C 0.01873 0.82018 0.13967 0.0
C1058 C 0.04969 0.8033 0.09609 0.0
O1059 O 0.05231 0.78789 0.13982 0.0
O1060 O 0.05749 0.81099 0.13471 0.0
O1061 O 0.04494 0.81482 0.10333 0.0
O1062 O 0.04731 0.79072 0.10261 0.0
C1063 C 0.01549 0.77849 0.11966 0.0
O1064 O 0.0225 0.82296 0.12601 0.0
O1065 O 0.02384 0.80783 0.14494 0.0
In1066 In 0.69518 0.28529 0.87365 0.0
O1067 O 0.68215 0.26293 0.87588 0.0
O1068 O 0.67128 0.28289 0.88404 0.0
C1069 C 0.69256 0.29938 0.84639 0.0
C1070 C 0.71928 0.26623 0.87168 0.0
C1071 C 0.69964 0.3068 0.89535 0.0
O1072 O 0.68105 0.29487 0.85377 0.0
O1073 O 0.70518 0.29654 0.85265 0.0
O1074 O 0.69951 0.29271 0.89836 0.0
O1075 O 0.69784 0.30995 0.88143 0.0
C1076 C 0.6707 0.26862 0.88241 0.0
O1077 O 0.71866 0.27692 0.88133 0.0
O1078 O 0.70784 0.26529 0.86301 0.0
In1079 In 0.21247 0.94698 0.62344 0.0
O1080 O 0.22051 0.97132 0.627 0.0
O1081 O 0.23491 0.95651 0.61419 0.0
C1082 C 0.18768 0.94839 0.64172 0.0
C1083 C 0.23021 0.92737 0.63913 0.0
C1084 C 0.19905 0.94458 0.59583 0.0
O1085 O 0.19647 0.9596 0.6397 0.0
O1086 O 0.19128 0.93656 0.63436 0.0
O1087 O 0.20365 0.93299 0.60305 0.0
O1088 O 0.20164 0.95712 0.60234 0.0
C1089 C 0.23289 0.96964 0.61982 0.0
O1090 O 0.22655 0.92483 0.6254 0.0
O1091 O 0.22494 0.93957 0.64461 0.0
In1092 In 0.55261 0.28652 0.37548 0.0
O1093 O 0.57467 0.2723 0.37336 0.0
O1094 O 0.55978 0.27394 0.35428 0.0
C1095 C 0.55534 0.29997 0.40306 0.0
C1096 C 0.52994 0.26617 0.37941 0.0
C1097 C 0.55105 0.31124 0.35712 0.0
O1098 O 0.56685 0.29545 0.39565 0.0
O1099 O 0.54272 0.29732 0.39673 0.0
O1100 O 0.53984 0.30249 0.3593 0.0
O1101 O 0.56294 0.30766 0.36437 0.0
C1102 C 0.57198 0.26861 0.35967 0.0
O1103 O 0.52824 0.2785 0.37214 0.0
O1104 O 0.5431 0.26418 0.38497 0.0
In1105 In 0.21284 0.80191 0.12545 0.0
O1106 O 0.22712 0.82392 0.12326 0.0
O1107 O 0.22454 0.80949 0.10392 0.0
C1108 C 0.19964 0.80445 0.15316 0.0
C1109 C 0.23348 0.77945 0.12895 0.0
C1110 C 0.18789 0.80005 0.10748 0.0
O1111 O 0.20389 0.81603 0.1457 0.0
O1112 O 0.20247 0.79187 0.14682 0.0
O1113 O 0.19684 0.78896 0.10948 0.0
O1114 O 0.19138 0.81197 0.11474 0.0
C1115 C 0.2302 0.82153 0.10936 0.0
O1116 O 0.22106 0.77764 0.12188 0.0
O1117 O 0.23544 0.79261 0.13452 0.0
In1118 In 0.69749 0.46197 0.87342 0.0
O1119 O 0.67542 0.47623 0.87135 0.0
O1120 O 0.68985 0.47378 0.85201 0.0
C1121 C 0.69481 0.44817 0.90078 0.0
C1122 C 0.71999 0.48243 0.87784 0.0
C1123 C 0.69893 0.43751 0.85475 0.0
O1124 O 0.68334 0.45332 0.89372 0.0
O1125 O 0.70741 0.45038 0.89422 0.0
O1126 O 0.70948 0.44727 0.85552 0.0
O1127 O 0.68785 0.43993 0.86361 0.0
C1128 C 0.67781 0.47939 0.85747 0.0
O1129 O 0.72205 0.46988 0.87106 0.0
O1130 O 0.70658 0.48455 0.88271 0.0
In1131 In 0.03534 0.94702 0.62543 0.0
O1132 O 0.02712 0.97133 0.62208 0.0
O1133 O 0.01268 0.95625 0.63449 0.0
C1134 C 0.06032 0.94897 0.60748 0.0
C1135 C 0.01822 0.92732 0.60918 0.0
C1136 C 0.0486 0.94422 0.65307 0.0
O1137 O 0.05124 0.95999 0.60934 0.0
O1138 O 0.05694 0.9371 0.61487 0.0
O1139 O 0.04419 0.93273 0.64557 0.0
O1140 O 0.04589 0.95687 0.64681 0.0
C1141 C 0.01467 0.96947 0.62908 0.0
O1142 O 0.02103 0.92505 0.62315 0.0
O1143 O 0.02398 0.93931 0.60376 0.0
In1144 In 0.87245 0.05181 0.46283 0.0
O1145 O 0.87483 0.07396 0.47686 0.0
O1146 O 0.89373 0.05882 0.47534 0.0
C1147 C 0.84488 0.05457 0.44941 0.0
C1148 C 0.86838 0.02938 0.48338 0.0
C1149 C 0.89078 0.04991 0.43811 0.0
O1150 O 0.85234 0.06608 0.45383 0.0
O1151 O 0.85116 0.04194 0.45215 0.0
O1152 O 0.88851 0.03878 0.44695 0.0
O1153 O 0.88362 0.06189 0.4416 0.0
C1154 C 0.88848 0.07113 0.48058 0.0
O1155 O 0.87562 0.02751 0.47106 0.0
O1156 O 0.86291 0.04259 0.48526 0.0
In1157 In 0.37318 0.1967 0.28587 0.0
O1158 O 0.37663 0.22092 0.27749 0.0
O1159 O 0.36357 0.20596 0.26348 0.0
C1160 C 0.39162 0.19846 0.31051 0.0
C1161 C 0.38891 0.17717 0.26806 0.0
C1162 C 0.34564 0.19431 0.29944 0.0
O1163 O 0.38937 0.20961 0.3017 0.0
O1164 O 0.3844 0.18651 0.30701 0.0
O1165 O 0.35287 0.18271 0.29488 0.0
O1166 O 0.35213 0.20685 0.29676 0.0
C1167 C 0.36926 0.2191 0.26525 0.0
O1168 O 0.37527 0.17446 0.27193 0.0
O1169 O 0.39429 0.18946 0.27319 0.0
In1170 In 0.3033 0.62299 0.03566 0.0
O1171 O 0.27894 0.62637 0.02763 0.0
O1172 O 0.2939 0.61391 0.01309 0.0
C1173 C 0.30116 0.64095 0.06063 0.0
C1174 C 0.32292 0.63908 0.01826 0.0
C1175 C 0.30619 0.59533 0.04889 0.0
O1176 O 0.29019 0.63898 0.05153 0.0
O1177 O 0.31312 0.63369 0.05726 0.0
O1178 O 0.31767 0.60302 0.04481 0.0
O1179 O 0.29353 0.6014 0.04587 0.0
C1180 C 0.28071 0.61935 0.01517 0.0
O1181 O 0.32522 0.62515 0.02123 0.0
O1182 O 0.31097 0.64457 0.02404 0.0
In1183 In 0.87665 0.55277 0.78611 0.0
O1184 O 0.87314 0.52849 0.77796 0.0
O1185 O 0.88565 0.54344 0.76347 0.0
C1186 C 0.85857 0.5506 0.81098 0.0
C1187 C 0.86071 0.5726 0.76882 0.0
C1188 C 0.9043 0.55528 0.79944 0.0
O1189 O 0.86048 0.53968 0.80179 0.0
O1190 O 0.86598 0.5625 0.80776 0.0
O1191 O 0.89675 0.56687 0.79541 0.0
O1192 O 0.89809 0.5427 0.79632 0.0
C1193 C 0.88015 0.53027 0.7655 0.0
O1194 O 0.87467 0.57476 0.77176 0.0
O1195 O 0.85514 0.56068 0.77458 0.0
In1196 In 0.44693 0.12369 0.03584 0.0
O1197 O 0.47062 0.11829 0.02675 0.0
O1198 O 0.45684 0.13363 0.01392 0.0
C1199 C 0.44871 0.10637 0.06122 0.0
C1200 C 0.42712 0.10767 0.01857 0.0
C1201 C 0.4444 0.15139 0.04905 0.0
O1202 O 0.46 0.10857 0.05255 0.0
O1203 O 0.43665 0.1131 0.05721 0.0
O1204 O 0.43285 0.14401 0.04459 0.0
O1205 O 0.457 0.14498 0.04641 0.0
C1206 C 0.46936 0.12657 0.01503 0.0
O1207 O 0.42521 0.12176 0.02101 0.0
O1208 O 0.43873 0.10202 0.02485 0.0
In1209 In 0.8758 0.69626 0.4624 0.0
O1210 O 0.87227 0.72056 0.47045 0.0
O1211 O 0.88519 0.70579 0.48478 0.0
C1212 C 0.85758 0.69813 0.43761 0.0
C1213 C 0.85996 0.67682 0.48021 0.0
C1214 C 0.90343 0.69379 0.44901 0.0
O1215 O 0.85975 0.70923 0.44651 0.0
O1216 O 0.86478 0.68616 0.44109 0.0
O1217 O 0.89598 0.68218 0.4532 0.0
O1218 O 0.89712 0.70634 0.45198 0.0
C1219 C 0.87954 0.71891 0.48277 0.0
O1220 O 0.87372 0.67423 0.47668 0.0
O1221 O 0.85453 0.68893 0.47474 0.0
In1222 In 0.30217 0.62533 0.21237 0.0
O1223 O 0.27778 0.62183 0.22025 0.0
O1224 O 0.29251 0.63463 0.23473 0.0
C1225 C 0.30082 0.60706 0.18756 0.0
C1226 C 0.32157 0.60959 0.23032 0.0
C1227 C 0.30474 0.65298 0.19905 0.0
O1228 O 0.28956 0.60913 0.1963 0.0
O1229 O 0.31265 0.61437 0.19122 0.0
O1230 O 0.31629 0.64566 0.20359 0.0
O1231 O 0.29216 0.64654 0.20164 0.0
C1232 C 0.27939 0.62902 0.23263 0.0
O1233 O 0.32423 0.62328 0.2266 0.0
O1234 O 0.30938 0.60417 0.22499 0.0
In1235 In 0.94694 0.12561 0.71234 0.0
O1236 O 0.97157 0.12773 0.72007 0.0
O1237 O 0.95623 0.11568 0.73456 0.0
C1238 C 0.94821 0.1447 0.68815 0.0
C1239 C 0.92764 0.14118 0.73057 0.0
C1240 C 0.94443 0.09823 0.69849 0.0
O1241 O 0.95883 0.14374 0.69782 0.0
O1242 O 0.93713 0.13584 0.69053 0.0
O1243 O 0.9329 0.10521 0.70365 0.0
O1244 O 0.95696 0.10494 0.70063 0.0
C1245 C 0.96962 0.12059 0.73244 0.0
O1246 O 0.92464 0.12773 0.72628 0.0
O1247 O 0.94006 0.14643 0.72562 0.0
In1248 In 0.53539 0.12787 0.94455 0.0
O1249 O 0.51385 0.12717 0.92965 0.0
O1250 O 0.53251 0.11351 0.92294 0.0
C1251 C 0.54977 0.15513 0.94472 0.0
C1252 C 0.51513 0.12812 0.96768 0.0
C1253 C 0.55843 0.10776 0.94783 0.0
O1254 O 0.54387 0.14969 0.93277 0.0
O1255 O 0.54807 0.14701 0.95644 0.0
O1256 O 0.54641 0.10705 0.95577 0.0
O1257 O 0.5588 0.11864 0.9384 0.0
C1258 C 0.51902 0.11756 0.92033 0.0
O1259 O 0.52562 0.11827 0.9667 0.0
O1260 O 0.51494 0.13783 0.95706 0.0
In1261 In 0.37324 0.28553 0.19563 0.0
O1262 O 0.37675 0.27746 0.21993 0.0
O1263 O 0.3637 0.26321 0.20518 0.0
C1264 C 0.39169 0.31017 0.1974 0.0
C1265 C 0.3889 0.26754 0.17616 0.0
C1266 C 0.34567 0.29909 0.19326 0.0
O1267 O 0.38946 0.30132 0.20852 0.0
O1268 O 0.38445 0.30671 0.18546 0.0
O1269 O 0.35302 0.29478 0.18163 0.0
O1270 O 0.35205 0.29616 0.20579 0.0
C1271 C 0.36938 0.26519 0.21829 0.0
O1272 O 0.37521 0.27131 0.17352 0.0
O1273 O 0.39435 0.27287 0.18834 0.0
In1274 In 0.21289 0.12336 0.44665 0.0
O1275 O 0.22113 0.12679 0.47094 0.0
O1276 O 0.23538 0.11402 0.45596 0.0
C1277 C 0.18799 0.14146 0.44825 0.0
C1278 C 0.23039 0.13936 0.42709 0.0
C1279 C 0.19956 0.09572 0.44415 0.0
O1280 O 0.19689 0.13954 0.45939 0.0
O1281 O 0.19151 0.13407 0.43642 0.0
O1282 O 0.20413 0.103 0.43258 0.0
O1283 O 0.20212 0.10221 0.45671 0.0
C1284 C 0.23347 0.11958 0.46913 0.0
O1285 O 0.22704 0.12555 0.42456 0.0
O1286 O 0.22494 0.14476 0.43924 0.0
In1287 In 0.37416 0.96202 0.69781 0.0
O1288 O 0.36897 0.97132 0.72144 0.0
O1289 O 0.38481 0.9836 0.70769 0.0
C1290 C 0.35613 0.93709 0.69907 0.0
C1291 C 0.35872 0.98009 0.6783 0.0
C1292 C 0.4017 0.94845 0.69585 0.0
O1293 O 0.35865 0.9454 0.71055 0.0
O1294 O 0.36285 0.94125 0.68705 0.0
O1295 O 0.39482 0.95336 0.68417 0.0
O1296 O 0.39484 0.95075 0.70827 0.0
C1297 C 0.37763 0.98276 0.72017 0.0
O1298 O 0.37234 0.97612 0.67562 0.0
O1299 O 0.35321 0.97485 0.69048 0.0
In1300 In 0.53621 0.12391 0.30165 0.0
O1301 O 0.52211 0.12617 0.32375 0.0
O1302 O 0.52421 0.14536 0.30907 0.0
C1303 C 0.54942 0.09625 0.30433 0.0
C1304 C 0.51555 0.12007 0.27925 0.0
C1305 C 0.56117 0.14191 0.29989 0.0
O1306 O 0.54492 0.10365 0.31585 0.0
O1307 O 0.54687 0.10263 0.29172 0.0
O1308 O 0.55221 0.13998 0.28879 0.0
O1309 O 0.55765 0.13459 0.31176 0.0
C1310 C 0.51877 0.13998 0.32122 0.0
O1311 O 0.52789 0.12727 0.27737 0.0
O1312 O 0.51369 0.11457 0.29245 0.0
In1313 In 0.37614 0.28649 0.55085 0.0
O1314 O 0.37403 0.27256 0.57311 0.0
O1315 O 0.3552 0.27348 0.55782 0.0
C1316 C 0.40339 0.30068 0.55282 0.0
C1317 C 0.38028 0.26591 0.52846 0.0
C1318 C 0.35729 0.31081 0.54954 0.0
O1319 O 0.39659 0.29571 0.56452 0.0
O1320 O 0.39666 0.29803 0.54041 0.0
O1321 O 0.35962 0.30219 0.53825 0.0
O1322 O 0.36465 0.3073 0.56139 0.0
C1323 C 0.36049 0.26847 0.5702 0.0
O1324 O 0.37272 0.27805 0.52667 0.0
O1325 O 0.38607 0.26424 0.54157 0.0
In1326 In 0.21376 0.12395 0.80087 0.0
O1327 O 0.22277 0.11945 0.77696 0.0
O1328 O 0.23608 0.13359 0.79155 0.0
C1329 C 0.18864 0.10622 0.79929 0.0
C1330 C 0.23097 0.10779 0.82055 0.0
C1331 C 0.20035 0.15155 0.80335 0.0
O1332 O 0.19728 0.1084 0.78797 0.0
O1333 O 0.19255 0.11317 0.81127 0.0
O1334 O 0.20516 0.14438 0.81489 0.0
O1335 O 0.20276 0.145 0.79078 0.0
C1336 C 0.2348 0.12719 0.7787 0.0
O1337 O 0.22812 0.12175 0.82284 0.0
O1338 O 0.22514 0.10234 0.80861 0.0
In1339 In 0.37315 0.96239 0.05174 0.0
O1340 O 0.375 0.97663 0.07382 0.0
O1341 O 0.39405 0.97551 0.05884 0.0
C1342 C 0.34559 0.94885 0.05421 0.0
C1343 C 0.36932 0.9823 0.02869 0.0
C1344 C 0.39173 0.93781 0.05046 0.0
O1345 O 0.35283 0.95346 0.06578 0.0
O1346 O 0.35208 0.95147 0.04166 0.0
O1347 O 0.38954 0.94648 0.0392 0.0
O1348 O 0.38438 0.9414 0.06229 0.0
C1349 C 0.38859 0.98066 0.07109 0.0
O1350 O 0.37669 0.97 0.0273 0.0
O1351 O 0.36363 0.98453 0.04176 0.0
In1352 In 0.94596 0.03705 0.62604 0.0
O1353 O 0.97014 0.02861 0.62238 0.0
O1354 O 0.95517 0.01441 0.63519 0.0
C1355 C 0.94805 0.06168 0.60768 0.0
C1356 C 0.92602 0.01981 0.61015 0.0
C1357 C 0.94376 0.051 0.65344 0.0
O1358 O 0.959 0.05256 0.60968 0.0
O1359 O 0.93615 0.05852 0.61513 0.0
O1360 O 0.93209 0.04661 0.64621 0.0
O1361 O 0.95625 0.04784 0.64709 0.0
C1362 C 0.96831 0.01624 0.62952 0.0
O1363 O 0.92399 0.02258 0.62417 0.0
O1364 O 0.93785 0.02571 0.60452 0.0
In1365 In 0.46401 0.69655 0.87525 0.0
O1366 O 0.47229 0.72084 0.87185 0.0
O1367 O 0.48658 0.7058 0.88449 0.0
C1368 C 0.43906 0.69871 0.85727 0.0
C1369 C 0.48135 0.67686 0.85916 0.0
C1370 C 0.45057 0.69381 0.90284 0.0
O1371 O 0.44818 0.70968 0.85923 0.0
O1372 O 0.44242 0.68676 0.86454 0.0
O1373 O 0.45479 0.68229 0.89527 0.0
O1374 O 0.45359 0.70644 0.89668 0.0
C1375 C 0.48466 0.719 0.87899 0.0
O1376 O 0.47844 0.67461 0.87311 0.0
O1377 O 0.47552 0.68879 0.85366 0.0
In1378 In 0.80313 0.2118 0.12616 0.0
O1379 O 0.7788 0.21971 0.12243 0.0
O1380 O 0.79347 0.23433 0.13513 0.0
C1381 C 0.8012 0.18708 0.10787 0.0
C1382 C 0.823 0.22936 0.11052 0.0
C1383 C 0.80545 0.19809 0.15366 0.0
O1384 O 0.79022 0.19618 0.10981 0.0
O1385 O 0.81307 0.19033 0.11532 0.0
O1386 O 0.81709 0.2022 0.14623 0.0
O1387 O 0.79293 0.2014 0.14746 0.0
C1388 C 0.78038 0.23217 0.12947 0.0
O1389 O 0.82503 0.22638 0.1245 0.0
O1390 O 0.8112 0.22351 0.10479 0.0
In1391 In 0.2865 0.54946 0.37468 0.0
O1392 O 0.27712 0.52573 0.36997 0.0
O1393 O 0.2641 0.54036 0.38433 0.0
C1394 C 0.3115 0.54808 0.35678 0.0
C1395 C 0.26946 0.56952 0.35879 0.0
C1396 C 0.30021 0.55123 0.40218 0.0
O1397 O 0.30277 0.53679 0.35872 0.0
O1398 O 0.30774 0.55992 0.36404 0.0
O1399 O 0.29519 0.56294 0.39544 0.0
O1400 O 0.29784 0.53884 0.39527 0.0
C1401 C 0.26515 0.52756 0.37778 0.0
O1402 O 0.27239 0.57164 0.37277 0.0
O1403 O 0.27514 0.55757 0.35319 0.0
In1404 In 0.94176 0.21404 0.62138 0.0
O1405 O 0.96452 0.22298 0.6303 0.0
O1406 O 0.95424 0.23465 0.61166 0.0
C1407 C 0.94548 0.19105 0.6415 0.0
C1408 C 0.91791 0.23083 0.63197 0.0
C1409 C 0.94144 0.19965 0.59408 0.0
O1410 O 0.95301 0.20332 0.64233 0.0
O1411 O 0.93619 0.1904 0.63051 0.0
O1412 O 0.9294 0.20466 0.60018 0.0
O1413 O 0.95341 0.20222 0.60156 0.0
C1414 C 0.96532 0.23381 0.62082 0.0
O1415 O 0.92689 0.23563 0.62186 0.0
O1416 O 0.92064 0.21747 0.63638 0.0
In1417 In 0.28604 0.69717 0.87364 0.0
O1418 O 0.27206 0.67497 0.87569 0.0
O1419 O 0.27366 0.68977 0.89485 0.0
C1420 C 0.2995 0.69496 0.84605 0.0
C1421 C 0.26537 0.71956 0.86992 0.0
C1422 C 0.31089 0.69865 0.89181 0.0
O1423 O 0.29487 0.68332 0.85317 0.0
O1424 O 0.29692 0.70745 0.85267 0.0
O1425 O 0.30209 0.70986 0.8898 0.0
O1426 O 0.30727 0.6868 0.88451 0.0
C1427 C 0.2684 0.67755 0.88941 0.0
O1428 O 0.2776 0.72135 0.87732 0.0
O1429 O 0.26363 0.70646 0.86414 0.0
In1430 In 0.80571 0.03491 0.12113 0.0
O1431 O 0.8214 0.01388 0.12136 0.0
O1432 O 0.82594 0.03144 0.13723 0.0
C1433 C 0.80665 0.04897 0.0937 0.0
C1434 C 0.78226 0.01498 0.12053 0.0
C1435 C 0.80172 0.05826 0.14077 0.0
O1436 O 0.81856 0.04431 0.10029 0.0
O1437 O 0.79446 0.04621 0.10077 0.0
O1438 O 0.79432 0.04593 0.14184 0.0
O1439 O 0.811 0.0588 0.12976 0.0
C1440 C 0.82955 0.0185 0.13223 0.0
O1441 O 0.78265 0.02621 0.12954 0.0
O1442 O 0.79369 0.01381 0.11185 0.0
In1443 In 0.46352 0.55196 0.37208 0.0
O1444 O 0.47763 0.57405 0.37454 0.0
O1445 O 0.47579 0.55901 0.39348 0.0
C1446 C 0.45011 0.55496 0.3445 0.0
C1447 C 0.48411 0.52954 0.3681 0.0
C1448 C 0.43876 0.54986 0.39032 0.0
O1449 O 0.45434 0.56641 0.35217 0.0
O1450 O 0.45306 0.54228 0.35057 0.0
O1451 O 0.44752 0.53872 0.38784 0.0
O1452 O 0.44234 0.56195 0.38341 0.0
C1453 C 0.48114 0.57128 0.38826 0.0
O1454 O 0.47173 0.52765 0.37522 0.0
O1455 O 0.48604 0.54277 0.36269 0.0
In1456 In 0.62613 0.44718 0.536 0.0
O1457 O 0.62279 0.47136 0.52759 0.0
O1458 O 0.63609 0.45644 0.51374 0.0
C1459 C 0.60715 0.44912 0.56019 0.0
C1460 C 0.61058 0.42775 0.51792 0.0
C1461 C 0.65334 0.44502 0.5503 0.0
O1462 O 0.60981 0.46027 0.5515 0.0
O1463 O 0.61423 0.43706 0.55681 0.0
O1464 O 0.64626 0.43332 0.54571 0.0
O1465 O 0.64691 0.45748 0.54723 0.0
C1466 C 0.63034 0.46957 0.51545 0.0
O1467 O 0.62413 0.42491 0.52203 0.0
O1468 O 0.60523 0.4401 0.52296 0.0
In1469 In 0.12566 0.30163 0.7135 0.0
O1470 O 0.12341 0.32374 0.72762 0.0
O1471 O 0.10449 0.30863 0.72623 0.0
C1472 C 0.15314 0.3046 0.69994 0.0
C1473 C 0.12998 0.27904 0.73381 0.0
C1474 C 0.10724 0.29958 0.68886 0.0
O1475 O 0.14555 0.31606 0.70426 0.0
O1476 O 0.14704 0.29193 0.70285 0.0
O1477 O 0.10967 0.28847 0.69768 0.0
O1478 O 0.11428 0.31163 0.69235 0.0
C1479 C 0.10978 0.32093 0.73144 0.0
O1480 O 0.12257 0.27729 0.72159 0.0
O1481 O 0.13546 0.29224 0.73576 0.0
In1482 In 0.19583 0.87555 0.96269 0.0
O1483 O 0.17393 0.87332 0.97714 0.0
O1484 O 0.18848 0.85408 0.97466 0.0
C1485 C 0.19305 0.90323 0.94949 0.0
C1486 C 0.2185 0.87923 0.98308 0.0
C1487 C 0.19762 0.85754 0.93774 0.0
O1488 O 0.18154 0.89563 0.95368 0.0
O1489 O 0.20568 0.89704 0.95238 0.0
O1490 O 0.20876 0.85962 0.94661 0.0
O1491 O 0.18569 0.86474 0.94132 0.0
C1492 C 0.17644 0.85948 0.98034 0.0
O1493 O 0.22019 0.87209 0.97068 0.0
O1494 O 0.20535 0.88478 0.98514 0.0
In1495 In 0.62269 0.94636 0.21349 0.0
O1496 O 0.62606 0.97068 0.22155 0.0
O1497 O 0.61351 0.95574 0.23603 0.0
C1498 C 0.64072 0.94862 0.18861 0.0
C1499 C 0.63884 0.9269 0.23101 0.0
C1500 C 0.59503 0.94338 0.20025 0.0
O1501 O 0.63839 0.95967 0.19753 0.0
O1502 O 0.63376 0.93653 0.1921 0.0
O1503 O 0.6028 0.93192 0.20425 0.0
O1504 O 0.60103 0.95605 0.20336 0.0
C1505 C 0.61898 0.96893 0.23397 0.0
O1506 O 0.62498 0.9244 0.22784 0.0
O1507 O 0.64422 0.93896 0.22536 0.0
In1508 In 0.05279 0.3727 0.96307 0.0
O1509 O 0.07476 0.37498 0.97738 0.0
O1510 O 0.0604 0.39433 0.97464 0.0
C1511 C 0.05585 0.34502 0.94989 0.0
C1512 C 0.03037 0.36909 0.98378 0.0
C1513 C 0.05073 0.39064 0.93808 0.0
O1514 O 0.06725 0.3527 0.95417 0.0
O1515 O 0.04313 0.35111 0.95268 0.0
O1516 O 0.03969 0.38862 0.9471 0.0
O1517 O 0.06268 0.38342 0.94154 0.0
C1518 C 0.07241 0.3889 0.98036 0.0
O1519 O 0.02846 0.37601 0.9713 0.0
O1520 O 0.0436 0.36368 0.98574 0.0
In1521 In 0.62215 0.80201 0.53677 0.0
O1522 O 0.6242 0.82416 0.5227 0.0
O1523 O 0.6432 0.80913 0.52394 0.0
C1524 C 0.59466 0.80446 0.55043 0.0
C1525 C 0.61818 0.77941 0.51637 0.0
C1526 C 0.64069 0.80046 0.56135 0.0
O1527 O 0.60186 0.81604 0.54577 0.0
O1528 O 0.60115 0.79192 0.5478 0.0
O1529 O 0.63845 0.78925 0.55262 0.0
O1530 O 0.63342 0.81236 0.55782 0.0
C1531 C 0.63782 0.82141 0.51878 0.0
O1532 O 0.62557 0.77771 0.52861 0.0
O1533 O 0.6125 0.79253 0.51448 0.0
In1534 In 0.19547 0.87251 0.78595 0.0
O1535 O 0.21977 0.87587 0.77772 0.0
O1536 O 0.20471 0.86334 0.76335 0.0
C1537 C 0.19755 0.8905 0.81089 0.0
C1538 C 0.17587 0.88862 0.76858 0.0
C1539 C 0.19271 0.84486 0.79922 0.0
O1540 O 0.20856 0.88849 0.80184 0.0
O1541 O 0.1856 0.88326 0.80748 0.0
O1542 O 0.1812 0.85246 0.79507 0.0
O1543 O 0.20534 0.85102 0.79626 0.0
C1544 C 0.21792 0.86879 0.76531 0.0
O1545 O 0.17349 0.87472 0.77163 0.0
O1546 O 0.18788 0.89406 0.77428 0.0
In1547 In 0.55332 0.3754 0.28533 0.0
O1548 O 0.57524 0.37323 0.27088 0.0
O1549 O 0.56075 0.35394 0.27335 0.0
C1550 C 0.55616 0.40311 0.2985 0.0
C1551 C 0.53063 0.37899 0.26494 0.0
C1552 C 0.55145 0.35739 0.31028 0.0
O1553 O 0.56765 0.39547 0.29435 0.0
O1554 O 0.54351 0.39695 0.2956 0.0
O1555 O 0.54032 0.35954 0.30142 0.0
O1556 O 0.56342 0.3645 0.30669 0.0
C1557 C 0.57277 0.35938 0.26766 0.0
O1558 O 0.52896 0.37187 0.27735 0.0
O1559 O 0.54377 0.38456 0.26286 0.0
In1560 In 0.46296 0.87296 0.05245 0.0
O1561 O 0.47691 0.87505 0.07467 0.0
O1562 O 0.47553 0.8941 0.0597 0.0
C1563 C 0.4494 0.84541 0.05479 0.0
C1564 C 0.48366 0.86915 0.03011 0.0
C1565 C 0.4383 0.89137 0.05078 0.0
O1566 O 0.45394 0.85264 0.06641 0.0
O1567 O 0.45212 0.8519 0.04227 0.0
O1568 O 0.44705 0.88908 0.03958 0.0
O1569 O 0.44186 0.88419 0.06272 0.0
C1570 C 0.48071 0.88871 0.07197 0.0
O1571 O 0.47139 0.87646 0.02825 0.0
O1572 O 0.48541 0.86346 0.04324 0.0
In1573 In 0.62696 0.71378 0.80274 0.0
O1574 O 0.62341 0.72191 0.77847 0.0
O1575 O 0.63648 0.73612 0.79324 0.0
C1576 C 0.60849 0.68915 0.80104 0.0
C1577 C 0.61129 0.73177 0.82215 0.0
C1578 C 0.6545 0.70018 0.80519 0.0
O1579 O 0.61086 0.69786 0.78984 0.0
O1580 O 0.61559 0.69274 0.81302 0.0
O1581 O 0.64717 0.7046 0.81678 0.0
O1582 O 0.64813 0.70305 0.79264 0.0
C1583 C 0.63075 0.7342 0.78014 0.0
O1584 O 0.6249 0.72781 0.82493 0.0
O1585 O 0.60592 0.72663 0.80985 0.0
In1586 In 0.78551 0.87568 0.55209 0.0
O1587 O 0.77141 0.87353 0.57421 0.0
O1588 O 0.77327 0.85436 0.55945 0.0
C1589 C 0.79915 0.90317 0.55478 0.0
C1590 C 0.76484 0.87958 0.52971 0.0
C1591 C 0.81021 0.85734 0.5502 0.0
O1592 O 0.79458 0.89581 0.56629 0.0
O1593 O 0.7964 0.89686 0.54216 0.0
O1594 O 0.80134 0.85954 0.53909 0.0
O1595 O 0.80675 0.86455 0.56216 0.0
C1596 C 0.76789 0.85977 0.57163 0.0
O1597 O 0.77716 0.87236 0.52783 0.0
O1598 O 0.76302 0.88513 0.5429 0.0
In1599 In 0.62285 0.03654 0.30247 0.0
O1600 O 0.6263 0.02813 0.27826 0.0
O1601 O 0.61346 0.01402 0.29331 0.0
C1602 C 0.64109 0.06131 0.30051 0.0
C1603 C 0.63862 0.01899 0.32217 0.0
C1604 C 0.59525 0.04998 0.30482 0.0
O1605 O 0.63905 0.05229 0.28949 0.0
O1606 O 0.63376 0.05796 0.31243 0.0
O1607 O 0.6026 0.04567 0.31645 0.0
O1608 O 0.60165 0.04711 0.29228 0.0
C1609 C 0.61906 0.01582 0.28014 0.0
O1610 O 0.62485 0.02252 0.32465 0.0
O1611 O 0.64412 0.02433 0.31002 0.0
In1612 In 0.46207 0.87542 0.6981 0.0
O1613 O 0.47621 0.87336 0.67597 0.0
O1614 O 0.47423 0.85412 0.69062 0.0
C1615 C 0.44838 0.90291 0.69597 0.0
C1616 C 0.48268 0.87919 0.72058 0.0
C1617 C 0.4373 0.85715 0.69931 0.0
O1618 O 0.45335 0.89601 0.68433 0.0
O1619 O 0.45076 0.89615 0.70843 0.0
O1620 O 0.44608 0.85905 0.71056 0.0
O1621 O 0.44089 0.86465 0.68757 0.0
C1622 C 0.47962 0.85955 0.67846 0.0
O1623 O 0.47046 0.87176 0.72231 0.0
O1624 O 0.48445 0.88497 0.70748 0.0
In1625 In 0.62267 0.71264 0.44711 0.0
O1626 O 0.62592 0.72075 0.47145 0.0
O1627 O 0.61291 0.73489 0.45658 0.0
C1628 C 0.64127 0.68809 0.4487 0.0
C1629 C 0.63837 0.7307 0.4278 0.0
C1630 C 0.59519 0.69897 0.44454 0.0
O1631 O 0.63898 0.69683 0.45991 0.0
O1632 O 0.63401 0.6916 0.4368 0.0
O1633 O 0.60245 0.70362 0.43299 0.0
O1634 O 0.60163 0.70159 0.45711 0.0
C1635 C 0.6185 0.73298 0.46974 0.0
O1636 O 0.62479 0.72672 0.42497 0.0
O1637 O 0.6437 0.72557 0.44011 0.0
In1638 In 0.78671 0.87566 0.19812 0.0
O1639 O 0.77284 0.87765 0.17581 0.0
O1640 O 0.77394 0.89666 0.19083 0.0
C1641 C 0.80042 0.84824 0.19558 0.0
C1642 C 0.76635 0.87084 0.22063 0.0
C1643 C 0.81103 0.89456 0.19962 0.0
O1644 O 0.7954 0.8553 0.18405 0.0
O1645 O 0.79819 0.85487 0.20814 0.0
O1646 O 0.80116 0.89381 0.21007 0.0
O1647 O 0.80878 0.8856 0.18859 0.0
C1648 C 0.76887 0.89125 0.17853 0.0
O1649 O 0.7788 0.8778 0.22271 0.0
O1650 O 0.76428 0.86602 0.2072 0.0
In1651 In 0.62494 0.03778 0.94826 0.0
O1652 O 0.6233 0.02403 0.92581 0.0
O1653 O 0.60467 0.0237 0.94134 0.0
C1654 C 0.65196 0.05238 0.94588 0.0
C1655 C 0.63007 0.01772 0.97094 0.0
C1656 C 0.60518 0.06144 0.94957 0.0
O1657 O 0.64519 0.04702 0.93433 0.0
O1658 O 0.64528 0.05001 0.95839 0.0
O1659 O 0.60653 0.05188 0.96023 0.0
O1660 O 0.61395 0.0592 0.93839 0.0
C1661 C 0.61007 0.0191 0.92885 0.0
O1662 O 0.62274 0.02998 0.97283 0.0
O1663 O 0.63521 0.01572 0.95761 0.0
In1664 In 0.0528 0.96246 0.37318 0.0
O1665 O 0.02841 0.97035 0.37674 0.0
O1666 O 0.04313 0.98486 0.36397 0.0
C1667 C 0.05107 0.93748 0.39115 0.0
C1668 C 0.07223 0.98013 0.38919 0.0
C1669 C 0.05575 0.94928 0.34551 0.0
O1670 O 0.0399 0.94632 0.38907 0.0
O1671 O 0.063 0.94111 0.38398 0.0
O1672 O 0.0672 0.95356 0.35313 0.0
O1673 O 0.04307 0.95207 0.35166 0.0
C1674 C 0.03001 0.98274 0.36957 0.0
O1675 O 0.07464 0.977 0.37531 0.0
O1676 O 0.06026 0.97438 0.39466 0.0
In1677 In 0.53596 0.30086 0.12289 0.0
O1678 O 0.52198 0.32304 0.12511 0.0
O1679 O 0.52365 0.30815 0.14419 0.0
C1680 C 0.54971 0.30339 0.09547 0.0
C1681 C 0.51544 0.27834 0.11888 0.0
C1682 C 0.56069 0.29943 0.14121 0.0
O1683 O 0.54423 0.31485 0.1023 0.0
O1684 O 0.5478 0.29088 0.10226 0.0
O1685 O 0.55187 0.28823 0.1392 0.0
O1686 O 0.55714 0.31126 0.13383 0.0
C1687 C 0.5184 0.32041 0.13885 0.0
O1688 O 0.52766 0.2766 0.12631 0.0
O1689 O 0.51364 0.29147 0.11319 0.0
In1690 In 0.19571 0.78606 0.8733 0.0
O1691 O 0.17386 0.77154 0.87548 0.0
O1692 O 0.18826 0.7742 0.8948 0.0
C1693 C 0.19285 0.79914 0.84557 0.0
C1694 C 0.21842 0.76568 0.86975 0.0
C1695 C 0.19755 0.81105 0.89125 0.0
O1696 O 0.18137 0.795 0.85322 0.0
O1697 O 0.20551 0.79628 0.85173 0.0
O1698 O 0.20868 0.80218 0.88915 0.0
O1699 O 0.18559 0.80746 0.88411 0.0
C1700 C 0.17629 0.76842 0.88935 0.0
O1701 O 0.22007 0.77811 0.87686 0.0
O1702 O 0.20528 0.76359 0.86417 0.0
In1703 In 0.71179 0.44845 0.62517 0.0
O1704 O 0.72556 0.42611 0.62741 0.0
O1705 O 0.72457 0.44139 0.64622 0.0
C1706 C 0.69818 0.4459 0.5977 0.0
C1707 C 0.73234 0.4708 0.62045 0.0
C1708 C 0.68739 0.44986 0.64397 0.0
O1709 O 0.70326 0.43439 0.60474 0.0
O1710 O 0.70029 0.45846 0.60438 0.0
O1711 O 0.69701 0.46052 0.64298 0.0
O1712 O 0.68992 0.43868 0.63528 0.0
C1713 C 0.72957 0.429 0.64097 0.0
O1714 O 0.71991 0.47296 0.62743 0.0
O1715 O 0.73427 0.45738 0.61552 0.0
In1716 In 0.05368 0.78549 0.37585 0.0
O1717 O 0.02928 0.7777 0.37228 0.0
O1718 O 0.04395 0.76307 0.38496 0.0
C1719 C 0.05187 0.81048 0.35792 0.0
C1720 C 0.07312 0.76779 0.35982 0.0
C1721 C 0.05646 0.79873 0.40354 0.0
O1722 O 0.04076 0.80156 0.35993 0.0
O1723 O 0.0638 0.80692 0.36512 0.0
O1724 O 0.06797 0.79465 0.3959 0.0
O1725 O 0.04383 0.79568 0.39741 0.0
C1726 C 0.03083 0.76527 0.37939 0.0
O1727 O 0.0755 0.77086 0.37372 0.0
O1728 O 0.06118 0.77362 0.35435 0.0
In1729 In 0.71271 0.30046 0.12356 0.0
O1730 O 0.72091 0.27602 0.12109 0.0
O1731 O 0.73519 0.29152 0.13319 0.0
C1732 C 0.68823 0.29909 0.10487 0.0
C1733 C 0.73031 0.32001 0.10765 0.0
C1734 C 0.69903 0.30291 0.15101 0.0
O1735 O 0.69767 0.28827 0.10603 0.0
O1736 O 0.69099 0.31039 0.11334 0.0
O1737 O 0.70413 0.31445 0.14403 0.0
O1738 O 0.70117 0.29038 0.14429 0.0
C1739 C 0.73329 0.27813 0.12816 0.0
O1740 O 0.72654 0.32276 0.12131 0.0
O1741 O 0.72521 0.30766 0.10237 0.0
In1742 In 0.19631 0.96193 0.87541 0.0
O1743 O 0.17456 0.97662 0.87331 0.0
O1744 O 0.18887 0.97388 0.85393 0.0
C1745 C 0.1933 0.94895 0.90318 0.0
C1746 C 0.21934 0.98195 0.87895 0.0
C1747 C 0.19798 0.93694 0.85742 0.0
O1748 O 0.18186 0.95305 0.89545 0.0
O1749 O 0.20599 0.9518 0.89707 0.0
O1750 O 0.20909 0.94587 0.85934 0.0
O1751 O 0.18612 0.94048 0.86476 0.0
C1752 C 0.17694 0.97971 0.85942 0.0
O1753 O 0.22085 0.9694 0.87204 0.0
O1754 O 0.20617 0.98437 0.88432 0.0
In1755 In 0.5344 0.44932 0.6233 0.0
O1756 O 0.52057 0.42704 0.62113 0.0
O1757 O 0.52175 0.44216 0.6022 0.0
C1758 C 0.54784 0.44703 0.65085 0.0
C1759 C 0.51356 0.47159 0.62684 0.0
C1760 C 0.55944 0.45025 0.60542 0.0
O1761 O 0.54215 0.43557 0.6442 0.0
O1762 O 0.54635 0.45945 0.64378 0.0
O1763 O 0.55122 0.46182 0.60782 0.0
O1764 O 0.55513 0.43831 0.61219 0.0
C1765 C 0.51666 0.42983 0.60753 0.0
O1766 O 0.52517 0.47305 0.61844 0.0
O1767 O 0.51263 0.45897 0.63376 0.0
In1768 In 0.37421 0.54999 0.46181 0.0
O1769 O 0.37588 0.57237 0.47567 0.0
O1770 O 0.39503 0.55749 0.47473 0.0
C1771 C 0.34676 0.55152 0.44797 0.0
C1772 C 0.37083 0.52784 0.4828 0.0
C1773 C 0.39249 0.5489 0.43705 0.0
O1774 O 0.35333 0.56329 0.45311 0.0
O1775 O 0.35385 0.53922 0.4502 0.0
O1776 O 0.39002 0.5374 0.44535 0.0
O1777 O 0.38559 0.56084 0.44113 0.0
C1778 C 0.38947 0.56974 0.47978 0.0
O1779 O 0.37942 0.52645 0.47131 0.0
O1780 O 0.36364 0.54032 0.48353 0.0
In1781 In 0.87271 0.69709 0.28596 0.0
O1782 O 0.8746 0.67495 0.27184 0.0
O1783 O 0.89373 0.6898 0.27314 0.0
C1784 C 0.84518 0.69452 0.29951 0.0
C1785 C 0.86874 0.71971 0.26558 0.0
C1786 C 0.89122 0.69883 0.31057 0.0
O1787 O 0.85255 0.68296 0.29507 0.0
O1788 O 0.85153 0.7071 0.29674 0.0
O1789 O 0.88897 0.70997 0.30175 0.0
O1790 O 0.88398 0.68689 0.30709 0.0
C1791 C 0.88824 0.67759 0.26794 0.0
O1792 O 0.87612 0.7214 0.27784 0.0
O1793 O 0.86308 0.70658 0.26366 0.0
In1794 In 0.80283 0.12362 0.03561 0.0
O1795 O 0.77856 0.12744 0.02757 0.0
O1796 O 0.79342 0.11514 0.01281 0.0
C1797 C 0.80101 0.14119 0.06084 0.0
C1798 C 0.82291 0.13974 0.01882 0.0
C1799 C 0.80524 0.09573 0.04838 0.0
O1800 O 0.79005 0.13965 0.05165 0.0
O1801 O 0.8128 0.13368 0.05744 0.0
O1802 O 0.8168 0.10304 0.04385 0.0
O1803 O 0.79269 0.10231 0.04604 0.0
C1804 C 0.78028 0.12067 0.01498 0.0
O1805 O 0.8249 0.12569 0.02145 0.0
O1806 O 0.81099 0.14531 0.02459 0.0
In1807 In 0.37792 0.05512 0.78391 0.0
O1808 O 0.36878 0.03254 0.77489 0.0
O1809 O 0.38863 0.04183 0.76438 0.0
C1810 C 0.35739 0.05178 0.80661 0.0
C1811 C 0.36768 0.07867 0.76652 0.0
C1812 C 0.40523 0.0556 0.79818 0.0
O1813 O 0.35659 0.04427 0.79433 0.0
O1814 O 0.3685 0.06089 0.80739 0.0
O1815 O 0.3997 0.06734 0.79196 0.0
O1816 O 0.39717 0.0438 0.79687 0.0
C1817 C 0.37895 0.03116 0.76476 0.0
O1818 O 0.37575 0.06803 0.76131 0.0
O1819 O 0.36517 0.07778 0.78061 0.0
In1820 In 0.94559 0.62547 0.03641 0.0
O1821 O 0.92373 0.62319 0.02192 0.0
O1822 O 0.9383 0.60396 0.02443 0.0
C1823 C 0.94261 0.65323 0.04944 0.0
C1824 C 0.96834 0.6291 0.0161 0.0
C1825 C 0.94729 0.60748 0.06138 0.0
O1826 O 0.93117 0.64556 0.04521 0.0
O1827 O 0.95529 0.64705 0.04671 0.0
O1828 O 0.95847 0.60958 0.05256 0.0
O1829 O 0.93537 0.61466 0.05775 0.0
C1830 C 0.92626 0.60934 0.01873 0.0
O1831 O 0.97001 0.62206 0.02856 0.0
O1832 O 0.95517 0.63457 0.01394 0.0
In1833 In 0.37572 0.19595 0.46243 0.0
O1834 O 0.37237 0.2203 0.47041 0.0
O1835 O 0.3854 0.20556 0.48467 0.0
C1836 C 0.3572 0.19772 0.43784 0.0
C1837 C 0.36008 0.17658 0.48051 0.0
C1838 C 0.40326 0.19351 0.44886 0.0
O1839 O 0.35943 0.20884 0.4467 0.0
O1840 O 0.36447 0.18579 0.44126 0.0
O1841 O 0.39591 0.1819 0.4532 0.0
O1842 O 0.39688 0.20605 0.45174 0.0
C1843 C 0.37979 0.21869 0.48265 0.0
O1844 O 0.37369 0.17381 0.47657 0.0
O1845 O 0.3547 0.18885 0.47533 0.0
In1846 In 0.80165 0.12324 0.21192 0.0
O1847 O 0.82385 0.12107 0.22596 0.0
O1848 O 0.80923 0.10185 0.22386 0.0
C1849 C 0.80452 0.1508 0.19853 0.0
C1850 C 0.77926 0.12787 0.23246 0.0
C1851 C 0.79959 0.10465 0.18739 0.0
O1852 O 0.81599 0.14335 0.20309 0.0
O1853 O 0.79185 0.14448 0.20104 0.0
O1854 O 0.78931 0.10538 0.19744 0.0
O1855 O 0.81072 0.11351 0.18955 0.0
C1856 C 0.82137 0.10726 0.22931 0.0
O1857 O 0.77706 0.12126 0.21985 0.0
O1858 O 0.79277 0.13242 0.23462 0.0
In1859 In 0.44678 0.62419 0.71358 0.0
O1860 O 0.42492 0.62645 0.72801 0.0
O1861 O 0.43957 0.64564 0.72572 0.0
C1862 C 0.44372 0.59652 0.7005 0.0
C1863 C 0.46969 0.62033 0.73366 0.0
C1864 C 0.44823 0.64203 0.6885 0.0
O1865 O 0.43235 0.60389 0.70543 0.0
O1866 O 0.4564 0.60295 0.70258 0.0
O1867 O 0.45945 0.6401 0.6973 0.0
O1868 O 0.43636 0.63482 0.69225 0.0
C1869 C 0.42749 0.64026 0.73132 0.0
O1870 O 0.4712 0.62767 0.72137 0.0
O1871 O 0.45658 0.6147 0.7358 0.0
In1872 In 0.53598 0.62506 0.44677 0.0
O1873 O 0.52186 0.62303 0.42466 0.0
O1874 O 0.52403 0.60368 0.43912 0.0
C1875 C 0.54925 0.65275 0.44438 0.0
C1876 C 0.51539 0.62858 0.46931 0.0
C1877 C 0.56087 0.60696 0.4484 0.0
O1878 O 0.54481 0.64544 0.43278 0.0
O1879 O 0.54658 0.64628 0.45692 0.0
O1880 O 0.55189 0.60881 0.45949 0.0
O1881 O 0.55742 0.61442 0.4366 0.0
C1882 C 0.51857 0.60918 0.42702 0.0
O1883 O 0.52785 0.62157 0.4711 0.0
O1884 O 0.51337 0.63408 0.45613 0.0
In1885 In 0.37265 0.78582 0.69583 0.0
O1886 O 0.37603 0.77806 0.72025 0.0
O1887 O 0.36352 0.76337 0.70547 0.0
C1888 C 0.39085 0.81063 0.69802 0.0
C1889 C 0.38852 0.76802 0.67634 0.0
C1890 C 0.34494 0.79902 0.69298 0.0
O1891 O 0.38862 0.80163 0.70902 0.0
O1892 O 0.38373 0.80725 0.68599 0.0
O1893 O 0.35271 0.79514 0.68149 0.0
O1894 O 0.35098 0.79586 0.70562 0.0
C1895 C 0.36898 0.7656 0.71864 0.0
O1896 O 0.37473 0.77145 0.67383 0.0
O1897 O 0.39398 0.77356 0.68842 0.0
In1898 In 0.21307 0.62298 0.94666 0.0
O1899 O 0.22139 0.62636 0.97092 0.0
O1900 O 0.23564 0.61372 0.95583 0.0
C1901 C 0.18816 0.64105 0.94847 0.0
C1902 C 0.23053 0.63914 0.9272 0.0
C1903 C 0.19975 0.59535 0.94399 0.0
O1904 O 0.19703 0.63894 0.95961 0.0
O1905 O 0.19173 0.63385 0.93653 0.0
O1906 O 0.20416 0.60278 0.93246 0.0
O1907 O 0.20248 0.60167 0.9566 0.0
C1908 C 0.23377 0.61924 0.96903 0.0
O1909 O 0.22725 0.62532 0.92461 0.0
O1910 O 0.22501 0.64447 0.93934 0.0
In1911 In 0.37618 0.46215 0.19628 0.0
O1912 O 0.37278 0.47048 0.22053 0.0
O1913 O 0.38553 0.48468 0.20549 0.0
C1914 C 0.35787 0.43743 0.19822 0.0
C1915 C 0.36036 0.47978 0.17666 0.0
C1916 C 0.40374 0.44864 0.1938 0.0
O1917 O 0.35999 0.44639 0.20928 0.0
O1918 O 0.36514 0.44082 0.18628 0.0
O1919 O 0.39638 0.45302 0.18221 0.0
O1920 O 0.39738 0.45149 0.20636 0.0
C1921 C 0.37997 0.48282 0.21867 0.0
O1922 O 0.37413 0.47626 0.17415 0.0
O1923 O 0.35489 0.47438 0.1888 0.0
In1924 In 0.53776 0.62371 0.80159 0.0
O1925 O 0.52399 0.62567 0.82396 0.0
O1926 O 0.52462 0.64453 0.80871 0.0
C1927 C 0.55164 0.59627 0.80313 0.0
C1928 C 0.5171 0.61984 0.77925 0.0
C1929 C 0.56221 0.64241 0.80042 0.0
O1930 O 0.54664 0.60289 0.81493 0.0
O1931 O 0.54925 0.60331 0.79084 0.0
O1932 O 0.55358 0.64022 0.78912 0.0
O1933 O 0.55864 0.63501 0.81223 0.0
C1934 C 0.51973 0.63916 0.8211 0.0
O1935 O 0.52919 0.62748 0.77749 0.0
O1936 O 0.51552 0.61386 0.79228 0.0
In1937 In 0.37578 0.78576 0.05186 0.0
O1938 O 0.37262 0.77766 0.0275 0.0
O1939 O 0.38558 0.76352 0.04243 0.0
C1940 C 0.35719 0.81031 0.05025 0.0
C1941 C 0.36007 0.76769 0.07115 0.0
C1942 C 0.40325 0.79941 0.05448 0.0
O1943 O 0.35945 0.80155 0.03906 0.0
O1944 O 0.36447 0.80682 0.06215 0.0
O1945 O 0.39599 0.79472 0.06601 0.0
O1946 O 0.39681 0.79683 0.0419 0.0
C1947 C 0.38005 0.76543 0.02924 0.0
O1948 O 0.37363 0.77172 0.07402 0.0
O1949 O 0.35476 0.77278 0.05881 0.0
In1950 In 0.21266 0.62272 0.30169 0.0
O1951 O 0.22044 0.62055 0.27709 0.0
O1952 O 0.23484 0.63274 0.2924 0.0
C1953 C 0.1886 0.60347 0.30048 0.0
C1954 C 0.23095 0.60736 0.32107 0.0
C1955 C 0.19864 0.65002 0.30399 0.0
O1956 O 0.19828 0.60443 0.28988 0.0
O1957 O 0.1909 0.61239 0.31153 0.0
O1958 O 0.20388 0.64321 0.31557 0.0
O1959 O 0.20079 0.6432 0.29151 0.0
C1960 C 0.23277 0.62776 0.27903 0.0
O1961 O 0.22643 0.62073 0.32409 0.0
O1962 O 0.22619 0.60208 0.30859 0.0
In1963 In 0.37047 0.46385 0.55512 0.0
O1964 O 0.37955 0.47299 0.53252 0.0
O1965 O 0.36038 0.48414 0.5424 0.0
C1966 C 0.3904 0.44074 0.55111 0.0
C1967 C 0.381 0.48067 0.57895 0.0
C1968 C 0.34323 0.44944 0.55582 0.0
O1969 O 0.39131 0.45308 0.54371 0.0
O1970 O 0.37944 0.44009 0.56043 0.0
O1971 O 0.3495 0.45445 0.56777 0.0
O1972 O 0.35051 0.45205 0.54372 0.0
C1973 C 0.36979 0.48354 0.53151 0.0
O1974 O 0.37079 0.48539 0.57004 0.0
O1975 O 0.38559 0.46739 0.57612 0.0
In1976 In 0.9451 0.5357 0.12548 0.0
O1977 O 0.96954 0.52801 0.12196 0.0
O1978 O 0.95493 0.51337 0.1347 0.0
C1979 C 0.94698 0.56072 0.10757 0.0
C1980 C 0.92576 0.51795 0.10939 0.0
C1981 C 0.94201 0.54889 0.15315 0.0
O1982 O 0.95809 0.55182 0.10965 0.0
O1983 O 0.93501 0.55713 0.1147 0.0
O1984 O 0.93059 0.54482 0.14537 0.0
O1985 O 0.95471 0.54587 0.14715 0.0
C1986 C 0.96805 0.51561 0.12914 0.0
O1987 O 0.92339 0.52092 0.12331 0.0
O1988 O 0.93764 0.52389 0.10393 0.0
In1989 In 0.46288 0.19716 0.37532 0.0
O1990 O 0.47713 0.17516 0.37308 0.0
O1991 O 0.47541 0.19012 0.35406 0.0
C1992 C 0.44939 0.19424 0.40285 0.0
C1993 C 0.48328 0.21977 0.37938 0.0
C1994 C 0.43815 0.19874 0.35698 0.0
O1995 O 0.45401 0.18279 0.39542 0.0
O1996 O 0.45199 0.20691 0.39658 0.0
O1997 O 0.44686 0.20998 0.35922 0.0
O1998 O 0.44179 0.18682 0.36417 0.0
C1999 C 0.48078 0.17791 0.35939 0.0
O2000 O 0.47097 0.22154 0.3721 0.0
O2001 O 0.48522 0.20658 0.38489 0.0
In2002 In 0.80237 0.71328 0.62539 0.0
O2003 O 0.82427 0.72771 0.62309 0.0
O2004 O 0.80977 0.72508 0.60382 0.0
C2005 C 0.80536 0.70005 0.65303 0.0
C2006 C 0.77973 0.73371 0.6292 0.0
C2007 C 0.80058 0.6883 0.60741 0.0
O2008 O 0.8168 0.70447 0.64546 0.0
O2009 O 0.79268 0.70273 0.64683 0.0
O2010 O 0.78947 0.69722 0.6094 0.0
O2011 O 0.81248 0.69185 0.61467 0.0
C2012 C 0.82181 0.73078 0.60921 0.0
O2013 O 0.77798 0.7213 0.62209 0.0
O2014 O 0.79293 0.73577 0.63463 0.0
In2015 In 0.2874 0.04969 0.87297 0.0
O2016 O 0.27392 0.07228 0.87124 0.0
O2017 O 0.27384 0.05687 0.8525 0.0
C2018 C 0.30209 0.05138 0.89995 0.0
C2019 C 0.26693 0.02736 0.87802 0.0
C2020 C 0.31114 0.04873 0.85335 0.0
O2021 O 0.29632 0.06306 0.89373 0.0
O2022 O 0.30007 0.03911 0.89274 0.0
O2023 O 0.30154 0.03805 0.8544 0.0
O2024 O 0.30891 0.05971 0.86238 0.0
C2025 C 0.26929 0.06939 0.85788 0.0
O2026 O 0.27912 0.02527 0.87063 0.0
O2027 O 0.2652 0.04071 0.88321 0.0
In2028 In 0.94504 0.71281 0.12279 0.0
O2029 O 0.92328 0.72751 0.12494 0.0
O2030 O 0.93754 0.72458 0.14433 0.0
C2031 C 0.94226 0.69967 0.09506 0.0
C2032 C 0.96795 0.73298 0.11936 0.0
C2033 C 0.94677 0.68773 0.14063 0.0
O2034 O 0.93075 0.70375 0.10271 0.0
O2035 O 0.95489 0.70267 0.10121 0.0
O2036 O 0.95791 0.69662 0.13864 0.0
O2037 O 0.93484 0.69138 0.13345 0.0
C2038 C 0.92564 0.73049 0.13887 0.0
O2039 O 0.96945 0.72053 0.12646 0.0
O2040 O 0.95485 0.73521 0.11374 0.0
In2041 In 0.28594 0.19687 0.37301 0.0
O2042 O 0.27763 0.22115 0.37637 0.0
O2043 O 0.26359 0.20618 0.36335 0.0
C2044 C 0.31064 0.19829 0.39139 0.0
C2045 C 0.26816 0.17748 0.38889 0.0
C2046 C 0.29952 0.19444 0.34549 0.0
O2047 O 0.3019 0.20953 0.38928 0.0
O2048 O 0.30705 0.18645 0.38405 0.0
O2049 O 0.29472 0.18286 0.35261 0.0
O2050 O 0.29706 0.20697 0.35207 0.0
C2051 C 0.26539 0.21934 0.36898 0.0
O2052 O 0.27191 0.17471 0.37523 0.0
O2053 O 0.27336 0.18977 0.3942 0.0
In2054 In 0.80296 0.53621 0.62365 0.0
O2055 O 0.77848 0.52863 0.62717 0.0
O2056 O 0.79302 0.51397 0.61434 0.0
C2057 C 0.80166 0.56099 0.64196 0.0
C2058 C 0.82223 0.51804 0.63933 0.0
C2059 C 0.80557 0.54957 0.59601 0.0
O2060 O 0.79039 0.5523 0.63985 0.0
O2061 O 0.81351 0.5573 0.63469 0.0
O2062 O 0.81712 0.54515 0.60341 0.0
O2063 O 0.79298 0.54683 0.60238 0.0
C2064 C 0.77992 0.51624 0.61994 0.0
O2065 O 0.82489 0.52173 0.62563 0.0
O2066 O 0.81011 0.5235 0.64478 0.0
In2067 In 0.46556 0.05559 0.87164 0.0
O2068 O 0.48667 0.07115 0.8721 0.0
O2069 O 0.46855 0.07637 0.8871 0.0
C2070 C 0.45138 0.05588 0.84428 0.0
C2071 C 0.48584 0.03245 0.87141 0.0
C2072 C 0.44219 0.05186 0.89128 0.0
O2073 O 0.45686 0.06782 0.85015 0.0
O2074 O 0.45339 0.04396 0.85202 0.0
O2075 O 0.45419 0.04389 0.89198 0.0
O2076 O 0.44199 0.06157 0.88064 0.0
C2077 C 0.4817 0.07971 0.88249 0.0
O2078 O 0.47517 0.03331 0.88106 0.0
O2079 O 0.48625 0.04325 0.86189 0.0
In2080 In 0.62594 0.94789 0.03707 0.0
O2081 O 0.62253 0.97226 0.02912 0.0
O2082 O 0.63566 0.95756 0.01489 0.0
C2083 C 0.60738 0.94916 0.06166 0.0
C2084 C 0.61046 0.92834 0.01902 0.0
C2085 C 0.65342 0.94578 0.0508 0.0
O2086 O 0.60926 0.96032 0.05279 0.0
O2087 O 0.61499 0.93744 0.05824 0.0
O2088 O 0.64646 0.93412 0.04597 0.0
O2089 O 0.6467 0.95823 0.04831 0.0
C2090 C 0.63001 0.97069 0.0169 0.0
O2091 O 0.62406 0.92566 0.02305 0.0
O2092 O 0.60501 0.94064 0.02407 0.0
In2093 In 0.12623 0.80135 0.21296 0.0
O2094 O 0.12301 0.77699 0.22101 0.0
O2095 O 0.13584 0.79189 0.23529 0.0
C2096 C 0.1077 0.79952 0.18836 0.0
C2097 C 0.11059 0.82078 0.23095 0.0
C2098 C 0.15374 0.80413 0.19938 0.0
O2099 O 0.10999 0.78839 0.1972 0.0
O2100 O 0.11493 0.81147 0.19181 0.0
O2101 O 0.14626 0.81563 0.2038 0.0
O2102 O 0.1475 0.7915 0.20218 0.0
C2103 C 0.13031 0.77871 0.23331 0.0
O2104 O 0.12425 0.82345 0.22712 0.0
O2105 O 0.10514 0.80857 0.2257 0.0
In2106 In 0.19476 0.37409 0.46312 0.0
O2107 O 0.17268 0.37189 0.47731 0.0
O2108 O 0.18739 0.35272 0.4753 0.0
C2109 C 0.19233 0.4018 0.44998 0.0
C2110 C 0.21741 0.37784 0.48345 0.0
C2111 C 0.19661 0.35617 0.43812 0.0
O2112 O 0.18074 0.3945 0.45448 0.0
O2113 O 0.20488 0.39528 0.45249 0.0
O2114 O 0.20767 0.35812 0.44712 0.0
O2115 O 0.18467 0.3634 0.44163 0.0
C2116 C 0.17525 0.35812 0.48076 0.0
O2117 O 0.21903 0.37046 0.47119 0.0
O2118 O 0.20431 0.38354 0.48544 0.0
In2119 In 0.61998 0.44379 0.71275 0.0
O2120 O 0.62958 0.466 0.72231 0.0
O2121 O 0.60991 0.45659 0.733 0.0
C2122 C 0.64036 0.44728 0.68996 0.0
C2123 C 0.63003 0.4198 0.72965 0.0
C2124 C 0.59289 0.4441 0.69798 0.0
O2125 O 0.64087 0.45515 0.70203 0.0
O2126 O 0.62958 0.43775 0.68941 0.0
O2127 O 0.59849 0.43196 0.70333 0.0
O2128 O 0.60075 0.45586 0.70042 0.0
C2129 C 0.61966 0.46719 0.7327 0.0
O2130 O 0.62018 0.42908 0.73444 0.0
O2131 O 0.63441 0.42228 0.71623 0.0
In2132 In 0.053 0.87282 0.46242 0.0
O2133 O 0.07481 0.87515 0.47698 0.0
O2134 O 0.06018 0.89432 0.47448 0.0
C2135 C 0.05605 0.84512 0.44926 0.0
C2136 C 0.03022 0.86908 0.48268 0.0
C2137 C 0.05118 0.89085 0.43748 0.0
O2138 O 0.06748 0.85283 0.45346 0.0
O2139 O 0.04336 0.85122 0.45209 0.0
O2140 O 0.04001 0.88865 0.44629 0.0
O2141 O 0.06316 0.88377 0.44111 0.0
C2142 C 0.07221 0.88897 0.48021 0.0
O2143 O 0.02858 0.8762 0.47027 0.0
O2144 O 0.04338 0.86357 0.48482 0.0
In2145 In 0.62277 0.30641 0.03447 0.0
O2146 O 0.62164 0.32225 0.01353 0.0
O2147 O 0.63769 0.32738 0.03076 0.0
C2148 C 0.59568 0.3062 0.04917 0.0
C2149 C 0.62323 0.28373 0.0137 0.0
C2150 C 0.64202 0.30224 0.05815 0.0
O2151 O 0.60122 0.31828 0.04362 0.0
O2152 O 0.60363 0.29443 0.047 0.0
O2153 O 0.64151 0.29316 0.04697 0.0
O2154 O 0.63279 0.31326 0.05738 0.0
C2155 C 0.63228 0.33083 0.01795 0.0
O2156 O 0.63488 0.28739 0.02136 0.0
O2157 O 0.61144 0.2915 0.01656 0.0
In2158 In 0.197 0.3748 0.2867 0.0
O2159 O 0.17488 0.37708 0.27253 0.0
O2160 O 0.18938 0.39634 0.27505 0.0
C2161 C 0.19424 0.34716 0.29998 0.0
C2162 C 0.21945 0.37044 0.26615 0.0
C2163 C 0.19899 0.39314 0.31141 0.0
O2164 O 0.18273 0.35458 0.29544 0.0
O2165 O 0.20687 0.35354 0.29747 0.0
O2166 O 0.20941 0.39231 0.30151 0.0
O2167 O 0.18774 0.3845 0.309 0.0
C2168 C 0.1773 0.39096 0.26944 0.0
O2169 O 0.22156 0.3771 0.27875 0.0
O2170 O 0.206 0.36572 0.26398 0.0
In2171 In 0.55198 0.8763 0.78753 0.0
O2172 O 0.52771 0.87248 0.77936 0.0
O2173 O 0.54243 0.88547 0.76506 0.0
C2174 C 0.55037 0.85823 0.81244 0.0
C2175 C 0.5717 0.8604 0.77004 0.0
C2176 C 0.5544 0.9039 0.80101 0.0
O2177 O 0.53924 0.86011 0.80351 0.0
O2178 O 0.5622 0.86563 0.80894 0.0
O2179 O 0.56598 0.89664 0.79645 0.0
O2180 O 0.54185 0.89745 0.79831 0.0
C2181 C 0.52936 0.87969 0.76701 0.0
O2182 O 0.57389 0.87435 0.77302 0.0
O2183 O 0.55981 0.85481 0.77586 0.0
In2184 In 0.46149 0.37576 0.54973 0.0
O2185 O 0.46981 0.37808 0.52529 0.0
O2186 O 0.48426 0.36657 0.54106 0.0
C2187 C 0.43695 0.39433 0.54806 0.0
C2188 C 0.47866 0.39177 0.56956 0.0
C2189 C 0.44809 0.34817 0.55212 0.0
O2190 O 0.44682 0.3936 0.53761 0.0
O2191 O 0.43928 0.38546 0.55914 0.0
O2192 O 0.45301 0.35525 0.56369 0.0
O2193 O 0.45026 0.35489 0.53959 0.0
C2194 C 0.48235 0.37137 0.5276 0.0
O2195 O 0.47523 0.37798 0.57209 0.0
O2196 O 0.47342 0.39712 0.55731 0.0
In2197 In 0.6261 0.21294 0.30222 0.0
O2198 O 0.62392 0.22729 0.32419 0.0
O2199 O 0.60466 0.22494 0.30964 0.0
C2200 C 0.65375 0.19964 0.305 0.0
C2201 C 0.62991 0.23333 0.27958 0.0
C2202 C 0.60794 0.18811 0.30021 0.0
O2203 O 0.64614 0.2038 0.31651 0.0
O2204 O 0.64759 0.20259 0.29237 0.0
O2205 O 0.61001 0.19711 0.28918 0.0
O2206 O 0.61523 0.19148 0.31214 0.0
C2207 C 0.61008 0.23054 0.32171 0.0
O2208 O 0.62281 0.22091 0.27785 0.0
O2209 O 0.63534 0.23543 0.29278 0.0
In2210 In 0.78642 0.37354 0.05017 0.0
O2211 O 0.77767 0.36838 0.02631 0.0
O2212 O 0.76468 0.38362 0.04007 0.0
C2213 C 0.81156 0.35577 0.0495 0.0
C2214 C 0.76851 0.35785 0.06963 0.0
C2215 C 0.79973 0.40119 0.05244 0.0
O2216 O 0.80339 0.35804 0.03786 0.0
O2217 O 0.80717 0.36264 0.06135 0.0
O2218 O 0.7946 0.39427 0.064 0.0
O2219 O 0.79773 0.39434 0.03996 0.0
C2220 C 0.76593 0.37666 0.0275 0.0
O2221 O 0.772 0.37163 0.07213 0.0
O2222 O 0.77406 0.35233 0.05758 0.0
In2223 In 0.62503 0.5361 0.79996 0.0
O2224 O 0.6301 0.52678 0.77631 0.0
O2225 O 0.61421 0.51458 0.79007 0.0
C2226 C 0.64333 0.56085 0.79895 0.0
C2227 C 0.64036 0.51795 0.81945 0.0
C2228 C 0.59768 0.55003 0.80212 0.0
O2229 O 0.64067 0.55273 0.78737 0.0
O2230 O 0.63662 0.55659 0.81094 0.0
O2231 O 0.6044 0.54469 0.8137 0.0
O2232 O 0.60456 0.54793 0.78967 0.0
C2233 C 0.62139 0.51537 0.77758 0.0
O2234 O 0.62681 0.5221 0.8222 0.0
O2235 O 0.64584 0.52301 0.80718 0.0
In2236 In 0.4631 0.37481 0.19635 0.0
O2237 O 0.47715 0.3725 0.17421 0.0
O2238 O 0.47545 0.35349 0.18919 0.0
C2239 C 0.44967 0.4024 0.19388 0.0
C2240 C 0.48372 0.37871 0.21877 0.0
C2241 C 0.4383 0.35657 0.19787 0.0
O2242 O 0.45435 0.39519 0.18231 0.0
O2243 O 0.45217 0.39587 0.20643 0.0
O2244 O 0.44707 0.35866 0.20909 0.0
O2245 O 0.4419 0.36386 0.18601 0.0
C2246 C 0.48075 0.35879 0.17693 0.0
O2247 O 0.47143 0.37142 0.22062 0.0
O2248 O 0.48554 0.38431 0.2056 0.0
In2249 In 0.6231 0.21568 0.94507 0.0
O2250 O 0.62235 0.23624 0.92871 0.0
O2251 O 0.63834 0.21874 0.92429 0.0
C2252 C 0.59593 0.20129 0.94505 0.0
C2253 C 0.62339 0.23663 0.96761 0.0
C2254 C 0.64191 0.19164 0.94891 0.0
O2255 O 0.60127 0.20751 0.93321 0.0
O2256 O 0.60411 0.20269 0.95679 0.0
O2257 O 0.64203 0.20296 0.95785 0.0
O2258 O 0.63223 0.19245 0.93829 0.0
C2259 C 0.63305 0.23147 0.92039 0.0
O2260 O 0.63506 0.22891 0.96414 0.0
O2261 O 0.61167 0.23368 0.95979 0.0
In2262 In 0.7848 0.37511 0.69888 0.0
O2263 O 0.77529 0.38011 0.72249 0.0
O2264 O 0.76273 0.36498 0.70823 0.0
C2265 C 0.81006 0.39263 0.70032 0.0
C2266 C 0.76767 0.39116 0.67905 0.0
C2267 C 0.79806 0.34747 0.69657 0.0
O2268 O 0.80151 0.39047 0.7117 0.0
O2269 O 0.80597 0.3858 0.68833 0.0
O2270 O 0.7927 0.35433 0.68508 0.0
O2271 O 0.79629 0.35438 0.70906 0.0
C2272 C 0.76358 0.37188 0.72086 0.0
O2273 O 0.77091 0.3773 0.67664 0.0
O2274 O 0.7731 0.3966 0.69119 0.0
In2275 In 0.62614 0.53615 0.44606 0.0
O2276 O 0.62417 0.52209 0.42388 0.0
O2277 O 0.60503 0.52354 0.43872 0.0
C2278 C 0.65365 0.54976 0.44368 0.0
C2279 C 0.63016 0.51574 0.46863 0.0
C2280 C 0.60765 0.56075 0.44795 0.0
O2281 O 0.64634 0.54539 0.43205 0.0
O2282 O 0.64726 0.54687 0.45621 0.0
O2283 O 0.60975 0.55176 0.45898 0.0
O2284 O 0.61504 0.55746 0.43606 0.0
C2285 C 0.61048 0.51832 0.42649 0.0
O2286 O 0.62282 0.52802 0.47036 0.0
O2287 O 0.63572 0.51379 0.45546 0.0
In2288 In 0.05258 0.46208 0.87362 0.0
O2289 O 0.02827 0.47025 0.87709 0.0
O2290 O 0.04327 0.48466 0.86453 0.0
C2291 C 0.05065 0.43712 0.89161 0.0
C2292 C 0.07225 0.47952 0.8896 0.0
C2293 C 0.05518 0.44891 0.8459 0.0
O2294 O 0.03962 0.44618 0.8897 0.0
O2295 O 0.06254 0.44053 0.88426 0.0
O2296 O 0.06673 0.45308 0.85343 0.0
O2297 O 0.04258 0.45178 0.85218 0.0
C2298 C 0.03008 0.48267 0.87003 0.0
O2299 O 0.07458 0.47639 0.8757 0.0
O2300 O 0.06024 0.47386 0.8951 0.0
In2301 In 0.53515 0.80211 0.62422 0.0
O2302 O 0.52698 0.77777 0.62748 0.0
O2303 O 0.51287 0.79268 0.61448 0.0
C2304 C 0.55983 0.8008 0.64264 0.0
C2305 C 0.51728 0.82146 0.64009 0.0
C2306 C 0.54874 0.8045 0.5967 0.0
O2307 O 0.55107 0.78956 0.64061 0.0
O2308 O 0.55627 0.81258 0.63521 0.0
O2309 O 0.54388 0.81609 0.60377 0.0
O2310 O 0.54636 0.79198 0.60334 0.0
C2311 C 0.51476 0.77951 0.62005 0.0
O2312 O 0.52111 0.82427 0.62646 0.0
O2313 O 0.52244 0.80913 0.64536 0.0
In2314 In 0.19591 0.286 0.37228 0.0
O2315 O 0.22022 0.27794 0.37585 0.0
O2316 O 0.20549 0.26365 0.36283 0.0
C2317 C 0.19735 0.3106 0.39076 0.0
C2318 C 0.17645 0.26821 0.38812 0.0
C2319 C 0.1936 0.29987 0.34487 0.0
O2320 O 0.20857 0.30183 0.38864 0.0
O2321 O 0.18552 0.30711 0.38336 0.0
O2322 O 0.18196 0.29527 0.35203 0.0
O2323 O 0.20611 0.297 0.35131 0.0
C2324 C 0.21859 0.26563 0.36854 0.0
O2325 O 0.17395 0.27157 0.3743 0.0
O2326 O 0.18852 0.27379 0.39357 0.0
In2327 In 0.71266 0.94834 0.12475 0.0
O2328 O 0.72191 0.97209 0.1296 0.0
O2329 O 0.73473 0.95778 0.11473 0.0
C2330 C 0.68755 0.94969 0.14251 0.0
C2331 C 0.73017 0.92873 0.14067 0.0
C2332 C 0.69927 0.94612 0.09714 0.0
O2333 O 0.69601 0.96112 0.14022 0.0
O2334 O 0.69164 0.93771 0.13567 0.0
O2335 O 0.70411 0.93451 0.10418 0.0
O2336 O 0.70162 0.95862 0.10385 0.0
C2337 C 0.73371 0.97047 0.12149 0.0
O2338 O 0.72686 0.92626 0.12684 0.0
O2339 O 0.72459 0.94079 0.14613 0.0
In2340 In 0.05435 0.28575 0.87612 0.0
O2341 O 0.07625 0.27121 0.87406 0.0
O2342 O 0.06256 0.27484 0.85439 0.0
C2343 C 0.05682 0.2989 0.90388 0.0
C2344 C 0.03195 0.26498 0.87931 0.0
C2345 C 0.05184 0.31077 0.85832 0.0
O2346 O 0.06842 0.29515 0.8962 0.0
O2347 O 0.04426 0.29558 0.89774 0.0
O2348 O 0.04102 0.30147 0.86021 0.0
O2349 O 0.06384 0.30758 0.86561 0.0
C2350 C 0.0743 0.26874 0.85998 0.0
O2351 O 0.03013 0.27749 0.87243 0.0
O2352 O 0.04512 0.26296 0.88483 0.0
In2353 In 0.71224 0.80241 0.62582 0.0
O2354 O 0.72649 0.82443 0.62358 0.0
O2355 O 0.72437 0.80972 0.60441 0.0
C2356 C 0.69877 0.80522 0.65338 0.0
C2357 C 0.73284 0.77993 0.62959 0.0
C2358 C 0.68743 0.80063 0.60761 0.0
O2359 O 0.70328 0.8167 0.64594 0.0
O2360 O 0.70149 0.79258 0.64711 0.0
O2361 O 0.69622 0.78946 0.60983 0.0
O2362 O 0.69103 0.8126 0.61475 0.0
C2363 C 0.72988 0.82185 0.60979 0.0
O2364 O 0.72048 0.77811 0.62242 0.0
O2365 O 0.73473 0.7931 0.63516 0.0
In2366 In 0.1931 0.46303 0.37749 0.0
O2367 O 0.17586 0.48286 0.37805 0.0
O2368 O 0.17485 0.46744 0.35951 0.0
C2369 C 0.19161 0.44883 0.40484 0.0
C2370 C 0.21639 0.48321 0.37829 0.0
C2371 C 0.19699 0.43941 0.35816 0.0
O2372 O 0.17983 0.45308 0.39778 0.0
O2373 O 0.20397 0.4521 0.3983 0.0
O2374 O 0.20499 0.45138 0.35744 0.0
O2375 O 0.18714 0.43934 0.36868 0.0
C2376 C 0.16949 0.47921 0.3657 0.0
O2377 O 0.21672 0.47127 0.37024 0.0
O2378 O 0.20431 0.48498 0.38591 0.0
In2379 In 0.53605 0.94618 0.12629 0.0
O2380 O 0.5278 0.97048 0.12303 0.0
O2381 O 0.51333 0.95529 0.13529 0.0
C2382 C 0.56092 0.94837 0.10821 0.0
C2383 C 0.51871 0.92658 0.11015 0.0
C2384 C 0.54922 0.94334 0.15399 0.0
O2385 O 0.55189 0.95938 0.11035 0.0
O2386 O 0.55755 0.93638 0.1154 0.0
O2387 O 0.54516 0.93185 0.14629 0.0
O2388 O 0.54624 0.95599 0.14788 0.0
C2389 C 0.5153 0.96853 0.12993 0.0
O2390 O 0.52181 0.92416 0.12404 0.0
O2391 O 0.52435 0.93863 0.10474 0.0
In2392 In 0.37535 0.05018 0.96086 0.0
O2393 O 0.37785 0.0258 0.96915 0.0
O2394 O 0.36481 0.04105 0.98287 0.0
C2395 C 0.39511 0.04921 0.93722 0.0
C2396 C 0.3902 0.06974 0.97937 0.0
C2397 C 0.3484 0.05169 0.94611 0.0
O2398 O 0.39384 0.03845 0.94668 0.0
O2399 O 0.38628 0.06033 0.93955 0.0
O2400 O 0.35455 0.06342 0.95182 0.0
O2401 O 0.35567 0.03946 0.94819 0.0
C2402 C 0.3702 0.02778 0.9812 0.0
O2403 O 0.37703 0.07282 0.9743 0.0
O2404 O 0.39553 0.05714 0.97501 0.0
In2405 In 0.8746 0.1991 0.78674 0.0
O2406 O 0.87971 0.22267 0.77719 0.0
O2407 O 0.86435 0.20855 0.76475 0.0
C2408 C 0.89254 0.20055 0.8117 0.0
C2409 C 0.89028 0.1791 0.7694 0.0
C2410 C 0.84721 0.19728 0.80067 0.0
O2411 O 0.89041 0.21187 0.80306 0.0
O2412 O 0.88547 0.18862 0.80784 0.0
O2413 O 0.85394 0.18558 0.79559 0.0
O2414 O 0.85407 0.20968 0.79824 0.0
C2415 C 0.87137 0.22112 0.76555 0.0
O2416 O 0.87635 0.17695 0.77254 0.0
O2417 O 0.89594 0.19104 0.77505 0.0
In2418 In 0.80262 0.6232 0.53647 0.0
O2419 O 0.8246 0.62525 0.5221 0.0
O2420 O 0.81005 0.64453 0.52427 0.0
C2421 C 0.80538 0.59562 0.54991 0.0
C2422 C 0.78 0.61941 0.51603 0.0
C2423 C 0.80075 0.64149 0.56122 0.0
O2424 O 0.81689 0.60314 0.54559 0.0
O2425 O 0.79275 0.60183 0.54704 0.0
O2426 O 0.78965 0.63933 0.55232 0.0
O2427 O 0.81269 0.63425 0.55776 0.0
C2428 C 0.82211 0.63906 0.51871 0.0
O2429 O 0.77827 0.6266 0.5284 0.0
O2430 O 0.79316 0.61386 0.51403 0.0
In2431 In 0.37609 0.5521 0.28555 0.0
O2432 O 0.37376 0.57411 0.27127 0.0
O2433 O 0.35448 0.55964 0.27391 0.0
C2434 C 0.40379 0.55508 0.29871 0.0
C2435 C 0.37982 0.52963 0.26494 0.0
C2436 C 0.35812 0.54954 0.31046 0.0
O2437 O 0.39595 0.56654 0.29486 0.0
O2438 O 0.39784 0.54241 0.29551 0.0
O2439 O 0.3603 0.53865 0.30131 0.0
O2440 O 0.3652 0.56163 0.30718 0.0
C2441 C 0.35986 0.57169 0.26823 0.0
O2442 O 0.37285 0.52777 0.27741 0.0
O2443 O 0.38517 0.54287 0.2629 0.0
In2444 In 0.94665 0.12527 0.53542 0.0
O2445 O 0.92451 0.12298 0.52141 0.0
O2446 O 0.93911 0.10374 0.52361 0.0
C2447 C 0.94396 0.15293 0.54864 0.0
C2448 C 0.9691 0.12897 0.51478 0.0
C2449 C 0.94835 0.10739 0.56046 0.0
O2450 O 0.93251 0.14576 0.54361 0.0
O2451 O 0.95655 0.14632 0.54657 0.0
O2452 O 0.95943 0.10917 0.55144 0.0
O2453 O 0.93651 0.11478 0.55695 0.0
C2454 C 0.92696 0.10913 0.51817 0.0
O2455 O 0.97092 0.12178 0.52712 0.0
O2456 O 0.95594 0.13457 0.51291 0.0
In2457 In 0.37664 0.69647 0.96217 0.0
O2458 O 0.37451 0.67432 0.97625 0.0
O2459 O 0.35555 0.68939 0.97497 0.0
C2460 C 0.40419 0.6938 0.94864 0.0
C2461 C 0.38062 0.71905 0.98259 0.0
C2462 C 0.35806 0.69828 0.93763 0.0
O2463 O 0.39676 0.68227 0.95303 0.0
O2464 O 0.39789 0.7064 0.95144 0.0
O2465 O 0.36044 0.70943 0.9464 0.0
O2466 O 0.36525 0.68631 0.94108 0.0
C2467 C 0.36089 0.67711 0.98015 0.0
O2468 O 0.37338 0.72081 0.97026 0.0
O2469 O 0.38616 0.70587 0.98455 0.0
In2470 In 0.80365 0.62647 0.71263 0.0
O2471 O 0.82582 0.62432 0.72668 0.0
O2472 O 0.81059 0.60546 0.72559 0.0
C2473 C 0.80609 0.65402 0.69909 0.0
C2474 C 0.78104 0.63052 0.73298 0.0
C2475 C 0.802 0.6079 0.68807 0.0
O2476 O 0.8177 0.64671 0.7035 0.0
O2477 O 0.79354 0.6476 0.70188 0.0
O2478 O 0.7908 0.61025 0.69679 0.0
O2479 O 0.81394 0.6151 0.69159 0.0
C2480 C 0.82292 0.61076 0.7307 0.0
O2481 O 0.77932 0.62317 0.72071 0.0
O2482 O 0.7942 0.63611 0.73493 0.0
In2483 In 0.44612 0.12273 0.21248 0.0
O2484 O 0.42425 0.12499 0.22697 0.0
O2485 O 0.43859 0.14434 0.22412 0.0
C2486 C 0.44327 0.09492 0.19954 0.0
C2487 C 0.46877 0.11939 0.23295 0.0
C2488 C 0.44796 0.14051 0.18738 0.0
O2489 O 0.43179 0.1026 0.20364 0.0
O2490 O 0.45593 0.1011 0.20239 0.0
O2491 O 0.45909 0.1385 0.19628 0.0
O2492 O 0.43602 0.13337 0.191 0.0
C2493 C 0.42663 0.13891 0.22994 0.0
O2494 O 0.47047 0.12636 0.22046 0.0
O2495 O 0.45562 0.11384 0.23506 0.0
C2496 C 0.07319 0.18593 0.45526 0.0
C2497 C 0.0813 0.18938 0.44189 0.0
H2498 H 0.05644 0.17178 0.46588 0.0
C2499 C 0.07709 0.18225 0.42816 0.0
H2500 H 0.07606 0.19136 0.46599 0.0
C2501 C 0.06577 0.17095 0.42809 0.0
C2502 C 0.05855 0.16668 0.44176 0.0
H2503 H 0.08315 0.18472 0.41768 0.0
H2504 H 0.06335 0.16496 0.41756 0.0
C2505 C 0.06193 0.17471 0.4552 0.0
C2506 C 0.81248 0.32802 0.68131 0.0
C2507 C 0.80733 0.33346 0.69549 0.0
H2508 H 0.82793 0.31305 0.66961 0.0
C2509 C 0.81255 0.32642 0.7089 0.0
H2510 H 0.80862 0.33323 0.6708 0.0
C2511 C 0.82353 0.31495 0.70822 0.0
C2512 C 0.82953 0.31026 0.69413 0.0
H2513 H 0.80868 0.33027 0.71999 0.0
H2514 H 0.82783 0.31025 0.71881 0.0
C2515 C 0.82352 0.31649 0.68064 0.0
C2516 C 0.67042 0.06854 0.93105 0.0
C2517 C 0.66568 0.06212 0.94497 0.0
H2518 H 0.68461 0.08525 0.92009 0.0
C2519 C 0.67316 0.06641 0.95846 0.0
H2520 H 0.66486 0.06542 0.92048 0.0
C2521 C 0.68441 0.07765 0.95824 0.0
C2522 C 0.68841 0.08489 0.94452 0.0
H2523 H 0.66987 0.06156 0.96934 0.0
H2524 H 0.68946 0.08115 0.96896 0.0
C2525 C 0.68172 0.07988 0.93083 0.0
C2526 C 0.9369 0.92391 0.20694 0.0
C2527 C 0.94159 0.91652 0.19352 0.0
H2528 H 0.92192 0.94024 0.21704 0.0
C2529 C 0.9359 0.92158 0.17942 0.0
H2530 H 0.94121 0.92036 0.21796 0.0
C2531 C 0.92479 0.93306 0.17889 0.0
C2532 C 0.91925 0.93957 0.19246 0.0
H2533 H 0.93935 0.9161 0.1689 0.0
H2534 H 0.91991 0.93618 0.16797 0.0
C2535 C 0.92584 0.9353 0.20641 0.0
C2536 C 0.06594 0.07698 0.81906 0.0
C2537 C 0.05906 0.08146 0.80529 0.0
H2538 H 0.08304 0.06302 0.82968 0.0
C2539 C 0.06275 0.07362 0.79182 0.0
H2540 H 0.06328 0.08283 0.82961 0.0
C2541 C 0.07396 0.06236 0.79186 0.0
C2542 C 0.08175 0.0587 0.80536 0.0
H2543 H 0.05751 0.07672 0.78106 0.0
H2544 H 0.07706 0.05708 0.78112 0.0
C2545 C 0.07724 0.06566 0.8191 0.0
C2546 C 0.93393 0.32779 0.07134 0.0
C2547 C 0.94127 0.33178 0.05765 0.0
H2548 H 0.91654 0.31415 0.08192 0.0
C2549 C 0.9381 0.32337 0.04439 0.0
H2550 H 0.93618 0.33408 0.08174 0.0
C2551 C 0.92695 0.31204 0.04449 0.0
C2552 C 0.91871 0.30887 0.05786 0.0
H2553 H 0.94369 0.32607 0.0337 0.0
H2554 H 0.92425 0.30632 0.03388 0.0
C2555 C 0.9227 0.3164 0.07144 0.0
C2556 C 0.6719 0.18301 0.31962 0.0
C2557 C 0.6677 0.19025 0.30595 0.0
H2558 H 0.68557 0.16557 0.33006 0.0
C2559 C 0.67581 0.1869 0.29255 0.0
H2560 H 0.66585 0.18541 0.33012 0.0
C2561 C 0.68701 0.17563 0.29251 0.0
C2562 C 0.69036 0.16747 0.30587 0.0
H2563 H 0.67294 0.19242 0.28187 0.0
H2564 H 0.69248 0.17276 0.2818 0.0
C2565 C 0.68318 0.17167 0.31958 0.0
C2566 C 0.8155 0.92146 0.56957 0.0
C2567 C 0.80868 0.91703 0.55575 0.0
H2568 H 0.83258 0.93536 0.58033 0.0
C2569 C 0.81253 0.92484 0.54231 0.0
H2570 H 0.81273 0.91564 0.5801 0.0
C2571 C 0.8238 0.93604 0.54244 0.0
C2572 C 0.83149 0.93968 0.55601 0.0
H2573 H 0.80736 0.92178 0.53151 0.0
H2574 H 0.82701 0.94131 0.53173 0.0
C2575 C 0.82685 0.93274 0.5697 0.0
C2576 C 0.45563 0.07268 0.18701 0.0
C2577 C 0.44227 0.08088 0.1903 0.0
H2578 H 0.46629 0.05583 0.17302 0.0
C2579 C 0.42857 0.07667 0.1831 0.0
H2580 H 0.46632 0.07556 0.1925 0.0
C2581 C 0.42855 0.0653 0.17186 0.0
C2582 C 0.44222 0.05802 0.16771 0.0
H2583 H 0.41809 0.0828 0.18544 0.0
H2584 H 0.41806 0.0629 0.16578 0.0
C2585 C 0.4556 0.06137 0.17585 0.0
C2586 C 0.9218 0.6794 0.4324 0.0
C2587 C 0.91736 0.69303 0.43958 0.0
H2588 H 0.93566 0.66911 0.41502 0.0
C2589 C 0.92521 0.70656 0.43614 0.0
H2590 H 0.91595 0.6688 0.43487 0.0
C2591 C 0.93639 0.70675 0.42485 0.0
C2592 C 0.93999 0.6934 0.41677 0.0
H2593 H 0.92216 0.71722 0.4416 0.0
H2594 H 0.94166 0.71753 0.42192 0.0
C2595 C 0.93307 0.67958 0.42105 0.0
C2596 C 0.32005 0.18514 0.67093 0.0
C2597 C 0.30604 0.19123 0.66608 0.0
H2598 H 0.33129 0.16886 0.68534 0.0
C2599 C 0.29261 0.18689 0.67366 0.0
H2600 H 0.33058 0.18832 0.6653 0.0
C2601 C 0.29301 0.17582 0.68506 0.0
C2602 C 0.30684 0.16886 0.68912 0.0
H2603 H 0.28165 0.1915 0.67028 0.0
H2604 H 0.28235 0.17218 0.69016 0.0
C2605 C 0.32045 0.17402 0.68239 0.0
C2606 C 0.82714 0.56905 0.93263 0.0
C2607 C 0.83144 0.55531 0.93967 0.0
H2608 H 0.81345 0.57964 0.91531 0.0
C2609 C 0.8235 0.54188 0.93606 0.0
H2610 H 0.83307 0.57958 0.93523 0.0
C2611 C 0.81234 0.54192 0.92474 0.0
C2612 C 0.80889 0.55538 0.91679 0.0
H2613 H 0.82644 0.53114 0.94142 0.0
H2614 H 0.80699 0.53121 0.92168 0.0
C2615 C 0.81592 0.56909 0.92124 0.0
C2616 C 0.42963 0.16995 0.06511 0.0
C2617 C 0.44345 0.1654 0.05836 0.0
H2618 H 0.41887 0.18404 0.08201 0.0
C2619 C 0.4569 0.17326 0.0621 0.0
H2620 H 0.41909 0.16409 0.06241 0.0
C2621 C 0.45677 0.18461 0.07323 0.0
C2622 C 0.4432 0.18834 0.08088 0.0
H2623 H 0.4677 0.17012 0.05698 0.0
H2624 H 0.46748 0.1899 0.07639 0.0
C2625 C 0.4295 0.18136 0.07632 0.0
C2626 C 0.81547 0.67986 0.32716 0.0
C2627 C 0.80853 0.6936 0.33165 0.0
H2628 H 0.83264 0.66932 0.31322 0.0
C2629 C 0.81215 0.70709 0.32381 0.0
H2630 H 0.81286 0.6693 0.33301 0.0
C2631 C 0.82339 0.7071 0.31257 0.0
C2632 C 0.83125 0.69363 0.30893 0.0
H2633 H 0.80687 0.71783 0.32691 0.0
H2634 H 0.82646 0.71785 0.3073 0.0
C2635 C 0.82678 0.67988 0.31585 0.0
C2636 C 0.29214 0.07388 0.56359 0.0
C2637 C 0.30568 0.08158 0.55984 0.0
H2638 H 0.28124 0.05775 0.57823 0.0
C2639 C 0.31935 0.07724 0.567 0.0
H2640 H 0.28145 0.07687 0.55816 0.0
C2641 C 0.31923 0.0662 0.57857 0.0
C2642 C 0.30543 0.05941 0.58311 0.0
H2643 H 0.32996 0.08299 0.56431 0.0
H2644 H 0.32975 0.06367 0.58454 0.0
C2645 C 0.29202 0.06292 0.5751 0.0
C2646 C 0.93723 0.54239 0.82368 0.0
C2647 C 0.94068 0.55572 0.83186 0.0
H2648 H 0.92316 0.53191 0.80679 0.0
C2649 C 0.9337 0.56951 0.82761 0.0
H2650 H 0.94255 0.53162 0.82659 0.0
C2651 C 0.9225 0.56968 0.81619 0.0
C2652 C 0.9182 0.55606 0.80891 0.0
H2653 H 0.93618 0.57997 0.83371 0.0
H2654 H 0.9166 0.58026 0.81375 0.0
C2655 C 0.92611 0.54256 0.81232 0.0
C2656 C 0.18724 0.45613 0.07346 0.0
C2657 C 0.19072 0.44273 0.08152 0.0
H2658 H 0.17299 0.46681 0.05685 0.0
C2659 C 0.18352 0.42902 0.07734 0.0
H2660 H 0.19272 0.46683 0.07631 0.0
C2661 C 0.17214 0.42901 0.06611 0.0
C2662 C 0.16784 0.4427 0.05895 0.0
H2663 H 0.18601 0.41853 0.08336 0.0
H2664 H 0.1661 0.4185 0.06371 0.0
C2665 C 0.17593 0.45611 0.0623 0.0
C2666 C 0.67215 0.31792 0.1813 0.0
C2667 C 0.66737 0.30422 0.18813 0.0
H2668 H 0.68617 0.3283 0.16409 0.0
C2669 C 0.6747 0.29055 0.18412 0.0
H2670 H 0.6667 0.32862 0.1842 0.0
C2671 C 0.68573 0.29037 0.17268 0.0
C2672 C 0.68971 0.30385 0.16501 0.0
H2673 H 0.67138 0.27983 0.18928 0.0
H2674 H 0.69062 0.27951 0.16935 0.0
C2675 C 0.68328 0.31774 0.16981 0.0
C2676 C 0.70459 0.92561 0.4375 0.0
C2677 C 0.69125 0.91736 0.44072 0.0
H2678 H 0.71528 0.94245 0.42353 0.0
C2679 C 0.67759 0.92146 0.43339 0.0
H2680 H 0.71526 0.92282 0.44309 0.0
C2681 C 0.6776 0.93278 0.4221 0.0
C2682 C 0.69127 0.94012 0.41804 0.0
H2683 H 0.66713 0.91529 0.43567 0.0
H2684 H 0.66715 0.9351 0.41593 0.0
C2685 C 0.7046 0.93686 0.42629 0.0
C2686 C 0.06495 0.92939 0.67131 0.0
C2687 C 0.058 0.94319 0.667 0.0
H2688 H 0.08214 0.91867 0.68507 0.0
C2689 C 0.06167 0.95658 0.67498 0.0
H2690 H 0.06231 0.91889 0.66535 0.0
C2691 C 0.07294 0.95645 0.68619 0.0
C2692 C 0.08079 0.94293 0.68965 0.0
H2693 H 0.05639 0.96736 0.67203 0.0
H2694 H 0.07604 0.96714 0.69157 0.0
C2695 C 0.07629 0.92926 0.68258 0.0
C2696 C 0.54301 0.3242 0.43623 0.0
C2697 C 0.55648 0.33215 0.43968 0.0
H2698 H 0.53219 0.3076 0.42207 0.0
C2699 C 0.57016 0.32775 0.43257 0.0
H2700 H 0.53231 0.32722 0.44164 0.0
C2701 C 0.57009 0.31641 0.42128 0.0
C2702 C 0.55633 0.30938 0.41699 0.0
H2703 H 0.58072 0.33368 0.43503 0.0
H2704 H 0.5806 0.31385 0.4153 0.0
C2705 C 0.54293 0.31295 0.42501 0.0
C2706 C 0.06568 0.81813 0.07755 0.0
C2707 C 0.05901 0.80428 0.08211 0.0
H2708 H 0.08258 0.82893 0.06349 0.0
C2709 C 0.06282 0.79084 0.07428 0.0
H2710 H 0.06292 0.82867 0.08338 0.0
C2711 C 0.07398 0.79099 0.06297 0.0
C2712 C 0.08158 0.80459 0.05924 0.0
H2713 H 0.05774 0.78002 0.07743 0.0
H2714 H 0.0772 0.78028 0.0577 0.0
C2715 C 0.07692 0.81828 0.06617 0.0
C2716 C 0.7063 0.82369 0.31308 0.0
C2717 C 0.69287 0.83162 0.30944 0.0
H2718 H 0.71693 0.8071 0.32739 0.0
C2719 C 0.67909 0.82721 0.31635 0.0
H2720 H 0.71707 0.82672 0.30782 0.0
C2721 C 0.67901 0.81589 0.32764 0.0
C2722 C 0.69271 0.80888 0.33213 0.0
H2723 H 0.66856 0.83313 0.31372 0.0
H2724 H 0.66842 0.81333 0.33348 0.0
C2725 C 0.70622 0.81244 0.3243 0.0
C2726 C 0.06973 0.43246 0.82753 0.0
C2727 C 0.05605 0.43958 0.8319 0.0
H2728 H 0.08017 0.41515 0.81368 0.0
C2729 C 0.04259 0.43617 0.82392 0.0
H2730 H 0.08028 0.43491 0.83348 0.0
C2731 C 0.04252 0.42493 0.81267 0.0
C2732 C 0.05592 0.41688 0.80916 0.0
H2733 H 0.0319 0.44159 0.82692 0.0
H2734 H 0.03178 0.422 0.80731 0.0
C2735 C 0.06967 0.42117 0.81621 0.0
C2736 C 0.93545 0.82482 0.5406 0.0
C2737 C 0.93958 0.83221 0.5542 0.0
H2738 H 0.92077 0.80867 0.52981 0.0
C2739 C 0.93309 0.8273 0.56802 0.0
H2740 H 0.94037 0.82824 0.52979 0.0
C2741 C 0.92176 0.81601 0.56803 0.0
C2742 C 0.91682 0.80951 0.55422 0.0
H2743 H 0.93609 0.8328 0.57867 0.0
H2744 H 0.91627 0.81303 0.57869 0.0
C2745 C 0.92421 0.8136 0.54061 0.0
C2746 C 0.17178 0.68049 0.31873 0.0
C2747 C 0.16707 0.68727 0.30498 0.0
H2748 H 0.18569 0.66328 0.32926 0.0
C2749 C 0.17439 0.6831 0.29136 0.0
H2750 H 0.16633 0.6835 0.32941 0.0
C2751 C 0.18535 0.67159 0.29127 0.0
C2752 C 0.18928 0.66401 0.30481 0.0
H2753 H 0.17113 0.68822 0.28059 0.0
H2754 H 0.19025 0.66817 0.28045 0.0
C2755 C 0.18284 0.66893 0.31865 0.0
C2756 C 0.32707 0.93258 0.0688 0.0
C2757 C 0.33167 0.93941 0.05504 0.0
H2758 H 0.31304 0.91551 0.07937 0.0
C2759 C 0.32395 0.93565 0.04152 0.0
H2760 H 0.33282 0.9353 0.0794 0.0
C2761 C 0.31272 0.92441 0.04151 0.0
C2762 C 0.30895 0.91668 0.05501 0.0
H2763 H 0.32713 0.94084 0.03076 0.0
H2764 H 0.30755 0.92124 0.03074 0.0
C2765 C 0.31576 0.92127 0.06879 0.0
C2766 C 0.07689 0.68221 0.93012 0.0
C2767 C 0.08155 0.68911 0.94383 0.0
H2768 H 0.0628 0.6651 0.91969 0.0
C2769 C 0.07388 0.68543 0.9574 0.0
H2770 H 0.0826 0.68487 0.91949 0.0
C2771 C 0.06264 0.6742 0.95751 0.0
C2772 C 0.05881 0.66641 0.94406 0.0
H2773 H 0.0771 0.69068 0.96812 0.0
H2774 H 0.0575 0.67109 0.96832 0.0
C2775 C 0.06557 0.67092 0.93023 0.0
C2776 C 0.31133 0.82255 0.70551 0.0
C2777 C 0.30793 0.83077 0.6922 0.0
H2778 H 0.32556 0.80585 0.71608 0.0
C2779 C 0.31526 0.8268 0.6785 0.0
H2780 H 0.30576 0.82525 0.71621 0.0
C2781 C 0.3267 0.81562 0.67842 0.0
C2782 C 0.33091 0.8083 0.69205 0.0
H2783 H 0.31284 0.83296 0.66806 0.0
H2784 H 0.33283 0.81339 0.66793 0.0
C2785 C 0.32269 0.81143 0.70544 0.0
C2786 C 0.18647 0.07398 0.45677 0.0
C2787 C 0.19019 0.08176 0.44328 0.0
H2788 H 0.1721 0.05751 0.4675 0.0
C2789 C 0.18335 0.0772 0.42951 0.0
H2790 H 0.19168 0.07712 0.46753 0.0
C2791 C 0.17205 0.06588 0.42949 0.0
C2792 C 0.16749 0.05902 0.44325 0.0
H2793 H 0.18603 0.083 0.41893 0.0
H2794 H 0.16627 0.0632 0.41891 0.0
C2795 C 0.17525 0.06273 0.45675 0.0
C2796 C 0.56919 0.93365 0.82858 0.0
C2797 C 0.55545 0.94036 0.83343 0.0
H2798 H 0.57968 0.91676 0.81427 0.0
C2799 C 0.54184 0.93654 0.82589 0.0
H2800 H 0.57985 0.93641 0.83418 0.0
C2801 C 0.54175 0.92538 0.81457 0.0
C2802 C 0.55526 0.91778 0.81053 0.0
H2803 H 0.53109 0.94163 0.82927 0.0
H2804 H 0.53093 0.92216 0.80953 0.0
C2805 C 0.56909 0.92242 0.81719 0.0
C2806 C 0.07544 0.31695 0.5668 0.0
C2807 C 0.0803 0.30319 0.56014 0.0
H2808 H 0.06138 0.32747 0.58388 0.0
C2809 C 0.07305 0.28953 0.56433 0.0
H2810 H 0.08083 0.32764 0.56377 0.0
C2811 C 0.06202 0.28943 0.57578 0.0
C2812 C 0.05798 0.30299 0.58328 0.0
H2813 H 0.07644 0.27876 0.5593 0.0
H2814 H 0.05721 0.27859 0.57925 0.0
C2815 C 0.06433 0.31685 0.57831 0.0
C2816 C 0.57096 0.82745 0.9339 0.0
C2817 C 0.5573 0.83159 0.9412 0.0
H2818 H 0.58141 0.81384 0.91642 0.0
C2819 C 0.54392 0.82343 0.93788 0.0
H2820 H 0.58145 0.83355 0.93626 0.0
C2821 C 0.54389 0.81223 0.9266 0.0
C2822 C 0.55724 0.80894 0.91839 0.0
H2823 H 0.53324 0.82625 0.94344 0.0
H2824 H 0.5332 0.80672 0.92376 0.0
C2825 C 0.57094 0.81618 0.92255 0.0
C2826 C 0.18627 0.29233 0.67565 0.0
C2827 C 0.18944 0.30571 0.66745 0.0
H2828 H 0.17243 0.2816 0.69257 0.0
C2829 C 0.1822 0.31938 0.6717 0.0
H2830 H 0.19179 0.28166 0.67274 0.0
C2831 C 0.17104 0.31934 0.68315 0.0
C2832 C 0.167 0.30564 0.69044 0.0
H2833 H 0.18447 0.32987 0.66558 0.0
H2834 H 0.16493 0.3298 0.6856 0.0
C2835 C 0.17517 0.2923 0.68702 0.0
C2836 C 0.07804 0.43235 0.1835 0.0
C2837 C 0.08332 0.44624 0.18953 0.0
H2838 H 0.06334 0.42149 0.16718 0.0
C2839 C 0.07622 0.45987 0.18505 0.0
H2840 H 0.0833 0.42166 0.18678 0.0
C2841 C 0.06486 0.45977 0.17392 0.0
C2842 C 0.06036 0.44604 0.16702 0.0
H2843 H 0.07993 0.47074 0.18961 0.0
H2844 H 0.06014 0.47057 0.17022 0.0
C2845 C 0.06662 0.43225 0.17229 0.0
C2846 C 0.31284 0.70782 0.82461 0.0
C2847 C 0.30898 0.69423 0.83216 0.0
H2848 H 0.32741 0.71872 0.80842 0.0
C2849 C 0.3158 0.6805 0.82747 0.0
H2850 H 0.30766 0.71856 0.82786 0.0
C2851 C 0.3272 0.68059 0.81625 0.0
C2852 C 0.33188 0.69441 0.80962 0.0
H2853 H 0.31301 0.66985 0.83309 0.0
H2854 H 0.33294 0.67001 0.81346 0.0
C2855 C 0.32416 0.70791 0.81347 0.0
C2856 C 0.93439 0.0395 0.32472 0.0
C2857 C 0.93858 0.05321 0.33187 0.0
H2858 H 0.91961 0.02847 0.30881 0.0
C2859 C 0.93206 0.06695 0.32679 0.0
H2860 H 0.93932 0.02874 0.32828 0.0
C2861 C 0.92069 0.0668 0.31554 0.0
C2862 C 0.91572 0.0529 0.30927 0.0
H2863 H 0.9351 0.07769 0.3321 0.0
H2864 H 0.91522 0.07742 0.31242 0.0
C2865 C 0.92308 0.03934 0.31356 0.0
C2866 C 0.45633 0.67315 0.56269 0.0
C2867 C 0.44286 0.66527 0.55909 0.0
H2868 H 0.46701 0.68994 0.57674 0.0
C2869 C 0.42908 0.66989 0.56588 0.0
H2870 H 0.4671 0.66997 0.55752 0.0
C2871 C 0.42903 0.68141 0.57698 0.0
C2872 C 0.44275 0.68846 0.58139 0.0
H2873 H 0.41853 0.66402 0.56329 0.0
H2874 H 0.41843 0.68417 0.58271 0.0
C2875 C 0.45628 0.68462 0.5737 0.0
C2876 C 0.92721 0.20658 0.93717 0.0
C2877 C 0.91924 0.19316 0.94076 0.0
H2878 H 0.94371 0.21726 0.9228 0.0
C2879 C 0.92349 0.17943 0.93365 0.0
H2880 H 0.9243 0.21731 0.94258 0.0
C2881 C 0.93467 0.1794 0.92222 0.0
C2882 C 0.94173 0.19311 0.91781 0.0
H2883 H 0.91753 0.16891 0.93623 0.0
H2884 H 0.93711 0.16886 0.91625 0.0
C2885 C 0.93834 0.20655 0.92583 0.0
C2886 C 0.92725 0.56568 0.17103 0.0
C2887 C 0.94093 0.5583 0.16706 0.0
H2888 H 0.91676 0.58328 0.18445 0.0
C2889 C 0.95424 0.56159 0.17534 0.0
H2890 H 0.91682 0.56334 0.16484 0.0
C2891 C 0.95421 0.57293 0.18648 0.0
C2892 C 0.94086 0.58122 0.18959 0.0
H2893 H 0.96492 0.55597 0.17265 0.0
H2894 H 0.96486 0.57574 0.19208 0.0
C2895 C 0.92722 0.57708 0.18224 0.0
C2896 C 0.8161 0.82943 0.18069 0.0
C2897 C 0.80968 0.8342 0.1946 0.0
H2898 H 0.83257 0.81495 0.16976 0.0
C2899 C 0.81356 0.82643 0.20804 0.0
H2900 H 0.81327 0.83522 0.17015 0.0
C2901 C 0.82449 0.8149 0.20782 0.0
C2902 C 0.83181 0.81089 0.19414 0.0
H2903 H 0.80867 0.82974 0.2189 0.0
H2904 H 0.82774 0.80964 0.21852 0.0
C2905 C 0.82712 0.81784 0.18047 0.0
C2906 C 0.6753 0.56282 0.45649 0.0
C2907 C 0.66755 0.55925 0.44294 0.0
H2908 H 0.69168 0.57713 0.46744 0.0
C2909 C 0.67205 0.56632 0.42927 0.0
H2910 H 0.67219 0.55744 0.46717 0.0
C2911 C 0.68331 0.57768 0.42943 0.0
C2912 C 0.69015 0.58208 0.44325 0.0
H2913 H 0.66627 0.56375 0.41866 0.0
H2914 H 0.68596 0.58362 0.41893 0.0
C2915 C 0.68648 0.57411 0.45664 0.0
C2916 C 0.9355 0.42318 0.70796 0.0
C2917 C 0.93916 0.41525 0.69454 0.0
H2918 H 0.92153 0.44014 0.71847 0.0
C2919 C 0.93256 0.41991 0.68068 0.0
H2920 H 0.94052 0.41996 0.71878 0.0
C2921 C 0.92158 0.43154 0.6805 0.0
C2922 C 0.91711 0.43865 0.69417 0.0
H2923 H 0.93521 0.414 0.67016 0.0
H2924 H 0.91599 0.43433 0.66985 0.0
C2925 C 0.92462 0.43477 0.70777 0.0
C2926 C 0.07373 0.56525 0.31937 0.0
C2927 C 0.07973 0.55908 0.30583 0.0
H2928 H 0.05877 0.58193 0.32926 0.0
C2929 C 0.0736 0.56367 0.29178 0.0
H2930 H 0.07826 0.56188 0.33036 0.0
C2931 C 0.06251 0.57502 0.29115 0.0
C2932 C 0.05734 0.58208 0.30457 0.0
H2933 H 0.07789 0.55899 0.28117 0.0
H2934 H 0.05855 0.5788 0.28007 0.0
C2935 C 0.0626 0.57671 0.31873 0.0
C2936 C 0.6728 0.68355 0.81965 0.0
C2937 C 0.66837 0.69067 0.80597 0.0
H2938 H 0.68664 0.66621 0.83003 0.0
C2939 C 0.67618 0.6871 0.79246 0.0
H2940 H 0.66696 0.68611 0.83024 0.0
C2941 C 0.68735 0.6758 0.79234 0.0
C2942 C 0.69096 0.6678 0.80573 0.0
H2943 H 0.67314 0.6925 0.78177 0.0
H2944 H 0.69262 0.6728 0.78156 0.0
C2945 C 0.68404 0.67217 0.81953 0.0
C2946 C 0.81329 0.42266 0.03985 0.0
C2947 C 0.80904 0.4152 0.05335 0.0
H2948 H 0.82796 0.43901 0.02934 0.0
C2949 C 0.81526 0.42013 0.06729 0.0
H2950 H 0.80857 0.41922 0.02896 0.0
C2951 C 0.82646 0.43155 0.06751 0.0
C2952 C 0.83154 0.43814 0.05381 0.0
H2953 H 0.81216 0.41458 0.07788 0.0
H2954 H 0.83176 0.43455 0.07827 0.0
C2955 C 0.82441 0.43402 0.04007 0.0
C2956 C 0.42759 0.5664 0.67421 0.0
C2957 C 0.44107 0.55963 0.66878 0.0
H2958 H 0.41781 0.58349 0.68876 0.0
C2959 C 0.45504 0.56355 0.67554 0.0
H2960 H 0.41666 0.56354 0.6692 0.0
C2961 C 0.4557 0.57488 0.68667 0.0
C2962 C 0.4424 0.58253 0.69126 0.0
H2963 H 0.46561 0.55841 0.6717 0.0
H2964 H 0.46675 0.57817 0.69111 0.0
C2965 C 0.42825 0.5778 0.68539 0.0
C2966 C 0.29219 0.67477 0.18596 0.0
C2967 C 0.30566 0.66693 0.18966 0.0
H2968 H 0.28151 0.69127 0.17158 0.0
C2969 C 0.31943 0.6714 0.18278 0.0
H2970 H 0.28143 0.67169 0.1912 0.0
C2971 C 0.31948 0.6827 0.17146 0.0
C2972 C 0.30575 0.68963 0.16692 0.0
H2973 H 0.32998 0.66556 0.18545 0.0
H2974 H 0.33006 0.68531 0.16564 0.0
C2975 C 0.29224 0.686 0.17472 0.0
C2976 C 0.82661 0.06926 0.43296 0.0
C2977 C 0.83092 0.05553 0.44004 0.0
H2978 H 0.81277 0.0798 0.41572 0.0
C2979 C 0.82288 0.04212 0.43658 0.0
H2980 H 0.83261 0.07977 0.43544 0.0
C2981 C 0.81161 0.04214 0.42538 0.0
C2982 C 0.80813 0.05557 0.41739 0.0
H2983 H 0.82584 0.0314 0.44198 0.0
H2984 H 0.80618 0.03143 0.42245 0.0
C2985 C 0.81527 0.06928 0.42168 0.0
C2986 C 0.81712 0.18264 0.828 0.0
C2987 C 0.811 0.19643 0.83343 0.0
H2988 H 0.83346 0.17204 0.81314 0.0
C2989 C 0.81539 0.21017 0.82646 0.0
H2990 H 0.81392 0.17188 0.83316 0.0
C2991 C 0.82648 0.21026 0.81507 0.0
C2992 C 0.83346 0.19662 0.8104 0.0
H2993 H 0.81076 0.22097 0.83029 0.0
H2994 H 0.83011 0.22113 0.81044 0.0
C2995 C 0.82829 0.18273 0.81655 0.0
C2996 C 0.3209 0.56597 0.07687 0.0
C2997 C 0.30723 0.55871 0.08105 0.0
H2998 H 0.33136 0.58336 0.06315 0.0
C2999 C 0.29385 0.56201 0.0729 0.0
H3000 H 0.33139 0.56362 0.08296 0.0
C3001 C 0.29383 0.57322 0.06163 0.0
C3002 C 0.30719 0.58139 0.05829 0.0
H3003 H 0.28317 0.55648 0.07575 0.0
H3004 H 0.28314 0.57604 0.05611 0.0
C3005 C 0.32088 0.57726 0.06554 0.0
C3006 C 0.18276 0.92996 0.57736 0.0
C3007 C 0.18959 0.94373 0.58192 0.0
H3008 H 0.16565 0.91935 0.56341 0.0
C3009 C 0.18579 0.95724 0.57421 0.0
H3010 H 0.18551 0.91937 0.58311 0.0
C3011 C 0.17451 0.95723 0.56302 0.0
C3012 C 0.16678 0.9437 0.55929 0.0
H3013 H 0.19098 0.96801 0.57736 0.0
H3014 H 0.17131 0.96798 0.55784 0.0
C3015 C 0.1714 0.92994 0.5661 0.0
C3016 C 0.67436 0.79299 0.68646 0.0
C3017 C 0.66658 0.80654 0.69002 0.0
H3018 H 0.69083 0.78205 0.67223 0.0
C3019 C 0.67111 0.8202 0.68296 0.0
H3020 H 0.67124 0.7823 0.69183 0.0
C3021 C 0.68242 0.82006 0.67165 0.0
C3022 C 0.68931 0.80625 0.66729 0.0
H3023 H 0.66531 0.83081 0.68551 0.0
H3024 H 0.68509 0.83056 0.66572 0.0
C3025 C 0.68559 0.79285 0.67522 0.0
C3026 C 0.70659 0.42338 0.93379 0.0
C3027 C 0.69277 0.41631 0.93772 0.0
H3028 H 0.718 0.43915 0.91914 0.0
C3029 C 0.67921 0.4213 0.93076 0.0
H3030 H 0.71722 0.41988 0.93905 0.0
C3031 C 0.67966 0.43245 0.91931 0.0
C3032 C 0.69368 0.4387 0.91466 0.0
H3033 H 0.66838 0.41606 0.9336 0.0
H3034 H 0.66917 0.43555 0.91356 0.0
C3035 C 0.70705 0.43443 0.92237 0.0
C3036 C 0.70446 0.32428 0.81351 0.0
C3037 C 0.69053 0.33089 0.8092 0.0
H3038 H 0.71596 0.30895 0.82854 0.0
C3039 C 0.67695 0.32557 0.81587 0.0
H3040 H 0.71509 0.32806 0.80848 0.0
C3041 C 0.67745 0.31458 0.82745 0.0
C3042 C 0.69153 0.30879 0.83248 0.0
H3043 H 0.66605 0.33047 0.81274 0.0
H3044 H 0.66692 0.31122 0.83297 0.0
C3045 C 0.70495 0.31333 0.82502 0.0
C3046 C 0.0435 0.93638 0.32344 0.0
C3047 C 0.05684 0.93989 0.33157 0.0
H3048 H 0.03296 0.92207 0.30679 0.0
C3049 C 0.0706 0.93276 0.32744 0.0
H3050 H 0.03276 0.94181 0.32625 0.0
C3051 C 0.07072 0.92138 0.31622 0.0
C3052 C 0.05707 0.91701 0.30902 0.0
H3053 H 0.08106 0.93528 0.33352 0.0
H3054 H 0.08126 0.91537 0.31388 0.0
C3055 C 0.04362 0.92507 0.31228 0.0
C3056 C 0.18449 0.17019 0.81825 0.0
C3057 C 0.19089 0.16546 0.80432 0.0
H3058 H 0.1678 0.18437 0.82924 0.0
C3059 C 0.18669 0.17303 0.79086 0.0
H3060 H 0.18754 0.16455 0.82881 0.0
C3061 C 0.17548 0.18429 0.7911 0.0
C3062 C 0.1682 0.18823 0.80482 0.0
H3063 H 0.19153 0.16975 0.77997 0.0
H3064 H 0.17198 0.18938 0.7804 0.0
C3065 C 0.1732 0.18152 0.8185 0.0
C3066 C 0.31315 0.42158 0.56917 0.0
C3067 C 0.30746 0.41635 0.55512 0.0
H3068 H 0.32903 0.43641 0.58045 0.0
C3069 C 0.31204 0.42366 0.54163 0.0
H3070 H 0.30977 0.41616 0.57974 0.0
C3071 C 0.323 0.43516 0.54203 0.0
C3072 C 0.32958 0.43961 0.55593 0.0
H3073 H 0.30773 0.41998 0.53065 0.0
H3074 H 0.32684 0.44005 0.53135 0.0
C3075 C 0.32416 0.43316 0.56957 0.0
C3076 C 0.31271 0.32326 0.20629 0.0
C3077 C 0.30903 0.33129 0.19293 0.0
H3078 H 0.32705 0.30659 0.21676 0.0
C3079 C 0.31594 0.32699 0.1791 0.0
H3080 H 0.30747 0.32621 0.21709 0.0
C3081 C 0.32724 0.31568 0.17891 0.0
C3082 C 0.33175 0.30854 0.19255 0.0
H3083 H 0.31329 0.33298 0.16863 0.0
H3084 H 0.33306 0.31319 0.1683 0.0
C3085 C 0.32394 0.31202 0.2061 0.0
C3086 C 0.17193 0.56581 0.92932 0.0
C3087 C 0.16754 0.55876 0.94304 0.0
H3088 H 0.18582 0.58302 0.91879 0.0
C3089 C 0.1755 0.56227 0.95648 0.0
H3090 H 0.16599 0.56329 0.91878 0.0
C3091 C 0.18677 0.57347 0.95649 0.0
C3092 C 0.19033 0.58142 0.94305 0.0
H3093 H 0.1725 0.55691 0.9672 0.0
H3094 H 0.19214 0.57645 0.96722 0.0
C3095 C 0.18327 0.57708 0.92932 0.0
C3096 C 0.57085 0.42133 0.315 0.0
C3097 C 0.55715 0.4171 0.30781 0.0
H3098 H 0.58136 0.43511 0.33231 0.0
C3099 C 0.54377 0.42526 0.31114 0.0
H3100 H 0.58134 0.41524 0.31262 0.0
C3101 C 0.54379 0.43655 0.32233 0.0
C3102 C 0.55718 0.43994 0.33043 0.0
H3103 H 0.53307 0.42237 0.30567 0.0
H3104 H 0.5331 0.44206 0.32518 0.0
C3105 C 0.57086 0.43269 0.32626 0.0
C3106 C 0.18319 0.81898 0.17156 0.0
C3107 C 0.1903 0.80529 0.16714 0.0
H3108 H 0.16594 0.8294 0.18548 0.0
C3109 C 0.18685 0.79181 0.17507 0.0
H3110 H 0.18566 0.82954 0.16565 0.0
C3111 C 0.17564 0.79173 0.18633 0.0
C3112 C 0.16763 0.80513 0.18992 0.0
H3113 H 0.19225 0.78112 0.17203 0.0
H3114 H 0.17271 0.78098 0.19168 0.0
C3115 C 0.17192 0.81889 0.1829 0.0
C3116 C 0.3128 0.20709 0.32389 0.0
C3117 C 0.30896 0.19358 0.33157 0.0
H3118 H 0.32727 0.21781 0.3075 0.0
C3119 C 0.31573 0.17979 0.32697 0.0
H3120 H 0.30766 0.21787 0.32707 0.0
C3121 C 0.32706 0.17976 0.31567 0.0
C3122 C 0.33171 0.19352 0.30888 0.0
H3123 H 0.31296 0.1692 0.3327 0.0
H3124 H 0.33277 0.16915 0.31294 0.0
C3125 C 0.32405 0.20706 0.31266 0.0
C3126 C 0.92944 0.06782 0.67172 0.0
C3127 C 0.94313 0.06085 0.6671 0.0
H3128 H 0.91906 0.08522 0.68551 0.0
C3129 C 0.95677 0.06486 0.67449 0.0
H3130 H 0.91876 0.06493 0.66622 0.0
C3131 C 0.95694 0.07642 0.6854 0.0
C3132 C 0.94348 0.0842 0.68922 0.0
H3133 H 0.96749 0.05959 0.67129 0.0
H3134 H 0.96778 0.07972 0.69034 0.0
C3135 C 0.92961 0.07942 0.68274 0.0
C3136 C 0.56566 0.17406 0.95865 0.0
C3137 C 0.55948 0.16886 0.94481 0.0
H3138 H 0.58192 0.18857 0.96954 0.0
C3139 C 0.56399 0.17587 0.93112 0.0
H3140 H 0.56231 0.16896 0.96939 0.0
C3141 C 0.57528 0.18717 0.9312 0.0
C3142 C 0.58219 0.19158 0.94498 0.0
H3143 H 0.55937 0.1721 0.92029 0.0
H3144 H 0.57912 0.19187 0.92044 0.0
C3145 C 0.5769 0.1853 0.95873 0.0
C3146 C 0.43448 0.924 0.70884 0.0
C3147 C 0.43876 0.91672 0.69523 0.0
H3148 H 0.41952 0.93993 0.71961 0.0
C3149 C 0.43227 0.92158 0.6814 0.0
H3150 H 0.43939 0.92061 0.71966 0.0
C3151 C 0.4208 0.93273 0.68138 0.0
C3152 C 0.41571 0.93912 0.69518 0.0
H3153 H 0.43538 0.91616 0.67074 0.0
H3154 H 0.41533 0.93568 0.6707 0.0
C3155 C 0.42308 0.93508 0.70881 0.0
C3156 C 0.57358 0.06303 0.29203 0.0
C3157 C 0.58134 0.05943 0.30557 0.0
H3158 H 0.55721 0.07738 0.28112 0.0
C3159 C 0.57682 0.06646 0.31926 0.0
H3160 H 0.5767 0.05768 0.28134 0.0
C3161 C 0.56556 0.07782 0.31914 0.0
C3162 C 0.55873 0.08226 0.30533 0.0
H3163 H 0.58259 0.06387 0.32987 0.0
H3164 H 0.56291 0.08374 0.32966 0.0
C3165 C 0.56241 0.07432 0.29191 0.0
C3166 C 0.42176 0.3174 0.56711 0.0
C3167 C 0.41701 0.31056 0.5534 0.0
H3168 H 0.43555 0.33478 0.57751 0.0
C3169 C 0.4242 0.31476 0.53971 0.0
H3170 H 0.41641 0.31436 0.57782 0.0
C3171 C 0.43505 0.32637 0.53953 0.0
C3172 C 0.43897 0.33404 0.55303 0.0
H3173 H 0.4209 0.30959 0.52898 0.0
H3174 H 0.43983 0.32983 0.52867 0.0
C3175 C 0.43269 0.32908 0.56692 0.0
C3176 C 0.43392 0.67917 0.92097 0.0
C3177 C 0.44106 0.69289 0.9167 0.0
H3178 H 0.41656 0.66864 0.93467 0.0
C3179 C 0.43749 0.70632 0.92467 0.0
H3180 H 0.43648 0.66864 0.91502 0.0
C3181 C 0.42617 0.70632 0.93582 0.0
C3182 C 0.41816 0.69289 0.93926 0.0
H3183 H 0.44291 0.71704 0.92175 0.0
H3184 H 0.42316 0.71704 0.94119 0.0
C3185 C 0.42253 0.67917 0.9322 0.0
C3186 C 0.79254 0.18464 0.17503 0.0
C3187 C 0.80611 0.1883 0.16735 0.0
H3188 H 0.78148 0.17001 0.19106 0.0
C3189 C 0.81971 0.18098 0.17166 0.0
H3190 H 0.78189 0.19019 0.17207 0.0
C3191 C 0.81947 0.16935 0.18263 0.0
C3192 C 0.80562 0.1649 0.18939 0.0
H3193 H 0.83035 0.18359 0.16593 0.0
H3194 H 0.82993 0.16326 0.18514 0.0
C3195 C 0.79229 0.17306 0.18591 0.0
C3196 C 0.32587 0.53828 0.43407 0.0
C3197 C 0.33283 0.55201 0.4385 0.0
H3198 H 0.3099 0.52734 0.41927 0.0
C3199 C 0.32741 0.56581 0.43239 0.0
H3200 H 0.32969 0.52747 0.43868 0.0
C3201 C 0.31599 0.56574 0.42119 0.0
C3202 C 0.30987 0.55186 0.41598 0.0
H3203 H 0.33256 0.57657 0.43563 0.0
H3204 H 0.3126 0.57644 0.41603 0.0
C3205 C 0.31451 0.53821 0.42294 0.0
C3206 C 0.92866 0.172 0.56352 0.0
C3207 C 0.94281 0.16691 0.55795 0.0
H3208 H 0.91707 0.18661 0.5794 0.0
C3209 C 0.95619 0.17422 0.56283 0.0
H3210 H 0.91815 0.16658 0.55992 0.0
C3211 C 0.95558 0.18559 0.57392 0.0
C3212 C 0.94157 0.18991 0.58035 0.0
H3213 H 0.96726 0.17064 0.55864 0.0
H3214 H 0.96618 0.19048 0.57797 0.0
C3215 C 0.92804 0.18346 0.57466 0.0
C3216 C 0.82018 0.07663 0.06354 0.0
C3217 C 0.80618 0.08166 0.05756 0.0
H3218 H 0.83135 0.06209 0.07974 0.0
C3219 C 0.7927 0.07424 0.06198 0.0
H3220 H 0.83076 0.08214 0.06029 0.0
C3221 C 0.79303 0.06285 0.07306 0.0
C3222 C 0.80686 0.05863 0.07993 0.0
H3223 H 0.78175 0.07776 0.05746 0.0
H3224 H 0.78234 0.05789 0.07678 0.0
C3225 C 0.82052 0.06517 0.07466 0.0
C3226 C 0.42608 0.54274 0.31116 0.0
C3227 C 0.41779 0.55608 0.30803 0.0
H3228 H 0.443 0.53203 0.32503 0.0
C3229 C 0.4219 0.56972 0.3154 0.0
H3230 H 0.42329 0.53209 0.30554 0.0
C3231 C 0.43328 0.56969 0.32663 0.0
C3232 C 0.44066 0.55602 0.33061 0.0
H3233 H 0.41571 0.58018 0.31317 0.0
H3234 H 0.43561 0.58013 0.33282 0.0
C3235 C 0.43738 0.54271 0.32233 0.0
C3236 C 0.68515 0.45834 0.57581 0.0
C3237 C 0.68898 0.4449 0.58363 0.0
H3238 H 0.67107 0.4688 0.55894 0.0
C3239 C 0.68255 0.431 0.57885 0.0
H3240 H 0.69004 0.4692 0.57912 0.0
C3241 C 0.67158 0.43077 0.56721 0.0
C3242 C 0.66695 0.44443 0.56021 0.0
H3243 H 0.68533 0.42046 0.58467 0.0
H3244 H 0.66612 0.42007 0.56432 0.0
C3245 C 0.67428 0.4581 0.56423 0.0
C3246 C 0.20548 0.92531 0.9368 0.0
C3247 C 0.19209 0.91717 0.9401 0.0
H3248 H 0.21626 0.94196 0.92266 0.0
C3249 C 0.17845 0.92129 0.93276 0.0
H3250 H 0.21614 0.9225 0.94239 0.0
C3251 C 0.17851 0.93252 0.92137 0.0
C3252 C 0.19223 0.93972 0.91722 0.0
H3253 H 0.16795 0.91521 0.93511 0.0
H3254 H 0.16807 0.93485 0.9152 0.0
C3255 C 0.20555 0.93647 0.92548 0.0
C3256 C 0.56172 0.9557 0.17622 0.0
C3257 C 0.55852 0.94235 0.16799 0.0
H3258 H 0.57565 0.96638 0.19311 0.0
C3259 C 0.56581 0.92868 0.17213 0.0
H3260 H 0.55617 0.96637 0.1734 0.0
C3261 C 0.57705 0.92869 0.1835 0.0
C3262 C 0.58111 0.94236 0.19083 0.0
H3263 H 0.56352 0.91821 0.16598 0.0
H3264 H 0.58319 0.91822 0.18585 0.0
C3265 C 0.5729 0.9557 0.18753 0.0
C3266 C 0.07109 0.31565 0.9222 0.0
C3267 C 0.05753 0.3083 0.91784 0.0
H3268 H 0.08126 0.33313 0.93602 0.0
C3269 C 0.04401 0.31155 0.9258 0.0
H3270 H 0.08168 0.31334 0.91627 0.0
C3271 C 0.04376 0.32282 0.93701 0.0
C3272 C 0.05703 0.33106 0.94053 0.0
H3273 H 0.0334 0.30596 0.92281 0.0
H3274 H 0.03297 0.32561 0.94237 0.0
C3275 C 0.07085 0.32697 0.93349 0.0
C3276 C 0.57313 0.79177 0.5638 0.0
C3277 C 0.58078 0.8053 0.55993 0.0
H3278 H 0.55681 0.78101 0.57832 0.0
C3279 C 0.57616 0.81908 0.56672 0.0
H3280 H 0.57632 0.781 0.55865 0.0
C3281 C 0.56488 0.81909 0.57807 0.0
C3282 C 0.55814 0.80532 0.58275 0.0
H3283 H 0.58185 0.82968 0.56392 0.0
H3284 H 0.56213 0.8297 0.58378 0.0
C3285 C 0.56194 0.79178 0.57508 0.0
C3286 C 0.20517 0.82287 0.81205 0.0
C3287 C 0.19177 0.83095 0.80866 0.0
H3288 H 0.21592 0.80626 0.82626 0.0
C3289 C 0.17809 0.82678 0.81592 0.0
H3290 H 0.21585 0.82571 0.80652 0.0
C3291 C 0.17813 0.81555 0.82731 0.0
C3292 C 0.19184 0.8084 0.83154 0.0
H3293 H 0.16759 0.83281 0.8135 0.0
H3294 H 0.16765 0.81318 0.83341 0.0
C3295 C 0.20521 0.81171 0.82337 0.0
C3296 C 0.43622 0.82382 0.04201 0.0
C3297 C 0.43994 0.83151 0.05556 0.0
H3298 H 0.42184 0.80745 0.03115 0.0
C3299 C 0.43303 0.82691 0.06929 0.0
H3300 H 0.44147 0.827 0.03128 0.0
C3301 C 0.4217 0.81563 0.06921 0.0
C3302 C 0.41717 0.80884 0.0554 0.0
H3303 H 0.43571 0.83264 0.0799 0.0
H3304 H 0.41589 0.8129 0.07976 0.0
C3305 C 0.42496 0.81261 0.04194 0.0
C3306 C 0.56551 0.6713 0.42982 0.0
C3307 C 0.55862 0.66672 0.44356 0.0
H3308 H 0.5826 0.68535 0.4193 0.0
C3309 C 0.56229 0.67448 0.45708 0.0
H3310 H 0.56287 0.66551 0.41923 0.0
C3311 C 0.5735 0.68575 0.45712 0.0
C3312 C 0.58129 0.6895 0.44364 0.0
H3313 H 0.55706 0.67132 0.46782 0.0
H3314 H 0.5766 0.69097 0.46789 0.0
C3315 C 0.57679 0.68264 0.42986 0.0
C3316 C 0.57571 0.31936 0.06491 0.0
C3317 C 0.58195 0.30587 0.0589 0.0
H3318 H 0.56039 0.3292 0.0813 0.0
C3319 C 0.57598 0.29176 0.06358 0.0
H3320 H 0.58009 0.33039 0.06148 0.0
C3321 C 0.56475 0.29109 0.07481 0.0
C3322 C 0.55927 0.3045 0.08165 0.0
H3323 H 0.58045 0.28118 0.05903 0.0
H3324 H 0.56089 0.27999 0.07863 0.0
C3325 C 0.56444 0.31868 0.07624 0.0
C3326 C 0.04386 0.82281 0.43671 0.0
C3327 C 0.05716 0.8311 0.43999 0.0
H3328 H 0.03332 0.80586 0.42276 0.0
C3329 C 0.07089 0.82698 0.43279 0.0
H3330 H 0.03314 0.82562 0.44219 0.0
C3331 C 0.07099 0.81558 0.42157 0.0
C3332 C 0.05737 0.80818 0.41745 0.0
H3333 H 0.08132 0.83317 0.43513 0.0
H3334 H 0.0815 0.81324 0.4155 0.0
C3335 C 0.04396 0.81148 0.42557 0.0
C3336 C 0.57305 0.43103 0.68202 0.0
C3337 C 0.5793 0.4445 0.68805 0.0
H3338 H 0.55795 0.42123 0.66541 0.0
C3339 C 0.57357 0.45863 0.68317 0.0
H3340 H 0.57725 0.41998 0.68561 0.0
C3341 C 0.5626 0.45935 0.67169 0.0
C3342 C 0.55713 0.44595 0.66484 0.0
H3343 H 0.57807 0.46921 0.68772 0.0
H3344 H 0.55894 0.47046 0.66771 0.0
C3345 C 0.56202 0.43175 0.67047 0.0
C3346 C 0.43597 0.04209 0.82487 0.0
C3347 C 0.44173 0.05594 0.83051 0.0
H3348 H 0.42002 0.03118 0.81004 0.0
C3349 C 0.43682 0.0697 0.82391 0.0
H3350 H 0.43964 0.0313 0.82963 0.0
C3351 C 0.42554 0.06964 0.81261 0.0
C3352 C 0.41902 0.0558 0.8078 0.0
H3353 H 0.44111 0.08054 0.82803 0.0
H3354 H 0.42135 0.08042 0.80826 0.0
C3355 C 0.42473 0.04203 0.81364 0.0
C3356 C 0.92779 0.67147 0.0658 0.0
C3357 C 0.94152 0.66729 0.05865 0.0
H3358 H 0.91719 0.68526 0.08305 0.0
C3359 C 0.95484 0.67555 0.06193 0.0
H3360 H 0.91735 0.66529 0.06346 0.0
C3361 C 0.95475 0.68691 0.07304 0.0
C3362 C 0.94134 0.69024 0.08114 0.0
H3363 H 0.96556 0.6727 0.05647 0.0
H3364 H 0.9654 0.6925 0.07587 0.0
C3365 C 0.9277 0.68289 0.077 0.0
C3366 C 0.43303 0.17932 0.42101 0.0
C3367 C 0.43996 0.19314 0.41676 0.0
H3368 H 0.41585 0.16853 0.43475 0.0
C3369 C 0.4363 0.20649 0.4248 0.0
H3370 H 0.43567 0.16885 0.41499 0.0
C3371 C 0.42505 0.20631 0.43602 0.0
C3372 C 0.41721 0.19277 0.43944 0.0
H3373 H 0.44157 0.21729 0.42189 0.0
H3374 H 0.42195 0.21697 0.44147 0.0
C3375 C 0.4217 0.17913 0.4323 0.0
C3376 C 0.43658 0.42415 0.2065 0.0
C3377 C 0.4403 0.41636 0.19301 0.0
H3378 H 0.42225 0.44067 0.21723 0.0
C3379 C 0.43346 0.42092 0.17924 0.0
H3380 H 0.44177 0.421 0.21726 0.0
C3381 C 0.42218 0.43226 0.17922 0.0
C3382 C 0.41764 0.43916 0.19297 0.0
H3383 H 0.43614 0.41511 0.16867 0.0
H3384 H 0.41642 0.43495 0.16863 0.0
C3385 C 0.42538 0.43543 0.20648 0.0
C3386 C 0.57664 0.56419 0.78945 0.0
C3387 C 0.58384 0.5596 0.80299 0.0
H3388 H 0.56062 0.57923 0.77897 0.0
C3389 C 0.57879 0.56566 0.81696 0.0
H3390 H 0.58018 0.55961 0.77853 0.0
C3391 C 0.5675 0.577 0.81721 0.0
C3392 C 0.56116 0.58238 0.80351 0.0
H3393 H 0.58414 0.5623 0.82757 0.0
H3394 H 0.5644 0.58213 0.82802 0.0
C3395 C 0.56542 0.57545 0.78971 0.0
C3396 C 0.79314 0.68708 0.67506 0.0
C3397 C 0.80648 0.69069 0.66697 0.0
H3398 H 0.78266 0.67279 0.69177 0.0
C3399 C 0.82029 0.68372 0.6712 0.0
H3400 H 0.78235 0.69238 0.67217 0.0
C3401 C 0.82048 0.67241 0.68251 0.0
C3402 C 0.80684 0.66797 0.68969 0.0
H3403 H 0.83075 0.68632 0.66516 0.0
H3404 H 0.83107 0.66654 0.68494 0.0
C3405 C 0.79332 0.67584 0.68629 0.0
C3406 C 0.31767 0.06586 0.9192 0.0
C3407 C 0.31187 0.05197 0.91366 0.0
H3408 H 0.33388 0.07673 0.93404 0.0
C3409 C 0.31682 0.03827 0.92031 0.0
H3410 H 0.31404 0.07659 0.91428 0.0
C3411 C 0.32807 0.03834 0.93153 0.0
C3412 C 0.33466 0.05212 0.93636 0.0
H3413 H 0.31246 0.02739 0.9164 0.0
H3414 H 0.33207 0.02752 0.93594 0.0
C3415 C 0.32901 0.06594 0.93049 0.0
C3416 C 0.79293 0.5737 0.5629 0.0
C3417 C 0.80635 0.58169 0.55934 0.0
H3418 H 0.78227 0.55708 0.57715 0.0
C3419 C 0.82009 0.57737 0.56638 0.0
H3420 H 0.78219 0.57667 0.55755 0.0
C3421 C 0.82014 0.56606 0.57768 0.0
C3422 C 0.80644 0.55897 0.58207 0.0
H3423 H 0.83061 0.58333 0.56382 0.0
H3424 H 0.83069 0.56356 0.5836 0.0
C3425 C 0.79298 0.56247 0.57414 0.0
C3426 C 0.67468 0.95874 0.06435 0.0
C3427 C 0.6673 0.94511 0.06032 0.0
H3428 H 0.69078 0.96966 0.07901 0.0
C3429 C 0.67216 0.93135 0.06697 0.0
H3430 H 0.6713 0.9695 0.0593 0.0
C3431 C 0.68341 0.93144 0.07834 0.0
C3432 C 0.6899 0.9453 0.08318 0.0
H3433 H 0.66666 0.92068 0.06406 0.0
H3434 H 0.68634 0.92083 0.08395 0.0
C3435 C 0.68585 0.95883 0.07565 0.0
C3436 C 0.20484 0.43491 0.42573 0.0
C3437 C 0.19115 0.43902 0.41851 0.0
H3438 H 0.21585 0.42002 0.44154 0.0
C3439 C 0.17743 0.43228 0.42336 0.0
H3440 H 0.21557 0.44001 0.42233 0.0
C3441 C 0.17759 0.42076 0.43443 0.0
C3442 C 0.19147 0.41586 0.44076 0.0
H3443 H 0.1667 0.43527 0.41801 0.0
H3444 H 0.16699 0.41512 0.43736 0.0
C3445 C 0.20499 0.42345 0.43674 0.0
C3446 C 0.20644 0.31346 0.32356 0.0
C3447 C 0.19287 0.30966 0.33118 0.0
H3448 H 0.21742 0.32817 0.30755 0.0
C3449 C 0.17921 0.31683 0.3268 0.0
H3450 H 0.21713 0.30802 0.32657 0.0
C3451 C 0.17938 0.32846 0.31582 0.0
C3452 C 0.19321 0.33304 0.30911 0.0
H3453 H 0.16859 0.31411 0.33249 0.0
H3454 H 0.16887 0.33444 0.31326 0.0
C3455 C 0.20661 0.32502 0.31266 0.0
C3456 C 0.094 0.08245 0.43508 0.0
C3457 C 0.09658 0.07369 0.44824 0.0
H3458 H 0.08065 0.09995 0.42449 0.0
C3459 C 0.08795 0.07667 0.46141 0.0
H3460 H 0.1005 0.08043 0.42476 0.0
C3461 C 0.07658 0.08786 0.46125 0.0
C3462 C 0.07364 0.09625 0.44792 0.0
H3463 H 0.08971 0.07012 0.47173 0.0
H3464 H 0.06984 0.08966 0.47146 0.0
C3465 C 0.08263 0.09363 0.43492 0.0
C3466 C 0.9128 0.32094 0.71028 0.0
C3467 C 0.90172 0.32122 0.6987 0.0
H3468 H 0.93267 0.33155 0.7198 0.0
C3469 C 0.90193 0.33315 0.68801 0.0
H3470 H 0.91289 0.3119 0.7187 0.0
C3471 C 0.91329 0.34432 0.68857 0.0
C3472 C 0.92458 0.34385 0.69992 0.0
H3473 H 0.89352 0.33368 0.67897 0.0
H3474 H 0.91336 0.35318 0.67996 0.0
C3475 C 0.92409 0.33221 0.71093 0.0
C3476 C 0.65294 0.1674 0.93883 0.0
C3477 C 0.65287 0.17889 0.95002 0.0
H3478 H 0.66407 0.14757 0.92997 0.0
C3479 C 0.66383 0.17844 0.9617 0.0
H3480 H 0.64461 0.16741 0.92971 0.0
C3481 C 0.67496 0.167 0.96189 0.0
C3482 C 0.67536 0.15586 0.95035 0.0
H3483 H 0.66403 0.18713 0.97049 0.0
H3484 H 0.68351 0.16713 0.97081 0.0
C3485 C 0.66409 0.15603 0.93897 0.0
C3486 C 0.82381 0.91776 0.21033 0.0
C3487 C 0.82366 0.90571 0.19974 0.0
H3488 H 0.83475 0.93836 0.21767 0.0
C3489 C 0.83526 0.90487 0.18873 0.0
H3490 H 0.81498 0.91871 0.21892 0.0
C3491 C 0.84663 0.91602 0.1881 0.0
C3492 C 0.84651 0.92834 0.19836 0.0
H3493 H 0.83545 0.89569 0.18045 0.0
H3494 H 0.85529 0.91518 0.17933 0.0
C3495 C 0.83509 0.92902 0.20958 0.0
C3496 C 0.07697 0.16084 0.78716 0.0
C3497 C 0.07373 0.15243 0.80041 0.0
H3498 H 0.09041 0.17852 0.77697 0.0
C3499 C 0.08239 0.15508 0.81364 0.0
H3500 H 0.07049 0.15903 0.7768 0.0
C3501 C 0.09378 0.16623 0.81374 0.0
C3502 C 0.09673 0.17494 0.80062 0.0
H3503 H 0.08016 0.14875 0.82401 0.0
H3504 H 0.10006 0.16823 0.82419 0.0
C3505 C 0.08837 0.172 0.78726 0.0
C3506 C 0.83293 0.34265 0.06304 0.0
C3507 C 0.82461 0.34512 0.04957 0.0
H3508 H 0.85037 0.32969 0.07419 0.0
C3509 C 0.82834 0.3367 0.03645 0.0
H3510 H 0.83034 0.349 0.07333 0.0
C3511 C 0.83981 0.32563 0.03695 0.0
C3512 C 0.84776 0.3228 0.05057 0.0
H3513 H 0.82213 0.33839 0.0259 0.0
H3514 H 0.84218 0.31905 0.02677 0.0
C3515 C 0.8444 0.3316 0.06354 0.0
C3516 C 0.66561 0.09464 0.31271 0.0
C3517 C 0.67475 0.09689 0.29974 0.0
H3518 H 0.64773 0.08165 0.32309 0.0
C3519 C 0.67202 0.08805 0.28665 0.0
H3520 H 0.66743 0.10131 0.32296 0.0
C3521 C 0.66073 0.07678 0.28673 0.0
C3522 C 0.65198 0.07415 0.2999 0.0
H3523 H 0.67887 0.08955 0.27648 0.0
H3524 H 0.65914 0.06987 0.27661 0.0
C3525 C 0.65433 0.08337 0.31279 0.0
C3526 C 0.90557 0.91703 0.56357 0.0
C3527 C 0.90276 0.92599 0.55058 0.0
H3528 H 0.91899 0.89927 0.57361 0.0
C3529 C 0.91115 0.92317 0.53721 0.0
H3530 H 0.89927 0.91892 0.57403 0.0
C3531 C 0.92245 0.91192 0.53697 0.0
C3532 C 0.92556 0.90326 0.55009 0.0
H3533 H 0.90921 0.92988 0.52702 0.0
H3534 H 0.92895 0.91022 0.5266 0.0
C3535 C 0.91686 0.90578 0.56333 0.0
C3536 C 0.46228 0.07606 0.08879 0.0
C3537 C 0.449 0.07334 0.09736 0.0
H3538 H 0.47263 0.08875 0.07065 0.0
C3539 C 0.43604 0.08239 0.09473 0.0
H3540 H 0.47245 0.06928 0.09059 0.0
C3541 C 0.43614 0.09351 0.08332 0.0
C3542 C 0.4492 0.09581 0.07433 0.0
H3543 H 0.42566 0.08059 0.10119 0.0
H3544 H 0.42583 0.10001 0.08128 0.0
C3545 C 0.46238 0.0872 0.07738 0.0
C3546 C 0.91605 0.68643 0.34359 0.0
C3547 C 0.92497 0.69952 0.34609 0.0
H3548 H 0.89832 0.67599 0.33044 0.0
C3549 C 0.92204 0.71269 0.33745 0.0
H3550 H 0.91801 0.67611 0.3501 0.0
C3551 C 0.91076 0.71262 0.32618 0.0
C3552 C 0.90219 0.69937 0.32335 0.0
H3553 H 0.92872 0.72295 0.33914 0.0
H3554 H 0.90899 0.72283 0.31945 0.0
C3555 C 0.90477 0.68636 0.33233 0.0
C3556 C 0.31291 0.16608 0.5939 0.0
C3557 C 0.30002 0.17539 0.59594 0.0
H3558 H 0.32314 0.14785 0.58126 0.0
C3559 C 0.28693 0.17263 0.58712 0.0
H3560 H 0.32315 0.16791 0.60057 0.0
C3561 C 0.28692 0.16113 0.57606 0.0
C3562 C 0.30001 0.1522 0.57363 0.0
H3563 H 0.27682 0.1796 0.58847 0.0
H3564 H 0.27681 0.15952 0.56915 0.0
C3565 C 0.3129 0.15459 0.58284 0.0
C3566 C 0.8454 0.56268 0.8332 0.0
C3567 C 0.84766 0.5499 0.8238 0.0
H3568 H 0.8323 0.57274 0.85119 0.0
C3569 C 0.83875 0.53679 0.82619 0.0
H3570 H 0.85213 0.57293 0.83165 0.0
C3571 C 0.82739 0.53669 0.83738 0.0
C3572 C 0.82474 0.54968 0.84638 0.0
H3573 H 0.84026 0.52676 0.81914 0.0
H3574 H 0.82041 0.52657 0.8387 0.0
C3575 C 0.83404 0.56257 0.84438 0.0
C3576 C 0.46169 0.1711 0.16019 0.0
C3577 C 0.44852 0.17383 0.15148 0.0
H3578 H 0.47188 0.15832 0.17835 0.0
C3579 C 0.43552 0.16478 0.15396 0.0
H3580 H 0.47189 0.17787 0.15851 0.0
C3581 C 0.43552 0.1536 0.16532 0.0
C3582 C 0.4485 0.15125 0.1744 0.0
H3583 H 0.42522 0.1666 0.1474 0.0
H3584 H 0.4252 0.14707 0.16722 0.0
C3585 C 0.46169 0.1599 0.17155 0.0
C3586 C 0.83814 0.71201 0.42201 0.0
C3587 C 0.84669 0.69874 0.42478 0.0
H3588 H 0.82015 0.7224 0.40913 0.0
C3589 C 0.84411 0.68577 0.41572 0.0
H3590 H 0.8399 0.72219 0.42879 0.0
C3591 C 0.83281 0.68589 0.40448 0.0
C3592 C 0.82388 0.69898 0.40208 0.0
H3593 H 0.85055 0.6754 0.41757 0.0
H3594 H 0.83083 0.6756 0.39794 0.0
C3595 C 0.82683 0.71213 0.41076 0.0
C3596 C 0.28831 0.0748 0.66565 0.0
C3597 C 0.2995 0.07424 0.65418 0.0
H3598 H 0.28026 0.08606 0.68581 0.0
C3599 C 0.31087 0.08553 0.65384 0.0
H3600 H 0.27941 0.06625 0.6662 0.0
C3601 C 0.31129 0.09691 0.66499 0.0
C3602 C 0.30043 0.09716 0.67678 0.0
H3603 H 0.31962 0.08541 0.64511 0.0
H3604 H 0.32038 0.10528 0.6646 0.0
C3605 C 0.28881 0.08612 0.67689 0.0
C3606 C 0.91083 0.5362 0.92228 0.0
C3607 C 0.90219 0.54941 0.92508 0.0
H3608 H 0.92889 0.52595 0.90938 0.0
C3609 C 0.90471 0.56242 0.91608 0.0
H3610 H 0.90911 0.52599 0.92902 0.0
C3611 C 0.91602 0.5624 0.90485 0.0
C3612 C 0.92503 0.54937 0.9024 0.0
H3613 H 0.8982 0.57276 0.91795 0.0
H3614 H 0.91796 0.57272 0.89834 0.0
C3615 C 0.92215 0.53618 0.91104 0.0
C3616 C 0.08839 0.46246 0.07626 0.0
C3617 C 0.09688 0.44913 0.07354 0.0
H3618 H 0.07049 0.47302 0.08913 0.0
C3619 C 0.09421 0.43621 0.08263 0.0
H3620 H 0.09022 0.4726 0.06944 0.0
C3621 C 0.08293 0.43645 0.09389 0.0
C3622 C 0.0741 0.44961 0.09628 0.0
H3623 H 0.10059 0.42579 0.08083 0.0
H3624 H 0.0809 0.4262 0.10049 0.0
C3625 C 0.0771 0.4627 0.08752 0.0
C3626 C 0.59396 0.31217 0.16552 0.0
C3627 C 0.59654 0.29921 0.17458 0.0
H3628 H 0.58063 0.32237 0.14779 0.0
C3629 C 0.58786 0.286 0.17194 0.0
H3630 H 0.6005 0.32251 0.16728 0.0
C3631 C 0.57647 0.28592 0.16077 0.0
C3632 C 0.57356 0.29905 0.15206 0.0
H3633 H 0.58962 0.27583 0.17873 0.0
H3634 H 0.56972 0.27568 0.15922 0.0
C3635 C 0.58258 0.31209 0.15437 0.0
C3636 C 0.68522 0.8333 0.40481 0.0
C3637 C 0.69818 0.82414 0.4026 0.0
H3638 H 0.67482 0.85119 0.41777 0.0
C3639 C 0.71124 0.82685 0.41148 0.0
H3640 H 0.675 0.83151 0.3981 0.0
C3641 C 0.71114 0.83814 0.42276 0.0
C3642 C 0.69797 0.8469 0.42535 0.0
H3643 H 0.72141 0.81999 0.41001 0.0
H3644 H 0.72123 0.8397 0.42971 0.0
C3645 C 0.68511 0.84458 0.41607 0.0
C3646 C 0.17178 0.96189 0.66121 0.0
C3647 C 0.1748 0.94873 0.65258 0.0
H3648 H 0.15856 0.97198 0.67912 0.0
C3649 C 0.16592 0.93561 0.65499 0.0
H3650 H 0.17842 0.97218 0.65957 0.0
C3651 C 0.15456 0.9355 0.66618 0.0
C3652 C 0.15187 0.9485 0.67515 0.0
H3653 H 0.16797 0.9253 0.64849 0.0
H3654 H 0.14813 0.9251 0.66802 0.0
C3655 C 0.16041 0.96178 0.67239 0.0
C3656 C 0.53766 0.41134 0.42125 0.0
C3657 C 0.55076 0.40254 0.42403 0.0
H3658 H 0.52756 0.42939 0.40825 0.0
C3659 C 0.56371 0.40473 0.41485 0.0
H3660 H 0.52749 0.40988 0.42813 0.0
C3661 C 0.56375 0.4159 0.40347 0.0
C3662 C 0.55084 0.42508 0.40107 0.0
H3663 H 0.57397 0.39809 0.41669 0.0
H3664 H 0.57403 0.41759 0.39683 0.0
C3665 C 0.53769 0.42251 0.40987 0.0
C3666 C 0.16096 0.78633 0.07666 0.0
C3667 C 0.15225 0.7995 0.07388 0.0
H3668 H 0.17904 0.77615 0.08956 0.0
C3669 C 0.15465 0.81249 0.08296 0.0
H3670 H 0.15933 0.77614 0.06987 0.0
C3671 C 0.16592 0.8125 0.09422 0.0
C3672 C 0.17501 0.79952 0.09663 0.0
H3673 H 0.14809 0.82279 0.08111 0.0
H3674 H 0.16777 0.82281 0.10078 0.0
C3675 C 0.17224 0.78634 0.08793 0.0
C3676 C 0.71137 0.911 0.32765 0.0
C3677 C 0.69821 0.90238 0.3246 0.0
H3678 H 0.72141 0.92899 0.3408 0.0
C3679 C 0.68505 0.90487 0.33341 0.0
H3680 H 0.72169 0.90931 0.32106 0.0
C3681 C 0.68489 0.91612 0.3447 0.0
C3682 C 0.69789 0.9251 0.34739 0.0
H3683 H 0.67474 0.89837 0.33134 0.0
H3684 H 0.67447 0.91802 0.35106 0.0
C3685 C 0.71121 0.92226 0.33895 0.0
C3686 C 0.03774 0.32607 0.83879 0.0
C3687 C 0.05095 0.32368 0.84754 0.0
H3688 H 0.02725 0.33865 0.82066 0.0
C3689 C 0.06366 0.33316 0.84521 0.0
H3690 H 0.02776 0.31896 0.84036 0.0
C3691 C 0.06337 0.34443 0.83394 0.0
C3692 C 0.05037 0.34642 0.82479 0.0
H3693 H 0.07399 0.33162 0.85181 0.0
H3694 H 0.07348 0.35129 0.83213 0.0
C3695 C 0.03745 0.33734 0.82752 0.0
C3696 C 0.08185 0.65453 0.31227 0.0
C3697 C 0.07284 0.65239 0.2992 0.0
H3698 H 0.0999 0.66719 0.32279 0.0
C3699 C 0.07588 0.66112 0.28611 0.0
H3700 H 0.0798 0.64794 0.32252 0.0
C3701 C 0.0874 0.67215 0.28627 0.0
C3702 C 0.09608 0.67464 0.29952 0.0
H3703 H 0.06914 0.65969 0.27586 0.0
H3704 H 0.08926 0.67896 0.27613 0.0
C3705 C 0.09336 0.66555 0.31243 0.0
C3706 C 0.3323 0.84325 0.06279 0.0
C3707 C 0.3234 0.8458 0.04971 0.0
H3708 H 0.35003 0.83006 0.07318 0.0
C3709 C 0.32633 0.8372 0.0365 0.0
H3710 H 0.33032 0.84972 0.07313 0.0
C3711 C 0.33762 0.82593 0.03653 0.0
C3712 C 0.34618 0.82306 0.04977 0.0
H3713 H 0.31966 0.83893 0.02624 0.0
H3714 H 0.33939 0.81924 0.02629 0.0
C3715 C 0.34358 0.83199 0.06282 0.0
C3716 C 0.16681 0.09312 0.81209 0.0
C3717 C 0.17564 0.09551 0.79893 0.0
H3718 H 0.14904 0.08014 0.82268 0.0
C3719 C 0.17249 0.08693 0.78576 0.0
H3720 H 0.16894 0.09959 0.8224 0.0
C3721 C 0.16109 0.07578 0.78593 0.0
C3722 C 0.15263 0.07301 0.79927 0.0
H3723 H 0.1791 0.08855 0.77545 0.0
H3724 H 0.15917 0.06906 0.77574 0.0
C3725 C 0.15541 0.08198 0.81225 0.0
C3726 C 0.92286 0.83752 0.21238 0.0
C3727 C 0.92585 0.8462 0.19925 0.0
H3728 H 0.90957 0.81967 0.22247 0.0
C3729 C 0.91683 0.84396 0.1862 0.0
H3730 H 0.92961 0.83902 0.22262 0.0
C3731 C 0.90536 0.83288 0.18611 0.0
C3732 C 0.90271 0.82384 0.19907 0.0
H3733 H 0.91885 0.8505 0.17592 0.0
H3734 H 0.89883 0.83116 0.17576 0.0
C3735 C 0.91139 0.82644 0.21229 0.0
C3736 C 0.1724 0.66051 0.96219 0.0
C3737 C 0.17528 0.65189 0.94899 0.0
H3738 H 0.15936 0.67847 0.97242 0.0
C3739 C 0.16627 0.65434 0.93596 0.0
H3740 H 0.17915 0.65884 0.97241 0.0
C3741 C 0.15496 0.66557 0.93596 0.0
C3742 C 0.15243 0.67456 0.94899 0.0
H3743 H 0.1682 0.64785 0.92563 0.0
H3744 H 0.14844 0.66745 0.92564 0.0
C3745 C 0.16108 0.67174 0.96219 0.0
C3746 C 0.33152 0.90419 0.68594 0.0
C3747 C 0.32281 0.9012 0.69905 0.0
H3748 H 0.34896 0.91787 0.67571 0.0
C3749 C 0.32585 0.90939 0.71249 0.0
H3750 H 0.32946 0.89804 0.67543 0.0
C3751 C 0.33705 0.92076 0.71265 0.0
C3752 C 0.34536 0.92414 0.69937 0.0
H3753 H 0.31933 0.9073 0.72277 0.0
H3754 H 0.33889 0.92716 0.72305 0.0
C3755 C 0.34269 0.91556 0.6861 0.0
C3756 C 0.56349 0.91572 0.90553 0.0
C3757 C 0.55044 0.92471 0.90318 0.0
H3758 H 0.57396 0.89793 0.91857 0.0
C3759 C 0.53727 0.92176 0.91183 0.0
H3760 H 0.57379 0.91769 0.89899 0.0
C3761 C 0.53737 0.91044 0.92307 0.0
C3762 C 0.55064 0.90187 0.92583 0.0
H3763 H 0.52704 0.9285 0.91025 0.0
H3764 H 0.52721 0.90871 0.92987 0.0
C3765 C 0.56359 0.9044 0.91674 0.0
C3766 C 0.08195 0.31169 0.65611 0.0
C3767 C 0.07332 0.29843 0.65355 0.0
H3768 H 0.09953 0.32241 0.66923 0.0
C3769 C 0.07663 0.28523 0.66201 0.0
H3770 H 0.07969 0.32203 0.64973 0.0
C3771 C 0.08799 0.28545 0.6732 0.0
C3772 C 0.09626 0.29887 0.67611 0.0
H3773 H 0.07017 0.27484 0.66027 0.0
H3774 H 0.09004 0.27522 0.67982 0.0
C3775 C 0.09332 0.31191 0.66727 0.0
C3776 C 0.17338 0.46288 0.16038 0.0
C3777 C 0.17638 0.44939 0.15226 0.0
H3778 H 0.16036 0.47361 0.17807 0.0
C3779 C 0.16763 0.43633 0.15535 0.0
H3780 H 0.17993 0.47313 0.15822 0.0
C3781 C 0.15645 0.43659 0.1667 0.0
C3782 C 0.1538 0.44993 0.17518 0.0
H3783 H 0.16966 0.42577 0.14925 0.0
H3784 H 0.15014 0.42624 0.16907 0.0
C3785 C 0.16218 0.46315 0.17174 0.0
C3786 C 0.53695 0.83845 0.82806 0.0
C3787 C 0.54998 0.84737 0.82533 0.0
H3788 H 0.52705 0.82017 0.84091 0.0
C3789 C 0.56297 0.84519 0.83445 0.0
H3790 H 0.52675 0.8399 0.82123 0.0
C3791 C 0.56314 0.83391 0.8457 0.0
C3792 C 0.55031 0.82459 0.84805 0.0
H3793 H 0.57317 0.85194 0.83264 0.0
H3794 H 0.57346 0.83223 0.85228 0.0
C3795 C 0.53711 0.82716 0.83933 0.0
C3796 C 0.16448 0.312 0.59441 0.0
C3797 C 0.1736 0.29907 0.59694 0.0
H3798 H 0.14659 0.3221 0.58122 0.0
C3799 C 0.17085 0.28579 0.5884 0.0
H3800 H 0.16631 0.32239 0.60085 0.0
C3801 C 0.15955 0.28563 0.57714 0.0
C3802 C 0.1508 0.29875 0.57424 0.0
H3803 H 0.17768 0.27565 0.59012 0.0
H3804 H 0.15794 0.27536 0.57045 0.0
C3805 C 0.15319 0.31184 0.58317 0.0
C3806 C 0.41674 0.6866 0.8443 0.0
C3807 C 0.42608 0.69943 0.84656 0.0
H3808 H 0.39853 0.67659 0.83149 0.0
C3809 C 0.4234 0.71264 0.83788 0.0
H3810 H 0.41851 0.67628 0.85085 0.0
C3811 C 0.41194 0.71282 0.82678 0.0
C3812 C 0.40296 0.6998 0.82417 0.0
H3813 H 0.4304 0.72271 0.83939 0.0
H3814 H 0.41038 0.72303 0.81999 0.0
C3815 C 0.4053 0.68679 0.83322 0.0
C3816 C 0.83145 0.06217 0.34362 0.0
C3817 C 0.82267 0.0491 0.34664 0.0
H3818 H 0.84897 0.07228 0.32996 0.0
C3819 C 0.82568 0.03563 0.33848 0.0
H3820 H 0.82941 0.07271 0.34974 0.0
C3821 C 0.83691 0.03538 0.32715 0.0
C3822 C 0.8453 0.04861 0.32377 0.0
H3823 H 0.81912 0.02538 0.3406 0.0
H3824 H 0.83873 0.02495 0.32079 0.0
C3825 C 0.84264 0.06193 0.33228 0.0
C3826 C 0.43713 0.59485 0.58508 0.0
C3827 C 0.44823 0.59413 0.57355 0.0
H3828 H 0.42769 0.58441 0.60503 0.0
C3829 C 0.45898 0.58224 0.57381 0.0
H3830 H 0.42872 0.60391 0.58519 0.0
C3831 C 0.45829 0.57097 0.58509 0.0
C3832 C 0.44695 0.5715 0.5964 0.0
H3833 H 0.46765 0.58138 0.56505 0.0
H3834 H 0.4665 0.56174 0.58481 0.0
C3835 C 0.43655 0.58369 0.59644 0.0
C3836 C 0.83335 0.18598 0.90725 0.0
C3837 C 0.82511 0.1994 0.90427 0.0
H3838 H 0.8507 0.17522 0.92064 0.0
C3839 C 0.82881 0.21277 0.9123 0.0
H3840 H 0.83077 0.17551 0.90121 0.0
C3841 C 0.84022 0.2126 0.92344 0.0
C3842 C 0.84815 0.19907 0.92673 0.0
H3843 H 0.82266 0.22328 0.91023 0.0
H3844 H 0.8426 0.22299 0.92969 0.0
C3845 C 0.84477 0.18582 0.91836 0.0
C3846 C 0.93423 0.65437 0.16492 0.0
C3847 C 0.94724 0.65183 0.17392 0.0
H3848 H 0.92392 0.66769 0.14725 0.0
C3849 C 0.96046 0.66046 0.17114 0.0
H3850 H 0.92389 0.64787 0.16678 0.0
C3851 C 0.96048 0.67182 0.15995 0.0
C3852 C 0.94728 0.67475 0.15135 0.0
H3853 H 0.97067 0.65872 0.17788 0.0
H3854 H 0.9707 0.67857 0.15832 0.0
C3855 C 0.93425 0.66573 0.15374 0.0
C3856 C 0.07662 0.58711 0.96256 0.0
C3857 C 0.07361 0.59576 0.94941 0.0
H3858 H 0.0898 0.56915 0.97261 0.0
C3859 C 0.0825 0.59336 0.93629 0.0
H3860 H 0.06996 0.58873 0.97284 0.0
C3861 C 0.09385 0.58216 0.93616 0.0
C3862 C 0.09652 0.57316 0.94914 0.0
H3863 H 0.08047 0.59988 0.926 0.0
H3864 H 0.10028 0.58033 0.92577 0.0
C3865 C 0.08797 0.5759 0.96242 0.0
C3866 C 0.66633 0.65531 0.43609 0.0
C3867 C 0.67525 0.65279 0.44916 0.0
H3868 H 0.64852 0.66842 0.42573 0.0
C3869 C 0.67227 0.66133 0.46239 0.0
H3870 H 0.66834 0.64888 0.42573 0.0
C3871 C 0.66091 0.67253 0.46239 0.0
C3872 C 0.65233 0.67538 0.44916 0.0
H3873 H 0.67894 0.65961 0.47264 0.0
H3874 H 0.65909 0.67918 0.47265 0.0
C3875 C 0.65498 0.6665 0.43609 0.0
C3876 C 0.83208 0.40536 0.68746 0.0
C3877 C 0.8232 0.40316 0.70063 0.0
H3878 H 0.85001 0.41805 0.67681 0.0
C3879 C 0.82647 0.41176 0.71376 0.0
H3880 H 0.82986 0.39887 0.67719 0.0
C3881 C 0.83801 0.42277 0.71353 0.0
C3882 C 0.8465 0.42535 0.70018 0.0
H3883 H 0.81983 0.41028 0.72407 0.0
H3884 H 0.84 0.42952 0.72369 0.0
C3885 C 0.84362 0.41635 0.68725 0.0
C3886 C 0.83713 0.82657 0.53629 0.0
C3887 C 0.84587 0.82375 0.54942 0.0
H3888 H 0.819 0.83949 0.52621 0.0
C3889 C 0.84344 0.83272 0.56248 0.0
H3890 H 0.83878 0.81985 0.52605 0.0
C3891 C 0.83212 0.84394 0.56257 0.0
C3892 C 0.82303 0.84642 0.54961 0.0
H3893 H 0.85002 0.83083 0.57276 0.0
H3894 H 0.83027 0.85044 0.57293 0.0
C3895 C 0.82581 0.83781 0.53638 0.0
C3896 C 0.66238 0.57732 0.7855 0.0
C3897 C 0.65417 0.57374 0.79878 0.0
H3898 H 0.67995 0.591 0.77541 0.0
C3899 C 0.65696 0.58211 0.81217 0.0
H3900 H 0.66045 0.57108 0.77501 0.0
C3901 C 0.66809 0.59351 0.81239 0.0
C3902 C 0.67666 0.59676 0.79925 0.0
H3903 H 0.65078 0.57963 0.82257 0.0
H3904 H 0.67022 0.59953 0.82297 0.0
C3905 C 0.67354 0.58873 0.78573 0.0
C3906 C 0.90511 0.4156 0.06314 0.0
C3907 C 0.90265 0.42446 0.05002 0.0
H3908 H 0.91842 0.3981 0.07376 0.0
C3909 C 0.9115 0.42166 0.03695 0.0
H3910 H 0.89844 0.41747 0.07338 0.0
C3911 C 0.92295 0.41056 0.03717 0.0
C3912 C 0.92575 0.40206 0.05047 0.0
H3913 H 0.90984 0.4283 0.02667 0.0
H3914 H 0.92984 0.4089 0.02705 0.0
C3915 C 0.91655 0.4045 0.06336 0.0
C3916 C 0.90547 0.18773 0.83362 0.0
C3917 C 0.90331 0.20083 0.82465 0.0
H3918 H 0.91836 0.17704 0.85138 0.0
C3919 C 0.91218 0.21385 0.82761 0.0
H3920 H 0.89877 0.17754 0.83164 0.0
C3921 C 0.92342 0.21356 0.83892 0.0
C3922 C 0.92597 0.20025 0.84748 0.0
H3923 H 0.91074 0.22412 0.82089 0.0
H3924 H 0.93039 0.22362 0.84066 0.0
C3925 C 0.91669 0.18745 0.84493 0.0
C3926 C 0.28719 0.67177 0.08745 0.0
C3927 C 0.30023 0.67443 0.09638 0.0
H3928 H 0.27724 0.659 0.06914 0.0
C3929 C 0.31319 0.66525 0.09418 0.0
H3930 H 0.27703 0.67865 0.08891 0.0
C3931 C 0.31331 0.65402 0.08287 0.0
C3932 C 0.30047 0.65175 0.07355 0.0
H3933 H 0.32339 0.667 0.10093 0.0
H3934 H 0.3236 0.64739 0.08118 0.0
C3935 C 0.28731 0.66053 0.07613 0.0
C3936 C 0.43554 0.65493 0.66647 0.0
C3937 C 0.44862 0.65266 0.67544 0.0
H3938 H 0.4251 0.6677 0.64847 0.0
C3939 C 0.4618 0.66122 0.67232 0.0
H3940 H 0.42522 0.64846 0.66858 0.0
C3941 C 0.46173 0.67224 0.66079 0.0
C3942 C 0.44847 0.67489 0.65219 0.0
H3943 H 0.47206 0.65968 0.67903 0.0
H3944 H 0.47194 0.67894 0.6589 0.0
C3945 C 0.43547 0.66594 0.65495 0.0
C3946 C 0.31363 0.59377 0.16583 0.0
C3947 C 0.3005 0.59619 0.17469 0.0
H3948 H 0.32419 0.5807 0.1481 0.0
C3949 C 0.28735 0.58753 0.17167 0.0
H3950 H 0.32392 0.6003 0.16787 0.0
C3951 C 0.28751 0.5763 0.16034 0.0
C3952 C 0.30081 0.57353 0.15183 0.0
H3953 H 0.27706 0.58916 0.17831 0.0
H3954 H 0.27733 0.56954 0.15851 0.0
C3955 C 0.31378 0.58255 0.1545 0.0
C3956 C 0.92163 0.03594 0.41131 0.0
C3957 C 0.92453 0.04907 0.4026 0.0
H3958 H 0.90858 0.02588 0.42935 0.0
C3959 C 0.91559 0.06216 0.40501 0.0
H3960 H 0.92832 0.02568 0.40968 0.0
C3961 C 0.90431 0.06227 0.41626 0.0
C3962 C 0.90174 0.0493 0.42532 0.0
H3963 H 0.91755 0.07244 0.39845 0.0
H3964 H 0.89784 0.07264 0.4181 0.0
C3965 C 0.91033 0.03605 0.42257 0.0
C3966 C 0.0937 0.93652 0.58315 0.0
C3967 C 0.09598 0.94939 0.57389 0.0
H3968 H 0.08069 0.92634 0.60112 0.0
C3969 C 0.08713 0.96251 0.57647 0.0
H3970 H 0.10038 0.92626 0.58146 0.0
C3971 C 0.07585 0.96256 0.58774 0.0
C3972 C 0.07321 0.94949 0.59663 0.0
H3973 H 0.08866 0.97262 0.56952 0.0
H3974 H 0.06893 0.9727 0.58921 0.0
C3975 C 0.08243 0.93657 0.59442 0.0
C3976 C 0.58151 0.81366 0.65597 0.0
C3977 C 0.57264 0.80053 0.65359 0.0
H3978 H 0.59926 0.82424 0.66899 0.0
C3979 C 0.57561 0.78743 0.66233 0.0
H3980 H 0.5795 0.82392 0.64939 0.0
C3981 C 0.58694 0.78761 0.67356 0.0
C3982 C 0.59549 0.8009 0.67626 0.0
H3983 H 0.56896 0.77713 0.66073 0.0
H3984 H 0.58875 0.77745 0.68035 0.0
C3985 C 0.59283 0.81385 0.6672 0.0
C3986 C 0.70017 0.33422 0.90309 0.0
C3987 C 0.70078 0.31874 0.90721 0.0
H3988 H 0.69918 0.35738 0.91071 0.0
C3989 C 0.70167 0.31486 0.92274 0.0
H3990 H 0.6995 0.33757 0.89122 0.0
C3991 C 0.7015 0.32625 0.93395 0.0
C3992 C 0.70041 0.3417 0.92981 0.0
H3993 H 0.70217 0.30303 0.92626 0.0
H3994 H 0.70186 0.32293 0.94585 0.0
C3995 C 0.69998 0.34557 0.91427 0.0
C3996 C 0.70962 0.42461 0.83163 0.0
C3997 C 0.69891 0.42493 0.84356 0.0
H3998 H 0.71685 0.41373 0.81096 0.0
C3999 C 0.68757 0.41363 0.84415 0.0
H4000 H 0.71847 0.4332 0.83088 0.0
C4001 C 0.6867 0.40245 0.83283 0.0
C4002 C 0.69707 0.40244 0.82061 0.0
H4003 H 0.67919 0.41357 0.85323 0.0
H4004 H 0.67767 0.39404 0.83346 0.0
C4005 C 0.70866 0.4135 0.82021 0.0
C4006 C 0.06425 0.84389 0.33362 0.0
C4007 C 0.05125 0.84635 0.32458 0.0
H4008 H 0.07461 0.83065 0.35132 0.0
C4009 C 0.03808 0.83764 0.32734 0.0
H4010 H 0.07456 0.85047 0.33178 0.0
C4011 C 0.03811 0.82628 0.33853 0.0
C4012 C 0.05131 0.82344 0.34717 0.0
H4013 H 0.02788 0.8393 0.32057 0.0
H4014 H 0.02793 0.81947 0.34014 0.0
C4015 C 0.06428 0.83255 0.3448 0.0
C4016 C 0.32597 0.33734 0.5362 0.0
C4017 C 0.3229 0.34569 0.54953 0.0
H4018 H 0.33935 0.31978 0.52572 0.0
C4019 C 0.33185 0.34312 0.56257 0.0
H4020 H 0.31928 0.3391 0.52597 0.0
C4021 C 0.34334 0.33207 0.56243 0.0
C4022 C 0.34609 0.32339 0.54925 0.0
H4023 H 0.32976 0.34941 0.57301 0.0
H4024 H 0.34982 0.33011 0.57276 0.0
C4025 C 0.33746 0.32629 0.53606 0.0
C4026 C 0.16445 0.56913 0.29025 0.0
C4027 C 0.15313 0.56966 0.30158 0.0
H4028 H 0.18448 0.57958 0.28089 0.0
C4029 C 0.15319 0.58175 0.31211 0.0
H4030 H 0.16465 0.55997 0.28196 0.0
C4031 C 0.16459 0.59287 0.31158 0.0
C4032 C 0.17605 0.59223 0.3004 0.0
H4033 H 0.1446 0.58246 0.32097 0.0
H4034 H 0.1645 0.6019 0.32002 0.0
C4035 C 0.17577 0.58037 0.28961 0.0
C4036 C 0.17222 0.1611 0.46172 0.0
C4037 C 0.17509 0.1523 0.44863 0.0
H4038 H 0.15916 0.17917 0.47173 0.0
C4039 C 0.16604 0.15455 0.4356 0.0
H4040 H 0.17899 0.15959 0.47194 0.0
C4041 C 0.1547 0.16575 0.43547 0.0
C4042 C 0.15218 0.17491 0.44838 0.0
H4043 H 0.16796 0.14792 0.42535 0.0
H4044 H 0.14816 0.16747 0.42513 0.0
C4045 C 0.16087 0.17231 0.46159 0.0
C4046 C 0.32697 0.41067 0.21213 0.0
C4047 C 0.32417 0.40187 0.19903 0.0
H4048 H 0.33991 0.42881 0.22217 0.0
C4049 C 0.33323 0.40419 0.18601 0.0
H4050 H 0.32018 0.40912 0.22234 0.0
C4051 C 0.34451 0.41545 0.18591 0.0
C4052 C 0.34695 0.42461 0.19883 0.0
H4053 H 0.33136 0.39755 0.17575 0.0
H4054 H 0.35106 0.41721 0.17558 0.0
C4055 C 0.33826 0.42194 0.21204 0.0
C4056 C 0.08814 0.78567 0.17282 0.0
C4057 C 0.09671 0.79893 0.17561 0.0
H4058 H 0.07016 0.77529 0.15991 0.0
C4059 C 0.09411 0.81191 0.16658 0.0
H4060 H 0.08992 0.77548 0.17958 0.0
C4061 C 0.08282 0.81181 0.15534 0.0
C4062 C 0.07391 0.79871 0.15289 0.0
H4063 H 0.10056 0.82229 0.16844 0.0
H4064 H 0.08085 0.8221 0.1488 0.0
C4065 C 0.07684 0.78556 0.16157 0.0
C4066 C 0.53758 0.33809 0.32611 0.0
C4067 C 0.55085 0.34659 0.3232 0.0
H4068 H 0.52721 0.32024 0.3392 0.0
C4069 C 0.56385 0.34407 0.33223 0.0
H4070 H 0.52738 0.3398 0.31935 0.0
C4071 C 0.56375 0.33289 0.34358 0.0
C4072 C 0.55066 0.32401 0.34613 0.0
H4073 H 0.57423 0.35048 0.33029 0.0
H4074 H 0.57407 0.33095 0.35011 0.0
C4075 C 0.53748 0.32689 0.33747 0.0
C4076 C 0.41646 0.18604 0.34352 0.0
C4077 C 0.42534 0.19914 0.34605 0.0
H4078 H 0.39877 0.17559 0.33033 0.0
C4079 C 0.42239 0.21234 0.33744 0.0
H4080 H 0.41845 0.17572 0.35 0.0
C4081 C 0.41111 0.21227 0.32616 0.0
C4082 C 0.40258 0.199 0.3233 0.0
H4083 H 0.42904 0.22261 0.33916 0.0
H4084 H 0.40932 0.22249 0.31946 0.0
C4085 C 0.40519 0.18597 0.33225 0.0
C4086 C 0.93636 0.16658 0.65291 0.0
C4087 C 0.94687 0.17869 0.65287 0.0
H4088 H 0.92855 0.14634 0.66414 0.0
C4089 C 0.95832 0.17911 0.66407 0.0
H4090 H 0.92742 0.16594 0.64441 0.0
C4091 C 0.95906 0.16778 0.67529 0.0
C4092 C 0.94826 0.15593 0.67559 0.0
H4093 H 0.96659 0.18828 0.66428 0.0
H4094 H 0.96785 0.16852 0.68394 0.0
C4095 C 0.93701 0.15536 0.66421 0.0
C4096 C 0.58263 0.09635 0.93805 0.0
C4097 C 0.57082 0.09639 0.94889 0.0
H4098 H 0.60273 0.08523 0.92976 0.0
C4099 C 0.57076 0.08522 0.96038 0.0
H4100 H 0.58299 0.10482 0.92906 0.0
C4101 C 0.58217 0.07407 0.96086 0.0
C4102 C 0.59375 0.07381 0.94977 0.0
H4103 H 0.56181 0.08501 0.96891 0.0
H4104 H 0.58173 0.06547 0.96972 0.0
C4105 C 0.59393 0.08513 0.93844 0.0
C4106 C 0.4112 0.32574 0.21126 0.0
C4107 C 0.40266 0.32295 0.19799 0.0
H4108 H 0.42916 0.33865 0.22166 0.0
C4109 C 0.40527 0.33197 0.185 0.0
H4110 H 0.40942 0.31898 0.22145 0.0
C4111 C 0.41656 0.34322 0.18512 0.0
C4112 C 0.42546 0.34567 0.19823 0.0
H4113 H 0.39884 0.3301 0.17462 0.0
H4114 H 0.41855 0.34975 0.17483 0.0
C4115 C 0.4225 0.337 0.21138 0.0
C4116 C 0.58826 0.1727 0.2864 0.0
C4117 C 0.59701 0.1753 0.29958 0.0
H4118 H 0.57007 0.16 0.27614 0.0
C4119 C 0.59458 0.16612 0.31248 0.0
H4120 H 0.58991 0.17958 0.27628 0.0
C4121 C 0.58323 0.15492 0.31241 0.0
C4122 C 0.5741 0.1527 0.29943 0.0
H4123 H 0.60117 0.16783 0.32279 0.0
H4124 H 0.58137 0.14828 0.32266 0.0
C4125 C 0.57691 0.16149 0.28633 0.0
C4126 C 0.41662 0.905 0.06333 0.0
C4127 C 0.42551 0.90233 0.05026 0.0
H4128 H 0.39889 0.9183 0.0736 0.0
C4129 C 0.42258 0.91079 0.03698 0.0
H4130 H 0.4186 0.89864 0.07373 0.0
C4131 C 0.41129 0.92205 0.0369 0.0
C4132 C 0.40273 0.92506 0.05012 0.0
H4133 H 0.42924 0.90895 0.02673 0.0
H4134 H 0.40951 0.92863 0.0266 0.0
C4135 C 0.40533 0.91626 0.06326 0.0
C4136 C 0.9618 0.07675 0.58771 0.0
C4137 C 0.94869 0.07438 0.59663 0.0
H4138 H 0.972 0.08915 0.56929 0.0
C4139 C 0.93585 0.08366 0.59423 0.0
H4140 H 0.97188 0.06979 0.58933 0.0
C4141 C 0.93591 0.09473 0.58277 0.0
C4142 C 0.94882 0.09673 0.57348 0.0
H4143 H 0.92559 0.08212 0.60095 0.0
H4144 H 0.92571 0.10145 0.58094 0.0
C4145 C 0.96187 0.08783 0.57624 0.0
C4146 C 0.7875 0.17189 0.08799 0.0
C4147 C 0.80059 0.17432 0.0969 0.0
H4148 H 0.77734 0.15942 0.06961 0.0
C4149 C 0.81343 0.165 0.0946 0.0
H4150 H 0.77742 0.17888 0.08954 0.0
C4151 C 0.81338 0.15386 0.0832 0.0
C4152 C 0.80049 0.15184 0.07389 0.0
H4153 H 0.82367 0.16658 0.10133 0.0
H4154 H 0.82358 0.14712 0.08141 0.0
C4155 C 0.78745 0.16076 0.07658 0.0
C4156 C 0.34467 0.56139 0.33263 0.0
C4157 C 0.34727 0.54861 0.32332 0.0
H4158 H 0.33135 0.57119 0.35059 0.0
C4159 C 0.33876 0.53526 0.32584 0.0
H4160 H 0.35108 0.57182 0.33098 0.0
C4161 C 0.32744 0.5349 0.33708 0.0
C4162 C 0.32445 0.54788 0.34599 0.0
H4163 H 0.34055 0.52522 0.31886 0.0
H4164 H 0.32077 0.52459 0.3385 0.0
C4165 C 0.33336 0.56103 0.34385 0.0
C4166 C 0.33837 0.71212 0.92227 0.0
C4167 C 0.34695 0.69885 0.92498 0.0
H4168 H 0.32024 0.72248 0.90958 0.0
C4169 C 0.34421 0.68584 0.91604 0.0
H4170 H 0.34025 0.72233 0.92898 0.0
C4171 C 0.33277 0.68593 0.90494 0.0
C4172 C 0.32384 0.69903 0.90258 0.0
H4173 H 0.35066 0.67546 0.91784 0.0
H4174 H 0.33069 0.67561 0.89846 0.0
C4175 C 0.32691 0.7122 0.91117 0.0
C4176 C 0.8107 0.08298 0.15178 0.0
C4177 C 0.80033 0.07075 0.152 0.0
H4178 H 0.81859 0.10328 0.16283 0.0
C4179 C 0.7891 0.07028 0.16342 0.0
H4180 H 0.81947 0.08366 0.1431 0.0
C4181 C 0.7885 0.08162 0.17464 0.0
C4182 C 0.79922 0.09353 0.17473 0.0
H4183 H 0.78092 0.06102 0.16384 0.0
H4184 H 0.77992 0.0808 0.1835 0.0
C4185 C 0.8102 0.09421 0.16308 0.0
C4186 C 0.41722 0.56223 0.40432 0.0
C4187 C 0.42598 0.54916 0.40128 0.0
H4188 H 0.39971 0.57237 0.41799 0.0
C4189 C 0.42296 0.53569 0.40944 0.0
H4190 H 0.41927 0.57277 0.3982 0.0
C4191 C 0.41174 0.53546 0.42078 0.0
C4192 C 0.40336 0.54869 0.42417 0.0
H4193 H 0.42952 0.52543 0.40732 0.0
H4194 H 0.40991 0.52503 0.42713 0.0
C4195 C 0.40603 0.562 0.41566 0.0
C4196 C 0.58098 0.437 0.59225 0.0
C4197 C 0.57251 0.45037 0.5948 0.0
H4198 H 0.59865 0.42616 0.57936 0.0
C4199 C 0.57617 0.4636 0.58653 0.0
H4200 H 0.57844 0.42664 0.59848 0.0
C4201 C 0.58774 0.46332 0.57556 0.0
C4202 C 0.59587 0.44981 0.57268 0.0
H4203 H 0.56985 0.47408 0.58827 0.0
H4204 H 0.59008 0.4736 0.5691 0.0
C4205 C 0.59255 0.43673 0.58131 0.0
C4206 C 0.21131 0.82679 0.9107 0.0
C4207 C 0.1981 0.82396 0.90208 0.0
H4208 H 0.22154 0.83973 0.92873 0.0
C4209 C 0.18509 0.83299 0.90455 0.0
H4210 H 0.22151 0.82002 0.90902 0.0
C4211 C 0.18511 0.84426 0.91582 0.0
C4212 C 0.19813 0.84671 0.92484 0.0
H4213 H 0.17476 0.8311 0.89805 0.0
H4214 H 0.17479 0.85078 0.91773 0.0
C4215 C 0.21132 0.83807 0.92198 0.0
C4216 C 0.65988 0.96285 0.17294 0.0
C4217 C 0.65161 0.94942 0.17578 0.0
H4218 H 0.67773 0.9735 0.16007 0.0
C4219 C 0.65451 0.93643 0.16685 0.0
H4220 H 0.65787 0.97304 0.17963 0.0
C4221 C 0.66587 0.93669 0.15568 0.0
C4222 C 0.67455 0.94995 0.15322 0.0
H4223 H 0.64829 0.92593 0.16875 0.0
H4224 H 0.66812 0.92638 0.14925 0.0
C4225 C 0.67125 0.96311 0.16174 0.0
C4226 C 0.037 0.41028 0.92256 0.0
C4227 C 0.05012 0.40146 0.92519 0.0
H4228 H 0.02685 0.42848 0.90978 0.0
C4229 C 0.06302 0.40374 0.91595 0.0
H4230 H 0.02688 0.40876 0.92948 0.0
C4231 C 0.063 0.41501 0.90468 0.0
C4232 C 0.05009 0.42423 0.90244 0.0
H4233 H 0.07329 0.39708 0.91767 0.0
H4234 H 0.07325 0.41676 0.898 0.0
C4235 C 0.03699 0.42157 0.91128 0.0
C4236 C 0.66561 0.81315 0.5942 0.0
C4237 C 0.67457 0.80011 0.59674 0.0
H4238 H 0.64781 0.82345 0.58105 0.0
C4239 C 0.67164 0.78686 0.58821 0.0
H4240 H 0.66758 0.82353 0.60062 0.0
C4241 C 0.66031 0.78682 0.57698 0.0
C4242 C 0.6517 0.80003 0.5741 0.0
H4243 H 0.67835 0.77663 0.58994 0.0
H4244 H 0.65855 0.77656 0.57033 0.0
C4245 C 0.65429 0.81312 0.58298 0.0
C4246 C 0.2115 0.92129 0.83774 0.0
C4247 C 0.19842 0.92405 0.84657 0.0
H4248 H 0.22152 0.90843 0.81953 0.0
C4249 C 0.18542 0.91495 0.8443 0.0
H4250 H 0.2217 0.92811 0.83926 0.0
C4251 C 0.18532 0.90369 0.83302 0.0
C4252 C 0.19821 0.90132 0.82379 0.0
H4253 H 0.17518 0.91678 0.85097 0.0
H4254 H 0.175 0.89712 0.83127 0.0
C4255 C 0.2114 0.91003 0.82645 0.0
C4256 C 0.58361 0.65612 0.81336 0.0
C4257 C 0.57491 0.65349 0.80017 0.0
H4258 H 0.60112 0.66945 0.82395 0.0
C4259 C 0.57795 0.66207 0.78698 0.0
H4260 H 0.58154 0.64966 0.82369 0.0
C4261 C 0.58917 0.6734 0.78713 0.0
C4262 C 0.59754 0.67636 0.80047 0.0
H4263 H 0.57143 0.66027 0.77664 0.0
H4264 H 0.59104 0.68007 0.7769 0.0
C4265 C 0.59482 0.66745 0.81351 0.0
C4266 C 0.42149 0.83737 0.7125 0.0
C4267 C 0.42447 0.84623 0.69948 0.0
H4268 H 0.40843 0.81918 0.72226 0.0
C4269 C 0.41561 0.84397 0.68632 0.0
H4270 H 0.42812 0.83889 0.72281 0.0
C4271 C 0.40435 0.83268 0.686 0.0
C4272 C 0.40173 0.82346 0.69884 0.0
H4273 H 0.41762 0.85065 0.67613 0.0
H4274 H 0.39796 0.83095 0.67557 0.0
C4275 C 0.41022 0.82609 0.71218 0.0
C4276 C 0.03737 0.92162 0.41054 0.0
C4277 C 0.05058 0.92456 0.40195 0.0
H4278 H 0.02717 0.90856 0.4285 0.0
C4279 C 0.06363 0.91559 0.40442 0.0
H4280 H 0.02713 0.92833 0.40886 0.0
C4281 C 0.06366 0.90429 0.41565 0.0
C4282 C 0.05063 0.90173 0.42462 0.0
H4283 H 0.07397 0.91756 0.39794 0.0
H4284 H 0.07401 0.89782 0.41755 0.0
C4285 C 0.03739 0.9103 0.42177 0.0
C4286 C 0.67419 0.46093 0.66676 0.0
C4287 C 0.67474 0.44994 0.6551 0.0
H4288 H 0.66289 0.46865 0.68704 0.0
C4289 C 0.66352 0.43852 0.65462 0.0
H4290 H 0.68271 0.46985 0.66742 0.0
C4291 C 0.65214 0.4379 0.66576 0.0
C4292 C 0.65184 0.4486 0.67769 0.0
H4293 H 0.66364 0.42991 0.64575 0.0
H4294 H 0.64378 0.42882 0.66521 0.0
C4295 C 0.66288 0.46022 0.67801 0.0
C4296 C 0.66513 0.3112 0.09344 0.0
C4297 C 0.6756 0.29907 0.09372 0.0
H4298 H 0.64625 0.32162 0.08204 0.0
C4299 C 0.6744 0.28748 0.0827 0.0
H4300 H 0.66574 0.32027 0.1018 0.0
C4301 C 0.66325 0.28829 0.0713 0.0
C4302 C 0.65308 0.30067 0.07077 0.0
H4303 H 0.68232 0.278 0.08264 0.0
H4304 H 0.66281 0.2794 0.06273 0.0
C4305 C 0.65396 0.31196 0.08211 0.0
C4306 C 0.34604 0.06086 0.83111 0.0
C4307 C 0.34598 0.05043 0.81894 0.0
H4308 H 0.33502 0.06849 0.85152 0.0
C4309 C 0.33476 0.03899 0.81852 0.0
H4310 H 0.35456 0.06979 0.83175 0.0
C4311 C 0.32366 0.03815 0.82995 0.0
C4312 C 0.32349 0.04884 0.8419 0.0
H4313 H 0.33449 0.03077 0.80929 0.0
H4314 H 0.31501 0.02936 0.82924 0.0
C4315 C 0.33485 0.06012 0.84243 0.0
C4316 C 0.96091 0.58791 0.07708 0.0
C4317 C 0.94774 0.59659 0.07423 0.0
H4318 H 0.97102 0.56977 0.08995 0.0
C4319 C 0.93468 0.5941 0.08317 0.0
H4320 H 0.97116 0.5896 0.07038 0.0
C4321 C 0.9346 0.58275 0.09436 0.0
C4322 C 0.94758 0.57368 0.09682 0.0
H4323 H 0.92437 0.60064 0.08127 0.0
H4324 H 0.92423 0.58083 0.10081 0.0
C4325 C 0.96083 0.57655 0.08828 0.0
C4326 C 0.34359 0.18535 0.41604 0.0
C4327 C 0.34621 0.19832 0.42508 0.0
H4328 H 0.33032 0.1752 0.39823 0.0
C4329 C 0.33768 0.2116 0.4223 0.0
H4330 H 0.35002 0.17496 0.4179 0.0
C4331 C 0.3264 0.21175 0.41103 0.0
C4332 C 0.32344 0.19861 0.40234 0.0
H4333 H 0.33947 0.22179 0.42907 0.0
H4334 H 0.31975 0.22204 0.40938 0.0
C4335 C 0.33232 0.18549 0.40478 0.0
C4336 C 0.59422 0.58271 0.43569 0.0
C4337 C 0.59665 0.5735 0.44857 0.0
H4338 H 0.58103 0.6006 0.42558 0.0
C4339 C 0.58788 0.57605 0.46175 0.0
H4340 H 0.60083 0.58104 0.42539 0.0
C4341 C 0.57654 0.58726 0.46186 0.0
C4342 C 0.57376 0.59612 0.4488 0.0
H4343 H 0.58953 0.56914 0.47186 0.0
H4344 H 0.5697 0.58872 0.47205 0.0
C4345 C 0.58289 0.59392 0.43581 0.0
C4346 C 0.41284 0.40477 0.55912 0.0
C4347 C 0.42431 0.40548 0.54795 0.0
H4348 H 0.39303 0.41531 0.56875 0.0
C4349 C 0.4241 0.41746 0.53731 0.0
H4350 H 0.4127 0.39566 0.56745 0.0
C4351 C 0.41292 0.42882 0.53815 0.0
C4352 C 0.40167 0.4283 0.54955 0.0
H4353 H 0.43283 0.41831 0.5286 0.0
H4354 H 0.41322 0.43812 0.53002 0.0
C4355 C 0.40158 0.41603 0.55986 0.0
C4356 C 0.78695 0.67252 0.5879 0.0
C4357 C 0.80009 0.67536 0.59662 0.0
H4358 H 0.77683 0.65948 0.56988 0.0
C4359 C 0.81309 0.66628 0.5943 0.0
H4360 H 0.77675 0.67932 0.58945 0.0
C4361 C 0.81314 0.65493 0.58311 0.0
C4362 C 0.80018 0.65245 0.57401 0.0
H4363 H 0.82338 0.66818 0.60088 0.0
H4364 H 0.82345 0.64837 0.58133 0.0
C4365 C 0.78699 0.66116 0.57669 0.0
C4366 C 0.7881 0.57698 0.66133 0.0
C4367 C 0.80133 0.57386 0.65283 0.0
H4368 H 0.77793 0.59028 0.67913 0.0
C4369 C 0.81448 0.58267 0.65536 0.0
H4370 H 0.77779 0.5704 0.65961 0.0
C4371 C 0.81456 0.59405 0.66652 0.0
C4372 C 0.80148 0.59683 0.67537 0.0
H4373 H 0.82483 0.58054 0.64895 0.0
H4374 H 0.82497 0.60041 0.66846 0.0
C4375 C 0.78818 0.58837 0.6725 0.0
C4376 C 0.41814 0.03812 0.92445 0.0
C4377 C 0.40658 0.04922 0.92488 0.0
H4378 H 0.43856 0.03028 0.9135 0.0
C4379 C 0.40646 0.06077 0.91378 0.0
H4380 H 0.41852 0.02909 0.93288 0.0
C4381 C 0.41784 0.06138 0.90263 0.0
C4382 C 0.42965 0.05054 0.90246 0.0
H4383 H 0.39768 0.06946 0.9138 0.0
H4384 H 0.41756 0.07054 0.89436 0.0
C4385 C 0.42962 0.03882 0.91339 0.0
C4386 C 0.57631 0.96231 0.08861 0.0
C4387 C 0.57373 0.94908 0.09729 0.0
H4388 H 0.58904 0.97273 0.07055 0.0
C4389 C 0.58297 0.93622 0.0948 0.0
H4390 H 0.56938 0.97241 0.0903 0.0
C4391 C 0.59421 0.9364 0.08351 0.0
C4392 C 0.59643 0.94945 0.07447 0.0
H4393 H 0.58127 0.92587 0.10134 0.0
H4394 H 0.60091 0.92619 0.08162 0.0
C4395 C 0.58755 0.96249 0.0773 0.0
C4396 C 0.18456 0.33213 0.40439 0.0
C4397 C 0.19766 0.32325 0.40187 0.0
H4398 H 0.17398 0.34957 0.41782 0.0
C4399 C 0.21075 0.32599 0.4107 0.0
H4400 H 0.17431 0.33029 0.39774 0.0
C4401 C 0.21056 0.33703 0.42221 0.0
C4402 C 0.19727 0.34552 0.42509 0.0
H4403 H 0.22103 0.31934 0.40899 0.0
H4404 H 0.22069 0.33863 0.42909 0.0
C4405 C 0.18436 0.34316 0.41589 0.0
C4406 C 0.18753 0.41502 0.34679 0.0
C4407 C 0.19833 0.42686 0.34698 0.0
H4408 H 0.17928 0.39506 0.33538 0.0
C4409 C 0.20996 0.42696 0.33594 0.0
H4410 H 0.17845 0.41463 0.35516 0.0
C4411 C 0.21051 0.41566 0.32468 0.0
C4412 C 0.19936 0.40415 0.32417 0.0
H4413 H 0.21847 0.43591 0.33584 0.0
H4414 H 0.2194 0.41621 0.31612 0.0
C4415 C 0.188 0.40382 0.33546 0.0
C4416 C 0.97852 0.1371 0.48902 0.0
C4417 C 0.98125 0.13002 0.50314 0.0
H4418 H 0.98724 0.14233 0.46678 0.0
C4419 C 0.99553 0.12329 0.50585 0.0
H4420 H 0.96761 0.14239 0.48663 0.0
C4421 C 0.00673 0.12326 0.49453 0.0
C4422 C 0.00388 0.12996 0.48026 0.0
H4423 H 0.99799 0.11778 0.51663 0.0
H4424 H 0.01753 0.11772 0.49687 0.0
C4425 C 0.98975 0.13707 0.47767 0.0
C4426 C 0.87982 0.25644 0.74219 0.0
C4427 C 0.87005 0.25449 0.72964 0.0
H4428 H 0.88777 0.24747 0.76347 0.0
C4429 C 0.86036 0.24172 0.72921 0.0
H4430 H 0.88738 0.26619 0.74286 0.0
C4431 C 0.86063 0.23097 0.74098 0.0
C4432 C 0.87051 0.23283 0.75346 0.0
H4433 H 0.85271 0.23993 0.71968 0.0
H4434 H 0.85318 0.22113 0.74025 0.0
C4435 C 0.88001 0.24574 0.75401 0.0
C4436 C 0.7423 0.12668 0.99554 0.0
C4437 C 0.74497 0.12049 0.981 0.0
H4438 H 0.75135 0.13152 0.01766 0.0
C4439 C 0.75915 0.11367 0.97792 0.0
H4440 H 0.73148 0.13199 0.99827 0.0
C4441 C 0.77058 0.1134 0.98907 0.0
C4442 C 0.768 0.11995 0.00347 0.0
H4443 H 0.76152 0.1088 0.96681 0.0
H4444 H 0.7815 0.10832 0.98631 0.0
C4445 C 0.75369 0.12642 0.00665 0.0
C4446 C 0.86934 0.00293 0.25386 0.0
C4447 C 0.87884 0.01583 0.25326 0.0
H4448 H 0.86189 0.9825 0.24272 0.0
C4449 C 0.88875 0.01764 0.2408 0.0
H4450 H 0.86156 0.00125 0.26331 0.0
C4451 C 0.88897 0.00687 0.22904 0.0
C4452 C 0.87922 0.99415 0.22947 0.0
H4453 H 0.8962 0.02746 0.24004 0.0
H4454 H 0.89661 0.00864 0.21948 0.0
C4455 C 0.86949 0.99222 0.24205 0.0
C4456 C 0.00757 0.12496 0.75243 0.0
C4457 C 0.00459 0.11829 0.76669 0.0
H4458 H 0.99888 0.13081 0.7304 0.0
C4459 C 0.9903 0.1115 0.76928 0.0
H4460 H 0.0185 0.13024 0.75007 0.0
C4461 C 0.97903 0.11185 0.75798 0.0
C4462 C 0.98187 0.11896 0.7439 0.0
H4463 H 0.98769 0.10627 0.78017 0.0
H4464 H 0.96799 0.10686 0.76041 0.0
C4465 C 0.99634 0.12528 0.74115 0.0
C4466 C 0.8902 0.2286 0.01018 0.0
C4467 C 0.88323 0.23141 0.99601 0.0
H4468 H 0.89522 0.23721 0.03252 0.0
C4469 C 0.8766 0.24573 0.99329 0.0
H4470 H 0.89541 0.21766 0.01258 0.0
C4471 C 0.87648 0.25687 0.00466 0.0
C4472 C 0.883 0.25393 0.019 0.0
H4473 H 0.87118 0.24825 0.98248 0.0
H4474 H 0.87099 0.26769 0.0023 0.0
C4475 C 0.89008 0.23978 0.02158 0.0
C4476 C 0.77026 0.13592 0.25838 0.0
C4477 C 0.76715 0.12935 0.24409 0.0
H4478 H 0.76186 0.14106 0.28077 0.0
C4479 C 0.75251 0.12349 0.24123 0.0
H4480 H 0.78144 0.14053 0.2609 0.0
C4481 C 0.74134 0.12378 0.25258 0.0
C4482 C 0.74456 0.12994 0.26702 0.0
H4483 H 0.74976 0.11839 0.23032 0.0
H4484 H 0.73026 0.1189 0.25012 0.0
C4485 C 0.75905 0.13622 0.26975 0.0
C4486 C 0.874 0.99178 0.50366 0.0
C4487 C 0.86735 0.99467 0.51795 0.0
H4488 H 0.87944 0.00045 0.48153 0.0
C4489 C 0.86021 0.0088 0.5205 0.0
H4490 H 0.87955 0.98099 0.50132 0.0
C4491 C 0.86015 0.01999 0.50912 0.0
C4492 C 0.86723 0.01723 0.495 0.0
H4493 H 0.85497 0.01133 0.53141 0.0
H4494 H 0.85488 0.03091 0.5115 0.0
C4495 C 0.87394 0.00294 0.49231 0.0
C4496 C 0.49512 0.00623 0.12439 0.0
C4497 C 0.48072 0.00327 0.13076 0.0
H4498 H 0.51734 0.99759 0.11922 0.0
C4499 C 0.47799 0.98901 0.13757 0.0
H4500 H 0.49758 0.01711 0.11909 0.0
C4501 C 0.48935 0.97779 0.13765 0.0
C4502 C 0.50362 0.98065 0.13092 0.0
H4503 H 0.46699 0.98642 0.14258 0.0
H4504 H 0.48686 0.9668 0.1427 0.0
C4505 C 0.50645 0.99504 0.12447 0.0
C4506 C 0.00416 0.75702 0.37376 0.0
C4507 C 0.0184 0.75393 0.38042 0.0
H4508 H 0.98192 0.74863 0.36826 0.0
C4509 C 0.0208 0.73971 0.38743 0.0
H4510 H 0.00195 0.76789 0.36831 0.0
C4511 C 0.00928 0.72865 0.3874 0.0
C4512 C 0.99518 0.73162 0.38037 0.0
H4513 H 0.03166 0.73702 0.39266 0.0
H4514 H 0.01154 0.71767 0.39261 0.0
C4515 C 0.99267 0.74599 0.37374 0.0
C4516 C 0.25303 0.24236 0.62275 0.0
C4517 C 0.26738 0.24537 0.62922 0.0
H4518 H 0.23072 0.25083 0.61768 0.0
C4519 C 0.26991 0.25951 0.63633 0.0
H4520 H 0.25072 0.23154 0.61723 0.0
C4521 C 0.25842 0.27059 0.63659 0.0
C4522 C 0.24421 0.26769 0.62976 0.0
H4523 H 0.28086 0.26213 0.64143 0.0
H4524 H 0.26077 0.28151 0.64188 0.0
C4525 C 0.24157 0.2534 0.62302 0.0
C4526 C 0.75778 0.50262 0.873 0.0
C4527 C 0.75468 0.51703 0.87929 0.0
H4528 H 0.74928 0.48037 0.8677 0.0
C4529 C 0.74032 0.51971 0.8859 0.0
H4530 H 0.76876 0.50019 0.86786 0.0
C4531 C 0.72913 0.50833 0.8858 0.0
C4532 C 0.73212 0.49406 0.87912 0.0
H4533 H 0.73761 0.53071 0.89085 0.0
H4534 H 0.71805 0.51081 0.89067 0.0
C4535 C 0.74662 0.49126 0.87292 0.0
C4536 C 0.50654 0.2519 0.1245 0.0
C4537 C 0.50385 0.26616 0.11772 0.0
H4538 H 0.49758 0.2299 0.13004 0.0
C4539 C 0.48978 0.26884 0.11052 0.0
H4540 H 0.51728 0.24948 0.13011 0.0
C4541 C 0.47845 0.25759 0.11048 0.0
C4542 C 0.48102 0.24348 0.11765 0.0
H4543 H 0.4874 0.27974 0.1052 0.0
H4544 H 0.4676 0.26005 0.10513 0.0
C4545 C 0.49525 0.24068 0.12446 0.0
C4546 C 0.75638 0.74582 0.3757 0.0
C4547 C 0.75367 0.73156 0.3689 0.0
H4548 H 0.74742 0.7678 0.38136 0.0
C4549 C 0.73953 0.72886 0.36186 0.0
H4550 H 0.76718 0.74826 0.38119 0.0
C4551 C 0.72817 0.74008 0.36196 0.0
C4552 C 0.73077 0.75419 0.36911 0.0
H4553 H 0.73712 0.71797 0.35653 0.0
H4554 H 0.71727 0.7376 0.3567 0.0
C4555 C 0.74506 0.75702 0.37579 0.0
C4556 C 0.24141 0.99626 0.62532 0.0
C4557 C 0.2444 0.98191 0.61884 0.0
H4558 H 0.25006 0.01841 0.63081 0.0
C4559 C 0.25871 0.97924 0.61211 0.0
H4560 H 0.23048 0.99868 0.63055 0.0
C4561 C 0.26996 0.99056 0.61228 0.0
C4562 C 0.26708 0.00476 0.61915 0.0
H4563 H 0.26133 0.96828 0.60702 0.0
H4564 H 0.281 0.98808 0.60731 0.0
C4565 C 0.25263 0.00757 0.62546 0.0
C4566 C 0.00929 0.51971 0.86199 0.0
C4567 C 0.99508 0.51698 0.86891 0.0
H4568 H 0.03154 0.51094 0.85686 0.0
C4569 C 0.99226 0.50265 0.87549 0.0
H4570 H 0.01178 0.53065 0.85682 0.0
C4571 C 0.00354 0.4914 0.87552 0.0
C4572 C 0.01788 0.49425 0.86897 0.0
H4573 H 0.98141 0.50019 0.88089 0.0
H4574 H 0.00109 0.48056 0.88093 0.0
C4575 C 0.02059 0.50843 0.86202 0.0
C4576 C 0.12493 0.49548 0.00702 0.0
C4577 C 0.13151 0.48115 0.00417 0.0
H4578 H 0.11945 0.51756 0.99822 0.0
C4579 C 0.13847 0.47845 0.98998 0.0
H4580 H 0.11952 0.49793 0.01785 0.0
C4581 C 0.13844 0.48974 0.97869 0.0
C4582 C 0.13144 0.5039 0.98141 0.0
H4583 H 0.14364 0.46751 0.98748 0.0
H4584 H 0.14358 0.48725 0.96774 0.0
C4585 C 0.1249 0.50674 0.99576 0.0
C4586 C 0.62448 0.24178 0.25295 0.0
C4587 C 0.63106 0.24476 0.26725 0.0
H4588 H 0.61911 0.25033 0.23076 0.0
C4589 C 0.63811 0.25893 0.26979 0.0
H4590 H 0.619 0.23094 0.25064 0.0
C4591 C 0.63818 0.27008 0.25835 0.0
C4592 C 0.6312 0.26722 0.24421 0.0
H4593 H 0.64329 0.26153 0.2807 0.0
H4594 H 0.64341 0.28102 0.26071 0.0
C4595 C 0.62454 0.25289 0.24156 0.0
C4596 C 0.75583 0.87404 0.50327 0.0
C4597 C 0.75314 0.88064 0.51762 0.0
H4598 H 0.7468 0.86855 0.48129 0.0
C4599 C 0.73896 0.88756 0.52048 0.0
H4600 H 0.76666 0.86865 0.50072 0.0
C4601 C 0.72754 0.88749 0.50931 0.0
C4602 C 0.73013 0.88051 0.49511 0.0
H4603 H 0.73657 0.89274 0.53144 0.0
H4604 H 0.71661 0.89263 0.51192 0.0
C4605 C 0.74445 0.87398 0.49214 0.0
C4606 C 0.12433 0.00641 0.75293 0.0
C4607 C 0.11774 0.00364 0.76727 0.0
H4608 H 0.12964 0.99756 0.73083 0.0
C4609 C 0.1106 0.98954 0.76997 0.0
H4610 H 0.12987 0.01718 0.75049 0.0
C4611 C 0.11046 0.97826 0.75867 0.0
C4612 C 0.11746 0.98091 0.74449 0.0
H4613 H 0.10541 0.9871 0.78092 0.0
H4614 H 0.10518 0.96737 0.76115 0.0
C4615 C 0.12419 0.99517 0.74166 0.0
C4616 C 0.51999 0.36324 0.50796 0.0
C4617 C 0.51757 0.36981 0.49354 0.0
H4618 H 0.51069 0.35854 0.53008 0.0
C4619 C 0.50323 0.37612 0.49017 0.0
H4620 H 0.53093 0.35828 0.51086 0.0
C4621 C 0.49167 0.37625 0.50112 0.0
C4622 C 0.49421 0.37008 0.51569 0.0
H4623 H 0.50101 0.38123 0.47914 0.0
H4624 H 0.48084 0.38147 0.49827 0.0
C4625 C 0.50841 0.36339 0.51894 0.0
C4626 C 0.12499 0.75265 0.00705 0.0
C4627 C 0.11816 0.76688 0.00429 0.0
H4628 H 0.13059 0.73062 0.99819 0.0
C4629 C 0.11092 0.76946 0.99023 0.0
H4630 H 0.13062 0.7503 0.01779 0.0
C4631 C 0.1109 0.75814 0.97896 0.0
C4632 C 0.11812 0.74407 0.98159 0.0
H4633 H 0.10555 0.78032 0.9878 0.0
H4634 H 0.10552 0.76053 0.9681 0.0
C4635 C 0.12497 0.74136 0.99581 0.0
C4636 C 0.72921 0.86212 0.24093 0.0
C4637 C 0.73176 0.86878 0.25529 0.0
H4638 H 0.73821 0.8575 0.21867 0.0
C4639 C 0.74607 0.87528 0.25842 0.0
H4640 H 0.71829 0.85702 0.2382 0.0
C4641 C 0.75745 0.87554 0.24728 0.0
C4642 C 0.75475 0.86932 0.23276 0.0
H4643 H 0.7484 0.88046 0.2694 0.0
H4644 H 0.76825 0.88093 0.24994 0.0
C4645 C 0.74061 0.8624 0.22976 0.0
C4646 C 0.9912 0.37323 0.74717 0.0
C4647 C 0.99394 0.3794 0.73264 0.0
H4648 H 0.00023 0.36821 0.76927 0.0
C4649 C 0.00818 0.38612 0.7296 0.0
H4650 H 0.98033 0.368 0.74987 0.0
C4651 C 0.01961 0.38625 0.74075 0.0
C4652 C 0.01699 0.37965 0.75512 0.0
H4653 H 0.01062 0.39098 0.7185 0.0
H4654 H 0.03059 0.39121 0.73799 0.0
C4655 C 0.0026 0.37334 0.75829 0.0
C4656 C 0.00895 0.86095 0.51943 0.0
C4657 C 0.99491 0.86819 0.51667 0.0
H4658 H 0.03118 0.85552 0.51079 0.0
C4659 C 0.99231 0.87494 0.50238 0.0
H4660 H 0.01126 0.85564 0.53035 0.0
C4661 C 0.00367 0.87486 0.49122 0.0
C4662 C 0.01788 0.86803 0.49411 0.0
H4663 H 0.98159 0.88057 0.49989 0.0
H4664 H 0.00142 0.88043 0.48042 0.0
C4665 C 0.02034 0.86088 0.50825 0.0
C4666 C 0.13867 0.75768 0.27015 0.0
C4667 C 0.13159 0.74355 0.26742 0.0
H4668 H 0.14386 0.77995 0.26143 0.0
C4669 C 0.12491 0.74083 0.25312 0.0
H4670 H 0.14391 0.76009 0.28108 0.0
C4671 C 0.12488 0.75214 0.24192 0.0
C4672 C 0.13153 0.76643 0.24479 0.0
H4673 H 0.11941 0.73004 0.25066 0.0
H4674 H 0.11936 0.74977 0.23113 0.0
C4675 C 0.13863 0.76904 0.25892 0.0
C4676 C 0.23966 0.88742 0.01988 0.0
C4677 C 0.25376 0.8803 0.01711 0.0
H4678 H 0.2174 0.8927 0.01123 0.0
C4679 C 0.25642 0.87358 0.00281 0.0
H4680 H 0.2373 0.89269 0.0308 0.0
C4681 C 0.24507 0.87359 0.99164 0.0
C4682 C 0.23081 0.88031 0.99454 0.0
H4683 H 0.26718 0.86805 0.00032 0.0
H4684 H 0.24738 0.86806 0.98084 0.0
C4685 C 0.22827 0.88742 0.00869 0.0
C4686 C 0.99327 0.87306 0.24632 0.0
C4687 C 0.99604 0.87966 0.23199 0.0
H4688 H 0.00215 0.86767 0.26838 0.0
C4689 C 0.01019 0.88668 0.22924 0.0
H4690 H 0.98246 0.86759 0.24878 0.0
C4691 C 0.0215 0.88672 0.2405 0.0
C4692 C 0.01885 0.87975 0.25469 0.0
H4693 H 0.01264 0.89187 0.2183 0.0
H4694 H 0.03242 0.89194 0.23799 0.0
C4695 C 0.00455 0.8731 0.25755 0.0
C4696 C 0.22736 0.86073 0.73953 0.0
C4697 C 0.23011 0.86768 0.75372 0.0
H4698 H 0.23616 0.8555 0.71731 0.0
C4699 C 0.24447 0.87419 0.75655 0.0
H4700 H 0.2164 0.85561 0.73704 0.0
C4701 C 0.25574 0.87412 0.7453 0.0
C4702 C 0.25289 0.86754 0.73097 0.0
H4703 H 0.24694 0.8796 0.76739 0.0
H4704 H 0.2666 0.87948 0.74776 0.0
C4705 C 0.23867 0.86066 0.72825 0.0
C4706 C 0.13782 0.99019 0.4789 0.0
C4707 C 0.13071 0.00433 0.48146 0.0
H4708 H 0.14299 0.96801 0.48783 0.0
C4709 C 0.12388 0.00715 0.49568 0.0
H4710 H 0.14319 0.98771 0.46805 0.0
C4711 C 0.12376 0.99591 0.50696 0.0
C4712 C 0.13048 0.98162 0.50426 0.0
H4713 H 0.11834 0.01795 0.49801 0.0
H4714 H 0.11814 0.99835 0.51769 0.0
C4715 C 0.13771 0.97892 0.49021 0.0
C4716 C 0.49544 0.00747 0.8813 0.0
C4717 C 0.4971 0.01992 0.87135 0.0
H4718 H 0.50475 0.98637 0.88933 0.0
C4719 C 0.50971 0.02037 0.86146 0.0
H4720 H 0.48582 0.0068 0.88902 0.0
C4721 C 0.5206 0.00871 0.86169 0.0
C4722 C 0.519 0.99632 0.87173 0.0
H4723 H 0.51129 0.02982 0.85367 0.0
H4724 H 0.5303 0.00945 0.85407 0.0
C4725 C 0.50626 0.99576 0.88145 0.0
C4726 C 0.99073 0.24277 0.63026 0.0
C4727 C 0.9781 0.2448 0.62061 0.0
H4728 H 0.01212 0.25162 0.63805 0.0
C4729 C 0.97767 0.25757 0.61093 0.0
H4730 H 0.99139 0.23301 0.63781 0.0
C4731 C 0.98951 0.26826 0.6111 0.0
C4732 C 0.00204 0.26632 0.62089 0.0
H4733 H 0.96808 0.25943 0.60336 0.0
H4734 H 0.98876 0.27811 0.60368 0.0
C4735 C 0.00261 0.2534 0.63036 0.0
C4736 C 0.24307 0.49557 0.12423 0.0
C4737 C 0.24589 0.48121 0.11769 0.0
H4738 H 0.2519 0.51767 0.12959 0.0
C4739 C 0.26006 0.47847 0.11072 0.0
H4740 H 0.23225 0.49804 0.12965 0.0
C4741 C 0.27136 0.48976 0.11068 0.0
C4742 C 0.26867 0.50396 0.11762 0.0
H4743 H 0.26254 0.46751 0.10558 0.0
H4744 H 0.2823 0.48724 0.10552 0.0
C4745 C 0.25434 0.50682 0.12419 0.0
C4746 C 0.51038 0.72848 0.88721 0.0
C4747 C 0.49623 0.73121 0.88019 0.0
H4748 H 0.53253 0.73733 0.89266 0.0
C4749 C 0.49339 0.74559 0.87374 0.0
H4750 H 0.51288 0.7175 0.89229 0.0
C4751 C 0.50459 0.75691 0.87396 0.0
C4752 C 0.51888 0.75409 0.88064 0.0
H4753 H 0.48258 0.74805 0.86827 0.0
H4754 H 0.50212 0.7678 0.86866 0.0
C4755 C 0.52162 0.73983 0.88743 0.0
C4756 C 0.72752 0.00889 0.38829 0.0
C4757 C 0.73016 0.99467 0.38135 0.0
H4758 H 0.73643 0.03111 0.39334 0.0
C4759 C 0.74446 0.99176 0.37473 0.0
H4760 H 0.71661 0.01144 0.39349 0.0
C4761 C 0.75575 0.00298 0.37465 0.0
C4762 C 0.753 0.01735 0.38118 0.0
H4763 H 0.74684 0.9809 0.36933 0.0
H4764 H 0.76655 0.00047 0.36919 0.0
C4765 C 0.73886 0.02014 0.3882 0.0
C4766 C 0.97834 0.4903 0.13763 0.0
C4767 C 0.98056 0.50438 0.13029 0.0
H4768 H 0.98783 0.46847 0.14325 0.0
C4769 C 0.99474 0.50745 0.12347 0.0
H4770 H 0.96753 0.48764 0.14301 0.0
C4771 C 0.00631 0.49651 0.12361 0.0
C4772 C 0.00398 0.48228 0.13058 0.0
H4773 H 0.99681 0.51821 0.11776 0.0
H4774 H 0.01701 0.49913 0.11799 0.0
C4775 C 0.98995 0.47934 0.13778 0.0
C4776 C 0.86054 0.5078 0.01965 0.0
C4777 C 0.86777 0.49375 0.01695 0.0
H4778 H 0.85521 0.53003 0.01093 0.0
C4779 C 0.87462 0.49112 0.0027 0.0
H4780 H 0.85516 0.51014 0.03052 0.0
C4781 C 0.87464 0.50245 0.99153 0.0
C4782 C 0.86782 0.51667 0.99436 0.0
H4783 H 0.88024 0.48038 0.00027 0.0
H4784 H 0.88028 0.50016 0.98078 0.0
C4785 C 0.86057 0.51918 0.00844 0.0
C4786 C 0.36107 0.72895 0.74016 0.0
C4787 C 0.36804 0.73198 0.75428 0.0
H4788 H 0.35586 0.73727 0.71775 0.0
C4789 C 0.37454 0.7464 0.75682 0.0
H4790 H 0.35596 0.71794 0.73789 0.0
C4791 C 0.37449 0.75743 0.74534 0.0
C4792 C 0.36793 0.75427 0.73106 0.0
H4793 H 0.37996 0.74909 0.7676 0.0
H4794 H 0.37986 0.76833 0.74757 0.0
C4795 C 0.36102 0.74001 0.72864 0.0
C4796 C 0.24228 0.12502 0.49566 0.0
C4797 C 0.24505 0.11841 0.48133 0.0
H4798 H 0.25112 0.13034 0.51776 0.0
C4799 C 0.25916 0.1113 0.47862 0.0
H4800 H 0.2315 0.13055 0.4981 0.0
C4801 C 0.27045 0.11117 0.48993 0.0
C4802 C 0.26779 0.11816 0.50411 0.0
H4803 H 0.26161 0.1061 0.46768 0.0
H4804 H 0.28133 0.10589 0.48744 0.0
C4805 C 0.25352 0.12489 0.50693 0.0
C4806 C 0.50678 0.62317 0.49592 0.0
C4807 C 0.50381 0.62953 0.48152 0.0
H4808 H 0.49809 0.61779 0.51808 0.0
C4809 C 0.48947 0.63615 0.47874 0.0
H4810 H 0.51774 0.61803 0.49842 0.0
C4811 C 0.47818 0.636 0.49003 0.0
C4812 C 0.48104 0.62925 0.50429 0.0
H4813 H 0.48686 0.64114 0.46775 0.0
H4814 H 0.46711 0.64088 0.48748 0.0
C4815 C 0.49552 0.62304 0.50719 0.0
C4816 C 0.26001 0.13674 0.76924 0.0
C4817 C 0.24677 0.12804 0.76685 0.0
H4818 H 0.28178 0.14364 0.76053 0.0
C4819 C 0.24529 0.11969 0.75324 0.0
H4820 H 0.26147 0.14329 0.77962 0.0
C4821 C 0.25694 0.11984 0.74235 0.0
C4822 C 0.27027 0.12838 0.74483 0.0
H4823 H 0.23522 0.11286 0.75108 0.0
H4824 H 0.25554 0.11317 0.73204 0.0
C4825 C 0.27164 0.13693 0.75832 0.0
C4826 C 0.99398 0.62522 0.24077 0.0
C4827 C 0.97972 0.61852 0.24368 0.0
H4828 H 0.01608 0.63082 0.24945 0.0
C4829 C 0.97714 0.61153 0.25788 0.0
H4830 H 0.99631 0.63067 0.22993 0.0
C4831 C 0.9885 0.61161 0.26909 0.0
C4832 C 0.00261 0.61869 0.2663 0.0
H4833 H 0.96626 0.60627 0.26043 0.0
H4834 H 0.98612 0.60642 0.28004 0.0
C4835 C 0.0053 0.62531 0.25196 0.0
C4836 C 0.99494 0.62341 0.00762 0.0
C4837 C 0.98068 0.63012 0.00466 0.0
H4838 H 0.01707 0.61783 0.999 0.0
C4839 C 0.97818 0.63716 0.99048 0.0
H4840 H 0.99722 0.61793 0.01845 0.0
C4841 C 0.98959 0.63711 0.97931 0.0
C4842 C 0.00369 0.63001 0.98214 0.0
H4843 H 0.96731 0.64243 0.98789 0.0
H4844 H 0.98725 0.64234 0.96836 0.0
C4845 C 0.00631 0.62336 0.99647 0.0
C4846 C 0.87437 0.74621 0.25688 0.0
C4847 C 0.86757 0.73197 0.25409 0.0
H4848 H 0.87996 0.76825 0.24807 0.0
C4849 C 0.86034 0.72941 0.24001 0.0
H4850 H 0.87999 0.74854 0.26763 0.0
C4851 C 0.86032 0.74074 0.22876 0.0
C4852 C 0.86754 0.75481 0.23142 0.0
H4853 H 0.85499 0.71854 0.23756 0.0
H4854 H 0.85497 0.73836 0.21788 0.0
C4855 C 0.87435 0.7575 0.24566 0.0
C4856 C 0.75905 0.61136 0.47908 0.0
C4857 C 0.74494 0.61848 0.48179 0.0
H4858 H 0.78125 0.60602 0.48785 0.0
C4859 C 0.7422 0.62514 0.4961 0.0
H4860 H 0.76147 0.60612 0.46816 0.0
C4861 C 0.75348 0.62508 0.50734 0.0
C4862 C 0.76775 0.61836 0.50451 0.0
H4863 H 0.73143 0.63069 0.49855 0.0
H4864 H 0.75111 0.63058 0.51815 0.0
C4865 C 0.77036 0.6113 0.49035 0.0
C4866 C 0.88806 0.50921 0.72856 0.0
C4867 C 0.8811 0.49505 0.73142 0.0
H4868 H 0.89327 0.53152 0.73717 0.0
C4869 C 0.87454 0.49236 0.74578 0.0
H4870 H 0.89321 0.5116 0.71759 0.0
C4871 C 0.87457 0.50371 0.75694 0.0
C4872 C 0.88116 0.51801 0.75398 0.0
H4873 H 0.86912 0.48155 0.74834 0.0
H4874 H 0.86918 0.50135 0.76781 0.0
C4875 C 0.88809 0.5206 0.73976 0.0
C4876 C 0.88779 0.72872 0.50835 0.0
C4877 C 0.88063 0.73122 0.49422 0.0
H4878 H 0.89307 0.73778 0.53045 0.0
C4879 C 0.87386 0.74545 0.49134 0.0
H4880 H 0.89311 0.71786 0.51088 0.0
C4881 C 0.87384 0.7568 0.50249 0.0
C4882 C 0.88059 0.75418 0.51678 0.0
H4883 H 0.8683 0.74774 0.48054 0.0
H4884 H 0.86826 0.76755 0.50001 0.0
C4885 C 0.88777 0.74011 0.51954 0.0
C4886 C 0.74318 0.62507 0.75283 0.0
C4887 C 0.74593 0.63172 0.76715 0.0
H4888 H 0.7521 0.61956 0.73081 0.0
C4889 C 0.76006 0.6388 0.76986 0.0
H4890 H 0.73239 0.61956 0.75038 0.0
C4891 C 0.77139 0.6388 0.75861 0.0
C4892 C 0.76877 0.63172 0.74447 0.0
H4893 H 0.76249 0.64404 0.78079 0.0
H4894 H 0.7823 0.64403 0.76111 0.0
C4895 C 0.75448 0.62506 0.74162 0.0
C4896 C 0.49044 0.5071 0.61865 0.0
C4897 C 0.47778 0.50506 0.62826 0.0
H4898 H 0.51177 0.49817 0.61079 0.0
C4899 C 0.47726 0.49222 0.63784 0.0
H4900 H 0.49117 0.51691 0.61117 0.0
C4901 C 0.48903 0.48146 0.63759 0.0
C4902 C 0.50158 0.48339 0.62781 0.0
H4903 H 0.46765 0.49036 0.64539 0.0
H4904 H 0.48821 0.47156 0.64493 0.0
C4905 C 0.50225 0.49639 0.61846 0.0
C4906 C 0.99405 0.24523 0.87373 0.0
C4907 C 0.99678 0.23084 0.88023 0.0
H4908 H 0.003 0.26728 0.8684 0.0
C4909 C 0.011 0.22795 0.88705 0.0
H4910 H 0.9832 0.24781 0.86841 0.0
C4911 C 0.02239 0.23915 0.88705 0.0
C4912 C 0.01974 0.25341 0.88023 0.0
H4913 H 0.01342 0.21696 0.89215 0.0
H4914 H 0.03333 0.23654 0.89215 0.0
C4915 C 0.0054 0.25639 0.87372 0.0
C4916 C 0.25925 0.76994 0.13692 0.0
C4917 C 0.24508 0.76726 0.12993 0.0
H4918 H 0.28147 0.76111 0.1421 0.0
C4919 C 0.24226 0.75296 0.12327 0.0
H4920 H 0.26173 0.78086 0.14216 0.0
C4921 C 0.25352 0.7417 0.12324 0.0
C4922 C 0.26783 0.74449 0.12987 0.0
H4923 H 0.23144 0.75054 0.11782 0.0
H4924 H 0.25108 0.73089 0.11777 0.0
C4925 C 0.27054 0.75865 0.13689 0.0
C4926 C 0.47805 0.75848 0.61106 0.0
C4927 C 0.4807 0.7443 0.61804 0.0
H4928 H 0.48681 0.7808 0.60617 0.0
C4929 C 0.4949 0.74156 0.62494 0.0
H4930 H 0.46721 0.76091 0.60565 0.0
C4931 C 0.50607 0.7529 0.62525 0.0
C4932 C 0.50329 0.76723 0.61866 0.0
H4933 H 0.4973 0.73073 0.63039 0.0
H4934 H 0.51679 0.75051 0.63091 0.0
C4935 C 0.48926 0.76986 0.61136 0.0
C4936 C 0.73142 0.24275 0.86096 0.0
C4937 C 0.73206 0.25528 0.87095 0.0
H4938 H 0.74211 0.22215 0.8533 0.0
C4939 C 0.74476 0.25694 0.88057 0.0
H4940 H 0.72178 0.24119 0.8534 0.0
C4941 C 0.75643 0.24608 0.88045 0.0
C4942 C 0.75559 0.23333 0.87076 0.0
H4943 H 0.74557 0.2665 0.88836 0.0
H4944 H 0.76596 0.24751 0.88819 0.0
C4945 C 0.74306 0.23185 0.8609 0.0
C4946 C 0.02001 0.00822 0.36125 0.0
C4947 C 0.01763 0.99413 0.3685 0.0
H4948 H 0.01078 0.03021 0.3558 0.0
C4949 C 0.00344 0.9912 0.37535 0.0
H4950 H 0.03083 0.01079 0.35586 0.0
C4951 C 0.992 0.00228 0.37532 0.0
C4952 C 0.9945 0.01652 0.36843 0.0
H4953 H 0.00124 0.98043 0.381 0.0
H4954 H 0.98129 -0.00023 0.38095 0.0
C4955 C 0.00854 0.01933 0.3612 0.0
C4956 C 0.63874 0.75993 0.77051 0.0
C4957 C 0.63169 0.74576 0.76792 0.0
H4958 H 0.64368 0.7822 0.76166 0.0
C4959 C 0.6248 0.74297 0.75373 0.0
H4960 H 0.64415 0.7624 0.78134 0.0
C4961 C 0.62453 0.75426 0.74252 0.0
C4962 C 0.63115 0.76859 0.74524 0.0
H4963 H 0.61931 0.73215 0.75138 0.0
H4964 H 0.61884 0.75184 0.73181 0.0
C4965 C 0.63847 0.77126 0.75925 0.0
C4966 C 0.75518 0.36804 0.00251 0.0
C4967 C 0.7542 0.37748 0.01543 0.0
H4968 H 0.74451 0.36051 0.98184 0.0
C4969 C 0.74159 0.38724 0.01701 0.0
H4970 H 0.76476 0.36038 0.00099 0.0
C4971 C 0.73005 0.38736 0.00602 0.0
C4972 C 0.73084 0.37765 0.99328 0.0
H4973 H 0.74054 0.39465 0.02684 0.0
H4974 H 0.72037 0.39486 0.00765 0.0
C4975 C 0.74358 0.36809 0.99155 0.0
C4976 C 0.10977 0.48154 0.25762 0.0
C4977 C 0.1201 0.48306 0.24546 0.0
H4978 H 0.10152 0.49078 0.27868 0.0
C4979 C 0.12993 0.49572 0.24512 0.0
H4980 H 0.10205 0.47191 0.25818 0.0
C4981 C 0.1297 0.50646 0.2569 0.0
C4982 C 0.11956 0.50481 0.26919 0.0
H4983 H 0.13802 0.49718 0.23589 0.0
H4984 H 0.13758 0.51597 0.25645 0.0
C4985 C 0.10947 0.49235 0.26935 0.0
C4986 C 0.52098 0.86125 0.00975 0.0
C4987 C 0.51847 0.86837 0.99561 0.0
H4988 H 0.51186 0.85585 0.0318 0.0
C4989 C 0.50418 0.87499 0.99265 0.0
H4990 H 0.53188 0.85604 0.01234 0.0
C4991 C 0.49276 0.87487 0.00375 0.0
C4992 C 0.49539 0.86814 0.01804 0.0
H4993 H 0.50189 0.88052 0.98185 0.0
H4994 H 0.48197 0.88033 0.00121 0.0
C4995 C 0.50953 0.86113 0.02088 0.0
C4996 C 0.10989 0.26905 0.49003 0.0
C4997 C 0.11693 0.26621 0.50415 0.0
H4998 H 0.10489 0.26056 0.46763 0.0
C4999 C 0.12379 0.25197 0.50671 0.0
H5000 H 0.10451 0.27993 0.48774 0.0
C5001 C 0.12401 0.24092 0.49524 0.0
C5002 C 0.11738 0.24389 0.48096 0.0
H5003 H 0.12928 0.24943 0.51749 0.0
H5004 H 0.12965 0.23016 0.49748 0.0
C5005 C 0.11012 0.25797 0.47852 0.0
C5006 C 0.75199 0.38051 0.74544 0.0
C5007 C 0.75143 0.37107 0.7325 0.0
H5008 H 0.74074 0.38797 0.7658 0.0
C5009 C 0.73886 0.36134 0.73049 0.0
H5010 H 0.76152 0.38816 0.74728 0.0
C5011 C 0.72698 0.36119 0.74113 0.0
C5012 C 0.72741 0.37085 0.75392 0.0
H5013 H 0.73812 0.35394 0.72062 0.0
H5014 H 0.71737 0.35366 0.73923 0.0
C5015 C 0.74007 0.38044 0.75602 0.0
C5016 C 0.99274 0.37485 0.00406 0.0
C5017 C 0.99569 0.36843 0.01844 0.0
H5018 H 0.00137 0.38001 0.98183 0.0
C5019 C 0.0099 0.36149 0.0211 0.0
H5020 H 0.98189 0.38025 0.00165 0.0
C5021 C 0.02109 0.36135 0.00971 0.0
C5022 C 0.01826 0.36815 0.99547 0.0
H5023 H 0.01248 0.35644 0.03208 0.0
H5024 H 0.03205 0.3562 0.01217 0.0
C5025 C 0.0039 0.37471 0.9927 0.0
C5026 C 0.12473 0.25244 0.74243 0.0
C5027 C 0.1314 0.26674 0.74523 0.0
H5028 H 0.11944 0.23031 0.75119 0.0
C5029 C 0.13876 0.2693 0.75924 0.0
H5030 H 0.11902 0.2501 0.73173 0.0
C5031 C 0.13901 0.25792 0.77043 0.0
C5032 C 0.1319 0.24379 0.76778 0.0
H5033 H 0.14402 0.28021 0.7617 0.0
H5034 H 0.14444 0.2603 0.78127 0.0
C5035 C 0.12497 0.24109 0.75359 0.0
C5036 C 0.25539 0.3724 0.50304 0.0
C5037 C 0.25282 0.37936 0.51724 0.0
H5038 H 0.24622 0.36654 0.48122 0.0
C5039 C 0.23876 0.38656 0.51998 0.0
H5040 H 0.26612 0.3668 0.50059 0.0
C5041 C 0.22731 0.38641 0.50886 0.0
C5042 C 0.22976 0.37905 0.49483 0.0
H5043 H 0.23647 0.39202 0.53083 0.0
H5044 H 0.21646 0.39176 0.51137 0.0
C5045 C 0.24398 0.37225 0.49195 0.0
C5046 C 0.25743 0.37477 0.24617 0.0
C5047 C 0.25435 0.3685 0.23175 0.0
H5048 H 0.24885 0.38022 0.26836 0.0
C5049 C 0.23991 0.36209 0.22898 0.0
H5050 H 0.26846 0.37976 0.24867 0.0
C5051 C 0.22864 0.36237 0.24029 0.0
C5052 C 0.23162 0.36904 0.25456 0.0
H5053 H 0.23721 0.35717 0.21797 0.0
H5054 H 0.21751 0.35765 0.23774 0.0
C5055 C 0.24619 0.37504 0.25746 0.0
C5056 C 0.49292 0.503 0.37344 0.0
C5057 C 0.49573 0.51738 0.36697 0.0
H5058 H 0.50179 0.48092 0.3788 0.0
C5059 C 0.50994 0.52019 0.3601 0.0
H5060 H 0.48206 0.50047 0.37878 0.0
C5061 C 0.52129 0.50894 0.36012 0.0
C5062 C 0.51859 0.49472 0.36699 0.0
H5063 H 0.51242 0.53117 0.35502 0.0
H5064 H 0.53225 0.51151 0.35504 0.0
C5065 C 0.50422 0.49179 0.37345 0.0
C5066 C 0.98964 0.76951 0.11136 0.0
C5067 C 0.00368 0.76652 0.11849 0.0
H5068 H 0.96727 0.76118 0.106 0.0
C5069 C 0.00612 0.75217 0.12518 0.0
H5070 H 0.98744 0.78047 0.1061 0.0
C5071 C 0.9946 0.74117 0.12513 0.0
C5072 C 0.98041 0.74428 0.11838 0.0
H5073 H 0.01683 0.74952 0.13074 0.0
H5074 H 0.99675 0.73032 0.13063 0.0
C5075 C 0.97809 0.75848 0.11131 0.0
C5076 C 0.50339 0.2575 0.37386 0.0
C5077 C 0.51767 0.25468 0.38055 0.0
H5078 H 0.48131 0.24871 0.36832 0.0
C5079 C 0.52028 0.24054 0.38765 0.0
H5080 H 0.50102 0.2683 0.36833 0.0
C5081 C 0.50895 0.22929 0.38765 0.0
C5082 C 0.49484 0.23198 0.38054 0.0
H5083 H 0.53118 0.23805 0.39292 0.0
H5084 H 0.51138 0.21837 0.39291 0.0
C5085 C 0.49209 0.24628 0.37385 0.0
C5086 C 0.00595 0.99603 0.62366 0.0
C5087 C 0.0031 0.98168 0.63019 0.0
H5088 H 0.99722 0.01819 0.6184 0.0
C5089 C 0.98892 0.979 0.63719 0.0
H5090 H 0.01677 0.99846 0.6182 0.0
C5091 C 0.97768 0.99035 0.63732 0.0
C5092 C 0.98043 0.00456 0.63043 0.0
H5093 H 0.98641 0.96804 0.64233 0.0
H5094 H 0.96675 0.98788 0.64254 0.0
C5095 C 0.99474 0.00734 0.62377 0.0
C5096 C 0.36102 0.23965 0.22811 0.0
C5097 C 0.36823 0.25375 0.23061 0.0
H5098 H 0.35563 0.21758 0.23719 0.0
C5099 C 0.375 0.25663 0.24485 0.0
H5100 H 0.3557 0.23713 0.21725 0.0
C5101 C 0.37496 0.24548 0.25621 0.0
C5102 C 0.36815 0.23122 0.25359 0.0
H5103 H 0.3806 0.2674 0.24713 0.0
H5104 H 0.38054 0.24796 0.26696 0.0
C5105 C 0.36098 0.22847 0.23952 0.0
C5106 C 0.25964 0.61128 0.97829 0.0
C5107 C 0.24545 0.6182 0.98113 0.0
H5108 H 0.28196 0.60617 0.98689 0.0
C5109 C 0.24274 0.62479 0.99548 0.0
H5110 H 0.26204 0.6061 0.96733 0.0
C5111 C 0.2541 0.62482 0.00664 0.0
C5112 C 0.26842 0.61828 0.00369 0.0
H5113 H 0.23191 0.63018 0.99802 0.0
H5114 H 0.25173 0.63024 0.01749 0.0
C5115 C 0.27103 0.61132 0.98948 0.0
C5116 C 0.48006 0.13767 0.99101 0.0
C5117 C 0.48139 0.12743 0.00326 0.0
H5118 H 0.48978 0.14598 0.9702 0.0
C5119 C 0.49409 0.11767 0.00392 0.0
H5120 H 0.4704 0.14533 0.99021 0.0
C5121 C 0.50512 0.11795 0.99241 0.0
C5122 C 0.50373 0.12809 0.98009 0.0
H5123 H 0.4954 0.10963 0.01321 0.0
H5124 H 0.5147 0.11018 0.99313 0.0
C5125 C 0.49116 0.13804 0.97957 0.0
C5126 C 0.26967 0.63675 0.25839 0.0
C5127 C 0.26707 0.62997 0.2441 0.0
H5128 H 0.26078 0.64143 0.28069 0.0
C5129 C 0.25279 0.62334 0.2411 0.0
H5130 H 0.28056 0.64196 0.26101 0.0
C5131 C 0.2415 0.62305 0.25233 0.0
C5132 C 0.24425 0.62937 0.26679 0.0
H5133 H 0.25044 0.61807 0.23018 0.0
H5134 H 0.23073 0.61755 0.24977 0.0
C5135 C 0.25835 0.63645 0.26965 0.0
C5136 C 0.38942 0.01841 0.74148 0.0
C5137 C 0.3792 0.01835 0.75383 0.0
H5138 H 0.39693 0.00719 0.7211 0.0
C5139 C 0.36891 0.00616 0.75537 0.0
H5140 H 0.39748 0.02766 0.74 0.0
C5141 C 0.36868 0.99439 0.74462 0.0
C5142 C 0.37864 0.99465 0.73206 0.0
H5143 H 0.36093 0.00579 0.76479 0.0
H5144 H 0.36047 0.98526 0.74599 0.0
C5145 C 0.3891 0.0067 0.73066 0.0
C5146 C 0.47847 0.1116 0.2587 0.0
C5147 C 0.48103 0.11853 0.24448 0.0
H5148 H 0.48744 0.1066 0.2809 0.0
C5149 C 0.49528 0.12527 0.24155 0.0
H5150 H 0.4676 0.10631 0.26127 0.0
C5151 C 0.50659 0.12544 0.25276 0.0
C5152 C 0.50391 0.11887 0.26712 0.0
H5153 H 0.4976 0.13067 0.23069 0.0
H5154 H 0.51735 0.13097 0.25024 0.0
C5155 C 0.48982 0.11177 0.26993 0.0
C5156 C 0.38838 0.22865 0.50807 0.0
C5157 C 0.38109 0.23108 0.494 0.0
H5158 H 0.39391 0.23784 0.53006 0.0
C5159 C 0.37438 0.24533 0.49107 0.0
H5160 H 0.39366 0.21778 0.51063 0.0
C5161 C 0.37452 0.25677 0.50214 0.0
C5162 C 0.38138 0.25421 0.51639 0.0
H5163 H 0.36872 0.24757 0.48031 0.0
H5164 H 0.36896 0.26752 0.49963 0.0
C5165 C 0.38852 0.24013 0.51918 0.0
C5166 C 0.36138 0.01876 0.00687 0.0
C5167 C 0.36863 0.01575 0.99289 0.0
H5168 H 0.35585 0.01048 0.02922 0.0
C5169 C 0.37522 0.00135 0.99049 0.0
H5170 H 0.35619 0.02977 0.00904 0.0
C5171 C 0.37504 0.99035 0.002 0.0
C5172 C 0.36826 0.99352 0.01617 0.0
H5173 H 0.38086 0.99867 0.97982 0.0
H5174 H 0.38053 0.97948 -0.0001 0.0
C5175 C 0.36119 0.00774 0.01842 0.0
C5176 C 0.75908 0.26911 0.13663 0.0
C5177 C 0.74497 0.26607 0.12964 0.0
H5178 H 0.78139 0.26071 0.14211 0.0
C5179 C 0.74235 0.25156 0.12338 0.0
H5180 H 0.76141 0.2802 0.14156 0.0
C5181 C 0.75375 0.24045 0.12369 0.0
C5182 C 0.76802 0.2436 0.13028 0.0
H5183 H 0.73158 0.24886 0.11796 0.0
H5184 H 0.75147 0.22947 0.1185 0.0
C5185 C 0.77051 0.25797 0.13695 0.0
C5186 C 0.25428 0.5023 0.37015 0.0
C5187 C 0.25298 0.51591 0.37853 0.0
H5188 H 0.2437 0.48131 0.36348 0.0
C5189 C 0.23971 0.51851 0.38714 0.0
H5190 H 0.26436 0.49998 0.36339 0.0
C5191 C 0.22788 0.50781 0.38719 0.0
C5192 C 0.22908 0.49432 0.37861 0.0
H5193 H 0.23839 0.5289 0.3937 0.0
H5194 H 0.21773 0.51018 0.39383 0.0
C5195 C 0.24243 0.49162 0.37017 0.0
C5196 C 0.22825 0.74009 0.86159 0.0
C5197 C 0.23073 0.75422 0.86875 0.0
H5198 H 0.23734 0.71801 0.85628 0.0
C5199 C 0.24494 0.75711 0.87558 0.0
H5200 H 0.21742 0.73756 0.85622 0.0
C5201 C 0.2563 0.74595 0.87562 0.0
C5202 C 0.2537 0.73167 0.86883 0.0
H5203 H 0.2472 0.7679 0.88116 0.0
H5204 H 0.26702 0.74843 0.88124 0.0
C5205 C 0.23965 0.72891 0.86162 0.0
C5206 C 0.77029 0.99089 0.11098 0.0
C5207 C 0.76956 0.0039 0.12032 0.0
H5208 H 0.75949 0.9701 0.10402 0.0
C5209 C 0.7567 0.00611 0.12962 0.0
H5210 H 0.78005 0.9889 0.10368 0.0
C5211 C 0.74489 0.99539 0.12975 0.0
C5212 C 0.74575 0.98223 0.12063 0.0
H5213 H 0.75581 0.01605 0.13691 0.0
H5214 H 0.7352 0.99731 0.13718 0.0
C5215 C 0.75851 0.98013 0.11117 0.0
C5216 C 0.63861 0.47896 0.48972 0.0
C5217 C 0.63152 0.48171 0.50384 0.0
H5218 H 0.64378 0.48765 0.46744 0.0
C5219 C 0.62479 0.496 0.50653 0.0
H5220 H 0.64389 0.46805 0.48734 0.0
C5221 C 0.62473 0.50716 0.4952 0.0
C5222 C 0.63139 0.50429 0.48091 0.0
H5223 H 0.61928 0.49847 0.51731 0.0
H5224 H 0.61918 0.51795 0.49754 0.0
C5225 C 0.63854 0.49017 0.47834 0.0
C5226 C 0.62454 0.9955 0.24253 0.0
C5227 C 0.61792 0.98121 0.24546 0.0
H5228 H 0.63001 0.01765 0.25116 0.0
C5229 C 0.61094 0.97862 0.25966 0.0
H5230 H 0.62997 0.99785 0.23168 0.0
C5231 C 0.61095 0.99001 0.27086 0.0
C5232 C 0.61795 0.00415 0.26804 0.0
H5233 H 0.60574 0.96771 0.26223 0.0
H5234 H 0.60576 0.98762 0.28182 0.0
C5235 C 0.62456 0.00685 0.25369 0.0
C5236 C 0.62387 0.75294 0.50756 0.0
C5237 C 0.61707 0.76718 0.50482 0.0
H5238 H 0.62957 0.73096 0.49865 0.0
C5239 C 0.60992 0.76981 0.49071 0.0
H5240 H 0.62943 0.75056 0.51834 0.0
C5241 C 0.61001 0.75854 0.47939 0.0
C5242 C 0.61724 0.74447 0.482 0.0
H5243 H 0.60458 0.78068 0.48828 0.0
H5244 H 0.60472 0.76098 0.46849 0.0
C5245 C 0.62396 0.74171 0.49628 0.0
C5246 C 0.52084 0.38707 0.23931 0.0
C5247 C 0.51832 0.38 0.25347 0.0
H5248 H 0.5118 0.39226 0.21718 0.0
C5249 C 0.50408 0.37325 0.25638 0.0
H5250 H 0.5317 0.39237 0.23675 0.0
C5251 C 0.49273 0.37318 0.24521 0.0
C5252 C 0.49537 0.37987 0.2309 0.0
H5253 H 0.50178 0.36774 0.2672 0.0
H5254 H 0.48198 0.36763 0.24772 0.0
C5255 C 0.50946 0.38701 0.22811 0.0
C5256 C 0.49167 0.87348 0.74699 0.0
C5257 C 0.49429 0.88033 0.73275 0.0
H5258 H 0.50067 0.86799 0.76899 0.0
C5259 C 0.5083 0.88767 0.73009 0.0
H5260 H 0.48097 0.86777 0.74939 0.0
C5261 C 0.51962 0.88779 0.74135 0.0
C5262 C 0.51711 0.88059 0.75546 0.0
H5263 H 0.51063 0.89305 0.71922 0.0
H5264 H 0.53042 0.89326 0.73891 0.0
C5265 C 0.50295 0.87361 0.75822 0.0
C5266 C 0.62487 0.00882 0.99748 0.0
C5267 C 0.63145 0.00615 0.98311 0.0
H5268 H 0.61933 -0.00028 0.01941 0.0
C5269 C 0.63844 0.992 0.98025 0.0
H5270 H 0.61943 0.01961 4e-05 0.0
C5271 C 0.63839 0.98056 0.99139 0.0
C5272 C 0.63132 0.98308 0.00556 0.0
H5273 H 0.64361 0.98963 0.96928 0.0
H5274 H 0.64353 0.96964 0.98876 0.0
C5275 C 0.6248 0.99741 0.00858 0.0
C5276 C 0.75821 0.47969 0.61214 0.0
C5277 C 0.74409 0.4828 0.61907 0.0
H5278 H 0.78066 0.48789 0.60691 0.0
C5279 C 0.74158 0.49727 0.62547 0.0
H5280 H 0.76047 0.46863 0.60711 0.0
C5281 C 0.75312 0.50826 0.62538 0.0
C5282 C 0.7674 0.505 0.61887 0.0
H5283 H 0.73081 0.50002 0.63087 0.0
H5284 H 0.75093 0.5192 0.6307 0.0
C5285 C 0.76977 0.4907 0.61203 0.0
C5286 C 0.24613 0.98989 0.87342 0.0
C5287 C 0.23186 0.99319 0.87993 0.0
H5288 H 0.26842 0.99807 0.86781 0.0
C5289 C 0.22952 0.00754 0.88669 0.0
H5290 H 0.24829 0.97891 0.86817 0.0
C5291 C 0.24108 0.01854 0.8865 0.0
C5292 C 0.25518 0.01538 0.87955 0.0
H5293 H 0.21864 0.01039 0.89182 0.0
H5294 H 0.23885 0.02963 0.89147 0.0
C5295 C 0.25766 0.00086 0.87323 0.0
C5296 C 0.37957 0.49274 0.50634 0.0
C5297 C 0.36958 0.49452 0.51873 0.0
H5298 H 0.38769 0.50181 0.48517 0.0
C5299 C 0.35957 0.50705 0.51894 0.0
H5300 H 0.38738 0.48317 0.50585 0.0
C5301 C 0.35979 0.51776 0.50713 0.0
C5302 C 0.36994 0.51609 0.49484 0.0
H5303 H 0.35173 0.50871 0.52834 0.0
H5304 H 0.35212 0.52744 0.50771 0.0
C5305 C 0.37972 0.50339 0.49448 0.0
C5306 C 0.49135 0.61152 0.77001 0.0
C5307 C 0.50535 0.61882 0.76722 0.0
H5308 H 0.46902 0.60625 0.76152 0.0
C5309 C 0.50778 0.62585 0.75303 0.0
H5310 H 0.48916 0.60601 0.78084 0.0
C5311 C 0.4963 0.62599 0.74201 0.0
C5312 C 0.48213 0.6191 0.74495 0.0
H5313 H 0.51847 0.63153 0.75054 0.0
H5314 H 0.49844 0.63176 0.7313 0.0
C5315 C 0.47982 0.61167 0.75896 0.0
C5316 C 0.37444 0.50303 0.25634 0.0
C5317 C 0.38093 0.51739 0.25341 0.0
H5318 H 0.36913 0.48086 0.24768 0.0
C5319 C 0.38785 0.52005 0.2392 0.0
H5320 H 0.36906 0.50062 0.2672 0.0
C5321 C 0.38791 0.50869 0.22798 0.0
C5322 C 0.38103 0.49448 0.23079 0.0
H5323 H 0.39296 0.53101 0.23663 0.0
H5324 H 0.39304 0.51114 0.21701 0.0
C5325 C 0.37449 0.49171 0.24515 0.0
C5326 C 0.37496 0.74553 0.99135 0.0
C5327 C 0.38169 0.73126 0.99415 0.0
H5328 H 0.36925 0.76752 0.00023 0.0
C5329 C 0.3887 0.7286 0.00832 0.0
H5330 H 0.36951 0.74794 0.98053 0.0
C5331 C 0.38855 0.73986 0.01964 0.0
C5332 C 0.38139 0.75395 0.01698 0.0
H5333 H 0.39399 0.71771 0.01078 0.0
H5334 H 0.39373 0.73739 0.03058 0.0
C5335 C 0.37481 0.75675 0.00265 0.0
C5336 C 0.74177 0.75348 0.62391 0.0
C5337 C 0.7445 0.76779 0.63059 0.0
H5338 H 0.75074 0.73149 0.6183 0.0
C5339 C 0.75868 0.77056 0.63754 0.0
H5340 H 0.73094 0.75099 0.61849 0.0
C5341 C 0.77006 0.75935 0.63743 0.0
C5342 C 0.76744 0.7452 0.63037 0.0
H5343 H 0.7611 0.78148 0.64278 0.0
H5344 H 0.78099 0.76189 0.64259 0.0
C5345 C 0.75312 0.74231 0.6238 0.0
C5346 C 0.23973 0.22877 0.36052 0.0
C5347 C 0.25378 0.2315 0.36775 0.0
H5348 H 0.21754 0.23748 0.35504 0.0
C5349 C 0.25641 0.2458 0.37448 0.0
H5350 H 0.23739 0.21785 0.35523 0.0
C5351 C 0.24509 0.257 0.37437 0.0
C5352 C 0.23089 0.25414 0.36753 0.0
H5353 H 0.26713 0.24827 0.38011 0.0
H5354 H 0.24739 0.2678 0.37992 0.0
C5355 C 0.22838 0.24 0.36041 0.0
C5356 C 0.62992 0.49203 0.74228 0.0
C5357 C 0.61964 0.47984 0.74384 0.0
H5358 H 0.6384 0.51292 0.75167 0.0
C5359 C 0.60954 0.4797 0.75629 0.0
H5360 H 0.63781 0.49246 0.73278 0.0
C5361 C 0.60993 0.49138 0.76715 0.0
C5362 C 0.62034 0.50346 0.7657 0.0
H5363 H 0.60148 0.47045 0.75777 0.0
H5364 H 0.60217 0.49085 0.77676 0.0
C5365 C 0.63022 0.50376 0.75308 0.0
C5366 C 0.61 0.25658 0.98291 0.0
C5367 C 0.6234 0.24841 0.97966 0.0
H5368 H 0.59946 0.27411 0.9962 0.0
C5369 C 0.63676 0.25178 0.98786 0.0
H5370 H 0.59952 0.25423 0.97679 0.0
C5371 C 0.63672 0.26322 0.99901 0.0
C5372 C 0.62333 0.27146 0.00215 0.0
H5373 H 0.64726 0.24567 0.9856 0.0
H5374 H 0.64719 0.26565 0.00511 0.0
C5375 C 0.60997 0.26798 0.99403 0.0
C5376 C 0.99448 0.07587 0.41226 0.0
C5377 C 0.9895 0.08082 0.39788 0.0
H5378 H 0.00735 0.08083 0.43226 0.0
C5379 C 0.99398 0.09532 0.39265 0.0
H5380 H 0.99127 0.06477 0.41664 0.0
C5381 C 0.00323 0.10469 0.40177 0.0
C5382 C 0.00822 0.0996 0.41615 0.0
H5383 H 0.99027 0.09941 0.3816 0.0
H5384 H 0.00654 0.11583 0.39757 0.0
C5385 C 0.00375 0.0851 0.42124 0.0
C5386 C 0.88646 0.24364 0.6585 0.0
C5387 C 0.88826 0.25955 0.65806 0.0
H5388 H 0.89455 0.22199 0.65052 0.0
C5389 C 0.89855 0.26596 0.64758 0.0
H5390 H 0.87862 0.2384 0.66649 0.0
C5391 C 0.9075 0.25658 0.63829 0.0
C5392 C 0.9065 0.24064 0.63952 0.0
H5393 H 0.90012 0.2782 0.64698 0.0
H5394 H 0.91581 0.26182 0.63078 0.0
C5395 C 0.8956 0.23425 0.64939 0.0
C5396 C 0.75141 0.17528 0.91151 0.0
C5397 C 0.75832 0.16932 0.89836 0.0
H5398 H 0.73682 0.17134 0.93051 0.0
C5399 C 0.75524 0.15416 0.89412 0.0
H5400 H 0.75344 0.18695 0.91504 0.0
C5401 C 0.74565 0.14503 0.90318 0.0
C5402 C 0.73895 0.15104 0.91647 0.0
H5403 H 0.76043 0.1493 0.88402 0.0
H5404 H 0.7436 0.1333 0.89988 0.0
C5405 C 0.74183 0.1663 0.92039 0.0
C5406 C 0.84109 0.99302 0.13772 0.0
C5407 C 0.84115 0.00891 0.13976 0.0
H5408 H 0.84946 0.97144 0.14558 0.0
C5409 C 0.85133 0.0154 0.1503 0.0
H5410 H 0.83334 0.98773 0.12968 0.0
C5411 C 0.86071 0.00611 0.15923 0.0
C5412 C 0.85986 0.99016 0.15795 0.0
H5413 H 0.85165 0.02763 0.15205 0.0
H5414 H 0.86798 0.01139 0.16771 0.0
C5415 C 0.85028 0.98371 0.14683 0.0
C5416 C 0.00209 0.16148 0.8256 0.0
C5417 C 0.00809 0.14772 0.83114 0.0
H5418 H 0.98872 0.18125 0.83017 0.0
C5419 C 0.00476 0.14325 0.84618 0.0
H5420 H 0.00437 0.16522 0.81405 0.0
C5421 C 0.99577 0.1526 0.85558 0.0
C5422 C 0.98991 0.16645 0.84998 0.0
H5423 H 0.00928 0.13268 0.85073 0.0
H5424 H 0.99346 0.14905 0.86719 0.0
C5425 C 0.99308 0.17069 0.83487 0.0
C5426 C 0.84727 0.24446 0.10698 0.0
C5427 C 0.83326 0.23907 0.10131 0.0
H5428 H 0.86742 0.25773 0.1024 0.0
C5429 C 0.82886 0.24302 0.08643 0.0
H5430 H 0.85095 0.24156 0.11841 0.0
C5431 C 0.83812 0.25223 0.07743 0.0
C5432 C 0.85211 0.25767 0.08299 0.0
H5433 H 0.81815 0.23907 0.0817 0.0
H5434 H 0.83426 0.25506 0.06603 0.0
C5435 C 0.85669 0.25366 0.09783 0.0
C5436 C 0.75275 0.0762 0.33631 0.0
C5437 C 0.75785 0.08142 0.35056 0.0
H5438 H 0.74003 0.08094 0.31616 0.0
C5439 C 0.75372 0.09615 0.3554 0.0
H5440 H 0.7557 0.0649 0.33224 0.0
C5441 C 0.74471 0.1055 0.34601 0.0
C5442 C 0.73964 0.10016 0.33176 0.0
H5443 H 0.75752 0.10046 0.36633 0.0
H5444 H 0.74169 0.11683 0.34991 0.0
C5445 C 0.74374 0.08541 0.32707 0.0
C5446 C 0.89287 0.99484 0.59731 0.0
C5447 C 0.89728 0.99149 0.58224 0.0
H5448 H 0.89864 0.00643 0.61818 0.0
C5449 C 0.91087 0.99774 0.57654 0.0
H5450 H 0.88244 0.99015 0.60198 0.0
C5451 C 0.91996 0.00701 0.58565 0.0
C5452 C 0.9158 0.01022 0.60078 0.0
H5453 H 0.91455 0.99546 0.56497 0.0
H5454 H 0.93039 0.01154 0.58081 0.0
C5455 C 0.90213 0.00411 0.60656 0.0
C5456 C 0.41168 0.99631 0.07585 0.0
C5457 C 0.3977 0.99061 0.08119 0.0
H5458 H 0.43152 0.0095 0.08061 0.0
C5459 C 0.39296 0.99426 0.09607 0.0
H5460 H 0.41564 0.99377 0.06443 0.0
C5461 C 0.40223 0.0033 0.10551 0.0
C5462 C 0.41626 0.00889 0.1001 0.0
H5463 H 0.38223 0.98998 0.10047 0.0
H5464 H 0.39845 0.00588 0.11699 0.0
C5465 C 0.4208 0.00536 0.08516 0.0
C5466 C 0.00348 0.66384 0.32583 0.0
C5467 C 0.00793 0.64924 0.33066 0.0
H5468 H 0.99128 0.68421 0.33097 0.0
C5469 C 0.00325 0.64402 0.34509 0.0
H5470 H 0.00688 0.6682 0.31478 0.0
C5471 C 0.99427 0.65335 0.35452 0.0
C5472 C 0.98979 0.66793 0.34955 0.0
H5473 H 0.00655 0.63281 0.34909 0.0
H5474 H 0.99077 0.64914 0.36559 0.0
C5475 C 0.9945 0.67303 0.33513 0.0
C5476 C 0.34642 0.24575 0.6044 0.0
C5477 C 0.3324 0.24027 0.59883 0.0
H5478 H 0.36653 0.25899 0.59961 0.0
C5479 C 0.328 0.24393 0.58389 0.0
H5480 H 0.35009 0.24306 0.61588 0.0
C5481 C 0.33725 0.25299 0.57473 0.0
C5482 C 0.35122 0.25857 0.58021 0.0
H5483 H 0.31729 0.23989 0.57922 0.0
H5484 H 0.33339 0.25562 0.56328 0.0
C5485 C 0.35582 0.25481 0.59511 0.0
C5486 C 0.75456 0.5961 0.85514 0.0
C5487 C 0.75992 0.58204 0.84955 0.0
H5488 H 0.74147 0.61631 0.85039 0.0
C5489 C 0.75613 0.57764 0.83463 0.0
H5490 H 0.75734 0.59978 0.8666 0.0
C5491 C 0.74709 0.58695 0.8255 0.0
C5492 C 0.74166 0.60097 0.83099 0.0
H5493 H 0.76008 0.56689 0.82997 0.0
H5494 H 0.74437 0.5831 0.81408 0.0
C5495 C 0.74553 0.60555 0.84587 0.0
C5496 C 0.39311 0.25327 0.15149 0.0
C5497 C 0.39808 0.25757 0.16613 0.0
H5498 H 0.39836 0.24087 0.13096 0.0
C5499 C 0.41229 0.25236 0.17136 0.0
H5500 H 0.3822 0.25716 0.14719 0.0
C5501 C 0.42137 0.24309 0.16223 0.0
C5502 C 0.41656 0.23884 0.14756 0.0
H5503 H 0.41645 0.25541 0.18259 0.0
H5504 H 0.43225 0.23932 0.16671 0.0
C5505 C 0.40234 0.24401 0.14222 0.0
C5506 C 0.74559 0.66302 0.42274 0.0
C5507 C 0.7405 0.64875 0.41757 0.0
H5508 H 0.75841 0.6831 0.41795 0.0
C5509 C 0.74474 0.64378 0.40292 0.0
H5510 H 0.74256 0.66717 0.43398 0.0
C5511 C 0.75385 0.65306 0.39357 0.0
C5512 C 0.75892 0.66734 0.39885 0.0
H5513 H 0.74094 0.63282 0.39866 0.0
H5514 H 0.75696 0.64907 0.3823 0.0
C5515 C 0.75471 0.67216 0.41353 0.0
C5516 C 0.33564 0.99578 0.6737 0.0
C5517 C 0.34968 0.99025 0.66835 0.0
H5518 H 0.31593 0.00924 0.66924 0.0
C5519 C 0.35464 0.99447 0.65368 0.0
H5520 H 0.33151 0.99281 0.68496 0.0
C5521 C 0.34554 0.00394 0.6445 0.0
C5522 C 0.33147 0.00939 0.64996 0.0
H5523 H 0.36543 0.99035 0.64928 0.0
H5524 H 0.34949 0.00698 0.63319 0.0
C5525 C 0.3267 0.00525 0.66467 0.0
C5526 C 0.99507 0.59549 0.89406 0.0
C5527 C 0.99007 0.58117 0.89928 0.0
H5528 H 0.00791 0.61576 0.89921 0.0
C5529 C 0.99433 0.5763 0.91392 0.0
H5530 H 0.99191 0.59953 0.88281 0.0
C5531 C 0.00344 0.58544 0.92314 0.0
C5532 C 0.00846 0.59975 0.91804 0.0
H5533 H 0.99069 0.56533 0.91829 0.0
H5534 H 0.00651 0.58124 0.93435 0.0
C5535 C 0.00417 0.60477 0.90342 0.0
C5536 C 0.07795 0.41317 0.99384 0.0
C5537 C 0.08256 0.39834 0.98994 0.0
H5538 H 0.08311 0.4337 0.00578 0.0
C5539 C 0.09667 0.3929 0.99529 0.0
H5540 H 0.06715 0.41772 0.98991 0.0
C5541 C 0.10598 0.40222 0.00441 0.0
C5542 C 0.1012 0.417 0.00839 0.0
H5543 H 0.10051 0.38151 0.99242 0.0
H5544 H 0.1168 0.39782 0.00845 0.0
C5545 C 0.08711 0.42235 0.00298 0.0
C5546 C 0.5779 0.3354 0.25355 0.0
C5547 C 0.5828 0.35001 0.25788 0.0
H5548 H 0.58276 0.31502 0.24124 0.0
C5549 C 0.5971 0.35526 0.25283 0.0
H5550 H 0.56695 0.33101 0.25722 0.0
C5551 C 0.60633 0.34593 0.24363 0.0
C5552 C 0.60129 0.33133 0.23928 0.0
H5553 H 0.60115 0.36648 0.25603 0.0
H5554 H 0.61732 0.35015 0.23986 0.0
C5555 C 0.58699 0.32622 0.24435 0.0
C5556 C 0.67019 0.83531 0.4942 0.0
C5557 C 0.66554 0.85013 0.49031 0.0
H5558 H 0.66512 0.81479 0.50618 0.0
C5559 C 0.65144 0.85555 0.49571 0.0
H5560 H 0.68099 0.83078 0.49024 0.0
C5561 C 0.64218 0.84622 0.50488 0.0
C5562 C 0.64701 0.83145 0.50885 0.0
H5563 H 0.64757 0.86692 0.49284 0.0
H5564 H 0.63137 0.8506 0.50896 0.0
C5565 C 0.66109 0.82613 0.50338 0.0
C5566 C 0.17041 0.91284 0.755 0.0
C5567 C 0.16576 0.89803 0.75893 0.0
H5568 H 0.16534 0.93334 0.74298 0.0
C5569 C 0.15165 0.8926 0.75354 0.0
H5570 H 0.1812 0.91739 0.75896 0.0
C5571 C 0.1424 0.90191 0.74435 0.0
C5572 C 0.14723 0.91667 0.74035 0.0
H5573 H 0.14779 0.88123 0.75643 0.0
H5574 H 0.13159 0.89752 0.74028 0.0
C5575 C 0.16131 0.92201 0.7458 0.0
C5576 C 0.59674 0.3936 0.49495 0.0
C5577 C 0.58281 0.39921 0.48928 0.0
H5578 H 0.61669 0.39833 0.50846 0.0
C5579 C 0.57838 0.41415 0.49296 0.0
H5580 H 0.60043 0.38212 0.49226 0.0
C5581 C 0.58752 0.42327 0.50218 0.0
C5582 C 0.60141 0.41776 0.50792 0.0
H5583 H 0.56773 0.41885 0.48879 0.0
H5584 H 0.58364 0.43471 0.5048 0.0
C5585 C 0.60603 0.40286 0.50416 0.0
C5586 C 0.17134 0.83544 0.99437 0.0
C5587 C 0.16643 0.85007 0.9901 0.0
H5588 H 0.1665 0.81503 0.00664 0.0
C5589 C 0.15214 0.8553 0.99519 0.0
H5590 H 0.18228 0.83106 0.99067 0.0
C5591 C 0.14292 0.84595 0.00438 0.0
C5592 C 0.14798 0.83134 0.00868 0.0
H5593 H 0.14808 0.86653 0.99204 0.0
H5594 H 0.13195 0.85016 0.00818 0.0
C5595 C 0.16227 0.82623 0.00357 0.0
C5596 C 0.66293 0.92172 0.24494 0.0
C5597 C 0.64828 0.91684 0.24068 0.0
H5598 H 0.68335 0.91682 0.25717 0.0
C5599 C 0.64307 0.90252 0.2457 0.0
H5600 H 0.6673 0.93269 0.24129 0.0
C5601 C 0.65243 0.89326 0.25482 0.0
C5602 C 0.66704 0.8983 0.25913 0.0
H5603 H 0.63183 0.89848 0.24254 0.0
H5604 H 0.64822 0.88228 0.25858 0.0
C5605 C 0.67215 0.91261 0.25408 0.0
C5606 C 0.09597 0.35502 0.75446 0.0
C5607 C 0.08178 0.34964 0.75965 0.0
H5608 H 0.11619 0.35005 0.74146 0.0
C5609 C 0.0771 0.33487 0.7556 0.0
H5610 H 0.09986 0.36636 0.75745 0.0
C5611 C 0.08629 0.32569 0.7465 0.0
C5612 C 0.10047 0.33096 0.74127 0.0
H5613 H 0.06623 0.33037 0.7594 0.0
H5614 H 0.08224 0.31438 0.74358 0.0
C5615 C 0.10531 0.3457 0.74537 0.0
C5616 C 0.00305 0.90319 0.60521 0.0
C5617 C 0.00884 0.91707 0.59964 0.0
H5618 H 0.98962 0.88322 0.60032 0.0
C5619 C 0.00558 0.92138 0.58457 0.0
H5620 H 0.00543 0.89959 0.61679 0.0
C5621 C 0.9966 0.91217 0.5753 0.0
C5622 C 0.99069 0.89834 0.58079 0.0
H5623 H 0.00988 0.93198 0.5799 0.0
H5624 H 0.99427 0.91595 0.56376 0.0
C5625 C 0.99406 0.89383 0.59581 0.0
C5626 C 0.08734 0.74461 0.32655 0.0
C5627 C 0.10154 0.73932 0.33173 0.0
H5628 H 0.06742 0.75768 0.3313 0.0
C5629 C 0.10653 0.74351 0.34639 0.0
H5630 H 0.08316 0.74163 0.3153 0.0
C5631 C 0.09733 0.75274 0.35573 0.0
C5632 C 0.08313 0.75799 0.35043 0.0
H5633 H 0.11743 0.73957 0.35066 0.0
H5634 H 0.10134 0.7558 0.36701 0.0
C5635 C 0.0783 0.75385 0.33574 0.0
C5636 C 0.24511 0.84581 0.10532 0.0
C5637 C 0.23981 0.83165 0.09993 0.0
H5638 H 0.25824 0.86595 0.10033 0.0
C5639 C 0.24377 0.82698 0.08514 0.0
H5640 H 0.2422 0.84969 0.11668 0.0
C5641 C 0.2529 0.83611 0.07594 0.0
C5642 C 0.25826 0.85025 0.08122 0.0
H5643 H 0.23989 0.81614 0.08063 0.0
H5644 H 0.25575 0.83206 0.06461 0.0
C5645 C 0.25424 0.8551 0.09598 0.0
C5646 C 0.16249 0.00278 0.82617 0.0
C5647 C 0.14831 0.00802 0.83143 0.0
H5648 H 0.18249 0.98978 0.83084 0.0
C5649 C 0.14342 0.00387 0.84614 0.0
H5650 H 0.16659 0.00573 0.81489 0.0
C5651 C 0.1527 0.99471 0.85544 0.0
C5652 C 0.16689 0.98948 0.85006 0.0
H5653 H 0.13253 0.00779 0.85047 0.0
H5654 H 0.14877 0.99167 0.86675 0.0
C5655 C 0.17162 0.99359 0.83533 0.0
C5656 C 0.99578 0.85433 0.1534 0.0
C5657 C 0.99081 0.84909 0.16772 0.0
H5658 H 0.00854 0.84919 0.13307 0.0
C5659 C 0.995 0.8344 0.17252 0.0
H5660 H 0.99268 0.8656 0.14941 0.0
C5661 C 0.00403 0.82516 0.16332 0.0
C5662 C 0.00904 0.8303 0.14901 0.0
H5663 H 0.99137 0.83001 0.18349 0.0
H5664 H 0.00705 0.81392 0.16747 0.0
C5665 C 0.0048 0.84495 0.14406 0.0
C5666 C 0.17109 0.75449 0.91343 0.0
C5667 C 0.16628 0.75862 0.89873 0.0
H5668 H 0.1662 0.74223 0.93383 0.0
C5669 C 0.15211 0.75333 0.89338 0.0
H5670 H 0.18194 0.75835 0.9179 0.0
C5671 C 0.14292 0.74406 0.90267 0.0
C5672 C 0.14789 0.73987 0.91733 0.0
H5673 H 0.14813 0.75638 0.88209 0.0
H5674 H 0.13205 0.74008 0.89835 0.0
C5675 C 0.16205 0.7452 0.92257 0.0
C5676 C 0.25403 0.91282 0.67178 0.0
C5677 C 0.25812 0.89813 0.66688 0.0
H5678 H 0.24208 0.93341 0.6669 0.0
C5679 C 0.25306 0.89301 0.65254 0.0
H5680 H 0.25773 0.91713 0.68275 0.0
C5681 C 0.24407 0.9025 0.64329 0.0
C5682 C 0.23993 0.91715 0.64835 0.0
H5683 H 0.25609 0.88174 0.64848 0.0
H5684 H 0.24026 0.89835 0.63229 0.0
C5685 C 0.24502 0.92217 0.66267 0.0
C5686 C 0.1058 0.00421 0.40247 0.0
C5687 C 0.10091 0.00839 0.41716 0.0
H5688 H 0.10044 0.99199 0.38187 0.0
C5689 C 0.08672 0.00317 0.42243 0.0
H5690 H 0.11669 0.00811 0.39813 0.0
C5691 C 0.07758 0.99399 0.41328 0.0
C5692 C 0.08232 0.98985 0.39855 0.0
H5693 H 0.08263 0.00614 0.4337 0.0
H5694 H 0.06671 0.99019 0.41777 0.0
C5695 C 0.09652 0.99504 0.39317 0.0
C5696 C 0.58823 0.00162 0.92488 0.0
C5697 C 0.60132 0.00867 0.91894 0.0
H5698 H 0.56925 0.98705 0.92081 0.0
C5699 C 0.60546 0.00586 0.9037 0.0
H5700 H 0.58478 0.00345 0.9366 0.0
C5701 C 0.59637 0.9964 0.89448 0.0
C5702 C 0.58315 0.98956 0.90047 0.0
H5703 H 0.61551 0.01116 0.89885 0.0
H5704 H 0.5996 0.99455 0.8827 0.0
C5705 C 0.57932 0.99217 0.9158 0.0
C5706 C 0.99415 0.33411 0.67362 0.0
C5707 C 0.98927 0.34847 0.66849 0.0
H5708 H 0.00693 0.314 0.66895 0.0
C5709 C 0.99386 0.35353 0.65397 0.0
H5710 H 0.99085 0.32987 0.68475 0.0
C5711 C 0.00313 0.34426 0.64475 0.0
C5712 C 0.008 0.32991 0.65002 0.0
H5713 H 0.99024 0.36456 0.64974 0.0
H5714 H 0.00652 0.34833 0.63359 0.0
C5715 C 0.00342 0.325 0.66455 0.0
C5716 C 0.6521 0.75381 0.39373 0.0
C5717 C 0.66619 0.7592 0.39919 0.0
H5718 H 0.63202 0.74055 0.39859 0.0
C5719 C 0.67079 0.75529 0.41403 0.0
H5720 H 0.64828 0.75668 0.38234 0.0
C5721 C 0.66165 0.74611 0.42317 0.0
C5722 C 0.64759 0.74065 0.4178 0.0
H5723 H 0.68157 0.75925 0.4186 0.0
H5724 H 0.66564 0.7433 0.43452 0.0
C5725 C 0.64281 0.74463 0.40301 0.0
C5726 C 0.25511 0.41305 0.17188 0.0
C5727 C 0.25935 0.39836 0.16713 0.0
H5728 H 0.24304 0.4335 0.16673 0.0
C5729 C 0.25443 0.39306 0.1528 0.0
H5730 H 0.25869 0.41748 0.18285 0.0
C5731 C 0.24543 0.40241 0.1434 0.0
C5732 C 0.24116 0.41708 0.1483 0.0
H5733 H 0.25757 0.38178 0.14886 0.0
H5734 H 0.24174 0.39814 0.13241 0.0
C5735 C 0.2461 0.42225 0.16262 0.0
C5736 C 0.57903 0.75657 0.8359 0.0
C5737 C 0.58343 0.76008 0.85089 0.0
H5738 H 0.58435 0.74495 0.81523 0.0
C5739 C 0.59737 0.75441 0.85645 0.0
H5740 H 0.56838 0.76076 0.83125 0.0
C5741 C 0.6067 0.74533 0.84711 0.0
C5742 C 0.6021 0.7417 0.83218 0.0
H5743 H 0.60104 0.75698 0.86796 0.0
H5744 H 0.61736 0.74101 0.85161 0.0
C5745 C 0.5882 0.74747 0.8267 0.0
C5746 C 0.25335 0.35467 0.59599 0.0
C5747 C 0.25737 0.34974 0.58126 0.0
H5748 H 0.24115 0.34947 0.61664 0.0
C5749 C 0.25184 0.33567 0.57597 0.0
H5750 H 0.25748 0.36547 0.60034 0.0
C5751 C 0.24253 0.32669 0.58513 0.0
C5752 C 0.23858 0.33145 0.5999 0.0
H5753 H 0.25468 0.33157 0.56466 0.0
H5754 H 0.23852 0.3159 0.58063 0.0
C5755 C 0.24406 0.34553 0.6053 0.0
C5756 C 0.64254 0.00455 0.34674 0.0
C5757 C 0.64782 0.00918 0.33232 0.0
H5758 H 0.64744 0.99185 0.36717 0.0
C5759 C 0.66228 0.00438 0.3274 0.0
H5760 H 0.63143 0.00811 0.35081 0.0
C5761 C 0.67128 0.99511 0.3366 0.0
C5762 C 0.66613 0.99047 0.35103 0.0
H5763 H 0.66669 0.00772 0.31635 0.0
H5764 H 0.68236 0.99163 0.33237 0.0
C5765 C 0.65169 0.99529 0.35609 0.0
C5766 C 0.00396 0.42333 0.08691 0.0
C5767 C 0.00931 0.41821 0.10111 0.0
H5768 H 0.99096 0.41841 0.06699 0.0
C5769 C 0.00531 0.4035 0.1061 0.0
H5770 H 0.00679 0.43461 0.08273 0.0
C5771 C 0.9962 0.39405 0.09691 0.0
C5772 C 0.99088 0.39928 0.0827 0.0
H5773 H 0.0093 0.39927 0.117 0.0
H5774 H 0.99328 0.38273 0.10091 0.0
C5775 C 0.99484 0.41402 0.07786 0.0
C5776 C 0.90198 0.60515 0.00387 0.0
C5777 C 0.91626 0.59992 0.00897 0.0
H5778 H 0.88181 0.60002 0.99086 0.0
C5779 C 0.92116 0.58527 0.00472 0.0
H5780 H 0.89793 0.61639 0.00701 0.0
C5781 C 0.9121 0.57606 0.99552 0.0
C5782 C 0.89782 0.58118 0.99039 0.0
H5783 H 0.9321 0.58089 0.00845 0.0
H5784 H 0.91631 0.56486 0.99246 0.0
C5785 C 0.89277 0.5958 0.99468 0.0
C5786 C 0.39383 0.65362 0.75521 0.0
C5787 C 0.39876 0.66828 0.75947 0.0
H5788 H 0.39918 0.63304 0.74295 0.0
C5789 C 0.41303 0.67348 0.7544 0.0
H5790 H 0.38288 0.64934 0.75898 0.0
C5791 C 0.42221 0.66431 0.74527 0.0
C5792 C 0.41742 0.64963 0.74104 0.0
H5793 H 0.41716 0.68473 0.75744 0.0
H5794 H 0.43314 0.66875 0.74159 0.0
C5795 C 0.40315 0.64431 0.74609 0.0
C5796 C 0.33685 0.17195 0.49598 0.0
C5797 C 0.3509 0.16657 0.49049 0.0
H5798 H 0.31696 0.16741 0.50917 0.0
C5799 C 0.35568 0.15178 0.49448 0.0
H5800 H 0.33285 0.1833 0.49317 0.0
C5801 C 0.3464 0.1425 0.50368 0.0
C5802 C 0.33233 0.14798 0.5091 0.0
H5803 H 0.36646 0.14736 0.49037 0.0
H5804 H 0.35023 0.13112 0.50656 0.0
C5805 C 0.32773 0.16282 0.50519 0.0
C5806 C 0.82664 0.08323 0.24325 0.0
C5807 C 0.83143 0.09792 0.23908 0.0
H5808 H 0.8315 0.06289 0.25561 0.0
C5809 C 0.84558 0.10332 0.24438 0.0
H5810 H 0.81581 0.07871 0.23937 0.0
C5811 C 0.85474 0.09408 0.25374 0.0
C5812 C 0.84977 0.07943 0.25799 0.0
H5813 H 0.84954 0.11461 0.24131 0.0
H5814 H 0.86559 0.09843 0.25775 0.0
C5815 C 0.83565 0.07414 0.25261 0.0
C5816 C 0.41239 0.57446 0.49563 0.0
C5817 C 0.39843 0.5798 0.48991 0.0
H5818 H 0.43201 0.57902 0.50919 0.0
C5819 C 0.39351 0.59456 0.49387 0.0
H5820 H 0.4165 0.56314 0.49287 0.0
C5821 C 0.40258 0.60384 0.50329 0.0
C5822 C 0.41658 0.59839 0.50894 0.0
H5823 H 0.38278 0.59894 0.4896 0.0
H5824 H 0.39867 0.61521 0.50614 0.0
C5825 C 0.4213 0.58359 0.50505 0.0
C5826 C 0.85678 0.15267 0.99498 0.0
C5827 C 0.85254 0.16778 0.99166 0.0
H5828 H 0.85058 0.13173 0.00617 0.0
C5829 C 0.83879 0.17349 0.99753 0.0
H5830 H 0.86732 0.14799 0.99056 0.0
C5831 C 0.82937 0.16434 0.00641 0.0
C5832 C 0.83338 0.14917 0.00959 0.0
H5833 H 0.83523 0.18511 0.99524 0.0
H5834 H 0.81882 0.16917 0.01069 0.0
C5835 C 0.84721 0.14338 0.00385 0.0
C5836 C 0.3501 0.09652 0.73161 0.0
C5837 C 0.34123 0.1082 0.73806 0.0
H5838 H 0.36576 0.07825 0.73558 0.0
C5839 C 0.34256 0.1113 0.75372 0.0
H5840 H 0.34935 0.09396 0.71955 0.0
C5841 C 0.3518 0.10215 0.76296 0.0
C5842 C 0.36004 0.08993 0.75662 0.0
H5843 H 0.33581 0.12023 0.75896 0.0
H5844 H 0.35203 0.10425 0.77514 0.0
C5845 C 0.35953 0.08756 0.74079 0.0
C5846 C 0.91144 0.67268 0.2525 0.0
C5847 C 0.89731 0.6675 0.25794 0.0
H5848 H 0.93124 0.66789 0.23925 0.0
C5849 C 0.89228 0.65282 0.25386 0.0
H5850 H 0.91563 0.68394 0.25539 0.0
C5851 C 0.90138 0.64346 0.24458 0.0
C5852 C 0.91553 0.64875 0.23917 0.0
H5853 H 0.88142 0.64855 0.25793 0.0
H5854 H 0.89735 0.63216 0.24161 0.0
C5855 C 0.9204 0.66346 0.2432 0.0
C5856 C 0.90151 0.74568 0.14295 0.0
C5857 C 0.91565 0.74028 0.14828 0.0
H5858 H 0.8815 0.75899 0.14801 0.0
C5859 C 0.92044 0.74427 0.16303 0.0
H5860 H 0.89754 0.74274 0.13163 0.0
C5861 C 0.91142 0.75352 0.17224 0.0
C5862 C 0.8973 0.75896 0.16703 0.0
H5863 H 0.93126 0.74032 0.1675 0.0
H5864 H 0.91557 0.75638 0.18353 0.0
C5865 C 0.89234 0.75492 0.15231 0.0
C5866 C 0.84689 0.50381 0.64364 0.0
C5867 C 0.83222 0.50808 0.64855 0.0
H5868 H 0.86748 0.49155 0.64902 0.0
C5869 C 0.82696 0.5029 0.66275 0.0
H5870 H 0.85123 0.50767 0.63274 0.0
C5871 C 0.8361 0.49373 0.67191 0.0
C5872 C 0.85082 0.48954 0.66718 0.0
H5873 H 0.8157 0.50593 0.66686 0.0
H5874 H 0.8316 0.49 0.6828 0.0
C5875 C 0.85618 0.49465 0.65295 0.0
C5876 C 0.83632 0.75341 0.5757 0.0
C5877 C 0.85046 0.75879 0.58095 0.0
H5878 H 0.81636 0.74039 0.58045 0.0
C5879 C 0.85531 0.75484 0.59571 0.0
H5880 H 0.83226 0.7562 0.56437 0.0
C5881 C 0.84604 0.74574 0.60509 0.0
C5882 C 0.83189 0.74041 0.59974 0.0
H5883 H 0.86616 0.75887 0.60004 0.0
H5884 H 0.84994 0.74287 0.61646 0.0
C5885 C 0.8272 0.74431 0.58494 0.0
C5886 C 0.92047 0.50431 0.08516 0.0
C5887 C 0.91577 0.50817 0.09997 0.0
H5888 H 0.91553 0.49232 0.06462 0.0
C5889 C 0.9017 0.50265 0.10537 0.0
H5890 H 0.93124 0.50837 0.08064 0.0
C5891 C 0.89252 0.49341 0.09602 0.0
C5892 C 0.8974 0.4895 0.08124 0.0
H5893 H 0.89779 0.50548 0.11674 0.0
H5894 H 0.88174 0.48925 0.10038 0.0
C5895 C 0.91145 0.49507 0.07596 0.0
C5896 C 0.39592 0.51582 0.59878 0.0
C5897 C 0.40645 0.50946 0.60905 0.0
H5898 H 0.3793 0.51161 0.58138 0.0
C5899 C 0.40716 0.49353 0.61064 0.0
H5900 H 0.39511 0.52807 0.59738 0.0
C5901 C 0.39828 0.48411 0.60133 0.0
C5902 C 0.38837 0.49047 0.59046 0.0
H5903 H 0.41518 0.48833 0.61846 0.0
H5904 H 0.39962 0.47186 0.60223 0.0
C5905 C 0.38686 0.5064 0.58965 0.0
C5906 C 0.3277 0.74304 0.08493 0.0
C5907 C 0.33227 0.7392 0.09978 0.0
H5908 H 0.33285 0.75498 0.0644 0.0
C5909 C 0.34634 0.74465 0.10526 0.0
H5910 H 0.31694 0.73904 0.08034 0.0
C5911 C 0.35562 0.75382 0.09596 0.0
C5912 C 0.35087 0.75774 0.08115 0.0
H5913 H 0.35014 0.74182 0.11667 0.0
H5914 H 0.36639 0.75794 0.10039 0.0
C5915 C 0.33684 0.75222 0.07577 0.0
C5916 C 0.39272 0.75361 0.65177 0.0
C5917 C 0.39779 0.75817 0.66629 0.0
H5918 H 0.39792 0.74106 0.63131 0.0
C5919 C 0.41217 0.7533 0.67138 0.0
H5920 H 0.38168 0.75723 0.64757 0.0
C5921 C 0.4213 0.74409 0.66224 0.0
C5922 C 0.41637 0.73956 0.64769 0.0
H5923 H 0.41642 0.75657 0.68251 0.0
H5924 H 0.43232 0.74058 0.66661 0.0
C5925 C 0.402 0.74442 0.64247 0.0
C5926 C 0.32764 0.50366 0.16238 0.0
C5927 C 0.33274 0.50833 0.14794 0.0
H5928 H 0.33231 0.49103 0.18259 0.0
C5929 C 0.34717 0.50354 0.14283 0.0
H5930 H 0.31657 0.50712 0.16665 0.0
C5931 C 0.35636 0.49428 0.15214 0.0
C5932 C 0.35113 0.48961 0.16657 0.0
H5933 H 0.35138 0.507 0.13174 0.0
H5934 H 0.36746 0.49073 0.14803 0.0
C5935 C 0.33668 0.49439 0.17153 0.0
C5936 C 0.0861 0.9222 0.50366 0.0
C5937 C 0.10042 0.91718 0.50875 0.0
H5938 H 0.06614 0.91729 0.4907 0.0
C5939 C 0.10557 0.90262 0.5044 0.0
H5940 H 0.08179 0.93337 0.50677 0.0
C5941 C 0.09644 0.89325 0.49515 0.0
C5942 C 0.08212 0.8984 0.49006 0.0
H5943 H 0.11657 0.89846 0.50819 0.0
H5944 H 0.10058 0.88206 0.49195 0.0
C5945 C 0.07711 0.91298 0.4944 0.0
C5946 C 0.59579 0.85671 0.75467 0.0
C5947 C 0.58186 0.85108 0.76032 0.0
H5948 H 0.61573 0.85205 0.74112 0.0
C5949 C 0.57743 0.83615 0.75659 0.0
H5950 H 0.59949 0.86818 0.7574 0.0
C5951 C 0.58656 0.82708 0.74732 0.0
C5952 C 0.60044 0.83261 0.74159 0.0
H5953 H 0.56679 0.83144 0.76075 0.0
H5954 H 0.58268 0.81565 0.74465 0.0
C5955 C 0.60507 0.8475 0.7454 0.0
C5956 C 0.64634 0.35139 0.98281 0.0
C5957 C 0.65771 0.3608 0.98908 0.0
H5958 H 0.62908 0.33461 0.98716 0.0
C5959 C 0.65898 0.3619 0.00502 0.0
H5960 H 0.64508 0.35036 0.97057 0.0
C5961 C 0.64996 0.35281 0.01447 0.0
C5962 C 0.63937 0.34257 0.00818 0.0
H5963 H 0.66759 0.3691 0.0102 0.0
H5964 H 0.65181 0.35325 0.02668 0.0
C5965 C 0.63717 0.3424 0.9923 0.0
C5966 C 0.17188 0.41529 0.25606 0.0
C5967 C 0.16724 0.40042 0.25978 0.0
H5968 H 0.16695 0.43585 0.24411 0.0
C5969 C 0.15324 0.39498 0.25413 0.0
H5970 H 0.18259 0.41985 0.26022 0.0
C5971 C 0.14411 0.40432 0.24484 0.0
C5972 C 0.14896 0.41913 0.24102 0.0
H5973 H 0.14938 0.38357 0.25685 0.0
H5974 H 0.1334 0.39993 0.24053 0.0
C5975 C 0.16291 0.42448 0.24677 0.0
C5976 C 0.58721 0.92332 0.00367 0.0
C5977 C 0.60134 0.91816 0.00915 0.0
H5978 H 0.56732 0.91841 0.9906 0.0
C5979 C 0.60628 0.90339 0.00528 0.0
H5980 H 0.58308 0.93464 0.0064 0.0
C5981 C 0.59708 0.89391 0.99619 0.0
C5982 C 0.58292 0.89917 0.99077 0.0
H5983 H 0.61712 0.89912 0.00937 0.0
H5984 H 0.60103 0.88255 0.9934 0.0
C5985 C 0.57816 0.91399 0.99458 0.0
C5986 C 0.14154 0.34472 0.50462 0.0
C5987 C 0.14664 0.33022 0.50921 0.0
H5988 H 0.14669 0.36514 0.492 0.0
C5989 C 0.16104 0.32516 0.50437 0.0
H5990 H 0.13048 0.34891 0.50821 0.0
C5991 C 0.17016 0.33429 0.49514 0.0
C5992 C 0.16519 0.3488 0.49056 0.0
H5993 H 0.16532 0.31404 0.50767 0.0
H5994 H 0.18119 0.32993 0.49165 0.0
C5995 C 0.1508 0.354 0.4954 0.0
C5996 C 0.65605 0.38803 0.74266 0.0
C5997 C 0.65581 0.39009 0.75854 0.0
H5998 H 0.64801 0.39593 0.72097 0.0
C5999 C 0.64559 0.40067 0.7649 0.0
H6000 H 0.66384 0.37996 0.73747 0.0
C6001 C 0.63636 0.40964 0.75548 0.0
C6002 C 0.63742 0.40836 0.73955 0.0
H6003 H 0.64513 0.40244 0.77712 0.0
H6004 H 0.62907 0.41817 0.76066 0.0
C6005 C 0.64702 0.39719 0.73323 0.0
C6006 C 0.10645 0.84552 0.24505 0.0
C6007 C 0.10145 0.83085 0.24088 0.0
H6008 H 0.10128 0.86615 0.2573 0.0
C6009 C 0.08726 0.82567 0.24618 0.0
H6010 H 0.11735 0.84979 0.24109 0.0
C6011 C 0.07822 0.83488 0.25542 0.0
C6012 C 0.08306 0.84958 0.25953 0.0
H6013 H 0.08308 0.81442 0.24323 0.0
H6014 H 0.06734 0.83045 0.25926 0.0
C6015 C 0.09727 0.85487 0.25427 0.0
C6016 C 0.09799 0.25276 0.85635 0.0
C6017 C 0.08449 0.25919 0.85053 0.0
H6018 H 0.11746 0.23849 0.85177 0.0
C6019 C 0.08044 0.25629 0.83531 0.0
H6020 H 0.1014 0.25484 0.86804 0.0
C6021 C 0.08945 0.24698 0.82617 0.0
C6022 C 0.10285 0.24038 0.83192 0.0
H6023 H 0.07014 0.26109 0.83044 0.0
H6024 H 0.08584 0.24493 0.81452 0.0
C6025 C 0.10717 0.24345 0.84706 0.0
C6026 C 0.15632 0.50419 0.36161 0.0
C6027 C 0.15771 0.4886 0.35821 0.0
H6028 H 0.14666 0.52568 0.355 0.0
C6029 C 0.14879 0.48231 0.3465 0.0
H6030 H 0.1631 0.50932 0.37058 0.0
C6031 C 0.13921 0.49158 0.33779 0.0
C6032 C 0.13862 0.50737 0.34045 0.0
H6033 H 0.14959 0.47029 0.34372 0.0
H6034 H 0.13294 0.4865 0.32844 0.0
C6035 C 0.14694 0.51354 0.35269 0.0
C6036 C 0.15203 0.25354 0.39229 0.0
C6037 C 0.16639 0.25846 0.39749 0.0
H6038 H 0.13172 0.24074 0.39746 0.0
C6039 C 0.1713 0.25407 0.41208 0.0
H6040 H 0.14796 0.25679 0.38109 0.0
C6041 C 0.16217 0.24494 0.42129 0.0
C6042 C 0.1478 0.24001 0.41623 0.0
H6043 H 0.1823 0.25764 0.41644 0.0
H6044 H 0.1664 0.24179 0.43246 0.0
C6045 C 0.14275 0.24441 0.40165 0.0
C6046 C 0.07777 0.49326 0.91371 0.0
C6047 C 0.08239 0.48922 0.89892 0.0
H6048 H 0.0829 0.50542 0.93412 0.0
C6049 C 0.09649 0.49454 0.89343 0.0
H6050 H 0.06698 0.48937 0.9183 0.0
C6051 C 0.10579 0.50377 0.90265 0.0
C6052 C 0.101 0.50789 0.9174 0.0
H6053 H 0.10033 0.49156 0.88207 0.0
H6054 H 0.1166 0.50779 0.89822 0.0
C6055 C 0.08691 0.50251 0.9228 0.0
C6056 C 0.59713 0.49507 0.39235 0.0
C6057 C 0.58284 0.48997 0.39756 0.0
H6058 H 0.61732 0.50805 0.39753 0.0
C6059 C 0.57794 0.49418 0.41221 0.0
H6060 H 0.60119 0.49196 0.38111 0.0
C6061 C 0.58701 0.50335 0.42146 0.0
C6062 C 0.60129 0.50848 0.41636 0.0
H6063 H 0.56699 0.49047 0.41658 0.0
H6064 H 0.58279 0.50637 0.43267 0.0
C6065 C 0.60635 0.50423 0.40174 0.0
C6066 C 0.63797 0.25658 0.90774 0.0
C6067 C 0.6403 0.24074 0.90837 0.0
H6068 H 0.64584 0.27797 0.89886 0.0
C6069 C 0.65113 0.23404 0.89866 0.0
H6070 H 0.62966 0.26203 0.91509 0.0
C6071 C 0.66028 0.24311 0.88933 0.0
C6072 C 0.65886 0.25906 0.88963 0.0
H6073 H 0.65307 0.22184 0.89883 0.0
H6074 H 0.66907 0.23766 0.88256 0.0
C6075 C 0.64723 0.2657 0.89846 0.0
C6076 C 0.60598 0.24529 0.34609 0.0
C6077 C 0.6007 0.24025 0.3318 0.0
H6078 H 0.60092 0.25821 0.36634 0.0
C6079 C 0.58604 0.24453 0.32697 0.0
H6080 H 0.61723 0.24212 0.35009 0.0
C6081 C 0.57687 0.2537 0.33611 0.0
C6082 C 0.58203 0.25876 0.3504 0.0
H6083 H 0.58162 0.24087 0.31603 0.0
H6084 H 0.56565 0.25678 0.33195 0.0
C6085 C 0.59666 0.25444 0.35538 0.0
C6086 C 0.6446 0.50405 0.84431 0.0
C6087 C 0.64938 0.50786 0.82947 0.0
H6088 H 0.64997 0.49205 0.86504 0.0
C6089 C 0.66328 0.50207 0.82404 0.0
H6090 H 0.63392 0.50839 0.84876 0.0
C6091 C 0.67229 0.49278 0.83319 0.0
C6092 C 0.66772 0.48908 0.84808 0.0
H6093 H 0.66727 0.50471 0.81265 0.0
H6094 H 0.68296 0.48859 0.82856 0.0
C6095 C 0.65376 0.49476 0.8536 0.0
C6096 C 0.91209 0.07583 0.49546 0.0
C6097 C 0.89787 0.08113 0.49036 0.0
H6098 H 0.93226 0.08046 0.5082 0.0
C6099 C 0.89307 0.09585 0.49456 0.0
H6100 H 0.91612 0.06453 0.49247 0.0
C6101 C 0.90248 0.10513 0.5036 0.0
C6102 C 0.91672 0.09974 0.50865 0.0
H6103 H 0.88215 0.10021 0.49076 0.0
H6104 H 0.89862 0.11647 0.50665 0.0
C6105 C 0.92136 0.08498 0.50452 0.0
C6106 C 0.40243 0.143 0.24497 0.0
C6107 C 0.41658 0.14835 0.23963 0.0
H6108 H 0.38234 0.14803 0.25817 0.0
C6109 C 0.42132 0.16312 0.24362 0.0
H6110 H 0.3985 0.13166 0.24204 0.0
C6111 C 0.41224 0.17232 0.25281 0.0
C6112 C 0.3981 0.16708 0.25819 0.0
H6113 H 0.43216 0.1676 0.23971 0.0
H6114 H 0.41634 0.18363 0.25567 0.0
C6115 C 0.3932 0.15235 0.25415 0.0
C6116 C 0.32847 0.66333 0.00474 0.0
C6117 C 0.33306 0.64848 0.00861 0.0
H6118 H 0.33363 0.68384 0.99278 0.0
C6119 C 0.34714 0.64301 0.0032 0.0
H6120 H 0.3177 0.66791 0.00872 0.0
C6121 C 0.35643 0.6523 0.99403 0.0
C6122 C 0.35167 0.6671 0.99008 0.0
H6123 H 0.35095 0.63161 0.00604 0.0
H6124 H 0.36721 0.64787 0.98993 0.0
C6125 C 0.33762 0.67248 0.99556 0.0
C6126 C 0.84776 0.60613 0.74449 0.0
C6127 C 0.83287 0.60153 0.74068 0.0
H6128 H 0.86847 0.60046 0.75639 0.0
C6129 C 0.82733 0.58761 0.74633 0.0
H6130 H 0.8523 0.61681 0.74026 0.0
C6131 C 0.83643 0.57842 0.75551 0.0
C6132 C 0.85137 0.58282 0.75923 0.0
H6133 H 0.8159 0.58375 0.74367 0.0
H6134 H 0.83173 0.56775 0.75961 0.0
C6135 C 0.85699 0.59678 0.75367 0.0
C6136 C 0.42105 0.08302 0.0061 0.0
C6137 C 0.41704 0.09827 0.00886 0.0
H6138 H 0.41575 0.06223 0.99473 0.0
C6139 C 0.40373 0.10417 0.0021 0.0
H6140 H 0.4312 0.07808 0.01114 0.0
C6141 C 0.39469 0.09492 0.99263 0.0
C6142 C 0.39897 0.07973 0.98973 0.0
H6143 H 0.40037 0.1159 0.00407 0.0
H6144 H 0.38455 0.09968 0.98743 0.0
C6145 C 0.41218 0.0739 0.99664 0.0
C6146 C 0.85578 0.65231 0.49472 0.0
C6147 C 0.8507 0.66681 0.49012 0.0
H6148 H 0.8506 0.63192 0.50737 0.0
C6149 C 0.83633 0.67194 0.49499 0.0
H6150 H 0.86681 0.64808 0.49109 0.0
C6151 C 0.82722 0.66285 0.50427 0.0
C6152 C 0.83216 0.64833 0.50885 0.0
H6153 H 0.83208 0.68306 0.49169 0.0
H6154 H 0.81622 0.66724 0.5078 0.0
C6155 C 0.84652 0.64307 0.50398 0.0
C6156 C 0.3557 0.59602 0.25343 0.0
C6157 C 0.35039 0.5818 0.25863 0.0
H6158 H 0.35064 0.61619 0.24039 0.0
C6159 C 0.33564 0.57705 0.25458 0.0
H6160 H 0.36702 0.59996 0.25641 0.0
C6161 C 0.32642 0.58618 0.24545 0.0
C6162 C 0.33164 0.60037 0.2402 0.0
H6163 H 0.33119 0.56617 0.25839 0.0
H6164 H 0.31514 0.58206 0.24253 0.0
C6165 C 0.34634 0.60529 0.24432 0.0
C6166 C 0.91438 0.17333 0.75577 0.0
C6167 C 0.89949 0.16889 0.75964 0.0
H6168 H 0.93476 0.1681 0.74364 0.0
C6169 C 0.8938 0.15497 0.75404 0.0
H6170 H 0.91914 0.18397 0.75988 0.0
C6171 C 0.90292 0.1457 0.74466 0.0
C6172 C 0.91777 0.15034 0.74071 0.0
H6173 H 0.88235 0.15128 0.75687 0.0
H6174 H 0.89834 0.13505 0.7404 0.0
C6175 C 0.92336 0.16421 0.7464 0.0
C6176 C 0.48441 0.10173 0.90033 0.0
C6177 C 0.49112 0.09141 0.89006 0.0
H6178 H 0.48806 0.11841 0.9178 0.0
C6179 C 0.50705 0.09126 0.88843 0.0
H6180 H 0.47214 0.10213 0.90175 0.0
C6181 C 0.51617 0.10043 0.89775 0.0
C6182 C 0.50949 0.11007 0.90867 0.0
H6183 H 0.51252 0.08342 0.88059 0.0
H6184 H 0.52846 0.0995 0.89684 0.0
C6185 C 0.49352 0.11107 0.90948 0.0
C6186 C 0.24432 0.16341 0.42173 0.0
C6187 C 0.24003 0.14874 0.41694 0.0
H6188 H 0.25649 0.18381 0.41668 0.0
C6189 C 0.24498 0.14346 0.40262 0.0
H6190 H 0.24071 0.16783 0.4327 0.0
C6191 C 0.25406 0.15278 0.39328 0.0
C6192 C 0.25838 0.16741 0.39822 0.0
H6193 H 0.2418 0.1322 0.39864 0.0
H6194 H 0.25777 0.14851 0.38229 0.0
C6195 C 0.2534 0.17259 0.41253 0.0
C6196 C 0.49559 0.17311 0.33575 0.0
C6197 C 0.49064 0.16792 0.35006 0.0
H6198 H 0.50832 0.16841 0.31559 0.0
C6199 C 0.49506 0.15332 0.35502 0.0
H6200 H 0.49242 0.18431 0.3316 0.0
C6201 C 0.50419 0.14405 0.34569 0.0
C6202 C 0.50911 0.14935 0.33136 0.0
H6203 H 0.49137 0.14904 0.36601 0.0
H6204 H 0.50743 0.13281 0.34967 0.0
C6205 C 0.50474 0.16398 0.32656 0.0
C6206 C 0.24398 0.08331 0.82613 0.0
C6207 C 0.24058 0.0983 0.83062 0.0
H6208 H 0.25561 0.06261 0.83118 0.0
C6209 C 0.24651 0.10383 0.84447 0.0
H6210 H 0.2396 0.07868 0.81555 0.0
C6211 C 0.25576 0.09445 0.85361 0.0
C6212 C 0.25925 0.07951 0.84891 0.0
H6213 H 0.24404 0.11535 0.84821 0.0
H6214 H 0.26029 0.09892 0.8642 0.0
C6215 C 0.25321 0.07408 0.83512 0.0
C6216 C 0.49457 0.67118 0.83479 0.0
C6217 C 0.491 0.66673 0.84975 0.0
H6218 H 0.50635 0.666 0.81418 0.0
C6219 C 0.49678 0.65284 0.85533 0.0
H6220 H 0.4903 0.68179 0.83011 0.0
C6221 C 0.50603 0.64362 0.84604 0.0
C6222 C 0.50969 0.64827 0.83113 0.0
H6223 H 0.49417 0.64914 0.86682 0.0
H6224 H 0.51043 0.63299 0.85055 0.0
C6225 C 0.50381 0.66211 0.82564 0.0
C6226 C 0.25648 0.57553 0.3344 0.0
C6227 C 0.25987 0.57977 0.34946 0.0
H6228 H 0.24477 0.58087 0.3138 0.0
C6229 C 0.25392 0.59352 0.35521 0.0
H6230 H 0.26088 0.56503 0.32958 0.0
C6231 C 0.24462 0.60278 0.346 0.0
C6232 C 0.2411 0.5983 0.331 0.0
H6233 H 0.25639 0.59707 0.36679 0.0
H6234 H 0.24006 0.61328 0.35065 0.0
C6235 C 0.24719 0.58462 0.32533 0.0
C6236 C 0.24455 0.66318 0.92212 0.0
C6237 C 0.24021 0.64859 0.91716 0.0
H6238 H 0.25681 0.6836 0.91729 0.0
C6239 C 0.24515 0.64345 0.90278 0.0
H6240 H 0.24096 0.6675 0.93313 0.0
C6241 C 0.25426 0.65284 0.89354 0.0
C6242 C 0.25864 0.6674 0.89865 0.0
H6243 H 0.24193 0.63224 0.89868 0.0
H6244 H 0.25795 0.64868 0.88251 0.0
C6245 C 0.25368 0.67243 0.91302 0.0
C6246 C 0.49566 0.57604 0.41208 0.0
C6247 C 0.49083 0.58128 0.39775 0.0
H6248 H 0.50815 0.58069 0.43239 0.0
C6249 C 0.49521 0.59594 0.39292 0.0
H6250 H 0.49252 0.5648 0.41613 0.0
C6251 C 0.5042 0.60522 0.40241 0.0
C6252 C 0.509 0.59986 0.41674 0.0
H6253 H 0.49161 0.60027 0.38192 0.0
H6254 H 0.50742 0.61649 0.39852 0.0
C6255 C 0.50466 0.58517 0.42142 0.0
C6256 C 0.50382 0.9023 0.10608 0.0
C6257 C 0.50907 0.91648 0.10073 0.0
H6258 H 0.49072 0.88215 0.10107 0.0
C6259 C 0.50503 0.92122 0.08598 0.0
H6260 H 0.5068 0.89837 0.11741 0.0
C6261 C 0.49586 0.9121 0.07679 0.0
C6262 C 0.49057 0.89793 0.08204 0.0
H6263 H 0.50887 0.93207 0.0815 0.0
H6264 H 0.49296 0.9162 0.0655 0.0
C6265 C 0.49467 0.89303 0.09675 0.0
C6266 C 0.74441 0.84633 0.60556 0.0
C6267 C 0.73963 0.83189 0.60042 0.0
H6268 H 0.7571 0.86669 0.60037 0.0
C6269 C 0.7442 0.8269 0.58591 0.0
H6270 H 0.74102 0.85046 0.6167 0.0
C6271 C 0.75336 0.83602 0.57672 0.0
C6272 C 0.75813 0.85047 0.58173 0.0
H6273 H 0.74075 0.81584 0.58161 0.0
H6274 H 0.75665 0.83173 0.56561 0.0
C6275 C 0.75355 0.8556 0.59623 0.0
C6276 C 0.50325 0.84619 0.64457 0.0
C6277 C 0.50752 0.83152 0.64945 0.0
H6278 H 0.49106 0.8668 0.65004 0.0
C6279 C 0.50252 0.82631 0.66373 0.0
H6280 H 0.50698 0.85049 0.6336 0.0
C6281 C 0.49347 0.83549 0.67298 0.0
C6282 C 0.48924 0.85019 0.66826 0.0
H6283 H 0.50557 0.81506 0.66783 0.0
H6284 H 0.48986 0.83103 0.68393 0.0
C6285 C 0.4942 0.85551 0.65396 0.0
C6286 C 0.74437 0.92363 0.16458 0.0
C6287 C 0.74001 0.91872 0.14998 0.0
H6288 H 0.75684 0.91886 0.18486 0.0
C6289 C 0.74517 0.90449 0.14466 0.0
H6290 H 0.74062 0.93454 0.16902 0.0
C6291 C 0.75452 0.89533 0.15391 0.0
C6292 C 0.7589 0.90039 0.16849 0.0
H6293 H 0.74196 0.90043 0.13344 0.0
H6294 H 0.75838 0.8844 0.14964 0.0
C6295 C 0.75371 0.91462 0.17368 0.0
C6296 C 0.49499 0.3544 0.15231 0.0
C6297 C 0.49046 0.34939 0.16686 0.0
H6298 H 0.5074 0.34905 0.13182 0.0
C6299 C 0.49518 0.33496 0.17194 0.0
H6300 H 0.49148 0.36547 0.14811 0.0
C6301 C 0.50424 0.32572 0.16277 0.0
C6302 C 0.50876 0.33058 0.14821 0.0
H6303 H 0.49192 0.33076 0.1831 0.0
H6304 H 0.50765 0.31467 0.16713 0.0
C6305 C 0.50405 0.34501 0.143 0.0
C6306 C 0.74478 0.42437 0.66435 0.0
C6307 C 0.73947 0.41901 0.65023 0.0
H6308 H 0.7578 0.41984 0.68434 0.0
C6309 C 0.74362 0.40428 0.64541 0.0
H6310 H 0.74184 0.43568 0.66839 0.0
C6311 C 0.75282 0.39504 0.65472 0.0
C6312 C 0.75806 0.40051 0.66886 0.0
H6313 H 0.73966 0.39987 0.63456 0.0
H6314 H 0.75583 0.38369 0.65086 0.0
C6315 C 0.75397 0.41527 0.67351 0.0
C6316 C 0.74467 0.34459 0.10338 0.0
C6317 C 0.74006 0.33009 0.09831 0.0
H6318 H 0.75731 0.36499 0.09817 0.0
C6319 C 0.7448 0.32501 0.08388 0.0
H6320 H 0.74114 0.34879 0.11445 0.0
C6321 C 0.754 0.33412 0.07473 0.0
C6322 C 0.75864 0.34862 0.07968 0.0
H6323 H 0.74147 0.3139 0.07962 0.0
H6324 H 0.75744 0.32976 0.06369 0.0
C6325 C 0.75387 0.35385 0.09408 0.0
C6326 C 0.4924 0.41588 0.57498 0.0
C6327 C 0.48826 0.40116 0.57972 0.0
H6328 H 0.50454 0.43631 0.58 0.0
C6329 C 0.49342 0.3958 0.59394 0.0
H6330 H 0.48863 0.42037 0.5641 0.0
C6331 C 0.5026 0.4051 0.60321 0.0
C6332 C 0.50679 0.41978 0.59829 0.0
H6333 H 0.49037 0.38449 0.59787 0.0
H6334 H 0.50649 0.40078 0.61411 0.0
C6335 C 0.50157 0.42504 0.58411 0.0
loop_
_geom_bond_atom_site_label_1
_geom_bond_atom_site_label_2
_geom_bond_distance
_geom_bond_site_symmetry_2
_ccdc_geom_bond_type
In0 O1 2.294 . S
In0 O2 2.326 . S
In0 O6 2.266 . S
In0 O7 2.326 . S
In0 O8 2.266 . S
In0 O9 2.326 . S
In0 O11 2.294 . S
In0 O12 2.326 . S
O1 In0 2.294 . S
O1 C10 1.240 . S
O2 In0 2.326 . S
O2 C10 1.252 . S
C3 O6 1.252 . S
C3 O7 1.260 . S
C4 O11 1.240 . S
C4 O12 1.252 . S
C5 O8 1.252 . S
C5 O9 1.260 . S
O6 In0 2.266 . S
O6 C3 1.252 . S
O7 In0 2.326 . S
O7 C3 1.260 . S
O8 In0 2.266 . S
O8 C5 1.252 . S
O9 In0 2.326 . S
O9 C5 1.260 . S
C10 O1 1.240 . S
C10 O2 1.252 . S
O11 In0 2.294 . S
O11 C4 1.240 . S
O12 In0 2.326 . S
O12 C4 1.252 . S
In13 O14 2.294 . S
In13 O15 2.326 . S
In13 O19 2.266 . S
In13 O20 2.326 . S
In13 O21 2.266 . S
In13 O22 2.326 . S
In13 O24 2.294 . S
In13 O25 2.326 . S
O14 In13 2.294 . S
O14 C23 1.240 . S
O15 In13 2.326 . S
O15 C23 1.252 . S
C16 O19 1.252 . S
C16 O20 1.260 . S
C17 O24 1.240 . S
C17 O25 1.252 . S
C18 O21 1.252 . S
C18 O22 1.260 . S
O19 In13 2.266 . S
O19 C16 1.252 . S
O20 In13 2.326 . S
O20 C16 1.260 . S
O21 In13 2.266 . S
O21 C18 1.252 . S
O22 In13 2.326 . S
O22 C18 1.260 . S
C23 O14 1.240 . S
C23 O15 1.252 . S
O24 In13 2.294 . S
O24 C17 1.240 . S
O25 In13 2.326 . S
O25 C17 1.252 . S
In26 O27 2.294 . S
In26 O28 2.326 . S
In26 O32 2.266 . S
In26 O33 2.326 . S
In26 O34 2.266 . S
In26 O35 2.326 . S
In26 O37 2.294 . S
In26 O38 2.326 . S
O27 In26 2.294 . S
O27 C36 1.240 . S
O28 In26 2.326 . S
O28 C36 1.252 . S
C29 O32 1.252 . S
C29 O33 1.260 . S
C30 O37 1.240 . S
C30 O38 1.252 . S
C31 O34 1.252 . S
C31 O35 1.260 . S
O32 In26 2.266 . S
O32 C29 1.252 . S
O33 In26 2.326 . S
O33 C29 1.260 . S
O34 In26 2.266 . S
O34 C31 1.252 . S
O35 In26 2.326 . S
O35 C31 1.260 . S
C36 O27 1.240 . S
C36 O28 1.252 . S
O37 In26 2.294 . S
O37 C30 1.240 . S
O38 In26 2.326 . S
O38 C30 1.252 . S
In39 O40 2.294 . S
In39 O41 2.326 . S
In39 O45 2.266 . S
In39 O46 2.326 . S
In39 O47 2.266 . S
In39 O48 2.326 . S
In39 O50 2.294 . S
In39 O51 2.326 . S
O40 In39 2.294 . S
O40 C49 1.240 . S
O41 In39 2.326 . S
O41 C49 1.252 . S
C42 O45 1.252 . S
C42 O46 1.260 . S
C43 O50 1.240 . S
C43 O51 1.252 . S
C44 O47 1.252 . S
C44 O48 1.260 . S
O45 In39 2.266 . S
O45 C42 1.252 . S
O46 In39 2.326 . S
O46 C42 1.260 . S
O47 In39 2.266 . S
O47 C44 1.252 . S
O48 In39 2.326 . S
O48 C44 1.260 . S
C49 O40 1.240 . S
C49 O41 1.252 . S
O50 In39 2.294 . S
O50 C43 1.240 . S
O51 In39 2.326 . S
O51 C43 1.252 . S
In52 O53 2.294 . S
In52 O54 2.326 . S
In52 O58 2.266 . S
In52 O59 2.326 . S
In52 O60 2.266 . S
In52 O61 2.326 . S
In52 O63 2.294 . S
In52 O64 2.326 . S
O53 In52 2.294 . S
O53 C62 1.240 . S
O54 In52 2.326 . S
O54 C62 1.252 . S
C55 O58 1.252 . S
C55 O59 1.260 . S
C56 O63 1.240 . S
C56 O64 1.252 . S
C57 O60 1.252 . S
C57 O61 1.260 . S
O58 In52 2.266 . S
O58 C55 1.252 . S
O59 In52 2.326 . S
O59 C55 1.260 . S
O60 In52 2.266 . S
O60 C57 1.252 . S
O61 In52 2.326 . S
O61 C57 1.260 . S
C62 O53 1.240 . S
C62 O54 1.252 . S
O63 In52 2.294 . S
O63 C56 1.240 . S
O64 In52 2.326 . S
O64 C56 1.252 . S
In65 O66 2.294 . S
In65 O67 2.326 . S
In65 O71 2.266 . S
In65 O72 2.326 . S
In65 O73 2.266 . S
In65 O74 2.326 . S
In65 O76 2.294 . S
In65 O77 2.326 . S
O66 In65 2.294 . S
O66 C75 1.240 . S
O67 In65 2.326 . S
O67 C75 1.252 . S
C68 O71 1.252 . S
C68 O72 1.260 . S
C69 O76 1.240 . S
C69 O77 1.252 . S
C70 O73 1.252 . S
C70 O74 1.260 . S
O71 In65 2.266 . S
O71 C68 1.252 . S
O72 In65 2.326 . S
O72 C68 1.260 . S
O73 In65 2.266 . S
O73 C70 1.252 . S
O74 In65 2.326 . S
O74 C70 1.260 . S
C75 O66 1.240 . S
C75 O67 1.252 . S
O76 In65 2.294 . S
O76 C69 1.240 . S
O77 In65 2.326 . S
O77 C69 1.252 . S
In78 O79 2.294 . S
In78 O80 2.326 . S
In78 O84 2.266 . S
In78 O85 2.326 . S
In78 O86 2.266 . S
In78 O87 2.326 . S
In78 O89 2.294 . S
In78 O90 2.326 . S
O79 In78 2.294 . S
O79 C88 1.240 . S
O80 In78 2.326 . S
O80 C88 1.252 . S
C81 O84 1.252 . S
C81 O85 1.260 . S
C82 O89 1.240 . S
C82 O90 1.252 . S
C83 O86 1.252 . S
C83 O87 1.260 . S
O84 In78 2.266 . S
O84 C81 1.252 . S
O85 In78 2.326 . S
O85 C81 1.260 . S
O86 In78 2.266 . S
O86 C83 1.252 . S
O87 In78 2.326 . S
O87 C83 1.260 . S
C88 O79 1.240 . S
C88 O80 1.252 . S
O89 In78 2.294 . S
O89 C82 1.240 . S
O90 In78 2.326 . S
O90 C82 1.252 . S
In91 O92 2.294 . S
In91 O93 2.326 . S
In91 O97 2.266 . S
In91 O98 2.326 . S
In91 O99 2.266 . S
In91 O100 2.326 . S
In91 O102 2.294 . S
In91 O103 2.326 . S
O92 In91 2.294 . S
O92 C101 1.240 . S
O93 In91 2.326 . S
O93 C101 1.252 . S
C94 O97 1.252 . S
C94 O98 1.260 . S
C95 O102 1.240 . S
C95 O103 1.252 . S
C96 O99 1.252 . S
C96 O100 1.260 . S
O97 In91 2.266 . S
O97 C94 1.252 . S
O98 In91 2.326 . S
O98 C94 1.260 . S
O99 In91 2.266 . S
O99 C96 1.252 . S
O100 In91 2.326 . S
O100 C96 1.260 . S
C101 O92 1.240 . S
C101 O93 1.252 . S
O102 In91 2.294 . S
O102 C95 1.240 . S
O103 In91 2.326 . S
O103 C95 1.252 . S
In104 O105 2.294 . S
In104 O106 2.326 . S
In104 O110 2.266 . S
In104 O111 2.326 . S
In104 O112 2.266 . S
In104 O113 2.326 . S
In104 O115 2.294 . S
In104 O116 2.326 . S
O105 In104 2.294 . S
O105 C114 1.240 . S
O106 In104 2.326 . S
O106 C114 1.252 . S
C107 O110 1.252 . S
C107 O111 1.260 . S
C108 O115 1.240 . S
C108 O116 1.252 . S
C109 O112 1.252 . S
C109 O113 1.260 . S
O110 In104 2.266 . S
O110 C107 1.252 . S
O111 In104 2.326 . S
O111 C107 1.260 . S
O112 In104 2.266 . S
O112 C109 1.252 . S
O113 In104 2.326 . S
O113 C109 1.260 . S
C114 O105 1.240 . S
C114 O106 1.252 . S
O115 In104 2.294 . S
O115 C108 1.240 . S
O116 In104 2.326 . S
O116 C108 1.252 . S
In117 O118 2.294 . S
In117 O119 2.326 . S
In117 O123 2.266 . S
In117 O124 2.326 . S
In117 O125 2.266 . S
In117 O126 2.326 . S
In117 O128 2.294 . S
In117 O129 2.326 . S
O118 In117 2.294 . S
O118 C127 1.240 . S
O119 In117 2.326 . S
O119 C127 1.252 . S
C120 O123 1.252 . S
C120 O124 1.260 . S
C121 O128 1.240 . S
C121 O129 1.252 . S
C122 O125 1.252 . S
C122 O126 1.260 . S
O123 In117 2.266 . S
O123 C120 1.252 . S
O124 In117 2.326 . S
O124 C120 1.260 . S
O125 In117 2.266 . S
O125 C122 1.252 . S
O126 In117 2.326 . S
O126 C122 1.260 . S
C127 O118 1.240 . S
C127 O119 1.252 . S
O128 In117 2.294 . S
O128 C121 1.240 . S
O129 In117 2.326 . S
O129 C121 1.252 . S
In130 O131 2.294 . S
In130 O132 2.326 . S
In130 O136 2.266 . S
In130 O137 2.326 . S
In130 O138 2.266 . S
In130 O139 2.326 . S
In130 O141 2.294 . S
In130 O142 2.326 . S
O131 In130 2.294 . S
O131 C140 1.240 . S
O132 In130 2.326 . S
O132 C140 1.252 . S
C133 O136 1.252 . S
C133 O137 1.260 . S
C134 O141 1.240 . S
C134 O142 1.252 . S
C135 O138 1.252 . S
C135 O139 1.260 . S
O136 In130 2.266 . S
O136 C133 1.252 . S
O137 In130 2.326 . S
O137 C133 1.260 . S
O138 In130 2.266 . S
O138 C135 1.252 . S
O139 In130 2.326 . S
O139 C135 1.260 . S
C140 O131 1.240 . S
C140 O132 1.252 . S
O141 In130 2.294 . S
O141 C134 1.240 . S
O142 In130 2.326 . S
O142 C134 1.252 . S
In143 O144 2.294 . S
In143 O145 2.326 . S
In143 O149 2.266 . S
In143 O150 2.326 . S
In143 O151 2.266 . S
In143 O152 2.326 . S
In143 O154 2.294 . S
In143 O155 2.326 . S
O144 In143 2.294 . S
O144 C153 1.240 . S
O145 In143 2.326 . S
O145 C153 1.252 . S
C146 O149 1.252 . S
C146 O150 1.260 . S
C147 O154 1.240 . S
C147 O155 1.252 . S
C148 O151 1.252 . S
C148 O152 1.260 . S
O149 In143 2.266 . S
O149 C146 1.252 . S
O150 In143 2.326 . S
O150 C146 1.260 . S
O151 In143 2.266 . S
O151 C148 1.252 . S
O152 In143 2.326 . S
O152 C148 1.260 . S
C153 O144 1.240 . S
C153 O145 1.252 . S
O154 In143 2.294 . S
O154 C147 1.240 . S
O155 In143 2.326 . S
O155 C147 1.252 . S
In156 O157 2.294 . S
In156 O158 2.326 . S
In156 O162 2.266 . S
In156 O163 2.326 . S
In156 O164 2.266 . S
In156 O165 2.326 . S
In156 O167 2.294 . S
In156 O168 2.326 . S
O157 In156 2.294 . S
O157 C166 1.240 . S
O158 In156 2.326 . S
O158 C166 1.252 . S
C159 O162 1.252 . S
C159 O163 1.260 . S
C160 O167 1.240 . S
C160 O168 1.252 . S
C161 O164 1.252 . S
C161 O165 1.260 . S
O162 In156 2.266 . S
O162 C159 1.252 . S
O163 In156 2.326 . S
O163 C159 1.260 . S
O164 In156 2.266 . S
O164 C161 1.252 . S
O165 In156 2.326 . S
O165 C161 1.260 . S
C166 O157 1.240 . S
C166 O158 1.252 . S
O167 In156 2.294 . S
O167 C160 1.240 . S
O168 In156 2.326 . S
O168 C160 1.252 . S
In169 O170 2.294 . S
In169 O171 2.326 . S
In169 O175 2.266 . S
In169 O176 2.326 . S
In169 O177 2.266 . S
In169 O178 2.326 . S
In169 O180 2.294 . S
In169 O181 2.326 . S
O170 In169 2.294 . S
O170 C179 1.240 . S
O171 In169 2.326 . S
O171 C179 1.252 . S
C172 O175 1.252 . S
C172 O176 1.260 . S
C173 O180 1.240 . S
C173 O181 1.252 . S
C174 O177 1.252 . S
C174 O178 1.260 . S
O175 In169 2.266 . S
O175 C172 1.252 . S
O176 In169 2.326 . S
O176 C172 1.260 . S
O177 In169 2.266 . S
O177 C174 1.252 . S
O178 In169 2.326 . S
O178 C174 1.260 . S
C179 O170 1.240 . S
C179 O171 1.252 . S
O180 In169 2.294 . S
O180 C173 1.240 . S
O181 In169 2.326 . S
O181 C173 1.252 . S
In182 O183 2.294 . S
In182 O184 2.326 . S
In182 O188 2.266 . S
In182 O189 2.326 . S
In182 O190 2.266 . S
In182 O191 2.326 . S
In182 O193 2.294 . S
In182 O194 2.326 . S
O183 In182 2.294 . S
O183 C192 1.240 . S
O184 In182 2.326 . S
O184 C192 1.252 . S
C185 O188 1.252 . S
C185 O189 1.260 . S
C186 O193 1.240 . S
C186 O194 1.252 . S
C187 O190 1.252 . S
C187 O191 1.260 . S
O188 In182 2.266 . S
O188 C185 1.252 . S
O189 In182 2.326 . S
O189 C185 1.260 . S
O190 In182 2.266 . S
O190 C187 1.252 . S
O191 In182 2.326 . S
O191 C187 1.260 . S
C192 O183 1.240 . S
C192 O184 1.252 . S
O193 In182 2.294 . S
O193 C186 1.240 . S
O194 In182 2.326 . S
O194 C186 1.252 . S
In195 O196 2.294 . S
In195 O197 2.326 . S
In195 O201 2.266 . S
In195 O202 2.326 . S
In195 O203 2.266 . S
In195 O204 2.326 . S
In195 O206 2.294 . S
In195 O207 2.326 . S
O196 In195 2.294 . S
O196 C205 1.240 . S
O197 In195 2.326 . S
O197 C205 1.252 . S
C198 O201 1.252 . S
C198 O202 1.260 . S
C199 O206 1.240 . S
C199 O207 1.252 . S
C200 O203 1.252 . S
C200 O204 1.260 . S
O201 In195 2.266 . S
O201 C198 1.252 . S
O202 In195 2.326 . S
O202 C198 1.260 . S
O203 In195 2.266 . S
O203 C200 1.252 . S
O204 In195 2.326 . S
O204 C200 1.260 . S
C205 O196 1.240 . S
C205 O197 1.252 . S
O206 In195 2.294 . S
O206 C199 1.240 . S
O207 In195 2.326 . S
O207 C199 1.252 . S
In208 O209 2.294 . S
In208 O210 2.326 . S
In208 O214 2.266 . S
In208 O215 2.326 . S
In208 O216 2.266 . S
In208 O217 2.326 . S
In208 O219 2.294 . S
In208 O220 2.326 . S
O209 In208 2.294 . S
O209 C218 1.240 . S
O210 In208 2.326 . S
O210 C218 1.252 . S
C211 O214 1.252 . S
C211 O215 1.260 . S
C212 O219 1.240 . S
C212 O220 1.252 . S
C213 O216 1.252 . S
C213 O217 1.260 . S
O214 In208 2.266 . S
O214 C211 1.252 . S
O215 In208 2.326 . S
O215 C211 1.260 . S
O216 In208 2.266 . S
O216 C213 1.252 . S
O217 In208 2.326 . S
O217 C213 1.260 . S
C218 O209 1.240 . S
C218 O210 1.252 . S
O219 In208 2.294 . S
O219 C212 1.240 . S
O220 In208 2.326 . S
O220 C212 1.252 . S
In221 O222 2.294 . S
In221 O223 2.326 . S
In221 O227 2.266 . S
In221 O228 2.326 . S
In221 O229 2.266 . S
In221 O230 2.326 . S
In221 O232 2.294 . S
In221 O233 2.326 . S
O222 In221 2.294 . S
O222 C231 1.240 . S
O223 In221 2.326 . S
O223 C231 1.252 . S
C224 O227 1.252 . S
C224 O228 1.260 . S
C225 O232 1.240 . S
C225 O233 1.252 . S
C226 O229 1.252 . S
C226 O230 1.260 . S
O227 In221 2.266 . S
O227 C224 1.252 . S
O228 In221 2.326 . S
O228 C224 1.260 . S
O229 In221 2.266 . S
O229 C226 1.252 . S
O230 In221 2.326 . S
O230 C226 1.260 . S
C231 O222 1.240 . S
C231 O223 1.252 . S
O232 In221 2.294 . S
O232 C225 1.240 . S
O233 In221 2.326 . S
O233 C225 1.252 . S
In234 O235 2.294 . S
In234 O236 2.326 . S
In234 O240 2.266 . S
In234 O241 2.326 . S
In234 O242 2.266 . S
In234 O243 2.326 . S
In234 O245 2.294 . S
In234 O246 2.326 . S
O235 In234 2.294 . S
O235 C244 1.240 . S
O236 In234 2.326 . S
O236 C244 1.252 . S
C237 O240 1.252 . S
C237 O241 1.260 . S
C238 O245 1.240 . S
C238 O246 1.252 . S
C239 O242 1.252 . S
C239 O243 1.260 . S
O240 In234 2.266 . S
O240 C237 1.252 . S
O241 In234 2.326 . S
O241 C237 1.260 . S
O242 In234 2.266 . S
O242 C239 1.252 . S
O243 In234 2.326 . S
O243 C239 1.260 . S
C244 O235 1.240 . S
C244 O236 1.252 . S
O245 In234 2.294 . S
O245 C238 1.240 . S
O246 In234 2.326 . S
O246 C238 1.252 . S
In247 O248 2.294 . S
In247 O249 2.326 . S
In247 O253 2.266 . S
In247 O254 2.326 . S
In247 O255 2.266 . S
In247 O256 2.326 . S
In247 O258 2.294 . S
In247 O259 2.326 . S
O248 In247 2.294 . S
O248 C257 1.240 . S
O249 In247 2.326 . S
O249 C257 1.252 . S
C250 O253 1.252 . S
C250 O254 1.260 . S
C251 O258 1.240 . S
C251 O259 1.252 . S
C252 O255 1.252 . S
C252 O256 1.260 . S
O253 In247 2.266 . S
O253 C250 1.252 . S
O254 In247 2.326 . S
O254 C250 1.260 . S
O255 In247 2.266 . S
O255 C252 1.252 . S
O256 In247 2.326 . S
O256 C252 1.260 . S
C257 O248 1.240 . S
C257 O249 1.252 . S
O258 In247 2.294 . S
O258 C251 1.240 . S
O259 In247 2.326 . S
O259 C251 1.252 . S
In260 O261 2.294 . S
In260 O262 2.326 . S
In260 O266 2.266 . S
In260 O267 2.326 . S
In260 O268 2.266 . S
In260 O269 2.326 . S
In260 O271 2.294 . S
In260 O272 2.326 . S
O261 In260 2.294 . S
O261 C270 1.240 . S
O262 In260 2.326 . S
O262 C270 1.252 . S
C263 O266 1.252 . S
C263 O267 1.260 . S
C264 O271 1.240 . S
C264 O272 1.252 . S
C265 O268 1.252 . S
C265 O269 1.260 . S
O266 In260 2.266 . S
O266 C263 1.252 . S
O267 In260 2.326 . S
O267 C263 1.260 . S
O268 In260 2.266 . S
O268 C265 1.252 . S
O269 In260 2.326 . S
O269 C265 1.260 . S
C270 O261 1.240 . S
C270 O262 1.252 . S
O271 In260 2.294 . S
O271 C264 1.240 . S
O272 In260 2.326 . S
O272 C264 1.252 . S
In273 O274 2.294 . S
In273 O275 2.326 . S
In273 O279 2.266 . S
In273 O280 2.326 . S
In273 O281 2.266 . S
In273 O282 2.326 . S
In273 O284 2.294 . S
In273 O285 2.326 . S
O274 In273 2.294 . S
O274 C283 1.240 . S
O275 In273 2.326 . S
O275 C283 1.252 . S
C276 O279 1.252 . S
C276 O280 1.260 . S
C277 O284 1.240 . S
C277 O285 1.252 . S
C278 O281 1.252 . S
C278 O282 1.260 . S
O279 In273 2.266 . S
O279 C276 1.252 . S
O280 In273 2.326 . S
O280 C276 1.260 . S
O281 In273 2.266 . S
O281 C278 1.252 . S
O282 In273 2.326 . S
O282 C278 1.260 . S
C283 O274 1.240 . S
C283 O275 1.252 . S
O284 In273 2.294 . S
O284 C277 1.240 . S
O285 In273 2.326 . S
O285 C277 1.252 . S
In286 O287 2.294 . S
In286 O288 2.326 . S
In286 O292 2.266 . S
In286 O293 2.326 . S
In286 O294 2.266 . S
In286 O295 2.326 . S
In286 O297 2.294 . S
In286 O298 2.326 . S
O287 In286 2.294 . S
O287 C296 1.240 . S
O288 In286 2.326 . S
O288 C296 1.252 . S
C289 O292 1.252 . S
C289 O293 1.260 . S
C290 O297 1.240 . S
C290 O298 1.252 . S
C291 O294 1.252 . S
C291 O295 1.260 . S
O292 In286 2.266 . S
O292 C289 1.252 . S
O293 In286 2.326 . S
O293 C289 1.260 . S
O294 In286 2.266 . S
O294 C291 1.252 . S
O295 In286 2.326 . S
O295 C291 1.260 . S
C296 O287 1.240 . S
C296 O288 1.252 . S
O297 In286 2.294 . S
O297 C290 1.240 . S
O298 In286 2.326 . S
O298 C290 1.252 . S
In299 O300 2.294 . S
In299 O301 2.326 . S
In299 O305 2.266 . S
In299 O306 2.326 . S
In299 O307 2.266 . S
In299 O308 2.326 . S
In299 O310 2.294 . S
In299 O311 2.326 . S
O300 In299 2.294 . S
O300 C309 1.240 . S
O301 In299 2.326 . S
O301 C309 1.252 . S
C302 O305 1.252 . S
C302 O306 1.260 . S
C303 O310 1.240 . S
C303 O311 1.252 . S
C304 O307 1.252 . S
C304 O308 1.260 . S
O305 In299 2.266 . S
O305 C302 1.252 . S
O306 In299 2.326 . S
O306 C302 1.260 . S
O307 In299 2.266 . S
O307 C304 1.252 . S
O308 In299 2.326 . S
O308 C304 1.260 . S
C309 O300 1.240 . S
C309 O301 1.252 . S
O310 In299 2.294 . S
O310 C303 1.240 . S
O311 In299 2.326 . S
O311 C303 1.252 . S
In312 O313 2.294 . S
In312 O314 2.326 . S
In312 O318 2.266 . S
In312 O319 2.326 . S
In312 O320 2.266 . S
In312 O321 2.326 . S
In312 O323 2.294 . S
In312 O324 2.326 . S
O313 In312 2.294 . S
O313 C322 1.240 . S
O314 In312 2.326 . S
O314 C322 1.252 . S
C315 O318 1.252 . S
C315 O319 1.260 . S
C316 O323 1.240 . S
C316 O324 1.252 . S
C317 O320 1.252 . S
C317 O321 1.260 . S
O318 In312 2.266 . S
O318 C315 1.252 . S
O319 In312 2.326 . S
O319 C315 1.260 . S
O320 In312 2.266 . S
O320 C317 1.252 . S
O321 In312 2.326 . S
O321 C317 1.260 . S
C322 O313 1.240 . S
C322 O314 1.252 . S
O323 In312 2.294 . S
O323 C316 1.240 . S
O324 In312 2.326 . S
O324 C316 1.252 . S
In325 O326 2.294 . S
In325 O327 2.326 . S
In325 O331 2.266 . S
In325 O332 2.326 . S
In325 O333 2.266 . S
In325 O334 2.326 . S
In325 O336 2.294 . S
In325 O337 2.326 . S
O326 In325 2.294 . S
O326 C335 1.240 . S
O327 In325 2.326 . S
O327 C335 1.252 . S
C328 O331 1.252 . S
C328 O332 1.260 . S
C329 O336 1.240 . S
C329 O337 1.252 . S
C330 O333 1.252 . S
C330 O334 1.260 . S
O331 In325 2.266 . S
O331 C328 1.252 . S
O332 In325 2.326 . S
O332 C328 1.260 . S
O333 In325 2.266 . S
O333 C330 1.252 . S
O334 In325 2.326 . S
O334 C330 1.260 . S
C335 O326 1.240 . S
C335 O327 1.252 . S
O336 In325 2.294 . S
O336 C329 1.240 . S
O337 In325 2.326 . S
O337 C329 1.252 . S
In338 O339 2.294 . S
In338 O340 2.326 . S
In338 O344 2.266 . S
In338 O345 2.326 . S
In338 O346 2.266 . S
In338 O347 2.326 . S
In338 O349 2.294 . S
In338 O350 2.326 . S
O339 In338 2.294 . S
O339 C348 1.240 . S
O340 In338 2.326 . S
O340 C348 1.252 . S
C341 O344 1.252 . S
C341 O345 1.260 . S
C342 O349 1.240 . S
C342 O350 1.252 . S
C343 O346 1.252 . S
C343 O347 1.260 . S
O344 In338 2.266 . S
O344 C341 1.252 . S
O345 In338 2.326 . S
O345 C341 1.260 . S
O346 In338 2.266 . S
O346 C343 1.252 . S
O347 In338 2.326 . S
O347 C343 1.260 . S
C348 O339 1.240 . S
C348 O340 1.252 . S
O349 In338 2.294 . S
O349 C342 1.240 . S
O350 In338 2.326 . S
O350 C342 1.252 . S
In351 O352 2.294 . S
In351 O353 2.326 . S
In351 O357 2.266 . S
In351 O358 2.326 . S
In351 O359 2.266 . S
In351 O360 2.326 . S
In351 O362 2.294 . S
In351 O363 2.326 . S
O352 In351 2.294 . S
O352 C361 1.240 . S
O353 In351 2.326 . S
O353 C361 1.252 . S
C354 O357 1.252 . S
C354 O358 1.260 . S
C355 O362 1.240 . S
C355 O363 1.252 . S
C356 O359 1.252 . S
C356 O360 1.260 . S
O357 In351 2.266 . S
O357 C354 1.252 . S
O358 In351 2.326 . S
O358 C354 1.260 . S
O359 In351 2.266 . S
O359 C356 1.252 . S
O360 In351 2.326 . S
O360 C356 1.260 . S
C361 O352 1.240 . S
C361 O353 1.252 . S
O362 In351 2.294 . S
O362 C355 1.240 . S
O363 In351 2.326 . S
O363 C355 1.252 . S
In364 O365 2.294 . S
In364 O366 2.326 . S
In364 O370 2.266 . S
In364 O371 2.326 . S
In364 O372 2.266 . S
In364 O373 2.326 . S
In364 O375 2.294 . S
In364 O376 2.326 . S
O365 In364 2.294 . S
O365 C374 1.240 . S
O366 In364 2.326 . S
O366 C374 1.252 . S
C367 O370 1.252 . S
C367 O371 1.260 . S
C368 O375 1.240 . S
C368 O376 1.252 . S
C369 O372 1.252 . S
C369 O373 1.260 . S
O370 In364 2.266 . S
O370 C367 1.252 . S
O371 In364 2.326 . S
O371 C367 1.260 . S
O372 In364 2.266 . S
O372 C369 1.252 . S
O373 In364 2.326 . S
O373 C369 1.260 . S
C374 O365 1.240 . S
C374 O366 1.252 . S
O375 In364 2.294 . S
O375 C368 1.240 . S
O376 In364 2.326 . S
O376 C368 1.252 . S
In377 O378 2.294 . S
In377 O379 2.326 . S
In377 O383 2.266 . S
In377 O384 2.326 . S
In377 O385 2.266 . S
In377 O386 2.326 . S
In377 O388 2.294 . S
In377 O389 2.326 . S
O378 In377 2.294 . S
O378 C387 1.240 . S
O379 In377 2.326 . S
O379 C387 1.252 . S
C380 O383 1.252 . S
C380 O384 1.260 . S
C381 O388 1.240 . S
C381 O389 1.252 . S
C382 O385 1.252 . S
C382 O386 1.260 . S
O383 In377 2.266 . S
O383 C380 1.252 . S
O384 In377 2.326 . S
O384 C380 1.260 . S
O385 In377 2.266 . S
O385 C382 1.252 . S
O386 In377 2.326 . S
O386 C382 1.260 . S
C387 O378 1.240 . S
C387 O379 1.252 . S
O388 In377 2.294 . S
O388 C381 1.240 . S
O389 In377 2.326 . S
O389 C381 1.252 . S
In390 O391 2.294 . S
In390 O392 2.326 . S
In390 O396 2.266 . S
In390 O397 2.326 . S
In390 O398 2.266 . S
In390 O399 2.326 . S
In390 O401 2.294 . S
In390 O402 2.326 . S
O391 In390 2.294 . S
O391 C400 1.240 . S
O392 In390 2.326 . S
O392 C400 1.252 . S
C393 O396 1.252 . S
C393 O397 1.260 . S
C394 O401 1.240 . S
C394 O402 1.252 . S
C395 O398 1.252 . S
C395 O399 1.260 . S
O396 In390 2.266 . S
O396 C393 1.252 . S
O397 In390 2.326 . S
O397 C393 1.260 . S
O398 In390 2.266 . S
O398 C395 1.252 . S
O399 In390 2.326 . S
O399 C395 1.260 . S
C400 O391 1.240 . S
C400 O392 1.252 . S
O401 In390 2.294 . S
O401 C394 1.240 . S
O402 In390 2.326 . S
O402 C394 1.252 . S
In403 O404 2.294 . S
In403 O405 2.326 . S
In403 O409 2.266 . S
In403 O410 2.326 . S
In403 O411 2.266 . S
In403 O412 2.326 . S
In403 O414 2.294 . S
In403 O415 2.326 . S
O404 In403 2.294 . S
O404 C413 1.240 . S
O405 In403 2.326 . S
O405 C413 1.252 . S
C406 O409 1.252 . S
C406 O410 1.260 . S
C407 O414 1.240 . S
C407 O415 1.252 . S
C408 O411 1.252 . S
C408 O412 1.260 . S
O409 In403 2.266 . S
O409 C406 1.252 . S
O410 In403 2.326 . S
O410 C406 1.260 . S
O411 In403 2.266 . S
O411 C408 1.252 . S
O412 In403 2.326 . S
O412 C408 1.260 . S
C413 O404 1.240 . S
C413 O405 1.252 . S
O414 In403 2.294 . S
O414 C407 1.240 . S
O415 In403 2.326 . S
O415 C407 1.252 . S
In416 O417 2.294 . S
In416 O418 2.326 . S
In416 O422 2.266 . S
In416 O423 2.326 . S
In416 O424 2.266 . S
In416 O425 2.326 . S
In416 O427 2.294 . S
In416 O428 2.326 . S
O417 In416 2.294 . S
O417 C426 1.240 . S
O418 In416 2.326 . S
O418 C426 1.252 . S
C419 O422 1.252 . S
C419 O423 1.260 . S
C420 O427 1.240 . S
C420 O428 1.252 . S
C421 O424 1.252 . S
C421 O425 1.260 . S
O422 In416 2.266 . S
O422 C419 1.252 . S
O423 In416 2.326 . S
O423 C419 1.260 . S
O424 In416 2.266 . S
O424 C421 1.252 . S
O425 In416 2.326 . S
O425 C421 1.260 . S
C426 O417 1.240 . S
C426 O418 1.252 . S
O427 In416 2.294 . S
O427 C420 1.240 . S
O428 In416 2.326 . S
O428 C420 1.252 . S
In429 O430 2.294 . S
In429 O431 2.326 . S
In429 O435 2.266 . S
In429 O436 2.326 . S
In429 O437 2.266 . S
In429 O438 2.326 . S
In429 O440 2.294 . S
In429 O441 2.326 . S
O430 In429 2.294 . S
O430 C439 1.240 . S
O431 In429 2.326 . S
O431 C439 1.252 . S
C432 O435 1.252 . S
C432 O436 1.260 . S
C433 O440 1.240 . S
C433 O441 1.252 . S
C434 O437 1.252 . S
C434 O438 1.260 . S
O435 In429 2.266 . S
O435 C432 1.252 . S
O436 In429 2.326 . S
O436 C432 1.260 . S
O437 In429 2.266 . S
O437 C434 1.252 . S
O438 In429 2.326 . S
O438 C434 1.260 . S
C439 O430 1.240 . S
C439 O431 1.252 . S
O440 In429 2.294 . S
O440 C433 1.240 . S
O441 In429 2.326 . S
O441 C433 1.252 . S
In442 O443 2.294 . S
In442 O444 2.326 . S
In442 O448 2.266 . S
In442 O449 2.326 . S
In442 O450 2.266 . S
In442 O451 2.326 . S
In442 O453 2.294 . S
In442 O454 2.326 . S
O443 In442 2.294 . S
O443 C452 1.240 . S
O444 In442 2.326 . S
O444 C452 1.252 . S
C445 O448 1.252 . S
C445 O449 1.260 . S
C446 O453 1.240 . S
C446 O454 1.252 . S
C447 O450 1.252 . S
C447 O451 1.260 . S
O448 In442 2.266 . S
O448 C445 1.252 . S
O449 In442 2.326 . S
O449 C445 1.260 . S
O450 In442 2.266 . S
O450 C447 1.252 . S
O451 In442 2.326 . S
O451 C447 1.260 . S
C452 O443 1.240 . S
C452 O444 1.252 . S
O453 In442 2.294 . S
O453 C446 1.240 . S
O454 In442 2.326 . S
O454 C446 1.252 . S
In455 O456 2.294 . S
In455 O457 2.326 . S
In455 O461 2.266 . S
In455 O462 2.326 . S
In455 O463 2.266 . S
In455 O464 2.326 . S
In455 O466 2.294 . S
In455 O467 2.326 . S
O456 In455 2.294 . S
O456 C465 1.240 . S
O457 In455 2.326 . S
O457 C465 1.252 . S
C458 O461 1.252 . S
C458 O462 1.260 . S
C459 O466 1.240 . S
C459 O467 1.252 . S
C460 O463 1.252 . S
C460 O464 1.260 . S
O461 In455 2.266 . S
O461 C458 1.252 . S
O462 In455 2.326 . S
O462 C458 1.260 . S
O463 In455 2.266 . S
O463 C460 1.252 . S
O464 In455 2.326 . S
O464 C460 1.260 . S
C465 O456 1.240 . S
C465 O457 1.252 . S
O466 In455 2.294 . S
O466 C459 1.240 . S
O467 In455 2.326 . S
O467 C459 1.252 . S
In468 O469 2.294 . S
In468 O470 2.326 . S
In468 O474 2.266 . S
In468 O475 2.326 . S
In468 O476 2.266 . S
In468 O477 2.326 . S
In468 O479 2.294 . S
In468 O480 2.326 . S
O469 In468 2.294 . S
O469 C478 1.240 . S
O470 In468 2.326 . S
O470 C478 1.252 . S
C471 O474 1.252 . S
C471 O475 1.260 . S
C472 O479 1.240 . S
C472 O480 1.252 . S
C473 O476 1.252 . S
C473 O477 1.260 . S
O474 In468 2.266 . S
O474 C471 1.252 . S
O475 In468 2.326 . S
O475 C471 1.260 . S
O476 In468 2.266 . S
O476 C473 1.252 . S
O477 In468 2.326 . S
O477 C473 1.260 . S
C478 O469 1.240 . S
C478 O470 1.252 . S
O479 In468 2.294 . S
O479 C472 1.240 . S
O480 In468 2.326 . S
O480 C472 1.252 . S
In481 O482 2.294 . S
In481 O483 2.326 . S
In481 O487 2.266 . S
In481 O488 2.326 . S
In481 O489 2.266 . S
In481 O490 2.326 . S
In481 O492 2.294 . S
In481 O493 2.326 . S
O482 In481 2.294 . S
O482 C491 1.240 . S
O483 In481 2.326 . S
O483 C491 1.252 . S
C484 O487 1.252 . S
C484 O488 1.260 . S
C485 O492 1.240 . S
C485 O493 1.252 . S
C486 O489 1.252 . S
C486 O490 1.260 . S
O487 In481 2.266 . S
O487 C484 1.252 . S
O488 In481 2.326 . S
O488 C484 1.260 . S
O489 In481 2.266 . S
O489 C486 1.252 . S
O490 In481 2.326 . S
O490 C486 1.260 . S
C491 O482 1.240 . S
C491 O483 1.252 . S
O492 In481 2.294 . S
O492 C485 1.240 . S
O493 In481 2.326 . S
O493 C485 1.252 . S
In494 O495 2.294 . S
In494 O496 2.326 . S
In494 O500 2.266 . S
In494 O501 2.326 . S
In494 O502 2.266 . S
In494 O503 2.326 . S
In494 O505 2.294 . S
In494 O506 2.326 . S
O495 In494 2.294 . S
O495 C504 1.240 . S
O496 In494 2.326 . S
O496 C504 1.252 . S
C497 O500 1.252 . S
C497 O501 1.260 . S
C498 O505 1.240 . S
C498 O506 1.252 . S
C499 O502 1.252 . S
C499 O503 1.260 . S
O500 In494 2.266 . S
O500 C497 1.252 . S
O501 In494 2.326 . S
O501 C497 1.260 . S
O502 In494 2.266 . S
O502 C499 1.252 . S
O503 In494 2.326 . S
O503 C499 1.260 . S
C504 O495 1.240 . S
C504 O496 1.252 . S
O505 In494 2.294 . S
O505 C498 1.240 . S
O506 In494 2.326 . S
O506 C498 1.252 . S
In507 O508 2.294 . S
In507 O509 2.326 . S
In507 O513 2.266 . S
In507 O514 2.326 . S
In507 O515 2.266 . S
In507 O516 2.326 . S
In507 O518 2.294 . S
In507 O519 2.326 . S
O508 In507 2.294 . S
O508 C517 1.240 . S
O509 In507 2.326 . S
O509 C517 1.252 . S
C510 O513 1.252 . S
C510 O514 1.260 . S
C511 O518 1.240 . S
C511 O519 1.252 . S
C512 O515 1.252 . S
C512 O516 1.260 . S
O513 In507 2.266 . S
O513 C510 1.252 . S
O514 In507 2.326 . S
O514 C510 1.260 . S
O515 In507 2.266 . S
O515 C512 1.252 . S
O516 In507 2.326 . S
O516 C512 1.260 . S
C517 O508 1.240 . S
C517 O509 1.252 . S
O518 In507 2.294 . S
O518 C511 1.240 . S
O519 In507 2.326 . S
O519 C511 1.252 . S
In520 O521 2.294 . S
In520 O522 2.326 . S
In520 O526 2.266 . S
In520 O527 2.326 . S
In520 O528 2.266 . S
In520 O529 2.326 . S
In520 O531 2.294 . S
In520 O532 2.326 . S
O521 In520 2.294 . S
O521 C530 1.240 . S
O522 In520 2.326 . S
O522 C530 1.252 . S
C523 O526 1.252 . S
C523 O527 1.260 . S
C524 O531 1.240 . S
C524 O532 1.252 . S
C525 O528 1.252 . S
C525 O529 1.260 . S
O526 In520 2.266 . S
O526 C523 1.252 . S
O527 In520 2.326 . S
O527 C523 1.260 . S
O528 In520 2.266 . S
O528 C525 1.252 . S
O529 In520 2.326 . S
O529 C525 1.260 . S
C530 O521 1.240 . S
C530 O522 1.252 . S
O531 In520 2.294 . S
O531 C524 1.240 . S
O532 In520 2.326 . S
O532 C524 1.252 . S
In533 O534 2.294 . S
In533 O535 2.326 . S
In533 O539 2.266 . S
In533 O540 2.326 . S
In533 O541 2.266 . S
In533 O542 2.326 . S
In533 O544 2.294 . S
In533 O545 2.326 . S
O534 In533 2.294 . S
O534 C543 1.240 . S
O535 In533 2.326 . S
O535 C543 1.252 . S
C536 O539 1.252 . S
C536 O540 1.260 . S
C537 O544 1.240 . S
C537 O545 1.252 . S
C538 O541 1.252 . S
C538 O542 1.260 . S
O539 In533 2.266 . S
O539 C536 1.252 . S
O540 In533 2.326 . S
O540 C536 1.260 . S
O541 In533 2.266 . S
O541 C538 1.252 . S
O542 In533 2.326 . S
O542 C538 1.260 . S
C543 O534 1.240 . S
C543 O535 1.252 . S
O544 In533 2.294 . S
O544 C537 1.240 . S
O545 In533 2.326 . S
O545 C537 1.252 . S
In546 O547 2.294 . S
In546 O548 2.326 . S
In546 O552 2.266 . S
In546 O553 2.326 . S
In546 O554 2.266 . S
In546 O555 2.326 . S
In546 O557 2.294 . S
In546 O558 2.326 . S
O547 In546 2.294 . S
O547 C556 1.240 . S
O548 In546 2.326 . S
O548 C556 1.252 . S
C549 O552 1.252 . S
C549 O553 1.260 . S
C550 O557 1.240 . S
C550 O558 1.252 . S
C551 O554 1.252 . S
C551 O555 1.260 . S
O552 In546 2.266 . S
O552 C549 1.252 . S
O553 In546 2.326 . S
O553 C549 1.260 . S
O554 In546 2.266 . S
O554 C551 1.252 . S
O555 In546 2.326 . S
O555 C551 1.260 . S
C556 O547 1.240 . S
C556 O548 1.252 . S
O557 In546 2.294 . S
O557 C550 1.240 . S
O558 In546 2.326 . S
O558 C550 1.252 . S
In559 O560 2.294 . S
In559 O561 2.326 . S
In559 O565 2.266 . S
In559 O566 2.326 . S
In559 O567 2.266 . S
In559 O568 2.326 . S
In559 O570 2.294 . S
In559 O571 2.326 . S
O560 In559 2.294 . S
O560 C569 1.240 . S
O561 In559 2.326 . S
O561 C569 1.252 . S
C562 O565 1.252 . S
C562 O566 1.260 . S
C563 O570 1.240 . S
C563 O571 1.252 . S
C564 O567 1.252 . S
C564 O568 1.260 . S
O565 In559 2.266 . S
O565 C562 1.252 . S
O566 In559 2.326 . S
O566 C562 1.260 . S
O567 In559 2.266 . S
O567 C564 1.252 . S
O568 In559 2.326 . S
O568 C564 1.260 . S
C569 O560 1.240 . S
C569 O561 1.252 . S
O570 In559 2.294 . S
O570 C563 1.240 . S
O571 In559 2.326 . S
O571 C563 1.252 . S
In572 O573 2.294 . S
In572 O574 2.326 . S
In572 O578 2.266 . S
In572 O579 2.326 . S
In572 O580 2.266 . S
In572 O581 2.326 . S
In572 O583 2.294 . S
In572 O584 2.326 . S
O573 In572 2.294 . S
O573 C582 1.240 . S
O574 In572 2.326 . S
O574 C582 1.252 . S
C575 O578 1.252 . S
C575 O579 1.260 . S
C576 O583 1.240 . S
C576 O584 1.252 . S
C577 O580 1.252 . S
C577 O581 1.260 . S
O578 In572 2.266 . S
O578 C575 1.252 . S
O579 In572 2.326 . S
O579 C575 1.260 . S
O580 In572 2.266 . S
O580 C577 1.252 . S
O581 In572 2.326 . S
O581 C577 1.260 . S
C582 O573 1.240 . S
C582 O574 1.252 . S
O583 In572 2.294 . S
O583 C576 1.240 . S
O584 In572 2.326 . S
O584 C576 1.252 . S
In585 O586 2.294 . S
In585 O587 2.326 . S
In585 O591 2.266 . S
In585 O592 2.326 . S
In585 O593 2.266 . S
In585 O594 2.326 . S
In585 O596 2.294 . S
In585 O597 2.326 . S
O586 In585 2.294 . S
O586 C595 1.240 . S
O587 In585 2.326 . S
O587 C595 1.252 . S
C588 O591 1.252 . S
C588 O592 1.260 . S
C589 O596 1.240 . S
C589 O597 1.252 . S
C590 O593 1.252 . S
C590 O594 1.260 . S
O591 In585 2.266 . S
O591 C588 1.252 . S
O592 In585 2.326 . S
O592 C588 1.260 . S
O593 In585 2.266 . S
O593 C590 1.252 . S
O594 In585 2.326 . S
O594 C590 1.260 . S
C595 O586 1.240 . S
C595 O587 1.252 . S
O596 In585 2.294 . S
O596 C589 1.240 . S
O597 In585 2.326 . S
O597 C589 1.252 . S
In598 O599 2.294 . S
In598 O600 2.326 . S
In598 O604 2.266 . S
In598 O605 2.326 . S
In598 O606 2.266 . S
In598 O607 2.326 . S
In598 O609 2.294 . S
In598 O610 2.326 . S
O599 In598 2.294 . S
O599 C608 1.240 . S
O600 In598 2.326 . S
O600 C608 1.252 . S
C601 O604 1.252 . S
C601 O605 1.260 . S
C602 O609 1.240 . S
C602 O610 1.252 . S
C603 O606 1.252 . S
C603 O607 1.260 . S
O604 In598 2.266 . S
O604 C601 1.252 . S
O605 In598 2.326 . S
O605 C601 1.260 . S
O606 In598 2.266 . S
O606 C603 1.252 . S
O607 In598 2.326 . S
O607 C603 1.260 . S
C608 O599 1.240 . S
C608 O600 1.252 . S
O609 In598 2.294 . S
O609 C602 1.240 . S
O610 In598 2.326 . S
O610 C602 1.252 . S
In611 O612 2.294 . S
In611 O613 2.326 . S
In611 O617 2.266 . S
In611 O618 2.326 . S
In611 O619 2.266 . S
In611 O620 2.326 . S
In611 O622 2.294 . S
In611 O623 2.326 . S
O612 In611 2.294 . S
O612 C621 1.240 . S
O613 In611 2.326 . S
O613 C621 1.252 . S
C614 O617 1.252 . S
C614 O618 1.260 . S
C615 O622 1.240 . S
C615 O623 1.252 . S
C616 O619 1.252 . S
C616 O620 1.260 . S
O617 In611 2.266 . S
O617 C614 1.252 . S
O618 In611 2.326 . S
O618 C614 1.260 . S
O619 In611 2.266 . S
O619 C616 1.252 . S
O620 In611 2.326 . S
O620 C616 1.260 . S
C621 O612 1.240 . S
C621 O613 1.252 . S
O622 In611 2.294 . S
O622 C615 1.240 . S
O623 In611 2.326 . S
O623 C615 1.252 . S
In624 O625 2.294 . S
In624 O626 2.326 . S
In624 O630 2.266 . S
In624 O631 2.326 . S
In624 O632 2.266 . S
In624 O633 2.326 . S
In624 O635 2.294 . S
In624 O636 2.326 . S
O625 In624 2.294 . S
O625 C634 1.240 . S
O626 In624 2.326 . S
O626 C634 1.252 . S
C627 O630 1.252 . S
C627 O631 1.260 . S
C628 O635 1.240 . S
C628 O636 1.252 . S
C629 O632 1.252 . S
C629 O633 1.260 . S
O630 In624 2.266 . S
O630 C627 1.252 . S
O631 In624 2.326 . S
O631 C627 1.260 . S
O632 In624 2.266 . S
O632 C629 1.252 . S
O633 In624 2.326 . S
O633 C629 1.260 . S
C634 O625 1.240 . S
C634 O626 1.252 . S
O635 In624 2.294 . S
O635 C628 1.240 . S
O636 In624 2.326 . S
O636 C628 1.252 . S
In637 O638 2.294 . S
In637 O639 2.326 . S
In637 O643 2.266 . S
In637 O644 2.326 . S
In637 O645 2.266 . S
In637 O646 2.326 . S
In637 O648 2.294 . S
In637 O649 2.326 . S
O638 In637 2.294 . S
O638 C647 1.240 . S
O639 In637 2.326 . S
O639 C647 1.252 . S
C640 O643 1.252 . S
C640 O644 1.260 . S
C641 O648 1.240 . S
C641 O649 1.252 . S
C642 O645 1.252 . S
C642 O646 1.260 . S
O643 In637 2.266 . S
O643 C640 1.252 . S
O644 In637 2.326 . S
O644 C640 1.260 . S
O645 In637 2.266 . S
O645 C642 1.252 . S
O646 In637 2.326 . S
O646 C642 1.260 . S
C647 O638 1.240 . S
C647 O639 1.252 . S
O648 In637 2.294 . S
O648 C641 1.240 . S
O649 In637 2.326 . S
O649 C641 1.252 . S
In650 O651 2.294 . S
In650 O652 2.326 . S
In650 O656 2.266 . S
In650 O657 2.326 . S
In650 O658 2.266 . S
In650 O659 2.326 . S
In650 O661 2.294 . S
In650 O662 2.326 . S
O651 In650 2.294 . S
O651 C660 1.240 . S
O652 In650 2.326 . S
O652 C660 1.252 . S
C653 O656 1.252 . S
C653 O657 1.260 . S
C654 O661 1.240 . S
C654 O662 1.252 . S
C655 O658 1.252 . S
C655 O659 1.260 . S
O656 In650 2.266 . S
O656 C653 1.252 . S
O657 In650 2.326 . S
O657 C653 1.260 . S
O658 In650 2.266 . S
O658 C655 1.252 . S
O659 In650 2.326 . S
O659 C655 1.260 . S
C660 O651 1.240 . S
C660 O652 1.252 . S
O661 In650 2.294 . S
O661 C654 1.240 . S
O662 In650 2.326 . S
O662 C654 1.252 . S
In663 O664 2.294 . S
In663 O665 2.326 . S
In663 O669 2.266 . S
In663 O670 2.326 . S
In663 O671 2.266 . S
In663 O672 2.326 . S
In663 O674 2.294 . S
In663 O675 2.326 . S
O664 In663 2.294 . S
O664 C673 1.240 . S
O665 In663 2.326 . S
O665 C673 1.252 . S
C666 O669 1.252 . S
C666 O670 1.260 . S
C667 O674 1.240 . S
C667 O675 1.252 . S
C668 O671 1.252 . S
C668 O672 1.260 . S
O669 In663 2.266 . S
O669 C666 1.252 . S
O670 In663 2.326 . S
O670 C666 1.260 . S
O671 In663 2.266 . S
O671 C668 1.252 . S
O672 In663 2.326 . S
O672 C668 1.260 . S
C673 O664 1.240 . S
C673 O665 1.252 . S
O674 In663 2.294 . S
O674 C667 1.240 . S
O675 In663 2.326 . S
O675 C667 1.252 . S
In676 O677 2.294 . S
In676 O678 2.326 . S
In676 O682 2.266 . S
In676 O683 2.326 . S
In676 O684 2.266 . S
In676 O685 2.326 . S
In676 O687 2.294 . S
In676 O688 2.326 . S
O677 In676 2.294 . S
O677 C686 1.240 . S
O678 In676 2.326 . S
O678 C686 1.252 . S
C679 O682 1.252 . S
C679 O683 1.260 . S
C680 O687 1.240 . S
C680 O688 1.252 . S
C681 O684 1.252 . S
C681 O685 1.260 . S
O682 In676 2.266 . S
O682 C679 1.252 . S
O683 In676 2.326 . S
O683 C679 1.260 . S
O684 In676 2.266 . S
O684 C681 1.252 . S
O685 In676 2.326 . S
O685 C681 1.260 . S
C686 O677 1.240 . S
C686 O678 1.252 . S
O687 In676 2.294 . S
O687 C680 1.240 . S
O688 In676 2.326 . S
O688 C680 1.252 . S
In689 O690 2.294 . S
In689 O691 2.326 . S
In689 O695 2.266 . S
In689 O696 2.326 . S
In689 O697 2.266 . S
In689 O698 2.326 . S
In689 O700 2.294 . S
In689 O701 2.326 . S
O690 In689 2.294 . S
O690 C699 1.240 . S
O691 In689 2.326 . S
O691 C699 1.252 . S
C692 O695 1.252 . S
C692 O696 1.260 . S
C693 O700 1.240 . S
C693 O701 1.252 . S
C694 O697 1.252 . S
C694 O698 1.260 . S
O695 In689 2.266 . S
O695 C692 1.252 . S
O696 In689 2.326 . S
O696 C692 1.260 . S
O697 In689 2.266 . S
O697 C694 1.252 . S
O698 In689 2.326 . S
O698 C694 1.260 . S
C699 O690 1.240 . S
C699 O691 1.252 . S
O700 In689 2.294 . S
O700 C693 1.240 . S
O701 In689 2.326 . S
O701 C693 1.252 . S
In702 O703 2.294 . S
In702 O704 2.326 . S
In702 O708 2.266 . S
In702 O709 2.326 . S
In702 O710 2.266 . S
In702 O711 2.326 . S
In702 O713 2.294 . S
In702 O714 2.326 . S
O703 In702 2.294 . S
O703 C712 1.240 . S
O704 In702 2.326 . S
O704 C712 1.252 . S
C705 O708 1.252 . S
C705 O709 1.260 . S
C706 O713 1.240 . S
C706 O714 1.252 . S
C707 O710 1.252 . S
C707 O711 1.260 . S
O708 In702 2.266 . S
O708 C705 1.252 . S
O709 In702 2.326 . S
O709 C705 1.260 . S
O710 In702 2.266 . S
O710 C707 1.252 . S
O711 In702 2.326 . S
O711 C707 1.260 . S
C712 O703 1.240 . S
C712 O704 1.252 . S
O713 In702 2.294 . S
O713 C706 1.240 . S
O714 In702 2.326 . S
O714 C706 1.252 . S
In715 O716 2.294 . S
In715 O717 2.326 . S
In715 O721 2.266 . S
In715 O722 2.326 . S
In715 O723 2.266 . S
In715 O724 2.326 . S
In715 O726 2.294 . S
In715 O727 2.326 . S
O716 In715 2.294 . S
O716 C725 1.240 . S
O717 In715 2.326 . S
O717 C725 1.252 . S
C718 O721 1.252 . S
C718 O722 1.260 . S
C719 O726 1.240 . S
C719 O727 1.252 . S
C720 O723 1.252 . S
C720 O724 1.260 . S
O721 In715 2.266 . S
O721 C718 1.252 . S
O722 In715 2.326 . S
O722 C718 1.260 . S
O723 In715 2.266 . S
O723 C720 1.252 . S
O724 In715 2.326 . S
O724 C720 1.260 . S
C725 O716 1.240 . S
C725 O717 1.252 . S
O726 In715 2.294 . S
O726 C719 1.240 . S
O727 In715 2.326 . S
O727 C719 1.252 . S
In728 O729 2.294 . S
In728 O730 2.326 . S
In728 O734 2.266 . S
In728 O735 2.326 . S
In728 O736 2.266 . S
In728 O737 2.326 . S
In728 O739 2.294 . S
In728 O740 2.326 . S
O729 In728 2.294 . S
O729 C738 1.240 . S
O730 In728 2.326 . S
O730 C738 1.252 . S
C731 O734 1.252 . S
C731 O735 1.260 . S
C732 O739 1.240 . S
C732 O740 1.252 . S
C733 O736 1.252 . S
C733 O737 1.260 . S
O734 In728 2.266 . S
O734 C731 1.252 . S
O735 In728 2.326 . S
O735 C731 1.260 . S
O736 In728 2.266 . S
O736 C733 1.252 . S
O737 In728 2.326 . S
O737 C733 1.260 . S
C738 O729 1.240 . S
C738 O730 1.252 . S
O739 In728 2.294 . S
O739 C732 1.240 . S
O740 In728 2.326 . S
O740 C732 1.252 . S
In741 O742 2.294 . S
In741 O743 2.326 . S
In741 O747 2.266 . S
In741 O748 2.326 . S
In741 O749 2.266 . S
In741 O750 2.326 . S
In741 O752 2.294 . S
In741 O753 2.326 . S
O742 In741 2.294 . S
O742 C751 1.240 . S
O743 In741 2.326 . S
O743 C751 1.252 . S
C744 O747 1.252 . S
C744 O748 1.260 . S
C745 O752 1.240 . S
C745 O753 1.252 . S
C746 O749 1.252 . S
C746 O750 1.260 . S
O747 In741 2.266 . S
O747 C744 1.252 . S
O748 In741 2.326 . S
O748 C744 1.260 . S
O749 In741 2.266 . S
O749 C746 1.252 . S
O750 In741 2.326 . S
O750 C746 1.260 . S
C751 O742 1.240 . S
C751 O743 1.252 . S
O752 In741 2.294 . S
O752 C745 1.240 . S
O753 In741 2.326 . S
O753 C745 1.252 . S
In754 O755 2.294 . S
In754 O756 2.326 . S
In754 O760 2.266 . S
In754 O761 2.326 . S
In754 O762 2.266 . S
In754 O763 2.326 . S
In754 O765 2.294 . S
In754 O766 2.326 . S
O755 In754 2.294 . S
O755 C764 1.240 . S
O756 In754 2.326 . S
O756 C764 1.252 . S
C757 O760 1.252 . S
C757 O761 1.260 . S
C758 O765 1.240 . S
C758 O766 1.252 . S
C759 O762 1.252 . S
C759 O763 1.260 . S
O760 In754 2.266 . S
O760 C757 1.252 . S
O761 In754 2.326 . S
O761 C757 1.260 . S
O762 In754 2.266 . S
O762 C759 1.252 . S
O763 In754 2.326 . S
O763 C759 1.260 . S
C764 O755 1.240 . S
C764 O756 1.252 . S
O765 In754 2.294 . S
O765 C758 1.240 . S
O766 In754 2.326 . S
O766 C758 1.252 . S
In767 O768 2.294 . S
In767 O769 2.326 . S
In767 O773 2.266 . S
In767 O774 2.326 . S
In767 O775 2.266 . S
In767 O776 2.326 . S
In767 O778 2.294 . S
In767 O779 2.326 . S
O768 In767 2.294 . S
O768 C777 1.240 . S
O769 In767 2.326 . S
O769 C777 1.252 . S
C770 O773 1.252 . S
C770 O774 1.260 . S
C771 O778 1.240 . S
C771 O779 1.252 . S
C772 O775 1.252 . S
C772 O776 1.260 . S
O773 In767 2.266 . S
O773 C770 1.252 . S
O774 In767 2.326 . S
O774 C770 1.260 . S
O775 In767 2.266 . S
O775 C772 1.252 . S
O776 In767 2.326 . S
O776 C772 1.260 . S
C777 O768 1.240 . S
C777 O769 1.252 . S
O778 In767 2.294 . S
O778 C771 1.240 . S
O779 In767 2.326 . S
O779 C771 1.252 . S
In780 O781 2.294 . S
In780 O782 2.326 . S
In780 O786 2.266 . S
In780 O787 2.326 . S
In780 O788 2.266 . S
In780 O789 2.326 . S
In780 O791 2.294 . S
In780 O792 2.326 . S
O781 In780 2.294 . S
O781 C790 1.240 . S
O782 In780 2.326 . S
O782 C790 1.252 . S
C783 O786 1.252 . S
C783 O787 1.260 . S
C784 O791 1.240 . S
C784 O792 1.252 . S
C785 O788 1.252 . S
C785 O789 1.260 . S
O786 In780 2.266 . S
O786 C783 1.252 . S
O787 In780 2.326 . S
O787 C783 1.260 . S
O788 In780 2.266 . S
O788 C785 1.252 . S
O789 In780 2.326 . S
O789 C785 1.260 . S
C790 O781 1.240 . S
C790 O782 1.252 . S
O791 In780 2.294 . S
O791 C784 1.240 . S
O792 In780 2.326 . S
O792 C784 1.252 . S
In793 O794 2.294 . S
In793 O795 2.326 . S
In793 O799 2.266 . S
In793 O800 2.326 . S
In793 O801 2.266 . S
In793 O802 2.326 . S
In793 O804 2.294 . S
In793 O805 2.326 . S
O794 In793 2.294 . S
O794 C803 1.240 . S
O795 In793 2.326 . S
O795 C803 1.252 . S
C796 O799 1.252 . S
C796 O800 1.260 . S
C797 O804 1.240 . S
C797 O805 1.252 . S
C798 O801 1.252 . S
C798 O802 1.260 . S
O799 In793 2.266 . S
O799 C796 1.252 . S
O800 In793 2.326 . S
O800 C796 1.260 . S
O801 In793 2.266 . S
O801 C798 1.252 . S
O802 In793 2.326 . S
O802 C798 1.260 . S
C803 O794 1.240 . S
C803 O795 1.252 . S
O804 In793 2.294 . S
O804 C797 1.240 . S
O805 In793 2.326 . S
O805 C797 1.252 . S
In806 O807 2.294 . S
In806 O808 2.326 . S
In806 O812 2.266 . S
In806 O813 2.326 . S
In806 O814 2.266 . S
In806 O815 2.326 . S
In806 O817 2.294 . S
In806 O818 2.326 . S
O807 In806 2.294 . S
O807 C816 1.240 . S
O808 In806 2.326 . S
O808 C816 1.252 . S
C809 O812 1.252 . S
C809 O813 1.260 . S
C810 O817 1.240 . S
C810 O818 1.252 . S
C811 O814 1.252 . S
C811 O815 1.260 . S
O812 In806 2.266 . S
O812 C809 1.252 . S
O813 In806 2.326 . S
O813 C809 1.260 . S
O814 In806 2.266 . S
O814 C811 1.252 . S
O815 In806 2.326 . S
O815 C811 1.260 . S
C816 O807 1.240 . S
C816 O808 1.252 . S
O817 In806 2.294 . S
O817 C810 1.240 . S
O818 In806 2.326 . S
O818 C810 1.252 . S
In819 O820 2.294 . S
In819 O821 2.326 . S
In819 O825 2.266 . S
In819 O826 2.326 . S
In819 O827 2.266 . S
In819 O828 2.326 . S
In819 O830 2.294 . S
In819 O831 2.326 . S
O820 In819 2.294 . S
O820 C829 1.240 . S
O821 In819 2.326 . S
O821 C829 1.252 . S
C822 O825 1.252 . S
C822 O826 1.260 . S
C823 O830 1.240 . S
C823 O831 1.252 . S
C824 O827 1.252 . S
C824 O828 1.260 . S
O825 In819 2.266 . S
O825 C822 1.252 . S
O826 In819 2.326 . S
O826 C822 1.260 . S
O827 In819 2.266 . S
O827 C824 1.252 . S
O828 In819 2.326 . S
O828 C824 1.260 . S
C829 O820 1.240 . S
C829 O821 1.252 . S
O830 In819 2.294 . S
O830 C823 1.240 . S
O831 In819 2.326 . S
O831 C823 1.252 . S
In832 O833 2.294 . S
In832 O834 2.326 . S
In832 O838 2.266 . S
In832 O839 2.326 . S
In832 O840 2.266 . S
In832 O841 2.326 . S
In832 O843 2.294 . S
In832 O844 2.326 . S
O833 In832 2.294 . S
O833 C842 1.240 . S
O834 In832 2.326 . S
O834 C842 1.252 . S
C835 O838 1.252 . S
C835 O839 1.260 . S
C836 O843 1.240 . S
C836 O844 1.252 . S
C837 O840 1.252 . S
C837 O841 1.260 . S
O838 In832 2.266 . S
O838 C835 1.252 . S
O839 In832 2.326 . S
O839 C835 1.260 . S
O840 In832 2.266 . S
O840 C837 1.252 . S
O841 In832 2.326 . S
O841 C837 1.260 . S
C842 O833 1.240 . S
C842 O834 1.252 . S
O843 In832 2.294 . S
O843 C836 1.240 . S
O844 In832 2.326 . S
O844 C836 1.252 . S
In845 O846 2.294 . S
In845 O847 2.326 . S
In845 O851 2.266 . S
In845 O852 2.326 . S
In845 O853 2.266 . S
In845 O854 2.326 . S
In845 O856 2.294 . S
In845 O857 2.326 . S
O846 In845 2.294 . S
O846 C855 1.240 . S
O847 In845 2.326 . S
O847 C855 1.252 . S
C848 O851 1.252 . S
C848 O852 1.260 . S
C849 O856 1.240 . S
C849 O857 1.252 . S
C850 O853 1.252 . S
C850 O854 1.260 . S
O851 In845 2.266 . S
O851 C848 1.252 . S
O852 In845 2.326 . S
O852 C848 1.260 . S
O853 In845 2.266 . S
O853 C850 1.252 . S
O854 In845 2.326 . S
O854 C850 1.260 . S
C855 O846 1.240 . S
C855 O847 1.252 . S
O856 In845 2.294 . S
O856 C849 1.240 . S
O857 In845 2.326 . S
O857 C849 1.252 . S
In858 O859 2.294 . S
In858 O860 2.326 . S
In858 O864 2.266 . S
In858 O865 2.326 . S
In858 O866 2.266 . S
In858 O867 2.326 . S
In858 O869 2.294 . S
In858 O870 2.326 . S
O859 In858 2.294 . S
O859 C868 1.240 . S
O860 In858 2.326 . S
O860 C868 1.252 . S
C861 O864 1.252 . S
C861 O865 1.260 . S
C862 O869 1.240 . S
C862 O870 1.252 . S
C863 O866 1.252 . S
C863 O867 1.260 . S
O864 In858 2.266 . S
O864 C861 1.252 . S
O865 In858 2.326 . S
O865 C861 1.260 . S
O866 In858 2.266 . S
O866 C863 1.252 . S
O867 In858 2.326 . S
O867 C863 1.260 . S
C868 O859 1.240 . S
C868 O860 1.252 . S
O869 In858 2.294 . S
O869 C862 1.240 . S
O870 In858 2.326 . S
O870 C862 1.252 . S
In871 O872 2.294 . S
In871 O873 2.326 . S
In871 O877 2.266 . S
In871 O878 2.326 . S
In871 O879 2.266 . S
In871 O880 2.326 . S
In871 O882 2.294 . S
In871 O883 2.326 . S
O872 In871 2.294 . S
O872 C881 1.240 . S
O873 In871 2.326 . S
O873 C881 1.252 . S
C874 O877 1.252 . S
C874 O878 1.260 . S
C875 O882 1.240 . S
C875 O883 1.252 . S
C876 O879 1.252 . S
C876 O880 1.260 . S
O877 In871 2.266 . S
O877 C874 1.252 . S
O878 In871 2.326 . S
O878 C874 1.260 . S
O879 In871 2.266 . S
O879 C876 1.252 . S
O880 In871 2.326 . S
O880 C876 1.260 . S
C881 O872 1.240 . S
C881 O873 1.252 . S
O882 In871 2.294 . S
O882 C875 1.240 . S
O883 In871 2.326 . S
O883 C875 1.252 . S
In884 O885 2.294 . S
In884 O886 2.326 . S
In884 O890 2.266 . S
In884 O891 2.326 . S
In884 O892 2.266 . S
In884 O893 2.326 . S
In884 O895 2.294 . S
In884 O896 2.326 . S
O885 In884 2.294 . S
O885 C894 1.240 . S
O886 In884 2.326 . S
O886 C894 1.252 . S
C887 O890 1.252 . S
C887 O891 1.260 . S
C888 O895 1.240 . S
C888 O896 1.252 . S
C889 O892 1.252 . S
C889 O893 1.260 . S
O890 In884 2.266 . S
O890 C887 1.252 . S
O891 In884 2.326 . S
O891 C887 1.260 . S
O892 In884 2.266 . S
O892 C889 1.252 . S
O893 In884 2.326 . S
O893 C889 1.260 . S
C894 O885 1.240 . S
C894 O886 1.252 . S
O895 In884 2.294 . S
O895 C888 1.240 . S
O896 In884 2.326 . S
O896 C888 1.252 . S
In897 O898 2.294 . S
In897 O899 2.326 . S
In897 O903 2.266 . S
In897 O904 2.326 . S
In897 O905 2.266 . S
In897 O906 2.326 . S
In897 O908 2.294 . S
In897 O909 2.326 . S
O898 In897 2.294 . S
O898 C907 1.240 . S
O899 In897 2.326 . S
O899 C907 1.252 . S
C900 O903 1.252 . S
C900 O904 1.260 . S
C901 O908 1.240 . S
C901 O909 1.252 . S
C902 O905 1.252 . S
C902 O906 1.260 . S
O903 In897 2.266 . S
O903 C900 1.252 . S
O904 In897 2.326 . S
O904 C900 1.260 . S
O905 In897 2.266 . S
O905 C902 1.252 . S
O906 In897 2.326 . S
O906 C902 1.260 . S
C907 O898 1.240 . S
C907 O899 1.252 . S
O908 In897 2.294 . S
O908 C901 1.240 . S
O909 In897 2.326 . S
O909 C901 1.252 . S
In910 O911 2.294 . S
In910 O912 2.326 . S
In910 O916 2.266 . S
In910 O917 2.326 . S
In910 O918 2.266 . S
In910 O919 2.326 . S
In910 O921 2.294 . S
In910 O922 2.326 . S
O911 In910 2.294 . S
O911 C920 1.240 . S
O912 In910 2.326 . S
O912 C920 1.252 . S
C913 O916 1.252 . S
C913 O917 1.260 . S
C914 O921 1.240 . S
C914 O922 1.252 . S
C915 O918 1.252 . S
C915 O919 1.260 . S
O916 In910 2.266 . S
O916 C913 1.252 . S
O917 In910 2.326 . S
O917 C913 1.260 . S
O918 In910 2.266 . S
O918 C915 1.252 . S
O919 In910 2.326 . S
O919 C915 1.260 . S
C920 O911 1.240 . S
C920 O912 1.252 . S
O921 In910 2.294 . S
O921 C914 1.240 . S
O922 In910 2.326 . S
O922 C914 1.252 . S
In923 O924 2.294 . S
In923 O925 2.326 . S
In923 O929 2.266 . S
In923 O930 2.326 . S
In923 O931 2.266 . S
In923 O932 2.326 . S
In923 O934 2.294 . S
In923 O935 2.326 . S
O924 In923 2.294 . S
O924 C933 1.240 . S
O925 In923 2.326 . S
O925 C933 1.252 . S
C926 O929 1.252 . S
C926 O930 1.260 . S
C927 O934 1.240 . S
C927 O935 1.252 . S
C928 O931 1.252 . S
C928 O932 1.260 . S
O929 In923 2.266 . S
O929 C926 1.252 . S
O930 In923 2.326 . S
O930 C926 1.260 . S
O931 In923 2.266 . S
O931 C928 1.252 . S
O932 In923 2.326 . S
O932 C928 1.260 . S
C933 O924 1.240 . S
C933 O925 1.252 . S
O934 In923 2.294 . S
O934 C927 1.240 . S
O935 In923 2.326 . S
O935 C927 1.252 . S
In936 O937 2.294 . S
In936 O938 2.326 . S
In936 O942 2.266 . S
In936 O943 2.326 . S
In936 O944 2.266 . S
In936 O945 2.326 . S
In936 O947 2.294 . S
In936 O948 2.326 . S
O937 In936 2.294 . S
O937 C946 1.240 . S
O938 In936 2.326 . S
O938 C946 1.252 . S
C939 O942 1.252 . S
C939 O943 1.260 . S
C940 O947 1.240 . S
C940 O948 1.252 . S
C941 O944 1.252 . S
C941 O945 1.260 . S
O942 In936 2.266 . S
O942 C939 1.252 . S
O943 In936 2.326 . S
O943 C939 1.260 . S
O944 In936 2.266 . S
O944 C941 1.252 . S
O945 In936 2.326 . S
O945 C941 1.260 . S
C946 O937 1.240 . S
C946 O938 1.252 . S
O947 In936 2.294 . S
O947 C940 1.240 . S
O948 In936 2.326 . S
O948 C940 1.252 . S
In949 O950 2.294 . S
In949 O951 2.326 . S
In949 O955 2.266 . S
In949 O956 2.326 . S
In949 O957 2.266 . S
In949 O958 2.326 . S
In949 O960 2.294 . S
In949 O961 2.326 . S
O950 In949 2.294 . S
O950 C959 1.240 . S
O951 In949 2.326 . S
O951 C959 1.252 . S
C952 O955 1.252 . S
C952 O956 1.260 . S
C953 O960 1.240 . S
C953 O961 1.252 . S
C954 O957 1.252 . S
C954 O958 1.260 . S
O955 In949 2.266 . S
O955 C952 1.252 . S
O956 In949 2.326 . S
O956 C952 1.260 . S
O957 In949 2.266 . S
O957 C954 1.252 . S
O958 In949 2.326 . S
O958 C954 1.260 . S
C959 O950 1.240 . S
C959 O951 1.252 . S
O960 In949 2.294 . S
O960 C953 1.240 . S
O961 In949 2.326 . S
O961 C953 1.252 . S
In962 O963 2.294 . S
In962 O964 2.326 . S
In962 O968 2.266 . S
In962 O969 2.326 . S
In962 O970 2.266 . S
In962 O971 2.326 . S
In962 O973 2.294 . S
In962 O974 2.326 . S
O963 In962 2.294 . S
O963 C972 1.240 . S
O964 In962 2.326 . S
O964 C972 1.252 . S
C965 O968 1.252 . S
C965 O969 1.260 . S
C966 O973 1.240 . S
C966 O974 1.252 . S
C967 O970 1.252 . S
C967 O971 1.260 . S
O968 In962 2.266 . S
O968 C965 1.252 . S
O969 In962 2.326 . S
O969 C965 1.260 . S
O970 In962 2.266 . S
O970 C967 1.252 . S
O971 In962 2.326 . S
O971 C967 1.260 . S
C972 O963 1.240 . S
C972 O964 1.252 . S
O973 In962 2.294 . S
O973 C966 1.240 . S
O974 In962 2.326 . S
O974 C966 1.252 . S
In975 O976 2.294 . S
In975 O977 2.326 . S
In975 O981 2.266 . S
In975 O982 2.326 . S
In975 O983 2.266 . S
In975 O984 2.326 . S
In975 O986 2.294 . S
In975 O987 2.326 . S
O976 In975 2.294 . S
O976 C985 1.240 . S
O977 In975 2.326 . S
O977 C985 1.252 . S
C978 O981 1.252 . S
C978 O982 1.260 . S
C979 O986 1.240 . S
C979 O987 1.252 . S
C980 O983 1.252 . S
C980 O984 1.260 . S
O981 In975 2.266 . S
O981 C978 1.252 . S
O982 In975 2.326 . S
O982 C978 1.260 . S
O983 In975 2.266 . S
O983 C980 1.252 . S
O984 In975 2.326 . S
O984 C980 1.260 . S
C985 O976 1.240 . S
C985 O977 1.252 . S
O986 In975 2.294 . S
O986 C979 1.240 . S
O987 In975 2.326 . S
O987 C979 1.252 . S
In988 O989 2.294 . S
In988 O990 2.326 . S
In988 O994 2.266 . S
In988 O995 2.326 . S
In988 O996 2.266 . S
In988 O997 2.326 . S
In988 O999 2.294 . S
In988 O1000 2.326 . S
O989 In988 2.294 . S
O989 C998 1.240 . S
O990 In988 2.326 . S
O990 C998 1.252 . S
C991 O994 1.252 . S
C991 O995 1.260 . S
C992 O999 1.240 . S
C992 O1000 1.252 . S
C993 O996 1.252 . S
C993 O997 1.260 . S
O994 In988 2.266 . S
O994 C991 1.252 . S
O995 In988 2.326 . S
O995 C991 1.260 . S
O996 In988 2.266 . S
O996 C993 1.252 . S
O997 In988 2.326 . S
O997 C993 1.260 . S
C998 O989 1.240 . S
C998 O990 1.252 . S
O999 In988 2.294 . S
O999 C992 1.240 . S
O1000 In988 2.326 . S
O1000 C992 1.252 . S
In1001 O1002 2.294 . S
In1001 O1003 2.326 . S
In1001 O1007 2.266 . S
In1001 O1008 2.326 . S
In1001 O1009 2.266 . S
In1001 O1010 2.326 . S
In1001 O1012 2.294 . S
In1001 O1013 2.326 . S
O1002 In1001 2.294 . S
O1002 C1011 1.240 . S
O1003 In1001 2.326 . S
O1003 C1011 1.252 . S
C1004 O1007 1.252 . S
C1004 O1008 1.260 . S
C1005 O1012 1.240 . S
C1005 O1013 1.252 . S
C1006 O1009 1.252 . S
C1006 O1010 1.260 . S
O1007 In1001 2.266 . S
O1007 C1004 1.252 . S
O1008 In1001 2.326 . S
O1008 C1004 1.260 . S
O1009 In1001 2.266 . S
O1009 C1006 1.252 . S
O1010 In1001 2.326 . S
O1010 C1006 1.260 . S
C1011 O1002 1.240 . S
C1011 O1003 1.252 . S
O1012 In1001 2.294 . S
O1012 C1005 1.240 . S
O1013 In1001 2.326 . S
O1013 C1005 1.252 . S
In1014 O1015 2.294 . S
In1014 O1016 2.326 . S
In1014 O1020 2.266 . S
In1014 O1021 2.326 . S
In1014 O1022 2.266 . S
In1014 O1023 2.326 . S
In1014 O1025 2.294 . S
In1014 O1026 2.326 . S
O1015 In1014 2.294 . S
O1015 C1024 1.240 . S
O1016 In1014 2.326 . S
O1016 C1024 1.252 . S
C1017 O1020 1.252 . S
C1017 O1021 1.260 . S
C1018 O1025 1.240 . S
C1018 O1026 1.252 . S
C1019 O1022 1.252 . S
C1019 O1023 1.260 . S
O1020 In1014 2.266 . S
O1020 C1017 1.252 . S
O1021 In1014 2.326 . S
O1021 C1017 1.260 . S
O1022 In1014 2.266 . S
O1022 C1019 1.252 . S
O1023 In1014 2.326 . S
O1023 C1019 1.260 . S
C1024 O1015 1.240 . S
C1024 O1016 1.252 . S
O1025 In1014 2.294 . S
O1025 C1018 1.240 . S
O1026 In1014 2.326 . S
O1026 C1018 1.252 . S
In1027 O1028 2.294 . S
In1027 O1029 2.326 . S
In1027 O1033 2.266 . S
In1027 O1034 2.326 . S
In1027 O1035 2.266 . S
In1027 O1036 2.326 . S
In1027 O1038 2.294 . S
In1027 O1039 2.326 . S
O1028 In1027 2.294 . S
O1028 C1037 1.240 . S
O1029 In1027 2.326 . S
O1029 C1037 1.252 . S
C1030 O1033 1.252 . S
C1030 O1034 1.260 . S
C1031 O1038 1.240 . S
C1031 O1039 1.252 . S
C1032 O1035 1.252 . S
C1032 O1036 1.260 . S
O1033 In1027 2.266 . S
O1033 C1030 1.252 . S
O1034 In1027 2.326 . S
O1034 C1030 1.260 . S
O1035 In1027 2.266 . S
O1035 C1032 1.252 . S
O1036 In1027 2.326 . S
O1036 C1032 1.260 . S
C1037 O1028 1.240 . S
C1037 O1029 1.252 . S
O1038 In1027 2.294 . S
O1038 C1031 1.240 . S
O1039 In1027 2.326 . S
O1039 C1031 1.252 . S
In1040 O1041 2.294 . S
In1040 O1042 2.326 . S
In1040 O1046 2.266 . S
In1040 O1047 2.326 . S
In1040 O1048 2.266 . S
In1040 O1049 2.326 . S
In1040 O1051 2.294 . S
In1040 O1052 2.326 . S
O1041 In1040 2.294 . S
O1041 C1050 1.240 . S
O1042 In1040 2.326 . S
O1042 C1050 1.252 . S
C1043 O1046 1.252 . S
C1043 O1047 1.260 . S
C1044 O1051 1.240 . S
C1044 O1052 1.252 . S
C1045 O1048 1.252 . S
C1045 O1049 1.260 . S
O1046 In1040 2.266 . S
O1046 C1043 1.252 . S
O1047 In1040 2.326 . S
O1047 C1043 1.260 . S
O1048 In1040 2.266 . S
O1048 C1045 1.252 . S
O1049 In1040 2.326 . S
O1049 C1045 1.260 . S
C1050 O1041 1.240 . S
C1050 O1042 1.252 . S
O1051 In1040 2.294 . S
O1051 C1044 1.240 . S
O1052 In1040 2.326 . S
O1052 C1044 1.252 . S
In1053 O1054 2.294 . S
In1053 O1055 2.326 . S
In1053 O1059 2.266 . S
In1053 O1060 2.326 . S
In1053 O1061 2.266 . S
In1053 O1062 2.326 . S
In1053 O1064 2.294 . S
In1053 O1065 2.326 . S
O1054 In1053 2.294 . S
O1054 C1063 1.240 . S
O1055 In1053 2.326 . S
O1055 C1063 1.252 . S
C1056 O1059 1.252 . S
C1056 O1060 1.260 . S
C1057 O1064 1.240 . S
C1057 O1065 1.252 . S
C1058 O1061 1.252 . S
C1058 O1062 1.260 . S
O1059 In1053 2.266 . S
O1059 C1056 1.252 . S
O1060 In1053 2.326 . S
O1060 C1056 1.260 . S
O1061 In1053 2.266 . S
O1061 C1058 1.252 . S
O1062 In1053 2.326 . S
O1062 C1058 1.260 . S
C1063 O1054 1.240 . S
C1063 O1055 1.252 . S
O1064 In1053 2.294 . S
O1064 C1057 1.240 . S
O1065 In1053 2.326 . S
O1065 C1057 1.252 . S
In1066 O1067 2.294 . S
In1066 O1068 2.326 . S
In1066 O1072 2.266 . S
In1066 O1073 2.326 . S
In1066 O1074 2.266 . S
In1066 O1075 2.326 . S
In1066 O1077 2.294 . S
In1066 O1078 2.326 . S
O1067 In1066 2.294 . S
O1067 C1076 1.240 . S
O1068 In1066 2.326 . S
O1068 C1076 1.252 . S
C1069 O1072 1.252 . S
C1069 O1073 1.260 . S
C1070 O1077 1.240 . S
C1070 O1078 1.252 . S
C1071 O1074 1.252 . S
C1071 O1075 1.260 . S
O1072 In1066 2.266 . S
O1072 C1069 1.252 . S
O1073 In1066 2.326 . S
O1073 C1069 1.260 . S
O1074 In1066 2.266 . S
O1074 C1071 1.252 . S
O1075 In1066 2.326 . S
O1075 C1071 1.260 . S
C1076 O1067 1.240 . S
C1076 O1068 1.252 . S
O1077 In1066 2.294 . S
O1077 C1070 1.240 . S
O1078 In1066 2.326 . S
O1078 C1070 1.252 . S
In1079 O1080 2.294 . S
In1079 O1081 2.326 . S
In1079 O1085 2.266 . S
In1079 O1086 2.326 . S
In1079 O1087 2.266 . S
In1079 O1088 2.326 . S
In1079 O1090 2.294 . S
In1079 O1091 2.326 . S
O1080 In1079 2.294 . S
O1080 C1089 1.240 . S
O1081 In1079 2.326 . S
O1081 C1089 1.252 . S
C1082 O1085 1.252 . S
C1082 O1086 1.260 . S
C1083 O1090 1.240 . S
C1083 O1091 1.252 . S
C1084 O1087 1.252 . S
C1084 O1088 1.260 . S
O1085 In1079 2.266 . S
O1085 C1082 1.252 . S
O1086 In1079 2.326 . S
O1086 C1082 1.260 . S
O1087 In1079 2.266 . S
O1087 C1084 1.252 . S
O1088 In1079 2.326 . S
O1088 C1084 1.260 . S
C1089 O1080 1.240 . S
C1089 O1081 1.252 . S
O1090 In1079 2.294 . S
O1090 C1083 1.240 . S
O1091 In1079 2.326 . S
O1091 C1083 1.252 . S
In1092 O1093 2.294 . S
In1092 O1094 2.326 . S
In1092 O1098 2.266 . S
In1092 O1099 2.326 . S
In1092 O1100 2.266 . S
In1092 O1101 2.326 . S
In1092 O1103 2.294 . S
In1092 O1104 2.326 . S
O1093 In1092 2.294 . S
O1093 C1102 1.240 . S
O1094 In1092 2.326 . S
O1094 C1102 1.252 . S
C1095 O1098 1.252 . S
C1095 O1099 1.260 . S
C1096 O1103 1.240 . S
C1096 O1104 1.252 . S
C1097 O1100 1.252 . S
C1097 O1101 1.260 . S
O1098 In1092 2.266 . S
O1098 C1095 1.252 . S
O1099 In1092 2.326 . S
O1099 C1095 1.260 . S
O1100 In1092 2.266 . S
O1100 C1097 1.252 . S
O1101 In1092 2.326 . S
O1101 C1097 1.260 . S
C1102 O1093 1.240 . S
C1102 O1094 1.252 . S
O1103 In1092 2.294 . S
O1103 C1096 1.240 . S
O1104 In1092 2.326 . S
O1104 C1096 1.252 . S
In1105 O1106 2.294 . S
In1105 O1107 2.326 . S
In1105 O1111 2.266 . S
In1105 O1112 2.326 . S
In1105 O1113 2.266 . S
In1105 O1114 2.326 . S
In1105 O1116 2.294 . S
In1105 O1117 2.326 . S
O1106 In1105 2.294 . S
O1106 C1115 1.240 . S
O1107 In1105 2.326 . S
O1107 C1115 1.252 . S
C1108 O1111 1.252 . S
C1108 O1112 1.260 . S
C1109 O1116 1.240 . S
C1109 O1117 1.252 . S
C1110 O1113 1.252 . S
C1110 O1114 1.260 . S
O1111 In1105 2.266 . S
O1111 C1108 1.252 . S
O1112 In1105 2.326 . S
O1112 C1108 1.260 . S
O1113 In1105 2.266 . S
O1113 C1110 1.252 . S
O1114 In1105 2.326 . S
O1114 C1110 1.260 . S
C1115 O1106 1.240 . S
C1115 O1107 1.252 . S
O1116 In1105 2.294 . S
O1116 C1109 1.240 . S
O1117 In1105 2.326 . S
O1117 C1109 1.252 . S
In1118 O1119 2.294 . S
In1118 O1120 2.326 . S
In1118 O1124 2.266 . S
In1118 O1125 2.326 . S
In1118 O1126 2.266 . S
In1118 O1127 2.326 . S
In1118 O1129 2.294 . S
In1118 O1130 2.326 . S
O1119 In1118 2.294 . S
O1119 C1128 1.240 . S
O1120 In1118 2.326 . S
O1120 C1128 1.252 . S
C1121 O1124 1.252 . S
C1121 O1125 1.260 . S
C1122 O1129 1.240 . S
C1122 O1130 1.252 . S
C1123 O1126 1.252 . S
C1123 O1127 1.260 . S
O1124 In1118 2.266 . S
O1124 C1121 1.252 . S
O1125 In1118 2.326 . S
O1125 C1121 1.260 . S
O1126 In1118 2.266 . S
O1126 C1123 1.252 . S
O1127 In1118 2.326 . S
O1127 C1123 1.260 . S
C1128 O1119 1.240 . S
C1128 O1120 1.252 . S
O1129 In1118 2.294 . S
O1129 C1122 1.240 . S
O1130 In1118 2.326 . S
O1130 C1122 1.252 . S
In1131 O1132 2.294 . S
In1131 O1133 2.326 . S
In1131 O1137 2.266 . S
In1131 O1138 2.326 . S
In1131 O1139 2.266 . S
In1131 O1140 2.326 . S
In1131 O1142 2.294 . S
In1131 O1143 2.326 . S
O1132 In1131 2.294 . S
O1132 C1141 1.240 . S
O1133 In1131 2.326 . S
O1133 C1141 1.252 . S
C1134 O1137 1.252 . S
C1134 O1138 1.260 . S
C1135 O1142 1.240 . S
C1135 O1143 1.252 . S
C1136 O1139 1.252 . S
C1136 O1140 1.260 . S
O1137 In1131 2.266 . S
O1137 C1134 1.252 . S
O1138 In1131 2.326 . S
O1138 C1134 1.260 . S
O1139 In1131 2.266 . S
O1139 C1136 1.252 . S
O1140 In1131 2.326 . S
O1140 C1136 1.260 . S
C1141 O1132 1.240 . S
C1141 O1133 1.252 . S
O1142 In1131 2.294 . S
O1142 C1135 1.240 . S
O1143 In1131 2.326 . S
O1143 C1135 1.252 . S
In1144 O1145 2.294 . S
In1144 O1146 2.326 . S
In1144 O1150 2.266 . S
In1144 O1151 2.326 . S
In1144 O1152 2.266 . S
In1144 O1153 2.326 . S
In1144 O1155 2.294 . S
In1144 O1156 2.326 . S
O1145 In1144 2.294 . S
O1145 C1154 1.240 . S
O1146 In1144 2.326 . S
O1146 C1154 1.252 . S
C1147 O1150 1.252 . S
C1147 O1151 1.260 . S
C1148 O1155 1.240 . S
C1148 O1156 1.252 . S
C1149 O1152 1.252 . S
C1149 O1153 1.260 . S
O1150 In1144 2.266 . S
O1150 C1147 1.252 . S
O1151 In1144 2.326 . S
O1151 C1147 1.260 . S
O1152 In1144 2.266 . S
O1152 C1149 1.252 . S
O1153 In1144 2.326 . S
O1153 C1149 1.260 . S
C1154 O1145 1.240 . S
C1154 O1146 1.252 . S
O1155 In1144 2.294 . S
O1155 C1148 1.240 . S
O1156 In1144 2.326 . S
O1156 C1148 1.252 . S
In1157 O1158 2.294 . S
In1157 O1159 2.326 . S
In1157 O1163 2.266 . S
In1157 O1164 2.326 . S
In1157 O1165 2.266 . S
In1157 O1166 2.326 . S
In1157 O1168 2.294 . S
In1157 O1169 2.326 . S
O1158 In1157 2.294 . S
O1158 C1167 1.240 . S
O1159 In1157 2.326 . S
O1159 C1167 1.252 . S
C1160 O1163 1.252 . S
C1160 O1164 1.260 . S
C1161 O1168 1.240 . S
C1161 O1169 1.252 . S
C1162 O1165 1.252 . S
C1162 O1166 1.260 . S
O1163 In1157 2.266 . S
O1163 C1160 1.252 . S
O1164 In1157 2.326 . S
O1164 C1160 1.260 . S
O1165 In1157 2.266 . S
O1165 C1162 1.252 . S
O1166 In1157 2.326 . S
O1166 C1162 1.260 . S
C1167 O1158 1.240 . S
C1167 O1159 1.252 . S
O1168 In1157 2.294 . S
O1168 C1161 1.240 . S
O1169 In1157 2.326 . S
O1169 C1161 1.252 . S
In1170 O1171 2.294 . S
In1170 O1172 2.326 . S
In1170 O1176 2.266 . S
In1170 O1177 2.326 . S
In1170 O1178 2.266 . S
In1170 O1179 2.326 . S
In1170 O1181 2.294 . S
In1170 O1182 2.326 . S
O1171 In1170 2.294 . S
O1171 C1180 1.240 . S
O1172 In1170 2.326 . S
O1172 C1180 1.252 . S
C1173 O1176 1.252 . S
C1173 O1177 1.260 . S
C1174 O1181 1.240 . S
C1174 O1182 1.252 . S
C1175 O1178 1.252 . S
C1175 O1179 1.260 . S
O1176 In1170 2.266 . S
O1176 C1173 1.252 . S
O1177 In1170 2.326 . S
O1177 C1173 1.260 . S
O1178 In1170 2.266 . S
O1178 C1175 1.252 . S
O1179 In1170 2.326 . S
O1179 C1175 1.260 . S
C1180 O1171 1.240 . S
C1180 O1172 1.252 . S
O1181 In1170 2.294 . S
O1181 C1174 1.240 . S
O1182 In1170 2.326 . S
O1182 C1174 1.252 . S
In1183 O1184 2.294 . S
In1183 O1185 2.326 . S
In1183 O1189 2.266 . S
In1183 O1190 2.326 . S
In1183 O1191 2.266 . S
In1183 O1192 2.326 . S
In1183 O1194 2.294 . S
In1183 O1195 2.326 . S
O1184 In1183 2.294 . S
O1184 C1193 1.240 . S
O1185 In1183 2.326 . S
O1185 C1193 1.252 . S
C1186 O1189 1.252 . S
C1186 O1190 1.260 . S
C1187 O1194 1.240 . S
C1187 O1195 1.252 . S
C1188 O1191 1.252 . S
C1188 O1192 1.260 . S
O1189 In1183 2.266 . S
O1189 C1186 1.252 . S
O1190 In1183 2.326 . S
O1190 C1186 1.260 . S
O1191 In1183 2.266 . S
O1191 C1188 1.252 . S
O1192 In1183 2.326 . S
O1192 C1188 1.260 . S
C1193 O1184 1.240 . S
C1193 O1185 1.252 . S
O1194 In1183 2.294 . S
O1194 C1187 1.240 . S
O1195 In1183 2.326 . S
O1195 C1187 1.252 . S
In1196 O1197 2.294 . S
In1196 O1198 2.326 . S
In1196 O1202 2.266 . S
In1196 O1203 2.326 . S
In1196 O1204 2.266 . S
In1196 O1205 2.326 . S
In1196 O1207 2.294 . S
In1196 O1208 2.326 . S
O1197 In1196 2.294 . S
O1197 C1206 1.240 . S
O1198 In1196 2.326 . S
O1198 C1206 1.252 . S
C1199 O1202 1.252 . S
C1199 O1203 1.260 . S
C1200 O1207 1.240 . S
C1200 O1208 1.252 . S
C1201 O1204 1.252 . S
C1201 O1205 1.260 . S
O1202 In1196 2.266 . S
O1202 C1199 1.252 . S
O1203 In1196 2.326 . S
O1203 C1199 1.260 . S
O1204 In1196 2.266 . S
O1204 C1201 1.252 . S
O1205 In1196 2.326 . S
O1205 C1201 1.260 . S
C1206 O1197 1.240 . S
C1206 O1198 1.252 . S
O1207 In1196 2.294 . S
O1207 C1200 1.240 . S
O1208 In1196 2.326 . S
O1208 C1200 1.252 . S
In1209 O1210 2.294 . S
In1209 O1211 2.326 . S
In1209 O1215 2.266 . S
In1209 O1216 2.326 . S
In1209 O1217 2.266 . S
In1209 O1218 2.326 . S
In1209 O1220 2.294 . S
In1209 O1221 2.326 . S
O1210 In1209 2.294 . S
O1210 C1219 1.240 . S
O1211 In1209 2.326 . S
O1211 C1219 1.252 . S
C1212 O1215 1.252 . S
C1212 O1216 1.260 . S
C1213 O1220 1.240 . S
C1213 O1221 1.252 . S
C1214 O1217 1.252 . S
C1214 O1218 1.260 . S
O1215 In1209 2.266 . S
O1215 C1212 1.252 . S
O1216 In1209 2.326 . S
O1216 C1212 1.260 . S
O1217 In1209 2.266 . S
O1217 C1214 1.252 . S
O1218 In1209 2.326 . S
O1218 C1214 1.260 . S
C1219 O1210 1.240 . S
C1219 O1211 1.252 . S
O1220 In1209 2.294 . S
O1220 C1213 1.240 . S
O1221 In1209 2.326 . S
O1221 C1213 1.252 . S
In1222 O1223 2.294 . S
In1222 O1224 2.326 . S
In1222 O1228 2.266 . S
In1222 O1229 2.326 . S
In1222 O1230 2.266 . S
In1222 O1231 2.326 . S
In1222 O1233 2.294 . S
In1222 O1234 2.326 . S
O1223 In1222 2.294 . S
O1223 C1232 1.240 . S
O1224 In1222 2.326 . S
O1224 C1232 1.252 . S
C1225 O1228 1.252 . S
C1225 O1229 1.260 . S
C1226 O1233 1.240 . S
C1226 O1234 1.252 . S
C1227 O1230 1.252 . S
C1227 O1231 1.260 . S
O1228 In1222 2.266 . S
O1228 C1225 1.252 . S
O1229 In1222 2.326 . S
O1229 C1225 1.260 . S
O1230 In1222 2.266 . S
O1230 C1227 1.252 . S
O1231 In1222 2.326 . S
O1231 C1227 1.260 . S
C1232 O1223 1.240 . S
C1232 O1224 1.252 . S
O1233 In1222 2.294 . S
O1233 C1226 1.240 . S
O1234 In1222 2.326 . S
O1234 C1226 1.252 . S
In1235 O1236 2.294 . S
In1235 O1237 2.326 . S
In1235 O1241 2.266 . S
In1235 O1242 2.326 . S
In1235 O1243 2.266 . S
In1235 O1244 2.326 . S
In1235 O1246 2.294 . S
In1235 O1247 2.326 . S
O1236 In1235 2.294 . S
O1236 C1245 1.240 . S
O1237 In1235 2.326 . S
O1237 C1245 1.252 . S
C1238 O1241 1.252 . S
C1238 O1242 1.260 . S
C1239 O1246 1.240 . S
C1239 O1247 1.252 . S
C1240 O1243 1.252 . S
C1240 O1244 1.260 . S
O1241 In1235 2.266 . S
O1241 C1238 1.252 . S
O1242 In1235 2.326 . S
O1242 C1238 1.260 . S
O1243 In1235 2.266 . S
O1243 C1240 1.252 . S
O1244 In1235 2.326 . S
O1244 C1240 1.260 . S
C1245 O1236 1.240 . S
C1245 O1237 1.252 . S
O1246 In1235 2.294 . S
O1246 C1239 1.240 . S
O1247 In1235 2.326 . S
O1247 C1239 1.252 . S
In1248 O1249 2.294 . S
In1248 O1250 2.326 . S
In1248 O1254 2.266 . S
In1248 O1255 2.326 . S
In1248 O1256 2.266 . S
In1248 O1257 2.326 . S
In1248 O1259 2.294 . S
In1248 O1260 2.326 . S
O1249 In1248 2.294 . S
O1249 C1258 1.240 . S
O1250 In1248 2.326 . S
O1250 C1258 1.252 . S
C1251 O1254 1.252 . S
C1251 O1255 1.260 . S
C1252 O1259 1.240 . S
C1252 O1260 1.252 . S
C1253 O1256 1.252 . S
C1253 O1257 1.260 . S
O1254 In1248 2.266 . S
O1254 C1251 1.252 . S
O1255 In1248 2.326 . S
O1255 C1251 1.260 . S
O1256 In1248 2.266 . S
O1256 C1253 1.252 . S
O1257 In1248 2.326 . S
O1257 C1253 1.260 . S
C1258 O1249 1.240 . S
C1258 O1250 1.252 . S
O1259 In1248 2.294 . S
O1259 C1252 1.240 . S
O1260 In1248 2.326 . S
O1260 C1252 1.252 . S
In1261 O1262 2.294 . S
In1261 O1263 2.326 . S
In1261 O1267 2.266 . S
In1261 O1268 2.326 . S
In1261 O1269 2.266 . S
In1261 O1270 2.326 . S
In1261 O1272 2.294 . S
In1261 O1273 2.326 . S
O1262 In1261 2.294 . S
O1262 C1271 1.240 . S
O1263 In1261 2.326 . S
O1263 C1271 1.252 . S
C1264 O1267 1.252 . S
C1264 O1268 1.260 . S
C1265 O1272 1.240 . S
C1265 O1273 1.252 . S
C1266 O1269 1.252 . S
C1266 O1270 1.260 . S
O1267 In1261 2.266 . S
O1267 C1264 1.252 . S
O1268 In1261 2.326 . S
O1268 C1264 1.260 . S
O1269 In1261 2.266 . S
O1269 C1266 1.252 . S
O1270 In1261 2.326 . S
O1270 C1266 1.260 . S
C1271 O1262 1.240 . S
C1271 O1263 1.252 . S
O1272 In1261 2.294 . S
O1272 C1265 1.240 . S
O1273 In1261 2.326 . S
O1273 C1265 1.252 . S
In1274 O1275 2.294 . S
In1274 O1276 2.326 . S
In1274 O1280 2.266 . S
In1274 O1281 2.326 . S
In1274 O1282 2.266 . S
In1274 O1283 2.326 . S
In1274 O1285 2.294 . S
In1274 O1286 2.326 . S
O1275 In1274 2.294 . S
O1275 C1284 1.240 . S
O1276 In1274 2.326 . S
O1276 C1284 1.252 . S
C1277 O1280 1.252 . S
C1277 O1281 1.260 . S
C1278 O1285 1.240 . S
C1278 O1286 1.252 . S
C1279 O1282 1.252 . S
C1279 O1283 1.260 . S
O1280 In1274 2.266 . S
O1280 C1277 1.252 . S
O1281 In1274 2.326 . S
O1281 C1277 1.260 . S
O1282 In1274 2.266 . S
O1282 C1279 1.252 . S
O1283 In1274 2.326 . S
O1283 C1279 1.260 . S
C1284 O1275 1.240 . S
C1284 O1276 1.252 . S
O1285 In1274 2.294 . S
O1285 C1278 1.240 . S
O1286 In1274 2.326 . S
O1286 C1278 1.252 . S
In1287 O1288 2.294 . S
In1287 O1289 2.326 . S
In1287 O1293 2.266 . S
In1287 O1294 2.326 . S
In1287 O1295 2.266 . S
In1287 O1296 2.326 . S
In1287 O1298 2.294 . S
In1287 O1299 2.326 . S
O1288 In1287 2.294 . S
O1288 C1297 1.240 . S
O1289 In1287 2.326 . S
O1289 C1297 1.252 . S
C1290 O1293 1.252 . S
C1290 O1294 1.260 . S
C1291 O1298 1.240 . S
C1291 O1299 1.252 . S
C1292 O1295 1.252 . S
C1292 O1296 1.260 . S
O1293 In1287 2.266 . S
O1293 C1290 1.252 . S
O1294 In1287 2.326 . S
O1294 C1290 1.260 . S
O1295 In1287 2.266 . S
O1295 C1292 1.252 . S
O1296 In1287 2.326 . S
O1296 C1292 1.260 . S
C1297 O1288 1.240 . S
C1297 O1289 1.252 . S
O1298 In1287 2.294 . S
O1298 C1291 1.240 . S
O1299 In1287 2.326 . S
O1299 C1291 1.252 . S
In1300 O1301 2.294 . S
In1300 O1302 2.326 . S
In1300 O1306 2.266 . S
In1300 O1307 2.326 . S
In1300 O1308 2.266 . S
In1300 O1309 2.326 . S
In1300 O1311 2.294 . S
In1300 O1312 2.326 . S
O1301 In1300 2.294 . S
O1301 C1310 1.240 . S
O1302 In1300 2.326 . S
O1302 C1310 1.252 . S
C1303 O1306 1.252 . S
C1303 O1307 1.260 . S
C1304 O1311 1.240 . S
C1304 O1312 1.252 . S
C1305 O1308 1.252 . S
C1305 O1309 1.260 . S
O1306 In1300 2.266 . S
O1306 C1303 1.252 . S
O1307 In1300 2.326 . S
O1307 C1303 1.260 . S
O1308 In1300 2.266 . S
O1308 C1305 1.252 . S
O1309 In1300 2.326 . S
O1309 C1305 1.260 . S
C1310 O1301 1.240 . S
C1310 O1302 1.252 . S
O1311 In1300 2.294 . S
O1311 C1304 1.240 . S
O1312 In1300 2.326 . S
O1312 C1304 1.252 . S
In1313 O1314 2.294 . S
In1313 O1315 2.326 . S
In1313 O1319 2.266 . S
In1313 O1320 2.326 . S
In1313 O1321 2.266 . S
In1313 O1322 2.326 . S
In1313 O1324 2.294 . S
In1313 O1325 2.326 . S
O1314 In1313 2.294 . S
O1314 C1323 1.240 . S
O1315 In1313 2.326 . S
O1315 C1323 1.252 . S
C1316 O1319 1.252 . S
C1316 O1320 1.260 . S
C1317 O1324 1.240 . S
C1317 O1325 1.252 . S
C1318 O1321 1.252 . S
C1318 O1322 1.260 . S
O1319 In1313 2.266 . S
O1319 C1316 1.252 . S
O1320 In1313 2.326 . S
O1320 C1316 1.260 . S
O1321 In1313 2.266 . S
O1321 C1318 1.252 . S
O1322 In1313 2.326 . S
O1322 C1318 1.260 . S
C1323 O1314 1.240 . S
C1323 O1315 1.252 . S
O1324 In1313 2.294 . S
O1324 C1317 1.240 . S
O1325 In1313 2.326 . S
O1325 C1317 1.252 . S
In1326 O1327 2.294 . S
In1326 O1328 2.326 . S
In1326 O1332 2.266 . S
In1326 O1333 2.326 . S
In1326 O1334 2.266 . S
In1326 O1335 2.326 . S
In1326 O1337 2.294 . S
In1326 O1338 2.326 . S
O1327 In1326 2.294 . S
O1327 C1336 1.240 . S
O1328 In1326 2.326 . S
O1328 C1336 1.252 . S
C1329 O1332 1.252 . S
C1329 O1333 1.260 . S
C1330 O1337 1.240 . S
C1330 O1338 1.252 . S
C1331 O1334 1.252 . S
C1331 O1335 1.260 . S
O1332 In1326 2.266 . S
O1332 C1329 1.252 . S
O1333 In1326 2.326 . S
O1333 C1329 1.260 . S
O1334 In1326 2.266 . S
O1334 C1331 1.252 . S
O1335 In1326 2.326 . S
O1335 C1331 1.260 . S
C1336 O1327 1.240 . S
C1336 O1328 1.252 . S
O1337 In1326 2.294 . S
O1337 C1330 1.240 . S
O1338 In1326 2.326 . S
O1338 C1330 1.252 . S
In1339 O1340 2.294 . S
In1339 O1341 2.326 . S
In1339 O1345 2.266 . S
In1339 O1346 2.326 . S
In1339 O1347 2.266 . S
In1339 O1348 2.326 . S
In1339 O1350 2.294 . S
In1339 O1351 2.326 . S
O1340 In1339 2.294 . S
O1340 C1349 1.240 . S
O1341 In1339 2.326 . S
O1341 C1349 1.252 . S
C1342 O1345 1.252 . S
C1342 O1346 1.260 . S
C1343 O1350 1.240 . S
C1343 O1351 1.252 . S
C1344 O1347 1.252 . S
C1344 O1348 1.260 . S
O1345 In1339 2.266 . S
O1345 C1342 1.252 . S
O1346 In1339 2.326 . S
O1346 C1342 1.260 . S
O1347 In1339 2.266 . S
O1347 C1344 1.252 . S
O1348 In1339 2.326 . S
O1348 C1344 1.260 . S
C1349 O1340 1.240 . S
C1349 O1341 1.252 . S
O1350 In1339 2.294 . S
O1350 C1343 1.240 . S
O1351 In1339 2.326 . S
O1351 C1343 1.252 . S
In1352 O1353 2.294 . S
In1352 O1354 2.326 . S
In1352 O1358 2.266 . S
In1352 O1359 2.326 . S
In1352 O1360 2.266 . S
In1352 O1361 2.326 . S
In1352 O1363 2.294 . S
In1352 O1364 2.326 . S
O1353 In1352 2.294 . S
O1353 C1362 1.240 . S
O1354 In1352 2.326 . S
O1354 C1362 1.252 . S
C1355 O1358 1.252 . S
C1355 O1359 1.260 . S
C1356 O1363 1.240 . S
C1356 O1364 1.252 . S
C1357 O1360 1.252 . S
C1357 O1361 1.260 . S
O1358 In1352 2.266 . S
O1358 C1355 1.252 . S
O1359 In1352 2.326 . S
O1359 C1355 1.260 . S
O1360 In1352 2.266 . S
O1360 C1357 1.252 . S
O1361 In1352 2.326 . S
O1361 C1357 1.260 . S
C1362 O1353 1.240 . S
C1362 O1354 1.252 . S
O1363 In1352 2.294 . S
O1363 C1356 1.240 . S
O1364 In1352 2.326 . S
O1364 C1356 1.252 . S
In1365 O1366 2.294 . S
In1365 O1367 2.326 . S
In1365 O1371 2.266 . S
In1365 O1372 2.326 . S
In1365 O1373 2.266 . S
In1365 O1374 2.326 . S
In1365 O1376 2.294 . S
In1365 O1377 2.326 . S
O1366 In1365 2.294 . S
O1366 C1375 1.240 . S
O1367 In1365 2.326 . S
O1367 C1375 1.252 . S
C1368 O1371 1.252 . S
C1368 O1372 1.260 . S
C1369 O1376 1.240 . S
C1369 O1377 1.252 . S
C1370 O1373 1.252 . S
C1370 O1374 1.260 . S
O1371 In1365 2.266 . S
O1371 C1368 1.252 . S
O1372 In1365 2.326 . S
O1372 C1368 1.260 . S
O1373 In1365 2.266 . S
O1373 C1370 1.252 . S
O1374 In1365 2.326 . S
O1374 C1370 1.260 . S
C1375 O1366 1.240 . S
C1375 O1367 1.252 . S
O1376 In1365 2.294 . S
O1376 C1369 1.240 . S
O1377 In1365 2.326 . S
O1377 C1369 1.252 . S
In1378 O1379 2.294 . S
In1378 O1380 2.326 . S
In1378 O1384 2.266 . S
In1378 O1385 2.326 . S
In1378 O1386 2.266 . S
In1378 O1387 2.326 . S
In1378 O1389 2.294 . S
In1378 O1390 2.326 . S
O1379 In1378 2.294 . S
O1379 C1388 1.240 . S
O1380 In1378 2.326 . S
O1380 C1388 1.252 . S
C1381 O1384 1.252 . S
C1381 O1385 1.260 . S
C1382 O1389 1.240 . S
C1382 O1390 1.252 . S
C1383 O1386 1.252 . S
C1383 O1387 1.260 . S
O1384 In1378 2.266 . S
O1384 C1381 1.252 . S
O1385 In1378 2.326 . S
O1385 C1381 1.260 . S
O1386 In1378 2.266 . S
O1386 C1383 1.252 . S
O1387 In1378 2.326 . S
O1387 C1383 1.260 . S
C1388 O1379 1.240 . S
C1388 O1380 1.252 . S
O1389 In1378 2.294 . S
O1389 C1382 1.240 . S
O1390 In1378 2.326 . S
O1390 C1382 1.252 . S
In1391 O1392 2.294 . S
In1391 O1393 2.326 . S
In1391 O1397 2.266 . S
In1391 O1398 2.326 . S
In1391 O1399 2.266 . S
In1391 O1400 2.326 . S
In1391 O1402 2.294 . S
In1391 O1403 2.326 . S
O1392 In1391 2.294 . S
O1392 C1401 1.240 . S
O1393 In1391 2.326 . S
O1393 C1401 1.252 . S
C1394 O1397 1.252 . S
C1394 O1398 1.260 . S
C1395 O1402 1.240 . S
C1395 O1403 1.252 . S
C1396 O1399 1.252 . S
C1396 O1400 1.260 . S
O1397 In1391 2.266 . S
O1397 C1394 1.252 . S
O1398 In1391 2.326 . S
O1398 C1394 1.260 . S
O1399 In1391 2.266 . S
O1399 C1396 1.252 . S
O1400 In1391 2.326 . S
O1400 C1396 1.260 . S
C1401 O1392 1.240 . S
C1401 O1393 1.252 . S
O1402 In1391 2.294 . S
O1402 C1395 1.240 . S
O1403 In1391 2.326 . S
O1403 C1395 1.252 . S
In1404 O1405 2.294 . S
In1404 O1406 2.326 . S
In1404 O1410 2.266 . S
In1404 O1411 2.326 . S
In1404 O1412 2.266 . S
In1404 O1413 2.326 . S
In1404 O1415 2.294 . S
In1404 O1416 2.326 . S
O1405 In1404 2.294 . S
O1405 C1414 1.240 . S
O1406 In1404 2.326 . S
O1406 C1414 1.252 . S
C1407 O1410 1.252 . S
C1407 O1411 1.260 . S
C1408 O1415 1.240 . S
C1408 O1416 1.252 . S
C1409 O1412 1.252 . S
C1409 O1413 1.260 . S
O1410 In1404 2.266 . S
O1410 C1407 1.252 . S
O1411 In1404 2.326 . S
O1411 C1407 1.260 . S
O1412 In1404 2.266 . S
O1412 C1409 1.252 . S
O1413 In1404 2.326 . S
O1413 C1409 1.260 . S
C1414 O1405 1.240 . S
C1414 O1406 1.252 . S
O1415 In1404 2.294 . S
O1415 C1408 1.240 . S
O1416 In1404 2.326 . S
O1416 C1408 1.252 . S
In1417 O1418 2.294 . S
In1417 O1419 2.326 . S
In1417 O1423 2.266 . S
In1417 O1424 2.326 . S
In1417 O1425 2.266 . S
In1417 O1426 2.326 . S
In1417 O1428 2.294 . S
In1417 O1429 2.326 . S
O1418 In1417 2.294 . S
O1418 C1427 1.240 . S
O1419 In1417 2.326 . S
O1419 C1427 1.252 . S
C1420 O1423 1.252 . S
C1420 O1424 1.260 . S
C1421 O1428 1.240 . S
C1421 O1429 1.252 . S
C1422 O1425 1.252 . S
C1422 O1426 1.260 . S
O1423 In1417 2.266 . S
O1423 C1420 1.252 . S
O1424 In1417 2.326 . S
O1424 C1420 1.260 . S
O1425 In1417 2.266 . S
O1425 C1422 1.252 . S
O1426 In1417 2.326 . S
O1426 C1422 1.260 . S
C1427 O1418 1.240 . S
C1427 O1419 1.252 . S
O1428 In1417 2.294 . S
O1428 C1421 1.240 . S
O1429 In1417 2.326 . S
O1429 C1421 1.252 . S
In1430 O1431 2.294 . S
In1430 O1432 2.326 . S
In1430 O1436 2.266 . S
In1430 O1437 2.326 . S
In1430 O1438 2.266 . S
In1430 O1439 2.326 . S
In1430 O1441 2.294 . S
In1430 O1442 2.326 . S
O1431 In1430 2.294 . S
O1431 C1440 1.240 . S
O1432 In1430 2.326 . S
O1432 C1440 1.252 . S
C1433 O1436 1.252 . S
C1433 O1437 1.260 . S
C1434 O1441 1.240 . S
C1434 O1442 1.252 . S
C1435 O1438 1.252 . S
C1435 O1439 1.260 . S
O1436 In1430 2.266 . S
O1436 C1433 1.252 . S
O1437 In1430 2.326 . S
O1437 C1433 1.260 . S
O1438 In1430 2.266 . S
O1438 C1435 1.252 . S
O1439 In1430 2.326 . S
O1439 C1435 1.260 . S
C1440 O1431 1.240 . S
C1440 O1432 1.252 . S
O1441 In1430 2.294 . S
O1441 C1434 1.240 . S
O1442 In1430 2.326 . S
O1442 C1434 1.252 . S
In1443 O1444 2.294 . S
In1443 O1445 2.326 . S
In1443 O1449 2.266 . S
In1443 O1450 2.326 . S
In1443 O1451 2.266 . S
In1443 O1452 2.326 . S
In1443 O1454 2.294 . S
In1443 O1455 2.326 . S
O1444 In1443 2.294 . S
O1444 C1453 1.240 . S
O1445 In1443 2.326 . S
O1445 C1453 1.252 . S
C1446 O1449 1.252 . S
C1446 O1450 1.260 . S
C1447 O1454 1.240 . S
C1447 O1455 1.252 . S
C1448 O1451 1.252 . S
C1448 O1452 1.260 . S
O1449 In1443 2.266 . S
O1449 C1446 1.252 . S
O1450 In1443 2.326 . S
O1450 C1446 1.260 . S
O1451 In1443 2.266 . S
O1451 C1448 1.252 . S
O1452 In1443 2.326 . S
O1452 C1448 1.260 . S
C1453 O1444 1.240 . S
C1453 O1445 1.252 . S
O1454 In1443 2.294 . S
O1454 C1447 1.240 . S
O1455 In1443 2.326 . S
O1455 C1447 1.252 . S
In1456 O1457 2.294 . S
In1456 O1458 2.326 . S
In1456 O1462 2.266 . S
In1456 O1463 2.326 . S
In1456 O1464 2.266 . S
In1456 O1465 2.326 . S
In1456 O1467 2.294 . S
In1456 O1468 2.326 . S
O1457 In1456 2.294 . S
O1457 C1466 1.240 . S
O1458 In1456 2.326 . S
O1458 C1466 1.252 . S
C1459 O1462 1.252 . S
C1459 O1463 1.260 . S
C1460 O1467 1.240 . S
C1460 O1468 1.252 . S
C1461 O1464 1.252 . S
C1461 O1465 1.260 . S
O1462 In1456 2.266 . S
O1462 C1459 1.252 . S
O1463 In1456 2.326 . S
O1463 C1459 1.260 . S
O1464 In1456 2.266 . S
O1464 C1461 1.252 . S
O1465 In1456 2.326 . S
O1465 C1461 1.260 . S
C1466 O1457 1.240 . S
C1466 O1458 1.252 . S
O1467 In1456 2.294 . S
O1467 C1460 1.240 . S
O1468 In1456 2.326 . S
O1468 C1460 1.252 . S
In1469 O1470 2.294 . S
In1469 O1471 2.326 . S
In1469 O1475 2.266 . S
In1469 O1476 2.326 . S
In1469 O1477 2.266 . S
In1469 O1478 2.326 . S
In1469 O1480 2.294 . S
In1469 O1481 2.326 . S
O1470 In1469 2.294 . S
O1470 C1479 1.240 . S
O1471 In1469 2.326 . S
O1471 C1479 1.252 . S
C1472 O1475 1.252 . S
C1472 O1476 1.260 . S
C1473 O1480 1.240 . S
C1473 O1481 1.252 . S
C1474 O1477 1.252 . S
C1474 O1478 1.260 . S
O1475 In1469 2.266 . S
O1475 C1472 1.252 . S
O1476 In1469 2.326 . S
O1476 C1472 1.260 . S
O1477 In1469 2.266 . S
O1477 C1474 1.252 . S
O1478 In1469 2.326 . S
O1478 C1474 1.260 . S
C1479 O1470 1.240 . S
C1479 O1471 1.252 . S
O1480 In1469 2.294 . S
O1480 C1473 1.240 . S
O1481 In1469 2.326 . S
O1481 C1473 1.252 . S
In1482 O1483 2.294 . S
In1482 O1484 2.326 . S
In1482 O1488 2.266 . S
In1482 O1489 2.326 . S
In1482 O1490 2.266 . S
In1482 O1491 2.326 . S
In1482 O1493 2.294 . S
In1482 O1494 2.326 . S
O1483 In1482 2.294 . S
O1483 C1492 1.240 . S
O1484 In1482 2.326 . S
O1484 C1492 1.252 . S
C1485 O1488 1.252 . S
C1485 O1489 1.260 . S
C1486 O1493 1.240 . S
C1486 O1494 1.252 . S
C1487 O1490 1.252 . S
C1487 O1491 1.260 . S
O1488 In1482 2.266 . S
O1488 C1485 1.252 . S
O1489 In1482 2.326 . S
O1489 C1485 1.260 . S
O1490 In1482 2.266 . S
O1490 C1487 1.252 . S
O1491 In1482 2.326 . S
O1491 C1487 1.260 . S
C1492 O1483 1.240 . S
C1492 O1484 1.252 . S
O1493 In1482 2.294 . S
O1493 C1486 1.240 . S
O1494 In1482 2.326 . S
O1494 C1486 1.252 . S
In1495 O1496 2.294 . S
In1495 O1497 2.326 . S
In1495 O1501 2.266 . S
In1495 O1502 2.326 . S
In1495 O1503 2.266 . S
In1495 O1504 2.326 . S
In1495 O1506 2.294 . S
In1495 O1507 2.326 . S
O1496 In1495 2.294 . S
O1496 C1505 1.240 . S
O1497 In1495 2.326 . S
O1497 C1505 1.252 . S
C1498 O1501 1.252 . S
C1498 O1502 1.260 . S
C1499 O1506 1.240 . S
C1499 O1507 1.252 . S
C1500 O1503 1.252 . S
C1500 O1504 1.260 . S
O1501 In1495 2.266 . S
O1501 C1498 1.252 . S
O1502 In1495 2.326 . S
O1502 C1498 1.260 . S
O1503 In1495 2.266 . S
O1503 C1500 1.252 . S
O1504 In1495 2.326 . S
O1504 C1500 1.260 . S
C1505 O1496 1.240 . S
C1505 O1497 1.252 . S
O1506 In1495 2.294 . S
O1506 C1499 1.240 . S
O1507 In1495 2.326 . S
O1507 C1499 1.252 . S
In1508 O1509 2.294 . S
In1508 O1510 2.326 . S
In1508 O1514 2.266 . S
In1508 O1515 2.326 . S
In1508 O1516 2.266 . S
In1508 O1517 2.326 . S
In1508 O1519 2.294 . S
In1508 O1520 2.326 . S
O1509 In1508 2.294 . S
O1509 C1518 1.240 . S
O1510 In1508 2.326 . S
O1510 C1518 1.252 . S
C1511 O1514 1.252 . S
C1511 O1515 1.260 . S
C1512 O1519 1.240 . S
C1512 O1520 1.252 . S
C1513 O1516 1.252 . S
C1513 O1517 1.260 . S
O1514 In1508 2.266 . S
O1514 C1511 1.252 . S
O1515 In1508 2.326 . S
O1515 C1511 1.260 . S
O1516 In1508 2.266 . S
O1516 C1513 1.252 . S
O1517 In1508 2.326 . S
O1517 C1513 1.260 . S
C1518 O1509 1.240 . S
C1518 O1510 1.252 . S
O1519 In1508 2.294 . S
O1519 C1512 1.240 . S
O1520 In1508 2.326 . S
O1520 C1512 1.252 . S
In1521 O1522 2.294 . S
In1521 O1523 2.326 . S
In1521 O1527 2.266 . S
In1521 O1528 2.326 . S
In1521 O1529 2.266 . S
In1521 O1530 2.326 . S
In1521 O1532 2.294 . S
In1521 O1533 2.326 . S
O1522 In1521 2.294 . S
O1522 C1531 1.240 . S
O1523 In1521 2.326 . S
O1523 C1531 1.252 . S
C1524 O1527 1.252 . S
C1524 O1528 1.260 . S
C1525 O1532 1.240 . S
C1525 O1533 1.252 . S
C1526 O1529 1.252 . S
C1526 O1530 1.260 . S
O1527 In1521 2.266 . S
O1527 C1524 1.252 . S
O1528 In1521 2.326 . S
O1528 C1524 1.260 . S
O1529 In1521 2.266 . S
O1529 C1526 1.252 . S
O1530 In1521 2.326 . S
O1530 C1526 1.260 . S
C1531 O1522 1.240 . S
C1531 O1523 1.252 . S
O1532 In1521 2.294 . S
O1532 C1525 1.240 . S
O1533 In1521 2.326 . S
O1533 C1525 1.252 . S
In1534 O1535 2.294 . S
In1534 O1536 2.326 . S
In1534 O1540 2.266 . S
In1534 O1541 2.326 . S
In1534 O1542 2.266 . S
In1534 O1543 2.326 . S
In1534 O1545 2.294 . S
In1534 O1546 2.326 . S
O1535 In1534 2.294 . S
O1535 C1544 1.240 . S
O1536 In1534 2.326 . S
O1536 C1544 1.252 . S
C1537 O1540 1.252 . S
C1537 O1541 1.260 . S
C1538 O1545 1.240 . S
C1538 O1546 1.252 . S
C1539 O1542 1.252 . S
C1539 O1543 1.260 . S
O1540 In1534 2.266 . S
O1540 C1537 1.252 . S
O1541 In1534 2.326 . S
O1541 C1537 1.260 . S
O1542 In1534 2.266 . S
O1542 C1539 1.252 . S
O1543 In1534 2.326 . S
O1543 C1539 1.260 . S
C1544 O1535 1.240 . S
C1544 O1536 1.252 . S
O1545 In1534 2.294 . S
O1545 C1538 1.240 . S
O1546 In1534 2.326 . S
O1546 C1538 1.252 . S
In1547 O1548 2.294 . S
In1547 O1549 2.326 . S
In1547 O1553 2.266 . S
In1547 O1554 2.326 . S
In1547 O1555 2.266 . S
In1547 O1556 2.326 . S
In1547 O1558 2.294 . S
In1547 O1559 2.326 . S
O1548 In1547 2.294 . S
O1548 C1557 1.240 . S
O1549 In1547 2.326 . S
O1549 C1557 1.252 . S
C1550 O1553 1.252 . S
C1550 O1554 1.260 . S
C1551 O1558 1.240 . S
C1551 O1559 1.252 . S
C1552 O1555 1.252 . S
C1552 O1556 1.260 . S
O1553 In1547 2.266 . S
O1553 C1550 1.252 . S
O1554 In1547 2.326 . S
O1554 C1550 1.260 . S
O1555 In1547 2.266 . S
O1555 C1552 1.252 . S
O1556 In1547 2.326 . S
O1556 C1552 1.260 . S
C1557 O1548 1.240 . S
C1557 O1549 1.252 . S
O1558 In1547 2.294 . S
O1558 C1551 1.240 . S
O1559 In1547 2.326 . S
O1559 C1551 1.252 . S
In1560 O1561 2.294 . S
In1560 O1562 2.326 . S
In1560 O1566 2.266 . S
In1560 O1567 2.326 . S
In1560 O1568 2.266 . S
In1560 O1569 2.326 . S
In1560 O1571 2.294 . S
In1560 O1572 2.326 . S
O1561 In1560 2.294 . S
O1561 C1570 1.240 . S
O1562 In1560 2.326 . S
O1562 C1570 1.252 . S
C1563 O1566 1.252 . S
C1563 O1567 1.260 . S
C1564 O1571 1.240 . S
C1564 O1572 1.252 . S
C1565 O1568 1.252 . S
C1565 O1569 1.260 . S
O1566 In1560 2.266 . S
O1566 C1563 1.252 . S
O1567 In1560 2.326 . S
O1567 C1563 1.260 . S
O1568 In1560 2.266 . S
O1568 C1565 1.252 . S
O1569 In1560 2.326 . S
O1569 C1565 1.260 . S
C1570 O1561 1.240 . S
C1570 O1562 1.252 . S
O1571 In1560 2.294 . S
O1571 C1564 1.240 . S
O1572 In1560 2.326 . S
O1572 C1564 1.252 . S
In1573 O1574 2.294 . S
In1573 O1575 2.326 . S
In1573 O1579 2.266 . S
In1573 O1580 2.326 . S
In1573 O1581 2.266 . S
In1573 O1582 2.326 . S
In1573 O1584 2.294 . S
In1573 O1585 2.326 . S
O1574 In1573 2.294 . S
O1574 C1583 1.240 . S
O1575 In1573 2.326 . S
O1575 C1583 1.252 . S
C1576 O1579 1.252 . S
C1576 O1580 1.260 . S
C1577 O1584 1.240 . S
C1577 O1585 1.252 . S
C1578 O1581 1.252 . S
C1578 O1582 1.260 . S
O1579 In1573 2.266 . S
O1579 C1576 1.252 . S
O1580 In1573 2.326 . S
O1580 C1576 1.260 . S
O1581 In1573 2.266 . S
O1581 C1578 1.252 . S
O1582 In1573 2.326 . S
O1582 C1578 1.260 . S
C1583 O1574 1.240 . S
C1583 O1575 1.252 . S
O1584 In1573 2.294 . S
O1584 C1577 1.240 . S
O1585 In1573 2.326 . S
O1585 C1577 1.252 . S
In1586 O1587 2.294 . S
In1586 O1588 2.326 . S
In1586 O1592 2.266 . S
In1586 O1593 2.326 . S
In1586 O1594 2.266 . S
In1586 O1595 2.326 . S
In1586 O1597 2.294 . S
In1586 O1598 2.326 . S
O1587 In1586 2.294 . S
O1587 C1596 1.240 . S
O1588 In1586 2.326 . S
O1588 C1596 1.252 . S
C1589 O1592 1.252 . S
C1589 O1593 1.260 . S
C1590 O1597 1.240 . S
C1590 O1598 1.252 . S
C1591 O1594 1.252 . S
C1591 O1595 1.260 . S
O1592 In1586 2.266 . S
O1592 C1589 1.252 . S
O1593 In1586 2.326 . S
O1593 C1589 1.260 . S
O1594 In1586 2.266 . S
O1594 C1591 1.252 . S
O1595 In1586 2.326 . S
O1595 C1591 1.260 . S
C1596 O1587 1.240 . S
C1596 O1588 1.252 . S
O1597 In1586 2.294 . S
O1597 C1590 1.240 . S
O1598 In1586 2.326 . S
O1598 C1590 1.252 . S
In1599 O1600 2.294 . S
In1599 O1601 2.326 . S
In1599 O1605 2.266 . S
In1599 O1606 2.326 . S
In1599 O1607 2.266 . S
In1599 O1608 2.326 . S
In1599 O1610 2.294 . S
In1599 O1611 2.326 . S
O1600 In1599 2.294 . S
O1600 C1609 1.240 . S
O1601 In1599 2.326 . S
O1601 C1609 1.252 . S
C1602 O1605 1.252 . S
C1602 O1606 1.260 . S
C1603 O1610 1.240 . S
C1603 O1611 1.252 . S
C1604 O1607 1.252 . S
C1604 O1608 1.260 . S
O1605 In1599 2.266 . S
O1605 C1602 1.252 . S
O1606 In1599 2.326 . S
O1606 C1602 1.260 . S
O1607 In1599 2.266 . S
O1607 C1604 1.252 . S
O1608 In1599 2.326 . S
O1608 C1604 1.260 . S
C1609 O1600 1.240 . S
C1609 O1601 1.252 . S
O1610 In1599 2.294 . S
O1610 C1603 1.240 . S
O1611 In1599 2.326 . S
O1611 C1603 1.252 . S
In1612 O1613 2.294 . S
In1612 O1614 2.326 . S
In1612 O1618 2.266 . S
In1612 O1619 2.326 . S
In1612 O1620 2.266 . S
In1612 O1621 2.326 . S
In1612 O1623 2.294 . S
In1612 O1624 2.326 . S
O1613 In1612 2.294 . S
O1613 C1622 1.240 . S
O1614 In1612 2.326 . S
O1614 C1622 1.252 . S
C1615 O1618 1.252 . S
C1615 O1619 1.260 . S
C1616 O1623 1.240 . S
C1616 O1624 1.252 . S
C1617 O1620 1.252 . S
C1617 O1621 1.260 . S
O1618 In1612 2.266 . S
O1618 C1615 1.252 . S
O1619 In1612 2.326 . S
O1619 C1615 1.260 . S
O1620 In1612 2.266 . S
O1620 C1617 1.252 . S
O1621 In1612 2.326 . S
O1621 C1617 1.260 . S
C1622 O1613 1.240 . S
C1622 O1614 1.252 . S
O1623 In1612 2.294 . S
O1623 C1616 1.240 . S
O1624 In1612 2.326 . S
O1624 C1616 1.252 . S
In1625 O1626 2.294 . S
In1625 O1627 2.326 . S
In1625 O1631 2.266 . S
In1625 O1632 2.326 . S
In1625 O1633 2.266 . S
In1625 O1634 2.326 . S
In1625 O1636 2.294 . S
In1625 O1637 2.326 . S
O1626 In1625 2.294 . S
O1626 C1635 1.240 . S
O1627 In1625 2.326 . S
O1627 C1635 1.252 . S
C1628 O1631 1.252 . S
C1628 O1632 1.260 . S
C1629 O1636 1.240 . S
C1629 O1637 1.252 . S
C1630 O1633 1.252 . S
C1630 O1634 1.260 . S
O1631 In1625 2.266 . S
O1631 C1628 1.252 . S
O1632 In1625 2.326 . S
O1632 C1628 1.260 . S
O1633 In1625 2.266 . S
O1633 C1630 1.252 . S
O1634 In1625 2.326 . S
O1634 C1630 1.260 . S
C1635 O1626 1.240 . S
C1635 O1627 1.252 . S
O1636 In1625 2.294 . S
O1636 C1629 1.240 . S
O1637 In1625 2.326 . S
O1637 C1629 1.252 . S
In1638 O1639 2.294 . S
In1638 O1640 2.326 . S
In1638 O1644 2.266 . S
In1638 O1645 2.326 . S
In1638 O1646 2.266 . S
In1638 O1647 2.326 . S
In1638 O1649 2.294 . S
In1638 O1650 2.326 . S
O1639 In1638 2.294 . S
O1639 C1648 1.240 . S
O1640 In1638 2.326 . S
O1640 C1648 1.252 . S
C1641 O1644 1.252 . S
C1641 O1645 1.260 . S
C1642 O1649 1.240 . S
C1642 O1650 1.252 . S
C1643 O1646 1.252 . S
C1643 O1647 1.260 . S
O1644 In1638 2.266 . S
O1644 C1641 1.252 . S
O1645 In1638 2.326 . S
O1645 C1641 1.260 . S
O1646 In1638 2.266 . S
O1646 C1643 1.252 . S
O1647 In1638 2.326 . S
O1647 C1643 1.260 . S
C1648 O1639 1.240 . S
C1648 O1640 1.252 . S
O1649 In1638 2.294 . S
O1649 C1642 1.240 . S
O1650 In1638 2.326 . S
O1650 C1642 1.252 . S
In1651 O1652 2.294 . S
In1651 O1653 2.326 . S
In1651 O1657 2.266 . S
In1651 O1658 2.326 . S
In1651 O1659 2.266 . S
In1651 O1660 2.326 . S
In1651 O1662 2.294 . S
In1651 O1663 2.326 . S
O1652 In1651 2.294 . S
O1652 C1661 1.240 . S
O1653 In1651 2.326 . S
O1653 C1661 1.252 . S
C1654 O1657 1.252 . S
C1654 O1658 1.260 . S
C1655 O1662 1.240 . S
C1655 O1663 1.252 . S
C1656 O1659 1.252 . S
C1656 O1660 1.260 . S
O1657 In1651 2.266 . S
O1657 C1654 1.252 . S
O1658 In1651 2.326 . S
O1658 C1654 1.260 . S
O1659 In1651 2.266 . S
O1659 C1656 1.252 . S
O1660 In1651 2.326 . S
O1660 C1656 1.260 . S
C1661 O1652 1.240 . S
C1661 O1653 1.252 . S
O1662 In1651 2.294 . S
O1662 C1655 1.240 . S
O1663 In1651 2.326 . S
O1663 C1655 1.252 . S
In1664 O1665 2.294 . S
In1664 O1666 2.326 . S
In1664 O1670 2.266 . S
In1664 O1671 2.326 . S
In1664 O1672 2.266 . S
In1664 O1673 2.326 . S
In1664 O1675 2.294 . S
In1664 O1676 2.326 . S
O1665 In1664 2.294 . S
O1665 C1674 1.240 . S
O1666 In1664 2.326 . S
O1666 C1674 1.252 . S
C1667 O1670 1.252 . S
C1667 O1671 1.260 . S
C1668 O1675 1.240 . S
C1668 O1676 1.252 . S
C1669 O1672 1.252 . S
C1669 O1673 1.260 . S
O1670 In1664 2.266 . S
O1670 C1667 1.252 . S
O1671 In1664 2.326 . S
O1671 C1667 1.260 . S
O1672 In1664 2.266 . S
O1672 C1669 1.252 . S
O1673 In1664 2.326 . S
O1673 C1669 1.260 . S
C1674 O1665 1.240 . S
C1674 O1666 1.252 . S
O1675 In1664 2.294 . S
O1675 C1668 1.240 . S
O1676 In1664 2.326 . S
O1676 C1668 1.252 . S
In1677 O1678 2.294 . S
In1677 O1679 2.326 . S
In1677 O1683 2.266 . S
In1677 O1684 2.326 . S
In1677 O1685 2.266 . S
In1677 O1686 2.326 . S
In1677 O1688 2.294 . S
In1677 O1689 2.326 . S
O1678 In1677 2.294 . S
O1678 C1687 1.240 . S
O1679 In1677 2.326 . S
O1679 C1687 1.252 . S
C1680 O1683 1.252 . S
C1680 O1684 1.260 . S
C1681 O1688 1.240 . S
C1681 O1689 1.252 . S
C1682 O1685 1.252 . S
C1682 O1686 1.260 . S
O1683 In1677 2.266 . S
O1683 C1680 1.252 . S
O1684 In1677 2.326 . S
O1684 C1680 1.260 . S
O1685 In1677 2.266 . S
O1685 C1682 1.252 . S
O1686 In1677 2.326 . S
O1686 C1682 1.260 . S
C1687 O1678 1.240 . S
C1687 O1679 1.252 . S
O1688 In1677 2.294 . S
O1688 C1681 1.240 . S
O1689 In1677 2.326 . S
O1689 C1681 1.252 . S
In1690 O1691 2.294 . S
In1690 O1692 2.326 . S
In1690 O1696 2.266 . S
In1690 O1697 2.326 . S
In1690 O1698 2.266 . S
In1690 O1699 2.326 . S
In1690 O1701 2.294 . S
In1690 O1702 2.326 . S
O1691 In1690 2.294 . S
O1691 C1700 1.240 . S
O1692 In1690 2.326 . S
O1692 C1700 1.252 . S
C1693 O1696 1.252 . S
C1693 O1697 1.260 . S
C1694 O1701 1.240 . S
C1694 O1702 1.252 . S
C1695 O1698 1.252 . S
C1695 O1699 1.260 . S
O1696 In1690 2.266 . S
O1696 C1693 1.252 . S
O1697 In1690 2.326 . S
O1697 C1693 1.260 . S
O1698 In1690 2.266 . S
O1698 C1695 1.252 . S
O1699 In1690 2.326 . S
O1699 C1695 1.260 . S
C1700 O1691 1.240 . S
C1700 O1692 1.252 . S
O1701 In1690 2.294 . S
O1701 C1694 1.240 . S
O1702 In1690 2.326 . S
O1702 C1694 1.252 . S
In1703 O1704 2.294 . S
In1703 O1705 2.326 . S
In1703 O1709 2.266 . S
In1703 O1710 2.326 . S
In1703 O1711 2.266 . S
In1703 O1712 2.326 . S
In1703 O1714 2.294 . S
In1703 O1715 2.326 . S
O1704 In1703 2.294 . S
O1704 C1713 1.240 . S
O1705 In1703 2.326 . S
O1705 C1713 1.252 . S
C1706 O1709 1.252 . S
C1706 O1710 1.260 . S
C1707 O1714 1.240 . S
C1707 O1715 1.252 . S
C1708 O1711 1.252 . S
C1708 O1712 1.260 . S
O1709 In1703 2.266 . S
O1709 C1706 1.252 . S
O1710 In1703 2.326 . S
O1710 C1706 1.260 . S
O1711 In1703 2.266 . S
O1711 C1708 1.252 . S
O1712 In1703 2.326 . S
O1712 C1708 1.260 . S
C1713 O1704 1.240 . S
C1713 O1705 1.252 . S
O1714 In1703 2.294 . S
O1714 C1707 1.240 . S
O1715 In1703 2.326 . S
O1715 C1707 1.252 . S
In1716 O1717 2.294 . S
In1716 O1718 2.326 . S
In1716 O1722 2.266 . S
In1716 O1723 2.326 . S
In1716 O1724 2.266 . S
In1716 O1725 2.326 . S
In1716 O1727 2.294 . S
In1716 O1728 2.326 . S
O1717 In1716 2.294 . S
O1717 C1726 1.240 . S
O1718 In1716 2.326 . S
O1718 C1726 1.252 . S
C1719 O1722 1.252 . S
C1719 O1723 1.260 . S
C1720 O1727 1.240 . S
C1720 O1728 1.252 . S
C1721 O1724 1.252 . S
C1721 O1725 1.260 . S
O1722 In1716 2.266 . S
O1722 C1719 1.252 . S
O1723 In1716 2.326 . S
O1723 C1719 1.260 . S
O1724 In1716 2.266 . S
O1724 C1721 1.252 . S
O1725 In1716 2.326 . S
O1725 C1721 1.260 . S
C1726 O1717 1.240 . S
C1726 O1718 1.252 . S
O1727 In1716 2.294 . S
O1727 C1720 1.240 . S
O1728 In1716 2.326 . S
O1728 C1720 1.252 . S
In1729 O1730 2.294 . S
In1729 O1731 2.326 . S
In1729 O1735 2.266 . S
In1729 O1736 2.326 . S
In1729 O1737 2.266 . S
In1729 O1738 2.326 . S
In1729 O1740 2.294 . S
In1729 O1741 2.326 . S
O1730 In1729 2.294 . S
O1730 C1739 1.240 . S
O1731 In1729 2.326 . S
O1731 C1739 1.252 . S
C1732 O1735 1.252 . S
C1732 O1736 1.260 . S
C1733 O1740 1.240 . S
C1733 O1741 1.252 . S
C1734 O1737 1.252 . S
C1734 O1738 1.260 . S
O1735 In1729 2.266 . S
O1735 C1732 1.252 . S
O1736 In1729 2.326 . S
O1736 C1732 1.260 . S
O1737 In1729 2.266 . S
O1737 C1734 1.252 . S
O1738 In1729 2.326 . S
O1738 C1734 1.260 . S
C1739 O1730 1.240 . S
C1739 O1731 1.252 . S
O1740 In1729 2.294 . S
O1740 C1733 1.240 . S
O1741 In1729 2.326 . S
O1741 C1733 1.252 . S
In1742 O1743 2.294 . S
In1742 O1744 2.326 . S
In1742 O1748 2.266 . S
In1742 O1749 2.326 . S
In1742 O1750 2.266 . S
In1742 O1751 2.326 . S
In1742 O1753 2.294 . S
In1742 O1754 2.326 . S
O1743 In1742 2.294 . S
O1743 C1752 1.240 . S
O1744 In1742 2.326 . S
O1744 C1752 1.252 . S
C1745 O1748 1.252 . S
C1745 O1749 1.260 . S
C1746 O1753 1.240 . S
C1746 O1754 1.252 . S
C1747 O1750 1.252 . S
C1747 O1751 1.260 . S
O1748 In1742 2.266 . S
O1748 C1745 1.252 . S
O1749 In1742 2.326 . S
O1749 C1745 1.260 . S
O1750 In1742 2.266 . S
O1750 C1747 1.252 . S
O1751 In1742 2.326 . S
O1751 C1747 1.260 . S
C1752 O1743 1.240 . S
C1752 O1744 1.252 . S
O1753 In1742 2.294 . S
O1753 C1746 1.240 . S
O1754 In1742 2.326 . S
O1754 C1746 1.252 . S
In1755 O1756 2.294 . S
In1755 O1757 2.326 . S
In1755 O1761 2.266 . S
In1755 O1762 2.326 . S
In1755 O1763 2.266 . S
In1755 O1764 2.326 . S
In1755 O1766 2.294 . S
In1755 O1767 2.326 . S
O1756 In1755 2.294 . S
O1756 C1765 1.240 . S
O1757 In1755 2.326 . S
O1757 C1765 1.252 . S
C1758 O1761 1.252 . S
C1758 O1762 1.260 . S
C1759 O1766 1.240 . S
C1759 O1767 1.252 . S
C1760 O1763 1.252 . S
C1760 O1764 1.260 . S
O1761 In1755 2.266 . S
O1761 C1758 1.252 . S
O1762 In1755 2.326 . S
O1762 C1758 1.260 . S
O1763 In1755 2.266 . S
O1763 C1760 1.252 . S
O1764 In1755 2.326 . S
O1764 C1760 1.260 . S
C1765 O1756 1.240 . S
C1765 O1757 1.252 . S
O1766 In1755 2.294 . S
O1766 C1759 1.240 . S
O1767 In1755 2.326 . S
O1767 C1759 1.252 . S
In1768 O1769 2.294 . S
In1768 O1770 2.326 . S
In1768 O1774 2.266 . S
In1768 O1775 2.326 . S
In1768 O1776 2.266 . S
In1768 O1777 2.326 . S
In1768 O1779 2.294 . S
In1768 O1780 2.326 . S
O1769 In1768 2.294 . S
O1769 C1778 1.240 . S
O1770 In1768 2.326 . S
O1770 C1778 1.252 . S
C1771 O1774 1.252 . S
C1771 O1775 1.260 . S
C1772 O1779 1.240 . S
C1772 O1780 1.252 . S
C1773 O1776 1.252 . S
C1773 O1777 1.260 . S
O1774 In1768 2.266 . S
O1774 C1771 1.252 . S
O1775 In1768 2.326 . S
O1775 C1771 1.260 . S
O1776 In1768 2.266 . S
O1776 C1773 1.252 . S
O1777 In1768 2.326 . S
O1777 C1773 1.260 . S
C1778 O1769 1.240 . S
C1778 O1770 1.252 . S
O1779 In1768 2.294 . S
O1779 C1772 1.240 . S
O1780 In1768 2.326 . S
O1780 C1772 1.252 . S
In1781 O1782 2.294 . S
In1781 O1783 2.326 . S
In1781 O1787 2.266 . S
In1781 O1788 2.326 . S
In1781 O1789 2.266 . S
In1781 O1790 2.326 . S
In1781 O1792 2.294 . S
In1781 O1793 2.326 . S
O1782 In1781 2.294 . S
O1782 C1791 1.240 . S
O1783 In1781 2.326 . S
O1783 C1791 1.252 . S
C1784 O1787 1.252 . S
C1784 O1788 1.260 . S
C1785 O1792 1.240 . S
C1785 O1793 1.252 . S
C1786 O1789 1.252 . S
C1786 O1790 1.260 . S
O1787 In1781 2.266 . S
O1787 C1784 1.252 . S
O1788 In1781 2.326 . S
O1788 C1784 1.260 . S
O1789 In1781 2.266 . S
O1789 C1786 1.252 . S
O1790 In1781 2.326 . S
O1790 C1786 1.260 . S
C1791 O1782 1.240 . S
C1791 O1783 1.252 . S
O1792 In1781 2.294 . S
O1792 C1785 1.240 . S
O1793 In1781 2.326 . S
O1793 C1785 1.252 . S
In1794 O1795 2.294 . S
In1794 O1796 2.326 . S
In1794 O1800 2.266 . S
In1794 O1801 2.326 . S
In1794 O1802 2.266 . S
In1794 O1803 2.326 . S
In1794 O1805 2.294 . S
In1794 O1806 2.326 . S
O1795 In1794 2.294 . S
O1795 C1804 1.240 . S
O1796 In1794 2.326 . S
O1796 C1804 1.252 . S
C1797 O1800 1.252 . S
C1797 O1801 1.260 . S
C1798 O1805 1.240 . S
C1798 O1806 1.252 . S
C1799 O1802 1.252 . S
C1799 O1803 1.260 . S
O1800 In1794 2.266 . S
O1800 C1797 1.252 . S
O1801 In1794 2.326 . S
O1801 C1797 1.260 . S
O1802 In1794 2.266 . S
O1802 C1799 1.252 . S
O1803 In1794 2.326 . S
O1803 C1799 1.260 . S
C1804 O1795 1.240 . S
C1804 O1796 1.252 . S
O1805 In1794 2.294 . S
O1805 C1798 1.240 . S
O1806 In1794 2.326 . S
O1806 C1798 1.252 . S
In1807 O1808 2.294 . S
In1807 O1809 2.326 . S
In1807 O1813 2.266 . S
In1807 O1814 2.326 . S
In1807 O1815 2.266 . S
In1807 O1816 2.326 . S
In1807 O1818 2.294 . S
In1807 O1819 2.326 . S
O1808 In1807 2.294 . S
O1808 C1817 1.240 . S
O1809 In1807 2.326 . S
O1809 C1817 1.252 . S
C1810 O1813 1.252 . S
C1810 O1814 1.260 . S
C1811 O1818 1.240 . S
C1811 O1819 1.252 . S
C1812 O1815 1.252 . S
C1812 O1816 1.260 . S
O1813 In1807 2.266 . S
O1813 C1810 1.252 . S
O1814 In1807 2.326 . S
O1814 C1810 1.260 . S
O1815 In1807 2.266 . S
O1815 C1812 1.252 . S
O1816 In1807 2.326 . S
O1816 C1812 1.260 . S
C1817 O1808 1.240 . S
C1817 O1809 1.252 . S
O1818 In1807 2.294 . S
O1818 C1811 1.240 . S
O1819 In1807 2.326 . S
O1819 C1811 1.252 . S
In1820 O1821 2.294 . S
In1820 O1822 2.326 . S
In1820 O1826 2.266 . S
In1820 O1827 2.326 . S
In1820 O1828 2.266 . S
In1820 O1829 2.326 . S
In1820 O1831 2.294 . S
In1820 O1832 2.326 . S
O1821 In1820 2.294 . S
O1821 C1830 1.240 . S
O1822 In1820 2.326 . S
O1822 C1830 1.252 . S
C1823 O1826 1.252 . S
C1823 O1827 1.260 . S
C1824 O1831 1.240 . S
C1824 O1832 1.252 . S
C1825 O1828 1.252 . S
C1825 O1829 1.260 . S
O1826 In1820 2.266 . S
O1826 C1823 1.252 . S
O1827 In1820 2.326 . S
O1827 C1823 1.260 . S
O1828 In1820 2.266 . S
O1828 C1825 1.252 . S
O1829 In1820 2.326 . S
O1829 C1825 1.260 . S
C1830 O1821 1.240 . S
C1830 O1822 1.252 . S
O1831 In1820 2.294 . S
O1831 C1824 1.240 . S
O1832 In1820 2.326 . S
O1832 C1824 1.252 . S
In1833 O1834 2.294 . S
In1833 O1835 2.326 . S
In1833 O1839 2.266 . S
In1833 O1840 2.326 . S
In1833 O1841 2.266 . S
In1833 O1842 2.326 . S
In1833 O1844 2.294 . S
In1833 O1845 2.326 . S
O1834 In1833 2.294 . S
O1834 C1843 1.240 . S
O1835 In1833 2.326 . S
O1835 C1843 1.252 . S
C1836 O1839 1.252 . S
C1836 O1840 1.260 . S
C1837 O1844 1.240 . S
C1837 O1845 1.252 . S
C1838 O1841 1.252 . S
C1838 O1842 1.260 . S
O1839 In1833 2.266 . S
O1839 C1836 1.252 . S
O1840 In1833 2.326 . S
O1840 C1836 1.260 . S
O1841 In1833 2.266 . S
O1841 C1838 1.252 . S
O1842 In1833 2.326 . S
O1842 C1838 1.260 . S
C1843 O1834 1.240 . S
C1843 O1835 1.252 . S
O1844 In1833 2.294 . S
O1844 C1837 1.240 . S
O1845 In1833 2.326 . S
O1845 C1837 1.252 . S
In1846 O1847 2.294 . S
In1846 O1848 2.326 . S
In1846 O1852 2.266 . S
In1846 O1853 2.326 . S
In1846 O1854 2.266 . S
In1846 O1855 2.326 . S
In1846 O1857 2.294 . S
In1846 O1858 2.326 . S
O1847 In1846 2.294 . S
O1847 C1856 1.240 . S
O1848 In1846 2.326 . S
O1848 C1856 1.252 . S
C1849 O1852 1.252 . S
C1849 O1853 1.260 . S
C1850 O1857 1.240 . S
C1850 O1858 1.252 . S
C1851 O1854 1.252 . S
C1851 O1855 1.260 . S
O1852 In1846 2.266 . S
O1852 C1849 1.252 . S
O1853 In1846 2.326 . S
O1853 C1849 1.260 . S
O1854 In1846 2.266 . S
O1854 C1851 1.252 . S
O1855 In1846 2.326 . S
O1855 C1851 1.260 . S
C1856 O1847 1.240 . S
C1856 O1848 1.252 . S
O1857 In1846 2.294 . S
O1857 C1850 1.240 . S
O1858 In1846 2.326 . S
O1858 C1850 1.252 . S
In1859 O1860 2.294 . S
In1859 O1861 2.326 . S
In1859 O1865 2.266 . S
In1859 O1866 2.326 . S
In1859 O1867 2.266 . S
In1859 O1868 2.326 . S
In1859 O1870 2.294 . S
In1859 O1871 2.326 . S
O1860 In1859 2.294 . S
O1860 C1869 1.240 . S
O1861 In1859 2.326 . S
O1861 C1869 1.252 . S
C1862 O1865 1.252 . S
C1862 O1866 1.260 . S
C1863 O1870 1.240 . S
C1863 O1871 1.252 . S
C1864 O1867 1.252 . S
C1864 O1868 1.260 . S
O1865 In1859 2.266 . S
O1865 C1862 1.252 . S
O1866 In1859 2.326 . S
O1866 C1862 1.260 . S
O1867 In1859 2.266 . S
O1867 C1864 1.252 . S
O1868 In1859 2.326 . S
O1868 C1864 1.260 . S
C1869 O1860 1.240 . S
C1869 O1861 1.252 . S
O1870 In1859 2.294 . S
O1870 C1863 1.240 . S
O1871 In1859 2.326 . S
O1871 C1863 1.252 . S
In1872 O1873 2.294 . S
In1872 O1874 2.326 . S
In1872 O1878 2.266 . S
In1872 O1879 2.326 . S
In1872 O1880 2.266 . S
In1872 O1881 2.326 . S
In1872 O1883 2.294 . S
In1872 O1884 2.326 . S
O1873 In1872 2.294 . S
O1873 C1882 1.240 . S
O1874 In1872 2.326 . S
O1874 C1882 1.252 . S
C1875 O1878 1.252 . S
C1875 O1879 1.260 . S
C1876 O1883 1.240 . S
C1876 O1884 1.252 . S
C1877 O1880 1.252 . S
C1877 O1881 1.260 . S
O1878 In1872 2.266 . S
O1878 C1875 1.252 . S
O1879 In1872 2.326 . S
O1879 C1875 1.260 . S
O1880 In1872 2.266 . S
O1880 C1877 1.252 . S
O1881 In1872 2.326 . S
O1881 C1877 1.260 . S
C1882 O1873 1.240 . S
C1882 O1874 1.252 . S
O1883 In1872 2.294 . S
O1883 C1876 1.240 . S
O1884 In1872 2.326 . S
O1884 C1876 1.252 . S
In1885 O1886 2.294 . S
In1885 O1887 2.326 . S
In1885 O1891 2.266 . S
In1885 O1892 2.326 . S
In1885 O1893 2.266 . S
In1885 O1894 2.326 . S
In1885 O1896 2.294 . S
In1885 O1897 2.326 . S
O1886 In1885 2.294 . S
O1886 C1895 1.240 . S
O1887 In1885 2.326 . S
O1887 C1895 1.252 . S
C1888 O1891 1.252 . S
C1888 O1892 1.260 . S
C1889 O1896 1.240 . S
C1889 O1897 1.252 . S
C1890 O1893 1.252 . S
C1890 O1894 1.260 . S
O1891 In1885 2.266 . S
O1891 C1888 1.252 . S
O1892 In1885 2.326 . S
O1892 C1888 1.260 . S
O1893 In1885 2.266 . S
O1893 C1890 1.252 . S
O1894 In1885 2.326 . S
O1894 C1890 1.260 . S
C1895 O1886 1.240 . S
C1895 O1887 1.252 . S
O1896 In1885 2.294 . S
O1896 C1889 1.240 . S
O1897 In1885 2.326 . S
O1897 C1889 1.252 . S
In1898 O1899 2.294 . S
In1898 O1900 2.326 . S
In1898 O1904 2.266 . S
In1898 O1905 2.326 . S
In1898 O1906 2.266 . S
In1898 O1907 2.326 . S
In1898 O1909 2.294 . S
In1898 O1910 2.326 . S
O1899 In1898 2.294 . S
O1899 C1908 1.240 . S
O1900 In1898 2.326 . S
O1900 C1908 1.252 . S
C1901 O1904 1.252 . S
C1901 O1905 1.260 . S
C1902 O1909 1.240 . S
C1902 O1910 1.252 . S
C1903 O1906 1.252 . S
C1903 O1907 1.260 . S
O1904 In1898 2.266 . S
O1904 C1901 1.252 . S
O1905 In1898 2.326 . S
O1905 C1901 1.260 . S
O1906 In1898 2.266 . S
O1906 C1903 1.252 . S
O1907 In1898 2.326 . S
O1907 C1903 1.260 . S
C1908 O1899 1.240 . S
C1908 O1900 1.252 . S
O1909 In1898 2.294 . S
O1909 C1902 1.240 . S
O1910 In1898 2.326 . S
O1910 C1902 1.252 . S
In1911 O1912 2.294 . S
In1911 O1913 2.326 . S
In1911 O1917 2.266 . S
In1911 O1918 2.326 . S
In1911 O1919 2.266 . S
In1911 O1920 2.326 . S
In1911 O1922 2.294 . S
In1911 O1923 2.326 . S
O1912 In1911 2.294 . S
O1912 C1921 1.240 . S
O1913 In1911 2.326 . S
O1913 C1921 1.252 . S
C1914 O1917 1.252 . S
C1914 O1918 1.260 . S
C1915 O1922 1.240 . S
C1915 O1923 1.252 . S
C1916 O1919 1.252 . S
C1916 O1920 1.260 . S
O1917 In1911 2.266 . S
O1917 C1914 1.252 . S
O1918 In1911 2.326 . S
O1918 C1914 1.260 . S
O1919 In1911 2.266 . S
O1919 C1916 1.252 . S
O1920 In1911 2.326 . S
O1920 C1916 1.260 . S
C1921 O1912 1.240 . S
C1921 O1913 1.252 . S
O1922 In1911 2.294 . S
O1922 C1915 1.240 . S
O1923 In1911 2.326 . S
O1923 C1915 1.252 . S
In1924 O1925 2.294 . S
In1924 O1926 2.326 . S
In1924 O1930 2.266 . S
In1924 O1931 2.326 . S
In1924 O1932 2.266 . S
In1924 O1933 2.326 . S
In1924 O1935 2.294 . S
In1924 O1936 2.326 . S
O1925 In1924 2.294 . S
O1925 C1934 1.240 . S
O1926 In1924 2.326 . S
O1926 C1934 1.252 . S
C1927 O1930 1.252 . S
C1927 O1931 1.260 . S
C1928 O1935 1.240 . S
C1928 O1936 1.252 . S
C1929 O1932 1.252 . S
C1929 O1933 1.260 . S
O1930 In1924 2.266 . S
O1930 C1927 1.252 . S
O1931 In1924 2.326 . S
O1931 C1927 1.260 . S
O1932 In1924 2.266 . S
O1932 C1929 1.252 . S
O1933 In1924 2.326 . S
O1933 C1929 1.260 . S
C1934 O1925 1.240 . S
C1934 O1926 1.252 . S
O1935 In1924 2.294 . S
O1935 C1928 1.240 . S
O1936 In1924 2.326 . S
O1936 C1928 1.252 . S
In1937 O1938 2.294 . S
In1937 O1939 2.326 . S
In1937 O1943 2.266 . S
In1937 O1944 2.326 . S
In1937 O1945 2.266 . S
In1937 O1946 2.326 . S
In1937 O1948 2.294 . S
In1937 O1949 2.326 . S
O1938 In1937 2.294 . S
O1938 C1947 1.240 . S
O1939 In1937 2.326 . S
O1939 C1947 1.252 . S
C1940 O1943 1.252 . S
C1940 O1944 1.260 . S
C1941 O1948 1.240 . S
C1941 O1949 1.252 . S
C1942 O1945 1.252 . S
C1942 O1946 1.260 . S
O1943 In1937 2.266 . S
O1943 C1940 1.252 . S
O1944 In1937 2.326 . S
O1944 C1940 1.260 . S
O1945 In1937 2.266 . S
O1945 C1942 1.252 . S
O1946 In1937 2.326 . S
O1946 C1942 1.260 . S
C1947 O1938 1.240 . S
C1947 O1939 1.252 . S
O1948 In1937 2.294 . S
O1948 C1941 1.240 . S
O1949 In1937 2.326 . S
O1949 C1941 1.252 . S
In1950 O1951 2.294 . S
In1950 O1952 2.326 . S
In1950 O1956 2.266 . S
In1950 O1957 2.326 . S
In1950 O1958 2.266 . S
In1950 O1959 2.326 . S
In1950 O1961 2.294 . S
In1950 O1962 2.326 . S
O1951 In1950 2.294 . S
O1951 C1960 1.240 . S
O1952 In1950 2.326 . S
O1952 C1960 1.252 . S
C1953 O1956 1.252 . S
C1953 O1957 1.260 . S
C1954 O1961 1.240 . S
C1954 O1962 1.252 . S
C1955 O1958 1.252 . S
C1955 O1959 1.260 . S
O1956 In1950 2.266 . S
O1956 C1953 1.252 . S
O1957 In1950 2.326 . S
O1957 C1953 1.260 . S
O1958 In1950 2.266 . S
O1958 C1955 1.252 . S
O1959 In1950 2.326 . S
O1959 C1955 1.260 . S
C1960 O1951 1.240 . S
C1960 O1952 1.252 . S
O1961 In1950 2.294 . S
O1961 C1954 1.240 . S
O1962 In1950 2.326 . S
O1962 C1954 1.252 . S
In1963 O1964 2.294 . S
In1963 O1965 2.326 . S
In1963 O1969 2.266 . S
In1963 O1970 2.326 . S
In1963 O1971 2.266 . S
In1963 O1972 2.326 . S
In1963 O1974 2.294 . S
In1963 O1975 2.326 . S
O1964 In1963 2.294 . S
O1964 C1973 1.240 . S
O1965 In1963 2.326 . S
O1965 C1973 1.252 . S
C1966 O1969 1.252 . S
C1966 O1970 1.260 . S
C1967 O1974 1.240 . S
C1967 O1975 1.252 . S
C1968 O1971 1.252 . S
C1968 O1972 1.260 . S
O1969 In1963 2.266 . S
O1969 C1966 1.252 . S
O1970 In1963 2.326 . S
O1970 C1966 1.260 . S
O1971 In1963 2.266 . S
O1971 C1968 1.252 . S
O1972 In1963 2.326 . S
O1972 C1968 1.260 . S
C1973 O1964 1.240 . S
C1973 O1965 1.252 . S
O1974 In1963 2.294 . S
O1974 C1967 1.240 . S
O1975 In1963 2.326 . S
O1975 C1967 1.252 . S
In1976 O1977 2.294 . S
In1976 O1978 2.326 . S
In1976 O1982 2.266 . S
In1976 O1983 2.326 . S
In1976 O1984 2.266 . S
In1976 O1985 2.326 . S
In1976 O1987 2.294 . S
In1976 O1988 2.326 . S
O1977 In1976 2.294 . S
O1977 C1986 1.240 . S
O1978 In1976 2.326 . S
O1978 C1986 1.252 . S
C1979 O1982 1.252 . S
C1979 O1983 1.260 . S
C1980 O1987 1.240 . S
C1980 O1988 1.252 . S
C1981 O1984 1.252 . S
C1981 O1985 1.260 . S
O1982 In1976 2.266 . S
O1982 C1979 1.252 . S
O1983 In1976 2.326 . S
O1983 C1979 1.260 . S
O1984 In1976 2.266 . S
O1984 C1981 1.252 . S
O1985 In1976 2.326 . S
O1985 C1981 1.260 . S
C1986 O1977 1.240 . S
C1986 O1978 1.252 . S
O1987 In1976 2.294 . S
O1987 C1980 1.240 . S
O1988 In1976 2.326 . S
O1988 C1980 1.252 . S
In1989 O1990 2.294 . S
In1989 O1991 2.326 . S
In1989 O1995 2.266 . S
In1989 O1996 2.326 . S
In1989 O1997 2.266 . S
In1989 O1998 2.326 . S
In1989 O2000 2.294 . S
In1989 O2001 2.326 . S
O1990 In1989 2.294 . S
O1990 C1999 1.240 . S
O1991 In1989 2.326 . S
O1991 C1999 1.252 . S
C1992 O1995 1.252 . S
C1992 O1996 1.260 . S
C1993 O2000 1.240 . S
C1993 O2001 1.252 . S
C1994 O1997 1.252 . S
C1994 O1998 1.260 . S
O1995 In1989 2.266 . S
O1995 C1992 1.252 . S
O1996 In1989 2.326 . S
O1996 C1992 1.260 . S
O1997 In1989 2.266 . S
O1997 C1994 1.252 . S
O1998 In1989 2.326 . S
O1998 C1994 1.260 . S
C1999 O1990 1.240 . S
C1999 O1991 1.252 . S
O2000 In1989 2.294 . S
O2000 C1993 1.240 . S
O2001 In1989 2.326 . S
O2001 C1993 1.252 . S
In2002 O2003 2.294 . S
In2002 O2004 2.326 . S
In2002 O2008 2.266 . S
In2002 O2009 2.326 . S
In2002 O2010 2.266 . S
In2002 O2011 2.326 . S
In2002 O2013 2.294 . S
In2002 O2014 2.326 . S
O2003 In2002 2.294 . S
O2003 C2012 1.240 . S
O2004 In2002 2.326 . S
O2004 C2012 1.252 . S
C2005 O2008 1.252 . S
C2005 O2009 1.260 . S
C2006 O2013 1.240 . S
C2006 O2014 1.252 . S
C2007 O2010 1.252 . S
C2007 O2011 1.260 . S
O2008 In2002 2.266 . S
O2008 C2005 1.252 . S
O2009 In2002 2.326 . S
O2009 C2005 1.260 . S
O2010 In2002 2.266 . S
O2010 C2007 1.252 . S
O2011 In2002 2.326 . S
O2011 C2007 1.260 . S
C2012 O2003 1.240 . S
C2012 O2004 1.252 . S
O2013 In2002 2.294 . S
O2013 C2006 1.240 . S
O2014 In2002 2.326 . S
O2014 C2006 1.252 . S
In2015 O2016 2.294 . S
In2015 O2017 2.326 . S
In2015 O2021 2.266 . S
In2015 O2022 2.326 . S
In2015 O2023 2.266 . S
In2015 O2024 2.326 . S
In2015 O2026 2.294 . S
In2015 O2027 2.326 . S
O2016 In2015 2.294 . S
O2016 C2025 1.240 . S
O2017 In2015 2.326 . S
O2017 C2025 1.252 . S
C2018 O2021 1.252 . S
C2018 O2022 1.260 . S
C2019 O2026 1.240 . S
C2019 O2027 1.252 . S
C2020 O2023 1.252 . S
C2020 O2024 1.260 . S
O2021 In2015 2.266 . S
O2021 C2018 1.252 . S
O2022 In2015 2.326 . S
O2022 C2018 1.260 . S
O2023 In2015 2.266 . S
O2023 C2020 1.252 . S
O2024 In2015 2.326 . S
O2024 C2020 1.260 . S
C2025 O2016 1.240 . S
C2025 O2017 1.252 . S
O2026 In2015 2.294 . S
O2026 C2019 1.240 . S
O2027 In2015 2.326 . S
O2027 C2019 1.252 . S
In2028 O2029 2.294 . S
In2028 O2030 2.326 . S
In2028 O2034 2.266 . S
In2028 O2035 2.326 . S
In2028 O2036 2.266 . S
In2028 O2037 2.326 . S
In2028 O2039 2.294 . S
In2028 O2040 2.326 . S
O2029 In2028 2.294 . S
O2029 C2038 1.240 . S
O2030 In2028 2.326 . S
O2030 C2038 1.252 . S
C2031 O2034 1.252 . S
C2031 O2035 1.260 . S
C2032 O2039 1.240 . S
C2032 O2040 1.252 . S
C2033 O2036 1.252 . S
C2033 O2037 1.260 . S
O2034 In2028 2.266 . S
O2034 C2031 1.252 . S
O2035 In2028 2.326 . S
O2035 C2031 1.260 . S
O2036 In2028 2.266 . S
O2036 C2033 1.252 . S
O2037 In2028 2.326 . S
O2037 C2033 1.260 . S
C2038 O2029 1.240 . S
C2038 O2030 1.252 . S
O2039 In2028 2.294 . S
O2039 C2032 1.240 . S
O2040 In2028 2.326 . S
O2040 C2032 1.252 . S
In2041 O2042 2.294 . S
In2041 O2043 2.326 . S
In2041 O2047 2.266 . S
In2041 O2048 2.326 . S
In2041 O2049 2.266 . S
In2041 O2050 2.326 . S
In2041 O2052 2.294 . S
In2041 O2053 2.326 . S
O2042 In2041 2.294 . S
O2042 C2051 1.240 . S
O2043 In2041 2.326 . S
O2043 C2051 1.252 . S
C2044 O2047 1.252 . S
C2044 O2048 1.260 . S
C2045 O2052 1.240 . S
C2045 O2053 1.252 . S
C2046 O2049 1.252 . S
C2046 O2050 1.260 . S
O2047 In2041 2.266 . S
O2047 C2044 1.252 . S
O2048 In2041 2.326 . S
O2048 C2044 1.260 . S
O2049 In2041 2.266 . S
O2049 C2046 1.252 . S
O2050 In2041 2.326 . S
O2050 C2046 1.260 . S
C2051 O2042 1.240 . S
C2051 O2043 1.252 . S
O2052 In2041 2.294 . S
O2052 C2045 1.240 . S
O2053 In2041 2.326 . S
O2053 C2045 1.252 . S
In2054 O2055 2.294 . S
In2054 O2056 2.326 . S
In2054 O2060 2.266 . S
In2054 O2061 2.326 . S
In2054 O2062 2.266 . S
In2054 O2063 2.326 . S
In2054 O2065 2.294 . S
In2054 O2066 2.326 . S
O2055 In2054 2.294 . S
O2055 C2064 1.240 . S
O2056 In2054 2.326 . S
O2056 C2064 1.252 . S
C2057 O2060 1.252 . S
C2057 O2061 1.260 . S
C2058 O2065 1.240 . S
C2058 O2066 1.252 . S
C2059 O2062 1.252 . S
C2059 O2063 1.260 . S
O2060 In2054 2.266 . S
O2060 C2057 1.252 . S
O2061 In2054 2.326 . S
O2061 C2057 1.260 . S
O2062 In2054 2.266 . S
O2062 C2059 1.252 . S
O2063 In2054 2.326 . S
O2063 C2059 1.260 . S
C2064 O2055 1.240 . S
C2064 O2056 1.252 . S
O2065 In2054 2.294 . S
O2065 C2058 1.240 . S
O2066 In2054 2.326 . S
O2066 C2058 1.252 . S
In2067 O2068 2.294 . S
In2067 O2069 2.326 . S
In2067 O2073 2.266 . S
In2067 O2074 2.326 . S
In2067 O2075 2.266 . S
In2067 O2076 2.326 . S
In2067 O2078 2.294 . S
In2067 O2079 2.326 . S
O2068 In2067 2.294 . S
O2068 C2077 1.240 . S
O2069 In2067 2.326 . S
O2069 C2077 1.252 . S
C2070 O2073 1.252 . S
C2070 O2074 1.260 . S
C2071 O2078 1.240 . S
C2071 O2079 1.252 . S
C2072 O2075 1.252 . S
C2072 O2076 1.260 . S
O2073 In2067 2.266 . S
O2073 C2070 1.252 . S
O2074 In2067 2.326 . S
O2074 C2070 1.260 . S
O2075 In2067 2.266 . S
O2075 C2072 1.252 . S
O2076 In2067 2.326 . S
O2076 C2072 1.260 . S
C2077 O2068 1.240 . S
C2077 O2069 1.252 . S
O2078 In2067 2.294 . S
O2078 C2071 1.240 . S
O2079 In2067 2.326 . S
O2079 C2071 1.252 . S
In2080 O2081 2.294 . S
In2080 O2082 2.326 . S
In2080 O2086 2.266 . S
In2080 O2087 2.326 . S
In2080 O2088 2.266 . S
In2080 O2089 2.326 . S
In2080 O2091 2.294 . S
In2080 O2092 2.326 . S
O2081 In2080 2.294 . S
O2081 C2090 1.240 . S
O2082 In2080 2.326 . S
O2082 C2090 1.252 . S
C2083 O2086 1.252 . S
C2083 O2087 1.260 . S
C2084 O2091 1.240 . S
C2084 O2092 1.252 . S
C2085 O2088 1.252 . S
C2085 O2089 1.260 . S
O2086 In2080 2.266 . S
O2086 C2083 1.252 . S
O2087 In2080 2.326 . S
O2087 C2083 1.260 . S
O2088 In2080 2.266 . S
O2088 C2085 1.252 . S
O2089 In2080 2.326 . S
O2089 C2085 1.260 . S
C2090 O2081 1.240 . S
C2090 O2082 1.252 . S
O2091 In2080 2.294 . S
O2091 C2084 1.240 . S
O2092 In2080 2.326 . S
O2092 C2084 1.252 . S
In2093 O2094 2.294 . S
In2093 O2095 2.326 . S
In2093 O2099 2.266 . S
In2093 O2100 2.326 . S
In2093 O2101 2.266 . S
In2093 O2102 2.326 . S
In2093 O2104 2.294 . S
In2093 O2105 2.326 . S
O2094 In2093 2.294 . S
O2094 C2103 1.240 . S
O2095 In2093 2.326 . S
O2095 C2103 1.252 . S
C2096 O2099 1.252 . S
C2096 O2100 1.260 . S
C2097 O2104 1.240 . S
C2097 O2105 1.252 . S
C2098 O2101 1.252 . S
C2098 O2102 1.260 . S
O2099 In2093 2.266 . S
O2099 C2096 1.252 . S
O2100 In2093 2.326 . S
O2100 C2096 1.260 . S
O2101 In2093 2.266 . S
O2101 C2098 1.252 . S
O2102 In2093 2.326 . S
O2102 C2098 1.260 . S
C2103 O2094 1.240 . S
C2103 O2095 1.252 . S
O2104 In2093 2.294 . S
O2104 C2097 1.240 . S
O2105 In2093 2.326 . S
O2105 C2097 1.252 . S
In2106 O2107 2.294 . S
In2106 O2108 2.326 . S
In2106 O2112 2.266 . S
In2106 O2113 2.326 . S
In2106 O2114 2.266 . S
In2106 O2115 2.326 . S
In2106 O2117 2.294 . S
In2106 O2118 2.326 . S
O2107 In2106 2.294 . S
O2107 C2116 1.240 . S
O2108 In2106 2.326 . S
O2108 C2116 1.252 . S
C2109 O2112 1.252 . S
C2109 O2113 1.260 . S
C2110 O2117 1.240 . S
C2110 O2118 1.252 . S
C2111 O2114 1.252 . S
C2111 O2115 1.260 . S
O2112 In2106 2.266 . S
O2112 C2109 1.252 . S
O2113 In2106 2.326 . S
O2113 C2109 1.260 . S
O2114 In2106 2.266 . S
O2114 C2111 1.252 . S
O2115 In2106 2.326 . S
O2115 C2111 1.260 . S
C2116 O2107 1.240 . S
C2116 O2108 1.252 . S
O2117 In2106 2.294 . S
O2117 C2110 1.240 . S
O2118 In2106 2.326 . S
O2118 C2110 1.252 . S
In2119 O2120 2.294 . S
In2119 O2121 2.326 . S
In2119 O2125 2.266 . S
In2119 O2126 2.326 . S
In2119 O2127 2.266 . S
In2119 O2128 2.326 . S
In2119 O2130 2.294 . S
In2119 O2131 2.326 . S
O2120 In2119 2.294 . S
O2120 C2129 1.240 . S
O2121 In2119 2.326 . S
O2121 C2129 1.252 . S
C2122 O2125 1.252 . S
C2122 O2126 1.260 . S
C2123 O2130 1.240 . S
C2123 O2131 1.252 . S
C2124 O2127 1.252 . S
C2124 O2128 1.260 . S
O2125 In2119 2.266 . S
O2125 C2122 1.252 . S
O2126 In2119 2.326 . S
O2126 C2122 1.260 . S
O2127 In2119 2.266 . S
O2127 C2124 1.252 . S
O2128 In2119 2.326 . S
O2128 C2124 1.260 . S
C2129 O2120 1.240 . S
C2129 O2121 1.252 . S
O2130 In2119 2.294 . S
O2130 C2123 1.240 . S
O2131 In2119 2.326 . S
O2131 C2123 1.252 . S
In2132 O2133 2.294 . S
In2132 O2134 2.326 . S
In2132 O2138 2.266 . S
In2132 O2139 2.326 . S
In2132 O2140 2.266 . S
In2132 O2141 2.326 . S
In2132 O2143 2.294 . S
In2132 O2144 2.326 . S
O2133 In2132 2.294 . S
O2133 C2142 1.240 . S
O2134 In2132 2.326 . S
O2134 C2142 1.252 . S
C2135 O2138 1.252 . S
C2135 O2139 1.260 . S
C2136 O2143 1.240 . S
C2136 O2144 1.252 . S
C2137 O2140 1.252 . S
C2137 O2141 1.260 . S
O2138 In2132 2.266 . S
O2138 C2135 1.252 . S
O2139 In2132 2.326 . S
O2139 C2135 1.260 . S
O2140 In2132 2.266 . S
O2140 C2137 1.252 . S
O2141 In2132 2.326 . S
O2141 C2137 1.260 . S
C2142 O2133 1.240 . S
C2142 O2134 1.252 . S
O2143 In2132 2.294 . S
O2143 C2136 1.240 . S
O2144 In2132 2.326 . S
O2144 C2136 1.252 . S
In2145 O2146 2.294 . S
In2145 O2147 2.326 . S
In2145 O2151 2.266 . S
In2145 O2152 2.326 . S
In2145 O2153 2.266 . S
In2145 O2154 2.326 . S
In2145 O2156 2.294 . S
In2145 O2157 2.326 . S
O2146 In2145 2.294 . S
O2146 C2155 1.240 . S
O2147 In2145 2.326 . S
O2147 C2155 1.252 . S
C2148 O2151 1.252 . S
C2148 O2152 1.260 . S
C2149 O2156 1.240 . S
C2149 O2157 1.252 . S
C2150 O2153 1.252 . S
C2150 O2154 1.260 . S
O2151 In2145 2.266 . S
O2151 C2148 1.252 . S
O2152 In2145 2.326 . S
O2152 C2148 1.260 . S
O2153 In2145 2.266 . S
O2153 C2150 1.252 . S
O2154 In2145 2.326 . S
O2154 C2150 1.260 . S
C2155 O2146 1.240 . S
C2155 O2147 1.252 . S
O2156 In2145 2.294 . S
O2156 C2149 1.240 . S
O2157 In2145 2.326 . S
O2157 C2149 1.252 . S
In2158 O2159 2.294 . S
In2158 O2160 2.326 . S
In2158 O2164 2.266 . S
In2158 O2165 2.326 . S
In2158 O2166 2.266 . S
In2158 O2167 2.326 . S
In2158 O2169 2.294 . S
In2158 O2170 2.326 . S
O2159 In2158 2.294 . S
O2159 C2168 1.240 . S
O2160 In2158 2.326 . S
O2160 C2168 1.252 . S
C2161 O2164 1.252 . S
C2161 O2165 1.260 . S
C2162 O2169 1.240 . S
C2162 O2170 1.252 . S
C2163 O2166 1.252 . S
C2163 O2167 1.260 . S
O2164 In2158 2.266 . S
O2164 C2161 1.252 . S
O2165 In2158 2.326 . S
O2165 C2161 1.260 . S
O2166 In2158 2.266 . S
O2166 C2163 1.252 . S
O2167 In2158 2.326 . S
O2167 C2163 1.260 . S
C2168 O2159 1.240 . S
C2168 O2160 1.252 . S
O2169 In2158 2.294 . S
O2169 C2162 1.240 . S
O2170 In2158 2.326 . S
O2170 C2162 1.252 . S
In2171 O2172 2.294 . S
In2171 O2173 2.326 . S
In2171 O2177 2.266 . S
In2171 O2178 2.326 . S
In2171 O2179 2.266 . S
In2171 O2180 2.326 . S
In2171 O2182 2.294 . S
In2171 O2183 2.326 . S
O2172 In2171 2.294 . S
O2172 C2181 1.240 . S
O2173 In2171 2.326 . S
O2173 C2181 1.252 . S
C2174 O2177 1.252 . S
C2174 O2178 1.260 . S
C2175 O2182 1.240 . S
C2175 O2183 1.252 . S
C2176 O2179 1.252 . S
C2176 O2180 1.260 . S
O2177 In2171 2.266 . S
O2177 C2174 1.252 . S
O2178 In2171 2.326 . S
O2178 C2174 1.260 . S
O2179 In2171 2.266 . S
O2179 C2176 1.252 . S
O2180 In2171 2.326 . S
O2180 C2176 1.260 . S
C2181 O2172 1.240 . S
C2181 O2173 1.252 . S
O2182 In2171 2.294 . S
O2182 C2175 1.240 . S
O2183 In2171 2.326 . S
O2183 C2175 1.252 . S
In2184 O2185 2.294 . S
In2184 O2186 2.326 . S
In2184 O2190 2.266 . S
In2184 O2191 2.326 . S
In2184 O2192 2.266 . S
In2184 O2193 2.326 . S
In2184 O2195 2.294 . S
In2184 O2196 2.326 . S
O2185 In2184 2.294 . S
O2185 C2194 1.240 . S
O2186 In2184 2.326 . S
O2186 C2194 1.252 . S
C2187 O2190 1.252 . S
C2187 O2191 1.260 . S
C2188 O2195 1.240 . S
C2188 O2196 1.252 . S
C2189 O2192 1.252 . S
C2189 O2193 1.260 . S
O2190 In2184 2.266 . S
O2190 C2187 1.252 . S
O2191 In2184 2.326 . S
O2191 C2187 1.260 . S
O2192 In2184 2.266 . S
O2192 C2189 1.252 . S
O2193 In2184 2.326 . S
O2193 C2189 1.260 . S
C2194 O2185 1.240 . S
C2194 O2186 1.252 . S
O2195 In2184 2.294 . S
O2195 C2188 1.240 . S
O2196 In2184 2.326 . S
O2196 C2188 1.252 . S
In2197 O2198 2.294 . S
In2197 O2199 2.326 . S
In2197 O2203 2.266 . S
In2197 O2204 2.326 . S
In2197 O2205 2.266 . S
In2197 O2206 2.326 . S
In2197 O2208 2.294 . S
In2197 O2209 2.326 . S
O2198 In2197 2.294 . S
O2198 C2207 1.240 . S
O2199 In2197 2.326 . S
O2199 C2207 1.252 . S
C2200 O2203 1.252 . S
C2200 O2204 1.260 . S
C2201 O2208 1.240 . S
C2201 O2209 1.252 . S
C2202 O2205 1.252 . S
C2202 O2206 1.260 . S
O2203 In2197 2.266 . S
O2203 C2200 1.252 . S
O2204 In2197 2.326 . S
O2204 C2200 1.260 . S
O2205 In2197 2.266 . S
O2205 C2202 1.252 . S
O2206 In2197 2.326 . S
O2206 C2202 1.260 . S
C2207 O2198 1.240 . S
C2207 O2199 1.252 . S
O2208 In2197 2.294 . S
O2208 C2201 1.240 . S
O2209 In2197 2.326 . S
O2209 C2201 1.252 . S
In2210 O2211 2.294 . S
In2210 O2212 2.326 . S
In2210 O2216 2.266 . S
In2210 O2217 2.326 . S
In2210 O2218 2.266 . S
In2210 O2219 2.326 . S
In2210 O2221 2.294 . S
In2210 O2222 2.326 . S
O2211 In2210 2.294 . S
O2211 C2220 1.240 . S
O2212 In2210 2.326 . S
O2212 C2220 1.252 . S
C2213 O2216 1.252 . S
C2213 O2217 1.260 . S
C2214 O2221 1.240 . S
C2214 O2222 1.252 . S
C2215 O2218 1.252 . S
C2215 O2219 1.260 . S
O2216 In2210 2.266 . S
O2216 C2213 1.252 . S
O2217 In2210 2.326 . S
O2217 C2213 1.260 . S
O2218 In2210 2.266 . S
O2218 C2215 1.252 . S
O2219 In2210 2.326 . S
O2219 C2215 1.260 . S
C2220 O2211 1.240 . S
C2220 O2212 1.252 . S
O2221 In2210 2.294 . S
O2221 C2214 1.240 . S
O2222 In2210 2.326 . S
O2222 C2214 1.252 . S
In2223 O2224 2.294 . S
In2223 O2225 2.326 . S
In2223 O2229 2.266 . S
In2223 O2230 2.326 . S
In2223 O2231 2.266 . S
In2223 O2232 2.326 . S
In2223 O2234 2.294 . S
In2223 O2235 2.326 . S
O2224 In2223 2.294 . S
O2224 C2233 1.240 . S
O2225 In2223 2.326 . S
O2225 C2233 1.252 . S
C2226 O2229 1.252 . S
C2226 O2230 1.260 . S
C2227 O2234 1.240 . S
C2227 O2235 1.252 . S
C2228 O2231 1.252 . S
C2228 O2232 1.260 . S
O2229 In2223 2.266 . S
O2229 C2226 1.252 . S
O2230 In2223 2.326 . S
O2230 C2226 1.260 . S
O2231 In2223 2.266 . S
O2231 C2228 1.252 . S
O2232 In2223 2.326 . S
O2232 C2228 1.260 . S
C2233 O2224 1.240 . S
C2233 O2225 1.252 . S
O2234 In2223 2.294 . S
O2234 C2227 1.240 . S
O2235 In2223 2.326 . S
O2235 C2227 1.252 . S
In2236 O2237 2.294 . S
In2236 O2238 2.326 . S
In2236 O2242 2.266 . S
In2236 O2243 2.326 . S
In2236 O2244 2.266 . S
In2236 O2245 2.326 . S
In2236 O2247 2.294 . S
In2236 O2248 2.326 . S
O2237 In2236 2.294 . S
O2237 C2246 1.240 . S
O2238 In2236 2.326 . S
O2238 C2246 1.252 . S
C2239 O2242 1.252 . S
C2239 O2243 1.260 . S
C2240 O2247 1.240 . S
C2240 O2248 1.252 . S
C2241 O2244 1.252 . S
C2241 O2245 1.260 . S
O2242 In2236 2.266 . S
O2242 C2239 1.252 . S
O2243 In2236 2.326 . S
O2243 C2239 1.260 . S
O2244 In2236 2.266 . S
O2244 C2241 1.252 . S
O2245 In2236 2.326 . S
O2245 C2241 1.260 . S
C2246 O2237 1.240 . S
C2246 O2238 1.252 . S
O2247 In2236 2.294 . S
O2247 C2240 1.240 . S
O2248 In2236 2.326 . S
O2248 C2240 1.252 . S
In2249 O2250 2.294 . S
In2249 O2251 2.326 . S
In2249 O2255 2.266 . S
In2249 O2256 2.326 . S
In2249 O2257 2.266 . S
In2249 O2258 2.326 . S
In2249 O2260 2.294 . S
In2249 O2261 2.326 . S
O2250 In2249 2.294 . S
O2250 C2259 1.240 . S
O2251 In2249 2.326 . S
O2251 C2259 1.252 . S
C2252 O2255 1.252 . S
C2252 O2256 1.260 . S
C2253 O2260 1.240 . S
C2253 O2261 1.252 . S
C2254 O2257 1.252 . S
C2254 O2258 1.260 . S
O2255 In2249 2.266 . S
O2255 C2252 1.252 . S
O2256 In2249 2.326 . S
O2256 C2252 1.260 . S
O2257 In2249 2.266 . S
O2257 C2254 1.252 . S
O2258 In2249 2.326 . S
O2258 C2254 1.260 . S
C2259 O2250 1.240 . S
C2259 O2251 1.252 . S
O2260 In2249 2.294 . S
O2260 C2253 1.240 . S
O2261 In2249 2.326 . S
O2261 C2253 1.252 . S
In2262 O2263 2.294 . S
In2262 O2264 2.326 . S
In2262 O2268 2.266 . S
In2262 O2269 2.326 . S
In2262 O2270 2.266 . S
In2262 O2271 2.326 . S
In2262 O2273 2.294 . S
In2262 O2274 2.326 . S
O2263 In2262 2.294 . S
O2263 C2272 1.240 . S
O2264 In2262 2.326 . S
O2264 C2272 1.252 . S
C2265 O2268 1.252 . S
C2265 O2269 1.260 . S
C2266 O2273 1.240 . S
C2266 O2274 1.252 . S
C2267 O2270 1.252 . S
C2267 O2271 1.260 . S
O2268 In2262 2.266 . S
O2268 C2265 1.252 . S
O2269 In2262 2.326 . S
O2269 C2265 1.260 . S
O2270 In2262 2.266 . S
O2270 C2267 1.252 . S
O2271 In2262 2.326 . S
O2271 C2267 1.260 . S
C2272 O2263 1.240 . S
C2272 O2264 1.252 . S
O2273 In2262 2.294 . S
O2273 C2266 1.240 . S
O2274 In2262 2.326 . S
O2274 C2266 1.252 . S
In2275 O2276 2.294 . S
In2275 O2277 2.326 . S
In2275 O2281 2.266 . S
In2275 O2282 2.326 . S
In2275 O2283 2.266 . S
In2275 O2284 2.326 . S
In2275 O2286 2.294 . S
In2275 O2287 2.326 . S
O2276 In2275 2.294 . S
O2276 C2285 1.240 . S
O2277 In2275 2.326 . S
O2277 C2285 1.252 . S
C2278 O2281 1.252 . S
C2278 O2282 1.260 . S
C2279 O2286 1.240 . S
C2279 O2287 1.252 . S
C2280 O2283 1.252 . S
C2280 O2284 1.260 . S
O2281 In2275 2.266 . S
O2281 C2278 1.252 . S
O2282 In2275 2.326 . S
O2282 C2278 1.260 . S
O2283 In2275 2.266 . S
O2283 C2280 1.252 . S
O2284 In2275 2.326 . S
O2284 C2280 1.260 . S
C2285 O2276 1.240 . S
C2285 O2277 1.252 . S
O2286 In2275 2.294 . S
O2286 C2279 1.240 . S
O2287 In2275 2.326 . S
O2287 C2279 1.252 . S
In2288 O2289 2.294 . S
In2288 O2290 2.326 . S
In2288 O2294 2.266 . S
In2288 O2295 2.326 . S
In2288 O2296 2.266 . S
In2288 O2297 2.326 . S
In2288 O2299 2.294 . S
In2288 O2300 2.326 . S
O2289 In2288 2.294 . S
O2289 C2298 1.240 . S
O2290 In2288 2.326 . S
O2290 C2298 1.252 . S
C2291 O2294 1.252 . S
C2291 O2295 1.260 . S
C2292 O2299 1.240 . S
C2292 O2300 1.252 . S
C2293 O2296 1.252 . S
C2293 O2297 1.260 . S
O2294 In2288 2.266 . S
O2294 C2291 1.252 . S
O2295 In2288 2.326 . S
O2295 C2291 1.260 . S
O2296 In2288 2.266 . S
O2296 C2293 1.252 . S
O2297 In2288 2.326 . S
O2297 C2293 1.260 . S
C2298 O2289 1.240 . S
C2298 O2290 1.252 . S
O2299 In2288 2.294 . S
O2299 C2292 1.240 . S
O2300 In2288 2.326 . S
O2300 C2292 1.252 . S
In2301 O2302 2.294 . S
In2301 O2303 2.326 . S
In2301 O2307 2.266 . S
In2301 O2308 2.326 . S
In2301 O2309 2.266 . S
In2301 O2310 2.326 . S
In2301 O2312 2.294 . S
In2301 O2313 2.326 . S
O2302 In2301 2.294 . S
O2302 C2311 1.240 . S
O2303 In2301 2.326 . S
O2303 C2311 1.252 . S
C2304 O2307 1.252 . S
C2304 O2308 1.260 . S
C2305 O2312 1.240 . S
C2305 O2313 1.252 . S
C2306 O2309 1.252 . S
C2306 O2310 1.260 . S
O2307 In2301 2.266 . S
O2307 C2304 1.252 . S
O2308 In2301 2.326 . S
O2308 C2304 1.260 . S
O2309 In2301 2.266 . S
O2309 C2306 1.252 . S
O2310 In2301 2.326 . S
O2310 C2306 1.260 . S
C2311 O2302 1.240 . S
C2311 O2303 1.252 . S
O2312 In2301 2.294 . S
O2312 C2305 1.240 . S
O2313 In2301 2.326 . S
O2313 C2305 1.252 . S
In2314 O2315 2.294 . S
In2314 O2316 2.326 . S
In2314 O2320 2.266 . S
In2314 O2321 2.326 . S
In2314 O2322 2.266 . S
In2314 O2323 2.326 . S
In2314 O2325 2.294 . S
In2314 O2326 2.326 . S
O2315 In2314 2.294 . S
O2315 C2324 1.240 . S
O2316 In2314 2.326 . S
O2316 C2324 1.252 . S
C2317 O2320 1.252 . S
C2317 O2321 1.260 . S
C2318 O2325 1.240 . S
C2318 O2326 1.252 . S
C2319 O2322 1.252 . S
C2319 O2323 1.260 . S
O2320 In2314 2.266 . S
O2320 C2317 1.252 . S
O2321 In2314 2.326 . S
O2321 C2317 1.260 . S
O2322 In2314 2.266 . S
O2322 C2319 1.252 . S
O2323 In2314 2.326 . S
O2323 C2319 1.260 . S
C2324 O2315 1.240 . S
C2324 O2316 1.252 . S
O2325 In2314 2.294 . S
O2325 C2318 1.240 . S
O2326 In2314 2.326 . S
O2326 C2318 1.252 . S
In2327 O2328 2.294 . S
In2327 O2329 2.326 . S
In2327 O2333 2.266 . S
In2327 O2334 2.326 . S
In2327 O2335 2.266 . S
In2327 O2336 2.326 . S
In2327 O2338 2.294 . S
In2327 O2339 2.326 . S
O2328 In2327 2.294 . S
O2328 C2337 1.240 . S
O2329 In2327 2.326 . S
O2329 C2337 1.252 . S
C2330 O2333 1.252 . S
C2330 O2334 1.260 . S
C2331 O2338 1.240 . S
C2331 O2339 1.252 . S
C2332 O2335 1.252 . S
C2332 O2336 1.260 . S
O2333 In2327 2.266 . S
O2333 C2330 1.252 . S
O2334 In2327 2.326 . S
O2334 C2330 1.260 . S
O2335 In2327 2.266 . S
O2335 C2332 1.252 . S
O2336 In2327 2.326 . S
O2336 C2332 1.260 . S
C2337 O2328 1.240 . S
C2337 O2329 1.252 . S
O2338 In2327 2.294 . S
O2338 C2331 1.240 . S
O2339 In2327 2.326 . S
O2339 C2331 1.252 . S
In2340 O2341 2.294 . S
In2340 O2342 2.326 . S
In2340 O2346 2.266 . S
In2340 O2347 2.326 . S
In2340 O2348 2.266 . S
In2340 O2349 2.326 . S
In2340 O2351 2.294 . S
In2340 O2352 2.326 . S
O2341 In2340 2.294 . S
O2341 C2350 1.240 . S
O2342 In2340 2.326 . S
O2342 C2350 1.252 . S
C2343 O2346 1.252 . S
C2343 O2347 1.260 . S
C2344 O2351 1.240 . S
C2344 O2352 1.252 . S
C2345 O2348 1.252 . S
C2345 O2349 1.260 . S
O2346 In2340 2.266 . S
O2346 C2343 1.252 . S
O2347 In2340 2.326 . S
O2347 C2343 1.260 . S
O2348 In2340 2.266 . S
O2348 C2345 1.252 . S
O2349 In2340 2.326 . S
O2349 C2345 1.260 . S
C2350 O2341 1.240 . S
C2350 O2342 1.252 . S
O2351 In2340 2.294 . S
O2351 C2344 1.240 . S
O2352 In2340 2.326 . S
O2352 C2344 1.252 . S
In2353 O2354 2.294 . S
In2353 O2355 2.326 . S
In2353 O2359 2.266 . S
In2353 O2360 2.326 . S
In2353 O2361 2.266 . S
In2353 O2362 2.326 . S
In2353 O2364 2.294 . S
In2353 O2365 2.326 . S
O2354 In2353 2.294 . S
O2354 C2363 1.240 . S
O2355 In2353 2.326 . S
O2355 C2363 1.252 . S
C2356 O2359 1.252 . S
C2356 O2360 1.260 . S
C2357 O2364 1.240 . S
C2357 O2365 1.252 . S
C2358 O2361 1.252 . S
C2358 O2362 1.260 . S
O2359 In2353 2.266 . S
O2359 C2356 1.252 . S
O2360 In2353 2.326 . S
O2360 C2356 1.260 . S
O2361 In2353 2.266 . S
O2361 C2358 1.252 . S
O2362 In2353 2.326 . S
O2362 C2358 1.260 . S
C2363 O2354 1.240 . S
C2363 O2355 1.252 . S
O2364 In2353 2.294 . S
O2364 C2357 1.240 . S
O2365 In2353 2.326 . S
O2365 C2357 1.252 . S
In2366 O2367 2.294 . S
In2366 O2368 2.326 . S
In2366 O2372 2.266 . S
In2366 O2373 2.326 . S
In2366 O2374 2.266 . S
In2366 O2375 2.326 . S
In2366 O2377 2.294 . S
In2366 O2378 2.326 . S
O2367 In2366 2.294 . S
O2367 C2376 1.240 . S
O2368 In2366 2.326 . S
O2368 C2376 1.252 . S
C2369 O2372 1.252 . S
C2369 O2373 1.260 . S
C2370 O2377 1.240 . S
C2370 O2378 1.252 . S
C2371 O2374 1.252 . S
C2371 O2375 1.260 . S
O2372 In2366 2.266 . S
O2372 C2369 1.252 . S
O2373 In2366 2.326 . S
O2373 C2369 1.260 . S
O2374 In2366 2.266 . S
O2374 C2371 1.252 . S
O2375 In2366 2.326 . S
O2375 C2371 1.260 . S
C2376 O2367 1.240 . S
C2376 O2368 1.252 . S
O2377 In2366 2.294 . S
O2377 C2370 1.240 . S
O2378 In2366 2.326 . S
O2378 C2370 1.252 . S
In2379 O2380 2.294 . S
In2379 O2381 2.326 . S
In2379 O2385 2.266 . S
In2379 O2386 2.326 . S
In2379 O2387 2.266 . S
In2379 O2388 2.326 . S
In2379 O2390 2.294 . S
In2379 O2391 2.326 . S
O2380 In2379 2.294 . S
O2380 C2389 1.240 . S
O2381 In2379 2.326 . S
O2381 C2389 1.252 . S
C2382 O2385 1.252 . S
C2382 O2386 1.260 . S
C2383 O2390 1.240 . S
C2383 O2391 1.252 . S
C2384 O2387 1.252 . S
C2384 O2388 1.260 . S
O2385 In2379 2.266 . S
O2385 C2382 1.252 . S
O2386 In2379 2.326 . S
O2386 C2382 1.260 . S
O2387 In2379 2.266 . S
O2387 C2384 1.252 . S
O2388 In2379 2.326 . S
O2388 C2384 1.260 . S
C2389 O2380 1.240 . S
C2389 O2381 1.252 . S
O2390 In2379 2.294 . S
O2390 C2383 1.240 . S
O2391 In2379 2.326 . S
O2391 C2383 1.252 . S
In2392 O2393 2.294 . S
In2392 O2394 2.326 . S
In2392 O2398 2.266 . S
In2392 O2399 2.326 . S
In2392 O2400 2.266 . S
In2392 O2401 2.326 . S
In2392 O2403 2.294 . S
In2392 O2404 2.326 . S
O2393 In2392 2.294 . S
O2393 C2402 1.240 . S
O2394 In2392 2.326 . S
O2394 C2402 1.252 . S
C2395 O2398 1.252 . S
C2395 O2399 1.260 . S
C2396 O2403 1.240 . S
C2396 O2404 1.252 . S
C2397 O2400 1.252 . S
C2397 O2401 1.260 . S
O2398 In2392 2.266 . S
O2398 C2395 1.252 . S
O2399 In2392 2.326 . S
O2399 C2395 1.260 . S
O2400 In2392 2.266 . S
O2400 C2397 1.252 . S
O2401 In2392 2.326 . S
O2401 C2397 1.260 . S
C2402 O2393 1.240 . S
C2402 O2394 1.252 . S
O2403 In2392 2.294 . S
O2403 C2396 1.240 . S
O2404 In2392 2.326 . S
O2404 C2396 1.252 . S
In2405 O2406 2.294 . S
In2405 O2407 2.326 . S
In2405 O2411 2.266 . S
In2405 O2412 2.326 . S
In2405 O2413 2.266 . S
In2405 O2414 2.326 . S
In2405 O2416 2.294 . S
In2405 O2417 2.326 . S
O2406 In2405 2.294 . S
O2406 C2415 1.240 . S
O2407 In2405 2.326 . S
O2407 C2415 1.252 . S
C2408 O2411 1.252 . S
C2408 O2412 1.260 . S
C2409 O2416 1.240 . S
C2409 O2417 1.252 . S
C2410 O2413 1.252 . S
C2410 O2414 1.260 . S
O2411 In2405 2.266 . S
O2411 C2408 1.252 . S
O2412 In2405 2.326 . S
O2412 C2408 1.260 . S
O2413 In2405 2.266 . S
O2413 C2410 1.252 . S
O2414 In2405 2.326 . S
O2414 C2410 1.260 . S
C2415 O2406 1.240 . S
C2415 O2407 1.252 . S
O2416 In2405 2.294 . S
O2416 C2409 1.240 . S
O2417 In2405 2.326 . S
O2417 C2409 1.252 . S
In2418 O2419 2.294 . S
In2418 O2420 2.326 . S
In2418 O2424 2.266 . S
In2418 O2425 2.326 . S
In2418 O2426 2.266 . S
In2418 O2427 2.326 . S
In2418 O2429 2.294 . S
In2418 O2430 2.326 . S
O2419 In2418 2.294 . S
O2419 C2428 1.240 . S
O2420 In2418 2.326 . S
O2420 C2428 1.252 . S
C2421 O2424 1.252 . S
C2421 O2425 1.260 . S
C2422 O2429 1.240 . S
C2422 O2430 1.252 . S
C2423 O2426 1.252 . S
C2423 O2427 1.260 . S
O2424 In2418 2.266 . S
O2424 C2421 1.252 . S
O2425 In2418 2.326 . S
O2425 C2421 1.260 . S
O2426 In2418 2.266 . S
O2426 C2423 1.252 . S
O2427 In2418 2.326 . S
O2427 C2423 1.260 . S
C2428 O2419 1.240 . S
C2428 O2420 1.252 . S
O2429 In2418 2.294 . S
O2429 C2422 1.240 . S
O2430 In2418 2.326 . S
O2430 C2422 1.252 . S
In2431 O2432 2.294 . S
In2431 O2433 2.326 . S
In2431 O2437 2.266 . S
In2431 O2438 2.326 . S
In2431 O2439 2.266 . S
In2431 O2440 2.326 . S
In2431 O2442 2.294 . S
In2431 O2443 2.326 . S
O2432 In2431 2.294 . S
O2432 C2441 1.240 . S
O2433 In2431 2.326 . S
O2433 C2441 1.252 . S
C2434 O2437 1.252 . S
C2434 O2438 1.260 . S
C2435 O2442 1.240 . S
C2435 O2443 1.252 . S
C2436 O2439 1.252 . S
C2436 O2440 1.260 . S
O2437 In2431 2.266 . S
O2437 C2434 1.252 . S
O2438 In2431 2.326 . S
O2438 C2434 1.260 . S
O2439 In2431 2.266 . S
O2439 C2436 1.252 . S
O2440 In2431 2.326 . S
O2440 C2436 1.260 . S
C2441 O2432 1.240 . S
C2441 O2433 1.252 . S
O2442 In2431 2.294 . S
O2442 C2435 1.240 . S
O2443 In2431 2.326 . S
O2443 C2435 1.252 . S
In2444 O2445 2.294 . S
In2444 O2446 2.326 . S
In2444 O2450 2.266 . S
In2444 O2451 2.326 . S
In2444 O2452 2.266 . S
In2444 O2453 2.326 . S
In2444 O2455 2.294 . S
In2444 O2456 2.326 . S
O2445 In2444 2.294 . S
O2445 C2454 1.240 . S
O2446 In2444 2.326 . S
O2446 C2454 1.252 . S
C2447 O2450 1.252 . S
C2447 O2451 1.260 . S
C2448 O2455 1.240 . S
C2448 O2456 1.252 . S
C2449 O2452 1.252 . S
C2449 O2453 1.260 . S
O2450 In2444 2.266 . S
O2450 C2447 1.252 . S
O2451 In2444 2.326 . S
O2451 C2447 1.260 . S
O2452 In2444 2.266 . S
O2452 C2449 1.252 . S
O2453 In2444 2.326 . S
O2453 C2449 1.260 . S
C2454 O2445 1.240 . S
C2454 O2446 1.252 . S
O2455 In2444 2.294 . S
O2455 C2448 1.240 . S
O2456 In2444 2.326 . S
O2456 C2448 1.252 . S
In2457 O2458 2.294 . S
In2457 O2459 2.326 . S
In2457 O2463 2.266 . S
In2457 O2464 2.326 . S
In2457 O2465 2.266 . S
In2457 O2466 2.326 . S
In2457 O2468 2.294 . S
In2457 O2469 2.326 . S
O2458 In2457 2.294 . S
O2458 C2467 1.240 . S
O2459 In2457 2.326 . S
O2459 C2467 1.252 . S
C2460 O2463 1.252 . S
C2460 O2464 1.260 . S
C2461 O2468 1.240 . S
C2461 O2469 1.252 . S
C2462 O2465 1.252 . S
C2462 O2466 1.260 . S
O2463 In2457 2.266 . S
O2463 C2460 1.252 . S
O2464 In2457 2.326 . S
O2464 C2460 1.260 . S
O2465 In2457 2.266 . S
O2465 C2462 1.252 . S
O2466 In2457 2.326 . S
O2466 C2462 1.260 . S
C2467 O2458 1.240 . S
C2467 O2459 1.252 . S
O2468 In2457 2.294 . S
O2468 C2461 1.240 . S
O2469 In2457 2.326 . S
O2469 C2461 1.252 . S
In2470 O2471 2.294 . S
In2470 O2472 2.326 . S
In2470 O2476 2.266 . S
In2470 O2477 2.326 . S
In2470 O2478 2.266 . S
In2470 O2479 2.326 . S
In2470 O2481 2.294 . S
In2470 O2482 2.326 . S
O2471 In2470 2.294 . S
O2471 C2480 1.240 . S
O2472 In2470 2.326 . S
O2472 C2480 1.252 . S
C2473 O2476 1.252 . S
C2473 O2477 1.260 . S
C2474 O2481 1.240 . S
C2474 O2482 1.252 . S
C2475 O2478 1.252 . S
C2475 O2479 1.260 . S
O2476 In2470 2.266 . S
O2476 C2473 1.252 . S
O2477 In2470 2.326 . S
O2477 C2473 1.260 . S
O2478 In2470 2.266 . S
O2478 C2475 1.252 . S
O2479 In2470 2.326 . S
O2479 C2475 1.260 . S
C2480 O2471 1.240 . S
C2480 O2472 1.252 . S
O2481 In2470 2.294 . S
O2481 C2474 1.240 . S
O2482 In2470 2.326 . S
O2482 C2474 1.252 . S
In2483 O2484 2.294 . S
In2483 O2485 2.326 . S
In2483 O2489 2.266 . S
In2483 O2490 2.326 . S
In2483 O2491 2.266 . S
In2483 O2492 2.326 . S
In2483 O2494 2.294 . S
In2483 O2495 2.326 . S
O2484 In2483 2.294 . S
O2484 C2493 1.240 . S
O2485 In2483 2.326 . S
O2485 C2493 1.252 . S
C2486 O2489 1.252 . S
C2486 O2490 1.260 . S
C2487 O2494 1.240 . S
C2487 O2495 1.252 . S
C2488 O2491 1.252 . S
C2488 O2492 1.260 . S
O2489 In2483 2.266 . S
O2489 C2486 1.252 . S
O2490 In2483 2.326 . S
O2490 C2486 1.260 . S
O2491 In2483 2.266 . S
O2491 C2488 1.252 . S
O2492 In2483 2.326 . S
O2492 C2488 1.260 . S
C2493 O2484 1.240 . S
C2493 O2485 1.252 . S
O2494 In2483 2.294 . S
O2494 C2487 1.240 . S
O2495 In2483 2.326 . S
O2495 C2487 1.252 . S
C2496 C2497 1.387 . S
C2496 H2500 0.950 . S
C2496 C2505 1.390 . S
C2497 C2496 1.387 . S
C2497 C2499 1.387 . S
H2498 C2505 0.950 . S
C2499 C2497 1.387 . S
C2499 C2501 1.390 . S
C2499 H2503 0.950 . S
H2500 C2496 0.950 . S
C2501 C2499 1.390 . S
C2501 C2502 1.387 . S
C2501 H2504 0.950 . S
C2502 C2501 1.387 . S
C2502 C2505 1.387 . S
H2503 C2499 0.950 . S
H2504 C2501 0.950 . S
C2505 C2496 1.390 . S
C2505 H2498 0.950 . S
C2505 C2502 1.387 . S
C2506 C2507 1.387 . S
C2506 H2510 0.950 . S
C2506 C2515 1.390 . S
C2507 C2506 1.387 . S
C2507 C2509 1.387 . S
H2508 C2515 0.950 . S
C2509 C2507 1.387 . S
C2509 C2511 1.390 . S
C2509 H2513 0.950 . S
H2510 C2506 0.950 . S
C2511 C2509 1.390 . S
C2511 C2512 1.387 . S
C2511 H2514 0.950 . S
C2512 C2511 1.387 . S
C2512 C2515 1.387 . S
H2513 C2509 0.950 . S
H2514 C2511 0.950 . S
C2515 C2506 1.390 . S
C2515 H2508 0.950 . S
C2515 C2512 1.387 . S
C2516 C2517 1.387 . S
C2516 H2520 0.950 . S
C2516 C2525 1.390 . S
C2517 C2516 1.387 . S
C2517 C2519 1.387 . S
H2518 C2525 0.950 . S
C2519 C2517 1.387 . S
C2519 C2521 1.390 . S
C2519 H2523 0.950 . S
H2520 C2516 0.950 . S
C2521 C2519 1.390 . S
C2521 C2522 1.387 . S
C2521 H2524 0.950 . S
C2522 C2521 1.387 . S
C2522 C2525 1.387 . S
H2523 C2519 0.950 . S
H2524 C2521 0.950 . S
C2525 C2516 1.390 . S
C2525 H2518 0.950 . S
C2525 C2522 1.387 . S
C2526 C2527 1.387 . S
C2526 H2530 0.950 . S
C2526 C2535 1.390 . S
C2527 C2526 1.387 . S
C2527 C2529 1.387 . S
H2528 C2535 0.950 . S
C2529 C2527 1.387 . S
C2529 C2531 1.390 . S
C2529 H2533 0.950 . S
H2530 C2526 0.950 . S
C2531 C2529 1.390 . S
C2531 C2532 1.387 . S
C2531 H2534 0.950 . S
C2532 C2531 1.387 . S
C2532 C2535 1.387 . S
H2533 C2529 0.950 . S
H2534 C2531 0.950 . S
C2535 C2526 1.390 . S
C2535 H2528 0.950 . S
C2535 C2532 1.387 . S
C2536 C2537 1.387 . S
C2536 H2540 0.950 . S
C2536 C2545 1.390 . S
C2537 C2536 1.387 . S
C2537 C2539 1.387 . S
H2538 C2545 0.950 . S
C2539 C2537 1.387 . S
C2539 C2541 1.390 . S
C2539 H2543 0.950 . S
H2540 C2536 0.950 . S
C2541 C2539 1.390 . S
C2541 C2542 1.387 . S
C2541 H2544 0.950 . S
C2542 C2541 1.387 . S
C2542 C2545 1.387 . S
H2543 C2539 0.950 . S
H2544 C2541 0.950 . S
C2545 C2536 1.390 . S
C2545 H2538 0.950 . S
C2545 C2542 1.387 . S
C2546 C2547 1.387 . S
C2546 H2550 0.950 . S
C2546 C2555 1.390 . S
C2547 C2546 1.387 . S
C2547 C2549 1.387 . S
H2548 C2555 0.950 . S
C2549 C2547 1.387 . S
C2549 C2551 1.390 . S
C2549 H2553 0.950 . S
H2550 C2546 0.950 . S
C2551 C2549 1.390 . S
C2551 C2552 1.387 . S
C2551 H2554 0.950 . S
C2552 C2551 1.387 . S
C2552 C2555 1.387 . S
H2553 C2549 0.950 . S
H2554 C2551 0.950 . S
C2555 C2546 1.390 . S
C2555 H2548 0.950 . S
C2555 C2552 1.387 . S
C2556 C2557 1.387 . S
C2556 H2560 0.950 . S
C2556 C2565 1.390 . S
C2557 C2556 1.387 . S
C2557 C2559 1.387 . S
H2558 C2565 0.950 . S
C2559 C2557 1.387 . S
C2559 C2561 1.390 . S
C2559 H2563 0.950 . S
H2560 C2556 0.950 . S
C2561 C2559 1.390 . S
C2561 C2562 1.387 . S
C2561 H2564 0.950 . S
C2562 C2561 1.387 . S
C2562 C2565 1.387 . S
H2563 C2559 0.950 . S
H2564 C2561 0.950 . S
C2565 C2556 1.390 . S
C2565 H2558 0.950 . S
C2565 C2562 1.387 . S
C2566 C2567 1.387 . S
C2566 H2570 0.950 . S
C2566 C2575 1.390 . S
C2567 C2566 1.387 . S
C2567 C2569 1.387 . S
H2568 C2575 0.950 . S
C2569 C2567 1.387 . S
C2569 C2571 1.390 . S
C2569 H2573 0.950 . S
H2570 C2566 0.950 . S
C2571 C2569 1.390 . S
C2571 C2572 1.387 . S
C2571 H2574 0.950 . S
C2572 C2571 1.387 . S
C2572 C2575 1.387 . S
H2573 C2569 0.950 . S
H2574 C2571 0.950 . S
C2575 C2566 1.390 . S
C2575 H2568 0.950 . S
C2575 C2572 1.387 . S
C2576 C2577 1.387 . S
C2576 H2580 0.950 . S
C2576 C2585 1.390 . S
C2577 C2576 1.387 . S
C2577 C2579 1.387 . S
H2578 C2585 0.950 . S
C2579 C2577 1.387 . S
C2579 C2581 1.390 . S
C2579 H2583 0.950 . S
H2580 C2576 0.950 . S
C2581 C2579 1.390 . S
C2581 C2582 1.387 . S
C2581 H2584 0.950 . S
C2582 C2581 1.387 . S
C2582 C2585 1.387 . S
H2583 C2579 0.950 . S
H2584 C2581 0.950 . S
C2585 C2576 1.390 . S
C2585 H2578 0.950 . S
C2585 C2582 1.387 . S
C2586 C2587 1.387 . S
C2586 H2590 0.950 . S
C2586 C2595 1.390 . S
C2587 C2586 1.387 . S
C2587 C2589 1.387 . S
H2588 C2595 0.950 . S
C2589 C2587 1.387 . S
C2589 C2591 1.390 . S
C2589 H2593 0.950 . S
H2590 C2586 0.950 . S
C2591 C2589 1.390 . S
C2591 C2592 1.387 . S
C2591 H2594 0.950 . S
C2592 C2591 1.387 . S
C2592 C2595 1.387 . S
H2593 C2589 0.950 . S
H2594 C2591 0.950 . S
C2595 C2586 1.390 . S
C2595 H2588 0.950 . S
C2595 C2592 1.387 . S
C2596 C2597 1.387 . S
C2596 H2600 0.950 . S
C2596 C2605 1.390 . S
C2597 C2596 1.387 . S
C2597 C2599 1.387 . S
H2598 C2605 0.950 . S
C2599 C2597 1.387 . S
C2599 C2601 1.390 . S
C2599 H2603 0.950 . S
H2600 C2596 0.950 . S
C2601 C2599 1.390 . S
C2601 C2602 1.387 . S
C2601 H2604 0.950 . S
C2602 C2601 1.387 . S
C2602 C2605 1.387 . S
H2603 C2599 0.950 . S
H2604 C2601 0.950 . S
C2605 C2596 1.390 . S
C2605 H2598 0.950 . S
C2605 C2602 1.387 . S
C2606 C2607 1.387 . S
C2606 H2610 0.950 . S
C2606 C2615 1.390 . S
C2607 C2606 1.387 . S
C2607 C2609 1.387 . S
H2608 C2615 0.950 . S
C2609 C2607 1.387 . S
C2609 C2611 1.390 . S
C2609 H2613 0.950 . S
H2610 C2606 0.950 . S
C2611 C2609 1.390 . S
C2611 C2612 1.387 . S
C2611 H2614 0.950 . S
C2612 C2611 1.387 . S
C2612 C2615 1.387 . S
H2613 C2609 0.950 . S
H2614 C2611 0.950 . S
C2615 C2606 1.390 . S
C2615 H2608 0.950 . S
C2615 C2612 1.387 . S
C2616 C2617 1.387 . S
C2616 H2620 0.950 . S
C2616 C2625 1.390 . S
C2617 C2616 1.387 . S
C2617 C2619 1.387 . S
H2618 C2625 0.950 . S
C2619 C2617 1.387 . S
C2619 C2621 1.390 . S
C2619 H2623 0.950 . S
H2620 C2616 0.950 . S
C2621 C2619 1.390 . S
C2621 C2622 1.387 . S
C2621 H2624 0.950 . S
C2622 C2621 1.387 . S
C2622 C2625 1.387 . S
H2623 C2619 0.950 . S
H2624 C2621 0.950 . S
C2625 C2616 1.390 . S
C2625 H2618 0.950 . S
C2625 C2622 1.387 . S
C2626 C2627 1.387 . S
C2626 H2630 0.950 . S
C2626 C2635 1.390 . S
C2627 C2626 1.387 . S
C2627 C2629 1.387 . S
H2628 C2635 0.950 . S
C2629 C2627 1.387 . S
C2629 C2631 1.390 . S
C2629 H2633 0.950 . S
H2630 C2626 0.950 . S
C2631 C2629 1.390 . S
C2631 C2632 1.387 . S
C2631 H2634 0.950 . S
C2632 C2631 1.387 . S
C2632 C2635 1.387 . S
H2633 C2629 0.950 . S
H2634 C2631 0.950 . S
C2635 C2626 1.390 . S
C2635 H2628 0.950 . S
C2635 C2632 1.387 . S
C2636 C2637 1.387 . S
C2636 H2640 0.950 . S
C2636 C2645 1.390 . S
C2637 C2636 1.387 . S
C2637 C2639 1.387 . S
H2638 C2645 0.950 . S
C2639 C2637 1.387 . S
C2639 C2641 1.390 . S
C2639 H2643 0.950 . S
H2640 C2636 0.950 . S
C2641 C2639 1.390 . S
C2641 C2642 1.387 . S
C2641 H2644 0.950 . S
C2642 C2641 1.387 . S
C2642 C2645 1.387 . S
H2643 C2639 0.950 . S
H2644 C2641 0.950 . S
C2645 C2636 1.390 . S
C2645 H2638 0.950 . S
C2645 C2642 1.387 . S
C2646 C2647 1.387 . S
C2646 H2650 0.950 . S
C2646 C2655 1.390 . S
C2647 C2646 1.387 . S
C2647 C2649 1.387 . S
H2648 C2655 0.950 . S
C2649 C2647 1.387 . S
C2649 C2651 1.390 . S
C2649 H2653 0.950 . S
H2650 C2646 0.950 . S
C2651 C2649 1.390 . S
C2651 C2652 1.387 . S
C2651 H2654 0.950 . S
C2652 C2651 1.387 . S
C2652 C2655 1.387 . S
H2653 C2649 0.950 . S
H2654 C2651 0.950 . S
C2655 C2646 1.390 . S
C2655 H2648 0.950 . S
C2655 C2652 1.387 . S
C2656 C2657 1.387 . S
C2656 H2660 0.950 . S
C2656 C2665 1.390 . S
C2657 C2656 1.387 . S
C2657 C2659 1.387 . S
H2658 C2665 0.950 . S
C2659 C2657 1.387 . S
C2659 C2661 1.390 . S
C2659 H2663 0.950 . S
H2660 C2656 0.950 . S
C2661 C2659 1.390 . S
C2661 C2662 1.387 . S
C2661 H2664 0.950 . S
C2662 C2661 1.387 . S
C2662 C2665 1.387 . S
H2663 C2659 0.950 . S
H2664 C2661 0.950 . S
C2665 C2656 1.390 . S
C2665 H2658 0.950 . S
C2665 C2662 1.387 . S
C2666 C2667 1.387 . S
C2666 H2670 0.950 . S
C2666 C2675 1.390 . S
C2667 C2666 1.387 . S
C2667 C2669 1.387 . S
H2668 C2675 0.950 . S
C2669 C2667 1.387 . S
C2669 C2671 1.390 . S
C2669 H2673 0.950 . S
H2670 C2666 0.950 . S
C2671 C2669 1.390 . S
C2671 C2672 1.387 . S
C2671 H2674 0.950 . S
C2672 C2671 1.387 . S
C2672 C2675 1.387 . S
H2673 C2669 0.950 . S
H2674 C2671 0.950 . S
C2675 C2666 1.390 . S
C2675 H2668 0.950 . S
C2675 C2672 1.387 . S
C2676 C2677 1.387 . S
C2676 H2680 0.950 . S
C2676 C2685 1.390 . S
C2677 C2676 1.387 . S
C2677 C2679 1.387 . S
H2678 C2685 0.950 . S
C2679 C2677 1.387 . S
C2679 C2681 1.390 . S
C2679 H2683 0.950 . S
H2680 C2676 0.950 . S
C2681 C2679 1.390 . S
C2681 C2682 1.387 . S
C2681 H2684 0.950 . S
C2682 C2681 1.387 . S
C2682 C2685 1.387 . S
H2683 C2679 0.950 . S
H2684 C2681 0.950 . S
C2685 C2676 1.390 . S
C2685 H2678 0.950 . S
C2685 C2682 1.387 . S
C2686 C2687 1.387 . S
C2686 H2690 0.950 . S
C2686 C2695 1.390 . S
C2687 C2686 1.387 . S
C2687 C2689 1.387 . S
H2688 C2695 0.950 . S
C2689 C2687 1.387 . S
C2689 C2691 1.390 . S
C2689 H2693 0.950 . S
H2690 C2686 0.950 . S
C2691 C2689 1.390 . S
C2691 C2692 1.387 . S
C2691 H2694 0.950 . S
C2692 C2691 1.387 . S
C2692 C2695 1.387 . S
H2693 C2689 0.950 . S
H2694 C2691 0.950 . S
C2695 C2686 1.390 . S
C2695 H2688 0.950 . S
C2695 C2692 1.387 . S
C2696 C2697 1.387 . S
C2696 H2700 0.950 . S
C2696 C2705 1.390 . S
C2697 C2696 1.387 . S
C2697 C2699 1.387 . S
H2698 C2705 0.950 . S
C2699 C2697 1.387 . S
C2699 C2701 1.390 . S
C2699 H2703 0.950 . S
H2700 C2696 0.950 . S
C2701 C2699 1.390 . S
C2701 C2702 1.387 . S
C2701 H2704 0.950 . S
C2702 C2701 1.387 . S
C2702 C2705 1.387 . S
H2703 C2699 0.950 . S
H2704 C2701 0.950 . S
C2705 C2696 1.390 . S
C2705 H2698 0.950 . S
C2705 C2702 1.387 . S
C2706 C2707 1.387 . S
C2706 H2710 0.950 . S
C2706 C2715 1.390 . S
C2707 C2706 1.387 . S
C2707 C2709 1.387 . S
H2708 C2715 0.950 . S
C2709 C2707 1.387 . S
C2709 C2711 1.390 . S
C2709 H2713 0.950 . S
H2710 C2706 0.950 . S
C2711 C2709 1.390 . S
C2711 C2712 1.387 . S
C2711 H2714 0.950 . S
C2712 C2711 1.387 . S
C2712 C2715 1.387 . S
H2713 C2709 0.950 . S
H2714 C2711 0.950 . S
C2715 C2706 1.390 . S
C2715 H2708 0.950 . S
C2715 C2712 1.387 . S
C2716 C2717 1.387 . S
C2716 H2720 0.950 . S
C2716 C2725 1.390 . S
C2717 C2716 1.387 . S
C2717 C2719 1.387 . S
H2718 C2725 0.950 . S
C2719 C2717 1.387 . S
C2719 C2721 1.390 . S
C2719 H2723 0.950 . S
H2720 C2716 0.950 . S
C2721 C2719 1.390 . S
C2721 C2722 1.387 . S
C2721 H2724 0.950 . S
C2722 C2721 1.387 . S
C2722 C2725 1.387 . S
H2723 C2719 0.950 . S
H2724 C2721 0.950 . S
C2725 C2716 1.390 . S
C2725 H2718 0.950 . S
C2725 C2722 1.387 . S
C2726 C2727 1.387 . S
C2726 H2730 0.950 . S
C2726 C2735 1.390 . S
C2727 C2726 1.387 . S
C2727 C2729 1.387 . S
H2728 C2735 0.950 . S
C2729 C2727 1.387 . S
C2729 C2731 1.390 . S
C2729 H2733 0.950 . S
H2730 C2726 0.950 . S
C2731 C2729 1.390 . S
C2731 C2732 1.387 . S
C2731 H2734 0.950 . S
C2732 C2731 1.387 . S
C2732 C2735 1.387 . S
H2733 C2729 0.950 . S
H2734 C2731 0.950 . S
C2735 C2726 1.390 . S
C2735 H2728 0.950 . S
C2735 C2732 1.387 . S
C2736 C2737 1.387 . S
C2736 H2740 0.950 . S
C2736 C2745 1.390 . S
C2737 C2736 1.387 . S
C2737 C2739 1.387 . S
H2738 C2745 0.950 . S
C2739 C2737 1.387 . S
C2739 C2741 1.390 . S
C2739 H2743 0.950 . S
H2740 C2736 0.950 . S
C2741 C2739 1.390 . S
C2741 C2742 1.387 . S
C2741 H2744 0.950 . S
C2742 C2741 1.387 . S
C2742 C2745 1.387 . S
H2743 C2739 0.950 . S
H2744 C2741 0.950 . S
C2745 C2736 1.390 . S
C2745 H2738 0.950 . S
C2745 C2742 1.387 . S
C2746 C2747 1.387 . S
C2746 H2750 0.950 . S
C2746 C2755 1.390 . S
C2747 C2746 1.387 . S
C2747 C2749 1.387 . S
H2748 C2755 0.950 . S
C2749 C2747 1.387 . S
C2749 C2751 1.390 . S
C2749 H2753 0.950 . S
H2750 C2746 0.950 . S
C2751 C2749 1.390 . S
C2751 C2752 1.387 . S
C2751 H2754 0.950 . S
C2752 C2751 1.387 . S
C2752 C2755 1.387 . S
H2753 C2749 0.950 . S
H2754 C2751 0.950 . S
C2755 C2746 1.390 . S
C2755 H2748 0.950 . S
C2755 C2752 1.387 . S
C2756 C2757 1.387 . S
C2756 H2760 0.950 . S
C2756 C2765 1.390 . S
C2757 C2756 1.387 . S
C2757 C2759 1.387 . S
H2758 C2765 0.950 . S
C2759 C2757 1.387 . S
C2759 C2761 1.390 . S
C2759 H2763 0.950 . S
H2760 C2756 0.950 . S
C2761 C2759 1.390 . S
C2761 C2762 1.387 . S
C2761 H2764 0.950 . S
C2762 C2761 1.387 . S
C2762 C2765 1.387 . S
H2763 C2759 0.950 . S
H2764 C2761 0.950 . S
C2765 C2756 1.390 . S
C2765 H2758 0.950 . S
C2765 C2762 1.387 . S
C2766 C2767 1.387 . S
C2766 H2770 0.950 . S
C2766 C2775 1.390 . S
C2767 C2766 1.387 . S
C2767 C2769 1.387 . S
H2768 C2775 0.950 . S
C2769 C2767 1.387 . S
C2769 C2771 1.390 . S
C2769 H2773 0.950 . S
H2770 C2766 0.950 . S
C2771 C2769 1.390 . S
C2771 C2772 1.387 . S
C2771 H2774 0.950 . S
C2772 C2771 1.387 . S
C2772 C2775 1.387 . S
H2773 C2769 0.950 . S
H2774 C2771 0.950 . S
C2775 C2766 1.390 . S
C2775 H2768 0.950 . S
C2775 C2772 1.387 . S
C2776 C2777 1.387 . S
C2776 H2780 0.950 . S
C2776 C2785 1.390 . S
C2777 C2776 1.387 . S
C2777 C2779 1.387 . S
H2778 C2785 0.950 . S
C2779 C2777 1.387 . S
C2779 C2781 1.390 . S
C2779 H2783 0.950 . S
H2780 C2776 0.950 . S
C2781 C2779 1.390 . S
C2781 C2782 1.387 . S
C2781 H2784 0.950 . S
C2782 C2781 1.387 . S
C2782 C2785 1.387 . S
H2783 C2779 0.950 . S
H2784 C2781 0.950 . S
C2785 C2776 1.390 . S
C2785 H2778 0.950 . S
C2785 C2782 1.387 . S
C2786 C2787 1.387 . S
C2786 H2790 0.950 . S
C2786 C2795 1.390 . S
C2787 C2786 1.387 . S
C2787 C2789 1.387 . S
H2788 C2795 0.950 . S
C2789 C2787 1.387 . S
C2789 C2791 1.390 . S
C2789 H2793 0.950 . S
H2790 C2786 0.950 . S
C2791 C2789 1.390 . S
C2791 C2792 1.387 . S
C2791 H2794 0.950 . S
C2792 C2791 1.387 . S
C2792 C2795 1.387 . S
H2793 C2789 0.950 . S
H2794 C2791 0.950 . S
C2795 C2786 1.390 . S
C2795 H2788 0.950 . S
C2795 C2792 1.387 . S
C2796 C2797 1.387 . S
C2796 H2800 0.950 . S
C2796 C2805 1.390 . S
C2797 C2796 1.387 . S
C2797 C2799 1.387 . S
H2798 C2805 0.950 . S
C2799 C2797 1.387 . S
C2799 C2801 1.390 . S
C2799 H2803 0.950 . S
H2800 C2796 0.950 . S
C2801 C2799 1.390 . S
C2801 C2802 1.387 . S
C2801 H2804 0.950 . S
C2802 C2801 1.387 . S
C2802 C2805 1.387 . S
H2803 C2799 0.950 . S
H2804 C2801 0.950 . S
C2805 C2796 1.390 . S
C2805 H2798 0.950 . S
C2805 C2802 1.387 . S
C2806 C2807 1.387 . S
C2806 H2810 0.950 . S
C2806 C2815 1.390 . S
C2807 C2806 1.387 . S
C2807 C2809 1.387 . S
H2808 C2815 0.950 . S
C2809 C2807 1.387 . S
C2809 C2811 1.390 . S
C2809 H2813 0.950 . S
H2810 C2806 0.950 . S
C2811 C2809 1.390 . S
C2811 C2812 1.387 . S
C2811 H2814 0.950 . S
C2812 C2811 1.387 . S
C2812 C2815 1.387 . S
H2813 C2809 0.950 . S
H2814 C2811 0.950 . S
C2815 C2806 1.390 . S
C2815 H2808 0.950 . S
C2815 C2812 1.387 . S
C2816 C2817 1.387 . S
C2816 H2820 0.950 . S
C2816 C2825 1.390 . S
C2817 C2816 1.387 . S
C2817 C2819 1.387 . S
H2818 C2825 0.950 . S
C2819 C2817 1.387 . S
C2819 C2821 1.390 . S
C2819 H2823 0.950 . S
H2820 C2816 0.950 . S
C2821 C2819 1.390 . S
C2821 C2822 1.387 . S
C2821 H2824 0.950 . S
C2822 C2821 1.387 . S
C2822 C2825 1.387 . S
H2823 C2819 0.950 . S
H2824 C2821 0.950 . S
C2825 C2816 1.390 . S
C2825 H2818 0.950 . S
C2825 C2822 1.387 . S
C2826 C2827 1.387 . S
C2826 H2830 0.950 . S
C2826 C2835 1.390 . S
C2827 C2826 1.387 . S
C2827 C2829 1.387 . S
H2828 C2835 0.950 . S
C2829 C2827 1.387 . S
C2829 C2831 1.390 . S
C2829 H2833 0.950 . S
H2830 C2826 0.950 . S
C2831 C2829 1.390 . S
C2831 C2832 1.387 . S
C2831 H2834 0.950 . S
C2832 C2831 1.387 . S
C2832 C2835 1.387 . S
H2833 C2829 0.950 . S
H2834 C2831 0.950 . S
C2835 C2826 1.390 . S
C2835 H2828 0.950 . S
C2835 C2832 1.387 . S
C2836 C2837 1.387 . S
C2836 H2840 0.950 . S
C2836 C2845 1.390 . S
C2837 C2836 1.387 . S
C2837 C2839 1.387 . S
H2838 C2845 0.950 . S
C2839 C2837 1.387 . S
C2839 C2841 1.390 . S
C2839 H2843 0.950 . S
H2840 C2836 0.950 . S
C2841 C2839 1.390 . S
C2841 C2842 1.387 . S
C2841 H2844 0.950 . S
C2842 C2841 1.387 . S
C2842 C2845 1.387 . S
H2843 C2839 0.950 . S
H2844 C2841 0.950 . S
C2845 C2836 1.390 . S
C2845 H2838 0.950 . S
C2845 C2842 1.387 . S
C2846 C2847 1.387 . S
C2846 H2850 0.950 . S
C2846 C2855 1.390 . S
C2847 C2846 1.387 . S
C2847 C2849 1.387 . S
H2848 C2855 0.950 . S
C2849 C2847 1.387 . S
C2849 C2851 1.390 . S
C2849 H2853 0.950 . S
H2850 C2846 0.950 . S
C2851 C2849 1.390 . S
C2851 C2852 1.387 . S
C2851 H2854 0.950 . S
C2852 C2851 1.387 . S
C2852 C2855 1.387 . S
H2853 C2849 0.950 . S
H2854 C2851 0.950 . S
C2855 C2846 1.390 . S
C2855 H2848 0.950 . S
C2855 C2852 1.387 . S
C2856 C2857 1.387 . S
C2856 H2860 0.950 . S
C2856 C2865 1.390 . S
C2857 C2856 1.387 . S
C2857 C2859 1.387 . S
H2858 C2865 0.950 . S
C2859 C2857 1.387 . S
C2859 C2861 1.390 . S
C2859 H2863 0.950 . S
H2860 C2856 0.950 . S
C2861 C2859 1.390 . S
C2861 C2862 1.387 . S
C2861 H2864 0.950 . S
C2862 C2861 1.387 . S
C2862 C2865 1.387 . S
H2863 C2859 0.950 . S
H2864 C2861 0.950 . S
C2865 C2856 1.390 . S
C2865 H2858 0.950 . S
C2865 C2862 1.387 . S
C2866 C2867 1.387 . S
C2866 H2870 0.950 . S
C2866 C2875 1.390 . S
C2867 C2866 1.387 . S
C2867 C2869 1.387 . S
H2868 C2875 0.950 . S
C2869 C2867 1.387 . S
C2869 C2871 1.390 . S
C2869 H2873 0.950 . S
H2870 C2866 0.950 . S
C2871 C2869 1.390 . S
C2871 C2872 1.387 . S
C2871 H2874 0.950 . S
C2872 C2871 1.387 . S
C2872 C2875 1.387 . S
H2873 C2869 0.950 . S
H2874 C2871 0.950 . S
C2875 C2866 1.390 . S
C2875 H2868 0.950 . S
C2875 C2872 1.387 . S
C2876 C2877 1.387 . S
C2876 H2880 0.950 . S
C2876 C2885 1.390 . S
C2877 C2876 1.387 . S
C2877 C2879 1.387 . S
H2878 C2885 0.950 . S
C2879 C2877 1.387 . S
C2879 C2881 1.390 . S
C2879 H2883 0.950 . S
H2880 C2876 0.950 . S
C2881 C2879 1.390 . S
C2881 C2882 1.387 . S
C2881 H2884 0.950 . S
C2882 C2881 1.387 . S
C2882 C2885 1.387 . S
H2883 C2879 0.950 . S
H2884 C2881 0.950 . S
C2885 C2876 1.390 . S
C2885 H2878 0.950 . S
C2885 C2882 1.387 . S
C2886 C2887 1.387 . S
C2886 H2890 0.950 . S
C2886 C2895 1.390 . S
C2887 C2886 1.387 . S
C2887 C2889 1.387 . S
H2888 C2895 0.950 . S
C2889 C2887 1.387 . S
C2889 C2891 1.390 . S
C2889 H2893 0.950 . S
H2890 C2886 0.950 . S
C2891 C2889 1.390 . S
C2891 C2892 1.387 . S
C2891 H2894 0.950 . S
C2892 C2891 1.387 . S
C2892 C2895 1.387 . S
H2893 C2889 0.950 . S
H2894 C2891 0.950 . S
C2895 C2886 1.390 . S
C2895 H2888 0.950 . S
C2895 C2892 1.387 . S
C2896 C2897 1.387 . S
C2896 H2900 0.950 . S
C2896 C2905 1.390 . S
C2897 C2896 1.387 . S
C2897 C2899 1.387 . S
H2898 C2905 0.950 . S
C2899 C2897 1.387 . S
C2899 C2901 1.390 . S
C2899 H2903 0.950 . S
H2900 C2896 0.950 . S
C2901 C2899 1.390 . S
C2901 C2902 1.387 . S
C2901 H2904 0.950 . S
C2902 C2901 1.387 . S
C2902 C2905 1.387 . S
H2903 C2899 0.950 . S
H2904 C2901 0.950 . S
C2905 C2896 1.390 . S
C2905 H2898 0.950 . S
C2905 C2902 1.387 . S
C2906 C2907 1.387 . S
C2906 H2910 0.950 . S
C2906 C2915 1.390 . S
C2907 C2906 1.387 . S
C2907 C2909 1.387 . S
H2908 C2915 0.950 . S
C2909 C2907 1.387 . S
C2909 C2911 1.390 . S
C2909 H2913 0.950 . S
H2910 C2906 0.950 . S
C2911 C2909 1.390 . S
C2911 C2912 1.387 . S
C2911 H2914 0.950 . S
C2912 C2911 1.387 . S
C2912 C2915 1.387 . S
H2913 C2909 0.950 . S
H2914 C2911 0.950 . S
C2915 C2906 1.390 . S
C2915 H2908 0.950 . S
C2915 C2912 1.387 . S
C2916 C2917 1.387 . S
C2916 H2920 0.950 . S
C2916 C2925 1.390 . S
C2917 C2916 1.387 . S
C2917 C2919 1.387 . S
H2918 C2925 0.950 . S
C2919 C2917 1.387 . S
C2919 C2921 1.390 . S
C2919 H2923 0.950 . S
H2920 C2916 0.950 . S
C2921 C2919 1.390 . S
C2921 C2922 1.387 . S
C2921 H2924 0.950 . S
C2922 C2921 1.387 . S
C2922 C2925 1.387 . S
H2923 C2919 0.950 . S
H2924 C2921 0.950 . S
C2925 C2916 1.390 . S
C2925 H2918 0.950 . S
C2925 C2922 1.387 . S
C2926 C2927 1.387 . S
C2926 H2930 0.950 . S
C2926 C2935 1.390 . S
C2927 C2926 1.387 . S
C2927 C2929 1.387 . S
H2928 C2935 0.950 . S
C2929 C2927 1.387 . S
C2929 C2931 1.390 . S
C2929 H2933 0.950 . S
H2930 C2926 0.950 . S
C2931 C2929 1.390 . S
C2931 C2932 1.387 . S
C2931 H2934 0.950 . S
C2932 C2931 1.387 . S
C2932 C2935 1.387 . S
H2933 C2929 0.950 . S
H2934 C2931 0.950 . S
C2935 C2926 1.390 . S
C2935 H2928 0.950 . S
C2935 C2932 1.387 . S
C2936 C2937 1.387 . S
C2936 H2940 0.950 . S
C2936 C2945 1.390 . S
C2937 C2936 1.387 . S
C2937 C2939 1.387 . S
H2938 C2945 0.950 . S
C2939 C2937 1.387 . S
C2939 C2941 1.390 . S
C2939 H2943 0.950 . S
H2940 C2936 0.950 . S
C2941 C2939 1.390 . S
C2941 C2942 1.387 . S
C2941 H2944 0.950 . S
C2942 C2941 1.387 . S
C2942 C2945 1.387 . S
H2943 C2939 0.950 . S
H2944 C2941 0.950 . S
C2945 C2936 1.390 . S
C2945 H2938 0.950 . S
C2945 C2942 1.387 . S
C2946 C2947 1.387 . S
C2946 H2950 0.950 . S
C2946 C2955 1.390 . S
C2947 C2946 1.387 . S
C2947 C2949 1.387 . S
H2948 C2955 0.950 . S
C2949 C2947 1.387 . S
C2949 C2951 1.390 . S
C2949 H2953 0.950 . S
H2950 C2946 0.950 . S
C2951 C2949 1.390 . S
C2951 C2952 1.387 . S
C2951 H2954 0.950 . S
C2952 C2951 1.387 . S
C2952 C2955 1.387 . S
H2953 C2949 0.950 . S
H2954 C2951 0.950 . S
C2955 C2946 1.390 . S
C2955 H2948 0.950 . S
C2955 C2952 1.387 . S
C2956 C2957 1.387 . S
C2956 H2960 0.950 . S
C2956 C2965 1.390 . S
C2957 C2956 1.387 . S
C2957 C2959 1.387 . S
H2958 C2965 0.950 . S
C2959 C2957 1.387 . S
C2959 C2961 1.390 . S
C2959 H2963 0.950 . S
H2960 C2956 0.950 . S
C2961 C2959 1.390 . S
C2961 C2962 1.387 . S
C2961 H2964 0.950 . S
C2962 C2961 1.387 . S
C2962 C2965 1.387 . S
H2963 C2959 0.950 . S
H2964 C2961 0.950 . S
C2965 C2956 1.390 . S
C2965 H2958 0.950 . S
C2965 C2962 1.387 . S
C2966 C2967 1.387 . S
C2966 H2970 0.950 . S
C2966 C2975 1.390 . S
C2967 C2966 1.387 . S
C2967 C2969 1.387 . S
H2968 C2975 0.950 . S
C2969 C2967 1.387 . S
C2969 C2971 1.390 . S
C2969 H2973 0.950 . S
H2970 C2966 0.950 . S
C2971 C2969 1.390 . S
C2971 C2972 1.387 . S
C2971 H2974 0.950 . S
C2972 C2971 1.387 . S
C2972 C2975 1.387 . S
H2973 C2969 0.950 . S
H2974 C2971 0.950 . S
C2975 C2966 1.390 . S
C2975 H2968 0.950 . S
C2975 C2972 1.387 . S
C2976 C2977 1.387 . S
C2976 H2980 0.950 . S
C2976 C2985 1.390 . S
C2977 C2976 1.387 . S
C2977 C2979 1.387 . S
H2978 C2985 0.950 . S
C2979 C2977 1.387 . S
C2979 C2981 1.390 . S
C2979 H2983 0.950 . S
H2980 C2976 0.950 . S
C2981 C2979 1.390 . S
C2981 C2982 1.387 . S
C2981 H2984 0.950 . S
C2982 C2981 1.387 . S
C2982 C2985 1.387 . S
H2983 C2979 0.950 . S
H2984 C2981 0.950 . S
C2985 C2976 1.390 . S
C2985 H2978 0.950 . S
C2985 C2982 1.387 . S
C2986 C2987 1.387 . S
C2986 H2990 0.950 . S
C2986 C2995 1.390 . S
C2987 C2986 1.387 . S
C2987 C2989 1.387 . S
H2988 C2995 0.950 . S
C2989 C2987 1.387 . S
C2989 C2991 1.390 . S
C2989 H2993 0.950 . S
H2990 C2986 0.950 . S
C2991 C2989 1.390 . S
C2991 C2992 1.387 . S
C2991 H2994 0.950 . S
C2992 C2991 1.387 . S
C2992 C2995 1.387 . S
H2993 C2989 0.950 . S
H2994 C2991 0.950 . S
C2995 C2986 1.390 . S
C2995 H2988 0.950 . S
C2995 C2992 1.387 . S
C2996 C2997 1.387 . S
C2996 H3000 0.950 . S
C2996 C3005 1.390 . S
C2997 C2996 1.387 . S
C2997 C2999 1.387 . S
H2998 C3005 0.950 . S
C2999 C2997 1.387 . S
C2999 C3001 1.390 . S
C2999 H3003 0.950 . S
H3000 C2996 0.950 . S
C3001 C2999 1.390 . S
C3001 C3002 1.387 . S
C3001 H3004 0.950 . S
C3002 C3001 1.387 . S
C3002 C3005 1.387 . S
H3003 C2999 0.950 . S
H3004 C3001 0.950 . S
C3005 C2996 1.390 . S
C3005 H2998 0.950 . S
C3005 C3002 1.387 . S
C3006 C3007 1.387 . S
C3006 H3010 0.950 . S
C3006 C3015 1.390 . S
C3007 C3006 1.387 . S
C3007 C3009 1.387 . S
H3008 C3015 0.950 . S
C3009 C3007 1.387 . S
C3009 C3011 1.390 . S
C3009 H3013 0.950 . S
H3010 C3006 0.950 . S
C3011 C3009 1.390 . S
C3011 C3012 1.387 . S
C3011 H3014 0.950 . S
C3012 C3011 1.387 . S
C3012 C3015 1.387 . S
H3013 C3009 0.950 . S
H3014 C3011 0.950 . S
C3015 C3006 1.390 . S
C3015 H3008 0.950 . S
C3015 C3012 1.387 . S
C3016 C3017 1.387 . S
C3016 H3020 0.950 . S
C3016 C3025 1.390 . S
C3017 C3016 1.387 . S
C3017 C3019 1.387 . S
H3018 C3025 0.950 . S
C3019 C3017 1.387 . S
C3019 C3021 1.390 . S
C3019 H3023 0.950 . S
H3020 C3016 0.950 . S
C3021 C3019 1.390 . S
C3021 C3022 1.387 . S
C3021 H3024 0.950 . S
C3022 C3021 1.387 . S
C3022 C3025 1.387 . S
H3023 C3019 0.950 . S
H3024 C3021 0.950 . S
C3025 C3016 1.390 . S
C3025 H3018 0.950 . S
C3025 C3022 1.387 . S
C3026 C3027 1.387 . S
C3026 H3030 0.950 . S
C3026 C3035 1.390 . S
C3027 C3026 1.387 . S
C3027 C3029 1.387 . S
H3028 C3035 0.950 . S
C3029 C3027 1.387 . S
C3029 C3031 1.390 . S
C3029 H3033 0.950 . S
H3030 C3026 0.950 . S
C3031 C3029 1.390 . S
C3031 C3032 1.387 . S
C3031 H3034 0.950 . S
C3032 C3031 1.387 . S
C3032 C3035 1.387 . S
H3033 C3029 0.950 . S
H3034 C3031 0.950 . S
C3035 C3026 1.390 . S
C3035 H3028 0.950 . S
C3035 C3032 1.387 . S
C3036 C3037 1.387 . S
C3036 H3040 0.950 . S
C3036 C3045 1.390 . S
C3037 C3036 1.387 . S
C3037 C3039 1.387 . S
H3038 C3045 0.950 . S
C3039 C3037 1.387 . S
C3039 C3041 1.390 . S
C3039 H3043 0.950 . S
H3040 C3036 0.950 . S
C3041 C3039 1.390 . S
C3041 C3042 1.387 . S
C3041 H3044 0.950 . S
C3042 C3041 1.387 . S
C3042 C3045 1.387 . S
H3043 C3039 0.950 . S
H3044 C3041 0.950 . S
C3045 C3036 1.390 . S
C3045 H3038 0.950 . S
C3045 C3042 1.387 . S
C3046 C3047 1.387 . S
C3046 H3050 0.950 . S
C3046 C3055 1.390 . S
C3047 C3046 1.387 . S
C3047 C3049 1.387 . S
H3048 C3055 0.950 . S
C3049 C3047 1.387 . S
C3049 C3051 1.390 . S
C3049 H3053 0.950 . S
H3050 C3046 0.950 . S
C3051 C3049 1.390 . S
C3051 C3052 1.387 . S
C3051 H3054 0.950 . S
C3052 C3051 1.387 . S
C3052 C3055 1.387 . S
H3053 C3049 0.950 . S
H3054 C3051 0.950 . S
C3055 C3046 1.390 . S
C3055 H3048 0.950 . S
C3055 C3052 1.387 . S
C3056 C3057 1.387 . S
C3056 H3060 0.950 . S
C3056 C3065 1.390 . S
C3057 C3056 1.387 . S
C3057 C3059 1.387 . S
H3058 C3065 0.950 . S
C3059 C3057 1.387 . S
C3059 C3061 1.390 . S
C3059 H3063 0.950 . S
H3060 C3056 0.950 . S
C3061 C3059 1.390 . S
C3061 C3062 1.387 . S
C3061 H3064 0.950 . S
C3062 C3061 1.387 . S
C3062 C3065 1.387 . S
H3063 C3059 0.950 . S
H3064 C3061 0.950 . S
C3065 C3056 1.390 . S
C3065 H3058 0.950 . S
C3065 C3062 1.387 . S
C3066 C3067 1.387 . S
C3066 H3070 0.950 . S
C3066 C3075 1.390 . S
C3067 C3066 1.387 . S
C3067 C3069 1.387 . S
H3068 C3075 0.950 . S
C3069 C3067 1.387 . S
C3069 C3071 1.390 . S
C3069 H3073 0.950 . S
H3070 C3066 0.950 . S
C3071 C3069 1.390 . S
C3071 C3072 1.387 . S
C3071 H3074 0.950 . S
C3072 C3071 1.387 . S
C3072 C3075 1.387 . S
H3073 C3069 0.950 . S
H3074 C3071 0.950 . S
C3075 C3066 1.390 . S
C3075 H3068 0.950 . S
C3075 C3072 1.387 . S
C3076 C3077 1.387 . S
C3076 H3080 0.950 . S
C3076 C3085 1.390 . S
C3077 C3076 1.387 . S
C3077 C3079 1.387 . S
H3078 C3085 0.950 . S
C3079 C3077 1.387 . S
C3079 C3081 1.390 . S
C3079 H3083 0.950 . S
H3080 C3076 0.950 . S
C3081 C3079 1.390 . S
C3081 C3082 1.387 . S
C3081 H3084 0.950 . S
C3082 C3081 1.387 . S
C3082 C3085 1.387 . S
H3083 C3079 0.950 . S
H3084 C3081 0.950 . S
C3085 C3076 1.390 . S
C3085 H3078 0.950 . S
C3085 C3082 1.387 . S
C3086 C3087 1.387 . S
C3086 H3090 0.950 . S
C3086 C3095 1.390 . S
C3087 C3086 1.387 . S
C3087 C3089 1.387 . S
H3088 C3095 0.950 . S
C3089 C3087 1.387 . S
C3089 C3091 1.390 . S
C3089 H3093 0.950 . S
H3090 C3086 0.950 . S
C3091 C3089 1.390 . S
C3091 C3092 1.387 . S
C3091 H3094 0.950 . S
C3092 C3091 1.387 . S
C3092 C3095 1.387 . S
H3093 C3089 0.950 . S
H3094 C3091 0.950 . S
C3095 C3086 1.390 . S
C3095 H3088 0.950 . S
C3095 C3092 1.387 . S
C3096 C3097 1.387 . S
C3096 H3100 0.950 . S
C3096 C3105 1.390 . S
C3097 C3096 1.387 . S
C3097 C3099 1.387 . S
H3098 C3105 0.950 . S
C3099 C3097 1.387 . S
C3099 C3101 1.390 . S
C3099 H3103 0.950 . S
H3100 C3096 0.950 . S
C3101 C3099 1.390 . S
C3101 C3102 1.387 . S
C3101 H3104 0.950 . S
C3102 C3101 1.387 . S
C3102 C3105 1.387 . S
H3103 C3099 0.950 . S
H3104 C3101 0.950 . S
C3105 C3096 1.390 . S
C3105 H3098 0.950 . S
C3105 C3102 1.387 . S
C3106 C3107 1.387 . S
C3106 H3110 0.950 . S
C3106 C3115 1.390 . S
C3107 C3106 1.387 . S
C3107 C3109 1.387 . S
H3108 C3115 0.950 . S
C3109 C3107 1.387 . S
C3109 C3111 1.390 . S
C3109 H3113 0.950 . S
H3110 C3106 0.950 . S
C3111 C3109 1.390 . S
C3111 C3112 1.387 . S
C3111 H3114 0.950 . S
C3112 C3111 1.387 . S
C3112 C3115 1.387 . S
H3113 C3109 0.950 . S
H3114 C3111 0.950 . S
C3115 C3106 1.390 . S
C3115 H3108 0.950 . S
C3115 C3112 1.387 . S
C3116 C3117 1.387 . S
C3116 H3120 0.950 . S
C3116 C3125 1.390 . S
C3117 C3116 1.387 . S
C3117 C3119 1.387 . S
H3118 C3125 0.950 . S
C3119 C3117 1.387 . S
C3119 C3121 1.390 . S
C3119 H3123 0.950 . S
H3120 C3116 0.950 . S
C3121 C3119 1.390 . S
C3121 C3122 1.387 . S
C3121 H3124 0.950 . S
C3122 C3121 1.387 . S
C3122 C3125 1.387 . S
H3123 C3119 0.950 . S
H3124 C3121 0.950 . S
C3125 C3116 1.390 . S
C3125 H3118 0.950 . S
C3125 C3122 1.387 . S
C3126 C3127 1.387 . S
C3126 H3130 0.950 . S
C3126 C3135 1.390 . S
C3127 C3126 1.387 . S
C3127 C3129 1.387 . S
H3128 C3135 0.950 . S
C3129 C3127 1.387 . S
C3129 C3131 1.390 . S
C3129 H3133 0.950 . S
H3130 C3126 0.950 . S
C3131 C3129 1.390 . S
C3131 C3132 1.387 . S
C3131 H3134 0.950 . S
C3132 C3131 1.387 . S
C3132 C3135 1.387 . S
H3133 C3129 0.950 . S
H3134 C3131 0.950 . S
C3135 C3126 1.390 . S
C3135 H3128 0.950 . S
C3135 C3132 1.387 . S
C3136 C3137 1.387 . S
C3136 H3140 0.950 . S
C3136 C3145 1.390 . S
C3137 C3136 1.387 . S
C3137 C3139 1.387 . S
H3138 C3145 0.950 . S
C3139 C3137 1.387 . S
C3139 C3141 1.390 . S
C3139 H3143 0.950 . S
H3140 C3136 0.950 . S
C3141 C3139 1.390 . S
C3141 C3142 1.387 . S
C3141 H3144 0.950 . S
C3142 C3141 1.387 . S
C3142 C3145 1.387 . S
H3143 C3139 0.950 . S
H3144 C3141 0.950 . S
C3145 C3136 1.390 . S
C3145 H3138 0.950 . S
C3145 C3142 1.387 . S
C3146 C3147 1.387 . S
C3146 H3150 0.950 . S
C3146 C3155 1.390 . S
C3147 C3146 1.387 . S
C3147 C3149 1.387 . S
H3148 C3155 0.950 . S
C3149 C3147 1.387 . S
C3149 C3151 1.390 . S
C3149 H3153 0.950 . S
H3150 C3146 0.950 . S
C3151 C3149 1.390 . S
C3151 C3152 1.387 . S
C3151 H3154 0.950 . S
C3152 C3151 1.387 . S
C3152 C3155 1.387 . S
H3153 C3149 0.950 . S
H3154 C3151 0.950 . S
C3155 C3146 1.390 . S
C3155 H3148 0.950 . S
C3155 C3152 1.387 . S
C3156 C3157 1.387 . S
C3156 H3160 0.950 . S
C3156 C3165 1.390 . S
C3157 C3156 1.387 . S
C3157 C3159 1.387 . S
H3158 C3165 0.950 . S
C3159 C3157 1.387 . S
C3159 C3161 1.390 . S
C3159 H3163 0.950 . S
H3160 C3156 0.950 . S
C3161 C3159 1.390 . S
C3161 C3162 1.387 . S
C3161 H3164 0.950 . S
C3162 C3161 1.387 . S
C3162 C3165 1.387 . S
H3163 C3159 0.950 . S
H3164 C3161 0.950 . S
C3165 C3156 1.390 . S
C3165 H3158 0.950 . S
C3165 C3162 1.387 . S
C3166 C3167 1.387 . S
C3166 H3170 0.950 . S
C3166 C3175 1.390 . S
C3167 C3166 1.387 . S
C3167 C3169 1.387 . S
H3168 C3175 0.950 . S
C3169 C3167 1.387 . S
C3169 C3171 1.390 . S
C3169 H3173 0.950 . S
H3170 C3166 0.950 . S
C3171 C3169 1.390 . S
C3171 C3172 1.387 . S
C3171 H3174 0.950 . S
C3172 C3171 1.387 . S
C3172 C3175 1.387 . S
H3173 C3169 0.950 . S
H3174 C3171 0.950 . S
C3175 C3166 1.390 . S
C3175 H3168 0.950 . S
C3175 C3172 1.387 . S
C3176 C3177 1.387 . S
C3176 H3180 0.950 . S
C3176 C3185 1.390 . S
C3177 C3176 1.387 . S
C3177 C3179 1.387 . S
H3178 C3185 0.950 . S
C3179 C3177 1.387 . S
C3179 C3181 1.390 . S
C3179 H3183 0.950 . S
H3180 C3176 0.950 . S
C3181 C3179 1.390 . S
C3181 C3182 1.387 . S
C3181 H3184 0.950 . S
C3182 C3181 1.387 . S
C3182 C3185 1.387 . S
H3183 C3179 0.950 . S
H3184 C3181 0.950 . S
C3185 C3176 1.390 . S
C3185 H3178 0.950 . S
C3185 C3182 1.387 . S
C3186 C3187 1.387 . S
C3186 H3190 0.950 . S
C3186 C3195 1.390 . S
C3187 C3186 1.387 . S
C3187 C3189 1.387 . S
H3188 C3195 0.950 . S
C3189 C3187 1.387 . S
C3189 C3191 1.390 . S
C3189 H3193 0.950 . S
H3190 C3186 0.950 . S
C3191 C3189 1.390 . S
C3191 C3192 1.387 . S
C3191 H3194 0.950 . S
C3192 C3191 1.387 . S
C3192 C3195 1.387 . S
H3193 C3189 0.950 . S
H3194 C3191 0.950 . S
C3195 C3186 1.390 . S
C3195 H3188 0.950 . S
C3195 C3192 1.387 . S
C3196 C3197 1.387 . S
C3196 H3200 0.950 . S
C3196 C3205 1.390 . S
C3197 C3196 1.387 . S
C3197 C3199 1.387 . S
H3198 C3205 0.950 . S
C3199 C3197 1.387 . S
C3199 C3201 1.390 . S
C3199 H3203 0.950 . S
H3200 C3196 0.950 . S
C3201 C3199 1.390 . S
C3201 C3202 1.387 . S
C3201 H3204 0.950 . S
C3202 C3201 1.387 . S
C3202 C3205 1.387 . S
H3203 C3199 0.950 . S
H3204 C3201 0.950 . S
C3205 C3196 1.390 . S
C3205 H3198 0.950 . S
C3205 C3202 1.387 . S
C3206 C3207 1.387 . S
C3206 H3210 0.950 . S
C3206 C3215 1.390 . S
C3207 C3206 1.387 . S
C3207 C3209 1.387 . S
H3208 C3215 0.950 . S
C3209 C3207 1.387 . S
C3209 C3211 1.390 . S
C3209 H3213 0.950 . S
H3210 C3206 0.950 . S
C3211 C3209 1.390 . S
C3211 C3212 1.387 . S
C3211 H3214 0.950 . S
C3212 C3211 1.387 . S
C3212 C3215 1.387 . S
H3213 C3209 0.950 . S
H3214 C3211 0.950 . S
C3215 C3206 1.390 . S
C3215 H3208 0.950 . S
C3215 C3212 1.387 . S
C3216 C3217 1.387 . S
C3216 H3220 0.950 . S
C3216 C3225 1.390 . S
C3217 C3216 1.387 . S
C3217 C3219 1.387 . S
H3218 C3225 0.950 . S
C3219 C3217 1.387 . S
C3219 C3221 1.390 . S
C3219 H3223 0.950 . S
H3220 C3216 0.950 . S
C3221 C3219 1.390 . S
C3221 C3222 1.387 . S
C3221 H3224 0.950 . S
C3222 C3221 1.387 . S
C3222 C3225 1.387 . S
H3223 C3219 0.950 . S
H3224 C3221 0.950 . S
C3225 C3216 1.390 . S
C3225 H3218 0.950 . S
C3225 C3222 1.387 . S
C3226 C3227 1.387 . S
C3226 H3230 0.950 . S
C3226 C3235 1.390 . S
C3227 C3226 1.387 . S
C3227 C3229 1.387 . S
H3228 C3235 0.950 . S
C3229 C3227 1.387 . S
C3229 C3231 1.390 . S
C3229 H3233 0.950 . S
H3230 C3226 0.950 . S
C3231 C3229 1.390 . S
C3231 C3232 1.387 . S
C3231 H3234 0.950 . S
C3232 C3231 1.387 . S
C3232 C3235 1.387 . S
H3233 C3229 0.950 . S
H3234 C3231 0.950 . S
C3235 C3226 1.390 . S
C3235 H3228 0.950 . S
C3235 C3232 1.387 . S
C3236 C3237 1.387 . S
C3236 H3240 0.950 . S
C3236 C3245 1.390 . S
C3237 C3236 1.387 . S
C3237 C3239 1.387 . S
H3238 C3245 0.950 . S
C3239 C3237 1.387 . S
C3239 C3241 1.390 . S
C3239 H3243 0.950 . S
H3240 C3236 0.950 . S
C3241 C3239 1.390 . S
C3241 C3242 1.387 . S
C3241 H3244 0.950 . S
C3242 C3241 1.387 . S
C3242 C3245 1.387 . S
H3243 C3239 0.950 . S
H3244 C3241 0.950 . S
C3245 C3236 1.390 . S
C3245 H3238 0.950 . S
C3245 C3242 1.387 . S
C3246 C3247 1.387 . S
C3246 H3250 0.950 . S
C3246 C3255 1.390 . S
C3247 C3246 1.387 . S
C3247 C3249 1.387 . S
H3248 C3255 0.950 . S
C3249 C3247 1.387 . S
C3249 C3251 1.390 . S
C3249 H3253 0.950 . S
H3250 C3246 0.950 . S
C3251 C3249 1.390 . S
C3251 C3252 1.387 . S
C3251 H3254 0.950 . S
C3252 C3251 1.387 . S
C3252 C3255 1.387 . S
H3253 C3249 0.950 . S
H3254 C3251 0.950 . S
C3255 C3246 1.390 . S
C3255 H3248 0.950 . S
C3255 C3252 1.387 . S
C3256 C3257 1.387 . S
C3256 H3260 0.950 . S
C3256 C3265 1.390 . S
C3257 C3256 1.387 . S
C3257 C3259 1.387 . S
H3258 C3265 0.950 . S
C3259 C3257 1.387 . S
C3259 C3261 1.390 . S
C3259 H3263 0.950 . S
H3260 C3256 0.950 . S
C3261 C3259 1.390 . S
C3261 C3262 1.387 . S
C3261 H3264 0.950 . S
C3262 C3261 1.387 . S
C3262 C3265 1.387 . S
H3263 C3259 0.950 . S
H3264 C3261 0.950 . S
C3265 C3256 1.390 . S
C3265 H3258 0.950 . S
C3265 C3262 1.387 . S
C3266 C3267 1.387 . S
C3266 H3270 0.950 . S
C3266 C3275 1.390 . S
C3267 C3266 1.387 . S
C3267 C3269 1.387 . S
H3268 C3275 0.950 . S
C3269 C3267 1.387 . S
C3269 C3271 1.390 . S
C3269 H3273 0.950 . S
H3270 C3266 0.950 . S
C3271 C3269 1.390 . S
C3271 C3272 1.387 . S
C3271 H3274 0.950 . S
C3272 C3271 1.387 . S
C3272 C3275 1.387 . S
H3273 C3269 0.950 . S
H3274 C3271 0.950 . S
C3275 C3266 1.390 . S
C3275 H3268 0.950 . S
C3275 C3272 1.387 . S
C3276 C3277 1.387 . S
C3276 H3280 0.950 . S
C3276 C3285 1.390 . S
C3277 C3276 1.387 . S
C3277 C3279 1.387 . S
H3278 C3285 0.950 . S
C3279 C3277 1.387 . S
C3279 C3281 1.390 . S
C3279 H3283 0.950 . S
H3280 C3276 0.950 . S
C3281 C3279 1.390 . S
C3281 C3282 1.387 . S
C3281 H3284 0.950 . S
C3282 C3281 1.387 . S
C3282 C3285 1.387 . S
H3283 C3279 0.950 . S
H3284 C3281 0.950 . S
C3285 C3276 1.390 . S
C3285 H3278 0.950 . S
C3285 C3282 1.387 . S
C3286 C3287 1.387 . S
C3286 H3290 0.950 . S
C3286 C3295 1.390 . S
C3287 C3286 1.387 . S
C3287 C3289 1.387 . S
H3288 C3295 0.950 . S
C3289 C3287 1.387 . S
C3289 C3291 1.390 . S
C3289 H3293 0.950 . S
H3290 C3286 0.950 . S
C3291 C3289 1.390 . S
C3291 C3292 1.387 . S
C3291 H3294 0.950 . S
C3292 C3291 1.387 . S
C3292 C3295 1.387 . S
H3293 C3289 0.950 . S
H3294 C3291 0.950 . S
C3295 C3286 1.390 . S
C3295 H3288 0.950 . S
C3295 C3292 1.387 . S
C3296 C3297 1.387 . S
C3296 H3300 0.950 . S
C3296 C3305 1.390 . S
C3297 C3296 1.387 . S
C3297 C3299 1.387 . S
H3298 C3305 0.950 . S
C3299 C3297 1.387 . S
C3299 C3301 1.390 . S
C3299 H3303 0.950 . S
H3300 C3296 0.950 . S
C3301 C3299 1.390 . S
C3301 C3302 1.387 . S
C3301 H3304 0.950 . S
C3302 C3301 1.387 . S
C3302 C3305 1.387 . S
H3303 C3299 0.950 . S
H3304 C3301 0.950 . S
C3305 C3296 1.390 . S
C3305 H3298 0.950 . S
C3305 C3302 1.387 . S
C3306 C3307 1.387 . S
C3306 H3310 0.950 . S
C3306 C3315 1.390 . S
C3307 C3306 1.387 . S
C3307 C3309 1.387 . S
H3308 C3315 0.950 . S
C3309 C3307 1.387 . S
C3309 C3311 1.390 . S
C3309 H3313 0.950 . S
H3310 C3306 0.950 . S
C3311 C3309 1.390 . S
C3311 C3312 1.387 . S
C3311 H3314 0.950 . S
C3312 C3311 1.387 . S
C3312 C3315 1.387 . S
H3313 C3309 0.950 . S
H3314 C3311 0.950 . S
C3315 C3306 1.390 . S
C3315 H3308 0.950 . S
C3315 C3312 1.387 . S
C3316 C3317 1.387 . S
C3316 H3320 0.950 . S
C3316 C3325 1.390 . S
C3317 C3316 1.387 . S
C3317 C3319 1.387 . S
H3318 C3325 0.950 . S
C3319 C3317 1.387 . S
C3319 C3321 1.390 . S
C3319 H3323 0.950 . S
H3320 C3316 0.950 . S
C3321 C3319 1.390 . S
C3321 C3322 1.387 . S
C3321 H3324 0.950 . S
C3322 C3321 1.387 . S
C3322 C3325 1.387 . S
H3323 C3319 0.950 . S
H3324 C3321 0.950 . S
C3325 C3316 1.390 . S
C3325 H3318 0.950 . S
C3325 C3322 1.387 . S
C3326 C3327 1.387 . S
C3326 H3330 0.950 . S
C3326 C3335 1.390 . S
C3327 C3326 1.387 . S
C3327 C3329 1.387 . S
H3328 C3335 0.950 . S
C3329 C3327 1.387 . S
C3329 C3331 1.390 . S
C3329 H3333 0.950 . S
H3330 C3326 0.950 . S
C3331 C3329 1.390 . S
C3331 C3332 1.387 . S
C3331 H3334 0.950 . S
C3332 C3331 1.387 . S
C3332 C3335 1.387 . S
H3333 C3329 0.950 . S
H3334 C3331 0.950 . S
C3335 C3326 1.390 . S
C3335 H3328 0.950 . S
C3335 C3332 1.387 . S
C3336 C3337 1.387 . S
C3336 H3340 0.950 . S
C3336 C3345 1.390 . S
C3337 C3336 1.387 . S
C3337 C3339 1.387 . S
H3338 C3345 0.950 . S
C3339 C3337 1.387 . S
C3339 C3341 1.390 . S
C3339 H3343 0.950 . S
H3340 C3336 0.950 . S
C3341 C3339 1.390 . S
C3341 C3342 1.387 . S
C3341 H3344 0.950 . S
C3342 C3341 1.387 . S
C3342 C3345 1.387 . S
H3343 C3339 0.950 . S
H3344 C3341 0.950 . S
C3345 C3336 1.390 . S
C3345 H3338 0.950 . S
C3345 C3342 1.387 . S
C3346 C3347 1.387 . S
C3346 H3350 0.950 . S
C3346 C3355 1.390 . S
C3347 C3346 1.387 . S
C3347 C3349 1.387 . S
H3348 C3355 0.950 . S
C3349 C3347 1.387 . S
C3349 C3351 1.390 . S
C3349 H3353 0.950 . S
H3350 C3346 0.950 . S
C3351 C3349 1.390 . S
C3351 C3352 1.387 . S
C3351 H3354 0.950 . S
C3352 C3351 1.387 . S
C3352 C3355 1.387 . S
H3353 C3349 0.950 . S
H3354 C3351 0.950 . S
C3355 C3346 1.390 . S
C3355 H3348 0.950 . S
C3355 C3352 1.387 . S
C3356 C3357 1.387 . S
C3356 H3360 0.950 . S
C3356 C3365 1.390 . S
C3357 C3356 1.387 . S
C3357 C3359 1.387 . S
H3358 C3365 0.950 . S
C3359 C3357 1.387 . S
C3359 C3361 1.390 . S
C3359 H3363 0.950 . S
H3360 C3356 0.950 . S
C3361 C3359 1.390 . S
C3361 C3362 1.387 . S
C3361 H3364 0.950 . S
C3362 C3361 1.387 . S
C3362 C3365 1.387 . S
H3363 C3359 0.950 . S
H3364 C3361 0.950 . S
C3365 C3356 1.390 . S
C3365 H3358 0.950 . S
C3365 C3362 1.387 . S
C3366 C3367 1.387 . S
C3366 H3370 0.950 . S
C3366 C3375 1.390 . S
C3367 C3366 1.387 . S
C3367 C3369 1.387 . S
H3368 C3375 0.950 . S
C3369 C3367 1.387 . S
C3369 C3371 1.390 . S
C3369 H3373 0.950 . S
H3370 C3366 0.950 . S
C3371 C3369 1.390 . S
C3371 C3372 1.387 . S
C3371 H3374 0.950 . S
C3372 C3371 1.387 . S
C3372 C3375 1.387 . S
H3373 C3369 0.950 . S
H3374 C3371 0.950 . S
C3375 C3366 1.390 . S
C3375 H3368 0.950 . S
C3375 C3372 1.387 . S
C3376 C3377 1.387 . S
C3376 H3380 0.950 . S
C3376 C3385 1.390 . S
C3377 C3376 1.387 . S
C3377 C3379 1.387 . S
H3378 C3385 0.950 . S
C3379 C3377 1.387 . S
C3379 C3381 1.390 . S
C3379 H3383 0.950 . S
H3380 C3376 0.950 . S
C3381 C3379 1.390 . S
C3381 C3382 1.387 . S
C3381 H3384 0.950 . S
C3382 C3381 1.387 . S
C3382 C3385 1.387 . S
H3383 C3379 0.950 . S
H3384 C3381 0.950 . S
C3385 C3376 1.390 . S
C3385 H3378 0.950 . S
C3385 C3382 1.387 . S
C3386 C3387 1.387 . S
C3386 H3390 0.950 . S
C3386 C3395 1.390 . S
C3387 C3386 1.387 . S
C3387 C3389 1.387 . S
H3388 C3395 0.950 . S
C3389 C3387 1.387 . S
C3389 C3391 1.390 . S
C3389 H3393 0.950 . S
H3390 C3386 0.950 . S
C3391 C3389 1.390 . S
C3391 C3392 1.387 . S
C3391 H3394 0.950 . S
C3392 C3391 1.387 . S
C3392 C3395 1.387 . S
H3393 C3389 0.950 . S
H3394 C3391 0.950 . S
C3395 C3386 1.390 . S
C3395 H3388 0.950 . S
C3395 C3392 1.387 . S
C3396 C3397 1.387 . S
C3396 H3400 0.950 . S
C3396 C3405 1.390 . S
C3397 C3396 1.387 . S
C3397 C3399 1.387 . S
H3398 C3405 0.950 . S
C3399 C3397 1.387 . S
C3399 C3401 1.390 . S
C3399 H3403 0.950 . S
H3400 C3396 0.950 . S
C3401 C3399 1.390 . S
C3401 C3402 1.387 . S
C3401 H3404 0.950 . S
C3402 C3401 1.387 . S
C3402 C3405 1.387 . S
H3403 C3399 0.950 . S
H3404 C3401 0.950 . S
C3405 C3396 1.390 . S
C3405 H3398 0.950 . S
C3405 C3402 1.387 . S
C3406 C3407 1.387 . S
C3406 H3410 0.950 . S
C3406 C3415 1.390 . S
C3407 C3406 1.387 . S
C3407 C3409 1.387 . S
H3408 C3415 0.950 . S
C3409 C3407 1.387 . S
C3409 C3411 1.390 . S
C3409 H3413 0.950 . S
H3410 C3406 0.950 . S
C3411 C3409 1.390 . S
C3411 C3412 1.387 . S
C3411 H3414 0.950 . S
C3412 C3411 1.387 . S
C3412 C3415 1.387 . S
H3413 C3409 0.950 . S
H3414 C3411 0.950 . S
C3415 C3406 1.390 . S
C3415 H3408 0.950 . S
C3415 C3412 1.387 . S
C3416 C3417 1.387 . S
C3416 H3420 0.950 . S
C3416 C3425 1.390 . S
C3417 C3416 1.387 . S
C3417 C3419 1.387 . S
H3418 C3425 0.950 . S
C3419 C3417 1.387 . S
C3419 C3421 1.390 . S
C3419 H3423 0.950 . S
H3420 C3416 0.950 . S
C3421 C3419 1.390 . S
C3421 C3422 1.387 . S
C3421 H3424 0.950 . S
C3422 C3421 1.387 . S
C3422 C3425 1.387 . S
H3423 C3419 0.950 . S
H3424 C3421 0.950 . S
C3425 C3416 1.390 . S
C3425 H3418 0.950 . S
C3425 C3422 1.387 . S
C3426 C3427 1.387 . S
C3426 H3430 0.950 . S
C3426 C3435 1.390 . S
C3427 C3426 1.387 . S
C3427 C3429 1.387 . S
H3428 C3435 0.950 . S
C3429 C3427 1.387 . S
C3429 C3431 1.390 . S
C3429 H3433 0.950 . S
H3430 C3426 0.950 . S
C3431 C3429 1.390 . S
C3431 C3432 1.387 . S
C3431 H3434 0.950 . S
C3432 C3431 1.387 . S
C3432 C3435 1.387 . S
H3433 C3429 0.950 . S
H3434 C3431 0.950 . S
C3435 C3426 1.390 . S
C3435 H3428 0.950 . S
C3435 C3432 1.387 . S
C3436 C3437 1.387 . S
C3436 H3440 0.950 . S
C3436 C3445 1.390 . S
C3437 C3436 1.387 . S
C3437 C3439 1.387 . S
H3438 C3445 0.950 . S
C3439 C3437 1.387 . S
C3439 C3441 1.390 . S
C3439 H3443 0.950 . S
H3440 C3436 0.950 . S
C3441 C3439 1.390 . S
C3441 C3442 1.387 . S
C3441 H3444 0.950 . S
C3442 C3441 1.387 . S
C3442 C3445 1.387 . S
H3443 C3439 0.950 . S
H3444 C3441 0.950 . S
C3445 C3436 1.390 . S
C3445 H3438 0.950 . S
C3445 C3442 1.387 . S
C3446 C3447 1.387 . S
C3446 H3450 0.950 . S
C3446 C3455 1.390 . S
C3447 C3446 1.387 . S
C3447 C3449 1.387 . S
H3448 C3455 0.950 . S
C3449 C3447 1.387 . S
C3449 C3451 1.390 . S
C3449 H3453 0.950 . S
H3450 C3446 0.950 . S
C3451 C3449 1.390 . S
C3451 C3452 1.387 . S
C3451 H3454 0.950 . S
C3452 C3451 1.387 . S
C3452 C3455 1.387 . S
H3453 C3449 0.950 . S
H3454 C3451 0.950 . S
C3455 C3446 1.390 . S
C3455 H3448 0.950 . S
C3455 C3452 1.387 . S
C3456 C3457 1.387 . S
C3456 H3460 0.950 . S
C3456 C3465 1.390 . S
C3457 C3456 1.387 . S
C3457 C3459 1.387 . S
H3458 C3465 0.950 . S
C3459 C3457 1.387 . S
C3459 C3461 1.390 . S
C3459 H3463 0.950 . S
H3460 C3456 0.950 . S
C3461 C3459 1.390 . S
C3461 C3462 1.387 . S
C3461 H3464 0.950 . S
C3462 C3461 1.387 . S
C3462 C3465 1.387 . S
H3463 C3459 0.950 . S
H3464 C3461 0.950 . S
C3465 C3456 1.390 . S
C3465 H3458 0.950 . S
C3465 C3462 1.387 . S
C3466 C3467 1.387 . S
C3466 H3470 0.950 . S
C3466 C3475 1.390 . S
C3467 C3466 1.387 . S
C3467 C3469 1.387 . S
H3468 C3475 0.950 . S
C3469 C3467 1.387 . S
C3469 C3471 1.390 . S
C3469 H3473 0.950 . S
H3470 C3466 0.950 . S
C3471 C3469 1.390 . S
C3471 C3472 1.387 . S
C3471 H3474 0.950 . S
C3472 C3471 1.387 . S
C3472 C3475 1.387 . S
H3473 C3469 0.950 . S
H3474 C3471 0.950 . S
C3475 C3466 1.390 . S
C3475 H3468 0.950 . S
C3475 C3472 1.387 . S
C3476 C3477 1.387 . S
C3476 H3480 0.950 . S
C3476 C3485 1.390 . S
C3477 C3476 1.387 . S
C3477 C3479 1.387 . S
H3478 C3485 0.950 . S
C3479 C3477 1.387 . S
C3479 C3481 1.390 . S
C3479 H3483 0.950 . S
H3480 C3476 0.950 . S
C3481 C3479 1.390 . S
C3481 C3482 1.387 . S
C3481 H3484 0.950 . S
C3482 C3481 1.387 . S
C3482 C3485 1.387 . S
H3483 C3479 0.950 . S
H3484 C3481 0.950 . S
C3485 C3476 1.390 . S
C3485 H3478 0.950 . S
C3485 C3482 1.387 . S
C3486 C3487 1.387 . S
C3486 H3490 0.950 . S
C3486 C3495 1.390 . S
C3487 C3486 1.387 . S
C3487 C3489 1.387 . S
H3488 C3495 0.950 . S
C3489 C3487 1.387 . S
C3489 C3491 1.390 . S
C3489 H3493 0.950 . S
H3490 C3486 0.950 . S
C3491 C3489 1.390 . S
C3491 C3492 1.387 . S
C3491 H3494 0.950 . S
C3492 C3491 1.387 . S
C3492 C3495 1.387 . S
H3493 C3489 0.950 . S
H3494 C3491 0.950 . S
C3495 C3486 1.390 . S
C3495 H3488 0.950 . S
C3495 C3492 1.387 . S
C3496 C3497 1.387 . S
C3496 H3500 0.950 . S
C3496 C3505 1.390 . S
C3497 C3496 1.387 . S
C3497 C3499 1.387 . S
H3498 C3505 0.950 . S
C3499 C3497 1.387 . S
C3499 C3501 1.390 . S
C3499 H3503 0.950 . S
H3500 C3496 0.950 . S
C3501 C3499 1.390 . S
C3501 C3502 1.387 . S
C3501 H3504 0.950 . S
C3502 C3501 1.387 . S
C3502 C3505 1.387 . S
H3503 C3499 0.950 . S
H3504 C3501 0.950 . S
C3505 C3496 1.390 . S
C3505 H3498 0.950 . S
C3505 C3502 1.387 . S
C3506 C3507 1.387 . S
C3506 H3510 0.950 . S
C3506 C3515 1.390 . S
C3507 C3506 1.387 . S
C3507 C3509 1.387 . S
H3508 C3515 0.950 . S
C3509 C3507 1.387 . S
C3509 C3511 1.390 . S
C3509 H3513 0.950 . S
H3510 C3506 0.950 . S
C3511 C3509 1.390 . S
C3511 C3512 1.387 . S
C3511 H3514 0.950 . S
C3512 C3511 1.387 . S
C3512 C3515 1.387 . S
H3513 C3509 0.950 . S
H3514 C3511 0.950 . S
C3515 C3506 1.390 . S
C3515 H3508 0.950 . S
C3515 C3512 1.387 . S
C3516 C3517 1.387 . S
C3516 H3520 0.950 . S
C3516 C3525 1.390 . S
C3517 C3516 1.387 . S
C3517 C3519 1.387 . S
H3518 C3525 0.950 . S
C3519 C3517 1.387 . S
C3519 C3521 1.390 . S
C3519 H3523 0.950 . S
H3520 C3516 0.950 . S
C3521 C3519 1.390 . S
C3521 C3522 1.387 . S
C3521 H3524 0.950 . S
C3522 C3521 1.387 . S
C3522 C3525 1.387 . S
H3523 C3519 0.950 . S
H3524 C3521 0.950 . S
C3525 C3516 1.390 . S
C3525 H3518 0.950 . S
C3525 C3522 1.387 . S
C3526 C3527 1.387 . S
C3526 H3530 0.950 . S
C3526 C3535 1.390 . S
C3527 C3526 1.387 . S
C3527 C3529 1.387 . S
H3528 C3535 0.950 . S
C3529 C3527 1.387 . S
C3529 C3531 1.390 . S
C3529 H3533 0.950 . S
H3530 C3526 0.950 . S
C3531 C3529 1.390 . S
C3531 C3532 1.387 . S
C3531 H3534 0.950 . S
C3532 C3531 1.387 . S
C3532 C3535 1.387 . S
H3533 C3529 0.950 . S
H3534 C3531 0.950 . S
C3535 C3526 1.390 . S
C3535 H3528 0.950 . S
C3535 C3532 1.387 . S
C3536 C3537 1.387 . S
C3536 H3540 0.950 . S
C3536 C3545 1.390 . S
C3537 C3536 1.387 . S
C3537 C3539 1.387 . S
H3538 C3545 0.950 . S
C3539 C3537 1.387 . S
C3539 C3541 1.390 . S
C3539 H3543 0.950 . S
H3540 C3536 0.950 . S
C3541 C3539 1.390 . S
C3541 C3542 1.387 . S
C3541 H3544 0.950 . S
C3542 C3541 1.387 . S
C3542 C3545 1.387 . S
H3543 C3539 0.950 . S
H3544 C3541 0.950 . S
C3545 C3536 1.390 . S
C3545 H3538 0.950 . S
C3545 C3542 1.387 . S
C3546 C3547 1.387 . S
C3546 H3550 0.950 . S
C3546 C3555 1.390 . S
C3547 C3546 1.387 . S
C3547 C3549 1.387 . S
H3548 C3555 0.950 . S
C3549 C3547 1.387 . S
C3549 C3551 1.390 . S
C3549 H3553 0.950 . S
H3550 C3546 0.950 . S
C3551 C3549 1.390 . S
C3551 C3552 1.387 . S
C3551 H3554 0.950 . S
C3552 C3551 1.387 . S
C3552 C3555 1.387 . S
H3553 C3549 0.950 . S
H3554 C3551 0.950 . S
C3555 C3546 1.390 . S
C3555 H3548 0.950 . S
C3555 C3552 1.387 . S
C3556 C3557 1.387 . S
C3556 H3560 0.950 . S
C3556 C3565 1.390 . S
C3557 C3556 1.387 . S
C3557 C3559 1.387 . S
H3558 C3565 0.950 . S
C3559 C3557 1.387 . S
C3559 C3561 1.390 . S
C3559 H3563 0.950 . S
H3560 C3556 0.950 . S
C3561 C3559 1.390 . S
C3561 C3562 1.387 . S
C3561 H3564 0.950 . S
C3562 C3561 1.387 . S
C3562 C3565 1.387 . S
H3563 C3559 0.950 . S
H3564 C3561 0.950 . S
C3565 C3556 1.390 . S
C3565 H3558 0.950 . S
C3565 C3562 1.387 . S
C3566 C3567 1.387 . S
C3566 H3570 0.950 . S
C3566 C3575 1.390 . S
C3567 C3566 1.387 . S
C3567 C3569 1.387 . S
H3568 C3575 0.950 . S
C3569 C3567 1.387 . S
C3569 C3571 1.390 . S
C3569 H3573 0.950 . S
H3570 C3566 0.950 . S
C3571 C3569 1.390 . S
C3571 C3572 1.387 . S
C3571 H3574 0.950 . S
C3572 C3571 1.387 . S
C3572 C3575 1.387 . S
H3573 C3569 0.950 . S
H3574 C3571 0.950 . S
C3575 C3566 1.390 . S
C3575 H3568 0.950 . S
C3575 C3572 1.387 . S
C3576 C3577 1.387 . S
C3576 H3580 0.950 . S
C3576 C3585 1.390 . S
C3577 C3576 1.387 . S
C3577 C3579 1.387 . S
H3578 C3585 0.950 . S
C3579 C3577 1.387 . S
C3579 C3581 1.390 . S
C3579 H3583 0.950 . S
H3580 C3576 0.950 . S
C3581 C3579 1.390 . S
C3581 C3582 1.387 . S
C3581 H3584 0.950 . S
C3582 C3581 1.387 . S
C3582 C3585 1.387 . S
H3583 C3579 0.950 . S
H3584 C3581 0.950 . S
C3585 C3576 1.390 . S
C3585 H3578 0.950 . S
C3585 C3582 1.387 . S
C3586 C3587 1.387 . S
C3586 H3590 0.950 . S
C3586 C3595 1.390 . S
C3587 C3586 1.387 . S
C3587 C3589 1.387 . S
H3588 C3595 0.950 . S
C3589 C3587 1.387 . S
C3589 C3591 1.390 . S
C3589 H3593 0.950 . S
H3590 C3586 0.950 . S
C3591 C3589 1.390 . S
C3591 C3592 1.387 . S
C3591 H3594 0.950 . S
C3592 C3591 1.387 . S
C3592 C3595 1.387 . S
H3593 C3589 0.950 . S
H3594 C3591 0.950 . S
C3595 C3586 1.390 . S
C3595 H3588 0.950 . S
C3595 C3592 1.387 . S
C3596 C3597 1.387 . S
C3596 H3600 0.950 . S
C3596 C3605 1.390 . S
C3597 C3596 1.387 . S
C3597 C3599 1.387 . S
H3598 C3605 0.950 . S
C3599 C3597 1.387 . S
C3599 C3601 1.390 . S
C3599 H3603 0.950 . S
H3600 C3596 0.950 . S
C3601 C3599 1.390 . S
C3601 C3602 1.387 . S
C3601 H3604 0.950 . S
C3602 C3601 1.387 . S
C3602 C3605 1.387 . S
H3603 C3599 0.950 . S
H3604 C3601 0.950 . S
C3605 C3596 1.390 . S
C3605 H3598 0.950 . S
C3605 C3602 1.387 . S
C3606 C3607 1.387 . S
C3606 H3610 0.950 . S
C3606 C3615 1.390 . S
C3607 C3606 1.387 . S
C3607 C3609 1.387 . S
H3608 C3615 0.950 . S
C3609 C3607 1.387 . S
C3609 C3611 1.390 . S
C3609 H3613 0.950 . S
H3610 C3606 0.950 . S
C3611 C3609 1.390 . S
C3611 C3612 1.387 . S
C3611 H3614 0.950 . S
C3612 C3611 1.387 . S
C3612 C3615 1.387 . S
H3613 C3609 0.950 . S
H3614 C3611 0.950 . S
C3615 C3606 1.390 . S
C3615 H3608 0.950 . S
C3615 C3612 1.387 . S
C3616 C3617 1.387 . S
C3616 H3620 0.950 . S
C3616 C3625 1.390 . S
C3617 C3616 1.387 . S
C3617 C3619 1.387 . S
H3618 C3625 0.950 . S
C3619 C3617 1.387 . S
C3619 C3621 1.390 . S
C3619 H3623 0.950 . S
H3620 C3616 0.950 . S
C3621 C3619 1.390 . S
C3621 C3622 1.387 . S
C3621 H3624 0.950 . S
C3622 C3621 1.387 . S
C3622 C3625 1.387 . S
H3623 C3619 0.950 . S
H3624 C3621 0.950 . S
C3625 C3616 1.390 . S
C3625 H3618 0.950 . S
C3625 C3622 1.387 . S
C3626 C3627 1.387 . S
C3626 H3630 0.950 . S
C3626 C3635 1.390 . S
C3627 C3626 1.387 . S
C3627 C3629 1.387 . S
H3628 C3635 0.950 . S
C3629 C3627 1.387 . S
C3629 C3631 1.390 . S
C3629 H3633 0.950 . S
H3630 C3626 0.950 . S
C3631 C3629 1.390 . S
C3631 C3632 1.387 . S
C3631 H3634 0.950 . S
C3632 C3631 1.387 . S
C3632 C3635 1.387 . S
H3633 C3629 0.950 . S
H3634 C3631 0.950 . S
C3635 C3626 1.390 . S
C3635 H3628 0.950 . S
C3635 C3632 1.387 . S
C3636 C3637 1.387 . S
C3636 H3640 0.950 . S
C3636 C3645 1.390 . S
C3637 C3636 1.387 . S
C3637 C3639 1.387 . S
H3638 C3645 0.950 . S
C3639 C3637 1.387 . S
C3639 C3641 1.390 . S
C3639 H3643 0.950 . S
H3640 C3636 0.950 . S
C3641 C3639 1.390 . S
C3641 C3642 1.387 . S
C3641 H3644 0.950 . S
C3642 C3641 1.387 . S
C3642 C3645 1.387 . S
H3643 C3639 0.950 . S
H3644 C3641 0.950 . S
C3645 C3636 1.390 . S
C3645 H3638 0.950 . S
C3645 C3642 1.387 . S
C3646 C3647 1.387 . S
C3646 H3650 0.950 . S
C3646 C3655 1.390 . S
C3647 C3646 1.387 . S
C3647 C3649 1.387 . S
H3648 C3655 0.950 . S
C3649 C3647 1.387 . S
C3649 C3651 1.390 . S
C3649 H3653 0.950 . S
H3650 C3646 0.950 . S
C3651 C3649 1.390 . S
C3651 C3652 1.387 . S
C3651 H3654 0.950 . S
C3652 C3651 1.387 . S
C3652 C3655 1.387 . S
H3653 C3649 0.950 . S
H3654 C3651 0.950 . S
C3655 C3646 1.390 . S
C3655 H3648 0.950 . S
C3655 C3652 1.387 . S
C3656 C3657 1.387 . S
C3656 H3660 0.950 . S
C3656 C3665 1.390 . S
C3657 C3656 1.387 . S
C3657 C3659 1.387 . S
H3658 C3665 0.950 . S
C3659 C3657 1.387 . S
C3659 C3661 1.390 . S
C3659 H3663 0.950 . S
H3660 C3656 0.950 . S
C3661 C3659 1.390 . S
C3661 C3662 1.387 . S
C3661 H3664 0.950 . S
C3662 C3661 1.387 . S
C3662 C3665 1.387 . S
H3663 C3659 0.950 . S
H3664 C3661 0.950 . S
C3665 C3656 1.390 . S
C3665 H3658 0.950 . S
C3665 C3662 1.387 . S
C3666 C3667 1.387 . S
C3666 H3670 0.950 . S
C3666 C3675 1.390 . S
C3667 C3666 1.387 . S
C3667 C3669 1.387 . S
H3668 C3675 0.950 . S
C3669 C3667 1.387 . S
C3669 C3671 1.390 . S
C3669 H3673 0.950 . S
H3670 C3666 0.950 . S
C3671 C3669 1.390 . S
C3671 C3672 1.387 . S
C3671 H3674 0.950 . S
C3672 C3671 1.387 . S
C3672 C3675 1.387 . S
H3673 C3669 0.950 . S
H3674 C3671 0.950 . S
C3675 C3666 1.390 . S
C3675 H3668 0.950 . S
C3675 C3672 1.387 . S
C3676 C3677 1.387 . S
C3676 H3680 0.950 . S
C3676 C3685 1.390 . S
C3677 C3676 1.387 . S
C3677 C3679 1.387 . S
H3678 C3685 0.950 . S
C3679 C3677 1.387 . S
C3679 C3681 1.390 . S
C3679 H3683 0.950 . S
H3680 C3676 0.950 . S
C3681 C3679 1.390 . S
C3681 C3682 1.387 . S
C3681 H3684 0.950 . S
C3682 C3681 1.387 . S
C3682 C3685 1.387 . S
H3683 C3679 0.950 . S
H3684 C3681 0.950 . S
C3685 C3676 1.390 . S
C3685 H3678 0.950 . S
C3685 C3682 1.387 . S
C3686 C3687 1.387 . S
C3686 H3690 0.950 . S
C3686 C3695 1.390 . S
C3687 C3686 1.387 . S
C3687 C3689 1.387 . S
H3688 C3695 0.950 . S
C3689 C3687 1.387 . S
C3689 C3691 1.390 . S
C3689 H3693 0.950 . S
H3690 C3686 0.950 . S
C3691 C3689 1.390 . S
C3691 C3692 1.387 . S
C3691 H3694 0.950 . S
C3692 C3691 1.387 . S
C3692 C3695 1.387 . S
H3693 C3689 0.950 . S
H3694 C3691 0.950 . S
C3695 C3686 1.390 . S
C3695 H3688 0.950 . S
C3695 C3692 1.387 . S
C3696 C3697 1.387 . S
C3696 H3700 0.950 . S
C3696 C3705 1.390 . S
C3697 C3696 1.387 . S
C3697 C3699 1.387 . S
H3698 C3705 0.950 . S
C3699 C3697 1.387 . S
C3699 C3701 1.390 . S
C3699 H3703 0.950 . S
H3700 C3696 0.950 . S
C3701 C3699 1.390 . S
C3701 C3702 1.387 . S
C3701 H3704 0.950 . S
C3702 C3701 1.387 . S
C3702 C3705 1.387 . S
H3703 C3699 0.950 . S
H3704 C3701 0.950 . S
C3705 C3696 1.390 . S
C3705 H3698 0.950 . S
C3705 C3702 1.387 . S
C3706 C3707 1.387 . S
C3706 H3710 0.950 . S
C3706 C3715 1.390 . S
C3707 C3706 1.387 . S
C3707 C3709 1.387 . S
H3708 C3715 0.950 . S
C3709 C3707 1.387 . S
C3709 C3711 1.390 . S
C3709 H3713 0.950 . S
H3710 C3706 0.950 . S
C3711 C3709 1.390 . S
C3711 C3712 1.387 . S
C3711 H3714 0.950 . S
C3712 C3711 1.387 . S
C3712 C3715 1.387 . S
H3713 C3709 0.950 . S
H3714 C3711 0.950 . S
C3715 C3706 1.390 . S
C3715 H3708 0.950 . S
C3715 C3712 1.387 . S
C3716 C3717 1.387 . S
C3716 H3720 0.950 . S
C3716 C3725 1.390 . S
C3717 C3716 1.387 . S
C3717 C3719 1.387 . S
H3718 C3725 0.950 . S
C3719 C3717 1.387 . S
C3719 C3721 1.390 . S
C3719 H3723 0.950 . S
H3720 C3716 0.950 . S
C3721 C3719 1.390 . S
C3721 C3722 1.387 . S
C3721 H3724 0.950 . S
C3722 C3721 1.387 . S
C3722 C3725 1.387 . S
H3723 C3719 0.950 . S
H3724 C3721 0.950 . S
C3725 C3716 1.390 . S
C3725 H3718 0.950 . S
C3725 C3722 1.387 . S
C3726 C3727 1.387 . S
C3726 H3730 0.950 . S
C3726 C3735 1.390 . S
C3727 C3726 1.387 . S
C3727 C3729 1.387 . S
H3728 C3735 0.950 . S
C3729 C3727 1.387 . S
C3729 C3731 1.390 . S
C3729 H3733 0.950 . S
H3730 C3726 0.950 . S
C3731 C3729 1.390 . S
C3731 C3732 1.387 . S
C3731 H3734 0.950 . S
C3732 C3731 1.387 . S
C3732 C3735 1.387 . S
H3733 C3729 0.950 . S
H3734 C3731 0.950 . S
C3735 C3726 1.390 . S
C3735 H3728 0.950 . S
C3735 C3732 1.387 . S
C3736 C3737 1.387 . S
C3736 H3740 0.950 . S
C3736 C3745 1.390 . S
C3737 C3736 1.387 . S
C3737 C3739 1.387 . S
H3738 C3745 0.950 . S
C3739 C3737 1.387 . S
C3739 C3741 1.390 . S
C3739 H3743 0.950 . S
H3740 C3736 0.950 . S
C3741 C3739 1.390 . S
C3741 C3742 1.387 . S
C3741 H3744 0.950 . S
C3742 C3741 1.387 . S
C3742 C3745 1.387 . S
H3743 C3739 0.950 . S
H3744 C3741 0.950 . S
C3745 C3736 1.390 . S
C3745 H3738 0.950 . S
C3745 C3742 1.387 . S
C3746 C3747 1.387 . S
C3746 H3750 0.950 . S
C3746 C3755 1.390 . S
C3747 C3746 1.387 . S
C3747 C3749 1.387 . S
H3748 C3755 0.950 . S
C3749 C3747 1.387 . S
C3749 C3751 1.390 . S
C3749 H3753 0.950 . S
H3750 C3746 0.950 . S
C3751 C3749 1.390 . S
C3751 C3752 1.387 . S
C3751 H3754 0.950 . S
C3752 C3751 1.387 . S
C3752 C3755 1.387 . S
H3753 C3749 0.950 . S
H3754 C3751 0.950 . S
C3755 C3746 1.390 . S
C3755 H3748 0.950 . S
C3755 C3752 1.387 . S
C3756 C3757 1.387 . S
C3756 H3760 0.950 . S
C3756 C3765 1.390 . S
C3757 C3756 1.387 . S
C3757 C3759 1.387 . S
H3758 C3765 0.950 . S
C3759 C3757 1.387 . S
C3759 C3761 1.390 . S
C3759 H3763 0.950 . S
H3760 C3756 0.950 . S
C3761 C3759 1.390 . S
C3761 C3762 1.387 . S
C3761 H3764 0.950 . S
C3762 C3761 1.387 . S
C3762 C3765 1.387 . S
H3763 C3759 0.950 . S
H3764 C3761 0.950 . S
C3765 C3756 1.390 . S
C3765 H3758 0.950 . S
C3765 C3762 1.387 . S
C3766 C3767 1.387 . S
C3766 H3770 0.950 . S
C3766 C3775 1.390 . S
C3767 C3766 1.387 . S
C3767 C3769 1.387 . S
H3768 C3775 0.950 . S
C3769 C3767 1.387 . S
C3769 C3771 1.390 . S
C3769 H3773 0.950 . S
H3770 C3766 0.950 . S
C3771 C3769 1.390 . S
C3771 C3772 1.387 . S
C3771 H3774 0.950 . S
C3772 C3771 1.387 . S
C3772 C3775 1.387 . S
H3773 C3769 0.950 . S
H3774 C3771 0.950 . S
C3775 C3766 1.390 . S
C3775 H3768 0.950 . S
C3775 C3772 1.387 . S
C3776 C3777 1.387 . S
C3776 H3780 0.950 . S
C3776 C3785 1.390 . S
C3777 C3776 1.387 . S
C3777 C3779 1.387 . S
H3778 C3785 0.950 . S
C3779 C3777 1.387 . S
C3779 C3781 1.390 . S
C3779 H3783 0.950 . S
H3780 C3776 0.950 . S
C3781 C3779 1.390 . S
C3781 C3782 1.387 . S
C3781 H3784 0.950 . S
C3782 C3781 1.387 . S
C3782 C3785 1.387 . S
H3783 C3779 0.950 . S
H3784 C3781 0.950 . S
C3785 C3776 1.390 . S
C3785 H3778 0.950 . S
C3785 C3782 1.387 . S
C3786 C3787 1.387 . S
C3786 H3790 0.950 . S
C3786 C3795 1.390 . S
C3787 C3786 1.387 . S
C3787 C3789 1.387 . S
H3788 C3795 0.950 . S
C3789 C3787 1.387 . S
C3789 C3791 1.390 . S
C3789 H3793 0.950 . S
H3790 C3786 0.950 . S
C3791 C3789 1.390 . S
C3791 C3792 1.387 . S
C3791 H3794 0.950 . S
C3792 C3791 1.387 . S
C3792 C3795 1.387 . S
H3793 C3789 0.950 . S
H3794 C3791 0.950 . S
C3795 C3786 1.390 . S
C3795 H3788 0.950 . S
C3795 C3792 1.387 . S
C3796 C3797 1.387 . S
C3796 H3800 0.950 . S
C3796 C3805 1.390 . S
C3797 C3796 1.387 . S
C3797 C3799 1.387 . S
H3798 C3805 0.950 . S
C3799 C3797 1.387 . S
C3799 C3801 1.390 . S
C3799 H3803 0.950 . S
H3800 C3796 0.950 . S
C3801 C3799 1.390 . S
C3801 C3802 1.387 . S
C3801 H3804 0.950 . S
C3802 C3801 1.387 . S
C3802 C3805 1.387 . S
H3803 C3799 0.950 . S
H3804 C3801 0.950 . S
C3805 C3796 1.390 . S
C3805 H3798 0.950 . S
C3805 C3802 1.387 . S
C3806 C3807 1.387 . S
C3806 H3810 0.950 . S
C3806 C3815 1.390 . S
C3807 C3806 1.387 . S
C3807 C3809 1.387 . S
H3808 C3815 0.950 . S
C3809 C3807 1.387 . S
C3809 C3811 1.390 . S
C3809 H3813 0.950 . S
H3810 C3806 0.950 . S
C3811 C3809 1.390 . S
C3811 C3812 1.387 . S
C3811 H3814 0.950 . S
C3812 C3811 1.387 . S
C3812 C3815 1.387 . S
H3813 C3809 0.950 . S
H3814 C3811 0.950 . S
C3815 C3806 1.390 . S
C3815 H3808 0.950 . S
C3815 C3812 1.387 . S
C3816 C3817 1.387 . S
C3816 H3820 0.950 . S
C3816 C3825 1.390 . S
C3817 C3816 1.387 . S
C3817 C3819 1.387 . S
H3818 C3825 0.950 . S
C3819 C3817 1.387 . S
C3819 C3821 1.390 . S
C3819 H3823 0.950 . S
H3820 C3816 0.950 . S
C3821 C3819 1.390 . S
C3821 C3822 1.387 . S
C3821 H3824 0.950 . S
C3822 C3821 1.387 . S
C3822 C3825 1.387 . S
H3823 C3819 0.950 . S
H3824 C3821 0.950 . S
C3825 C3816 1.390 . S
C3825 H3818 0.950 . S
C3825 C3822 1.387 . S
C3826 C3827 1.387 . S
C3826 H3830 0.950 . S
C3826 C3835 1.390 . S
C3827 C3826 1.387 . S
C3827 C3829 1.387 . S
H3828 C3835 0.950 . S
C3829 C3827 1.387 . S
C3829 C3831 1.390 . S
C3829 H3833 0.950 . S
H3830 C3826 0.950 . S
C3831 C3829 1.390 . S
C3831 C3832 1.387 . S
C3831 H3834 0.950 . S
C3832 C3831 1.387 . S
C3832 C3835 1.387 . S
H3833 C3829 0.950 . S
H3834 C3831 0.950 . S
C3835 C3826 1.390 . S
C3835 H3828 0.950 . S
C3835 C3832 1.387 . S
C3836 C3837 1.387 . S
C3836 H3840 0.950 . S
C3836 C3845 1.390 . S
C3837 C3836 1.387 . S
C3837 C3839 1.387 . S
H3838 C3845 0.950 . S
C3839 C3837 1.387 . S
C3839 C3841 1.390 . S
C3839 H3843 0.950 . S
H3840 C3836 0.950 . S
C3841 C3839 1.390 . S
C3841 C3842 1.387 . S
C3841 H3844 0.950 . S
C3842 C3841 1.387 . S
C3842 C3845 1.387 . S
H3843 C3839 0.950 . S
H3844 C3841 0.950 . S
C3845 C3836 1.390 . S
C3845 H3838 0.950 . S
C3845 C3842 1.387 . S
C3846 C3847 1.387 . S
C3846 H3850 0.950 . S
C3846 C3855 1.390 . S
C3847 C3846 1.387 . S
C3847 C3849 1.387 . S
H3848 C3855 0.950 . S
C3849 C3847 1.387 . S
C3849 C3851 1.390 . S
C3849 H3853 0.950 . S
H3850 C3846 0.950 . S
C3851 C3849 1.390 . S
C3851 C3852 1.387 . S
C3851 H3854 0.950 . S
C3852 C3851 1.387 . S
C3852 C3855 1.387 . S
H3853 C3849 0.950 . S
H3854 C3851 0.950 . S
C3855 C3846 1.390 . S
C3855 H3848 0.950 . S
C3855 C3852 1.387 . S
C3856 C3857 1.387 . S
C3856 H3860 0.950 . S
C3856 C3865 1.390 . S
C3857 C3856 1.387 . S
C3857 C3859 1.387 . S
H3858 C3865 0.950 . S
C3859 C3857 1.387 . S
C3859 C3861 1.390 . S
C3859 H3863 0.950 . S
H3860 C3856 0.950 . S
C3861 C3859 1.390 . S
C3861 C3862 1.387 . S
C3861 H3864 0.950 . S
C3862 C3861 1.387 . S
C3862 C3865 1.387 . S
H3863 C3859 0.950 . S
H3864 C3861 0.950 . S
C3865 C3856 1.390 . S
C3865 H3858 0.950 . S
C3865 C3862 1.387 . S
C3866 C3867 1.387 . S
C3866 H3870 0.950 . S
C3866 C3875 1.390 . S
C3867 C3866 1.387 . S
C3867 C3869 1.387 . S
H3868 C3875 0.950 . S
C3869 C3867 1.387 . S
C3869 C3871 1.390 . S
C3869 H3873 0.950 . S
H3870 C3866 0.950 . S
C3871 C3869 1.390 . S
C3871 C3872 1.387 . S
C3871 H3874 0.950 . S
C3872 C3871 1.387 . S
C3872 C3875 1.387 . S
H3873 C3869 0.950 . S
H3874 C3871 0.950 . S
C3875 C3866 1.390 . S
C3875 H3868 0.950 . S
C3875 C3872 1.387 . S
C3876 C3877 1.387 . S
C3876 H3880 0.950 . S
C3876 C3885 1.390 . S
C3877 C3876 1.387 . S
C3877 C3879 1.387 . S
H3878 C3885 0.950 . S
C3879 C3877 1.387 . S
C3879 C3881 1.390 . S
C3879 H3883 0.950 . S
H3880 C3876 0.950 . S
C3881 C3879 1.390 . S
C3881 C3882 1.387 . S
C3881 H3884 0.950 . S
C3882 C3881 1.387 . S
C3882 C3885 1.387 . S
H3883 C3879 0.950 . S
H3884 C3881 0.950 . S
C3885 C3876 1.390 . S
C3885 H3878 0.950 . S
C3885 C3882 1.387 . S
C3886 C3887 1.387 . S
C3886 H3890 0.950 . S
C3886 C3895 1.390 . S
C3887 C3886 1.387 . S
C3887 C3889 1.387 . S
H3888 C3895 0.950 . S
C3889 C3887 1.387 . S
C3889 C3891 1.390 . S
C3889 H3893 0.950 . S
H3890 C3886 0.950 . S
C3891 C3889 1.390 . S
C3891 C3892 1.387 . S
C3891 H3894 0.950 . S
C3892 C3891 1.387 . S
C3892 C3895 1.387 . S
H3893 C3889 0.950 . S
H3894 C3891 0.950 . S
C3895 C3886 1.390 . S
C3895 H3888 0.950 . S
C3895 C3892 1.387 . S
C3896 C3897 1.387 . S
C3896 H3900 0.950 . S
C3896 C3905 1.390 . S
C3897 C3896 1.387 . S
C3897 C3899 1.387 . S
H3898 C3905 0.950 . S
C3899 C3897 1.387 . S
C3899 C3901 1.390 . S
C3899 H3903 0.950 . S
H3900 C3896 0.950 . S
C3901 C3899 1.390 . S
C3901 C3902 1.387 . S
C3901 H3904 0.950 . S
C3902 C3901 1.387 . S
C3902 C3905 1.387 . S
H3903 C3899 0.950 . S
H3904 C3901 0.950 . S
C3905 C3896 1.390 . S
C3905 H3898 0.950 . S
C3905 C3902 1.387 . S
C3906 C3907 1.387 . S
C3906 H3910 0.950 . S
C3906 C3915 1.390 . S
C3907 C3906 1.387 . S
C3907 C3909 1.387 . S
H3908 C3915 0.950 . S
C3909 C3907 1.387 . S
C3909 C3911 1.390 . S
C3909 H3913 0.950 . S
H3910 C3906 0.950 . S
C3911 C3909 1.390 . S
C3911 C3912 1.387 . S
C3911 H3914 0.950 . S
C3912 C3911 1.387 . S
C3912 C3915 1.387 . S
H3913 C3909 0.950 . S
H3914 C3911 0.950 . S
C3915 C3906 1.390 . S
C3915 H3908 0.950 . S
C3915 C3912 1.387 . S
C3916 C3917 1.387 . S
C3916 H3920 0.950 . S
C3916 C3925 1.390 . S
C3917 C3916 1.387 . S
C3917 C3919 1.387 . S
H3918 C3925 0.950 . S
C3919 C3917 1.387 . S
C3919 C3921 1.390 . S
C3919 H3923 0.950 . S
H3920 C3916 0.950 . S
C3921 C3919 1.390 . S
C3921 C3922 1.387 . S
C3921 H3924 0.950 . S
C3922 C3921 1.387 . S
C3922 C3925 1.387 . S
H3923 C3919 0.950 . S
H3924 C3921 0.950 . S
C3925 C3916 1.390 . S
C3925 H3918 0.950 . S
C3925 C3922 1.387 . S
C3926 C3927 1.387 . S
C3926 H3930 0.950 . S
C3926 C3935 1.390 . S
C3927 C3926 1.387 . S
C3927 C3929 1.387 . S
H3928 C3935 0.950 . S
C3929 C3927 1.387 . S
C3929 C3931 1.390 . S
C3929 H3933 0.950 . S
H3930 C3926 0.950 . S
C3931 C3929 1.390 . S
C3931 C3932 1.387 . S
C3931 H3934 0.950 . S
C3932 C3931 1.387 . S
C3932 C3935 1.387 . S
H3933 C3929 0.950 . S
H3934 C3931 0.950 . S
C3935 C3926 1.390 . S
C3935 H3928 0.950 . S
C3935 C3932 1.387 . S
C3936 C3937 1.387 . S
C3936 H3940 0.950 . S
C3936 C3945 1.390 . S
C3937 C3936 1.387 . S
C3937 C3939 1.387 . S
H3938 C3945 0.950 . S
C3939 C3937 1.387 . S
C3939 C3941 1.390 . S
C3939 H3943 0.950 . S
H3940 C3936 0.950 . S
C3941 C3939 1.390 . S
C3941 C3942 1.387 . S
C3941 H3944 0.950 . S
C3942 C3941 1.387 . S
C3942 C3945 1.387 . S
H3943 C3939 0.950 . S
H3944 C3941 0.950 . S
C3945 C3936 1.390 . S
C3945 H3938 0.950 . S
C3945 C3942 1.387 . S
C3946 C3947 1.387 . S
C3946 H3950 0.950 . S
C3946 C3955 1.390 . S
C3947 C3946 1.387 . S
C3947 C3949 1.387 . S
H3948 C3955 0.950 . S
C3949 C3947 1.387 . S
C3949 C3951 1.390 . S
C3949 H3953 0.950 . S
H3950 C3946 0.950 . S
C3951 C3949 1.390 . S
C3951 C3952 1.387 . S
C3951 H3954 0.950 . S
C3952 C3951 1.387 . S
C3952 C3955 1.387 . S
H3953 C3949 0.950 . S
H3954 C3951 0.950 . S
C3955 C3946 1.390 . S
C3955 H3948 0.950 . S
C3955 C3952 1.387 . S
C3956 C3957 1.387 . S
C3956 H3960 0.950 . S
C3956 C3965 1.390 . S
C3957 C3956 1.387 . S
C3957 C3959 1.387 . S
H3958 C3965 0.950 . S
C3959 C3957 1.387 . S
C3959 C3961 1.390 . S
C3959 H3963 0.950 . S
H3960 C3956 0.950 . S
C3961 C3959 1.390 . S
C3961 C3962 1.387 . S
C3961 H3964 0.950 . S
C3962 C3961 1.387 . S
C3962 C3965 1.387 . S
H3963 C3959 0.950 . S
H3964 C3961 0.950 . S
C3965 C3956 1.390 . S
C3965 H3958 0.950 . S
C3965 C3962 1.387 . S
C3966 C3967 1.387 . S
C3966 H3970 0.950 . S
C3966 C3975 1.390 . S
C3967 C3966 1.387 . S
C3967 C3969 1.387 . S
H3968 C3975 0.950 . S
C3969 C3967 1.387 . S
C3969 C3971 1.390 . S
C3969 H3973 0.950 . S
H3970 C3966 0.950 . S
C3971 C3969 1.390 . S
C3971 C3972 1.387 . S
C3971 H3974 0.950 . S
C3972 C3971 1.387 . S
C3972 C3975 1.387 . S
H3973 C3969 0.950 . S
H3974 C3971 0.950 . S
C3975 C3966 1.390 . S
C3975 H3968 0.950 . S
C3975 C3972 1.387 . S
C3976 C3977 1.387 . S
C3976 H3980 0.950 . S
C3976 C3985 1.390 . S
C3977 C3976 1.387 . S
C3977 C3979 1.387 . S
H3978 C3985 0.950 . S
C3979 C3977 1.387 . S
C3979 C3981 1.390 . S
C3979 H3983 0.950 . S
H3980 C3976 0.950 . S
C3981 C3979 1.390 . S
C3981 C3982 1.387 . S
C3981 H3984 0.950 . S
C3982 C3981 1.387 . S
C3982 C3985 1.387 . S
H3983 C3979 0.950 . S
H3984 C3981 0.950 . S
C3985 C3976 1.390 . S
C3985 H3978 0.950 . S
C3985 C3982 1.387 . S
C3986 C3987 1.387 . S
C3986 H3990 0.950 . S
C3986 C3995 1.390 . S
C3987 C3986 1.387 . S
C3987 C3989 1.387 . S
H3988 C3995 0.950 . S
C3989 C3987 1.387 . S
C3989 C3991 1.390 . S
C3989 H3993 0.950 . S
H3990 C3986 0.950 . S
C3991 C3989 1.390 . S
C3991 C3992 1.387 . S
C3991 H3994 0.950 . S
C3992 C3991 1.387 . S
C3992 C3995 1.387 . S
H3993 C3989 0.950 . S
H3994 C3991 0.950 . S
C3995 C3986 1.390 . S
C3995 H3988 0.950 . S
C3995 C3992 1.387 . S
C3996 C3997 1.387 . S
C3996 H4000 0.950 . S
C3996 C4005 1.390 . S
C3997 C3996 1.387 . S
C3997 C3999 1.387 . S
H3998 C4005 0.950 . S
C3999 C3997 1.387 . S
C3999 C4001 1.390 . S
C3999 H4003 0.950 . S
H4000 C3996 0.950 . S
C4001 C3999 1.390 . S
C4001 C4002 1.387 . S
C4001 H4004 0.950 . S
C4002 C4001 1.387 . S
C4002 C4005 1.387 . S
H4003 C3999 0.950 . S
H4004 C4001 0.950 . S
C4005 C3996 1.390 . S
C4005 H3998 0.950 . S
C4005 C4002 1.387 . S
C4006 C4007 1.387 . S
C4006 H4010 0.950 . S
C4006 C4015 1.390 . S
C4007 C4006 1.387 . S
C4007 C4009 1.387 . S
H4008 C4015 0.950 . S
C4009 C4007 1.387 . S
C4009 C4011 1.390 . S
C4009 H4013 0.950 . S
H4010 C4006 0.950 . S
C4011 C4009 1.390 . S
C4011 C4012 1.387 . S
C4011 H4014 0.950 . S
C4012 C4011 1.387 . S
C4012 C4015 1.387 . S
H4013 C4009 0.950 . S
H4014 C4011 0.950 . S
C4015 C4006 1.390 . S
C4015 H4008 0.950 . S
C4015 C4012 1.387 . S
C4016 C4017 1.387 . S
C4016 H4020 0.950 . S
C4016 C4025 1.390 . S
C4017 C4016 1.387 . S
C4017 C4019 1.387 . S
H4018 C4025 0.950 . S
C4019 C4017 1.387 . S
C4019 C4021 1.390 . S
C4019 H4023 0.950 . S
H4020 C4016 0.950 . S
C4021 C4019 1.390 . S
C4021 C4022 1.387 . S
C4021 H4024 0.950 . S
C4022 C4021 1.387 . S
C4022 C4025 1.387 . S
H4023 C4019 0.950 . S
H4024 C4021 0.950 . S
C4025 C4016 1.390 . S
C4025 H4018 0.950 . S
C4025 C4022 1.387 . S
C4026 C4027 1.387 . S
C4026 H4030 0.950 . S
C4026 C4035 1.390 . S
C4027 C4026 1.387 . S
C4027 C4029 1.387 . S
H4028 C4035 0.950 . S
C4029 C4027 1.387 . S
C4029 C4031 1.390 . S
C4029 H4033 0.950 . S
H4030 C4026 0.950 . S
C4031 C4029 1.390 . S
C4031 C4032 1.387 . S
C4031 H4034 0.950 . S
C4032 C4031 1.387 . S
C4032 C4035 1.387 . S
H4033 C4029 0.950 . S
H4034 C4031 0.950 . S
C4035 C4026 1.390 . S
C4035 H4028 0.950 . S
C4035 C4032 1.387 . S
C4036 C4037 1.387 . S
C4036 H4040 0.950 . S
C4036 C4045 1.390 . S
C4037 C4036 1.387 . S
C4037 C4039 1.387 . S
H4038 C4045 0.950 . S
C4039 C4037 1.387 . S
C4039 C4041 1.390 . S
C4039 H4043 0.950 . S
H4040 C4036 0.950 . S
C4041 C4039 1.390 . S
C4041 C4042 1.387 . S
C4041 H4044 0.950 . S
C4042 C4041 1.387 . S
C4042 C4045 1.387 . S
H4043 C4039 0.950 . S
H4044 C4041 0.950 . S
C4045 C4036 1.390 . S
C4045 H4038 0.950 . S
C4045 C4042 1.387 . S
C4046 C4047 1.387 . S
C4046 H4050 0.950 . S
C4046 C4055 1.390 . S
C4047 C4046 1.387 . S
C4047 C4049 1.387 . S
H4048 C4055 0.950 . S
C4049 C4047 1.387 . S
C4049 C4051 1.390 . S
C4049 H4053 0.950 . S
H4050 C4046 0.950 . S
C4051 C4049 1.390 . S
C4051 C4052 1.387 . S
C4051 H4054 0.950 . S
C4052 C4051 1.387 . S
C4052 C4055 1.387 . S
H4053 C4049 0.950 . S
H4054 C4051 0.950 . S
C4055 C4046 1.390 . S
C4055 H4048 0.950 . S
C4055 C4052 1.387 . S
C4056 C4057 1.387 . S
C4056 H4060 0.950 . S
C4056 C4065 1.390 . S
C4057 C4056 1.387 . S
C4057 C4059 1.387 . S
H4058 C4065 0.950 . S
C4059 C4057 1.387 . S
C4059 C4061 1.390 . S
C4059 H4063 0.950 . S
H4060 C4056 0.950 . S
C4061 C4059 1.390 . S
C4061 C4062 1.387 . S
C4061 H4064 0.950 . S
C4062 C4061 1.387 . S
C4062 C4065 1.387 . S
H4063 C4059 0.950 . S
H4064 C4061 0.950 . S
C4065 C4056 1.390 . S
C4065 H4058 0.950 . S
C4065 C4062 1.387 . S
C4066 C4067 1.387 . S
C4066 H4070 0.950 . S
C4066 C4075 1.390 . S
C4067 C4066 1.387 . S
C4067 C4069 1.387 . S
H4068 C4075 0.950 . S
C4069 C4067 1.387 . S
C4069 C4071 1.390 . S
C4069 H4073 0.950 . S
H4070 C4066 0.950 . S
C4071 C4069 1.390 . S
C4071 C4072 1.387 . S
C4071 H4074 0.950 . S
C4072 C4071 1.387 . S
C4072 C4075 1.387 . S
H4073 C4069 0.950 . S
H4074 C4071 0.950 . S
C4075 C4066 1.390 . S
C4075 H4068 0.950 . S
C4075 C4072 1.387 . S
C4076 C4077 1.387 . S
C4076 H4080 0.950 . S
C4076 C4085 1.390 . S
C4077 C4076 1.387 . S
C4077 C4079 1.387 . S
H4078 C4085 0.950 . S
C4079 C4077 1.387 . S
C4079 C4081 1.390 . S
C4079 H4083 0.950 . S
H4080 C4076 0.950 . S
C4081 C4079 1.390 . S
C4081 C4082 1.387 . S
C4081 H4084 0.950 . S
C4082 C4081 1.387 . S
C4082 C4085 1.387 . S
H4083 C4079 0.950 . S
H4084 C4081 0.950 . S
C4085 C4076 1.390 . S
C4085 H4078 0.950 . S
C4085 C4082 1.387 . S
C4086 C4087 1.387 . S
C4086 H4090 0.950 . S
C4086 C4095 1.390 . S
C4087 C4086 1.387 . S
C4087 C4089 1.387 . S
H4088 C4095 0.950 . S
C4089 C4087 1.387 . S
C4089 C4091 1.390 . S
C4089 H4093 0.950 . S
H4090 C4086 0.950 . S
C4091 C4089 1.390 . S
C4091 C4092 1.387 . S
C4091 H4094 0.950 . S
C4092 C4091 1.387 . S
C4092 C4095 1.387 . S
H4093 C4089 0.950 . S
H4094 C4091 0.950 . S
C4095 C4086 1.390 . S
C4095 H4088 0.950 . S
C4095 C4092 1.387 . S
C4096 C4097 1.387 . S
C4096 H4100 0.950 . S
C4096 C4105 1.390 . S
C4097 C4096 1.387 . S
C4097 C4099 1.387 . S
H4098 C4105 0.950 . S
C4099 C4097 1.387 . S
C4099 C4101 1.390 . S
C4099 H4103 0.950 . S
H4100 C4096 0.950 . S
C4101 C4099 1.390 . S
C4101 C4102 1.387 . S
C4101 H4104 0.950 . S
C4102 C4101 1.387 . S
C4102 C4105 1.387 . S
H4103 C4099 0.950 . S
H4104 C4101 0.950 . S
C4105 C4096 1.390 . S
C4105 H4098 0.950 . S
C4105 C4102 1.387 . S
C4106 C4107 1.387 . S
C4106 H4110 0.950 . S
C4106 C4115 1.390 . S
C4107 C4106 1.387 . S
C4107 C4109 1.387 . S
H4108 C4115 0.950 . S
C4109 C4107 1.387 . S
C4109 C4111 1.390 . S
C4109 H4113 0.950 . S
H4110 C4106 0.950 . S
C4111 C4109 1.390 . S
C4111 C4112 1.387 . S
C4111 H4114 0.950 . S
C4112 C4111 1.387 . S
C4112 C4115 1.387 . S
H4113 C4109 0.950 . S
H4114 C4111 0.950 . S
C4115 C4106 1.390 . S
C4115 H4108 0.950 . S
C4115 C4112 1.387 . S
C4116 C4117 1.387 . S
C4116 H4120 0.950 . S
C4116 C4125 1.390 . S
C4117 C4116 1.387 . S
C4117 C4119 1.387 . S
H4118 C4125 0.950 . S
C4119 C4117 1.387 . S
C4119 C4121 1.390 . S
C4119 H4123 0.950 . S
H4120 C4116 0.950 . S
C4121 C4119 1.390 . S
C4121 C4122 1.387 . S
C4121 H4124 0.950 . S
C4122 C4121 1.387 . S
C4122 C4125 1.387 . S
H4123 C4119 0.950 . S
H4124 C4121 0.950 . S
C4125 C4116 1.390 . S
C4125 H4118 0.950 . S
C4125 C4122 1.387 . S
C4126 C4127 1.387 . S
C4126 H4130 0.950 . S
C4126 C4135 1.390 . S
C4127 C4126 1.387 . S
C4127 C4129 1.387 . S
H4128 C4135 0.950 . S
C4129 C4127 1.387 . S
C4129 C4131 1.390 . S
C4129 H4133 0.950 . S
H4130 C4126 0.950 . S
C4131 C4129 1.390 . S
C4131 C4132 1.387 . S
C4131 H4134 0.950 . S
C4132 C4131 1.387 . S
C4132 C4135 1.387 . S
H4133 C4129 0.950 . S
H4134 C4131 0.950 . S
C4135 C4126 1.390 . S
C4135 H4128 0.950 . S
C4135 C4132 1.387 . S
C4136 C4137 1.387 . S
C4136 H4140 0.950 . S
C4136 C4145 1.390 . S
C4137 C4136 1.387 . S
C4137 C4139 1.387 . S
H4138 C4145 0.950 . S
C4139 C4137 1.387 . S
C4139 C4141 1.390 . S
C4139 H4143 0.950 . S
H4140 C4136 0.950 . S
C4141 C4139 1.390 . S
C4141 C4142 1.387 . S
C4141 H4144 0.950 . S
C4142 C4141 1.387 . S
C4142 C4145 1.387 . S
H4143 C4139 0.950 . S
H4144 C4141 0.950 . S
C4145 C4136 1.390 . S
C4145 H4138 0.950 . S
C4145 C4142 1.387 . S
C4146 C4147 1.387 . S
C4146 H4150 0.950 . S
C4146 C4155 1.390 . S
C4147 C4146 1.387 . S
C4147 C4149 1.387 . S
H4148 C4155 0.950 . S
C4149 C4147 1.387 . S
C4149 C4151 1.390 . S
C4149 H4153 0.950 . S
H4150 C4146 0.950 . S
C4151 C4149 1.390 . S
C4151 C4152 1.387 . S
C4151 H4154 0.950 . S
C4152 C4151 1.387 . S
C4152 C4155 1.387 . S
H4153 C4149 0.950 . S
H4154 C4151 0.950 . S
C4155 C4146 1.390 . S
C4155 H4148 0.950 . S
C4155 C4152 1.387 . S
C4156 C4157 1.387 . S
C4156 H4160 0.950 . S
C4156 C4165 1.390 . S
C4157 C4156 1.387 . S
C4157 C4159 1.387 . S
H4158 C4165 0.950 . S
C4159 C4157 1.387 . S
C4159 C4161 1.390 . S
C4159 H4163 0.950 . S
H4160 C4156 0.950 . S
C4161 C4159 1.390 . S
C4161 C4162 1.387 . S
C4161 H4164 0.950 . S
C4162 C4161 1.387 . S
C4162 C4165 1.387 . S
H4163 C4159 0.950 . S
H4164 C4161 0.950 . S
C4165 C4156 1.390 . S
C4165 H4158 0.950 . S
C4165 C4162 1.387 . S
C4166 C4167 1.387 . S
C4166 H4170 0.950 . S
C4166 C4175 1.390 . S
C4167 C4166 1.387 . S
C4167 C4169 1.387 . S
H4168 C4175 0.950 . S
C4169 C4167 1.387 . S
C4169 C4171 1.390 . S
C4169 H4173 0.950 . S
H4170 C4166 0.950 . S
C4171 C4169 1.390 . S
C4171 C4172 1.387 . S
C4171 H4174 0.950 . S
C4172 C4171 1.387 . S
C4172 C4175 1.387 . S
H4173 C4169 0.950 . S
H4174 C4171 0.950 . S
C4175 C4166 1.390 . S
C4175 H4168 0.950 . S
C4175 C4172 1.387 . S
C4176 C4177 1.387 . S
C4176 H4180 0.950 . S
C4176 C4185 1.390 . S
C4177 C4176 1.387 . S
C4177 C4179 1.387 . S
H4178 C4185 0.950 . S
C4179 C4177 1.387 . S
C4179 C4181 1.390 . S
C4179 H4183 0.950 . S
H4180 C4176 0.950 . S
C4181 C4179 1.390 . S
C4181 C4182 1.387 . S
C4181 H4184 0.950 . S
C4182 C4181 1.387 . S
C4182 C4185 1.387 . S
H4183 C4179 0.950 . S
H4184 C4181 0.950 . S
C4185 C4176 1.390 . S
C4185 H4178 0.950 . S
C4185 C4182 1.387 . S
C4186 C4187 1.387 . S
C4186 H4190 0.950 . S
C4186 C4195 1.390 . S
C4187 C4186 1.387 . S
C4187 C4189 1.387 . S
H4188 C4195 0.950 . S
C4189 C4187 1.387 . S
C4189 C4191 1.390 . S
C4189 H4193 0.950 . S
H4190 C4186 0.950 . S
C4191 C4189 1.390 . S
C4191 C4192 1.387 . S
C4191 H4194 0.950 . S
C4192 C4191 1.387 . S
C4192 C4195 1.387 . S
H4193 C4189 0.950 . S
H4194 C4191 0.950 . S
C4195 C4186 1.390 . S
C4195 H4188 0.950 . S
C4195 C4192 1.387 . S
C4196 C4197 1.387 . S
C4196 H4200 0.950 . S
C4196 C4205 1.390 . S
C4197 C4196 1.387 . S
C4197 C4199 1.387 . S
H4198 C4205 0.950 . S
C4199 C4197 1.387 . S
C4199 C4201 1.390 . S
C4199 H4203 0.950 . S
H4200 C4196 0.950 . S
C4201 C4199 1.390 . S
C4201 C4202 1.387 . S
C4201 H4204 0.950 . S
C4202 C4201 1.387 . S
C4202 C4205 1.387 . S
H4203 C4199 0.950 . S
H4204 C4201 0.950 . S
C4205 C4196 1.390 . S
C4205 H4198 0.950 . S
C4205 C4202 1.387 . S
C4206 C4207 1.387 . S
C4206 H4210 0.950 . S
C4206 C4215 1.390 . S
C4207 C4206 1.387 . S
C4207 C4209 1.387 . S
H4208 C4215 0.950 . S
C4209 C4207 1.387 . S
C4209 C4211 1.390 . S
C4209 H4213 0.950 . S
H4210 C4206 0.950 . S
C4211 C4209 1.390 . S
C4211 C4212 1.387 . S
C4211 H4214 0.950 . S
C4212 C4211 1.387 . S
C4212 C4215 1.387 . S
H4213 C4209 0.950 . S
H4214 C4211 0.950 . S
C4215 C4206 1.390 . S
C4215 H4208 0.950 . S
C4215 C4212 1.387 . S
C4216 C4217 1.387 . S
C4216 H4220 0.950 . S
C4216 C4225 1.390 . S
C4217 C4216 1.387 . S
C4217 C4219 1.387 . S
H4218 C4225 0.950 . S
C4219 C4217 1.387 . S
C4219 C4221 1.390 . S
C4219 H4223 0.950 . S
H4220 C4216 0.950 . S
C4221 C4219 1.390 . S
C4221 C4222 1.387 . S
C4221 H4224 0.950 . S
C4222 C4221 1.387 . S
C4222 C4225 1.387 . S
H4223 C4219 0.950 . S
H4224 C4221 0.950 . S
C4225 C4216 1.390 . S
C4225 H4218 0.950 . S
C4225 C4222 1.387 . S
C4226 C4227 1.387 . S
C4226 H4230 0.950 . S
C4226 C4235 1.390 . S
C4227 C4226 1.387 . S
C4227 C4229 1.387 . S
H4228 C4235 0.950 . S
C4229 C4227 1.387 . S
C4229 C4231 1.390 . S
C4229 H4233 0.950 . S
H4230 C4226 0.950 . S
C4231 C4229 1.390 . S
C4231 C4232 1.387 . S
C4231 H4234 0.950 . S
C4232 C4231 1.387 . S
C4232 C4235 1.387 . S
H4233 C4229 0.950 . S
H4234 C4231 0.950 . S
C4235 C4226 1.390 . S
C4235 H4228 0.950 . S
C4235 C4232 1.387 . S
C4236 C4237 1.387 . S
C4236 H4240 0.950 . S
C4236 C4245 1.390 . S
C4237 C4236 1.387 . S
C4237 C4239 1.387 . S
H4238 C4245 0.950 . S
C4239 C4237 1.387 . S
C4239 C4241 1.390 . S
C4239 H4243 0.950 . S
H4240 C4236 0.950 . S
C4241 C4239 1.390 . S
C4241 C4242 1.387 . S
C4241 H4244 0.950 . S
C4242 C4241 1.387 . S
C4242 C4245 1.387 . S
H4243 C4239 0.950 . S
H4244 C4241 0.950 . S
C4245 C4236 1.390 . S
C4245 H4238 0.950 . S
C4245 C4242 1.387 . S
C4246 C4247 1.387 . S
C4246 H4250 0.950 . S
C4246 C4255 1.390 . S
C4247 C4246 1.387 . S
C4247 C4249 1.387 . S
H4248 C4255 0.950 . S
C4249 C4247 1.387 . S
C4249 C4251 1.390 . S
C4249 H4253 0.950 . S
H4250 C4246 0.950 . S
C4251 C4249 1.390 . S
C4251 C4252 1.387 . S
C4251 H4254 0.950 . S
C4252 C4251 1.387 . S
C4252 C4255 1.387 . S
H4253 C4249 0.950 . S
H4254 C4251 0.950 . S
C4255 C4246 1.390 . S
C4255 H4248 0.950 . S
C4255 C4252 1.387 . S
C4256 C4257 1.387 . S
C4256 H4260 0.950 . S
C4256 C4265 1.390 . S
C4257 C4256 1.387 . S
C4257 C4259 1.387 . S
H4258 C4265 0.950 . S
C4259 C4257 1.387 . S
C4259 C4261 1.390 . S
C4259 H4263 0.950 . S
H4260 C4256 0.950 . S
C4261 C4259 1.390 . S
C4261 C4262 1.387 . S
C4261 H4264 0.950 . S
C4262 C4261 1.387 . S
C4262 C4265 1.387 . S
H4263 C4259 0.950 . S
H4264 C4261 0.950 . S
C4265 C4256 1.390 . S
C4265 H4258 0.950 . S
C4265 C4262 1.387 . S
C4266 C4267 1.387 . S
C4266 H4270 0.950 . S
C4266 C4275 1.390 . S
C4267 C4266 1.387 . S
C4267 C4269 1.387 . S
H4268 C4275 0.950 . S
C4269 C4267 1.387 . S
C4269 C4271 1.390 . S
C4269 H4273 0.950 . S
H4270 C4266 0.950 . S
C4271 C4269 1.390 . S
C4271 C4272 1.387 . S
C4271 H4274 0.950 . S
C4272 C4271 1.387 . S
C4272 C4275 1.387 . S
H4273 C4269 0.950 . S
H4274 C4271 0.950 . S
C4275 C4266 1.390 . S
C4275 H4268 0.950 . S
C4275 C4272 1.387 . S
C4276 C4277 1.387 . S
C4276 H4280 0.950 . S
C4276 C4285 1.390 . S
C4277 C4276 1.387 . S
C4277 C4279 1.387 . S
H4278 C4285 0.950 . S
C4279 C4277 1.387 . S
C4279 C4281 1.390 . S
C4279 H4283 0.950 . S
H4280 C4276 0.950 . S
C4281 C4279 1.390 . S
C4281 C4282 1.387 . S
C4281 H4284 0.950 . S
C4282 C4281 1.387 . S
C4282 C4285 1.387 . S
H4283 C4279 0.950 . S
H4284 C4281 0.950 . S
C4285 C4276 1.390 . S
C4285 H4278 0.950 . S
C4285 C4282 1.387 . S
C4286 C4287 1.387 . S
C4286 H4290 0.950 . S
C4286 C4295 1.390 . S
C4287 C4286 1.387 . S
C4287 C4289 1.387 . S
H4288 C4295 0.950 . S
C4289 C4287 1.387 . S
C4289 C4291 1.390 . S
C4289 H4293 0.950 . S
H4290 C4286 0.950 . S
C4291 C4289 1.390 . S
C4291 C4292 1.387 . S
C4291 H4294 0.950 . S
C4292 C4291 1.387 . S
C4292 C4295 1.387 . S
H4293 C4289 0.950 . S
H4294 C4291 0.950 . S
C4295 C4286 1.390 . S
C4295 H4288 0.950 . S
C4295 C4292 1.387 . S
C4296 C4297 1.387 . S
C4296 H4300 0.950 . S
C4296 C4305 1.390 . S
C4297 C4296 1.387 . S
C4297 C4299 1.387 . S
H4298 C4305 0.950 . S
C4299 C4297 1.387 . S
C4299 C4301 1.390 . S
C4299 H4303 0.950 . S
H4300 C4296 0.950 . S
C4301 C4299 1.390 . S
C4301 C4302 1.387 . S
C4301 H4304 0.950 . S
C4302 C4301 1.387 . S
C4302 C4305 1.387 . S
H4303 C4299 0.950 . S
H4304 C4301 0.950 . S
C4305 C4296 1.390 . S
C4305 H4298 0.950 . S
C4305 C4302 1.387 . S
C4306 C4307 1.387 . S
C4306 H4310 0.950 . S
C4306 C4315 1.390 . S
C4307 C4306 1.387 . S
C4307 C4309 1.387 . S
H4308 C4315 0.950 . S
C4309 C4307 1.387 . S
C4309 C4311 1.390 . S
C4309 H4313 0.950 . S
H4310 C4306 0.950 . S
C4311 C4309 1.390 . S
C4311 C4312 1.387 . S
C4311 H4314 0.950 . S
C4312 C4311 1.387 . S
C4312 C4315 1.387 . S
H4313 C4309 0.950 . S
H4314 C4311 0.950 . S
C4315 C4306 1.390 . S
C4315 H4308 0.950 . S
C4315 C4312 1.387 . S
C4316 C4317 1.387 . S
C4316 H4320 0.950 . S
C4316 C4325 1.390 . S
C4317 C4316 1.387 . S
C4317 C4319 1.387 . S
H4318 C4325 0.950 . S
C4319 C4317 1.387 . S
C4319 C4321 1.390 . S
C4319 H4323 0.950 . S
H4320 C4316 0.950 . S
C4321 C4319 1.390 . S
C4321 C4322 1.387 . S
C4321 H4324 0.950 . S
C4322 C4321 1.387 . S
C4322 C4325 1.387 . S
H4323 C4319 0.950 . S
H4324 C4321 0.950 . S
C4325 C4316 1.390 . S
C4325 H4318 0.950 . S
C4325 C4322 1.387 . S
C4326 C4327 1.387 . S
C4326 H4330 0.950 . S
C4326 C4335 1.390 . S
C4327 C4326 1.387 . S
C4327 C4329 1.387 . S
H4328 C4335 0.950 . S
C4329 C4327 1.387 . S
C4329 C4331 1.390 . S
C4329 H4333 0.950 . S
H4330 C4326 0.950 . S
C4331 C4329 1.390 . S
C4331 C4332 1.387 . S
C4331 H4334 0.950 . S
C4332 C4331 1.387 . S
C4332 C4335 1.387 . S
H4333 C4329 0.950 . S
H4334 C4331 0.950 . S
C4335 C4326 1.390 . S
C4335 H4328 0.950 . S
C4335 C4332 1.387 . S
C4336 C4337 1.387 . S
C4336 H4340 0.950 . S
C4336 C4345 1.390 . S
C4337 C4336 1.387 . S
C4337 C4339 1.387 . S
H4338 C4345 0.950 . S
C4339 C4337 1.387 . S
C4339 C4341 1.390 . S
C4339 H4343 0.950 . S
H4340 C4336 0.950 . S
C4341 C4339 1.390 . S
C4341 C4342 1.387 . S
C4341 H4344 0.950 . S
C4342 C4341 1.387 . S
C4342 C4345 1.387 . S
H4343 C4339 0.950 . S
H4344 C4341 0.950 . S
C4345 C4336 1.390 . S
C4345 H4338 0.950 . S
C4345 C4342 1.387 . S
C4346 C4347 1.387 . S
C4346 H4350 0.950 . S
C4346 C4355 1.390 . S
C4347 C4346 1.387 . S
C4347 C4349 1.387 . S
H4348 C4355 0.950 . S
C4349 C4347 1.387 . S
C4349 C4351 1.390 . S
C4349 H4353 0.950 . S
H4350 C4346 0.950 . S
C4351 C4349 1.390 . S
C4351 C4352 1.387 . S
C4351 H4354 0.950 . S
C4352 C4351 1.387 . S
C4352 C4355 1.387 . S
H4353 C4349 0.950 . S
H4354 C4351 0.950 . S
C4355 C4346 1.390 . S
C4355 H4348 0.950 . S
C4355 C4352 1.387 . S
C4356 C4357 1.387 . S
C4356 H4360 0.950 . S
C4356 C4365 1.390 . S
C4357 C4356 1.387 . S
C4357 C4359 1.387 . S
H4358 C4365 0.950 . S
C4359 C4357 1.387 . S
C4359 C4361 1.390 . S
C4359 H4363 0.950 . S
H4360 C4356 0.950 . S
C4361 C4359 1.390 . S
C4361 C4362 1.387 . S
C4361 H4364 0.950 . S
C4362 C4361 1.387 . S
C4362 C4365 1.387 . S
H4363 C4359 0.950 . S
H4364 C4361 0.950 . S
C4365 C4356 1.390 . S
C4365 H4358 0.950 . S
C4365 C4362 1.387 . S
C4366 C4367 1.387 . S
C4366 H4370 0.950 . S
C4366 C4375 1.390 . S
C4367 C4366 1.387 . S
C4367 C4369 1.387 . S
H4368 C4375 0.950 . S
C4369 C4367 1.387 . S
C4369 C4371 1.390 . S
C4369 H4373 0.950 . S
H4370 C4366 0.950 . S
C4371 C4369 1.390 . S
C4371 C4372 1.387 . S
C4371 H4374 0.950 . S
C4372 C4371 1.387 . S
C4372 C4375 1.387 . S
H4373 C4369 0.950 . S
H4374 C4371 0.950 . S
C4375 C4366 1.390 . S
C4375 H4368 0.950 . S
C4375 C4372 1.387 . S
C4376 C4377 1.387 . S
C4376 H4380 0.950 . S
C4376 C4385 1.390 . S
C4377 C4376 1.387 . S
C4377 C4379 1.387 . S
H4378 C4385 0.950 . S
C4379 C4377 1.387 . S
C4379 C4381 1.390 . S
C4379 H4383 0.950 . S
H4380 C4376 0.950 . S
C4381 C4379 1.390 . S
C4381 C4382 1.387 . S
C4381 H4384 0.950 . S
C4382 C4381 1.387 . S
C4382 C4385 1.387 . S
H4383 C4379 0.950 . S
H4384 C4381 0.950 . S
C4385 C4376 1.390 . S
C4385 H4378 0.950 . S
C4385 C4382 1.387 . S
C4386 C4387 1.387 . S
C4386 H4390 0.950 . S
C4386 C4395 1.390 . S
C4387 C4386 1.387 . S
C4387 C4389 1.387 . S
H4388 C4395 0.950 . S
C4389 C4387 1.387 . S
C4389 C4391 1.390 . S
C4389 H4393 0.950 . S
H4390 C4386 0.950 . S
C4391 C4389 1.390 . S
C4391 C4392 1.387 . S
C4391 H4394 0.950 . S
C4392 C4391 1.387 . S
C4392 C4395 1.387 . S
H4393 C4389 0.950 . S
H4394 C4391 0.950 . S
C4395 C4386 1.390 . S
C4395 H4388 0.950 . S
C4395 C4392 1.387 . S
C4396 C4397 1.387 . S
C4396 H4400 0.950 . S
C4396 C4405 1.390 . S
C4397 C4396 1.387 . S
C4397 C4399 1.387 . S
H4398 C4405 0.950 . S
C4399 C4397 1.387 . S
C4399 C4401 1.390 . S
C4399 H4403 0.950 . S
H4400 C4396 0.950 . S
C4401 C4399 1.390 . S
C4401 C4402 1.387 . S
C4401 H4404 0.950 . S
C4402 C4401 1.387 . S
C4402 C4405 1.387 . S
H4403 C4399 0.950 . S
H4404 C4401 0.950 . S
C4405 C4396 1.390 . S
C4405 H4398 0.950 . S
C4405 C4402 1.387 . S
C4406 C4407 1.387 . S
C4406 H4410 0.950 . S
C4406 C4415 1.390 . S
C4407 C4406 1.387 . S
C4407 C4409 1.387 . S
H4408 C4415 0.950 . S
C4409 C4407 1.387 . S
C4409 C4411 1.390 . S
C4409 H4413 0.950 . S
H4410 C4406 0.950 . S
C4411 C4409 1.390 . S
C4411 C4412 1.387 . S
C4411 H4414 0.950 . S
C4412 C4411 1.387 . S
C4412 C4415 1.387 . S
H4413 C4409 0.950 . S
H4414 C4411 0.950 . S
C4415 C4406 1.390 . S
C4415 H4408 0.950 . S
C4415 C4412 1.387 . S
C4416 C4417 1.387 . S
C4416 H4420 0.950 . S
C4416 C4425 1.390 . S
C4417 C4416 1.387 . S
C4417 C4419 1.387 . S
H4418 C4425 0.975 . S
C4419 C4417 1.387 . S
C4419 C4421 1.390 . S
C4419 H4423 0.950 . S
H4420 C4416 0.950 . S
C4421 C4419 1.390 . S
C4421 C4422 1.365 1_655 S
C4421 H4424 0.975 . S
C4422 C4421 1.365 1_455 S
C4422 C4425 1.365 1_455 S
H4423 C4419 0.950 . S
H4424 C4421 0.975 . S
C4425 C4416 1.390 . S
C4425 H4418 0.975 . S
C4425 C4422 1.365 1_655 S
C4426 C4427 1.387 . S
C4426 H4430 0.950 . S
C4426 C4435 1.390 . S
C4427 C4426 1.387 . S
C4427 C4429 1.387 . S
H4428 C4435 0.950 . S
C4429 C4427 1.387 . S
C4429 C4431 1.390 . S
C4429 H4433 0.950 . S
H4430 C4426 0.950 . S
C4431 C4429 1.390 . S
C4431 C4432 1.387 . S
C4431 H4434 0.950 . S
C4432 C4431 1.387 . S
C4432 C4435 1.387 . S
H4433 C4429 0.950 . S
H4434 C4431 0.950 . S
C4435 C4426 1.390 . S
C4435 H4428 0.950 . S
C4435 C4432 1.387 . S
C4436 C4437 1.387 . S
C4436 H4440 0.950 . S
C4436 C4445 1.390 . S
C4437 C4436 1.387 . S
C4437 C4439 1.387 . S
H4438 C4445 0.975 . S
C4439 C4437 1.387 . S
C4439 C4441 1.390 . S
C4439 H4443 0.950 . S
H4440 C4436 0.950 . S
C4441 C4439 1.390 . S
C4441 C4442 1.365 1_556 S
C4441 H4444 0.975 . S
C4442 C4441 1.365 1_554 S
C4442 C4445 1.365 1_554 S
H4443 C4439 0.950 . S
H4444 C4441 0.975 . S
C4445 C4436 1.390 . S
C4445 H4438 0.975 . S
C4445 C4442 1.365 1_556 S
C4446 C4447 1.387 . S
C4446 H4450 0.950 . S
C4446 C4455 1.390 . S
C4447 C4446 1.387 . S
C4447 C4449 1.387 . S
H4448 C4455 0.950 . S
C4449 C4447 1.387 . S
C4449 C4451 1.390 . S
C4449 H4453 0.950 . S
H4450 C4446 0.950 . S
C4451 C4449 1.390 . S
C4451 C4452 1.368 1_545 S
C4451 H4454 0.950 . S
C4452 C4451 1.368 1_565 S
C4452 C4455 1.368 1_565 S
H4453 C4449 0.950 . S
H4454 C4451 0.950 . S
C4455 C4446 1.390 . S
C4455 H4448 0.950 . S
C4455 C4452 1.368 1_545 S
C4456 C4457 1.368 1_655 S
C4456 H4460 0.950 . S
C4456 C4465 1.390 . S
C4457 C4456 1.368 1_455 S
C4457 C4459 1.368 1_455 S
H4458 C4465 0.950 . S
C4459 C4457 1.368 1_655 S
C4459 C4461 1.390 . S
C4459 H4463 0.950 . S
H4460 C4456 0.950 . S
C4461 C4459 1.390 . S
C4461 C4462 1.387 . S
C4461 H4464 0.950 . S
C4462 C4461 1.387 . S
C4462 C4465 1.387 . S
H4463 C4459 0.950 . S
H4464 C4461 0.950 . S
C4465 C4456 1.390 . S
C4465 H4458 0.950 . S
C4465 C4462 1.387 . S
C4466 C4467 1.368 1_554 S
C4466 H4470 0.950 . S
C4466 C4475 1.390 . S
C4467 C4466 1.368 1_556 S
C4467 C4469 1.368 1_556 S
H4468 C4475 0.950 . S
C4469 C4467 1.368 1_554 S
C4469 C4471 1.390 . S
C4469 H4473 0.950 . S
H4470 C4466 0.950 . S
C4471 C4469 1.390 . S
C4471 C4472 1.387 . S
C4471 H4474 0.950 . S
C4472 C4471 1.387 . S
C4472 C4475 1.387 . S
H4473 C4469 0.950 . S
H4474 C4471 0.950 . S
C4475 C4466 1.390 . S
C4475 H4468 0.950 . S
C4475 C4472 1.387 . S
C4476 C4477 1.387 . S
C4476 H4480 0.950 . S
C4476 C4485 1.390 . S
C4477 C4476 1.387 . S
C4477 C4479 1.387 . S
H4478 C4485 0.950 . S
C4479 C4477 1.387 . S
C4479 C4481 1.390 . S
C4479 H4483 0.950 . S
H4480 C4476 0.950 . S
C4481 C4479 1.390 . S
C4481 C4482 1.387 . S
C4481 H4484 0.950 . S
C4482 C4481 1.387 . S
C4482 C4485 1.387 . S
H4483 C4479 0.950 . S
H4484 C4481 0.950 . S
C4485 C4476 1.390 . S
C4485 H4478 0.950 . S
C4485 C4482 1.387 . S
C4486 C4487 1.368 1_545 S
C4486 H4490 0.950 . S
C4486 C4495 1.390 . S
C4487 C4486 1.368 1_565 S
C4487 C4489 1.368 1_565 S
H4488 C4495 0.950 . S
C4489 C4487 1.368 1_545 S
C4489 C4491 1.390 . S
C4489 H4493 0.950 . S
H4490 C4486 0.950 . S
C4491 C4489 1.390 . S
C4491 C4492 1.387 . S
C4491 H4494 0.950 . S
C4492 C4491 1.387 . S
C4492 C4495 1.387 . S
H4493 C4489 0.950 . S
H4494 C4491 0.950 . S
C4495 C4486 1.390 . S
C4495 H4488 0.950 . S
C4495 C4492 1.387 . S
C4496 C4497 1.368 1_565 S
C4496 H4500 0.950 . S
C4496 C4505 1.390 . S
C4497 C4496 1.368 1_545 S
C4497 C4499 1.368 1_545 S
H4498 C4505 0.950 . S
C4499 C4497 1.368 1_565 S
C4499 C4501 1.390 . S
C4499 H4503 0.950 . S
H4500 C4496 0.950 . S
C4501 C4499 1.390 . S
C4501 C4502 1.387 . S
C4501 H4504 0.950 . S
C4502 C4501 1.387 . S
C4502 C4505 1.387 . S
H4503 C4499 0.950 . S
H4504 C4501 0.950 . S
C4505 C4496 1.390 . S
C4505 H4498 0.950 . S
C4505 C4502 1.387 . S
C4506 C4507 1.387 . S
C4506 H4510 0.950 . S
C4506 C4515 1.390 . S
C4507 C4506 1.387 . S
C4507 C4509 1.387 . S
H4508 C4515 0.950 . S
C4509 C4507 1.387 . S
C4509 C4511 1.390 . S
C4509 H4513 0.950 . S
H4510 C4506 0.950 . S
C4511 C4509 1.390 . S
C4511 C4512 1.368 1_455 S
C4511 H4514 0.950 . S
C4512 C4511 1.368 1_655 S
C4512 C4515 1.368 1_655 S
H4513 C4509 0.950 . S
H4514 C4511 0.950 . S
C4515 C4506 1.390 . S
C4515 H4508 0.950 . S
C4515 C4512 1.368 1_455 S
C4516 C4517 1.387 . S
C4516 H4520 0.950 . S
C4516 C4525 1.390 . S
C4517 C4516 1.387 . S
C4517 C4519 1.387 . S
H4518 C4525 0.950 . S
C4519 C4517 1.387 . S
C4519 C4521 1.390 . S
C4519 H4523 0.950 . S
H4520 C4516 0.950 . S
C4521 C4519 1.390 . S
C4521 C4522 1.387 . S
C4521 H4524 0.950 . S
C4522 C4521 1.387 . S
C4522 C4525 1.387 . S
H4523 C4519 0.950 . S
H4524 C4521 0.950 . S
C4525 C4516 1.390 . S
C4525 H4518 0.950 . S
C4525 C4522 1.387 . S
C4526 C4527 1.387 . S
C4526 H4530 0.950 . S
C4526 C4535 1.390 . S
C4527 C4526 1.387 . S
C4527 C4529 1.387 . S
H4528 C4535 0.950 . S
C4529 C4527 1.387 . S
C4529 C4531 1.390 . S
C4529 H4533 0.950 . S
H4530 C4526 0.950 . S
C4531 C4529 1.390 . S
C4531 C4532 1.387 . S
C4531 H4534 0.950 . S
C4532 C4531 1.387 . S
C4532 C4535 1.387 . S
H4533 C4529 0.950 . S
H4534 C4531 0.950 . S
C4535 C4526 1.390 . S
C4535 H4528 0.950 . S
C4535 C4532 1.387 . S
C4536 C4537 1.387 . S
C4536 H4540 0.950 . S
C4536 C4545 1.390 . S
C4537 C4536 1.387 . S
C4537 C4539 1.387 . S
H4538 C4545 0.950 . S
C4539 C4537 1.387 . S
C4539 C4541 1.390 . S
C4539 H4543 0.950 . S
H4540 C4536 0.950 . S
C4541 C4539 1.390 . S
C4541 C4542 1.387 . S
C4541 H4544 0.950 . S
C4542 C4541 1.387 . S
C4542 C4545 1.387 . S
H4543 C4539 0.950 . S
H4544 C4541 0.950 . S
C4545 C4536 1.390 . S
C4545 H4538 0.950 . S
C4545 C4542 1.387 . S
C4546 C4547 1.387 . S
C4546 H4550 0.950 . S
C4546 C4555 1.390 . S
C4547 C4546 1.387 . S
C4547 C4549 1.387 . S
H4548 C4555 0.950 . S
C4549 C4547 1.387 . S
C4549 C4551 1.390 . S
C4549 H4553 0.950 . S
H4550 C4546 0.950 . S
C4551 C4549 1.390 . S
C4551 C4552 1.387 . S
C4551 H4554 0.950 . S
C4552 C4551 1.387 . S
C4552 C4555 1.387 . S
H4553 C4549 0.950 . S
H4554 C4551 0.950 . S
C4555 C4546 1.390 . S
C4555 H4548 0.950 . S
C4555 C4552 1.387 . S
C4556 C4557 1.387 . S
C4556 H4560 0.950 . S
C4556 C4565 1.390 . S
C4557 C4556 1.387 . S
C4557 C4559 1.387 . S
H4558 C4565 0.950 . S
C4559 C4557 1.387 . S
C4559 C4561 1.390 . S
C4559 H4563 0.950 . S
H4560 C4556 0.950 . S
C4561 C4559 1.390 . S
C4561 C4562 1.368 1_565 S
C4561 H4564 0.950 . S
C4562 C4561 1.368 1_545 S
C4562 C4565 1.368 1_545 S
H4563 C4559 0.950 . S
H4564 C4561 0.950 . S
C4565 C4556 1.390 . S
C4565 H4558 0.950 . S
C4565 C4562 1.368 1_565 S
C4566 C4567 1.365 1_455 S
C4566 H4570 0.975 . S
C4566 C4575 1.390 . S
C4567 C4566 1.365 1_655 S
C4567 C4569 1.365 1_655 S
H4568 C4575 0.950 . S
C4569 C4567 1.365 1_455 S
C4569 C4571 1.390 . S
C4569 H4573 0.975 . S
H4570 C4566 0.975 . S
C4571 C4569 1.390 . S
C4571 C4572 1.387 . S
C4571 H4574 0.950 . S
C4572 C4571 1.387 . S
C4572 C4575 1.387 . S
H4573 C4569 0.975 . S
H4574 C4571 0.950 . S
C4575 C4566 1.390 . S
C4575 H4568 0.950 . S
C4575 C4572 1.387 . S
C4576 C4577 1.368 1_556 S
C4576 H4580 0.950 . S
C4576 C4585 1.390 . S
C4577 C4576 1.368 1_554 S
C4577 C4579 1.368 1_554 S
H4578 C4585 0.950 . S
C4579 C4577 1.368 1_556 S
C4579 C4581 1.390 . S
C4579 H4583 0.950 . S
H4580 C4576 0.950 . S
C4581 C4579 1.390 . S
C4581 C4582 1.387 . S
C4581 H4584 0.950 . S
C4582 C4581 1.387 . S
C4582 C4585 1.387 . S
H4583 C4579 0.950 . S
H4584 C4581 0.950 . S
C4585 C4576 1.390 . S
C4585 H4578 0.950 . S
C4585 C4582 1.387 . S
C4586 C4587 1.387 . S
C4586 H4590 0.950 . S
C4586 C4595 1.390 . S
C4587 C4586 1.387 . S
C4587 C4589 1.387 . S
H4588 C4595 0.950 . S
C4589 C4587 1.387 . S
C4589 C4591 1.390 . S
C4589 H4593 0.950 . S
H4590 C4586 0.950 . S
C4591 C4589 1.390 . S
C4591 C4592 1.387 . S
C4591 H4594 0.950 . S
C4592 C4591 1.387 . S
C4592 C4595 1.387 . S
H4593 C4589 0.950 . S
H4594 C4591 0.950 . S
C4595 C4586 1.390 . S
C4595 H4588 0.950 . S
C4595 C4592 1.387 . S
C4596 C4597 1.387 . S
C4596 H4600 0.950 . S
C4596 C4605 1.390 . S
C4597 C4596 1.387 . S
C4597 C4599 1.387 . S
H4598 C4605 0.950 . S
C4599 C4597 1.387 . S
C4599 C4601 1.390 . S
C4599 H4603 0.950 . S
H4600 C4596 0.950 . S
C4601 C4599 1.390 . S
C4601 C4602 1.387 . S
C4601 H4604 0.950 . S
C4602 C4601 1.387 . S
C4602 C4605 1.387 . S
H4603 C4599 0.950 . S
H4604 C4601 0.950 . S
C4605 C4596 1.390 . S
C4605 H4598 0.950 . S
C4605 C4602 1.387 . S
C4606 C4607 1.365 1_565 S
C4606 H4610 0.975 . S
C4606 C4615 1.390 . S
C4607 C4606 1.365 1_545 S
C4607 C4609 1.365 1_545 S
H4608 C4615 0.950 . S
C4609 C4607 1.365 1_565 S
C4609 C4611 1.390 . S
C4609 H4613 0.975 . S
H4610 C4606 0.975 . S
C4611 C4609 1.390 . S
C4611 C4612 1.387 . S
C4611 H4614 0.950 . S
C4612 C4611 1.387 . S
C4612 C4615 1.387 . S
H4613 C4609 0.975 . S
H4614 C4611 0.950 . S
C4615 C4606 1.390 . S
C4615 H4608 0.950 . S
C4615 C4612 1.387 . S
C4616 C4617 1.387 . S
C4616 H4620 0.950 . S
C4616 C4625 1.390 . S
C4617 C4616 1.387 . S
C4617 C4619 1.387 . S
H4618 C4625 0.950 . S
C4619 C4617 1.387 . S
C4619 C4621 1.390 . S
C4619 H4623 0.950 . S
H4620 C4616 0.950 . S
C4621 C4619 1.390 . S
C4621 C4622 1.387 . S
C4621 H4624 0.950 . S
C4622 C4621 1.387 . S
C4622 C4625 1.387 . S
H4623 C4619 0.950 . S
H4624 C4621 0.950 . S
C4625 C4616 1.390 . S
C4625 H4618 0.950 . S
C4625 C4622 1.387 . S
C4626 C4627 1.368 1_556 S
C4626 H4630 0.950 . S
C4626 C4635 1.390 . S
C4627 C4626 1.368 1_554 S
C4627 C4629 1.368 1_554 S
H4628 C4635 0.950 . S
C4629 C4627 1.368 1_556 S
C4629 C4631 1.390 . S
C4629 H4633 0.950 . S
H4630 C4626 0.950 . S
C4631 C4629 1.390 . S
C4631 C4632 1.387 . S
C4631 H4634 0.950 . S
C4632 C4631 1.387 . S
C4632 C4635 1.387 . S
H4633 C4629 0.950 . S
H4634 C4631 0.950 . S
C4635 C4626 1.390 . S
C4635 H4628 0.950 . S
C4635 C4632 1.387 . S
C4636 C4637 1.387 . S
C4636 H4640 0.950 . S
C4636 C4645 1.390 . S
C4637 C4636 1.387 . S
C4637 C4639 1.387 . S
H4638 C4645 0.950 . S
C4639 C4637 1.387 . S
C4639 C4641 1.390 . S
C4639 H4643 0.950 . S
H4640 C4636 0.950 . S
C4641 C4639 1.390 . S
C4641 C4642 1.387 . S
C4641 H4644 0.950 . S
C4642 C4641 1.387 . S
C4642 C4645 1.387 . S
H4643 C4639 0.950 . S
H4644 C4641 0.950 . S
C4645 C4636 1.390 . S
C4645 H4638 0.950 . S
C4645 C4642 1.387 . S
C4646 C4647 1.365 1_455 S
C4646 H4650 0.975 . S
C4646 C4655 1.390 . S
C4647 C4646 1.365 1_655 S
C4647 C4649 1.365 1_655 S
H4648 C4655 0.950 . S
C4649 C4647 1.365 1_455 S
C4649 C4651 1.390 . S
C4649 H4653 0.975 . S
H4650 C4646 0.975 . S
C4651 C4649 1.390 . S
C4651 C4652 1.387 . S
C4651 H4654 0.950 . S
C4652 C4651 1.387 . S
C4652 C4655 1.387 . S
H4653 C4649 0.975 . S
H4654 C4651 0.950 . S
C4655 C4646 1.390 . S
C4655 H4648 0.950 . S
C4655 C4652 1.387 . S
C4656 C4657 1.368 1_455 S
C4656 H4660 0.950 . S
C4656 C4665 1.390 . S
C4657 C4656 1.368 1_655 S
C4657 C4659 1.368 1_655 S
H4658 C4665 0.950 . S
C4659 C4657 1.368 1_455 S
C4659 C4661 1.390 . S
C4659 H4663 0.950 . S
H4660 C4656 0.950 . S
C4661 C4659 1.390 . S
C4661 C4662 1.387 . S
C4661 H4664 0.950 . S
C4662 C4661 1.387 . S
C4662 C4665 1.387 . S
H4663 C4659 0.950 . S
H4664 C4661 0.950 . S
C4665 C4656 1.390 . S
C4665 H4658 0.950 . S
C4665 C4662 1.387 . S
C4666 C4667 1.387 . S
C4666 H4670 0.950 . S
C4666 C4675 1.390 . S
C4667 C4666 1.387 . S
C4667 C4669 1.387 . S
H4668 C4675 0.950 . S
C4669 C4667 1.387 . S
C4669 C4671 1.390 . S
C4669 H4673 0.950 . S
H4670 C4666 0.950 . S
C4671 C4669 1.390 . S
C4671 C4672 1.387 . S
C4671 H4674 0.950 . S
C4672 C4671 1.387 . S
C4672 C4675 1.387 . S
H4673 C4669 0.950 . S
H4674 C4671 0.950 . S
C4675 C4666 1.390 . S
C4675 H4668 0.950 . S
C4675 C4672 1.387 . S
C4676 C4677 1.387 . S
C4676 H4680 0.950 . S
C4676 C4685 1.390 . S
C4677 C4676 1.387 . S
C4677 C4679 1.387 . S
H4678 C4685 0.975 . S
C4679 C4677 1.387 . S
C4679 C4681 1.390 . S
C4679 H4683 0.950 . S
H4680 C4676 0.950 . S
C4681 C4679 1.390 . S
C4681 C4682 1.365 1_554 S
C4681 H4684 0.975 . S
C4682 C4681 1.365 1_556 S
C4682 C4685 1.365 1_556 S
H4683 C4679 0.950 . S
H4684 C4681 0.975 . S
C4685 C4676 1.390 . S
C4685 H4678 0.975 . S
C4685 C4682 1.365 1_554 S
C4686 C4687 1.365 1_455 S
C4686 H4690 0.975 . S
C4686 C4695 1.390 . S
C4687 C4686 1.365 1_655 S
C4687 C4689 1.365 1_655 S
H4688 C4695 0.950 . S
C4689 C4687 1.365 1_455 S
C4689 C4691 1.390 . S
C4689 H4693 0.975 . S
H4690 C4686 0.975 . S
C4691 C4689 1.390 . S
C4691 C4692 1.387 . S
C4691 H4694 0.950 . S
C4692 C4691 1.387 . S
C4692 C4695 1.387 . S
H4693 C4689 0.975 . S
H4694 C4691 0.950 . S
C4695 C4686 1.390 . S
C4695 H4688 0.950 . S
C4695 C4692 1.387 . S
C4696 C4697 1.387 . S
C4696 H4700 0.950 . S
C4696 C4705 1.390 . S
C4697 C4696 1.387 . S
C4697 C4699 1.387 . S
H4698 C4705 0.950 . S
C4699 C4697 1.387 . S
C4699 C4701 1.390 . S
C4699 H4703 0.950 . S
H4700 C4696 0.950 . S
C4701 C4699 1.390 . S
C4701 C4702 1.387 . S
C4701 H4704 0.950 . S
C4702 C4701 1.387 . S
C4702 C4705 1.387 . S
H4703 C4699 0.950 . S
H4704 C4701 0.950 . S
C4705 C4696 1.390 . S
C4705 H4698 0.950 . S
C4705 C4702 1.387 . S
C4706 C4707 1.368 1_565 S
C4706 H4710 0.950 . S
C4706 C4715 1.390 . S
C4707 C4706 1.368 1_545 S
C4707 C4709 1.368 1_545 S
H4708 C4715 0.950 . S
C4709 C4707 1.368 1_565 S
C4709 C4711 1.390 . S
C4709 H4713 0.950 . S
H4710 C4706 0.950 . S
C4711 C4709 1.390 . S
C4711 C4712 1.387 . S
C4711 H4714 0.950 . S
C4712 C4711 1.387 . S
C4712 C4715 1.387 . S
H4713 C4709 0.950 . S
H4714 C4711 0.950 . S
C4715 C4706 1.390 . S
C4715 H4708 0.950 . S
C4715 C4712 1.387 . S
C4716 C4717 1.387 . S
C4716 H4720 0.950 . S
C4716 C4725 1.390 . S
C4717 C4716 1.387 . S
C4717 C4719 1.387 . S
H4718 C4725 0.975 . S
C4719 C4717 1.387 . S
C4719 C4721 1.390 . S
C4719 H4723 0.950 . S
H4720 C4716 0.950 . S
C4721 C4719 1.390 . S
C4721 C4722 1.365 1_545 S
C4721 H4724 0.975 . S
C4722 C4721 1.365 1_565 S
C4722 C4725 1.365 1_565 S
H4723 C4719 0.950 . S
H4724 C4721 0.975 . S
C4725 C4716 1.390 . S
C4725 H4718 0.975 . S
C4725 C4722 1.365 1_545 S
C4726 C4727 1.387 . S
C4726 H4730 0.950 . S
C4726 C4735 1.390 . S
C4727 C4726 1.387 . S
C4727 C4729 1.387 . S
H4728 C4735 0.975 . S
C4729 C4727 1.387 . S
C4729 C4731 1.390 . S
C4729 H4733 0.950 . S
H4730 C4726 0.950 . S
C4731 C4729 1.390 . S
C4731 C4732 1.365 1_655 S
C4731 H4734 0.975 . S
C4732 C4731 1.365 1_455 S
C4732 C4735 1.365 1_455 S
H4733 C4729 0.950 . S
H4734 C4731 0.975 . S
C4735 C4726 1.390 . S
C4735 H4728 0.975 . S
C4735 C4732 1.365 1_655 S
C4736 C4737 1.387 . S
C4736 H4740 0.950 . S
C4736 C4745 1.390 . S
C4737 C4736 1.387 . S
C4737 C4739 1.387 . S
H4738 C4745 0.950 . S
C4739 C4737 1.387 . S
C4739 C4741 1.390 . S
C4739 H4743 0.950 . S
H4740 C4736 0.950 . S
C4741 C4739 1.390 . S
C4741 C4742 1.387 . S
C4741 H4744 0.950 . S
C4742 C4741 1.387 . S
C4742 C4745 1.387 . S
H4743 C4739 0.950 . S
H4744 C4741 0.950 . S
C4745 C4736 1.390 . S
C4745 H4738 0.950 . S
C4745 C4742 1.387 . S
C4746 C4747 1.387 . S
C4746 H4750 0.950 . S
C4746 C4755 1.390 . S
C4747 C4746 1.387 . S
C4747 C4749 1.387 . S
H4748 C4755 0.950 . S
C4749 C4747 1.387 . S
C4749 C4751 1.390 . S
C4749 H4753 0.950 . S
H4750 C4746 0.950 . S
C4751 C4749 1.390 . S
C4751 C4752 1.387 . S
C4751 H4754 0.950 . S
C4752 C4751 1.387 . S
C4752 C4755 1.387 . S
H4753 C4749 0.950 . S
H4754 C4751 0.950 . S
C4755 C4746 1.390 . S
C4755 H4748 0.950 . S
C4755 C4752 1.387 . S
C4756 C4757 1.368 1_545 S
C4756 H4760 0.950 . S
C4756 C4765 1.390 . S
C4757 C4756 1.368 1_565 S
C4757 C4759 1.368 1_565 S
H4758 C4765 0.950 . S
C4759 C4757 1.368 1_545 S
C4759 C4761 1.390 . S
C4759 H4763 0.950 . S
H4760 C4756 0.950 . S
C4761 C4759 1.390 . S
C4761 C4762 1.387 . S
C4761 H4764 0.950 . S
C4762 C4761 1.387 . S
C4762 C4765 1.387 . S
H4763 C4759 0.950 . S
H4764 C4761 0.950 . S
C4765 C4756 1.390 . S
C4765 H4758 0.950 . S
C4765 C4762 1.387 . S
C4766 C4767 1.387 . S
C4766 H4770 0.950 . S
C4766 C4775 1.390 . S
C4767 C4766 1.387 . S
C4767 C4769 1.387 . S
H4768 C4775 0.950 . S
C4769 C4767 1.387 . S
C4769 C4771 1.390 . S
C4769 H4773 0.950 . S
H4770 C4766 0.950 . S
C4771 C4769 1.390 . S
C4771 C4772 1.368 1_655 S
C4771 H4774 0.950 . S
C4772 C4771 1.368 1_455 S
C4772 C4775 1.368 1_455 S
H4773 C4769 0.950 . S
H4774 C4771 0.950 . S
C4775 C4766 1.390 . S
C4775 H4768 0.950 . S
C4775 C4772 1.368 1_655 S
C4776 C4777 1.387 . S
C4776 H4780 0.950 . S
C4776 C4785 1.390 . S
C4777 C4776 1.387 . S
C4777 C4779 1.387 . S
H4778 C4785 0.950 . S
C4779 C4777 1.387 . S
C4779 C4781 1.390 . S
C4779 H4783 0.950 . S
H4780 C4776 0.950 . S
C4781 C4779 1.390 . S
C4781 C4782 1.368 1_554 S
C4781 H4784 0.950 . S
C4782 C4781 1.368 1_556 S
C4782 C4785 1.368 1_556 S
H4783 C4779 0.950 . S
H4784 C4781 0.950 . S
C4785 C4776 1.390 . S
C4785 H4778 0.950 . S
C4785 C4782 1.368 1_554 S
C4786 C4787 1.387 . S
C4786 H4790 0.950 . S
C4786 C4795 1.390 . S
C4787 C4786 1.387 . S
C4787 C4789 1.387 . S
H4788 C4795 0.950 . S
C4789 C4787 1.387 . S
C4789 C4791 1.390 . S
C4789 H4793 0.950 . S
H4790 C4786 0.950 . S
C4791 C4789 1.390 . S
C4791 C4792 1.387 . S
C4791 H4794 0.950 . S
C4792 C4791 1.387 . S
C4792 C4795 1.387 . S
H4793 C4789 0.950 . S
H4794 C4791 0.950 . S
C4795 C4786 1.390 . S
C4795 H4788 0.950 . S
C4795 C4792 1.387 . S
C4796 C4797 1.387 . S
C4796 H4800 0.950 . S
C4796 C4805 1.390 . S
C4797 C4796 1.387 . S
C4797 C4799 1.387 . S
H4798 C4805 0.950 . S
C4799 C4797 1.387 . S
C4799 C4801 1.390 . S
C4799 H4803 0.950 . S
H4800 C4796 0.950 . S
C4801 C4799 1.390 . S
C4801 C4802 1.387 . S
C4801 H4804 0.950 . S
C4802 C4801 1.387 . S
C4802 C4805 1.387 . S
H4803 C4799 0.950 . S
H4804 C4801 0.950 . S
C4805 C4796 1.390 . S
C4805 H4798 0.950 . S
C4805 C4802 1.387 . S
C4806 C4807 1.387 . S
C4806 H4810 0.950 . S
C4806 C4815 1.390 . S
C4807 C4806 1.387 . S
C4807 C4809 1.387 . S
H4808 C4815 0.950 . S
C4809 C4807 1.387 . S
C4809 C4811 1.390 . S
C4809 H4813 0.950 . S
H4810 C4806 0.950 . S
C4811 C4809 1.390 . S
C4811 C4812 1.387 . S
C4811 H4814 0.950 . S
C4812 C4811 1.387 . S
C4812 C4815 1.387 . S
H4813 C4809 0.950 . S
H4814 C4811 0.950 . S
C4815 C4806 1.390 . S
C4815 H4808 0.950 . S
C4815 C4812 1.387 . S
C4816 C4817 1.387 . S
C4816 H4820 0.950 . S
C4816 C4825 1.390 . S
C4817 C4816 1.387 . S
C4817 C4819 1.387 . S
H4818 C4825 0.950 . S
C4819 C4817 1.387 . S
C4819 C4821 1.390 . S
C4819 H4823 0.950 . S
H4820 C4816 0.950 . S
C4821 C4819 1.390 . S
C4821 C4822 1.387 . S
C4821 H4824 0.950 . S
C4822 C4821 1.387 . S
C4822 C4825 1.387 . S
H4823 C4819 0.950 . S
H4824 C4821 0.950 . S
C4825 C4816 1.390 . S
C4825 H4818 0.950 . S
C4825 C4822 1.387 . S
C4826 C4827 1.387 . S
C4826 H4830 0.950 . S
C4826 C4835 1.390 . S
C4827 C4826 1.387 . S
C4827 C4829 1.387 . S
H4828 C4835 0.950 . S
C4829 C4827 1.387 . S
C4829 C4831 1.390 . S
C4829 H4833 0.950 . S
H4830 C4826 0.950 . S
C4831 C4829 1.390 . S
C4831 C4832 1.368 1_655 S
C4831 H4834 0.950 . S
C4832 C4831 1.368 1_455 S
C4832 C4835 1.368 1_455 S
H4833 C4829 0.950 . S
H4834 C4831 0.950 . S
C4835 C4826 1.390 . S
C4835 H4828 0.950 . S
C4835 C4832 1.368 1_655 S
C4836 C4837 1.365 1_556 S
C4836 H4840 0.975 . S
C4836 C4845 1.390 . S
C4837 C4836 1.365 1_554 S
C4837 C4839 1.365 1_554 S
H4838 C4845 0.950 . S
C4839 C4837 1.365 1_556 S
C4839 C4841 1.390 . S
C4839 H4843 0.975 . S
H4840 C4836 0.975 . S
C4841 C4839 1.390 . S
C4841 C4842 1.368 1_655 S
C4841 H4844 0.950 . S
C4842 C4841 1.368 1_455 S
C4842 C4845 1.368 1_455 S
H4843 C4839 0.975 . S
H4844 C4841 0.950 . S
C4845 C4836 1.390 . S
C4845 H4838 0.950 . S
C4845 C4842 1.368 1_655 S
C4846 C4847 1.387 . S
C4846 H4850 0.950 . S
C4846 C4855 1.390 . S
C4847 C4846 1.387 . S
C4847 C4849 1.387 . S
H4848 C4855 0.950 . S
C4849 C4847 1.387 . S
C4849 C4851 1.390 . S
C4849 H4853 0.950 . S
H4850 C4846 0.950 . S
C4851 C4849 1.390 . S
C4851 C4852 1.387 . S
C4851 H4854 0.950 . S
C4852 C4851 1.387 . S
C4852 C4855 1.387 . S
H4853 C4849 0.950 . S
H4854 C4851 0.950 . S
C4855 C4846 1.390 . S
C4855 H4848 0.950 . S
C4855 C4852 1.387 . S
C4856 C4857 1.387 . S
C4856 H4860 0.950 . S
C4856 C4865 1.390 . S
C4857 C4856 1.387 . S
C4857 C4859 1.387 . S
H4858 C4865 0.950 . S
C4859 C4857 1.387 . S
C4859 C4861 1.390 . S
C4859 H4863 0.950 . S
H4860 C4856 0.950 . S
C4861 C4859 1.390 . S
C4861 C4862 1.387 . S
C4861 H4864 0.950 . S
C4862 C4861 1.387 . S
C4862 C4865 1.387 . S
H4863 C4859 0.950 . S
H4864 C4861 0.950 . S
C4865 C4856 1.390 . S
C4865 H4858 0.950 . S
C4865 C4862 1.387 . S
C4866 C4867 1.387 . S
C4866 H4870 0.950 . S
C4866 C4875 1.390 . S
C4867 C4866 1.387 . S
C4867 C4869 1.387 . S
H4868 C4875 0.950 . S
C4869 C4867 1.387 . S
C4869 C4871 1.390 . S
C4869 H4873 0.950 . S
H4870 C4866 0.950 . S
C4871 C4869 1.390 . S
C4871 C4872 1.387 . S
C4871 H4874 0.950 . S
C4872 C4871 1.387 . S
C4872 C4875 1.387 . S
H4873 C4869 0.950 . S
H4874 C4871 0.950 . S
C4875 C4866 1.390 . S
C4875 H4868 0.950 . S
C4875 C4872 1.387 . S
C4876 C4877 1.387 . S
C4876 H4880 0.950 . S
C4876 C4885 1.390 . S
C4877 C4876 1.387 . S
C4877 C4879 1.387 . S
H4878 C4885 0.950 . S
C4879 C4877 1.387 . S
C4879 C4881 1.390 . S
C4879 H4883 0.950 . S
H4880 C4876 0.950 . S
C4881 C4879 1.390 . S
C4881 C4882 1.387 . S
C4881 H4884 0.950 . S
C4882 C4881 1.387 . S
C4882 C4885 1.387 . S
H4883 C4879 0.950 . S
H4884 C4881 0.950 . S
C4885 C4876 1.390 . S
C4885 H4878 0.950 . S
C4885 C4882 1.387 . S
C4886 C4887 1.387 . S
C4886 H4890 0.950 . S
C4886 C4895 1.390 . S
C4887 C4886 1.387 . S
C4887 C4889 1.387 . S
H4888 C4895 0.950 . S
C4889 C4887 1.387 . S
C4889 C4891 1.390 . S
C4889 H4893 0.950 . S
H4890 C4886 0.950 . S
C4891 C4889 1.390 . S
C4891 C4892 1.387 . S
C4891 H4894 0.950 . S
C4892 C4891 1.387 . S
C4892 C4895 1.387 . S
H4893 C4889 0.950 . S
H4894 C4891 0.950 . S
C4895 C4886 1.390 . S
C4895 H4888 0.950 . S
C4895 C4892 1.387 . S
C4896 C4897 1.387 . S
C4896 H4900 0.950 . S
C4896 C4905 1.390 . S
C4897 C4896 1.387 . S
C4897 C4899 1.387 . S
H4898 C4905 0.950 . S
C4899 C4897 1.387 . S
C4899 C4901 1.390 . S
C4899 H4903 0.950 . S
H4900 C4896 0.950 . S
C4901 C4899 1.390 . S
C4901 C4902 1.387 . S
C4901 H4904 0.950 . S
C4902 C4901 1.387 . S
C4902 C4905 1.387 . S
H4903 C4899 0.950 . S
H4904 C4901 0.950 . S
C4905 C4896 1.390 . S
C4905 H4898 0.950 . S
C4905 C4902 1.387 . S
C4906 C4907 1.368 1_455 S
C4906 H4910 0.950 . S
C4906 C4915 1.390 . S
C4907 C4906 1.368 1_655 S
C4907 C4909 1.368 1_655 S
H4908 C4915 0.950 . S
C4909 C4907 1.368 1_455 S
C4909 C4911 1.390 . S
C4909 H4913 0.950 . S
H4910 C4906 0.950 . S
C4911 C4909 1.390 . S
C4911 C4912 1.387 . S
C4911 H4914 0.950 . S
C4912 C4911 1.387 . S
C4912 C4915 1.387 . S
H4913 C4909 0.950 . S
H4914 C4911 0.950 . S
C4915 C4906 1.390 . S
C4915 H4908 0.950 . S
C4915 C4912 1.387 . S
C4916 C4917 1.387 . S
C4916 H4920 0.950 . S
C4916 C4925 1.390 . S
C4917 C4916 1.387 . S
C4917 C4919 1.387 . S
H4918 C4925 0.950 . S
C4919 C4917 1.387 . S
C4919 C4921 1.390 . S
C4919 H4923 0.950 . S
H4920 C4916 0.950 . S
C4921 C4919 1.390 . S
C4921 C4922 1.387 . S
C4921 H4924 0.950 . S
C4922 C4921 1.387 . S
C4922 C4925 1.387 . S
H4923 C4919 0.950 . S
H4924 C4921 0.950 . S
C4925 C4916 1.390 . S
C4925 H4918 0.950 . S
C4925 C4922 1.387 . S
C4926 C4927 1.387 . S
C4926 H4930 0.950 . S
C4926 C4935 1.390 . S
C4927 C4926 1.387 . S
C4927 C4929 1.387 . S
H4928 C4935 0.950 . S
C4929 C4927 1.387 . S
C4929 C4931 1.390 . S
C4929 H4933 0.950 . S
H4930 C4926 0.950 . S
C4931 C4929 1.390 . S
C4931 C4932 1.387 . S
C4931 H4934 0.950 . S
C4932 C4931 1.387 . S
C4932 C4935 1.387 . S
H4933 C4929 0.950 . S
H4934 C4931 0.950 . S
C4935 C4926 1.390 . S
C4935 H4928 0.950 . S
C4935 C4932 1.387 . S
C4936 C4937 1.387 . S
C4936 H4940 0.950 . S
C4936 C4945 1.390 . S
C4937 C4936 1.387 . S
C4937 C4939 1.387 . S
H4938 C4945 0.950 . S
C4939 C4937 1.387 . S
C4939 C4941 1.390 . S
C4939 H4943 0.950 . S
H4940 C4936 0.950 . S
C4941 C4939 1.390 . S
C4941 C4942 1.387 . S
C4941 H4944 0.950 . S
C4942 C4941 1.387 . S
C4942 C4945 1.387 . S
H4943 C4939 0.950 . S
H4944 C4941 0.950 . S
C4945 C4936 1.390 . S
C4945 H4938 0.950 . S
C4945 C4942 1.387 . S
C4946 C4947 1.368 1_545 S
C4946 H4950 0.950 . S
C4946 C4955 1.390 . S
C4947 C4946 1.368 1_565 S
C4947 C4949 1.368 1_565 S
H4948 C4955 0.975 . S
C4949 C4947 1.368 1_545 S
C4949 C4951 1.390 . S
C4949 H4953 0.950 . S
H4950 C4946 0.950 . S
C4951 C4949 1.390 . S
C4951 C4952 1.365 1_455 S
C4951 H4954 0.975 . S
C4952 C4951 1.365 1_655 S
C4952 C4955 1.365 1_655 S
H4953 C4949 0.950 . S
H4954 C4951 0.975 . S
C4955 C4946 1.390 . S
C4955 H4948 0.975 . S
C4955 C4952 1.365 1_455 S
C4956 C4957 1.387 . S
C4956 H4960 0.950 . S
C4956 C4965 1.390 . S
C4957 C4956 1.387 . S
C4957 C4959 1.387 . S
H4958 C4965 0.950 . S
C4959 C4957 1.387 . S
C4959 C4961 1.390 . S
C4959 H4963 0.950 . S
H4960 C4956 0.950 . S
C4961 C4959 1.390 . S
C4961 C4962 1.387 . S
C4961 H4964 0.950 . S
C4962 C4961 1.387 . S
C4962 C4965 1.387 . S
H4963 C4959 0.950 . S
H4964 C4961 0.950 . S
C4965 C4956 1.390 . S
C4965 H4958 0.950 . S
C4965 C4962 1.387 . S
C4966 C4967 1.387 . S
C4966 H4970 0.950 . S
C4966 C4975 1.390 . S
C4967 C4966 1.387 . S
C4967 C4969 1.387 . S
H4968 C4975 0.950 . S
C4969 C4967 1.387 . S
C4969 C4971 1.390 . S
C4969 H4973 0.950 . S
H4970 C4966 0.950 . S
C4971 C4969 1.390 . S
C4971 C4972 1.368 1_554 S
C4971 H4974 0.950 . S
C4972 C4971 1.368 1_556 S
C4972 C4975 1.368 1_556 S
H4973 C4969 0.950 . S
H4974 C4971 0.950 . S
C4975 C4966 1.390 . S
C4975 H4968 0.950 . S
C4975 C4972 1.368 1_554 S
C4976 C4977 1.387 . S
C4976 H4980 0.950 . S
C4976 C4985 1.390 . S
C4977 C4976 1.387 . S
C4977 C4979 1.387 . S
H4978 C4985 0.950 . S
C4979 C4977 1.387 . S
C4979 C4981 1.390 . S
C4979 H4983 0.950 . S
H4980 C4976 0.950 . S
C4981 C4979 1.390 . S
C4981 C4982 1.387 . S
C4981 H4984 0.950 . S
C4982 C4981 1.387 . S
C4982 C4985 1.387 . S
H4983 C4979 0.950 . S
H4984 C4981 0.950 . S
C4985 C4976 1.390 . S
C4985 H4978 0.950 . S
C4985 C4982 1.387 . S
C4986 C4987 1.365 1_554 S
C4986 H4990 0.975 . S
C4986 C4995 1.390 . S
C4987 C4986 1.365 1_556 S
C4987 C4989 1.365 1_556 S
H4988 C4995 0.950 . S
C4989 C4987 1.365 1_554 S
C4989 C4991 1.390 . S
C4989 H4993 0.975 . S
H4990 C4986 0.975 . S
C4991 C4989 1.390 . S
C4991 C4992 1.387 . S
C4991 H4994 0.950 . S
C4992 C4991 1.387 . S
C4992 C4995 1.387 . S
H4993 C4989 0.975 . S
H4994 C4991 0.950 . S
C4995 C4986 1.390 . S
C4995 H4988 0.950 . S
C4995 C4992 1.387 . S
C4996 C4997 1.387 . S
C4996 H5000 0.950 . S
C4996 C5005 1.390 . S
C4997 C4996 1.387 . S
C4997 C4999 1.387 . S
H4998 C5005 0.950 . S
C4999 C4997 1.387 . S
C4999 C5001 1.390 . S
C4999 H5003 0.950 . S
H5000 C4996 0.950 . S
C5001 C4999 1.390 . S
C5001 C5002 1.387 . S
C5001 H5004 0.950 . S
C5002 C5001 1.387 . S
C5002 C5005 1.387 . S
H5003 C4999 0.950 . S
H5004 C5001 0.950 . S
C5005 C4996 1.390 . S
C5005 H4998 0.950 . S
C5005 C5002 1.387 . S
C5006 C5007 1.387 . S
C5006 H5010 0.950 . S
C5006 C5015 1.390 . S
C5007 C5006 1.387 . S
C5007 C5009 1.387 . S
H5008 C5015 0.950 . S
C5009 C5007 1.387 . S
C5009 C5011 1.390 . S
C5009 H5013 0.950 . S
H5010 C5006 0.950 . S
C5011 C5009 1.390 . S
C5011 C5012 1.387 . S
C5011 H5014 0.950 . S
C5012 C5011 1.387 . S
C5012 C5015 1.387 . S
H5013 C5009 0.950 . S
H5014 C5011 0.950 . S
C5015 C5006 1.390 . S
C5015 H5008 0.950 . S
C5015 C5012 1.387 . S
C5016 C5017 1.365 1_455 S
C5016 H5020 0.975 . S
C5016 C5025 1.390 . S
C5017 C5016 1.365 1_655 S
C5017 C5019 1.365 1_655 S
H5018 C5025 0.950 . S
C5019 C5017 1.365 1_455 S
C5019 C5021 1.390 . S
C5019 H5023 0.975 . S
H5020 C5016 0.975 . S
C5021 C5019 1.390 . S
C5021 C5022 1.368 1_554 S
C5021 H5024 0.950 . S
C5022 C5021 1.368 1_556 S
C5022 C5025 1.368 1_556 S
H5023 C5019 0.975 . S
H5024 C5021 0.950 . S
C5025 C5016 1.390 . S
C5025 H5018 0.950 . S
C5025 C5022 1.368 1_554 S
C5026 C5027 1.387 . S
C5026 H5030 0.950 . S
C5026 C5035 1.390 . S
C5027 C5026 1.387 . S
C5027 C5029 1.387 . S
H5028 C5035 0.950 . S
C5029 C5027 1.387 . S
C5029 C5031 1.390 . S
C5029 H5033 0.950 . S
H5030 C5026 0.950 . S
C5031 C5029 1.390 . S
C5031 C5032 1.387 . S
C5031 H5034 0.950 . S
C5032 C5031 1.387 . S
C5032 C5035 1.387 . S
H5033 C5029 0.950 . S
H5034 C5031 0.950 . S
C5035 C5026 1.390 . S
C5035 H5028 0.950 . S
C5035 C5032 1.387 . S
C5036 C5037 1.387 . S
C5036 H5040 0.950 . S
C5036 C5045 1.390 . S
C5037 C5036 1.387 . S
C5037 C5039 1.387 . S
H5038 C5045 0.950 . S
C5039 C5037 1.387 . S
C5039 C5041 1.390 . S
C5039 H5043 0.950 . S
H5040 C5036 0.950 . S
C5041 C5039 1.390 . S
C5041 C5042 1.387 . S
C5041 H5044 0.950 . S
C5042 C5041 1.387 . S
C5042 C5045 1.387 . S
H5043 C5039 0.950 . S
H5044 C5041 0.950 . S
C5045 C5036 1.390 . S
C5045 H5038 0.950 . S
C5045 C5042 1.387 . S
C5046 C5047 1.387 . S
C5046 H5050 0.950 . S
C5046 C5055 1.390 . S
C5047 C5046 1.387 . S
C5047 C5049 1.387 . S
H5048 C5055 0.950 . S
C5049 C5047 1.387 . S
C5049 C5051 1.390 . S
C5049 H5053 0.950 . S
H5050 C5046 0.950 . S
C5051 C5049 1.390 . S
C5051 C5052 1.387 . S
C5051 H5054 0.950 . S
C5052 C5051 1.387 . S
C5052 C5055 1.387 . S
H5053 C5049 0.950 . S
H5054 C5051 0.950 . S
C5055 C5046 1.390 . S
C5055 H5048 0.950 . S
C5055 C5052 1.387 . S
C5056 C5057 1.387 . S
C5056 H5060 0.950 . S
C5056 C5065 1.390 . S
C5057 C5056 1.387 . S
C5057 C5059 1.387 . S
H5058 C5065 0.950 . S
C5059 C5057 1.387 . S
C5059 C5061 1.390 . S
C5059 H5063 0.950 . S
H5060 C5056 0.950 . S
C5061 C5059 1.390 . S
C5061 C5062 1.387 . S
C5061 H5064 0.950 . S
C5062 C5061 1.387 . S
C5062 C5065 1.387 . S
H5063 C5059 0.950 . S
H5064 C5061 0.950 . S
C5065 C5056 1.390 . S
C5065 H5058 0.950 . S
C5065 C5062 1.387 . S
C5066 C5067 1.368 1_655 S
C5066 H5070 0.950 . S
C5066 C5075 1.390 . S
C5067 C5066 1.368 1_455 S
C5067 C5069 1.368 1_455 S
H5068 C5075 0.950 . S
C5069 C5067 1.368 1_655 S
C5069 C5071 1.390 . S
C5069 H5073 0.950 . S
H5070 C5066 0.950 . S
C5071 C5069 1.390 . S
C5071 C5072 1.387 . S
C5071 H5074 0.950 . S
C5072 C5071 1.387 . S
C5072 C5075 1.387 . S
H5073 C5069 0.950 . S
H5074 C5071 0.950 . S
C5075 C5066 1.390 . S
C5075 H5068 0.950 . S
C5075 C5072 1.387 . S
C5076 C5077 1.387 . S
C5076 H5080 0.950 . S
C5076 C5085 1.390 . S
C5077 C5076 1.387 . S
C5077 C5079 1.387 . S
H5078 C5085 0.950 . S
C5079 C5077 1.387 . S
C5079 C5081 1.390 . S
C5079 H5083 0.950 . S
H5080 C5076 0.950 . S
C5081 C5079 1.390 . S
C5081 C5082 1.387 . S
C5081 H5084 0.950 . S
C5082 C5081 1.387 . S
C5082 C5085 1.387 . S
H5083 C5079 0.950 . S
H5084 C5081 0.950 . S
C5085 C5076 1.390 . S
C5085 H5078 0.950 . S
C5085 C5082 1.387 . S
C5086 C5087 1.365 1_655 S
C5086 H5090 0.975 . S
C5086 C5095 1.390 . S
C5087 C5086 1.365 1_455 S
C5087 C5089 1.365 1_455 S
H5088 C5095 0.950 . S
C5089 C5087 1.365 1_655 S
C5089 C5091 1.390 . S
C5089 H5093 0.975 . S
H5090 C5086 0.975 . S
C5091 C5089 1.390 . S
C5091 C5092 1.368 1_565 S
C5091 H5094 0.950 . S
C5092 C5091 1.368 1_545 S
C5092 C5095 1.368 1_545 S
H5093 C5089 0.975 . S
H5094 C5091 0.950 . S
C5095 C5086 1.390 . S
C5095 H5088 0.950 . S
C5095 C5092 1.368 1_565 S
C5096 C5097 1.387 . S
C5096 H5100 0.950 . S
C5096 C5105 1.390 . S
C5097 C5096 1.387 . S
C5097 C5099 1.387 . S
H5098 C5105 0.950 . S
C5099 C5097 1.387 . S
C5099 C5101 1.390 . S
C5099 H5103 0.950 . S
H5100 C5096 0.950 . S
C5101 C5099 1.390 . S
C5101 C5102 1.387 . S
C5101 H5104 0.950 . S
C5102 C5101 1.387 . S
C5102 C5105 1.387 . S
H5103 C5099 0.950 . S
H5104 C5101 0.950 . S
C5105 C5096 1.390 . S
C5105 H5098 0.950 . S
C5105 C5102 1.387 . S
C5106 C5107 1.387 . S
C5106 H5110 0.950 . S
C5106 C5115 1.390 . S
C5107 C5106 1.387 . S
C5107 C5109 1.387 . S
H5108 C5115 0.950 . S
C5109 C5107 1.387 . S
C5109 C5111 1.390 . S
C5109 H5113 0.950 . S
H5110 C5106 0.950 . S
C5111 C5109 1.390 . S
C5111 C5112 1.368 1_556 S
C5111 H5114 0.950 . S
C5112 C5111 1.368 1_554 S
C5112 C5115 1.368 1_554 S
H5113 C5109 0.950 . S
H5114 C5111 0.950 . S
C5115 C5106 1.390 . S
C5115 H5108 0.950 . S
C5115 C5112 1.368 1_556 S
C5116 C5117 1.368 1_556 S
C5116 H5120 0.950 . S
C5116 C5125 1.390 . S
C5117 C5116 1.368 1_554 S
C5117 C5119 1.368 1_554 S
H5118 C5125 0.950 . S
C5119 C5117 1.368 1_556 S
C5119 C5121 1.390 . S
C5119 H5123 0.950 . S
H5120 C5116 0.950 . S
C5121 C5119 1.390 . S
C5121 C5122 1.387 . S
C5121 H5124 0.950 . S
C5122 C5121 1.387 . S
C5122 C5125 1.387 . S
H5123 C5119 0.950 . S
H5124 C5121 0.950 . S
C5125 C5116 1.390 . S
C5125 H5118 0.950 . S
C5125 C5122 1.387 . S
C5126 C5127 1.387 . S
C5126 H5130 0.950 . S
C5126 C5135 1.390 . S
C5127 C5126 1.387 . S
C5127 C5129 1.387 . S
H5128 C5135 0.950 . S
C5129 C5127 1.387 . S
C5129 C5131 1.390 . S
C5129 H5133 0.950 . S
H5130 C5126 0.950 . S
C5131 C5129 1.390 . S
C5131 C5132 1.387 . S
C5131 H5134 0.950 . S
C5132 C5131 1.387 . S
C5132 C5135 1.387 . S
H5133 C5129 0.950 . S
H5134 C5131 0.950 . S
C5135 C5126 1.390 . S
C5135 H5128 0.950 . S
C5135 C5132 1.387 . S
C5136 C5137 1.387 . S
C5136 H5140 0.950 . S
C5136 C5145 1.390 . S
C5137 C5136 1.387 . S
C5137 C5139 1.387 . S
H5138 C5145 0.975 . S
C5139 C5137 1.387 . S
C5139 C5141 1.390 . S
C5139 H5143 0.950 . S
H5140 C5136 0.950 . S
C5141 C5139 1.390 . S
C5141 C5142 1.365 1_545 S
C5141 H5144 0.975 . S
C5142 C5141 1.365 1_565 S
C5142 C5145 1.365 1_565 S
H5143 C5139 0.950 . S
H5144 C5141 0.975 . S
C5145 C5136 1.390 . S
C5145 H5138 0.975 . S
C5145 C5142 1.365 1_545 S
C5146 C5147 1.387 . S
C5146 H5150 0.950 . S
C5146 C5155 1.390 . S
C5147 C5146 1.387 . S
C5147 C5149 1.387 . S
H5148 C5155 0.950 . S
C5149 C5147 1.387 . S
C5149 C5151 1.390 . S
C5149 H5153 0.950 . S
H5150 C5146 0.950 . S
C5151 C5149 1.390 . S
C5151 C5152 1.387 . S
C5151 H5154 0.950 . S
C5152 C5151 1.387 . S
C5152 C5155 1.387 . S
H5153 C5149 0.950 . S
H5154 C5151 0.950 . S
C5155 C5146 1.390 . S
C5155 H5148 0.950 . S
C5155 C5152 1.387 . S
C5156 C5157 1.387 . S
C5156 H5160 0.950 . S
C5156 C5165 1.390 . S
C5157 C5156 1.387 . S
C5157 C5159 1.387 . S
H5158 C5165 0.950 . S
C5159 C5157 1.387 . S
C5159 C5161 1.390 . S
C5159 H5163 0.950 . S
H5160 C5156 0.950 . S
C5161 C5159 1.390 . S
C5161 C5162 1.387 . S
C5161 H5164 0.950 . S
C5162 C5161 1.387 . S
C5162 C5165 1.387 . S
H5163 C5159 0.950 . S
H5164 C5161 0.950 . S
C5165 C5156 1.390 . S
C5165 H5158 0.950 . S
C5165 C5162 1.387 . S
C5166 C5167 1.368 1_554 S
C5166 H5170 0.950 . S
C5166 C5175 1.390 . S
C5167 C5166 1.368 1_556 S
C5167 C5169 1.368 1_556 S
H5168 C5175 0.975 . S
C5169 C5167 1.368 1_554 S
C5169 C5171 1.390 . S
C5169 H5173 0.950 . S
H5170 C5166 0.950 . S
C5171 C5169 1.390 . S
C5171 C5172 1.365 1_545 S
C5171 H5174 0.975 . S
C5172 C5171 1.365 1_565 S
C5172 C5175 1.365 1_565 S
H5173 C5169 0.950 . S
H5174 C5171 0.975 . S
C5175 C5166 1.390 . S
C5175 H5168 0.975 . S
C5175 C5172 1.365 1_545 S
C5176 C5177 1.387 . S
C5176 H5180 0.950 . S
C5176 C5185 1.390 . S
C5177 C5176 1.387 . S
C5177 C5179 1.387 . S
H5178 C5185 0.950 . S
C5179 C5177 1.387 . S
C5179 C5181 1.390 . S
C5179 H5183 0.950 . S
H5180 C5176 0.950 . S
C5181 C5179 1.390 . S
C5181 C5182 1.387 . S
C5181 H5184 0.950 . S
C5182 C5181 1.387 . S
C5182 C5185 1.387 . S
H5183 C5179 0.950 . S
H5184 C5181 0.950 . S
C5185 C5176 1.390 . S
C5185 H5178 0.950 . S
C5185 C5182 1.387 . S
C5186 C5187 1.387 . S
C5186 H5190 0.950 . S
C5186 C5195 1.390 . S
C5187 C5186 1.387 . S
C5187 C5189 1.387 . S
H5188 C5195 0.950 . S
C5189 C5187 1.387 . S
C5189 C5191 1.390 . S
C5189 H5193 0.950 . S
H5190 C5186 0.950 . S
C5191 C5189 1.390 . S
C5191 C5192 1.387 . S
C5191 H5194 0.950 . S
C5192 C5191 1.387 . S
C5192 C5195 1.387 . S
H5193 C5189 0.950 . S
H5194 C5191 0.950 . S
C5195 C5186 1.390 . S
C5195 H5188 0.950 . S
C5195 C5192 1.387 . S
C5196 C5197 1.387 . S
C5196 H5200 0.950 . S
C5196 C5205 1.390 . S
C5197 C5196 1.387 . S
C5197 C5199 1.387 . S
H5198 C5205 0.950 . S
C5199 C5197 1.387 . S
C5199 C5201 1.390 . S
C5199 H5203 0.950 . S
H5200 C5196 0.950 . S
C5201 C5199 1.390 . S
C5201 C5202 1.387 . S
C5201 H5204 0.950 . S
C5202 C5201 1.387 . S
C5202 C5205 1.387 . S
H5203 C5199 0.950 . S
H5204 C5201 0.950 . S
C5205 C5196 1.390 . S
C5205 H5198 0.950 . S
C5205 C5202 1.387 . S
C5206 C5207 1.365 1_565 S
C5206 H5210 0.975 . S
C5206 C5215 1.390 . S
C5207 C5206 1.365 1_545 S
C5207 C5209 1.365 1_545 S
H5208 C5215 0.950 . S
C5209 C5207 1.365 1_565 S
C5209 C5211 1.390 . S
C5209 H5213 0.975 . S
H5210 C5206 0.975 . S
C5211 C5209 1.390 . S
C5211 C5212 1.387 . S
C5211 H5214 0.950 . S
C5212 C5211 1.387 . S
C5212 C5215 1.387 . S
H5213 C5209 0.975 . S
H5214 C5211 0.950 . S
C5215 C5206 1.390 . S
C5215 H5208 0.950 . S
C5215 C5212 1.387 . S
C5216 C5217 1.387 . S
C5216 H5220 0.950 . S
C5216 C5225 1.390 . S
C5217 C5216 1.387 . S
C5217 C5219 1.387 . S
H5218 C5225 0.950 . S
C5219 C5217 1.387 . S
C5219 C5221 1.390 . S
C5219 H5223 0.950 . S
H5220 C5216 0.950 . S
C5221 C5219 1.390 . S
C5221 C5222 1.387 . S
C5221 H5224 0.950 . S
C5222 C5221 1.387 . S
C5222 C5225 1.387 . S
H5223 C5219 0.950 . S
H5224 C5221 0.950 . S
C5225 C5216 1.390 . S
C5225 H5218 0.950 . S
C5225 C5222 1.387 . S
C5226 C5227 1.387 . S
C5226 H5230 0.950 . S
C5226 C5235 1.390 . S
C5227 C5226 1.387 . S
C5227 C5229 1.387 . S
H5228 C5235 0.975 . S
C5229 C5227 1.387 . S
C5229 C5231 1.390 . S
C5229 H5233 0.950 . S
H5230 C5226 0.950 . S
C5231 C5229 1.390 . S
C5231 C5232 1.365 1_565 S
C5231 H5234 0.975 . S
C5232 C5231 1.365 1_545 S
C5232 C5235 1.365 1_545 S
H5233 C5229 0.950 . S
H5234 C5231 0.975 . S
C5235 C5226 1.390 . S
C5235 H5228 0.975 . S
C5235 C5232 1.365 1_565 S
C5236 C5237 1.387 . S
C5236 H5240 0.950 . S
C5236 C5245 1.390 . S
C5237 C5236 1.387 . S
C5237 C5239 1.387 . S
H5238 C5245 0.950 . S
C5239 C5237 1.387 . S
C5239 C5241 1.390 . S
C5239 H5243 0.950 . S
H5240 C5236 0.950 . S
C5241 C5239 1.390 . S
C5241 C5242 1.387 . S
C5241 H5244 0.950 . S
C5242 C5241 1.387 . S
C5242 C5245 1.387 . S
H5243 C5239 0.950 . S
H5244 C5241 0.950 . S
C5245 C5236 1.390 . S
C5245 H5238 0.950 . S
C5245 C5242 1.387 . S
C5246 C5247 1.387 . S
C5246 H5250 0.950 . S
C5246 C5255 1.390 . S
C5247 C5246 1.387 . S
C5247 C5249 1.387 . S
H5248 C5255 0.950 . S
C5249 C5247 1.387 . S
C5249 C5251 1.390 . S
C5249 H5253 0.950 . S
H5250 C5246 0.950 . S
C5251 C5249 1.390 . S
C5251 C5252 1.387 . S
C5251 H5254 0.950 . S
C5252 C5251 1.387 . S
C5252 C5255 1.387 . S
H5253 C5249 0.950 . S
H5254 C5251 0.950 . S
C5255 C5246 1.390 . S
C5255 H5248 0.950 . S
C5255 C5252 1.387 . S
C5256 C5257 1.387 . S
C5256 H5260 0.950 . S
C5256 C5265 1.390 . S
C5257 C5256 1.387 . S
C5257 C5259 1.387 . S
H5258 C5265 0.950 . S
C5259 C5257 1.387 . S
C5259 C5261 1.390 . S
C5259 H5263 0.950 . S
H5260 C5256 0.950 . S
C5261 C5259 1.390 . S
C5261 C5262 1.387 . S
C5261 H5264 0.950 . S
C5262 C5261 1.387 . S
C5262 C5265 1.387 . S
H5263 C5259 0.950 . S
H5264 C5261 0.950 . S
C5265 C5256 1.390 . S
C5265 H5258 0.950 . S
C5265 C5262 1.387 . S
C5266 C5267 1.365 1_565 S
C5266 H5270 0.975 . S
C5266 C5275 1.390 . S
C5267 C5266 1.365 1_545 S
C5267 C5269 1.365 1_545 S
H5268 C5275 0.950 . S
C5269 C5267 1.365 1_565 S
C5269 C5271 1.390 . S
C5269 H5273 0.975 . S
H5270 C5266 0.975 . S
C5271 C5269 1.390 . S
C5271 C5272 1.368 1_556 S
C5271 H5274 0.950 . S
C5272 C5271 1.368 1_554 S
C5272 C5275 1.368 1_554 S
H5273 C5269 0.975 . S
H5274 C5271 0.950 . S
C5275 C5266 1.390 . S
C5275 H5268 0.950 . S
C5275 C5272 1.368 1_556 S
C5276 C5277 1.387 . S
C5276 H5280 0.950 . S
C5276 C5285 1.390 . S
C5277 C5276 1.387 . S
C5277 C5279 1.387 . S
H5278 C5285 0.950 . S
C5279 C5277 1.387 . S
C5279 C5281 1.390 . S
C5279 H5283 0.950 . S
H5280 C5276 0.950 . S
C5281 C5279 1.390 . S
C5281 C5282 1.387 . S
C5281 H5284 0.950 . S
C5282 C5281 1.387 . S
C5282 C5285 1.387 . S
H5283 C5279 0.950 . S
H5284 C5281 0.950 . S
C5285 C5276 1.390 . S
C5285 H5278 0.950 . S
C5285 C5282 1.387 . S
C5286 C5287 1.365 1_545 S
C5286 H5290 0.975 . S
C5286 C5295 1.390 . S
C5287 C5286 1.365 1_565 S
C5287 C5289 1.365 1_565 S
H5288 C5295 0.950 . S
C5289 C5287 1.365 1_545 S
C5289 C5291 1.390 . S
C5289 H5293 0.975 . S
H5290 C5286 0.975 . S
C5291 C5289 1.390 . S
C5291 C5292 1.387 . S
C5291 H5294 0.950 . S
C5292 C5291 1.387 . S
C5292 C5295 1.387 . S
H5293 C5289 0.975 . S
H5294 C5291 0.950 . S
C5295 C5286 1.390 . S
C5295 H5288 0.950 . S
C5295 C5292 1.387 . S
C5296 C5297 1.387 . S
C5296 H5300 0.950 . S
C5296 C5305 1.390 . S
C5297 C5296 1.387 . S
C5297 C5299 1.387 . S
H5298 C5305 0.950 . S
C5299 C5297 1.387 . S
C5299 C5301 1.390 . S
C5299 H5303 0.950 . S
H5300 C5296 0.950 . S
C5301 C5299 1.390 . S
C5301 C5302 1.387 . S
C5301 H5304 0.950 . S
C5302 C5301 1.387 . S
C5302 C5305 1.387 . S
H5303 C5299 0.950 . S
H5304 C5301 0.950 . S
C5305 C5296 1.390 . S
C5305 H5298 0.950 . S
C5305 C5302 1.387 . S
C5306 C5307 1.387 . S
C5306 H5310 0.950 . S
C5306 C5315 1.390 . S
C5307 C5306 1.387 . S
C5307 C5309 1.387 . S
H5308 C5315 0.950 . S
C5309 C5307 1.387 . S
C5309 C5311 1.390 . S
C5309 H5313 0.950 . S
H5310 C5306 0.950 . S
C5311 C5309 1.390 . S
C5311 C5312 1.387 . S
C5311 H5314 0.950 . S
C5312 C5311 1.387 . S
C5312 C5315 1.387 . S
H5313 C5309 0.950 . S
H5314 C5311 0.950 . S
C5315 C5306 1.390 . S
C5315 H5308 0.950 . S
C5315 C5312 1.387 . S
C5316 C5317 1.387 . S
C5316 H5320 0.950 . S
C5316 C5325 1.390 . S
C5317 C5316 1.387 . S
C5317 C5319 1.387 . S
H5318 C5325 0.950 . S
C5319 C5317 1.387 . S
C5319 C5321 1.390 . S
C5319 H5323 0.950 . S
H5320 C5316 0.950 . S
C5321 C5319 1.390 . S
C5321 C5322 1.387 . S
C5321 H5324 0.950 . S
C5322 C5321 1.387 . S
C5322 C5325 1.387 . S
H5323 C5319 0.950 . S
H5324 C5321 0.950 . S
C5325 C5316 1.390 . S
C5325 H5318 0.950 . S
C5325 C5322 1.387 . S
C5326 C5327 1.365 1_554 S
C5326 H5330 0.975 . S
C5326 C5335 1.390 . S
C5327 C5326 1.365 1_556 S
C5327 C5329 1.365 1_556 S
H5328 C5335 0.950 . S
C5329 C5327 1.365 1_554 S
C5329 C5331 1.390 . S
C5329 H5333 0.975 . S
H5330 C5326 0.975 . S
C5331 C5329 1.390 . S
C5331 C5332 1.387 . S
C5331 H5334 0.950 . S
C5332 C5331 1.387 . S
C5332 C5335 1.387 . S
H5333 C5329 0.975 . S
H5334 C5331 0.950 . S
C5335 C5326 1.390 . S
C5335 H5328 0.950 . S
C5335 C5332 1.387 . S
C5336 C5337 1.387 . S
C5336 H5340 0.950 . S
C5336 C5345 1.390 . S
C5337 C5336 1.387 . S
C5337 C5339 1.387 . S
H5338 C5345 0.950 . S
C5339 C5337 1.387 . S
C5339 C5341 1.390 . S
C5339 H5343 0.950 . S
H5340 C5336 0.950 . S
C5341 C5339 1.390 . S
C5341 C5342 1.387 . S
C5341 H5344 0.950 . S
C5342 C5341 1.387 . S
C5342 C5345 1.387 . S
H5343 C5339 0.950 . S
H5344 C5341 0.950 . S
C5345 C5336 1.390 . S
C5345 H5338 0.950 . S
C5345 C5342 1.387 . S
C5346 C5347 1.387 . S
C5346 H5350 0.950 . S
C5346 C5355 1.390 . S
C5347 C5346 1.387 . S
C5347 C5349 1.387 . S
H5348 C5355 0.950 . S
C5349 C5347 1.387 . S
C5349 C5351 1.390 . S
C5349 H5353 0.950 . S
H5350 C5346 0.950 . S
C5351 C5349 1.390 . S
C5351 C5352 1.387 . S
C5351 H5354 0.950 . S
C5352 C5351 1.387 . S
C5352 C5355 1.387 . S
H5353 C5349 0.950 . S
H5354 C5351 0.950 . S
C5355 C5346 1.390 . S
C5355 H5348 0.950 . S
C5355 C5352 1.387 . S
C5356 C5357 1.387 . S
C5356 H5360 0.950 . S
C5356 C5365 1.390 . S
C5357 C5356 1.387 . S
C5357 C5359 1.387 . S
H5358 C5365 0.950 . S
C5359 C5357 1.387 . S
C5359 C5361 1.390 . S
C5359 H5363 0.950 . S
H5360 C5356 0.950 . S
C5361 C5359 1.390 . S
C5361 C5362 1.387 . S
C5361 H5364 0.950 . S
C5362 C5361 1.387 . S
C5362 C5365 1.387 . S
H5363 C5359 0.950 . S
H5364 C5361 0.950 . S
C5365 C5356 1.390 . S
C5365 H5358 0.950 . S
C5365 C5362 1.387 . S
C5366 C5367 1.387 . S
C5366 H5370 0.950 . S
C5366 C5375 1.390 . S
C5367 C5366 1.387 . S
C5367 C5369 1.387 . S
H5368 C5375 0.975 . S
C5369 C5367 1.387 . S
C5369 C5371 1.390 . S
C5369 H5373 0.950 . S
H5370 C5366 0.950 . S
C5371 C5369 1.390 . S
C5371 C5372 1.365 1_556 S
C5371 H5374 0.975 . S
C5372 C5371 1.365 1_554 S
C5372 C5375 1.365 1_554 S
H5373 C5369 0.950 . S
H5374 C5371 0.975 . S
C5375 C5366 1.390 . S
C5375 H5368 0.975 . S
C5375 C5372 1.365 1_556 S
C5376 C5377 1.387 . S
C5376 H5380 0.950 . S
C5376 C5385 1.390 1_655 S
C5377 C5376 1.387 . S
C5377 C5379 1.387 . S
H5378 C5385 0.950 . S
C5379 C5377 1.387 . S
C5379 C5381 1.390 1_655 S
C5379 H5383 0.950 . S
H5380 C5376 0.950 . S
C5381 C5379 1.390 1_455 S
C5381 C5382 1.387 . S
C5381 H5384 0.950 . S
C5382 C5381 1.387 . S
C5382 C5385 1.387 . S
H5383 C5379 0.950 . S
H5384 C5381 0.950 . S
C5385 C5376 1.390 1_455 S
C5385 H5378 0.950 . S
C5385 C5382 1.387 . S
C5386 C5387 1.387 . S
C5386 H5390 0.950 . S
C5386 C5395 1.390 . S
C5387 C5386 1.387 . S
C5387 C5389 1.387 . S
H5388 C5395 0.950 . S
C5389 C5387 1.387 . S
C5389 C5391 1.390 . S
C5389 H5393 0.950 . S
H5390 C5386 0.950 . S
C5391 C5389 1.390 . S
C5391 C5392 1.387 . S
C5391 H5394 0.950 . S
C5392 C5391 1.387 . S
C5392 C5395 1.387 . S
H5393 C5389 0.950 . S
H5394 C5391 0.950 . S
C5395 C5386 1.390 . S
C5395 H5388 0.950 . S
C5395 C5392 1.387 . S
C5396 C5397 1.387 . S
C5396 H5400 0.950 . S
C5396 C5405 1.390 . S
C5397 C5396 1.387 . S
C5397 C5399 1.387 . S
H5398 C5405 0.950 . S
C5399 C5397 1.387 . S
C5399 C5401 1.390 . S
C5399 H5403 0.950 . S
H5400 C5396 0.950 . S
C5401 C5399 1.390 . S
C5401 C5402 1.387 . S
C5401 H5404 0.950 . S
C5402 C5401 1.387 . S
C5402 C5405 1.387 . S
H5403 C5399 0.950 . S
H5404 C5401 0.950 . S
C5405 C5396 1.390 . S
C5405 H5398 0.950 . S
C5405 C5402 1.387 . S
C5406 C5407 1.387 1_565 S
C5406 H5410 0.950 . S
C5406 C5415 1.390 . S
C5407 C5406 1.387 1_545 S
C5407 C5409 1.387 . S
H5408 C5415 0.950 . S
C5409 C5407 1.387 . S
C5409 C5411 1.390 . S
C5409 H5413 0.950 . S
H5410 C5406 0.950 . S
C5411 C5409 1.390 . S
C5411 C5412 1.387 1_545 S
C5411 H5414 0.950 . S
C5412 C5411 1.387 1_565 S
C5412 C5415 1.387 . S
H5413 C5409 0.950 . S
H5414 C5411 0.950 . S
C5415 C5406 1.390 . S
C5415 H5408 0.950 . S
C5415 C5412 1.387 . S
C5416 C5417 1.387 1_655 S
C5416 H5420 0.950 . S
C5416 C5425 1.390 . S
C5417 C5416 1.387 1_455 S
C5417 C5419 1.387 . S
H5418 C5425 0.950 . S
C5419 C5417 1.387 . S
C5419 C5421 1.390 . S
C5419 H5423 0.950 . S
H5420 C5416 0.950 . S
C5421 C5419 1.390 . S
C5421 C5422 1.387 1_455 S
C5421 H5424 0.950 . S
C5422 C5421 1.387 1_655 S
C5422 C5425 1.387 . S
H5423 C5419 0.950 . S
H5424 C5421 0.950 . S
C5425 C5416 1.390 . S
C5425 H5418 0.950 . S
C5425 C5422 1.387 . S
C5426 C5427 1.387 . S
C5426 H5430 0.950 . S
C5426 C5435 1.390 . S
C5427 C5426 1.387 . S
C5427 C5429 1.387 . S
H5428 C5435 0.950 . S
C5429 C5427 1.387 . S
C5429 C5431 1.390 . S
C5429 H5433 0.950 . S
H5430 C5426 0.950 . S
C5431 C5429 1.390 . S
C5431 C5432 1.387 . S
C5431 H5434 0.950 . S
C5432 C5431 1.387 . S
C5432 C5435 1.387 . S
H5433 C5429 0.950 . S
H5434 C5431 0.950 . S
C5435 C5426 1.390 . S
C5435 H5428 0.950 . S
C5435 C5432 1.387 . S
C5436 C5437 1.387 . S
C5436 H5440 0.950 . S
C5436 C5445 1.390 . S
C5437 C5436 1.387 . S
C5437 C5439 1.387 . S
H5438 C5445 0.950 . S
C5439 C5437 1.387 . S
C5439 C5441 1.390 . S
C5439 H5443 0.950 . S
H5440 C5436 0.950 . S
C5441 C5439 1.390 . S
C5441 C5442 1.387 . S
C5441 H5444 0.950 . S
C5442 C5441 1.387 . S
C5442 C5445 1.387 . S
H5443 C5439 0.950 . S
H5444 C5441 0.950 . S
C5445 C5436 1.390 . S
C5445 H5438 0.950 . S
C5445 C5442 1.387 . S
C5446 C5447 1.387 . S
C5446 H5450 0.950 . S
C5446 C5455 1.390 . S
C5447 C5446 1.387 . S
C5447 C5449 1.387 1_565 S
H5448 C5455 0.950 . S
C5449 C5447 1.387 1_545 S
C5449 C5451 1.390 . S
C5449 H5453 0.950 . S
H5450 C5446 0.950 . S
C5451 C5449 1.390 . S
C5451 C5452 1.387 . S
C5451 H5454 0.950 . S
C5452 C5451 1.387 . S
C5452 C5455 1.387 1_545 S
H5453 C5449 0.950 . S
H5454 C5451 0.950 . S
C5455 C5446 1.390 . S
C5455 H5448 0.950 . S
C5455 C5452 1.387 1_565 S
C5456 C5457 1.387 1_545 S
C5456 H5460 0.950 . S
C5456 C5465 1.390 . S
C5457 C5456 1.387 1_565 S
C5457 C5459 1.387 . S
H5458 C5465 0.950 . S
C5459 C5457 1.387 . S
C5459 C5461 1.390 . S
C5459 H5463 0.950 . S
H5460 C5456 0.950 . S
C5461 C5459 1.390 . S
C5461 C5462 1.387 1_565 S
C5461 H5464 0.950 . S
C5462 C5461 1.387 1_545 S
C5462 C5465 1.387 . S
H5463 C5459 0.950 . S
H5464 C5461 0.950 . S
C5465 C5456 1.390 . S
C5465 H5458 0.950 . S
C5465 C5462 1.387 . S
C5466 C5467 1.387 . S
C5466 H5470 0.950 . S
C5466 C5475 1.390 . S
C5467 C5466 1.387 . S
C5467 C5469 1.387 1_455 S
H5468 C5475 0.950 . S
C5469 C5467 1.387 1_655 S
C5469 C5471 1.390 . S
C5469 H5473 0.950 . S
H5470 C5466 0.950 . S
C5471 C5469 1.390 . S
C5471 C5472 1.387 . S
C5471 H5474 0.950 . S
C5472 C5471 1.387 . S
C5472 C5475 1.387 1_655 S
H5473 C5469 0.950 . S
H5474 C5471 0.950 . S
C5475 C5466 1.390 . S
C5475 H5468 0.950 . S
C5475 C5472 1.387 1_455 S
C5476 C5477 1.387 . S
C5476 H5480 0.950 . S
C5476 C5485 1.390 . S
C5477 C5476 1.387 . S
C5477 C5479 1.387 . S
H5478 C5485 0.950 . S
C5479 C5477 1.387 . S
C5479 C5481 1.390 . S
C5479 H5483 0.950 . S
H5480 C5476 0.950 . S
C5481 C5479 1.390 . S
C5481 C5482 1.387 . S
C5481 H5484 0.950 . S
C5482 C5481 1.387 . S
C5482 C5485 1.387 . S
H5483 C5479 0.950 . S
H5484 C5481 0.950 . S
C5485 C5476 1.390 . S
C5485 H5478 0.950 . S
C5485 C5482 1.387 . S
C5486 C5487 1.387 . S
C5486 H5490 0.950 . S
C5486 C5495 1.390 . S
C5487 C5486 1.387 . S
C5487 C5489 1.387 . S
H5488 C5495 0.950 . S
C5489 C5487 1.387 . S
C5489 C5491 1.390 . S
C5489 H5493 0.950 . S
H5490 C5486 0.950 . S
C5491 C5489 1.390 . S
C5491 C5492 1.387 . S
C5491 H5494 0.950 . S
C5492 C5491 1.387 . S
C5492 C5495 1.387 . S
H5493 C5489 0.950 . S
H5494 C5491 0.950 . S
C5495 C5486 1.390 . S
C5495 H5488 0.950 . S
C5495 C5492 1.387 . S
C5496 C5497 1.387 . S
C5496 H5500 0.950 . S
C5496 C5505 1.390 . S
C5497 C5496 1.387 . S
C5497 C5499 1.387 . S
H5498 C5505 0.950 . S
C5499 C5497 1.387 . S
C5499 C5501 1.390 . S
C5499 H5503 0.950 . S
H5500 C5496 0.950 . S
C5501 C5499 1.390 . S
C5501 C5502 1.387 . S
C5501 H5504 0.950 . S
C5502 C5501 1.387 . S
C5502 C5505 1.387 . S
H5503 C5499 0.950 . S
H5504 C5501 0.950 . S
C5505 C5496 1.390 . S
C5505 H5498 0.950 . S
C5505 C5502 1.387 . S
C5506 C5507 1.387 . S
C5506 H5510 0.950 . S
C5506 C5515 1.390 . S
C5507 C5506 1.387 . S
C5507 C5509 1.387 . S
H5508 C5515 0.950 . S
C5509 C5507 1.387 . S
C5509 C5511 1.390 . S
C5509 H5513 0.950 . S
H5510 C5506 0.950 . S
C5511 C5509 1.390 . S
C5511 C5512 1.387 . S
C5511 H5514 0.950 . S
C5512 C5511 1.387 . S
C5512 C5515 1.387 . S
H5513 C5509 0.950 . S
H5514 C5511 0.950 . S
C5515 C5506 1.390 . S
C5515 H5508 0.950 . S
C5515 C5512 1.387 . S
C5516 C5517 1.387 1_545 S
C5516 H5520 0.950 . S
C5516 C5525 1.390 . S
C5517 C5516 1.387 1_565 S
C5517 C5519 1.387 . S
H5518 C5525 0.950 . S
C5519 C5517 1.387 . S
C5519 C5521 1.390 . S
C5519 H5523 0.950 . S
H5520 C5516 0.950 . S
C5521 C5519 1.390 . S
C5521 C5522 1.387 1_565 S
C5521 H5524 0.950 . S
C5522 C5521 1.387 1_545 S
C5522 C5525 1.387 . S
H5523 C5519 0.950 . S
H5524 C5521 0.950 . S
C5525 C5516 1.390 . S
C5525 H5518 0.950 . S
C5525 C5522 1.387 . S
C5526 C5527 1.387 1_455 S
C5526 H5530 0.950 . S
C5526 C5535 1.390 . S
C5527 C5526 1.387 1_655 S
C5527 C5529 1.387 . S
H5528 C5535 0.950 . S
C5529 C5527 1.387 . S
C5529 C5531 1.390 . S
C5529 H5533 0.950 . S
H5530 C5526 0.950 . S
C5531 C5529 1.390 . S
C5531 C5532 1.387 1_655 S
C5531 H5534 0.950 . S
C5532 C5531 1.387 1_455 S
C5532 C5535 1.387 . S
H5533 C5529 0.950 . S
H5534 C5531 0.950 . S
C5535 C5526 1.390 . S
C5535 H5528 0.950 . S
C5535 C5532 1.387 . S
C5536 C5537 1.387 . S
C5536 H5540 0.950 . S
C5536 C5545 1.390 . S
C5537 C5536 1.387 . S
C5537 C5539 1.387 1_556 S
H5538 C5545 0.950 . S
C5539 C5537 1.387 1_554 S
C5539 C5541 1.390 . S
C5539 H5543 0.950 . S
H5540 C5536 0.950 . S
C5541 C5539 1.390 . S
C5541 C5542 1.387 . S
C5541 H5544 0.950 . S
C5542 C5541 1.387 . S
C5542 C5545 1.387 1_554 S
H5543 C5539 0.950 . S
H5544 C5541 0.950 . S
C5545 C5536 1.390 . S
C5545 H5538 0.950 . S
C5545 C5542 1.387 1_556 S
C5546 C5547 1.387 . S
C5546 H5550 0.950 . S
C5546 C5555 1.390 . S
C5547 C5546 1.387 . S
C5547 C5549 1.387 . S
H5548 C5555 0.950 . S
C5549 C5547 1.387 . S
C5549 C5551 1.390 . S
C5549 H5553 0.950 . S
H5550 C5546 0.950 . S
C5551 C5549 1.390 . S
C5551 C5552 1.387 . S
C5551 H5554 0.950 . S
C5552 C5551 1.387 . S
C5552 C5555 1.387 . S
H5553 C5549 0.950 . S
H5554 C5551 0.950 . S
C5555 C5546 1.390 . S
C5555 H5548 0.950 . S
C5555 C5552 1.387 . S
C5556 C5557 1.387 . S
C5556 H5560 0.950 . S
C5556 C5565 1.390 . S
C5557 C5556 1.387 . S
C5557 C5559 1.387 . S
H5558 C5565 0.950 . S
C5559 C5557 1.387 . S
C5559 C5561 1.390 . S
C5559 H5563 0.950 . S
H5560 C5556 0.950 . S
C5561 C5559 1.390 . S
C5561 C5562 1.387 . S
C5561 H5564 0.950 . S
C5562 C5561 1.387 . S
C5562 C5565 1.387 . S
H5563 C5559 0.950 . S
H5564 C5561 0.950 . S
C5565 C5556 1.390 . S
C5565 H5558 0.950 . S
C5565 C5562 1.387 . S
C5566 C5567 1.387 . S
C5566 H5570 0.950 . S
C5566 C5575 1.390 . S
C5567 C5566 1.387 . S
C5567 C5569 1.387 . S
H5568 C5575 0.950 . S
C5569 C5567 1.387 . S
C5569 C5571 1.390 . S
C5569 H5573 0.950 . S
H5570 C5566 0.950 . S
C5571 C5569 1.390 . S
C5571 C5572 1.387 . S
C5571 H5574 0.950 . S
C5572 C5571 1.387 . S
C5572 C5575 1.387 . S
H5573 C5569 0.950 . S
H5574 C5571 0.950 . S
C5575 C5566 1.390 . S
C5575 H5568 0.950 . S
C5575 C5572 1.387 . S
C5576 C5577 1.387 . S
C5576 H5580 0.950 . S
C5576 C5585 1.390 . S
C5577 C5576 1.387 . S
C5577 C5579 1.387 . S
H5578 C5585 0.950 . S
C5579 C5577 1.387 . S
C5579 C5581 1.390 . S
C5579 H5583 0.950 . S
H5580 C5576 0.950 . S
C5581 C5579 1.390 . S
C5581 C5582 1.387 . S
C5581 H5584 0.950 . S
C5582 C5581 1.387 . S
C5582 C5585 1.387 . S
H5583 C5579 0.950 . S
H5584 C5581 0.950 . S
C5585 C5576 1.390 . S
C5585 H5578 0.950 . S
C5585 C5582 1.387 . S
C5586 C5587 1.387 . S
C5586 H5590 0.950 . S
C5586 C5595 1.390 . S
C5587 C5586 1.387 . S
C5587 C5589 1.387 1_556 S
H5588 C5595 0.950 . S
C5589 C5587 1.387 1_554 S
C5589 C5591 1.390 . S
C5589 H5593 0.950 . S
H5590 C5586 0.950 . S
C5591 C5589 1.390 . S
C5591 C5592 1.387 . S
C5591 H5594 0.950 . S
C5592 C5591 1.387 . S
C5592 C5595 1.387 1_554 S
H5593 C5589 0.950 . S
H5594 C5591 0.950 . S
C5595 C5586 1.390 . S
C5595 H5588 0.950 . S
C5595 C5592 1.387 1_556 S
C5596 C5597 1.387 . S
C5596 H5600 0.950 . S
C5596 C5605 1.390 . S
C5597 C5596 1.387 . S
C5597 C5599 1.387 . S
H5598 C5605 0.950 . S
C5599 C5597 1.387 . S
C5599 C5601 1.390 . S
C5599 H5603 0.950 . S
H5600 C5596 0.950 . S
C5601 C5599 1.390 . S
C5601 C5602 1.387 . S
C5601 H5604 0.950 . S
C5602 C5601 1.387 . S
C5602 C5605 1.387 . S
H5603 C5599 0.950 . S
H5604 C5601 0.950 . S
C5605 C5596 1.390 . S
C5605 H5598 0.950 . S
C5605 C5602 1.387 . S
C5606 C5607 1.387 . S
C5606 H5610 0.950 . S
C5606 C5615 1.390 . S
C5607 C5606 1.387 . S
C5607 C5609 1.387 . S
H5608 C5615 0.950 . S
C5609 C5607 1.387 . S
C5609 C5611 1.390 . S
C5609 H5613 0.950 . S
H5610 C5606 0.950 . S
C5611 C5609 1.390 . S
C5611 C5612 1.387 . S
C5611 H5614 0.950 . S
C5612 C5611 1.387 . S
C5612 C5615 1.387 . S
H5613 C5609 0.950 . S
H5614 C5611 0.950 . S
C5615 C5606 1.390 . S
C5615 H5608 0.950 . S
C5615 C5612 1.387 . S
C5616 C5617 1.387 1_655 S
C5616 H5620 0.950 . S
C5616 C5625 1.390 . S
C5617 C5616 1.387 1_455 S
C5617 C5619 1.387 . S
H5618 C5625 0.950 . S
C5619 C5617 1.387 . S
C5619 C5621 1.390 . S
C5619 H5623 0.950 . S
H5620 C5616 0.950 . S
C5621 C5619 1.390 . S
C5621 C5622 1.387 1_455 S
C5621 H5624 0.950 . S
C5622 C5621 1.387 1_655 S
C5622 C5625 1.387 . S
H5623 C5619 0.950 . S
H5624 C5621 0.950 . S
C5625 C5616 1.390 . S
C5625 H5618 0.950 . S
C5625 C5622 1.387 . S
C5626 C5627 1.387 . S
C5626 H5630 0.950 . S
C5626 C5635 1.390 . S
C5627 C5626 1.387 . S
C5627 C5629 1.387 . S
H5628 C5635 0.950 . S
C5629 C5627 1.387 . S
C5629 C5631 1.390 . S
C5629 H5633 0.950 . S
H5630 C5626 0.950 . S
C5631 C5629 1.390 . S
C5631 C5632 1.387 . S
C5631 H5634 0.950 . S
C5632 C5631 1.387 . S
C5632 C5635 1.387 . S
H5633 C5629 0.950 . S
H5634 C5631 0.950 . S
C5635 C5626 1.390 . S
C5635 H5628 0.950 . S
C5635 C5632 1.387 . S
C5636 C5637 1.387 . S
C5636 H5640 0.950 . S
C5636 C5645 1.390 . S
C5637 C5636 1.387 . S
C5637 C5639 1.387 . S
H5638 C5645 0.950 . S
C5639 C5637 1.387 . S
C5639 C5641 1.390 . S
C5639 H5643 0.950 . S
H5640 C5636 0.950 . S
C5641 C5639 1.390 . S
C5641 C5642 1.387 . S
C5641 H5644 0.950 . S
C5642 C5641 1.387 . S
C5642 C5645 1.387 . S
H5643 C5639 0.950 . S
H5644 C5641 0.950 . S
C5645 C5636 1.390 . S
C5645 H5638 0.950 . S
C5645 C5642 1.387 . S
C5646 C5647 1.387 1_565 S
C5646 H5650 0.950 . S
C5646 C5655 1.390 . S
C5647 C5646 1.387 1_545 S
C5647 C5649 1.387 . S
H5648 C5655 0.950 . S
C5649 C5647 1.387 . S
C5649 C5651 1.390 . S
C5649 H5653 0.950 . S
H5650 C5646 0.950 . S
C5651 C5649 1.390 . S
C5651 C5652 1.387 1_545 S
C5651 H5654 0.950 . S
C5652 C5651 1.387 1_565 S
C5652 C5655 1.387 . S
H5653 C5649 0.950 . S
H5654 C5651 0.950 . S
C5655 C5646 1.390 . S
C5655 H5648 0.950 . S
C5655 C5652 1.387 . S
C5656 C5657 1.387 1_455 S
C5656 H5660 0.950 . S
C5656 C5665 1.390 . S
C5657 C5656 1.387 1_655 S
C5657 C5659 1.387 . S
H5658 C5665 0.950 . S
C5659 C5657 1.387 . S
C5659 C5661 1.390 . S
C5659 H5663 0.950 . S
H5660 C5656 0.950 . S
C5661 C5659 1.390 . S
C5661 C5662 1.387 1_655 S
C5661 H5664 0.950 . S
C5662 C5661 1.387 1_455 S
C5662 C5665 1.387 . S
H5663 C5659 0.950 . S
H5664 C5661 0.950 . S
C5665 C5656 1.390 . S
C5665 H5658 0.950 . S
C5665 C5662 1.387 . S
C5666 C5667 1.387 . S
C5666 H5670 0.950 . S
C5666 C5675 1.390 . S
C5667 C5666 1.387 . S
C5667 C5669 1.387 . S
H5668 C5675 0.950 . S
C5669 C5667 1.387 . S
C5669 C5671 1.390 . S
C5669 H5673 0.950 . S
H5670 C5666 0.950 . S
C5671 C5669 1.390 . S
C5671 C5672 1.387 . S
C5671 H5674 0.950 . S
C5672 C5671 1.387 . S
C5672 C5675 1.387 . S
H5673 C5669 0.950 . S
H5674 C5671 0.950 . S
C5675 C5666 1.390 . S
C5675 H5668 0.950 . S
C5675 C5672 1.387 . S
C5676 C5677 1.387 . S
C5676 H5680 0.950 . S
C5676 C5685 1.390 . S
C5677 C5676 1.387 . S
C5677 C5679 1.387 . S
H5678 C5685 0.950 . S
C5679 C5677 1.387 . S
C5679 C5681 1.390 . S
C5679 H5683 0.950 . S
H5680 C5676 0.950 . S
C5681 C5679 1.390 . S
C5681 C5682 1.387 . S
C5681 H5684 0.950 . S
C5682 C5681 1.387 . S
C5682 C5685 1.387 . S
H5683 C5679 0.950 . S
H5684 C5681 0.950 . S
C5685 C5676 1.390 . S
C5685 H5678 0.950 . S
C5685 C5682 1.387 . S
C5686 C5687 1.387 . S
C5686 H5690 0.950 . S
C5686 C5695 1.390 . S
C5687 C5686 1.387 . S
C5687 C5689 1.387 1_545 S
H5688 C5695 0.950 . S
C5689 C5687 1.387 1_565 S
C5689 C5691 1.390 . S
C5689 H5693 0.950 . S
H5690 C5686 0.950 . S
C5691 C5689 1.390 . S
C5691 C5692 1.387 . S
C5691 H5694 0.950 . S
C5692 C5691 1.387 . S
C5692 C5695 1.387 1_565 S
H5693 C5689 0.950 . S
H5694 C5691 0.950 . S
C5695 C5686 1.390 . S
C5695 H5688 0.950 . S
C5695 C5692 1.387 1_545 S
C5696 C5697 1.387 1_565 S
C5696 H5700 0.950 . S
C5696 C5705 1.390 . S
C5697 C5696 1.387 1_545 S
C5697 C5699 1.387 . S
H5698 C5705 0.950 . S
C5699 C5697 1.387 . S
C5699 C5701 1.390 . S
C5699 H5703 0.950 . S
H5700 C5696 0.950 . S
C5701 C5699 1.390 . S
C5701 C5702 1.387 1_545 S
C5701 H5704 0.950 . S
C5702 C5701 1.387 1_565 S
C5702 C5705 1.387 . S
H5703 C5699 0.950 . S
H5704 C5701 0.950 . S
C5705 C5696 1.390 . S
C5705 H5698 0.950 . S
C5705 C5702 1.387 . S
C5706 C5707 1.387 . S
C5706 H5710 0.950 . S
C5706 C5715 1.390 1_655 S
C5707 C5706 1.387 . S
C5707 C5709 1.387 . S
H5708 C5715 0.950 . S
C5709 C5707 1.387 . S
C5709 C5711 1.390 1_655 S
C5709 H5713 0.950 . S
H5710 C5706 0.950 . S
C5711 C5709 1.390 1_455 S
C5711 C5712 1.387 . S
C5711 H5714 0.950 . S
C5712 C5711 1.387 . S
C5712 C5715 1.387 . S
H5713 C5709 0.950 . S
H5714 C5711 0.950 . S
C5715 C5706 1.390 1_455 S
C5715 H5708 0.950 . S
C5715 C5712 1.387 . S
C5716 C5717 1.387 . S
C5716 H5720 0.950 . S
C5716 C5725 1.390 . S
C5717 C5716 1.387 . S
C5717 C5719 1.387 . S
H5718 C5725 0.950 . S
C5719 C5717 1.387 . S
C5719 C5721 1.390 . S
C5719 H5723 0.950 . S
H5720 C5716 0.950 . S
C5721 C5719 1.390 . S
C5721 C5722 1.387 . S
C5721 H5724 0.950 . S
C5722 C5721 1.387 . S
C5722 C5725 1.387 . S
H5723 C5719 0.950 . S
H5724 C5721 0.950 . S
C5725 C5716 1.390 . S
C5725 H5718 0.950 . S
C5725 C5722 1.387 . S
C5726 C5727 1.387 . S
C5726 H5730 0.950 . S
C5726 C5735 1.390 . S
C5727 C5726 1.387 . S
C5727 C5729 1.387 . S
H5728 C5735 0.950 . S
C5729 C5727 1.387 . S
C5729 C5731 1.390 . S
C5729 H5733 0.950 . S
H5730 C5726 0.950 . S
C5731 C5729 1.390 . S
C5731 C5732 1.387 . S
C5731 H5734 0.950 . S
C5732 C5731 1.387 . S
C5732 C5735 1.387 . S
H5733 C5729 0.950 . S
H5734 C5731 0.950 . S
C5735 C5726 1.390 . S
C5735 H5728 0.950 . S
C5735 C5732 1.387 . S
C5736 C5737 1.387 . S
C5736 H5740 0.950 . S
C5736 C5745 1.390 . S
C5737 C5736 1.387 . S
C5737 C5739 1.387 . S
H5738 C5745 0.950 . S
C5739 C5737 1.387 . S
C5739 C5741 1.390 . S
C5739 H5743 0.950 . S
H5740 C5736 0.950 . S
C5741 C5739 1.390 . S
C5741 C5742 1.387 . S
C5741 H5744 0.950 . S
C5742 C5741 1.387 . S
C5742 C5745 1.387 . S
H5743 C5739 0.950 . S
H5744 C5741 0.950 . S
C5745 C5736 1.390 . S
C5745 H5738 0.950 . S
C5745 C5742 1.387 . S
C5746 C5747 1.387 . S
C5746 H5750 0.950 . S
C5746 C5755 1.390 . S
C5747 C5746 1.387 . S
C5747 C5749 1.387 . S
H5748 C5755 0.950 . S
C5749 C5747 1.387 . S
C5749 C5751 1.390 . S
C5749 H5753 0.950 . S
H5750 C5746 0.950 . S
C5751 C5749 1.390 . S
C5751 C5752 1.387 . S
C5751 H5754 0.950 . S
C5752 C5751 1.387 . S
C5752 C5755 1.387 . S
H5753 C5749 0.950 . S
H5754 C5751 0.950 . S
C5755 C5746 1.390 . S
C5755 H5748 0.950 . S
C5755 C5752 1.387 . S
C5756 C5757 1.387 . S
C5756 H5760 0.950 . S
C5756 C5765 1.390 . S
C5757 C5756 1.387 . S
C5757 C5759 1.387 1_545 S
H5758 C5765 0.950 . S
C5759 C5757 1.387 1_565 S
C5759 C5761 1.390 . S
C5759 H5763 0.950 . S
H5760 C5756 0.950 . S
C5761 C5759 1.390 . S
C5761 C5762 1.387 . S
C5761 H5764 0.950 . S
C5762 C5761 1.387 . S
C5762 C5765 1.387 1_565 S
H5763 C5759 0.950 . S
H5764 C5761 0.950 . S
C5765 C5756 1.390 . S
C5765 H5758 0.950 . S
C5765 C5762 1.387 1_545 S
C5766 C5767 1.387 1_655 S
C5766 H5770 0.950 . S
C5766 C5775 1.390 . S
C5767 C5766 1.387 1_455 S
C5767 C5769 1.387 . S
H5768 C5775 0.950 . S
C5769 C5767 1.387 . S
C5769 C5771 1.390 . S
C5769 H5773 0.950 . S
H5770 C5766 0.950 . S
C5771 C5769 1.390 . S
C5771 C5772 1.387 1_455 S
C5771 H5774 0.950 . S
C5772 C5771 1.387 1_655 S
C5772 C5775 1.387 . S
H5773 C5769 0.950 . S
H5774 C5771 0.950 . S
C5775 C5766 1.390 . S
C5775 H5768 0.950 . S
C5775 C5772 1.387 . S
C5776 C5777 1.387 1_556 S
C5776 H5780 0.950 . S
C5776 C5785 1.390 . S
C5777 C5776 1.387 1_554 S
C5777 C5779 1.387 . S
H5778 C5785 0.950 . S
C5779 C5777 1.387 . S
C5779 C5781 1.390 . S
C5779 H5783 0.950 . S
H5780 C5776 0.950 . S
C5781 C5779 1.390 . S
C5781 C5782 1.387 1_554 S
C5781 H5784 0.950 . S
C5782 C5781 1.387 1_556 S
C5782 C5785 1.387 . S
H5783 C5779 0.950 . S
H5784 C5781 0.950 . S
C5785 C5776 1.390 . S
C5785 H5778 0.950 . S
C5785 C5782 1.387 . S
C5786 C5787 1.387 . S
C5786 H5790 0.950 . S
C5786 C5795 1.390 . S
C5787 C5786 1.387 . S
C5787 C5789 1.387 . S
H5788 C5795 0.950 . S
C5789 C5787 1.387 . S
C5789 C5791 1.390 . S
C5789 H5793 0.950 . S
H5790 C5786 0.950 . S
C5791 C5789 1.390 . S
C5791 C5792 1.387 . S
C5791 H5794 0.950 . S
C5792 C5791 1.387 . S
C5792 C5795 1.387 . S
H5793 C5789 0.950 . S
H5794 C5791 0.950 . S
C5795 C5786 1.390 . S
C5795 H5788 0.950 . S
C5795 C5792 1.387 . S
C5796 C5797 1.387 . S
C5796 H5800 0.950 . S
C5796 C5805 1.390 . S
C5797 C5796 1.387 . S
C5797 C5799 1.387 . S
H5798 C5805 0.950 . S
C5799 C5797 1.387 . S
C5799 C5801 1.390 . S
C5799 H5803 0.950 . S
H5800 C5796 0.950 . S
C5801 C5799 1.390 . S
C5801 C5802 1.387 . S
C5801 H5804 0.950 . S
C5802 C5801 1.387 . S
C5802 C5805 1.387 . S
H5803 C5799 0.950 . S
H5804 C5801 0.950 . S
C5805 C5796 1.390 . S
C5805 H5798 0.950 . S
C5805 C5802 1.387 . S
C5806 C5807 1.387 . S
C5806 H5810 0.950 . S
C5806 C5815 1.390 . S
C5807 C5806 1.387 . S
C5807 C5809 1.387 . S
H5808 C5815 0.950 . S
C5809 C5807 1.387 . S
C5809 C5811 1.390 . S
C5809 H5813 0.950 . S
H5810 C5806 0.950 . S
C5811 C5809 1.390 . S
C5811 C5812 1.387 . S
C5811 H5814 0.950 . S
C5812 C5811 1.387 . S
C5812 C5815 1.387 . S
H5813 C5809 0.950 . S
H5814 C5811 0.950 . S
C5815 C5806 1.390 . S
C5815 H5808 0.950 . S
C5815 C5812 1.387 . S
C5816 C5817 1.387 . S
C5816 H5820 0.950 . S
C5816 C5825 1.390 . S
C5817 C5816 1.387 . S
C5817 C5819 1.387 . S
H5818 C5825 0.950 . S
C5819 C5817 1.387 . S
C5819 C5821 1.390 . S
C5819 H5823 0.950 . S
H5820 C5816 0.950 . S
C5821 C5819 1.390 . S
C5821 C5822 1.387 . S
C5821 H5824 0.950 . S
C5822 C5821 1.387 . S
C5822 C5825 1.387 . S
H5823 C5819 0.950 . S
H5824 C5821 0.950 . S
C5825 C5816 1.390 . S
C5825 H5818 0.950 . S
C5825 C5822 1.387 . S
C5826 C5827 1.387 . S
C5826 H5830 0.950 . S
C5826 C5835 1.390 . S
C5827 C5826 1.387 . S
C5827 C5829 1.387 1_556 S
H5828 C5835 0.950 . S
C5829 C5827 1.387 1_554 S
C5829 C5831 1.390 . S
C5829 H5833 0.950 . S
H5830 C5826 0.950 . S
C5831 C5829 1.390 . S
C5831 C5832 1.387 . S
C5831 H5834 0.950 . S
C5832 C5831 1.387 . S
C5832 C5835 1.387 1_554 S
H5833 C5829 0.950 . S
H5834 C5831 0.950 . S
C5835 C5826 1.390 . S
C5835 H5828 0.950 . S
C5835 C5832 1.387 1_556 S
C5836 C5837 1.387 . S
C5836 H5840 0.950 . S
C5836 C5845 1.390 . S
C5837 C5836 1.387 . S
C5837 C5839 1.387 . S
H5838 C5845 0.950 . S
C5839 C5837 1.387 . S
C5839 C5841 1.390 . S
C5839 H5843 0.950 . S
H5840 C5836 0.950 . S
C5841 C5839 1.390 . S
C5841 C5842 1.387 . S
C5841 H5844 0.950 . S
C5842 C5841 1.387 . S
C5842 C5845 1.387 . S
H5843 C5839 0.950 . S
H5844 C5841 0.950 . S
C5845 C5836 1.390 . S
C5845 H5838 0.950 . S
C5845 C5842 1.387 . S
C5846 C5847 1.387 . S
C5846 H5850 0.950 . S
C5846 C5855 1.390 . S
C5847 C5846 1.387 . S
C5847 C5849 1.387 . S
H5848 C5855 0.950 . S
C5849 C5847 1.387 . S
C5849 C5851 1.390 . S
C5849 H5853 0.950 . S
H5850 C5846 0.950 . S
C5851 C5849 1.390 . S
C5851 C5852 1.387 . S
C5851 H5854 0.950 . S
C5852 C5851 1.387 . S
C5852 C5855 1.387 . S
H5853 C5849 0.950 . S
H5854 C5851 0.950 . S
C5855 C5846 1.390 . S
C5855 H5848 0.950 . S
C5855 C5852 1.387 . S
C5856 C5857 1.387 . S
C5856 H5860 0.950 . S
C5856 C5865 1.390 . S
C5857 C5856 1.387 . S
C5857 C5859 1.387 . S
H5858 C5865 0.950 . S
C5859 C5857 1.387 . S
C5859 C5861 1.390 . S
C5859 H5863 0.950 . S
H5860 C5856 0.950 . S
C5861 C5859 1.390 . S
C5861 C5862 1.387 . S
C5861 H5864 0.950 . S
C5862 C5861 1.387 . S
C5862 C5865 1.387 . S
H5863 C5859 0.950 . S
H5864 C5861 0.950 . S
C5865 C5856 1.390 . S
C5865 H5858 0.950 . S
C5865 C5862 1.387 . S
C5866 C5867 1.387 . S
C5866 H5870 0.950 . S
C5866 C5875 1.390 . S
C5867 C5866 1.387 . S
C5867 C5869 1.387 . S
H5868 C5875 0.950 . S
C5869 C5867 1.387 . S
C5869 C5871 1.390 . S
C5869 H5873 0.950 . S
H5870 C5866 0.950 . S
C5871 C5869 1.390 . S
C5871 C5872 1.387 . S
C5871 H5874 0.950 . S
C5872 C5871 1.387 . S
C5872 C5875 1.387 . S
H5873 C5869 0.950 . S
H5874 C5871 0.950 . S
C5875 C5866 1.390 . S
C5875 H5868 0.950 . S
C5875 C5872 1.387 . S
C5876 C5877 1.387 . S
C5876 H5880 0.950 . S
C5876 C5885 1.390 . S
C5877 C5876 1.387 . S
C5877 C5879 1.387 . S
H5878 C5885 0.950 . S
C5879 C5877 1.387 . S
C5879 C5881 1.390 . S
C5879 H5883 0.950 . S
H5880 C5876 0.950 . S
C5881 C5879 1.390 . S
C5881 C5882 1.387 . S
C5881 H5884 0.950 . S
C5882 C5881 1.387 . S
C5882 C5885 1.387 . S
H5883 C5879 0.950 . S
H5884 C5881 0.950 . S
C5885 C5876 1.390 . S
C5885 H5878 0.950 . S
C5885 C5882 1.387 . S
C5886 C5887 1.387 . S
C5886 H5890 0.950 . S
C5886 C5895 1.390 . S
C5887 C5886 1.387 . S
C5887 C5889 1.387 . S
H5888 C5895 0.950 . S
C5889 C5887 1.387 . S
C5889 C5891 1.390 . S
C5889 H5893 0.950 . S
H5890 C5886 0.950 . S
C5891 C5889 1.390 . S
C5891 C5892 1.387 . S
C5891 H5894 0.950 . S
C5892 C5891 1.387 . S
C5892 C5895 1.387 . S
H5893 C5889 0.950 . S
H5894 C5891 0.950 . S
C5895 C5886 1.390 . S
C5895 H5888 0.950 . S
C5895 C5892 1.387 . S
C5896 C5897 1.387 . S
C5896 H5900 0.950 . S
C5896 C5905 1.390 . S
C5897 C5896 1.387 . S
C5897 C5899 1.387 . S
H5898 C5905 0.950 . S
C5899 C5897 1.387 . S
C5899 C5901 1.390 . S
C5899 H5903 0.950 . S
H5900 C5896 0.950 . S
C5901 C5899 1.390 . S
C5901 C5902 1.387 . S
C5901 H5904 0.950 . S
C5902 C5901 1.387 . S
C5902 C5905 1.387 . S
H5903 C5899 0.950 . S
H5904 C5901 0.950 . S
C5905 C5896 1.390 . S
C5905 H5898 0.950 . S
C5905 C5902 1.387 . S
C5906 C5907 1.387 . S
C5906 H5910 0.950 . S
C5906 C5915 1.390 . S
C5907 C5906 1.387 . S
C5907 C5909 1.387 . S
H5908 C5915 0.950 . S
C5909 C5907 1.387 . S
C5909 C5911 1.390 . S
C5909 H5913 0.950 . S
H5910 C5906 0.950 . S
C5911 C5909 1.390 . S
C5911 C5912 1.387 . S
C5911 H5914 0.950 . S
C5912 C5911 1.387 . S
C5912 C5915 1.387 . S
H5913 C5909 0.950 . S
H5914 C5911 0.950 . S
C5915 C5906 1.390 . S
C5915 H5908 0.950 . S
C5915 C5912 1.387 . S
C5916 C5917 1.387 . S
C5916 H5920 0.950 . S
C5916 C5925 1.390 . S
C5917 C5916 1.387 . S
C5917 C5919 1.387 . S
H5918 C5925 0.950 . S
C5919 C5917 1.387 . S
C5919 C5921 1.390 . S
C5919 H5923 0.950 . S
H5920 C5916 0.950 . S
C5921 C5919 1.390 . S
C5921 C5922 1.387 . S
C5921 H5924 0.950 . S
C5922 C5921 1.387 . S
C5922 C5925 1.387 . S
H5923 C5919 0.950 . S
H5924 C5921 0.950 . S
C5925 C5916 1.390 . S
C5925 H5918 0.950 . S
C5925 C5922 1.387 . S
C5926 C5927 1.387 . S
C5926 H5930 0.950 . S
C5926 C5935 1.390 . S
C5927 C5926 1.387 . S
C5927 C5929 1.387 . S
H5928 C5935 0.950 . S
C5929 C5927 1.387 . S
C5929 C5931 1.390 . S
C5929 H5933 0.950 . S
H5930 C5926 0.950 . S
C5931 C5929 1.390 . S
C5931 C5932 1.387 . S
C5931 H5934 0.950 . S
C5932 C5931 1.387 . S
C5932 C5935 1.387 . S
H5933 C5929 0.950 . S
H5934 C5931 0.950 . S
C5935 C5926 1.390 . S
C5935 H5928 0.950 . S
C5935 C5932 1.387 . S
C5936 C5937 1.387 . S
C5936 H5940 0.950 . S
C5936 C5945 1.390 . S
C5937 C5936 1.387 . S
C5937 C5939 1.387 . S
H5938 C5945 0.950 . S
C5939 C5937 1.387 . S
C5939 C5941 1.390 . S
C5939 H5943 0.950 . S
H5940 C5936 0.950 . S
C5941 C5939 1.390 . S
C5941 C5942 1.387 . S
C5941 H5944 0.950 . S
C5942 C5941 1.387 . S
C5942 C5945 1.387 . S
H5943 C5939 0.950 . S
H5944 C5941 0.950 . S
C5945 C5936 1.390 . S
C5945 H5938 0.950 . S
C5945 C5942 1.387 . S
C5946 C5947 1.387 . S
C5946 H5950 0.950 . S
C5946 C5955 1.390 . S
C5947 C5946 1.387 . S
C5947 C5949 1.387 . S
H5948 C5955 0.950 . S
C5949 C5947 1.387 . S
C5949 C5951 1.390 . S
C5949 H5953 0.950 . S
H5950 C5946 0.950 . S
C5951 C5949 1.390 . S
C5951 C5952 1.387 . S
C5951 H5954 0.950 . S
C5952 C5951 1.387 . S
C5952 C5955 1.387 . S
H5953 C5949 0.950 . S
H5954 C5951 0.950 . S
C5955 C5946 1.390 . S
C5955 H5948 0.950 . S
C5955 C5952 1.387 . S
C5956 C5957 1.387 . S
C5956 H5960 0.950 . S
C5956 C5965 1.390 . S
C5957 C5956 1.387 . S
C5957 C5959 1.387 1_556 S
H5958 C5965 0.950 . S
C5959 C5957 1.387 1_554 S
C5959 C5961 1.390 . S
C5959 H5963 0.950 . S
H5960 C5956 0.950 . S
C5961 C5959 1.390 . S
C5961 C5962 1.387 . S
C5961 H5964 0.950 . S
C5962 C5961 1.387 . S
C5962 C5965 1.387 1_554 S
H5963 C5959 0.950 . S
H5964 C5961 0.950 . S
C5965 C5956 1.390 . S
C5965 H5958 0.950 . S
C5965 C5962 1.387 1_556 S
C5966 C5967 1.387 . S
C5966 H5970 0.950 . S
C5966 C5975 1.390 . S
C5967 C5966 1.387 . S
C5967 C5969 1.387 . S
H5968 C5975 0.950 . S
C5969 C5967 1.387 . S
C5969 C5971 1.390 . S
C5969 H5973 0.950 . S
H5970 C5966 0.950 . S
C5971 C5969 1.390 . S
C5971 C5972 1.387 . S
C5971 H5974 0.950 . S
C5972 C5971 1.387 . S
C5972 C5975 1.387 . S
H5973 C5969 0.950 . S
H5974 C5971 0.950 . S
C5975 C5966 1.390 . S
C5975 H5968 0.950 . S
C5975 C5972 1.387 . S
C5976 C5977 1.387 1_556 S
C5976 H5980 0.950 . S
C5976 C5985 1.390 . S
C5977 C5976 1.387 1_554 S
C5977 C5979 1.387 . S
H5978 C5985 0.950 . S
C5979 C5977 1.387 . S
C5979 C5981 1.390 . S
C5979 H5983 0.950 . S
H5980 C5976 0.950 . S
C5981 C5979 1.390 . S
C5981 C5982 1.387 1_554 S
C5981 H5984 0.950 . S
C5982 C5981 1.387 1_556 S
C5982 C5985 1.387 . S
H5983 C5979 0.950 . S
H5984 C5981 0.950 . S
C5985 C5976 1.390 . S
C5985 H5978 0.950 . S
C5985 C5982 1.387 . S
C5986 C5987 1.387 . S
C5986 H5990 0.950 . S
C5986 C5995 1.390 . S
C5987 C5986 1.387 . S
C5987 C5989 1.387 . S
H5988 C5995 0.950 . S
C5989 C5987 1.387 . S
C5989 C5991 1.390 . S
C5989 H5993 0.950 . S
H5990 C5986 0.950 . S
C5991 C5989 1.390 . S
C5991 C5992 1.387 . S
C5991 H5994 0.950 . S
C5992 C5991 1.387 . S
C5992 C5995 1.387 . S
H5993 C5989 0.950 . S
H5994 C5991 0.950 . S
C5995 C5986 1.390 . S
C5995 H5988 0.950 . S
C5995 C5992 1.387 . S
C5996 C5997 1.387 . S
C5996 H6000 0.950 . S
C5996 C6005 1.390 . S
C5997 C5996 1.387 . S
C5997 C5999 1.387 . S
H5998 C6005 0.950 . S
C5999 C5997 1.387 . S
C5999 C6001 1.390 . S
C5999 H6003 0.950 . S
H6000 C5996 0.950 . S
C6001 C5999 1.390 . S
C6001 C6002 1.387 . S
C6001 H6004 0.950 . S
C6002 C6001 1.387 . S
C6002 C6005 1.387 . S
H6003 C5999 0.950 . S
H6004 C6001 0.950 . S
C6005 C5996 1.390 . S
C6005 H5998 0.950 . S
C6005 C6002 1.387 . S
C6006 C6007 1.387 . S
C6006 H6010 0.950 . S
C6006 C6015 1.390 . S
C6007 C6006 1.387 . S
C6007 C6009 1.387 . S
H6008 C6015 0.950 . S
C6009 C6007 1.387 . S
C6009 C6011 1.390 . S
C6009 H6013 0.950 . S
H6010 C6006 0.950 . S
C6011 C6009 1.390 . S
C6011 C6012 1.387 . S
C6011 H6014 0.950 . S
C6012 C6011 1.387 . S
C6012 C6015 1.387 . S
H6013 C6009 0.950 . S
H6014 C6011 0.950 . S
C6015 C6006 1.390 . S
C6015 H6008 0.950 . S
C6015 C6012 1.387 . S
C6016 C6017 1.387 . S
C6016 H6020 0.950 . S
C6016 C6025 1.390 . S
C6017 C6016 1.387 . S
C6017 C6019 1.387 . S
H6018 C6025 0.950 . S
C6019 C6017 1.387 . S
C6019 C6021 1.390 . S
C6019 H6023 0.950 . S
H6020 C6016 0.950 . S
C6021 C6019 1.390 . S
C6021 C6022 1.387 . S
C6021 H6024 0.950 . S
C6022 C6021 1.387 . S
C6022 C6025 1.387 . S
H6023 C6019 0.950 . S
H6024 C6021 0.950 . S
C6025 C6016 1.390 . S
C6025 H6018 0.950 . S
C6025 C6022 1.387 . S
C6026 C6027 1.387 . S
C6026 H6030 0.950 . S
C6026 C6035 1.390 . S
C6027 C6026 1.387 . S
C6027 C6029 1.387 . S
H6028 C6035 0.950 . S
C6029 C6027 1.387 . S
C6029 C6031 1.390 . S
C6029 H6033 0.950 . S
H6030 C6026 0.950 . S
C6031 C6029 1.390 . S
C6031 C6032 1.387 . S
C6031 H6034 0.950 . S
C6032 C6031 1.387 . S
C6032 C6035 1.387 . S
H6033 C6029 0.950 . S
H6034 C6031 0.950 . S
C6035 C6026 1.390 . S
C6035 H6028 0.950 . S
C6035 C6032 1.387 . S
C6036 C6037 1.387 . S
C6036 H6040 0.950 . S
C6036 C6045 1.390 . S
C6037 C6036 1.387 . S
C6037 C6039 1.387 . S
H6038 C6045 0.950 . S
C6039 C6037 1.387 . S
C6039 C6041 1.390 . S
C6039 H6043 0.950 . S
H6040 C6036 0.950 . S
C6041 C6039 1.390 . S
C6041 C6042 1.387 . S
C6041 H6044 0.950 . S
C6042 C6041 1.387 . S
C6042 C6045 1.387 . S
H6043 C6039 0.950 . S
H6044 C6041 0.950 . S
C6045 C6036 1.390 . S
C6045 H6038 0.950 . S
C6045 C6042 1.387 . S
C6046 C6047 1.387 . S
C6046 H6050 0.950 . S
C6046 C6055 1.390 . S
C6047 C6046 1.387 . S
C6047 C6049 1.387 . S
H6048 C6055 0.950 . S
C6049 C6047 1.387 . S
C6049 C6051 1.390 . S
C6049 H6053 0.950 . S
H6050 C6046 0.950 . S
C6051 C6049 1.390 . S
C6051 C6052 1.387 . S
C6051 H6054 0.950 . S
C6052 C6051 1.387 . S
C6052 C6055 1.387 . S
H6053 C6049 0.950 . S
H6054 C6051 0.950 . S
C6055 C6046 1.390 . S
C6055 H6048 0.950 . S
C6055 C6052 1.387 . S
C6056 C6057 1.387 . S
C6056 H6060 0.950 . S
C6056 C6065 1.390 . S
C6057 C6056 1.387 . S
C6057 C6059 1.387 . S
H6058 C6065 0.950 . S
C6059 C6057 1.387 . S
C6059 C6061 1.390 . S
C6059 H6063 0.950 . S
H6060 C6056 0.950 . S
C6061 C6059 1.390 . S
C6061 C6062 1.387 . S
C6061 H6064 0.950 . S
C6062 C6061 1.387 . S
C6062 C6065 1.387 . S
H6063 C6059 0.950 . S
H6064 C6061 0.950 . S
C6065 C6056 1.390 . S
C6065 H6058 0.950 . S
C6065 C6062 1.387 . S
C6066 C6067 1.387 . S
C6066 H6070 0.950 . S
C6066 C6075 1.390 . S
C6067 C6066 1.387 . S
C6067 C6069 1.387 . S
H6068 C6075 0.950 . S
C6069 C6067 1.387 . S
C6069 C6071 1.390 . S
C6069 H6073 0.950 . S
H6070 C6066 0.950 . S
C6071 C6069 1.390 . S
C6071 C6072 1.387 . S
C6071 H6074 0.950 . S
C6072 C6071 1.387 . S
C6072 C6075 1.387 . S
H6073 C6069 0.950 . S
H6074 C6071 0.950 . S
C6075 C6066 1.390 . S
C6075 H6068 0.950 . S
C6075 C6072 1.387 . S
C6076 C6077 1.387 . S
C6076 H6080 0.950 . S
C6076 C6085 1.390 . S
C6077 C6076 1.387 . S
C6077 C6079 1.387 . S
H6078 C6085 0.950 . S
C6079 C6077 1.387 . S
C6079 C6081 1.390 . S
C6079 H6083 0.950 . S
H6080 C6076 0.950 . S
C6081 C6079 1.390 . S
C6081 C6082 1.387 . S
C6081 H6084 0.950 . S
C6082 C6081 1.387 . S
C6082 C6085 1.387 . S
H6083 C6079 0.950 . S
H6084 C6081 0.950 . S
C6085 C6076 1.390 . S
C6085 H6078 0.950 . S
C6085 C6082 1.387 . S
C6086 C6087 1.387 . S
C6086 H6090 0.950 . S
C6086 C6095 1.390 . S
C6087 C6086 1.387 . S
C6087 C6089 1.387 . S
H6088 C6095 0.950 . S
C6089 C6087 1.387 . S
C6089 C6091 1.390 . S
C6089 H6093 0.950 . S
H6090 C6086 0.950 . S
C6091 C6089 1.390 . S
C6091 C6092 1.387 . S
C6091 H6094 0.950 . S
C6092 C6091 1.387 . S
C6092 C6095 1.387 . S
H6093 C6089 0.950 . S
H6094 C6091 0.950 . S
C6095 C6086 1.390 . S
C6095 H6088 0.950 . S
C6095 C6092 1.387 . S
C6096 C6097 1.387 . S
C6096 H6100 0.950 . S
C6096 C6105 1.390 . S
C6097 C6096 1.387 . S
C6097 C6099 1.387 . S
H6098 C6105 0.950 . S
C6099 C6097 1.387 . S
C6099 C6101 1.390 . S
C6099 H6103 0.950 . S
H6100 C6096 0.950 . S
C6101 C6099 1.390 . S
C6101 C6102 1.387 . S
C6101 H6104 0.950 . S
C6102 C6101 1.387 . S
C6102 C6105 1.387 . S
H6103 C6099 0.950 . S
H6104 C6101 0.950 . S
C6105 C6096 1.390 . S
C6105 H6098 0.950 . S
C6105 C6102 1.387 . S
C6106 C6107 1.387 . S
C6106 H6110 0.950 . S
C6106 C6115 1.390 . S
C6107 C6106 1.387 . S
C6107 C6109 1.387 . S
H6108 C6115 0.950 . S
C6109 C6107 1.387 . S
C6109 C6111 1.390 . S
C6109 H6113 0.950 . S
H6110 C6106 0.950 . S
C6111 C6109 1.390 . S
C6111 C6112 1.387 . S
C6111 H6114 0.950 . S
C6112 C6111 1.387 . S
C6112 C6115 1.387 . S
H6113 C6109 0.950 . S
H6114 C6111 0.950 . S
C6115 C6106 1.390 . S
C6115 H6108 0.950 . S
C6115 C6112 1.387 . S
C6116 C6117 1.387 . S
C6116 H6120 0.950 . S
C6116 C6125 1.390 . S
C6117 C6116 1.387 . S
C6117 C6119 1.387 1_554 S
H6118 C6125 0.950 . S
C6119 C6117 1.387 1_556 S
C6119 C6121 1.390 . S
C6119 H6123 0.950 . S
H6120 C6116 0.950 . S
C6121 C6119 1.390 . S
C6121 C6122 1.387 . S
C6121 H6124 0.950 . S
C6122 C6121 1.387 . S
C6122 C6125 1.387 1_556 S
H6123 C6119 0.950 . S
H6124 C6121 0.950 . S
C6125 C6116 1.390 . S
C6125 H6118 0.950 . S
C6125 C6122 1.387 1_554 S
C6126 C6127 1.387 . S
C6126 H6130 0.950 . S
C6126 C6135 1.390 . S
C6127 C6126 1.387 . S
C6127 C6129 1.387 . S
H6128 C6135 0.950 . S
C6129 C6127 1.387 . S
C6129 C6131 1.390 . S
C6129 H6133 0.950 . S
H6130 C6126 0.950 . S
C6131 C6129 1.390 . S
C6131 C6132 1.387 . S
C6131 H6134 0.950 . S
C6132 C6131 1.387 . S
C6132 C6135 1.387 . S
H6133 C6129 0.950 . S
H6134 C6131 0.950 . S
C6135 C6126 1.390 . S
C6135 H6128 0.950 . S
C6135 C6132 1.387 . S
C6136 C6137 1.387 . S
C6136 H6140 0.950 . S
C6136 C6145 1.390 . S
C6137 C6136 1.387 . S
C6137 C6139 1.387 1_554 S
H6138 C6145 0.950 . S
C6139 C6137 1.387 1_556 S
C6139 C6141 1.390 . S
C6139 H6143 0.950 . S
H6140 C6136 0.950 . S
C6141 C6139 1.390 . S
C6141 C6142 1.387 . S
C6141 H6144 0.950 . S
C6142 C6141 1.387 . S
C6142 C6145 1.387 1_556 S
H6143 C6139 0.950 . S
H6144 C6141 0.950 . S
C6145 C6136 1.390 . S
C6145 H6138 0.950 . S
C6145 C6142 1.387 1_554 S
C6146 C6147 1.387 . S
C6146 H6150 0.950 . S
C6146 C6155 1.390 . S
C6147 C6146 1.387 . S
C6147 C6149 1.387 . S
H6148 C6155 0.950 . S
C6149 C6147 1.387 . S
C6149 C6151 1.390 . S
C6149 H6153 0.950 . S
H6150 C6146 0.950 . S
C6151 C6149 1.390 . S
C6151 C6152 1.387 . S
C6151 H6154 0.950 . S
C6152 C6151 1.387 . S
C6152 C6155 1.387 . S
H6153 C6149 0.950 . S
H6154 C6151 0.950 . S
C6155 C6146 1.390 . S
C6155 H6148 0.950 . S
C6155 C6152 1.387 . S
C6156 C6157 1.387 . S
C6156 H6160 0.950 . S
C6156 C6165 1.390 . S
C6157 C6156 1.387 . S
C6157 C6159 1.387 . S
H6158 C6165 0.950 . S
C6159 C6157 1.387 . S
C6159 C6161 1.390 . S
C6159 H6163 0.950 . S
H6160 C6156 0.950 . S
C6161 C6159 1.390 . S
C6161 C6162 1.387 . S
C6161 H6164 0.950 . S
C6162 C6161 1.387 . S
C6162 C6165 1.387 . S
H6163 C6159 0.950 . S
H6164 C6161 0.950 . S
C6165 C6156 1.390 . S
C6165 H6158 0.950 . S
C6165 C6162 1.387 . S
C6166 C6167 1.387 . S
C6166 H6170 0.950 . S
C6166 C6175 1.390 . S
C6167 C6166 1.387 . S
C6167 C6169 1.387 . S
H6168 C6175 0.950 . S
C6169 C6167 1.387 . S
C6169 C6171 1.390 . S
C6169 H6173 0.950 . S
H6170 C6166 0.950 . S
C6171 C6169 1.390 . S
C6171 C6172 1.387 . S
C6171 H6174 0.950 . S
C6172 C6171 1.387 . S
C6172 C6175 1.387 . S
H6173 C6169 0.950 . S
H6174 C6171 0.950 . S
C6175 C6166 1.390 . S
C6175 H6168 0.950 . S
C6175 C6172 1.387 . S
C6176 C6177 1.387 . S
C6176 H6180 0.950 . S
C6176 C6185 1.390 . S
C6177 C6176 1.387 . S
C6177 C6179 1.387 . S
H6178 C6185 0.950 . S
C6179 C6177 1.387 . S
C6179 C6181 1.390 . S
C6179 H6183 0.950 . S
H6180 C6176 0.950 . S
C6181 C6179 1.390 . S
C6181 C6182 1.387 . S
C6181 H6184 0.950 . S
C6182 C6181 1.387 . S
C6182 C6185 1.387 . S
H6183 C6179 0.950 . S
H6184 C6181 0.950 . S
C6185 C6176 1.390 . S
C6185 H6178 0.950 . S
C6185 C6182 1.387 . S
C6186 C6187 1.387 . S
C6186 H6190 0.950 . S
C6186 C6195 1.390 . S
C6187 C6186 1.387 . S
C6187 C6189 1.387 . S
H6188 C6195 0.950 . S
C6189 C6187 1.387 . S
C6189 C6191 1.390 . S
C6189 H6193 0.950 . S
H6190 C6186 0.950 . S
C6191 C6189 1.390 . S
C6191 C6192 1.387 . S
C6191 H6194 0.950 . S
C6192 C6191 1.387 . S
C6192 C6195 1.387 . S
H6193 C6189 0.950 . S
H6194 C6191 0.950 . S
C6195 C6186 1.390 . S
C6195 H6188 0.950 . S
C6195 C6192 1.387 . S
C6196 C6197 1.387 . S
C6196 H6200 0.950 . S
C6196 C6205 1.390 . S
C6197 C6196 1.387 . S
C6197 C6199 1.387 . S
H6198 C6205 0.950 . S
C6199 C6197 1.387 . S
C6199 C6201 1.390 . S
C6199 H6203 0.950 . S
H6200 C6196 0.950 . S
C6201 C6199 1.390 . S
C6201 C6202 1.387 . S
C6201 H6204 0.950 . S
C6202 C6201 1.387 . S
C6202 C6205 1.387 . S
H6203 C6199 0.950 . S
H6204 C6201 0.950 . S
C6205 C6196 1.390 . S
C6205 H6198 0.950 . S
C6205 C6202 1.387 . S
C6206 C6207 1.387 . S
C6206 H6210 0.950 . S
C6206 C6215 1.390 . S
C6207 C6206 1.387 . S
C6207 C6209 1.387 . S
H6208 C6215 0.950 . S
C6209 C6207 1.387 . S
C6209 C6211 1.390 . S
C6209 H6213 0.950 . S
H6210 C6206 0.950 . S
C6211 C6209 1.390 . S
C6211 C6212 1.387 . S
C6211 H6214 0.950 . S
C6212 C6211 1.387 . S
C6212 C6215 1.387 . S
H6213 C6209 0.950 . S
H6214 C6211 0.950 . S
C6215 C6206 1.390 . S
C6215 H6208 0.950 . S
C6215 C6212 1.387 . S
C6216 C6217 1.387 . S
C6216 H6220 0.950 . S
C6216 C6225 1.390 . S
C6217 C6216 1.387 . S
C6217 C6219 1.387 . S
H6218 C6225 0.950 . S
C6219 C6217 1.387 . S
C6219 C6221 1.390 . S
C6219 H6223 0.950 . S
H6220 C6216 0.950 . S
C6221 C6219 1.390 . S
C6221 C6222 1.387 . S
C6221 H6224 0.950 . S
C6222 C6221 1.387 . S
C6222 C6225 1.387 . S
H6223 C6219 0.950 . S
H6224 C6221 0.950 . S
C6225 C6216 1.390 . S
C6225 H6218 0.950 . S
C6225 C6222 1.387 . S
C6226 C6227 1.387 . S
C6226 H6230 0.950 . S
C6226 C6235 1.390 . S
C6227 C6226 1.387 . S
C6227 C6229 1.387 . S
H6228 C6235 0.950 . S
C6229 C6227 1.387 . S
C6229 C6231 1.390 . S
C6229 H6233 0.950 . S
H6230 C6226 0.950 . S
C6231 C6229 1.390 . S
C6231 C6232 1.387 . S
C6231 H6234 0.950 . S
C6232 C6231 1.387 . S
C6232 C6235 1.387 . S
H6233 C6229 0.950 . S
H6234 C6231 0.950 . S
C6235 C6226 1.390 . S
C6235 H6228 0.950 . S
C6235 C6232 1.387 . S
C6236 C6237 1.387 . S
C6236 H6240 0.950 . S
C6236 C6245 1.390 . S
C6237 C6236 1.387 . S
C6237 C6239 1.387 . S
H6238 C6245 0.950 . S
C6239 C6237 1.387 . S
C6239 C6241 1.390 . S
C6239 H6243 0.950 . S
H6240 C6236 0.950 . S
C6241 C6239 1.390 . S
C6241 C6242 1.387 . S
C6241 H6244 0.950 . S
C6242 C6241 1.387 . S
C6242 C6245 1.387 . S
H6243 C6239 0.950 . S
H6244 C6241 0.950 . S
C6245 C6236 1.390 . S
C6245 H6238 0.950 . S
C6245 C6242 1.387 . S
C6246 C6247 1.387 . S
C6246 H6250 0.950 . S
C6246 C6255 1.390 . S
C6247 C6246 1.387 . S
C6247 C6249 1.387 . S
H6248 C6255 0.950 . S
C6249 C6247 1.387 . S
C6249 C6251 1.390 . S
C6249 H6253 0.950 . S
H6250 C6246 0.950 . S
C6251 C6249 1.390 . S
C6251 C6252 1.387 . S
C6251 H6254 0.950 . S
C6252 C6251 1.387 . S
C6252 C6255 1.387 . S
H6253 C6249 0.950 . S
H6254 C6251 0.950 . S
C6255 C6246 1.390 . S
C6255 H6248 0.950 . S
C6255 C6252 1.387 . S
C6256 C6257 1.387 . S
C6256 H6260 0.950 . S
C6256 C6265 1.390 . S
C6257 C6256 1.387 . S
C6257 C6259 1.387 . S
H6258 C6265 0.950 . S
C6259 C6257 1.387 . S
C6259 C6261 1.390 . S
C6259 H6263 0.950 . S
H6260 C6256 0.950 . S
C6261 C6259 1.390 . S
C6261 C6262 1.387 . S
C6261 H6264 0.950 . S
C6262 C6261 1.387 . S
C6262 C6265 1.387 . S
H6263 C6259 0.950 . S
H6264 C6261 0.950 . S
C6265 C6256 1.390 . S
C6265 H6258 0.950 . S
C6265 C6262 1.387 . S
C6266 C6267 1.387 . S
C6266 H6270 0.950 . S
C6266 C6275 1.390 . S
C6267 C6266 1.387 . S
C6267 C6269 1.387 . S
H6268 C6275 0.950 . S
C6269 C6267 1.387 . S
C6269 C6271 1.390 . S
C6269 H6273 0.950 . S
H6270 C6266 0.950 . S
C6271 C6269 1.390 . S
C6271 C6272 1.387 . S
C6271 H6274 0.950 . S
C6272 C6271 1.387 . S
C6272 C6275 1.387 . S
H6273 C6269 0.950 . S
H6274 C6271 0.950 . S
C6275 C6266 1.390 . S
C6275 H6268 0.950 . S
C6275 C6272 1.387 . S
C6276 C6277 1.387 . S
C6276 H6280 0.950 . S
C6276 C6285 1.390 . S
C6277 C6276 1.387 . S
C6277 C6279 1.387 . S
H6278 C6285 0.950 . S
C6279 C6277 1.387 . S
C6279 C6281 1.390 . S
C6279 H6283 0.950 . S
H6280 C6276 0.950 . S
C6281 C6279 1.390 . S
C6281 C6282 1.387 . S
C6281 H6284 0.950 . S
C6282 C6281 1.387 . S
C6282 C6285 1.387 . S
H6283 C6279 0.950 . S
H6284 C6281 0.950 . S
C6285 C6276 1.390 . S
C6285 H6278 0.950 . S
C6285 C6282 1.387 . S
C6286 C6287 1.387 . S
C6286 H6290 0.950 . S
C6286 C6295 1.390 . S
C6287 C6286 1.387 . S
C6287 C6289 1.387 . S
H6288 C6295 0.950 . S
C6289 C6287 1.387 . S
C6289 C6291 1.390 . S
C6289 H6293 0.950 . S
H6290 C6286 0.950 . S
C6291 C6289 1.390 . S
C6291 C6292 1.387 . S
C6291 H6294 0.950 . S
C6292 C6291 1.387 . S
C6292 C6295 1.387 . S
H6293 C6289 0.950 . S
H6294 C6291 0.950 . S
C6295 C6286 1.390 . S
C6295 H6288 0.950 . S
C6295 C6292 1.387 . S
C6296 C6297 1.387 . S
C6296 H6300 0.950 . S
C6296 C6305 1.390 . S
C6297 C6296 1.387 . S
C6297 C6299 1.387 . S
H6298 C6305 0.950 . S
C6299 C6297 1.387 . S
C6299 C6301 1.390 . S
C6299 H6303 0.950 . S
H6300 C6296 0.950 . S
C6301 C6299 1.390 . S
C6301 C6302 1.387 . S
C6301 H6304 0.950 . S
C6302 C6301 1.387 . S
C6302 C6305 1.387 . S
H6303 C6299 0.950 . S
H6304 C6301 0.950 . S
C6305 C6296 1.390 . S
C6305 H6298 0.950 . S
C6305 C6302 1.387 . S
C6306 C6307 1.387 . S
C6306 H6310 0.950 . S
C6306 C6315 1.390 . S
C6307 C6306 1.387 . S
C6307 C6309 1.387 . S
H6308 C6315 0.950 . S
C6309 C6307 1.387 . S
C6309 C6311 1.390 . S
C6309 H6313 0.950 . S
H6310 C6306 0.950 . S
C6311 C6309 1.390 . S
C6311 C6312 1.387 . S
C6311 H6314 0.950 . S
C6312 C6311 1.387 . S
C6312 C6315 1.387 . S
H6313 C6309 0.950 . S
H6314 C6311 0.950 . S
C6315 C6306 1.390 . S
C6315 H6308 0.950 . S
C6315 C6312 1.387 . S
C6316 C6317 1.387 . S
C6316 H6320 0.950 . S
C6316 C6325 1.390 . S
C6317 C6316 1.387 . S
C6317 C6319 1.387 . S
H6318 C6325 0.950 . S
C6319 C6317 1.387 . S
C6319 C6321 1.390 . S
C6319 H6323 0.950 . S
H6320 C6316 0.950 . S
C6321 C6319 1.390 . S
C6321 C6322 1.387 . S
C6321 H6324 0.950 . S
C6322 C6321 1.387 . S
C6322 C6325 1.387 . S
H6323 C6319 0.950 . S
H6324 C6321 0.950 . S
C6325 C6316 1.390 . S
C6325 H6318 0.950 . S
C6325 C6322 1.387 . S
C6326 C6327 1.387 . S
C6326 H6330 0.950 . S
C6326 C6335 1.390 . S
C6327 C6326 1.387 . S
C6327 C6329 1.387 . S
H6328 C6335 0.950 . S
C6329 C6327 1.387 . S
C6329 C6331 1.390 . S
C6329 H6333 0.950 . S
H6330 C6326 0.950 . S
C6331 C6329 1.390 . S
C6331 C6332 1.387 . S
C6331 H6334 0.950 . S
C6332 C6331 1.387 . S
C6332 C6335 1.387 . S
H6333 C6329 0.950 . S
H6334 C6331 0.950 . S
C6335 C6326 1.390 . S
C6335 H6328 0.950 . S
C6335 C6332 1.387 . S
C2497 C1004 1.308 . S
C2502 C3 1.309 . S
C2507 C2267 1.309 . S
C2512 C18 1.308 . S
C2517 C1654 1.309 . S
C2522 C31 1.308 . S
C2527 C367 1.308 . S
C2532 C42 1.309 . S
C2537 C55 1.308 . S
C2542 C356 1.309 . S
C2547 C941 1.309 . S
C2552 C68 1.308 . S
C2557 C2200 1.309 . S
C2562 C83 1.308 . S
C2567 C1589 1.309 . S
C2572 C96 1.308 . S
C2577 C2486 1.308 . S
C2582 C107 1.309 . S
C2587 C1214 1.309 . S
C2592 C122 1.308 . S
C2597 C135 1.308 . S
C2602 C603 1.309 . S
C2607 C523 1.309 . S
C2612 C148 1.308 . S
C2617 C1201 1.309 . S
C2622 C161 1.308 . S
C2627 C172 1.308 . S
C2632 C1784 1.309 . S
C2637 C551 1.308 . S
C2642 C185 1.309 . S
C2647 C198 1.309 . S
C2652 C1188 1.308 . S
C2657 C460 1.308 . S
C2662 C211 1.309 . S
C2667 C224 1.308 . S
C2672 C1734 1.309 . S
C2677 C239 1.309 . S
C2682 C499 1.308 . S
C2687 C1136 1.309 . S
C2692 C252 1.308 . S
C2697 C265 1.309 . S
C2702 C1095 1.308 . S
C2707 C1058 1.309 . S
C2712 C276 1.308 . S
C2717 C289 1.309 . S
C2722 C447 1.308 . S
C2727 C2293 1.309 . S
C2732 C304 1.308 . S
C2737 C317 1.308 . S
C2742 C694 1.309 . S
C2747 C328 1.309 . S
C2752 C1955 1.308 . S
C2757 C1342 1.308 . S
C2762 C343 1.309 . S
C2767 C380 1.309 . S
C2772 C627 1.308 . S
C2777 C395 1.308 . S
C2782 C1890 1.309 . S
C2787 C1279 1.309 . S
C2792 C406 1.308 . S
C2797 C421 1.309 . S
C2802 C2176 1.308 . S
C2807 C902 1.308 . S
C2812 C434 1.309 . S
C2817 C887 1.308 . S
C2822 C471 1.309 . S
C2827 C484 1.308 . S
C2832 C1472 1.309 . S
C2837 C874 1.308 . S
C2842 C510 1.309 . S
C2847 C1420 1.309 . S
C2852 C536 1.308 . S
C2857 C822 1.309 . S
C2862 C562 1.308 . S
C2867 C577 1.308 . S
C2872 C785 1.309 . S
C2877 C590 1.308 . S
C2882 C746 1.309 . S
C2887 C1981 1.308 . S
C2892 C616 1.309 . S
C2897 C1641 1.309 . S
C2902 C642 1.308 . S
C2907 C2278 1.308 . S
C2912 C653 1.309 . S
C2917 C993 1.308 . S
C2922 C666 1.309 . S
C2927 C980 1.309 . S
C2932 C681 1.308 . S
C2937 C1578 1.309 . S
C2942 C705 1.308 . S
C2947 C2215 1.308 . S
C2952 C718 1.309 . S
C2957 C733 1.308 . S
C2962 C1862 1.309 . S
C2967 C1227 1.308 . S
C2972 C757 1.309 . S
C2977 C1147 1.309 . S
C2982 C772 1.308 . S
C2987 C796 1.308 . S
C2992 C2410 1.309 . S
C2997 C811 1.308 . S
C3002 C1175 1.309 . S
C3007 C1084 1.309 . S
C3012 C837 1.308 . S
C3017 C850 1.309 . S
C3022 C2356 1.308 . S
C3027 C861 1.309 . S
C3032 C1121 1.308 . S
C3037 C915 1.309 . S
C3042 C1069 1.308 . S
C3047 C1669 1.308 . S
C3052 C926 1.309 . S
C3057 C1331 1.308 . S
C3062 C952 1.309 . S
C3067 C967 1.309 . S
C3072 C1968 1.308 . S
C3077 C1017 1.308 . S
C3082 C1266 1.309 . S
C3087 C1030 1.309 . S
C3092 C1903 1.308 . S
C3097 C1550 1.308 . S
C3102 C1045 1.309 . S
C3107 C1108 1.309 . S
C3112 C2098 1.308 . S
C3117 C2046 1.309 . S
C3122 C1162 1.308 . S
C3127 C1357 1.308 . S
C3132 C1240 1.309 . S
C3137 C1251 1.309 . S
C3142 C2252 1.308 . S
C3147 C1615 1.308 . S
C3152 C1292 1.309 . S
C3157 C1604 1.308 . S
C3162 C1303 1.309 . S
C3167 C1316 1.308 . S
C3172 C2189 1.309 . S
C3177 C1370 1.308 . S
C3182 C2460 1.309 . S
C3187 C1383 1.309 . S
C3192 C1849 1.308 . S
C3197 C1771 1.308 . S
C3202 C1396 1.309 . S
C3207 C2447 1.309 . S
C3212 C1409 1.308 . S
C3217 C1799 1.309 . S
C3222 C1433 1.308 . S
C3227 C2434 1.308 . S
C3232 C1446 1.309 . S
C3237 C1706 1.308 . S
C3242 C1461 1.309 . S
C3247 C1485 1.309 . S
C3252 C1745 1.308 . S
C3257 C2384 1.308 . S
C3262 C1500 1.309 . S
C3267 C2343 1.309 . S
C3272 C1511 1.308 . S
C3277 C1524 1.309 . S
C3282 C2306 1.308 . S
C3287 C1539 1.309 . S
C3292 C1693 1.308 . S
C3297 C1563 1.308 . S
C3302 C1942 1.309 . S
C3307 C1875 1.308 . S
C3312 C1630 1.309 . S
C3317 C2148 1.308 . S
C3322 C1680 1.309 . S
C3327 C2135 1.309 . S
C3332 C1721 1.308 . S
C3337 C2124 1.308 . S
C3342 C1758 1.309 . S
C3347 C2070 1.309 . S
C3352 C1812 1.308 . S
C3357 C1823 1.309 . S
C3362 C2031 1.308 . S
C3367 C1992 1.308 . S
C3372 C1838 1.309 . S
C3377 C2239 1.308 . S
C3382 C1916 1.309 . S
C3387 C2228 1.308 . S
C3392 C1927 1.309 . S
C3397 C2005 1.309 . S
C3402 C2473 1.308 . S
C3407 C2018 1.308 . S
C3412 C2397 1.309 . S
C3417 C2421 1.308 . S
C3422 C2059 1.309 . S
C3427 C2085 1.309 . S
C3432 C2332 1.308 . S
C3437 C2369 1.308 . S
C3442 C2109 1.309 . S
C3447 C2319 1.308 . S
C3452 C2161 1.309 . S
C3457 C408 1.510 . S
C3462 C5 1.509 . S
C3467 C16 1.510 . S
C3472 C991 1.509 . S
C3477 C2254 1.510 . S
C3482 C29 1.509 . S
C3487 C1643 1.509 . S
C3492 C44 1.510 . S
C3497 C57 1.510 . S
C3502 C954 1.509 . S
C3507 C2213 1.510 . S
C3512 C70 1.509 . S
C3517 C81 1.509 . S
C3522 C1602 1.510 . S
C3527 C94 1.509 . S
C3532 C315 1.510 . S
C3537 C109 1.510 . S
C3542 C1199 1.509 . S
C3547 C120 1.509 . S
C3552 C1786 1.510 . S
C3557 C133 1.509 . S
C3562 C549 1.510 . S
C3567 C1186 1.510 . S
C3572 C146 1.509 . S
C3577 C159 1.510 . S
C3582 C2488 1.509 . S
C3587 C1212 1.509 . S
C3592 C174 1.510 . S
C3597 C187 1.510 . S
C3602 C601 1.509 . S
C3607 C525 1.509 . S
C3612 C200 1.510 . S
C3617 C213 1.510 . S
C3622 C512 1.509 . S
C3627 C226 1.509 . S
C3632 C1682 1.510 . S
C3637 C445 1.510 . S
C3642 C237 1.509 . S
C3647 C1082 1.509 . S
C3652 C250 1.510 . S
C3657 C263 1.510 . S
C3662 C1043 1.509 . S
C3667 C278 1.510 . S
C3672 C1110 1.509 . S
C3677 C291 1.510 . S
C3682 C497 1.509 . S
C3687 C2345 1.509 . S
C3692 C302 1.510 . S
C3697 C679 1.509 . S
C3702 C330 1.510 . S
C3707 C341 1.510 . S
C3712 C1940 1.509 . S
C3717 C1329 1.509 . S
C3722 C354 1.510 . S
C3727 C369 1.509 . S
C3732 C640 1.510 . S
C3737 C1901 1.510 . S
C3742 C382 1.509 . S
C3747 C393 1.510 . S
C3752 C1290 1.509 . S
C3757 C419 1.510 . S
C3762 C889 1.509 . S
C3767 C432 1.510 . S
C3772 C1474 1.509 . S
C3777 C458 1.509 . S
C3782 C876 1.510 . S
C3787 C2174 1.510 . S
C3792 C473 1.509 . S
C3797 C486 1.510 . S
C3802 C900 1.509 . S
C3807 C1368 1.509 . S
C3812 C538 1.510 . S
C3817 C770 1.509 . S
C3822 C564 1.510 . S
C3827 C575 1.510 . S
C3832 C731 1.509 . S
C3837 C798 1.509 . S
C3842 C588 1.510 . S
C3847 C614 1.510 . S
C3852 C2033 1.509 . S
C3857 C629 1.510 . S
C3862 C1032 1.509 . S
C3867 C655 1.509 . S
C3872 C1628 1.510 . S
C3877 C2265 1.510 . S
C3882 C668 1.509 . S
C3887 C692 1.510 . S
C3892 C1591 1.509 . S
C3897 C2226 1.509 . S
C3902 C707 1.510 . S
C3907 C720 1.509 . S
C3912 C939 1.510 . S
C3917 C2408 1.510 . S
C3922 C744 1.509 . S
C3927 C759 1.510 . S
C3932 C1173 1.509 . S
C3937 C1864 1.510 . S
C3942 C783 1.509 . S
C3947 C1225 1.510 . S
C3952 C809 1.509 . S
C3957 C824 1.510 . S
C3962 C1149 1.509 . S
C3967 C835 1.509 . S
C3972 C1134 1.510 . S
C3977 C2304 1.510 . S
C3982 C848 1.509 . S
C3987 C1071 1.510 . S
C3992 C863 1.509 . S
C3997 C1123 1.509 . S
C4002 C913 1.510 . S
C4007 C928 1.509 . S
C4012 C1719 1.510 . S
C4017 C965 1.509 . S
C4022 C1318 1.510 . S
C4027 C978 1.509 . S
C4032 C1953 1.510 . S
C4037 C1277 1.510 . S
C4042 C1006 1.509 . S
C4047 C1019 1.509 . S
C4052 C1914 1.510 . S
C4057 C2096 1.510 . S
C4062 C1056 1.509 . S
C4067 C1552 1.510 . S
C4072 C1097 1.509 . S
C4077 C1994 1.509 . S
C4082 C1160 1.510 . S
C4087 C1407 1.509 . S
C4092 C1238 1.510 . S
C4097 C1253 1.509 . S
C4102 C1656 1.510 . S
C4107 C1264 1.510 . S
C4112 C2241 1.509 . S
C4117 C2202 1.509 . S
C4122 C1305 1.510 . S
C4127 C1565 1.510 . S
C4132 C1344 1.509 . S
C4137 C1355 1.510 . S
C4142 C2449 1.509 . S
C4147 C1381 1.510 . S
C4152 C1797 1.509 . S
C4157 C2436 1.510 . S
C4162 C1394 1.509 . S
C4167 C2462 1.509 . S
C4172 C1422 1.510 . S
C4177 C1435 1.509 . S
C4182 C1851 1.510 . S
C4187 C1448 1.509 . S
C4192 C1773 1.510 . S
C4197 C1760 1.510 . S
C4202 C1459 1.509 . S
C4207 C1695 1.509 . S
C4212 C1487 1.510 . S
C4217 C1498 1.510 . S
C4222 C2330 1.509 . S
C4227 C1513 1.510 . S
C4232 C2291 1.509 . S
C4237 C2358 1.510 . S
C4242 C1526 1.509 . S
C4247 C1747 1.509 . S
C4252 C1537 1.510 . S
C4257 C1929 1.509 . S
C4262 C1576 1.510 . S
C4267 C1617 1.509 . S
C4272 C1888 1.510 . S
C4277 C1667 1.509 . S
C4282 C2137 1.510 . S
C4287 C1708 1.509 . S
C4292 C2122 1.510 . S
C4297 C1732 1.510 . S
C4302 C2150 1.509 . S
C4307 C1810 1.510 . S
C4312 C2020 1.509 . S
C4317 C1825 1.509 . S
C4322 C1979 1.510 . S
C4327 C1836 1.510 . S
C4332 C2044 1.509 . S
C4337 C2280 1.510 . S
C4342 C1877 1.509 . S
C4347 C2187 1.510 . S
C4352 C1966 1.509 . S
C4357 C2007 1.510 . S
C4362 C2423 1.509 . S
C4367 C2057 1.510 . S
C4372 C2475 1.509 . S
C4377 C2395 1.509 . S
C4382 C2072 1.510 . S
C4387 C2382 1.509 . S
C4392 C2083 1.510 . S
C4397 C2317 1.510 . S
C4402 C2111 1.509 . S
C4407 C2371 1.510 . S
C4412 C2163 1.509 . S
C4417 C2448 1.754 . S
C4422 C4 1.801 . S
C4427 C23 1.754 . S
C4432 C2415 1.754 . S
C4437 C36 1.754 . S
C4442 C1804 1.801 . S
C4447 C563 1.754 . S
C4452 C43 1.795 . S
C4457 C56 1.795 . S
C4462 C1245 1.754 . S
C4467 C595 1.795 . S
C4472 C69 1.754 . S
C4477 C1850 1.754 . S
C4482 C88 1.754 . S
C4487 C101 1.795 . S
C4492 C1148 1.754 . S
C4497 C108 1.795 . S
C4502 C2389 1.754 . S
C4507 C1726 1.754 . S
C4512 C127 1.795 . S
C4517 C140 1.754 . S
C4522 C485 1.754 . S
C4527 C153 1.754 . S
C4532 C1122 1.754 . S
C4537 C1681 1.754 . S
C4542 C166 1.754 . S
C4547 C173 1.754 . S
C4552 C452 1.754 . S
C4557 C1089 1.754 . S
C4562 C186 1.795 . S
C4567 C199 1.801 . S
C4572 C2298 1.754 . S
C4577 C212 1.795 . S
C4582 C1031 1.754 . S
C4587 C2201 1.754 . S
C4592 C225 1.754 . S
C4597 C1590 1.754 . S
C4602 C244 1.754 . S
C4607 C361 1.801 . S
C4612 C257 1.754 . S
C4617 C270 1.754 . S
C4622 C2194 1.754 . S
C4627 C277 1.795 . S
C4632 C381 1.754 . S
C4637 C290 1.754 . S
C4642 C1642 1.754 . S
C4647 C998 1.801 . S
C4652 C309 1.754 . S
C4657 C322 1.795 . S
C4662 C2136 1.754 . S
C4667 C329 1.754 . S
C4672 C2103 1.754 . S
C4677 C348 1.754 . S
C4682 C1486 1.801 . S
C4687 C368 1.801 . S
C4692 C927 1.754 . S
C4697 C1544 1.754 . S
C4702 C400 1.754 . S
C4707 C407 1.795 . S
C4712 C842 1.754 . S
C4717 C2071 1.754 . S
C4722 C426 1.801 . S
C4727 C1414 1.754 . S
C4732 C439 1.801 . S
C4737 C465 1.754 . S
C4742 C816 1.754 . S
C4747 C1375 1.754 . S
C4752 C472 1.754 . S
C4757 C504 1.795 . S
C4762 C777 1.754 . S
C4767 C1986 1.754 . S
C4772 C511 1.795 . S
C4777 C719 1.754 . S
C4782 C524 1.795 . S
C4787 C537 1.754 . S
C4792 C1895 1.754 . S
C4797 C1284 1.754 . S
C4802 C556 1.754 . S
C4807 C1876 1.754 . S
C4812 C582 1.754 . S
C4817 C1336 1.754 . S
C4822 C608 1.754 . S
C4827 C621 1.754 . S
C4832 C686 1.795 . S
C4837 C1824 1.801 . S
C4842 C628 1.795 . S
C4847 C1785 1.754 . S
C4852 C647 1.754 . S
C4857 C654 1.754 . S
C4862 C2422 1.754 . S
C4867 C667 1.754 . S
C4872 C1193 1.754 . S
C4877 C1219 1.754 . S
C4882 C699 1.754 . S
C4887 C706 1.754 . S
C4892 C2474 1.754 . S
C4897 C738 1.754 . S
C4902 C1759 1.754 . S
C4907 C751 1.795 . S
C4912 C2344 1.754 . S
C4917 C1109 1.754 . S
C4922 C758 1.754 . S
C4927 C790 1.754 . S
C4932 C2311 1.754 . S
C4937 C1070 1.754 . S
C4942 C797 1.754 . S
C4947 C1674 1.795 . S
C4952 C823 1.801 . S
C4957 C1583 1.754 . S
C4962 C855 1.754 . S
C4967 C2220 1.754 . S
C4972 C862 1.795 . S
C4977 C875 1.754 . S
C4982 C985 1.754 . S
C4987 C888 1.801 . S
C4992 C1564 1.754 . S
C4997 C907 1.754 . S
C5002 C1005 1.754 . S
C5007 C2272 1.754 . S
C5012 C920 1.754 . S
C5017 C946 1.801 . S
C5022 C1512 1.795 . S
C5027 C1473 1.754 . S
C5032 C953 1.754 . S
C5037 C972 1.754 . S
C5042 C2110 1.754 . S
C5047 C1018 1.754 . S
C5052 C2162 1.754 . S
C5057 C1447 1.754 . S
C5062 C1050 1.754 . S
C5067 C1063 1.795 . S
C5072 C2032 1.754 . S
C5077 C1096 1.754 . S
C5082 C1993 1.754 . S
C5087 C1141 1.801 . S
C5092 C1362 1.795 . S
C5097 C1271 1.754 . S
C5102 C1167 1.754 . S
C5107 C1908 1.754 . S
C5112 C1180 1.795 . S
C5117 C1206 1.795 . S
C5122 C1252 1.754 . S
C5127 C1232 1.754 . S
C5132 C1960 1.754 . S
C5137 C1817 1.754 . S
C5142 C1297 1.801 . S
C5147 C2487 1.754 . S
C5152 C1304 1.754 . S
C5157 C1843 1.754 . S
C5162 C1317 1.754 . S
C5167 C2402 1.795 . S
C5172 C1343 1.801 . S
C5177 C1739 1.754 . S
C5182 C1388 1.754 . S
C5187 C1401 1.754 . S
C5192 C2370 1.754 . S
C5197 C1694 1.754 . S
C5202 C1421 1.754 . S
C5207 C1434 1.801 . S
C5212 C2337 1.754 . S
C5217 C1466 1.754 . S
C5222 C2279 1.754 . S
C5227 C1505 1.754 . S
C5232 C1609 1.801 . S
C5237 C1525 1.754 . S
C5242 C1635 1.754 . S
C5247 C1551 1.754 . S
C5252 C2240 1.754 . S
C5257 C1616 1.754 . S
C5262 C2181 1.754 . S
C5267 C1655 1.801 . S
C5272 C2090 1.795 . S
C5277 C1707 1.754 . S
C5282 C2064 1.754 . S
C5287 C1746 1.801 . S
C5292 C2019 1.754 . S
C5297 C1973 1.754 . S
C5302 C1772 1.754 . S
C5307 C1928 1.754 . S
C5312 C1863 1.754 . S
C5317 C2435 1.754 . S
C5322 C1921 1.754 . S
C5327 C2461 1.801 . S
C5332 C1947 1.754 . S
C5337 C2357 1.754 . S
C5342 C2006 1.754 . S
C5347 C2051 1.754 . S
C5352 C2324 1.754 . S
C5357 C2129 1.754 . S
C5362 C2233 1.754 . S
C5367 C2253 1.754 . S
C5372 C2149 1.801 . S
C5377 C829 1.524 . S
C5382 C10 1.524 . S
C5387 C17 1.524 . S
C5392 C1408 1.525 . S
C5397 C803 1.524 . S
C5402 C30 1.525 . S
C5407 C1440 1.524 . S
C5412 C49 1.525 . S
C5417 C62 1.524 . S
C5422 C745 1.525 . S
C5427 C1382 1.525 . S
C5432 C75 1.526 . S
C5437 C771 1.524 . S
C5442 C82 1.524 . S
C5447 C95 1.525 . S
C5452 C1356 1.524 . S
C5457 C1349 1.524 . S
C5462 C114 1.525 . S
C5467 C680 1.524 . S
C5472 C121 1.524 . S
C5477 C134 1.525 . S
C5482 C1323 1.526 . S
C5487 C147 1.525 . S
C5492 C712 1.526 . S
C5497 C1265 1.526 . S
C5502 C160 1.525 . S
C5507 C660 1.524 . S
C5512 C179 1.524 . S
C5517 C1291 1.524 . S
C5522 C192 1.525 . S
C5527 C205 1.525 . S
C5532 C634 1.526 . S
C5537 C1518 1.525 . S
C5542 C218 1.524 . S
C5547 C1557 1.525 . S
C5552 C231 1.524 . S
C5557 C238 1.525 . S
C5562 C1531 1.524 . S
C5567 C1538 1.525 . S
C5572 C251 1.524 . S
C5577 C264 1.525 . S
C5582 C1460 1.526 . S
C5587 C1492 1.525 . S
C5592 C283 1.524 . S
C5597 C1499 1.525 . S
C5602 C296 1.524 . S
C5607 C303 1.525 . S
C5612 C1479 1.526 . S
C5617 C1135 1.525 . S
C5622 C316 1.524 . S
C5627 C335 1.526 . S
C5632 C1720 1.525 . S
C5637 C1115 1.525 . S
C5642 C342 1.524 . S
C5647 C355 1.526 . S
C5652 C1752 1.525 . S
C5657 C374 1.525 . S
C5662 C1057 1.524 . S
C5667 C1700 1.524 . S
C5672 C387 1.525 . S
C5677 C394 1.525 . S
C5682 C1083 1.526 . S
C5687 C413 1.524 . S
C5692 C1668 1.525 . S
C5697 C1661 1.525 . S
C5702 C420 1.524 . S
C5707 C992 1.526 . S
C5712 C433 1.526 . S
C5717 C446 1.525 . S
C5722 C1629 1.524 . S
C5727 C1024 1.526 . S
C5732 C459 1.526 . S
C5737 C478 1.524 . S
C5742 C1577 1.525 . S
C5747 C966 1.524 . S
C5752 C491 1.525 . S
C5757 C1603 1.524 . S
C5762 C498 1.525 . S
C5767 C517 1.526 . S
C5772 C940 1.525 . S
C5777 C1830 1.525 . S
C5782 C530 1.524 . S
C5787 C543 1.524 . S
C5792 C1869 1.525 . S
C5797 C1837 1.526 . S
C5802 C550 1.525 . S
C5807 C1856 1.525 . S
C5812 C569 1.526 . S
C5817 C1778 1.526 . S
C5822 C576 1.525 . S
C5827 C589 1.524 . S
C5832 C1798 1.525 . S
C5837 C602 1.524 . S
C5842 C1811 1.525 . S
C5847 C1791 1.526 . S
C5852 C615 1.525 . S
C5857 C2038 1.525 . S
C5862 C641 1.526 . S
C5867 C2058 1.526 . S
C5872 C673 1.525 . S
C5877 C693 1.524 . S
C5882 C2012 1.525 . S
C5887 C1980 1.525 . S
C5892 C725 1.524 . S
C5897 C732 1.525 . S
C5902 C1967 1.524 . S
C5907 C764 1.524 . S
C5912 C1941 1.524 . S
C5917 C1889 1.526 . S
C5922 C784 1.525 . S
C5927 C810 1.525 . S
C5932 C1915 1.524 . S
C5937 C836 1.524 . S
C5942 C2142 1.525 . S
C5947 C2175 1.525 . S
C5952 C849 1.525 . S
C5957 C868 1.525 . S
C5962 C2155 1.524 . S
C5967 C2168 1.525 . S
C5972 C881 1.524 . S
C5977 C2084 1.524 . S
C5982 C894 1.525 . S
C5987 C901 1.526 . S
C5992 C2116 1.525 . S
C5997 C914 1.524 . S
C6002 C2123 1.525 . S
C6007 C2097 1.526 . S
C6012 C933 1.525 . S
C6017 C2350 1.525 . S
C6022 C959 1.524 . S
C6027 C2376 1.525 . S
C6032 C979 1.524 . S
C6037 C2318 1.525 . S
C6042 C1011 1.524 . S
C6047 C2292 1.525 . S
C6052 C1037 1.526 . S
C6057 C1044 1.525 . S
C6062 C2285 1.524 . S
C6067 C2259 1.525 . S
C6072 C1076 1.524 . S
C6077 C2207 1.525 . S
C6082 C1102 1.524 . S
C6087 C2227 1.524 . S
C6092 C1128 1.525 . S
C6097 C1154 1.526 . S
C6102 C2454 1.525 . S
C6107 C2493 1.525 . S
C6112 C1161 1.524 . S
C6117 C1174 1.524 . S
C6122 C2467 1.525 . S
C6127 C2480 1.524 . S
C6132 C1187 1.525 . S
C6137 C1200 1.525 . S
C6142 C2396 1.526 . S
C6147 C1213 1.524 . S
C6152 C2428 1.524 . S
C6157 C2441 1.525 . S
C6162 C1226 1.524 . S
C6167 C2409 1.526 . S
C6172 C1239 1.525 . S
C6177 C2077 1.525 . S
C6182 C1258 1.524 . S
C6187 C1278 1.524 . S
C6192 C2045 1.524 . S
C6197 C1999 1.524 . S
C6202 C1310 1.524 . S
C6207 C1330 1.524 . S
C6212 C2025 1.524 . S
C6217 C1369 1.525 . S
C6222 C1934 1.524 . S
C6227 C1395 1.524 . S
C6232 C1954 1.524 . S
C6237 C1902 1.524 . S
C6242 C1427 1.524 . S
C6247 C1453 1.524 . S
C6252 C1882 1.525 . S
C6257 C2383 1.525 . S
C6262 C1570 1.524 . S
C6267 C2363 1.524 . S
C6272 C1596 1.524 . S
C6277 C2305 1.524 . S
C6282 C1622 1.524 . S
C6287 C2331 1.526 . S
C6292 C1648 1.525 . S
C6297 C2246 1.524 . S
C6302 C1687 1.524 . S
C6307 C1713 1.525 . S
C6312 C2266 1.526 . S
C6317 C1733 1.524 . S
C6322 C2214 1.524 . S
C6327 C2188 1.525 . S
C6332 C1765 1.526 . S
