# Generated by pormake.
# Topology sxe, (6)-cn, num edge types: 1
# Building blocks:
#     Node 0, Type 0, BuildingBlock: OJICUG_clean_sbu_0, # of connection points: 6
#     Node 1, Type 0, BuildingBlock: OJICUG_clean_sbu_0, # of connection points: 6
#     Node 2, Type 0, BuildingBlock: OJICUG_clean_sbu_0, # of connection points: 6
#     Node 3, Type 0, BuildingBlock: OJICUG_clean_sbu_0, # of connection points: 6
#     Node 4, Type 0, BuildingBlock: OJICUG_clean_sbu_0, # of connection points: 6
#     Node 5, Type 0, BuildingBlock: OJICUG_clean_sbu_0, # of connection points: 6
#     Node 6, Type 0, BuildingBlock: OJICUG_clean_sbu_0, # of connection points: 6
#     Node 7, Type 0, BuildingBlock: OJICUG_clean_sbu_0, # of connection points: 6
#     Node 8, Type 0, BuildingBlock: OJICUG_clean_sbu_0, # of connection points: 6
#     Node 9, Type 0, BuildingBlock: OJICUG_clean_sbu_0, # of connection points: 6
#     Node 10, Type 0, BuildingBlock: OJICUG_clean_sbu_0, # of connection points: 6
#     Node 11, Type 0, BuildingBlock: OJICUG_clean_sbu_0, # of connection points: 6
#     Node 12, Type 0, BuildingBlock: OJICUG_clean_sbu_0, # of connection points: 6
#     Node 13, Type 0, BuildingBlock: OJICUG_clean_sbu_0, # of connection points: 6
#     Node 14, Type 0, BuildingBlock: OJICUG_clean_sbu_0, # of connection points: 6
#     Node 15, Type 0, BuildingBlock: OJICUG_clean_sbu_0, # of connection points: 6
#     Node 16, Type 0, BuildingBlock: OJICUG_clean_sbu_0, # of connection points: 6
#     Node 17, Type 0, BuildingBlock: OJICUG_clean_sbu_0, # of connection points: 6
#     Node 18, Type 0, BuildingBlock: OJICUG_clean_sbu_0, # of connection points: 6
#     Node 19, Type 0, BuildingBlock: OJICUG_clean_sbu_0, # of connection points: 6
#     Node 20, Type 0, BuildingBlock: OJICUG_clean_sbu_0, # of connection points: 6
#     Node 21, Type 0, BuildingBlock: OJICUG_clean_sbu_0, # of connection points: 6
#     Node 22, Type 0, BuildingBlock: OJICUG_clean_sbu_0, # of connection points: 6
#     Node 23, Type 0, BuildingBlock: OJICUG_clean_sbu_0, # of connection points: 6
#     Edge 24, Type (0, 0), None
#     Edge 25, Type (0, 0), None
#     Edge 26, Type (0, 0), None
#     Edge 27, Type (0, 0), None
#     Edge 28, Type (0, 0), None
#     Edge 29, Type (0, 0), None
#     Edge 30, Type (0, 0), None
#     Edge 31, Type (0, 0), None
#     Edge 32, Type (0, 0), None
#     Edge 33, Type (0, 0), None
#     Edge 34, Type (0, 0), None
#     Edge 35, Type (0, 0), None
#     Edge 36, Type (0, 0), None
#     Edge 37, Type (0, 0), None
#     Edge 38, Type (0, 0), None
#     Edge 39, Type (0, 0), None
#     Edge 40, Type (0, 0), None
#     Edge 41, Type (0, 0), None
#     Edge 42, Type (0, 0), None
#     Edge 43, Type (0, 0), None
#     Edge 44, Type (0, 0), None
#     Edge 45, Type (0, 0), None
#     Edge 46, Type (0, 0), None
#     Edge 47, Type (0, 0), None
#     Edge 48, Type (0, 0), None
#     Edge 49, Type (0, 0), None
#     Edge 50, Type (0, 0), None
#     Edge 51, Type (0, 0), None
#     Edge 52, Type (0, 0), None
#     Edge 53, Type (0, 0), None
#     Edge 54, Type (0, 0), None
#     Edge 55, Type (0, 0), None
#     Edge 56, Type (0, 0), None
#     Edge 57, Type (0, 0), None
#     Edge 58, Type (0, 0), None
#     Edge 59, Type (0, 0), None
#     Edge 60, Type (0, 0), None
#     Edge 61, Type (0, 0), None
#     Edge 62, Type (0, 0), None
#     Edge 63, Type (0, 0), None
#     Edge 64, Type (0, 0), None
#     Edge 65, Type (0, 0), None
#     Edge 66, Type (0, 0), None
#     Edge 67, Type (0, 0), None
#     Edge 68, Type (0, 0), None
#     Edge 69, Type (0, 0), None
#     Edge 70, Type (0, 0), None
#     Edge 71, Type (0, 0), None
#     Edge 72, Type (0, 0), None
#     Edge 73, Type (0, 0), None
#     Edge 74, Type (0, 0), None
#     Edge 75, Type (0, 0), None
#     Edge 76, Type (0, 0), None
#     Edge 77, Type (0, 0), None
#     Edge 78, Type (0, 0), None
#     Edge 79, Type (0, 0), None
#     Edge 80, Type (0, 0), None
#     Edge 81, Type (0, 0), None
#     Edge 82, Type (0, 0), None
#     Edge 83, Type (0, 0), None
#     Edge 84, Type (0, 0), None
#     Edge 85, Type (0, 0), None
#     Edge 86, Type (0, 0), None
#     Edge 87, Type (0, 0), None
#     Edge 88, Type (0, 0), None
#     Edge 89, Type (0, 0), None
#     Edge 90, Type (0, 0), None
#     Edge 91, Type (0, 0), None
#     Edge 92, Type (0, 0), None
#     Edge 93, Type (0, 0), None
#     Edge 94, Type (0, 0), None
#     Edge 95, Type (0, 0), None
# Relax obj value: 0.419
# Max RMSD: 0.272
# Mean RMSD: 0.272
data_MOF--net-sxe--node1-OJICUG_clean_sbu_0--edge1-none
_symmetry_space_group_name_H-M    P1
_symmetry_Int_Tables_number       1
_symmetry_cell_setting            triclinic
loop_
_symmetry_equiv_pos_as_xyz
'x, y, z'
_cell_length_a     24.962004
_cell_length_b     24.96269
_cell_length_c     24.958928
_cell_angle_alpha  89.99729
_cell_angle_beta   89.996922
_cell_angle_gamma 89.957284
loop_
_atom_site_label
_atom_site_type_symbol
_atom_site_fract_x
_atom_site_fract_y
_atom_site_fract_z
_atom_type_partial_charge
Sc0 Sc 0.12203 0.31157 0.15694 0.0
Sc1 Sc 0.19528 0.42994 0.15721 0.0
Sc2 Sc 0.09392 0.4067 0.25355 0.0
O3 O 0.13715 0.38308 0.18955 0.0
C4 C 0.01061 0.31837 0.20843 0.0
C5 C 0.1498 0.36799 0.0526 0.0
C6 C 0.08678 0.50069 0.1667 0.0
C7 C 0.25005 0.32075 0.14849 0.0
C8 C 0.13699 0.29372 0.28387 0.0
C9 C 0.20053 0.47245 0.2788 0.0
O10 O 0.03685 0.30667 0.16685 0.0
O11 O 0.18228 0.3998 0.07586 0.0
O12 O 0.0645 0.47363 0.20465 0.0
O13 O 0.20421 0.3002 0.14252 0.0
O14 O 0.12632 0.34099 0.30024 0.0
O15 O 0.22266 0.46495 0.23341 0.0
O16 O 0.13325 0.27884 0.235 0.0
O17 O 0.25718 0.36916 0.16297 0.0
O18 O 0.15345 0.45677 0.28817 0.0
O19 O 0.11276 0.34402 0.07809 0.0
O20 O 0.02533 0.35583 0.2395 0.0
O21 O 0.13363 0.49052 0.14802 0.0
Sc22 Sc 0.30933 0.61971 0.65693 0.0
Sc23 Sc 0.23606 0.50135 0.6572 0.0
Sc24 Sc 0.33742 0.52455 0.75353 0.0
O25 O 0.29419 0.5482 0.68954 0.0
C26 C 0.42074 0.61289 0.70842 0.0
C27 C 0.28154 0.5633 0.55259 0.0
C28 C 0.34454 0.43058 0.66667 0.0
C29 C 0.18131 0.61055 0.64849 0.0
C30 C 0.29436 0.63754 0.78386 0.0
C31 C 0.23079 0.45884 0.77879 0.0
O32 O 0.39451 0.62459 0.66684 0.0
O33 O 0.24906 0.53149 0.57585 0.0
O34 O 0.36683 0.45763 0.70462 0.0
O35 O 0.22715 0.6311 0.64252 0.0
O36 O 0.30502 0.59026 0.80023 0.0
O37 O 0.20866 0.46634 0.7334 0.0
O38 O 0.29811 0.65242 0.73499 0.0
O39 O 0.17417 0.56214 0.66296 0.0
O40 O 0.27787 0.47449 0.78815 0.0
O41 O 0.31858 0.58727 0.57807 0.0
O42 O 0.40601 0.57543 0.73948 0.0
O43 O 0.29769 0.44075 0.64801 0.0
Sc44 Sc 0.62212 0.11965 0.7747 0.0
Sc45 Sc 0.69536 0.00117 0.77426 0.0
Sc46 Sc 0.59392 0.02463 0.67805 0.0
O47 O 0.63722 0.04815 0.742 0.0
C48 C 0.51061 0.11289 0.72337 0.0
C49 C 0.65003 0.06314 0.87893 0.0
C50 C 0.58682 0.93058 0.76483 0.0
C51 C 0.75016 0.11032 0.78297 0.0
C52 C 0.63693 0.13765 0.64778 0.0
C53 C 0.70047 0.95879 0.65261 0.0
O54 O 0.53694 0.12467 0.76485 0.0
O55 O 0.68253 0.03133 0.85563 0.0
O56 O 0.56457 0.95766 0.72686 0.0
O57 O 0.70431 0.13091 0.78906 0.0
O58 O 0.6262 0.0904 0.6314 0.0
O59 O 0.72261 -0.03387 0.69801 0.0
O60 O 0.63329 0.1525 0.69667 0.0
O61 O 0.75727 0.06191 0.76842 0.0
O62 O 0.65342 -0.02539 0.64326 0.0
O63 O 0.6129 0.08706 0.85348 0.0
O64 O 0.52531 0.07541 0.6923 0.0
O65 O 0.63366 0.94069 0.78353 0.0
Sc66 Sc 0.83742 0.90665 0.17802 0.0
Sc67 Sc 0.73597 0.93008 0.27425 0.0
Sc68 Sc 0.80923 0.81162 0.27467 0.0
O69 O 0.79412 0.88312 0.24198 0.0
C70 C 0.79443 0.79363 0.14775 0.0
C71 C 0.73086 -0.02752 0.1526 0.0
C72 C 0.68119 0.82093 0.28295 0.0
C73 C 0.84452 0.00068 0.26482 0.0
C74 C 0.92073 0.8184 0.22334 0.0
C75 C 0.78131 0.86812 0.37891 0.0
O76 O 0.80515 0.84088 0.13137 0.0
O77 O 0.70872 0.96513 0.198 0.0
O78 O 0.72704 0.80034 0.28902 0.0
O79 O 0.86676 -0.0264 0.22685 0.0
O80 O 0.89441 0.80662 0.26483 0.0
O81 O 0.74881 0.89993 0.35562 0.0
O82 O 0.90603 0.85586 0.19226 0.0
O83 O 0.79767 -0.00943 0.28351 0.0
O84 O 0.81843 0.84419 0.35346 0.0
O85 O 0.77792 0.95667 0.14325 0.0
O86 O 0.79808 0.77878 0.19664 0.0
O87 O 0.67407 0.86935 0.26842 0.0
Sc88 Sc 0.25341 0.09392 0.40673 0.0
Sc89 Sc 0.15708 0.19531 0.43019 0.0
Sc90 Sc 0.15678 0.12219 0.31168 0.0
O91 O 0.18942 0.13722 0.3832 0.0
C92 C 0.28369 0.13705 0.29374 0.0
C93 C 0.2787 0.20043 0.47261 0.0
C94 C 0.14836 0.2502 0.32108 0.0
C95 C 0.16659 0.08672 0.50075 0.0
C96 C 0.2082 0.01069 0.3184 0.0
C97 C 0.05247 0.14998 0.36818 0.0
O98 O 0.30007 0.12628 0.34099 0.0
O99 O 0.23328 0.22256 0.46526 0.0
O100 O 0.14236 0.20438 0.30048 0.0
O101 O 0.20459 0.0645 0.47367 0.0
O102 O 0.1667 0.03703 0.30662 0.0
O103 O 0.07572 0.18244 0.40002 0.0
O104 O 0.23925 0.02536 0.35588 0.0
O105 O 0.14786 0.13356 0.49065 0.0
O106 O 0.07797 0.11292 0.34419 0.0
O107 O 0.2881 0.1534 0.4568 0.0
O108 O 0.23481 0.13341 0.27888 0.0
O109 O 0.16286 0.25728 0.36951 0.0
Sc110 Sc 0.27456 0.80906 0.81168 0.0
Sc111 Sc 0.27427 0.73593 0.93019 0.0
Sc112 Sc 0.17793 0.83732 0.90674 0.0
O113 O 0.24193 0.79402 0.88321 0.0
C114 C 0.22316 0.92056 0.81842 0.0
C115 C 0.37887 0.78126 0.86818 0.0
C116 C 0.26476 0.84452 0.00074 0.0
C117 C 0.28298 0.68104 0.82108 0.0
C118 C 0.14764 0.79421 0.79375 0.0
C119 C 0.15265 0.7308 -0.02738 0.0
O120 O 0.26466 0.89422 0.80664 0.0
O121 O 0.35562 0.74879 0.90002 0.0
O122 O 0.22677 0.86673 -0.02633 0.0
O123 O 0.28898 0.72687 0.80047 0.0
O124 O 0.13127 0.80497 0.84101 0.0
O125 O 0.19807 0.70867 0.96526 0.0
O126 O 0.19653 0.79786 0.77889 0.0
O127 O 0.26849 0.67396 0.8695 0.0
O128 O 0.14326 0.77784 0.95681 0.0
O129 O 0.35337 0.81831 0.84418 0.0
O130 O 0.1921 0.90589 0.8559 0.0
O131 O 0.28349 0.79767 -0.00935 0.0
Sc132 Sc 0.75311 0.33735 0.52464 0.0
Sc133 Sc 0.65692 0.23596 0.50136 0.0
Sc134 Sc 0.6566 0.30917 0.61983 0.0
O135 O 0.68919 0.2941 0.54827 0.0
C136 C 0.78352 0.2942 0.63759 0.0
C137 C 0.77851 0.23075 0.4589 0.0
C138 C 0.64825 0.18116 0.61056 0.0
C139 C 0.66629 0.34447 0.43064 0.0
C140 C 0.70803 0.42064 0.61304 0.0
C141 C 0.5523 0.28134 0.56343 0.0
O142 O 0.79985 0.30499 0.59033 0.0
O143 O 0.73315 0.20861 0.46634 0.0
O144 O 0.64222 0.22699 0.63115 0.0
O145 O 0.70421 0.36674 0.45772 0.0
O146 O 0.66654 0.39435 0.62488 0.0
O147 O 0.57558 0.24891 0.53155 0.0
O148 O 0.73899 0.40596 0.57547 0.0
O149 O 0.64765 0.29762 0.44079 0.0
O150 O 0.57774 0.31842 0.5874 0.0
O151 O 0.78781 0.27783 0.47459 0.0
O152 O 0.73466 0.29789 0.65251 0.0
O153 O 0.66275 0.17405 0.56213 0.0
Sc154 Sc 0.67824 0.59391 0.02465 0.0
Sc155 Sc 0.77444 0.6953 0.00134 0.0
Sc156 Sc 0.77477 0.6221 0.11982 0.0
O157 O 0.74217 0.63717 0.04827 0.0
C158 C 0.64785 0.63707 0.1376 0.0
C159 C 0.65284 0.7005 0.95889 0.0
C160 C 0.78311 0.75012 0.11052 0.0
C161 C 0.76506 0.58678 0.93064 0.0
C162 C 0.72334 0.51063 0.11305 0.0
C163 C 0.87906 0.64993 0.06341 0.0
O164 O 0.63152 0.62627 0.09035 0.0
O165 O 0.6982 0.72264 -0.03369 0.0
O166 O 0.78916 0.70428 0.13111 0.0
O167 O 0.72713 0.56452 0.95772 0.0
O168 O 0.76482 0.53693 0.1249 0.0
O169 O 0.85578 0.68237 0.03153 0.0
O170 O 0.69238 0.5253 0.07547 0.0
O171 O 0.78371 0.63363 0.94078 0.0
O172 O 0.85362 0.61285 0.08738 0.0
O173 O 0.64353 0.65343 -0.02539 0.0
O174 O 0.69671 0.63339 0.15252 0.0
O175 O 0.7686 0.75722 0.0621 0.0
Sc176 Sc 0.31154 0.15665 0.12218 0.0
Sc177 Sc 0.43002 0.15711 0.19532 0.0
Sc178 Sc 0.40654 0.25326 0.09384 0.0
O179 O 0.38304 0.18933 0.13718 0.0
C180 C 0.31815 0.20804 0.01067 0.0
C181 C 0.36809 0.05244 0.15001 0.0
C182 C 0.50065 0.1665 0.08673 0.0
C183 C 0.32091 0.14837 0.25021 0.0
C184 C 0.29355 0.28353 0.13709 0.0
C185 C 0.47242 0.27876 0.20031 0.0
O186 O 0.30639 0.16656 0.03701 0.0
O187 O 0.39988 0.07574 0.18249 0.0
O188 O 0.47352 0.20442 0.06444 0.0
O189 O 0.30033 0.14223 0.20438 0.0
O190 O 0.34077 0.2999 0.12622 0.0
O191 O 0.46503 0.23339 0.22251 0.0
O192 O 0.2787 0.23466 0.13345 0.0
O193 O 0.36929 0.16297 0.25728 0.0
O194 O 0.45662 0.28807 0.15325 0.0
O195 O 0.34416 0.07788 0.11288 0.0
O196 O 0.35568 0.23904 0.02529 0.0
O197 O 0.49053 0.14784 0.13359 0.0
Sc198 Sc 0.90663 0.1779 0.83732 0.0
Sc199 Sc 0.92994 0.27408 0.73583 0.0
Sc200 Sc 0.8115 0.27448 0.80909 0.0
O201 O 0.88302 0.24183 0.79399 0.0
C202 C 0.79365 0.14756 0.79425 0.0
C203 C -0.02759 0.15248 0.73074 0.0
C204 C 0.82078 0.28282 0.68106 0.0
C205 C 0.00056 0.26474 0.84441 0.0
C206 C 0.81829 0.22313 0.92059 0.0
C207 C 0.86801 0.37874 0.78121 0.0
O208 O 0.84093 0.1312 0.80499 0.0
O209 O 0.96496 0.19784 0.70855 0.0
O210 O 0.80021 0.28884 0.72691 0.0
O211 O -0.0265 0.22681 0.86669 0.0
O212 O 0.80651 0.26464 0.89427 0.0
O213 O 0.89982 0.35544 0.74873 0.0
O214 O 0.85579 0.19208 0.9059 0.0
O215 O -0.00953 0.28334 0.79751 0.0
O216 O 0.844 0.35329 0.81827 0.0
O217 O 0.9567 0.14318 0.77783 0.0
O218 O 0.77875 0.19644 0.79792 0.0
O219 O 0.86919 0.2683 0.67392 0.0
Sc220 Sc 0.52472 0.75336 0.33732 0.0
Sc221 Sc 0.50142 0.65718 0.23584 0.0
Sc222 Sc 0.61985 0.65677 0.3091 0.0
O223 O 0.54833 0.68943 0.294 0.0
C224 C 0.6377 0.78369 0.29424 0.0
C225 C 0.45896 0.77878 0.23074 0.0
C226 C 0.61059 0.64844 0.18107 0.0
C227 C 0.43078 0.66652 0.34441 0.0
C228 C 0.61307 0.70813 0.42059 0.0
C229 C 0.56334 0.55252 0.28123 0.0
O230 O 0.59043 0.80006 0.30499 0.0
O231 O 0.46641 0.73343 0.20855 0.0
O232 O 0.63115 0.64241 0.22692 0.0
O233 O 0.45784 0.70445 0.3667 0.0
O234 O 0.62485 0.66662 0.39429 0.0
O235 O 0.53154 0.57583 0.24874 0.0
O236 O 0.57556 0.73918 0.40591 0.0
O237 O 0.44088 0.64793 0.29751 0.0
O238 O 0.58735 0.57796 0.31829 0.0
O239 O 0.47465 0.78808 0.27783 0.0
O240 O 0.6526 0.73482 0.29792 0.0
O241 O 0.56218 0.66297 0.17393 0.0
Sc242 Sc 0.1198 0.77465 0.62219 0.0
Sc243 Sc 0.00132 0.77417 0.69533 0.0
Sc244 Sc 0.02482 0.67803 0.59385 0.0
O245 O 0.04831 0.74196 0.63719 0.0
C246 C 0.1132 0.72327 0.51068 0.0
C247 C 0.06325 0.87885 0.65003 0.0
C248 C 0.9307 0.76479 0.58675 0.0
C249 C 0.11043 0.78292 0.75022 0.0
C250 C 0.13781 0.64778 0.63709 0.0
C251 C 0.95894 0.65252 0.70032 0.0
O252 O 0.12497 0.76474 0.53702 0.0
O253 O 0.03145 0.85555 0.68252 0.0
O254 O 0.95782 0.72687 0.56446 0.0
O255 O 0.131 0.78907 0.70439 0.0
O256 O 0.0906 0.6314 0.62622 0.0
O257 O -0.03369 0.69788 0.72252 0.0
O258 O 0.15266 0.69665 0.63346 0.0
O259 O 0.06205 0.7683 0.75729 0.0
O260 O -0.02526 0.64321 0.65326 0.0
O261 O 0.08716 0.85341 0.61289 0.0
O262 O 0.07566 0.69227 0.52529 0.0
O263 O 0.94081 0.78345 0.63361 0.0
Sc264 Sc 0.83744 0.52457 0.67788 0.0
Sc265 Sc 0.73607 0.50133 0.77421 0.0
Sc266 Sc 0.80933 0.6197 0.77449 0.0
O267 O 0.79421 0.5482 0.74188 0.0
C268 C 0.92076 0.61287 0.72303 0.0
C269 C 0.84457 0.4306 0.76474 0.0
C270 C 0.78156 0.56325 0.87882 0.0
C271 C 0.73081 0.45886 0.65261 0.0
C272 C 0.79436 0.63755 0.64755 0.0
C273 C 0.68131 0.61053 0.78292 0.0
O274 O 0.90603 0.57544 0.69194 0.0
O275 O 0.79771 0.44075 0.7834 0.0
O276 O 0.81858 0.58726 0.85334 0.0
O277 O 0.7779 0.47451 0.64324 0.0
O278 O 0.79811 0.65243 0.69643 0.0
O279 O 0.67418 0.56213 0.76844 0.0
O280 O 0.80504 0.59028 0.63119 0.0
O281 O 0.70869 0.46633 0.698 0.0
O282 O 0.72715 0.63108 0.7889 0.0
O283 O 0.86685 0.45763 0.72677 0.0
O284 O 0.8945 0.6246 0.76459 0.0
O285 O 0.74906 0.53147 0.85556 0.0
Sc286 Sc 0.62203 0.31155 0.27449 0.0
Sc287 Sc 0.69529 0.42992 0.27421 0.0
Sc288 Sc 0.59392 0.40671 0.17789 0.0
O289 O 0.63715 0.38307 0.24188 0.0
C290 C 0.637 0.29373 0.14754 0.0
C291 C 0.75005 0.32072 0.28293 0.0
C292 C 0.70056 0.47241 0.15262 0.0
C293 C 0.64979 0.368 0.37883 0.0
C294 C 0.51059 0.3184 0.22303 0.0
C295 C 0.58679 0.50067 0.26475 0.0
O296 O 0.63325 0.27884 0.19641 0.0
O297 O 0.75718 0.36913 0.26845 0.0
O298 O 0.65346 0.45677 0.14326 0.0
O299 O 0.61277 0.34397 0.35335 0.0
O300 O 0.52533 0.35584 0.19194 0.0
O301 O 0.63364 0.49051 0.2834 0.0
O302 O 0.53685 0.30665 0.26458 0.0
O303 O 0.68228 0.39979 0.35556 0.0
O304 O 0.56451 0.47363 0.22679 0.0
O305 O 0.7042 0.30017 0.28889 0.0
O306 O 0.62631 0.34101 0.13118 0.0
O307 O 0.72268 0.46493 0.19801 0.0
Sc308 Sc 0.30925 0.81161 0.15671 0.0
Sc309 Sc 0.23599 0.93007 0.15715 0.0
Sc310 Sc 0.33745 0.90664 0.25335 0.0
O311 O 0.29415 0.88311 0.1894 0.0
C312 C 0.29443 0.79363 0.28363 0.0
C313 C 0.18121 0.82091 0.14845 0.0
C314 C 0.23088 -0.02756 0.2788 0.0
C315 C 0.28134 0.86814 0.05248 0.0
C316 C 0.42077 0.81841 0.20801 0.0
C317 C 0.34454 0.00066 0.16655 0.0
O318 O 0.29809 0.77877 0.23474 0.0
O319 O 0.17409 0.86933 0.16299 0.0
O320 O 0.27794 0.95666 0.28814 0.0
O321 O 0.31845 0.84417 0.07791 0.0
O322 O 0.40606 0.85586 0.23909 0.0
O323 O 0.29768 -0.00943 0.14787 0.0
O324 O 0.39442 0.8066 0.16654 0.0
O325 O 0.24883 0.89993 0.07577 0.0
O326 O 0.36678 -0.0264 0.20453 0.0
O327 O 0.22705 0.80033 0.14236 0.0
O328 O 0.30517 0.84087 0.30001 0.0
O329 O 0.20874 0.96512 0.2334 0.0
Sc330 Sc 0.12213 0.11965 0.65672 0.0
Sc331 Sc 0.19537 0.00117 0.65716 0.0
Sc332 Sc 0.09392 0.02463 0.75338 0.0
O333 O 0.13722 0.04815 0.68942 0.0
C334 C 0.13694 0.13765 0.78364 0.0
C335 C 0.25017 0.11032 0.64845 0.0
C336 C 0.20048 0.95881 0.77882 0.0
C337 C 0.15003 0.0631 0.55249 0.0
C338 C 0.01061 0.11286 0.70802 0.0
C339 C 0.08681 0.93061 0.66658 0.0
O340 O 0.13329 0.1525 0.73475 0.0
O341 O 0.25728 0.06191 0.66299 0.0
O342 O 0.15342 -0.02538 0.78817 0.0
O343 O 0.11292 0.08708 0.57793 0.0
O344 O 0.02531 0.07541 0.73911 0.0
O345 O 0.13367 0.94069 0.6479 0.0
O346 O 0.03696 0.12468 0.66655 0.0
O347 O 0.18254 0.03131 0.57579 0.0
O348 O 0.06458 0.95767 0.70457 0.0
O349 O 0.20433 0.13091 0.64236 0.0
O350 O 0.12619 0.0904 0.80003 0.0
O351 O 0.22261 -0.03387 0.73341 0.0
Sc352 Sc 0.67794 0.83735 0.52468 0.0
Sc353 Sc 0.77428 0.73595 0.50122 0.0
Sc354 Sc 0.77458 0.80907 0.61974 0.0
O355 O 0.74194 0.79405 0.54821 0.0
C356 C 0.72319 0.92059 0.61298 0.0
C357 C 0.76478 0.84455 0.43068 0.0
C358 C 0.87888 0.7813 0.5632 0.0
C359 C 0.65265 0.73082 0.45883 0.0
C360 C 0.64766 0.79421 0.63767 0.0
C361 C 0.78299 0.68106 0.61034 0.0
O362 O 0.69212 0.90591 0.57552 0.0
O363 O 0.78349 0.79769 0.44076 0.0
O364 O 0.85339 0.81833 0.58724 0.0
O365 O 0.64326 0.77787 0.47462 0.0
O366 O 0.69654 0.79786 0.65252 0.0
O367 O 0.76849 0.67398 0.56192 0.0
O368 O 0.63128 0.805 0.59041 0.0
O369 O 0.69807 0.7087 0.46616 0.0
O370 O 0.78899 0.72688 0.63094 0.0
O371 O 0.72677 0.86676 0.45774 0.0
O372 O 0.76467 0.89424 0.62479 0.0
O373 O 0.85563 0.74882 0.53139 0.0
Sc374 Sc 0.7534 0.09393 0.02468 0.0
Sc375 Sc 0.65707 0.19533 0.00122 0.0
Sc376 Sc 0.65677 0.12221 0.11974 0.0
O377 O 0.68941 0.13723 0.04821 0.0
C378 C 0.70814 0.01069 0.11298 0.0
C379 C 0.66657 0.08672 0.93069 0.0
C380 C 0.55246 0.14998 0.06319 0.0
C381 C 0.7787 0.20045 0.95883 0.0
C382 C 0.78369 0.13706 0.13767 0.0
C383 C 0.64836 0.25022 0.11033 0.0
O384 O 0.73922 0.02536 0.07552 0.0
O385 O 0.64786 0.13358 0.94076 0.0
O386 O 0.57795 0.11296 0.08724 0.0
O387 O 0.7881 0.15341 -0.02538 0.0
O388 O 0.7348 0.13342 0.15253 0.0
O389 O 0.66286 0.2573 0.0619 0.0
O390 O 0.80006 0.12627 0.09042 0.0
O391 O 0.73328 0.22257 -0.03385 0.0
O392 O 0.64235 0.2044 0.13093 0.0
O393 O 0.70458 0.06452 0.95774 0.0
O394 O 0.66667 0.03705 0.1248 0.0
O395 O 0.57572 0.18247 0.03138 0.0
Sc396 Sc 0.27475 0.62211 0.31157 0.0
Sc397 Sc 0.27443 0.69531 0.43005 0.0
Sc398 Sc 0.17824 0.59392 0.40677 0.0
O399 O 0.24217 0.63717 0.38314 0.0
C400 C 0.14782 0.63707 0.29382 0.0
C401 C 0.28311 0.75012 0.32086 0.0
C402 C 0.15283 0.70052 0.47249 0.0
C403 C 0.37905 0.64991 0.36801 0.0
C404 C 0.22335 0.51062 0.31839 0.0
C405 C 0.26508 0.58679 0.50074 0.0
O406 O 0.19668 0.63339 0.2789 0.0
O407 O 0.26861 0.75723 0.36928 0.0
O408 O 0.14353 0.65344 0.45681 0.0
O409 O 0.35362 0.61286 0.34399 0.0
O410 O 0.19237 0.52531 0.35594 0.0
O411 O 0.2837 0.63364 0.49062 0.0
O412 O 0.26482 0.53693 0.30651 0.0
O413 O 0.35577 0.68237 0.39987 0.0
O414 O 0.22713 0.56452 0.47369 0.0
O415 O 0.28913 0.70428 0.30027 0.0
O416 O 0.13149 0.62627 0.34108 0.0
O417 O 0.1982 0.72266 0.46508 0.0
Sc418 Sc 0.25309 0.33738 0.90675 0.0
Sc419 Sc 0.1569 0.23598 0.93006 0.0
Sc420 Sc 0.15657 0.30917 0.81157 0.0
O421 O 0.18916 0.29412 0.88313 0.0
C422 C 0.20796 0.42067 0.81838 0.0
C423 C 0.16626 0.3445 0.00075 0.0
C424 C 0.05228 0.28136 0.86802 0.0
C425 C 0.27851 0.23078 -0.02752 0.0
C426 C 0.28349 0.29421 0.7938 0.0
C427 C 0.14824 0.18116 0.82087 0.0
O428 O 0.23894 0.40599 0.85593 0.0
O429 O 0.14763 0.29765 -0.00938 0.0
O430 O 0.07771 0.31843 0.84401 0.0
O431 O 0.28781 0.27786 0.95679 0.0
O432 O 0.23463 0.29789 0.77889 0.0
O433 O 0.16275 0.17406 0.86929 0.0
O434 O 0.29982 0.30502 0.84105 0.0
O435 O 0.23314 0.20864 0.96508 0.0
O436 O 0.14218 0.227 0.80028 0.0
O437 O 0.20421 0.36676 -0.02632 0.0
O438 O 0.1665 0.39435 0.8065 0.0
O439 O 0.07556 0.24891 0.89988 0.0
Sc440 Sc 0.61981 0.77464 0.80922 0.0
Sc441 Sc 0.50132 0.77416 0.73609 0.0
Sc442 Sc 0.52482 0.67802 0.83757 0.0
O443 O 0.54831 0.74195 0.79423 0.0
C444 C 0.63781 0.64776 0.79431 0.0
C445 C 0.61044 0.78291 0.68119 0.0
C446 C 0.45896 0.6525 0.73109 0.0
C447 C 0.56322 0.87884 0.78141 0.0
C448 C 0.61318 0.72328 0.92075 0.0
C449 C 0.43072 0.76479 0.84468 0.0
O450 O 0.65266 0.69663 0.79795 0.0
O451 O 0.56206 0.7683 0.67413 0.0
O452 O 0.47475 0.6432 0.77816 0.0
O453 O 0.58719 0.85341 0.81852 0.0
O454 O 0.57567 0.69226 0.90612 0.0
O455 O 0.44082 0.78344 0.79781 0.0
O456 O 0.62498 0.76473 0.89439 0.0
O457 O 0.53145 0.85554 0.74891 0.0
O458 O 0.45782 0.72685 0.86696 0.0
O459 O 0.63101 0.78906 0.72702 0.0
O460 O 0.59059 0.63139 0.8052 0.0
O461 O 0.46632 0.69788 0.7089 0.0
Sc462 Sc 0.02474 0.75335 0.09408 0.0
Sc463 Sc 0.0014 0.65718 0.19557 0.0
Sc464 Sc 0.11985 0.65675 0.12233 0.0
O465 O 0.04833 0.68942 0.13741 0.0
C466 C 0.11305 0.70807 0.0108 0.0
C467 C 0.93081 0.66651 0.08699 0.0
C468 C 0.06329 0.55251 0.15018 0.0
C469 C 0.95898 0.77879 0.20066 0.0
C470 C 0.13771 0.78368 0.13717 0.0
C471 C 0.11057 0.64843 0.25035 0.0
O472 O 0.07556 0.73914 0.02549 0.0
O473 O 0.94088 0.64792 0.13389 0.0
O474 O 0.08734 0.57794 0.11314 0.0
O475 O -0.02532 0.78809 0.15357 0.0
O476 O 0.15261 0.73479 0.13351 0.0
O477 O 0.06215 0.66297 0.25749 0.0
O478 O 0.09045 0.80004 0.1264 0.0
O479 O -0.03361 0.73343 0.22285 0.0
O480 O 0.13113 0.64239 0.20451 0.0
O481 O 0.95785 0.70446 0.06471 0.0
O482 O 0.12487 0.66659 0.03715 0.0
O483 O 0.03151 0.57582 0.18269 0.0
Sc484 Sc 0.40663 0.17791 0.59408 0.0
Sc485 Sc 0.42992 0.27409 0.69557 0.0
Sc486 Sc 0.31149 0.27449 0.62231 0.0
O487 O 0.38301 0.24184 0.6374 0.0
C488 C 0.31831 0.22316 0.5108 0.0
C489 C 0.50054 0.26477 0.58699 0.0
C490 C 0.36802 0.37875 0.65016 0.0
C491 C 0.47237 0.15249 0.70068 0.0
C492 C 0.29366 0.14756 0.63717 0.0
C493 C 0.32074 0.28283 0.75033 0.0
O494 O 0.35579 0.19209 0.52549 0.0
O495 O 0.49046 0.28334 0.6339 0.0
O496 O 0.34396 0.35332 0.61312 0.0
O497 O 0.4567 0.1432 0.65357 0.0
O498 O 0.27875 0.19644 0.63349 0.0
O499 O 0.36916 0.26831 0.75748 0.0
O500 O 0.34093 0.1312 0.62641 0.0
O501 O 0.46493 0.19784 0.72286 0.0
O502 O 0.30019 0.28884 0.70448 0.0
O503 O 0.4735 0.22682 0.5647 0.0
O504 O 0.30649 0.26465 0.53712 0.0
O505 O 0.39981 0.35544 0.68266 0.0
Sc506 Sc 0.81153 0.15661 0.30923 0.0
Sc507 Sc 0.93002 0.1571 0.23609 0.0
Sc508 Sc 0.90653 0.25323 0.33758 0.0
O509 O 0.88303 0.1893 0.29424 0.0
C510 C 0.79354 0.28349 0.29432 0.0
C511 C 0.8209 0.14835 0.1812 0.0
C512 C -0.02762 0.27875 0.2311 0.0
C513 C 0.86812 0.05241 0.28141 0.0
C514 C 0.81817 0.20796 0.42076 0.0
C515 C 0.00063 0.16645 0.34469 0.0
O516 O 0.77869 0.23462 0.29796 0.0
O517 O 0.86929 0.16296 0.17413 0.0
O518 O 0.9566 0.28805 0.27817 0.0
O519 O 0.84415 0.07784 0.31852 0.0
O520 O 0.85568 0.23898 0.40613 0.0
O521 O -0.00947 0.14781 0.29781 0.0
O522 O 0.80636 0.16651 0.3944 0.0
O523 O 0.89989 0.07572 0.24891 0.0
O524 O -0.02648 0.20439 0.36697 0.0
O525 O 0.80033 0.1422 0.22703 0.0
O526 O 0.84076 0.29986 0.30521 0.0
O527 O 0.96503 0.23338 0.20891 0.0
loop_
_geom_bond_atom_site_label_1
_geom_bond_atom_site_label_2
_geom_bond_distance
_geom_bond_site_symmetry_2
_ccdc_geom_bond_type
Sc0 O3 2.025 . S
Sc0 O10 2.105 . S
Sc0 O13 2.105 . S
Sc0 O16 2.105 . S
Sc0 O19 2.105 . S
Sc1 O3 2.025 . S
Sc1 O11 2.105 . S
Sc1 O15 2.105 . S
Sc1 O17 2.105 . S
Sc1 O21 2.105 . S
Sc2 O3 2.025 . S
Sc2 O12 2.105 . S
Sc2 O14 2.105 . S
Sc2 O18 2.105 . S
Sc2 O20 2.105 . S
O3 Sc0 2.025 . S
O3 Sc1 2.025 . S
O3 Sc2 2.025 . S
C4 O10 1.268 . S
C4 O20 1.268 . S
C5 O11 1.268 . S
C5 O19 1.268 . S
C6 O12 1.268 . S
C6 O21 1.268 . S
C7 O13 1.268 . S
C7 O17 1.268 . S
C8 O14 1.268 . S
C8 O16 1.268 . S
C9 O15 1.268 . S
C9 O18 1.268 . S
O10 Sc0 2.105 . S
O10 C4 1.268 . S
O11 Sc1 2.105 . S
O11 C5 1.268 . S
O12 Sc2 2.105 . S
O12 C6 1.268 . S
O13 Sc0 2.105 . S
O13 C7 1.268 . S
O14 Sc2 2.105 . S
O14 C8 1.268 . S
O15 Sc1 2.105 . S
O15 C9 1.268 . S
O16 Sc0 2.105 . S
O16 C8 1.268 . S
O17 Sc1 2.105 . S
O17 C7 1.268 . S
O18 Sc2 2.105 . S
O18 C9 1.268 . S
O19 Sc0 2.105 . S
O19 C5 1.268 . S
O20 Sc2 2.105 . S
O20 C4 1.268 . S
O21 Sc1 2.105 . S
O21 C6 1.268 . S
Sc22 O25 2.025 . S
Sc22 O32 2.105 . S
Sc22 O35 2.105 . S
Sc22 O38 2.105 . S
Sc22 O41 2.105 . S
Sc23 O25 2.025 . S
Sc23 O33 2.105 . S
Sc23 O37 2.105 . S
Sc23 O39 2.105 . S
Sc23 O43 2.105 . S
Sc24 O25 2.025 . S
Sc24 O34 2.105 . S
Sc24 O36 2.105 . S
Sc24 O40 2.105 . S
Sc24 O42 2.105 . S
O25 Sc22 2.025 . S
O25 Sc23 2.025 . S
O25 Sc24 2.025 . S
C26 O32 1.268 . S
C26 O42 1.268 . S
C27 O33 1.268 . S
C27 O41 1.268 . S
C28 O34 1.268 . S
C28 O43 1.268 . S
C29 O35 1.268 . S
C29 O39 1.268 . S
C30 O36 1.268 . S
C30 O38 1.268 . S
C31 O37 1.268 . S
C31 O40 1.268 . S
O32 Sc22 2.105 . S
O32 C26 1.268 . S
O33 Sc23 2.105 . S
O33 C27 1.268 . S
O34 Sc24 2.105 . S
O34 C28 1.268 . S
O35 Sc22 2.105 . S
O35 C29 1.268 . S
O36 Sc24 2.105 . S
O36 C30 1.268 . S
O37 Sc23 2.105 . S
O37 C31 1.268 . S
O38 Sc22 2.105 . S
O38 C30 1.268 . S
O39 Sc23 2.105 . S
O39 C29 1.268 . S
O40 Sc24 2.105 . S
O40 C31 1.268 . S
O41 Sc22 2.105 . S
O41 C27 1.268 . S
O42 Sc24 2.105 . S
O42 C26 1.268 . S
O43 Sc23 2.105 . S
O43 C28 1.268 . S
Sc44 O47 2.025 . S
Sc44 O54 2.105 . S
Sc44 O57 2.105 . S
Sc44 O60 2.105 . S
Sc44 O63 2.105 . S
Sc45 O47 2.025 . S
Sc45 O55 2.105 . S
Sc45 O59 2.105 1_545 S
Sc45 O61 2.105 . S
Sc45 O65 2.105 1_545 S
Sc46 O47 2.025 . S
Sc46 O56 2.105 1_545 S
Sc46 O58 2.105 . S
Sc46 O62 2.105 . S
Sc46 O64 2.105 . S
O47 Sc44 2.025 . S
O47 Sc45 2.025 . S
O47 Sc46 2.025 . S
C48 O54 1.268 . S
C48 O64 1.268 . S
C49 O55 1.268 . S
C49 O63 1.268 . S
C50 O56 1.268 . S
C50 O65 1.268 . S
C51 O57 1.268 . S
C51 O61 1.268 . S
C52 O58 1.268 . S
C52 O60 1.268 . S
C53 O59 1.268 . S
C53 O62 1.268 1_565 S
O54 Sc44 2.105 . S
O54 C48 1.268 . S
O55 Sc45 2.105 . S
O55 C49 1.268 . S
O56 Sc46 2.105 1_565 S
O56 C50 1.268 . S
O57 Sc44 2.105 . S
O57 C51 1.268 . S
O58 Sc46 2.105 . S
O58 C52 1.268 . S
O59 Sc45 2.105 1_565 S
O59 C53 1.268 . S
O60 Sc44 2.105 . S
O60 C52 1.268 . S
O61 Sc45 2.105 . S
O61 C51 1.268 . S
O62 Sc46 2.105 . S
O62 C53 1.268 1_545 S
O63 Sc44 2.105 . S
O63 C49 1.268 . S
O64 Sc46 2.105 . S
O64 C48 1.268 . S
O65 Sc45 2.105 1_565 S
O65 C50 1.268 . S
Sc66 O69 2.025 . S
Sc66 O76 2.105 . S
Sc66 O79 2.105 1_565 S
Sc66 O82 2.105 . S
Sc66 O85 2.105 . S
Sc67 O69 2.025 . S
Sc67 O77 2.105 1_565 S
Sc67 O81 2.105 . S
Sc67 O83 2.105 1_565 S
Sc67 O87 2.105 . S
Sc68 O69 2.025 . S
Sc68 O78 2.105 . S
Sc68 O80 2.105 . S
Sc68 O84 2.105 . S
Sc68 O86 2.105 . S
O69 Sc66 2.025 . S
O69 Sc67 2.025 . S
O69 Sc68 2.025 . S
C70 O76 1.268 . S
C70 O86 1.268 . S
C71 O77 1.268 . S
C71 O85 1.268 1_545 S
C72 O78 1.268 . S
C72 O87 1.268 . S
C73 O79 1.268 . S
C73 O83 1.268 . S
C74 O80 1.268 . S
C74 O82 1.268 . S
C75 O81 1.268 . S
C75 O84 1.268 . S
O76 Sc66 2.105 . S
O76 C70 1.268 . S
O77 Sc67 2.105 1_545 S
O77 C71 1.268 . S
O78 Sc68 2.105 . S
O78 C72 1.268 . S
O79 Sc66 2.105 1_545 S
O79 C73 1.268 . S
O80 Sc68 2.105 . S
O80 C74 1.268 . S
O81 Sc67 2.105 . S
O81 C75 1.268 . S
O82 Sc66 2.105 . S
O82 C74 1.268 . S
O83 Sc67 2.105 1_545 S
O83 C73 1.268 . S
O84 Sc68 2.105 . S
O84 C75 1.268 . S
O85 Sc66 2.105 . S
O85 C71 1.268 1_565 S
O86 Sc68 2.105 . S
O86 C70 1.268 . S
O87 Sc67 2.105 . S
O87 C72 1.268 . S
Sc88 O91 2.025 . S
Sc88 O98 2.105 . S
Sc88 O101 2.105 . S
Sc88 O104 2.105 . S
Sc88 O107 2.105 . S
Sc89 O91 2.025 . S
Sc89 O99 2.105 . S
Sc89 O103 2.105 . S
Sc89 O105 2.105 . S
Sc89 O109 2.105 . S
Sc90 O91 2.025 . S
Sc90 O100 2.105 . S
Sc90 O102 2.105 . S
Sc90 O106 2.105 . S
Sc90 O108 2.105 . S
O91 Sc88 2.025 . S
O91 Sc89 2.025 . S
O91 Sc90 2.025 . S
C92 O98 1.268 . S
C92 O108 1.268 . S
C93 O99 1.268 . S
C93 O107 1.268 . S
C94 O100 1.268 . S
C94 O109 1.268 . S
C95 O101 1.268 . S
C95 O105 1.268 . S
C96 O102 1.268 . S
C96 O104 1.268 . S
C97 O103 1.268 . S
C97 O106 1.268 . S
O98 Sc88 2.105 . S
O98 C92 1.268 . S
O99 Sc89 2.105 . S
O99 C93 1.268 . S
O100 Sc90 2.105 . S
O100 C94 1.268 . S
O101 Sc88 2.105 . S
O101 C95 1.268 . S
O102 Sc90 2.105 . S
O102 C96 1.268 . S
O103 Sc89 2.105 . S
O103 C97 1.268 . S
O104 Sc88 2.105 . S
O104 C96 1.268 . S
O105 Sc89 2.105 . S
O105 C95 1.268 . S
O106 Sc90 2.105 . S
O106 C97 1.268 . S
O107 Sc88 2.105 . S
O107 C93 1.268 . S
O108 Sc90 2.105 . S
O108 C92 1.268 . S
O109 Sc89 2.105 . S
O109 C94 1.268 . S
Sc110 O113 2.025 . S
Sc110 O120 2.105 . S
Sc110 O123 2.105 . S
Sc110 O126 2.105 . S
Sc110 O129 2.105 . S
Sc111 O113 2.025 . S
Sc111 O121 2.105 . S
Sc111 O125 2.105 1_556 S
Sc111 O127 2.105 . S
Sc111 O131 2.105 1_556 S
Sc112 O113 2.025 . S
Sc112 O122 2.105 1_556 S
Sc112 O124 2.105 . S
Sc112 O128 2.105 . S
Sc112 O130 2.105 . S
O113 Sc110 2.025 . S
O113 Sc111 2.025 . S
O113 Sc112 2.025 . S
C114 O120 1.268 . S
C114 O130 1.268 . S
C115 O121 1.268 . S
C115 O129 1.268 . S
C116 O122 1.268 . S
C116 O131 1.268 . S
C117 O123 1.268 . S
C117 O127 1.268 . S
C118 O124 1.268 . S
C118 O126 1.268 . S
C119 O125 1.268 . S
C119 O128 1.268 1_554 S
O120 Sc110 2.105 . S
O120 C114 1.268 . S
O121 Sc111 2.105 . S
O121 C115 1.268 . S
O122 Sc112 2.105 1_554 S
O122 C116 1.268 . S
O123 Sc110 2.105 . S
O123 C117 1.268 . S
O124 Sc112 2.105 . S
O124 C118 1.268 . S
O125 Sc111 2.105 1_554 S
O125 C119 1.268 . S
O126 Sc110 2.105 . S
O126 C118 1.268 . S
O127 Sc111 2.105 . S
O127 C117 1.268 . S
O128 Sc112 2.105 . S
O128 C119 1.268 1_556 S
O129 Sc110 2.105 . S
O129 C115 1.268 . S
O130 Sc112 2.105 . S
O130 C114 1.268 . S
O131 Sc111 2.105 1_554 S
O131 C116 1.268 . S
Sc132 O135 2.025 . S
Sc132 O142 2.105 . S
Sc132 O145 2.105 . S
Sc132 O148 2.105 . S
Sc132 O151 2.105 . S
Sc133 O135 2.025 . S
Sc133 O143 2.105 . S
Sc133 O147 2.105 . S
Sc133 O149 2.105 . S
Sc133 O153 2.105 . S
Sc134 O135 2.025 . S
Sc134 O144 2.105 . S
Sc134 O146 2.105 . S
Sc134 O150 2.105 . S
Sc134 O152 2.105 . S
O135 Sc132 2.025 . S
O135 Sc133 2.025 . S
O135 Sc134 2.025 . S
C136 O142 1.268 . S
C136 O152 1.268 . S
C137 O143 1.268 . S
C137 O151 1.268 . S
C138 O144 1.268 . S
C138 O153 1.268 . S
C139 O145 1.268 . S
C139 O149 1.268 . S
C140 O146 1.268 . S
C140 O148 1.268 . S
C141 O147 1.268 . S
C141 O150 1.268 . S
O142 Sc132 2.105 . S
O142 C136 1.268 . S
O143 Sc133 2.105 . S
O143 C137 1.268 . S
O144 Sc134 2.105 . S
O144 C138 1.268 . S
O145 Sc132 2.105 . S
O145 C139 1.268 . S
O146 Sc134 2.105 . S
O146 C140 1.268 . S
O147 Sc133 2.105 . S
O147 C141 1.268 . S
O148 Sc132 2.105 . S
O148 C140 1.268 . S
O149 Sc133 2.105 . S
O149 C139 1.268 . S
O150 Sc134 2.105 . S
O150 C141 1.268 . S
O151 Sc132 2.105 . S
O151 C137 1.268 . S
O152 Sc134 2.105 . S
O152 C136 1.268 . S
O153 Sc133 2.105 . S
O153 C138 1.268 . S
Sc154 O157 2.025 . S
Sc154 O164 2.105 . S
Sc154 O167 2.105 1_554 S
Sc154 O170 2.105 . S
Sc154 O173 2.105 . S
Sc155 O157 2.025 . S
Sc155 O165 2.105 1_554 S
Sc155 O169 2.105 . S
Sc155 O171 2.105 1_554 S
Sc155 O175 2.105 . S
Sc156 O157 2.025 . S
Sc156 O166 2.105 . S
Sc156 O168 2.105 . S
Sc156 O172 2.105 . S
Sc156 O174 2.105 . S
O157 Sc154 2.025 . S
O157 Sc155 2.025 . S
O157 Sc156 2.025 . S
C158 O164 1.268 . S
C158 O174 1.268 . S
C159 O165 1.268 . S
C159 O173 1.268 1_556 S
C160 O166 1.268 . S
C160 O175 1.268 . S
C161 O167 1.268 . S
C161 O171 1.268 . S
C162 O168 1.268 . S
C162 O170 1.268 . S
C163 O169 1.268 . S
C163 O172 1.268 . S
O164 Sc154 2.105 . S
O164 C158 1.268 . S
O165 Sc155 2.105 1_556 S
O165 C159 1.268 . S
O166 Sc156 2.105 . S
O166 C160 1.268 . S
O167 Sc154 2.105 1_556 S
O167 C161 1.268 . S
O168 Sc156 2.105 . S
O168 C162 1.268 . S
O169 Sc155 2.105 . S
O169 C163 1.268 . S
O170 Sc154 2.105 . S
O170 C162 1.268 . S
O171 Sc155 2.105 1_556 S
O171 C161 1.268 . S
O172 Sc156 2.105 . S
O172 C163 1.268 . S
O173 Sc154 2.105 . S
O173 C159 1.268 1_554 S
O174 Sc156 2.105 . S
O174 C158 1.268 . S
O175 Sc155 2.105 . S
O175 C160 1.268 . S
Sc176 O179 2.025 . S
Sc176 O186 2.105 . S
Sc176 O189 2.105 . S
Sc176 O192 2.105 . S
Sc176 O195 2.105 . S
Sc177 O179 2.025 . S
Sc177 O187 2.105 . S
Sc177 O191 2.105 . S
Sc177 O193 2.105 . S
Sc177 O197 2.105 . S
Sc178 O179 2.025 . S
Sc178 O188 2.105 . S
Sc178 O190 2.105 . S
Sc178 O194 2.105 . S
Sc178 O196 2.105 . S
O179 Sc176 2.025 . S
O179 Sc177 2.025 . S
O179 Sc178 2.025 . S
C180 O186 1.268 . S
C180 O196 1.268 . S
C181 O187 1.268 . S
C181 O195 1.268 . S
C182 O188 1.268 . S
C182 O197 1.268 . S
C183 O189 1.268 . S
C183 O193 1.268 . S
C184 O190 1.268 . S
C184 O192 1.268 . S
C185 O191 1.268 . S
C185 O194 1.268 . S
O186 Sc176 2.105 . S
O186 C180 1.268 . S
O187 Sc177 2.105 . S
O187 C181 1.268 . S
O188 Sc178 2.105 . S
O188 C182 1.268 . S
O189 Sc176 2.105 . S
O189 C183 1.268 . S
O190 Sc178 2.105 . S
O190 C184 1.268 . S
O191 Sc177 2.105 . S
O191 C185 1.268 . S
O192 Sc176 2.105 . S
O192 C184 1.268 . S
O193 Sc177 2.105 . S
O193 C183 1.268 . S
O194 Sc178 2.105 . S
O194 C185 1.268 . S
O195 Sc176 2.105 . S
O195 C181 1.268 . S
O196 Sc178 2.105 . S
O196 C180 1.268 . S
O197 Sc177 2.105 . S
O197 C182 1.268 . S
Sc198 O201 2.025 . S
Sc198 O208 2.105 . S
Sc198 O211 2.105 1_655 S
Sc198 O214 2.105 . S
Sc198 O217 2.105 . S
Sc199 O201 2.025 . S
Sc199 O209 2.105 1_655 S
Sc199 O213 2.105 . S
Sc199 O215 2.105 1_655 S
Sc199 O219 2.105 . S
Sc200 O201 2.025 . S
Sc200 O210 2.105 . S
Sc200 O212 2.105 . S
Sc200 O216 2.105 . S
Sc200 O218 2.105 . S
O201 Sc198 2.025 . S
O201 Sc199 2.025 . S
O201 Sc200 2.025 . S
C202 O208 1.268 . S
C202 O218 1.268 . S
C203 O209 1.268 . S
C203 O217 1.268 1_455 S
C204 O210 1.268 . S
C204 O219 1.268 . S
C205 O211 1.268 . S
C205 O215 1.268 . S
C206 O212 1.268 . S
C206 O214 1.268 . S
C207 O213 1.268 . S
C207 O216 1.268 . S
O208 Sc198 2.105 . S
O208 C202 1.268 . S
O209 Sc199 2.105 1_455 S
O209 C203 1.268 . S
O210 Sc200 2.105 . S
O210 C204 1.268 . S
O211 Sc198 2.105 1_455 S
O211 C205 1.268 . S
O212 Sc200 2.105 . S
O212 C206 1.268 . S
O213 Sc199 2.105 . S
O213 C207 1.268 . S
O214 Sc198 2.105 . S
O214 C206 1.268 . S
O215 Sc199 2.105 1_455 S
O215 C205 1.268 . S
O216 Sc200 2.105 . S
O216 C207 1.268 . S
O217 Sc198 2.105 . S
O217 C203 1.268 1_655 S
O218 Sc200 2.105 . S
O218 C202 1.268 . S
O219 Sc199 2.105 . S
O219 C204 1.268 . S
Sc220 O223 2.025 . S
Sc220 O230 2.105 . S
Sc220 O233 2.105 . S
Sc220 O236 2.105 . S
Sc220 O239 2.105 . S
Sc221 O223 2.025 . S
Sc221 O231 2.105 . S
Sc221 O235 2.105 . S
Sc221 O237 2.105 . S
Sc221 O241 2.105 . S
Sc222 O223 2.025 . S
Sc222 O232 2.105 . S
Sc222 O234 2.105 . S
Sc222 O238 2.105 . S
Sc222 O240 2.105 . S
O223 Sc220 2.025 . S
O223 Sc221 2.025 . S
O223 Sc222 2.025 . S
C224 O230 1.268 . S
C224 O240 1.268 . S
C225 O231 1.268 . S
C225 O239 1.268 . S
C226 O232 1.268 . S
C226 O241 1.268 . S
C227 O233 1.268 . S
C227 O237 1.268 . S
C228 O234 1.268 . S
C228 O236 1.268 . S
C229 O235 1.268 . S
C229 O238 1.268 . S
O230 Sc220 2.105 . S
O230 C224 1.268 . S
O231 Sc221 2.105 . S
O231 C225 1.268 . S
O232 Sc222 2.105 . S
O232 C226 1.268 . S
O233 Sc220 2.105 . S
O233 C227 1.268 . S
O234 Sc222 2.105 . S
O234 C228 1.268 . S
O235 Sc221 2.105 . S
O235 C229 1.268 . S
O236 Sc220 2.105 . S
O236 C228 1.268 . S
O237 Sc221 2.105 . S
O237 C227 1.268 . S
O238 Sc222 2.105 . S
O238 C229 1.268 . S
O239 Sc220 2.105 . S
O239 C225 1.268 . S
O240 Sc222 2.105 . S
O240 C224 1.268 . S
O241 Sc221 2.105 . S
O241 C226 1.268 . S
Sc242 O245 2.025 . S
Sc242 O252 2.105 . S
Sc242 O255 2.105 . S
Sc242 O258 2.105 . S
Sc242 O261 2.105 . S
Sc243 O245 2.025 . S
Sc243 O253 2.105 . S
Sc243 O257 2.105 1_455 S
Sc243 O259 2.105 . S
Sc243 O263 2.105 1_455 S
Sc244 O245 2.025 . S
Sc244 O254 2.105 1_455 S
Sc244 O256 2.105 . S
Sc244 O260 2.105 . S
Sc244 O262 2.105 . S
O245 Sc242 2.025 . S
O245 Sc243 2.025 . S
O245 Sc244 2.025 . S
C246 O252 1.268 . S
C246 O262 1.268 . S
C247 O253 1.268 . S
C247 O261 1.268 . S
C248 O254 1.268 . S
C248 O263 1.268 . S
C249 O255 1.268 . S
C249 O259 1.268 . S
C250 O256 1.268 . S
C250 O258 1.268 . S
C251 O257 1.268 . S
C251 O260 1.268 1_655 S
O252 Sc242 2.105 . S
O252 C246 1.268 . S
O253 Sc243 2.105 . S
O253 C247 1.268 . S
O254 Sc244 2.105 1_655 S
O254 C248 1.268 . S
O255 Sc242 2.105 . S
O255 C249 1.268 . S
O256 Sc244 2.105 . S
O256 C250 1.268 . S
O257 Sc243 2.105 1_655 S
O257 C251 1.268 . S
O258 Sc242 2.105 . S
O258 C250 1.268 . S
O259 Sc243 2.105 . S
O259 C249 1.268 . S
O260 Sc244 2.105 . S
O260 C251 1.268 1_455 S
O261 Sc242 2.105 . S
O261 C247 1.268 . S
O262 Sc244 2.105 . S
O262 C246 1.268 . S
O263 Sc243 2.105 1_655 S
O263 C248 1.268 . S
Sc264 O267 2.025 . S
Sc264 O274 2.105 . S
Sc264 O277 2.105 . S
Sc264 O280 2.105 . S
Sc264 O283 2.105 . S
Sc265 O267 2.025 . S
Sc265 O275 2.105 . S
Sc265 O279 2.105 . S
Sc265 O281 2.105 . S
Sc265 O285 2.105 . S
Sc266 O267 2.025 . S
Sc266 O276 2.105 . S
Sc266 O278 2.105 . S
Sc266 O282 2.105 . S
Sc266 O284 2.105 . S
O267 Sc264 2.025 . S
O267 Sc265 2.025 . S
O267 Sc266 2.025 . S
C268 O274 1.268 . S
C268 O284 1.268 . S
C269 O275 1.268 . S
C269 O283 1.268 . S
C270 O276 1.268 . S
C270 O285 1.268 . S
C271 O277 1.268 . S
C271 O281 1.268 . S
C272 O278 1.268 . S
C272 O280 1.268 . S
C273 O279 1.268 . S
C273 O282 1.268 . S
O274 Sc264 2.105 . S
O274 C268 1.268 . S
O275 Sc265 2.105 . S
O275 C269 1.268 . S
O276 Sc266 2.105 . S
O276 C270 1.268 . S
O277 Sc264 2.105 . S
O277 C271 1.268 . S
O278 Sc266 2.105 . S
O278 C272 1.268 . S
O279 Sc265 2.105 . S
O279 C273 1.268 . S
O280 Sc264 2.105 . S
O280 C272 1.268 . S
O281 Sc265 2.105 . S
O281 C271 1.268 . S
O282 Sc266 2.105 . S
O282 C273 1.268 . S
O283 Sc264 2.105 . S
O283 C269 1.268 . S
O284 Sc266 2.105 . S
O284 C268 1.268 . S
O285 Sc265 2.105 . S
O285 C270 1.268 . S
Sc286 O289 2.025 . S
Sc286 O296 2.105 . S
Sc286 O299 2.105 . S
Sc286 O302 2.105 . S
Sc286 O305 2.105 . S
Sc287 O289 2.025 . S
Sc287 O297 2.105 . S
Sc287 O301 2.105 . S
Sc287 O303 2.105 . S
Sc287 O307 2.105 . S
Sc288 O289 2.025 . S
Sc288 O298 2.105 . S
Sc288 O300 2.105 . S
Sc288 O304 2.105 . S
Sc288 O306 2.105 . S
O289 Sc286 2.025 . S
O289 Sc287 2.025 . S
O289 Sc288 2.025 . S
C290 O296 1.268 . S
C290 O306 1.268 . S
C291 O297 1.268 . S
C291 O305 1.268 . S
C292 O298 1.268 . S
C292 O307 1.268 . S
C293 O299 1.268 . S
C293 O303 1.268 . S
C294 O300 1.268 . S
C294 O302 1.268 . S
C295 O301 1.268 . S
C295 O304 1.268 . S
O296 Sc286 2.105 . S
O296 C290 1.268 . S
O297 Sc287 2.105 . S
O297 C291 1.268 . S
O298 Sc288 2.105 . S
O298 C292 1.268 . S
O299 Sc286 2.105 . S
O299 C293 1.268 . S
O300 Sc288 2.105 . S
O300 C294 1.268 . S
O301 Sc287 2.105 . S
O301 C295 1.268 . S
O302 Sc286 2.105 . S
O302 C294 1.268 . S
O303 Sc287 2.105 . S
O303 C293 1.268 . S
O304 Sc288 2.105 . S
O304 C295 1.268 . S
O305 Sc286 2.105 . S
O305 C291 1.268 . S
O306 Sc288 2.105 . S
O306 C290 1.268 . S
O307 Sc287 2.105 . S
O307 C292 1.268 . S
Sc308 O311 2.025 . S
Sc308 O318 2.105 . S
Sc308 O321 2.105 . S
Sc308 O324 2.105 . S
Sc308 O327 2.105 . S
Sc309 O311 2.025 . S
Sc309 O319 2.105 . S
Sc309 O323 2.105 1_565 S
Sc309 O325 2.105 . S
Sc309 O329 2.105 1_565 S
Sc310 O311 2.025 . S
Sc310 O320 2.105 . S
Sc310 O322 2.105 . S
Sc310 O326 2.105 1_565 S
Sc310 O328 2.105 . S
O311 Sc308 2.025 . S
O311 Sc309 2.025 . S
O311 Sc310 2.025 . S
C312 O318 1.268 . S
C312 O328 1.268 . S
C313 O319 1.268 . S
C313 O327 1.268 . S
C314 O320 1.268 1_545 S
C314 O329 1.268 . S
C315 O321 1.268 . S
C315 O325 1.268 . S
C316 O322 1.268 . S
C316 O324 1.268 . S
C317 O323 1.268 . S
C317 O326 1.268 . S
O318 Sc308 2.105 . S
O318 C312 1.268 . S
O319 Sc309 2.105 . S
O319 C313 1.268 . S
O320 Sc310 2.105 . S
O320 C314 1.268 1_565 S
O321 Sc308 2.105 . S
O321 C315 1.268 . S
O322 Sc310 2.105 . S
O322 C316 1.268 . S
O323 Sc309 2.105 1_545 S
O323 C317 1.268 . S
O324 Sc308 2.105 . S
O324 C316 1.268 . S
O325 Sc309 2.105 . S
O325 C315 1.268 . S
O326 Sc310 2.105 1_545 S
O326 C317 1.268 . S
O327 Sc308 2.105 . S
O327 C313 1.268 . S
O328 Sc310 2.105 . S
O328 C312 1.268 . S
O329 Sc309 2.105 1_545 S
O329 C314 1.268 . S
Sc330 O333 2.025 . S
Sc330 O340 2.105 . S
Sc330 O343 2.105 . S
Sc330 O346 2.105 . S
Sc330 O349 2.105 . S
Sc331 O333 2.025 . S
Sc331 O341 2.105 . S
Sc331 O345 2.105 1_545 S
Sc331 O347 2.105 . S
Sc331 O351 2.105 1_545 S
Sc332 O333 2.025 . S
Sc332 O342 2.105 . S
Sc332 O344 2.105 . S
Sc332 O348 2.105 1_545 S
Sc332 O350 2.105 . S
O333 Sc330 2.025 . S
O333 Sc331 2.025 . S
O333 Sc332 2.025 . S
C334 O340 1.268 . S
C334 O350 1.268 . S
C335 O341 1.268 . S
C335 O349 1.268 . S
C336 O342 1.268 1_565 S
C336 O351 1.268 . S
C337 O343 1.268 . S
C337 O347 1.268 . S
C338 O344 1.268 . S
C338 O346 1.268 . S
C339 O345 1.268 . S
C339 O348 1.268 . S
O340 Sc330 2.105 . S
O340 C334 1.268 . S
O341 Sc331 2.105 . S
O341 C335 1.268 . S
O342 Sc332 2.105 . S
O342 C336 1.268 1_545 S
O343 Sc330 2.105 . S
O343 C337 1.268 . S
O344 Sc332 2.105 . S
O344 C338 1.268 . S
O345 Sc331 2.105 1_565 S
O345 C339 1.268 . S
O346 Sc330 2.105 . S
O346 C338 1.268 . S
O347 Sc331 2.105 . S
O347 C337 1.268 . S
O348 Sc332 2.105 1_565 S
O348 C339 1.268 . S
O349 Sc330 2.105 . S
O349 C335 1.268 . S
O350 Sc332 2.105 . S
O350 C334 1.268 . S
O351 Sc331 2.105 1_565 S
O351 C336 1.268 . S
Sc352 O355 2.025 . S
Sc352 O362 2.105 . S
Sc352 O365 2.105 . S
Sc352 O368 2.105 . S
Sc352 O371 2.105 . S
Sc353 O355 2.025 . S
Sc353 O363 2.105 . S
Sc353 O367 2.105 . S
Sc353 O369 2.105 . S
Sc353 O373 2.105 . S
Sc354 O355 2.025 . S
Sc354 O364 2.105 . S
Sc354 O366 2.105 . S
Sc354 O370 2.105 . S
Sc354 O372 2.105 . S
O355 Sc352 2.025 . S
O355 Sc353 2.025 . S
O355 Sc354 2.025 . S
C356 O362 1.268 . S
C356 O372 1.268 . S
C357 O363 1.268 . S
C357 O371 1.268 . S
C358 O364 1.268 . S
C358 O373 1.268 . S
C359 O365 1.268 . S
C359 O369 1.268 . S
C360 O366 1.268 . S
C360 O368 1.268 . S
C361 O367 1.268 . S
C361 O370 1.268 . S
O362 Sc352 2.105 . S
O362 C356 1.268 . S
O363 Sc353 2.105 . S
O363 C357 1.268 . S
O364 Sc354 2.105 . S
O364 C358 1.268 . S
O365 Sc352 2.105 . S
O365 C359 1.268 . S
O366 Sc354 2.105 . S
O366 C360 1.268 . S
O367 Sc353 2.105 . S
O367 C361 1.268 . S
O368 Sc352 2.105 . S
O368 C360 1.268 . S
O369 Sc353 2.105 . S
O369 C359 1.268 . S
O370 Sc354 2.105 . S
O370 C361 1.268 . S
O371 Sc352 2.105 . S
O371 C357 1.268 . S
O372 Sc354 2.105 . S
O372 C356 1.268 . S
O373 Sc353 2.105 . S
O373 C358 1.268 . S
Sc374 O377 2.025 . S
Sc374 O384 2.105 . S
Sc374 O387 2.105 . S
Sc374 O390 2.105 . S
Sc374 O393 2.105 1_554 S
Sc375 O377 2.025 . S
Sc375 O385 2.105 1_554 S
Sc375 O389 2.105 . S
Sc375 O391 2.105 1_554 S
Sc375 O395 2.105 . S
Sc376 O377 2.025 . S
Sc376 O386 2.105 . S
Sc376 O388 2.105 . S
Sc376 O392 2.105 . S
Sc376 O394 2.105 . S
O377 Sc374 2.025 . S
O377 Sc375 2.025 . S
O377 Sc376 2.025 . S
C378 O384 1.268 . S
C378 O394 1.268 . S
C379 O385 1.268 . S
C379 O393 1.268 . S
C380 O386 1.268 . S
C380 O395 1.268 . S
C381 O387 1.268 1_556 S
C381 O391 1.268 . S
C382 O388 1.268 . S
C382 O390 1.268 . S
C383 O389 1.268 . S
C383 O392 1.268 . S
O384 Sc374 2.105 . S
O384 C378 1.268 . S
O385 Sc375 2.105 1_556 S
O385 C379 1.268 . S
O386 Sc376 2.105 . S
O386 C380 1.268 . S
O387 Sc374 2.105 . S
O387 C381 1.268 1_554 S
O388 Sc376 2.105 . S
O388 C382 1.268 . S
O389 Sc375 2.105 . S
O389 C383 1.268 . S
O390 Sc374 2.105 . S
O390 C382 1.268 . S
O391 Sc375 2.105 1_556 S
O391 C381 1.268 . S
O392 Sc376 2.105 . S
O392 C383 1.268 . S
O393 Sc374 2.105 1_556 S
O393 C379 1.268 . S
O394 Sc376 2.105 . S
O394 C378 1.268 . S
O395 Sc375 2.105 . S
O395 C380 1.268 . S
Sc396 O399 2.025 . S
Sc396 O406 2.105 . S
Sc396 O409 2.105 . S
Sc396 O412 2.105 . S
Sc396 O415 2.105 . S
Sc397 O399 2.025 . S
Sc397 O407 2.105 . S
Sc397 O411 2.105 . S
Sc397 O413 2.105 . S
Sc397 O417 2.105 . S
Sc398 O399 2.025 . S
Sc398 O408 2.105 . S
Sc398 O410 2.105 . S
Sc398 O414 2.105 . S
Sc398 O416 2.105 . S
O399 Sc396 2.025 . S
O399 Sc397 2.025 . S
O399 Sc398 2.025 . S
C400 O406 1.268 . S
C400 O416 1.268 . S
C401 O407 1.268 . S
C401 O415 1.268 . S
C402 O408 1.268 . S
C402 O417 1.268 . S
C403 O409 1.268 . S
C403 O413 1.268 . S
C404 O410 1.268 . S
C404 O412 1.268 . S
C405 O411 1.268 . S
C405 O414 1.268 . S
O406 Sc396 2.105 . S
O406 C400 1.268 . S
O407 Sc397 2.105 . S
O407 C401 1.268 . S
O408 Sc398 2.105 . S
O408 C402 1.268 . S
O409 Sc396 2.105 . S
O409 C403 1.268 . S
O410 Sc398 2.105 . S
O410 C404 1.268 . S
O411 Sc397 2.105 . S
O411 C405 1.268 . S
O412 Sc396 2.105 . S
O412 C404 1.268 . S
O413 Sc397 2.105 . S
O413 C403 1.268 . S
O414 Sc398 2.105 . S
O414 C405 1.268 . S
O415 Sc396 2.105 . S
O415 C401 1.268 . S
O416 Sc398 2.105 . S
O416 C400 1.268 . S
O417 Sc397 2.105 . S
O417 C402 1.268 . S
Sc418 O421 2.025 . S
Sc418 O428 2.105 . S
Sc418 O431 2.105 . S
Sc418 O434 2.105 . S
Sc418 O437 2.105 1_556 S
Sc419 O421 2.025 . S
Sc419 O429 2.105 1_556 S
Sc419 O433 2.105 . S
Sc419 O435 2.105 1_556 S
Sc419 O439 2.105 . S
Sc420 O421 2.025 . S
Sc420 O430 2.105 . S
Sc420 O432 2.105 . S
Sc420 O436 2.105 . S
Sc420 O438 2.105 . S
O421 Sc418 2.025 . S
O421 Sc419 2.025 . S
O421 Sc420 2.025 . S
C422 O428 1.268 . S
C422 O438 1.268 . S
C423 O429 1.268 . S
C423 O437 1.268 . S
C424 O430 1.268 . S
C424 O439 1.268 . S
C425 O431 1.268 1_554 S
C425 O435 1.268 . S
C426 O432 1.268 . S
C426 O434 1.268 . S
C427 O433 1.268 . S
C427 O436 1.268 . S
O428 Sc418 2.105 . S
O428 C422 1.268 . S
O429 Sc419 2.105 1_554 S
O429 C423 1.268 . S
O430 Sc420 2.105 . S
O430 C424 1.268 . S
O431 Sc418 2.105 . S
O431 C425 1.268 1_556 S
O432 Sc420 2.105 . S
O432 C426 1.268 . S
O433 Sc419 2.105 . S
O433 C427 1.268 . S
O434 Sc418 2.105 . S
O434 C426 1.268 . S
O435 Sc419 2.105 1_554 S
O435 C425 1.268 . S
O436 Sc420 2.105 . S
O436 C427 1.268 . S
O437 Sc418 2.105 1_554 S
O437 C423 1.268 . S
O438 Sc420 2.105 . S
O438 C422 1.268 . S
O439 Sc419 2.105 . S
O439 C424 1.268 . S
Sc440 O443 2.025 . S
Sc440 O450 2.105 . S
Sc440 O453 2.105 . S
Sc440 O456 2.105 . S
Sc440 O459 2.105 . S
Sc441 O443 2.025 . S
Sc441 O451 2.105 . S
Sc441 O455 2.105 . S
Sc441 O457 2.105 . S
Sc441 O461 2.105 . S
Sc442 O443 2.025 . S
Sc442 O452 2.105 . S
Sc442 O454 2.105 . S
Sc442 O458 2.105 . S
Sc442 O460 2.105 . S
O443 Sc440 2.025 . S
O443 Sc441 2.025 . S
O443 Sc442 2.025 . S
C444 O450 1.268 . S
C444 O460 1.268 . S
C445 O451 1.268 . S
C445 O459 1.268 . S
C446 O452 1.268 . S
C446 O461 1.268 . S
C447 O453 1.268 . S
C447 O457 1.268 . S
C448 O454 1.268 . S
C448 O456 1.268 . S
C449 O455 1.268 . S
C449 O458 1.268 . S
O450 Sc440 2.105 . S
O450 C444 1.268 . S
O451 Sc441 2.105 . S
O451 C445 1.268 . S
O452 Sc442 2.105 . S
O452 C446 1.268 . S
O453 Sc440 2.105 . S
O453 C447 1.268 . S
O454 Sc442 2.105 . S
O454 C448 1.268 . S
O455 Sc441 2.105 . S
O455 C449 1.268 . S
O456 Sc440 2.105 . S
O456 C448 1.268 . S
O457 Sc441 2.105 . S
O457 C447 1.268 . S
O458 Sc442 2.105 . S
O458 C449 1.268 . S
O459 Sc440 2.105 . S
O459 C445 1.268 . S
O460 Sc442 2.105 . S
O460 C444 1.268 . S
O461 Sc441 2.105 . S
O461 C446 1.268 . S
Sc462 O465 2.025 . S
Sc462 O472 2.105 . S
Sc462 O475 2.105 . S
Sc462 O478 2.105 . S
Sc462 O481 2.105 1_455 S
Sc463 O465 2.025 . S
Sc463 O473 2.105 1_455 S
Sc463 O477 2.105 . S
Sc463 O479 2.105 1_455 S
Sc463 O483 2.105 . S
Sc464 O465 2.025 . S
Sc464 O474 2.105 . S
Sc464 O476 2.105 . S
Sc464 O480 2.105 . S
Sc464 O482 2.105 . S
O465 Sc462 2.025 . S
O465 Sc463 2.025 . S
O465 Sc464 2.025 . S
C466 O472 1.268 . S
C466 O482 1.268 . S
C467 O473 1.268 . S
C467 O481 1.268 . S
C468 O474 1.268 . S
C468 O483 1.268 . S
C469 O475 1.268 1_655 S
C469 O479 1.268 . S
C470 O476 1.268 . S
C470 O478 1.268 . S
C471 O477 1.268 . S
C471 O480 1.268 . S
O472 Sc462 2.105 . S
O472 C466 1.268 . S
O473 Sc463 2.105 1_655 S
O473 C467 1.268 . S
O474 Sc464 2.105 . S
O474 C468 1.268 . S
O475 Sc462 2.105 . S
O475 C469 1.268 1_455 S
O476 Sc464 2.105 . S
O476 C470 1.268 . S
O477 Sc463 2.105 . S
O477 C471 1.268 . S
O478 Sc462 2.105 . S
O478 C470 1.268 . S
O479 Sc463 2.105 1_655 S
O479 C469 1.268 . S
O480 Sc464 2.105 . S
O480 C471 1.268 . S
O481 Sc462 2.105 1_655 S
O481 C467 1.268 . S
O482 Sc464 2.105 . S
O482 C466 1.268 . S
O483 Sc463 2.105 . S
O483 C468 1.268 . S
Sc484 O487 2.025 . S
Sc484 O494 2.105 . S
Sc484 O497 2.105 . S
Sc484 O500 2.105 . S
Sc484 O503 2.105 . S
Sc485 O487 2.025 . S
Sc485 O495 2.105 . S
Sc485 O499 2.105 . S
Sc485 O501 2.105 . S
Sc485 O505 2.105 . S
Sc486 O487 2.025 . S
Sc486 O496 2.105 . S
Sc486 O498 2.105 . S
Sc486 O502 2.105 . S
Sc486 O504 2.105 . S
O487 Sc484 2.025 . S
O487 Sc485 2.025 . S
O487 Sc486 2.025 . S
C488 O494 1.268 . S
C488 O504 1.268 . S
C489 O495 1.268 . S
C489 O503 1.268 . S
C490 O496 1.268 . S
C490 O505 1.268 . S
C491 O497 1.268 . S
C491 O501 1.268 . S
C492 O498 1.268 . S
C492 O500 1.268 . S
C493 O499 1.268 . S
C493 O502 1.268 . S
O494 Sc484 2.105 . S
O494 C488 1.268 . S
O495 Sc485 2.105 . S
O495 C489 1.268 . S
O496 Sc486 2.105 . S
O496 C490 1.268 . S
O497 Sc484 2.105 . S
O497 C491 1.268 . S
O498 Sc486 2.105 . S
O498 C492 1.268 . S
O499 Sc485 2.105 . S
O499 C493 1.268 . S
O500 Sc484 2.105 . S
O500 C492 1.268 . S
O501 Sc485 2.105 . S
O501 C491 1.268 . S
O502 Sc486 2.105 . S
O502 C493 1.268 . S
O503 Sc484 2.105 . S
O503 C489 1.268 . S
O504 Sc486 2.105 . S
O504 C488 1.268 . S
O505 Sc485 2.105 . S
O505 C490 1.268 . S
Sc506 O509 2.025 . S
Sc506 O516 2.105 . S
Sc506 O519 2.105 . S
Sc506 O522 2.105 . S
Sc506 O525 2.105 . S
Sc507 O509 2.025 . S
Sc507 O517 2.105 . S
Sc507 O521 2.105 1_655 S
Sc507 O523 2.105 . S
Sc507 O527 2.105 1_655 S
Sc508 O509 2.025 . S
Sc508 O518 2.105 . S
Sc508 O520 2.105 . S
Sc508 O524 2.105 1_655 S
Sc508 O526 2.105 . S
O509 Sc506 2.025 . S
O509 Sc507 2.025 . S
O509 Sc508 2.025 . S
C510 O516 1.268 . S
C510 O526 1.268 . S
C511 O517 1.268 . S
C511 O525 1.268 . S
C512 O518 1.268 1_455 S
C512 O527 1.268 . S
C513 O519 1.268 . S
C513 O523 1.268 . S
C514 O520 1.268 . S
C514 O522 1.268 . S
C515 O521 1.268 . S
C515 O524 1.268 . S
O516 Sc506 2.105 . S
O516 C510 1.268 . S
O517 Sc507 2.105 . S
O517 C511 1.268 . S
O518 Sc508 2.105 . S
O518 C512 1.268 1_655 S
O519 Sc506 2.105 . S
O519 C513 1.268 . S
O520 Sc508 2.105 . S
O520 C514 1.268 . S
O521 Sc507 2.105 1_455 S
O521 C515 1.268 . S
O522 Sc506 2.105 . S
O522 C514 1.268 . S
O523 Sc507 2.105 . S
O523 C513 1.268 . S
O524 Sc508 2.105 1_455 S
O524 C515 1.268 . S
O525 Sc506 2.105 . S
O525 C511 1.268 . S
O526 Sc508 2.105 . S
O526 C510 1.268 . S
O527 Sc507 2.105 1_455 S
O527 C512 1.268 . S
C9 C404 1.567 . S
C422 C31 1.567 . S
C356 C53 1.567 . S
C71 C378 1.567 . S
C488 C93 1.567 . S
C466 C119 1.567 . S
C514 C137 1.567 . S
C448 C159 1.567 . S
C185 C294 1.567 . S
C203 C338 1.567 . S
C225 C316 1.567 . S
C268 C251 1.567 . S
C140 C271 1.567 . S
C292 C162 1.567 . S
C96 C314 1.567 . S
C114 C336 1.567 . S
C359 C228 1.567 . S
C206 C381 1.567 . S
C246 C402 1.567 . S
C425 C180 1.567 . S
C446 C26 1.567 . S
C469 C74 1.567 . S
C491 C48 1.567 . S
C4 C512 1.567 . S
C423 C5 1.122 . S
C405 C27 1.122 . S
C379 C49 1.122 . S
C357 C75 1.122 . S
C97 C515 1.122 . S
C115 C449 1.122 . S
C489 C141 1.122 . S
C467 C163 1.122 . S
C317 C181 1.122 . S
C207 C269 1.122 . S
C295 C229 1.122 . S
C339 C247 1.122 . S
C270 C161 1.122 . S
C139 C293 1.122 . S
C315 C116 1.122 . S
C337 C95 1.122 . S
C248 C358 1.122 . S
C182 C380 1.122 . S
C403 C227 1.122 . S
C424 C205 1.122 . S
C50 C447 1.122 . S
C6 C468 1.122 . S
C490 C28 1.122 . S
C513 C73 1.122 . S
C8 C94 0.955 . S
C117 C30 0.955 . S
C138 C52 0.955 . S
C160 C70 0.955 . S
C183 C92 0.955 . S
C118 C249 0.955 . S
C136 C204 0.955 . S
C226 C158 0.955 . S
C184 C7 0.955 . S
C202 C51 0.955 . S
C72 C224 0.955 . S
C29 C250 0.955 . S
C272 C361 0.955 . S
C383 C290 0.955 . S
C401 C312 0.955 . S
C427 C334 0.955 . S
C360 C445 0.955 . S
C511 C382 0.955 . S
C400 C471 0.955 . S
C426 C493 0.955 . S
C273 C444 0.955 . S
C313 C470 0.955 . S
C335 C492 0.955 . S
C291 C510 0.955 . S
