# Generated by pormake.
# Topology vbm, (6)-cn, num edge types: 1
# Building blocks:
#     Node 0, Type 0, BuildingBlock: KUMBUR_clean_sbu_1, # of connection points: 6
#     Node 1, Type 0, BuildingBlock: KUMBUR_clean_sbu_1, # of connection points: 6
#     Node 2, Type 0, BuildingBlock: KUMBUR_clean_sbu_1, # of connection points: 6
#     Node 3, Type 0, BuildingBlock: KUMBUR_clean_sbu_1, # of connection points: 6
#     Node 4, Type 0, BuildingBlock: KUMBUR_clean_sbu_1, # of connection points: 6
#     Node 5, Type 0, BuildingBlock: KUMBUR_clean_sbu_1, # of connection points: 6
#     Node 6, Type 0, BuildingBlock: KUMBUR_clean_sbu_1, # of connection points: 6
#     Node 7, Type 0, BuildingBlock: KUMBUR_clean_sbu_1, # of connection points: 6
#     Node 8, Type 0, BuildingBlock: KUMBUR_clean_sbu_1, # of connection points: 6
#     Node 9, Type 0, BuildingBlock: KUMBUR_clean_sbu_1, # of connection points: 6
#     Node 10, Type 0, BuildingBlock: KUMBUR_clean_sbu_1, # of connection points: 6
#     Node 11, Type 0, BuildingBlock: KUMBUR_clean_sbu_1, # of connection points: 6
#     Node 12, Type 0, BuildingBlock: KUMBUR_clean_sbu_1, # of connection points: 6
#     Node 13, Type 0, BuildingBlock: KUMBUR_clean_sbu_1, # of connection points: 6
#     Node 14, Type 0, BuildingBlock: KUMBUR_clean_sbu_1, # of connection points: 6
#     Node 15, Type 0, BuildingBlock: KUMBUR_clean_sbu_1, # of connection points: 6
#     Edge 16, Type (0, 0), BuildingBlock: EZIPEK_clean_linker_0, # of connection points: 2
#     Edge 17, Type (0, 0), BuildingBlock: EZIPEK_clean_linker_0, # of connection points: 2
#     Edge 18, Type (0, 0), BuildingBlock: EZIPEK_clean_linker_0, # of connection points: 2
#     Edge 19, Type (0, 0), BuildingBlock: EZIPEK_clean_linker_0, # of connection points: 2
#     Edge 20, Type (0, 0), BuildingBlock: EZIPEK_clean_linker_0, # of connection points: 2
#     Edge 21, Type (0, 0), BuildingBlock: EZIPEK_clean_linker_0, # of connection points: 2
#     Edge 22, Type (0, 0), BuildingBlock: EZIPEK_clean_linker_0, # of connection points: 2
#     Edge 23, Type (0, 0), BuildingBlock: EZIPEK_clean_linker_0, # of connection points: 2
#     Edge 24, Type (0, 0), BuildingBlock: EZIPEK_clean_linker_0, # of connection points: 2
#     Edge 25, Type (0, 0), BuildingBlock: EZIPEK_clean_linker_0, # of connection points: 2
#     Edge 26, Type (0, 0), BuildingBlock: EZIPEK_clean_linker_0, # of connection points: 2
#     Edge 27, Type (0, 0), BuildingBlock: EZIPEK_clean_linker_0, # of connection points: 2
#     Edge 28, Type (0, 0), BuildingBlock: EZIPEK_clean_linker_0, # of connection points: 2
#     Edge 29, Type (0, 0), BuildingBlock: EZIPEK_clean_linker_0, # of connection points: 2
#     Edge 30, Type (0, 0), BuildingBlock: EZIPEK_clean_linker_0, # of connection points: 2
#     Edge 31, Type (0, 0), BuildingBlock: EZIPEK_clean_linker_0, # of connection points: 2
#     Edge 32, Type (0, 0), BuildingBlock: EZIPEK_clean_linker_0, # of connection points: 2
#     Edge 33, Type (0, 0), BuildingBlock: EZIPEK_clean_linker_0, # of connection points: 2
#     Edge 34, Type (0, 0), BuildingBlock: EZIPEK_clean_linker_0, # of connection points: 2
#     Edge 35, Type (0, 0), BuildingBlock: EZIPEK_clean_linker_0, # of connection points: 2
#     Edge 36, Type (0, 0), BuildingBlock: EZIPEK_clean_linker_0, # of connection points: 2
#     Edge 37, Type (0, 0), BuildingBlock: EZIPEK_clean_linker_0, # of connection points: 2
#     Edge 38, Type (0, 0), BuildingBlock: EZIPEK_clean_linker_0, # of connection points: 2
#     Edge 39, Type (0, 0), BuildingBlock: EZIPEK_clean_linker_0, # of connection points: 2
#     Edge 40, Type (0, 0), BuildingBlock: EZIPEK_clean_linker_0, # of connection points: 2
#     Edge 41, Type (0, 0), BuildingBlock: EZIPEK_clean_linker_0, # of connection points: 2
#     Edge 42, Type (0, 0), BuildingBlock: EZIPEK_clean_linker_0, # of connection points: 2
#     Edge 43, Type (0, 0), BuildingBlock: EZIPEK_clean_linker_0, # of connection points: 2
#     Edge 44, Type (0, 0), BuildingBlock: EZIPEK_clean_linker_0, # of connection points: 2
#     Edge 45, Type (0, 0), BuildingBlock: EZIPEK_clean_linker_0, # of connection points: 2
#     Edge 46, Type (0, 0), BuildingBlock: EZIPEK_clean_linker_0, # of connection points: 2
#     Edge 47, Type (0, 0), BuildingBlock: EZIPEK_clean_linker_0, # of connection points: 2
#     Edge 48, Type (0, 0), BuildingBlock: EZIPEK_clean_linker_0, # of connection points: 2
#     Edge 49, Type (0, 0), BuildingBlock: EZIPEK_clean_linker_0, # of connection points: 2
#     Edge 50, Type (0, 0), BuildingBlock: EZIPEK_clean_linker_0, # of connection points: 2
#     Edge 51, Type (0, 0), BuildingBlock: EZIPEK_clean_linker_0, # of connection points: 2
#     Edge 52, Type (0, 0), BuildingBlock: EZIPEK_clean_linker_0, # of connection points: 2
#     Edge 53, Type (0, 0), BuildingBlock: EZIPEK_clean_linker_0, # of connection points: 2
#     Edge 54, Type (0, 0), BuildingBlock: EZIPEK_clean_linker_0, # of connection points: 2
#     Edge 55, Type (0, 0), BuildingBlock: EZIPEK_clean_linker_0, # of connection points: 2
#     Edge 56, Type (0, 0), BuildingBlock: EZIPEK_clean_linker_0, # of connection points: 2
#     Edge 57, Type (0, 0), BuildingBlock: EZIPEK_clean_linker_0, # of connection points: 2
#     Edge 58, Type (0, 0), BuildingBlock: EZIPEK_clean_linker_0, # of connection points: 2
#     Edge 59, Type (0, 0), BuildingBlock: EZIPEK_clean_linker_0, # of connection points: 2
#     Edge 60, Type (0, 0), BuildingBlock: EZIPEK_clean_linker_0, # of connection points: 2
#     Edge 61, Type (0, 0), BuildingBlock: EZIPEK_clean_linker_0, # of connection points: 2
#     Edge 62, Type (0, 0), BuildingBlock: EZIPEK_clean_linker_0, # of connection points: 2
#     Edge 63, Type (0, 0), BuildingBlock: EZIPEK_clean_linker_0, # of connection points: 2
# Relax obj value: 0.076
# Max RMSD: 0.148
# Mean RMSD: 0.148
data_MOF--net-vbm--node1-KUMBUR_clean_sbu_1--edge1-EZIPEK_clean_linker_0
_symmetry_space_group_name_H-M    P1
_symmetry_Int_Tables_number       1
_symmetry_cell_setting            triclinic
loop_
_symmetry_equiv_pos_as_xyz
'x, y, z'
_cell_length_a     38.622056
_cell_length_b     20.577668
_cell_length_c     41.974354
_cell_angle_alpha  89.902235
_cell_angle_beta   89.949528
_cell_angle_gamma 90.144147
loop_
_atom_site_label
_atom_site_type_symbol
_atom_site_fract_x
_atom_site_fract_y
_atom_site_fract_z
_atom_type_partial_charge
Tb0 Tb 0.11184 0.22304 0.14549 0.0
C1 C 0.23608 0.08658 0.09668 0.0
N2 N 0.20383 0.08293 0.08383 0.0
C3 C 0.22567 0.12023 0.0336 0.0
C4 C 0.26419 0.11032 0.07864 0.0
C5 C 0.1985 0.09679 0.05245 0.0
C6 C 0.25875 0.1264 0.04662 0.0
C7 C 0.27135 0.08748 0.14434 0.0
C8 C 0.23953 0.07548 0.12921 0.0
C9 C 0.2992 0.11221 0.12661 0.0
C10 C 0.29583 0.12275 0.09378 0.0
Tb11 Tb 0.15995 0.06043 0.11847 0.0
N12 N 0.21089 0.05894 0.14645 0.0
C13 C 0.27371 0.07711 0.17715 0.0
C14 C 0.21397 0.04387 0.1781 0.0
C15 C 0.24533 0.05315 0.19388 0.0
H16 H 0.17324 0.09087 0.04197 0.0
H17 H 0.24747 0.0429 0.21908 0.0
H18 H 0.12086 0.26231 0.22134 0.0
H19 H 1.00354 0.25463 0.06538 0.0
H20 H 0.19271 0.02462 0.19168 0.0
H21 H 0.29715 0.08754 0.18987 0.0
H22 H 0.06483 0.23818 0.07961 0.0
H23 H 0.22101 0.13403 0.00908 0.0
H24 H 0.32328 0.12447 0.1382 0.0
H25 H 0.31748 0.14282 0.08055 0.0
H26 H 0.08342 0.29855 0.26572 0.0
H27 H 0.27959 0.14556 0.03206 0.0
H28 H 0.95986 0.27119 0.10778 0.0
N29 N 0.07906 0.25094 0.18877 0.0
C30 C 0.04459 0.25828 0.18375 0.0
C31 C 0.07215 0.28706 0.24281 0.0
C32 C 0.02221 0.27807 0.20842 0.0
C33 C 0.09323 0.26657 0.21764 0.0
C34 C 0.03644 0.29221 0.23826 0.0
N35 N 0.05575 0.24039 0.12965 0.0
C36 C 0.04598 0.24414 0.09832 0.0
C37 C 0.99729 0.26413 0.14602 0.0
C38 C 0.03246 0.25269 0.15301 0.0
C39 C 0.98667 0.26285 0.11415 0.0
C40 C 0.01125 0.25369 0.09017 0.0
H41 H 0.02023 0.30862 0.25771 0.0
H42 H 0.9691 0.30116 0.2207 0.0
H43 H 0.94712 0.28778 0.16603 0.0
O44 O 0.11423 0.30809 0.11705 0.0
O45 O 0.07619 0.14616 0.12916 0.0
O46 O 0.10535 0.04787 0.13346 0.0
O47 O 0.13094 0.30988 0.16549 0.0
O48 O 0.12841 0.21001 0.09479 0.0
O49 O 0.12556 0.10141 0.08259 0.0
O50 O 0.17234 0.9633 0.12972 0.0
O51 O 0.18446 0.1583 0.11512 0.0
O52 O 0.1658 0.20574 0.15983 0.0
O53 O 0.1522 0.98889 0.08333 0.0
O54 O 0.14222 0.05841 0.16761 0.0
O55 O 0.11637 0.15228 0.18678 0.0
C56 C 0.07656 0.0823 0.13152 0.0
C57 C 0.10724 0.40768 0.14515 0.0
C58 C 0.10635 0.52519 0.13714 0.0
C59 C 0.07818 0.53033 0.158 0.0
C60 C 0.07936 0.41414 0.16642 0.0
C61 C 0.06455 0.47475 0.17235 0.0
C62 C 0.12002 0.46374 0.12996 0.0
C63 C 0.12313 0.16261 0.07396 0.0
C64 C 0.12486 0.3445 0.1403 0.0
C65 C 0.9868 0.28666 0.202 0.0
C66 C 0.9743 0.2792 0.17086 0.0
C67 C 0.19038 0.19909 0.13859 0.0
C68 C 0.17354 0.8805 0.08995 0.0
C69 C 0.16845 0.76253 0.08925 0.0
C70 C 0.19319 0.76007 0.06479 0.0
C71 C 0.19843 0.87769 0.06572 0.0
C72 C 0.15875 0.82288 0.10178 0.0
C73 C 0.20816 0.81746 0.05317 0.0
C74 C 0.12646 0.0904 0.19046 0.0
C75 C 0.16081 0.94217 0.10263 0.0
H76 H 0.06727 0.57739 0.16362 0.0
H77 H 0.06931 0.37315 0.17907 0.0
H78 H 0.04305 0.47881 0.18878 0.0
H79 H 0.14095 0.46041 0.11307 0.0
H80 H 0.20088 0.7138 0.05479 0.0
H81 H 0.2101 0.92177 0.05651 0.0
H82 H 0.13933 0.82494 0.12046 0.0
H83 H 0.22723 0.81526 0.03431 0.0
Tb84 Tb 0.90056 0.82974 0.14952 0.0
C85 C 0.78011 0.98505 0.09571 0.0
N86 N 0.81287 0.97917 0.08453 0.0
C87 C 0.79121 0.93632 0.03534 0.0
C88 C 0.75165 0.96313 0.07779 0.0
C89 C 0.81847 0.96025 0.05381 0.0
C90 C 0.75756 0.93746 0.04744 0.0
C91 C 0.74216 1.0181 0.13838 0.0
C92 C 0.77559 1.01027 0.12596 0.0
C93 C 0.71389 0.99328 0.12135 0.0
C94 C 0.71856 0.9655 0.09121 0.0
Tb95 Tb 0.85571 0.99682 0.12111 0.0
N96 N 0.80397 0.02841 0.14281 0.0
C97 C 0.73827 0.05085 0.16735 0.0
C98 C 0.80023 0.06531 0.16972 0.0
C99 C 0.76739 0.07613 0.18265 0.0
H100 H 0.84377 0.9636 0.04336 0.0
H101 H 0.76459 0.10359 0.20448 0.0
H102 H 0.92438 0.85307 0.22733 0.0
H103 H 0.97545 0.72174 0.05486 0.0
H104 H 0.8225 0.08555 0.1817 0.0
H105 H 0.71299 0.05898 0.17753 0.0
H106 H 0.92198 0.7523 0.08308 0.0
H107 H 0.79615 0.91761 0.01169 0.0
H108 H 0.68843 0.99529 0.13128 0.0
H109 H 0.69655 0.94607 0.0784 0.0
H110 H 0.97792 0.88298 0.255 0.0
H111 H 0.73639 0.91924 0.03305 0.0
H112 H 0.03259 0.7443 0.07919 0.0
N113 N 0.94872 0.83985 0.18205 0.0
C114 C 0.97963 0.82855 0.16758 0.0
C115 C 0.97878 0.86897 0.23017 0.0
C116 C 0.01128 0.84125 0.18312 0.0
C117 C 0.94823 0.85337 0.21404 0.0
C118 C 0.01038 0.8654 0.21419 0.0
N119 N 0.94839 0.79314 0.12283 0.0
C120 C 0.94665 0.76271 0.09397 0.0
C121 C 0.01073 0.78621 0.12196 0.0
C122 C 0.97946 0.80213 0.13735 0.0
C123 C 0.00917 0.7574 0.09182 0.0
C124 C 0.97696 0.74483 0.07797 0.0
H125 H 0.03401 0.87817 0.22659 0.0
H126 H 0.06721 0.83816 0.1789 0.0
H127 H 0.06674 0.78906 0.12539 0.0
O128 O 0.88241 0.73639 0.13666 0.0
O129 O 0.93395 0.89655 0.12401 0.0
O130 O 0.91164 0.99626 0.1365 0.0
O131 O 0.90256 0.75497 0.18347 0.0
O132 O 0.88191 0.83869 0.09879 0.0
O133 O 0.88661 0.94723 0.08603 0.0
O134 O 0.86783 0.09284 0.13338 0.0
O135 O 0.82542 0.90342 0.11963 0.0
O136 O 0.8458 0.84605 0.16185 0.0
O137 O 0.85743 0.06849 0.08486 0.0
O138 O 0.85442 0.9861 0.17257 0.0
O139 O 0.89307 0.90525 0.18709 0.0
C140 C 0.93851 0.95794 0.13031 0.0
C141 C 0.91303 0.6507 0.16194 0.0
C142 C 0.91555 0.534 0.15167 0.0
C143 C 0.95027 0.53345 0.16142 0.0
C144 C 0.94786 0.64931 0.17163 0.0
C145 C 0.96634 0.59097 0.17122 0.0
C146 C 0.89725 0.59298 0.15175 0.0
C147 C 0.88648 0.88597 0.07736 0.0
C148 C 0.89223 0.71082 0.16355 0.0
C149 C 0.04265 0.82821 0.16741 0.0
C150 C 0.04238 0.8001 0.137 0.0
C151 C 0.82097 0.85697 0.14112 0.0
C152 C 0.84732 0.17796 0.10161 0.0
C153 C 0.84897 0.29541 0.10988 0.0
C154 C 0.81645 0.30064 0.09523 0.0
C155 C 0.81465 0.18382 0.08732 0.0
C156 C 0.86422 0.23387 0.11316 0.0
C157 C 0.79936 0.24504 0.08418 0.0
C158 C 0.87498 0.95853 0.19328 0.0
C159 C 0.86487 0.11488 0.10469 0.0
H160 H 0.96484 0.48853 0.16146 0.0
H161 H 0.96071 0.69293 0.17985 0.0
H162 H 0.99312 0.59024 0.17877 0.0
H163 H 0.87073 0.59437 0.14415 0.0
H164 H 0.80434 0.34773 0.09243 0.0
H165 H 0.80108 0.14133 0.07854 0.0
H166 H 0.88945 0.22972 0.12433 0.0
H167 H 0.77422 0.24947 0.07301 0.0
Tb168 Tb 0.11533 0.82216 0.35774 0.0
C169 C 0.23844 0.97934 0.38197 0.0
N170 N 0.21293 0.98845 0.40361 0.0
C171 C 0.25418 0.97785 0.44585 0.0
C172 C 0.27184 0.96059 0.39127 0.0
C173 C 0.22063 0.99202 0.43523 0.0
C174 C 0.2794 0.95864 0.42387 0.0
C175 C 0.25537 0.97826 0.32679 0.0
C176 C 0.22998 0.98565 0.35036 0.0
C177 C 0.28751 0.95239 0.33535 0.0
C178 C 0.2958 0.943 0.36759 0.0
Tb179 Tb 0.15773 0.9894 0.38398 0.0
N180 N 0.19717 1.0028 0.34299 0.0
C181 C 0.24748 0.99718 0.29561 0.0
C182 C 0.19131 0.03213 0.31422 0.0
C183 C 0.21579 0.0275 0.28968 0.0
H184 H 0.20046 1.00151 0.45243 0.0
H185 H 0.21015 0.04739 0.26639 0.0
H186 H 0.11458 0.80709 0.27855 0.0
H187 H 0.01115 0.82378 0.44439 0.0
H188 H 0.16788 0.05914 0.30994 0.0
H189 H 0.26633 0.99245 0.27664 0.0
H190 H 0.06935 0.84965 0.42458 0.0
H191 H 0.26003 0.97822 0.47104 0.0
H192 H 0.30563 0.93918 0.3171 0.0
H193 H 0.32055 0.92224 0.37378 0.0
H194 H 0.0729 0.77264 0.23759 0.0
H195 H 0.30451 0.94322 0.43234 0.0
H196 H 0.96763 0.77896 0.40742 0.0
N197 N 0.07804 0.8021 0.31661 0.0
C198 C 0.04494 0.78806 0.32519 0.0
C199 C 0.06461 0.77741 0.26211 0.0
C200 C 0.02027 0.7681 0.30248 0.0
C201 C 0.08803 0.79799 0.28539 0.0
C202 C 0.03063 0.76202 0.27071 0.0
N203 N 0.06025 0.81405 0.37788 0.0
C204 C 0.05138 0.82642 0.40884 0.0
C205 C 1.00189 0.77963 0.36692 0.0
C206 C 0.03593 0.7928 0.35698 0.0
C207 C 0.99334 0.78903 0.39891 0.0
C208 C 0.01796 0.81378 0.41987 0.0
H209 H 0.01266 0.74524 0.25269 0.0
H210 H 0.96712 0.73784 0.29526 0.0
H211 H 0.95143 0.74712 0.35216 0.0
O212 O 0.12084 0.73308 0.38262 0.0
O213 O 0.07699 0.90013 0.36052 0.0
O214 O 0.10017 0.98625 0.38914 0.0
O215 O 0.12621 0.73751 0.33186 0.0
O216 O 0.13058 0.82869 0.40935 0.0
O217 O 0.14059 0.93527 0.42637 0.0
O218 O 0.15608 0.0886 0.37208 0.0
O219 O 0.18788 0.89544 0.38898 0.0
O220 O 0.16931 0.84231 0.34536 0.0
O221 O 0.15481 0.05874 0.42099 0.0
O222 O 0.12884 0.98807 0.33905 0.0
O223 O 0.13407 0.88549 0.31844 0.0
C224 C 0.07359 0.95542 0.3758 0.0
C225 C 0.105 0.63849 0.35299 0.0
C226 C 0.103 0.52156 0.36229 0.0
C227 C 0.07534 0.51594 0.34089 0.0
C228 C 0.07817 0.63158 0.33064 0.0
C229 C 0.06274 0.57107 0.32539 0.0
C230 C 0.11638 0.58328 0.36941 0.0
C231 C 0.13564 0.87269 0.43221 0.0
C232 C 0.1247 0.69983 0.35653 0.0
C233 C 0.98642 0.75331 0.31236 0.0
C234 C 0.97738 0.75873 0.34458 0.0
C235 C 0.19305 0.84996 0.36717 0.0
C236 C 0.17097 0.16879 0.40975 0.0
C237 C 0.16964 0.28707 0.40768 0.0
C238 C 0.19919 0.28943 0.42704 0.0
C239 C 0.20057 0.1715 0.42903 0.0
C240 C 0.1558 0.22671 0.39897 0.0
C241 C 0.21464 0.23178 0.43753 0.0
C242 C 0.12834 0.9484 0.31455 0.0
C243 C 0.15381 0.10746 0.40138 0.0
H244 H 0.06457 0.46869 0.33524 0.0
H245 H 0.06992 0.67185 0.3163 0.0
H246 H 0.04206 0.56645 0.30816 0.0
H247 H 0.13679 0.58782 0.38657 0.0
H248 H 0.21023 0.33575 0.43392 0.0
H249 H 0.21261 0.12751 0.43768 0.0
H250 H 0.1329 0.22497 0.38406 0.0
H251 H 0.23745 0.23383 0.45245 0.0
Tb252 Tb 0.9022 0.21355 0.36531 0.0
C253 C 0.77117 0.09515 0.40272 0.0
N254 N 0.80155 0.09026 0.41877 0.0
C255 C 0.77447 0.13086 0.46615 0.0
C256 C 0.74183 0.12249 0.41732 0.0
C257 C 0.80333 0.10558 0.45038 0.0
C258 C 0.74347 0.13883 0.44963 0.0
C259 C 0.74126 0.09131 0.35214 0.0
C260 C 0.77103 0.07991 0.3705 0.0
C261 C 0.71283 0.12212 0.36619 0.0
C262 C 0.7129 0.13722 0.39866 0.0
Tb263 Tb 0.84806 0.05634 0.38976 0.0
N264 N 0.80064 0.05732 0.35687 0.0
C265 C 0.74143 0.07338 0.32002 0.0
C266 C 0.79989 0.0343 0.32633 0.0
C267 C 0.77055 0.04295 0.30732 0.0
H268 H 0.82693 0.09857 0.46353 0.0
H269 H 0.77048 0.02629 0.28287 0.0
H270 H 0.91385 0.2105 0.28538 0.0
H271 H 0.99418 0.27292 0.45731 0.0
H272 H 0.82137 1.00794 0.3165 0.0
H273 H 0.71908 0.08159 0.30502 0.0
H274 H 0.93606 0.26312 0.43357 0.0
H275 H 0.77621 0.14434 0.49102 0.0
H276 H 0.691 0.13567 0.35202 0.0
H277 H 0.69057 0.16105 0.40899 0.0
H278 H 0.96161 0.1848 0.24881 0.0
H279 H 0.72127 0.15919 0.4618 0.0
H280 H 0.04607 0.24613 0.42532 0.0
N281 N 0.94457 0.20137 0.32734 0.0
C282 C 0.97756 0.20126 0.33882 0.0
C283 C 0.9664 0.18844 0.27415 0.0
C284 C 0.00616 0.19251 0.31845 0.0
C285 C 0.93911 0.20085 0.29513 0.0
C286 C 0.99998 0.18265 0.28598 0.0
N287 N 0.95464 0.22611 0.38936 0.0
C288 C 0.95838 0.24962 0.41962 0.0
C289 C 0.01653 0.22162 0.38315 0.0
C290 C 0.98282 0.21563 0.37072 0.0
C291 C 0.02055 0.24082 0.41492 0.0
C292 C 0.99134 0.25597 0.43306 0.0
H293 H 0.02102 0.17386 0.26958 0.0
H294 H 0.06227 0.19221 0.31575 0.0
H295 H 0.07117 0.21524 0.37225 0.0
O296 O 0.88181 0.3035 0.38135 0.0
O297 O 0.93087 0.13716 0.39004 0.0
O298 O 0.9046 0.04012 0.37806 0.0
O299 O 0.92172 0.3001 0.34596 0.0
O300 O 0.88535 0.20239 0.41647 0.0
O301 O 0.87913 0.09303 0.4283 0.0
O302 O 0.8323 0.95932 0.38098 0.0
O303 O 0.82836 0.15886 0.39166 0.0
O304 O 0.84821 0.21196 0.34833 0.0
O305 O 0.84667 0.99022 0.42771 0.0
O306 O 0.87128 0.04797 0.34337 0.0
O307 O 0.88301 0.15162 0.3246 0.0
C308 C 0.93308 0.0754 0.38312 0.0
C309 C 0.88751 0.39434 0.34611 0.0
C310 C 0.87396 0.51086 0.34555 0.0
C311 C 0.86084 0.50337 0.31447 0.0
C312 C 0.87505 0.3888 0.31488 0.0
C313 C 0.8628 0.44358 0.29886 0.0
C314 C 0.88864 0.45604 0.36069 0.0
C315 C 0.88484 0.15312 0.43724 0.0
C316 C 0.90202 0.33751 0.36283 0.0
C317 C 0.03987 0.19683 0.33093 0.0
C318 C 0.04503 0.21079 0.3632 0.0
C319 C 0.82238 0.19908 0.3677 0.0
C320 C 0.86155 0.88249 0.41357 0.0
C321 C 0.87502 0.76892 0.40146 0.0
C322 C 0.90165 0.77085 0.42409 0.0
C323 C 0.88939 0.88351 0.43522 0.0
C324 C 0.85445 0.82466 0.39661 0.0
C325 C 0.90903 0.82792 0.44055 0.0
C326 C 0.87807 0.08801 0.31996 0.0
C327 C 0.83932 0.94071 0.4098 0.0
H328 H 0.84968 0.54439 0.30198 0.0
H329 H 0.87497 0.34224 0.30285 0.0
H330 H 0.85322 0.43907 0.27473 0.0
H331 H 0.90031 0.46111 0.38404 0.0
H332 H 0.91693 0.72785 0.4289 0.0
H333 H 0.89578 0.92695 0.44853 0.0
H334 H 0.83302 0.82277 0.37997 0.0
H335 H 0.93003 0.82899 0.45761 0.0
Tb336 Tb 0.85028 0.99277 0.88546 0.0
C337 C 0.9763 0.81574 0.85045 0.0
N338 N 0.94637 0.82998 0.83518 0.0
C339 C 0.97593 0.82926 0.78504 0.0
C340 C 0.00785 0.81164 0.83379 0.0
C341 C 0.94559 0.83564 0.80283 0.0
C342 C 0.00726 0.81778 0.80066 0.0
C343 C 1.00488 0.78061 0.8987 0.0
C344 C 0.97456 0.79877 0.88217 0.0
C345 C 0.03702 0.78263 0.88299 0.0
C346 C 0.03844 0.79726 0.85041 0.0
Tb347 Tb 0.89711 0.82893 0.86462 0.0
N348 N 0.94277 0.79418 0.89588 0.0
C349 C 1.00179 0.75792 0.92997 0.0
C350 C 0.93958 0.76505 0.92518 0.0
C351 C 0.96891 0.74898 0.94304 0.0
H352 H 0.92141 0.84252 0.79059 0.0
H353 H 0.96609 0.7282 0.96661 0.0
H354 H 0.85652 0.04664 0.95994 0.0
H355 H 0.73643 0.95558 0.81023 0.0
H356 H 0.91453 0.75306 0.93504 0.0
H357 H 0.02444 0.7441 0.94358 0.0
H358 H 0.79791 0.97561 0.81974 0.0
H359 H 0.97495 0.83168 0.75932 0.0
H360 H 0.06063 0.76965 0.89538 0.0
H361 H 0.06308 0.79513 0.83809 0.0
H362 H 0.81653 0.06853 0.00436 0.0
H363 H 0.03054 0.81021 0.78695 0.0
H364 H 0.69627 0.94652 0.85551 0.0
N365 N 0.81755 1.00573 0.93006 0.0
C366 C 0.7831 0.99419 0.92602 0.0
C367 C 0.80695 0.04633 0.98272 0.0
C368 C 0.75957 1.00427 0.95124 0.0
C369 C 0.82959 0.03303 0.95766 0.0
C370 C 0.77187 0.03116 0.97965 0.0
N371 N 0.79318 0.97914 0.87054 0.0
C372 C 0.7806 0.97606 0.83983 0.0
C373 C 0.73501 0.96873 0.89086 0.0
C374 C 0.77071 0.97935 0.89564 0.0
C375 C 0.72311 0.95725 0.85997 0.0
C376 C 0.74575 0.96262 0.83429 0.0
H377 H 0.75434 0.04184 0.99911 0.0
H378 H 0.70595 0.99725 0.96609 0.0
H379 H 0.68465 0.96393 0.91353 0.0
O380 O 0.87122 0.07562 0.86337 0.0
O381 O 0.82399 0.90352 0.8664 0.0
O382 O 0.84879 0.81902 0.89096 0.0
O383 O 0.82871 0.08507 0.89503 0.0
O384 O 0.87291 0.99025 0.83852 0.0
O385 O 0.87314 0.88435 0.82305 0.0
O386 O 0.90703 0.72817 0.86228 0.0
O387 O 0.92653 0.91939 0.85777 0.0
O388 O 0.90661 0.98688 0.89735 0.0
O389 O 0.8682 0.77368 0.83182 0.0
O390 O 0.88505 0.84337 0.91643 0.0
O391 O 0.87398 0.95165 0.92807 0.0
C392 C 0.82079 0.84637 0.88028 0.0
C393 C 0.86851 0.17094 0.89316 0.0
C394 C 0.88388 0.28587 0.89251 0.0
C395 C 0.90634 0.27466 0.91824 0.0
C396 C 0.89165 0.16047 0.91834 0.0
C397 C 0.90993 0.21254 0.93125 0.0
C398 C 0.86372 0.23389 0.88105 0.0
C399 C 0.86854 0.94734 0.81626 0.0
C400 C 0.85111 0.11597 0.87796 0.0
C401 C 0.72425 0.99108 0.94675 0.0
C402 C 0.7121 0.97231 0.91676 0.0
C403 C 0.93231 0.96391 0.87955 0.0
C404 C 0.87544 0.65661 0.82641 0.0
C405 C 0.87286 0.53862 0.8316 0.0
C406 C 0.85147 0.53611 0.80453 0.0
C407 C 0.8541 0.65297 0.79941 0.0
C408 C 0.88598 0.59901 0.84166 0.0
C409 C 0.84261 0.59285 0.78832 0.0
C410 C 0.88156 0.89202 0.93701 0.0
C411 C 0.88347 0.72025 0.84056 0.0
H412 H 0.92116 0.31444 0.92821 0.0
H413 H 0.89583 0.11206 0.92771 0.0
H414 H 0.92759 0.20452 0.95087 0.0
H415 H 0.84578 0.24182 0.86157 0.0
H416 H 0.84133 0.49009 0.79613 0.0
H417 H 0.84572 0.69665 0.78725 0.0
H418 H 0.90245 0.60121 0.86253 0.0
H419 H 0.82603 0.59033 0.76757 0.0
Tb420 Tb 0.15803 0.04032 0.88965 0.0
C421 C 0.04361 0.23849 0.83271 0.0
N422 N 0.0769 0.22913 0.82329 0.0
C423 C 0.06267 0.26708 0.77075 0.0
C424 C 0.01812 0.25937 0.811 0.0
C425 C 0.08683 0.24428 0.79282 0.0
C426 C 0.02813 0.27426 0.77986 0.0
C427 C 1.00327 0.2537 0.87624 0.0
C428 C 0.03646 0.23799 0.86497 0.0
C429 C 0.97689 0.26757 0.85444 0.0
C430 C 0.98433 0.27104 0.82182 0.0
Tb431 Tb 0.11537 0.20577 0.86302 0.0
N432 N 0.06308 0.22859 0.88545 0.0
C433 C 0.99828 0.25951 0.9091 0.0
C434 C 0.05881 0.24017 0.91733 0.0
C435 C 0.0262 0.25347 0.92973 0.0
H436 H 0.11359 0.23929 0.78559 0.0
H437 H 0.02282 0.2611 0.95506 0.0
H438 H 0.15479 1.00988 0.9675 0.0
H439 H 0.26458 0.07776 0.80751 0.0
H440 H 0.08042 0.2403 0.93332 0.0
H441 H 0.97369 0.27282 0.91882 0.0
H442 H 0.20397 0.05655 0.82117 0.0
H443 H 0.07076 0.27952 0.7468 0.0
H444 H 0.95138 0.27969 0.8629 0.0
H445 H 0.96437 0.2861 0.80532 0.0
H446 H 0.19714 0.98901 0.01008 0.0
H447 H 0.00967 0.29399 0.76305 0.0
H448 H 0.30851 0.08382 0.85032 0.0
N449 N 0.19329 0.03038 0.93248 0.0
C450 C 0.22766 0.03469 0.92585 0.0
C451 C 0.20604 1.00342 0.98669 0.0
C452 C 0.25248 0.0298 0.95025 0.0
C453 C 0.1821 1.01524 0.96245 0.0
C454 C 0.2414 1.01195 0.98077 0.0
N455 N 0.21351 0.04729 0.87119 0.0
C456 C 0.22283 0.05608 0.84001 0.0
C457 C 0.27285 0.05812 0.88752 0.0
C458 C 0.23806 0.04464 0.89444 0.0
C459 C 0.2822 0.0713 0.85606 0.0
C460 C 0.25735 0.06847 0.83203 0.0
H461 H 0.25981 1.00525 0.99995 0.0
H462 H 0.30664 0.04338 0.96208 0.0
H463 H 0.32294 0.07681 0.90751 0.0
O464 O 0.17419 0.94969 0.87257 0.0
O465 O 0.1886 0.13263 0.89487 0.0
O466 O 0.16933 0.18452 0.85159 0.0
O467 O 0.14138 0.95642 0.91408 0.0
O468 O 0.14702 0.04289 0.83899 0.0
O469 O 0.11838 0.13514 0.8216 0.0
O470 O 0.12307 0.29432 0.8876 0.0
O471 O 0.07755 0.13441 0.88154 0.0
O472 O 0.10259 0.03319 0.87544 0.0
O473 O 0.13161 0.2888 0.83751 0.0
O474 O 0.13388 0.19396 0.91304 0.0
O475 O 0.12759 0.08682 0.92719 0.0
C476 C 0.19274 0.18012 0.87403 0.0
C477 C 0.17248 0.85855 0.90659 0.0
C478 C 0.17072 0.741 0.90764 0.0
C479 C 0.2004 0.74009 0.92685 0.0
C480 C 0.20237 0.85789 0.92551 0.0
C481 C 0.21614 0.7986 0.93578 0.0
C482 C 0.15678 0.80016 0.89777 0.0
C483 C 0.13042 0.07491 0.81673 0.0
C484 C 0.15709 0.91804 0.89427 0.0
C485 C 0.28729 0.04374 0.94341 0.0
C486 C 0.29698 0.06067 0.91232 0.0
C487 C 0.07518 0.07076 0.8793 0.0
C488 C 0.10972 0.38834 0.85733 0.0
C489 C 0.10522 0.505 0.8655 0.0
C490 C 0.07391 0.50612 0.84878 0.0
C491 C 0.0791 0.39117 0.83938 0.0
C492 C 0.12268 0.44589 0.87042 0.0
C493 C 0.06094 0.44911 0.83569 0.0
C494 C 0.12813 0.14872 0.93494 0.0
C495 C 0.1292 0.32712 0.86179 0.0
H496 H 0.21141 0.69435 0.93461 0.0
H497 H 0.21517 0.9025 0.93212 0.0
H498 H 0.23918 0.798 0.95043 0.0
H499 H 0.13385 0.80054 0.88281 0.0
H500 H 0.06026 0.55142 0.845 0.0
H501 H 0.06935 0.34972 0.82743 0.0
H502 H 0.14653 0.44459 0.88386 0.0
H503 H 0.03725 0.45001 0.82194 0.0
Tb504 Tb 0.84646 0.03231 0.61774 0.0
C505 C 0.97047 0.2173 0.66611 0.0
N506 N 0.94008 0.19994 0.68003 0.0
C507 C 0.96851 0.18747 0.73043 0.0
C508 C 1.00123 0.2192 0.6839 0.0
C509 C 0.93832 0.18948 0.71224 0.0
C510 C 1.00021 0.20045 0.71586 0.0
C511 C 1.00195 0.25196 0.61895 0.0
C512 C 0.97085 0.2327 0.63382 0.0
C513 C 0.03257 0.25441 0.63682 0.0
C514 C 0.03213 0.23832 0.66922 0.0
Tb515 Tb 0.89417 0.19442 0.64623 0.0
N516 N 0.94071 0.22956 0.61716 0.0
C517 C 1.00123 0.26932 0.58673 0.0
C518 C 0.93951 0.25121 0.58635 0.0
C519 C 0.96978 0.26976 0.57049 0.0
H520 H 0.9138 0.18062 0.72388 0.0
H521 H 0.9687 0.28571 0.54592 0.0
H522 H 0.86833 0.99945 0.54216 0.0
H523 H 0.72443 0.0738 0.67542 0.0
H524 H 0.91532 0.25694 0.57406 0.0
H525 H 0.0245 0.28455 0.57446 0.0
H526 H 0.78489 0.04182 0.67437 0.0
H527 H 0.96735 0.17554 0.75554 0.0
H528 H 0.0566 0.26881 0.62578 0.0
H529 H 0.05579 0.23916 0.68286 0.0
H530 H 0.83746 0.98405 0.49145 0.0
H531 H 0.02379 0.19579 0.72934 0.0
H532 H 0.69184 0.08804 0.6251 0.0
N533 N 0.82271 0.0227 0.56831 0.0
C534 C 0.78776 0.03111 0.56732 0.0
C535 C 0.82328 0.99821 0.51253 0.0
C536 C 0.76963 0.0279 0.53836 0.0
C537 C 0.84068 1.00677 0.54139 0.0
C538 C 0.78758 1.00861 0.51103 0.0
N539 N 0.78799 0.04041 0.62352 0.0
C540 C 0.77129 0.04638 0.65208 0.0
C541 C 0.73459 0.05753 0.59526 0.0
C542 C 0.76991 0.0413 0.59567 0.0
C543 C 0.7183 0.07142 0.6243 0.0
C544 C 0.73653 0.06401 0.6528 0.0
H545 H 0.77415 1.00201 0.48862 0.0
H546 H 0.72029 0.04528 0.51535 0.0
H547 H 0.69096 0.07873 0.56457 0.0
O548 O 0.85787 0.9481 0.6446 0.0
O549 O 0.81604 0.12455 0.61651 0.0
O550 O 0.83827 0.18719 0.65596 0.0
O551 O 0.82968 0.94124 0.60116 0.0
O552 O 0.8447 0.05468 0.66856 0.0
O553 O 0.89361 0.11256 0.6808 0.0
O554 O 0.89481 0.29583 0.63686 0.0
O555 O 0.93171 0.11806 0.63412 0.0
O556 O 0.90423 0.02256 0.61742 0.0
O557 O 0.88005 0.25703 0.68348 0.0
O558 O 0.87262 0.18839 0.59739 0.0
O559 O 0.88053 0.08147 0.58385 0.0
C560 C 0.81329 0.17513 0.63558 0.0
C561 C 0.86888 0.85741 0.61126 0.0
C562 C 0.89067 0.74635 0.61353 0.0
C563 C 0.90846 0.75672 0.58476 0.0
C564 C 0.88745 0.86692 0.58281 0.0
C565 C 0.90677 0.81676 0.56948 0.0
C566 C 0.87068 0.79684 0.62673 0.0
C567 C 0.8709 0.0666 0.68745 0.0
C568 C 0.8457 0.90898 0.62309 0.0
C569 C 0.73438 0.04439 0.53766 0.0
C570 C 0.71735 0.06187 0.56588 0.0
C571 C 0.93251 0.0568 0.62465 0.0
C572 C 0.87994 0.3747 0.67828 0.0
C573 C 0.88352 0.4927 0.67143 0.0
C574 C 0.86174 0.4999 0.6981 0.0
C575 C 0.85856 0.38356 0.70495 0.0
C576 C 0.89395 0.42951 0.66263 0.0
C577 C 0.85006 0.44587 0.71508 0.0
C578 C 0.87844 0.14311 0.57575 0.0
C579 C 0.88556 0.30842 0.66603 0.0
H580 H 0.92361 0.71814 0.57414 0.0
H581 H 0.88648 0.91283 0.57052 0.0
H582 H 0.92068 0.82461 0.5474 0.0
H583 H 0.85606 0.78846 0.64842 0.0
H584 H 0.85343 0.54772 0.70565 0.0
H585 H 0.84777 0.34228 0.7176 0.0
H586 H 0.91206 0.4228 0.64319 0.0
H587 H 0.83333 0.45231 0.73553 0.0
Tb588 Tb 0.15588 0.99052 0.61797 0.0
C589 C 0.04254 0.87296 0.68287 0.0
N590 N 0.07584 0.85653 0.6887 0.0
C591 C 0.06719 0.8788 0.74421 0.0
C592 C 0.02107 0.89856 0.70684 0.0
C593 C 0.08647 0.85033 0.7197 0.0
C594 C 0.03487 0.90598 0.73739 0.0
C595 C 0.99336 0.86026 0.64822 0.0
C596 C 0.02883 0.85486 0.65408 0.0
C597 C 0.97235 0.89134 0.67053 0.0
C598 C 0.98612 0.91121 0.69992 0.0
Tb599 Tb 0.10748 0.82895 0.64401 0.0
N600 N 0.05005 0.8259 0.63288 0.0
C601 C 0.97987 0.83167 0.62077 0.0
C602 C 0.03669 0.79074 0.60821 0.0
C603 C 1.00136 0.79451 0.60119 0.0
H604 H 0.11098 0.8277 0.72533 0.0
H605 H 0.99082 0.76907 0.58083 0.0
H606 H 0.16563 0.02035 0.54104 0.0
H607 H 0.24589 0.02039 0.7169 0.0
H608 H 0.05346 0.7605 0.594 0.0
H609 H 0.95273 0.83597 0.61561 0.0
H610 H 0.18878 1.01678 0.69277 0.0
H611 H 0.07724 0.87966 0.76827 0.0
H612 H 0.94535 0.89712 0.66523 0.0
H613 H 0.96925 0.93241 0.71769 0.0
H614 H 0.21357 0.04476 0.50435 0.0
H615 H 0.01986 0.92792 0.75632 0.0
H616 H 0.29809 0.0211 0.68296 0.0
N617 N 0.1983 1.00921 0.58163 0.0
C618 C 0.23088 1.01371 0.59329 0.0
C619 C 0.2189 0.03501 0.52917 0.0
C620 C 0.2592 0.02611 0.5729 0.0
C621 C 0.19177 0.0213 0.55018 0.0
C622 C 0.25287 0.03623 0.54045 0.0
N623 N 0.20707 1.00538 0.64507 0.0
C624 C 0.2106 1.01258 0.67731 0.0
C625 C 0.26905 1.01697 0.63898 0.0
C626 C 0.23553 1.01045 0.62601 0.0
C627 C 0.27279 1.01745 0.67206 0.0
C628 C 0.24339 1.01672 0.69128 0.0
H629 H 0.27387 0.04682 0.5241 0.0
H630 H 0.31478 0.03981 0.57043 0.0
H631 H 0.32335 0.03064 0.62811 0.0
O632 O 0.1636 0.09265 0.62214 0.0
O633 O 0.18716 0.89807 0.61645 0.0
O634 O 0.1633 0.82992 0.65451 0.0
O635 O 0.12778 0.04952 0.58733 0.0
O636 O 0.13536 0.99334 0.66628 0.0
O637 O 0.13692 0.88582 0.68121 0.0
O638 O 0.12126 0.73621 0.62697 0.0
O639 O 0.07992 0.89729 0.61218 0.0
O640 O 0.10184 0.98546 0.63478 0.0
O641 O 0.08745 0.74659 0.66703 0.0
O642 O 0.12234 0.82916 0.59229 0.0
O643 O 0.14061 0.93299 0.57656 0.0
C644 C 0.18853 0.84489 0.63459 0.0
C645 C 0.13051 0.1664 0.58741 0.0
C646 C 0.12128 0.2817 0.59703 0.0
C647 C 0.0986 0.28345 0.57082 0.0
C648 C 0.10801 0.1696 0.56115 0.0
C649 C 0.09254 0.22806 0.55271 0.0
C650 C 0.13855 0.2234 0.60431 0.0
C651 C 0.13493 0.94868 0.68858 0.0
C652 C 0.14078 0.10235 0.59963 0.0
C653 C 0.29265 0.03066 0.58569 0.0
C654 C 0.29755 0.02548 0.6186 0.0
C655 C 0.07682 0.95941 0.61806 0.0
C656 C 0.11704 0.6482 0.66263 0.0
C657 C 0.12437 0.53119 0.66043 0.0
C658 C 0.14487 0.53479 0.68807 0.0
C659 C 0.13899 0.65173 0.6891 0.0
C660 C 0.10826 0.58786 0.64953 0.0
C661 C 0.15211 0.59468 0.70231 0.0
C662 C 0.13225 0.87227 0.57025 0.0
C663 C 0.10255 0.70622 0.64806 0.0
H664 H 0.08544 0.32803 0.56443 0.0
H665 H 0.10149 0.12648 0.54763 0.0
H666 H 0.07497 0.23003 0.53266 0.0
H667 H 0.1566 0.2217 0.62405 0.0
H668 H 0.15598 0.49114 0.6982 0.0
H669 H 0.14557 0.6982 0.69962 0.0
H670 H 0.09029 0.58546 0.62971 0.0
H671 H 0.16857 0.59689 0.72314 0.0
Tb672 Tb 0.61064 0.70877 0.14345 0.0
C673 C 0.74533 0.55507 0.11153 0.0
N674 N 0.71684 0.55591 0.0929 0.0
C675 C 0.7525 0.5582 0.04611 0.0
C676 C 0.77875 0.5588 0.09819 0.0
C677 C 0.71993 0.55406 0.06058 0.0
C678 C 0.78207 0.56207 0.06504 0.0
C679 C 0.76993 0.53407 0.16332 0.0
C680 C 0.74082 0.54254 0.14347 0.0
C681 C 0.80323 0.54326 0.15081 0.0
C682 C 0.80768 0.55464 0.11812 0.0
Tb683 Tb 0.66445 0.5481 0.11725 0.0
N684 N 0.70826 0.52894 0.15379 0.0
C685 C 0.76494 0.51028 0.19417 0.0
C686 C 0.70436 0.4966 0.18211 0.0
C687 C 0.73209 0.48912 0.20313 0.0
H688 H 0.69712 0.55098 0.04589 0.0
H689 H 0.72834 0.46409 0.22555 0.0
H690 H 0.63329 0.76049 0.21454 0.0
H691 H 0.48372 0.68745 0.08913 0.0
H692 H 0.68062 0.47283 0.18804 0.0
H693 H 0.78664 0.50253 0.21007 0.0
H694 H 0.54652 0.69938 0.08915 0.0
H695 H 0.75481 0.55826 0.02044 0.0
H696 H 0.82559 0.53732 0.16593 0.0
H697 H 0.83346 0.55657 0.10804 0.0
H698 H 0.60513 0.78295 0.26636 0.0
H699 H 0.80732 0.56463 0.05384 0.0
H700 H 0.45115 0.69001 0.13983 0.0
N701 N 0.58709 0.728 0.19241 0.0
C702 C 0.55223 0.72159 0.19487 0.0
C703 C 0.58994 0.76538 0.24649 0.0
C704 C 0.53488 0.73513 0.22365 0.0
C705 C 0.60582 0.75272 0.21717 0.0
C706 C 0.55435 0.7557 0.24988 0.0
N707 N 0.55115 0.70278 0.13966 0.0
C708 C 0.53314 0.70046 0.11155 0.0
C709 C 0.49713 0.70472 0.16853 0.0
C710 C 0.53362 0.70791 0.16757 0.0
C711 C 0.47905 0.69488 0.14008 0.0
C712 C 0.4972 0.69373 0.11142 0.0
H713 H 0.54201 0.76639 0.27247 0.0
H714 H 0.48473 0.74318 0.24641 0.0
H715 H 0.45198 0.71219 0.19878 0.0
O716 O 0.63954 0.79054 0.12918 0.0
O717 O 0.5886 0.62924 0.11506 0.0
O718 O 0.60901 0.53175 0.13041 0.0
O719 O 0.58707 0.80128 0.14441 0.0
O720 O 0.62194 0.70558 0.09166 0.0
O721 O 0.64782 0.60769 0.07646 0.0
O722 O 0.67778 0.4482 0.11636 0.0
O723 O 0.68988 0.64622 0.11618 0.0
O724 O 0.66563 0.70021 0.15846 0.0
O725 O 0.6499 0.49281 0.07785 0.0
O726 O 0.64151 0.54375 0.16448 0.0
O727 O 0.62418 0.64401 0.18456 0.0
C728 C 0.58241 0.57074 0.12595 0.0
C729 C 0.62399 0.8912 0.1521 0.0
C730 C 0.62581 1.00992 0.15311 0.0
C731 C 0.64574 1.00662 0.18115 0.0
C732 C 0.64593 0.88931 0.17866 0.0
C733 C 0.65567 0.94675 0.19379 0.0
C734 C 0.61263 0.95161 0.14031 0.0
C735 C 0.63498 0.6658 0.06996 0.0
C736 C 0.61472 0.83133 0.13496 0.0
C737 C 0.49863 0.73119 0.22482 0.0
C738 C 0.47988 0.71444 0.19752 0.0
C739 C 0.69197 0.69115 0.13874 0.0
C740 C 0.6405 0.38006 0.08488 0.0
C741 C 0.62584 0.26646 0.09637 0.0
C742 C 0.60422 0.26601 0.06953 0.0
C743 C 0.61783 0.37817 0.05867 0.0
C744 C 0.64473 0.32342 0.10368 0.0
C745 C 0.60014 0.3215 0.05097 0.0
C746 C 0.6317 0.58119 0.18812 0.0
C747 C 0.66225 0.43882 0.08926 0.0
H748 H 0.65499 0.05063 0.19242 0.0
H749 H 0.65606 0.84375 0.18732 0.0
H750 H 0.67218 0.945 0.2146 0.0
H751 H 0.59562 0.95316 0.1198 0.0
H752 H 0.59034 0.22223 0.06292 0.0
H753 H 0.6145 0.42011 0.04334 0.0
H754 H 0.6629 0.32305 0.12333 0.0
H755 H 0.58325 0.32045 0.0304 0.0
Tb756 Tb 0.4018 0.33762 0.1444 0.0
C757 C 0.27267 0.46527 0.11026 0.0
N758 N 0.3024 0.46394 0.09291 0.0
C759 C 0.27174 0.41644 0.04896 0.0
C760 C 0.24179 0.43861 0.0982 0.0
C761 C 0.30202 0.44248 0.06209 0.0
C762 C 0.24148 0.41458 0.06705 0.0
C763 C 0.2447 0.48635 0.16077 0.0
C764 C 0.2745 0.4871 0.14136 0.0
C765 C 0.21399 0.45831 0.14917 0.0
C766 C 0.21285 0.43338 0.11813 0.0
Tb767 Tb 0.35177 0.49757 0.11841 0.0
N768 N 0.30552 0.50864 0.15258 0.0
C769 C 0.24685 0.51306 0.19131 0.0
C770 C 0.30688 0.53966 0.1813 0.0
C771 C 0.2779 0.54124 0.20132 0.0
H772 H 0.32522 0.44363 0.04783 0.0
H773 H 0.27948 0.5647 0.22434 0.0
H774 H 0.42099 0.37351 0.22226 0.0
H775 H 0.48401 0.25155 0.05058 0.0
H776 H 0.32983 0.56519 0.1885 0.0
H777 H 0.22451 0.51379 0.20694 0.0
H778 H 0.42854 0.26821 0.07829 0.0
H779 H 0.27187 0.39696 0.02503 0.0
H780 H 0.1912 0.4548 0.16413 0.0
H781 H 0.18994 0.40847 0.10983 0.0
H782 H 0.47126 0.41927 0.24981 0.0
H783 H 0.21821 0.39356 0.05695 0.0
H784 H 0.53809 0.28806 0.07564 0.0
N785 N 0.44721 0.36156 0.17785 0.0
C786 C 0.47898 0.35584 0.1641 0.0
C787 C 0.47382 0.40181 0.22561 0.0
C788 C 0.50919 0.37499 0.18022 0.0
C789 C 0.44485 0.37831 0.20931 0.0
C790 C 0.50621 0.40048 0.21095 0.0
N791 N 0.45152 0.31532 0.1182 0.0
C792 C 0.45214 0.28465 0.08939 0.0
C793 C 0.5134 0.32262 0.11853 0.0
C794 C 0.48127 0.33011 0.13366 0.0
C795 C 0.51417 0.29477 0.08815 0.0
C796 C 0.48351 0.27447 0.07376 0.0
H797 H 0.52878 0.41744 0.22384 0.0
H798 H 0.56444 0.38275 0.17702 0.0
H799 H 0.56823 0.34116 0.12225 0.0
O800 O 0.38486 0.24482 0.12927 0.0
O801 O 0.43101 0.41081 0.11738 0.0
O802 O 0.40892 0.51029 0.1299 0.0
O803 O 0.41875 0.25538 0.16962 0.0
O804 O 0.38383 0.34543 0.09367 0.0
O805 O 0.37932 0.45362 0.07924 0.0
O806 O 0.33834 0.59669 0.12372 0.0
O807 O 0.32888 0.39711 0.11741 0.0
O808 O 0.34747 0.34075 0.16027 0.0
O809 O 0.35436 0.55939 0.07864 0.0
O810 O 0.37676 0.5036 0.16433 0.0
O811 O 0.38022 0.39915 0.18377 0.0
C812 C 0.4361 0.47212 0.12402 0.0
C813 C 0.38943 0.15431 0.16459 0.0
C814 C 0.38039 0.03651 0.16043 0.0
C815 C 0.36383 0.03796 0.1903 0.0
C816 C 0.37281 0.15432 0.19424 0.0
C817 C 0.36098 0.09602 0.20738 0.0
C818 C 0.39454 0.09497 0.14842 0.0
C819 C 0.38479 0.39252 0.07181 0.0
C820 C 0.40325 0.21473 0.15067 0.0
C821 C 0.54125 0.36896 0.16492 0.0
C822 C 0.54339 0.34387 0.134 0.0
C823 C 0.32214 0.35613 0.14091 0.0
C824 C 0.37146 0.66764 0.09075 0.0
C825 C 0.38854 0.78002 0.10249 0.0
C826 C 0.41557 0.77475 0.08035 0.0
C827 C 0.39897 0.66393 0.06878 0.0
C828 C 0.36626 0.72639 0.10755 0.0
C829 C 0.42052 0.71729 0.06347 0.0
C830 C 0.3787 0.46327 0.18833 0.0
C831 C 0.34751 0.61148 0.09488 0.0
H832 H 0.35334 0.99378 0.20059 0.0
H833 H 0.36929 0.19918 0.20731 0.0
H834 H 0.34846 0.09606 0.23046 0.0
H835 H 0.40892 0.09452 0.12622 0.0
H836 H 0.43263 0.81563 0.07585 0.0
H837 H 0.40372 0.62003 0.05529 0.0
H838 H 0.34491 0.73073 0.12418 0.0
H839 H 0.44124 0.71403 0.04617 0.0
Tb840 Tb 0.60794 0.32657 0.36151 0.0
C841 C 0.7386 0.47021 0.38118 0.0
N842 N 0.71452 0.48894 0.40243 0.0
C843 C 0.75652 0.48192 0.44404 0.0
C844 C 0.77112 0.44758 0.39064 0.0
C845 C 0.72357 0.50055 0.4332 0.0
C846 C 0.77943 0.45095 0.42307 0.0
C847 C 0.75458 0.46318 0.32611 0.0
C848 C 0.7302 0.47638 0.34983 0.0
C849 C 0.78511 0.43083 0.33475 0.0
C850 C 0.79363 0.42322 0.36718 0.0
Tb851 Tb 0.65914 0.49034 0.38388 0.0
N852 N 0.69902 0.50225 0.34318 0.0
C853 C 0.74771 0.48499 0.29516 0.0
C854 C 0.69478 0.53369 0.31479 0.0
C855 C 0.71846 0.5238 0.2899 0.0
H856 H 0.70463 0.51942 0.44974 0.0
H857 H 0.71417 0.54632 0.26694 0.0
H858 H 0.62677 0.28414 0.28715 0.0
H859 H 0.48425 0.3432 0.42187 0.0
H860 H 0.67332 0.5661 0.31134 0.0
H861 H 0.766 0.47665 0.27602 0.0
H862 H 0.54692 0.33113 0.41864 0.0
H863 H 0.76352 0.48821 0.46879 0.0
H864 H 0.80199 0.41218 0.31659 0.0
H865 H 0.81775 0.40018 0.37374 0.0
H866 H 0.59565 0.26331 0.23716 0.0
H867 H 0.80386 0.43265 0.4319 0.0
H868 H 0.44897 0.34527 0.37265 0.0
N869 N 0.58183 0.31142 0.31299 0.0
C870 C 0.54681 0.31669 0.31248 0.0
C871 C 0.5815 0.2786 0.25805 0.0
C872 C 0.5278 0.30447 0.28444 0.0
C873 C 0.59909 0.29028 0.28652 0.0
C874 C 0.54566 0.2859 0.25693 0.0
N875 N 0.54874 0.3315 0.36795 0.0
C876 C 0.53228 0.33154 0.39691 0.0
C877 C 0.49329 0.33217 0.34164 0.0
C878 C 0.52975 0.3283 0.34084 0.0
C879 C 0.47681 0.34013 0.37105 0.0
C880 C 0.49645 0.3386 0.39885 0.0
H881 H 0.53198 0.27557 0.23499 0.0
H882 H 0.4764 0.29747 0.26415 0.0
H883 H 0.44667 0.3297 0.31318 0.0
O884 O 0.63614 0.24445 0.37676 0.0
O885 O 0.58606 0.40576 0.38989 0.0
O886 O 0.60406 0.50127 0.36998 0.0
O887 O 0.58427 0.23446 0.3598 0.0
O888 O 0.62085 0.33425 0.41315 0.0
O889 O 0.64554 0.43412 0.42713 0.0
O890 O 0.67183 0.59024 0.38458 0.0
O891 O 0.68279 0.39129 0.38858 0.0
O892 O 0.66272 0.33267 0.34639 0.0
O893 O 0.63846 0.54642 0.42098 0.0
O894 O 0.63271 0.49249 0.33813 0.0
O895 O 0.62471 0.38753 0.31977 0.0
C896 C 0.57846 0.46265 0.37809 0.0
C897 C 0.62057 0.14457 0.35293 0.0
C898 C 0.63136 0.02815 0.35437 0.0
C899 C 0.64418 0.03136 0.32307 0.0
C900 C 0.63334 0.14682 0.32168 0.0
C901 C 0.64443 0.09024 0.30659 0.0
C902 C 0.61805 0.08459 0.36864 0.0
C903 C 0.63345 0.37553 0.4346 0.0
C904 C 0.61127 0.20407 0.37012 0.0
C905 C 0.49156 0.30851 0.28512 0.0
C906 C 0.4745 0.32516 0.31332 0.0
C907 C 0.68834 0.34779 0.36584 0.0
C908 C 0.64704 0.66295 0.42414 0.0
C909 C 0.6358 0.77822 0.41662 0.0
C910 C 0.6207 0.78062 0.44703 0.0
C911 C 0.6322 0.66639 0.45464 0.0
C912 C 0.65007 0.7197 0.40566 0.0
C913 C 0.61944 0.72517 0.46608 0.0
C914 C 0.62779 0.45114 0.31476 0.0
C915 C 0.65162 0.59939 0.40903 0.0
H916 H 0.65407 0.98822 0.31146 0.0
H917 H 0.63666 0.19232 0.30965 0.0
H918 H 0.65461 0.09253 0.28258 0.0
H919 H 0.60745 0.08227 0.39255 0.0
H920 H 0.61003 0.82564 0.45605 0.0
H921 H 0.62916 0.62313 0.46915 0.0
H922 H 0.66133 0.71766 0.38201 0.0
H923 H 0.60767 0.72736 0.48939 0.0
Tb924 Tb 0.40284 0.7005 0.36653 0.0
C925 C 0.27116 0.56183 0.40183 0.0
N926 N 0.30179 0.56691 0.41751 0.0
C927 C 0.27216 0.60367 0.46437 0.0
C928 C 0.2399 0.57882 0.41679 0.0
C929 C 0.3025 0.58434 0.44892 0.0
C930 C 0.24066 0.60025 0.44837 0.0
C931 C 0.24048 0.53859 0.35289 0.0
C932 C 0.27168 0.54296 0.37014 0.0
C933 C 0.20922 0.55569 0.36768 0.0
C934 C 0.20901 0.5756 0.39961 0.0
Tb935 Tb 0.35002 0.5396 0.3891 0.0
N936 N 0.30263 0.52818 0.35645 0.0
C937 C 0.24156 0.5164 0.32144 0.0
C938 C 0.30328 0.50168 0.32659 0.0
C939 C 0.27306 0.49684 0.30842 0.0
H940 H 0.32633 0.58422 0.46213 0.0
H941 H 0.27402 0.47679 0.28461 0.0
H942 H 0.42802 0.66628 0.29021 0.0
H943 H 0.47805 0.77539 0.46824 0.0
H944 H 0.32657 0.4815 0.31695 0.0
H945 H 0.21814 0.51228 0.30739 0.0
H946 H 0.42482 0.76216 0.43665 0.0
H947 H 0.27307 0.62137 0.4886 0.0
H948 H 0.18523 0.55365 0.35453 0.0
H949 H 0.18513 0.58887 0.41119 0.0
H950 H 0.48086 0.62689 0.26488 0.0
H951 H 0.21716 0.61474 0.46052 0.0
H952 H 0.53453 0.74203 0.44569 0.0
N953 N 0.45101 0.67784 0.3362 0.0
C954 C 0.4817 0.68308 0.3521 0.0
C955 C 0.48147 0.64269 0.28944 0.0
C956 C 0.51322 0.66554 0.33763 0.0
C957 C 0.45105 0.6628 0.30446 0.0
C958 C 0.51266 0.64377 0.30609 0.0
N959 N 0.45054 0.719 0.39709 0.0
C960 C 0.44914 0.74649 0.42667 0.0
C961 C 0.51254 0.71184 0.40061 0.0
C962 C 0.48153 0.70583 0.38326 0.0
C963 C 0.51118 0.73649 0.43165 0.0
C964 C 0.47936 0.75493 0.44453 0.0
H965 H 0.53607 0.62872 0.29412 0.0
H966 H 0.56847 0.65544 0.34502 0.0
H967 H 0.56761 0.69402 0.40011 0.0
O968 O 0.3882 0.79464 0.38154 0.0
O969 O 0.4298 0.62305 0.39203 0.0
O970 O 0.40651 0.52636 0.3765 0.0
O971 O 0.42181 0.78107 0.34125 0.0
O972 O 0.37996 0.69112 0.41524 0.0
O973 O 0.3786 0.58231 0.42793 0.0
O974 O 0.33827 0.44005 0.38203 0.0
O975 O 0.32454 0.63765 0.39017 0.0
O976 O 0.34838 0.69952 0.3506 0.0
O977 O 0.35239 0.47587 0.42799 0.0
O978 O 0.37255 0.5378 0.34206 0.0
O979 O 0.38322 0.64295 0.3249 0.0
C980 C 0.43405 0.56275 0.38332 0.0
C981 C 0.39314 0.88236 0.3447 0.0
C982 C 0.38317 0.99976 0.34744 0.0
C983 C 0.36961 0.9973 0.31632 0.0
C984 C 0.37949 0.88124 0.31379 0.0
C985 C 0.36883 0.93891 0.29935 0.0
C986 C 0.3964 0.94207 0.36084 0.0
C987 C 0.38198 0.64323 0.43645 0.0
C988 C 0.4068 0.82309 0.3597 0.0
C989 C 0.54405 0.66927 0.35531 0.0
C990 C 0.54367 0.69195 0.38672 0.0
C991 C 0.32171 0.6849 0.36888 0.0
C992 C 0.37046 0.36894 0.41551 0.0
C993 C 0.38744 0.2566 0.40463 0.0
C994 C 0.41389 0.2621 0.42731 0.0
C995 C 0.39747 0.37317 0.43794 0.0
C996 C 0.36545 0.31 0.39891 0.0
C997 C 0.41864 0.31987 0.44399 0.0
C998 C 0.37835 0.57973 0.3192 0.0
C999 C 0.34643 0.42438 0.41102 0.0
H1000 H 0.35993 0.04096 0.30498 0.0
H1001 H 0.37756 0.83607 0.30067 0.0
H1002 H 0.35865 0.93806 0.27533 0.0
H1003 H 0.40897 0.94349 0.38391 0.0
H1004 H 0.4307 0.22126 0.43231 0.0
H1005 H 0.40203 0.41734 0.4513 0.0
H1006 H 0.34447 0.30535 0.38192 0.0
H1007 H 0.43889 0.3234 0.46172 0.0
Tb1008 Tb 0.34908 0.50101 0.89327 0.0
C1009 C 0.45302 0.29812 0.81787 0.0
N1010 N 0.41832 0.30762 0.81561 0.0
C1011 C 0.41905 0.27186 0.76134 0.0
C1012 C 0.47242 0.27701 0.79145 0.0
C1013 C 0.40094 0.2933 0.78823 0.0
C1014 C 0.455 0.26437 0.76285 0.0
C1015 C 0.50456 0.29519 0.85089 0.0
C1016 C 0.46878 0.30608 0.84728 0.0
C1017 C 0.52439 0.27729 0.82426 0.0
C1018 C 0.50827 0.26738 0.79472 0.0
Tb1019 Tb 0.3916 0.33863 0.86118 0.0
N1020 N 0.44858 0.32116 0.87269 0.0
C1021 C 0.51904 0.30026 0.88137 0.0
C1022 C 0.46198 0.32029 0.90285 0.0
C1023 C 0.49753 0.31172 0.90755 0.0
H1024 H 0.37316 0.29937 0.7871 0.0
H1025 H 0.50825 0.31324 0.93136 0.0
H1026 H 0.34208 0.48536 0.97179 0.0
H1027 H 0.2536 0.51025 0.79821 0.0
H1028 H 0.44536 0.32706 0.92316 0.0
H1029 H 0.54652 0.29319 0.88505 0.0
H1030 H 0.3121 0.49988 0.81922 0.0
H1031 H 0.40534 0.26144 0.73945 0.0
H1032 H 0.55196 0.26883 0.82651 0.0
H1033 H 0.52365 0.25106 0.7747 0.0
H1034 H 0.29666 0.5122 0.01042 0.0
H1035 H 0.46898 0.24793 0.74198 0.0
H1036 H 0.2039 0.52035 0.83491 0.0
N1037 N 0.30838 0.49303 0.93187 0.0
C1038 C 0.2756 0.50397 0.92145 0.0
C1039 C 0.28994 0.50505 0.98584 0.0
C1040 C 0.24827 0.51237 0.94329 0.0
C1041 C 0.3157 0.4908 0.96368 0.0
C1042 C 0.25587 0.51385 0.97582 0.0
N1043 N 0.29668 0.50179 0.86812 0.0
C1044 C 0.29125 0.50359 0.83594 0.0
C1045 C 0.2355 0.51482 0.87738 0.0
C1046 C 0.26948 0.50709 0.88869 0.0
C1047 C 0.22977 0.51541 0.84449 0.0
C1048 C 0.25776 0.50963 0.82371 0.0
H1049 H 0.23588 0.52355 0.99329 0.0
H1050 H 0.19316 0.52857 0.94831 0.0
H1051 H 0.18247 0.52896 0.89099 0.0
O1052 O 0.34094 0.59917 0.8795 0.0
O1053 O 0.31899 0.40836 0.89753 0.0
O1054 O 0.3375 0.36434 0.85191 0.0
O1055 O 0.35093 0.5734 0.92782 0.0
O1056 O 0.36696 0.50642 0.84398 0.0
O1057 O 0.38329 0.40802 0.82122 0.0
O1058 O 0.4034 0.24159 0.8747 0.0
O1059 O 0.43065 0.41627 0.86924 0.0
O1060 O 0.4057 0.51228 0.88758 0.0
O1061 O 0.35634 0.26487 0.85027 0.0
O1062 O 0.37918 0.3452 0.91252 0.0
O1063 O 0.38368 0.45266 0.92671 0.0
C1064 C 0.31447 0.36495 0.8749 0.0
C1065 C 0.37291 0.67401 0.91148 0.0
C1066 C 0.39179 0.78447 0.8999 0.0
C1067 C 0.41682 0.77954 0.92393 0.0
C1068 C 0.39893 0.66983 0.93496 0.0
C1069 C 0.42088 0.72205 0.94086 0.0
C1070 C 0.36956 0.73173 0.89376 0.0
C1071 C 0.37807 0.47199 0.81964 0.0
C1072 C 0.34748 0.62082 0.90793 0.0
C1073 C 0.21458 0.52164 0.93197 0.0
C1074 C 0.20835 0.52212 0.89921 0.0
C1075 C 0.43283 0.47731 0.87898 0.0
C1076 C 0.37775 0.15849 0.8423 0.0
C1077 C 0.38282 0.04017 0.84479 0.0
C1078 C 0.36316 0.03608 0.81657 0.0
C1079 C 0.35882 0.15279 0.81383 0.0
C1080 C 0.39245 0.10237 0.85586 0.0
C1081 C 0.35252 0.09194 0.80063 0.0
C1082 C 0.38473 0.39058 0.93401 0.0
C1083 C 0.37565 0.21871 0.86139 0.0
H1084 H 0.4326 0.82118 0.93016 0.0
H1085 H 0.40159 0.62712 0.94978 0.0
H1086 H 0.44032 0.71869 0.95935 0.0
H1087 H 0.34918 0.7365 0.87618 0.0
H1088 H 0.35538 0.98934 0.80709 0.0
H1089 H 0.3471 0.19474 0.80266 0.0
H1090 H 0.40998 0.10762 0.87577 0.0
H1091 H 0.33689 0.08771 0.77942 0.0
Tb1092 Tb 0.65391 0.53777 0.89268 0.0
C1093 C 0.55834 0.76481 0.82297 0.0
N1094 N 0.58827 0.73532 0.81452 0.0
C1095 C 0.57927 0.76685 0.76025 0.0
C1096 C 0.53842 0.79942 0.80063 0.0
C1097 C 0.59861 0.73442 0.78342 0.0
C1098 C 0.54986 0.80183 0.76909 0.0
C1099 C 0.51657 0.78889 0.86413 0.0
C1100 C 0.54771 0.76002 0.85422 0.0
C1101 C 0.49729 0.82584 0.84239 0.0
C1102 C 0.50804 0.83076 0.81057 0.0
Tb1103 Tb 0.62204 0.70298 0.85597 0.0
N1104 N 0.56782 0.72619 0.87478 0.0
C1105 C 0.50591 0.77998 0.89562 0.0
C1106 C 0.55658 0.71473 0.90509 0.0
C1107 C 0.52546 0.74112 0.91599 0.0
H1108 H 0.62275 0.71188 0.77664 0.0
H1109 H 0.517 0.73259 0.94023 0.0
H1110 H 0.65471 0.51864 0.97166 0.0
H1111 H 0.7575 0.53049 0.80521 0.0
H1112 H 0.57156 0.68574 0.92112 0.0
H1113 H 0.48263 0.80258 0.90423 0.0
H1114 H 0.70059 0.56371 0.82541 0.0
H1115 H 0.58775 0.76658 0.73588 0.0
H1116 H 0.47414 0.85071 0.85 0.0
H1117 H 0.49269 0.85853 0.79384 0.0
H1118 H 0.69301 0.46551 0.0105 0.0
H1119 H 0.53564 0.82884 0.75121 0.0
H1120 H 0.79669 0.46648 0.83972 0.0
N1121 N 0.68989 0.50778 0.93286 0.0
C1122 C 0.72111 0.4854 0.92318 0.0
C1123 C 0.70162 0.47233 0.98622 0.0
C1124 C 0.74357 0.45382 0.9446 0.0
C1125 C 0.68002 0.50265 0.96404 0.0
C1126 C 0.73352 0.44767 0.97648 0.0
N1127 N 0.7081 0.52429 0.87167 0.0
C1128 C 0.7179 0.53896 0.84122 0.0
C1129 C 0.76244 0.47036 0.88047 0.0
C1130 C 0.73045 0.49365 0.89154 0.0
C1131 C 0.77217 0.48341 0.849 0.0
C1132 C 0.75013 0.51938 0.82951 0.0
H1133 H 0.74992 0.42317 0.99362 0.0
H1134 H 0.79159 0.40034 0.94893 0.0
H1135 H 0.80623 0.41057 0.89201 0.0
O1136 O 0.65345 0.43956 0.87769 0.0
O1137 O 0.69311 0.62045 0.89432 0.0
O1138 O 0.67531 0.67178 0.85032 0.0
O1139 O 0.62735 0.46867 0.92035 0.0
O1140 O 0.63474 0.53071 0.84351 0.0
O1141 O 0.63668 0.6307 0.8181 0.0
O1142 O 0.62752 0.79775 0.87509 0.0
O1143 O 0.58169 0.62666 0.85472 0.0
O1144 O 0.59991 0.57077 0.89826 0.0
O1145 O 0.64733 0.77437 0.82875 0.0
O1146 O 0.63346 0.70292 0.90876 0.0
O1147 O 0.63761 0.59955 0.93127 0.0
C1148 C 0.69717 0.6694 0.87398 0.0
C1149 C 0.64302 0.35708 0.91679 0.0
C1150 C 0.64347 0.23884 0.91265 0.0
C1151 C 0.64984 0.23411 0.94543 0.0
C1152 C 0.64782 0.35106 0.94989 0.0
C1153 C 0.65205 0.29011 0.96393 0.0
C1154 C 0.64073 0.30035 0.89825 0.0
C1155 C 0.63553 0.56583 0.81734 0.0
C1156 C 0.63507 0.42042 0.90185 0.0
C1157 C 0.77457 0.42714 0.9332 0.0
C1158 C 0.7834 0.43403 0.90101 0.0
C1159 C 0.57639 0.58091 0.8762 0.0
C1160 C 0.62871 0.88338 0.83638 0.0
C1161 C 0.62063 1.00033 0.84285 0.0
C1162 C 0.61023 1.00526 0.81098 0.0
C1163 C 0.62085 0.89074 0.80384 0.0
C1164 C 0.62822 0.9389 0.85593 0.0
C1165 C 0.61038 0.95052 0.79157 0.0
C1166 C 0.6364 0.66292 0.93376 0.0
C1167 C 0.64158 0.82049 0.84914 0.0
H1168 H 0.65202 0.18697 0.95678 0.0
H1169 H 0.64688 0.39279 0.96528 0.0
H1170 H 0.65584 0.28621 0.98941 0.0
H1171 H 0.63528 0.30382 0.87296 0.0
H1172 H 0.60391 0.05212 0.80074 0.0
H1173 H 0.624 0.85119 0.78742 0.0
H1174 H 0.63584 0.93509 0.88069 0.0
H1175 H 0.60393 0.95499 0.76658 0.0
Tb1176 Tb 0.35382 0.53822 0.625 0.0
C1177 C 0.46746 0.73683 0.66896 0.0
N1178 N 0.43625 0.71663 0.68035 0.0
C1179 C 0.46012 0.70691 0.73286 0.0
C1180 C 0.49663 0.74019 0.68895 0.0
C1181 C 0.43177 0.706 0.71228 0.0
C1182 C 0.49282 0.72212 0.72091 0.0
C1183 C 0.50251 0.77097 0.62392 0.0
C1184 C 0.47044 0.75184 0.63684 0.0
C1185 C 0.5316 0.7747 0.64377 0.0
C1186 C 0.52872 0.75906 0.67618 0.0
Tb1187 Tb 0.39296 0.7118 0.64358 0.0
N1188 N 0.44202 0.74522 0.61807 0.0
C1189 C 0.50439 0.78519 0.59135 0.0
C1190 C 0.44352 0.76073 0.58642 0.0
C1191 C 0.47475 0.78025 0.57255 0.0
H1192 H 0.40652 0.69747 0.72235 0.0
H1193 H 0.47587 0.79202 0.54743 0.0
H1194 H 0.3466 0.52924 0.54554 0.0
H1195 H 0.26191 0.5086 0.72 0.0
H1196 H 0.4207 0.75961 0.57173 0.0
H1197 H 0.52841 0.80072 0.58054 0.0
H1198 H 0.32055 0.51332 0.69654 0.0
H1199 H 0.45677 0.69556 0.75787 0.0
H1200 H 0.55639 0.78915 0.63415 0.0
H1201 H 0.55143 0.76132 0.69112 0.0
H1202 H 0.29907 0.51871 0.50752 0.0
H1203 H 0.51491 0.71848 0.73641 0.0
H1204 H 0.21117 0.51829 0.68516 0.0
N1205 N 0.31337 0.53843 0.58594 0.0
C1206 C 0.28029 0.53429 0.59684 0.0
C1207 C 0.2933 0.52677 0.53234 0.0
C1208 C 0.25223 0.53328 0.57557 0.0
C1209 C 0.32032 0.53274 0.55415 0.0
C1210 C 0.25904 0.52974 0.54288 0.0
N1211 N 0.30213 0.52854 0.6494 0.0
C1212 C 0.29824 0.5183 0.68135 0.0
C1213 C 0.24079 0.52719 0.64171 0.0
C1214 C 0.27447 0.52913 0.62948 0.0
C1215 C 0.23643 0.52066 0.6747 0.0
C1216 C 0.2652 0.51516 0.69458 0.0
H1217 H 0.23813 0.52679 0.52574 0.0
H1218 H 0.19677 0.53728 0.5715 0.0
H1219 H 0.18695 0.53444 0.63003 0.0
O1220 O 0.35321 0.44644 0.64728 0.0
O1221 O 0.3197 0.61998 0.64346 0.0
O1222 O 0.34205 0.71116 0.62122 0.0
O1223 O 0.35883 0.45514 0.59645 0.0
O1224 O 0.38121 0.54427 0.66919 0.0
O1225 O 0.37127 0.65 0.68299 0.0
O1226 O 0.39093 0.81035 0.63142 0.0
O1227 O 0.43361 0.63998 0.63114 0.0
O1228 O 0.41039 0.5357 0.62835 0.0
O1229 O 0.37475 0.77828 0.67795 0.0
O1230 O 0.37457 0.69719 0.59446 0.0
O1231 O 0.37987 0.58711 0.58521 0.0
C1232 C 0.31534 0.67953 0.63209 0.0
C1233 C 0.33747 0.35546 0.61634 0.0
C1234 C 0.33665 0.23833 0.62255 0.0
C1235 C 0.30568 0.23518 0.60517 0.0
C1236 C 0.30638 0.35249 0.59912 0.0
C1237 C 0.29051 0.2923 0.59369 0.0
C1238 C 0.35221 0.29849 0.62831 0.0
C1239 C 0.37898 0.58914 0.69079 0.0
C1240 C 0.3569 0.41574 0.62053 0.0
C1241 C 0.21844 0.53461 0.58767 0.0
C1242 C 0.21281 0.53239 0.62072 0.0
C1243 C 0.43675 0.57631 0.62793 0.0
C1244 C 0.39598 0.88656 0.67222 0.0
C1245 C 0.3995 1.00436 0.6711 0.0
C1246 C 0.42805 1.00228 0.69169 0.0
C1247 C 0.42424 0.88467 0.69319 0.0
C1248 C 0.38362 0.94649 0.66147 0.0
C1249 C 0.44022 0.94246 0.70282 0.0
C1250 C 0.37845 0.64751 0.57505 0.0
C1251 C 0.37976 0.82792 0.65921 0.0
H1252 H 0.29337 0.18876 0.60062 0.0
H1253 H 0.29477 0.39615 0.58956 0.0
H1254 H 0.26662 0.28987 0.58029 0.0
H1255 H 0.37631 0.30062 0.64155 0.0
H1256 H 0.44056 0.04678 0.69929 0.0
H1257 H 0.4341 0.83915 0.702 0.0
H1258 H 0.36188 0.94805 0.64518 0.0
H1259 H 0.46212 0.94085 0.71887 0.0
Tb1260 Tb 0.65326 0.48586 0.62014 0.0
C1261 C 0.53077 0.35346 0.67472 0.0
N1262 N 0.56445 0.34739 0.68385 0.0
C1263 C 0.54753 0.364 0.73837 0.0
C1264 C 0.50439 0.36731 0.69689 0.0
C1265 C 0.57227 0.34643 0.7157 0.0
C1266 C 0.51356 0.37583 0.72884 0.0
C1267 C 0.48729 0.33687 0.6337 0.0
C1268 C 0.52213 0.33807 0.64374 0.0
C1269 C 0.4612 0.35407 0.65514 0.0
C1270 C 0.46968 0.3681 0.68672 0.0
Tb1271 Tb 0.60307 0.3236 0.6435 0.0
N1272 N 0.54794 0.32 0.62386 0.0
C1273 C 0.47962 0.31492 0.60298 0.0
C1274 C 0.54027 0.29302 0.59505 0.0
C1275 C 0.50626 0.29161 0.58375 0.0
H1276 H 0.59756 0.33196 0.72403 0.0
H1277 H 0.50063 0.27193 0.56042 0.0
H1278 H 0.66852 0.51594 0.54422 0.0
H1279 H 0.73661 0.52745 0.72248 0.0
H1280 H 0.56045 0.27324 0.5809 0.0
H1281 H 0.45316 0.3132 0.59444 0.0
H1282 H 0.68104 0.5278 0.69451 0.0
H1283 H 0.55448 0.36663 0.76331 0.0
H1284 H 0.43427 0.35358 0.64797 0.0
H1285 H 0.44876 0.37588 0.70312 0.0
H1286 H 0.71986 0.52483 0.50943 0.0
H1287 H 0.49445 0.38779 0.74668 0.0
H1288 H 0.79064 0.50878 0.69256 0.0
N1289 N 0.69806 0.49864 0.58617 0.0
C1290 C 0.72984 0.49634 0.59947 0.0
C1291 C 0.72307 0.51574 0.53463 0.0
C1292 C 0.75974 0.49801 0.58046 0.0
C1293 C 0.69405 0.51106 0.55445 0.0
C1294 C 0.75609 0.50697 0.54752 0.0
N1295 N 0.70247 0.50039 0.64961 0.0
C1296 C 0.70388 0.51538 0.6813 0.0
C1297 C 0.76479 0.49781 0.64721 0.0
C1298 C 0.73218 0.49647 0.63238 0.0
C1299 C 0.7662 0.50659 0.68021 0.0
C1300 C 0.73567 0.51719 0.6972 0.0
H1301 H 0.77855 0.5094 0.53208 0.0
H1302 H 0.81514 0.4905 0.58053 0.0
H1303 H 0.8199 0.4911 0.63949 0.0
O1304 O 0.66185 0.58758 0.62425 0.0
O1305 O 0.68364 0.39314 0.61735 0.0
O1306 O 0.6592 0.32524 0.65503 0.0
O1307 O 0.62636 0.54608 0.58884 0.0
O1308 O 0.63172 0.48455 0.6685 0.0
O1309 O 0.63088 0.37612 0.68276 0.0
O1310 O 0.61477 0.23093 0.62525 0.0
O1311 O 0.57684 0.3985 0.61438 0.0
O1312 O 0.60104 0.48126 0.63921 0.0
O1313 O 0.58548 0.24093 0.66818 0.0
O1314 O 0.6222 0.32322 0.59363 0.0
O1315 O 0.63654 0.42928 0.57839 0.0
C1316 C 0.68512 0.34077 0.6358 0.0
C1317 C 0.63007 0.66326 0.58968 0.0
C1318 C 0.62395 0.7794 0.59955 0.0
C1319 C 0.60013 0.78298 0.57432 0.0
C1320 C 0.60629 0.66828 0.56448 0.0
C1321 C 0.59159 0.72792 0.55682 0.0
C1322 C 0.63997 0.7196 0.60638 0.0
C1323 C 0.63099 0.43882 0.69042 0.0
C1324 C 0.63939 0.59839 0.60163 0.0
C1325 C 0.79216 0.49286 0.59505 0.0
C1326 C 0.79475 0.49287 0.62842 0.0
C1327 C 0.57562 0.45996 0.62202 0.0
C1328 C 0.61836 0.14592 0.66245 0.0
C1329 C 0.6333 0.03116 0.6603 0.0
C1330 C 0.65658 0.0408 0.6856 0.0
C1331 C 0.64224 0.15524 0.68716 0.0
C1332 C 0.61278 0.08347 0.65017 0.0
C1333 C 0.66058 0.10233 0.69924 0.0
C1334 C 0.63087 0.36726 0.57189 0.0
C1335 C 0.59953 0.20054 0.64846 0.0
H1336 H 0.58799 0.82876 0.56827 0.0
H1337 H 0.59805 0.62571 0.55134 0.0
H1338 H 0.57278 0.7312 0.5378 0.0
H1339 H 0.65851 0.71645 0.62569 0.0
H1340 H 0.67208 1.00083 0.69443 0.0
H1341 H 0.64664 0.20318 0.69703 0.0
H1342 H 0.59374 0.07618 0.63152 0.0
H1343 H 0.67879 0.10934 0.71853 0.0
C1344 C 0.24011 0.25903 0.16892 0.0
C1345 C 0.2241 0.24016 0.13958 0.0
C1346 C 0.27543 0.28773 0.11195 0.0
C1347 C 0.28861 0.31505 0.14067 0.0
N1348 N 0.27708 0.33731 0.19595 0.0
N1349 N 0.22495 0.25447 0.08234 0.0
C1350 C 0.26907 0.30361 0.16899 0.0
C1351 C 0.24139 0.25964 0.11092 0.0
N1352 N 0.22926 0.23194 0.1969 0.0
N1353 N 0.29577 0.28621 0.08544 0.0
H1354 H 0.19954 0.23909 0.08028 0.0
H1355 H 0.23513 0.27252 0.06109 0.0
H1356 H 0.32095 0.30366 0.08536 0.0
H1357 H 0.289 0.2614 0.06473 0.0
H1358 H 0.24209 0.23952 0.21842 0.0
H1359 H 0.2104 0.19578 0.1981 0.0
H1360 H 0.26178 0.33583 0.21641 0.0
H1361 H 0.29659 0.37235 0.19652 0.0
C1362 C 0.77285 0.78835 0.16992 0.0
C1363 C 0.78748 0.81484 0.14121 0.0
C1364 C 0.73533 0.77224 0.11336 0.0
C1365 C 0.72415 0.73589 0.14038 0.0
N1366 N 0.73739 0.70319 0.19411 0.0
N1367 N 0.78477 0.81041 0.08359 0.0
C1368 C 0.74449 0.74216 0.16858 0.0
C1369 C 0.76928 0.80071 0.11239 0.0
N1370 N 0.78432 0.80977 0.1988 0.0
N1371 N 0.71287 0.7837 0.08904 0.0
H1372 H 0.81039 0.82532 0.08122 0.0
H1373 H 0.77338 0.79558 0.06226 0.0
H1374 H 0.6872 0.76813 0.0898 0.0
H1375 H 0.71887 0.81427 0.06996 0.0
H1376 H 0.77271 0.79621 0.22023 0.0
H1377 H 0.80225 0.8473 0.20123 0.0
H1378 H 0.75343 0.70063 0.21402 0.0
H1379 H 0.71733 0.66913 0.19405 0.0
C1380 C 0.27059 0.74455 0.39656 0.0
C1381 C 0.28866 0.72738 0.36807 0.0
C1382 C 0.24568 0.79565 0.33877 0.0
C1383 C 0.2258 0.80665 0.36704 0.0
N1384 N 0.2143 0.7645 0.41948 0.0
N1385 N 0.28568 0.72465 0.3107 0.0
C1386 C 0.23692 0.77367 0.39502 0.0
C1387 C 0.27405 0.74986 0.33878 0.0
N1388 N 0.28572 0.73566 0.42553 0.0
N1389 N 0.23813 0.82959 0.31174 0.0
H1390 H 0.30402 0.68771 0.30973 0.0
H1391 H 0.27407 0.73439 0.28882 0.0
H1392 H 0.21827 0.86354 0.31064 0.0
H1393 H 0.25387 0.82909 0.29157 0.0
H1394 H 0.27469 0.75267 0.44662 0.0
H1395 H 0.31072 0.71806 0.42809 0.0
H1396 H 0.2202 0.73676 0.43956 0.0
H1397 H 0.18841 0.77774 0.41769 0.0
C1398 C 0.77033 0.25038 0.3373 0.0
C1399 C 0.7886 0.2394 0.36644 0.0
C1400 C 0.73829 0.28835 0.39445 0.0
C1401 C 0.72233 0.308 0.36544 0.0
N1402 N 0.72863 0.31639 0.3084 0.0
N1403 N 0.79188 0.26694 0.42227 0.0
C1404 C 0.73987 0.29117 0.3366 0.0
C1405 C 0.77318 0.26444 0.39479 0.0
N1406 N 0.78089 0.21949 0.31027 0.0
N1407 N 0.71914 0.28688 0.42168 0.0
H1408 H 0.81772 0.25322 0.42328 0.0
H1409 H 0.78291 0.28969 0.44285 0.0
H1410 H 0.69233 0.29254 0.42132 0.0
H1411 H 0.72886 0.27154 0.44355 0.0
H1412 H 0.76668 0.22007 0.28918 0.0
H1413 H 0.80165 0.18733 0.30995 0.0
H1414 H 0.7423 0.31149 0.28713 0.0
H1415 H 0.708 0.34868 0.30696 0.0
C1416 C 0.73658 0.75412 0.90302 0.0
C1417 C 0.72872 0.71676 0.87508 0.0
C1418 C 0.77688 0.77779 0.84827 0.0
C1419 C 0.78774 0.80565 0.87766 0.0
N1420 N 0.77751 0.81834 0.93375 0.0
N1421 N 0.74509 0.6935 0.82052 0.0
C1422 C 0.76768 0.79232 0.90522 0.0
C1423 C 0.74986 0.72915 0.84754 0.0
N1424 N 0.71246 0.7595 0.92641 0.0
N1425 N 0.79148 0.7993 0.82054 0.0
H1426 H 0.72477 0.6612 0.81743 0.0
H1427 H 0.7628 0.69275 0.8018 0.0
H1428 H 0.81055 0.83505 0.8199 0.0
H1429 H 0.78228 0.78686 0.79805 0.0
H1430 H 0.71453 0.79086 0.94577 0.0
H1431 H 0.68824 0.73933 0.92396 0.0
H1432 H 0.7671 0.80351 0.9555 0.0
H1433 H 0.79737 0.85251 0.93582 0.0
C1434 C 0.26506 0.30195 0.84637 0.0
C1435 C 0.28326 0.31747 0.87502 0.0
C1436 C 0.2415 0.24487 0.90384 0.0
C1437 C 0.22509 0.22524 0.87465 0.0
N1438 N 0.23087 0.22332 0.8172 0.0
N1439 N 0.2917 0.29069 0.93046 0.0
C1440 C 0.23957 0.25065 0.84575 0.0
C1441 C 0.27214 0.28534 0.9035 0.0
N1442 N 0.27087 0.33779 0.81947 0.0
N1443 N 0.22755 0.22721 0.9325 0.0
H1444 H 0.31364 0.31968 0.93197 0.0
H1445 H 0.28817 0.26147 0.95049 0.0
H1446 H 0.2065 0.19643 0.93522 0.0
H1447 H 0.23509 0.24783 0.95407 0.0
H1448 H 0.25536 0.33428 0.79924 0.0
H1449 H 0.28858 0.3758 0.8183 0.0
H1450 H 0.24346 0.23482 0.79595 0.0
H1451 H 0.2146 0.18326 0.81501 0.0
C1452 C 0.72549 0.25596 0.60963 0.0
C1453 C 0.71793 0.29835 0.63549 0.0
C1454 C 0.76844 0.25026 0.66345 0.0
C1455 C 0.77969 0.21633 0.63553 0.0
N1456 N 0.76939 0.20167 0.57869 0.0
N1457 N 0.73903 0.34519 0.68416 0.0
C1458 C 0.75837 0.22341 0.60768 0.0
C1459 C 0.74155 0.29833 0.66146 0.0
N1460 N 0.70079 0.24409 0.58723 0.0
N1461 N 0.78126 0.23368 0.6926 0.0
H1462 H 0.72098 0.38243 0.68237 0.0
H1463 H 0.75732 0.35117 0.70219 0.0
H1464 H 0.79649 0.1927 0.69611 0.0
H1465 H 0.77227 0.25418 0.71374 0.0
H1466 H 0.70337 0.20866 0.56967 0.0
H1467 H 0.67635 0.26474 0.58834 0.0
H1468 H 0.75644 0.21236 0.55754 0.0
H1469 H 0.79287 0.17881 0.5748 0.0
C1470 C 0.24486 0.80194 0.65992 0.0
C1471 C 0.22083 0.80135 0.63413 0.0
C1472 C 0.25835 0.71963 0.60733 0.0
C1473 C 0.28098 0.71652 0.63409 0.0
N1474 N 0.29335 0.75139 0.68748 0.0
N1475 N 0.20164 0.74698 0.58652 0.0
C1476 C 0.27332 0.75663 0.66087 0.0
C1477 C 0.22682 0.75662 0.60878 0.0
N1478 N 0.24126 0.84784 0.6831 0.0
N1479 N 0.26748 0.68898 0.5798 0.0
H1480 H 0.17832 0.7719 0.58697 0.0
H1481 H 0.20249 0.71013 0.56955 0.0
H1482 H 0.28982 0.6611 0.57784 0.0
H1483 H 0.25456 0.69554 0.55826 0.0
H1484 H 0.25953 0.85666 0.70078 0.0
H1485 H 0.221 0.88102 0.68305 0.0
H1486 H 0.28734 0.77277 0.70924 0.0
H1487 H 0.31501 0.72157 0.68833 0.0
C1488 C 0.13977 0.95564 0.2536 0.0
C1489 C 0.1233 0.9795 0.28156 0.0
C1490 C 0.10358 0.0741 0.24898 0.0
C1491 C 0.12011 0.04979 0.22123 0.0
N1492 N 0.13186 0.94458 0.19718 0.0
N1493 N 0.07919 0.05329 0.30089 0.0
C1494 C 0.1318 0.98377 0.22336 0.0
C1495 C 0.10247 0.03663 0.27788 0.0
N1496 N 0.164 0.90771 0.25517 0.0
N1497 N 0.08671 0.13156 0.24776 0.0
H1498 H 0.07685 0.02962 0.32253 0.0
H1499 H 0.05905 0.08567 0.29675 0.0
H1500 H 0.0751 0.14737 0.22696 0.0
H1501 H 0.08201 0.15927 0.26799 0.0
H1502 H 0.17818 0.89332 0.23522 0.0
H1503 H 0.17288 0.88805 0.27643 0.0
H1504 H 0.13866 0.89558 0.19835 0.0
H1505 H 0.11909 0.95709 0.17621 0.0
C1506 C 0.8742 0.09116 0.2581 0.0
C1507 C 0.87991 0.05604 0.28691 0.0
C1508 C 0.87667 0.95513 0.25438 0.0
C1509 C 0.87769 0.9911 0.22569 0.0
N1510 N 0.89039 0.09646 0.20281 0.0
N1511 N 0.89845 0.94995 0.30774 0.0
C1512 C 0.88034 0.06006 0.22828 0.0
C1513 C 0.88476 0.98667 0.28374 0.0
N1514 N 0.86098 0.15252 0.2583 0.0
N1515 N 0.86683 0.8914 0.25426 0.0
H1516 H 0.90879 0.96894 0.32853 0.0
H1517 H 0.90422 0.9008 0.30484 0.0
H1518 H 0.85919 0.86727 0.23359 0.0
H1519 H 0.86289 0.86504 0.27522 0.0
H1520 H 0.85445 0.17688 0.23733 0.0
H1521 H 0.85248 0.17569 0.27882 0.0
H1522 H 0.89472 0.14645 0.20434 0.0
H1523 H 0.89916 0.07512 0.18194 0.0
C1524 C 0.87893 0.97053 0.72522 0.0
C1525 C 0.87044 0.03695 0.72054 0.0
C1526 C 0.85479 0.04283 0.77738 0.0
C1527 C 0.86336 0.975 0.78224 0.0
N1528 N 0.86717 0.87199 0.75487 0.0
N1529 N 0.84494 0.13396 0.74144 0.0
C1530 C 0.87063 0.93798 0.75446 0.0
C1531 C 0.85712 0.07241 0.74652 0.0
N1532 N 0.89645 0.93866 0.70201 0.0
N1533 N 0.843 0.07971 0.80196 0.0
H1534 H 0.84804 0.15849 0.71991 0.0
H1535 H 0.83007 0.15979 0.75775 0.0
H1536 H 0.82999 0.06005 0.82126 0.0
H1537 H 0.845 0.13019 0.80261 0.0
H1538 H 0.9053 0.8912 0.70471 0.0
H1539 H 0.90551 0.96323 0.68193 0.0
H1540 H 0.86971 0.84339 0.73454 0.0
H1541 H 0.85636 0.8469 0.77397 0.0
C1542 C 0.10703 0.05976 0.75795 0.0
C1543 C 0.12669 0.03747 0.78456 0.0
C1544 C 0.15044 0.95115 0.74898 0.0
C1545 C 0.13089 0.97387 0.72271 0.0
N1546 N 0.07842 0.02913 0.70921 0.0
N1547 N 0.14602 0.93317 0.80529 0.0
C1548 C 0.10611 0.02312 0.729 0.0
C1549 C 0.14292 0.97506 0.78027 0.0
N1550 N 0.08637 0.11249 0.7605 0.0
N1551 N 0.17539 0.90533 0.74482 0.0
H1552 H 0.13158 0.93913 0.82605 0.0
H1553 H 0.15631 0.88661 0.80292 0.0
H1554 H 0.18082 0.88488 0.72275 0.0
H1555 H 0.19204 0.89154 0.76318 0.0
H1556 H 0.0771 0.13765 0.74068 0.0
H1557 H 0.07635 0.12643 0.78217 0.0
H1558 H 0.05696 0.05742 0.71481 0.0
H1559 H 0.07446 0.99755 0.69023 0.0
C1560 C 0.6327 0.44749 0.25318 0.0
C1561 C 0.62458 0.48148 0.28156 0.0
C1562 C 0.62816 0.58164 0.24943 0.0
C1563 C 0.62757 0.54702 0.22039 0.0
N1564 N 0.61754 0.43899 0.19802 0.0
N1565 N 0.602 0.58469 0.30104 0.0
C1566 C 0.62564 0.47745 0.22324 0.0
C1567 C 0.61768 0.54951 0.27783 0.0
N1568 N 0.64998 0.38998 0.25399 0.0
N1569 N 0.64225 0.64213 0.25122 0.0
H1570 H 0.58936 0.56288 0.32014 0.0
H1571 H 0.59747 0.63436 0.29826 0.0
H1572 H 0.6564 0.66207 0.23244 0.0
H1573 H 0.64465 0.6668 0.27283 0.0
H1574 H 0.65818 0.36648 0.23331 0.0
H1575 H 0.6606 0.37154 0.27485 0.0
H1576 H 0.61691 0.38844 0.19994 0.0
H1577 H 0.60703 0.45723 0.17709 0.0
C1578 C 0.37685 0.58993 0.2575 0.0
C1579 C 0.37996 0.55092 0.28539 0.0
C1580 C 0.3735 0.45588 0.24967 0.0
C1581 C 0.37953 0.49371 0.22184 0.0
N1582 N 0.39702 0.60328 0.20395 0.0
N1583 N 0.3929 0.43914 0.30305 0.0
C1584 C 0.38469 0.56249 0.22707 0.0
C1585 C 0.38231 0.48177 0.28006 0.0
N1586 N 0.36465 0.65205 0.25897 0.0
N1587 N 0.35773 0.39655 0.24817 0.0
H1588 H 0.40284 0.45191 0.32508 0.0
H1589 H 0.39595 0.38973 0.29828 0.0
H1590 H 0.34671 0.37802 0.22754 0.0
H1591 H 0.35109 0.3704 0.26863 0.0
H1592 H 0.35955 0.67935 0.23854 0.0
H1593 H 0.35486 0.67295 0.27957 0.0
H1594 H 0.40214 0.65213 0.20855 0.0
H1595 H 0.40627 0.58927 0.18186 0.0
C1596 C 0.40485 0.48495 0.76342 0.0
C1597 C 0.38301 0.50882 0.78802 0.0
C1598 C 0.35887 0.58708 0.74925 0.0
C1599 C 0.38144 0.56513 0.72491 0.0
N1600 N 0.43362 0.50443 0.71346 0.0
N1601 N 0.35735 0.61117 0.805 0.0
C1602 C 0.4065 0.51715 0.73329 0.0
C1603 C 0.36511 0.56826 0.78139 0.0
N1604 N 0.42551 0.4327 0.76869 0.0
N1605 N 0.33074 0.62411 0.74217 0.0
H1606 H 0.37005 0.61024 0.8268 0.0
H1607 H 0.345 0.65529 0.80055 0.0
H1608 H 0.32326 0.63378 0.71887 0.0
H1609 H 0.31254 0.63723 0.75938 0.0
H1610 H 0.43632 0.40606 0.75034 0.0
H1611 H 0.43247 0.41657 0.79112 0.0
H1612 H 0.45633 0.4827 0.72151 0.0
H1613 H 0.43514 0.52038 0.69011 0.0
C1614 C 0.6062 0.54388 0.76301 0.0
C1615 C 0.63268 0.52847 0.78554 0.0
C1616 C 0.65464 0.44541 0.74721 0.0
C1617 C 0.62895 0.46213 0.72474 0.0
N1618 N 0.57405 0.5131 0.71545 0.0
N1619 N 0.67306 0.44333 0.80158 0.0
C1620 C 0.60312 0.50783 0.73379 0.0
C1621 C 0.65425 0.47326 0.7784 0.0
N1622 N 0.58259 0.59084 0.77013 0.0
N1623 N 0.68029 0.40331 0.7388 0.0
H1624 H 0.67313 0.45734 0.825 0.0
H1625 H 0.68548 0.3989 0.79847 0.0
H1626 H 0.67925 0.37527 0.71829 0.0
H1627 H 0.70332 0.3986 0.75153 0.0
H1628 H 0.56619 0.61189 0.75338 0.0
H1629 H 0.5797 0.60949 0.79298 0.0
H1630 H 0.55222 0.53931 0.72204 0.0
H1631 H 0.57011 0.48479 0.69522 0.0
C1632 C 0.09554 0.13272 0.98712 0.0
C1633 C 0.12194 0.16637 0.96998 0.0
C1634 C 0.13862 0.22033 0.02077 0.0
C1635 C 0.11764 0.17568 0.0384 0.0
N1636 N 0.0707 0.09877 0.03768 0.0
N1637 N 0.15881 0.26206 0.96984 0.0
C1638 C 0.09444 0.13492 0.02121 0.0
C1639 C 0.14077 0.21599 0.98655 0.0
N1640 N 0.06929 0.1039 0.97048 0.0
N1641 N 0.15682 0.26701 0.03661 0.0
H1642 H 0.1601 0.26448 0.94526 0.0
H1643 H 0.17044 0.30273 0.97988 0.0
H1644 H 0.15006 0.28296 0.05922 0.0
H1645 H 0.17827 0.29117 0.02733 0.0
H1646 H 0.04751 0.08292 0.98088 0.0
H1647 H 0.06709 0.10822 0.94584 0.0
H1648 H 0.05687 0.06019 0.0279 0.0
H1649 H 0.06521 0.10725 0.06165 0.0
C1650 C 0.87018 0.83027 0.98986 0.0
C1651 C 0.8876 0.88076 0.97256 0.0
C1652 C 0.91145 0.92079 0.0237 0.0
C1653 C 0.89151 0.87445 0.04153 0.0
N1654 N 0.86025 0.77228 0.03952 0.0
N1655 N 0.92342 0.97743 0.97487 0.0
C1656 C 0.87345 0.82532 0.02404 0.0
C1657 C 0.90807 0.92605 0.99004 0.0
N1658 N 0.84807 0.78963 0.97411 0.0
N1659 N 0.93548 0.95899 0.03861 0.0
H1660 H 0.92735 0.97984 0.95056 0.0
H1661 H 0.93119 0.01975 0.98648 0.0
H1662 H 0.93824 0.96271 0.06299 0.0
H1663 H 0.95527 0.98345 0.02666 0.0
H1664 H 0.8298 0.7603 0.98541 0.0
H1665 H 0.84587 0.7881 0.94951 0.0
H1666 H 0.85096 0.73115 0.02791 0.0
H1667 H 0.86165 0.76499 0.0639 0.0
C1668 C 0.11137 0.81948 0.48354 0.0
C1669 C 0.13864 0.85138 0.46711 0.0
C1670 C 0.16771 0.86543 0.51927 0.0
C1671 C 0.13587 0.85289 0.5354 0.0
N1672 N 0.07678 0.81543 0.53137 0.0
N1673 N 0.19936 0.87326 0.46939 0.0
C1674 C 0.10769 0.82818 0.51716 0.0
C1675 C 0.16884 0.8658 0.48512 0.0
N1676 N 0.09136 0.77522 0.46801 0.0
N1677 N 0.19686 0.87712 0.53675 0.0
H1678 H 0.20064 0.87192 0.44476 0.0
H1679 H 0.22355 0.87526 0.48013 0.0
H1680 H 0.19753 0.871 0.56128 0.0
H1681 H 0.22042 0.89278 0.52751 0.0
H1682 H 0.07275 0.7468 0.47948 0.0
H1683 H 0.09732 0.75996 0.44501 0.0
H1684 H 0.05452 0.80329 0.51863 0.0
H1685 H 0.07298 0.82266 0.55551 0.0
C1686 C 0.86518 0.20589 0.52337 0.0
C1687 C 0.88507 0.16036 0.54119 0.0
C1688 C 0.90866 0.11724 0.49151 0.0
C1689 C 0.88945 0.1632 0.47287 0.0
N1690 N 0.86039 0.26783 0.47452 0.0
N1691 N 0.93908 0.10311 0.54104 0.0
C1692 C 0.87115 0.21287 0.48976 0.0
C1693 C 0.91096 0.12559 0.52488 0.0
N1694 N 0.8404 0.2424 0.53795 0.0
N1695 N 0.92435 0.06418 0.47841 0.0
H1696 H 0.94286 0.1131 0.56513 0.0
H1697 H 0.96038 0.08267 0.52952 0.0
H1698 H 0.92526 0.05353 0.45431 0.0
H1699 H 0.93495 0.02733 0.49245 0.0
H1700 H 0.82172 0.26826 0.52531 0.0
H1701 H 0.8375 0.245 0.56249 0.0
H1702 H 0.84915 0.30692 0.48636 0.0
H1703 H 0.86703 0.27918 0.45122 0.0
C1704 C 0.66955 0.67702 0.01931 0.0
C1705 C 0.63791 0.6876 0.03544 0.0
C1706 C 0.61372 0.72138 0.98343 0.0
C1707 C 0.64071 0.6881 0.96746 0.0
N1708 N 0.69835 0.64286 0.97174 0.0
N1709 N 0.58142 0.73759 0.03223 0.0
C1710 C 0.66993 0.66917 0.98585 0.0
C1711 C 0.61033 0.71537 0.01738 0.0
N1712 N 0.69987 0.6787 0.03573 0.0
N1713 N 0.59361 0.76367 0.96677 0.0
H1714 H 0.58087 0.74687 0.05647 0.0
H1715 H 0.55862 0.74862 0.02012 0.0
H1716 H 0.5998 0.77658 0.94344 0.0
H1717 H 0.57471 0.79274 0.97721 0.0
H1718 H 0.72399 0.68253 0.02469 0.0
H1719 H 0.70062 0.68098 0.06036 0.0
H1720 H 0.71848 0.62146 0.98447 0.0
H1721 H 0.70114 0.63973 0.94737 0.0
C1722 C 0.37571 0.32296 0.98601 0.0
C1723 C 0.39231 0.37362 0.96848 0.0
C1724 C 0.41124 0.42451 0.01809 0.0
C1725 C 0.3918 0.3786 0.03673 0.0
N1726 N 0.36221 0.27431 0.03743 0.0
N1727 N 0.44273 0.44099 0.96927 0.0
C1728 C 0.37637 0.32433 0.0204 0.0
C1729 C 0.4152 0.41462 0.98501 0.0
N1730 N 0.3619 0.27113 0.9701 0.0
N1731 N 0.42551 0.47942 0.03097 0.0
H1732 H 0.44755 0.43094 0.94534 0.0
H1733 H 0.46281 0.46524 0.98091 0.0
H1734 H 0.42704 0.48996 0.05506 0.0
H1735 H 0.43508 0.51721 0.01685 0.0
H1736 H 0.34907 0.23227 0.98063 0.0
H1737 H 0.36552 0.26318 0.94594 0.0
H1738 H 0.34525 0.23981 0.02832 0.0
H1739 H 0.36867 0.26426 0.06087 0.0
C1740 C 0.6102 0.31843 0.48601 0.0
C1741 C 0.63647 0.35454 0.46955 0.0
C1742 C 0.66674 0.36658 0.52136 0.0
C1743 C 0.63635 0.34761 0.53742 0.0
N1744 N 0.59715 0.25811 0.534 0.0
N1745 N 0.69569 0.3916 0.47203 0.0
C1746 C 0.6124 0.31026 0.51981 0.0
C1747 C 0.66663 0.37184 0.48745 0.0
N1748 N 0.58376 0.28953 0.46995 0.0
N1749 N 0.69671 0.37137 0.53841 0.0
H1750 H 0.69818 0.38842 0.44754 0.0
H1751 H 0.71731 0.4104 0.48344 0.0
H1752 H 0.69726 0.36459 0.56291 0.0
H1753 H 0.72134 0.37496 0.52853 0.0
H1754 H 0.56124 0.27361 0.4813 0.0
H1755 H 0.58515 0.27795 0.44599 0.0
H1756 H 0.58115 0.22542 0.52204 0.0
H1757 H 0.60593 0.24117 0.55596 0.0
C1758 C 0.36185 0.7004 0.52156 0.0
C1759 C 0.38354 0.65927 0.54002 0.0
C1760 C 0.40666 0.61225 0.49116 0.0
C1761 C 0.38642 0.65565 0.47184 0.0
N1762 N 0.35515 0.75857 0.47204 0.0
N1763 N 0.43799 0.60338 0.54058 0.0
C1764 C 0.36739 0.70548 0.48794 0.0
C1765 C 0.40955 0.62396 0.52423 0.0
N1766 N 0.33529 0.73347 0.53545 0.0
N1767 N 0.42265 0.55838 0.47916 0.0
H1768 H 0.44209 0.61583 0.56434 0.0
H1769 H 0.45921 0.58189 0.52941 0.0
H1770 H 0.4234 0.54491 0.45542 0.0
H1771 H 0.43382 0.52336 0.49391 0.0
H1772 H 0.31597 0.75645 0.52228 0.0
H1773 H 0.33109 0.73443 0.55987 0.0
H1774 H 0.34353 0.79761 0.48364 0.0
H1775 H 0.36043 0.76878 0.44834 0.0
C1776 C 1.00145 0.96702 0.10874 0.0
C1777 C 0.9755 0.9839 0.13186 0.0
C1778 C 0.01718 0.06052 0.15617 0.0
C1779 C 0.04222 0.04661 0.13221 0.0
N1780 N 0.06056 0.97611 0.08961 0.0
N1781 N 0.96572 0.02567 0.18455 0.0
C1782 C 0.03505 0.99658 0.10983 0.0
C1783 C 0.98527 0.02526 0.15741 0.0
N1784 N 0.9943 0.92408 0.08484 0.0
N1785 N 0.02433 0.10609 0.17874 0.0
H1786 H 0.94463 0.9948 0.18774 0.0
H1787 H 0.97274 0.04963 0.20539 0.0
H1788 H 0.04881 0.12622 0.18125 0.0
H1789 H 1.00577 0.12571 0.19393 0.0
H1790 H 0.00899 0.92019 0.06413 0.0
H1791 H 0.97309 0.89336 0.08436 0.0
H1792 H 0.05972 0.93234 0.07723 0.0
H1793 H 0.08372 1.00091 0.0862 0.0
C1794 C 0.98183 1.01903 0.35234 0.0
C1795 C 0.96931 0.04496 0.38153 0.0
C1796 C 0.02512 1.01268 0.40666 0.0
C1797 C 0.03724 0.9849 0.37766 0.0
N1798 N 0.02201 0.95151 0.32368 0.0
N1799 N 0.98682 0.08836 0.43269 0.0
C1800 C 0.01404 0.98465 0.35092 0.0
C1801 C 0.99314 0.04806 0.40759 0.0
N1802 N 0.96539 0.0352 0.32469 0.0
N1803 N 0.04268 1.00095 0.43435 0.0
H1804 H 0.9651 0.11758 0.43438 0.0
H1805 H 1.00518 0.09889 0.45012 0.0
H1806 H 0.06469 0.97191 0.43559 0.0
H1807 H 0.03299 1.01296 0.45675 0.0
H1808 H 0.9753 0.02575 0.30207 0.0
H1809 H 0.94411 0.06585 0.32427 0.0
H1810 H 1.00346 0.93958 0.30662 0.0
H1811 H 0.04634 0.93365 0.31801 0.0
C1812 C 0.01477 0.05812 0.85527 0.0
C1813 C 0.03893 0.0408 0.87942 0.0
C1814 C 0.99319 0.9716 0.90395 0.0
C1815 C 0.96842 0.99358 0.88114 0.0
N1816 N 0.9553 0.0647 0.83719 0.0
N1817 N 0.05052 0.98204 0.92784 0.0
C1818 C 0.97921 0.03887 0.85749 0.0
C1819 C 0.02791 0.99759 0.90403 0.0
N1820 N 0.02646 0.08964 0.8288 0.0
N1821 N 0.98379 0.92418 0.92505 0.0
H1822 H 0.07626 0.99714 0.92783 0.0
H1823 H 0.0436 0.9576 0.9486 0.0
H1824 H 0.95899 0.90434 0.92561 0.0
H1825 H 1.00073 0.90131 0.94067 0.0
H1826 H 0.01172 0.09751 0.8084 0.0
H1827 H 0.0523 0.10234 0.82631 0.0
H1828 H 0.9603 0.10415 0.82229 0.0
H1829 H 0.92953 0.05011 0.83701 0.0
C1830 C 0.98002 0.9894 0.59472 0.0
C1831 C 0.9687 0.02692 0.62153 0.0
C1832 C 0.02984 0.03803 0.63734 0.0
C1833 C 0.04092 0.99115 0.61503 0.0
N1834 N 0.02683 0.93161 0.56765 0.0
N1835 N 0.98418 0.06364 0.67414 0.0
C1836 C 0.01586 0.9691 0.59241 0.0
C1837 C 0.99406 0.04429 0.64449 0.0
N1838 N 0.95722 0.97499 0.57092 0.0
N1839 N 0.0528 0.08096 0.65 0.0
H1840 H 0.95838 0.06302 0.68149 0.0
H1841 H 1.00203 0.07121 0.69236 0.0
H1842 H 0.07781 0.08703 0.64119 0.0
H1843 H 0.04539 0.11558 0.66659 0.0
H1844 H 0.9639 0.95222 0.54972 0.0
H1845 H 0.93154 0.98961 0.57114 0.0
H1846 H 0.01048 0.90537 0.55274 0.0
H1847 H 0.053 0.92765 0.56193 0.0
C1848 C 0.48845 0.52544 0.15244 0.0
C1849 C 0.47392 0.49757 0.12427 0.0
C1850 C 0.53077 0.51823 0.09737 0.0
C1851 C 0.54539 0.54374 0.12573 0.0
N1852 N 0.53937 0.5597 0.18215 0.0
N1853 N 0.48829 0.44723 0.07357 0.0
C1854 C 0.52446 0.54404 0.15373 0.0
C1855 C 0.49705 0.48825 0.09778 0.0
N1856 N 0.4682 0.53154 0.17884 0.0
N1857 N 0.54906 0.52264 0.06956 0.0
H1858 H 0.46552 0.42057 0.07298 0.0
H1859 H 0.50557 0.43314 0.05583 0.0
H1860 H 0.57416 0.54137 0.06836 0.0
H1861 H 0.53827 0.51264 0.04735 0.0
H1862 H 0.47461 0.56022 0.19839 0.0
H1863 H 0.4446 0.50777 0.18101 0.0
H1864 H 0.52751 0.55339 0.20421 0.0
H1865 H 0.56474 0.57594 0.18378 0.0
C1866 C 0.49415 0.54077 0.40906 0.0
C1867 C 0.4712 0.53591 0.38225 0.0
C1868 C 0.52074 0.49054 0.35144 0.0
C1869 C 0.54159 0.48792 0.37934 0.0
N1870 N 0.54547 0.50098 0.43614 0.0
N1871 N 0.46478 0.50775 0.32691 0.0
C1872 C 0.52732 0.5097 0.40852 0.0
C1873 C 0.48515 0.51045 0.35332 0.0
N1874 N 0.48584 0.57875 0.43454 0.0
N1875 N 0.53522 0.47545 0.32271 0.0
H1876 H 0.44159 0.53275 0.32543 0.0
H1877 H 0.47064 0.48074 0.30667 0.0
H1878 H 0.56003 0.45658 0.3207 0.0
H1879 H 0.52355 0.48419 0.30079 0.0
H1880 H 0.50315 0.58946 0.45283 0.0
H1881 H 0.46375 0.60694 0.4358 0.0
H1882 H 0.53462 0.5078 0.45862 0.0
H1883 H 0.57041 0.48174 0.43679 0.0
C1884 C 0.4891 0.50714 0.85074 0.0
C1885 C 0.46877 0.50889 0.87889 0.0
C1886 C 0.51958 0.55583 0.90712 0.0
C1887 C 0.54018 0.55149 0.87883 0.0
N1888 N 0.54579 0.50414 0.82663 0.0
N1889 N 0.46247 0.55598 0.93114 0.0
C1890 C 0.52516 0.522 0.8515 0.0
C1891 C 0.48339 0.53915 0.90632 0.0
N1892 N 0.47295 0.49856 0.82229 0.0
N1893 N 0.53454 0.57212 0.93551 0.0
H1894 H 0.43648 0.54343 0.93237 0.0
H1895 H 0.47011 0.58709 0.94939 0.0
H1896 H 0.56048 0.58377 0.93825 0.0
H1897 H 0.52197 0.56753 0.95736 0.0
H1898 H 0.48533 0.50216 0.80028 0.0
H1899 H 0.44614 0.49912 0.82099 0.0
H1900 H 0.53711 0.47627 0.80751 0.0
H1901 H 0.57247 0.51 0.82711 0.0
C1902 C 0.49924 0.56602 0.64613 0.0
C1903 C 0.47279 0.54776 0.62447 0.0
C1904 C 0.5162 0.47925 0.59654 0.0
C1905 C 0.54198 0.49778 0.61901 0.0
N1906 N 0.55975 0.58786 0.65253 0.0
N1907 N 0.45586 0.47951 0.58011 0.0
C1908 C 0.53419 0.5497 0.64005 0.0
C1909 C 0.48122 0.50226 0.59987 0.0
N1910 N 0.49104 0.59463 0.67429 0.0
N1911 N 0.52607 0.44534 0.57008 0.0
H1912 H 0.43092 0.49825 0.57943 0.0
H1913 H 0.45892 0.43964 0.56517 0.0
H1914 H 0.55189 0.43442 0.56522 0.0
H1915 H 0.50978 0.43468 0.55106 0.0
H1916 H 0.50901 0.60031 0.6926 0.0
H1917 H 0.4658 0.60561 0.68066 0.0
H1918 H 0.55453 0.62836 0.66661 0.0
H1919 H 0.58527 0.58646 0.64479 0.0
C1920 C 0.1663 0.67171 0.12933 0.0
C1921 C 0.15245 0.70176 0.10168 0.0
C1922 C 0.11057 0.61272 0.09565 0.0
C1923 C 0.12289 0.58497 0.1244 0.0
N1924 N 0.15954 0.59029 0.17083 0.0
N1925 N 0.10827 0.70746 0.06124 0.0
C1926 C 0.15 0.61508 0.14188 0.0
C1927 C 0.12368 0.67406 0.08557 0.0
N1928 N 0.19551 0.69664 0.14314 0.0
N1929 N 0.08685 0.57964 0.07769 0.0
H1930 H 0.1173 0.75233 0.05309 0.0
H1931 H 0.08509 0.69333 0.05066 0.0
H1932 H 0.07626 0.53514 0.08468 0.0
H1933 H 0.07956 0.59358 0.05482 0.0
H1934 H 0.20932 0.67318 0.16105 0.0
H1935 H 0.20749 0.73922 0.13524 0.0
H1936 H 0.17626 0.61374 0.1865 0.0
H1937 H 0.14904 0.54768 0.18031 0.0
C1938 C 0.85875 0.3815 0.15159 0.0
C1939 C 0.86717 0.35489 0.12137 0.0
C1940 C 0.90529 0.44792 0.11028 0.0
C1941 C 0.89853 0.47254 0.14122 0.0
N1942 N 0.87347 0.4582 0.19339 0.0
N1943 N 0.90296 0.356 0.07427 0.0
C1944 C 0.87656 0.43797 0.1625 0.0
C1945 C 0.89188 0.38604 0.10144 0.0
N1946 N 0.83332 0.35332 0.16966 0.0
N1947 N 0.92352 0.48482 0.08893 0.0
H1948 H 0.89302 0.31166 0.06644 0.0
H1949 H 0.92392 0.37235 0.06081 0.0
H1950 H 0.93379 0.53033 0.09452 0.0
H1951 H 0.92608 0.47294 0.06494 0.0
H1952 H 0.82286 0.37475 0.18994 0.0
H1953 H 0.82103 0.31006 0.16327 0.0
H1954 H 0.86086 0.4315 0.21102 0.0
H1955 H 0.88552 0.50003 0.20202 0.0
C1956 C 0.16271 0.37453 0.36648 0.0
C1957 C 0.15298 0.34787 0.39637 0.0
C1958 C 0.11286 0.43841 0.40529 0.0
C1959 C 0.12057 0.46231 0.37439 0.0
N1960 N 0.15032 0.45115 0.32406 0.0
N1961 N 0.11558 0.34802 0.44238 0.0
C1962 C 0.1448 0.42973 0.35453 0.0
C1963 C 0.12718 0.37811 0.41531 0.0
N1964 N 0.18966 0.34786 0.3499 0.0
N1965 N 0.09229 0.47394 0.42521 0.0
H1966 H 0.12589 0.30443 0.45079 0.0
H1967 H 0.0941 0.36352 0.45527 0.0
H1968 H 0.08047 0.51726 0.41831 0.0
H1969 H 0.08887 0.4631 0.44925 0.0
H1970 H 0.20087 0.36931 0.32991 0.0
H1971 H 0.20263 0.30615 0.35739 0.0
H1972 H 0.16413 0.42512 0.30705 0.0
H1973 H 0.13958 0.49382 0.31503 0.0
C1974 C 0.85706 0.58874 0.39069 0.0
C1975 C 0.8735 0.57735 0.36069 0.0
C1976 C 0.88211 0.6953 0.35416 0.0
C1977 C 0.86845 0.70591 0.38495 0.0
N1978 N 0.83649 0.6668 0.43008 0.0
N1979 N 0.91016 0.61938 0.31876 0.0
C1980 C 0.85422 0.65353 0.40259 0.0
C1981 C 0.88808 0.63068 0.34362 0.0
N1982 N 0.84521 0.53769 0.40839 0.0
N1983 N 0.88888 0.74702 0.33467 0.0
H1984 H 0.91789 0.57285 0.31204 0.0
H1985 H 0.92395 0.65599 0.30722 0.0
H1986 H 0.88548 0.79504 0.34186 0.0
H1987 H 0.89527 0.74206 0.31067 0.0
H1988 H 0.83768 0.54099 0.4321 0.0
H1989 H 0.84443 0.49042 0.40001 0.0
H1990 H 0.82248 0.63281 0.44317 0.0
H1991 H 0.83338 0.71397 0.43869 0.0
C1992 C 0.87334 0.40689 0.89634 0.0
C1993 C 0.88243 0.35189 0.87751 0.0
C1994 C 0.8948 0.4245 0.8324 0.0
C1995 C 0.88039 0.4773 0.84934 0.0
N1996 N 0.85319 0.51838 0.89714 0.0
N1997 N 0.89822 0.30866 0.82562 0.0
C1998 C 0.8697 0.46896 0.88153 0.0
C1999 C 0.89203 0.36072 0.84497 0.0
N2000 N 0.86562 0.39921 0.92794 0.0
N2001 N 0.91252 0.43583 0.80471 0.0
H2002 H 0.90025 0.26098 0.83363 0.0
H2003 H 0.89989 0.31276 0.8009 0.0
H2004 H 0.91626 0.48247 0.79549 0.0
H2005 H 0.92674 0.40021 0.79293 0.0
H2006 H 0.86451 0.43765 0.944 0.0
H2007 H 0.86085 0.35418 0.93847 0.0
H2008 H 0.84239 0.51405 0.91975 0.0
H2009 H 0.8472 0.56277 0.88664 0.0
C2010 C 0.11648 0.58709 0.90807 0.0
C2011 C 0.12075 0.56672 0.87608 0.0
C2012 C 0.16 0.65777 0.86557 0.0
C2013 C 0.1541 0.68017 0.89705 0.0
N2014 N 0.12203 0.67452 0.9463 0.0
N2015 N 0.14244 0.5858 0.82286 0.0
C2016 C 0.13101 0.64718 0.9178 0.0
C2017 C 0.14107 0.60338 0.85426 0.0
N2018 N 0.09922 0.54826 0.92928 0.0
N2019 N 0.18464 0.6871 0.847 0.0
H2020 H 0.13063 0.54397 0.81397 0.0
H2021 H 0.15356 0.6145 0.80514 0.0
H2022 H 0.19884 0.72752 0.85442 0.0
H2023 H 0.19306 0.66861 0.82527 0.0
H2024 H 0.09888 0.55669 0.95373 0.0
H2025 H 0.08708 0.50496 0.92273 0.0
H2026 H 0.10231 0.65656 0.9608 0.0
H2027 H 0.13241 0.71833 0.95439 0.0
C2028 C 0.87628 0.62813 0.61128 0.0
C2029 C 0.89137 0.68051 0.62815 0.0
C2030 C 0.90943 0.60524 0.67043 0.0
C2031 C 0.89386 0.55287 0.65346 0.0
N2032 N 0.87585 0.51327 0.60163 0.0
N2033 N 0.92818 0.71821 0.67063 0.0
C2034 C 0.88166 0.56368 0.62197 0.0
C2035 C 0.90977 0.66889 0.65685 0.0
N2036 N 0.85504 0.63994 0.58586 0.0
N2037 N 0.92365 0.59373 0.6997 0.0
H2038 H 0.92824 0.76552 0.66172 0.0
H2039 H 0.94508 0.71184 0.68966 0.0
H2040 H 0.92707 0.5468 0.70863 0.0
H2041 H 0.93122 0.63016 0.71539 0.0
H2042 H 0.84062 0.60364 0.57472 0.0
H2043 H 0.84905 0.68663 0.5779 0.0
H2044 H 0.87309 0.52041 0.57715 0.0
H2045 H 0.87636 0.46466 0.60813 0.0
C2046 C 0.13729 0.39853 0.59807 0.0
C2047 C 0.1266 0.34297 0.61531 0.0
C2048 C 0.11084 0.41193 0.66071 0.0
C2049 C 0.12111 0.46783 0.64322 0.0
N2050 N 0.13505 0.51412 0.59129 0.0
N2051 N 0.11183 0.2953 0.66626 0.0
C2052 C 0.13154 0.46127 0.61076 0.0
C2053 C 0.11594 0.34907 0.64758 0.0
N2054 N 0.15531 0.39089 0.57024 0.0
N2055 N 0.09328 0.41934 0.6888 0.0
H2056 H 0.11246 0.24803 0.65764 0.0
H2057 H 0.10993 0.29761 0.691 0.0
H2058 H 0.08693 0.46479 0.69808 0.0
H2059 H 0.08152 0.38107 0.701 0.0
H2060 H 0.16726 0.42914 0.55818 0.0
H2061 H 0.16171 0.34529 0.56113 0.0
H2062 H 0.13557 0.5102 0.56653 0.0
H2063 H 0.13668 0.56186 0.59908 0.0
C2064 C 0.60809 0.12771 0.15452 0.0
C2065 C 0.622 0.07476 0.13689 0.0
C2066 C 0.64493 0.15136 0.09706 0.0
C2067 C 0.63017 0.20378 0.1139 0.0
N2068 N 0.60231 0.24494 0.16081 0.0
N2069 N 0.64489 0.03688 0.08619 0.0
C2070 C 0.61303 0.19282 0.14335 0.0
C2071 C 0.63785 0.08662 0.10668 0.0
N2072 N 0.58922 0.11483 0.18143 0.0
N2073 N 0.66699 0.16391 0.07226 0.0
H2074 H 0.64146 0.98813 0.09151 0.0
H2075 H 0.65176 0.04424 0.06244 0.0
H2076 H 0.67327 0.21107 0.06504 0.0
H2077 H 0.68195 0.12833 0.06127 0.0
H2078 H 0.57777 0.14971 0.19583 0.0
H2079 H 0.58316 0.06757 0.18862 0.0
H2080 H 0.58874 0.24213 0.18211 0.0
H2081 H 0.60887 0.29243 0.1547 0.0
C2082 C 0.39858 0.85598 0.14853 0.0
C2083 C 0.38323 0.84402 0.11849 0.0
C2084 C 0.36852 0.95999 0.11351 0.0
C2085 C 0.38435 0.9722 0.14367 0.0
N2086 N 0.42273 0.93494 0.18507 0.0
N2087 N 0.34877 0.88066 0.07441 0.0
C2088 C 0.40157 0.92086 0.15988 0.0
C2089 C 0.36693 0.8951 0.1015 0.0
N2090 N 0.40914 0.80485 0.16683 0.0
N2091 N 0.35639 1.01051 0.09565 0.0
H2092 H 0.34706 0.83369 0.06521 0.0
H2093 H 0.33304 0.91333 0.0623 0.0
H2094 H 0.35781 0.05849 0.10291 0.0
H2095 H 0.34759 1.00638 0.07234 0.0
H2096 H 0.41676 0.80961 0.1905 0.0
H2097 H 0.40663 0.75672 0.15949 0.0
H2098 H 0.43888 0.90099 0.19588 0.0
H2099 H 0.42712 0.98227 0.19301 0.0
C2100 C 0.65413 0.95376 0.3975 0.0
C2101 C 0.63142 0.96458 0.37134 0.0
C2102 C 0.61553 0.8491 0.37115 0.0
C2103 C 0.63779 0.83899 0.39761 0.0
N2104 N 0.68503 0.8759 0.43016 0.0
N2105 N 0.58544 0.92636 0.33738 0.0
C2106 C 0.65907 0.88977 0.40905 0.0
C2107 C 0.61086 0.91308 0.35914 0.0
N2108 N 0.66957 1.00488 0.41251 0.0
N2109 N 0.60006 0.79726 0.35669 0.0
H2110 H 0.58043 0.97315 0.32899 0.0
H2111 H 0.5671 0.89265 0.32982 0.0
H2112 H 0.60416 0.74971 0.36405 0.0
H2113 H 0.58621 0.80016 0.33548 0.0
H2114 H 0.68352 1.00101 0.43363 0.0
H2115 H 0.66519 0.05259 0.40598 0.0
H2116 H 0.70411 0.90898 0.43684 0.0
H2117 H 0.68975 0.829 0.43858 0.0
C2118 C 0.40304 0.11615 0.34816 0.0
C2119 C 0.38558 0.06443 0.36398 0.0
C2120 C 0.36596 0.1415 0.40523 0.0
C2121 C 0.38254 0.19273 0.38857 0.0
N2122 N 0.40878 0.23212 0.34039 0.0
N2123 N 0.35653 0.02613 0.41169 0.0
C2124 C 0.39875 0.18097 0.35895 0.0
C2125 C 0.36859 0.07654 0.39364 0.0
N2126 N 0.42582 0.10269 0.3241 0.0
N2127 N 0.3462 0.15582 0.43136 0.0
H2128 H 0.35708 0.97807 0.40445 0.0
H2129 H 0.34865 0.03091 0.43527 0.0
H2130 H 0.34369 0.20292 0.44023 0.0
H2131 H 0.32977 0.1228 0.44258 0.0
H2132 H 0.44203 0.13747 0.31386 0.0
H2133 H 0.43153 0.05543 0.31687 0.0
H2134 H 0.41678 0.22682 0.31684 0.0
H2135 H 0.40514 0.28023 0.3473 0.0
C2136 C 0.40159 0.86051 0.85382 0.0
C2137 C 0.38725 0.84844 0.8843 0.0
C2138 C 0.37966 0.96477 0.89323 0.0
C2139 C 0.39161 0.9778 0.86166 0.0
N2140 N 0.42326 0.94041 0.81591 0.0
N2141 N 0.35454 0.88605 0.92933 0.0
C2142 C 0.40523 0.92595 0.84307 0.0
C2143 C 0.37394 0.89973 0.90284 0.0
N2144 N 0.41088 0.80928 0.83498 0.0
N2145 N 0.37622 1.01302 0.91522 0.0
H2146 H 0.34934 0.83866 0.93688 0.0
H2147 H 0.34051 0.92118 0.94166 0.0
H2148 H 0.38039 0.0618 0.91078 0.0
H2149 H 0.37222 1.00389 0.93939 0.0
H2150 H 0.41842 0.81371 0.81127 0.0
H2151 H 0.40911 0.7611 0.84255 0.0
H2152 H 0.43549 0.90622 0.80164 0.0
H2153 H 0.42851 0.98821 0.80901 0.0
C2154 C 0.66432 0.15305 0.87488 0.0
C2155 C 0.63742 0.17878 0.89398 0.0
C2156 C 0.60081 0.08418 0.88218 0.0
C2157 C 0.62675 0.06076 0.86129 0.0
N2158 N 0.6807 0.07804 0.83321 0.0
N2159 N 0.57805 0.17572 0.9118 0.0
C2160 C 0.65783 0.09669 0.85632 0.0
C2161 C 0.60505 0.14624 0.89652 0.0
N2162 N 0.69638 0.18143 0.8752 0.0
N2163 N 0.5723 0.04681 0.88853 0.0
H2164 H 0.58026 0.22094 0.92281 0.0
H2165 H 0.55275 0.15814 0.91133 0.0
H2166 H 0.56783 1.00202 0.87766 0.0
H2167 H 0.55432 0.05786 0.90619 0.0
H2168 H 0.71819 0.1604 0.86493 0.0
H2169 H 0.70186 0.22378 0.88788 0.0
H2170 H 0.70172 0.10626 0.826 0.0
H2171 H 0.67749 0.03622 0.81954 0.0
C2172 C 0.36103 0.10065 0.67846 0.0
C2173 C 0.38555 0.06701 0.65955 0.0
C2174 C 0.38007 0.14875 0.61736 0.0
C2175 C 0.3532 0.1788 0.63503 0.0
N2176 N 0.31563 0.18179 0.68087 0.0
N2177 N 0.41625 0.05384 0.60992 0.0
C2178 C 0.34305 0.15442 0.66523 0.0
C2179 C 0.39458 0.08972 0.62869 0.0
N2180 N 0.35511 0.08133 0.70916 0.0
N2181 N 0.3922 0.17744 0.59011 0.0
H2182 H 0.42859 1.01182 0.61791 0.0
H2183 H 0.42043 0.06335 0.58585 0.0
H2184 H 0.38141 0.21948 0.58043 0.0
H2185 H 0.41444 0.16232 0.57824 0.0
H2186 H 0.34046 0.10806 0.72523 0.0
H2187 H 0.36662 0.04051 0.71936 0.0
H2188 H 0.304 0.16149 0.70094 0.0
H2189 H 0.30272 0.22292 0.67255 0.0
C2190 C 0.62247 0.84775 0.64993 0.0
C2191 C 0.63176 0.84025 0.6174 0.0
C2192 C 0.64028 0.95758 0.61232 0.0
C2193 C 0.63089 0.96594 0.64486 0.0
N2194 N 0.60591 0.92056 0.69266 0.0
N2195 N 0.66101 0.8843 0.57167 0.0
C2196 C 0.62066 0.91122 0.66336 0.0
C2197 C 0.64406 0.89417 0.59987 0.0
N2198 N 0.61615 0.79443 0.66837 0.0
N2199 N 0.6436 1.0096 0.59238 0.0
H2200 H 0.6654 0.83798 0.56241 0.0
H2201 H 0.6741 0.92108 0.55947 0.0
H2202 H 0.64278 0.05772 0.59966 0.0
H2203 H 0.64415 1.00462 0.56767 0.0
H2204 H 0.61691 0.79619 0.69307 0.0
H2205 H 0.61291 0.74776 0.65937 0.0
H2206 H 0.59414 0.88373 0.70586 0.0
H2207 H 0.60222 0.96646 0.70258 0.0
loop_
_geom_bond_atom_site_label_1
_geom_bond_atom_site_label_2
_geom_bond_distance
_geom_bond_site_symmetry_2
_ccdc_geom_bond_type
Tb0 N29 2.617 . S
Tb0 N35 2.572 . S
Tb0 O44 2.465 . S
Tb0 O45 2.387 . S
Tb0 O47 2.428 . S
Tb0 O48 2.308 . S
Tb0 O52 2.349 . S
Tb0 O55 2.393 . S
Tb0 C64 2.802 . S
C1 N2 1.379 . S
C1 C4 1.416 . S
C1 C8 1.424 . S
N2 C1 1.379 . S
N2 C5 1.334 . S
N2 Tb11 2.617 . S
C3 C5 1.390 . S
C3 C6 1.339 . S
C3 H23 0.930 1_554 S
C4 C1 1.416 . S
C4 C6 1.416 . S
C4 C10 1.450 . S
C5 N2 1.334 . S
C5 C3 1.390 . S
C5 H16 0.930 . S
C6 C3 1.339 . S
C6 C4 1.416 . S
C6 H27 0.930 . S
C7 C8 1.413 1_565 S
C7 C9 1.427 . S
C7 C13 1.416 . S
C8 C1 1.424 . S
C8 C7 1.413 1_545 S
C8 N12 1.361 . S
C9 C7 1.427 . S
C9 C10 1.327 1_565 S
C9 H24 0.929 . S
C10 C4 1.450 . S
C10 C9 1.327 1_545 S
C10 H25 0.930 . S
Tb11 N2 2.617 . S
Tb11 N12 2.572 . S
Tb11 O46 2.349 . S
Tb11 O49 2.393 . S
Tb11 O50 2.465 1_545 S
Tb11 O51 2.387 . S
Tb11 O53 2.428 1_545 S
Tb11 O54 2.308 . S
Tb11 C75 2.802 1_545 S
N12 C8 1.361 . S
N12 Tb11 2.572 . S
N12 C14 1.340 1_545 S
C13 C7 1.416 . S
C13 C15 1.332 . S
C13 H21 0.931 . S
C14 N12 1.340 1_565 S
C14 C15 1.407 . S
C14 H20 0.930 . S
C15 C13 1.332 . S
C15 C14 1.407 . S
C15 H17 0.929 . S
H16 C5 0.930 . S
H17 C15 0.929 . S
H18 C33 0.930 . S
H19 C40 0.929 1_655 S
H20 C14 0.930 . S
H21 C13 0.931 . S
H22 C36 0.930 . S
H23 C3 0.930 1_556 S
H24 C9 0.929 . S
H25 C10 0.930 . S
H26 C31 0.930 . S
H27 C6 0.930 . S
H28 C39 0.931 . S
N29 Tb0 2.617 . S
N29 C30 1.379 . S
N29 C33 1.334 . S
C30 N29 1.379 . S
C30 C32 1.416 1_455 S
C30 C38 1.424 . S
C31 H26 0.930 . S
C31 C33 1.390 . S
C31 C34 1.339 . S
C32 C30 1.416 1_655 S
C32 C34 1.416 1_655 S
C32 C65 1.448 . S
C33 H18 0.930 . S
C33 N29 1.334 . S
C33 C31 1.390 . S
C34 C31 1.339 . S
C34 C32 1.416 1_455 S
C34 H41 0.930 1_455 S
N35 Tb0 2.572 . S
N35 C36 1.340 . S
N35 C38 1.361 . S
C36 H22 0.930 . S
C36 N35 1.340 . S
C36 C40 1.407 . S
C37 C38 1.413 1_655 S
C37 C39 1.416 . S
C37 C66 1.427 . S
C38 C30 1.424 . S
C38 N35 1.361 . S
C38 C37 1.413 1_455 S
C39 H28 0.931 . S
C39 C37 1.416 . S
C39 C40 1.332 1_655 S
C40 H19 0.929 1_455 S
C40 C36 1.407 . S
C40 C39 1.332 1_455 S
H41 C34 0.930 1_655 S
H42 C65 0.930 . S
H43 C66 0.929 . S
O44 Tb0 2.465 . S
O44 C64 1.264 . S
O45 Tb0 2.387 . S
O45 C56 1.264 . S
O46 Tb11 2.349 . S
O46 C56 1.243 . S
O47 Tb0 2.428 . S
O47 C64 1.256 . S
O48 Tb0 2.308 . S
O48 C63 1.266 . S
O49 Tb11 2.393 . S
O49 C63 1.248 . S
O50 Tb11 2.465 1_565 S
O50 C75 1.264 . S
O51 Tb11 2.387 . S
O51 C67 1.264 . S
O52 Tb0 2.349 . S
O52 C67 1.243 . S
O53 Tb11 2.428 1_565 S
O53 C75 1.256 . S
O54 Tb11 2.308 . S
O54 C74 1.266 . S
O55 Tb0 2.393 . S
O55 C74 1.248 . S
C56 O45 1.264 . S
C56 O46 1.243 . S
C57 C60 1.399 . S
C57 C62 1.383 . S
C57 C64 1.496 . S
C58 C59 1.399 . S
C58 C62 1.389 . S
C59 C58 1.399 . S
C59 C61 1.380 . S
C59 H76 0.929 . S
C60 C57 1.399 . S
C60 C61 1.392 . S
C60 H77 0.929 . S
C61 C59 1.380 . S
C61 C60 1.392 . S
C61 H78 0.929 . S
C62 C57 1.383 . S
C62 C58 1.389 . S
C62 H79 0.931 . S
C63 O48 1.266 . S
C63 O49 1.248 . S
C64 Tb0 2.802 . S
C64 O44 1.264 . S
C64 O47 1.256 . S
C64 C57 1.496 . S
C65 C32 1.448 . S
C65 H42 0.930 . S
C65 C66 1.328 . S
C66 C37 1.427 . S
C66 H43 0.929 . S
C66 C65 1.328 . S
C67 O51 1.264 . S
C67 O52 1.243 . S
C68 C71 1.399 . S
C68 C72 1.383 . S
C68 C75 1.496 . S
C69 C70 1.399 . S
C69 C72 1.389 . S
C70 C69 1.399 . S
C70 C73 1.380 . S
C70 H80 0.929 . S
C71 C68 1.399 . S
C71 C73 1.392 . S
C71 H81 0.929 . S
C72 C68 1.383 . S
C72 C69 1.389 . S
C72 H82 0.931 . S
C73 C70 1.380 . S
C73 C71 1.392 . S
C73 H83 0.929 . S
C74 O54 1.266 . S
C74 O55 1.248 . S
C75 Tb11 2.802 1_565 S
C75 O50 1.264 . S
C75 O53 1.256 . S
C75 C68 1.496 . S
H76 C59 0.929 . S
H77 C60 0.929 . S
H78 C61 0.929 . S
H79 C62 0.931 . S
H80 C70 0.929 . S
H81 C71 0.929 . S
H82 C72 0.931 . S
H83 C73 0.929 . S
Tb84 N113 2.617 . S
Tb84 N119 2.572 . S
Tb84 O128 2.465 . S
Tb84 O129 2.387 . S
Tb84 O131 2.428 . S
Tb84 O132 2.308 . S
Tb84 O136 2.349 . S
Tb84 O139 2.393 . S
Tb84 C148 2.802 . S
C85 N86 1.379 . S
C85 C88 1.416 . S
C85 C92 1.424 . S
N86 C85 1.379 . S
N86 C89 1.334 . S
N86 Tb95 2.617 . S
C87 C89 1.390 . S
C87 C90 1.339 . S
C87 H107 0.930 1_554 S
C88 C85 1.416 . S
C88 C90 1.416 . S
C88 C94 1.450 . S
C89 N86 1.334 . S
C89 C87 1.390 . S
C89 H100 0.930 . S
C90 C87 1.339 . S
C90 C88 1.416 . S
C90 H111 0.930 . S
C91 C92 1.413 1_545 S
C91 C93 1.427 . S
C91 C97 1.416 . S
C92 C85 1.424 . S
C92 C91 1.413 1_565 S
C92 N96 1.361 . S
C93 C91 1.427 . S
C93 C94 1.327 1_545 S
C93 H108 0.929 . S
C94 C88 1.450 . S
C94 C93 1.327 1_565 S
C94 H109 0.930 . S
Tb95 N86 2.617 . S
Tb95 N96 2.572 . S
Tb95 O130 2.349 . S
Tb95 O133 2.393 . S
Tb95 O134 2.465 1_565 S
Tb95 O135 2.387 . S
Tb95 O137 2.428 1_565 S
Tb95 O138 2.308 . S
Tb95 C159 2.802 1_565 S
N96 C92 1.361 . S
N96 Tb95 2.572 . S
N96 C98 1.340 1_565 S
C97 C91 1.416 . S
C97 C99 1.332 . S
C97 H105 0.931 . S
C98 N96 1.340 1_545 S
C98 C99 1.407 . S
C98 H104 0.930 . S
C99 C97 1.332 . S
C99 C98 1.407 . S
C99 H101 0.929 . S
H100 C89 0.930 . S
H101 C99 0.929 . S
H102 C117 0.930 . S
H103 C124 0.929 1_455 S
H104 C98 0.930 . S
H105 C97 0.931 . S
H106 C120 0.930 . S
H107 C87 0.930 1_556 S
H108 C93 0.929 . S
H109 C94 0.930 . S
H110 C115 0.930 . S
H111 C90 0.930 . S
H112 C123 0.931 . S
N113 Tb84 2.617 . S
N113 C114 1.379 . S
N113 C117 1.334 . S
C114 N113 1.379 . S
C114 C116 1.416 1_655 S
C114 C122 1.424 . S
C115 H110 0.930 . S
C115 C117 1.390 . S
C115 C118 1.339 . S
C116 C114 1.416 1_455 S
C116 C118 1.416 1_455 S
C116 C149 1.448 . S
C117 H102 0.930 . S
C117 N113 1.334 . S
C117 C115 1.390 . S
C118 C115 1.339 . S
C118 C116 1.416 1_655 S
C118 H125 0.930 1_655 S
N119 Tb84 2.572 . S
N119 C120 1.340 . S
N119 C122 1.361 . S
C120 H106 0.930 . S
C120 N119 1.340 . S
C120 C124 1.407 . S
C121 C122 1.413 1_455 S
C121 C123 1.416 . S
C121 C150 1.427 . S
C122 C114 1.424 . S
C122 N119 1.361 . S
C122 C121 1.413 1_655 S
C123 H112 0.931 . S
C123 C121 1.416 . S
C123 C124 1.332 1_455 S
C124 H103 0.929 1_655 S
C124 C120 1.407 . S
C124 C123 1.332 1_655 S
H125 C118 0.930 1_455 S
H126 C149 0.930 . S
H127 C150 0.929 . S
O128 Tb84 2.465 . S
O128 C148 1.264 . S
O129 Tb84 2.387 . S
O129 C140 1.264 . S
O130 Tb95 2.349 . S
O130 C140 1.243 . S
O131 Tb84 2.428 . S
O131 C148 1.256 . S
O132 Tb84 2.308 . S
O132 C147 1.266 . S
O133 Tb95 2.393 . S
O133 C147 1.248 . S
O134 Tb95 2.465 1_545 S
O134 C159 1.264 . S
O135 Tb95 2.387 . S
O135 C151 1.264 . S
O136 Tb84 2.349 . S
O136 C151 1.243 . S
O137 Tb95 2.428 1_545 S
O137 C159 1.256 . S
O138 Tb95 2.308 . S
O138 C158 1.266 . S
O139 Tb84 2.393 . S
O139 C158 1.248 . S
C140 O129 1.264 . S
C140 O130 1.243 . S
C141 C144 1.399 . S
C141 C146 1.383 . S
C141 C148 1.496 . S
C142 C143 1.399 . S
C142 C146 1.389 . S
C143 C142 1.399 . S
C143 C145 1.380 . S
C143 H160 0.929 . S
C144 C141 1.399 . S
C144 C145 1.392 . S
C144 H161 0.929 . S
C145 C143 1.380 . S
C145 C144 1.392 . S
C145 H162 0.929 . S
C146 C141 1.383 . S
C146 C142 1.389 . S
C146 H163 0.931 . S
C147 O132 1.266 . S
C147 O133 1.248 . S
C148 Tb84 2.802 . S
C148 O128 1.264 . S
C148 O131 1.256 . S
C148 C141 1.496 . S
C149 C116 1.448 . S
C149 H126 0.930 . S
C149 C150 1.328 . S
C150 C121 1.427 . S
C150 H127 0.929 . S
C150 C149 1.328 . S
C151 O135 1.264 . S
C151 O136 1.243 . S
C152 C155 1.399 . S
C152 C156 1.383 . S
C152 C159 1.496 . S
C153 C154 1.399 . S
C153 C156 1.389 . S
C154 C153 1.399 . S
C154 C157 1.380 . S
C154 H164 0.929 . S
C155 C152 1.399 . S
C155 C157 1.392 . S
C155 H165 0.929 . S
C156 C152 1.383 . S
C156 C153 1.389 . S
C156 H166 0.931 . S
C157 C154 1.380 . S
C157 C155 1.392 . S
C157 H167 0.929 . S
C158 O138 1.266 . S
C158 O139 1.248 . S
C159 Tb95 2.802 1_545 S
C159 O134 1.264 . S
C159 O137 1.256 . S
C159 C152 1.496 . S
H160 C143 0.929 . S
H161 C144 0.929 . S
H162 C145 0.929 . S
H163 C146 0.931 . S
H164 C154 0.929 . S
H165 C155 0.929 . S
H166 C156 0.931 . S
H167 C157 0.929 . S
Tb168 N197 2.617 . S
Tb168 N203 2.572 . S
Tb168 O212 2.465 . S
Tb168 O213 2.387 . S
Tb168 O215 2.428 . S
Tb168 O216 2.308 . S
Tb168 O220 2.349 . S
Tb168 O223 2.393 . S
Tb168 C232 2.802 . S
C169 N170 1.379 . S
C169 C172 1.416 . S
C169 C176 1.424 . S
N170 C169 1.379 . S
N170 C173 1.334 . S
N170 Tb179 2.617 . S
C171 C173 1.390 . S
C171 C174 1.339 . S
C171 H191 0.930 . S
C172 C169 1.416 . S
C172 C174 1.416 . S
C172 C178 1.450 . S
C173 N170 1.334 . S
C173 C171 1.390 . S
C173 H184 0.930 . S
C174 C171 1.339 . S
C174 C172 1.416 . S
C174 H195 0.930 . S
C175 C176 1.413 1_545 S
C175 C177 1.427 . S
C175 C181 1.416 . S
C176 C169 1.424 . S
C176 C175 1.413 1_565 S
C176 N180 1.361 . S
C177 C175 1.427 . S
C177 C178 1.327 1_545 S
C177 H192 0.929 . S
C178 C172 1.450 . S
C178 C177 1.327 1_565 S
C178 H193 0.930 . S
Tb179 N170 2.617 . S
Tb179 N180 2.572 . S
Tb179 O214 2.349 . S
Tb179 O217 2.393 . S
Tb179 O218 2.465 1_565 S
Tb179 O219 2.387 . S
Tb179 O221 2.428 1_565 S
Tb179 O222 2.308 . S
Tb179 C243 2.802 1_565 S
N180 C176 1.361 . S
N180 Tb179 2.572 . S
N180 C182 1.340 1_565 S
C181 C175 1.416 . S
C181 C183 1.332 . S
C181 H189 0.931 . S
C182 N180 1.340 1_545 S
C182 C183 1.407 . S
C182 H188 0.930 . S
C183 C181 1.332 . S
C183 C182 1.407 . S
C183 H185 0.929 . S
H184 C173 0.930 . S
H185 C183 0.929 . S
H186 C201 0.930 . S
H187 C208 0.929 1_655 S
H188 C182 0.930 . S
H189 C181 0.931 . S
H190 C204 0.930 . S
H191 C171 0.930 . S
H192 C177 0.929 . S
H193 C178 0.930 . S
H194 C199 0.930 . S
H195 C174 0.930 . S
H196 C207 0.931 . S
N197 Tb168 2.617 . S
N197 C198 1.379 . S
N197 C201 1.334 . S
C198 N197 1.379 . S
C198 C200 1.416 1_455 S
C198 C206 1.424 . S
C199 H194 0.930 . S
C199 C201 1.390 . S
C199 C202 1.339 . S
C200 C198 1.416 1_655 S
C200 C202 1.416 1_655 S
C200 C233 1.448 . S
C201 H186 0.930 . S
C201 N197 1.334 . S
C201 C199 1.390 . S
C202 C199 1.339 . S
C202 C200 1.416 1_455 S
C202 H209 0.930 1_455 S
N203 Tb168 2.572 . S
N203 C204 1.340 . S
N203 C206 1.361 . S
C204 H190 0.930 . S
C204 N203 1.340 . S
C204 C208 1.407 . S
C205 C206 1.413 1_655 S
C205 C207 1.416 . S
C205 C234 1.427 . S
C206 C198 1.424 . S
C206 N203 1.361 . S
C206 C205 1.413 1_455 S
C207 H196 0.931 . S
C207 C205 1.416 . S
C207 C208 1.332 1_655 S
C208 H187 0.929 1_455 S
C208 C204 1.407 . S
C208 C207 1.332 1_455 S
H209 C202 0.930 1_655 S
H210 C233 0.930 . S
H211 C234 0.929 . S
O212 Tb168 2.465 . S
O212 C232 1.264 . S
O213 Tb168 2.387 . S
O213 C224 1.264 . S
O214 Tb179 2.349 . S
O214 C224 1.243 . S
O215 Tb168 2.428 . S
O215 C232 1.256 . S
O216 Tb168 2.308 . S
O216 C231 1.266 . S
O217 Tb179 2.393 . S
O217 C231 1.248 . S
O218 Tb179 2.465 1_545 S
O218 C243 1.264 . S
O219 Tb179 2.387 . S
O219 C235 1.264 . S
O220 Tb168 2.349 . S
O220 C235 1.243 . S
O221 Tb179 2.428 1_545 S
O221 C243 1.256 . S
O222 Tb179 2.308 . S
O222 C242 1.266 . S
O223 Tb168 2.393 . S
O223 C242 1.248 . S
C224 O213 1.264 . S
C224 O214 1.243 . S
C225 C228 1.399 . S
C225 C230 1.383 . S
C225 C232 1.496 . S
C226 C227 1.399 . S
C226 C230 1.389 . S
C227 C226 1.399 . S
C227 C229 1.380 . S
C227 H244 0.929 . S
C228 C225 1.399 . S
C228 C229 1.392 . S
C228 H245 0.929 . S
C229 C227 1.380 . S
C229 C228 1.392 . S
C229 H246 0.929 . S
C230 C225 1.383 . S
C230 C226 1.389 . S
C230 H247 0.931 . S
C231 O216 1.266 . S
C231 O217 1.248 . S
C232 Tb168 2.802 . S
C232 O212 1.264 . S
C232 O215 1.256 . S
C232 C225 1.496 . S
C233 C200 1.448 . S
C233 H210 0.930 . S
C233 C234 1.328 . S
C234 C205 1.427 . S
C234 H211 0.929 . S
C234 C233 1.328 . S
C235 O219 1.264 . S
C235 O220 1.243 . S
C236 C239 1.399 . S
C236 C240 1.383 . S
C236 C243 1.496 . S
C237 C238 1.399 . S
C237 C240 1.389 . S
C238 C237 1.399 . S
C238 C241 1.380 . S
C238 H248 0.929 . S
C239 C236 1.399 . S
C239 C241 1.392 . S
C239 H249 0.929 . S
C240 C236 1.383 . S
C240 C237 1.389 . S
C240 H250 0.931 . S
C241 C238 1.380 . S
C241 C239 1.392 . S
C241 H251 0.929 . S
C242 O222 1.266 . S
C242 O223 1.248 . S
C243 Tb179 2.802 1_545 S
C243 O218 1.264 . S
C243 O221 1.256 . S
C243 C236 1.496 . S
H244 C227 0.929 . S
H245 C228 0.929 . S
H246 C229 0.929 . S
H247 C230 0.931 . S
H248 C238 0.929 . S
H249 C239 0.929 . S
H250 C240 0.931 . S
H251 C241 0.929 . S
Tb252 N281 2.617 . S
Tb252 N287 2.572 . S
Tb252 O296 2.465 . S
Tb252 O297 2.387 . S
Tb252 O299 2.428 . S
Tb252 O300 2.308 . S
Tb252 O304 2.349 . S
Tb252 O307 2.393 . S
Tb252 C316 2.802 . S
C253 N254 1.379 . S
C253 C256 1.416 . S
C253 C260 1.424 . S
N254 C253 1.379 . S
N254 C257 1.334 . S
N254 Tb263 2.617 . S
C255 C257 1.390 . S
C255 C258 1.339 . S
C255 H275 0.930 . S
C256 C253 1.416 . S
C256 C258 1.416 . S
C256 C262 1.450 . S
C257 N254 1.334 . S
C257 C255 1.390 . S
C257 H268 0.930 . S
C258 C255 1.339 . S
C258 C256 1.416 . S
C258 H279 0.930 . S
C259 C260 1.413 1_565 S
C259 C261 1.427 . S
C259 C265 1.416 . S
C260 C253 1.424 . S
C260 C259 1.413 1_545 S
C260 N264 1.361 . S
C261 C259 1.427 . S
C261 C262 1.327 1_565 S
C261 H276 0.929 . S
C262 C256 1.450 . S
C262 C261 1.327 1_545 S
C262 H277 0.930 . S
Tb263 N254 2.617 . S
Tb263 N264 2.572 . S
Tb263 O298 2.349 . S
Tb263 O301 2.393 . S
Tb263 O302 2.465 1_545 S
Tb263 O303 2.387 . S
Tb263 O305 2.428 1_545 S
Tb263 O306 2.308 . S
Tb263 C327 2.802 1_545 S
N264 C260 1.361 . S
N264 Tb263 2.572 . S
N264 C266 1.340 1_545 S
C265 C259 1.416 . S
C265 C267 1.332 . S
C265 H273 0.931 . S
C266 N264 1.340 1_565 S
C266 C267 1.407 . S
C266 H272 0.930 . S
C267 C265 1.332 . S
C267 C266 1.407 . S
C267 H269 0.929 . S
H268 C257 0.930 . S
H269 C267 0.929 . S
H270 C285 0.930 . S
H271 C292 0.929 1_455 S
H272 C266 0.930 . S
H273 C265 0.931 . S
H274 C288 0.930 . S
H275 C255 0.930 . S
H276 C261 0.929 . S
H277 C262 0.930 . S
H278 C283 0.930 . S
H279 C258 0.930 . S
H280 C291 0.931 . S
N281 Tb252 2.617 . S
N281 C282 1.379 . S
N281 C285 1.334 . S
C282 N281 1.379 . S
C282 C284 1.416 1_655 S
C282 C290 1.424 . S
C283 H278 0.930 . S
C283 C285 1.390 . S
C283 C286 1.339 . S
C284 C282 1.416 1_455 S
C284 C286 1.416 1_455 S
C284 C317 1.448 . S
C285 H270 0.930 . S
C285 N281 1.334 . S
C285 C283 1.390 . S
C286 C283 1.339 . S
C286 C284 1.416 1_655 S
C286 H293 0.930 1_655 S
N287 Tb252 2.572 . S
N287 C288 1.340 . S
N287 C290 1.361 . S
C288 H274 0.930 . S
C288 N287 1.340 . S
C288 C292 1.407 . S
C289 C290 1.413 1_455 S
C289 C291 1.416 . S
C289 C318 1.427 . S
C290 C282 1.424 . S
C290 N287 1.361 . S
C290 C289 1.413 1_655 S
C291 H280 0.931 . S
C291 C289 1.416 . S
C291 C292 1.332 1_455 S
C292 H271 0.929 1_655 S
C292 C288 1.407 . S
C292 C291 1.332 1_655 S
H293 C286 0.930 1_455 S
H294 C317 0.930 . S
H295 C318 0.929 . S
O296 Tb252 2.465 . S
O296 C316 1.264 . S
O297 Tb252 2.387 . S
O297 C308 1.264 . S
O298 Tb263 2.349 . S
O298 C308 1.243 . S
O299 Tb252 2.428 . S
O299 C316 1.256 . S
O300 Tb252 2.308 . S
O300 C315 1.266 . S
O301 Tb263 2.393 . S
O301 C315 1.248 . S
O302 Tb263 2.465 1_565 S
O302 C327 1.264 . S
O303 Tb263 2.387 . S
O303 C319 1.264 . S
O304 Tb252 2.349 . S
O304 C319 1.243 . S
O305 Tb263 2.428 1_565 S
O305 C327 1.256 . S
O306 Tb263 2.308 . S
O306 C326 1.266 . S
O307 Tb252 2.393 . S
O307 C326 1.248 . S
C308 O297 1.264 . S
C308 O298 1.243 . S
C309 C312 1.399 . S
C309 C314 1.383 . S
C309 C316 1.496 . S
C310 C311 1.399 . S
C310 C314 1.389 . S
C311 C310 1.399 . S
C311 C313 1.380 . S
C311 H328 0.929 . S
C312 C309 1.399 . S
C312 C313 1.392 . S
C312 H329 0.929 . S
C313 C311 1.380 . S
C313 C312 1.392 . S
C313 H330 0.929 . S
C314 C309 1.383 . S
C314 C310 1.389 . S
C314 H331 0.931 . S
C315 O300 1.266 . S
C315 O301 1.248 . S
C316 Tb252 2.802 . S
C316 O296 1.264 . S
C316 O299 1.256 . S
C316 C309 1.496 . S
C317 C284 1.448 . S
C317 H294 0.930 . S
C317 C318 1.328 . S
C318 C289 1.427 . S
C318 H295 0.929 . S
C318 C317 1.328 . S
C319 O303 1.264 . S
C319 O304 1.243 . S
C320 C323 1.399 . S
C320 C324 1.383 . S
C320 C327 1.496 . S
C321 C322 1.399 . S
C321 C324 1.389 . S
C322 C321 1.399 . S
C322 C325 1.380 . S
C322 H332 0.929 . S
C323 C320 1.399 . S
C323 C325 1.392 . S
C323 H333 0.929 . S
C324 C320 1.383 . S
C324 C321 1.389 . S
C324 H334 0.931 . S
C325 C322 1.380 . S
C325 C323 1.392 . S
C325 H335 0.929 . S
C326 O306 1.266 . S
C326 O307 1.248 . S
C327 Tb263 2.802 1_565 S
C327 O302 1.264 . S
C327 O305 1.256 . S
C327 C320 1.496 . S
H328 C311 0.929 . S
H329 C312 0.929 . S
H330 C313 0.929 . S
H331 C314 0.931 . S
H332 C322 0.929 . S
H333 C323 0.929 . S
H334 C324 0.931 . S
H335 C325 0.929 . S
Tb336 N365 2.617 . S
Tb336 N371 2.572 . S
Tb336 O380 2.465 1_565 S
Tb336 O381 2.387 . S
Tb336 O383 2.428 1_565 S
Tb336 O384 2.308 . S
Tb336 O388 2.349 . S
Tb336 O391 2.393 . S
Tb336 C400 2.802 1_565 S
C337 N338 1.379 . S
C337 C340 1.416 1_655 S
C337 C344 1.424 . S
N338 C337 1.379 . S
N338 C341 1.334 . S
N338 Tb347 2.617 . S
C339 C341 1.390 . S
C339 C342 1.339 . S
C339 H359 0.930 . S
C340 C337 1.416 1_455 S
C340 C342 1.416 1_455 S
C340 C346 1.448 . S
C341 N338 1.334 . S
C341 C339 1.390 . S
C341 H352 0.930 . S
C342 C339 1.339 . S
C342 C340 1.416 1_655 S
C342 H363 0.930 1_655 S
C343 C344 1.413 1_455 S
C343 C345 1.427 . S
C343 C349 1.416 . S
C344 C337 1.424 . S
C344 C343 1.413 1_655 S
C344 N348 1.361 . S
C345 C343 1.427 . S
C345 C346 1.328 . S
C345 H360 0.929 . S
C346 C340 1.448 . S
C346 C345 1.328 . S
C346 H361 0.930 . S
Tb347 N338 2.617 . S
Tb347 N348 2.572 . S
Tb347 O382 2.349 . S
Tb347 O385 2.393 . S
Tb347 O386 2.465 . S
Tb347 O387 2.387 . S
Tb347 O389 2.428 . S
Tb347 O390 2.308 . S
Tb347 C411 2.802 . S
N348 C344 1.361 . S
N348 Tb347 2.572 . S
N348 C350 1.340 . S
C349 C343 1.416 . S
C349 C351 1.332 1_455 S
C349 H357 0.931 . S
C350 N348 1.340 . S
C350 C351 1.407 . S
C350 H356 0.930 . S
C351 C349 1.332 1_655 S
C351 C350 1.407 . S
C351 H353 0.929 1_655 S
H352 C341 0.930 . S
H353 C351 0.929 1_455 S
H354 C369 0.930 . S
H355 C376 0.929 . S
H356 C350 0.930 . S
H357 C349 0.931 . S
H358 C372 0.930 . S
H359 C339 0.930 . S
H360 C345 0.929 . S
H361 C346 0.930 . S
H362 C367 0.930 1_554 S
H363 C342 0.930 1_455 S
H364 C375 0.931 . S
N365 Tb336 2.617 . S
N365 C366 1.379 . S
N365 C369 1.334 . S
C366 N365 1.379 . S
C366 C368 1.416 . S
C366 C374 1.424 . S
C367 H362 0.930 1_556 S
C367 C369 1.390 . S
C367 C370 1.339 . S
C368 C366 1.416 . S
C368 C370 1.416 . S
C368 C401 1.450 . S
C369 H354 0.930 . S
C369 N365 1.334 . S
C369 C367 1.390 . S
C370 C367 1.339 . S
C370 C368 1.416 . S
C370 H377 0.930 . S
N371 Tb336 2.572 . S
N371 C372 1.340 1_565 S
N371 C374 1.361 . S
C372 H358 0.930 . S
C372 N371 1.340 1_545 S
C372 C376 1.407 . S
C373 C374 1.413 1_545 S
C373 C375 1.416 . S
C373 C402 1.427 . S
C374 C366 1.424 . S
C374 N371 1.361 . S
C374 C373 1.413 1_565 S
C375 H364 0.931 . S
C375 C373 1.416 . S
C375 C376 1.332 . S
C376 H355 0.929 . S
C376 C372 1.407 . S
C376 C375 1.332 . S
H377 C370 0.930 . S
H378 C401 0.930 . S
H379 C402 0.929 . S
O380 Tb336 2.465 1_545 S
O380 C400 1.264 . S
O381 Tb336 2.387 . S
O381 C392 1.264 . S
O382 Tb347 2.349 . S
O382 C392 1.243 . S
O383 Tb336 2.428 1_545 S
O383 C400 1.256 . S
O384 Tb336 2.308 . S
O384 C399 1.266 . S
O385 Tb347 2.393 . S
O385 C399 1.248 . S
O386 Tb347 2.465 . S
O386 C411 1.264 . S
O387 Tb347 2.387 . S
O387 C403 1.264 . S
O388 Tb336 2.349 . S
O388 C403 1.243 . S
O389 Tb347 2.428 . S
O389 C411 1.256 . S
O390 Tb347 2.308 . S
O390 C410 1.266 . S
O391 Tb336 2.393 . S
O391 C410 1.248 . S
C392 O381 1.264 . S
C392 O382 1.243 . S
C393 C396 1.399 . S
C393 C398 1.383 . S
C393 C400 1.496 . S
C394 C395 1.399 . S
C394 C398 1.389 . S
C395 C394 1.399 . S
C395 C397 1.380 . S
C395 H412 0.929 . S
C396 C393 1.399 . S
C396 C397 1.392 . S
C396 H413 0.929 . S
C397 C395 1.380 . S
C397 C396 1.392 . S
C397 H414 0.929 . S
C398 C393 1.383 . S
C398 C394 1.389 . S
C398 H415 0.931 . S
C399 O384 1.266 . S
C399 O385 1.248 . S
C400 Tb336 2.802 1_545 S
C400 O380 1.264 . S
C400 O383 1.256 . S
C400 C393 1.496 . S
C401 C368 1.450 . S
C401 H378 0.930 . S
C401 C402 1.327 1_565 S
C402 C373 1.427 . S
C402 H379 0.929 . S
C402 C401 1.327 1_545 S
C403 O387 1.264 . S
C403 O388 1.243 . S
C404 C407 1.399 . S
C404 C408 1.383 . S
C404 C411 1.496 . S
C405 C406 1.399 . S
C405 C408 1.389 . S
C406 C405 1.399 . S
C406 C409 1.380 . S
C406 H416 0.929 . S
C407 C404 1.399 . S
C407 C409 1.392 . S
C407 H417 0.929 . S
C408 C404 1.383 . S
C408 C405 1.389 . S
C408 H418 0.931 . S
C409 C406 1.380 . S
C409 C407 1.392 . S
C409 H419 0.929 . S
C410 O390 1.266 . S
C410 O391 1.248 . S
C411 Tb347 2.802 . S
C411 O386 1.264 . S
C411 O389 1.256 . S
C411 C404 1.496 . S
H412 C395 0.929 . S
H413 C396 0.929 . S
H414 C397 0.929 . S
H415 C398 0.931 . S
H416 C406 0.929 . S
H417 C407 0.929 . S
H418 C408 0.931 . S
H419 C409 0.929 . S
Tb420 N449 2.617 . S
Tb420 N455 2.572 . S
Tb420 O464 2.465 1_545 S
Tb420 O465 2.387 . S
Tb420 O467 2.428 1_545 S
Tb420 O468 2.308 . S
Tb420 O472 2.349 . S
Tb420 O475 2.393 . S
Tb420 C484 2.802 1_545 S
C421 N422 1.379 . S
C421 C424 1.416 1_455 S
C421 C428 1.424 . S
N422 C421 1.379 . S
N422 C425 1.334 . S
N422 Tb431 2.617 . S
C423 C425 1.390 . S
C423 C426 1.339 . S
C423 H443 0.930 . S
C424 C421 1.416 1_655 S
C424 C426 1.416 1_655 S
C424 C430 1.448 . S
C425 N422 1.334 . S
C425 C423 1.390 . S
C425 H436 0.930 . S
C426 C423 1.339 . S
C426 C424 1.416 1_455 S
C426 H447 0.930 1_455 S
C427 C428 1.413 1_655 S
C427 C429 1.427 . S
C427 C433 1.416 . S
C428 C421 1.424 . S
C428 C427 1.413 1_455 S
C428 N432 1.361 . S
C429 C427 1.427 . S
C429 C430 1.328 . S
C429 H444 0.929 . S
C430 C424 1.448 . S
C430 C429 1.328 . S
C430 H445 0.930 . S
Tb431 N422 2.617 . S
Tb431 N432 2.572 . S
Tb431 O466 2.349 . S
Tb431 O469 2.393 . S
Tb431 O470 2.465 . S
Tb431 O471 2.387 . S
Tb431 O473 2.428 . S
Tb431 O474 2.308 . S
Tb431 C495 2.802 . S
N432 C428 1.361 . S
N432 Tb431 2.572 . S
N432 C434 1.340 . S
C433 C427 1.416 . S
C433 C435 1.332 1_655 S
C433 H441 0.931 . S
C434 N432 1.340 . S
C434 C435 1.407 . S
C434 H440 0.930 . S
C435 C433 1.332 1_455 S
C435 C434 1.407 . S
C435 H437 0.929 1_455 S
H436 C425 0.930 . S
H437 C435 0.929 1_655 S
H438 C453 0.930 . S
H439 C460 0.929 . S
H440 C434 0.930 . S
H441 C433 0.931 . S
H442 C456 0.930 . S
H443 C423 0.930 . S
H444 C429 0.929 . S
H445 C430 0.930 . S
H446 C451 0.930 1_554 S
H447 C426 0.930 1_655 S
H448 C459 0.931 . S
N449 Tb420 2.617 . S
N449 C450 1.379 . S
N449 C453 1.334 . S
C450 N449 1.379 . S
C450 C452 1.416 . S
C450 C458 1.424 . S
C451 H446 0.930 1_556 S
C451 C453 1.390 . S
C451 C454 1.339 . S
C452 C450 1.416 . S
C452 C454 1.416 . S
C452 C485 1.450 . S
C453 H438 0.930 . S
C453 N449 1.334 . S
C453 C451 1.390 . S
C454 C451 1.339 . S
C454 C452 1.416 . S
C454 H461 0.930 . S
N455 Tb420 2.572 . S
N455 C456 1.340 1_545 S
N455 C458 1.361 . S
C456 H442 0.930 . S
C456 N455 1.340 1_565 S
C456 C460 1.407 . S
C457 C458 1.413 1_565 S
C457 C459 1.416 . S
C457 C486 1.427 . S
C458 C450 1.424 . S
C458 N455 1.361 . S
C458 C457 1.413 1_545 S
C459 H448 0.931 . S
C459 C457 1.416 . S
C459 C460 1.332 . S
C460 H439 0.929 . S
C460 C456 1.407 . S
C460 C459 1.332 . S
H461 C454 0.930 . S
H462 C485 0.930 . S
H463 C486 0.929 . S
O464 Tb420 2.465 1_565 S
O464 C484 1.264 . S
O465 Tb420 2.387 . S
O465 C476 1.264 . S
O466 Tb431 2.349 . S
O466 C476 1.243 . S
O467 Tb420 2.428 1_565 S
O467 C484 1.256 . S
O468 Tb420 2.308 . S
O468 C483 1.266 . S
O469 Tb431 2.393 . S
O469 C483 1.248 . S
O470 Tb431 2.465 . S
O470 C495 1.264 . S
O471 Tb431 2.387 . S
O471 C487 1.264 . S
O472 Tb420 2.349 . S
O472 C487 1.243 . S
O473 Tb431 2.428 . S
O473 C495 1.256 . S
O474 Tb431 2.308 . S
O474 C494 1.266 . S
O475 Tb420 2.393 . S
O475 C494 1.248 . S
C476 O465 1.264 . S
C476 O466 1.243 . S
C477 C480 1.399 . S
C477 C482 1.383 . S
C477 C484 1.496 . S
C478 C479 1.399 . S
C478 C482 1.389 . S
C479 C478 1.399 . S
C479 C481 1.380 . S
C479 H496 0.929 . S
C480 C477 1.399 . S
C480 C481 1.392 . S
C480 H497 0.929 . S
C481 C479 1.380 . S
C481 C480 1.392 . S
C481 H498 0.929 . S
C482 C477 1.383 . S
C482 C478 1.389 . S
C482 H499 0.931 . S
C483 O468 1.266 . S
C483 O469 1.248 . S
C484 Tb420 2.802 1_565 S
C484 O464 1.264 . S
C484 O467 1.256 . S
C484 C477 1.496 . S
C485 C452 1.450 . S
C485 H462 0.930 . S
C485 C486 1.327 1_545 S
C486 C457 1.427 . S
C486 H463 0.929 . S
C486 C485 1.327 1_565 S
C487 O471 1.264 . S
C487 O472 1.243 . S
C488 C491 1.399 . S
C488 C492 1.383 . S
C488 C495 1.496 . S
C489 C490 1.399 . S
C489 C492 1.389 . S
C490 C489 1.399 . S
C490 C493 1.380 . S
C490 H500 0.929 . S
C491 C488 1.399 . S
C491 C493 1.392 . S
C491 H501 0.929 . S
C492 C488 1.383 . S
C492 C489 1.389 . S
C492 H502 0.931 . S
C493 C490 1.380 . S
C493 C491 1.392 . S
C493 H503 0.929 . S
C494 O474 1.266 . S
C494 O475 1.248 . S
C495 Tb431 2.802 . S
C495 O470 1.264 . S
C495 O473 1.256 . S
C495 C488 1.496 . S
H496 C479 0.929 . S
H497 C480 0.929 . S
H498 C481 0.929 . S
H499 C482 0.931 . S
H500 C490 0.929 . S
H501 C491 0.929 . S
H502 C492 0.931 . S
H503 C493 0.929 . S
Tb504 N533 2.617 . S
Tb504 N539 2.572 . S
Tb504 O548 2.465 1_545 S
Tb504 O549 2.387 . S
Tb504 O551 2.428 1_545 S
Tb504 O552 2.308 . S
Tb504 O556 2.349 . S
Tb504 O559 2.393 . S
Tb504 C568 2.802 1_545 S
C505 N506 1.379 . S
C505 C508 1.416 1_655 S
C505 C512 1.424 . S
N506 C505 1.379 . S
N506 C509 1.334 . S
N506 Tb515 2.617 . S
C507 C509 1.390 . S
C507 C510 1.339 . S
C507 H527 0.930 . S
C508 C505 1.416 1_455 S
C508 C510 1.416 1_455 S
C508 C514 1.448 . S
C509 N506 1.334 . S
C509 C507 1.390 . S
C509 H520 0.930 . S
C510 C507 1.339 . S
C510 C508 1.416 1_655 S
C510 H531 0.930 1_655 S
C511 C512 1.413 1_455 S
C511 C513 1.427 . S
C511 C517 1.416 . S
C512 C505 1.424 . S
C512 C511 1.413 1_655 S
C512 N516 1.361 . S
C513 C511 1.427 . S
C513 C514 1.328 . S
C513 H528 0.929 . S
C514 C508 1.448 . S
C514 C513 1.328 . S
C514 H529 0.930 . S
Tb515 N506 2.617 . S
Tb515 N516 2.572 . S
Tb515 O550 2.349 . S
Tb515 O553 2.393 . S
Tb515 O554 2.465 . S
Tb515 O555 2.387 . S
Tb515 O557 2.428 . S
Tb515 O558 2.308 . S
Tb515 C579 2.802 . S
N516 C512 1.361 . S
N516 Tb515 2.572 . S
N516 C518 1.340 . S
C517 C511 1.416 . S
C517 C519 1.332 1_455 S
C517 H525 0.931 . S
C518 N516 1.340 . S
C518 C519 1.407 . S
C518 H524 0.930 . S
C519 C517 1.332 1_655 S
C519 C518 1.407 . S
C519 H521 0.929 1_655 S
H520 C509 0.930 . S
H521 C519 0.929 1_455 S
H522 C537 0.930 . S
H523 C544 0.929 . S
H524 C518 0.930 . S
H525 C517 0.931 . S
H526 C540 0.930 . S
H527 C507 0.930 . S
H528 C513 0.929 . S
H529 C514 0.930 . S
H530 C535 0.930 . S
H531 C510 0.930 1_455 S
H532 C543 0.931 . S
N533 Tb504 2.617 . S
N533 C534 1.379 . S
N533 C537 1.334 . S
C534 N533 1.379 . S
C534 C536 1.416 . S
C534 C542 1.424 . S
C535 H530 0.930 . S
C535 C537 1.390 . S
C535 C538 1.339 . S
C536 C534 1.416 . S
C536 C538 1.416 . S
C536 C569 1.450 . S
C537 H522 0.930 . S
C537 N533 1.334 . S
C537 C535 1.390 . S
C538 C535 1.339 . S
C538 C536 1.416 . S
C538 H545 0.930 . S
N539 Tb504 2.572 . S
N539 C540 1.340 1_545 S
N539 C542 1.361 . S
C540 H526 0.930 . S
C540 N539 1.340 1_565 S
C540 C544 1.407 . S
C541 C542 1.413 1_565 S
C541 C543 1.416 . S
C541 C570 1.427 . S
C542 C534 1.424 . S
C542 N539 1.361 . S
C542 C541 1.413 1_545 S
C543 H532 0.931 . S
C543 C541 1.416 . S
C543 C544 1.332 . S
C544 H523 0.929 . S
C544 C540 1.407 . S
C544 C543 1.332 . S
H545 C538 0.930 . S
H546 C569 0.930 . S
H547 C570 0.929 . S
O548 Tb504 2.465 1_565 S
O548 C568 1.264 . S
O549 Tb504 2.387 . S
O549 C560 1.264 . S
O550 Tb515 2.349 . S
O550 C560 1.243 . S
O551 Tb504 2.428 1_565 S
O551 C568 1.256 . S
O552 Tb504 2.308 . S
O552 C567 1.266 . S
O553 Tb515 2.393 . S
O553 C567 1.248 . S
O554 Tb515 2.465 . S
O554 C579 1.264 . S
O555 Tb515 2.387 . S
O555 C571 1.264 . S
O556 Tb504 2.349 . S
O556 C571 1.243 . S
O557 Tb515 2.428 . S
O557 C579 1.256 . S
O558 Tb515 2.308 . S
O558 C578 1.266 . S
O559 Tb504 2.393 . S
O559 C578 1.248 . S
C560 O549 1.264 . S
C560 O550 1.243 . S
C561 C564 1.399 . S
C561 C566 1.383 . S
C561 C568 1.496 . S
C562 C563 1.399 . S
C562 C566 1.389 . S
C563 C562 1.399 . S
C563 C565 1.380 . S
C563 H580 0.929 . S
C564 C561 1.399 . S
C564 C565 1.392 . S
C564 H581 0.929 . S
C565 C563 1.380 . S
C565 C564 1.392 . S
C565 H582 0.929 . S
C566 C561 1.383 . S
C566 C562 1.389 . S
C566 H583 0.931 . S
C567 O552 1.266 . S
C567 O553 1.248 . S
C568 Tb504 2.802 1_565 S
C568 O548 1.264 . S
C568 O551 1.256 . S
C568 C561 1.496 . S
C569 C536 1.450 . S
C569 H546 0.930 . S
C569 C570 1.327 1_545 S
C570 C541 1.427 . S
C570 H547 0.929 . S
C570 C569 1.327 1_565 S
C571 O555 1.264 . S
C571 O556 1.243 . S
C572 C575 1.399 . S
C572 C576 1.383 . S
C572 C579 1.496 . S
C573 C574 1.399 . S
C573 C576 1.389 . S
C574 C573 1.399 . S
C574 C577 1.380 . S
C574 H584 0.929 . S
C575 C572 1.399 . S
C575 C577 1.392 . S
C575 H585 0.929 . S
C576 C572 1.383 . S
C576 C573 1.389 . S
C576 H586 0.931 . S
C577 C574 1.380 . S
C577 C575 1.392 . S
C577 H587 0.929 . S
C578 O558 1.266 . S
C578 O559 1.248 . S
C579 Tb515 2.802 . S
C579 O554 1.264 . S
C579 O557 1.256 . S
C579 C572 1.496 . S
H580 C563 0.929 . S
H581 C564 0.929 . S
H582 C565 0.929 . S
H583 C566 0.931 . S
H584 C574 0.929 . S
H585 C575 0.929 . S
H586 C576 0.931 . S
H587 C577 0.929 . S
Tb588 N617 2.617 . S
Tb588 N623 2.572 . S
Tb588 O632 2.465 1_565 S
Tb588 O633 2.387 . S
Tb588 O635 2.428 1_565 S
Tb588 O636 2.308 . S
Tb588 O640 2.349 . S
Tb588 O643 2.393 . S
Tb588 C652 2.802 1_565 S
C589 N590 1.379 . S
C589 C592 1.416 1_455 S
C589 C596 1.424 . S
N590 C589 1.379 . S
N590 C593 1.334 . S
N590 Tb599 2.617 . S
C591 C593 1.390 . S
C591 C594 1.339 . S
C591 H611 0.930 . S
C592 C589 1.416 1_655 S
C592 C594 1.416 1_655 S
C592 C598 1.448 . S
C593 N590 1.334 . S
C593 C591 1.390 . S
C593 H604 0.930 . S
C594 C591 1.339 . S
C594 C592 1.416 1_455 S
C594 H615 0.930 1_455 S
C595 C596 1.413 1_655 S
C595 C597 1.427 . S
C595 C601 1.416 . S
C596 C589 1.424 . S
C596 C595 1.413 1_455 S
C596 N600 1.361 . S
C597 C595 1.427 . S
C597 C598 1.328 . S
C597 H612 0.929 . S
C598 C592 1.448 . S
C598 C597 1.328 . S
C598 H613 0.930 . S
Tb599 N590 2.617 . S
Tb599 N600 2.572 . S
Tb599 O634 2.349 . S
Tb599 O637 2.393 . S
Tb599 O638 2.465 . S
Tb599 O639 2.387 . S
Tb599 O641 2.428 . S
Tb599 O642 2.308 . S
Tb599 C663 2.802 . S
N600 C596 1.361 . S
N600 Tb599 2.572 . S
N600 C602 1.340 . S
C601 C595 1.416 . S
C601 C603 1.332 1_655 S
C601 H609 0.931 . S
C602 N600 1.340 . S
C602 C603 1.407 . S
C602 H608 0.930 . S
C603 C601 1.332 1_455 S
C603 C602 1.407 . S
C603 H605 0.929 1_455 S
H604 C593 0.930 . S
H605 C603 0.929 1_655 S
H606 C621 0.930 . S
H607 C628 0.929 . S
H608 C602 0.930 . S
H609 C601 0.931 . S
H610 C624 0.930 . S
H611 C591 0.930 . S
H612 C597 0.929 . S
H613 C598 0.930 . S
H614 C619 0.930 . S
H615 C594 0.930 1_655 S
H616 C627 0.931 . S
N617 Tb588 2.617 . S
N617 C618 1.379 . S
N617 C621 1.334 . S
C618 N617 1.379 . S
C618 C620 1.416 . S
C618 C626 1.424 . S
C619 H614 0.930 . S
C619 C621 1.390 . S
C619 C622 1.339 . S
C620 C618 1.416 . S
C620 C622 1.416 . S
C620 C653 1.450 . S
C621 H606 0.930 . S
C621 N617 1.334 . S
C621 C619 1.390 . S
C622 C619 1.339 . S
C622 C620 1.416 . S
C622 H629 0.930 . S
N623 Tb588 2.572 . S
N623 C624 1.340 1_565 S
N623 C626 1.361 . S
C624 H610 0.930 . S
C624 N623 1.340 1_545 S
C624 C628 1.407 . S
C625 C626 1.413 1_545 S
C625 C627 1.416 . S
C625 C654 1.427 . S
C626 C618 1.424 . S
C626 N623 1.361 . S
C626 C625 1.413 1_565 S
C627 H616 0.931 . S
C627 C625 1.416 . S
C627 C628 1.332 . S
C628 H607 0.929 . S
C628 C624 1.407 . S
C628 C627 1.332 . S
H629 C622 0.930 . S
H630 C653 0.930 . S
H631 C654 0.929 . S
O632 Tb588 2.465 1_545 S
O632 C652 1.264 . S
O633 Tb588 2.387 . S
O633 C644 1.264 . S
O634 Tb599 2.349 . S
O634 C644 1.243 . S
O635 Tb588 2.428 1_545 S
O635 C652 1.256 . S
O636 Tb588 2.308 . S
O636 C651 1.266 . S
O637 Tb599 2.393 . S
O637 C651 1.248 . S
O638 Tb599 2.465 . S
O638 C663 1.264 . S
O639 Tb599 2.387 . S
O639 C655 1.264 . S
O640 Tb588 2.349 . S
O640 C655 1.243 . S
O641 Tb599 2.428 . S
O641 C663 1.256 . S
O642 Tb599 2.308 . S
O642 C662 1.266 . S
O643 Tb588 2.393 . S
O643 C662 1.248 . S
C644 O633 1.264 . S
C644 O634 1.243 . S
C645 C648 1.399 . S
C645 C650 1.383 . S
C645 C652 1.496 . S
C646 C647 1.399 . S
C646 C650 1.389 . S
C647 C646 1.399 . S
C647 C649 1.380 . S
C647 H664 0.929 . S
C648 C645 1.399 . S
C648 C649 1.392 . S
C648 H665 0.929 . S
C649 C647 1.380 . S
C649 C648 1.392 . S
C649 H666 0.929 . S
C650 C645 1.383 . S
C650 C646 1.389 . S
C650 H667 0.931 . S
C651 O636 1.266 . S
C651 O637 1.248 . S
C652 Tb588 2.802 1_545 S
C652 O632 1.264 . S
C652 O635 1.256 . S
C652 C645 1.496 . S
C653 C620 1.450 . S
C653 H630 0.930 . S
C653 C654 1.327 1_565 S
C654 C625 1.427 . S
C654 H631 0.929 . S
C654 C653 1.327 1_545 S
C655 O639 1.264 . S
C655 O640 1.243 . S
C656 C659 1.399 . S
C656 C660 1.383 . S
C656 C663 1.496 . S
C657 C658 1.399 . S
C657 C660 1.389 . S
C658 C657 1.399 . S
C658 C661 1.380 . S
C658 H668 0.929 . S
C659 C656 1.399 . S
C659 C661 1.392 . S
C659 H669 0.929 . S
C660 C656 1.383 . S
C660 C657 1.389 . S
C660 H670 0.931 . S
C661 C658 1.380 . S
C661 C659 1.392 . S
C661 H671 0.929 . S
C662 O642 1.266 . S
C662 O643 1.248 . S
C663 Tb599 2.802 . S
C663 O638 1.264 . S
C663 O641 1.256 . S
C663 C656 1.496 . S
H664 C647 0.929 . S
H665 C648 0.929 . S
H666 C649 0.929 . S
H667 C650 0.931 . S
H668 C658 0.929 . S
H669 C659 0.929 . S
H670 C660 0.931 . S
H671 C661 0.929 . S
Tb672 N701 2.617 . S
Tb672 N707 2.572 . S
Tb672 O716 2.465 . S
Tb672 O717 2.387 . S
Tb672 O719 2.428 . S
Tb672 O720 2.308 . S
Tb672 O724 2.349 . S
Tb672 O727 2.393 . S
Tb672 C736 2.802 . S
C673 N674 1.379 . S
C673 C676 1.416 . S
C673 C680 1.424 . S
N674 C673 1.379 . S
N674 C677 1.334 . S
N674 Tb683 2.617 . S
C675 C677 1.390 . S
C675 C678 1.339 . S
C675 H695 0.930 1_554 S
C676 C673 1.416 . S
C676 C678 1.416 . S
C676 C682 1.448 . S
C677 N674 1.334 . S
C677 C675 1.390 . S
C677 H688 0.930 . S
C678 C675 1.339 . S
C678 C676 1.416 . S
C678 H699 0.930 . S
C679 C680 1.413 . S
C679 C681 1.427 . S
C679 C685 1.416 . S
C680 C673 1.424 . S
C680 C679 1.413 . S
C680 N684 1.361 . S
C681 C679 1.427 . S
C681 C682 1.328 . S
C681 H696 0.929 . S
C682 C676 1.448 . S
C682 C681 1.328 . S
C682 H697 0.930 . S
Tb683 N674 2.617 . S
Tb683 N684 2.572 . S
Tb683 O718 2.349 . S
Tb683 O721 2.393 . S
Tb683 O722 2.465 . S
Tb683 O723 2.387 . S
Tb683 O725 2.428 . S
Tb683 O726 2.308 . S
Tb683 C747 2.802 . S
N684 C680 1.361 . S
N684 Tb683 2.572 . S
N684 C686 1.340 . S
C685 C679 1.416 . S
C685 C687 1.332 . S
C685 H693 0.931 . S
C686 N684 1.340 . S
C686 C687 1.407 . S
C686 H692 0.930 . S
C687 C685 1.332 . S
C687 C686 1.407 . S
C687 H689 0.929 . S
H688 C677 0.930 . S
H689 C687 0.929 . S
H690 C705 0.930 . S
H691 C712 0.929 . S
H692 C686 0.930 . S
H693 C685 0.931 . S
H694 C708 0.930 . S
H695 C675 0.930 1_556 S
H696 C681 0.929 . S
H697 C682 0.930 . S
H698 C703 0.930 . S
H699 C678 0.930 . S
H700 C711 0.931 . S
N701 Tb672 2.617 . S
N701 C702 1.379 . S
N701 C705 1.334 . S
C702 N701 1.379 . S
C702 C704 1.416 . S
C702 C710 1.424 . S
C703 H698 0.930 . S
C703 C705 1.390 . S
C703 C706 1.339 . S
C704 C702 1.416 . S
C704 C706 1.416 . S
C704 C737 1.448 . S
C705 H690 0.930 . S
C705 N701 1.334 . S
C705 C703 1.390 . S
C706 C703 1.339 . S
C706 C704 1.416 . S
C706 H713 0.930 . S
N707 Tb672 2.572 . S
N707 C708 1.340 . S
N707 C710 1.361 . S
C708 H694 0.930 . S
C708 N707 1.340 . S
C708 C712 1.407 . S
C709 C710 1.413 . S
C709 C711 1.416 . S
C709 C738 1.427 . S
C710 C702 1.424 . S
C710 N707 1.361 . S
C710 C709 1.413 . S
C711 H700 0.931 . S
C711 C709 1.416 . S
C711 C712 1.332 . S
C712 H691 0.929 . S
C712 C708 1.407 . S
C712 C711 1.332 . S
H713 C706 0.930 . S
H714 C737 0.930 . S
H715 C738 0.929 . S
O716 Tb672 2.465 . S
O716 C736 1.264 . S
O717 Tb672 2.387 . S
O717 C728 1.264 . S
O718 Tb683 2.349 . S
O718 C728 1.243 . S
O719 Tb672 2.428 . S
O719 C736 1.256 . S
O720 Tb672 2.308 . S
O720 C735 1.266 . S
O721 Tb683 2.393 . S
O721 C735 1.248 . S
O722 Tb683 2.465 . S
O722 C747 1.264 . S
O723 Tb683 2.387 . S
O723 C739 1.264 . S
O724 Tb672 2.349 . S
O724 C739 1.243 . S
O725 Tb683 2.428 . S
O725 C747 1.256 . S
O726 Tb683 2.308 . S
O726 C746 1.266 . S
O727 Tb672 2.393 . S
O727 C746 1.248 . S
C728 O717 1.264 . S
C728 O718 1.243 . S
C729 C732 1.399 . S
C729 C734 1.383 . S
C729 C736 1.496 . S
C730 C731 1.399 1_565 S
C730 C734 1.389 . S
C731 C730 1.399 1_545 S
C731 C733 1.380 1_545 S
C731 H748 0.929 . S
C732 C729 1.399 . S
C732 C733 1.392 . S
C732 H749 0.929 . S
C733 C731 1.380 1_565 S
C733 C732 1.392 . S
C733 H750 0.929 1_565 S
C734 C729 1.383 . S
C734 C730 1.389 . S
C734 H751 0.931 . S
C735 O720 1.266 . S
C735 O721 1.248 . S
C736 Tb672 2.802 . S
C736 O716 1.264 . S
C736 O719 1.256 . S
C736 C729 1.496 . S
C737 C704 1.448 . S
C737 H714 0.930 . S
C737 C738 1.328 . S
C738 C709 1.427 . S
C738 H715 0.929 . S
C738 C737 1.328 . S
C739 O723 1.264 . S
C739 O724 1.243 . S
C740 C743 1.399 . S
C740 C744 1.383 . S
C740 C747 1.496 . S
C741 C742 1.399 . S
C741 C744 1.389 . S
C742 C741 1.399 . S
C742 C745 1.380 . S
C742 H752 0.929 . S
C743 C740 1.399 . S
C743 C745 1.392 . S
C743 H753 0.929 . S
C744 C740 1.383 . S
C744 C741 1.389 . S
C744 H754 0.931 . S
C745 C742 1.380 . S
C745 C743 1.392 . S
C745 H755 0.929 . S
C746 O726 1.266 . S
C746 O727 1.248 . S
C747 Tb683 2.802 . S
C747 O722 1.264 . S
C747 O725 1.256 . S
C747 C740 1.496 . S
H748 C731 0.929 . S
H749 C732 0.929 . S
H750 C733 0.929 1_545 S
H751 C734 0.931 . S
H752 C742 0.929 . S
H753 C743 0.929 . S
H754 C744 0.931 . S
H755 C745 0.929 . S
Tb756 N785 2.617 . S
Tb756 N791 2.572 . S
Tb756 O800 2.465 . S
Tb756 O801 2.387 . S
Tb756 O803 2.428 . S
Tb756 O804 2.308 . S
Tb756 O808 2.349 . S
Tb756 O811 2.393 . S
Tb756 C820 2.802 . S
C757 N758 1.379 . S
C757 C760 1.416 . S
C757 C764 1.424 . S
N758 C757 1.379 . S
N758 C761 1.334 . S
N758 Tb767 2.617 . S
C759 C761 1.390 . S
C759 C762 1.339 . S
C759 H779 0.930 1_554 S
C760 C757 1.416 . S
C760 C762 1.416 . S
C760 C766 1.448 . S
C761 N758 1.334 . S
C761 C759 1.390 . S
C761 H772 0.930 . S
C762 C759 1.339 . S
C762 C760 1.416 . S
C762 H783 0.930 . S
C763 C764 1.413 . S
C763 C765 1.427 . S
C763 C769 1.416 . S
C764 C757 1.424 . S
C764 C763 1.413 . S
C764 N768 1.361 . S
C765 C763 1.427 . S
C765 C766 1.328 . S
C765 H780 0.929 . S
C766 C760 1.448 . S
C766 C765 1.328 . S
C766 H781 0.930 . S
Tb767 N758 2.617 . S
Tb767 N768 2.572 . S
Tb767 O802 2.349 . S
Tb767 O805 2.393 . S
Tb767 O806 2.465 . S
Tb767 O807 2.387 . S
Tb767 O809 2.428 . S
Tb767 O810 2.308 . S
Tb767 C831 2.802 . S
N768 C764 1.361 . S
N768 Tb767 2.572 . S
N768 C770 1.340 . S
C769 C763 1.416 . S
C769 C771 1.332 . S
C769 H777 0.931 . S
C770 N768 1.340 . S
C770 C771 1.407 . S
C770 H776 0.930 . S
C771 C769 1.332 . S
C771 C770 1.407 . S
C771 H773 0.929 . S
H772 C761 0.930 . S
H773 C771 0.929 . S
H774 C789 0.930 . S
H775 C796 0.929 . S
H776 C770 0.930 . S
H777 C769 0.931 . S
H778 C792 0.930 . S
H779 C759 0.930 1_556 S
H780 C765 0.929 . S
H781 C766 0.930 . S
H782 C787 0.930 . S
H783 C762 0.930 . S
H784 C795 0.931 . S
N785 Tb756 2.617 . S
N785 C786 1.379 . S
N785 C789 1.334 . S
C786 N785 1.379 . S
C786 C788 1.416 . S
C786 C794 1.424 . S
C787 H782 0.930 . S
C787 C789 1.390 . S
C787 C790 1.339 . S
C788 C786 1.416 . S
C788 C790 1.416 . S
C788 C821 1.448 . S
C789 H774 0.930 . S
C789 N785 1.334 . S
C789 C787 1.390 . S
C790 C787 1.339 . S
C790 C788 1.416 . S
C790 H797 0.930 . S
N791 Tb756 2.572 . S
N791 C792 1.340 . S
N791 C794 1.361 . S
C792 H778 0.930 . S
C792 N791 1.340 . S
C792 C796 1.407 . S
C793 C794 1.413 . S
C793 C795 1.416 . S
C793 C822 1.427 . S
C794 C786 1.424 . S
C794 N791 1.361 . S
C794 C793 1.413 . S
C795 H784 0.931 . S
C795 C793 1.416 . S
C795 C796 1.332 . S
C796 H775 0.929 . S
C796 C792 1.407 . S
C796 C795 1.332 . S
H797 C790 0.930 . S
H798 C821 0.930 . S
H799 C822 0.929 . S
O800 Tb756 2.465 . S
O800 C820 1.264 . S
O801 Tb756 2.387 . S
O801 C812 1.264 . S
O802 Tb767 2.349 . S
O802 C812 1.243 . S
O803 Tb756 2.428 . S
O803 C820 1.256 . S
O804 Tb756 2.308 . S
O804 C819 1.266 . S
O805 Tb767 2.393 . S
O805 C819 1.248 . S
O806 Tb767 2.465 . S
O806 C831 1.264 . S
O807 Tb767 2.387 . S
O807 C823 1.264 . S
O808 Tb756 2.349 . S
O808 C823 1.243 . S
O809 Tb767 2.428 . S
O809 C831 1.256 . S
O810 Tb767 2.308 . S
O810 C830 1.266 . S
O811 Tb756 2.393 . S
O811 C830 1.248 . S
C812 O801 1.264 . S
C812 O802 1.243 . S
C813 C816 1.399 . S
C813 C818 1.383 . S
C813 C820 1.496 . S
C814 C815 1.399 1_545 S
C814 C818 1.389 . S
C815 C814 1.399 1_565 S
C815 C817 1.380 1_565 S
C815 H832 0.929 . S
C816 C813 1.399 . S
C816 C817 1.392 . S
C816 H833 0.929 . S
C817 C815 1.380 1_545 S
C817 C816 1.392 . S
C817 H834 0.929 1_545 S
C818 C813 1.383 . S
C818 C814 1.389 . S
C818 H835 0.931 . S
C819 O804 1.266 . S
C819 O805 1.248 . S
C820 Tb756 2.802 . S
C820 O800 1.264 . S
C820 O803 1.256 . S
C820 C813 1.496 . S
C821 C788 1.448 . S
C821 H798 0.930 . S
C821 C822 1.328 . S
C822 C793 1.427 . S
C822 H799 0.929 . S
C822 C821 1.328 . S
C823 O807 1.264 . S
C823 O808 1.243 . S
C824 C827 1.399 . S
C824 C828 1.383 . S
C824 C831 1.496 . S
C825 C826 1.399 . S
C825 C828 1.389 . S
C826 C825 1.399 . S
C826 C829 1.380 . S
C826 H836 0.929 . S
C827 C824 1.399 . S
C827 C829 1.392 . S
C827 H837 0.929 . S
C828 C824 1.383 . S
C828 C825 1.389 . S
C828 H838 0.931 . S
C829 C826 1.380 . S
C829 C827 1.392 . S
C829 H839 0.929 . S
C830 O810 1.266 . S
C830 O811 1.248 . S
C831 Tb767 2.802 . S
C831 O806 1.264 . S
C831 O809 1.256 . S
C831 C824 1.496 . S
H832 C815 0.929 . S
H833 C816 0.929 . S
H834 C817 0.929 1_565 S
H835 C818 0.931 . S
H836 C826 0.929 . S
H837 C827 0.929 . S
H838 C828 0.931 . S
H839 C829 0.929 . S
Tb840 N869 2.617 . S
Tb840 N875 2.572 . S
Tb840 O884 2.465 . S
Tb840 O885 2.387 . S
Tb840 O887 2.428 . S
Tb840 O888 2.308 . S
Tb840 O892 2.349 . S
Tb840 O895 2.393 . S
Tb840 C904 2.802 . S
C841 N842 1.379 . S
C841 C844 1.416 . S
C841 C848 1.424 . S
N842 C841 1.379 . S
N842 C845 1.334 . S
N842 Tb851 2.617 . S
C843 C845 1.390 . S
C843 C846 1.339 . S
C843 H863 0.930 . S
C844 C841 1.416 . S
C844 C846 1.416 . S
C844 C850 1.448 . S
C845 N842 1.334 . S
C845 C843 1.390 . S
C845 H856 0.930 . S
C846 C843 1.339 . S
C846 C844 1.416 . S
C846 H867 0.930 . S
C847 C848 1.413 . S
C847 C849 1.427 . S
C847 C853 1.416 . S
C848 C841 1.424 . S
C848 C847 1.413 . S
C848 N852 1.361 . S
C849 C847 1.427 . S
C849 C850 1.328 . S
C849 H864 0.929 . S
C850 C844 1.448 . S
C850 C849 1.328 . S
C850 H865 0.930 . S
Tb851 N842 2.617 . S
Tb851 N852 2.572 . S
Tb851 O886 2.349 . S
Tb851 O889 2.393 . S
Tb851 O890 2.465 . S
Tb851 O891 2.387 . S
Tb851 O893 2.428 . S
Tb851 O894 2.308 . S
Tb851 C915 2.802 . S
N852 C848 1.361 . S
N852 Tb851 2.572 . S
N852 C854 1.340 . S
C853 C847 1.416 . S
C853 C855 1.332 . S
C853 H861 0.931 . S
C854 N852 1.340 . S
C854 C855 1.407 . S
C854 H860 0.930 . S
C855 C853 1.332 . S
C855 C854 1.407 . S
C855 H857 0.929 . S
H856 C845 0.930 . S
H857 C855 0.929 . S
H858 C873 0.930 . S
H859 C880 0.929 . S
H860 C854 0.930 . S
H861 C853 0.931 . S
H862 C876 0.930 . S
H863 C843 0.930 . S
H864 C849 0.929 . S
H865 C850 0.930 . S
H866 C871 0.930 . S
H867 C846 0.930 . S
H868 C879 0.931 . S
N869 Tb840 2.617 . S
N869 C870 1.379 . S
N869 C873 1.334 . S
C870 N869 1.379 . S
C870 C872 1.416 . S
C870 C878 1.424 . S
C871 H866 0.930 . S
C871 C873 1.390 . S
C871 C874 1.339 . S
C872 C870 1.416 . S
C872 C874 1.416 . S
C872 C905 1.448 . S
C873 H858 0.930 . S
C873 N869 1.334 . S
C873 C871 1.390 . S
C874 C871 1.339 . S
C874 C872 1.416 . S
C874 H881 0.930 . S
N875 Tb840 2.572 . S
N875 C876 1.340 . S
N875 C878 1.361 . S
C876 H862 0.930 . S
C876 N875 1.340 . S
C876 C880 1.407 . S
C877 C878 1.413 . S
C877 C879 1.416 . S
C877 C906 1.427 . S
C878 C870 1.424 . S
C878 N875 1.361 . S
C878 C877 1.413 . S
C879 H868 0.931 . S
C879 C877 1.416 . S
C879 C880 1.332 . S
C880 H859 0.929 . S
C880 C876 1.407 . S
C880 C879 1.332 . S
H881 C874 0.930 . S
H882 C905 0.930 . S
H883 C906 0.929 . S
O884 Tb840 2.465 . S
O884 C904 1.264 . S
O885 Tb840 2.387 . S
O885 C896 1.264 . S
O886 Tb851 2.349 . S
O886 C896 1.243 . S
O887 Tb840 2.428 . S
O887 C904 1.256 . S
O888 Tb840 2.308 . S
O888 C903 1.266 . S
O889 Tb851 2.393 . S
O889 C903 1.248 . S
O890 Tb851 2.465 . S
O890 C915 1.264 . S
O891 Tb851 2.387 . S
O891 C907 1.264 . S
O892 Tb840 2.349 . S
O892 C907 1.243 . S
O893 Tb851 2.428 . S
O893 C915 1.256 . S
O894 Tb851 2.308 . S
O894 C914 1.266 . S
O895 Tb840 2.393 . S
O895 C914 1.248 . S
C896 O885 1.264 . S
C896 O886 1.243 . S
C897 C900 1.399 . S
C897 C902 1.383 . S
C897 C904 1.496 . S
C898 C899 1.399 1_545 S
C898 C902 1.389 . S
C899 C898 1.399 1_565 S
C899 C901 1.380 1_565 S
C899 H916 0.929 . S
C900 C897 1.399 . S
C900 C901 1.392 . S
C900 H917 0.929 . S
C901 C899 1.380 1_545 S
C901 C900 1.392 . S
C901 H918 0.929 1_545 S
C902 C897 1.383 . S
C902 C898 1.389 . S
C902 H919 0.931 . S
C903 O888 1.266 . S
C903 O889 1.248 . S
C904 Tb840 2.802 . S
C904 O884 1.264 . S
C904 O887 1.256 . S
C904 C897 1.496 . S
C905 C872 1.448 . S
C905 H882 0.930 . S
C905 C906 1.328 . S
C906 C877 1.427 . S
C906 H883 0.929 . S
C906 C905 1.328 . S
C907 O891 1.264 . S
C907 O892 1.243 . S
C908 C911 1.399 . S
C908 C912 1.383 . S
C908 C915 1.496 . S
C909 C910 1.399 . S
C909 C912 1.389 . S
C910 C909 1.399 . S
C910 C913 1.380 . S
C910 H920 0.929 . S
C911 C908 1.399 . S
C911 C913 1.392 . S
C911 H921 0.929 . S
C912 C908 1.383 . S
C912 C909 1.389 . S
C912 H922 0.931 . S
C913 C910 1.380 . S
C913 C911 1.392 . S
C913 H923 0.929 . S
C914 O894 1.266 . S
C914 O895 1.248 . S
C915 Tb851 2.802 . S
C915 O890 1.264 . S
C915 O893 1.256 . S
C915 C908 1.496 . S
H916 C899 0.929 . S
H917 C900 0.929 . S
H918 C901 0.929 1_565 S
H919 C902 0.931 . S
H920 C910 0.929 . S
H921 C911 0.929 . S
H922 C912 0.931 . S
H923 C913 0.929 . S
Tb924 N953 2.617 . S
Tb924 N959 2.572 . S
Tb924 O968 2.465 . S
Tb924 O969 2.387 . S
Tb924 O971 2.428 . S
Tb924 O972 2.308 . S
Tb924 O976 2.349 . S
Tb924 O979 2.393 . S
Tb924 C988 2.802 . S
C925 N926 1.379 . S
C925 C928 1.416 . S
C925 C932 1.424 . S
N926 C925 1.379 . S
N926 C929 1.334 . S
N926 Tb935 2.617 . S
C927 C929 1.390 . S
C927 C930 1.339 . S
C927 H947 0.930 . S
C928 C925 1.416 . S
C928 C930 1.416 . S
C928 C934 1.448 . S
C929 N926 1.334 . S
C929 C927 1.390 . S
C929 H940 0.930 . S
C930 C927 1.339 . S
C930 C928 1.416 . S
C930 H951 0.930 . S
C931 C932 1.413 . S
C931 C933 1.427 . S
C931 C937 1.416 . S
C932 C925 1.424 . S
C932 C931 1.413 . S
C932 N936 1.361 . S
C933 C931 1.427 . S
C933 C934 1.328 . S
C933 H948 0.929 . S
C934 C928 1.448 . S
C934 C933 1.328 . S
C934 H949 0.930 . S
Tb935 N926 2.617 . S
Tb935 N936 2.572 . S
Tb935 O970 2.349 . S
Tb935 O973 2.393 . S
Tb935 O974 2.465 . S
Tb935 O975 2.387 . S
Tb935 O977 2.428 . S
Tb935 O978 2.308 . S
Tb935 C999 2.802 . S
N936 C932 1.361 . S
N936 Tb935 2.572 . S
N936 C938 1.340 . S
C937 C931 1.416 . S
C937 C939 1.332 . S
C937 H945 0.931 . S
C938 N936 1.340 . S
C938 C939 1.407 . S
C938 H944 0.930 . S
C939 C937 1.332 . S
C939 C938 1.407 . S
C939 H941 0.929 . S
H940 C929 0.930 . S
H941 C939 0.929 . S
H942 C957 0.930 . S
H943 C964 0.929 . S
H944 C938 0.930 . S
H945 C937 0.931 . S
H946 C960 0.930 . S
H947 C927 0.930 . S
H948 C933 0.929 . S
H949 C934 0.930 . S
H950 C955 0.930 . S
H951 C930 0.930 . S
H952 C963 0.931 . S
N953 Tb924 2.617 . S
N953 C954 1.379 . S
N953 C957 1.334 . S
C954 N953 1.379 . S
C954 C956 1.416 . S
C954 C962 1.424 . S
C955 H950 0.930 . S
C955 C957 1.390 . S
C955 C958 1.339 . S
C956 C954 1.416 . S
C956 C958 1.416 . S
C956 C989 1.448 . S
C957 H942 0.930 . S
C957 N953 1.334 . S
C957 C955 1.390 . S
C958 C955 1.339 . S
C958 C956 1.416 . S
C958 H965 0.930 . S
N959 Tb924 2.572 . S
N959 C960 1.340 . S
N959 C962 1.361 . S
C960 H946 0.930 . S
C960 N959 1.340 . S
C960 C964 1.407 . S
C961 C962 1.413 . S
C961 C963 1.416 . S
C961 C990 1.427 . S
C962 C954 1.424 . S
C962 N959 1.361 . S
C962 C961 1.413 . S
C963 H952 0.931 . S
C963 C961 1.416 . S
C963 C964 1.332 . S
C964 H943 0.929 . S
C964 C960 1.407 . S
C964 C963 1.332 . S
H965 C958 0.930 . S
H966 C989 0.930 . S
H967 C990 0.929 . S
O968 Tb924 2.465 . S
O968 C988 1.264 . S
O969 Tb924 2.387 . S
O969 C980 1.264 . S
O970 Tb935 2.349 . S
O970 C980 1.243 . S
O971 Tb924 2.428 . S
O971 C988 1.256 . S
O972 Tb924 2.308 . S
O972 C987 1.266 . S
O973 Tb935 2.393 . S
O973 C987 1.248 . S
O974 Tb935 2.465 . S
O974 C999 1.264 . S
O975 Tb935 2.387 . S
O975 C991 1.264 . S
O976 Tb924 2.349 . S
O976 C991 1.243 . S
O977 Tb935 2.428 . S
O977 C999 1.256 . S
O978 Tb935 2.308 . S
O978 C998 1.266 . S
O979 Tb924 2.393 . S
O979 C998 1.248 . S
C980 O969 1.264 . S
C980 O970 1.243 . S
C981 C984 1.399 . S
C981 C986 1.383 . S
C981 C988 1.496 . S
C982 C983 1.399 1_565 S
C982 C986 1.389 . S
C983 C982 1.399 1_545 S
C983 C985 1.380 1_545 S
C983 H1000 0.929 . S
C984 C981 1.399 . S
C984 C985 1.392 . S
C984 H1001 0.929 . S
C985 C983 1.380 1_565 S
C985 C984 1.392 . S
C985 H1002 0.929 1_565 S
C986 C981 1.383 . S
C986 C982 1.389 . S
C986 H1003 0.931 . S
C987 O972 1.266 . S
C987 O973 1.248 . S
C988 Tb924 2.802 . S
C988 O968 1.264 . S
C988 O971 1.256 . S
C988 C981 1.496 . S
C989 C956 1.448 . S
C989 H966 0.930 . S
C989 C990 1.328 . S
C990 C961 1.427 . S
C990 H967 0.929 . S
C990 C989 1.328 . S
C991 O975 1.264 . S
C991 O976 1.243 . S
C992 C995 1.399 . S
C992 C996 1.383 . S
C992 C999 1.496 . S
C993 C994 1.399 . S
C993 C996 1.389 . S
C994 C993 1.399 . S
C994 C997 1.380 . S
C994 H1004 0.929 . S
C995 C992 1.399 . S
C995 C997 1.392 . S
C995 H1005 0.929 . S
C996 C992 1.383 . S
C996 C993 1.389 . S
C996 H1006 0.931 . S
C997 C994 1.380 . S
C997 C995 1.392 . S
C997 H1007 0.929 . S
C998 O978 1.266 . S
C998 O979 1.248 . S
C999 Tb935 2.802 . S
C999 O974 1.264 . S
C999 O977 1.256 . S
C999 C992 1.496 . S
H1000 C983 0.929 . S
H1001 C984 0.929 . S
H1002 C985 0.929 1_545 S
H1003 C986 0.931 . S
H1004 C994 0.929 . S
H1005 C995 0.929 . S
H1006 C996 0.931 . S
H1007 C997 0.929 . S
Tb1008 N1037 2.617 . S
Tb1008 N1043 2.572 . S
Tb1008 O1052 2.465 . S
Tb1008 O1053 2.387 . S
Tb1008 O1055 2.428 . S
Tb1008 O1056 2.308 . S
Tb1008 O1060 2.349 . S
Tb1008 O1063 2.393 . S
Tb1008 C1072 2.802 . S
C1009 N1010 1.379 . S
C1009 C1012 1.416 . S
C1009 C1016 1.424 . S
N1010 C1009 1.379 . S
N1010 C1013 1.334 . S
N1010 Tb1019 2.617 . S
C1011 C1013 1.390 . S
C1011 C1014 1.339 . S
C1011 H1031 0.930 . S
C1012 C1009 1.416 . S
C1012 C1014 1.416 . S
C1012 C1018 1.448 . S
C1013 N1010 1.334 . S
C1013 C1011 1.390 . S
C1013 H1024 0.930 . S
C1014 C1011 1.339 . S
C1014 C1012 1.416 . S
C1014 H1035 0.930 . S
C1015 C1016 1.413 . S
C1015 C1017 1.427 . S
C1015 C1021 1.416 . S
C1016 C1009 1.424 . S
C1016 C1015 1.413 . S
C1016 N1020 1.361 . S
C1017 C1015 1.427 . S
C1017 C1018 1.328 . S
C1017 H1032 0.929 . S
C1018 C1012 1.448 . S
C1018 C1017 1.328 . S
C1018 H1033 0.930 . S
Tb1019 N1010 2.617 . S
Tb1019 N1020 2.572 . S
Tb1019 O1054 2.349 . S
Tb1019 O1057 2.393 . S
Tb1019 O1058 2.465 . S
Tb1019 O1059 2.387 . S
Tb1019 O1061 2.428 . S
Tb1019 O1062 2.308 . S
Tb1019 C1083 2.802 . S
N1020 C1016 1.361 . S
N1020 Tb1019 2.572 . S
N1020 C1022 1.340 . S
C1021 C1015 1.416 . S
C1021 C1023 1.332 . S
C1021 H1029 0.931 . S
C1022 N1020 1.340 . S
C1022 C1023 1.407 . S
C1022 H1028 0.930 . S
C1023 C1021 1.332 . S
C1023 C1022 1.407 . S
C1023 H1025 0.929 . S
H1024 C1013 0.930 . S
H1025 C1023 0.929 . S
H1026 C1041 0.930 . S
H1027 C1048 0.929 . S
H1028 C1022 0.930 . S
H1029 C1021 0.931 . S
H1030 C1044 0.930 . S
H1031 C1011 0.930 . S
H1032 C1017 0.929 . S
H1033 C1018 0.930 . S
H1034 C1039 0.930 1_554 S
H1035 C1014 0.930 . S
H1036 C1047 0.931 . S
N1037 Tb1008 2.617 . S
N1037 C1038 1.379 . S
N1037 C1041 1.334 . S
C1038 N1037 1.379 . S
C1038 C1040 1.416 . S
C1038 C1046 1.424 . S
C1039 H1034 0.930 1_556 S
C1039 C1041 1.390 . S
C1039 C1042 1.339 . S
C1040 C1038 1.416 . S
C1040 C1042 1.416 . S
C1040 C1073 1.448 . S
C1041 H1026 0.930 . S
C1041 N1037 1.334 . S
C1041 C1039 1.390 . S
C1042 C1039 1.339 . S
C1042 C1040 1.416 . S
C1042 H1049 0.930 . S
N1043 Tb1008 2.572 . S
N1043 C1044 1.340 . S
N1043 C1046 1.361 . S
C1044 H1030 0.930 . S
C1044 N1043 1.340 . S
C1044 C1048 1.407 . S
C1045 C1046 1.413 . S
C1045 C1047 1.416 . S
C1045 C1074 1.427 . S
C1046 C1038 1.424 . S
C1046 N1043 1.361 . S
C1046 C1045 1.413 . S
C1047 H1036 0.931 . S
C1047 C1045 1.416 . S
C1047 C1048 1.332 . S
C1048 H1027 0.929 . S
C1048 C1044 1.407 . S
C1048 C1047 1.332 . S
H1049 C1042 0.930 . S
H1050 C1073 0.930 . S
H1051 C1074 0.929 . S
O1052 Tb1008 2.465 . S
O1052 C1072 1.264 . S
O1053 Tb1008 2.387 . S
O1053 C1064 1.264 . S
O1054 Tb1019 2.349 . S
O1054 C1064 1.243 . S
O1055 Tb1008 2.428 . S
O1055 C1072 1.256 . S
O1056 Tb1008 2.308 . S
O1056 C1071 1.266 . S
O1057 Tb1019 2.393 . S
O1057 C1071 1.248 . S
O1058 Tb1019 2.465 . S
O1058 C1083 1.264 . S
O1059 Tb1019 2.387 . S
O1059 C1075 1.264 . S
O1060 Tb1008 2.349 . S
O1060 C1075 1.243 . S
O1061 Tb1019 2.428 . S
O1061 C1083 1.256 . S
O1062 Tb1019 2.308 . S
O1062 C1082 1.266 . S
O1063 Tb1008 2.393 . S
O1063 C1082 1.248 . S
C1064 O1053 1.264 . S
C1064 O1054 1.243 . S
C1065 C1068 1.399 . S
C1065 C1070 1.383 . S
C1065 C1072 1.496 . S
C1066 C1067 1.399 . S
C1066 C1070 1.389 . S
C1067 C1066 1.399 . S
C1067 C1069 1.380 . S
C1067 H1084 0.929 . S
C1068 C1065 1.399 . S
C1068 C1069 1.392 . S
C1068 H1085 0.929 . S
C1069 C1067 1.380 . S
C1069 C1068 1.392 . S
C1069 H1086 0.929 . S
C1070 C1065 1.383 . S
C1070 C1066 1.389 . S
C1070 H1087 0.931 . S
C1071 O1056 1.266 . S
C1071 O1057 1.248 . S
C1072 Tb1008 2.802 . S
C1072 O1052 1.264 . S
C1072 O1055 1.256 . S
C1072 C1065 1.496 . S
C1073 C1040 1.448 . S
C1073 H1050 0.930 . S
C1073 C1074 1.328 . S
C1074 C1045 1.427 . S
C1074 H1051 0.929 . S
C1074 C1073 1.328 . S
C1075 O1059 1.264 . S
C1075 O1060 1.243 . S
C1076 C1079 1.399 . S
C1076 C1080 1.383 . S
C1076 C1083 1.496 . S
C1077 C1078 1.399 1_545 S
C1077 C1080 1.389 . S
C1078 C1077 1.399 1_565 S
C1078 C1081 1.380 1_565 S
C1078 H1088 0.929 . S
C1079 C1076 1.399 . S
C1079 C1081 1.392 . S
C1079 H1089 0.929 . S
C1080 C1076 1.383 . S
C1080 C1077 1.389 . S
C1080 H1090 0.931 . S
C1081 C1078 1.380 1_545 S
C1081 C1079 1.392 . S
C1081 H1091 0.929 1_545 S
C1082 O1062 1.266 . S
C1082 O1063 1.248 . S
C1083 Tb1019 2.802 . S
C1083 O1058 1.264 . S
C1083 O1061 1.256 . S
C1083 C1076 1.496 . S
H1084 C1067 0.929 . S
H1085 C1068 0.929 . S
H1086 C1069 0.929 . S
H1087 C1070 0.931 . S
H1088 C1078 0.929 . S
H1089 C1079 0.929 . S
H1090 C1080 0.931 . S
H1091 C1081 0.929 1_565 S
Tb1092 N1121 2.617 . S
Tb1092 N1127 2.572 . S
Tb1092 O1136 2.465 . S
Tb1092 O1137 2.387 . S
Tb1092 O1139 2.428 . S
Tb1092 O1140 2.308 . S
Tb1092 O1144 2.349 . S
Tb1092 O1147 2.393 . S
Tb1092 C1156 2.802 . S
C1093 N1094 1.379 . S
C1093 C1096 1.416 . S
C1093 C1100 1.424 . S
N1094 C1093 1.379 . S
N1094 C1097 1.334 . S
N1094 Tb1103 2.617 . S
C1095 C1097 1.390 . S
C1095 C1098 1.339 . S
C1095 H1115 0.930 . S
C1096 C1093 1.416 . S
C1096 C1098 1.416 . S
C1096 C1102 1.448 . S
C1097 N1094 1.334 . S
C1097 C1095 1.390 . S
C1097 H1108 0.930 . S
C1098 C1095 1.339 . S
C1098 C1096 1.416 . S
C1098 H1119 0.930 . S
C1099 C1100 1.413 . S
C1099 C1101 1.427 . S
C1099 C1105 1.416 . S
C1100 C1093 1.424 . S
C1100 C1099 1.413 . S
C1100 N1104 1.361 . S
C1101 C1099 1.427 . S
C1101 C1102 1.328 . S
C1101 H1116 0.929 . S
C1102 C1096 1.448 . S
C1102 C1101 1.328 . S
C1102 H1117 0.930 . S
Tb1103 N1094 2.617 . S
Tb1103 N1104 2.572 . S
Tb1103 O1138 2.349 . S
Tb1103 O1141 2.393 . S
Tb1103 O1142 2.465 . S
Tb1103 O1143 2.387 . S
Tb1103 O1145 2.428 . S
Tb1103 O1146 2.308 . S
Tb1103 C1167 2.802 . S
N1104 C1100 1.361 . S
N1104 Tb1103 2.572 . S
N1104 C1106 1.340 . S
C1105 C1099 1.416 . S
C1105 C1107 1.332 . S
C1105 H1113 0.931 . S
C1106 N1104 1.340 . S
C1106 C1107 1.407 . S
C1106 H1112 0.930 . S
C1107 C1105 1.332 . S
C1107 C1106 1.407 . S
C1107 H1109 0.929 . S
H1108 C1097 0.930 . S
H1109 C1107 0.929 . S
H1110 C1125 0.930 . S
H1111 C1132 0.929 . S
H1112 C1106 0.930 . S
H1113 C1105 0.931 . S
H1114 C1128 0.930 . S
H1115 C1095 0.930 . S
H1116 C1101 0.929 . S
H1117 C1102 0.930 . S
H1118 C1123 0.930 1_554 S
H1119 C1098 0.930 . S
H1120 C1131 0.931 . S
N1121 Tb1092 2.617 . S
N1121 C1122 1.379 . S
N1121 C1125 1.334 . S
C1122 N1121 1.379 . S
C1122 C1124 1.416 . S
C1122 C1130 1.424 . S
C1123 H1118 0.930 1_556 S
C1123 C1125 1.390 . S
C1123 C1126 1.339 . S
C1124 C1122 1.416 . S
C1124 C1126 1.416 . S
C1124 C1157 1.448 . S
C1125 H1110 0.930 . S
C1125 N1121 1.334 . S
C1125 C1123 1.390 . S
C1126 C1123 1.339 . S
C1126 C1124 1.416 . S
C1126 H1133 0.930 . S
N1127 Tb1092 2.572 . S
N1127 C1128 1.340 . S
N1127 C1130 1.361 . S
C1128 H1114 0.930 . S
C1128 N1127 1.340 . S
C1128 C1132 1.407 . S
C1129 C1130 1.413 . S
C1129 C1131 1.416 . S
C1129 C1158 1.427 . S
C1130 C1122 1.424 . S
C1130 N1127 1.361 . S
C1130 C1129 1.413 . S
C1131 H1120 0.931 . S
C1131 C1129 1.416 . S
C1131 C1132 1.332 . S
C1132 H1111 0.929 . S
C1132 C1128 1.407 . S
C1132 C1131 1.332 . S
H1133 C1126 0.930 . S
H1134 C1157 0.930 . S
H1135 C1158 0.929 . S
O1136 Tb1092 2.465 . S
O1136 C1156 1.264 . S
O1137 Tb1092 2.387 . S
O1137 C1148 1.264 . S
O1138 Tb1103 2.349 . S
O1138 C1148 1.243 . S
O1139 Tb1092 2.428 . S
O1139 C1156 1.256 . S
O1140 Tb1092 2.308 . S
O1140 C1155 1.266 . S
O1141 Tb1103 2.393 . S
O1141 C1155 1.248 . S
O1142 Tb1103 2.465 . S
O1142 C1167 1.264 . S
O1143 Tb1103 2.387 . S
O1143 C1159 1.264 . S
O1144 Tb1092 2.349 . S
O1144 C1159 1.243 . S
O1145 Tb1103 2.428 . S
O1145 C1167 1.256 . S
O1146 Tb1103 2.308 . S
O1146 C1166 1.266 . S
O1147 Tb1092 2.393 . S
O1147 C1166 1.248 . S
C1148 O1137 1.264 . S
C1148 O1138 1.243 . S
C1149 C1152 1.399 . S
C1149 C1154 1.383 . S
C1149 C1156 1.496 . S
C1150 C1151 1.399 . S
C1150 C1154 1.389 . S
C1151 C1150 1.399 . S
C1151 C1153 1.380 . S
C1151 H1168 0.929 . S
C1152 C1149 1.399 . S
C1152 C1153 1.392 . S
C1152 H1169 0.929 . S
C1153 C1151 1.380 . S
C1153 C1152 1.392 . S
C1153 H1170 0.929 . S
C1154 C1149 1.383 . S
C1154 C1150 1.389 . S
C1154 H1171 0.931 . S
C1155 O1140 1.266 . S
C1155 O1141 1.248 . S
C1156 Tb1092 2.802 . S
C1156 O1136 1.264 . S
C1156 O1139 1.256 . S
C1156 C1149 1.496 . S
C1157 C1124 1.448 . S
C1157 H1134 0.930 . S
C1157 C1158 1.328 . S
C1158 C1129 1.427 . S
C1158 H1135 0.929 . S
C1158 C1157 1.328 . S
C1159 O1143 1.264 . S
C1159 O1144 1.243 . S
C1160 C1163 1.399 . S
C1160 C1164 1.383 . S
C1160 C1167 1.496 . S
C1161 C1162 1.399 1_565 S
C1161 C1164 1.389 . S
C1162 C1161 1.399 1_545 S
C1162 C1165 1.380 1_545 S
C1162 H1172 0.929 . S
C1163 C1160 1.399 . S
C1163 C1165 1.392 . S
C1163 H1173 0.929 . S
C1164 C1160 1.383 . S
C1164 C1161 1.389 . S
C1164 H1174 0.931 . S
C1165 C1162 1.380 1_565 S
C1165 C1163 1.392 . S
C1165 H1175 0.929 1_565 S
C1166 O1146 1.266 . S
C1166 O1147 1.248 . S
C1167 Tb1103 2.802 . S
C1167 O1142 1.264 . S
C1167 O1145 1.256 . S
C1167 C1160 1.496 . S
H1168 C1151 0.929 . S
H1169 C1152 0.929 . S
H1170 C1153 0.929 . S
H1171 C1154 0.931 . S
H1172 C1162 0.929 . S
H1173 C1163 0.929 . S
H1174 C1164 0.931 . S
H1175 C1165 0.929 1_545 S
Tb1176 N1205 2.617 . S
Tb1176 N1211 2.572 . S
Tb1176 O1220 2.465 . S
Tb1176 O1221 2.387 . S
Tb1176 O1223 2.428 . S
Tb1176 O1224 2.308 . S
Tb1176 O1228 2.349 . S
Tb1176 O1231 2.393 . S
Tb1176 C1240 2.802 . S
C1177 N1178 1.379 . S
C1177 C1180 1.416 . S
C1177 C1184 1.424 . S
N1178 C1177 1.379 . S
N1178 C1181 1.334 . S
N1178 Tb1187 2.617 . S
C1179 C1181 1.390 . S
C1179 C1182 1.339 . S
C1179 H1199 0.930 . S
C1180 C1177 1.416 . S
C1180 C1182 1.416 . S
C1180 C1186 1.448 . S
C1181 N1178 1.334 . S
C1181 C1179 1.390 . S
C1181 H1192 0.930 . S
C1182 C1179 1.339 . S
C1182 C1180 1.416 . S
C1182 H1203 0.930 . S
C1183 C1184 1.413 . S
C1183 C1185 1.427 . S
C1183 C1189 1.416 . S
C1184 C1177 1.424 . S
C1184 C1183 1.413 . S
C1184 N1188 1.361 . S
C1185 C1183 1.427 . S
C1185 C1186 1.328 . S
C1185 H1200 0.929 . S
C1186 C1180 1.448 . S
C1186 C1185 1.328 . S
C1186 H1201 0.930 . S
Tb1187 N1178 2.617 . S
Tb1187 N1188 2.572 . S
Tb1187 O1222 2.349 . S
Tb1187 O1225 2.393 . S
Tb1187 O1226 2.465 . S
Tb1187 O1227 2.387 . S
Tb1187 O1229 2.428 . S
Tb1187 O1230 2.308 . S
Tb1187 C1251 2.802 . S
N1188 C1184 1.361 . S
N1188 Tb1187 2.572 . S
N1188 C1190 1.340 . S
C1189 C1183 1.416 . S
C1189 C1191 1.332 . S
C1189 H1197 0.931 . S
C1190 N1188 1.340 . S
C1190 C1191 1.407 . S
C1190 H1196 0.930 . S
C1191 C1189 1.332 . S
C1191 C1190 1.407 . S
C1191 H1193 0.929 . S
H1192 C1181 0.930 . S
H1193 C1191 0.929 . S
H1194 C1209 0.930 . S
H1195 C1216 0.929 . S
H1196 C1190 0.930 . S
H1197 C1189 0.931 . S
H1198 C1212 0.930 . S
H1199 C1179 0.930 . S
H1200 C1185 0.929 . S
H1201 C1186 0.930 . S
H1202 C1207 0.930 . S
H1203 C1182 0.930 . S
H1204 C1215 0.931 . S
N1205 Tb1176 2.617 . S
N1205 C1206 1.379 . S
N1205 C1209 1.334 . S
C1206 N1205 1.379 . S
C1206 C1208 1.416 . S
C1206 C1214 1.424 . S
C1207 H1202 0.930 . S
C1207 C1209 1.390 . S
C1207 C1210 1.339 . S
C1208 C1206 1.416 . S
C1208 C1210 1.416 . S
C1208 C1241 1.448 . S
C1209 H1194 0.930 . S
C1209 N1205 1.334 . S
C1209 C1207 1.390 . S
C1210 C1207 1.339 . S
C1210 C1208 1.416 . S
C1210 H1217 0.930 . S
N1211 Tb1176 2.572 . S
N1211 C1212 1.340 . S
N1211 C1214 1.361 . S
C1212 H1198 0.930 . S
C1212 N1211 1.340 . S
C1212 C1216 1.407 . S
C1213 C1214 1.413 . S
C1213 C1215 1.416 . S
C1213 C1242 1.427 . S
C1214 C1206 1.424 . S
C1214 N1211 1.361 . S
C1214 C1213 1.413 . S
C1215 H1204 0.931 . S
C1215 C1213 1.416 . S
C1215 C1216 1.332 . S
C1216 H1195 0.929 . S
C1216 C1212 1.407 . S
C1216 C1215 1.332 . S
H1217 C1210 0.930 . S
H1218 C1241 0.930 . S
H1219 C1242 0.929 . S
O1220 Tb1176 2.465 . S
O1220 C1240 1.264 . S
O1221 Tb1176 2.387 . S
O1221 C1232 1.264 . S
O1222 Tb1187 2.349 . S
O1222 C1232 1.243 . S
O1223 Tb1176 2.428 . S
O1223 C1240 1.256 . S
O1224 Tb1176 2.308 . S
O1224 C1239 1.266 . S
O1225 Tb1187 2.393 . S
O1225 C1239 1.248 . S
O1226 Tb1187 2.465 . S
O1226 C1251 1.264 . S
O1227 Tb1187 2.387 . S
O1227 C1243 1.264 . S
O1228 Tb1176 2.349 . S
O1228 C1243 1.243 . S
O1229 Tb1187 2.428 . S
O1229 C1251 1.256 . S
O1230 Tb1187 2.308 . S
O1230 C1250 1.266 . S
O1231 Tb1176 2.393 . S
O1231 C1250 1.248 . S
C1232 O1221 1.264 . S
C1232 O1222 1.243 . S
C1233 C1236 1.399 . S
C1233 C1238 1.383 . S
C1233 C1240 1.496 . S
C1234 C1235 1.399 . S
C1234 C1238 1.389 . S
C1235 C1234 1.399 . S
C1235 C1237 1.380 . S
C1235 H1252 0.929 . S
C1236 C1233 1.399 . S
C1236 C1237 1.392 . S
C1236 H1253 0.929 . S
C1237 C1235 1.380 . S
C1237 C1236 1.392 . S
C1237 H1254 0.929 . S
C1238 C1233 1.383 . S
C1238 C1234 1.389 . S
C1238 H1255 0.931 . S
C1239 O1224 1.266 . S
C1239 O1225 1.248 . S
C1240 Tb1176 2.802 . S
C1240 O1220 1.264 . S
C1240 O1223 1.256 . S
C1240 C1233 1.496 . S
C1241 C1208 1.448 . S
C1241 H1218 0.930 . S
C1241 C1242 1.328 . S
C1242 C1213 1.427 . S
C1242 H1219 0.929 . S
C1242 C1241 1.328 . S
C1243 O1227 1.264 . S
C1243 O1228 1.243 . S
C1244 C1247 1.399 . S
C1244 C1248 1.383 . S
C1244 C1251 1.496 . S
C1245 C1246 1.399 1_565 S
C1245 C1248 1.389 . S
C1246 C1245 1.399 1_545 S
C1246 C1249 1.380 1_545 S
C1246 H1256 0.929 . S
C1247 C1244 1.399 . S
C1247 C1249 1.392 . S
C1247 H1257 0.929 . S
C1248 C1244 1.383 . S
C1248 C1245 1.389 . S
C1248 H1258 0.931 . S
C1249 C1246 1.380 1_565 S
C1249 C1247 1.392 . S
C1249 H1259 0.929 1_565 S
C1250 O1230 1.266 . S
C1250 O1231 1.248 . S
C1251 Tb1187 2.802 . S
C1251 O1226 1.264 . S
C1251 O1229 1.256 . S
C1251 C1244 1.496 . S
H1252 C1235 0.929 . S
H1253 C1236 0.929 . S
H1254 C1237 0.929 . S
H1255 C1238 0.931 . S
H1256 C1246 0.929 . S
H1257 C1247 0.929 . S
H1258 C1248 0.931 . S
H1259 C1249 0.929 1_545 S
Tb1260 N1289 2.617 . S
Tb1260 N1295 2.572 . S
Tb1260 O1304 2.465 . S
Tb1260 O1305 2.387 . S
Tb1260 O1307 2.428 . S
Tb1260 O1308 2.308 . S
Tb1260 O1312 2.349 . S
Tb1260 O1315 2.393 . S
Tb1260 C1324 2.802 . S
C1261 N1262 1.379 . S
C1261 C1264 1.416 . S
C1261 C1268 1.424 . S
N1262 C1261 1.379 . S
N1262 C1265 1.334 . S
N1262 Tb1271 2.617 . S
C1263 C1265 1.390 . S
C1263 C1266 1.339 . S
C1263 H1283 0.930 . S
C1264 C1261 1.416 . S
C1264 C1266 1.416 . S
C1264 C1270 1.448 . S
C1265 N1262 1.334 . S
C1265 C1263 1.390 . S
C1265 H1276 0.930 . S
C1266 C1263 1.339 . S
C1266 C1264 1.416 . S
C1266 H1287 0.930 . S
C1267 C1268 1.413 . S
C1267 C1269 1.427 . S
C1267 C1273 1.416 . S
C1268 C1261 1.424 . S
C1268 C1267 1.413 . S
C1268 N1272 1.361 . S
C1269 C1267 1.427 . S
C1269 C1270 1.328 . S
C1269 H1284 0.929 . S
C1270 C1264 1.448 . S
C1270 C1269 1.328 . S
C1270 H1285 0.930 . S
Tb1271 N1262 2.617 . S
Tb1271 N1272 2.572 . S
Tb1271 O1306 2.349 . S
Tb1271 O1309 2.393 . S
Tb1271 O1310 2.465 . S
Tb1271 O1311 2.387 . S
Tb1271 O1313 2.428 . S
Tb1271 O1314 2.308 . S
Tb1271 C1335 2.802 . S
N1272 C1268 1.361 . S
N1272 Tb1271 2.572 . S
N1272 C1274 1.340 . S
C1273 C1267 1.416 . S
C1273 C1275 1.332 . S
C1273 H1281 0.931 . S
C1274 N1272 1.340 . S
C1274 C1275 1.407 . S
C1274 H1280 0.930 . S
C1275 C1273 1.332 . S
C1275 C1274 1.407 . S
C1275 H1277 0.929 . S
H1276 C1265 0.930 . S
H1277 C1275 0.929 . S
H1278 C1293 0.930 . S
H1279 C1300 0.929 . S
H1280 C1274 0.930 . S
H1281 C1273 0.931 . S
H1282 C1296 0.930 . S
H1283 C1263 0.930 . S
H1284 C1269 0.929 . S
H1285 C1270 0.930 . S
H1286 C1291 0.930 . S
H1287 C1266 0.930 . S
H1288 C1299 0.931 . S
N1289 Tb1260 2.617 . S
N1289 C1290 1.379 . S
N1289 C1293 1.334 . S
C1290 N1289 1.379 . S
C1290 C1292 1.416 . S
C1290 C1298 1.424 . S
C1291 H1286 0.930 . S
C1291 C1293 1.390 . S
C1291 C1294 1.339 . S
C1292 C1290 1.416 . S
C1292 C1294 1.416 . S
C1292 C1325 1.448 . S
C1293 H1278 0.930 . S
C1293 N1289 1.334 . S
C1293 C1291 1.390 . S
C1294 C1291 1.339 . S
C1294 C1292 1.416 . S
C1294 H1301 0.930 . S
N1295 Tb1260 2.572 . S
N1295 C1296 1.340 . S
N1295 C1298 1.361 . S
C1296 H1282 0.930 . S
C1296 N1295 1.340 . S
C1296 C1300 1.407 . S
C1297 C1298 1.413 . S
C1297 C1299 1.416 . S
C1297 C1326 1.427 . S
C1298 C1290 1.424 . S
C1298 N1295 1.361 . S
C1298 C1297 1.413 . S
C1299 H1288 0.931 . S
C1299 C1297 1.416 . S
C1299 C1300 1.332 . S
C1300 H1279 0.929 . S
C1300 C1296 1.407 . S
C1300 C1299 1.332 . S
H1301 C1294 0.930 . S
H1302 C1325 0.930 . S
H1303 C1326 0.929 . S
O1304 Tb1260 2.465 . S
O1304 C1324 1.264 . S
O1305 Tb1260 2.387 . S
O1305 C1316 1.264 . S
O1306 Tb1271 2.349 . S
O1306 C1316 1.243 . S
O1307 Tb1260 2.428 . S
O1307 C1324 1.256 . S
O1308 Tb1260 2.308 . S
O1308 C1323 1.266 . S
O1309 Tb1271 2.393 . S
O1309 C1323 1.248 . S
O1310 Tb1271 2.465 . S
O1310 C1335 1.264 . S
O1311 Tb1271 2.387 . S
O1311 C1327 1.264 . S
O1312 Tb1260 2.349 . S
O1312 C1327 1.243 . S
O1313 Tb1271 2.428 . S
O1313 C1335 1.256 . S
O1314 Tb1271 2.308 . S
O1314 C1334 1.266 . S
O1315 Tb1260 2.393 . S
O1315 C1334 1.248 . S
C1316 O1305 1.264 . S
C1316 O1306 1.243 . S
C1317 C1320 1.399 . S
C1317 C1322 1.383 . S
C1317 C1324 1.496 . S
C1318 C1319 1.399 . S
C1318 C1322 1.389 . S
C1319 C1318 1.399 . S
C1319 C1321 1.380 . S
C1319 H1336 0.929 . S
C1320 C1317 1.399 . S
C1320 C1321 1.392 . S
C1320 H1337 0.929 . S
C1321 C1319 1.380 . S
C1321 C1320 1.392 . S
C1321 H1338 0.929 . S
C1322 C1317 1.383 . S
C1322 C1318 1.389 . S
C1322 H1339 0.931 . S
C1323 O1308 1.266 . S
C1323 O1309 1.248 . S
C1324 Tb1260 2.802 . S
C1324 O1304 1.264 . S
C1324 O1307 1.256 . S
C1324 C1317 1.496 . S
C1325 C1292 1.448 . S
C1325 H1302 0.930 . S
C1325 C1326 1.328 . S
C1326 C1297 1.427 . S
C1326 H1303 0.929 . S
C1326 C1325 1.328 . S
C1327 O1311 1.264 . S
C1327 O1312 1.243 . S
C1328 C1331 1.399 . S
C1328 C1332 1.383 . S
C1328 C1335 1.496 . S
C1329 C1330 1.399 1_545 S
C1329 C1332 1.389 . S
C1330 C1329 1.399 1_565 S
C1330 C1333 1.380 1_565 S
C1330 H1340 0.929 . S
C1331 C1328 1.399 . S
C1331 C1333 1.392 . S
C1331 H1341 0.929 . S
C1332 C1328 1.383 . S
C1332 C1329 1.389 . S
C1332 H1342 0.931 . S
C1333 C1330 1.380 1_545 S
C1333 C1331 1.392 . S
C1333 H1343 0.929 1_545 S
C1334 O1314 1.266 . S
C1334 O1315 1.248 . S
C1335 Tb1271 2.802 . S
C1335 O1310 1.264 . S
C1335 O1313 1.256 . S
C1335 C1328 1.496 . S
H1336 C1319 0.929 . S
H1337 C1320 0.929 . S
H1338 C1321 0.929 . S
H1339 C1322 0.931 . S
H1340 C1330 0.929 . S
H1341 C1331 0.929 . S
H1342 C1332 0.931 . S
H1343 C1333 0.929 1_565 S
C1344 C1345 1.363 . S
C1344 C1350 1.379 . S
C1344 N1352 1.356 . S
C1345 C1344 1.363 . S
C1345 C1351 1.363 . S
C1346 C1347 1.363 . S
C1346 C1351 1.379 . S
C1346 N1353 1.356 . S
C1347 C1346 1.363 . S
C1347 C1350 1.363 . S
N1348 C1350 1.356 . S
N1348 H1360 0.984 . S
N1348 H1361 0.985 . S
N1349 C1351 1.356 . S
N1349 H1354 0.984 . S
N1349 H1355 0.985 . S
C1350 C1344 1.379 . S
C1350 C1347 1.363 . S
C1350 N1348 1.356 . S
C1351 C1345 1.363 . S
C1351 C1346 1.379 . S
C1351 N1349 1.356 . S
N1352 C1344 1.356 . S
N1352 H1358 0.984 . S
N1352 H1359 0.984 . S
N1353 C1346 1.356 . S
N1353 H1356 0.984 . S
N1353 H1357 0.985 . S
H1354 N1349 0.984 . S
H1355 N1349 0.985 . S
H1356 N1353 0.984 . S
H1357 N1353 0.985 . S
H1358 N1352 0.984 . S
H1359 N1352 0.984 . S
H1360 N1348 0.984 . S
H1361 N1348 0.985 . S
C1362 C1363 1.363 . S
C1362 C1368 1.379 . S
C1362 N1370 1.356 . S
C1363 C1362 1.363 . S
C1363 C1369 1.363 . S
C1364 C1365 1.363 . S
C1364 C1369 1.379 . S
C1364 N1371 1.356 . S
C1365 C1364 1.363 . S
C1365 C1368 1.363 . S
N1366 C1368 1.356 . S
N1366 H1378 0.984 . S
N1366 H1379 0.985 . S
N1367 C1369 1.356 . S
N1367 H1372 0.984 . S
N1367 H1373 0.985 . S
C1368 C1362 1.379 . S
C1368 C1365 1.363 . S
C1368 N1366 1.356 . S
C1369 C1363 1.363 . S
C1369 C1364 1.379 . S
C1369 N1367 1.356 . S
N1370 C1362 1.356 . S
N1370 H1376 0.984 . S
N1370 H1377 0.984 . S
N1371 C1364 1.356 . S
N1371 H1374 0.984 . S
N1371 H1375 0.985 . S
H1372 N1367 0.984 . S
H1373 N1367 0.985 . S
H1374 N1371 0.984 . S
H1375 N1371 0.985 . S
H1376 N1370 0.984 . S
H1377 N1370 0.984 . S
H1378 N1366 0.984 . S
H1379 N1366 0.985 . S
C1380 C1381 1.363 . S
C1380 C1386 1.379 . S
C1380 N1388 1.356 . S
C1381 C1380 1.363 . S
C1381 C1387 1.363 . S
C1382 C1383 1.363 . S
C1382 C1387 1.379 . S
C1382 N1389 1.356 . S
C1383 C1382 1.363 . S
C1383 C1386 1.363 . S
N1384 C1386 1.356 . S
N1384 H1396 0.984 . S
N1384 H1397 0.985 . S
N1385 C1387 1.356 . S
N1385 H1390 0.984 . S
N1385 H1391 0.985 . S
C1386 C1380 1.379 . S
C1386 C1383 1.363 . S
C1386 N1384 1.356 . S
C1387 C1381 1.363 . S
C1387 C1382 1.379 . S
C1387 N1385 1.356 . S
N1388 C1380 1.356 . S
N1388 H1394 0.984 . S
N1388 H1395 0.984 . S
N1389 C1382 1.356 . S
N1389 H1392 0.984 . S
N1389 H1393 0.985 . S
H1390 N1385 0.984 . S
H1391 N1385 0.985 . S
H1392 N1389 0.984 . S
H1393 N1389 0.985 . S
H1394 N1388 0.984 . S
H1395 N1388 0.984 . S
H1396 N1384 0.984 . S
H1397 N1384 0.985 . S
C1398 C1399 1.363 . S
C1398 C1404 1.379 . S
C1398 N1406 1.356 . S
C1399 C1398 1.363 . S
C1399 C1405 1.363 . S
C1400 C1401 1.363 . S
C1400 C1405 1.379 . S
C1400 N1407 1.356 . S
C1401 C1400 1.363 . S
C1401 C1404 1.363 . S
N1402 C1404 1.356 . S
N1402 H1414 0.984 . S
N1402 H1415 0.985 . S
N1403 C1405 1.356 . S
N1403 H1408 0.984 . S
N1403 H1409 0.985 . S
C1404 C1398 1.379 . S
C1404 C1401 1.363 . S
C1404 N1402 1.356 . S
C1405 C1399 1.363 . S
C1405 C1400 1.379 . S
C1405 N1403 1.356 . S
N1406 C1398 1.356 . S
N1406 H1412 0.984 . S
N1406 H1413 0.984 . S
N1407 C1400 1.356 . S
N1407 H1410 0.984 . S
N1407 H1411 0.985 . S
H1408 N1403 0.984 . S
H1409 N1403 0.985 . S
H1410 N1407 0.984 . S
H1411 N1407 0.985 . S
H1412 N1406 0.984 . S
H1413 N1406 0.984 . S
H1414 N1402 0.984 . S
H1415 N1402 0.985 . S
C1416 C1417 1.363 . S
C1416 C1422 1.379 . S
C1416 N1424 1.356 . S
C1417 C1416 1.363 . S
C1417 C1423 1.363 . S
C1418 C1419 1.363 . S
C1418 C1423 1.379 . S
C1418 N1425 1.356 . S
C1419 C1418 1.363 . S
C1419 C1422 1.363 . S
N1420 C1422 1.356 . S
N1420 H1432 0.984 . S
N1420 H1433 0.985 . S
N1421 C1423 1.356 . S
N1421 H1426 0.984 . S
N1421 H1427 0.985 . S
C1422 C1416 1.379 . S
C1422 C1419 1.363 . S
C1422 N1420 1.356 . S
C1423 C1417 1.363 . S
C1423 C1418 1.379 . S
C1423 N1421 1.356 . S
N1424 C1416 1.356 . S
N1424 H1430 0.984 . S
N1424 H1431 0.984 . S
N1425 C1418 1.356 . S
N1425 H1428 0.984 . S
N1425 H1429 0.985 . S
H1426 N1421 0.984 . S
H1427 N1421 0.985 . S
H1428 N1425 0.984 . S
H1429 N1425 0.985 . S
H1430 N1424 0.984 . S
H1431 N1424 0.984 . S
H1432 N1420 0.984 . S
H1433 N1420 0.985 . S
C1434 C1435 1.363 . S
C1434 C1440 1.379 . S
C1434 N1442 1.356 . S
C1435 C1434 1.363 . S
C1435 C1441 1.363 . S
C1436 C1437 1.363 . S
C1436 C1441 1.379 . S
C1436 N1443 1.356 . S
C1437 C1436 1.363 . S
C1437 C1440 1.363 . S
N1438 C1440 1.356 . S
N1438 H1450 0.984 . S
N1438 H1451 0.985 . S
N1439 C1441 1.356 . S
N1439 H1444 0.984 . S
N1439 H1445 0.985 . S
C1440 C1434 1.379 . S
C1440 C1437 1.363 . S
C1440 N1438 1.356 . S
C1441 C1435 1.363 . S
C1441 C1436 1.379 . S
C1441 N1439 1.356 . S
N1442 C1434 1.356 . S
N1442 H1448 0.984 . S
N1442 H1449 0.984 . S
N1443 C1436 1.356 . S
N1443 H1446 0.984 . S
N1443 H1447 0.985 . S
H1444 N1439 0.984 . S
H1445 N1439 0.985 . S
H1446 N1443 0.984 . S
H1447 N1443 0.985 . S
H1448 N1442 0.984 . S
H1449 N1442 0.984 . S
H1450 N1438 0.984 . S
H1451 N1438 0.985 . S
C1452 C1453 1.363 . S
C1452 C1458 1.379 . S
C1452 N1460 1.356 . S
C1453 C1452 1.363 . S
C1453 C1459 1.363 . S
C1454 C1455 1.363 . S
C1454 C1459 1.379 . S
C1454 N1461 1.356 . S
C1455 C1454 1.363 . S
C1455 C1458 1.363 . S
N1456 C1458 1.356 . S
N1456 H1468 0.984 . S
N1456 H1469 0.985 . S
N1457 C1459 1.356 . S
N1457 H1462 0.984 . S
N1457 H1463 0.985 . S
C1458 C1452 1.379 . S
C1458 C1455 1.363 . S
C1458 N1456 1.356 . S
C1459 C1453 1.363 . S
C1459 C1454 1.379 . S
C1459 N1457 1.356 . S
N1460 C1452 1.356 . S
N1460 H1466 0.984 . S
N1460 H1467 0.984 . S
N1461 C1454 1.356 . S
N1461 H1464 0.984 . S
N1461 H1465 0.985 . S
H1462 N1457 0.984 . S
H1463 N1457 0.985 . S
H1464 N1461 0.984 . S
H1465 N1461 0.985 . S
H1466 N1460 0.984 . S
H1467 N1460 0.984 . S
H1468 N1456 0.984 . S
H1469 N1456 0.985 . S
C1470 C1471 1.363 . S
C1470 C1476 1.379 . S
C1470 N1478 1.356 . S
C1471 C1470 1.363 . S
C1471 C1477 1.363 . S
C1472 C1473 1.363 . S
C1472 C1477 1.379 . S
C1472 N1479 1.356 . S
C1473 C1472 1.363 . S
C1473 C1476 1.363 . S
N1474 C1476 1.356 . S
N1474 H1486 0.984 . S
N1474 H1487 0.985 . S
N1475 C1477 1.356 . S
N1475 H1480 0.984 . S
N1475 H1481 0.985 . S
C1476 C1470 1.379 . S
C1476 C1473 1.363 . S
C1476 N1474 1.356 . S
C1477 C1471 1.363 . S
C1477 C1472 1.379 . S
C1477 N1475 1.356 . S
N1478 C1470 1.356 . S
N1478 H1484 0.984 . S
N1478 H1485 0.984 . S
N1479 C1472 1.356 . S
N1479 H1482 0.984 . S
N1479 H1483 0.985 . S
H1480 N1475 0.984 . S
H1481 N1475 0.985 . S
H1482 N1479 0.984 . S
H1483 N1479 0.985 . S
H1484 N1478 0.984 . S
H1485 N1478 0.984 . S
H1486 N1474 0.984 . S
H1487 N1474 0.985 . S
C1488 C1489 1.363 . S
C1488 C1494 1.379 . S
C1488 N1496 1.356 . S
C1489 C1488 1.363 . S
C1489 C1495 1.363 1_565 S
C1490 C1491 1.363 . S
C1490 C1495 1.379 . S
C1490 N1497 1.356 . S
C1491 C1490 1.363 . S
C1491 C1494 1.363 1_545 S
N1492 C1494 1.356 . S
N1492 H1504 0.984 . S
N1492 H1505 0.985 1_565 S
N1493 C1495 1.356 . S
N1493 H1498 0.984 1_545 S
N1493 H1499 0.985 . S
C1494 C1488 1.379 . S
C1494 C1491 1.363 1_565 S
C1494 N1492 1.356 . S
C1495 C1489 1.363 1_545 S
C1495 C1490 1.379 . S
C1495 N1493 1.356 . S
N1496 C1488 1.356 . S
N1496 H1502 0.984 . S
N1496 H1503 0.984 . S
N1497 C1490 1.356 . S
N1497 H1500 0.984 . S
N1497 H1501 0.985 . S
H1498 N1493 0.984 1_565 S
H1499 N1493 0.985 . S
H1500 N1497 0.984 . S
H1501 N1497 0.985 . S
H1502 N1496 0.984 . S
H1503 N1496 0.984 . S
H1504 N1492 0.984 . S
H1505 N1492 0.985 1_545 S
C1506 C1507 1.363 . S
C1506 C1512 1.379 . S
C1506 N1514 1.356 . S
C1507 C1506 1.363 . S
C1507 C1513 1.363 1_545 S
C1508 C1509 1.363 . S
C1508 C1513 1.379 . S
C1508 N1515 1.356 . S
C1509 C1508 1.363 . S
C1509 C1512 1.363 1_565 S
N1510 C1512 1.356 . S
N1510 H1522 0.984 . S
N1510 H1523 0.985 1_545 S
N1511 C1513 1.356 . S
N1511 H1516 0.984 1_565 S
N1511 H1517 0.985 . S
C1512 C1506 1.379 . S
C1512 C1509 1.363 1_545 S
C1512 N1510 1.356 . S
C1513 C1507 1.363 1_565 S
C1513 C1508 1.379 . S
C1513 N1511 1.356 . S
N1514 C1506 1.356 . S
N1514 H1520 0.984 . S
N1514 H1521 0.984 . S
N1515 C1508 1.356 . S
N1515 H1518 0.984 . S
N1515 H1519 0.985 . S
H1516 N1511 0.984 1_545 S
H1517 N1511 0.985 . S
H1518 N1515 0.984 . S
H1519 N1515 0.985 . S
H1520 N1514 0.984 . S
H1521 N1514 0.984 . S
H1522 N1510 0.984 . S
H1523 N1510 0.985 1_565 S
C1524 C1525 1.363 1_565 S
C1524 C1530 1.379 . S
C1524 N1532 1.356 . S
C1525 C1524 1.363 1_545 S
C1525 C1531 1.363 . S
C1526 C1527 1.363 1_545 S
C1526 C1531 1.379 . S
C1526 N1533 1.356 . S
C1527 C1526 1.363 1_565 S
C1527 C1530 1.363 . S
N1528 C1530 1.356 . S
N1528 H1540 0.984 . S
N1528 H1541 0.985 . S
N1529 C1531 1.356 . S
N1529 H1534 0.984 . S
N1529 H1535 0.985 . S
C1530 C1524 1.379 . S
C1530 C1527 1.363 . S
C1530 N1528 1.356 . S
C1531 C1525 1.363 . S
C1531 C1526 1.379 . S
C1531 N1529 1.356 . S
N1532 C1524 1.356 . S
N1532 H1538 0.984 . S
N1532 H1539 0.984 1_565 S
N1533 C1526 1.356 . S
N1533 H1536 0.984 1_545 S
N1533 H1537 0.985 . S
H1534 N1529 0.984 . S
H1535 N1529 0.985 . S
H1536 N1533 0.984 1_565 S
H1537 N1533 0.985 . S
H1538 N1532 0.984 . S
H1539 N1532 0.984 1_545 S
H1540 N1528 0.984 . S
H1541 N1528 0.985 . S
C1542 C1543 1.363 . S
C1542 C1548 1.379 . S
C1542 N1550 1.356 . S
C1543 C1542 1.363 . S
C1543 C1549 1.363 1_545 S
C1544 C1545 1.363 . S
C1544 C1549 1.379 . S
C1544 N1551 1.356 . S
C1545 C1544 1.363 . S
C1545 C1548 1.363 1_565 S
N1546 C1548 1.356 . S
N1546 H1558 0.984 . S
N1546 H1559 0.985 1_545 S
N1547 C1549 1.356 . S
N1547 H1552 0.984 1_565 S
N1547 H1553 0.985 . S
C1548 C1542 1.379 . S
C1548 C1545 1.363 1_545 S
C1548 N1546 1.356 . S
C1549 C1543 1.363 1_565 S
C1549 C1544 1.379 . S
C1549 N1547 1.356 . S
N1550 C1542 1.356 . S
N1550 H1556 0.984 . S
N1550 H1557 0.984 . S
N1551 C1544 1.356 . S
N1551 H1554 0.984 . S
N1551 H1555 0.985 . S
H1552 N1547 0.984 1_545 S
H1553 N1547 0.985 . S
H1554 N1551 0.984 . S
H1555 N1551 0.985 . S
H1556 N1550 0.984 . S
H1557 N1550 0.984 . S
H1558 N1546 0.984 . S
H1559 N1546 0.985 1_565 S
C1560 C1561 1.363 . S
C1560 C1566 1.379 . S
C1560 N1568 1.356 . S
C1561 C1560 1.363 . S
C1561 C1567 1.363 . S
C1562 C1563 1.363 . S
C1562 C1567 1.379 . S
C1562 N1569 1.356 . S
C1563 C1562 1.363 . S
C1563 C1566 1.363 . S
N1564 C1566 1.356 . S
N1564 H1576 0.984 . S
N1564 H1577 0.985 . S
N1565 C1567 1.356 . S
N1565 H1570 0.984 . S
N1565 H1571 0.985 . S
C1566 C1560 1.379 . S
C1566 C1563 1.363 . S
C1566 N1564 1.356 . S
C1567 C1561 1.363 . S
C1567 C1562 1.379 . S
C1567 N1565 1.356 . S
N1568 C1560 1.356 . S
N1568 H1574 0.984 . S
N1568 H1575 0.984 . S
N1569 C1562 1.356 . S
N1569 H1572 0.984 . S
N1569 H1573 0.985 . S
H1570 N1565 0.984 . S
H1571 N1565 0.985 . S
H1572 N1569 0.984 . S
H1573 N1569 0.985 . S
H1574 N1568 0.984 . S
H1575 N1568 0.984 . S
H1576 N1564 0.984 . S
H1577 N1564 0.985 . S
C1578 C1579 1.363 . S
C1578 C1584 1.379 . S
C1578 N1586 1.356 . S
C1579 C1578 1.363 . S
C1579 C1585 1.363 . S
C1580 C1581 1.363 . S
C1580 C1585 1.379 . S
C1580 N1587 1.356 . S
C1581 C1580 1.363 . S
C1581 C1584 1.363 . S
N1582 C1584 1.356 . S
N1582 H1594 0.984 . S
N1582 H1595 0.985 . S
N1583 C1585 1.356 . S
N1583 H1588 0.984 . S
N1583 H1589 0.985 . S
C1584 C1578 1.379 . S
C1584 C1581 1.363 . S
C1584 N1582 1.356 . S
C1585 C1579 1.363 . S
C1585 C1580 1.379 . S
C1585 N1583 1.356 . S
N1586 C1578 1.356 . S
N1586 H1592 0.984 . S
N1586 H1593 0.984 . S
N1587 C1580 1.356 . S
N1587 H1590 0.984 . S
N1587 H1591 0.985 . S
H1588 N1583 0.984 . S
H1589 N1583 0.985 . S
H1590 N1587 0.984 . S
H1591 N1587 0.985 . S
H1592 N1586 0.984 . S
H1593 N1586 0.984 . S
H1594 N1582 0.984 . S
H1595 N1582 0.985 . S
C1596 C1597 1.363 . S
C1596 C1602 1.379 . S
C1596 N1604 1.356 . S
C1597 C1596 1.363 . S
C1597 C1603 1.363 . S
C1598 C1599 1.363 . S
C1598 C1603 1.379 . S
C1598 N1605 1.356 . S
C1599 C1598 1.363 . S
C1599 C1602 1.363 . S
N1600 C1602 1.356 . S
N1600 H1612 0.984 . S
N1600 H1613 0.985 . S
N1601 C1603 1.356 . S
N1601 H1606 0.984 . S
N1601 H1607 0.985 . S
C1602 C1596 1.379 . S
C1602 C1599 1.363 . S
C1602 N1600 1.356 . S
C1603 C1597 1.363 . S
C1603 C1598 1.379 . S
C1603 N1601 1.356 . S
N1604 C1596 1.356 . S
N1604 H1610 0.984 . S
N1604 H1611 0.984 . S
N1605 C1598 1.356 . S
N1605 H1608 0.984 . S
N1605 H1609 0.985 . S
H1606 N1601 0.984 . S
H1607 N1601 0.985 . S
H1608 N1605 0.984 . S
H1609 N1605 0.985 . S
H1610 N1604 0.984 . S
H1611 N1604 0.984 . S
H1612 N1600 0.984 . S
H1613 N1600 0.985 . S
C1614 C1615 1.363 . S
C1614 C1620 1.379 . S
C1614 N1622 1.356 . S
C1615 C1614 1.363 . S
C1615 C1621 1.363 . S
C1616 C1617 1.363 . S
C1616 C1621 1.379 . S
C1616 N1623 1.356 . S
C1617 C1616 1.363 . S
C1617 C1620 1.363 . S
N1618 C1620 1.356 . S
N1618 H1630 0.984 . S
N1618 H1631 0.985 . S
N1619 C1621 1.356 . S
N1619 H1624 0.984 . S
N1619 H1625 0.985 . S
C1620 C1614 1.379 . S
C1620 C1617 1.363 . S
C1620 N1618 1.356 . S
C1621 C1615 1.363 . S
C1621 C1616 1.379 . S
C1621 N1619 1.356 . S
N1622 C1614 1.356 . S
N1622 H1628 0.984 . S
N1622 H1629 0.984 . S
N1623 C1616 1.356 . S
N1623 H1626 0.984 . S
N1623 H1627 0.985 . S
H1624 N1619 0.984 . S
H1625 N1619 0.985 . S
H1626 N1623 0.984 . S
H1627 N1623 0.985 . S
H1628 N1622 0.984 . S
H1629 N1622 0.984 . S
H1630 N1618 0.984 . S
H1631 N1618 0.985 . S
C1632 C1633 1.363 . S
C1632 C1638 1.379 1_556 S
C1632 N1640 1.356 . S
C1633 C1632 1.363 . S
C1633 C1639 1.363 . S
C1634 C1635 1.363 . S
C1634 C1639 1.379 1_554 S
C1634 N1641 1.356 . S
C1635 C1634 1.363 . S
C1635 C1638 1.363 . S
N1636 C1638 1.356 . S
N1636 H1648 0.984 . S
N1636 H1649 0.985 . S
N1637 C1639 1.356 . S
N1637 H1642 0.984 . S
N1637 H1643 0.985 . S
C1638 C1632 1.379 1_554 S
C1638 C1635 1.363 . S
C1638 N1636 1.356 . S
C1639 C1633 1.363 . S
C1639 C1634 1.379 1_556 S
C1639 N1637 1.356 . S
N1640 C1632 1.356 . S
N1640 H1646 0.984 . S
N1640 H1647 0.984 . S
N1641 C1634 1.356 . S
N1641 H1644 0.984 . S
N1641 H1645 0.985 . S
H1642 N1637 0.984 . S
H1643 N1637 0.985 . S
H1644 N1641 0.984 . S
H1645 N1641 0.985 . S
H1646 N1640 0.984 . S
H1647 N1640 0.984 . S
H1648 N1636 0.984 . S
H1649 N1636 0.985 . S
C1650 C1651 1.363 . S
C1650 C1656 1.379 1_556 S
C1650 N1658 1.356 . S
C1651 C1650 1.363 . S
C1651 C1657 1.363 . S
C1652 C1653 1.363 . S
C1652 C1657 1.379 1_554 S
C1652 N1659 1.356 . S
C1653 C1652 1.363 . S
C1653 C1656 1.363 . S
N1654 C1656 1.356 . S
N1654 H1666 0.984 . S
N1654 H1667 0.985 . S
N1655 C1657 1.356 . S
N1655 H1660 0.984 . S
N1655 H1661 0.985 . S
C1656 C1650 1.379 1_554 S
C1656 C1653 1.363 . S
C1656 N1654 1.356 . S
C1657 C1651 1.363 . S
C1657 C1652 1.379 1_556 S
C1657 N1655 1.356 . S
N1658 C1650 1.356 . S
N1658 H1664 0.984 . S
N1658 H1665 0.984 . S
N1659 C1652 1.356 . S
N1659 H1662 0.984 . S
N1659 H1663 0.985 . S
H1660 N1655 0.984 . S
H1661 N1655 0.985 . S
H1662 N1659 0.984 . S
H1663 N1659 0.985 . S
H1664 N1658 0.984 . S
H1665 N1658 0.984 . S
H1666 N1654 0.984 . S
H1667 N1654 0.985 . S
C1668 C1669 1.363 . S
C1668 C1674 1.379 . S
C1668 N1676 1.356 . S
C1669 C1668 1.363 . S
C1669 C1675 1.363 . S
C1670 C1671 1.363 . S
C1670 C1675 1.379 . S
C1670 N1677 1.356 . S
C1671 C1670 1.363 . S
C1671 C1674 1.363 . S
N1672 C1674 1.356 . S
N1672 H1684 0.984 . S
N1672 H1685 0.985 . S
N1673 C1675 1.356 . S
N1673 H1678 0.984 . S
N1673 H1679 0.985 . S
C1674 C1668 1.379 . S
C1674 C1671 1.363 . S
C1674 N1672 1.356 . S
C1675 C1669 1.363 . S
C1675 C1670 1.379 . S
C1675 N1673 1.356 . S
N1676 C1668 1.356 . S
N1676 H1682 0.984 . S
N1676 H1683 0.984 . S
N1677 C1670 1.356 . S
N1677 H1680 0.984 . S
N1677 H1681 0.985 . S
H1678 N1673 0.984 . S
H1679 N1673 0.985 . S
H1680 N1677 0.984 . S
H1681 N1677 0.985 . S
H1682 N1676 0.984 . S
H1683 N1676 0.984 . S
H1684 N1672 0.984 . S
H1685 N1672 0.985 . S
C1686 C1687 1.363 . S
C1686 C1692 1.379 . S
C1686 N1694 1.356 . S
C1687 C1686 1.363 . S
C1687 C1693 1.363 . S
C1688 C1689 1.363 . S
C1688 C1693 1.379 . S
C1688 N1695 1.356 . S
C1689 C1688 1.363 . S
C1689 C1692 1.363 . S
N1690 C1692 1.356 . S
N1690 H1702 0.984 . S
N1690 H1703 0.985 . S
N1691 C1693 1.356 . S
N1691 H1696 0.984 . S
N1691 H1697 0.985 . S
C1692 C1686 1.379 . S
C1692 C1689 1.363 . S
C1692 N1690 1.356 . S
C1693 C1687 1.363 . S
C1693 C1688 1.379 . S
C1693 N1691 1.356 . S
N1694 C1686 1.356 . S
N1694 H1700 0.984 . S
N1694 H1701 0.984 . S
N1695 C1688 1.356 . S
N1695 H1698 0.984 . S
N1695 H1699 0.985 . S
H1696 N1691 0.984 . S
H1697 N1691 0.985 . S
H1698 N1695 0.984 . S
H1699 N1695 0.985 . S
H1700 N1694 0.984 . S
H1701 N1694 0.984 . S
H1702 N1690 0.984 . S
H1703 N1690 0.985 . S
C1704 C1705 1.363 . S
C1704 C1710 1.379 1_554 S
C1704 N1712 1.356 . S
C1705 C1704 1.363 . S
C1705 C1711 1.363 . S
C1706 C1707 1.363 . S
C1706 C1711 1.379 1_556 S
C1706 N1713 1.356 . S
C1707 C1706 1.363 . S
C1707 C1710 1.363 . S
N1708 C1710 1.356 . S
N1708 H1720 0.984 . S
N1708 H1721 0.985 . S
N1709 C1711 1.356 . S
N1709 H1714 0.984 . S
N1709 H1715 0.985 . S
C1710 C1704 1.379 1_556 S
C1710 C1707 1.363 . S
C1710 N1708 1.356 . S
C1711 C1705 1.363 . S
C1711 C1706 1.379 1_554 S
C1711 N1709 1.356 . S
N1712 C1704 1.356 . S
N1712 H1718 0.984 . S
N1712 H1719 0.984 . S
N1713 C1706 1.356 . S
N1713 H1716 0.984 . S
N1713 H1717 0.985 . S
H1714 N1709 0.984 . S
H1715 N1709 0.985 . S
H1716 N1713 0.984 . S
H1717 N1713 0.985 . S
H1718 N1712 0.984 . S
H1719 N1712 0.984 . S
H1720 N1708 0.984 . S
H1721 N1708 0.985 . S
C1722 C1723 1.363 . S
C1722 C1728 1.379 1_556 S
C1722 N1730 1.356 . S
C1723 C1722 1.363 . S
C1723 C1729 1.363 . S
C1724 C1725 1.363 . S
C1724 C1729 1.379 1_554 S
C1724 N1731 1.356 . S
C1725 C1724 1.363 . S
C1725 C1728 1.363 . S
N1726 C1728 1.356 . S
N1726 H1738 0.984 . S
N1726 H1739 0.985 . S
N1727 C1729 1.356 . S
N1727 H1732 0.984 . S
N1727 H1733 0.985 . S
C1728 C1722 1.379 1_554 S
C1728 C1725 1.363 . S
C1728 N1726 1.356 . S
C1729 C1723 1.363 . S
C1729 C1724 1.379 1_556 S
C1729 N1727 1.356 . S
N1730 C1722 1.356 . S
N1730 H1736 0.984 . S
N1730 H1737 0.984 . S
N1731 C1724 1.356 . S
N1731 H1734 0.984 . S
N1731 H1735 0.985 . S
H1732 N1727 0.984 . S
H1733 N1727 0.985 . S
H1734 N1731 0.984 . S
H1735 N1731 0.985 . S
H1736 N1730 0.984 . S
H1737 N1730 0.984 . S
H1738 N1726 0.984 . S
H1739 N1726 0.985 . S
C1740 C1741 1.363 . S
C1740 C1746 1.379 . S
C1740 N1748 1.356 . S
C1741 C1740 1.363 . S
C1741 C1747 1.363 . S
C1742 C1743 1.363 . S
C1742 C1747 1.379 . S
C1742 N1749 1.356 . S
C1743 C1742 1.363 . S
C1743 C1746 1.363 . S
N1744 C1746 1.356 . S
N1744 H1756 0.984 . S
N1744 H1757 0.985 . S
N1745 C1747 1.356 . S
N1745 H1750 0.984 . S
N1745 H1751 0.985 . S
C1746 C1740 1.379 . S
C1746 C1743 1.363 . S
C1746 N1744 1.356 . S
C1747 C1741 1.363 . S
C1747 C1742 1.379 . S
C1747 N1745 1.356 . S
N1748 C1740 1.356 . S
N1748 H1754 0.984 . S
N1748 H1755 0.984 . S
N1749 C1742 1.356 . S
N1749 H1752 0.984 . S
N1749 H1753 0.985 . S
H1750 N1745 0.984 . S
H1751 N1745 0.985 . S
H1752 N1749 0.984 . S
H1753 N1749 0.985 . S
H1754 N1748 0.984 . S
H1755 N1748 0.984 . S
H1756 N1744 0.984 . S
H1757 N1744 0.985 . S
C1758 C1759 1.363 . S
C1758 C1764 1.379 . S
C1758 N1766 1.356 . S
C1759 C1758 1.363 . S
C1759 C1765 1.363 . S
C1760 C1761 1.363 . S
C1760 C1765 1.379 . S
C1760 N1767 1.356 . S
C1761 C1760 1.363 . S
C1761 C1764 1.363 . S
N1762 C1764 1.356 . S
N1762 H1774 0.984 . S
N1762 H1775 0.985 . S
N1763 C1765 1.356 . S
N1763 H1768 0.984 . S
N1763 H1769 0.985 . S
C1764 C1758 1.379 . S
C1764 C1761 1.363 . S
C1764 N1762 1.356 . S
C1765 C1759 1.363 . S
C1765 C1760 1.379 . S
C1765 N1763 1.356 . S
N1766 C1758 1.356 . S
N1766 H1772 0.984 . S
N1766 H1773 0.984 . S
N1767 C1760 1.356 . S
N1767 H1770 0.984 . S
N1767 H1771 0.985 . S
H1768 N1763 0.984 . S
H1769 N1763 0.985 . S
H1770 N1767 0.984 . S
H1771 N1767 0.985 . S
H1772 N1766 0.984 . S
H1773 N1766 0.984 . S
H1774 N1762 0.984 . S
H1775 N1762 0.985 . S
C1776 C1777 1.363 . S
C1776 C1782 1.379 1_655 S
C1776 N1784 1.356 . S
C1777 C1776 1.363 . S
C1777 C1783 1.363 1_565 S
C1778 C1779 1.363 . S
C1778 C1783 1.379 1_455 S
C1778 N1785 1.356 . S
C1779 C1778 1.363 . S
C1779 C1782 1.363 1_545 S
N1780 C1782 1.356 . S
N1780 H1792 0.984 . S
N1780 H1793 0.985 1_565 S
N1781 C1783 1.356 . S
N1781 H1786 0.984 1_545 S
N1781 H1787 0.985 . S
C1782 C1776 1.379 1_455 S
C1782 C1779 1.363 1_565 S
C1782 N1780 1.356 . S
C1783 C1777 1.363 1_545 S
C1783 C1778 1.379 1_655 S
C1783 N1781 1.356 . S
N1784 C1776 1.356 . S
N1784 H1790 0.984 . S
N1784 H1791 0.984 . S
N1785 C1778 1.356 . S
N1785 H1788 0.984 . S
N1785 H1789 0.985 . S
H1786 N1781 0.984 1_565 S
H1787 N1781 0.985 . S
H1788 N1785 0.984 . S
H1789 N1785 0.985 . S
H1790 N1784 0.984 . S
H1791 N1784 0.984 . S
H1792 N1780 0.984 . S
H1793 N1780 0.985 1_545 S
C1794 C1795 1.363 1_565 S
C1794 C1800 1.379 1_655 S
C1794 N1802 1.356 . S
C1795 C1794 1.363 1_545 S
C1795 C1801 1.363 . S
C1796 C1797 1.363 1_545 S
C1796 C1801 1.379 1_455 S
C1796 N1803 1.356 . S
C1797 C1796 1.363 1_565 S
C1797 C1800 1.363 . S
N1798 C1800 1.356 . S
N1798 H1810 0.984 . S
N1798 H1811 0.985 . S
N1799 C1801 1.356 . S
N1799 H1804 0.984 . S
N1799 H1805 0.985 . S
C1800 C1794 1.379 1_455 S
C1800 C1797 1.363 . S
C1800 N1798 1.356 . S
C1801 C1795 1.363 . S
C1801 C1796 1.379 1_655 S
C1801 N1799 1.356 . S
N1802 C1794 1.356 . S
N1802 H1808 0.984 . S
N1802 H1809 0.984 1_565 S
N1803 C1796 1.356 . S
N1803 H1806 0.984 1_545 S
N1803 H1807 0.985 . S
H1804 N1799 0.984 . S
H1805 N1799 0.985 . S
H1806 N1803 0.984 1_565 S
H1807 N1803 0.985 . S
H1808 N1802 0.984 . S
H1809 N1802 0.984 1_545 S
H1810 N1798 0.984 . S
H1811 N1798 0.985 . S
C1812 C1813 1.363 . S
C1812 C1818 1.379 1_455 S
C1812 N1820 1.356 . S
C1813 C1812 1.363 . S
C1813 C1819 1.363 1_545 S
C1814 C1815 1.363 . S
C1814 C1819 1.379 1_655 S
C1814 N1821 1.356 . S
C1815 C1814 1.363 . S
C1815 C1818 1.363 1_565 S
N1816 C1818 1.356 . S
N1816 H1828 0.984 . S
N1816 H1829 0.985 1_545 S
N1817 C1819 1.356 . S
N1817 H1822 0.984 1_565 S
N1817 H1823 0.985 . S
C1818 C1812 1.379 1_655 S
C1818 C1815 1.363 1_545 S
C1818 N1816 1.356 . S
C1819 C1813 1.363 1_565 S
C1819 C1814 1.379 1_455 S
C1819 N1817 1.356 . S
N1820 C1812 1.356 . S
N1820 H1826 0.984 . S
N1820 H1827 0.984 . S
N1821 C1814 1.356 . S
N1821 H1824 0.984 . S
N1821 H1825 0.985 . S
H1822 N1817 0.984 1_545 S
H1823 N1817 0.985 . S
H1824 N1821 0.984 . S
H1825 N1821 0.985 . S
H1826 N1820 0.984 . S
H1827 N1820 0.984 . S
H1828 N1816 0.984 . S
H1829 N1816 0.985 1_565 S
C1830 C1831 1.363 1_565 S
C1830 C1836 1.379 1_655 S
C1830 N1838 1.356 . S
C1831 C1830 1.363 1_545 S
C1831 C1837 1.363 . S
C1832 C1833 1.363 1_545 S
C1832 C1837 1.379 1_455 S
C1832 N1839 1.356 . S
C1833 C1832 1.363 1_565 S
C1833 C1836 1.363 . S
N1834 C1836 1.356 . S
N1834 H1846 0.984 . S
N1834 H1847 0.985 . S
N1835 C1837 1.356 . S
N1835 H1840 0.984 . S
N1835 H1841 0.985 . S
C1836 C1830 1.379 1_455 S
C1836 C1833 1.363 . S
C1836 N1834 1.356 . S
C1837 C1831 1.363 . S
C1837 C1832 1.379 1_655 S
C1837 N1835 1.356 . S
N1838 C1830 1.356 . S
N1838 H1844 0.984 . S
N1838 H1845 0.984 1_565 S
N1839 C1832 1.356 . S
N1839 H1842 0.984 1_545 S
N1839 H1843 0.985 . S
H1840 N1835 0.984 . S
H1841 N1835 0.985 . S
H1842 N1839 0.984 1_565 S
H1843 N1839 0.985 . S
H1844 N1838 0.984 . S
H1845 N1838 0.984 1_545 S
H1846 N1834 0.984 . S
H1847 N1834 0.985 . S
C1848 C1849 1.363 . S
C1848 C1854 1.379 . S
C1848 N1856 1.356 . S
C1849 C1848 1.363 . S
C1849 C1855 1.363 . S
C1850 C1851 1.363 . S
C1850 C1855 1.379 . S
C1850 N1857 1.356 . S
C1851 C1850 1.363 . S
C1851 C1854 1.363 . S
N1852 C1854 1.356 . S
N1852 H1864 0.984 . S
N1852 H1865 0.985 . S
N1853 C1855 1.356 . S
N1853 H1858 0.984 . S
N1853 H1859 0.985 . S
C1854 C1848 1.379 . S
C1854 C1851 1.363 . S
C1854 N1852 1.356 . S
C1855 C1849 1.363 . S
C1855 C1850 1.379 . S
C1855 N1853 1.356 . S
N1856 C1848 1.356 . S
N1856 H1862 0.984 . S
N1856 H1863 0.984 . S
N1857 C1850 1.356 . S
N1857 H1860 0.984 . S
N1857 H1861 0.985 . S
H1858 N1853 0.984 . S
H1859 N1853 0.985 . S
H1860 N1857 0.984 . S
H1861 N1857 0.985 . S
H1862 N1856 0.984 . S
H1863 N1856 0.984 . S
H1864 N1852 0.984 . S
H1865 N1852 0.985 . S
C1866 C1867 1.363 . S
C1866 C1872 1.379 . S
C1866 N1874 1.356 . S
C1867 C1866 1.363 . S
C1867 C1873 1.363 . S
C1868 C1869 1.363 . S
C1868 C1873 1.379 . S
C1868 N1875 1.356 . S
C1869 C1868 1.363 . S
C1869 C1872 1.363 . S
N1870 C1872 1.356 . S
N1870 H1882 0.984 . S
N1870 H1883 0.985 . S
N1871 C1873 1.356 . S
N1871 H1876 0.984 . S
N1871 H1877 0.985 . S
C1872 C1866 1.379 . S
C1872 C1869 1.363 . S
C1872 N1870 1.356 . S
C1873 C1867 1.363 . S
C1873 C1868 1.379 . S
C1873 N1871 1.356 . S
N1874 C1866 1.356 . S
N1874 H1880 0.984 . S
N1874 H1881 0.984 . S
N1875 C1868 1.356 . S
N1875 H1878 0.984 . S
N1875 H1879 0.985 . S
H1876 N1871 0.984 . S
H1877 N1871 0.985 . S
H1878 N1875 0.984 . S
H1879 N1875 0.985 . S
H1880 N1874 0.984 . S
H1881 N1874 0.984 . S
H1882 N1870 0.984 . S
H1883 N1870 0.985 . S
C1884 C1885 1.363 . S
C1884 C1890 1.379 . S
C1884 N1892 1.356 . S
C1885 C1884 1.363 . S
C1885 C1891 1.363 . S
C1886 C1887 1.363 . S
C1886 C1891 1.379 . S
C1886 N1893 1.356 . S
C1887 C1886 1.363 . S
C1887 C1890 1.363 . S
N1888 C1890 1.356 . S
N1888 H1900 0.984 . S
N1888 H1901 0.985 . S
N1889 C1891 1.356 . S
N1889 H1894 0.984 . S
N1889 H1895 0.985 . S
C1890 C1884 1.379 . S
C1890 C1887 1.363 . S
C1890 N1888 1.356 . S
C1891 C1885 1.363 . S
C1891 C1886 1.379 . S
C1891 N1889 1.356 . S
N1892 C1884 1.356 . S
N1892 H1898 0.984 . S
N1892 H1899 0.984 . S
N1893 C1886 1.356 . S
N1893 H1896 0.984 . S
N1893 H1897 0.985 . S
H1894 N1889 0.984 . S
H1895 N1889 0.985 . S
H1896 N1893 0.984 . S
H1897 N1893 0.985 . S
H1898 N1892 0.984 . S
H1899 N1892 0.984 . S
H1900 N1888 0.984 . S
H1901 N1888 0.985 . S
C1902 C1903 1.363 . S
C1902 C1908 1.379 . S
C1902 N1910 1.356 . S
C1903 C1902 1.363 . S
C1903 C1909 1.363 . S
C1904 C1905 1.363 . S
C1904 C1909 1.379 . S
C1904 N1911 1.356 . S
C1905 C1904 1.363 . S
C1905 C1908 1.363 . S
N1906 C1908 1.356 . S
N1906 H1918 0.984 . S
N1906 H1919 0.985 . S
N1907 C1909 1.356 . S
N1907 H1912 0.984 . S
N1907 H1913 0.985 . S
C1908 C1902 1.379 . S
C1908 C1905 1.363 . S
C1908 N1906 1.356 . S
C1909 C1903 1.363 . S
C1909 C1904 1.379 . S
C1909 N1907 1.356 . S
N1910 C1902 1.356 . S
N1910 H1916 0.984 . S
N1910 H1917 0.984 . S
N1911 C1904 1.356 . S
N1911 H1914 0.984 . S
N1911 H1915 0.985 . S
H1912 N1907 0.984 . S
H1913 N1907 0.985 . S
H1914 N1911 0.984 . S
H1915 N1911 0.985 . S
H1916 N1910 0.984 . S
H1917 N1910 0.984 . S
H1918 N1906 0.984 . S
H1919 N1906 0.985 . S
C1920 C1921 1.363 . S
C1920 C1926 1.379 . S
C1920 N1928 1.356 . S
C1921 C1920 1.363 . S
C1921 C1927 1.363 . S
C1922 C1923 1.363 . S
C1922 C1927 1.379 . S
C1922 N1929 1.356 . S
C1923 C1922 1.363 . S
C1923 C1926 1.363 . S
N1924 C1926 1.356 . S
N1924 H1936 0.984 . S
N1924 H1937 0.985 . S
N1925 C1927 1.356 . S
N1925 H1930 0.984 . S
N1925 H1931 0.985 . S
C1926 C1920 1.379 . S
C1926 C1923 1.363 . S
C1926 N1924 1.356 . S
C1927 C1921 1.363 . S
C1927 C1922 1.379 . S
C1927 N1925 1.356 . S
N1928 C1920 1.356 . S
N1928 H1934 0.984 . S
N1928 H1935 0.984 . S
N1929 C1922 1.356 . S
N1929 H1932 0.984 . S
N1929 H1933 0.985 . S
H1930 N1925 0.984 . S
H1931 N1925 0.985 . S
H1932 N1929 0.984 . S
H1933 N1929 0.985 . S
H1934 N1928 0.984 . S
H1935 N1928 0.984 . S
H1936 N1924 0.984 . S
H1937 N1924 0.985 . S
C1938 C1939 1.363 . S
C1938 C1944 1.379 . S
C1938 N1946 1.356 . S
C1939 C1938 1.363 . S
C1939 C1945 1.363 . S
C1940 C1941 1.363 . S
C1940 C1945 1.379 . S
C1940 N1947 1.356 . S
C1941 C1940 1.363 . S
C1941 C1944 1.363 . S
N1942 C1944 1.356 . S
N1942 H1954 0.984 . S
N1942 H1955 0.985 . S
N1943 C1945 1.356 . S
N1943 H1948 0.984 . S
N1943 H1949 0.985 . S
C1944 C1938 1.379 . S
C1944 C1941 1.363 . S
C1944 N1942 1.356 . S
C1945 C1939 1.363 . S
C1945 C1940 1.379 . S
C1945 N1943 1.356 . S
N1946 C1938 1.356 . S
N1946 H1952 0.984 . S
N1946 H1953 0.984 . S
N1947 C1940 1.356 . S
N1947 H1950 0.984 . S
N1947 H1951 0.985 . S
H1948 N1943 0.984 . S
H1949 N1943 0.985 . S
H1950 N1947 0.984 . S
H1951 N1947 0.985 . S
H1952 N1946 0.984 . S
H1953 N1946 0.984 . S
H1954 N1942 0.984 . S
H1955 N1942 0.985 . S
C1956 C1957 1.363 . S
C1956 C1962 1.379 . S
C1956 N1964 1.356 . S
C1957 C1956 1.363 . S
C1957 C1963 1.363 . S
C1958 C1959 1.363 . S
C1958 C1963 1.379 . S
C1958 N1965 1.356 . S
C1959 C1958 1.363 . S
C1959 C1962 1.363 . S
N1960 C1962 1.356 . S
N1960 H1972 0.984 . S
N1960 H1973 0.985 . S
N1961 C1963 1.356 . S
N1961 H1966 0.984 . S
N1961 H1967 0.985 . S
C1962 C1956 1.379 . S
C1962 C1959 1.363 . S
C1962 N1960 1.356 . S
C1963 C1957 1.363 . S
C1963 C1958 1.379 . S
C1963 N1961 1.356 . S
N1964 C1956 1.356 . S
N1964 H1970 0.984 . S
N1964 H1971 0.984 . S
N1965 C1958 1.356 . S
N1965 H1968 0.984 . S
N1965 H1969 0.985 . S
H1966 N1961 0.984 . S
H1967 N1961 0.985 . S
H1968 N1965 0.984 . S
H1969 N1965 0.985 . S
H1970 N1964 0.984 . S
H1971 N1964 0.984 . S
H1972 N1960 0.984 . S
H1973 N1960 0.985 . S
C1974 C1975 1.363 . S
C1974 C1980 1.379 . S
C1974 N1982 1.356 . S
C1975 C1974 1.363 . S
C1975 C1981 1.363 . S
C1976 C1977 1.363 . S
C1976 C1981 1.379 . S
C1976 N1983 1.356 . S
C1977 C1976 1.363 . S
C1977 C1980 1.363 . S
N1978 C1980 1.356 . S
N1978 H1990 0.984 . S
N1978 H1991 0.985 . S
N1979 C1981 1.356 . S
N1979 H1984 0.984 . S
N1979 H1985 0.985 . S
C1980 C1974 1.379 . S
C1980 C1977 1.363 . S
C1980 N1978 1.356 . S
C1981 C1975 1.363 . S
C1981 C1976 1.379 . S
C1981 N1979 1.356 . S
N1982 C1974 1.356 . S
N1982 H1988 0.984 . S
N1982 H1989 0.984 . S
N1983 C1976 1.356 . S
N1983 H1986 0.984 . S
N1983 H1987 0.985 . S
H1984 N1979 0.984 . S
H1985 N1979 0.985 . S
H1986 N1983 0.984 . S
H1987 N1983 0.985 . S
H1988 N1982 0.984 . S
H1989 N1982 0.984 . S
H1990 N1978 0.984 . S
H1991 N1978 0.985 . S
C1992 C1993 1.363 . S
C1992 C1998 1.379 . S
C1992 N2000 1.356 . S
C1993 C1992 1.363 . S
C1993 C1999 1.363 . S
C1994 C1995 1.363 . S
C1994 C1999 1.379 . S
C1994 N2001 1.356 . S
C1995 C1994 1.363 . S
C1995 C1998 1.363 . S
N1996 C1998 1.356 . S
N1996 H2008 0.984 . S
N1996 H2009 0.985 . S
N1997 C1999 1.356 . S
N1997 H2002 0.984 . S
N1997 H2003 0.985 . S
C1998 C1992 1.379 . S
C1998 C1995 1.363 . S
C1998 N1996 1.356 . S
C1999 C1993 1.363 . S
C1999 C1994 1.379 . S
C1999 N1997 1.356 . S
N2000 C1992 1.356 . S
N2000 H2006 0.984 . S
N2000 H2007 0.984 . S
N2001 C1994 1.356 . S
N2001 H2004 0.984 . S
N2001 H2005 0.985 . S
H2002 N1997 0.984 . S
H2003 N1997 0.985 . S
H2004 N2001 0.984 . S
H2005 N2001 0.985 . S
H2006 N2000 0.984 . S
H2007 N2000 0.984 . S
H2008 N1996 0.984 . S
H2009 N1996 0.985 . S
C2010 C2011 1.363 . S
C2010 C2016 1.379 . S
C2010 N2018 1.356 . S
C2011 C2010 1.363 . S
C2011 C2017 1.363 . S
C2012 C2013 1.363 . S
C2012 C2017 1.379 . S
C2012 N2019 1.356 . S
C2013 C2012 1.363 . S
C2013 C2016 1.363 . S
N2014 C2016 1.356 . S
N2014 H2026 0.984 . S
N2014 H2027 0.985 . S
N2015 C2017 1.356 . S
N2015 H2020 0.984 . S
N2015 H2021 0.985 . S
C2016 C2010 1.379 . S
C2016 C2013 1.363 . S
C2016 N2014 1.356 . S
C2017 C2011 1.363 . S
C2017 C2012 1.379 . S
C2017 N2015 1.356 . S
N2018 C2010 1.356 . S
N2018 H2024 0.984 . S
N2018 H2025 0.984 . S
N2019 C2012 1.356 . S
N2019 H2022 0.984 . S
N2019 H2023 0.985 . S
H2020 N2015 0.984 . S
H2021 N2015 0.985 . S
H2022 N2019 0.984 . S
H2023 N2019 0.985 . S
H2024 N2018 0.984 . S
H2025 N2018 0.984 . S
H2026 N2014 0.984 . S
H2027 N2014 0.985 . S
C2028 C2029 1.363 . S
C2028 C2034 1.379 . S
C2028 N2036 1.356 . S
C2029 C2028 1.363 . S
C2029 C2035 1.363 . S
C2030 C2031 1.363 . S
C2030 C2035 1.379 . S
C2030 N2037 1.356 . S
C2031 C2030 1.363 . S
C2031 C2034 1.363 . S
N2032 C2034 1.356 . S
N2032 H2044 0.984 . S
N2032 H2045 0.985 . S
N2033 C2035 1.356 . S
N2033 H2038 0.984 . S
N2033 H2039 0.985 . S
C2034 C2028 1.379 . S
C2034 C2031 1.363 . S
C2034 N2032 1.356 . S
C2035 C2029 1.363 . S
C2035 C2030 1.379 . S
C2035 N2033 1.356 . S
N2036 C2028 1.356 . S
N2036 H2042 0.984 . S
N2036 H2043 0.984 . S
N2037 C2030 1.356 . S
N2037 H2040 0.984 . S
N2037 H2041 0.985 . S
H2038 N2033 0.984 . S
H2039 N2033 0.985 . S
H2040 N2037 0.984 . S
H2041 N2037 0.985 . S
H2042 N2036 0.984 . S
H2043 N2036 0.984 . S
H2044 N2032 0.984 . S
H2045 N2032 0.985 . S
C2046 C2047 1.363 . S
C2046 C2052 1.379 . S
C2046 N2054 1.356 . S
C2047 C2046 1.363 . S
C2047 C2053 1.363 . S
C2048 C2049 1.363 . S
C2048 C2053 1.379 . S
C2048 N2055 1.356 . S
C2049 C2048 1.363 . S
C2049 C2052 1.363 . S
N2050 C2052 1.356 . S
N2050 H2062 0.984 . S
N2050 H2063 0.985 . S
N2051 C2053 1.356 . S
N2051 H2056 0.984 . S
N2051 H2057 0.985 . S
C2052 C2046 1.379 . S
C2052 C2049 1.363 . S
C2052 N2050 1.356 . S
C2053 C2047 1.363 . S
C2053 C2048 1.379 . S
C2053 N2051 1.356 . S
N2054 C2046 1.356 . S
N2054 H2060 0.984 . S
N2054 H2061 0.984 . S
N2055 C2048 1.356 . S
N2055 H2058 0.984 . S
N2055 H2059 0.985 . S
H2056 N2051 0.984 . S
H2057 N2051 0.985 . S
H2058 N2055 0.984 . S
H2059 N2055 0.985 . S
H2060 N2054 0.984 . S
H2061 N2054 0.984 . S
H2062 N2050 0.984 . S
H2063 N2050 0.985 . S
C2064 C2065 1.363 . S
C2064 C2070 1.379 . S
C2064 N2072 1.356 . S
C2065 C2064 1.363 . S
C2065 C2071 1.363 . S
C2066 C2067 1.363 . S
C2066 C2071 1.379 . S
C2066 N2073 1.356 . S
C2067 C2066 1.363 . S
C2067 C2070 1.363 . S
N2068 C2070 1.356 . S
N2068 H2080 0.984 . S
N2068 H2081 0.985 . S
N2069 C2071 1.356 . S
N2069 H2074 0.984 . S
N2069 H2075 0.985 . S
C2070 C2064 1.379 . S
C2070 C2067 1.363 . S
C2070 N2068 1.356 . S
C2071 C2065 1.363 . S
C2071 C2066 1.379 . S
C2071 N2069 1.356 . S
N2072 C2064 1.356 . S
N2072 H2078 0.984 1_545 S
N2072 H2079 0.984 1_545 S
N2073 C2066 1.356 . S
N2073 H2076 0.984 . S
N2073 H2077 0.985 . S
H2074 N2069 0.984 . S
H2075 N2069 0.985 . S
H2076 N2073 0.984 . S
H2077 N2073 0.985 . S
H2078 N2072 0.984 1_565 S
H2079 N2072 0.984 1_565 S
H2080 N2068 0.984 . S
H2081 N2068 0.985 . S
C2082 C2083 1.363 . S
C2082 C2088 1.379 . S
C2082 N2090 1.356 . S
C2083 C2082 1.363 . S
C2083 C2089 1.363 . S
C2084 C2085 1.363 . S
C2084 C2089 1.379 . S
C2084 N2091 1.356 . S
C2085 C2084 1.363 . S
C2085 C2088 1.363 . S
N2086 C2088 1.356 . S
N2086 H2098 0.985 . S
N2086 H2099 0.985 1_565 S
N2087 C2089 1.356 . S
N2087 H2092 0.984 . S
N2087 H2093 0.985 . S
C2088 C2082 1.379 . S
C2088 C2085 1.363 . S
C2088 N2086 1.356 . S
C2089 C2083 1.363 . S
C2089 C2084 1.379 . S
C2089 N2087 1.356 . S
N2090 C2082 1.356 . S
N2090 H2096 0.984 . S
N2090 H2097 0.984 . S
N2091 C2084 1.356 . S
N2091 H2094 0.984 . S
N2091 H2095 0.985 . S
H2092 N2087 0.984 . S
H2093 N2087 0.985 . S
H2094 N2091 0.984 . S
H2095 N2091 0.985 . S
H2096 N2090 0.984 . S
H2097 N2090 0.984 . S
H2098 N2086 0.985 . S
H2099 N2086 0.985 1_545 S
C2100 C2101 1.363 . S
C2100 C2106 1.379 . S
C2100 N2108 1.356 . S
C2101 C2100 1.363 . S
C2101 C2107 1.363 . S
C2102 C2103 1.363 . S
C2102 C2107 1.379 . S
C2102 N2109 1.356 . S
C2103 C2102 1.363 . S
C2103 C2106 1.363 . S
N2104 C2106 1.356 . S
N2104 H2116 0.984 . S
N2104 H2117 0.985 . S
N2105 C2107 1.356 . S
N2105 H2110 0.984 1_565 S
N2105 H2111 0.985 . S
C2106 C2100 1.379 . S
C2106 C2103 1.363 . S
C2106 N2104 1.356 . S
C2107 C2101 1.363 . S
C2107 C2102 1.379 . S
C2107 N2105 1.356 . S
N2108 C2100 1.356 . S
N2108 H2114 0.984 . S
N2108 H2115 0.984 . S
N2109 C2102 1.356 . S
N2109 H2112 0.984 . S
N2109 H2113 0.985 . S
H2110 N2105 0.984 1_545 S
H2111 N2105 0.985 . S
H2112 N2109 0.984 . S
H2113 N2109 0.985 . S
H2114 N2108 0.984 . S
H2115 N2108 0.984 . S
H2116 N2104 0.984 . S
H2117 N2104 0.985 . S
C2118 C2119 1.363 . S
C2118 C2124 1.379 . S
C2118 N2126 1.356 . S
C2119 C2118 1.363 . S
C2119 C2125 1.363 . S
C2120 C2121 1.363 . S
C2120 C2125 1.379 . S
C2120 N2127 1.356 . S
C2121 C2120 1.363 . S
C2121 C2124 1.363 . S
N2122 C2124 1.356 . S
N2122 H2134 0.984 . S
N2122 H2135 0.985 . S
N2123 C2125 1.356 . S
N2123 H2128 0.984 . S
N2123 H2129 0.985 . S
C2124 C2118 1.379 . S
C2124 C2121 1.363 . S
C2124 N2122 1.356 . S
C2125 C2119 1.363 . S
C2125 C2120 1.379 . S
C2125 N2123 1.356 . S
N2126 C2118 1.356 . S
N2126 H2132 0.984 . S
N2126 H2133 0.984 1_545 S
N2127 C2120 1.356 . S
N2127 H2130 0.984 . S
N2127 H2131 0.985 . S
H2128 N2123 0.984 . S
H2129 N2123 0.985 . S
H2130 N2127 0.984 . S
H2131 N2127 0.985 . S
H2132 N2126 0.984 . S
H2133 N2126 0.984 1_565 S
H2134 N2122 0.984 . S
H2135 N2122 0.985 . S
C2136 C2137 1.363 . S
C2136 C2142 1.379 . S
C2136 N2144 1.356 . S
C2137 C2136 1.363 . S
C2137 C2143 1.363 . S
C2138 C2139 1.363 . S
C2138 C2143 1.379 . S
C2138 N2145 1.356 . S
C2139 C2138 1.363 . S
C2139 C2142 1.363 . S
N2140 C2142 1.356 . S
N2140 H2152 0.983 1_565 S
N2140 H2153 0.985 1_565 S
N2141 C2143 1.356 . S
N2141 H2146 0.984 . S
N2141 H2147 0.985 . S
C2142 C2136 1.379 . S
C2142 C2139 1.363 . S
C2142 N2140 1.356 . S
C2143 C2137 1.363 . S
C2143 C2138 1.379 . S
C2143 N2141 1.356 . S
N2144 C2136 1.356 . S
N2144 H2150 0.984 . S
N2144 H2151 0.984 . S
N2145 C2138 1.356 . S
N2145 H2148 0.984 . S
N2145 H2149 0.985 . S
H2146 N2141 0.984 . S
H2147 N2141 0.985 . S
H2148 N2145 0.984 . S
H2149 N2145 0.985 . S
H2150 N2144 0.984 . S
H2151 N2144 0.984 . S
H2152 N2140 0.983 1_545 S
H2153 N2140 0.985 1_545 S
C2154 C2155 1.363 . S
C2154 C2160 1.379 . S
C2154 N2162 1.356 . S
C2155 C2154 1.363 . S
C2155 C2161 1.363 . S
C2156 C2157 1.363 . S
C2156 C2161 1.379 . S
C2156 N2163 1.356 . S
C2157 C2156 1.363 . S
C2157 C2160 1.363 . S
N2158 C2160 1.356 . S
N2158 H2170 0.984 . S
N2158 H2171 0.978 1_545 S
N2159 C2161 1.356 . S
N2159 H2164 0.984 . S
N2159 H2165 0.985 . S
C2160 C2154 1.379 . S
C2160 C2157 1.363 . S
C2160 N2158 1.356 . S
C2161 C2155 1.363 . S
C2161 C2156 1.379 . S
C2161 N2159 1.356 . S
N2162 C2154 1.356 . S
N2162 H2168 0.984 . S
N2162 H2169 0.984 . S
N2163 C2156 1.356 . S
N2163 H2166 0.984 . S
N2163 H2167 0.985 . S
H2164 N2159 0.984 . S
H2165 N2159 0.985 . S
H2166 N2163 0.984 . S
H2167 N2163 0.985 . S
H2168 N2162 0.984 . S
H2169 N2162 0.984 . S
H2170 N2158 0.984 . S
H2171 N2158 0.978 1_565 S
C2172 C2173 1.363 . S
C2172 C2178 1.379 . S
C2172 N2180 1.356 . S
C2173 C2172 1.363 . S
C2173 C2179 1.363 . S
C2174 C2175 1.363 . S
C2174 C2179 1.379 . S
C2174 N2181 1.356 . S
C2175 C2174 1.363 . S
C2175 C2178 1.363 . S
N2176 C2178 1.356 . S
N2176 H2188 0.984 . S
N2176 H2189 0.985 . S
N2177 C2179 1.356 . S
N2177 H2182 0.984 . S
N2177 H2183 0.985 . S
C2178 C2172 1.379 . S
C2178 C2175 1.363 . S
C2178 N2176 1.356 . S
C2179 C2173 1.363 . S
C2179 C2174 1.379 . S
C2179 N2177 1.356 . S
N2180 C2172 1.356 . S
N2180 H2186 0.985 . S
N2180 H2187 0.984 1_545 S
N2181 C2174 1.356 . S
N2181 H2184 0.984 . S
N2181 H2185 0.985 . S
H2182 N2177 0.984 . S
H2183 N2177 0.985 . S
H2184 N2181 0.984 . S
H2185 N2181 0.985 . S
H2186 N2180 0.985 . S
H2187 N2180 0.984 1_565 S
H2188 N2176 0.984 . S
H2189 N2176 0.985 . S
C2190 C2191 1.363 . S
C2190 C2196 1.379 . S
C2190 N2198 1.356 . S
C2191 C2190 1.363 . S
C2191 C2197 1.363 . S
C2192 C2193 1.363 . S
C2192 C2197 1.379 . S
C2192 N2199 1.356 . S
C2193 C2192 1.363 . S
C2193 C2196 1.363 . S
N2194 C2196 1.356 . S
N2194 H2206 0.983 1_565 S
N2194 H2207 0.985 1_565 S
N2195 C2197 1.356 . S
N2195 H2200 0.984 . S
N2195 H2201 0.985 . S
C2196 C2190 1.379 . S
C2196 C2193 1.363 . S
C2196 N2194 1.356 . S
C2197 C2191 1.363 . S
C2197 C2192 1.379 . S
C2197 N2195 1.356 . S
N2198 C2190 1.356 . S
N2198 H2204 0.984 . S
N2198 H2205 0.984 . S
N2199 C2192 1.356 . S
N2199 H2202 0.984 . S
N2199 H2203 0.985 . S
H2200 N2195 0.984 . S
H2201 N2195 0.985 . S
H2202 N2199 0.984 . S
H2203 N2199 0.985 . S
H2204 N2198 0.984 . S
H2205 N2198 0.984 . S
H2206 N2194 0.983 1_545 S
H2207 N2194 0.985 1_545 S
C1345 C67 1.508 . S
C1347 C823 1.508 . S
C1363 C151 1.508 . S
C1365 C739 1.508 . S
C1381 C991 1.508 . S
C1383 C235 1.508 . S
C1399 C319 1.508 . S
C1401 C907 1.508 . S
C1417 C1148 1.508 . S
C1419 C392 1.508 . S
C1435 C1064 1.508 . S
C1437 C476 1.508 . S
C1453 C1316 1.508 . S
C1455 C560 1.508 . S
C1471 C644 1.508 . S
C1473 C1232 1.508 . S
C1489 C242 1.703 . S
C1491 C74 1.703 . S
C1507 C326 1.703 . S
C1509 C158 1.703 . S
C1525 C567 1.703 . S
C1527 C399 1.703 . S
C1543 C483 1.703 . S
C1545 C651 1.703 . S
C1561 C914 1.703 . S
C1563 C746 1.703 . S
C1579 C998 1.703 . S
C1581 C830 1.703 . S
C1597 C1071 1.703 . S
C1599 C1239 1.703 . S
C1615 C1155 1.703 . S
C1617 C1323 1.703 . S
C1633 C494 1.675 . S
C1635 C63 1.675 . S
C1651 C410 1.675 . S
C1653 C147 1.675 . S
C1669 C231 1.675 . S
C1671 C662 1.675 . S
C1687 C578 1.675 . S
C1689 C315 1.675 . S
C1705 C735 1.675 . S
C1707 C1166 1.675 . S
C1723 C1082 1.675 . S
C1725 C819 1.675 . S
C1741 C903 1.675 . S
C1743 C1334 1.675 . S
C1759 C1250 1.675 . S
C1761 C987 1.675 . S
C1777 C140 1.502 . S
C1779 C56 1.502 . S
C1795 C308 1.502 . S
C1797 C224 1.502 . S
C1813 C487 1.502 . S
C1815 C403 1.502 . S
C1831 C571 1.502 . S
C1833 C655 1.502 . S
C1849 C812 1.502 . S
C1851 C728 1.502 . S
C1867 C980 1.502 . S
C1869 C896 1.502 . S
C1885 C1075 1.502 . S
C1887 C1159 1.502 . S
C1903 C1243 1.502 . S
C1905 C1327 1.502 . S
C1921 C69 1.310 . S
C1923 C58 1.310 . S
C1939 C153 1.310 . S
C1941 C142 1.310 . S
C1957 C237 1.310 . S
C1959 C226 1.310 . S
C1975 C310 1.310 . S
C1977 C321 1.310 . S
C1993 C394 1.310 . S
C1995 C405 1.310 . S
C2011 C489 1.310 . S
C2013 C478 1.310 . S
C2029 C562 1.310 . S
C2031 C573 1.310 . S
C2047 C646 1.310 . S
C2049 C657 1.310 . S
C2065 C730 1.310 1_545 S
C2067 C741 1.310 . S
C2083 C825 1.310 . S
C2085 C814 1.310 1_565 S
C2101 C898 1.310 1_565 S
C2103 C909 1.310 . S
C2119 C982 1.310 1_545 S
C2121 C993 1.310 . S
C2137 C1066 1.310 . S
C2139 C1077 1.310 1_565 S
C2155 C1150 1.310 . S
C2157 C1161 1.310 1_545 S
C2173 C1245 1.310 1_545 S
C2175 C1234 1.310 . S
C2191 C1318 1.310 . S
C2193 C1329 1.310 1_565 S
