# Generated by pormake.
# Topology lcy-e, (6)-cn, num edge types: 1
# Building blocks:
#     Node 0, Type 0, BuildingBlock: UKALOJ_clean_sbu_0, # of connection points: 6
#     Node 1, Type 0, BuildingBlock: UKALOJ_clean_sbu_0, # of connection points: 6
#     Node 2, Type 0, BuildingBlock: UKALOJ_clean_sbu_0, # of connection points: 6
#     Node 3, Type 0, BuildingBlock: UKALOJ_clean_sbu_0, # of connection points: 6
#     Node 4, Type 0, BuildingBlock: UKALOJ_clean_sbu_0, # of connection points: 6
#     Node 5, Type 0, BuildingBlock: UKALOJ_clean_sbu_0, # of connection points: 6
#     Node 6, Type 0, BuildingBlock: UKALOJ_clean_sbu_0, # of connection points: 6
#     Node 7, Type 0, BuildingBlock: UKALOJ_clean_sbu_0, # of connection points: 6
#     Node 8, Type 0, BuildingBlock: UKALOJ_clean_sbu_0, # of connection points: 6
#     Node 9, Type 0, BuildingBlock: UKALOJ_clean_sbu_0, # of connection points: 6
#     Node 10, Type 0, BuildingBlock: UKALOJ_clean_sbu_0, # of connection points: 6
#     Node 11, Type 0, BuildingBlock: UKALOJ_clean_sbu_0, # of connection points: 6
#     Edge 12, Type (0, 0), BuildingBlock: MIFKUJ_clean_linker_0, # of connection points: 2
#     Edge 13, Type (0, 0), BuildingBlock: MIFKUJ_clean_linker_0, # of connection points: 2
#     Edge 14, Type (0, 0), BuildingBlock: MIFKUJ_clean_linker_0, # of connection points: 2
#     Edge 15, Type (0, 0), BuildingBlock: MIFKUJ_clean_linker_0, # of connection points: 2
#     Edge 16, Type (0, 0), BuildingBlock: MIFKUJ_clean_linker_0, # of connection points: 2
#     Edge 17, Type (0, 0), BuildingBlock: MIFKUJ_clean_linker_0, # of connection points: 2
#     Edge 18, Type (0, 0), BuildingBlock: MIFKUJ_clean_linker_0, # of connection points: 2
#     Edge 19, Type (0, 0), BuildingBlock: MIFKUJ_clean_linker_0, # of connection points: 2
#     Edge 20, Type (0, 0), BuildingBlock: MIFKUJ_clean_linker_0, # of connection points: 2
#     Edge 21, Type (0, 0), BuildingBlock: MIFKUJ_clean_linker_0, # of connection points: 2
#     Edge 22, Type (0, 0), BuildingBlock: MIFKUJ_clean_linker_0, # of connection points: 2
#     Edge 23, Type (0, 0), BuildingBlock: MIFKUJ_clean_linker_0, # of connection points: 2
#     Edge 24, Type (0, 0), BuildingBlock: MIFKUJ_clean_linker_0, # of connection points: 2
#     Edge 25, Type (0, 0), BuildingBlock: MIFKUJ_clean_linker_0, # of connection points: 2
#     Edge 26, Type (0, 0), BuildingBlock: MIFKUJ_clean_linker_0, # of connection points: 2
#     Edge 27, Type (0, 0), BuildingBlock: MIFKUJ_clean_linker_0, # of connection points: 2
#     Edge 28, Type (0, 0), BuildingBlock: MIFKUJ_clean_linker_0, # of connection points: 2
#     Edge 29, Type (0, 0), BuildingBlock: MIFKUJ_clean_linker_0, # of connection points: 2
#     Edge 30, Type (0, 0), BuildingBlock: MIFKUJ_clean_linker_0, # of connection points: 2
#     Edge 31, Type (0, 0), BuildingBlock: MIFKUJ_clean_linker_0, # of connection points: 2
#     Edge 32, Type (0, 0), BuildingBlock: MIFKUJ_clean_linker_0, # of connection points: 2
#     Edge 33, Type (0, 0), BuildingBlock: MIFKUJ_clean_linker_0, # of connection points: 2
#     Edge 34, Type (0, 0), BuildingBlock: MIFKUJ_clean_linker_0, # of connection points: 2
#     Edge 35, Type (0, 0), BuildingBlock: MIFKUJ_clean_linker_0, # of connection points: 2
#     Edge 36, Type (0, 0), BuildingBlock: MIFKUJ_clean_linker_0, # of connection points: 2
#     Edge 37, Type (0, 0), BuildingBlock: MIFKUJ_clean_linker_0, # of connection points: 2
#     Edge 38, Type (0, 0), BuildingBlock: MIFKUJ_clean_linker_0, # of connection points: 2
#     Edge 39, Type (0, 0), BuildingBlock: MIFKUJ_clean_linker_0, # of connection points: 2
#     Edge 40, Type (0, 0), BuildingBlock: MIFKUJ_clean_linker_0, # of connection points: 2
#     Edge 41, Type (0, 0), BuildingBlock: MIFKUJ_clean_linker_0, # of connection points: 2
#     Edge 42, Type (0, 0), BuildingBlock: MIFKUJ_clean_linker_0, # of connection points: 2
#     Edge 43, Type (0, 0), BuildingBlock: MIFKUJ_clean_linker_0, # of connection points: 2
#     Edge 44, Type (0, 0), BuildingBlock: MIFKUJ_clean_linker_0, # of connection points: 2
#     Edge 45, Type (0, 0), BuildingBlock: MIFKUJ_clean_linker_0, # of connection points: 2
#     Edge 46, Type (0, 0), BuildingBlock: MIFKUJ_clean_linker_0, # of connection points: 2
#     Edge 47, Type (0, 0), BuildingBlock: MIFKUJ_clean_linker_0, # of connection points: 2
# Relax obj value: 0.288
# Max RMSD: 0.288
# Mean RMSD: 0.288
data_MOF--net-lcy-e--node1-UKALOJ_clean_sbu_0--edge1-MIFKUJ_clean_linker_0
_symmetry_space_group_name_H-M    P1
_symmetry_Int_Tables_number       1
_symmetry_cell_setting            triclinic
loop_
_symmetry_equiv_pos_as_xyz
'x, y, z'
_cell_length_a     48.88975
_cell_length_b     48.906406
_cell_length_c     48.908476
_cell_angle_alpha  90.050722
_cell_angle_beta   90.013886
_cell_angle_gamma 90.042989
loop_
_atom_site_label
_atom_site_type_symbol
_atom_site_fract_x
_atom_site_fract_y
_atom_site_fract_z
_atom_type_partial_charge
Zn0 Zn 0.10262 0.22676 0.44722 0.0
O1 O 0.13215 0.25534 0.45811 0.0
C2 C 0.1473 0.19856 0.4166 0.0
Zn3 Zn 0.1251 0.19665 0.47199 0.0
C4 C 0.15002 0.2513 0.47646 0.0
O5 O 0.15178 0.22784 0.48766 0.0
C6 C 0.07657 0.17374 0.44208 0.0
O7 O 0.09822 0.20477 0.50426 0.0
O8 O 0.07933 0.23883 0.482 0.0
N9 N 0.14404 0.16709 0.4946 0.0
C10 C 0.13345 0.14403 0.50529 0.0
C11 C 0.1765 0.1428 0.51217 0.0
N12 N 0.1708 0.16638 0.49897 0.0
N13 N 0.15335 0.12842 0.51603 0.0
C14 C 0.09305 0.26952 0.40219 0.0
C15 C 0.04982 0.27526 0.40288 0.0
N16 N 0.08327 0.25482 0.42329 0.0
N17 N 0.0564 0.25855 0.42384 0.0
N18 N 0.07258 0.28245 0.38923 0.0
H19 H 0.12756 0.29027 0.38434 0.0
H20 H 0.12474 0.25473 0.37595 0.0
H21 H 0.13663 0.26479 0.40935 0.0
C22 C 0.12225 0.26985 0.3927 0.0
C23 C 0.10359 0.13687 0.50617 0.0
H24 H 0.09884 0.12548 0.52519 0.0
H25 H 0.09857 0.12339 0.4886 0.0
H26 H 0.0905 0.15524 0.50529 0.0
O27 O 0.09779 0.16634 0.45511 0.0
O28 O 0.07294 0.19881 0.43697 0.0
C29 C 0.08162 0.22469 0.50374 0.0
O30 O 0.12646 0.21357 0.41285 0.0
O31 O 0.15242 0.18936 0.44025 0.0
Zn32 Zn 0.02901 0.8651 0.70648 0.0
O33 O 0.00053 0.89033 0.72538 0.0
C34 C 0.05601 0.91416 0.68062 0.0
Zn35 Zn 0.06122 0.8845 0.73202 0.0
C36 C 0.00645 0.90695 0.74439 0.0
O37 O 0.03124 0.90981 0.75186 0.0
C38 C 0.08254 0.84134 0.6937 0.0
O39 O 0.0538 0.85425 0.76119 0.0
O40 O 0.02069 0.83528 0.73744 0.0
N41 N 0.09174 0.90097 0.75522 0.0
C42 C 0.11261 0.88908 0.7687 0.0
C43 C 0.11958 0.93214 0.76965 0.0
N44 N 0.09603 0.92773 0.75596 0.0
N45 N 0.13013 0.90818 0.77804 0.0
C46 C 0.98237 0.86213 0.66398 0.0
C47 C 0.98061 0.81957 0.65479 0.0
N48 N -0.00051 0.84932 0.68139 0.0
N49 N 0.99813 0.82283 0.67584 0.0
N50 N 0.97031 0.84392 0.64713 0.0
H51 H 0.98862 0.90362 0.67869 0.0
H52 H 0.95817 0.89854 0.65896 0.0
H53 H 0.99067 0.8991 0.64211 0.0
C54 C 0.97993 0.89259 0.66102 0.0
C55 C 0.11735 0.85882 0.77087 0.0
H56 H 0.1034 0.84685 0.7578 0.0
H57 H 0.11433 0.85241 0.7924 0.0
H58 H 0.1388 0.85396 0.76525 0.0
O59 O 0.09051 0.85899 0.7111 0.0
O60 O 0.05726 0.83927 0.68842 0.0
C61 C 0.03527 0.83619 0.75903 0.0
O62 O 0.03864 0.89539 0.67588 0.0
O63 O 0.06813 0.91469 0.70346 0.0
Zn64 Zn 0.36967 0.78358 0.95736 0.0
O65 O 0.39476 0.77497 0.99064 0.0
C66 C 0.41838 0.80966 0.93095 0.0
Zn67 Zn 0.39446 0.75487 0.93266 0.0
C68 C 0.41281 0.75635 0.99026 0.0
O69 O 0.41736 0.74336 0.96812 0.0
C70 C 0.35009 0.78251 0.901 0.0
O71 O 0.36627 0.72417 0.94216 0.0
O72 O 0.3434 0.75107 0.96984 0.0
N73 N 0.41611 0.7287 0.90839 0.0
C74 C 0.40735 0.71193 0.88834 0.0
C75 C 0.45078 0.71408 0.88525 0.0
N76 N 0.44314 0.72982 0.9066 0.0
N77 N 0.42866 0.7024 0.87376 0.0
C78 C 0.35603 0.8339 0.99287 0.0
C79 C 0.3127 0.83154 0.99731 0.0
N80 N 0.34776 0.811 0.97997 0.0
N81 N 0.32083 0.80953 0.98276 0.0
N82 N 0.33444 0.84726 0.0035 0.0
H83 H 0.38824 0.85307 0.01626 0.0
H84 H 0.39073 0.8572 0.97986 0.0
H85 H 0.39939 0.82496 0.99528 0.0
C86 C 0.3853 0.84259 0.99634 0.0
C87 C 0.37796 0.70706 0.8807 0.0
H88 H 0.37342 0.68489 0.88227 0.0
H89 H 0.37464 0.7131 0.85908 0.0
H90 H 0.36343 0.7183 0.8937 0.0
O91 O 0.37107 0.76762 0.89754 0.0
O92 O 0.34431 0.79136 0.92462 0.0
C93 C 0.34701 0.72759 0.95918 0.0
O94 O 0.39668 0.81559 0.94396 0.0
O95 O 0.42285 0.78507 0.92421 0.0
Zn96 Zn 0.46589 0.10074 0.19887 0.0
O97 O 0.49185 0.07052 0.21436 0.0
C98 C 0.42725 0.0569 0.17963 0.0
Zn99 Zn 0.43565 0.08794 0.23025 0.0
C100 C 0.48613 0.05561 0.23482 0.0
O101 O 0.46291 0.05806 0.24638 0.0
C102 C 0.41645 0.13377 0.1938 0.0
O103 O 0.45336 0.11647 0.25679 0.0
O104 O 0.48404 0.1295 0.22672 0.0
N105 N 0.40632 0.07851 0.25846 0.0
C106 C 0.38902 0.09493 0.27232 0.0
C107 C 0.37435 0.05411 0.27663 0.0
N108 N 0.39733 0.05313 0.26142 0.0
N109 N 0.3688 0.08011 0.28384 0.0
C110 C 0.50371 0.09539 0.14857 0.0
C111 C 0.51591 0.13662 0.14147 0.0
N112 N 0.49343 0.11063 0.16911 0.0
N113 N 0.50116 0.13622 0.16476 0.0
N114 N 0.51755 0.11128 0.13077 0.0
H115 H 0.4989 0.05545 0.16697 0.0
H116 H 0.51966 0.05609 0.1365 0.0
H117 H 0.48315 0.05946 0.13414 0.0
C118 C 0.50131 0.06485 0.14658 0.0
C119 C 0.39013 0.12564 0.27245 0.0
H120 H 0.40688 0.13389 0.25986 0.0
H121 H 0.39329 0.13294 0.29368 0.0
H122 H 0.37035 0.13404 0.26515 0.0
O123 O 0.40896 0.11817 0.21315 0.0
O124 O 0.44021 0.13109 0.18385 0.0
C125 C 0.47384 0.13119 0.25063 0.0
O126 O 0.44683 0.07212 0.17184 0.0
O127 O 0.41858 0.05892 0.20395 0.0
Zn128 Zn 0.60602 0.26863 0.5388 0.0
O129 O 0.63538 0.24251 0.52415 0.0
C130 C 0.64739 0.29966 0.57134 0.0
Zn131 Zn 0.62571 0.30183 0.51505 0.0
C132 C 0.65536 0.2495 0.50924 0.0
O133 O 0.65812 0.27443 0.50213 0.0
C134 C 0.57495 0.31905 0.54545 0.0
O135 O 0.60299 0.29033 0.48032 0.0
O136 O 0.58154 0.25887 0.50406 0.0
N137 N 0.64297 0.33401 0.49481 0.0
C138 C 0.63089 0.35639 0.48431 0.0
C139 C 0.67382 0.36402 0.48484 0.0
N140 N 0.66968 0.33868 0.49497 0.0
N141 N 0.64972 0.37558 0.47829 0.0
C142 C 0.59876 0.22096 0.57924 0.0
C143 C 0.55562 0.21466 0.57876 0.0
N144 N 0.58831 0.23775 0.56015 0.0
N145 N 0.56151 0.23362 0.55964 0.0
N146 N 0.57874 0.20621 0.591 0.0
H147 H 0.64206 0.22724 0.57211 0.0
H148 H 0.63392 0.20035 0.59598 0.0
H149 H 0.63014 0.23534 0.60605 0.0
C150 C 0.62798 0.22094 0.58864 0.0
C151 C 0.60076 0.35938 0.4792 0.0
H152 H 0.59081 0.33926 0.47643 0.0
H153 H 0.59715 0.37205 0.46073 0.0
H154 H 0.59108 0.36988 0.4968 0.0
O155 O 0.59317 0.32799 0.52921 0.0
O156 O 0.5759 0.2944 0.55315 0.0
C157 C 0.5854 0.27124 0.4815 0.0
O158 O 0.63157 0.27911 0.57324 0.0
O159 O 0.64837 0.31298 0.54918 0.0
Zn160 Zn 0.94503 0.39397 0.76496 0.0
O161 O 0.9647 0.36661 0.73896 0.0
C162 C 0.92392 0.34697 0.79934 0.0
Zn163 Zn 0.97344 0.37963 0.7975 0.0
C164 C 0.9842 0.35097 0.74582 0.0
O165 O 0.99265 0.35099 0.77045 0.0
C166 C 0.93407 0.42367 0.81542 0.0
O167 O 0.00024 0.40946 0.78374 0.0
O168 O 0.97318 0.42507 0.75153 0.0
N169 N -0.00031 0.36968 0.82849 0.0
C170 C 0.00995 0.3852 0.84888 0.0
C171 C 0.02269 0.34418 0.85618 0.0
N172 N 0.00771 0.34422 0.83301 0.0
N173 N 0.02413 0.36962 0.86665 0.0
C174 C 0.90162 0.38713 0.71926 0.0
C175 C 0.88751 0.42795 0.71359 0.0
N176 N 0.91745 0.40352 0.73489 0.0
N177 N 0.9088 0.4289 0.73112 0.0
N178 N 0.88278 0.40198 0.70569 0.0
H179 H 0.91897 0.34814 0.73214 0.0
H180 H 0.90546 0.34888 0.69815 0.0
H181 H 0.88247 0.34837 0.72659 0.0
C182 C 0.90241 0.35643 0.71931 0.0
C183 C 0.00729 0.41572 0.8508 0.0
H184 H 0.00374 0.42512 0.8306 0.0
H185 H 0.02601 0.42476 0.85995 0.0
H186 H 0.98976 0.42088 0.86416 0.0
O187 O 0.95338 0.40834 0.82368 0.0
O188 O 0.92613 0.42194 0.79082 0.0
C189 C 0.99591 0.42602 0.76429 0.0
O190 O 0.91763 0.36276 0.77967 0.0
O191 O 0.94697 0.34963 0.81084 0.0
Zn192 Zn 0.89715 0.7455 0.06396 0.0
O193 O 0.87178 0.77452 0.04619 0.0
C194 C 0.84832 0.71475 0.08485 0.0
Zn195 Zn 0.8812 0.71447 0.03483 0.0
C196 C 0.85627 0.76918 0.02613 0.0
O197 O 0.8554 0.74493 0.01673 0.0
C198 C 0.92332 0.69203 0.07312 0.0
O199 O 0.9121 0.72535 0.00785 0.0
O200 O 0.92827 0.75731 0.03512 0.0
N201 N 0.86638 0.68622 0.00809 0.0
C202 C 0.87792 0.66412 0.99642 0.0
C203 C 0.83616 0.66509 0.98382 0.0
N204 N 0.84046 0.68682 0.00021 0.0
N205 N 0.8593 0.65038 0.98136 0.0
C206 C 0.89541 0.78915 0.10939 0.0
C207 C 0.93695 0.79153 0.12238 0.0
N208 N 0.91021 0.77348 0.09219 0.0
N209 N 0.93607 0.77517 0.10014 0.0
N210 N 0.91171 0.80075 0.12831 0.0
H211 H 0.85508 0.7826 0.09149 0.0
H212 H 0.85806 0.812 0.1133 0.0
H213 H 0.85726 0.77852 0.12799 0.0
C214 C 0.86472 0.79054 0.11025 0.0
C215 C 0.90763 0.65684 0.99862 0.0
H216 H 0.91494 0.64715 0.97944 0.0
H217 H 0.91037 0.64206 0.01557 0.0
H218 H 0.92028 0.67509 0.00297 0.0
O219 O 0.90764 0.68474 0.05364 0.0
O220 O 0.92303 0.71664 0.08125 0.0
C221 C 0.92915 0.74438 0.01247 0.0
O222 O 0.86577 0.73268 0.09186 0.0
O223 O 0.84999 0.70384 0.06144 0.0
Zn224 Zn 0.55591 0.62231 0.27681 0.0
O225 O 0.53828 0.64313 0.24411 0.0
C226 C 0.57389 0.67566 0.30206 0.0
Zn227 Zn 0.52478 0.64179 0.30345 0.0
C228 C 0.51749 0.65853 0.24607 0.0
O229 O 0.50688 0.66285 0.26947 0.0
C230 C 0.56358 0.60427 0.33313 0.0
O231 O 0.49949 0.6086 0.29494 0.0
O232 O 0.52926 0.5886 0.268 0.0
N233 N 0.49641 0.65742 0.32971 0.0
C234 C 0.48215 0.64485 0.34962 0.0
C235 C 0.47406 0.68756 0.35314 0.0
N236 N 0.49131 0.68398 0.33185 0.0
N237 N 0.46797 0.66321 0.36432 0.0
C238 C 0.60316 0.61944 0.2352 0.0
C239 C 0.61608 0.57792 0.23822 0.0
N240 N 0.58549 0.60662 0.25199 0.0
N241 N 0.59339 0.58076 0.25367 0.0
N242 N 0.62235 0.60187 0.22624 0.0
H243 H 0.60842 0.65375 0.20821 0.0
H244 H 0.62057 0.65891 0.24235 0.0
H245 H 0.58438 0.65971 0.2354 0.0
C246 C 0.60386 0.64968 0.23004 0.0
C247 C 0.48307 0.61491 0.35633 0.0
H248 H 0.49736 0.60322 0.34346 0.0
H249 H 0.46225 0.60617 0.35398 0.0
H250 H 0.48906 0.61231 0.37806 0.0
O251 O 0.54352 0.62034 0.33693 0.0
O252 O 0.57287 0.60104 0.30918 0.0
C253 C 0.50583 0.58885 0.27939 0.0
O254 O 0.58213 0.65624 0.28684 0.0
O255 O 0.54977 0.675 0.31147 0.0
Zn256 Zn 0.20721 0.47519 0.14586 0.0
O257 O 0.22203 0.50139 0.1161 0.0
C258 C 0.17801 0.44323 0.10195 0.0
Zn259 Zn 0.23238 0.44253 0.12678 0.0
C260 C 0.23922 0.49493 0.09781 0.0
O261 O 0.24801 0.47043 0.09661 0.0
C262 C 0.19955 0.42419 0.17562 0.0
O263 O 0.26432 0.454 0.15256 0.0
O264 O 0.24073 0.48709 0.17168 0.0
N265 N 0.25511 0.41114 0.11127 0.0
C266 C 0.26552 0.38907 0.12401 0.0
C267 C 0.2714 0.38318 0.08121 0.0
N268 N 0.2589 0.40754 0.08467 0.0
N269 N 0.27546 0.37113 0.10561 0.0
C270 C 0.16626 0.52352 0.14866 0.0
C271 C 0.15914 0.52713 0.19151 0.0
N272 N 0.183 0.5056 0.16128 0.0
N273 N 0.17869 0.50804 0.1879 0.0
N274 N 0.15113 0.53729 0.1672 0.0
H275 H 0.17304 0.50948 0.10688 0.0
H276 H 0.17286 0.54565 0.11154 0.0
H277 H 0.1412 0.52706 0.11259 0.0
C278 C 0.16318 0.52626 0.11821 0.0
C279 C 0.267 0.38542 0.15447 0.0
H280 H 0.26744 0.40532 0.16518 0.0
H281 H 0.28552 0.3736 0.16017 0.0
H282 H 0.24882 0.37385 0.16157 0.0
O283 O 0.21551 0.4155 0.15704 0.0
O284 O 0.19293 0.4492 0.17602 0.0
C285 C 0.26302 0.4738 0.16929 0.0
O286 O 0.17425 0.46214 0.11943 0.0
O287 O 0.20109 0.43159 0.10071 0.0
Zn288 Zn 0.72141 0.04968 0.86526 0.0
O289 O 0.753 0.04024 0.83808 0.0
C290 C 0.6884 0.06852 0.81779 0.0
Zn291 Zn 0.69647 0.01665 0.84679 0.0
C292 C 0.75186 0.01973 0.82221 0.0
O293 O 0.73017 0.0053 0.82138 0.0
C294 C 0.66724 0.04685 0.89122 0.0
O295 O 0.71086 0.98986 0.87584 0.0
O296 O 0.73823 0.02064 0.89377 0.0
N297 N 0.67238 0.98715 0.82978 0.0
C298 C 0.65375 0.97052 0.8414 0.0
C299 C 0.64804 0.96797 0.79825 0.0
N300 N 0.66898 0.98534 0.80294 0.0
N301 N 0.63845 0.95824 0.82211 0.0
C302 C 0.75776 0.10091 0.86973 0.0
C303 C 0.75575 0.11063 0.91223 0.0
N304 N 0.7435 0.08081 0.88201 0.0
N305 N 0.74232 0.08682 0.90842 0.0
N306 N 0.76545 0.11985 0.88821 0.0
H307 H 0.78527 0.08793 0.83865 0.0
H308 H 0.77168 0.12121 0.83259 0.0
H309 H 0.75074 0.09144 0.82696 0.0
C310 C 0.76653 0.10058 0.84029 0.0
C311 C 0.64803 0.96845 0.87148 0.0
H312 H 0.66363 0.97871 0.88413 0.0
H313 H 0.64693 0.9466 0.87747 0.0
H314 H 0.62775 0.97764 0.87579 0.0
O315 O 0.66328 0.02859 0.87314 0.0
O316 O 0.69027 0.0586 0.89248 0.0
C317 C 0.729 0.99625 0.89321 0.0
O318 O 0.7037 0.07779 0.83664 0.0
O319 O 0.68271 0.0433 0.81719 0.0
Zn320 Zn 0.76682 0.95091 0.40738 0.0
O321 O 0.73149 0.96634 0.38918 0.0
C322 C 0.78711 0.93053 0.35305 0.0
Zn323 Zn 0.79162 0.98131 0.38448 0.0
C324 C 0.73217 0.98562 0.3719 0.0
O325 O 0.75504 0.99623 0.36543 0.0
C326 C 0.82541 0.94558 0.42061 0.0
O327 O 0.78614 0.0084 0.41676 0.0
O328 O 0.76098 0.97946 0.44026 0.0
N329 N 0.81404 0.00941 0.36363 0.0
C330 C 0.83667 0.02333 0.37081 0.0
C331 C 0.82933 0.03156 0.32862 0.0
N332 N 0.80935 0.01471 0.33745 0.0
N333 N 0.84646 0.03739 0.34932 0.0
C334 C 0.72757 0.90268 0.41646 0.0
C335 C 0.73421 0.892 0.45816 0.0
N336 N 0.74454 0.92161 0.42706 0.0
N337 N 0.74847 0.91512 0.45309 0.0
N338 N 0.72073 0.8841 0.4355 0.0
H339 H 0.69875 0.89225 0.38485 0.0
H340 H 0.73382 0.88528 0.3769 0.0
H341 H 0.7214 0.9199 0.37594 0.0
C342 C 0.71992 0.90022 0.38683 0.0
C343 C 0.85072 0.02142 0.39801 0.0
H344 H 0.86103 0.04101 0.40306 0.0
H345 H 0.86665 0.0053 0.39691 0.0
H346 H 0.83621 0.01622 0.41452 0.0
O347 O 0.82779 0.96538 0.40394 0.0
O348 O 0.80196 0.93581 0.42574 0.0
C349 C 0.77242 0.00278 0.43803 0.0
O350 O 0.77371 0.92305 0.374 0.0
O351 O 0.79695 0.95445 0.35213 0.0
Zn352 Zn 0.29408 0.52391 0.62916 0.0
O353 O 0.27365 0.49412 0.60719 0.0
C354 C 0.32035 0.54349 0.57719 0.0
Zn355 Zn 0.26985 0.55499 0.60652 0.0
C356 C 0.25504 0.49886 0.58978 0.0
O357 O 0.24842 0.52348 0.58439 0.0
C358 C 0.31063 0.57841 0.64656 0.0
O359 O 0.24057 0.55212 0.63727 0.0
O360 O 0.26302 0.52062 0.65993 0.0
N361 N 0.24764 0.58514 0.58781 0.0
C362 C 0.23992 0.60969 0.59765 0.0
C363 C 0.2277 0.60823 0.55583 0.0
N364 N 0.23995 0.5842 0.56182 0.0
N365 N 0.2278 0.62458 0.57797 0.0
C366 C 0.33445 0.47633 0.63759 0.0
C367 C 0.34279 0.4784 0.68028 0.0
N368 N 0.31744 0.49516 0.64826 0.0
N369 N 0.32242 0.49621 0.67489 0.0
N370 N 0.35039 0.4655 0.6572 0.0
H371 H 0.31921 0.47581 0.59592 0.0
H372 H 0.34214 0.44827 0.60467 0.0
H373 H 0.35541 0.48202 0.59963 0.0
C374 C 0.3377 0.47031 0.60768 0.0
C375 C 0.24329 0.61907 0.62668 0.0
H376 H 0.24539 0.60174 0.64099 0.0
H377 H 0.2255 0.63166 0.63301 0.0
H378 H 0.26179 0.6321 0.62809 0.0
O379 O 0.29281 0.5856 0.62903 0.0
O380 O 0.3144 0.55328 0.65122 0.0
C381 C 0.24188 0.5356 0.6572 0.0
O382 O 0.32453 0.52828 0.59782 0.0
O383 O 0.29837 0.55705 0.57544 0.0
H384 H 0.15961 0.29834 0.44885 0.0
H385 H 0.17851 0.3407 0.46686 0.0
H386 H 0.19551 0.30081 0.54366 0.0
H387 H 0.17608 0.25806 0.52574 0.0
H388 H 0.16732 0.34819 0.55059 0.0
H389 H 0.2473 0.32014 0.50158 0.0
H390 H 0.27365 0.30381 0.46182 0.0
H391 H 0.25058 0.37537 0.41656 0.0
H392 H 0.22377 0.39196 0.45594 0.0
H393 H 0.25143 0.44784 0.61035 0.0
H394 H 0.23235 0.4073 0.58884 0.0
H395 H 0.20896 0.45507 0.51853 0.0
H396 H 0.22811 0.49639 0.5403 0.0
H397 H 0.23875 0.40547 0.50677 0.0
H398 H 0.15955 0.43395 0.55641 0.0
H399 H 0.13451 0.45072 0.59685 0.0
H400 H 0.15728 0.37861 0.64135 0.0
H401 H 0.18256 0.36146 0.60124 0.0
C402 C 0.16783 0.29838 0.46943 0.0
C403 C 0.16628 0.2749 0.48596 0.0
C404 C 0.17871 0.32263 0.47966 0.0
C405 C 0.18844 0.32392 0.50657 0.0
C406 C 0.18806 0.30021 0.52281 0.0
C407 C 0.1772 0.27577 0.5125 0.0
C408 C 0.19709 0.35055 0.51817 0.0
C409 C 0.18322 0.36052 0.54124 0.0
C410 C 0.21713 0.36706 0.50535 0.0
C411 C 0.23331 0.35717 0.48164 0.0
C412 C 0.24766 0.33229 0.48308 0.0
C413 C 0.26272 0.32301 0.46062 0.0
C414 C 0.26373 0.3385 0.43666 0.0
C415 C 0.24975 0.36337 0.43513 0.0
C416 C 0.23464 0.37274 0.45752 0.0
C417 C 0.24207 0.44989 0.59038 0.0
C418 C 0.24132 0.47527 0.57692 0.0
C419 C 0.23107 0.42668 0.57819 0.0
C420 C 0.21917 0.42826 0.55222 0.0
C421 C 0.21804 0.45357 0.53868 0.0
C422 C 0.22882 0.47709 0.55112 0.0
C423 C 0.20911 0.4029 0.5392 0.0
C424 C 0.22272 0.39316 0.51593 0.0
C425 C 0.18885 0.38658 0.55183 0.0
C426 C 0.17314 0.39651 0.57585 0.0
C427 C 0.15932 0.42172 0.57486 0.0
C428 C 0.14504 0.43128 0.59771 0.0
C429 C 0.14436 0.4158 0.62168 0.0
C430 C 0.15781 0.39061 0.62278 0.0
C431 C 0.17205 0.38091 0.59996 0.0
H432 H 0.13336 0.4233 0.63936 0.0
H433 H 0.2754 0.33128 0.41929 0.0
H434 H 0.7953 0.05132 0.80764 0.0
H435 H 0.84093 0.03547 0.795 0.0
H436 H 0.81158 0.95228 0.79353 0.0
H437 H 0.76582 0.96804 0.80647 0.0
H438 H 0.85649 0.96022 0.82753 0.0
H439 H 0.82961 0.9831 0.7353 0.0
H440 H 0.81219 0.0136 0.69916 0.0
H441 H 0.87841 0.06946 0.71379 0.0
H442 H 0.89604 0.03944 0.75029 0.0
H443 H 0.95752 0.88549 0.75727 0.0
H444 H 0.91732 0.90929 0.77469 0.0
H445 H 0.9635 0.98432 0.7794 0.0
H446 H 0.00438 0.9602 0.76224 0.0
H447 H 0.91364 0.9865 0.74802 0.0
H448 H 0.94501 0.95987 0.83452 0.0
H449 H 0.96192 0.9318 0.87266 0.0
H450 H 0.88747 0.88526 0.87213 0.0
H451 H 0.8705 0.91221 0.83317 0.0
C452 C 0.79843 0.02972 0.80409 0.0
C453 C 0.77709 0.01088 0.80828 0.0
C454 C 0.8245 0.02071 0.79679 0.0
C455 C 0.82964 0.99271 0.79354 0.0
C456 C 0.80798 0.97399 0.79609 0.0
C457 C 0.78182 0.98303 0.8032 0.0
C458 C 0.85797 0.98277 0.78984 0.0
C459 C 0.86892 0.9655 0.80993 0.0
C460 C 0.87452 0.99115 0.7677 0.0
C461 C 0.86397 0.00917 0.74572 0.0
C462 C 0.84032 0.002 0.73098 0.0
C463 C 0.83044 0.01918 0.71039 0.0
C464 C 0.84414 0.04349 0.70424 0.0
C465 C 0.8678 0.05064 0.71861 0.0
C466 C 0.87776 0.03354 0.73923 0.0
C467 C 0.95925 0.90697 0.76246 0.0
C468 C 0.98389 0.92115 0.7583 0.0
C469 C 0.93636 0.92045 0.77261 0.0
C470 C 0.93754 0.94844 0.77849 0.0
C471 C 0.96235 0.96261 0.77512 0.0
C472 C 0.9856 0.9489 0.76544 0.0
C473 C 0.91188 0.96293 0.78518 0.0
C474 C 0.90137 0.98121 0.76573 0.0
C475 C 0.89576 0.95549 0.80804 0.0
C476 C 0.90656 0.93801 0.83054 0.0
C477 C 0.93241 0.94331 0.84208 0.0
C478 C 0.94198 0.92764 0.86398 0.0
C479 C 0.92576 0.90681 0.87486 0.0
C480 C 0.89998 0.90149 0.86376 0.0
C481 C 0.89044 0.91687 0.84164 0.0
H482 H 0.93324 0.89472 0.89179 0.0
H483 H 0.83646 0.05676 0.68829 0.0
H484 H 0.31118 0.72424 0.00211 0.0
H485 H 0.29156 0.68249 0.02153 0.0
H486 H 0.3283 0.63485 0.957 0.0
H487 H 0.34756 0.67638 0.93723 0.0
H488 H 0.27824 0.61516 0.9701 0.0
H489 H 0.3603 0.6405 0.01647 0.0
H490 H 0.39193 0.67103 0.04126 0.0
H491 H 0.33383 0.67889 0.10659 0.0
H492 H 0.30159 0.64886 0.08193 0.0
H493 H 0.27216 0.49011 0.05218 0.0
H494 H 0.29019 0.52776 0.02396 0.0
H495 H 0.24785 0.58612 0.07472 0.0
H496 H 0.22964 0.54926 0.10243 0.0
H497 H 0.30487 0.59711 0.06634 0.0
H498 H 0.2215 0.57492 0.01643 0.0
H499 H 0.19086 0.54374 0.99123 0.0
H500 H 0.25443 0.52781 0.93279 0.0
H501 H 0.2855 0.55887 0.95776 0.0
C502 C 0.31459 0.70496 0.99174 0.0
C503 C 0.33122 0.70356 0.96838 0.0
C504 C 0.30351 0.68112 0.00293 0.0
C505 C 0.309 0.65556 0.99098 0.0
C506 C 0.32398 0.65434 0.96661 0.0
C507 C 0.33504 0.67812 0.95542 0.0
C508 C 0.30085 0.63 0.00497 0.0
C509 C 0.28435 0.61104 0.99102 0.0
C510 C 0.30899 0.62458 0.03221 0.0
C511 C 0.32839 0.64261 0.0472 0.0
C512 C 0.35415 0.64892 0.03601 0.0
C513 C 0.37221 0.66612 0.05005 0.0
C514 C 0.36487 0.67693 0.07546 0.0
C515 C 0.33946 0.67053 0.08689 0.0
C516 C 0.32129 0.65342 0.07288 0.0
C517 C 0.26663 0.51097 0.05714 0.0
C518 C 0.24955 0.51667 0.07956 0.0
C519 C 0.27688 0.53237 0.04105 0.0
C520 C 0.27038 0.55962 0.04745 0.0
C521 C 0.25318 0.56523 0.06959 0.0
C522 C 0.24273 0.54403 0.08534 0.0
C523 C 0.28171 0.58275 0.03173 0.0
C524 C 0.29899 0.60118 0.04534 0.0
C525 C 0.27454 0.58751 0.00418 0.0
C526 C 0.2559 0.56894 0.98912 0.0
C527 C 0.22901 0.56459 0.99833 0.0
C528 C 0.21155 0.54699 0.98406 0.0
C529 C 0.22073 0.53369 0.9605 0.0
C530 C 0.24736 0.53808 0.95108 0.0
C531 C 0.26489 0.55572 0.96525 0.0
H532 H 0.20719 0.52006 0.94949 0.0
H533 H 0.37888 0.69021 0.08631 0.0
H534 H 0.48683 0.03071 0.28508 0.0
H535 H 0.5273 0.01305 0.3087 0.0
H536 H 0.57561 0.02604 0.23606 0.0
H537 H 0.53534 0.04294 0.21218 0.0
H538 H 0.59393 0.98227 0.26392 0.0
H539 H 0.56826 0.07543 0.28299 0.0
H540 H 0.53567 0.11093 0.29776 0.0
H541 H 0.53246 0.07532 0.3779 0.0
H542 H 0.56429 0.03898 0.36331 0.0
H543 H 0.72517 0.00916 0.32162 0.0
H544 H 0.68151 0.01822 0.29844 0.0
H545 H 0.63766 0.99095 0.3699 0.0
H546 H 0.681 0.98134 0.3929 0.0
H547 H 0.6166 0.04058 0.34399 0.0
H548 H 0.6419 0.94727 0.32431 0.0
H549 H 0.67372 0.91136 0.30897 0.0
H550 H 0.67884 0.94893 0.22984 0.0
H551 H 0.6472 0.98533 0.24485 0.0
C552 C 0.50586 0.02896 0.27389 0.0
C553 C 0.50804 0.03875 0.24697 0.0
C554 C 0.52899 0.01899 0.28744 0.0
C555 C 0.55458 0.01895 0.27432 0.0
C556 C 0.55613 0.02612 0.24664 0.0
C557 C 0.53307 0.03592 0.23307 0.0
C558 C 0.58017 0.015 0.29005 0.0
C559 C 0.59893 0.9951 0.28133 0.0
C560 C 0.58667 0.03176 0.31282 0.0
C561 C 0.56841 0.05426 0.32195 0.0
C562 C 0.56044 0.07502 0.3037 0.0
C563 C 0.54202 0.09523 0.31201 0.0
C564 C 0.53193 0.09532 0.33872 0.0
C565 C 0.54025 0.07518 0.35719 0.0
C566 C 0.55841 0.05471 0.34889 0.0
C567 C 0.70621 0.00552 0.33248 0.0
C568 C 0.70641 0.99443 0.35896 0.0
C569 C 0.68136 0.01059 0.31923 0.0
C570 C 0.65647 0.00507 0.33249 0.0
C571 C 0.65667 0.99532 0.35939 0.0
C572 C 0.68143 0.98977 0.37242 0.0
C573 C 0.6302 0.0079 0.31782 0.0
C574 C 0.61145 0.02768 0.32668 0.0
C575 C 0.62379 0.99122 0.29508 0.0
C576 C 0.64243 0.96917 0.28579 0.0
C577 C 0.64997 0.94799 0.3037 0.0
C578 C 0.66795 0.92754 0.29506 0.0
C579 C 0.6784 0.92792 0.26849 0.0
C580 C 0.67076 0.9487 0.25044 0.0
C581 C 0.65277 0.96923 0.25899 0.0
H582 H 0.69236 0.91208 0.26189 0.0
H583 H 0.51776 0.11105 0.34516 0.0
H584 H 0.6411 0.19835 0.496 0.0
H585 H 0.67086 0.159 0.49037 0.0
H586 H 0.74176 0.21103 0.49768 0.0
H587 H 0.71157 0.2512 0.50336 0.0
H588 H 0.74398 0.16683 0.4557 0.0
H589 H 0.72732 0.17901 0.55113 0.0
H590 H 0.69898 0.18844 0.59176 0.0
H591 H 0.65128 0.11645 0.57577 0.0
H592 H 0.67895 0.10685 0.53474 0.0
H593 H 0.80914 0.04068 0.45476 0.0
H594 H 0.79858 0.08454 0.47626 0.0
H595 H 0.71443 0.05955 0.48557 0.0
H596 H 0.72523 0.01516 0.46498 0.0
H597 H 0.7294 0.09485 0.52585 0.0
H598 H 0.73633 0.09002 0.42661 0.0
H599 H 0.7614 0.07894 0.38425 0.0
H600 H 0.8243 0.13632 0.40601 0.0
H601 H 0.79975 0.14742 0.44874 0.0
C602 C 0.66304 0.20157 0.49597 0.0
C603 C 0.67411 0.22771 0.50037 0.0
C604 C 0.67999 0.17905 0.49285 0.0
C605 C 0.70841 0.18207 0.4943 0.0
C606 C 0.71979 0.20838 0.49678 0.0
C607 C 0.70263 0.23123 0.49984 0.0
C608 C 0.72545 0.15711 0.4944 0.0
C609 C 0.74157 0.15139 0.47144 0.0
C610 C 0.72168 0.13681 0.51472 0.0
C611 C 0.70525 0.14223 0.53976 0.0
C612 C 0.71071 0.16525 0.55617 0.0
C613 C 0.69475 0.17063 0.5793 0.0
C614 C 0.67338 0.15302 0.58636 0.0
C615 C 0.66789 0.13003 0.5703 0.0
C616 C 0.68374 0.12459 0.54713 0.0
C617 C 0.78863 0.04419 0.46239 0.0
C618 C 0.76787 0.02479 0.458 0.0
C619 C 0.78261 0.06927 0.47456 0.0
C620 C 0.75557 0.07559 0.48175 0.0
C621 C 0.73542 0.05513 0.48001 0.0
C622 C 0.74157 0.02976 0.4683 0.0
C623 C 0.7474 0.10435 0.48685 0.0
C624 C 0.73273 0.11065 0.51065 0.0
C625 C 0.75222 0.1251 0.46717 0.0
C626 C 0.76636 0.11936 0.44095 0.0
C627 C 0.75553 0.10024 0.42236 0.0
C628 C 0.76966 0.09393 0.39832 0.0
C629 C 0.79447 0.10687 0.39248 0.0
C630 C 0.8051 0.12628 0.41059 0.0
C631 C 0.79109 0.1326 0.43472 0.0
H632 H 0.80542 0.10188 0.3739 0.0
H633 H 0.66109 0.15715 0.60429 0.0
H634 H 0.99681 0.46451 0.72293 0.0
H635 H 0.03658 0.49121 0.70764 0.0
H636 H 0.08555 0.4548 0.77139 0.0
H637 H 0.04622 0.42943 0.78734 0.0
H638 H 0.10062 0.50436 0.76621 0.0
H639 H 0.08023 0.43059 0.70456 0.0
H640 H 0.05141 0.40474 0.6723 0.0
H641 H 0.05232 0.47242 0.6165 0.0
H642 H 0.0797 0.4994 0.6492 0.0
H643 H 0.23422 0.49959 0.6998 0.0
H644 H 0.19044 0.48797 0.7216 0.0
H645 H 0.14984 0.54964 0.67356 0.0
H646 H 0.19316 0.56193 0.65235 0.0
H647 H 0.12936 0.49178 0.66978 0.0
H648 H 0.15233 0.56414 0.73331 0.0
H649 H 0.18242 0.58737 0.76649 0.0
H650 H 0.18097 0.5164 0.8181 0.0
H651 H 0.15124 0.49256 0.78498 0.0
C652 C 0.01597 0.46262 0.73389 0.0
C653 C 0.01839 0.44458 0.7561 0.0
C654 C 0.03869 0.47778 0.7251 0.0
C655 C 0.06423 0.47463 0.73807 0.0
C656 C 0.06617 0.45763 0.76101 0.0
C657 C 0.04356 0.44292 0.76999 0.0
C658 C 0.08958 0.48726 0.72703 0.0
C659 C 0.10686 0.50152 0.74512 0.0
C660 C 0.09781 0.48365 0.69945 0.0
C661 C 0.08165 0.46723 0.6796 0.0
C662 C 0.07399 0.44015 0.6856 0.0
C663 C 0.05786 0.42529 0.66724 0.0
C664 C 0.05014 0.43688 0.64232 0.0
C665 C 0.05829 0.46348 0.63583 0.0
C666 C 0.07392 0.47865 0.65438 0.0
C667 C 0.2161 0.51111 0.6944 0.0
C668 C 0.21718 0.53152 0.67419 0.0
C669 C 0.19114 0.5044 0.70677 0.0
C670 C 0.16702 0.51783 0.6989 0.0
C671 C 0.16827 0.53899 0.67974 0.0
C672 C 0.19313 0.546 0.66773 0.0
C673 C 0.14013 0.50854 0.70902 0.0
C674 C 0.12277 0.49483 0.69075 0.0
C675 C 0.13211 0.51206 0.73649 0.0
C676 C 0.14978 0.52647 0.75652 0.0
C677 C 0.15864 0.55339 0.7516 0.0
C678 C 0.17558 0.56668 0.77042 0.0
C679 C 0.18366 0.55334 0.79435 0.0
C680 C 0.17473 0.5267 0.79954 0.0
C681 C 0.15781 0.51329 0.78076 0.0
H682 H 0.19678 0.56367 0.8089 0.0
H683 H 0.03786 0.42523 0.62804 0.0
H684 H 0.70971 0.9445 0.89808 0.0
H685 H 0.73018 0.90656 0.92242 0.0
H686 H 0.79341 0.95993 0.95327 0.0
H687 H 0.77334 0.99836 0.9279 0.0
H688 H 0.81431 0.91339 0.93251 0.0
H689 H 0.74156 0.93546 0.99504 0.0
H690 H 0.69371 0.94573 0.00728 0.0
H691 H 0.66876 0.86671 0.97821 0.0
H692 H 0.71641 0.85606 0.96549 0.0
H693 H 0.86497 0.82348 0.03306 0.0
H694 H 0.8417 0.86132 0.01069 0.0
H695 H 0.78965 0.80448 0.96775 0.0
H696 H 0.8134 0.76599 0.98981 0.0
H697 H 0.76264 0.85191 0.99458 0.0
H698 H 0.83353 0.82955 0.9315 0.0
H699 H 0.8804 0.81881 0.91635 0.0
H700 H 0.90788 0.89755 0.94386 0.0
H701 H 0.86124 0.90862 0.95962 0.0
C702 C 0.72784 0.9484 0.91022 0.0
C703 C 0.73999 0.97449 0.91099 0.0
C704 C 0.73942 0.92662 0.92429 0.0
C705 C 0.76312 0.93046 0.93991 0.0
C706 C 0.77502 0.9566 0.94135 0.0
C707 C 0.76349 0.97853 0.92703 0.0
C708 C 0.77609 0.90668 0.9534 0.0
C709 C 0.8032 0.90026 0.94651 0.0
C710 C 0.76114 0.88896 0.97077 0.0
C711 C 0.73257 0.89502 0.97919 0.0
C712 C 0.72587 0.9203 0.99118 0.0
C713 C 0.69878 0.92619 0.9982 0.0
C714 C 0.67822 0.90689 0.99351 0.0
C715 C 0.68472 0.88162 0.98186 0.0
C716 C 0.71177 0.87563 0.97479 0.0
C717 C 0.84851 0.81889 0.01895 0.0
C718 C 0.841 0.79172 0.01316 0.0
C719 C 0.83533 0.84057 0.00614 0.0
C720 C 0.81416 0.83559 0.98754 0.0
C721 C 0.80605 0.80859 0.98208 0.0
C722 C 0.81962 0.78671 0.9946 0.0
C723 C 0.80084 0.85892 0.97387 0.0
C724 C 0.77373 0.86519 0.9807 0.0
C725 C 0.8157 0.87642 0.9563 0.0
C726 C 0.84391 0.86977 0.94712 0.0
C727 C 0.84962 0.84446 0.93467 0.0
C728 C 0.87615 0.83833 0.92589 0.0
C729 C 0.89714 0.85742 0.92929 0.0
C730 C 0.89162 0.88273 0.94136 0.0
C731 C 0.86513 0.88895 0.9502 0.0
H732 H 0.91764 0.85264 0.92244 0.0
H733 H 0.65727 0.91147 -0.00106 0.0
H734 H 0.50508 0.55154 0.23735 0.0
H735 H 0.46534 0.52514 0.22182 0.0
H736 H 0.41879 0.55447 0.29082 0.0
H737 H 0.45836 0.57999 0.30681 0.0
H738 H 0.40269 0.50465 0.2783 0.0
H739 H 0.41987 0.58833 0.23049 0.0
H740 H 0.44822 0.6204 0.20386 0.0
H741 H 0.45193 0.56278 0.13769 0.0
H742 H 0.42449 0.52989 0.16437 0.0
H743 H 0.26818 0.50789 0.2139 0.0
H744 H 0.31104 0.52263 0.23592 0.0
H745 H 0.35726 0.47409 0.17866 0.0
H746 H 0.31501 0.45881 0.15715 0.0
H747 H 0.37338 0.53247 0.18522 0.0
H748 H 0.35444 0.44915 0.23557 0.0
H749 H 0.32581 0.41901 0.26408 0.0
H750 H 0.32243 0.48065 0.32657 0.0
H751 H 0.35071 0.51134 0.2982 0.0
C752 C 0.48663 0.55168 0.24959 0.0
C753 C 0.48464 0.56831 0.27293 0.0
C754 C 0.4639 0.53673 0.24065 0.0
C755 C 0.43889 0.53849 0.25477 0.0
C756 C 0.43775 0.55301 0.27945 0.0
C757 C 0.46041 0.56776 0.28845 0.0
C758 C 0.41316 0.5281 0.24248 0.0
C759 C 0.39625 0.51083 0.258 0.0
C760 C 0.40463 0.53636 0.21605 0.0
C761 C 0.42039 0.55647 0.19959 0.0
C762 C 0.42691 0.58239 0.21034 0.0
C763 C 0.44287 0.60069 0.19527 0.0
C764 C 0.45188 0.59362 0.1691 0.0
C765 C 0.44497 0.56821 0.15798 0.0
C766 C 0.4293 0.54967 0.17312 0.0
C767 C 0.28748 0.50023 0.20621 0.0
C768 C 0.28819 0.48216 0.18385 0.0
C769 C 0.31187 0.50863 0.21876 0.0
C770 C 0.33719 0.49942 0.20879 0.0
C771 C 0.33789 0.48141 0.18657 0.0
C772 C 0.31367 0.47264 0.17442 0.0
C773 C 0.36318 0.5089 0.22095 0.0
C774 C 0.38 0.52618 0.20544 0.0
C775 C 0.37133 0.50112 0.24754 0.0
C776 C 0.3544 0.48266 0.26462 0.0
C777 C 0.34735 0.45639 0.25526 0.0
C778 C 0.33124 0.43918 0.27142 0.0
C779 C 0.32222 0.44794 0.29708 0.0
C780 C 0.32938 0.47391 0.30666 0.0
C781 C 0.34546 0.49122 0.29056 0.0
H782 H 0.30976 0.43458 0.30957 0.0
H783 H 0.46417 0.60786 0.15744 0.0
H784 H 0.51059 0.1735 0.24434 0.0
H785 H 0.5291 0.20318 0.28042 0.0
H786 H 0.48344 0.15792 0.34088 0.0
H787 H 0.46432 0.12916 0.3052 0.0
H788 H 0.47813 0.20931 0.35085 0.0
H789 H 0.55659 0.15044 0.33164 0.0
H790 H 0.59179 0.12981 0.30177 0.0
H791 H 0.61992 0.20982 0.27912 0.0
H792 H 0.58482 0.23081 0.30876 0.0
H793 H 0.54676 0.23103 0.47621 0.0
H794 H 0.52675 0.21348 0.43389 0.0
H795 H 0.57206 0.2732 0.38743 0.0
H796 H 0.59227 0.29085 0.42963 0.0
H797 H 0.57757 0.22211 0.36632 0.0
H798 H 0.50424 0.28004 0.39377 0.0
H799 H 0.46998 0.29949 0.42524 0.0
H800 H 0.43207 0.2207 0.43341 0.0
H801 H 0.46634 0.20067 0.4023 0.0
C802 C 0.50455 0.16997 0.26535 0.0
C803 C 0.48586 0.14912 0.27187 0.0
C804 C 0.51524 0.18683 0.28597 0.0
C805 C 0.50779 0.18273 0.31346 0.0
C806 C 0.48935 0.16171 0.31987 0.0
C807 C 0.47845 0.14521 0.29937 0.0
C808 C 0.51861 0.20027 0.33586 0.0
C809 C 0.4999 0.21192 0.35431 0.0
C810 C 0.54694 0.20462 0.33992 0.0
C811 C 0.56789 0.1921 0.32202 0.0
C812 C 0.57014 0.16354 0.32004 0.0
C813 C 0.59008 0.15182 0.30324 0.0
C814 C 0.60795 0.16849 0.28844 0.0
C815 C 0.60601 0.19693 0.29053 0.0
C816 C 0.58613 0.20874 0.30735 0.0
C817 C 0.55221 0.24067 0.45705 0.0
C818 C 0.57115 0.2623 0.45632 0.0
C819 C 0.5407 0.23067 0.43287 0.0
C820 C 0.54783 0.24214 0.40752 0.0
C821 C 0.5663 0.26407 0.40677 0.0
C822 C 0.57774 0.27417 0.43094 0.0
C823 C 0.5371 0.23017 0.38179 0.0
C824 C 0.5558 0.21976 0.36266 0.0
C825 C 0.50875 0.22684 0.37719 0.0
C826 C 0.488 0.23882 0.39583 0.0
C827 C 0.48872 0.26681 0.40244 0.0
C828 C 0.46928 0.27795 0.42019 0.0
C829 C 0.44889 0.26133 0.43136 0.0
C830 C 0.44788 0.23355 0.42475 0.0
C831 C 0.46729 0.2223 0.40703 0.0
H832 H 0.43386 0.26999 0.4451 0.0
H833 H 0.62337 0.15938 0.27544 0.0
H834 H 0.07842 0.19582 0.55131 0.0
H835 H 0.06304 0.21252 0.59578 0.0
H836 H 0.039 0.28892 0.55892 0.0
H837 H 0.05456 0.27247 0.51431 0.0
H838 H 0.07351 0.29537 0.60308 0.0
H839 H 0.99162 0.24381 0.58105 0.0
H840 H 0.96629 0.20211 0.56822 0.0
H841 H 0.99581 0.16155 0.64024 0.0
H842 H 0.02162 0.20293 0.65331 0.0
H843 H 0.98604 0.36271 0.69205 0.0
H844 H 0.00641 0.33603 0.65539 0.0
H845 H 0.0325 0.27516 0.71356 0.0
H846 H 0.01237 0.30241 0.75101 0.0
H847 H 0.00318 0.25519 0.66419 0.0
H848 H 0.07965 0.30791 0.68984 0.0
H849 H 0.10644 0.34849 0.70307 0.0
H850 H 0.08997 0.38531 0.62515 0.0
H851 H 0.06241 0.34531 0.61168 0.0
C852 C 0.0694 0.21602 0.55255 0.0
C853 C 0.06786 0.23294 0.52932 0.0
C854 C 0.06059 0.22547 0.57799 0.0
C855 C 0.05 0.25196 0.58062 0.0
C856 C 0.04724 0.26842 0.55727 0.0
C857 C 0.05596 0.25894 0.53177 0.0
C858 C 0.04368 0.26335 0.60793 0.0
C859 C 0.05794 0.28677 0.61635 0.0
C860 C 0.02445 0.25115 0.62578 0.0
C861 C 0.00879 0.22636 0.61799 0.0
C862 C 0.9929 0.22593 0.59403 0.0
C863 C 0.97841 0.20236 0.58674 0.0
C864 C 0.97951 0.17917 0.60336 0.0
C865 C 0.99502 0.17952 0.62736 0.0
C866 C 0.00956 0.20303 0.63473 0.0
C867 C 0.99616 0.34368 0.69718 0.0
C868 C 0.99754 0.33453 0.72437 0.0
C869 C 0.00788 0.32854 0.6762 0.0
C870 C 0.021 0.30376 0.68184 0.0
C871 C 0.02247 0.29434 0.70893 0.0
C872 C 0.0111 0.30989 0.73021 0.0
C873 C 0.03225 0.28785 0.65878 0.0
C874 C 0.01904 0.26355 0.65111 0.0
C875 C 0.05265 0.2991 0.64166 0.0
C876 C 0.06871 0.32361 0.64983 0.0
C877 C 0.0814 0.32479 0.67563 0.0
C878 C 0.09681 0.34768 0.68316 0.0
C879 C 0.09993 0.36944 0.66496 0.0
C880 C 0.08761 0.36839 0.6392 0.0
C881 C 0.07202 0.34564 0.63164 0.0
H882 H 0.11181 0.38715 0.67088 0.0
H883 H 0.96829 0.16094 0.59767 0.0
H884 H 0.98931 0.80536 0.76891 0.0
H885 H 0.97572 0.78557 0.81292 0.0
H886 H 0.05311 0.80977 0.8478 0.0
H887 H 0.06703 0.82883 0.80402 0.0
H888 H 0.03645 0.76219 0.86909 0.0
H889 H 0.99772 0.85145 0.85112 0.0
H890 H 0.9716 0.88287 0.82157 0.0
H891 H 0.90005 0.83278 0.83075 0.0
H892 H 0.9259 0.80072 0.85986 0.0
H893 H 0.9512 0.79492 0.00207 0.0
H894 H 0.97478 0.80908 0.95998 0.0
H895 H 0.97123 0.72612 0.93009 0.0
H896 H 0.94795 0.71197 0.97176 0.0
H897 H 0.95336 0.80565 0.908 0.0
H898 H 0.02576 0.71351 0.88981 0.0
H899 H 0.05355 0.68122 0.91676 0.0
H900 H 0.06009 0.74016 0.98156 0.0
H901 H 0.03267 0.77294 0.95485 0.0
C902 C 0.0037 0.80574 0.78574 0.0
C903 C 0.02905 0.81904 0.78312 0.0
C904 C 0.99586 0.79459 0.81091 0.0
C905 C 0.01317 0.79682 0.83378 0.0
C906 C 0.03935 0.80801 0.83051 0.0
C907 C 0.04721 0.81901 0.80544 0.0
C908 C 0.00329 0.79016 0.86166 0.0
C909 C 0.01823 0.77158 0.87758 0.0
C910 C 0.97995 0.80307 0.87299 0.0
C911 C 0.96385 0.82348 0.85735 0.0
C912 C 0.97643 0.84711 0.84678 0.0
C913 C 0.96173 0.86494 0.82998 0.0
C914 C 0.93432 0.85957 0.82397 0.0
C915 C 0.92138 0.83671 0.83519 0.0
C916 C 0.93604 0.81871 0.85185 0.0
C917 C 0.95617 0.77965 0.98681 0.0
C918 C 0.94781 0.75237 0.99016 0.0
C919 C 0.96936 0.78777 0.96271 0.0
C920 C 0.97478 0.76863 0.94195 0.0
C921 C 0.96753 0.74118 0.94592 0.0
C922 C 0.95419 0.73314 0.96975 0.0
C923 C 0.9863 0.7773 0.91531 0.0
C924 C 0.97165 0.79631 0.8996 0.0
C925 C 0.0101 0.76504 0.9043 0.0
C926 C 0.02697 0.7456 0.92038 0.0
C927 C 0.03324 0.71964 0.90974 0.0
C928 C 0.0489 0.70123 0.925 0.0
C929 C 0.05851 0.7086 0.95088 0.0
C930 C 0.05255 0.73444 0.96154 0.0
C931 C 0.03692 0.75292 0.94637 0.0
H932 H 0.07062 0.69432 0.96267 0.0
H933 H 0.92298 0.8733 0.81088 0.0
H934 H 0.48081 0.70091 0.2405 0.0
H935 H 0.46259 0.71955 0.19756 0.0
H936 H 0.50794 0.65902 0.15205 0.0
H937 H 0.52671 0.6411 0.19433 0.0
H938 H 0.51503 0.70637 0.12968 0.0
H939 H 0.43625 0.65527 0.16094 0.0
H940 H 0.39935 0.64202 0.1928 0.0
H941 H 0.3694 0.72448 0.19314 0.0
H942 H 0.40611 0.73822 0.16135 0.0
H943 H 0.44784 0.71354 -7e-05 0.0
H944 H 0.46628 0.69913 0.04426 0.0
H945 H 0.42655 0.76752 0.08331 0.0
H946 H 0.40814 0.78204 0.0394 0.0
H947 H 0.41646 0.71918 0.10963 0.0
H948 H 0.4937 0.76881 0.07507 0.0
H949 H 0.52934 0.78074 0.04146 0.0
H950 H 0.56191 0.69938 0.04639 0.0
H951 H 0.5262 0.68684 0.07975 0.0
C952 C 0.4868 0.69164 0.22129 0.0
C953 C 0.50542 0.66978 0.22078 0.0
C954 C 0.47628 0.70216 0.1968 0.0
C955 C 0.48386 0.69062 0.17155 0.0
C956 C 0.50197 0.66844 0.1712 0.0
C957 C 0.51271 0.65822 0.19547 0.0
C958 C 0.47397 0.70202 0.14524 0.0
C959 C 0.49344 0.70885 0.12522 0.0
C960 C 0.44586 0.70595 0.1396 0.0
C961 C 0.42413 0.69783 0.15909 0.0
C962 C 0.42196 0.67061 0.16805 0.0
C963 C 0.40105 0.663 0.18602 0.0
C964 C 0.38218 0.68242 0.19511 0.0
C965 C 0.38409 0.70948 0.18615 0.0
C966 C 0.40489 0.71717 0.16812 0.0
C967 C 0.44337 0.72569 0.0179 0.0
C968 C 0.42651 0.74888 0.01613 0.0
C969 C 0.45388 0.71744 0.04319 0.0
C970 C 0.44773 0.73229 0.06701 0.0
C971 C 0.43141 0.75573 0.06518 0.0
C972 C 0.42101 0.76402 0.04 0.0
C973 C 0.45749 0.72295 0.09406 0.0
C974 C 0.43803 0.71666 0.11418 0.0
C975 C 0.48558 0.7193 0.09973 0.0
C976 C 0.50711 0.72681 0.07972 0.0
C977 C 0.50832 0.75339 0.06882 0.0
C978 C 0.52856 0.76028 0.04984 0.0
C979 C 0.54783 0.74081 0.04174 0.0
C980 C 0.54695 0.71443 0.05266 0.0
C981 C 0.52672 0.70743 0.07162 0.0
H982 H 0.56349 0.74618 0.02706 0.0
H983 H 0.36602 0.67648 0.20902 0.0
H984 H 0.07893 0.33598 0.38038 0.0
H985 H 0.09444 0.35674 0.33744 0.0
H986 H 0.08812 0.2783 0.29733 0.0
H987 H 0.0728 0.25774 0.34055 0.0
H988 H 0.138 0.29977 0.29159 0.0
H989 H 0.04718 0.33053 0.27717 0.0
H990 H 0.00293 0.35166 0.28882 0.0
H991 H 0.04294 0.42846 0.30348 0.0
H992 H 0.08752 0.40772 0.2923 0.0
H993 H 0.19088 0.36893 0.17127 0.0
H994 H 0.16464 0.34015 0.20299 0.0
H995 H 0.15538 0.40902 0.25751 0.0
H996 H 0.18052 0.4378 0.22568 0.0
H997 H 0.10788 0.38638 0.24856 0.0
H998 H 0.19964 0.35255 0.2693 0.0
H999 H 0.24364 0.33005 0.25903 0.0
H1000 H 0.20106 0.25791 0.2326 0.0
H1001 H 0.15683 0.28009 0.24236 0.0
C1002 C 0.0798 0.32363 0.36201 0.0
C1003 C 0.07436 0.29559 0.36326 0.0
C1004 C 0.08872 0.33534 0.33758 0.0
C1005 C 0.0923 0.31904 0.31415 0.0
C1006 C 0.08538 0.29121 0.31512 0.0
C1007 C 0.07642 0.27957 0.33957 0.0
C1008 C 0.1064 0.33045 0.28996 0.0
C1009 C 0.13114 0.3184 0.28171 0.0
C1010 C 0.09755 0.35485 0.27736 0.0
C1011 C 0.07075 0.36749 0.28402 0.0
C1012 C 0.04659 0.35188 0.28306 0.0
C1013 C 0.02143 0.3638 0.28955 0.0
C1014 C 0.02013 0.39137 0.29691 0.0
C1015 C 0.04398 0.4071 0.29776 0.0
C1016 C 0.0692 0.39528 0.2913 0.0
C1017 C 0.18354 0.3777 0.19024 0.0
C1018 C 0.18747 0.4056 0.19597 0.0
C1019 C 0.16859 0.36129 0.20833 0.0
C1020 C 0.15793 0.37249 0.23257 0.0
C1021 C 0.1631 0.40001 0.23878 0.0
C1022 C 0.17757 0.41642 0.22063 0.0
C1023 C 0.14013 0.35642 0.25108 0.0
C1024 C 0.11456 0.36751 0.25811 0.0
C1025 C 0.14825 0.33114 0.26253 0.0
C1026 C 0.17491 0.31813 0.25619 0.0
C1027 C 0.19965 0.33201 0.261 0.0
C1028 C 0.22464 0.31929 0.25533 0.0
C1029 C 0.22512 0.29262 0.24506 0.0
C1030 C 0.20064 0.27861 0.24044 0.0
C1031 C 0.17563 0.29124 0.24605 0.0
H1032 H 0.24442 0.28271 0.24078 0.0
H1033 H 0.00063 0.40056 0.30194 0.0
H1034 H 0.92214 0.86988 0.64115 0.0
H1035 H 0.90158 0.885 0.59792 0.0
H1036 H 0.96703 0.84608 0.55326 0.0
H1037 H 0.98781 0.83158 0.59665 0.0
H1038 H 0.95784 0.89736 0.53468 0.0
H1039 H 0.90447 0.81762 0.55387 0.0
H1040 H 0.87553 0.78713 0.58169 0.0
H1041 H 0.81467 0.85005 0.58827 0.0
H1042 H 0.84343 0.88107 0.56078 0.0
H1043 H 0.83751 0.89227 0.42615 0.0
H1044 H 0.86908 0.87207 0.45905 0.0
H1045 H 0.89605 0.9528 0.48278 0.0
H1046 H 0.86528 0.97296 0.44862 0.0
H1047 H 0.86154 0.87751 0.50986 0.0
H1048 H 0.95573 0.94904 0.51916 0.0
H1049 H 0.9873 0.97546 0.49001 0.0
H1050 H 0.96928 0.92276 0.42209 0.0
H1051 H 0.93774 0.89592 0.45087 0.0
C1052 C 0.93191 0.86452 0.62202 0.0
C1053 C 0.95646 0.84974 0.62197 0.0
C1054 C 0.92021 0.87302 0.59741 0.0
C1055 C 0.93281 0.86664 0.57238 0.0
C1056 C 0.95706 0.8513 0.57234 0.0
C1057 C 0.96872 0.84279 0.59698 0.0
C1058 C 0.92087 0.87641 0.54631 0.0
C1059 C 0.9368 0.89298 0.5291 0.0
C1060 C 0.8936 0.87035 0.53894 0.0
C1061 C 0.87622 0.85174 0.55546 0.0
C1062 C 0.88501 0.82503 0.56143 0.0
C1063 C 0.86862 0.80764 0.57711 0.0
C1064 C 0.8433 0.81666 0.5868 0.0
C1065 C 0.8343 0.84309 0.58078 0.0
C1066 C 0.85062 0.86058 0.56512 0.0
C1067 C 0.85095 0.90559 0.43772 0.0
C1068 C 0.84905 0.93406 0.43507 0.0
C1069 C 0.86886 0.89409 0.45661 0.0
C1070 C 0.88474 0.91085 0.4737 0.0
C1071 C 0.88426 0.93936 0.46969 0.0
C1072 C 0.86668 0.9509 0.45022 0.0
C1073 C 0.89844 0.89864 0.49791 0.0
C1074 C 0.88268 0.88178 0.51508 0.0
C1075 C 0.926 0.90409 0.5049 0.0
C1076 C 0.94423 0.92059 0.48714 0.0
C1077 C 0.9585 0.9431 0.498 0.0
C1078 C 0.9764 0.95813 0.48156 0.0
C1079 C 0.98035 0.95073 0.45426 0.0
C1080 C 0.96621 0.92845 0.44326 0.0
C1081 C 0.94822 0.91338 0.4596 0.0
H1082 H 0.99436 0.9623 0.44162 0.0
H1083 H 0.83064 0.80316 0.59893 0.0
H1084 H 0.36172 0.57055 0.6656 0.0
H1085 H 0.38688 0.59911 0.69761 0.0
H1086 H 0.3231 0.65994 0.69383 0.0
H1087 H 0.29745 0.63099 0.6617 0.0
H1088 H 0.40812 0.65011 0.70238 0.0
H1089 H 0.31084 0.67861 0.76031 0.0
H1090 H 0.26267 0.66393 0.76441 0.0
H1091 H 0.28567 0.58144 0.74494 0.0
H1092 H 0.33397 0.5956 0.7411 0.0
H1093 H 0.44009 0.7261 0.82574 0.0
H1094 H 0.42504 0.70963 0.78074 0.0
H1095 H 0.39681 0.63469 0.81789 0.0
H1096 H 0.41132 0.65165 0.86283 0.0
H1097 H 0.35726 0.65794 0.78979 0.0
H1098 H 0.45231 0.63682 0.77374 0.0
H1099 H 0.50164 0.64691 0.77052 0.0
H1100 H 0.48577 0.70699 0.70855 0.0
H1101 H 0.43629 0.6975 0.71167 0.0
C1102 C 0.35324 0.59025 0.67117 0.0
C1103 C 0.32739 0.59838 0.66162 0.0
C1104 C 0.36781 0.60668 0.68925 0.0
C1105 C 0.35671 0.63145 0.69833 0.0
C1106 C 0.33189 0.64075 0.68714 0.0
C1107 C 0.31728 0.62426 0.6688 0.0
C1108 C 0.36922 0.64488 0.72239 0.0
C1109 C 0.39696 0.65227 0.72143 0.0
C1110 C 0.35476 0.6471 0.74732 0.0
C1111 C 0.32589 0.63825 0.75009 0.0
C1112 C 0.30558 0.65734 0.75699 0.0
C1113 C 0.27828 0.64911 0.75926 0.0
C1114 C 0.2711 0.62179 0.75484 0.0
C1115 C 0.29124 0.60261 0.74827 0.0
C1116 C 0.31857 0.61073 0.74604 0.0
C1117 C 0.43162 0.70571 0.82392 0.0
C1118 C 0.42696 0.6899 0.84738 0.0
C1119 C 0.42289 0.69639 0.79835 0.0
C1120 C 0.40967 0.67099 0.796 0.0
C1121 C 0.4068 0.65443 0.81929 0.0
C1122 C 0.4153 0.66388 0.84481 0.0
C1123 C 0.39643 0.66269 0.77005 0.0
C1124 C 0.36842 0.65638 0.77068 0.0
C1125 C 0.41085 0.66095 0.74503 0.0
C1126 C 0.44058 0.66667 0.74317 0.0
C1127 C 0.45932 0.65236 0.75961 0.0
C1128 C 0.48731 0.65793 0.75776 0.0
C1129 C 0.49683 0.67764 0.73941 0.0
C1130 C 0.47837 0.69176 0.7228 0.0
C1131 C 0.45036 0.68628 0.72458 0.0
H1132 H 0.5185 0.68192 0.738 0.0
H1133 H 0.24995 0.61547 0.75656 0.0
H1134 H 0.56488 0.12952 0.10948 0.0
H1135 H 0.58394 0.1183 0.06438 0.0
H1136 H 0.51425 0.06682 0.04759 0.0
H1137 H 0.49478 0.07879 0.09204 0.0
H1138 H 0.56524 0.04197 0.03593 0.0
H1139 H 0.51656 0.12461 0.01656 0.0
H1140 H 0.50304 0.17263 0.02376 0.0
H1141 H 0.58605 0.19842 0.01108 0.0
H1142 H 0.60015 0.15049 0.0042 0.0
H1143 H 0.61738 0.02205 0.90018 0.0
H1144 H 0.58483 0.03236 0.93701 0.0
H1145 H 0.63766 0.0972 0.96541 0.0
H1146 H 0.66961 0.08754 0.92879 0.0
H1147 H 0.58687 0.11346 0.96736 0.0
H1148 H 0.63722 0.0326 0.99509 0.0
H1149 H 0.65334 0.98487 0.9923 0.0
H1150 H 0.57027 0.95635 0.99154 0.0
H1151 H 0.55365 0.00395 0.99411 0.0
C1152 C 0.55375 0.11581 0.0961 0.0
C1153 C 0.52888 0.10428 0.10457 0.0
C1154 C 0.56454 0.10946 0.07043 0.0
C1155 C 0.55049 0.09165 0.05279 0.0
C1156 C 0.52552 0.08033 0.06109 0.0
C1157 C 0.51462 0.08689 0.08662 0.0
C1158 C 0.56209 0.08468 0.02578 0.0
C1159 C 0.5695 0.05746 0.02064 0.0
C1160 C 0.56788 0.10502 0.00613 0.0
C1161 C 0.55944 0.13391 0.01005 0.0
C1162 C 0.53197 0.14049 0.0155 0.0
C1163 C 0.5242 0.16771 0.01949 0.0
C1164 C 0.54368 0.18856 0.01792 0.0
C1165 C 0.57098 0.18224 0.0123 0.0
C1166 C 0.57886 0.15506 0.00832 0.0
C1167 C 0.62182 0.03868 0.91412 0.0
C1168 C 0.64614 0.05385 0.91167 0.0
C1169 C 0.60331 0.04446 0.93521 0.0
C1170 C 0.60896 0.0654 0.95411 0.0
C1171 C 0.6328 0.08102 0.95105 0.0
C1172 C 0.65115 0.07534 0.93011 0.0
C1173 C 0.59094 0.07085 0.97783 0.0
C1174 C 0.58216 0.09781 0.98236 0.0
C1175 C 0.58426 0.05032 0.9971 0.0
C1176 C 0.5942 0.02182 0.99452 0.0
C1177 C 0.6224 0.01616 0.99404 0.0
C1178 C 0.63162 0.98914 0.9926 0.0
C1179 C 0.61283 0.96762 0.99186 0.0
C1180 C 0.58478 0.97306 0.99222 0.0
C1181 C 0.57545 4e-05 0.99367 0.0
H1182 H 0.61999 0.94672 0.99111 0.0
H1183 H 0.53762 0.20962 0.02102 0.0
H1184 H 0.56954 0.22719 0.64049 0.0
H1185 H 0.58252 0.20628 0.68433 0.0
H1186 H 0.60708 0.13299 0.64171 0.0
H1187 H 0.5944 0.15425 0.59792 0.0
H1188 H 0.57779 0.12513 0.69411 0.0
H1189 H 0.65406 0.17544 0.65284 0.0
H1190 H 0.67538 0.21703 0.63382 0.0
H1191 H 0.65966 0.25994 0.70882 0.0
H1192 H 0.63804 0.21863 0.72818 0.0
H1193 H 0.67402 0.05354 0.76676 0.0
H1194 H 0.65052 0.08077 0.73253 0.0
H1195 H 0.65203 0.1506 0.78655 0.0
H1196 H 0.67671 0.12336 0.82094 0.0
H1197 H 0.66179 0.16545 0.73474 0.0
H1198 H 0.59344 0.11344 0.77943 0.0
H1199 H 0.57242 0.07227 0.79952 0.0
H1200 H 0.57076 0.03391 0.72055 0.0
H1201 H 0.59218 0.07468 0.70002 0.0
C1202 C 0.57687 0.20631 0.64083 0.0
C1203 C 0.58072 0.19195 0.61633 0.0
C1204 C 0.58439 0.1945 0.66565 0.0
C1205 C 0.59575 0.1682 0.66608 0.0
C1206 C 0.59811 0.15324 0.64168 0.0
C1207 C 0.59085 0.16521 0.61684 0.0
C1208 C 0.60773 0.15725 0.69141 0.0
C1209 C 0.59615 0.13383 0.70306 0.0
C1210 C 0.63108 0.16935 0.70346 0.0
C1211 C 0.64417 0.19409 0.69182 0.0
C1212 C 0.65495 0.19382 0.66517 0.0
C1213 C 0.66714 0.21731 0.65436 0.0
C1214 C 0.66876 0.24113 0.67008 0.0
C1215 C 0.65832 0.24148 0.69666 0.0
C1216 C 0.64614 0.21804 0.70758 0.0
C1217 C 0.66951 0.07475 0.77134 0.0
C1218 C 0.6768 0.08632 0.79658 0.0
C1219 C 0.65594 0.09023 0.75182 0.0
C1220 C 0.64874 0.1174 0.75738 0.0
C1221 C 0.65711 0.12951 0.78208 0.0
C1222 C 0.6712 0.11403 0.8016 0.0
C1223 C 0.63238 0.13268 0.7371 0.0
C1224 C 0.64307 0.15699 0.72632 0.0
C1225 C 0.60796 0.12156 0.72607 0.0
C1226 C 0.59453 0.09713 0.7382 0.0
C1227 C 0.58871 0.09619 0.76635 0.0
C1228 C 0.57672 0.07291 0.77783 0.0
C1229 C 0.57029 0.05047 0.76133 0.0
C1230 C 0.57575 0.05131 0.7333 0.0
C1231 C 0.58777 0.07453 0.72172 0.0
H1232 H 0.56106 0.03245 0.77026 0.0
H1233 H 0.67819 0.2593 0.66174 0.0
H1234 H 0.17981 0.40106 0.06599 0.0
H1235 H 0.14848 0.3915 0.02864 0.0
H1236 H 0.09672 0.45807 0.05432 0.0
H1237 H 0.12844 0.4682 0.09212 0.0
H1238 H 0.06939 0.40501 0.03617 0.0
H1239 H 0.13268 0.47382 0.00701 0.0
H1240 H 0.17845 0.49446 0.00259 0.0
H1241 H 0.20546 0.42553 0.95539 0.0
H1242 H 0.16001 0.4041 0.96014 0.0
H1243 H 0.00231 0.40129 0.90639 0.0
H1244 H 0.02471 0.41645 0.94843 0.0
H1245 H 0.09594 0.3687 0.92752 0.0
H1246 H 0.07386 0.3546 0.88466 0.0
H1247 H 0.11037 0.41849 0.94428 0.0
H1248 H 0.04944 0.34791 0.97657 0.0
H1249 H 0.00482 0.32519 0.9827 0.0
H1250 H 0.97393 0.39611 0.02425 0.0
H1251 H 0.01829 0.4194 0.01805 0.0
C1252 C 0.16165 0.41358 0.06402 0.0
C1253 C 0.15678 0.43564 0.08184 0.0
C1254 C 0.14375 0.40801 0.04266 0.0
C1255 C 0.12057 0.42428 0.03864 0.0
C1256 C 0.11462 0.44536 0.0572 0.0
C1257 C 0.13273 0.45111 0.07869 0.0
C1258 C 0.10408 0.42009 0.01371 0.0
C1259 C 0.07798 0.40849 0.01602 0.0
C1260 C 0.11573 0.42416 0.98757 0.0
C1261 C 0.14296 0.43725 0.98412 0.0
C1262 C 0.14843 0.46295 0.99587 0.0
C1263 C 0.17432 0.47481 0.99328 0.0
C1264 C 0.19486 0.46132 0.97872 0.0
C1265 C 0.18952 0.43595 0.96667 0.0
C1266 C 0.16369 0.42393 0.96931 0.0
C1267 C 0.02294 0.39451 0.91053 0.0
C1268 C 0.03677 0.37746 0.89199 0.0
C1269 C 0.03555 0.4028 0.93476 0.0
C1270 C 0.06198 0.39367 0.94116 0.0
C1271 C 0.07558 0.37611 0.92291 0.0
C1272 C 0.06299 0.36795 0.89858 0.0
C1273 C 0.07574 0.40279 0.96659 0.0
C1274 C 0.10145 0.41536 0.96435 0.0
C1275 C 0.06371 0.39953 0.99275 0.0
C1276 C 0.03708 0.3855 0.99658 0.0
C1277 C 0.03306 0.35874 0.98682 0.0
C1278 C 0.00783 0.34574 0.99035 0.0
C1279 C 0.98652 0.35923 0.00378 0.0
C1280 C 0.99044 0.38571 0.0138 0.0
C1281 C 0.01562 0.39881 0.01031 0.0
H1282 H 0.96701 0.34913 0.00649 0.0
H1283 H 0.2149 0.47053 0.97676 0.0
H1284 H 0.7944 0.94407 0.30006 0.0
H1285 H 0.81106 0.91484 0.26332 0.0
H1286 H 0.81016 0.84542 0.31769 0.0
H1287 H 0.79291 0.8748 0.35479 0.0
H1288 H 0.86138 0.85589 0.29183 0.0
H1289 H 0.76858 0.84206 0.26579 0.0
H1290 H 0.72097 0.85554 0.25591 0.0
H1291 H 0.74872 0.90667 0.1902 0.0
H1292 H 0.79652 0.89383 0.19997 0.0
H1293 H 0.91147 0.77731 0.17774 0.0
H1294 H 0.88756 0.79431 0.2185 0.0
H1295 H 0.86692 0.86837 0.17513 0.0
H1296 H 0.89029 0.85079 0.13429 0.0
H1297 H 0.82303 0.84747 0.1983 0.0
H1298 H 0.91532 0.86652 0.22759 0.0
H1299 H 0.9634 0.85545 0.23806 0.0
H1300 H 0.93727 0.79672 0.29783 0.0
H1301 H 0.889 0.80721 0.28745 0.0
C1302 C 0.7972 0.92246 0.30406 0.0
C1303 C 0.79262 0.91168 0.33025 0.0
C1304 C 0.80659 0.90577 0.28303 0.0
C1305 C 0.81183 0.87801 0.28782 0.0
C1306 C 0.8062 0.86683 0.31366 0.0
C1307 C 0.79627 0.88354 0.33472 0.0
C1308 C 0.82591 0.86194 0.26644 0.0
C1309 C 0.8528 0.85332 0.27152 0.0
C1310 C 0.81488 0.85938 0.23986 0.0
C1311 C 0.78615 0.8671 0.23376 0.0
C1312 C 0.76453 0.85635 0.24939 0.0
C1313 C 0.73752 0.86384 0.24377 0.0
C1314 C 0.73184 0.88197 0.22245 0.0
C1315 C 0.75316 0.89262 0.2067 0.0
C1316 C 0.78021 0.88521 0.21224 0.0
C1317 C 0.90247 0.79753 0.17741 0.0
C1318 C 0.90286 0.81305 0.15333 0.0
C1319 C 0.88872 0.80718 0.20052 0.0
C1320 C 0.87548 0.83266 0.1999 0.0
C1321 C 0.8769 0.84862 0.17605 0.0
C1322 C 0.89044 0.83883 0.15291 0.0
C1323 C 0.85886 0.84214 0.22343 0.0
C1324 C 0.8315 0.8495 0.2187 0.0
C1325 C 0.86956 0.84375 0.25029 0.0
C1326 C 0.89856 0.8374 0.2565 0.0
C1327 C 0.91983 0.85107 0.24279 0.0
C1328 C 0.94711 0.84494 0.24875 0.0
C1329 C 0.95338 0.82533 0.26853 0.0
C1330 C 0.93238 0.81187 0.28247 0.0
C1331 C 0.90506 0.8179 0.27657 0.0
H1332 H 0.97452 0.82062 0.27312 0.0
H1333 H 0.71091 0.88772 0.2181 0.0
H1334 H 0.37557 0.54794 0.58392 0.0
H1335 H 0.40816 0.56515 0.54965 0.0
H1336 H 0.34419 0.56489 0.48888 0.0
H1337 H 0.31163 0.54852 0.52301 0.0
H1338 H 0.39821 0.54866 0.46921 0.0
H1339 H 0.35083 0.61971 0.52235 0.0
H1340 H 0.33848 0.64122 0.56628 0.0
H1341 H 0.42352 0.65307 0.58489 0.0
H1342 H 0.43635 0.63118 0.54121 0.0
H1343 H 0.41716 0.64366 0.36749 0.0
H1344 H 0.39701 0.62146 0.40768 0.0
H1345 H 0.46714 0.64524 0.45582 0.0
H1346 H 0.48687 0.66793 0.41547 0.0
H1347 H 0.41932 0.64667 0.48585 0.0
H1348 H 0.4674 0.58237 0.4305 0.0
H1349 H 0.48096 0.56009 0.38735 0.0
H1350 H 0.39799 0.53466 0.37378 0.0
H1351 H 0.38391 0.55677 0.41693 0.0
C1352 C 0.36881 0.55078 0.56302 0.0
C1353 C 0.3412 0.5472 0.55598 0.0
C1354 C 0.38733 0.56064 0.54357 0.0
C1355 C 0.37841 0.56641 0.5169 0.0
C1356 C 0.3514 0.56048 0.50936 0.0
C1357 C 0.33285 0.55125 0.52884 0.0
C1358 C 0.3956 0.58209 0.49774 0.0
C1359 C 0.40298 0.57003 0.47284 0.0
C1360 C 0.40228 0.60978 0.50285 0.0
C1361 C 0.39455 0.62355 0.52872 0.0
C1362 C 0.36688 0.62675 0.5359 0.0
C1363 C 0.35979 0.63901 0.56074 0.0
C1364 C 0.3802 0.64843 0.57841 0.0
C1365 C 0.40774 0.64571 0.57121 0.0
C1366 C 0.41493 0.63338 0.54642 0.0
C1367 C 0.42754 0.64506 0.38701 0.0
C1368 C 0.45315 0.65769 0.38883 0.0
C1369 C 0.41634 0.63211 0.40978 0.0
C1370 C 0.43094 0.63122 0.4345 0.0
C1371 C 0.45564 0.64565 0.43689 0.0
C1372 C 0.46675 0.65877 0.41406 0.0
C1373 C 0.42126 0.61344 0.45694 0.0
C1374 C 0.41525 0.62513 0.48242 0.0
C1375 C 0.41617 0.58527 0.4525 0.0
C1376 C 0.42458 0.57137 0.42686 0.0
C1377 C 0.45203 0.57208 0.41829 0.0
C1378 C 0.45981 0.55944 0.39386 0.0
C1379 C 0.44032 0.5461 0.37776 0.0
C1380 C 0.41305 0.54506 0.38624 0.0
C1381 C 0.40518 0.55753 0.41075 0.0
H1382 H 0.44637 0.53651 0.35874 0.0
H1383 H 0.37468 0.65788 0.59765 0.0
H1384 H 0.20217 0.20129 0.41795 0.0
H1385 H 0.23424 0.18447 0.38355 0.0
H1386 H 0.1668 0.16236 0.33108 0.0
H1387 H 0.13441 0.18038 0.36533 0.0
H1388 H 0.20622 0.11859 0.34756 0.0
H1389 H 0.2027 0.20359 0.30366 0.0
H1390 H 0.20172 0.25364 0.2981 0.0
H1391 H 0.28291 0.25945 0.33106 0.0
H1392 H 0.28421 0.20947 0.3374 0.0
H1393 H 0.31853 0.06748 0.26542 0.0
H1394 H 0.2753 0.08915 0.27902 0.0
H1395 H 0.31864 0.13756 0.33881 0.0
H1396 H 0.36167 0.11552 0.32551 0.0
H1397 H 0.28397 0.1686 0.30574 0.0
H1398 H 0.28116 0.08399 0.35837 0.0
H1399 H 0.28127 0.03382 0.36354 0.0
H1400 H 0.21028 0.02783 0.31215 0.0
H1401 H 0.20999 0.07798 0.3064 0.0
C1402 C 0.19425 0.19346 0.39878 0.0
C1403 C 0.166 0.19199 0.39413 0.0
C1404 C 0.21252 0.18399 0.37915 0.0
C1405 C 0.20281 0.17231 0.35483 0.0
C1406 C 0.17457 0.17154 0.34969 0.0
C1407 C 0.15619 0.18181 0.36913 0.0
C1408 C 0.22249 0.15811 0.33693 0.0
C1409 C 0.22282 0.12945 0.33761 0.0
C1410 C 0.24419 0.17244 0.32438 0.0
C1411 C 0.24347 0.20268 0.32116 0.0
C1412 C 0.22025 0.21553 0.31003 0.0
C1413 C 0.21966 0.24391 0.30666 0.0
C1414 C 0.24225 0.25972 0.3142 0.0
C1415 C 0.26544 0.24717 0.3252 0.0
C1416 C 0.26611 0.21879 0.32867 0.0
C1417 C 0.3186 0.0824 0.28179 0.0
C1418 C 0.34329 0.09015 0.29429 0.0
C1419 C 0.29404 0.09488 0.28938 0.0
C1420 C 0.29388 0.11515 0.3097 0.0
C1421 C 0.31844 0.12224 0.32279 0.0
C1422 C 0.34293 0.1097 0.31526 0.0
C1423 C 0.26824 0.12917 0.3175 0.0
C1424 C 0.26695 0.15774 0.31495 0.0
C1425 C 0.24556 0.11476 0.32819 0.0
C1426 C 0.24577 0.08466 0.33166 0.0
C1427 C 0.26574 0.07194 0.34797 0.0
C1428 C 0.2658 0.04353 0.35105 0.0
C1429 C 0.24586 0.02764 0.3381 0.0
C1430 C 0.22576 0.04015 0.32211 0.0
C1431 C 0.22563 0.06857 0.31894 0.0
H1432 H 0.24593 0.00565 0.34052 0.0
H1433 H 0.24178 0.28168 0.31149 0.0
H1434 H 0.13377 0.08394 0.49069 0.0
H1435 H 0.11997 0.04097 0.51259 0.0
H1436 H 0.15156 0.07053 0.58959 0.0
H1437 H 0.16571 0.11334 0.56735 0.0
H1438 H 0.16027 0.01576 0.58317 0.0
H1439 H 0.08386 0.07932 0.57257 0.0
H1440 H 0.05268 0.10832 0.54553 0.0
H1441 H 0.02836 0.03863 0.49789 0.0
H1442 H 0.05944 0.00922 0.52465 0.0
H1443 H 0.08504 0.96069 0.6884 0.0
H1444 H 0.1031 0.99144 0.65386 0.0
H1445 H 0.06352 0.94431 0.59059 0.0
H1446 H 0.04488 0.91319 0.62545 0.0
H1447 H 0.05982 0.00053 0.58241 0.0
H1448 H 0.12962 0.93545 0.59925 0.0
H1449 H 0.15971 0.90636 0.62731 0.0
H1450 H 0.19678 0.97778 0.66255 0.0
H1451 H 0.16659 0.00734 0.63505 0.0
C1452 C 0.13824 0.08081 0.51215 0.0
C1453 C 0.15046 0.10171 0.52758 0.0
C1454 C 0.13031 0.05645 0.52463 0.0
C1455 C 0.13421 0.05286 0.55281 0.0
C1456 C 0.14828 0.07298 0.56782 0.0
C1457 C 0.1564 0.0973 0.55522 0.0
C1458 C 0.12161 0.02942 0.56719 0.0
C1459 C 0.13833 0.01242 0.58306 0.0
C1460 C 0.09304 0.02453 0.56625 0.0
C1461 C 0.07417 0.04216 0.55039 0.0
C1462 C 0.07195 0.07022 0.55624 0.0
C1463 C 0.05428 0.08672 0.541 0.0
C1464 C 0.03867 0.07536 0.51991 0.0
C1465 C 0.04053 0.04742 0.51417 0.0
C1466 C 0.05811 0.03082 0.52941 0.0
C1467 C 0.07993 0.95687 0.66718 0.0
C1468 C 0.0638 0.93431 0.6596 0.0
C1469 C 0.0904 0.97442 0.64745 0.0
C1470 C 0.08522 0.96969 0.61968 0.0
C1471 C 0.06796 0.94805 0.61197 0.0
C1472 C 0.0573 0.93039 0.63185 0.0
C1473 C 0.09841 0.98747 0.5991 0.0
C1474 C 0.08183 0.00341 0.58205 0.0
C1475 C 0.12713 0.9913 0.59886 0.0
C1476 C 0.14572 0.97363 0.61514 0.0
C1477 C 0.14408 0.94497 0.61309 0.0
C1478 C 0.16116 0.92839 0.6289 0.0
C1479 C 0.18013 0.94022 0.64672 0.0
C1480 C 0.18209 0.96865 0.64872 0.0
C1481 C 0.16502 0.98533 0.63299 0.0
H1482 H 0.19332 0.92735 0.65896 0.0
H1483 H 0.02507 0.08818 0.50807 0.0
H1484 H 0.1784 0.92227 0.75595 0.0
H1485 H 0.22369 0.90635 0.77115 0.0
H1486 H 0.1861 0.86703 0.84063 0.0
H1487 H 0.14109 0.88295 0.82533 0.0
H1488 H 0.23645 0.89182 0.85291 0.0
H1489 H 0.19482 0.83317 0.78302 0.0
H1490 H 0.17627 0.82541 0.73673 0.0
H1491 H 0.25352 0.84794 0.7016 0.0
H1492 H 0.27233 0.85653 0.74765 0.0
H1493 H 0.29556 0.77782 0.89976 0.0
H1494 H 0.26451 0.80269 0.86974 0.0
H1495 H 0.33307 0.83175 0.82245 0.0
H1496 H 0.36448 0.80617 0.85246 0.0
H1497 H 0.2766 0.82017 0.79305 0.0
H1498 H 0.32032 0.87296 0.86368 0.0
H1499 H 0.33862 0.87879 0.91031 0.0
H1500 H 0.25828 0.86701 0.94373 0.0
H1501 H 0.23958 0.86054 0.89729 0.0
C1502 C 0.18015 0.91092 0.77487 0.0
C1503 C 0.15662 0.90363 0.78958 0.0
C1504 C 0.20583 0.90174 0.78342 0.0
C1505 C 0.20811 0.88533 0.80684 0.0
C1506 C 0.18473 0.8797 0.82252 0.0
C1507 C 0.15912 0.88866 0.81383 0.0
C1508 C 0.23406 0.87159 0.81385 0.0
C1509 C 0.24544 0.87642 0.8397 0.0
C1510 C 0.24605 0.85185 0.79631 0.0
C1511 C 0.23486 0.84591 0.76875 0.0
C1512 C 0.20777 0.83672 0.76542 0.0
C1513 C 0.19719 0.83224 0.73923 0.0
C1514 C 0.21366 0.83638 0.71626 0.0
C1515 C 0.24076 0.84488 0.71942 0.0
C1516 C 0.25137 0.84961 0.74554 0.0
C1517 C 0.3039 0.78858 0.88227 0.0
C1518 C 0.33222 0.79031 0.87833 0.0
C1519 C 0.28621 0.80275 0.86518 0.0
C1520 C 0.29663 0.81928 0.84424 0.0
C1521 C 0.32477 0.81897 0.83852 0.0
C1522 C 0.34261 0.8044 0.85557 0.0
C1523 C 0.27843 0.84008 0.83227 0.0
C1524 C 0.26833 0.83639 0.80573 0.0
C1525 C 0.26768 0.86106 0.84905 0.0
C1526 C 0.27857 0.86616 0.87698 0.0
C1527 C 0.30657 0.87151 0.88097 0.0
C1528 C 0.31702 0.8749 0.90737 0.0
C1529 C 0.29963 0.87325 0.92997 0.0
C1530 C 0.27173 0.8683 0.9262 0.0
C1531 C 0.26118 0.86481 0.89983 0.0
H1532 H 0.30778 0.87586 0.9504 0.0
H1533 H 0.20552 0.83285 0.69602 0.0
H1534 H 0.43396 0.05284 0.12414 0.0
H1535 H 0.41252 0.01968 0.09329 0.0
H1536 H 0.3698 0.98359 0.16148 0.0
H1537 H 0.39128 0.01636 0.19244 0.0
H1538 H 0.39479 0.94543 0.12897 0.0
H1539 H 0.33619 0.02381 0.11763 0.0
H1540 H 0.32594 0.07212 0.10749 0.0
H1541 H 0.35916 0.06267 0.02679 0.0
H1542 H 0.37001 0.0144 0.03658 0.0
H1543 H 0.31346 0.85543 0.05362 0.0
H1544 H 0.32233 0.89514 0.08318 0.0
H1545 H 0.36549 0.93459 0.01709 0.0
H1546 H 0.35607 0.89515 0.98756 0.0
H1547 H 0.33802 0.97176 0.04906 0.0
H1548 H 0.40028 0.89675 0.05995 0.0
H1549 H 0.41277 0.84861 0.06814 0.0
H1550 H 0.37612 0.85228 0.14785 0.0
H1551 H 0.36296 0.90035 0.13991 0.0
C1552 C 0.4201 0.03777 0.13257 0.0
C1553 C 0.41443 0.03711 0.16074 0.0
C1554 C 0.4077 0.01901 0.1149 0.0
C1555 C 0.38943 -0.00064 0.12513 0.0
C1556 C 0.38381 0.99864 0.15321 0.0
C1557 C 0.39608 0.01742 0.17084 0.0
C1558 C 0.3768 0.97891 0.10674 0.0
C1559 C 0.38198 0.95117 0.11179 0.0
C1560 C 0.36077 0.98653 0.08388 0.0
C1561 C 0.35413 0.01553 0.07793 0.0
C1562 C 0.34152 0.03208 0.0978 0.0
C1563 C 0.33557 0.05946 0.0921 0.0
C1564 C 0.34194 0.07046 0.06653 0.0
C1565 C 0.35426 0.05412 0.04659 0.0
C1566 C 0.36029 0.02675 0.0522 0.0
C1567 C 0.32409 0.873 0.04534 0.0
C1568 C 0.33466 0.87228 0.01873 0.0
C1569 C 0.32925 0.89553 0.06214 0.0
C1570 C 0.34505 0.9175 0.05243 0.0
C1571 C 0.35342 0.91779 0.02501 0.0
C1572 C 0.34825 0.89527 0.00827 0.0
C1573 C 0.35581 0.93836 0.07153 0.0
C1574 C 0.35051 0.96609 0.06649 0.0
C1575 C 0.37211 0.93083 0.09421 0.0
C1576 C 0.38036 0.90205 0.09922 0.0
C1577 C 0.39471 0.88724 0.07915 0.0
C1578 C 0.40192 0.85997 0.08375 0.0
C1579 C 0.39518 0.84737 0.10847 0.0
C1580 C 0.38128 0.86205 0.12868 0.0
C1581 C 0.37394 0.88931 0.12415 0.0
H1582 H 0.40078 0.82626 0.112 0.0
H1583 H 0.33726 0.09162 0.06212 0.0
H1584 H 0.83064 0.41157 0.71983 0.0
H1585 H 0.78964 0.39072 0.69962 0.0
H1586 H 0.84016 0.34848 0.64087 0.0
H1587 H 0.88109 0.36974 0.66095 0.0
H1588 H 0.79486 0.36981 0.61731 0.0
H1589 H 0.8163 0.31441 0.69384 0.0
H1590 H 0.82802 0.30506 0.74194 0.0
H1591 H 0.75021 0.33661 0.76755 0.0
H1592 H 0.7382 0.34671 0.71958 0.0
H1593 H 0.67837 0.26636 0.60391 0.0
H1594 H 0.71816 0.28082 0.63121 0.0
H1595 H 0.69835 0.36526 0.61529 0.0
H1596 H 0.65944 0.35095 0.58746 0.0
H1597 H 0.73121 0.31621 0.6756 0.0
H1598 H 0.75446 0.39591 0.59128 0.0
H1599 H 0.74398 0.40301 0.54244 0.0
H1600 H 0.73659 0.31628 0.53084 0.0
H1601 H 0.74753 0.30864 0.57945 0.0
C1602 C 0.8328 0.39812 0.70237 0.0
C1603 C 0.85882 0.39198 0.69198 0.0
C1604 C 0.80951 0.38603 0.69103 0.0
C1605 C 0.81193 0.36768 0.66906 0.0
C1606 C 0.83788 0.3624 0.65797 0.0
C1607 C 0.86119 0.37439 0.66943 0.0
C1608 C 0.78731 0.35406 0.65772 0.0
C1609 C 0.78102 0.35805 0.63005 0.0
C1610 C 0.76961 0.3381 0.67422 0.0
C1611 C 0.77644 0.33154 0.70308 0.0
C1612 C 0.80174 0.31954 0.70972 0.0
C1613 C 0.80844 0.31409 0.73697 0.0
C1614 C 0.78989 0.32029 0.75777 0.0
C1615 C 0.76456 0.33185 0.75138 0.0
C1616 C 0.75779 0.33744 0.72416 0.0
C1617 C 0.68209 0.28798 0.60706 0.0
C1618 C 0.66613 0.3076 0.59349 0.0
C1619 C 0.70478 0.29621 0.62259 0.0
C1620 C 0.71143 0.32408 0.62481 0.0
C1621 C 0.69379 0.34364 0.61349 0.0
C1622 C 0.67155 0.33547 0.59767 0.0
C1623 C 0.7384 0.3329 0.63552 0.0
C1624 C 0.74517 0.32791 0.66293 0.0
C1625 C 0.75697 0.34741 0.61866 0.0
C1626 C 0.75162 0.35174 0.58908 0.0
C1627 C 0.75084 0.37835 0.57825 0.0
C1628 C 0.74478 0.38247 0.55062 0.0
C1629 C 0.73956 0.36012 0.53357 0.0
C1630 C 0.74058 0.33358 0.54407 0.0
C1631 C 0.74672 0.32935 0.57166 0.0
H1632 H 0.73476 0.36336 0.51221 0.0
H1633 H 0.79514 0.3161 0.77883 0.0
H1634 H 0.94205 0.42996 0.87052 0.0
H1635 H 0.92446 0.4666 0.89964 0.0
H1636 H 0.88005 0.49991 0.8311 0.0
H1637 H 0.89801 0.46382 0.80173 0.0
H1638 H 0.9098 0.53837 0.85689 0.0
H1639 H 0.8466 0.46779 0.88234 0.0
H1640 H 0.83316 0.42189 0.89828 0.0
H1641 H 0.87521 0.43555 0.97416 0.0
H1642 H 0.88926 0.4814 0.95851 0.0
H1643 H 0.84016 0.64051 0.93082 0.0
H1644 H 0.84763 0.59918 0.90333 0.0
H1645 H 0.89281 0.56314 0.97 0.0
H1646 H 0.8844 0.60397 0.99774 0.0
H1647 H 0.8606 0.52568 0.94471 0.0
H1648 H 0.92634 0.5941 0.9187 0.0
H1649 H 0.94123 0.6397 0.90317 0.0
H1650 H 0.89589 0.62949 0.82863 0.0
H1651 H 0.88039 0.58396 0.84392 0.0
C1652 C 0.92854 0.44507 0.86166 0.0
C1653 C 0.92173 0.44421 0.83375 0.0
C1654 C 0.91829 0.46582 0.87838 0.0
C1655 C 0.90089 0.48588 0.8675 0.0
C1656 C 0.89349 0.48463 0.83984 0.0
C1657 C 0.90373 0.46394 0.82313 0.0
C1658 C 0.89175 0.50915 0.88449 0.0
C1659 C 0.8986 0.53562 0.87585 0.0
C1660 C 0.87783 0.50542 0.90956 0.0
C1661 C 0.86918 0.47796 0.91915 0.0
C1662 C 0.85315 0.46094 0.90235 0.0
C1663 C 0.8454 0.43494 0.91134 0.0
C1664 C 0.85338 0.42579 0.93719 0.0
C1665 C 0.86906 0.44266 0.95414 0.0
C1666 C 0.8769 0.46866 0.94522 0.0
C1667 C 0.85146 0.6236 0.93955 0.0
C1668 C 0.86253 0.62564 0.96593 0.0
C1669 C 0.85578 0.60012 0.92391 0.0
C1670 C 0.87125 0.57838 0.93449 0.0
C1671 C 0.88105 0.57982 0.96139 0.0
C1672 C 0.87665 0.60326 0.97704 0.0
C1673 C 0.87855 0.55483 0.917 0.0
C1674 C 0.87153 0.52837 0.9256 0.0
C1675 C 0.89248 0.55849 0.89192 0.0
C1676 C 0.90198 0.58575 0.88258 0.0
C1677 C 0.91939 0.60166 0.89908 0.0
C1678 C 0.92795 0.62748 0.89031 0.0
C1679 C 0.91945 0.63751 0.86496 0.0
C1680 C 0.90242 0.62171 0.84829 0.0
C1681 C 0.89375 0.59589 0.85699 0.0
H1682 H 0.92611 0.65751 0.8582 0.0
H1683 H 0.84736 0.40565 0.94412 0.0
H1684 H 0.79925 0.69384 0.0703 0.0
H1685 H 0.76313 0.67693 0.10022 0.0
H1686 H 0.81115 0.69858 0.17099 0.0
H1687 H 0.84748 0.71636 0.14092 0.0
H1688 H 0.78741 0.64013 0.16599 0.0
H1689 H 0.76304 0.73485 0.16685 0.0
H1690 H 0.75432 0.78004 0.14635 0.0
H1691 H 0.68921 0.74607 0.09814 0.0
H1692 H 0.69782 0.70055 0.11803 0.0
H1693 H 0.67164 0.60447 0.24993 0.0
H1694 H 0.71318 0.62456 0.23004 0.0
H1695 H 0.67052 0.63597 0.15354 0.0
H1696 H 0.62893 0.61654 0.17394 0.0
H1697 H 0.69479 0.68147 0.16827 0.0
H1698 H 0.72152 0.5868 0.16251 0.0
H1699 H 0.73064 0.54048 0.18018 0.0
H1700 H 0.79127 0.57286 0.2349 0.0
H1701 H 0.78225 0.61945 0.21779 0.0
C1702 C 0.80209 0.69521 0.09223 0.0
C1703 C 0.82615 0.70631 0.10335 0.0
C1704 C 0.78144 0.68559 0.10925 0.0
C1705 C 0.78461 0.68654 0.13768 0.0
C1706 C 0.80849 0.69774 0.14902 0.0
C1707 C 0.82906 0.70796 0.1319 0.0
C1708 C 0.76288 0.67496 0.15505 0.0
C1709 C 0.76728 0.64938 0.16717 0.0
C1710 C 0.7366 0.68685 0.15575 0.0
C1711 C 0.73123 0.71423 0.1438 0.0
C1712 C 0.74702 0.73695 0.1517 0.0
C1713 C 0.74207 0.76264 0.14022 0.0
C1714 C 0.72126 0.76591 0.12091 0.0
C1715 C 0.70533 0.7435 0.11309 0.0
C1716 C 0.71021 0.71775 0.12449 0.0
C1717 C 0.6716 0.61069 0.22868 0.0
C1718 C 0.64754 0.60889 0.21319 0.0
C1719 C 0.69517 0.62219 0.21736 0.0
C1720 C 0.69498 0.6317 0.19027 0.0
C1721 C 0.6711 0.62885 0.17451 0.0
C1722 C 0.64751 0.6176 0.18595 0.0
C1723 C 0.71899 0.64614 0.17874 0.0
C1724 C 0.71499 0.67231 0.16763 0.0
C1725 C 0.74556 0.63463 0.17878 0.0
C1726 C 0.75097 0.60664 0.18911 0.0
C1727 C 0.73662 0.58407 0.17849 0.0
C1728 C 0.74181 0.55777 0.18836 0.0
C1729 C 0.76146 0.55374 0.20871 0.0
C1730 C 0.77602 0.57602 0.21917 0.0
C1731 C 0.77089 0.60237 0.20939 0.0
H1732 H 0.76546 0.53336 0.21632 0.0
H1733 H 0.71745 0.78582 0.11205 0.0
H1734 H 0.67356 0.40345 0.43724 0.0
H1735 H 0.66191 0.44997 0.42209 0.0
H1736 H 0.60421 0.45712 0.48849 0.0
H1737 H 0.61624 0.41102 0.50375 0.0
H1738 H 0.58119 0.46785 0.43892 0.0
H1739 H 0.65977 0.49602 0.48916 0.0
H1740 H 0.70798 0.49501 0.50389 0.0
H1741 H 0.73389 0.5134 0.42207 0.0
H1742 H 0.68584 0.51412 0.40673 0.0
H1743 H 0.54293 0.59667 0.38481 0.0
H1744 H 0.56015 0.56488 0.41957 0.0
H1745 H 0.62753 0.54356 0.36671 0.0
H1746 H 0.61088 0.57534 0.33237 0.0
H1747 H 0.6441 0.54481 0.41859 0.0
H1748 H 0.56866 0.50605 0.36688 0.0
H1749 H 0.52137 0.50324 0.34949 0.0
H1750 H 0.4907 0.50234 0.43174 0.0
H1751 H 0.53786 0.50541 0.44962 0.0
C1752 C 0.65874 0.41526 0.4487 0.0
C1753 C 0.64512 0.4036 0.47103 0.0
C1754 C 0.65217 0.44174 0.44019 0.0
C1755 C 0.63211 0.45689 0.45416 0.0
C1756 C 0.61956 0.44567 0.47734 0.0
C1757 C 0.6262 0.41932 0.48584 0.0
C1758 C 0.62231 0.48321 0.44302 0.0
C1759 C 0.59479 0.48498 0.43511 0.0
C1760 C 0.64021 0.50526 0.43762 0.0
C1761 C 0.66917 0.50495 0.44676 0.0
C1762 C 0.67574 0.49964 0.47425 0.0
C1763 C 0.70305 0.49916 0.48272 0.0
C1764 C 0.72399 0.50409 0.46392 0.0
C1765 C 0.71765 0.50958 0.43661 0.0
C1766 C 0.69038 0.51007 0.42802 0.0
C1767 C 0.56169 0.58558 0.38089 0.0
C1768 C 0.57535 0.58818 0.35573 0.0
C1769 C 0.57146 0.56741 0.4007 0.0
C1770 C 0.59492 0.55163 0.39553 0.0
C1771 C 0.60941 0.55553 0.37113 0.0
C1772 C 0.59972 0.57357 0.35142 0.0
C1773 C 0.60317 0.52909 0.41393 0.0
C1774 C 0.63037 0.52798 0.42314 0.0
C1775 C 0.58508 0.50741 0.42025 0.0
C1776 C 0.55672 0.50626 0.40957 0.0
C1777 C 0.55181 0.50552 0.38124 0.0
C1778 C 0.52505 0.50379 0.37131 0.0
C1779 C 0.50307 0.50253 0.38951 0.0
C1780 C 0.50777 0.50324 0.41768 0.0
C1781 C 0.5345 0.50498 0.42773 0.0
H1782 H 0.4824 0.50095 0.38177 0.0
H1783 H 0.74512 0.50371 0.47052 0.0
H1784 H 0.25173 0.33201 0.13624 0.0
H1785 H 0.27158 0.28791 0.14899 0.0
H1786 H 0.34108 0.30422 0.09714 0.0
H1787 H 0.32136 0.34888 0.08486 0.0
H1788 H 0.32157 0.24905 0.09513 0.0
H1789 H 0.34615 0.3184 0.16065 0.0
H1790 H 0.33682 0.35524 0.19375 0.0
H1791 H 0.29172 0.29926 0.24406 0.0
H1792 H 0.29981 0.26225 0.21068 0.0
H1793 H 0.42598 0.16791 0.15093 0.0
H1794 H 0.39685 0.20455 0.13409 0.0
H1795 H 0.33628 0.18505 0.1952 0.0
H1796 H 0.36559 0.14826 0.21251 0.0
H1797 H 0.3469 0.23946 0.19297 0.0
H1798 H 0.32421 0.16933 0.12964 0.0
H1799 H 0.3331 0.1321 0.09685 0.0
H1800 H 0.37433 0.18833 0.0435 0.0
H1801 H 0.36608 0.22585 0.07621 0.0
C1802 C 0.27132 0.32621 0.12775 0.0
C1803 C 0.28562 0.34406 0.1104 0.0
C1804 C 0.28246 0.30097 0.13479 0.0
C1805 C 0.30796 0.29312 0.12435 0.0
C1806 C 0.3214 0.31008 0.10548 0.0
C1807 C 0.31026 0.33546 0.09854 0.0
C1808 C 0.32147 0.26823 0.13475 0.0
C1809 C 0.32734 0.24696 0.11645 0.0
C1810 C 0.32816 0.26537 0.16277 0.0
C1811 C 0.32325 0.28762 0.18291 0.0
C1812 C 0.33388 0.314 0.17855 0.0
C1813 C 0.32879 0.33493 0.19735 0.0
C1814 C 0.31348 0.32963 0.22088 0.0
C1815 C 0.30331 0.30337 0.22567 0.0
C1816 C 0.3081 0.28242 0.20679 0.0
C1817 C 0.4064 0.17125 0.16075 0.0
C1818 C 0.39808 0.15519 0.18309 0.0
C1819 C 0.38971 0.19212 0.15097 0.0
C1820 C 0.36429 0.19728 0.16319 0.0
C1821 C 0.35581 0.18127 0.18544 0.0
C1822 C 0.37253 0.16027 0.19525 0.0
C1823 C 0.34732 0.22028 0.15331 0.0
C1824 C 0.34083 0.2413 0.17171 0.0
C1825 C 0.33993 0.22282 0.12543 0.0
C1826 C 0.34469 0.20039 0.1055 0.0
C1827 C 0.33535 0.17373 0.11101 0.0
C1828 C 0.34025 0.15257 0.09241 0.0
C1829 C 0.35431 0.15783 0.06812 0.0
C1830 C 0.36344 0.18429 0.06234 0.0
C1831 C 0.35863 0.20552 0.08089 0.0
H1832 H 0.35811 0.14142 0.05375 0.0
H1833 H 0.30964 0.34584 0.23546 0.0
H1834 H 0.87264 0.33435 0.77985 0.0
H1835 H 0.84236 0.29767 0.79599 0.0
H1836 H 0.90231 0.27482 0.8565 0.0
H1837 H 0.93255 0.31092 0.84061 0.0
H1838 H 0.88329 0.23106 0.8274 0.0
H1839 H 0.84648 0.3102 0.8746 0.0
H1840 H 0.82647 0.35643 0.87661 0.0
H1841 H 0.7584 0.32951 0.82801 0.0
H1842 H 0.77819 0.28318 0.82544 0.0
H1843 H 0.81241 0.13845 0.9099 0.0
H1844 H 0.83652 0.18066 0.89693 0.0
H1845 H 0.77038 0.20138 0.84223 0.0
H1846 H 0.74613 0.15965 0.85593 0.0
H1847 H 0.7907 0.24654 0.86599 0.0
H1848 H 0.82547 0.1687 0.81816 0.0
H1849 H 0.84447 0.12222 0.81371 0.0
H1850 H 0.91539 0.14641 0.85958 0.0
H1851 H 0.89657 0.19294 0.86472 0.0
C1852 C 0.87928 0.32154 0.79664 0.0
C1853 C 0.905 0.3255 0.80892 0.0
C1854 C 0.86195 0.30071 0.80586 0.0
C1855 C 0.87013 0.28369 0.82749 0.0
C1856 C 0.89569 0.28772 0.83976 0.0
C1857 C 0.91292 0.30842 0.83064 0.0
C1858 C 0.85259 0.26109 0.83718 0.0
C1859 C 0.86317 0.23447 0.83611 0.0
C1860 C 0.82603 0.26554 0.84771 0.0
C1861 C 0.81396 0.2933 0.84959 0.0
C1862 C 0.82734 0.31418 0.86418 0.0
C1863 C 0.81602 0.3404 0.86546 0.0
C1864 C 0.79121 0.34592 0.85239 0.0
C1865 C 0.77761 0.3252 0.83813 0.0
C1866 C 0.78886 0.29896 0.83679 0.0
C1867 C 0.80301 0.15239 0.89552 0.0
C1868 C 0.77799 0.14581 0.88325 0.0
C1869 C 0.81669 0.17632 0.88804 0.0
C1870 C 0.80547 0.19378 0.86814 0.0
C1871 C 0.77948 0.1881 0.85744 0.0
C1872 C 0.76579 0.16429 0.86505 0.0
C1873 C 0.82173 0.21661 0.85681 0.0
C1874 C 0.81085 0.24317 0.85733 0.0
C1875 C 0.84793 0.21211 0.8454 0.0
C1876 C 0.85949 0.18424 0.84205 0.0
C1877 C 0.84503 0.16406 0.82746 0.0
C1878 C 0.85577 0.13771 0.8248 0.0
C1879 C 0.8811 0.13136 0.8364 0.0
C1880 C 0.89576 0.15136 0.85063 0.0
C1881 C 0.88507 0.17773 0.85342 0.0
H1882 H 0.88939 0.11094 0.83431 0.0
H1883 H 0.7825 0.36624 0.85337 0.0
H1884 H 0.14824 0.58103 0.13351 0.0
H1885 H 0.10692 0.60633 0.12107 0.0
H1886 H 0.06022 0.55852 0.17872 0.0
H1887 H 0.10144 0.53235 0.19017 0.0
H1888 H 0.03369 0.56154 0.13194 0.0
H1889 H 0.07654 0.62555 0.19176 0.0
H1890 H 0.11392 0.65415 0.20995 0.0
H1891 H 0.11792 0.69799 0.13402 0.0
H1892 H 0.0808 0.66939 0.11524 0.0
H1893 H 0.94376 0.6949 0.12448 0.0
H1894 H 0.97943 0.66665 0.14475 0.0
H1895 H 0.98334 0.61847 0.07084 0.0
H1896 H 0.94681 0.64629 0.05078 0.0
H1897 H 0.02937 0.66283 0.13005 0.0
H1898 H 0.00822 0.55514 0.08458 0.0
H1899 H 0.96882 0.52664 0.07101 0.0
H1900 H 0.91734 0.57029 0.12717 0.0
H1901 H 0.95648 0.59879 0.14134 0.0
C1902 C 0.12911 0.57588 0.14335 0.0
C1903 C 0.1278 0.55446 0.16237 0.0
C1904 C 0.10558 0.59051 0.1365 0.0
C1905 C 0.08045 0.58433 0.14899 0.0
C1906 C 0.07935 0.56354 0.16873 0.0
C1907 C 0.10287 0.54881 0.17545 0.0
C1908 C 0.05522 0.599 0.14078 0.0
C1909 C 0.03267 0.5837 0.13162 0.0
C1910 C 0.05372 0.62788 0.14081 0.0
C1911 C 0.07603 0.64516 0.15202 0.0
C1912 C 0.08553 0.64115 0.17887 0.0
C1913 C 0.10664 0.65739 0.1893 0.0
C1914 C 0.11832 0.67783 0.17313 0.0
C1915 C 0.10887 0.68213 0.14652 0.0
C1916 C 0.08776 0.66593 0.13598 0.0
C1917 C 0.95192 0.67801 0.1127 0.0
C1918 C 0.94257 0.67277 0.08603 0.0
C1919 C 0.97237 0.66192 0.12428 0.0
C1920 C 0.98413 0.64043 0.10936 0.0
C1921 C 0.97429 0.63467 0.08294 0.0
C1922 C 0.95345 0.65056 0.07146 0.0
C1923 C 0.00785 0.62541 0.12089 0.0
C1924 C 0.03023 0.64067 0.13053 0.0
C1925 C 0.00887 0.59652 0.12197 0.0
C1926 C 0.98525 0.57927 0.11382 0.0
C1927 C 0.98852 0.55858 0.09411 0.0
C1928 C 0.96622 0.54244 0.0863 0.0
C1929 C 0.94058 0.54671 0.09815 0.0
C1930 C 0.93719 0.56707 0.11792 0.0
C1931 C 0.95941 0.58325 0.12582 0.0
H1932 H 0.92334 0.53421 0.09206 0.0
H1933 H 0.13467 0.69039 0.18124 0.0
H1934 H 0.74769 0.83962 0.41905 0.0
H1935 H 0.72707 0.79906 0.39765 0.0
H1936 H 0.6467 0.83051 0.4161 0.0
H1937 H 0.66758 0.87107 0.43736 0.0
H1938 H 0.65109 0.77318 0.42216 0.0
H1939 H 0.67122 0.84394 0.3551 0.0
H1940 H 0.70175 0.87666 0.3318 0.0
H1941 H 0.75531 0.81112 0.30874 0.0
H1942 H 0.725 0.77791 0.33182 0.0
H1943 H 0.56003 0.72308 0.32725 0.0
H1944 H 0.59043 0.75502 0.35037 0.0
H1945 H 0.66049 0.7096 0.32201 0.0
H1946 H 0.62997 0.67727 0.29845 0.0
H1947 H 0.66732 0.76827 0.32199 0.0
H1948 H 0.64122 0.69646 0.38269 0.0
H1949 H 0.60879 0.66481 0.40478 0.0
H1950 H 0.56614 0.73273 0.44052 0.0
H1951 H 0.59803 0.76484 0.41822 0.0
C1952 C 0.72568 0.83713 0.4194 0.0
C1953 C 0.70904 0.85789 0.43008 0.0
C1954 C 0.71394 0.81426 0.40699 0.0
C1955 C 0.6854 0.81201 0.40509 0.0
C1956 C 0.66878 0.83189 0.41748 0.0
C1957 C 0.68058 0.85485 0.42973 0.0
C1958 C 0.67281 0.79047 0.38803 0.0
C1959 C 0.65459 0.77208 0.40028 0.0
C1960 C 0.67796 0.78873 0.35959 0.0
C1961 C 0.69602 0.80851 0.34539 0.0
C1962 C 0.68955 0.83652 0.34513 0.0
C1963 C 0.70675 0.85512 0.33189 0.0
C1964 C 0.73049 0.846 0.31892 0.0
C1965 C 0.73694 0.81816 0.31886 0.0
C1966 C 0.71971 0.79942 0.33192 0.0
C1967 C 0.58191 0.72006 0.32549 0.0
C1968 C 0.59262 0.69743 0.31138 0.0
C1969 C 0.59923 0.73832 0.33876 0.0
C1970 C 0.62759 0.73425 0.33836 0.0
C1971 C 0.63859 0.71288 0.32267 0.0
C1972 C 0.62116 0.6945 0.30923 0.0
C1973 C 0.64517 0.75134 0.35606 0.0
C1974 C 0.66428 0.76892 0.34396 0.0
C1975 C 0.64085 0.75234 0.38468 0.0
C1976 C 0.62194 0.73308 0.39863 0.0
C1977 C 0.62483 0.70467 0.39512 0.0
C1978 C 0.60655 0.68664 0.40769 0.0
C1979 C 0.5854 0.69675 0.42401 0.0
C1980 C 0.58254 0.72492 0.42786 0.0
C1981 C 0.60073 0.74305 0.41529 0.0
H1982 H 0.57124 0.68276 0.43371 0.0
H1983 H 0.74381 0.86051 0.30887 0.0
H1984 H 0.5723 0.37524 0.54608 0.0
H1985 H 0.53554 0.40345 0.56569 0.0
H1986 H 0.49096 0.33043 0.58723 0.0
H1987 H 0.52722 0.30236 0.56795 0.0
H1988 H 0.45851 0.37027 0.56274 0.0
H1989 H 0.52695 0.36201 0.63454 0.0
H1990 H 0.57336 0.36755 0.65355 0.0
H1991 H 0.56907 0.4542 0.64014 0.0
H1992 H 0.52276 0.4491 0.62068 0.0
H1993 H 0.35796 0.41127 0.65472 0.0
H1994 H 0.39908 0.3881 0.63738 0.0
H1995 H 0.43964 0.46618 0.62962 0.0
H1996 H 0.39873 0.48897 0.64774 0.0
H1997 H 0.47549 0.42788 0.64462 0.0
H1998 H 0.4076 0.43809 0.57512 0.0
H1999 H 0.36167 0.43431 0.55462 0.0
H2000 H 0.36535 0.34684 0.56115 0.0
H2001 H 0.41124 0.35011 0.58193 0.0
C2002 C 0.55453 0.3653 0.5548 0.0
C2003 C 0.55266 0.33663 0.55559 0.0
C2004 C 0.53367 0.38138 0.56607 0.0
C2005 C 0.51068 0.36892 0.578 0.0
C2006 C 0.50854 0.34038 0.57811 0.0
C2007 C 0.52936 0.3244 0.56717 0.0
C2008 C 0.48882 0.38523 0.59098 0.0
C2009 C 0.46216 0.38276 0.58073 0.0
C2010 C 0.49383 0.40207 0.61397 0.0
C2011 C 0.52154 0.40514 0.62588 0.0
C2012 C 0.536 0.38221 0.63544 0.0
C2013 C 0.56227 0.38528 0.64634 0.0
C2014 C 0.57419 0.4112 0.64798 0.0
C2015 C 0.55983 0.43413 0.63881 0.0
C2016 C 0.53357 0.43116 0.62786 0.0
C2017 C 0.37608 0.42315 0.65012 0.0
C2018 C 0.37567 0.45163 0.65267 0.0
C2019 C 0.39937 0.41009 0.63999 0.0
C2020 C 0.42221 0.42552 0.63172 0.0
C2021 C 0.42228 0.45391 0.63586 0.0
C2022 C 0.39909 0.46688 0.64624 0.0
C2023 C 0.44502 0.41237 0.61677 0.0
C2024 C 0.47183 0.41556 0.62653 0.0
C2025 C 0.44025 0.39644 0.59305 0.0
C2026 C 0.41277 0.39436 0.58027 0.0
C2027 C 0.39856 0.41806 0.57231 0.0
C2028 C 0.37254 0.41601 0.56061 0.0
C2029 C 0.36057 0.39036 0.55666 0.0
C2030 C 0.37464 0.3667 0.56426 0.0
C2031 C 0.40068 0.36863 0.57595 0.0
H2032 H 0.3404 0.38882 0.54765 0.0
H2033 H 0.59453 0.41353 0.65641 0.0
H2034 H 0.17628 0.64174 0.5697 0.0
H2035 H 0.15769 0.68645 0.58288 0.0
H2036 H 0.2388 0.71366 0.60496 0.0
H2037 H 0.2571 0.66879 0.59202 0.0
H2038 H 0.20502 0.72098 0.6459 0.0
H2039 H 0.20391 0.74368 0.55175 0.0
H2040 H 0.19505 0.73752 0.50251 0.0
H2041 H 0.1087 0.73361 0.51799 0.0
H2042 H 0.11703 0.73934 0.56739 0.0
H2043 H 0.13887 0.84364 0.69349 0.0
H2044 H 0.17016 0.8138 0.66783 0.0
H2045 H 0.10127 0.76867 0.63616 0.0
H2046 H 0.07014 0.79846 0.66076 0.0
H2047 H 0.13726 0.7781 0.59675 0.0
H2048 H 0.14028 0.7471 0.69154 0.0
H2049 H 0.14961 0.75218 0.74085 0.0
H2050 H 0.23354 0.77138 0.72353 0.0
H2051 H 0.22457 0.76696 0.67405 0.0
C2052 C 0.19007 0.65765 0.57658 0.0
C2053 C 0.21792 0.65206 0.58015 0.0
C2054 C 0.17956 0.68315 0.5841 0.0
C2055 C 0.19689 0.70344 0.59492 0.0
C2056 C 0.22505 0.69831 0.59678 0.0
C2057 C 0.23548 0.67281 0.58939 0.0
C2058 C 0.18516 0.72854 0.60726 0.0
C2059 C 0.1907 0.7339 0.63494 0.0
C2060 C 0.16631 0.74521 0.59307 0.0
C2061 C 0.16113 0.7418 0.56334 0.0
C2062 C 0.18304 0.74131 0.5447 0.0
C2063 C 0.17811 0.73792 0.51674 0.0
C2064 C 0.15134 0.73514 0.50713 0.0
C2065 C 0.12943 0.73577 0.52546 0.0
C2066 C 0.13425 0.73914 0.55344 0.0
C2067 C 0.13048 0.82735 0.68103 0.0
C2068 C 0.10204 0.82339 0.67919 0.0
C2069 C 0.14835 0.81035 0.66644 0.0
C2070 C 0.13804 0.78897 0.6502 0.0
C2071 C 0.10969 0.78515 0.64838 0.0
C2072 C 0.09191 0.80215 0.66264 0.0
C2073 C 0.15634 0.76975 0.63557 0.0
C2074 C 0.15208 0.76555 0.60747 0.0
C2075 C 0.1764 0.75413 0.64936 0.0
C2076 C 0.18167 0.75705 0.67909 0.0
C2077 C 0.16066 0.75267 0.69823 0.0
C2078 C 0.16589 0.75538 0.72621 0.0
C2079 C 0.19215 0.7621 0.73531 0.0
C2080 C 0.21323 0.76612 0.71645 0.0
C2081 C 0.20806 0.76361 0.68844 0.0
H2082 H 0.19616 0.76422 0.75697 0.0
H2083 H 0.14756 0.73252 0.48548 0.0
H2084 H 0.41035 0.86473 0.92327 0.0
H2085 H 0.4443 0.89793 0.90636 0.0
H2086 H 0.50573 0.83465 0.90566 0.0
H2087 H 0.47223 0.80167 0.92198 0.0
H2088 H 0.52441 0.88552 0.92665 0.0
H2089 H 0.47256 0.84722 0.84927 0.0
H2090 H 0.42945 0.83917 0.82429 0.0
H2091 H 0.41582 0.92576 0.81925 0.0
H2092 H 0.45869 0.93427 0.84458 0.0
H2093 H 0.63165 0.90674 0.83893 0.0
H2094 H 0.58932 0.88736 0.85764 0.0
H2095 H 0.54619 0.96148 0.83683 0.0
H2096 H 0.58861 0.98039 0.81742 0.0
H2097 H 0.51368 0.91604 0.83042 0.0
H2098 H 0.5683 0.95544 0.90103 0.0
H2099 H 0.61155 0.96449 0.92541 0.0
H2100 H 0.61939 0.87908 0.94402 0.0
H2101 H 0.5761 0.86951 0.91981 0.0
C2102 C 0.43121 0.85813 0.91982 0.0
C2103 C 0.43867 0.83065 0.92361 0.0
C2104 C 0.45049 0.87702 0.91019 0.0
C2105 C 0.47742 0.86861 0.90474 0.0
C2106 C 0.48507 0.84151 0.90983 0.0
C2107 C 0.46586 0.82267 0.91897 0.0
C2108 C 0.49755 0.88699 0.89177 0.0
C2109 C 0.52204 0.89238 0.90569 0.0
C2110 C 0.49407 0.89652 0.8647 0.0
C2111 C 0.46861 0.89137 0.84908 0.0
C2112 C 0.46026 0.86452 0.84299 0.0
C2113 C 0.4359 0.85988 0.82876 0.0
C2114 C 0.41986 0.88194 0.82026 0.0
C2115 C 0.42823 0.90869 0.82589 0.0
C2116 C 0.45255 0.91344 0.84018 0.0
C2117 C 0.61282 0.9183 0.83753 0.0
C2118 C 0.61297 0.94473 0.82666 0.0
C2119 C 0.58882 0.9075 0.84845 0.0
C2120 C 0.56482 0.9233 0.84917 0.0
C2121 C 0.56451 0.94904 0.83655 0.0
C2122 C 0.58855 0.95972 0.82536 0.0
C2123 C 0.54094 0.91358 0.86497 0.0
C2124 C 0.51581 0.90991 0.85163 0.0
C2125 C 0.54366 0.90596 0.89275 0.0
C2126 C 0.56904 0.91174 0.90846 0.0
C2127 C 0.57924 0.93858 0.91032 0.0
C2128 C 0.60377 0.9438 0.92409 0.0
C2129 C 0.61833 0.92232 0.936 0.0
C2130 C 0.60813 0.89566 0.93465 0.0
C2131 C 0.58352 0.89035 0.92104 0.0
H2132 H 0.63749 0.92635 0.94635 0.0
H2133 H 0.40099 0.8783 0.80926 0.0
H2134 H 0.89288 0.01371 0.333 0.0
H2135 H 0.93928 0.03211 0.33963 0.0
H2136 H 0.90474 0.10738 0.37013 0.0
H2137 H 0.85849 0.0888 0.36343 0.0
H2138 H 0.95384 0.11326 0.33591 0.0
H2139 H 0.92191 0.06356 0.42134 0.0
H2140 H 0.9018 0.02138 0.44065 0.0
H2141 H 0.9624 0.97321 0.3992 0.0
H2142 H 0.98325 0.01515 0.38039 0.0
H2143 H 0.02318 0.1835 0.43295 0.0
H2144 H 0.99029 0.15391 0.41034 0.0
H2145 H 0.05075 0.08988 0.40512 0.0
H2146 H 0.08405 0.1196 0.42868 0.0
H2147 H 0.9979 0.07044 0.41682 0.0
H2148 H 0.04006 0.12582 0.34965 0.0
H2149 H 0.05896 0.16833 0.33027 0.0
H2150 H 0.97916 0.2049 0.33157 0.0
H2151 H 0.95982 0.16278 0.3514 0.0
C2152 C 0.89546 0.03451 0.34017 0.0
C2153 C 0.8726 0.05017 0.34747 0.0
C2154 C 0.92176 0.0449 0.3441 0.0
C2155 C 0.92529 0.071 0.35545 0.0
C2156 C 0.90233 0.08727 0.36112 0.0
C2157 C 0.87607 0.07681 0.35729 0.0
C2158 C 0.95242 0.0802 0.36482 0.0
C2159 C 0.96373 0.10385 0.35338 0.0
C2160 C 0.96562 0.06729 0.38703 0.0
C2161 C 0.95418 0.04235 0.39968 0.0
C2162 C 0.93109 0.04394 0.41669 0.0
C2163 C 0.9196 0.02012 0.42757 0.0
C2164 C 0.9309 0.99463 0.42129 0.0
C2165 C 0.95382 0.99295 0.40429 0.0
C2166 C 0.96561 0.01673 0.39369 0.0
C2167 C 0.02946 0.16302 0.42729 0.0
C2168 C 0.05625 0.15395 0.43209 0.0
C2169 C 0.01068 0.14617 0.41429 0.0
C2170 C 0.0184 0.12008 0.40532 0.0
C2171 C 0.0446 0.11014 0.41161 0.0
C2172 C 0.0635 0.12704 0.42505 0.0
C2173 C 0.99893 0.10421 0.38851 0.0
C2174 C 0.98886 0.07937 0.39864 0.0
C2175 C 0.98715 0.11587 0.36473 0.0
C2176 C 0.99849 0.14109 0.35207 0.0
C2177 C 0.02654 0.14295 0.34589 0.0
C2178 C 0.03734 0.16699 0.33484 0.0
C2179 C 0.02028 0.18931 0.3297 0.0
C2180 C 0.99235 0.18758 0.33553 0.0
C2181 C 0.98144 0.16359 0.34663 0.0
H2182 H 0.02869 0.20793 0.3212 0.0
H2183 H 0.92187 0.97618 0.42954 0.0
loop_
_geom_bond_atom_site_label_1
_geom_bond_atom_site_label_2
_geom_bond_distance
_geom_bond_site_symmetry_2
_ccdc_geom_bond_type
Zn0 O1 2.055 . S
Zn0 O8 2.046 . S
Zn0 N16 2.036 . S
Zn0 O28 2.053 . S
Zn0 O30 2.066 . S
O1 Zn0 2.055 . S
O1 C4 1.259 . S
C2 O30 1.256 . S
C2 O31 1.244 . S
Zn3 O5 2.046 . S
Zn3 O7 2.055 . S
Zn3 N9 2.036 . S
Zn3 O27 2.066 . S
Zn3 O31 2.053 . S
C4 O1 1.259 . S
C4 O5 1.254 . S
O5 Zn3 2.046 . S
O5 C4 1.254 . S
C6 O27 1.256 . S
C6 O28 1.244 . S
O7 Zn3 2.055 . S
O7 C29 1.259 . S
O8 Zn0 2.046 . S
O8 C29 1.254 . S
N9 Zn3 2.036 . S
N9 C10 1.298 . S
N9 N12 1.398 . S
C10 N9 1.298 . S
C10 N13 1.367 . S
C10 C23 1.481 . S
C11 N12 1.299 . S
C11 N13 1.379 . S
N12 N9 1.398 . S
N12 C11 1.299 . S
N13 C10 1.367 . S
N13 C11 1.379 . S
C14 N16 1.298 . S
C14 N18 1.367 . S
C14 C22 1.481 . S
C15 N17 1.299 . S
C15 N18 1.379 . S
N16 Zn0 2.036 . S
N16 C14 1.298 . S
N16 N17 1.398 . S
N17 C15 1.299 . S
N17 N16 1.398 . S
N18 C14 1.367 . S
N18 C15 1.379 . S
H19 C22 0.980 . S
H20 C22 0.981 . S
H21 C22 0.981 . S
C22 C14 1.481 . S
C22 H19 0.980 . S
C22 H20 0.981 . S
C22 H21 0.981 . S
C23 C10 1.481 . S
C23 H24 0.980 . S
C23 H25 0.981 . S
C23 H26 0.981 . S
H24 C23 0.980 . S
H25 C23 0.981 . S
H26 C23 0.981 . S
O27 Zn3 2.066 . S
O27 C6 1.256 . S
O28 Zn0 2.053 . S
O28 C6 1.244 . S
C29 O7 1.259 . S
C29 O8 1.254 . S
O30 Zn0 2.066 . S
O30 C2 1.256 . S
O31 C2 1.244 . S
O31 Zn3 2.053 . S
Zn32 O33 2.055 1_455 S
Zn32 O40 2.046 1_455 S
Zn32 N48 2.036 1_455 S
Zn32 O60 2.053 . S
Zn32 O62 2.066 . S
O33 Zn32 2.055 1_655 S
O33 C36 1.259 . S
C34 O62 1.256 . S
C34 O63 1.244 . S
Zn35 O37 2.046 . S
Zn35 O39 2.055 . S
Zn35 N41 2.036 . S
Zn35 O59 2.066 . S
Zn35 O63 2.053 . S
C36 O33 1.259 . S
C36 O37 1.254 1_655 S
O37 Zn35 2.046 . S
O37 C36 1.254 1_455 S
C38 O59 1.256 . S
C38 O60 1.244 . S
O39 Zn35 2.055 . S
O39 C61 1.259 . S
O40 Zn32 2.046 1_655 S
O40 C61 1.254 1_655 S
N41 Zn35 2.036 . S
N41 C42 1.298 . S
N41 N44 1.398 . S
C42 N41 1.298 . S
C42 N45 1.367 . S
C42 C55 1.481 . S
C43 N44 1.299 . S
C43 N45 1.379 . S
N44 N41 1.398 . S
N44 C43 1.299 . S
N45 C42 1.367 . S
N45 C43 1.379 . S
C46 N48 1.298 . S
C46 N50 1.367 . S
C46 C54 1.481 . S
C47 N49 1.299 . S
C47 N50 1.379 . S
N48 Zn32 2.036 1_655 S
N48 C46 1.298 . S
N48 N49 1.398 . S
N49 C47 1.299 . S
N49 N48 1.398 . S
N50 C46 1.367 . S
N50 C47 1.379 . S
H51 C54 0.980 . S
H52 C54 0.981 . S
H53 C54 0.981 . S
C54 C46 1.481 . S
C54 H51 0.980 . S
C54 H52 0.981 . S
C54 H53 0.981 . S
C55 C42 1.481 . S
C55 H56 0.980 . S
C55 H57 0.981 . S
C55 H58 0.981 . S
H56 C55 0.980 . S
H57 C55 0.981 . S
H58 C55 0.981 . S
O59 Zn35 2.066 . S
O59 C38 1.256 . S
O60 Zn32 2.053 . S
O60 C38 1.244 . S
C61 O39 1.259 . S
C61 O40 1.254 1_455 S
O62 Zn32 2.066 . S
O62 C34 1.256 . S
O63 C34 1.244 . S
O63 Zn35 2.053 . S
Zn64 O65 2.055 1_556 S
Zn64 O72 2.046 1_556 S
Zn64 N80 2.036 1_556 S
Zn64 O92 2.053 . S
Zn64 O94 2.066 . S
O65 Zn64 2.055 1_554 S
O65 C68 1.259 . S
C66 O94 1.256 . S
C66 O95 1.244 . S
Zn67 O69 2.046 . S
Zn67 O71 2.055 . S
Zn67 N73 2.036 . S
Zn67 O91 2.066 . S
Zn67 O95 2.053 . S
C68 O65 1.259 . S
C68 O69 1.254 1_554 S
O69 Zn67 2.046 . S
O69 C68 1.254 1_556 S
C70 O91 1.256 . S
C70 O92 1.244 . S
O71 Zn67 2.055 . S
O71 C93 1.259 . S
O72 Zn64 2.046 1_554 S
O72 C93 1.254 1_554 S
N73 Zn67 2.036 . S
N73 C74 1.298 . S
N73 N76 1.398 . S
C74 N73 1.298 . S
C74 N77 1.367 . S
C74 C87 1.481 . S
C75 N76 1.299 . S
C75 N77 1.379 . S
N76 N73 1.398 . S
N76 C75 1.299 . S
N77 C74 1.367 . S
N77 C75 1.379 . S
C78 N80 1.298 . S
C78 N82 1.367 . S
C78 C86 1.481 . S
C79 N81 1.299 . S
C79 N82 1.379 . S
N80 Zn64 2.036 1_554 S
N80 C78 1.298 . S
N80 N81 1.398 . S
N81 C79 1.299 . S
N81 N80 1.398 . S
N82 C78 1.367 . S
N82 C79 1.379 . S
H83 C86 0.980 . S
H84 C86 0.981 . S
H85 C86 0.981 . S
C86 C78 1.481 . S
C86 H83 0.980 . S
C86 H84 0.981 . S
C86 H85 0.981 . S
C87 C74 1.481 . S
C87 H88 0.980 . S
C87 H89 0.981 . S
C87 H90 0.981 . S
H88 C87 0.980 . S
H89 C87 0.981 . S
H90 C87 0.981 . S
O91 Zn67 2.066 . S
O91 C70 1.256 . S
O92 Zn64 2.053 . S
O92 C70 1.244 . S
C93 O71 1.259 . S
C93 O72 1.254 1_556 S
O94 Zn64 2.066 . S
O94 C66 1.256 . S
O95 C66 1.244 . S
O95 Zn67 2.053 . S
Zn96 O97 2.055 . S
Zn96 O104 2.046 . S
Zn96 N112 2.036 . S
Zn96 O124 2.053 . S
Zn96 O126 2.066 . S
O97 Zn96 2.055 . S
O97 C100 1.259 . S
C98 O126 1.256 . S
C98 O127 1.244 . S
Zn99 O101 2.046 . S
Zn99 O103 2.055 . S
Zn99 N105 2.036 . S
Zn99 O123 2.066 . S
Zn99 O127 2.053 . S
C100 O97 1.259 . S
C100 O101 1.254 . S
O101 Zn99 2.046 . S
O101 C100 1.254 . S
C102 O123 1.256 . S
C102 O124 1.244 . S
O103 Zn99 2.055 . S
O103 C125 1.259 . S
O104 Zn96 2.046 . S
O104 C125 1.254 . S
N105 Zn99 2.036 . S
N105 C106 1.298 . S
N105 N108 1.398 . S
C106 N105 1.298 . S
C106 N109 1.367 . S
C106 C119 1.481 . S
C107 N108 1.299 . S
C107 N109 1.379 . S
N108 N105 1.398 . S
N108 C107 1.299 . S
N109 C106 1.367 . S
N109 C107 1.379 . S
C110 N112 1.298 . S
C110 N114 1.367 . S
C110 C118 1.481 . S
C111 N113 1.299 . S
C111 N114 1.379 . S
N112 Zn96 2.036 . S
N112 C110 1.298 . S
N112 N113 1.398 . S
N113 C111 1.299 . S
N113 N112 1.398 . S
N114 C110 1.367 . S
N114 C111 1.379 . S
H115 C118 0.980 . S
H116 C118 0.981 . S
H117 C118 0.981 . S
C118 C110 1.481 . S
C118 H115 0.980 . S
C118 H116 0.981 . S
C118 H117 0.981 . S
C119 C106 1.481 . S
C119 H120 0.980 . S
C119 H121 0.981 . S
C119 H122 0.981 . S
H120 C119 0.980 . S
H121 C119 0.981 . S
H122 C119 0.981 . S
O123 Zn99 2.066 . S
O123 C102 1.256 . S
O124 Zn96 2.053 . S
O124 C102 1.244 . S
C125 O103 1.259 . S
C125 O104 1.254 . S
O126 Zn96 2.066 . S
O126 C98 1.256 . S
O127 C98 1.244 . S
O127 Zn99 2.053 . S
Zn128 O129 2.055 . S
Zn128 O136 2.046 . S
Zn128 N144 2.036 . S
Zn128 O156 2.053 . S
Zn128 O158 2.066 . S
O129 Zn128 2.055 . S
O129 C132 1.259 . S
C130 O158 1.256 . S
C130 O159 1.244 . S
Zn131 O133 2.046 . S
Zn131 O135 2.055 . S
Zn131 N137 2.036 . S
Zn131 O155 2.066 . S
Zn131 O159 2.053 . S
C132 O129 1.259 . S
C132 O133 1.254 . S
O133 Zn131 2.046 . S
O133 C132 1.254 . S
C134 O155 1.256 . S
C134 O156 1.244 . S
O135 Zn131 2.055 . S
O135 C157 1.259 . S
O136 Zn128 2.046 . S
O136 C157 1.254 . S
N137 Zn131 2.036 . S
N137 C138 1.298 . S
N137 N140 1.398 . S
C138 N137 1.298 . S
C138 N141 1.367 . S
C138 C151 1.481 . S
C139 N140 1.299 . S
C139 N141 1.379 . S
N140 N137 1.398 . S
N140 C139 1.299 . S
N141 C138 1.367 . S
N141 C139 1.379 . S
C142 N144 1.298 . S
C142 N146 1.367 . S
C142 C150 1.481 . S
C143 N145 1.299 . S
C143 N146 1.379 . S
N144 Zn128 2.036 . S
N144 C142 1.298 . S
N144 N145 1.398 . S
N145 C143 1.299 . S
N145 N144 1.398 . S
N146 C142 1.367 . S
N146 C143 1.379 . S
H147 C150 0.980 . S
H148 C150 0.981 . S
H149 C150 0.981 . S
C150 C142 1.481 . S
C150 H147 0.980 . S
C150 H148 0.981 . S
C150 H149 0.981 . S
C151 C138 1.481 . S
C151 H152 0.980 . S
C151 H153 0.981 . S
C151 H154 0.981 . S
H152 C151 0.980 . S
H153 C151 0.981 . S
H154 C151 0.981 . S
O155 Zn131 2.066 . S
O155 C134 1.256 . S
O156 Zn128 2.053 . S
O156 C134 1.244 . S
C157 O135 1.259 . S
C157 O136 1.254 . S
O158 Zn128 2.066 . S
O158 C130 1.256 . S
O159 C130 1.244 . S
O159 Zn131 2.053 . S
Zn160 O161 2.055 . S
Zn160 O168 2.046 . S
Zn160 N176 2.036 . S
Zn160 O188 2.053 . S
Zn160 O190 2.066 . S
O161 Zn160 2.055 . S
O161 C164 1.259 . S
C162 O190 1.256 . S
C162 O191 1.244 . S
Zn163 O165 2.046 1_655 S
Zn163 O167 2.055 1_655 S
Zn163 N169 2.036 1_655 S
Zn163 O187 2.066 . S
Zn163 O191 2.053 . S
C164 O161 1.259 . S
C164 O165 1.254 1_655 S
O165 Zn163 2.046 1_455 S
O165 C164 1.254 1_455 S
C166 O187 1.256 . S
C166 O188 1.244 . S
O167 Zn163 2.055 1_455 S
O167 C189 1.259 . S
O168 Zn160 2.046 . S
O168 C189 1.254 1_655 S
N169 Zn163 2.036 1_455 S
N169 C170 1.298 . S
N169 N172 1.398 . S
C170 N169 1.298 . S
C170 N173 1.367 . S
C170 C183 1.481 . S
C171 N172 1.299 . S
C171 N173 1.379 . S
N172 N169 1.398 . S
N172 C171 1.299 . S
N173 C170 1.367 . S
N173 C171 1.379 . S
C174 N176 1.298 . S
C174 N178 1.367 . S
C174 C182 1.481 . S
C175 N177 1.299 . S
C175 N178 1.379 . S
N176 Zn160 2.036 . S
N176 C174 1.298 . S
N176 N177 1.398 . S
N177 C175 1.299 . S
N177 N176 1.398 . S
N178 C174 1.367 . S
N178 C175 1.379 . S
H179 C182 0.980 . S
H180 C182 0.981 . S
H181 C182 0.981 . S
C182 C174 1.481 . S
C182 H179 0.980 . S
C182 H180 0.981 . S
C182 H181 0.981 . S
C183 C170 1.481 . S
C183 H184 0.980 . S
C183 H185 0.981 . S
C183 H186 0.981 . S
H184 C183 0.980 . S
H185 C183 0.981 . S
H186 C183 0.981 . S
O187 Zn163 2.066 . S
O187 C166 1.256 . S
O188 Zn160 2.053 . S
O188 C166 1.244 . S
C189 O167 1.259 . S
C189 O168 1.254 1_455 S
O190 Zn160 2.066 . S
O190 C162 1.256 . S
O191 C162 1.244 . S
O191 Zn163 2.053 . S
Zn192 O193 2.055 . S
Zn192 O200 2.046 . S
Zn192 N208 2.036 . S
Zn192 O220 2.053 . S
Zn192 O222 2.066 . S
O193 Zn192 2.055 . S
O193 C196 1.259 . S
C194 O222 1.256 . S
C194 O223 1.244 . S
Zn195 O197 2.046 1_554 S
Zn195 O199 2.055 1_554 S
Zn195 N201 2.036 1_554 S
Zn195 O219 2.066 . S
Zn195 O223 2.053 . S
C196 O193 1.259 . S
C196 O197 1.254 1_554 S
O197 Zn195 2.046 1_556 S
O197 C196 1.254 1_556 S
C198 O219 1.256 . S
C198 O220 1.244 . S
O199 Zn195 2.055 1_556 S
O199 C221 1.259 . S
O200 Zn192 2.046 . S
O200 C221 1.254 1_554 S
N201 Zn195 2.036 1_556 S
N201 C202 1.298 . S
N201 N204 1.398 . S
C202 N201 1.298 . S
C202 N205 1.367 . S
C202 C215 1.481 . S
C203 N204 1.299 . S
C203 N205 1.379 . S
N204 N201 1.398 . S
N204 C203 1.299 . S
N205 C202 1.367 . S
N205 C203 1.379 . S
C206 N208 1.298 . S
C206 N210 1.367 . S
C206 C214 1.481 . S
C207 N209 1.299 . S
C207 N210 1.379 . S
N208 Zn192 2.036 . S
N208 C206 1.298 . S
N208 N209 1.398 . S
N209 C207 1.299 . S
N209 N208 1.398 . S
N210 C206 1.367 . S
N210 C207 1.379 . S
H211 C214 0.980 . S
H212 C214 0.981 . S
H213 C214 0.981 . S
C214 C206 1.481 . S
C214 H211 0.980 . S
C214 H212 0.981 . S
C214 H213 0.981 . S
C215 C202 1.481 . S
C215 H216 0.980 . S
C215 H217 0.981 . S
C215 H218 0.981 . S
H216 C215 0.980 . S
H217 C215 0.981 . S
H218 C215 0.981 . S
O219 Zn195 2.066 . S
O219 C198 1.256 . S
O220 Zn192 2.053 . S
O220 C198 1.244 . S
C221 O199 1.259 . S
C221 O200 1.254 1_556 S
O222 Zn192 2.066 . S
O222 C194 1.256 . S
O223 C194 1.244 . S
O223 Zn195 2.053 . S
Zn224 O225 2.055 . S
Zn224 O232 2.046 . S
Zn224 N240 2.036 . S
Zn224 O252 2.053 . S
Zn224 O254 2.066 . S
O225 Zn224 2.055 . S
O225 C228 1.259 . S
C226 O254 1.256 . S
C226 O255 1.244 . S
Zn227 O229 2.046 . S
Zn227 O231 2.055 . S
Zn227 N233 2.036 . S
Zn227 O251 2.066 . S
Zn227 O255 2.053 . S
C228 O225 1.259 . S
C228 O229 1.254 . S
O229 Zn227 2.046 . S
O229 C228 1.254 . S
C230 O251 1.256 . S
C230 O252 1.244 . S
O231 Zn227 2.055 . S
O231 C253 1.259 . S
O232 Zn224 2.046 . S
O232 C253 1.254 . S
N233 Zn227 2.036 . S
N233 C234 1.298 . S
N233 N236 1.398 . S
C234 N233 1.298 . S
C234 N237 1.367 . S
C234 C247 1.481 . S
C235 N236 1.299 . S
C235 N237 1.379 . S
N236 N233 1.398 . S
N236 C235 1.299 . S
N237 C234 1.367 . S
N237 C235 1.379 . S
C238 N240 1.298 . S
C238 N242 1.367 . S
C238 C246 1.481 . S
C239 N241 1.299 . S
C239 N242 1.379 . S
N240 Zn224 2.036 . S
N240 C238 1.298 . S
N240 N241 1.398 . S
N241 C239 1.299 . S
N241 N240 1.398 . S
N242 C238 1.367 . S
N242 C239 1.379 . S
H243 C246 0.980 . S
H244 C246 0.981 . S
H245 C246 0.981 . S
C246 C238 1.481 . S
C246 H243 0.980 . S
C246 H244 0.981 . S
C246 H245 0.981 . S
C247 C234 1.481 . S
C247 H248 0.980 . S
C247 H249 0.981 . S
C247 H250 0.981 . S
H248 C247 0.980 . S
H249 C247 0.981 . S
H250 C247 0.981 . S
O251 Zn227 2.066 . S
O251 C230 1.256 . S
O252 Zn224 2.053 . S
O252 C230 1.244 . S
C253 O231 1.259 . S
C253 O232 1.254 . S
O254 Zn224 2.066 . S
O254 C226 1.256 . S
O255 C226 1.244 . S
O255 Zn227 2.053 . S
Zn256 O257 2.055 . S
Zn256 O264 2.046 . S
Zn256 N272 2.036 . S
Zn256 O284 2.053 . S
Zn256 O286 2.066 . S
O257 Zn256 2.055 . S
O257 C260 1.259 . S
C258 O286 1.256 . S
C258 O287 1.244 . S
Zn259 O261 2.046 . S
Zn259 O263 2.055 . S
Zn259 N265 2.036 . S
Zn259 O283 2.066 . S
Zn259 O287 2.053 . S
C260 O257 1.259 . S
C260 O261 1.254 . S
O261 Zn259 2.046 . S
O261 C260 1.254 . S
C262 O283 1.256 . S
C262 O284 1.244 . S
O263 Zn259 2.055 . S
O263 C285 1.259 . S
O264 Zn256 2.046 . S
O264 C285 1.254 . S
N265 Zn259 2.036 . S
N265 C266 1.298 . S
N265 N268 1.398 . S
C266 N265 1.298 . S
C266 N269 1.367 . S
C266 C279 1.481 . S
C267 N268 1.299 . S
C267 N269 1.379 . S
N268 N265 1.398 . S
N268 C267 1.299 . S
N269 C266 1.367 . S
N269 C267 1.379 . S
C270 N272 1.298 . S
C270 N274 1.367 . S
C270 C278 1.481 . S
C271 N273 1.299 . S
C271 N274 1.379 . S
N272 Zn256 2.036 . S
N272 C270 1.298 . S
N272 N273 1.398 . S
N273 C271 1.299 . S
N273 N272 1.398 . S
N274 C270 1.367 . S
N274 C271 1.379 . S
H275 C278 0.980 . S
H276 C278 0.981 . S
H277 C278 0.981 . S
C278 C270 1.481 . S
C278 H275 0.980 . S
C278 H276 0.981 . S
C278 H277 0.981 . S
C279 C266 1.481 . S
C279 H280 0.980 . S
C279 H281 0.981 . S
C279 H282 0.981 . S
H280 C279 0.980 . S
H281 C279 0.981 . S
H282 C279 0.981 . S
O283 Zn259 2.066 . S
O283 C262 1.256 . S
O284 Zn256 2.053 . S
O284 C262 1.244 . S
C285 O263 1.259 . S
C285 O264 1.254 . S
O286 Zn256 2.066 . S
O286 C258 1.256 . S
O287 C258 1.244 . S
O287 Zn259 2.053 . S
Zn288 O289 2.055 . S
Zn288 O296 2.046 . S
Zn288 N304 2.036 . S
Zn288 O316 2.053 . S
Zn288 O318 2.066 . S
O289 Zn288 2.055 . S
O289 C292 1.259 . S
C290 O318 1.256 . S
C290 O319 1.244 . S
Zn291 O293 2.046 1_545 S
Zn291 O295 2.055 1_545 S
Zn291 N297 2.036 1_545 S
Zn291 O315 2.066 . S
Zn291 O319 2.053 . S
C292 O289 1.259 . S
C292 O293 1.254 1_545 S
O293 Zn291 2.046 1_565 S
O293 C292 1.254 1_565 S
C294 O315 1.256 . S
C294 O316 1.244 . S
O295 Zn291 2.055 1_565 S
O295 C317 1.259 . S
O296 Zn288 2.046 . S
O296 C317 1.254 1_545 S
N297 Zn291 2.036 1_565 S
N297 C298 1.298 . S
N297 N300 1.398 . S
C298 N297 1.298 . S
C298 N301 1.367 . S
C298 C311 1.481 . S
C299 N300 1.299 . S
C299 N301 1.379 . S
N300 N297 1.398 . S
N300 C299 1.299 . S
N301 C298 1.367 . S
N301 C299 1.379 . S
C302 N304 1.298 . S
C302 N306 1.367 . S
C302 C310 1.481 . S
C303 N305 1.299 . S
C303 N306 1.379 . S
N304 Zn288 2.036 . S
N304 C302 1.298 . S
N304 N305 1.398 . S
N305 C303 1.299 . S
N305 N304 1.398 . S
N306 C302 1.367 . S
N306 C303 1.379 . S
H307 C310 0.980 . S
H308 C310 0.981 . S
H309 C310 0.981 . S
C310 C302 1.481 . S
C310 H307 0.980 . S
C310 H308 0.981 . S
C310 H309 0.981 . S
C311 C298 1.481 . S
C311 H312 0.980 . S
C311 H313 0.981 . S
C311 H314 0.981 . S
H312 C311 0.980 . S
H313 C311 0.981 . S
H314 C311 0.981 . S
O315 Zn291 2.066 . S
O315 C294 1.256 . S
O316 Zn288 2.053 . S
O316 C294 1.244 . S
C317 O295 1.259 . S
C317 O296 1.254 1_565 S
O318 Zn288 2.066 . S
O318 C290 1.256 . S
O319 C290 1.244 . S
O319 Zn291 2.053 . S
Zn320 O321 2.055 . S
Zn320 O328 2.046 . S
Zn320 N336 2.036 . S
Zn320 O348 2.053 . S
Zn320 O350 2.066 . S
O321 Zn320 2.055 . S
O321 C324 1.259 . S
C322 O350 1.256 . S
C322 O351 1.244 . S
Zn323 O325 2.046 1_565 S
Zn323 O327 2.055 1_565 S
Zn323 N329 2.036 1_565 S
Zn323 O347 2.066 . S
Zn323 O351 2.053 . S
C324 O321 1.259 . S
C324 O325 1.254 1_565 S
O325 Zn323 2.046 1_545 S
O325 C324 1.254 1_545 S
C326 O347 1.256 . S
C326 O348 1.244 . S
O327 Zn323 2.055 1_545 S
O327 C349 1.259 . S
O328 Zn320 2.046 . S
O328 C349 1.254 1_565 S
N329 Zn323 2.036 1_545 S
N329 C330 1.298 . S
N329 N332 1.398 . S
C330 N329 1.298 . S
C330 N333 1.367 . S
C330 C343 1.481 . S
C331 N332 1.299 . S
C331 N333 1.379 . S
N332 N329 1.398 . S
N332 C331 1.299 . S
N333 C330 1.367 . S
N333 C331 1.379 . S
C334 N336 1.298 . S
C334 N338 1.367 . S
C334 C342 1.481 . S
C335 N337 1.299 . S
C335 N338 1.379 . S
N336 Zn320 2.036 . S
N336 C334 1.298 . S
N336 N337 1.398 . S
N337 C335 1.299 . S
N337 N336 1.398 . S
N338 C334 1.367 . S
N338 C335 1.379 . S
H339 C342 0.980 . S
H340 C342 0.981 . S
H341 C342 0.981 . S
C342 C334 1.481 . S
C342 H339 0.980 . S
C342 H340 0.981 . S
C342 H341 0.981 . S
C343 C330 1.481 . S
C343 H344 0.980 . S
C343 H345 0.981 . S
C343 H346 0.981 . S
H344 C343 0.980 . S
H345 C343 0.981 . S
H346 C343 0.981 . S
O347 Zn323 2.066 . S
O347 C326 1.256 . S
O348 Zn320 2.053 . S
O348 C326 1.244 . S
C349 O327 1.259 . S
C349 O328 1.254 1_545 S
O350 Zn320 2.066 . S
O350 C322 1.256 . S
O351 C322 1.244 . S
O351 Zn323 2.053 . S
Zn352 O353 2.055 . S
Zn352 O360 2.046 . S
Zn352 N368 2.036 . S
Zn352 O380 2.053 . S
Zn352 O382 2.066 . S
O353 Zn352 2.055 . S
O353 C356 1.259 . S
C354 O382 1.256 . S
C354 O383 1.244 . S
Zn355 O357 2.046 . S
Zn355 O359 2.055 . S
Zn355 N361 2.036 . S
Zn355 O379 2.066 . S
Zn355 O383 2.053 . S
C356 O353 1.259 . S
C356 O357 1.254 . S
O357 Zn355 2.046 . S
O357 C356 1.254 . S
C358 O379 1.256 . S
C358 O380 1.244 . S
O359 Zn355 2.055 . S
O359 C381 1.259 . S
O360 Zn352 2.046 . S
O360 C381 1.254 . S
N361 Zn355 2.036 . S
N361 C362 1.298 . S
N361 N364 1.398 . S
C362 N361 1.298 . S
C362 N365 1.367 . S
C362 C375 1.481 . S
C363 N364 1.299 . S
C363 N365 1.379 . S
N364 N361 1.398 . S
N364 C363 1.299 . S
N365 C362 1.367 . S
N365 C363 1.379 . S
C366 N368 1.298 . S
C366 N370 1.367 . S
C366 C374 1.481 . S
C367 N369 1.299 . S
C367 N370 1.379 . S
N368 Zn352 2.036 . S
N368 C366 1.298 . S
N368 N369 1.398 . S
N369 C367 1.299 . S
N369 N368 1.398 . S
N370 C366 1.367 . S
N370 C367 1.379 . S
H371 C374 0.980 . S
H372 C374 0.981 . S
H373 C374 0.981 . S
C374 C366 1.481 . S
C374 H371 0.980 . S
C374 H372 0.981 . S
C374 H373 0.981 . S
C375 C362 1.481 . S
C375 H376 0.980 . S
C375 H377 0.981 . S
C375 H378 0.981 . S
H376 C375 0.980 . S
H377 C375 0.981 . S
H378 C375 0.981 . S
O379 Zn355 2.066 . S
O379 C358 1.256 . S
O380 Zn352 2.053 . S
O380 C358 1.244 . S
C381 O359 1.259 . S
C381 O360 1.254 . S
O382 Zn352 2.066 . S
O382 C354 1.256 . S
O383 C354 1.244 . S
O383 Zn355 2.053 . S
H384 C402 0.951 . S
H385 C404 0.951 . S
H386 C406 0.950 . S
H387 C407 0.950 . S
H388 C409 0.950 . S
H389 C412 0.950 . S
H390 C413 0.950 . S
H391 C415 0.950 . S
H392 C416 0.950 . S
H393 C417 0.951 . S
H394 C419 0.951 . S
H395 C421 0.950 . S
H396 C422 0.950 . S
H397 C424 0.950 . S
H398 C427 0.950 . S
H399 C428 0.950 . S
H400 C430 0.950 . S
H401 C431 0.950 . S
C402 H384 0.951 . S
C402 C403 1.366 . S
C402 C404 1.388 . S
C403 C402 1.366 . S
C403 C407 1.385 . S
C404 H385 0.951 . S
C404 C402 1.388 . S
C404 C405 1.366 . S
C405 C404 1.366 . S
C405 C406 1.414 . S
C405 C408 1.499 . S
C406 H386 0.950 . S
C406 C405 1.414 . S
C406 C407 1.374 . S
C407 H387 0.950 . S
C407 C403 1.385 . S
C407 C406 1.374 . S
C408 C405 1.499 . S
C408 C409 1.373 . S
C408 C410 1.389 . S
C409 H388 0.950 . S
C409 C408 1.373 . S
C409 C425 1.377 . S
C410 C408 1.389 . S
C410 C411 1.524 . S
C410 C424 1.377 . S
C411 C410 1.524 . S
C411 C412 1.397 . S
C411 C416 1.363 . S
C412 H389 0.950 . S
C412 C411 1.397 . S
C412 C413 1.334 . S
C413 H390 0.950 . S
C413 C412 1.334 . S
C413 C414 1.287 . S
C414 C413 1.287 . S
C414 C415 1.524 . S
C414 H433 0.913 . S
C415 H391 0.950 . S
C415 C414 1.524 . S
C415 C416 1.415 . S
C416 H392 0.950 . S
C416 C411 1.363 . S
C416 C415 1.415 . S
C417 H393 0.951 . S
C417 C418 1.366 . S
C417 C419 1.388 . S
C418 C417 1.366 . S
C418 C422 1.385 . S
C419 H394 0.951 . S
C419 C417 1.388 . S
C419 C420 1.366 . S
C420 C419 1.366 . S
C420 C421 1.414 . S
C420 C423 1.499 . S
C421 H395 0.950 . S
C421 C420 1.414 . S
C421 C422 1.374 . S
C422 H396 0.950 . S
C422 C418 1.385 . S
C422 C421 1.374 . S
C423 C420 1.499 . S
C423 C424 1.373 . S
C423 C425 1.389 . S
C424 H397 0.950 . S
C424 C410 1.377 . S
C424 C423 1.373 . S
C425 C409 1.377 . S
C425 C423 1.389 . S
C425 C426 1.524 . S
C426 C425 1.524 . S
C426 C427 1.397 . S
C426 C431 1.363 . S
C427 H398 0.950 . S
C427 C426 1.397 . S
C427 C428 1.334 . S
C428 H399 0.950 . S
C428 C427 1.334 . S
C428 C429 1.287 . S
C429 C428 1.287 . S
C429 C430 1.524 . S
C429 H432 0.999 . S
C430 H400 0.950 . S
C430 C429 1.524 . S
C430 C431 1.415 . S
C431 H401 0.950 . S
C431 C426 1.363 . S
C431 C430 1.415 . S
H432 C429 0.999 . S
H433 C414 0.913 . S
H434 C452 0.951 . S
H435 C454 0.951 . S
H436 C456 0.950 . S
H437 C457 0.950 . S
H438 C459 0.950 . S
H439 C462 0.950 . S
H440 C463 0.950 . S
H441 C465 0.950 . S
H442 C466 0.950 . S
H443 C467 0.951 . S
H444 C469 0.951 . S
H445 C471 0.950 . S
H446 C472 0.950 . S
H447 C474 0.950 . S
H448 C477 0.950 . S
H449 C478 0.950 . S
H450 C480 0.950 . S
H451 C481 0.950 . S
C452 H434 0.951 . S
C452 C453 1.366 1_545 S
C452 C454 1.388 . S
C453 C452 1.366 1_565 S
C453 C457 1.385 . S
C454 H435 0.951 . S
C454 C452 1.388 . S
C454 C455 1.366 1_545 S
C455 C454 1.366 1_565 S
C455 C456 1.414 . S
C455 C458 1.499 . S
C456 H436 0.950 . S
C456 C455 1.414 . S
C456 C457 1.374 . S
C457 H437 0.950 . S
C457 C453 1.385 . S
C457 C456 1.374 . S
C458 C455 1.499 . S
C458 C459 1.373 . S
C458 C460 1.389 . S
C459 H438 0.950 . S
C459 C458 1.373 . S
C459 C475 1.377 . S
C460 C458 1.389 . S
C460 C461 1.524 . S
C460 C474 1.377 . S
C461 C460 1.524 . S
C461 C462 1.397 . S
C461 C466 1.363 1_565 S
C462 H439 0.950 . S
C462 C461 1.397 . S
C462 C463 1.334 . S
C463 H440 0.950 . S
C463 C462 1.334 . S
C463 C464 1.287 1_565 S
C464 C463 1.287 1_545 S
C464 C465 1.524 . S
C464 H483 0.913 . S
C465 H441 0.950 . S
C465 C464 1.524 . S
C465 C466 1.415 . S
C466 H442 0.950 . S
C466 C461 1.363 1_545 S
C466 C465 1.415 . S
C467 H443 0.951 . S
C467 C468 1.366 . S
C467 C469 1.388 . S
C468 C467 1.366 . S
C468 C472 1.385 . S
C469 H444 0.951 . S
C469 C467 1.388 . S
C469 C470 1.366 . S
C470 C469 1.366 . S
C470 C471 1.414 . S
C470 C473 1.499 . S
C471 H445 0.950 . S
C471 C470 1.414 . S
C471 C472 1.374 . S
C472 H446 0.950 . S
C472 C468 1.385 . S
C472 C471 1.374 . S
C473 C470 1.499 . S
C473 C474 1.373 . S
C473 C475 1.389 . S
C474 H447 0.950 . S
C474 C460 1.377 . S
C474 C473 1.373 . S
C475 C459 1.377 . S
C475 C473 1.389 . S
C475 C476 1.524 . S
C476 C475 1.524 . S
C476 C477 1.397 . S
C476 C481 1.363 . S
C477 H448 0.950 . S
C477 C476 1.397 . S
C477 C478 1.334 . S
C478 H449 0.950 . S
C478 C477 1.334 . S
C478 C479 1.287 . S
C479 C478 1.287 . S
C479 C480 1.524 . S
C479 H482 0.999 . S
C480 H450 0.950 . S
C480 C479 1.524 . S
C480 C481 1.415 . S
C481 H451 0.950 . S
C481 C476 1.363 . S
C481 C480 1.415 . S
H482 C479 0.999 . S
H483 C464 0.913 . S
H484 C502 0.951 . S
H485 C504 0.951 . S
H486 C506 0.950 . S
H487 C507 0.942 1_556 S
H488 C509 0.950 1_556 S
H489 C512 0.950 . S
H490 C513 0.950 . S
H491 C515 0.950 . S
H492 C516 0.950 . S
H493 C517 0.951 . S
H494 C519 0.951 . S
H495 C521 0.950 . S
H496 C522 0.950 . S
H497 C524 0.950 . S
H498 C527 0.950 . S
H499 C528 0.950 . S
H500 C530 0.950 . S
H501 C531 0.950 . S
C502 H484 0.951 . S
C502 C503 1.366 . S
C502 C504 1.388 . S
C503 C502 1.366 . S
C503 C507 1.385 . S
C504 H485 0.951 . S
C504 C502 1.388 . S
C504 C505 1.366 . S
C505 C504 1.366 . S
C505 C506 1.414 . S
C505 C508 1.499 . S
C506 H486 0.950 . S
C506 C505 1.414 . S
C506 C507 1.374 . S
C507 H487 0.942 1_554 S
C507 C503 1.385 . S
C507 C506 1.374 . S
C508 C505 1.499 . S
C508 C509 1.373 . S
C508 C510 1.389 . S
C509 H488 0.950 1_554 S
C509 C508 1.373 . S
C509 C525 1.377 . S
C510 C508 1.389 . S
C510 C511 1.524 . S
C510 C524 1.377 . S
C511 C510 1.524 . S
C511 C512 1.397 . S
C511 C516 1.363 . S
C512 H489 0.950 . S
C512 C511 1.397 . S
C512 C513 1.334 . S
C513 H490 0.950 . S
C513 C512 1.334 . S
C513 C514 1.287 . S
C514 C513 1.287 . S
C514 C515 1.524 . S
C514 H533 0.913 . S
C515 H491 0.950 . S
C515 C514 1.524 . S
C515 C516 1.415 . S
C516 H492 0.950 . S
C516 C511 1.363 . S
C516 C515 1.415 . S
C517 H493 0.951 . S
C517 C518 1.366 . S
C517 C519 1.388 . S
C518 C517 1.366 . S
C518 C522 1.385 . S
C519 H494 0.951 . S
C519 C517 1.388 . S
C519 C520 1.366 . S
C520 C519 1.366 . S
C520 C521 1.414 . S
C520 C523 1.499 . S
C521 H495 0.950 . S
C521 C520 1.414 . S
C521 C522 1.374 . S
C522 H496 0.950 . S
C522 C518 1.385 . S
C522 C521 1.374 . S
C523 C520 1.499 . S
C523 C524 1.373 . S
C523 C525 1.389 . S
C524 H497 0.950 . S
C524 C510 1.377 . S
C524 C523 1.373 . S
C525 C509 1.377 . S
C525 C523 1.389 . S
C525 C526 1.514 1_554 S
C526 C525 1.514 1_556 S
C526 C527 1.403 . S
C526 C531 1.368 . S
C527 H498 0.950 . S
C527 C526 1.403 . S
C527 C528 1.334 . S
C528 H499 0.950 . S
C528 C527 1.334 . S
C528 C529 1.287 . S
C529 C528 1.287 . S
C529 C530 1.524 . S
C529 H532 0.999 . S
C530 H500 0.950 . S
C530 C529 1.524 . S
C530 C531 1.415 . S
C531 H501 0.950 . S
C531 C526 1.368 . S
C531 C530 1.415 . S
H532 C529 0.999 . S
H533 C514 0.913 . S
H534 C552 0.951 . S
H535 C554 0.951 . S
H536 C556 0.950 . S
H537 C557 0.950 . S
H538 C559 0.950 . S
H539 C562 0.950 . S
H540 C563 0.950 . S
H541 C565 0.950 . S
H542 C566 0.950 . S
H543 C567 0.951 . S
H544 C569 0.951 . S
H545 C571 0.950 . S
H546 C572 0.950 . S
H547 C574 0.950 . S
H548 C577 0.950 . S
H549 C578 0.950 . S
H550 C580 0.950 . S
H551 C581 0.950 . S
C552 H534 0.951 . S
C552 C553 1.366 . S
C552 C554 1.388 . S
C553 C552 1.366 . S
C553 C557 1.385 . S
C554 H535 0.951 . S
C554 C552 1.388 . S
C554 C555 1.366 . S
C555 C554 1.366 . S
C555 C556 1.414 . S
C555 C558 1.499 . S
C556 H536 0.950 . S
C556 C555 1.414 . S
C556 C557 1.374 . S
C557 H537 0.950 . S
C557 C553 1.385 . S
C557 C556 1.374 . S
C558 C555 1.499 . S
C558 C559 1.373 . S
C558 C560 1.389 . S
C559 H538 0.950 . S
C559 C558 1.373 . S
C559 C575 1.377 . S
C560 C558 1.389 . S
C560 C561 1.524 . S
C560 C574 1.377 . S
C561 C560 1.524 . S
C561 C562 1.397 . S
C561 C566 1.363 . S
C562 H539 0.950 . S
C562 C561 1.397 . S
C562 C563 1.334 . S
C563 H540 0.950 . S
C563 C562 1.334 . S
C563 C564 1.287 . S
C564 C563 1.287 . S
C564 C565 1.524 . S
C564 H583 0.913 . S
C565 H541 0.950 . S
C565 C564 1.524 . S
C565 C566 1.415 . S
C566 H542 0.950 . S
C566 C561 1.363 . S
C566 C565 1.415 . S
C567 H543 0.951 . S
C567 C568 1.366 . S
C567 C569 1.388 . S
C568 C567 1.366 . S
C568 C572 1.385 1_545 S
C569 H544 0.951 . S
C569 C567 1.388 . S
C569 C570 1.366 . S
C570 C569 1.366 . S
C570 C571 1.414 . S
C570 C573 1.499 . S
C571 H545 0.950 . S
C571 C570 1.414 . S
C571 C572 1.374 1_545 S
C572 H546 0.950 . S
C572 C568 1.385 1_565 S
C572 C571 1.374 1_565 S
C573 C570 1.499 . S
C573 C574 1.373 . S
C573 C575 1.389 . S
C574 H547 0.950 . S
C574 C560 1.377 . S
C574 C573 1.373 . S
C575 C559 1.377 . S
C575 C573 1.389 . S
C575 C576 1.524 . S
C576 C575 1.524 . S
C576 C577 1.397 1_545 S
C576 C581 1.363 . S
C577 H548 0.950 . S
C577 C576 1.397 1_565 S
C577 C578 1.334 . S
C578 H549 0.950 . S
C578 C577 1.334 . S
C578 C579 1.287 . S
C579 C578 1.287 . S
C579 C580 1.524 . S
C579 H582 0.999 . S
C580 H550 0.950 . S
C580 C579 1.524 . S
C580 C581 1.415 1_565 S
C581 H551 0.950 . S
C581 C576 1.363 . S
C581 C580 1.415 1_545 S
H582 C579 0.999 . S
H583 C564 0.913 . S
H584 C602 0.951 . S
H585 C604 0.951 . S
H586 C606 0.950 . S
H587 C607 0.950 . S
H588 C609 0.950 . S
H589 C612 0.950 . S
H590 C613 0.950 . S
H591 C615 0.950 . S
H592 C616 0.950 . S
H593 C617 0.951 . S
H594 C619 0.951 . S
H595 C621 0.950 . S
H596 C622 0.950 . S
H597 C624 0.950 . S
H598 C627 0.950 . S
H599 C628 0.950 . S
H600 C630 0.950 . S
H601 C631 0.950 . S
C602 H584 0.951 . S
C602 C603 1.366 . S
C602 C604 1.388 . S
C603 C602 1.366 . S
C603 C607 1.385 . S
C604 H585 0.951 . S
C604 C602 1.388 . S
C604 C605 1.366 . S
C605 C604 1.366 . S
C605 C606 1.414 . S
C605 C608 1.499 . S
C606 H586 0.950 . S
C606 C605 1.414 . S
C606 C607 1.374 . S
C607 H587 0.950 . S
C607 C603 1.385 . S
C607 C606 1.374 . S
C608 C605 1.499 . S
C608 C609 1.373 . S
C608 C610 1.389 . S
C609 H588 0.950 . S
C609 C608 1.373 . S
C609 C625 1.377 . S
C610 C608 1.389 . S
C610 C611 1.524 . S
C610 C624 1.377 . S
C611 C610 1.524 . S
C611 C612 1.397 . S
C611 C616 1.363 . S
C612 H589 0.950 . S
C612 C611 1.397 . S
C612 C613 1.334 . S
C613 H590 0.950 . S
C613 C612 1.334 . S
C613 C614 1.287 . S
C614 C613 1.287 . S
C614 C615 1.524 . S
C614 H633 0.913 . S
C615 H591 0.950 . S
C615 C614 1.524 . S
C615 C616 1.415 . S
C616 H592 0.950 . S
C616 C611 1.363 . S
C616 C615 1.415 . S
C617 H593 0.951 . S
C617 C618 1.366 . S
C617 C619 1.388 . S
C618 C617 1.366 . S
C618 C622 1.385 . S
C619 H594 0.951 . S
C619 C617 1.388 . S
C619 C620 1.366 . S
C620 C619 1.366 . S
C620 C621 1.414 . S
C620 C623 1.499 . S
C621 H595 0.950 . S
C621 C620 1.414 . S
C621 C622 1.374 . S
C622 H596 0.950 . S
C622 C618 1.385 . S
C622 C621 1.374 . S
C623 C620 1.499 . S
C623 C624 1.373 . S
C623 C625 1.389 . S
C624 H597 0.950 . S
C624 C610 1.377 . S
C624 C623 1.373 . S
C625 C609 1.377 . S
C625 C623 1.389 . S
C625 C626 1.524 . S
C626 C625 1.524 . S
C626 C627 1.397 . S
C626 C631 1.363 . S
C627 H598 0.950 . S
C627 C626 1.397 . S
C627 C628 1.334 . S
C628 H599 0.950 . S
C628 C627 1.334 . S
C628 C629 1.287 . S
C629 C628 1.287 . S
C629 C630 1.524 . S
C629 H632 0.999 . S
C630 H600 0.950 . S
C630 C629 1.524 . S
C630 C631 1.415 . S
C631 H601 0.950 . S
C631 C626 1.363 . S
C631 C630 1.415 . S
H632 C629 0.999 . S
H633 C614 0.913 . S
H634 C652 0.951 . S
H635 C654 0.951 . S
H636 C656 0.950 . S
H637 C657 0.950 . S
H638 C659 0.950 . S
H639 C662 0.950 . S
H640 C663 0.950 . S
H641 C665 0.950 . S
H642 C666 0.950 . S
H643 C667 0.951 . S
H644 C669 0.951 . S
H645 C671 0.950 . S
H646 C672 0.950 . S
H647 C674 0.950 . S
H648 C677 0.950 . S
H649 C678 0.950 . S
H650 C680 0.950 . S
H651 C681 0.950 . S
C652 H634 0.951 . S
C652 C653 1.366 . S
C652 C654 1.388 . S
C653 C652 1.366 . S
C653 C657 1.385 . S
C654 H635 0.951 . S
C654 C652 1.388 . S
C654 C655 1.366 . S
C655 C654 1.366 . S
C655 C656 1.414 . S
C655 C658 1.499 . S
C656 H636 0.950 . S
C656 C655 1.414 . S
C656 C657 1.374 . S
C657 H637 0.950 . S
C657 C653 1.385 . S
C657 C656 1.374 . S
C658 C655 1.499 . S
C658 C659 1.373 . S
C658 C660 1.389 . S
C659 H638 0.950 . S
C659 C658 1.373 . S
C659 C675 1.377 . S
C660 C658 1.389 . S
C660 C661 1.524 . S
C660 C674 1.377 . S
C661 C660 1.524 . S
C661 C662 1.397 . S
C661 C666 1.363 . S
C662 H639 0.950 . S
C662 C661 1.397 . S
C662 C663 1.334 . S
C663 H640 0.950 . S
C663 C662 1.334 . S
C663 C664 1.287 . S
C664 C663 1.287 . S
C664 C665 1.524 . S
C664 H683 0.913 . S
C665 H641 0.950 . S
C665 C664 1.524 . S
C665 C666 1.415 . S
C666 H642 0.950 . S
C666 C661 1.363 . S
C666 C665 1.415 . S
C667 H643 0.951 . S
C667 C668 1.366 . S
C667 C669 1.388 . S
C668 C667 1.366 . S
C668 C672 1.385 . S
C669 H644 0.951 . S
C669 C667 1.388 . S
C669 C670 1.366 . S
C670 C669 1.366 . S
C670 C671 1.414 . S
C670 C673 1.499 . S
C671 H645 0.950 . S
C671 C670 1.414 . S
C671 C672 1.374 . S
C672 H646 0.950 . S
C672 C668 1.385 . S
C672 C671 1.374 . S
C673 C670 1.499 . S
C673 C674 1.373 . S
C673 C675 1.389 . S
C674 H647 0.950 . S
C674 C660 1.377 . S
C674 C673 1.373 . S
C675 C659 1.377 . S
C675 C673 1.389 . S
C675 C676 1.524 . S
C676 C675 1.524 . S
C676 C677 1.397 . S
C676 C681 1.363 . S
C677 H648 0.950 . S
C677 C676 1.397 . S
C677 C678 1.334 . S
C678 H649 0.950 . S
C678 C677 1.334 . S
C678 C679 1.287 . S
C679 C678 1.287 . S
C679 C680 1.524 . S
C679 H682 0.999 . S
C680 H650 0.950 . S
C680 C679 1.524 . S
C680 C681 1.415 . S
C681 H651 0.950 . S
C681 C676 1.363 . S
C681 C680 1.415 . S
H682 C679 0.999 . S
H683 C664 0.913 . S
H684 C702 0.951 . S
H685 C704 0.951 . S
H686 C706 0.950 . S
H687 C707 0.950 . S
H688 C709 0.950 . S
H689 C712 0.950 . S
H690 C713 0.950 . S
H691 C715 0.950 . S
H692 C716 0.950 . S
H693 C717 0.951 . S
H694 C719 0.951 . S
H695 C721 0.950 . S
H696 C722 0.950 1_554 S
H697 C724 0.950 1_554 S
H698 C727 0.950 . S
H699 C728 0.950 . S
H700 C730 0.950 . S
H701 C731 0.950 . S
C702 H684 0.951 . S
C702 C703 1.366 . S
C702 C704 1.388 . S
C703 C702 1.366 . S
C703 C707 1.385 . S
C704 H685 0.951 . S
C704 C702 1.388 . S
C704 C705 1.366 . S
C705 C704 1.366 . S
C705 C706 1.414 . S
C705 C708 1.499 . S
C706 H686 0.950 . S
C706 C705 1.414 . S
C706 C707 1.374 . S
C707 H687 0.950 . S
C707 C703 1.385 . S
C707 C706 1.374 . S
C708 C705 1.499 . S
C708 C709 1.373 . S
C708 C710 1.389 . S
C709 H688 0.950 . S
C709 C708 1.373 . S
C709 C725 1.377 . S
C710 C708 1.389 . S
C710 C711 1.524 1_556 S
C710 C724 1.377 . S
C711 C710 1.524 1_554 S
C711 C712 1.397 . S
C711 C716 1.363 . S
C712 H689 0.950 . S
C712 C711 1.397 . S
C712 C713 1.334 . S
C713 H690 0.950 . S
C713 C712 1.334 . S
C713 C714 1.287 . S
C714 C713 1.287 . S
C714 C715 1.524 . S
C714 H733 0.913 . S
C715 H691 0.950 . S
C715 C714 1.524 . S
C715 C716 1.415 . S
C716 H692 0.950 . S
C716 C711 1.363 . S
C716 C715 1.415 . S
C717 H693 0.951 . S
C717 C718 1.366 . S
C717 C719 1.388 . S
C718 C717 1.366 . S
C718 C722 1.385 . S
C719 H694 0.951 . S
C719 C717 1.388 . S
C719 C720 1.366 . S
C720 C719 1.366 . S
C720 C721 1.414 . S
C720 C723 1.499 . S
C721 H695 0.950 . S
C721 C720 1.414 . S
C721 C722 1.374 . S
C722 H696 0.950 1_556 S
C722 C718 1.385 . S
C722 C721 1.374 . S
C723 C720 1.499 . S
C723 C724 1.373 . S
C723 C725 1.389 . S
C724 H697 0.950 1_556 S
C724 C710 1.377 . S
C724 C723 1.373 . S
C725 C709 1.377 . S
C725 C723 1.389 . S
C725 C726 1.524 . S
C726 C725 1.524 . S
C726 C727 1.397 . S
C726 C731 1.363 . S
C727 H698 0.950 . S
C727 C726 1.397 . S
C727 C728 1.334 . S
C728 H699 0.950 . S
C728 C727 1.334 . S
C728 C729 1.287 . S
C729 C728 1.287 . S
C729 C730 1.524 . S
C729 H732 0.999 . S
C730 H700 0.950 . S
C730 C729 1.524 . S
C730 C731 1.415 . S
C731 H701 0.950 . S
C731 C726 1.363 . S
C731 C730 1.415 . S
H732 C729 0.999 . S
H733 C714 0.913 . S
H734 C752 0.951 . S
H735 C754 0.951 . S
H736 C756 0.950 . S
H737 C757 0.950 . S
H738 C759 0.950 . S
H739 C762 0.950 . S
H740 C763 0.950 . S
H741 C765 0.950 . S
H742 C766 0.950 . S
H743 C767 0.951 . S
H744 C769 0.951 . S
H745 C771 0.950 . S
H746 C772 0.950 . S
H747 C774 0.950 . S
H748 C777 0.950 . S
H749 C778 0.950 . S
H750 C780 0.950 . S
H751 C781 0.950 . S
C752 H734 0.951 . S
C752 C753 1.366 . S
C752 C754 1.388 . S
C753 C752 1.366 . S
C753 C757 1.385 . S
C754 H735 0.951 . S
C754 C752 1.388 . S
C754 C755 1.366 . S
C755 C754 1.366 . S
C755 C756 1.414 . S
C755 C758 1.499 . S
C756 H736 0.950 . S
C756 C755 1.414 . S
C756 C757 1.374 . S
C757 H737 0.950 . S
C757 C753 1.385 . S
C757 C756 1.374 . S
C758 C755 1.499 . S
C758 C759 1.373 . S
C758 C760 1.389 . S
C759 H738 0.950 . S
C759 C758 1.373 . S
C759 C775 1.377 . S
C760 C758 1.389 . S
C760 C761 1.524 . S
C760 C774 1.377 . S
C761 C760 1.524 . S
C761 C762 1.397 . S
C761 C766 1.363 . S
C762 H739 0.950 . S
C762 C761 1.397 . S
C762 C763 1.334 . S
C763 H740 0.950 . S
C763 C762 1.334 . S
C763 C764 1.287 . S
C764 C763 1.287 . S
C764 C765 1.524 . S
C764 H783 0.913 . S
C765 H741 0.950 . S
C765 C764 1.524 . S
C765 C766 1.415 . S
C766 H742 0.950 . S
C766 C761 1.363 . S
C766 C765 1.415 . S
C767 H743 0.951 . S
C767 C768 1.366 . S
C767 C769 1.388 . S
C768 C767 1.366 . S
C768 C772 1.385 . S
C769 H744 0.951 . S
C769 C767 1.388 . S
C769 C770 1.366 . S
C770 C769 1.366 . S
C770 C771 1.414 . S
C770 C773 1.499 . S
C771 H745 0.950 . S
C771 C770 1.414 . S
C771 C772 1.374 . S
C772 H746 0.950 . S
C772 C768 1.385 . S
C772 C771 1.374 . S
C773 C770 1.499 . S
C773 C774 1.373 . S
C773 C775 1.389 . S
C774 H747 0.950 . S
C774 C760 1.377 . S
C774 C773 1.373 . S
C775 C759 1.377 . S
C775 C773 1.389 . S
C775 C776 1.524 . S
C776 C775 1.524 . S
C776 C777 1.397 . S
C776 C781 1.363 . S
C777 H748 0.950 . S
C777 C776 1.397 . S
C777 C778 1.334 . S
C778 H749 0.950 . S
C778 C777 1.334 . S
C778 C779 1.287 . S
C779 C778 1.287 . S
C779 C780 1.524 . S
C779 H782 0.999 . S
C780 H750 0.950 . S
C780 C779 1.524 . S
C780 C781 1.415 . S
C781 H751 0.950 . S
C781 C776 1.363 . S
C781 C780 1.415 . S
H782 C779 0.999 . S
H783 C764 0.913 . S
H784 C802 0.951 . S
H785 C804 0.951 . S
H786 C806 0.950 . S
H787 C807 0.950 . S
H788 C809 0.950 . S
H789 C812 0.950 . S
H790 C813 0.950 . S
H791 C815 0.950 . S
H792 C816 0.950 . S
H793 C817 0.951 . S
H794 C819 0.951 . S
H795 C821 0.950 . S
H796 C822 0.950 . S
H797 C824 0.950 . S
H798 C827 0.950 . S
H799 C828 0.950 . S
H800 C830 0.950 . S
H801 C831 0.950 . S
C802 H784 0.951 . S
C802 C803 1.366 . S
C802 C804 1.388 . S
C803 C802 1.366 . S
C803 C807 1.385 . S
C804 H785 0.951 . S
C804 C802 1.388 . S
C804 C805 1.366 . S
C805 C804 1.366 . S
C805 C806 1.414 . S
C805 C808 1.499 . S
C806 H786 0.950 . S
C806 C805 1.414 . S
C806 C807 1.374 . S
C807 H787 0.950 . S
C807 C803 1.385 . S
C807 C806 1.374 . S
C808 C805 1.499 . S
C808 C809 1.373 . S
C808 C810 1.389 . S
C809 H788 0.950 . S
C809 C808 1.373 . S
C809 C825 1.377 . S
C810 C808 1.389 . S
C810 C811 1.524 . S
C810 C824 1.377 . S
C811 C810 1.524 . S
C811 C812 1.397 . S
C811 C816 1.363 . S
C812 H789 0.950 . S
C812 C811 1.397 . S
C812 C813 1.334 . S
C813 H790 0.950 . S
C813 C812 1.334 . S
C813 C814 1.287 . S
C814 C813 1.287 . S
C814 C815 1.524 . S
C814 H833 0.913 . S
C815 H791 0.950 . S
C815 C814 1.524 . S
C815 C816 1.415 . S
C816 H792 0.950 . S
C816 C811 1.363 . S
C816 C815 1.415 . S
C817 H793 0.951 . S
C817 C818 1.366 . S
C817 C819 1.388 . S
C818 C817 1.366 . S
C818 C822 1.385 . S
C819 H794 0.951 . S
C819 C817 1.388 . S
C819 C820 1.366 . S
C820 C819 1.366 . S
C820 C821 1.414 . S
C820 C823 1.499 . S
C821 H795 0.950 . S
C821 C820 1.414 . S
C821 C822 1.374 . S
C822 H796 0.950 . S
C822 C818 1.385 . S
C822 C821 1.374 . S
C823 C820 1.499 . S
C823 C824 1.373 . S
C823 C825 1.389 . S
C824 H797 0.950 . S
C824 C810 1.377 . S
C824 C823 1.373 . S
C825 C809 1.377 . S
C825 C823 1.389 . S
C825 C826 1.524 . S
C826 C825 1.524 . S
C826 C827 1.397 . S
C826 C831 1.363 . S
C827 H798 0.950 . S
C827 C826 1.397 . S
C827 C828 1.334 . S
C828 H799 0.950 . S
C828 C827 1.334 . S
C828 C829 1.287 . S
C829 C828 1.287 . S
C829 C830 1.524 . S
C829 H832 0.999 . S
C830 H800 0.950 . S
C830 C829 1.524 . S
C830 C831 1.415 . S
C831 H801 0.950 . S
C831 C826 1.363 . S
C831 C830 1.415 . S
H832 C829 0.999 . S
H833 C814 0.913 . S
H834 C852 0.951 . S
H835 C854 0.951 . S
H836 C856 0.950 . S
H837 C857 0.950 . S
H838 C859 0.950 . S
H839 C862 0.950 . S
H840 C863 0.950 . S
H841 C865 0.950 . S
H842 C866 0.950 . S
H843 C867 0.948 1_655 S
H844 C869 0.951 . S
H845 C871 0.950 . S
H846 C872 0.950 . S
H847 C874 0.950 . S
H848 C877 0.950 . S
H849 C878 0.950 . S
H850 C880 0.950 . S
H851 C881 0.950 . S
C852 H834 0.951 . S
C852 C853 1.366 . S
C852 C854 1.388 . S
C853 C852 1.366 . S
C853 C857 1.385 . S
C854 H835 0.951 . S
C854 C852 1.388 . S
C854 C855 1.366 . S
C855 C854 1.366 . S
C855 C856 1.414 . S
C855 C858 1.499 . S
C856 H836 0.950 . S
C856 C855 1.414 . S
C856 C857 1.374 . S
C857 H837 0.950 . S
C857 C853 1.385 . S
C857 C856 1.374 . S
C858 C855 1.499 . S
C858 C859 1.373 . S
C858 C860 1.389 . S
C859 H838 0.950 . S
C859 C858 1.373 . S
C859 C875 1.377 . S
C860 C858 1.389 . S
C860 C861 1.524 . S
C860 C874 1.377 . S
C861 C860 1.524 . S
C861 C862 1.397 1_455 S
C861 C866 1.363 . S
C862 H839 0.950 . S
C862 C861 1.397 1_655 S
C862 C863 1.334 . S
C863 H840 0.950 . S
C863 C862 1.334 . S
C863 C864 1.287 . S
C864 C863 1.287 . S
C864 C865 1.516 1_655 S
C864 H883 0.913 . S
C865 H841 0.950 . S
C865 C864 1.516 1_455 S
C865 C866 1.422 . S
C866 H842 0.950 . S
C866 C861 1.363 . S
C866 C865 1.422 . S
C867 H843 0.948 1_455 S
C867 C868 1.366 . S
C867 C869 1.390 . S
C868 C867 1.366 . S
C868 C872 1.385 . S
C869 H844 0.951 . S
C869 C867 1.390 . S
C869 C870 1.366 . S
C870 C869 1.366 . S
C870 C871 1.414 . S
C870 C873 1.499 . S
C871 H845 0.950 . S
C871 C870 1.414 . S
C871 C872 1.374 . S
C872 H846 0.950 . S
C872 C868 1.385 . S
C872 C871 1.374 . S
C873 C870 1.499 . S
C873 C874 1.373 . S
C873 C875 1.389 . S
C874 H847 0.950 . S
C874 C860 1.377 . S
C874 C873 1.373 . S
C875 C859 1.377 . S
C875 C873 1.389 . S
C875 C876 1.524 . S
C876 C875 1.524 . S
C876 C877 1.397 . S
C876 C881 1.363 . S
C877 H848 0.950 . S
C877 C876 1.397 . S
C877 C878 1.334 . S
C878 H849 0.950 . S
C878 C877 1.334 . S
C878 C879 1.287 . S
C879 C878 1.287 . S
C879 C880 1.524 . S
C879 H882 0.999 . S
C880 H850 0.950 . S
C880 C879 1.524 . S
C880 C881 1.415 . S
C881 H851 0.950 . S
C881 C876 1.363 . S
C881 C880 1.415 . S
H882 C879 0.999 . S
H883 C864 0.913 . S
H884 C902 0.951 . S
H885 C904 0.951 . S
H886 C906 0.950 . S
H887 C907 0.950 . S
H888 C909 0.950 1_455 S
H889 C912 0.950 . S
H890 C913 0.950 . S
H891 C915 0.950 . S
H892 C916 0.950 . S
H893 C917 0.951 . S
H894 C919 0.951 . S
H895 C921 0.950 . S
H896 C922 0.950 . S
H897 C924 0.950 . S
H898 C927 0.950 . S
H899 C928 0.950 . S
H900 C930 0.950 . S
H901 C931 0.950 . S
C902 H884 0.951 . S
C902 C903 1.366 . S
C902 C904 1.388 . S
C903 C902 1.366 . S
C903 C907 1.385 1_655 S
C904 H885 0.951 . S
C904 C902 1.388 . S
C904 C905 1.366 . S
C905 C904 1.366 . S
C905 C906 1.414 1_655 S
C905 C908 1.499 . S
C906 H886 0.950 . S
C906 C905 1.414 1_455 S
C906 C907 1.374 . S
C907 H887 0.950 . S
C907 C903 1.385 1_455 S
C907 C906 1.374 . S
C908 C905 1.499 . S
C908 C909 1.373 . S
C908 C910 1.389 . S
C909 H888 0.950 1_655 S
C909 C908 1.373 . S
C909 C925 1.377 . S
C910 C908 1.389 . S
C910 C911 1.524 . S
C910 C924 1.377 . S
C911 C910 1.524 . S
C911 C912 1.397 . S
C911 C916 1.363 . S
C912 H889 0.950 . S
C912 C911 1.397 . S
C912 C913 1.334 . S
C913 H890 0.950 . S
C913 C912 1.334 . S
C913 C914 1.287 . S
C914 C913 1.287 . S
C914 C915 1.524 . S
C914 H933 0.913 . S
C915 H891 0.950 . S
C915 C914 1.524 . S
C915 C916 1.415 . S
C916 H892 0.950 . S
C916 C911 1.363 . S
C916 C915 1.415 . S
C917 H893 0.951 . S
C917 C918 1.366 . S
C917 C919 1.388 . S
C918 C917 1.366 . S
C918 C922 1.385 . S
C919 H894 0.951 . S
C919 C917 1.388 . S
C919 C920 1.366 . S
C920 C919 1.366 . S
C920 C921 1.414 . S
C920 C923 1.499 . S
C921 H895 0.950 . S
C921 C920 1.414 . S
C921 C922 1.374 . S
C922 H896 0.950 . S
C922 C918 1.385 . S
C922 C921 1.374 . S
C923 C920 1.499 . S
C923 C924 1.373 . S
C923 C925 1.389 . S
C924 H897 0.950 . S
C924 C910 1.377 . S
C924 C923 1.373 . S
C925 C909 1.377 . S
C925 C923 1.389 . S
C925 C926 1.524 1_655 S
C926 C925 1.524 1_455 S
C926 C927 1.397 1_455 S
C926 C931 1.363 . S
C927 H898 0.950 . S
C927 C926 1.397 1_655 S
C927 C928 1.334 1_655 S
C928 H899 0.950 . S
C928 C927 1.334 1_455 S
C928 C929 1.287 . S
C929 C928 1.287 . S
C929 C930 1.524 . S
C929 H932 0.999 . S
C930 H900 0.950 . S
C930 C929 1.524 . S
C930 C931 1.415 . S
C931 H901 0.950 . S
C931 C926 1.363 . S
C931 C930 1.415 . S
H932 C929 0.999 . S
H933 C914 0.913 . S
H934 C952 0.951 . S
H935 C954 0.951 . S
H936 C956 0.950 . S
H937 C957 0.950 . S
H938 C959 0.950 . S
H939 C962 0.950 . S
H940 C963 0.950 . S
H941 C965 0.950 . S
H942 C966 0.950 . S
H943 C967 0.951 . S
H944 C969 0.951 . S
H945 C971 0.950 . S
H946 C972 0.950 . S
H947 C974 0.950 . S
H948 C977 0.950 . S
H949 C978 0.950 . S
H950 C980 0.950 . S
H951 C981 0.950 . S
C952 H934 0.951 . S
C952 C953 1.366 . S
C952 C954 1.388 . S
C953 C952 1.366 . S
C953 C957 1.385 . S
C954 H935 0.951 . S
C954 C952 1.388 . S
C954 C955 1.366 . S
C955 C954 1.366 . S
C955 C956 1.414 . S
C955 C958 1.499 . S
C956 H936 0.950 . S
C956 C955 1.414 . S
C956 C957 1.374 . S
C957 H937 0.950 . S
C957 C953 1.385 . S
C957 C956 1.374 . S
C958 C955 1.499 . S
C958 C959 1.373 . S
C958 C960 1.389 . S
C959 H938 0.950 . S
C959 C958 1.373 . S
C959 C975 1.377 . S
C960 C958 1.389 . S
C960 C961 1.524 . S
C960 C974 1.377 . S
C961 C960 1.524 . S
C961 C962 1.397 . S
C961 C966 1.363 . S
C962 H939 0.950 . S
C962 C961 1.397 . S
C962 C963 1.334 . S
C963 H940 0.950 . S
C963 C962 1.334 . S
C963 C964 1.287 . S
C964 C963 1.287 . S
C964 C965 1.524 . S
C964 H983 0.913 . S
C965 H941 0.950 . S
C965 C964 1.524 . S
C965 C966 1.415 . S
C966 H942 0.950 . S
C966 C961 1.363 . S
C966 C965 1.415 . S
C967 H943 0.951 . S
C967 C968 1.366 . S
C967 C969 1.388 . S
C968 C967 1.366 . S
C968 C972 1.385 . S
C969 H944 0.951 . S
C969 C967 1.388 . S
C969 C970 1.366 . S
C970 C969 1.366 . S
C970 C971 1.414 . S
C970 C973 1.499 . S
C971 H945 0.950 . S
C971 C970 1.414 . S
C971 C972 1.374 . S
C972 H946 0.950 . S
C972 C968 1.385 . S
C972 C971 1.374 . S
C973 C970 1.499 . S
C973 C974 1.373 . S
C973 C975 1.389 . S
C974 H947 0.950 . S
C974 C960 1.377 . S
C974 C973 1.373 . S
C975 C959 1.377 . S
C975 C973 1.389 . S
C975 C976 1.524 . S
C976 C975 1.524 . S
C976 C977 1.397 . S
C976 C981 1.363 . S
C977 H948 0.950 . S
C977 C976 1.397 . S
C977 C978 1.334 . S
C978 H949 0.950 . S
C978 C977 1.334 . S
C978 C979 1.287 . S
C979 C978 1.287 . S
C979 C980 1.524 . S
C979 H982 0.999 . S
C980 H950 0.950 . S
C980 C979 1.524 . S
C980 C981 1.415 . S
C981 H951 0.950 . S
C981 C976 1.363 . S
C981 C980 1.415 . S
H982 C979 0.999 . S
H983 C964 0.913 . S
H984 C1002 0.951 . S
H985 C1004 0.951 . S
H986 C1006 0.950 . S
H987 C1007 0.950 . S
H988 C1009 0.950 . S
H989 C1012 0.950 . S
H990 C1013 0.950 . S
H991 C1015 0.950 . S
H992 C1016 0.950 . S
H993 C1017 0.951 . S
H994 C1019 0.951 . S
H995 C1021 0.950 . S
H996 C1022 0.950 . S
H997 C1024 0.950 . S
H998 C1027 0.950 . S
H999 C1028 0.950 . S
H1000 C1030 0.950 . S
H1001 C1031 0.950 . S
C1002 H984 0.951 . S
C1002 C1003 1.366 . S
C1002 C1004 1.388 . S
C1003 C1002 1.366 . S
C1003 C1007 1.385 . S
C1004 H985 0.951 . S
C1004 C1002 1.388 . S
C1004 C1005 1.366 . S
C1005 C1004 1.366 . S
C1005 C1006 1.414 . S
C1005 C1008 1.499 . S
C1006 H986 0.950 . S
C1006 C1005 1.414 . S
C1006 C1007 1.374 . S
C1007 H987 0.950 . S
C1007 C1003 1.385 . S
C1007 C1006 1.374 . S
C1008 C1005 1.499 . S
C1008 C1009 1.373 . S
C1008 C1010 1.389 . S
C1009 H988 0.950 . S
C1009 C1008 1.373 . S
C1009 C1025 1.377 . S
C1010 C1008 1.389 . S
C1010 C1011 1.524 . S
C1010 C1024 1.377 . S
C1011 C1010 1.524 . S
C1011 C1012 1.397 . S
C1011 C1016 1.363 . S
C1012 H989 0.950 . S
C1012 C1011 1.397 . S
C1012 C1013 1.334 . S
C1013 H990 0.950 . S
C1013 C1012 1.334 . S
C1013 C1014 1.287 . S
C1014 C1013 1.287 . S
C1014 C1015 1.524 . S
C1014 H1033 0.913 . S
C1015 H991 0.950 . S
C1015 C1014 1.524 . S
C1015 C1016 1.415 . S
C1016 H992 0.950 . S
C1016 C1011 1.363 . S
C1016 C1015 1.415 . S
C1017 H993 0.951 . S
C1017 C1018 1.366 . S
C1017 C1019 1.388 . S
C1018 C1017 1.366 . S
C1018 C1022 1.385 . S
C1019 H994 0.951 . S
C1019 C1017 1.388 . S
C1019 C1020 1.366 . S
C1020 C1019 1.366 . S
C1020 C1021 1.414 . S
C1020 C1023 1.499 . S
C1021 H995 0.950 . S
C1021 C1020 1.414 . S
C1021 C1022 1.374 . S
C1022 H996 0.950 . S
C1022 C1018 1.385 . S
C1022 C1021 1.374 . S
C1023 C1020 1.499 . S
C1023 C1024 1.373 . S
C1023 C1025 1.389 . S
C1024 H997 0.950 . S
C1024 C1010 1.377 . S
C1024 C1023 1.373 . S
C1025 C1009 1.377 . S
C1025 C1023 1.389 . S
C1025 C1026 1.524 . S
C1026 C1025 1.524 . S
C1026 C1027 1.397 . S
C1026 C1031 1.363 . S
C1027 H998 0.950 . S
C1027 C1026 1.397 . S
C1027 C1028 1.334 . S
C1028 H999 0.950 . S
C1028 C1027 1.334 . S
C1028 C1029 1.287 . S
C1029 C1028 1.287 . S
C1029 C1030 1.524 . S
C1029 H1032 0.999 . S
C1030 H1000 0.950 . S
C1030 C1029 1.524 . S
C1030 C1031 1.415 . S
C1031 H1001 0.950 . S
C1031 C1026 1.363 . S
C1031 C1030 1.415 . S
H1032 C1029 0.999 . S
H1033 C1014 0.913 . S
H1034 C1052 0.951 . S
H1035 C1054 0.951 . S
H1036 C1056 0.950 . S
H1037 C1057 0.950 . S
H1038 C1059 0.950 . S
H1039 C1062 0.950 . S
H1040 C1063 0.950 . S
H1041 C1065 0.950 . S
H1042 C1066 0.950 . S
H1043 C1067 0.951 . S
H1044 C1069 0.951 . S
H1045 C1071 0.950 . S
H1046 C1072 0.950 . S
H1047 C1074 0.950 . S
H1048 C1077 0.950 . S
H1049 C1078 0.950 . S
H1050 C1080 0.950 . S
H1051 C1081 0.950 . S
C1052 H1034 0.951 . S
C1052 C1053 1.366 . S
C1052 C1054 1.388 . S
C1053 C1052 1.366 . S
C1053 C1057 1.385 . S
C1054 H1035 0.951 . S
C1054 C1052 1.388 . S
C1054 C1055 1.366 . S
C1055 C1054 1.366 . S
C1055 C1056 1.414 . S
C1055 C1058 1.499 . S
C1056 H1036 0.950 . S
C1056 C1055 1.414 . S
C1056 C1057 1.374 . S
C1057 H1037 0.950 . S
C1057 C1053 1.385 . S
C1057 C1056 1.374 . S
C1058 C1055 1.499 . S
C1058 C1059 1.373 . S
C1058 C1060 1.389 . S
C1059 H1038 0.950 . S
C1059 C1058 1.373 . S
C1059 C1075 1.377 . S
C1060 C1058 1.389 . S
C1060 C1061 1.524 . S
C1060 C1074 1.377 . S
C1061 C1060 1.524 . S
C1061 C1062 1.397 . S
C1061 C1066 1.363 . S
C1062 H1039 0.950 . S
C1062 C1061 1.397 . S
C1062 C1063 1.334 . S
C1063 H1040 0.950 . S
C1063 C1062 1.334 . S
C1063 C1064 1.287 . S
C1064 C1063 1.287 . S
C1064 C1065 1.524 . S
C1064 H1083 0.913 . S
C1065 H1041 0.950 . S
C1065 C1064 1.524 . S
C1065 C1066 1.415 . S
C1066 H1042 0.950 . S
C1066 C1061 1.363 . S
C1066 C1065 1.415 . S
C1067 H1043 0.951 . S
C1067 C1068 1.366 . S
C1067 C1069 1.388 . S
C1068 C1067 1.366 . S
C1068 C1072 1.385 . S
C1069 H1044 0.951 . S
C1069 C1067 1.388 . S
C1069 C1070 1.366 . S
C1070 C1069 1.366 . S
C1070 C1071 1.414 . S
C1070 C1073 1.499 . S
C1071 H1045 0.950 . S
C1071 C1070 1.414 . S
C1071 C1072 1.374 . S
C1072 H1046 0.950 . S
C1072 C1068 1.385 . S
C1072 C1071 1.374 . S
C1073 C1070 1.499 . S
C1073 C1074 1.373 . S
C1073 C1075 1.389 . S
C1074 H1047 0.950 . S
C1074 C1060 1.377 . S
C1074 C1073 1.373 . S
C1075 C1059 1.377 . S
C1075 C1073 1.389 . S
C1075 C1076 1.524 . S
C1076 C1075 1.524 . S
C1076 C1077 1.397 . S
C1076 C1081 1.363 . S
C1077 H1048 0.950 . S
C1077 C1076 1.397 . S
C1077 C1078 1.334 . S
C1078 H1049 0.950 . S
C1078 C1077 1.334 . S
C1078 C1079 1.287 . S
C1079 C1078 1.287 . S
C1079 C1080 1.524 . S
C1079 H1082 0.999 . S
C1080 H1050 0.950 . S
C1080 C1079 1.524 . S
C1080 C1081 1.415 . S
C1081 H1051 0.950 . S
C1081 C1076 1.363 . S
C1081 C1080 1.415 . S
H1082 C1079 0.999 . S
H1083 C1064 0.913 . S
H1084 C1102 0.951 . S
H1085 C1104 0.951 . S
H1086 C1106 0.950 . S
H1087 C1107 0.950 . S
H1088 C1109 0.950 . S
H1089 C1112 0.950 . S
H1090 C1113 0.950 . S
H1091 C1115 0.950 . S
H1092 C1116 0.950 . S
H1093 C1117 0.951 . S
H1094 C1119 0.951 . S
H1095 C1121 0.950 . S
H1096 C1122 0.950 . S
H1097 C1124 0.950 . S
H1098 C1127 0.950 . S
H1099 C1128 0.950 . S
H1100 C1130 0.950 . S
H1101 C1131 0.950 . S
C1102 H1084 0.951 . S
C1102 C1103 1.366 . S
C1102 C1104 1.388 . S
C1103 C1102 1.366 . S
C1103 C1107 1.385 . S
C1104 H1085 0.951 . S
C1104 C1102 1.388 . S
C1104 C1105 1.366 . S
C1105 C1104 1.366 . S
C1105 C1106 1.414 . S
C1105 C1108 1.499 . S
C1106 H1086 0.950 . S
C1106 C1105 1.414 . S
C1106 C1107 1.374 . S
C1107 H1087 0.950 . S
C1107 C1103 1.385 . S
C1107 C1106 1.374 . S
C1108 C1105 1.499 . S
C1108 C1109 1.373 . S
C1108 C1110 1.389 . S
C1109 H1088 0.950 . S
C1109 C1108 1.373 . S
C1109 C1125 1.377 . S
C1110 C1108 1.389 . S
C1110 C1111 1.524 . S
C1110 C1124 1.377 . S
C1111 C1110 1.524 . S
C1111 C1112 1.397 . S
C1111 C1116 1.363 . S
C1112 H1089 0.950 . S
C1112 C1111 1.397 . S
C1112 C1113 1.334 . S
C1113 H1090 0.950 . S
C1113 C1112 1.334 . S
C1113 C1114 1.287 . S
C1114 C1113 1.287 . S
C1114 C1115 1.524 . S
C1114 H1133 0.913 . S
C1115 H1091 0.950 . S
C1115 C1114 1.524 . S
C1115 C1116 1.415 . S
C1116 H1092 0.950 . S
C1116 C1111 1.363 . S
C1116 C1115 1.415 . S
C1117 H1093 0.951 . S
C1117 C1118 1.366 . S
C1117 C1119 1.388 . S
C1118 C1117 1.366 . S
C1118 C1122 1.385 . S
C1119 H1094 0.951 . S
C1119 C1117 1.388 . S
C1119 C1120 1.366 . S
C1120 C1119 1.366 . S
C1120 C1121 1.414 . S
C1120 C1123 1.499 . S
C1121 H1095 0.950 . S
C1121 C1120 1.414 . S
C1121 C1122 1.374 . S
C1122 H1096 0.950 . S
C1122 C1118 1.385 . S
C1122 C1121 1.374 . S
C1123 C1120 1.499 . S
C1123 C1124 1.373 . S
C1123 C1125 1.389 . S
C1124 H1097 0.950 . S
C1124 C1110 1.377 . S
C1124 C1123 1.373 . S
C1125 C1109 1.377 . S
C1125 C1123 1.389 . S
C1125 C1126 1.524 . S
C1126 C1125 1.524 . S
C1126 C1127 1.397 . S
C1126 C1131 1.363 . S
C1127 H1098 0.950 . S
C1127 C1126 1.397 . S
C1127 C1128 1.334 . S
C1128 H1099 0.950 . S
C1128 C1127 1.334 . S
C1128 C1129 1.287 . S
C1129 C1128 1.287 . S
C1129 C1130 1.524 . S
C1129 H1132 0.999 . S
C1130 H1100 0.950 . S
C1130 C1129 1.524 . S
C1130 C1131 1.415 . S
C1131 H1101 0.950 . S
C1131 C1126 1.363 . S
C1131 C1130 1.415 . S
H1132 C1129 0.999 . S
H1133 C1114 0.913 . S
H1134 C1152 0.951 . S
H1135 C1154 0.951 . S
H1136 C1156 0.950 . S
H1137 C1157 0.950 . S
H1138 C1159 0.950 . S
H1139 C1162 0.950 . S
H1140 C1163 0.950 . S
H1141 C1165 0.950 . S
H1142 C1166 0.950 . S
H1143 C1167 0.951 . S
H1144 C1169 0.951 . S
H1145 C1171 0.950 . S
H1146 C1172 0.950 . S
H1147 C1174 0.950 . S
H1148 C1177 0.950 . S
H1149 C1178 0.972 . S
H1150 C1180 0.950 . S
H1151 C1181 0.950 . S
C1152 H1134 0.951 . S
C1152 C1153 1.366 . S
C1152 C1154 1.388 . S
C1153 C1152 1.366 . S
C1153 C1157 1.385 . S
C1154 H1135 0.951 . S
C1154 C1152 1.388 . S
C1154 C1155 1.366 . S
C1155 C1154 1.366 . S
C1155 C1156 1.414 . S
C1155 C1158 1.499 . S
C1156 H1136 0.950 . S
C1156 C1155 1.414 . S
C1156 C1157 1.374 . S
C1157 H1137 0.950 . S
C1157 C1153 1.385 . S
C1157 C1156 1.374 . S
C1158 C1155 1.499 . S
C1158 C1159 1.373 . S
C1158 C1160 1.389 . S
C1159 H1138 0.950 . S
C1159 C1158 1.373 . S
C1159 C1175 1.377 . S
C1160 C1158 1.389 . S
C1160 C1161 1.524 . S
C1160 C1174 1.377 . S
C1161 C1160 1.524 . S
C1161 C1162 1.397 . S
C1161 C1166 1.363 . S
C1162 H1139 0.950 . S
C1162 C1161 1.397 . S
C1162 C1163 1.334 . S
C1163 H1140 0.950 . S
C1163 C1162 1.334 . S
C1163 C1164 1.287 . S
C1164 C1163 1.287 . S
C1164 C1165 1.524 . S
C1164 H1183 0.913 . S
C1165 H1141 0.950 . S
C1165 C1164 1.524 . S
C1165 C1166 1.415 . S
C1166 H1142 0.950 . S
C1166 C1161 1.363 . S
C1166 C1165 1.415 . S
C1167 H1143 0.951 . S
C1167 C1168 1.366 . S
C1167 C1169 1.388 . S
C1168 C1167 1.366 . S
C1168 C1172 1.385 . S
C1169 H1144 0.951 . S
C1169 C1167 1.388 . S
C1169 C1170 1.366 . S
C1170 C1169 1.366 . S
C1170 C1171 1.414 . S
C1170 C1173 1.499 1_556 S
C1171 H1145 0.950 . S
C1171 C1170 1.414 . S
C1171 C1172 1.374 . S
C1172 H1146 0.950 . S
C1172 C1168 1.385 . S
C1172 C1171 1.374 . S
C1173 C1170 1.499 1_554 S
C1173 C1174 1.373 . S
C1173 C1175 1.389 . S
C1174 H1147 0.950 . S
C1174 C1160 1.377 . S
C1174 C1173 1.373 . S
C1175 C1159 1.377 . S
C1175 C1173 1.389 . S
C1175 C1176 1.524 1_554 S
C1176 C1175 1.524 1_556 S
C1176 C1177 1.397 . S
C1176 C1181 1.363 . S
C1177 H1148 0.950 . S
C1177 C1176 1.397 . S
C1177 C1178 1.334 . S
C1178 H1149 0.972 . S
C1178 C1177 1.334 . S
C1178 C1179 1.287 . S
C1179 C1178 1.287 . S
C1179 C1180 1.524 . S
C1179 H1182 0.999 . S
C1180 H1150 0.950 . S
C1180 C1179 1.524 . S
C1180 C1181 1.415 . S
C1181 H1151 0.950 . S
C1181 C1176 1.363 . S
C1181 C1180 1.415 . S
H1182 C1179 0.999 . S
H1183 C1164 0.913 . S
H1184 C1202 0.951 . S
H1185 C1204 0.951 . S
H1186 C1206 0.950 . S
H1187 C1207 0.950 . S
H1188 C1209 0.950 . S
H1189 C1212 0.950 . S
H1190 C1213 0.950 . S
H1191 C1215 0.950 . S
H1192 C1216 0.950 . S
H1193 C1217 0.951 . S
H1194 C1219 0.951 . S
H1195 C1221 0.950 . S
H1196 C1222 0.950 . S
H1197 C1224 0.950 . S
H1198 C1227 0.950 . S
H1199 C1228 0.950 . S
H1200 C1230 0.950 . S
H1201 C1231 0.950 . S
C1202 H1184 0.951 . S
C1202 C1203 1.366 . S
C1202 C1204 1.388 . S
C1203 C1202 1.366 . S
C1203 C1207 1.385 . S
C1204 H1185 0.951 . S
C1204 C1202 1.388 . S
C1204 C1205 1.366 . S
C1205 C1204 1.366 . S
C1205 C1206 1.414 . S
C1205 C1208 1.499 . S
C1206 H1186 0.950 . S
C1206 C1205 1.414 . S
C1206 C1207 1.374 . S
C1207 H1187 0.950 . S
C1207 C1203 1.385 . S
C1207 C1206 1.374 . S
C1208 C1205 1.499 . S
C1208 C1209 1.373 . S
C1208 C1210 1.389 . S
C1209 H1188 0.950 . S
C1209 C1208 1.373 . S
C1209 C1225 1.377 . S
C1210 C1208 1.389 . S
C1210 C1211 1.524 . S
C1210 C1224 1.377 . S
C1211 C1210 1.524 . S
C1211 C1212 1.397 . S
C1211 C1216 1.363 . S
C1212 H1189 0.950 . S
C1212 C1211 1.397 . S
C1212 C1213 1.334 . S
C1213 H1190 0.950 . S
C1213 C1212 1.334 . S
C1213 C1214 1.287 . S
C1214 C1213 1.287 . S
C1214 C1215 1.524 . S
C1214 H1233 0.913 . S
C1215 H1191 0.950 . S
C1215 C1214 1.524 . S
C1215 C1216 1.415 . S
C1216 H1192 0.950 . S
C1216 C1211 1.363 . S
C1216 C1215 1.415 . S
C1217 H1193 0.951 . S
C1217 C1218 1.366 . S
C1217 C1219 1.388 . S
C1218 C1217 1.366 . S
C1218 C1222 1.385 . S
C1219 H1194 0.951 . S
C1219 C1217 1.388 . S
C1219 C1220 1.366 . S
C1220 C1219 1.366 . S
C1220 C1221 1.414 . S
C1220 C1223 1.499 . S
C1221 H1195 0.950 . S
C1221 C1220 1.414 . S
C1221 C1222 1.374 . S
C1222 H1196 0.950 . S
C1222 C1218 1.385 . S
C1222 C1221 1.374 . S
C1223 C1220 1.499 . S
C1223 C1224 1.373 . S
C1223 C1225 1.389 . S
C1224 H1197 0.950 . S
C1224 C1210 1.377 . S
C1224 C1223 1.373 . S
C1225 C1209 1.377 . S
C1225 C1223 1.389 . S
C1225 C1226 1.524 . S
C1226 C1225 1.524 . S
C1226 C1227 1.397 . S
C1226 C1231 1.363 . S
C1227 H1198 0.950 . S
C1227 C1226 1.397 . S
C1227 C1228 1.334 . S
C1228 H1199 0.950 . S
C1228 C1227 1.334 . S
C1228 C1229 1.287 . S
C1229 C1228 1.287 . S
C1229 C1230 1.524 . S
C1229 H1232 0.999 . S
C1230 H1200 0.950 . S
C1230 C1229 1.524 . S
C1230 C1231 1.415 . S
C1231 H1201 0.950 . S
C1231 C1226 1.363 . S
C1231 C1230 1.415 . S
H1232 C1229 0.999 . S
H1233 C1214 0.913 . S
H1234 C1252 0.951 . S
H1235 C1254 0.951 . S
H1236 C1256 0.950 . S
H1237 C1257 0.950 . S
H1238 C1259 0.950 . S
H1239 C1262 0.950 . S
H1240 C1263 0.950 . S
H1241 C1265 0.950 . S
H1242 C1266 0.950 . S
H1243 C1267 0.951 . S
H1244 C1269 0.951 . S
H1245 C1271 0.950 . S
H1246 C1272 0.950 . S
H1247 C1274 0.950 . S
H1248 C1277 0.950 . S
H1249 C1278 0.950 . S
H1250 C1280 0.950 . S
H1251 C1281 0.950 . S
C1252 H1234 0.951 . S
C1252 C1253 1.366 . S
C1252 C1254 1.388 . S
C1253 C1252 1.366 . S
C1253 C1257 1.385 . S
C1254 H1235 0.951 . S
C1254 C1252 1.388 . S
C1254 C1255 1.366 . S
C1255 C1254 1.366 . S
C1255 C1256 1.414 . S
C1255 C1258 1.499 1_554 S
C1256 H1236 0.950 . S
C1256 C1255 1.414 . S
C1256 C1257 1.374 . S
C1257 H1237 0.950 . S
C1257 C1253 1.385 . S
C1257 C1256 1.374 . S
C1258 C1255 1.499 1_556 S
C1258 C1259 1.373 1_556 S
C1258 C1260 1.389 . S
C1259 H1238 0.950 . S
C1259 C1258 1.373 1_554 S
C1259 C1275 1.377 1_554 S
C1260 C1258 1.389 . S
C1260 C1261 1.524 . S
C1260 C1274 1.377 . S
C1261 C1260 1.524 . S
C1261 C1262 1.397 . S
C1261 C1266 1.363 . S
C1262 H1239 0.950 . S
C1262 C1261 1.397 . S
C1262 C1263 1.334 . S
C1263 H1240 0.950 . S
C1263 C1262 1.334 . S
C1263 C1264 1.287 . S
C1264 C1263 1.287 . S
C1264 C1265 1.524 . S
C1264 H1283 0.913 . S
C1265 H1241 0.950 . S
C1265 C1264 1.524 . S
C1265 C1266 1.415 . S
C1266 H1242 0.950 . S
C1266 C1261 1.363 . S
C1266 C1265 1.415 . S
C1267 H1243 0.951 . S
C1267 C1268 1.366 . S
C1267 C1269 1.388 . S
C1268 C1267 1.366 . S
C1268 C1272 1.385 . S
C1269 H1244 0.951 . S
C1269 C1267 1.388 . S
C1269 C1270 1.366 . S
C1270 C1269 1.366 . S
C1270 C1271 1.414 . S
C1270 C1273 1.499 . S
C1271 H1245 0.950 . S
C1271 C1270 1.414 . S
C1271 C1272 1.374 . S
C1272 H1246 0.950 . S
C1272 C1268 1.385 . S
C1272 C1271 1.374 . S
C1273 C1270 1.499 . S
C1273 C1274 1.373 . S
C1273 C1275 1.389 . S
C1274 H1247 0.950 . S
C1274 C1260 1.377 . S
C1274 C1273 1.373 . S
C1275 C1259 1.377 1_556 S
C1275 C1273 1.389 . S
C1275 C1276 1.524 . S
C1276 C1275 1.524 . S
C1276 C1277 1.397 . S
C1276 C1281 1.364 1_556 S
C1277 H1248 0.950 . S
C1277 C1276 1.397 . S
C1277 C1278 1.334 . S
C1278 H1249 0.950 . S
C1278 C1277 1.334 . S
C1278 C1279 1.287 . S
C1279 C1278 1.287 . S
C1279 C1280 1.524 1_556 S
C1279 H1282 0.999 1_456 S
C1280 H1250 0.950 . S
C1280 C1279 1.524 1_554 S
C1280 C1281 1.414 . S
C1281 H1251 0.950 . S
C1281 C1276 1.364 1_554 S
C1281 C1280 1.414 . S
H1282 C1279 0.999 1_654 S
H1283 C1264 0.913 . S
H1284 C1302 0.951 . S
H1285 C1304 0.951 . S
H1286 C1306 0.950 . S
H1287 C1307 0.950 . S
H1288 C1309 0.950 . S
H1289 C1312 0.950 . S
H1290 C1313 0.950 . S
H1291 C1315 0.950 . S
H1292 C1316 0.950 . S
H1293 C1317 0.951 . S
H1294 C1319 0.951 . S
H1295 C1321 0.950 . S
H1296 C1322 0.950 . S
H1297 C1324 0.950 . S
H1298 C1327 0.950 . S
H1299 C1328 0.950 . S
H1300 C1330 0.950 . S
H1301 C1331 0.950 . S
C1302 H1284 0.951 . S
C1302 C1303 1.366 . S
C1302 C1304 1.388 . S
C1303 C1302 1.366 . S
C1303 C1307 1.385 . S
C1304 H1285 0.951 . S
C1304 C1302 1.388 . S
C1304 C1305 1.366 . S
C1305 C1304 1.366 . S
C1305 C1306 1.414 . S
C1305 C1308 1.499 . S
C1306 H1286 0.950 . S
C1306 C1305 1.414 . S
C1306 C1307 1.374 . S
C1307 H1287 0.950 . S
C1307 C1303 1.385 . S
C1307 C1306 1.374 . S
C1308 C1305 1.499 . S
C1308 C1309 1.373 . S
C1308 C1310 1.389 . S
C1309 H1288 0.950 . S
C1309 C1308 1.373 . S
C1309 C1325 1.377 . S
C1310 C1308 1.389 . S
C1310 C1311 1.524 . S
C1310 C1324 1.377 . S
C1311 C1310 1.524 . S
C1311 C1312 1.397 . S
C1311 C1316 1.363 . S
C1312 H1289 0.950 . S
C1312 C1311 1.397 . S
C1312 C1313 1.334 . S
C1313 H1290 0.950 . S
C1313 C1312 1.334 . S
C1313 C1314 1.287 . S
C1314 C1313 1.287 . S
C1314 C1315 1.524 . S
C1314 H1333 0.913 . S
C1315 H1291 0.950 . S
C1315 C1314 1.524 . S
C1315 C1316 1.415 . S
C1316 H1292 0.950 . S
C1316 C1311 1.363 . S
C1316 C1315 1.415 . S
C1317 H1293 0.951 . S
C1317 C1318 1.366 . S
C1317 C1319 1.388 . S
C1318 C1317 1.366 . S
C1318 C1322 1.385 . S
C1319 H1294 0.951 . S
C1319 C1317 1.388 . S
C1319 C1320 1.366 . S
C1320 C1319 1.366 . S
C1320 C1321 1.414 . S
C1320 C1323 1.499 . S
C1321 H1295 0.950 . S
C1321 C1320 1.414 . S
C1321 C1322 1.374 . S
C1322 H1296 0.950 . S
C1322 C1318 1.385 . S
C1322 C1321 1.374 . S
C1323 C1320 1.499 . S
C1323 C1324 1.373 . S
C1323 C1325 1.389 . S
C1324 H1297 0.950 . S
C1324 C1310 1.377 . S
C1324 C1323 1.373 . S
C1325 C1309 1.377 . S
C1325 C1323 1.389 . S
C1325 C1326 1.524 . S
C1326 C1325 1.524 . S
C1326 C1327 1.397 . S
C1326 C1331 1.363 . S
C1327 H1298 0.950 . S
C1327 C1326 1.397 . S
C1327 C1328 1.334 . S
C1328 H1299 0.950 . S
C1328 C1327 1.334 . S
C1328 C1329 1.287 . S
C1329 C1328 1.287 . S
C1329 C1330 1.524 . S
C1329 H1332 0.999 . S
C1330 H1300 0.950 . S
C1330 C1329 1.524 . S
C1330 C1331 1.415 . S
C1331 H1301 0.950 . S
C1331 C1326 1.363 . S
C1331 C1330 1.415 . S
H1332 C1329 0.999 . S
H1333 C1314 0.913 . S
H1334 C1352 0.951 . S
H1335 C1354 0.951 . S
H1336 C1356 0.950 . S
H1337 C1357 0.950 . S
H1338 C1359 0.950 . S
H1339 C1362 0.950 . S
H1340 C1363 0.950 . S
H1341 C1365 0.950 . S
H1342 C1366 0.950 . S
H1343 C1367 0.951 . S
H1344 C1369 0.951 . S
H1345 C1371 0.950 . S
H1346 C1372 0.950 . S
H1347 C1374 0.950 . S
H1348 C1377 0.950 . S
H1349 C1378 0.950 . S
H1350 C1380 0.950 . S
H1351 C1381 0.950 . S
C1352 H1334 0.951 . S
C1352 C1353 1.366 . S
C1352 C1354 1.388 . S
C1353 C1352 1.366 . S
C1353 C1357 1.385 . S
C1354 H1335 0.951 . S
C1354 C1352 1.388 . S
C1354 C1355 1.366 . S
C1355 C1354 1.366 . S
C1355 C1356 1.414 . S
C1355 C1358 1.499 . S
C1356 H1336 0.950 . S
C1356 C1355 1.414 . S
C1356 C1357 1.374 . S
C1357 H1337 0.950 . S
C1357 C1353 1.385 . S
C1357 C1356 1.374 . S
C1358 C1355 1.499 . S
C1358 C1359 1.373 . S
C1358 C1360 1.389 . S
C1359 H1338 0.950 . S
C1359 C1358 1.373 . S
C1359 C1375 1.377 . S
C1360 C1358 1.389 . S
C1360 C1361 1.524 . S
C1360 C1374 1.377 . S
C1361 C1360 1.524 . S
C1361 C1362 1.397 . S
C1361 C1366 1.363 . S
C1362 H1339 0.950 . S
C1362 C1361 1.397 . S
C1362 C1363 1.334 . S
C1363 H1340 0.950 . S
C1363 C1362 1.334 . S
C1363 C1364 1.287 . S
C1364 C1363 1.287 . S
C1364 C1365 1.524 . S
C1364 H1383 0.913 . S
C1365 H1341 0.950 . S
C1365 C1364 1.524 . S
C1365 C1366 1.415 . S
C1366 H1342 0.950 . S
C1366 C1361 1.363 . S
C1366 C1365 1.415 . S
C1367 H1343 0.951 . S
C1367 C1368 1.366 . S
C1367 C1369 1.388 . S
C1368 C1367 1.366 . S
C1368 C1372 1.385 . S
C1369 H1344 0.951 . S
C1369 C1367 1.388 . S
C1369 C1370 1.366 . S
C1370 C1369 1.366 . S
C1370 C1371 1.414 . S
C1370 C1373 1.499 . S
C1371 H1345 0.950 . S
C1371 C1370 1.414 . S
C1371 C1372 1.374 . S
C1372 H1346 0.950 . S
C1372 C1368 1.385 . S
C1372 C1371 1.374 . S
C1373 C1370 1.499 . S
C1373 C1374 1.373 . S
C1373 C1375 1.389 . S
C1374 H1347 0.950 . S
C1374 C1360 1.377 . S
C1374 C1373 1.373 . S
C1375 C1359 1.377 . S
C1375 C1373 1.389 . S
C1375 C1376 1.524 . S
C1376 C1375 1.524 . S
C1376 C1377 1.397 . S
C1376 C1381 1.363 . S
C1377 H1348 0.950 . S
C1377 C1376 1.397 . S
C1377 C1378 1.334 . S
C1378 H1349 0.950 . S
C1378 C1377 1.334 . S
C1378 C1379 1.287 . S
C1379 C1378 1.287 . S
C1379 C1380 1.524 . S
C1379 H1382 0.999 . S
C1380 H1350 0.950 . S
C1380 C1379 1.524 . S
C1380 C1381 1.415 . S
C1381 H1351 0.950 . S
C1381 C1376 1.363 . S
C1381 C1380 1.415 . S
H1382 C1379 0.999 . S
H1383 C1364 0.913 . S
H1384 C1402 0.951 . S
H1385 C1404 0.951 . S
H1386 C1406 0.950 . S
H1387 C1407 0.950 . S
H1388 C1409 0.950 . S
H1389 C1412 0.950 . S
H1390 C1413 0.950 . S
H1391 C1415 0.950 . S
H1392 C1416 0.950 . S
H1393 C1417 0.951 . S
H1394 C1419 0.951 . S
H1395 C1421 0.950 . S
H1396 C1422 0.950 . S
H1397 C1424 0.950 . S
H1398 C1427 0.950 . S
H1399 C1428 0.950 . S
H1400 C1430 0.950 . S
H1401 C1431 0.950 . S
C1402 H1384 0.951 . S
C1402 C1403 1.366 . S
C1402 C1404 1.388 . S
C1403 C1402 1.366 . S
C1403 C1407 1.385 . S
C1404 H1385 0.951 . S
C1404 C1402 1.388 . S
C1404 C1405 1.366 . S
C1405 C1404 1.366 . S
C1405 C1406 1.414 . S
C1405 C1408 1.499 . S
C1406 H1386 0.950 . S
C1406 C1405 1.414 . S
C1406 C1407 1.374 . S
C1407 H1387 0.950 . S
C1407 C1403 1.385 . S
C1407 C1406 1.374 . S
C1408 C1405 1.499 . S
C1408 C1409 1.373 . S
C1408 C1410 1.389 . S
C1409 H1388 0.950 . S
C1409 C1408 1.373 . S
C1409 C1425 1.377 . S
C1410 C1408 1.389 . S
C1410 C1411 1.524 . S
C1410 C1424 1.377 . S
C1411 C1410 1.524 . S
C1411 C1412 1.397 . S
C1411 C1416 1.363 . S
C1412 H1389 0.950 . S
C1412 C1411 1.397 . S
C1412 C1413 1.334 . S
C1413 H1390 0.950 . S
C1413 C1412 1.334 . S
C1413 C1414 1.287 . S
C1414 C1413 1.287 . S
C1414 C1415 1.524 . S
C1414 H1433 0.913 . S
C1415 H1391 0.950 . S
C1415 C1414 1.524 . S
C1415 C1416 1.415 . S
C1416 H1392 0.950 . S
C1416 C1411 1.363 . S
C1416 C1415 1.415 . S
C1417 H1393 0.951 . S
C1417 C1418 1.366 . S
C1417 C1419 1.388 . S
C1418 C1417 1.366 . S
C1418 C1422 1.385 . S
C1419 H1394 0.951 . S
C1419 C1417 1.388 . S
C1419 C1420 1.366 . S
C1420 C1419 1.366 . S
C1420 C1421 1.414 . S
C1420 C1423 1.499 . S
C1421 H1395 0.950 . S
C1421 C1420 1.414 . S
C1421 C1422 1.374 . S
C1422 H1396 0.950 . S
C1422 C1418 1.385 . S
C1422 C1421 1.374 . S
C1423 C1420 1.499 . S
C1423 C1424 1.373 . S
C1423 C1425 1.389 . S
C1424 H1397 0.950 . S
C1424 C1410 1.377 . S
C1424 C1423 1.373 . S
C1425 C1409 1.377 . S
C1425 C1423 1.389 . S
C1425 C1426 1.524 . S
C1426 C1425 1.524 . S
C1426 C1427 1.397 . S
C1426 C1431 1.363 . S
C1427 H1398 0.950 . S
C1427 C1426 1.397 . S
C1427 C1428 1.334 . S
C1428 H1399 0.950 . S
C1428 C1427 1.334 . S
C1428 C1429 1.287 . S
C1429 C1428 1.287 . S
C1429 C1430 1.524 . S
C1429 H1432 0.999 . S
C1430 H1400 0.950 . S
C1430 C1429 1.524 . S
C1430 C1431 1.415 . S
C1431 H1401 0.950 . S
C1431 C1426 1.363 . S
C1431 C1430 1.415 . S
H1432 C1429 0.999 . S
H1433 C1414 0.913 . S
H1434 C1452 0.951 . S
H1435 C1454 0.951 . S
H1436 C1456 0.950 . S
H1437 C1457 0.950 . S
H1438 C1459 0.950 . S
H1439 C1462 0.950 . S
H1440 C1463 0.950 . S
H1441 C1465 0.950 1_655 S
H1442 C1466 0.950 . S
H1443 C1467 0.951 . S
H1444 C1469 0.951 . S
H1445 C1471 0.950 . S
H1446 C1472 0.950 . S
H1447 C1474 0.950 . S
H1448 C1477 0.950 . S
H1449 C1478 0.950 . S
H1450 C1480 0.950 . S
H1451 C1481 0.950 . S
C1452 H1434 0.951 . S
C1452 C1453 1.366 . S
C1452 C1454 1.388 . S
C1453 C1452 1.366 . S
C1453 C1457 1.385 . S
C1454 H1435 0.951 . S
C1454 C1452 1.388 . S
C1454 C1455 1.366 . S
C1455 C1454 1.366 . S
C1455 C1456 1.414 . S
C1455 C1458 1.499 . S
C1456 H1436 0.950 . S
C1456 C1455 1.414 . S
C1456 C1457 1.374 . S
C1457 H1437 0.950 . S
C1457 C1453 1.385 . S
C1457 C1456 1.374 . S
C1458 C1455 1.499 . S
C1458 C1459 1.373 . S
C1458 C1460 1.389 . S
C1459 H1438 0.950 . S
C1459 C1458 1.373 . S
C1459 C1475 1.405 . S
C1460 C1458 1.389 . S
C1460 C1461 1.524 . S
C1460 C1474 1.377 . S
C1461 C1460 1.524 . S
C1461 C1462 1.397 . S
C1461 C1466 1.363 . S
C1462 H1439 0.950 . S
C1462 C1461 1.397 . S
C1462 C1463 1.334 . S
C1463 H1440 0.950 . S
C1463 C1462 1.334 . S
C1463 C1464 1.287 . S
C1464 C1463 1.287 . S
C1464 C1465 1.524 . S
C1464 H1483 0.913 . S
C1465 H1441 0.950 1_455 S
C1465 C1464 1.524 . S
C1465 C1466 1.415 . S
C1466 H1442 0.950 . S
C1466 C1461 1.363 . S
C1466 C1465 1.415 . S
C1467 H1443 0.951 . S
C1467 C1468 1.366 . S
C1467 C1469 1.388 . S
C1468 C1467 1.366 . S
C1468 C1472 1.385 . S
C1469 H1444 0.951 . S
C1469 C1467 1.388 . S
C1469 C1470 1.366 . S
C1470 C1469 1.366 . S
C1470 C1471 1.414 . S
C1470 C1473 1.496 . S
C1471 H1445 0.950 . S
C1471 C1470 1.414 . S
C1471 C1472 1.374 . S
C1472 H1446 0.950 . S
C1472 C1468 1.385 . S
C1472 C1471 1.374 . S
C1473 C1470 1.496 . S
C1473 C1474 1.376 1_565 S
C1473 C1475 1.389 1_565 S
C1474 H1447 0.950 . S
C1474 C1460 1.377 . S
C1474 C1473 1.376 1_545 S
C1475 C1459 1.405 . S
C1475 C1473 1.389 1_545 S
C1475 C1476 1.497 1_545 S
C1476 C1475 1.497 1_565 S
C1476 C1477 1.397 . S
C1476 C1481 1.363 . S
C1477 H1448 0.950 . S
C1477 C1476 1.397 . S
C1477 C1478 1.334 . S
C1478 H1449 0.950 . S
C1478 C1477 1.334 . S
C1478 C1479 1.287 . S
C1479 C1478 1.287 . S
C1479 C1480 1.524 . S
C1479 H1482 0.999 . S
C1480 H1450 0.950 . S
C1480 C1479 1.524 . S
C1480 C1481 1.415 . S
C1481 H1451 0.950 . S
C1481 C1476 1.363 . S
C1481 C1480 1.415 . S
H1482 C1479 0.999 . S
H1483 C1464 0.913 . S
H1484 C1502 0.951 . S
H1485 C1504 0.951 . S
H1486 C1506 0.950 . S
H1487 C1507 0.950 . S
H1488 C1509 0.950 . S
H1489 C1512 0.950 . S
H1490 C1513 0.950 . S
H1491 C1515 0.950 . S
H1492 C1516 0.950 . S
H1493 C1517 0.951 . S
H1494 C1519 0.951 . S
H1495 C1521 0.950 . S
H1496 C1522 0.950 . S
H1497 C1524 0.950 . S
H1498 C1527 0.950 . S
H1499 C1528 0.950 . S
H1500 C1530 0.950 . S
H1501 C1531 0.950 . S
C1502 H1484 0.951 . S
C1502 C1503 1.366 . S
C1502 C1504 1.388 . S
C1503 C1502 1.366 . S
C1503 C1507 1.385 . S
C1504 H1485 0.951 . S
C1504 C1502 1.388 . S
C1504 C1505 1.366 . S
C1505 C1504 1.366 . S
C1505 C1506 1.414 . S
C1505 C1508 1.499 . S
C1506 H1486 0.950 . S
C1506 C1505 1.414 . S
C1506 C1507 1.374 . S
C1507 H1487 0.950 . S
C1507 C1503 1.385 . S
C1507 C1506 1.374 . S
C1508 C1505 1.499 . S
C1508 C1509 1.373 . S
C1508 C1510 1.389 . S
C1509 H1488 0.950 . S
C1509 C1508 1.373 . S
C1509 C1525 1.377 . S
C1510 C1508 1.389 . S
C1510 C1511 1.524 . S
C1510 C1524 1.377 . S
C1511 C1510 1.524 . S
C1511 C1512 1.397 . S
C1511 C1516 1.363 . S
C1512 H1489 0.950 . S
C1512 C1511 1.397 . S
C1512 C1513 1.334 . S
C1513 H1490 0.950 . S
C1513 C1512 1.334 . S
C1513 C1514 1.287 . S
C1514 C1513 1.287 . S
C1514 C1515 1.524 . S
C1514 H1533 0.913 . S
C1515 H1491 0.950 . S
C1515 C1514 1.524 . S
C1515 C1516 1.415 . S
C1516 H1492 0.950 . S
C1516 C1511 1.363 . S
C1516 C1515 1.415 . S
C1517 H1493 0.951 . S
C1517 C1518 1.366 . S
C1517 C1519 1.388 . S
C1518 C1517 1.366 . S
C1518 C1522 1.385 . S
C1519 H1494 0.951 . S
C1519 C1517 1.388 . S
C1519 C1520 1.366 . S
C1520 C1519 1.366 . S
C1520 C1521 1.414 . S
C1520 C1523 1.499 . S
C1521 H1495 0.950 . S
C1521 C1520 1.414 . S
C1521 C1522 1.374 . S
C1522 H1496 0.950 . S
C1522 C1518 1.385 . S
C1522 C1521 1.374 . S
C1523 C1520 1.499 . S
C1523 C1524 1.373 . S
C1523 C1525 1.389 . S
C1524 H1497 0.950 . S
C1524 C1510 1.377 . S
C1524 C1523 1.373 . S
C1525 C1509 1.377 . S
C1525 C1523 1.389 . S
C1525 C1526 1.524 . S
C1526 C1525 1.524 . S
C1526 C1527 1.397 . S
C1526 C1531 1.363 . S
C1527 H1498 0.950 . S
C1527 C1526 1.397 . S
C1527 C1528 1.334 . S
C1528 H1499 0.950 . S
C1528 C1527 1.334 . S
C1528 C1529 1.287 . S
C1529 C1528 1.287 . S
C1529 C1530 1.524 . S
C1529 H1532 0.999 . S
C1530 H1500 0.950 . S
C1530 C1529 1.524 . S
C1530 C1531 1.415 . S
C1531 H1501 0.950 . S
C1531 C1526 1.363 . S
C1531 C1530 1.415 . S
H1532 C1529 0.999 . S
H1533 C1514 0.913 . S
H1534 C1552 0.951 . S
H1535 C1554 0.951 . S
H1536 C1556 0.950 . S
H1537 C1557 0.950 . S
H1538 C1559 0.950 . S
H1539 C1562 0.950 . S
H1540 C1563 0.950 . S
H1541 C1565 0.959 . S
H1542 C1566 0.950 . S
H1543 C1567 0.951 . S
H1544 C1569 0.951 . S
H1545 C1571 0.950 . S
H1546 C1572 0.950 . S
H1547 C1574 0.950 . S
H1548 C1577 0.950 . S
H1549 C1578 0.950 . S
H1550 C1580 0.950 . S
H1551 C1581 0.950 . S
C1552 H1534 0.951 . S
C1552 C1553 1.366 . S
C1552 C1554 1.388 . S
C1553 C1552 1.366 . S
C1553 C1557 1.385 . S
C1554 H1535 0.951 . S
C1554 C1552 1.388 . S
C1554 C1555 1.366 . S
C1555 C1554 1.366 . S
C1555 C1556 1.414 . S
C1555 C1558 1.503 . S
C1556 H1536 0.950 . S
C1556 C1555 1.414 . S
C1556 C1557 1.374 . S
C1557 H1537 0.950 . S
C1557 C1553 1.385 . S
C1557 C1556 1.374 . S
C1558 C1555 1.503 . S
C1558 C1559 1.370 1_545 S
C1558 C1560 1.387 1_545 S
C1559 H1538 0.950 . S
C1559 C1558 1.370 1_565 S
C1559 C1575 1.377 . S
C1560 C1558 1.387 1_565 S
C1560 C1561 1.524 1_565 S
C1560 C1574 1.377 . S
C1561 C1560 1.524 1_545 S
C1561 C1562 1.397 . S
C1561 C1566 1.363 1_545 S
C1562 H1539 0.950 . S
C1562 C1561 1.397 . S
C1562 C1563 1.334 . S
C1563 H1540 0.950 . S
C1563 C1562 1.334 . S
C1563 C1564 1.287 . S
C1564 C1563 1.287 . S
C1564 C1565 1.524 . S
C1564 H1583 0.913 . S
C1565 H1541 0.959 . S
C1565 C1564 1.524 . S
C1565 C1566 1.415 1_545 S
C1566 H1542 0.950 . S
C1566 C1561 1.363 1_565 S
C1566 C1565 1.415 1_565 S
C1567 H1543 0.951 . S
C1567 C1568 1.366 . S
C1567 C1569 1.388 . S
C1568 C1567 1.366 . S
C1568 C1572 1.385 . S
C1569 H1544 0.951 . S
C1569 C1567 1.388 . S
C1569 C1570 1.366 . S
C1570 C1569 1.366 . S
C1570 C1571 1.414 . S
C1570 C1573 1.499 . S
C1571 H1545 0.950 . S
C1571 C1570 1.414 . S
C1571 C1572 1.374 . S
C1572 H1546 0.950 . S
C1572 C1568 1.385 . S
C1572 C1571 1.374 . S
C1573 C1570 1.499 . S
C1573 C1574 1.373 . S
C1573 C1575 1.389 . S
C1574 H1547 0.950 . S
C1574 C1560 1.377 . S
C1574 C1573 1.373 . S
C1575 C1559 1.377 . S
C1575 C1573 1.389 . S
C1575 C1576 1.524 . S
C1576 C1575 1.524 . S
C1576 C1577 1.397 . S
C1576 C1581 1.363 . S
C1577 H1548 0.950 . S
C1577 C1576 1.397 . S
C1577 C1578 1.334 . S
C1578 H1549 0.950 . S
C1578 C1577 1.334 . S
C1578 C1579 1.287 . S
C1579 C1578 1.287 . S
C1579 C1580 1.524 . S
C1579 H1582 0.999 . S
C1580 H1550 0.950 . S
C1580 C1579 1.524 . S
C1580 C1581 1.415 . S
C1581 H1551 0.950 . S
C1581 C1576 1.363 . S
C1581 C1580 1.415 . S
H1582 C1579 0.999 . S
H1583 C1564 0.913 . S
H1584 C1602 0.951 . S
H1585 C1604 0.951 . S
H1586 C1606 0.950 . S
H1587 C1607 0.950 . S
H1588 C1609 0.950 . S
H1589 C1612 0.950 . S
H1590 C1613 0.950 . S
H1591 C1615 0.950 . S
H1592 C1616 0.950 . S
H1593 C1617 0.951 . S
H1594 C1619 0.951 . S
H1595 C1621 0.950 . S
H1596 C1622 0.950 . S
H1597 C1624 0.950 . S
H1598 C1627 0.950 . S
H1599 C1628 0.950 . S
H1600 C1630 0.950 . S
H1601 C1631 0.950 . S
C1602 H1584 0.951 . S
C1602 C1603 1.366 . S
C1602 C1604 1.388 . S
C1603 C1602 1.366 . S
C1603 C1607 1.385 . S
C1604 H1585 0.951 . S
C1604 C1602 1.388 . S
C1604 C1605 1.366 . S
C1605 C1604 1.366 . S
C1605 C1606 1.414 . S
C1605 C1608 1.499 . S
C1606 H1586 0.950 . S
C1606 C1605 1.414 . S
C1606 C1607 1.374 . S
C1607 H1587 0.950 . S
C1607 C1603 1.385 . S
C1607 C1606 1.374 . S
C1608 C1605 1.499 . S
C1608 C1609 1.373 . S
C1608 C1610 1.389 . S
C1609 H1588 0.950 . S
C1609 C1608 1.373 . S
C1609 C1625 1.377 . S
C1610 C1608 1.389 . S
C1610 C1611 1.524 . S
C1610 C1624 1.377 . S
C1611 C1610 1.524 . S
C1611 C1612 1.397 . S
C1611 C1616 1.363 . S
C1612 H1589 0.950 . S
C1612 C1611 1.397 . S
C1612 C1613 1.334 . S
C1613 H1590 0.950 . S
C1613 C1612 1.334 . S
C1613 C1614 1.287 . S
C1614 C1613 1.287 . S
C1614 C1615 1.524 . S
C1614 H1633 0.913 . S
C1615 H1591 0.950 . S
C1615 C1614 1.524 . S
C1615 C1616 1.415 . S
C1616 H1592 0.950 . S
C1616 C1611 1.363 . S
C1616 C1615 1.415 . S
C1617 H1593 0.951 . S
C1617 C1618 1.366 . S
C1617 C1619 1.388 . S
C1618 C1617 1.366 . S
C1618 C1622 1.385 . S
C1619 H1594 0.951 . S
C1619 C1617 1.388 . S
C1619 C1620 1.366 . S
C1620 C1619 1.366 . S
C1620 C1621 1.414 . S
C1620 C1623 1.499 . S
C1621 H1595 0.950 . S
C1621 C1620 1.414 . S
C1621 C1622 1.374 . S
C1622 H1596 0.950 . S
C1622 C1618 1.385 . S
C1622 C1621 1.374 . S
C1623 C1620 1.499 . S
C1623 C1624 1.373 . S
C1623 C1625 1.389 . S
C1624 H1597 0.950 . S
C1624 C1610 1.377 . S
C1624 C1623 1.373 . S
C1625 C1609 1.377 . S
C1625 C1623 1.389 . S
C1625 C1626 1.524 . S
C1626 C1625 1.524 . S
C1626 C1627 1.397 . S
C1626 C1631 1.363 . S
C1627 H1598 0.950 . S
C1627 C1626 1.397 . S
C1627 C1628 1.334 . S
C1628 H1599 0.950 . S
C1628 C1627 1.334 . S
C1628 C1629 1.287 . S
C1629 C1628 1.287 . S
C1629 C1630 1.524 . S
C1629 H1632 0.999 . S
C1630 H1600 0.950 . S
C1630 C1629 1.524 . S
C1630 C1631 1.415 . S
C1631 H1601 0.950 . S
C1631 C1626 1.363 . S
C1631 C1630 1.415 . S
H1632 C1629 0.999 . S
H1633 C1614 0.913 . S
H1634 C1652 0.951 . S
H1635 C1654 0.951 . S
H1636 C1656 0.950 . S
H1637 C1657 0.950 . S
H1638 C1659 0.950 . S
H1639 C1662 0.950 . S
H1640 C1663 0.950 . S
H1641 C1665 0.950 1_455 S
H1642 C1666 0.950 . S
H1643 C1667 0.951 . S
H1644 C1669 0.951 . S
H1645 C1671 0.950 . S
H1646 C1672 0.950 . S
H1647 C1674 0.950 . S
H1648 C1677 0.950 . S
H1649 C1678 0.950 . S
H1650 C1680 0.950 . S
H1651 C1681 0.950 . S
C1652 H1634 0.951 . S
C1652 C1653 1.366 . S
C1652 C1654 1.388 . S
C1653 C1652 1.366 . S
C1653 C1657 1.385 . S
C1654 H1635 0.951 . S
C1654 C1652 1.388 . S
C1654 C1655 1.366 . S
C1655 C1654 1.366 . S
C1655 C1656 1.414 . S
C1655 C1658 1.499 . S
C1656 H1636 0.950 . S
C1656 C1655 1.414 . S
C1656 C1657 1.374 . S
C1657 H1637 0.950 . S
C1657 C1653 1.385 . S
C1657 C1656 1.374 . S
C1658 C1655 1.499 . S
C1658 C1659 1.373 . S
C1658 C1660 1.389 . S
C1659 H1638 0.950 . S
C1659 C1658 1.373 . S
C1659 C1675 1.377 . S
C1660 C1658 1.389 . S
C1660 C1661 1.524 . S
C1660 C1674 1.377 . S
C1661 C1660 1.524 . S
C1661 C1662 1.397 . S
C1661 C1666 1.363 . S
C1662 H1639 0.950 . S
C1662 C1661 1.397 . S
C1662 C1663 1.334 . S
C1663 H1640 0.950 . S
C1663 C1662 1.334 . S
C1663 C1664 1.287 . S
C1664 C1663 1.287 . S
C1664 C1665 1.524 . S
C1664 H1683 0.913 . S
C1665 H1641 0.950 1_655 S
C1665 C1664 1.524 . S
C1665 C1666 1.415 . S
C1666 H1642 0.950 . S
C1666 C1661 1.363 . S
C1666 C1665 1.415 . S
C1667 H1643 0.951 . S
C1667 C1668 1.366 . S
C1667 C1669 1.388 . S
C1668 C1667 1.366 . S
C1668 C1672 1.385 . S
C1669 H1644 0.951 . S
C1669 C1667 1.388 . S
C1669 C1670 1.366 . S
C1670 C1669 1.366 . S
C1670 C1671 1.414 . S
C1670 C1673 1.499 . S
C1671 H1645 0.950 . S
C1671 C1670 1.414 . S
C1671 C1672 1.374 . S
C1672 H1646 0.950 . S
C1672 C1668 1.385 . S
C1672 C1671 1.374 . S
C1673 C1670 1.499 . S
C1673 C1674 1.373 . S
C1673 C1675 1.389 . S
C1674 H1647 0.950 . S
C1674 C1660 1.377 . S
C1674 C1673 1.373 . S
C1675 C1659 1.377 . S
C1675 C1673 1.389 . S
C1675 C1676 1.524 . S
C1676 C1675 1.524 . S
C1676 C1677 1.397 . S
C1676 C1681 1.363 . S
C1677 H1648 0.950 . S
C1677 C1676 1.397 . S
C1677 C1678 1.334 . S
C1678 H1649 0.950 . S
C1678 C1677 1.334 . S
C1678 C1679 1.287 . S
C1679 C1678 1.287 . S
C1679 C1680 1.524 . S
C1679 H1682 0.999 . S
C1680 H1650 0.950 . S
C1680 C1679 1.524 . S
C1680 C1681 1.415 . S
C1681 H1651 0.950 . S
C1681 C1676 1.363 . S
C1681 C1680 1.415 . S
H1682 C1679 0.999 . S
H1683 C1664 0.913 . S
H1684 C1702 0.951 . S
H1685 C1704 0.951 . S
H1686 C1706 0.950 . S
H1687 C1707 0.950 . S
H1688 C1709 0.950 . S
H1689 C1712 0.950 . S
H1690 C1713 0.950 . S
H1691 C1715 0.950 . S
H1692 C1716 0.950 . S
H1693 C1717 0.951 . S
H1694 C1719 0.951 . S
H1695 C1721 0.950 . S
H1696 C1722 0.950 . S
H1697 C1724 0.950 . S
H1698 C1727 0.950 . S
H1699 C1728 0.950 . S
H1700 C1730 0.950 . S
H1701 C1731 0.950 . S
C1702 H1684 0.951 . S
C1702 C1703 1.366 . S
C1702 C1704 1.388 . S
C1703 C1702 1.366 . S
C1703 C1707 1.385 . S
C1704 H1685 0.951 . S
C1704 C1702 1.388 . S
C1704 C1705 1.366 . S
C1705 C1704 1.366 . S
C1705 C1706 1.414 . S
C1705 C1708 1.499 . S
C1706 H1686 0.950 . S
C1706 C1705 1.414 . S
C1706 C1707 1.374 . S
C1707 H1687 0.950 . S
C1707 C1703 1.385 . S
C1707 C1706 1.374 . S
C1708 C1705 1.499 . S
C1708 C1709 1.373 . S
C1708 C1710 1.389 . S
C1709 H1688 0.950 . S
C1709 C1708 1.373 . S
C1709 C1725 1.377 . S
C1710 C1708 1.389 . S
C1710 C1711 1.524 . S
C1710 C1724 1.377 . S
C1711 C1710 1.524 . S
C1711 C1712 1.397 . S
C1711 C1716 1.363 . S
C1712 H1689 0.950 . S
C1712 C1711 1.397 . S
C1712 C1713 1.334 . S
C1713 H1690 0.950 . S
C1713 C1712 1.334 . S
C1713 C1714 1.287 . S
C1714 C1713 1.287 . S
C1714 C1715 1.524 . S
C1714 H1733 0.913 . S
C1715 H1691 0.950 . S
C1715 C1714 1.524 . S
C1715 C1716 1.415 . S
C1716 H1692 0.950 . S
C1716 C1711 1.363 . S
C1716 C1715 1.415 . S
C1717 H1693 0.951 . S
C1717 C1718 1.366 . S
C1717 C1719 1.388 . S
C1718 C1717 1.366 . S
C1718 C1722 1.385 . S
C1719 H1694 0.951 . S
C1719 C1717 1.388 . S
C1719 C1720 1.366 . S
C1720 C1719 1.366 . S
C1720 C1721 1.414 . S
C1720 C1723 1.499 . S
C1721 H1695 0.950 . S
C1721 C1720 1.414 . S
C1721 C1722 1.374 . S
C1722 H1696 0.950 . S
C1722 C1718 1.385 . S
C1722 C1721 1.374 . S
C1723 C1720 1.499 . S
C1723 C1724 1.373 . S
C1723 C1725 1.389 . S
C1724 H1697 0.950 . S
C1724 C1710 1.377 . S
C1724 C1723 1.373 . S
C1725 C1709 1.377 . S
C1725 C1723 1.389 . S
C1725 C1726 1.524 . S
C1726 C1725 1.524 . S
C1726 C1727 1.397 . S
C1726 C1731 1.363 . S
C1727 H1698 0.950 . S
C1727 C1726 1.397 . S
C1727 C1728 1.334 . S
C1728 H1699 0.950 . S
C1728 C1727 1.334 . S
C1728 C1729 1.287 . S
C1729 C1728 1.287 . S
C1729 C1730 1.524 . S
C1729 H1732 0.999 . S
C1730 H1700 0.950 . S
C1730 C1729 1.524 . S
C1730 C1731 1.415 . S
C1731 H1701 0.950 . S
C1731 C1726 1.363 . S
C1731 C1730 1.415 . S
H1732 C1729 0.999 . S
H1733 C1714 0.913 . S
H1734 C1752 0.951 . S
H1735 C1754 0.951 . S
H1736 C1756 0.950 . S
H1737 C1757 0.950 . S
H1738 C1759 0.950 . S
H1739 C1762 0.950 . S
H1740 C1763 0.950 . S
H1741 C1765 0.950 . S
H1742 C1766 0.950 . S
H1743 C1767 0.951 . S
H1744 C1769 0.951 . S
H1745 C1771 0.950 . S
H1746 C1772 0.950 . S
H1747 C1774 0.950 . S
H1748 C1777 0.950 . S
H1749 C1778 0.950 . S
H1750 C1780 0.950 . S
H1751 C1781 0.950 . S
C1752 H1734 0.951 . S
C1752 C1753 1.366 . S
C1752 C1754 1.388 . S
C1753 C1752 1.366 . S
C1753 C1757 1.385 . S
C1754 H1735 0.951 . S
C1754 C1752 1.388 . S
C1754 C1755 1.366 . S
C1755 C1754 1.366 . S
C1755 C1756 1.414 . S
C1755 C1758 1.499 . S
C1756 H1736 0.950 . S
C1756 C1755 1.414 . S
C1756 C1757 1.374 . S
C1757 H1737 0.950 . S
C1757 C1753 1.385 . S
C1757 C1756 1.374 . S
C1758 C1755 1.499 . S
C1758 C1759 1.373 . S
C1758 C1760 1.389 . S
C1759 H1738 0.950 . S
C1759 C1758 1.373 . S
C1759 C1775 1.377 . S
C1760 C1758 1.389 . S
C1760 C1761 1.524 . S
C1760 C1774 1.377 . S
C1761 C1760 1.524 . S
C1761 C1762 1.397 . S
C1761 C1766 1.363 . S
C1762 H1739 0.950 . S
C1762 C1761 1.397 . S
C1762 C1763 1.334 . S
C1763 H1740 0.950 . S
C1763 C1762 1.334 . S
C1763 C1764 1.287 . S
C1764 C1763 1.287 . S
C1764 C1765 1.524 . S
C1764 H1783 0.913 . S
C1765 H1741 0.950 . S
C1765 C1764 1.524 . S
C1765 C1766 1.415 . S
C1766 H1742 0.950 . S
C1766 C1761 1.363 . S
C1766 C1765 1.415 . S
C1767 H1743 0.951 . S
C1767 C1768 1.366 . S
C1767 C1769 1.388 . S
C1768 C1767 1.366 . S
C1768 C1772 1.385 . S
C1769 H1744 0.951 . S
C1769 C1767 1.388 . S
C1769 C1770 1.366 . S
C1770 C1769 1.366 . S
C1770 C1771 1.414 . S
C1770 C1773 1.499 . S
C1771 H1745 0.950 . S
C1771 C1770 1.414 . S
C1771 C1772 1.374 . S
C1772 H1746 0.950 . S
C1772 C1768 1.385 . S
C1772 C1771 1.374 . S
C1773 C1770 1.499 . S
C1773 C1774 1.373 . S
C1773 C1775 1.389 . S
C1774 H1747 0.950 . S
C1774 C1760 1.377 . S
C1774 C1773 1.373 . S
C1775 C1759 1.377 . S
C1775 C1773 1.389 . S
C1775 C1776 1.524 . S
C1776 C1775 1.524 . S
C1776 C1777 1.397 . S
C1776 C1781 1.363 . S
C1777 H1748 0.950 . S
C1777 C1776 1.397 . S
C1777 C1778 1.334 . S
C1778 H1749 0.950 . S
C1778 C1777 1.334 . S
C1778 C1779 1.287 . S
C1779 C1778 1.287 . S
C1779 C1780 1.524 . S
C1779 H1782 0.999 . S
C1780 H1750 0.950 . S
C1780 C1779 1.524 . S
C1780 C1781 1.415 . S
C1781 H1751 0.950 . S
C1781 C1776 1.363 . S
C1781 C1780 1.415 . S
H1782 C1779 0.999 . S
H1783 C1764 0.913 . S
H1784 C1802 0.951 . S
H1785 C1804 0.951 . S
H1786 C1806 0.950 . S
H1787 C1807 0.950 . S
H1788 C1809 0.950 . S
H1789 C1812 0.950 . S
H1790 C1813 0.950 . S
H1791 C1815 0.950 . S
H1792 C1816 0.950 . S
H1793 C1817 0.951 . S
H1794 C1819 0.951 . S
H1795 C1821 0.950 . S
H1796 C1822 0.950 . S
H1797 C1824 0.950 . S
H1798 C1827 0.950 . S
H1799 C1828 0.950 . S
H1800 C1830 0.950 . S
H1801 C1831 0.950 . S
C1802 H1784 0.951 . S
C1802 C1803 1.366 . S
C1802 C1804 1.388 . S
C1803 C1802 1.366 . S
C1803 C1807 1.385 . S
C1804 H1785 0.951 . S
C1804 C1802 1.388 . S
C1804 C1805 1.366 . S
C1805 C1804 1.366 . S
C1805 C1806 1.414 . S
C1805 C1808 1.499 . S
C1806 H1786 0.950 . S
C1806 C1805 1.414 . S
C1806 C1807 1.374 . S
C1807 H1787 0.950 . S
C1807 C1803 1.385 . S
C1807 C1806 1.374 . S
C1808 C1805 1.499 . S
C1808 C1809 1.373 . S
C1808 C1810 1.389 . S
C1809 H1788 0.950 . S
C1809 C1808 1.373 . S
C1809 C1825 1.377 . S
C1810 C1808 1.389 . S
C1810 C1811 1.524 . S
C1810 C1824 1.377 . S
C1811 C1810 1.524 . S
C1811 C1812 1.397 . S
C1811 C1816 1.363 . S
C1812 H1789 0.950 . S
C1812 C1811 1.397 . S
C1812 C1813 1.334 . S
C1813 H1790 0.950 . S
C1813 C1812 1.334 . S
C1813 C1814 1.287 . S
C1814 C1813 1.287 . S
C1814 C1815 1.524 . S
C1814 H1833 0.913 . S
C1815 H1791 0.950 . S
C1815 C1814 1.524 . S
C1815 C1816 1.415 . S
C1816 H1792 0.950 . S
C1816 C1811 1.363 . S
C1816 C1815 1.415 . S
C1817 H1793 0.951 . S
C1817 C1818 1.366 . S
C1817 C1819 1.388 . S
C1818 C1817 1.366 . S
C1818 C1822 1.385 . S
C1819 H1794 0.951 . S
C1819 C1817 1.388 . S
C1819 C1820 1.366 . S
C1820 C1819 1.366 . S
C1820 C1821 1.414 . S
C1820 C1823 1.499 . S
C1821 H1795 0.950 . S
C1821 C1820 1.414 . S
C1821 C1822 1.374 . S
C1822 H1796 0.950 . S
C1822 C1818 1.385 . S
C1822 C1821 1.374 . S
C1823 C1820 1.499 . S
C1823 C1824 1.373 . S
C1823 C1825 1.389 . S
C1824 H1797 0.950 . S
C1824 C1810 1.377 . S
C1824 C1823 1.373 . S
C1825 C1809 1.377 . S
C1825 C1823 1.389 . S
C1825 C1826 1.524 . S
C1826 C1825 1.524 . S
C1826 C1827 1.397 . S
C1826 C1831 1.363 . S
C1827 H1798 0.950 . S
C1827 C1826 1.397 . S
C1827 C1828 1.334 . S
C1828 H1799 0.950 . S
C1828 C1827 1.334 . S
C1828 C1829 1.287 . S
C1829 C1828 1.287 . S
C1829 C1830 1.524 . S
C1829 H1832 0.999 . S
C1830 H1800 0.950 . S
C1830 C1829 1.524 . S
C1830 C1831 1.415 . S
C1831 H1801 0.950 . S
C1831 C1826 1.363 . S
C1831 C1830 1.415 . S
H1832 C1829 0.999 . S
H1833 C1814 0.913 . S
H1834 C1852 0.951 . S
H1835 C1854 0.951 . S
H1836 C1856 0.950 . S
H1837 C1857 0.950 . S
H1838 C1859 0.950 . S
H1839 C1862 0.950 . S
H1840 C1863 0.950 . S
H1841 C1865 0.950 . S
H1842 C1866 0.950 . S
H1843 C1867 0.951 . S
H1844 C1869 0.951 . S
H1845 C1871 0.950 . S
H1846 C1872 0.950 . S
H1847 C1874 0.950 . S
H1848 C1877 0.950 . S
H1849 C1878 0.950 . S
H1850 C1880 0.950 . S
H1851 C1881 0.950 . S
C1852 H1834 0.951 . S
C1852 C1853 1.366 . S
C1852 C1854 1.388 . S
C1853 C1852 1.366 . S
C1853 C1857 1.385 . S
C1854 H1835 0.951 . S
C1854 C1852 1.388 . S
C1854 C1855 1.366 . S
C1855 C1854 1.366 . S
C1855 C1856 1.414 . S
C1855 C1858 1.499 . S
C1856 H1836 0.950 . S
C1856 C1855 1.414 . S
C1856 C1857 1.374 . S
C1857 H1837 0.950 . S
C1857 C1853 1.385 . S
C1857 C1856 1.374 . S
C1858 C1855 1.499 . S
C1858 C1859 1.373 . S
C1858 C1860 1.389 . S
C1859 H1838 0.950 . S
C1859 C1858 1.373 . S
C1859 C1875 1.377 . S
C1860 C1858 1.389 . S
C1860 C1861 1.524 . S
C1860 C1874 1.377 . S
C1861 C1860 1.524 . S
C1861 C1862 1.397 . S
C1861 C1866 1.363 . S
C1862 H1839 0.950 . S
C1862 C1861 1.397 . S
C1862 C1863 1.334 . S
C1863 H1840 0.950 . S
C1863 C1862 1.334 . S
C1863 C1864 1.287 . S
C1864 C1863 1.287 . S
C1864 C1865 1.524 . S
C1864 H1883 0.913 . S
C1865 H1841 0.950 . S
C1865 C1864 1.524 . S
C1865 C1866 1.415 . S
C1866 H1842 0.950 . S
C1866 C1861 1.363 . S
C1866 C1865 1.415 . S
C1867 H1843 0.951 . S
C1867 C1868 1.366 . S
C1867 C1869 1.388 . S
C1868 C1867 1.366 . S
C1868 C1872 1.385 . S
C1869 H1844 0.951 . S
C1869 C1867 1.388 . S
C1869 C1870 1.366 . S
C1870 C1869 1.366 . S
C1870 C1871 1.414 . S
C1870 C1873 1.499 . S
C1871 H1845 0.950 . S
C1871 C1870 1.414 . S
C1871 C1872 1.374 . S
C1872 H1846 0.950 . S
C1872 C1868 1.385 . S
C1872 C1871 1.374 . S
C1873 C1870 1.499 . S
C1873 C1874 1.373 . S
C1873 C1875 1.389 . S
C1874 H1847 0.950 . S
C1874 C1860 1.377 . S
C1874 C1873 1.373 . S
C1875 C1859 1.377 . S
C1875 C1873 1.389 . S
C1875 C1876 1.524 . S
C1876 C1875 1.524 . S
C1876 C1877 1.397 . S
C1876 C1881 1.363 . S
C1877 H1848 0.950 . S
C1877 C1876 1.397 . S
C1877 C1878 1.334 . S
C1878 H1849 0.950 . S
C1878 C1877 1.334 . S
C1878 C1879 1.287 . S
C1879 C1878 1.287 . S
C1879 C1880 1.524 . S
C1879 H1882 0.999 . S
C1880 H1850 0.950 . S
C1880 C1879 1.524 . S
C1880 C1881 1.415 . S
C1881 H1851 0.950 . S
C1881 C1876 1.363 . S
C1881 C1880 1.415 . S
H1882 C1879 0.999 . S
H1883 C1864 0.913 . S
H1884 C1902 0.951 . S
H1885 C1904 0.951 . S
H1886 C1906 0.950 . S
H1887 C1907 0.950 . S
H1888 C1909 0.950 . S
H1889 C1912 0.950 . S
H1890 C1913 0.950 . S
H1891 C1915 0.950 . S
H1892 C1916 0.950 . S
H1893 C1917 0.951 . S
H1894 C1919 0.951 . S
H1895 C1921 0.950 . S
H1896 C1922 0.950 . S
H1897 C1924 0.950 . S
H1898 C1927 0.950 . S
H1899 C1928 0.950 . S
H1900 C1930 0.950 . S
H1901 C1931 0.950 . S
C1902 H1884 0.951 . S
C1902 C1903 1.366 . S
C1902 C1904 1.388 . S
C1903 C1902 1.366 . S
C1903 C1907 1.385 . S
C1904 H1885 0.951 . S
C1904 C1902 1.388 . S
C1904 C1905 1.366 . S
C1905 C1904 1.366 . S
C1905 C1906 1.414 . S
C1905 C1908 1.499 . S
C1906 H1886 0.950 . S
C1906 C1905 1.414 . S
C1906 C1907 1.374 . S
C1907 H1887 0.950 . S
C1907 C1903 1.385 . S
C1907 C1906 1.374 . S
C1908 C1905 1.499 . S
C1908 C1909 1.373 . S
C1908 C1910 1.389 . S
C1909 H1888 0.950 . S
C1909 C1908 1.373 . S
C1909 C1925 1.375 1_455 S
C1910 C1908 1.389 . S
C1910 C1911 1.524 . S
C1910 C1924 1.377 . S
C1911 C1910 1.524 . S
C1911 C1912 1.397 . S
C1911 C1916 1.363 . S
C1912 H1889 0.950 . S
C1912 C1911 1.397 . S
C1912 C1913 1.334 . S
C1913 H1890 0.950 . S
C1913 C1912 1.334 . S
C1913 C1914 1.287 . S
C1914 C1913 1.287 . S
C1914 C1915 1.524 . S
C1914 H1933 0.913 . S
C1915 H1891 0.950 . S
C1915 C1914 1.524 . S
C1915 C1916 1.415 . S
C1916 H1892 0.950 . S
C1916 C1911 1.363 . S
C1916 C1915 1.415 . S
C1917 H1893 0.951 . S
C1917 C1918 1.366 . S
C1917 C1919 1.388 . S
C1918 C1917 1.366 . S
C1918 C1922 1.385 . S
C1919 H1894 0.951 . S
C1919 C1917 1.388 . S
C1919 C1920 1.366 . S
C1920 C1919 1.366 . S
C1920 C1921 1.414 . S
C1920 C1923 1.464 1_655 S
C1921 H1895 0.950 . S
C1921 C1920 1.414 . S
C1921 C1922 1.374 . S
C1922 H1896 0.950 . S
C1922 C1918 1.385 . S
C1922 C1921 1.374 . S
C1923 C1920 1.464 1_455 S
C1923 C1924 1.410 . S
C1923 C1925 1.388 1_455 S
C1924 H1897 0.950 . S
C1924 C1910 1.377 . S
C1924 C1923 1.410 . S
C1925 C1909 1.375 1_655 S
C1925 C1923 1.388 1_655 S
C1925 C1926 1.526 . S
C1926 C1925 1.526 . S
C1926 C1927 1.397 . S
C1926 C1931 1.363 . S
C1927 H1898 0.950 . S
C1927 C1926 1.397 . S
C1927 C1928 1.334 . S
C1928 H1899 0.950 . S
C1928 C1927 1.334 . S
C1928 C1929 1.287 . S
C1929 C1928 1.287 . S
C1929 C1930 1.524 . S
C1929 H1932 0.999 . S
C1930 H1900 0.950 . S
C1930 C1929 1.524 . S
C1930 C1931 1.415 . S
C1931 H1901 0.950 . S
C1931 C1926 1.363 . S
C1931 C1930 1.415 . S
H1932 C1929 0.999 . S
H1933 C1914 0.913 . S
H1934 C1952 0.951 . S
H1935 C1954 0.951 . S
H1936 C1956 0.950 . S
H1937 C1957 0.950 . S
H1938 C1959 0.950 . S
H1939 C1962 0.950 . S
H1940 C1963 0.950 . S
H1941 C1965 0.950 . S
H1942 C1966 0.950 . S
H1943 C1967 0.951 . S
H1944 C1969 0.951 . S
H1945 C1971 0.950 . S
H1946 C1972 0.950 . S
H1947 C1974 0.950 . S
H1948 C1977 0.950 . S
H1949 C1978 0.950 . S
H1950 C1980 0.950 . S
H1951 C1981 0.950 . S
C1952 H1934 0.951 . S
C1952 C1953 1.366 . S
C1952 C1954 1.388 . S
C1953 C1952 1.366 . S
C1953 C1957 1.385 . S
C1954 H1935 0.951 . S
C1954 C1952 1.388 . S
C1954 C1955 1.366 . S
C1955 C1954 1.366 . S
C1955 C1956 1.414 . S
C1955 C1958 1.499 . S
C1956 H1936 0.950 . S
C1956 C1955 1.414 . S
C1956 C1957 1.374 . S
C1957 H1937 0.950 . S
C1957 C1953 1.385 . S
C1957 C1956 1.374 . S
C1958 C1955 1.499 . S
C1958 C1959 1.373 . S
C1958 C1960 1.389 . S
C1959 H1938 0.950 . S
C1959 C1958 1.373 . S
C1959 C1975 1.377 . S
C1960 C1958 1.389 . S
C1960 C1961 1.524 . S
C1960 C1974 1.377 . S
C1961 C1960 1.524 . S
C1961 C1962 1.397 . S
C1961 C1966 1.363 . S
C1962 H1939 0.950 . S
C1962 C1961 1.397 . S
C1962 C1963 1.334 . S
C1963 H1940 0.950 . S
C1963 C1962 1.334 . S
C1963 C1964 1.287 . S
C1964 C1963 1.287 . S
C1964 C1965 1.524 . S
C1964 H1983 0.913 . S
C1965 H1941 0.950 . S
C1965 C1964 1.524 . S
C1965 C1966 1.415 . S
C1966 H1942 0.950 . S
C1966 C1961 1.363 . S
C1966 C1965 1.415 . S
C1967 H1943 0.951 . S
C1967 C1968 1.366 . S
C1967 C1969 1.388 . S
C1968 C1967 1.366 . S
C1968 C1972 1.385 . S
C1969 H1944 0.951 . S
C1969 C1967 1.388 . S
C1969 C1970 1.366 . S
C1970 C1969 1.366 . S
C1970 C1971 1.414 . S
C1970 C1973 1.499 . S
C1971 H1945 0.950 . S
C1971 C1970 1.414 . S
C1971 C1972 1.374 . S
C1972 H1946 0.950 . S
C1972 C1968 1.385 . S
C1972 C1971 1.374 . S
C1973 C1970 1.499 . S
C1973 C1974 1.373 . S
C1973 C1975 1.389 . S
C1974 H1947 0.950 . S
C1974 C1960 1.377 . S
C1974 C1973 1.373 . S
C1975 C1959 1.377 . S
C1975 C1973 1.389 . S
C1975 C1976 1.524 . S
C1976 C1975 1.524 . S
C1976 C1977 1.397 . S
C1976 C1981 1.363 . S
C1977 H1948 0.950 . S
C1977 C1976 1.397 . S
C1977 C1978 1.334 . S
C1978 H1949 0.950 . S
C1978 C1977 1.334 . S
C1978 C1979 1.287 . S
C1979 C1978 1.287 . S
C1979 C1980 1.524 . S
C1979 H1982 0.999 . S
C1980 H1950 0.950 . S
C1980 C1979 1.524 . S
C1980 C1981 1.415 . S
C1981 H1951 0.950 . S
C1981 C1976 1.363 . S
C1981 C1980 1.415 . S
H1982 C1979 0.999 . S
H1983 C1964 0.913 . S
H1984 C2002 0.951 . S
H1985 C2004 0.951 . S
H1986 C2006 0.950 . S
H1987 C2007 0.950 . S
H1988 C2009 0.950 . S
H1989 C2012 0.950 . S
H1990 C2013 0.950 . S
H1991 C2015 0.950 . S
H1992 C2016 0.950 . S
H1993 C2017 0.951 . S
H1994 C2019 0.951 . S
H1995 C2021 0.950 . S
H1996 C2022 0.950 . S
H1997 C2024 0.950 . S
H1998 C2027 0.950 . S
H1999 C2028 0.950 . S
H2000 C2030 0.950 . S
H2001 C2031 0.950 . S
C2002 H1984 0.951 . S
C2002 C2003 1.366 . S
C2002 C2004 1.388 . S
C2003 C2002 1.366 . S
C2003 C2007 1.385 . S
C2004 H1985 0.951 . S
C2004 C2002 1.388 . S
C2004 C2005 1.366 . S
C2005 C2004 1.366 . S
C2005 C2006 1.414 . S
C2005 C2008 1.499 . S
C2006 H1986 0.950 . S
C2006 C2005 1.414 . S
C2006 C2007 1.374 . S
C2007 H1987 0.950 . S
C2007 C2003 1.385 . S
C2007 C2006 1.374 . S
C2008 C2005 1.499 . S
C2008 C2009 1.373 . S
C2008 C2010 1.389 . S
C2009 H1988 0.950 . S
C2009 C2008 1.373 . S
C2009 C2025 1.377 . S
C2010 C2008 1.389 . S
C2010 C2011 1.524 . S
C2010 C2024 1.377 . S
C2011 C2010 1.524 . S
C2011 C2012 1.397 . S
C2011 C2016 1.363 . S
C2012 H1989 0.950 . S
C2012 C2011 1.397 . S
C2012 C2013 1.334 . S
C2013 H1990 0.950 . S
C2013 C2012 1.334 . S
C2013 C2014 1.287 . S
C2014 C2013 1.287 . S
C2014 C2015 1.524 . S
C2014 H2033 0.913 . S
C2015 H1991 0.950 . S
C2015 C2014 1.524 . S
C2015 C2016 1.415 . S
C2016 H1992 0.950 . S
C2016 C2011 1.363 . S
C2016 C2015 1.415 . S
C2017 H1993 0.951 . S
C2017 C2018 1.366 . S
C2017 C2019 1.388 . S
C2018 C2017 1.366 . S
C2018 C2022 1.385 . S
C2019 H1994 0.951 . S
C2019 C2017 1.388 . S
C2019 C2020 1.366 . S
C2020 C2019 1.366 . S
C2020 C2021 1.414 . S
C2020 C2023 1.499 . S
C2021 H1995 0.950 . S
C2021 C2020 1.414 . S
C2021 C2022 1.374 . S
C2022 H1996 0.950 . S
C2022 C2018 1.385 . S
C2022 C2021 1.374 . S
C2023 C2020 1.499 . S
C2023 C2024 1.373 . S
C2023 C2025 1.389 . S
C2024 H1997 0.950 . S
C2024 C2010 1.377 . S
C2024 C2023 1.373 . S
C2025 C2009 1.377 . S
C2025 C2023 1.389 . S
C2025 C2026 1.524 . S
C2026 C2025 1.524 . S
C2026 C2027 1.397 . S
C2026 C2031 1.363 . S
C2027 H1998 0.950 . S
C2027 C2026 1.397 . S
C2027 C2028 1.334 . S
C2028 H1999 0.950 . S
C2028 C2027 1.334 . S
C2028 C2029 1.287 . S
C2029 C2028 1.287 . S
C2029 C2030 1.524 . S
C2029 H2032 0.999 . S
C2030 H2000 0.950 . S
C2030 C2029 1.524 . S
C2030 C2031 1.415 . S
C2031 H2001 0.950 . S
C2031 C2026 1.363 . S
C2031 C2030 1.415 . S
H2032 C2029 0.999 . S
H2033 C2014 0.913 . S
H2034 C2052 0.951 . S
H2035 C2054 0.951 . S
H2036 C2056 0.950 . S
H2037 C2057 0.950 . S
H2038 C2059 0.950 . S
H2039 C2062 0.950 . S
H2040 C2063 0.950 . S
H2041 C2065 0.950 . S
H2042 C2066 0.950 . S
H2043 C2067 0.951 . S
H2044 C2069 0.951 . S
H2045 C2071 0.950 . S
H2046 C2072 0.950 . S
H2047 C2074 0.950 . S
H2048 C2077 0.950 . S
H2049 C2078 0.950 . S
H2050 C2080 0.950 . S
H2051 C2081 0.950 . S
C2052 H2034 0.951 . S
C2052 C2053 1.366 . S
C2052 C2054 1.388 . S
C2053 C2052 1.366 . S
C2053 C2057 1.385 . S
C2054 H2035 0.951 . S
C2054 C2052 1.388 . S
C2054 C2055 1.366 . S
C2055 C2054 1.366 . S
C2055 C2056 1.414 . S
C2055 C2058 1.499 . S
C2056 H2036 0.950 . S
C2056 C2055 1.414 . S
C2056 C2057 1.374 . S
C2057 H2037 0.950 . S
C2057 C2053 1.385 . S
C2057 C2056 1.374 . S
C2058 C2055 1.499 . S
C2058 C2059 1.373 . S
C2058 C2060 1.389 . S
C2059 H2038 0.950 . S
C2059 C2058 1.373 . S
C2059 C2075 1.377 . S
C2060 C2058 1.389 . S
C2060 C2061 1.524 . S
C2060 C2074 1.377 . S
C2061 C2060 1.524 . S
C2061 C2062 1.397 . S
C2061 C2066 1.363 . S
C2062 H2039 0.950 . S
C2062 C2061 1.397 . S
C2062 C2063 1.334 . S
C2063 H2040 0.950 . S
C2063 C2062 1.334 . S
C2063 C2064 1.287 . S
C2064 C2063 1.287 . S
C2064 C2065 1.524 . S
C2064 H2083 0.913 . S
C2065 H2041 0.950 . S
C2065 C2064 1.524 . S
C2065 C2066 1.415 . S
C2066 H2042 0.950 . S
C2066 C2061 1.363 . S
C2066 C2065 1.415 . S
C2067 H2043 0.951 . S
C2067 C2068 1.366 . S
C2067 C2069 1.388 . S
C2068 C2067 1.366 . S
C2068 C2072 1.385 . S
C2069 H2044 0.951 . S
C2069 C2067 1.388 . S
C2069 C2070 1.366 . S
C2070 C2069 1.366 . S
C2070 C2071 1.414 . S
C2070 C2073 1.499 . S
C2071 H2045 0.950 . S
C2071 C2070 1.414 . S
C2071 C2072 1.374 . S
C2072 H2046 0.950 . S
C2072 C2068 1.385 . S
C2072 C2071 1.374 . S
C2073 C2070 1.499 . S
C2073 C2074 1.373 . S
C2073 C2075 1.389 . S
C2074 H2047 0.950 . S
C2074 C2060 1.377 . S
C2074 C2073 1.373 . S
C2075 C2059 1.377 . S
C2075 C2073 1.389 . S
C2075 C2076 1.524 . S
C2076 C2075 1.524 . S
C2076 C2077 1.397 . S
C2076 C2081 1.363 . S
C2077 H2048 0.950 . S
C2077 C2076 1.397 . S
C2077 C2078 1.334 . S
C2078 H2049 0.950 . S
C2078 C2077 1.334 . S
C2078 C2079 1.287 . S
C2079 C2078 1.287 . S
C2079 C2080 1.524 . S
C2079 H2082 0.999 . S
C2080 H2050 0.950 . S
C2080 C2079 1.524 . S
C2080 C2081 1.415 . S
C2081 H2051 0.950 . S
C2081 C2076 1.363 . S
C2081 C2080 1.415 . S
H2082 C2079 0.999 . S
H2083 C2064 0.913 . S
H2084 C2102 0.951 . S
H2085 C2104 0.951 . S
H2086 C2106 0.950 . S
H2087 C2107 0.950 . S
H2088 C2109 0.950 . S
H2089 C2112 0.950 . S
H2090 C2113 0.950 . S
H2091 C2115 0.950 1_554 S
H2092 C2116 0.950 . S
H2093 C2117 0.951 . S
H2094 C2119 0.951 . S
H2095 C2121 0.950 . S
H2096 C2122 0.950 . S
H2097 C2124 0.950 . S
H2098 C2127 0.950 . S
H2099 C2128 0.950 . S
H2100 C2130 0.950 . S
H2101 C2131 0.950 . S
C2102 H2084 0.951 . S
C2102 C2103 1.366 . S
C2102 C2104 1.388 . S
C2103 C2102 1.366 . S
C2103 C2107 1.385 . S
C2104 H2085 0.951 . S
C2104 C2102 1.388 . S
C2104 C2105 1.366 . S
C2105 C2104 1.366 . S
C2105 C2106 1.414 . S
C2105 C2108 1.499 . S
C2106 H2086 0.950 . S
C2106 C2105 1.414 . S
C2106 C2107 1.374 . S
C2107 H2087 0.950 . S
C2107 C2103 1.385 . S
C2107 C2106 1.374 . S
C2108 C2105 1.499 . S
C2108 C2109 1.373 . S
C2108 C2110 1.389 . S
C2109 H2088 0.950 . S
C2109 C2108 1.373 . S
C2109 C2125 1.377 . S
C2110 C2108 1.389 . S
C2110 C2111 1.524 . S
C2110 C2124 1.377 . S
C2111 C2110 1.524 . S
C2111 C2112 1.397 . S
C2111 C2116 1.363 . S
C2112 H2089 0.950 . S
C2112 C2111 1.397 . S
C2112 C2113 1.334 . S
C2113 H2090 0.950 . S
C2113 C2112 1.334 . S
C2113 C2114 1.287 . S
C2114 C2113 1.287 . S
C2114 C2115 1.524 . S
C2114 H2133 0.913 . S
C2115 H2091 0.950 1_556 S
C2115 C2114 1.524 . S
C2115 C2116 1.415 . S
C2116 H2092 0.950 . S
C2116 C2111 1.363 . S
C2116 C2115 1.415 . S
C2117 H2093 0.951 . S
C2117 C2118 1.366 . S
C2117 C2119 1.388 . S
C2118 C2117 1.366 . S
C2118 C2122 1.385 . S
C2119 H2094 0.951 . S
C2119 C2117 1.388 . S
C2119 C2120 1.366 . S
C2120 C2119 1.366 . S
C2120 C2121 1.414 . S
C2120 C2123 1.499 . S
C2121 H2095 0.950 . S
C2121 C2120 1.414 . S
C2121 C2122 1.374 . S
C2122 H2096 0.950 . S
C2122 C2118 1.385 . S
C2122 C2121 1.374 . S
C2123 C2120 1.499 . S
C2123 C2124 1.373 . S
C2123 C2125 1.389 . S
C2124 H2097 0.950 . S
C2124 C2110 1.377 . S
C2124 C2123 1.373 . S
C2125 C2109 1.377 . S
C2125 C2123 1.389 . S
C2125 C2126 1.524 . S
C2126 C2125 1.524 . S
C2126 C2127 1.397 . S
C2126 C2131 1.363 . S
C2127 H2098 0.950 . S
C2127 C2126 1.397 . S
C2127 C2128 1.334 . S
C2128 H2099 0.950 . S
C2128 C2127 1.334 . S
C2128 C2129 1.287 . S
C2129 C2128 1.287 . S
C2129 C2130 1.524 . S
C2129 H2132 0.999 . S
C2130 H2100 0.950 . S
C2130 C2129 1.524 . S
C2130 C2131 1.415 . S
C2131 H2101 0.950 . S
C2131 C2126 1.363 . S
C2131 C2130 1.415 . S
H2132 C2129 0.999 . S
H2133 C2114 0.913 . S
H2134 C2152 0.951 . S
H2135 C2154 0.951 . S
H2136 C2156 0.950 . S
H2137 C2157 0.950 . S
H2138 C2159 0.950 . S
H2139 C2162 0.950 . S
H2140 C2163 0.950 . S
H2141 C2165 0.950 . S
H2142 C2166 0.950 1_455 S
H2143 C2167 0.951 . S
H2144 C2169 0.951 . S
H2145 C2171 0.950 . S
H2146 C2172 0.950 . S
H2147 C2174 0.950 1_455 S
H2148 C2177 0.950 . S
H2149 C2178 0.950 . S
H2150 C2180 0.950 . S
H2151 C2181 0.950 . S
C2152 H2134 0.951 . S
C2152 C2153 1.366 . S
C2152 C2154 1.388 . S
C2153 C2152 1.366 . S
C2153 C2157 1.385 . S
C2154 H2135 0.951 . S
C2154 C2152 1.388 . S
C2154 C2155 1.366 . S
C2155 C2154 1.366 . S
C2155 C2156 1.414 . S
C2155 C2158 1.499 . S
C2156 H2136 0.950 . S
C2156 C2155 1.414 . S
C2156 C2157 1.374 . S
C2157 H2137 0.950 . S
C2157 C2153 1.385 . S
C2157 C2156 1.374 . S
C2158 C2155 1.499 . S
C2158 C2159 1.373 . S
C2158 C2160 1.389 . S
C2159 H2138 0.950 . S
C2159 C2158 1.373 . S
C2159 C2175 1.377 . S
C2160 C2158 1.389 . S
C2160 C2161 1.524 . S
C2160 C2174 1.377 . S
C2161 C2160 1.524 . S
C2161 C2162 1.397 . S
C2161 C2166 1.363 . S
C2162 H2139 0.950 . S
C2162 C2161 1.397 . S
C2162 C2163 1.334 . S
C2163 H2140 0.950 . S
C2163 C2162 1.334 . S
C2163 C2164 1.287 . S
C2164 C2163 1.287 . S
C2164 C2165 1.524 . S
C2164 H2183 0.913 . S
C2165 H2141 0.950 . S
C2165 C2164 1.524 . S
C2165 C2166 1.415 . S
C2166 H2142 0.950 1_655 S
C2166 C2161 1.363 . S
C2166 C2165 1.415 . S
C2167 H2143 0.951 . S
C2167 C2168 1.366 . S
C2167 C2169 1.388 . S
C2168 C2167 1.366 . S
C2168 C2172 1.385 . S
C2169 H2144 0.951 . S
C2169 C2167 1.388 . S
C2169 C2170 1.366 . S
C2170 C2169 1.366 . S
C2170 C2171 1.414 . S
C2170 C2173 1.498 1_455 S
C2171 H2145 0.950 . S
C2171 C2170 1.414 . S
C2171 C2172 1.374 . S
C2172 H2146 0.950 . S
C2172 C2168 1.385 . S
C2172 C2171 1.374 . S
C2173 C2170 1.498 1_655 S
C2173 C2174 1.373 . S
C2173 C2175 1.390 . S
C2174 H2147 0.950 1_655 S
C2174 C2160 1.377 . S
C2174 C2173 1.373 . S
C2175 C2159 1.377 . S
C2175 C2173 1.390 . S
C2175 C2176 1.524 . S
C2176 C2175 1.524 . S
C2176 C2177 1.397 1_655 S
C2176 C2181 1.363 . S
C2177 H2148 0.950 . S
C2177 C2176 1.397 1_455 S
C2177 C2178 1.334 . S
C2178 H2149 0.950 . S
C2178 C2177 1.334 . S
C2178 C2179 1.287 1_455 S
C2179 C2178 1.287 1_655 S
C2179 C2180 1.524 . S
C2179 H2182 0.999 . S
C2180 H2150 0.950 . S
C2180 C2179 1.524 . S
C2180 C2181 1.415 . S
C2181 H2151 0.950 . S
C2181 C2176 1.363 . S
C2181 C2180 1.415 . S
H2182 C2179 0.999 . S
H2183 C2164 0.913 . S
C403 C4 1.182 . S
C418 C356 1.183 . S
C453 C292 1.182 1_565 S
C468 C36 1.183 . S
C503 C93 1.183 1_554 S
C518 C260 1.182 . S
C553 C100 1.184 . S
C568 C324 1.183 1_545 S
C603 C132 1.184 . S
C618 C349 1.184 . S
C653 C189 1.184 . S
C668 C381 1.182 . S
C703 C317 1.182 . S
C718 C196 1.183 1_556 S
C753 C253 1.184 . S
C768 C285 1.183 . S
C803 C125 1.184 . S
C818 C157 1.183 . S
C853 C29 1.183 . S
C868 C164 1.184 1_455 S
C903 C61 1.184 1_655 S
C918 C221 1.183 . S
C953 C228 1.183 . S
C968 C68 1.182 . S
C1003 N18 1.141 . S
C1018 C262 1.143 . S
C1053 N50 1.140 . S
C1068 C326 1.143 . S
C1103 C358 1.143 . S
C1118 N77 1.141 . S
C1153 N114 1.141 . S
C1168 C294 1.143 . S
C1203 N146 1.140 . S
C1218 C290 1.143 . S
C1253 C258 1.143 . S
C1268 N173 1.141 . S
C1303 C322 1.143 . S
C1318 N210 1.141 . S
C1353 C354 1.143 . S
C1368 N237 1.140 . S
C1403 C2 1.143 . S
C1418 N109 1.141 . S
C1453 N13 1.140 . S
C1468 C34 1.143 . S
C1503 N45 1.140 . S
C1518 C70 1.143 . S
C1553 C98 1.143 . S
C1568 N82 1.140 . S
C1603 N178 1.140 . S
C1618 C130 1.143 . S
C1653 C166 1.143 . S
C1668 N205 1.140 . S
C1703 C194 1.143 . S
C1718 N242 1.141 . S
C1753 N141 1.141 . S
C1768 C230 1.143 . S
C1803 N269 1.140 . S
C1818 C102 1.143 . S
C1853 C162 1.143 . S
C1868 N306 1.140 . S
C1903 N274 1.140 . S
C1918 C198 1.143 . S
C1953 N338 1.140 . S
C1968 C226 1.143 . S
C2003 C134 1.143 . S
C2018 N370 1.140 . S
C2053 N365 1.141 . S
C2068 C38 1.143 . S
C2103 C66 1.143 . S
C2118 N301 1.140 . S
C2153 N333 1.140 . S
C2168 C6 1.143 . S
