# Generated by pormake.
# Topology ume, (4)-cn, num edge types: 1
# Building blocks:
#     Node 0, Type 0, BuildingBlock: ESEHIV_clean_sbu_0, # of connection points: 4
#     Node 1, Type 0, BuildingBlock: ESEHIV_clean_sbu_0, # of connection points: 4
#     Node 2, Type 0, BuildingBlock: ESEHIV_clean_sbu_0, # of connection points: 4
#     Node 3, Type 0, BuildingBlock: ESEHIV_clean_sbu_0, # of connection points: 4
#     Node 4, Type 0, BuildingBlock: ESEHIV_clean_sbu_0, # of connection points: 4
#     Node 5, Type 0, BuildingBlock: ESEHIV_clean_sbu_0, # of connection points: 4
#     Node 6, Type 0, BuildingBlock: ESEHIV_clean_sbu_0, # of connection points: 4
#     Node 7, Type 0, BuildingBlock: ESEHIV_clean_sbu_0, # of connection points: 4
#     Node 8, Type 0, BuildingBlock: ESEHIV_clean_sbu_0, # of connection points: 4
#     Node 9, Type 0, BuildingBlock: ESEHIV_clean_sbu_0, # of connection points: 4
#     Node 10, Type 0, BuildingBlock: ESEHIV_clean_sbu_0, # of connection points: 4
#     Node 11, Type 0, BuildingBlock: ESEHIV_clean_sbu_0, # of connection points: 4
#     Node 12, Type 0, BuildingBlock: ESEHIV_clean_sbu_0, # of connection points: 4
#     Node 13, Type 0, BuildingBlock: ESEHIV_clean_sbu_0, # of connection points: 4
#     Node 14, Type 0, BuildingBlock: ESEHIV_clean_sbu_0, # of connection points: 4
#     Node 15, Type 0, BuildingBlock: ESEHIV_clean_sbu_0, # of connection points: 4
#     Edge 16, Type (0, 0), BuildingBlock: CIFDUS_clean_linker_0, # of connection points: 2
#     Edge 17, Type (0, 0), BuildingBlock: CIFDUS_clean_linker_0, # of connection points: 2
#     Edge 18, Type (0, 0), BuildingBlock: CIFDUS_clean_linker_0, # of connection points: 2
#     Edge 19, Type (0, 0), BuildingBlock: CIFDUS_clean_linker_0, # of connection points: 2
#     Edge 20, Type (0, 0), BuildingBlock: CIFDUS_clean_linker_0, # of connection points: 2
#     Edge 21, Type (0, 0), BuildingBlock: CIFDUS_clean_linker_0, # of connection points: 2
#     Edge 22, Type (0, 0), BuildingBlock: CIFDUS_clean_linker_0, # of connection points: 2
#     Edge 23, Type (0, 0), BuildingBlock: CIFDUS_clean_linker_0, # of connection points: 2
#     Edge 24, Type (0, 0), BuildingBlock: CIFDUS_clean_linker_0, # of connection points: 2
#     Edge 25, Type (0, 0), BuildingBlock: CIFDUS_clean_linker_0, # of connection points: 2
#     Edge 26, Type (0, 0), BuildingBlock: CIFDUS_clean_linker_0, # of connection points: 2
#     Edge 27, Type (0, 0), BuildingBlock: CIFDUS_clean_linker_0, # of connection points: 2
#     Edge 28, Type (0, 0), BuildingBlock: CIFDUS_clean_linker_0, # of connection points: 2
#     Edge 29, Type (0, 0), BuildingBlock: CIFDUS_clean_linker_0, # of connection points: 2
#     Edge 30, Type (0, 0), BuildingBlock: CIFDUS_clean_linker_0, # of connection points: 2
#     Edge 31, Type (0, 0), BuildingBlock: CIFDUS_clean_linker_0, # of connection points: 2
#     Edge 32, Type (0, 0), BuildingBlock: CIFDUS_clean_linker_0, # of connection points: 2
#     Edge 33, Type (0, 0), BuildingBlock: CIFDUS_clean_linker_0, # of connection points: 2
#     Edge 34, Type (0, 0), BuildingBlock: CIFDUS_clean_linker_0, # of connection points: 2
#     Edge 35, Type (0, 0), BuildingBlock: CIFDUS_clean_linker_0, # of connection points: 2
#     Edge 36, Type (0, 0), BuildingBlock: CIFDUS_clean_linker_0, # of connection points: 2
#     Edge 37, Type (0, 0), BuildingBlock: CIFDUS_clean_linker_0, # of connection points: 2
#     Edge 38, Type (0, 0), BuildingBlock: CIFDUS_clean_linker_0, # of connection points: 2
#     Edge 39, Type (0, 0), BuildingBlock: CIFDUS_clean_linker_0, # of connection points: 2
#     Edge 40, Type (0, 0), BuildingBlock: CIFDUS_clean_linker_0, # of connection points: 2
#     Edge 41, Type (0, 0), BuildingBlock: CIFDUS_clean_linker_0, # of connection points: 2
#     Edge 42, Type (0, 0), BuildingBlock: CIFDUS_clean_linker_0, # of connection points: 2
#     Edge 43, Type (0, 0), BuildingBlock: CIFDUS_clean_linker_0, # of connection points: 2
#     Edge 44, Type (0, 0), BuildingBlock: CIFDUS_clean_linker_0, # of connection points: 2
#     Edge 45, Type (0, 0), BuildingBlock: CIFDUS_clean_linker_0, # of connection points: 2
#     Edge 46, Type (0, 0), BuildingBlock: CIFDUS_clean_linker_0, # of connection points: 2
#     Edge 47, Type (0, 0), BuildingBlock: CIFDUS_clean_linker_0, # of connection points: 2
# Relax obj value: 0.042
# Max RMSD: 0.164
# Mean RMSD: 0.136
data_MOF--net-ume--node1-ESEHIV_clean_sbu_0--edge1-CIFDUS_clean_linker_0
_symmetry_space_group_name_H-M    P1
_symmetry_Int_Tables_number       1
_symmetry_cell_setting            triclinic
loop_
_symmetry_equiv_pos_as_xyz
'x, y, z'
_cell_length_a     24.843485
_cell_length_b     30.167376
_cell_length_c     106.74715
_cell_angle_alpha  89.74959
_cell_angle_beta   89.782362
_cell_angle_gamma 89.842259
loop_
_atom_site_label
_atom_site_type_symbol
_atom_site_fract_x
_atom_site_fract_y
_atom_site_fract_z
_atom_type_partial_charge
Cu0 Cu 0.28492 0.11187 0.31213 0.0
N1 N 0.29615 0.14001 0.32743 0.0
N2 N 0.29444 0.15484 0.34789 0.0
C3 C 0.26963 0.13403 0.33835 0.0
C4 C 0.33785 0.17478 0.3428 0.0
C5 C 0.33865 0.16574 0.33016 0.0
O6 O 0.2223 0.07319 0.31321 0.0
C7 C 0.38033 0.0614 0.3162 0.0
O8 O 0.36389 0.06067 0.32791 0.0
H9 H 0.23468 0.11296 0.33941 0.0
H10 H 0.36938 0.17549 0.32351 0.0
N11 N 0.27527 0.15439 0.29959 0.0
N12 N 0.28352 0.18851 0.28099 0.0
C13 C 0.29002 0.15025 0.28751 0.0
C14 C 0.25854 0.19652 0.30086 0.0
C15 C 0.26345 0.21761 0.28942 0.0
C16 C 0.17471 0.08911 0.31351 0.0
O17 O 0.16815 0.13231 0.31302 0.0
H18 H 0.30655 0.11987 0.28377 0.0
H19 H 0.24562 0.21127 0.30959 0.0
O20 O 0.35052 0.07941 0.30792 0.0
H21 H 0.36741 0.19375 0.34791 0.0
H22 H 0.25503 0.25228 0.2877 0.0
Cu23 Cu 0.95939 0.77255 0.57887 0.0
N24 N 1.00325 0.82212 0.58137 0.0
N25 N 0.03141 0.89254 0.5822 0.0
C26 C 0.99149 0.86481 0.57871 0.0
C27 C 0.06961 0.86602 0.58724 0.0
C28 C 0.05208 0.82275 0.58675 0.0
O29 O 0.90804 0.78653 0.56571 0.0
C30 C 0.91159 0.78495 0.60294 0.0
O31 O 0.91483 0.82738 0.60023 0.0
H32 H 0.95429 0.87518 0.57434 0.0
H33 H 0.07305 0.79378 0.59023 0.0
N34 N 1.00127 0.72398 0.57386 0.0
N35 N 0.02914 0.65409 0.57088 0.0
C36 C 0.98944 0.68062 0.57531 0.0
C37 C 0.0499 0.72497 0.5683 0.0
C38 C 0.0672 0.68203 0.56645 0.0
C39 C 0.92724 0.79845 0.55514 0.0
O40 O 0.97978 0.80014 0.55376 0.0
H41 H 0.95286 0.66887 0.57973 0.0
H42 H 0.07134 0.75488 0.56577 0.0
O43 O 0.92556 0.75663 0.59473 0.0
H44 H 0.10701 0.87709 0.59133 0.0
H45 H 0.10469 0.67224 0.56206 0.0
Cu46 Cu 0.25946 0.42883 0.81182 0.0
N47 N 0.24537 0.4054 0.8277 0.0
N48 N 0.24648 0.39311 0.84832 0.0
C49 C 0.2723 0.41176 0.83847 0.0
C50 C 0.20206 0.37403 0.84355 0.0
C51 C 0.20167 0.38146 0.83082 0.0
O52 O 0.3268 0.46234 0.81208 0.0
C53 C 0.16319 0.47955 0.81433 0.0
O54 O 0.17785 0.48154 0.82612 0.0
H55 H 0.3088 0.43107 0.83917 0.0
H56 H 0.17078 0.37143 0.82431 0.0
N57 N 0.27001 0.38116 0.80106 0.0
N58 N 0.26464 0.33528 0.78475 0.0
C59 C 0.24881 0.37452 0.78963 0.0
C60 C 0.30033 0.34518 0.80348 0.0
C61 C 0.29705 0.31676 0.79345 0.0
C62 C 0.33457 0.49653 0.81876 0.0
O63 O 0.29424 0.51275 0.82531 0.0
H64 H 0.22138 0.39749 0.78513 0.0
H65 H 0.32292 0.33992 0.812 0.0
O66 O 0.19503 0.46159 0.80641 0.0
H67 H 0.17184 0.35637 0.84892 0.0
H68 H 0.31714 0.28503 0.79263 0.0
Cu69 Cu 0.59189 0.77455 0.07831 0.0
N70 N 0.55106 0.7231 0.08027 0.0
N71 N 0.52322 0.65288 0.07898 0.0
C72 C 0.55687 0.68408 0.07436 0.0
C73 C 0.49461 0.67346 0.08805 0.0
C74 C 0.51192 0.71668 0.08882 0.0
O75 O 0.63544 0.77173 0.06312 0.0
C76 C 0.64708 0.75295 0.10082 0.0
O77 O 0.63971 0.71174 0.09731 0.0
H78 H 0.58649 0.67822 0.06713 0.0
H79 H 0.49794 0.74151 0.09536 0.0
N80 N 0.54438 0.82203 0.07665 0.0
N81 N 0.51134 0.89095 0.07645 0.0
C82 C 0.55555 0.86536 0.07804 0.0
C83 C 0.4915 0.82006 0.07405 0.0
C84 C 0.47097 0.86251 0.07395 0.0
C85 C 0.66943 0.74141 0.06056 0.0
O86 O 0.68017 0.71061 0.06892 0.0
H87 H 0.59517 0.87773 0.08031 0.0
H88 H 0.46947 0.78984 0.07232 0.0
O89 O 0.63309 0.78434 0.0935 0.0
H90 H 0.46386 0.65838 0.09385 0.0
H91 H 0.42976 0.87175 0.07193 0.0
Cu92 Cu 0.27201 0.45141 0.95715 0.0
N93 N 0.28232 0.42141 0.9421 0.0
N94 N 0.27901 0.40376 0.92184 0.0
C95 C 0.25887 0.42985 0.93098 0.0
C96 C 0.31626 0.37785 0.92741 0.0
C97 C 0.31804 0.38869 0.93992 0.0
O98 O 0.20849 0.48857 0.95616 0.0
C99 C 0.38021 0.4741 0.96211 0.0
O100 O 0.38687 0.43104 0.96317 0.0
H101 H 0.22884 0.45544 0.92955 0.0
H102 H 0.344 0.37407 0.94693 0.0
N103 N 0.26486 0.41072 0.97025 0.0
N104 N 0.26987 0.37916 0.98919 0.0
C105 C 0.2795 0.41598 0.98228 0.0
C106 C 0.24516 0.36935 0.9695 0.0
C107 C 0.24824 0.34976 0.98116 0.0
C108 C 0.16144 0.47286 0.95481 0.0
O109 O 0.15519 0.42974 0.95399 0.0
H110 H 0.29814 0.44582 0.98578 0.0
H111 H 0.23002 0.35442 0.96102 0.0
O112 O 0.33351 0.48948 0.95986 0.0
H113 H 0.3403 0.35279 0.92277 0.0
H114 H 0.23537 0.31651 0.98352 0.0
Cu115 Cu 0.59627 0.75912 0.19787 0.0
N116 N 0.55681 0.81088 0.19503 0.0
N117 N 0.53715 0.88304 0.19344 0.0
C118 C 0.57261 0.85244 0.19766 0.0
C119 C 0.49733 0.85958 0.18803 0.0
C120 C 0.5097 0.81511 0.18898 0.0
O121 O 0.64549 0.77012 0.21162 0.0
C122 C 0.65147 0.7721 0.17483 0.0
O123 O 0.65325 0.8137 0.17837 0.0
H124 H 0.60998 0.85994 0.20236 0.0
H125 H 0.48681 0.78782 0.18521 0.0
N126 N 0.54984 0.71291 0.20222 0.0
N127 N 0.51621 0.64467 0.20459 0.0
C128 C 0.55891 0.66913 0.20085 0.0
C129 C 0.49988 0.71633 0.20702 0.0
C130 C 0.47902 0.67435 0.20849 0.0
C131 C 0.62481 0.78089 0.22212 0.0
O132 O 0.57213 0.78282 0.22311 0.0
H133 H 0.59568 0.65565 0.19693 0.0
H134 H 0.47996 0.74724 0.20926 0.0
O135 O 0.63205 0.74319 0.18229 0.0
H136 H 0.46278 0.87352 0.18327 0.0
H137 H 0.43968 0.66635 0.21224 0.0
Cu138 Cu 0.26502 0.09608 0.45685 0.0
N139 N 0.26106 0.12845 0.44188 0.0
N140 N 0.26666 0.14691 0.42163 0.0
C141 C 0.2823 0.11806 0.43062 0.0
C142 C 0.23481 0.17674 0.42742 0.0
C143 C 0.23177 0.16546 0.43993 0.0
O144 O 0.33604 0.06816 0.45821 0.0
C145 C 0.15658 0.07101 0.45689 0.0
O146 O 0.15087 0.11425 0.45626 0.0
H147 H 0.30725 0.08926 0.42894 0.0
H148 H 0.20887 0.18256 0.44707 0.0
N149 N 0.25869 0.13529 0.47029 0.0
N150 N 0.23048 0.16742 0.48799 0.0
C151 C 0.2234 0.13362 0.47989 0.0
C152 C 0.28935 0.17115 0.47241 0.0
C153 C 0.2721 0.19104 0.48332 0.0
C154 C 0.35347 0.03644 0.45147 0.0
O155 O 0.32111 1.0182 0.44328 0.0
H156 H 0.19344 0.10792 0.48097 0.0
H157 H 0.32179 0.18215 0.46637 0.0
O158 O 0.20412 0.0548 0.45734 0.0
H159 H 0.2152 0.20462 0.42292 0.0
H160 H 0.28815 0.22108 0.48735 0.0
Cu161 Cu 0.9572 0.76434 0.70043 0.0
N162 N 1.00534 0.71784 0.69773 0.0
N163 N 0.03739 0.64884 0.69604 0.0
C164 C 0.99642 0.67463 0.70011 0.0
C165 C 0.0736 0.67716 0.69101 0.0
C166 C 0.05361 0.71966 0.69202 0.0
O167 O 0.91242 0.74918 0.71476 0.0
C168 C 0.90985 0.74712 0.67662 0.0
O169 O 0.92081 0.70543 0.67915 0.0
H170 H 0.96 0.66241 0.7045 0.0
H171 H 0.07212 0.74967 0.6885 0.0
N172 N 0.99478 0.81574 0.70438 0.0
N173 N 1.01354 0.88771 0.70654 0.0
C174 C 0.97707 0.85755 0.70273 0.0
C175 C 0.04403 0.81937 0.70945 0.0
C176 C 0.05581 0.86376 0.71076 0.0
C177 C 0.86863 0.72763 0.71426 0.0
O178 O 0.84937 0.7161 0.7033 0.0
H179 H 0.93836 0.86557 0.69867 0.0
H180 H 0.06942 0.79168 0.71207 0.0
O181 O 0.91847 0.77642 0.68493 0.0
H182 H 0.11088 0.66776 0.68645 0.0
H183 H 0.09225 0.87728 0.71473 0.0
Cu184 Cu 0.75227 0.59353 0.81556 0.0
N185 N 0.7527 0.63097 0.82948 0.0
N186 N 0.75604 0.65296 0.84946 0.0
C187 C 0.7584 0.61821 0.84152 0.0
C188 C 0.74876 0.68894 0.84207 0.0
C189 C 0.74689 0.67529 0.82976 0.0
O190 O 0.68717 0.55643 0.81649 0.0
C191 C 0.85104 0.54626 0.80792 0.0
O192 O 0.83437 0.54723 0.79626 0.0
H193 H 0.76315 0.58397 0.84439 0.0
H194 H 0.74139 0.69611 0.82159 0.0
N195 N 0.74681 0.62729 0.80079 0.0
N196 N 0.76315 0.65969 0.78224 0.0
C197 C 0.78494 0.63991 0.79245 0.0
C198 C 0.69979 0.64045 0.79575 0.0
C199 C 0.70964 0.66031 0.78438 0.0
C200 C 0.64344 0.57437 0.82033 0.0
O201 O 0.64484 0.61561 0.82421 0.0
H202 H 0.82745 0.63327 0.79361 0.0
H203 H 0.66065 0.63488 0.7999 0.0
O204 O 0.82065 0.56109 0.81662 0.0
H205 H 0.74557 0.7228 0.84531 0.0
H206 H 0.67956 0.67366 0.77808 0.0
Cu207 Cu 0.45324 0.26803 0.072 0.0
N208 N 0.49385 0.3203 0.07127 0.0
N209 N 0.51548 0.39182 0.07299 0.0
C210 C 0.47951 0.36003 0.07596 0.0
C211 C 0.55427 0.37137 0.0663 0.0
C212 C 0.54098 0.32726 0.0653 0.0
O213 O 0.39995 0.27115 0.05875 0.0
C214 C 0.44753 0.27448 0.09815 0.0
O215 O 0.49503 0.29264 0.09652 0.0
H216 H 0.44272 0.36575 0.08118 0.0
H217 H 0.56405 0.30235 0.06043 0.0
N218 N 0.49675 0.21921 0.06836 0.0
N219 N 0.53037 0.15047 0.06824 0.0
C220 C 0.4981 0.17963 0.07426 0.0
C221 C 0.52836 0.21456 0.05819 0.0
C222 C 0.54963 0.17245 0.05816 0.0
C223 C 0.37157 0.30544 0.05652 0.0
O224 O 0.37268 0.33874 0.06438 0.0
H225 H 0.47459 0.17196 0.08255 0.0
H226 H 0.53321 0.23921 0.0509 0.0
O227 O 0.4216 0.26078 0.08865 0.0
H228 H 0.58967 0.38718 0.0624 0.0
H229 H 0.57466 0.15822 0.05088 0.0
Cu230 Cu 0.78507 0.93309 0.31713 0.0
N231 N 0.79431 0.89883 0.33156 0.0
N232 N 0.79784 0.8806 0.35187 0.0
C233 C 0.79168 0.9137 0.34342 0.0
C234 C 0.80464 0.84348 0.345 0.0
C235 C 0.80243 0.85485 0.33248 0.0
O236 O 0.8444 0.97539 0.31595 0.0
C237 C 0.68765 0.98168 0.31077 0.0
O238 O 0.70773 0.98679 0.29945 0.0
H239 H 0.78407 0.94802 0.34576 0.0
H240 H 0.80607 0.83261 0.3246 0.0
N241 N 0.78596 0.89653 0.30297 0.0
N242 N 0.76117 0.86086 0.28555 0.0
C243 C 0.74501 0.88668 0.29521 0.0
C244 C 0.82929 0.87583 0.29814 0.0
C245 C 0.81423 0.85387 0.28743 0.0
C246 C 0.89218 0.96225 0.31832 0.0
O247 O 0.89981 0.92088 0.32178 0.0
H248 H 0.70448 0.89901 0.29649 0.0
H249 H 0.86929 0.87686 0.30205 0.0
O250 O 0.7152 0.9618 0.31912 0.0
H251 H 0.81104 0.81048 0.34873 0.0
H252 H 0.84046 0.83419 0.28155 0.0
Cu253 Cu 0.06222 0.27297 0.57537 0.0
N254 N 1.01798 0.22386 0.57843 0.0
N255 N 0.98961 0.15365 0.58018 0.0
C256 C 0.02995 0.1808 0.57646 0.0
C257 C 0.95088 0.18093 0.58464 0.0
C258 C 0.96853 0.22407 0.58358 0.0
O259 O 0.11143 0.25893 0.56174 0.0
C260 C 0.11639 0.25907 0.59851 0.0
O261 O 0.11424 0.21694 0.5955 0.0
H262 H 0.06762 0.16975 0.5724 0.0
H263 H 0.9472 0.25355 0.58654 0.0
N264 N 0.0206 0.32224 0.5708 0.0
N265 N 0.99279 0.39259 0.56868 0.0
C266 C 0.03184 0.36523 0.57301 0.0
C267 C 0.97301 0.32232 0.56485 0.0
C268 C 0.95573 0.36556 0.56354 0.0
C269 C 0.09137 0.24384 0.55167 0.0
O270 O 0.03894 0.23887 0.55097 0.0
H271 H 0.06755 0.37606 0.57789 0.0
H272 H 0.95228 0.29294 0.5617 0.0
O273 O 0.09908 0.28799 0.59079 0.0
H274 H 0.913 0.17052 0.58872 0.0
H275 H 0.91899 0.37622 0.55901 0.0
Cu276 Cu 0.75731 0.93152 0.45814 0.0
N277 N 0.76476 0.89093 0.44511 0.0
N278 N 0.77145 0.86269 0.42582 0.0
C279 C 0.76492 0.89982 0.43273 0.0
C280 C 0.77562 0.82931 0.43424 0.0
C281 C 0.77153 0.84683 0.44611 0.0
O282 O 0.68778 0.9612 0.45604 0.0
C283 C 0.86656 0.95445 0.45701 0.0
O284 O 0.87144 0.91112 0.45646 0.0
H285 H 0.75969 0.93282 0.42891 0.0
H286 H 0.77367 0.82876 0.45487 0.0
N287 N 0.75669 0.90086 0.47341 0.0
N288 N 0.78284 0.87246 0.49183 0.0
C289 C 0.7962 0.89873 0.482 0.0
C290 C 0.71678 0.87534 0.47796 0.0
C291 C 0.73273 0.8578 0.48931 0.0
C292 C 0.66592 0.98466 0.46455 0.0
O293 O 0.69283 0.99241 0.47489 0.0
H294 H 0.8339 0.91628 0.48107 0.0
H295 H 0.67902 0.86948 0.47324 0.0
O296 O 0.81941 0.9713 0.45772 0.0
H297 H 0.78203 0.79473 0.43203 0.0
H298 H 0.70971 0.83509 0.49508 0.0
Cu299 Cu 0.08693 0.2726 0.6963 0.0
N300 N 0.03782 0.3187 0.69413 0.0
N301 N 1.00505 0.38774 0.69356 0.0
C302 C 0.04668 0.36147 0.69695 0.0
C303 C 0.9684 0.36012 0.6885 0.0
C304 C 0.98884 0.31755 0.68884 0.0
O305 O 0.13721 0.29187 0.70907 0.0
C306 C 0.13115 0.28975 0.67219 0.0
O307 O 0.12477 0.33157 0.67525 0.0
H308 H 0.08337 0.37298 0.70127 0.0
H309 H 0.96994 0.288 0.68523 0.0
N310 N 0.0509 0.22159 0.70154 0.0
N311 N 0.0325 0.14991 0.70467 0.0
C312 C 0.06641 0.17953 0.69937 0.0
C313 C 1.00546 0.21867 0.70838 0.0
C314 C 0.99392 0.17444 0.71031 0.0
C315 C 0.15532 0.26678 0.7177 0.0
O316 O 0.14482 0.22416 0.7174 0.0
H317 H 0.10205 0.17096 0.69404 0.0
H318 H 0.98277 0.24675 0.71184 0.0
O319 O 0.12057 0.25981 0.68026 0.0
H320 H 0.93035 0.37007 0.68445 0.0
H321 H 0.96053 0.16145 0.71572 0.0
Cu322 Cu 0.77029 0.62458 0.95752 0.0
N323 N 0.76124 0.66039 0.9433 0.0
N324 N 0.75092 0.68248 0.92337 0.0
C325 C 0.76196 0.64807 0.93116 0.0
C326 C 0.74324 0.71761 0.93099 0.0
C327 C 0.74934 0.70388 0.9432 0.0
O328 O 0.83305 0.58692 0.95563 0.0
C329 C 0.66087 0.60271 0.96041 0.0
O330 O 0.65432 0.64595 0.9602 0.0
H331 H 0.76888 0.61431 0.92816 0.0
H332 H 0.74436 0.72413 0.95145 0.0
N333 N 0.77767 0.65934 0.97192 0.0
N334 N 0.76896 0.68391 0.99157 0.0
C335 C 0.7567 0.65143 0.98338 0.0
C336 C 0.80454 0.69783 0.97294 0.0
C337 C 0.79899 0.71318 0.98502 0.0
C338 C 0.88023 0.60257 0.95436 0.0
O339 O 0.8868 0.64575 0.954 0.0
H340 H 0.73213 0.62285 0.9856 0.0
H341 H 0.82648 0.71375 0.96541 0.0
O342 O 0.70808 0.58672 0.95941 0.0
H343 H 0.73378 0.75104 0.92799 0.0
H344 H 0.81619 0.74331 0.98873 0.0
Cu345 Cu 0.45748 0.26868 0.19611 0.0
N346 N 0.49831 0.21749 0.19381 0.0
N347 N 0.51874 0.14544 0.19261 0.0
C348 C 0.48121 0.17581 0.19586 0.0
C349 C 0.56125 0.16918 0.18842 0.0
C350 C 0.54842 0.21364 0.18914 0.0
O351 O 0.40346 0.25461 0.20865 0.0
C352 C 0.4115 0.26001 0.17185 0.0
O353 O 0.40344 0.21849 0.17509 0.0
H354 H 0.44171 0.16809 0.19956 0.0
H355 H 0.57335 0.24119 0.18623 0.0
N356 N 0.50112 0.31416 0.20204 0.0
N357 N 0.53347 0.3821 0.20549 0.0
C358 C 0.4946 0.3579 0.19995 0.0
C359 C 0.54549 0.3104 0.20914 0.0
C360 C 0.56563 0.35225 0.21127 0.0
C361 C 0.37575 0.28306 0.21463 0.0
O362 O 0.37847 0.32505 0.21138 0.0
H363 H 0.46232 0.37156 0.19434 0.0
H364 H 0.56196 0.27939 0.21254 0.0
O365 O 0.42979 0.28694 0.17993 0.0
H366 H 0.5983 0.15548 0.18472 0.0
H367 H 0.60075 0.36008 0.2168 0.0
H368 H 0.99802 0.94014 0.31974 0.0
H369 H 0.89224 0.05204 0.31394 0.0
H370 H 0.97022 0.10105 0.31198 0.0
H371 H 0.06854 0.11206 0.31198 0.0
H372 H 0.17371 0.99946 0.3174 0.0
H373 H 0.09574 0.95084 0.31942 0.0
C374 C 0.99185 0.97527 0.31806 0.0
C375 C 0.93917 0.99235 0.31704 0.0
C376 C 0.03683 1.00315 0.31686 0.0
C377 C 0.93221 0.03794 0.31478 0.0
C378 C 0.97684 0.066 0.31366 0.0
C379 C 0.07449 0.07688 0.31361 0.0
C380 C 0.12712 0.05953 0.31456 0.0
C381 C 0.02935 0.04897 0.3147 0.0
C382 C 0.13384 1.01379 0.31661 0.0
C383 C 0.08921 0.98593 0.31778 0.0
H384 H 0.9448 0.59752 0.57043 0.0
H385 H 0.11825 0.6021 0.57138 0.0
H386 H 0.12242 0.52136 0.57089 0.0
H387 H 0.07696 0.44914 0.56987 0.0
H388 H 0.90349 0.44443 0.56913 0.0
H389 H 0.89926 0.52518 0.56987 0.0
C390 C 0.98349 0.5809 0.57066 0.0
C391 C 0.03111 0.60613 0.5709 0.0
C392 C 0.98565 0.53424 0.57036 0.0
C393 C 0.08093 0.58378 0.57101 0.0
C394 C 0.08337 0.53747 0.5708 0.0
C395 C 0.03821 0.46569 0.57 0.0
C396 C 0.99065 0.44047 0.56941 0.0
C397 C 0.03602 0.51232 0.57042 0.0
C398 C 0.94081 0.46279 0.5694 0.0
C399 C 0.93832 0.50908 0.56989 0.0
H400 H 0.5473 0.60481 0.82878 0.0
H401 H 0.61949 0.49329 0.80985 0.0
H402 H 0.53033 0.45962 0.80745 0.0
H403 H 0.4312 0.46275 0.81047 0.0
H404 H 0.3612 0.57496 0.82959 0.0
H405 H 0.45014 0.60751 0.83204 0.0
C406 C 0.54384 0.57302 0.82415 0.0
C407 C 0.59033 0.55169 0.81949 0.0
C408 C 0.4926 0.5541 0.82275 0.0
C409 C 0.58461 0.51044 0.81357 0.0
C410 C 0.53353 0.49127 0.81214 0.0
C411 C 0.43538 0.49443 0.81512 0.0
C412 C 0.38921 0.51641 0.81979 0.0
C413 C 0.48711 0.51297 0.81662 0.0
C414 C 0.39569 0.55724 0.82589 0.0
C415 C 0.44668 0.57592 0.82732 0.0
H416 H 0.45606 0.09407 0.07741 0.0
H417 H 0.62025 0.10219 0.06447 0.0
H418 H 0.63006 0.02181 0.06654 0.0
H419 H 0.58995 0.94894 0.07066 0.0
H420 H 0.42495 0.94047 0.0831 0.0
H421 H 0.41728 0.0212 0.08258 0.0
C422 C 0.49422 0.07827 0.07528 0.0
C423 C 0.53738 0.10392 0.07079 0.0
C424 C 0.49917 0.03196 0.07626 0.0
C425 C 0.58638 0.08297 0.06785 0.0
C426 C 0.59198 0.03709 0.06903 0.0
C427 C 0.55259 0.96476 0.07345 0.0
C428 C 0.50803 0.93865 0.07686 0.0
C429 C 0.54835 1.01117 0.07302 0.0
C430 C 0.45962 0.95974 0.08026 0.0
C431 C 0.45528 1.00593 0.08002 0.0
H432 H 0.05544 0.45031 0.95364 0.0
H433 H 0.1614 0.56341 0.95489 0.0
H434 H 0.08402 0.61332 0.9545 0.0
H435 H 0.98627 0.62504 0.95422 0.0
H436 H 0.88013 0.51203 0.95333 0.0
H437 H 0.95757 0.46208 0.95312 0.0
C438 C 0.06166 0.48587 0.9538 0.0
C439 C 0.11424 0.50299 0.95432 0.0
C440 C 1.01692 0.51449 0.95364 0.0
C441 C 0.12144 0.54922 0.95452 0.0
C442 C 0.07718 0.57786 0.95429 0.0
C443 C 0.98001 0.5895 0.95393 0.0
C444 C 0.92738 0.5724 0.9538 0.0
C445 C 0.02473 0.56088 0.95391 0.0
C446 C 0.92014 0.52619 0.95345 0.0
C447 C 0.96444 0.49753 0.95334 0.0
H448 H 0.45419 0.44295 0.20334 0.0
H449 H 0.62605 0.42881 0.20737 0.0
H450 H 0.63611 0.50931 0.20738 0.0
H451 H 0.59594 0.58392 0.20641 0.0
H452 H 0.42409 0.59777 0.2022 0.0
H453 H 0.41422 0.51736 0.20207 0.0
C454 C 0.4939 0.45743 0.20409 0.0
C455 C 0.53927 0.42973 0.20534 0.0
C456 C 0.4994 0.5038 0.2041 0.0
C457 C 0.59036 0.44923 0.20654 0.0
C458 C 0.59619 0.49532 0.20648 0.0
C459 C 0.55641 0.56937 0.20534 0.0
C460 C 0.51085 0.59701 0.20434 0.0
C461 C 0.55098 0.52296 0.20528 0.0
C462 C 0.45979 0.57744 0.20316 0.0
C463 C 0.45412 0.53138 0.20302 0.0
H464 H 0.43022 0.06481 0.46791 0.0
H465 H 0.40617 0.97546 0.43697 0.0
H466 H 0.50055 0.95296 0.43792 0.0
H467 H 0.59028 0.95815 0.4476 0.0
H468 H 0.61359 0.04607 0.47888 0.0
H469 H 0.51965 0.06967 0.47765 0.0
C470 C 0.44551 0.04034 0.46137 0.0
C471 C 0.41077 0.02189 0.45238 0.0
C472 C 0.50001 0.02737 0.46199 0.0
C473 C 0.43163 0.9902 0.44402 0.0
C474 C 0.4858 0.97735 0.44453 0.0
C475 C 0.57495 0.98272 0.45409 0.0
C476 C 0.60927 1.00039 0.46329 0.0
C477 C 0.52044 0.99573 0.45346 0.0
C478 C 0.58832 0.03186 0.4717 0.0
C479 C 0.53445 0.04537 0.47102 0.0
H480 H 0.9523 0.08999 0.7063 0.0
H481 H 0.12479 0.1022 0.70321 0.0
H482 H 0.13418 0.0217 0.70341 0.0
H483 H 0.09349 0.94768 0.70457 0.0
H484 H 0.92111 0.93533 0.70794 0.0
H485 H 0.91159 1.01587 0.70752 0.0
C486 C 0.99195 0.07505 0.70577 0.0
C487 C 0.03772 0.10224 0.70473 0.0
C488 C 0.99709 0.02863 0.70592 0.0
C489 C 0.08879 0.08221 0.70384 0.0
C490 C 0.09424 0.0361 0.70404 0.0
C491 C 0.05389 0.96258 0.70532 0.0
C492 C 1.00813 0.93536 0.70629 0.0
C493 C 0.0487 1.00898 0.70509 0.0
C494 C 0.957 0.95535 0.70703 0.0
C495 C 0.95152 1.00147 0.70687 0.0
H496 H 0.61033 1.01136 0.29453 0.0
H497 H 0.63872 0.98364 0.33367 0.0
H498 H 0.5462 1.00419 0.33867 0.0
H499 H 0.45724 0.0302 0.33206 0.0
H500 H 0.42787 0.05824 0.29299 0.0
H501 H 0.52038 0.03702 0.28786 0.0
C502 C 0.59638 1.01004 0.30416 0.0
C503 C 0.63173 0.99608 0.3137 0.0
C504 C 0.54272 0.02164 0.30699 0.0
C505 C 0.61263 0.99426 0.32612 0.0
C506 C 0.55958 1.00594 0.329 0.0
C507 C 0.47084 0.03144 0.3224 0.0
C508 C 0.4354 0.04575 0.31293 0.0
C509 C 0.52423 1.01957 0.31952 0.0
C510 C 0.45408 0.04727 0.30048 0.0
C511 C 0.50712 0.03527 0.29753 0.0
H512 H 0.94596 0.94837 0.58104 0.0
H513 H 0.11962 0.94522 0.58118 0.0
H514 H 0.12211 0.02597 0.58043 0.0
H515 H 0.07512 0.09772 0.58023 0.0
H516 H 0.90149 0.10084 0.57955 0.0
H517 H 0.89901 1.02007 0.57997 0.0
C518 C 0.9844 0.9652 0.58074 0.0
C519 C 0.03251 0.94041 0.58123 0.0
C520 C 0.98561 1.01184 0.58027 0.0
C521 C 0.08189 0.96319 0.58102 0.0
C522 C 0.08339 1.0095 0.58052 0.0
C523 C 0.03671 0.08086 0.58001 0.0
C524 C 0.98857 0.10569 0.57992 0.0
C525 C 0.03551 0.03421 0.58021 0.0
C526 C 0.93921 0.08288 0.57982 0.0
C527 C 0.93773 0.03655 0.57999 0.0
H528 H 0.08116 0.50232 0.82993 0.0
H529 H 0.11902 0.48556 0.79076 0.0
H530 H 0.02569 0.5034 0.78528 0.0
H531 H 0.93279 0.52355 0.7917 0.0
H532 H 0.89642 0.53859 0.83106 0.0
H533 H 0.98939 0.52118 0.83632 0.0
C534 C 0.06931 0.50283 0.82017 0.0
C535 C 0.10744 0.49287 0.81077 0.0
C536 C 1.01547 0.51242 0.81711 0.0
C537 C 0.09077 0.49328 0.79819 0.0
C538 C 0.03727 0.50334 0.79506 0.0
C539 C 0.94507 0.5227 0.80144 0.0
C540 C 0.90721 0.53237 0.81095 0.0
C541 C 0.99912 0.51277 0.80445 0.0
C542 C 0.92427 0.53129 0.82351 0.0
C543 C 0.97765 0.52145 0.82655 0.0
H544 H 0.48739 0.58488 0.09335 0.0
H545 H 0.557 0.61565 0.05721 0.0
H546 H 0.5617 0.53703 0.05228 0.0
H547 H 0.54718 0.45932 0.0583 0.0
H548 H 0.4747 0.42849 0.09402 0.0
H549 H 0.46893 0.50753 0.09895 0.0
C550 C 0.50285 0.57464 0.08431 0.0
C551 C 0.52223 0.60647 0.07573 0.0
C552 C 0.50496 0.52928 0.08146 0.0
C553 C 0.54271 0.5921 0.06412 0.0
C554 C 0.5452 0.54705 0.06125 0.0
C555 C 0.53049 0.46999 0.06719 0.0
C556 C 0.5118 0.43827 0.07583 0.0
C557 C 0.52695 0.51536 0.0699 0.0
C558 C 0.48914 0.45242 0.08721 0.0
C559 C 0.486 0.49753 0.09004 0.0
H560 H 0.4861 0.45143 0.96348 0.0
H561 H 0.37972 0.56471 0.96187 0.0
H562 H 0.45705 0.61443 0.96159 0.0
H563 H 0.55487 0.62575 0.96107 0.0
H564 H 0.66117 0.51234 0.96224 0.0
H565 H 0.58384 0.46281 0.96344 0.0
C566 C 0.47975 0.487 0.96315 0.0
C567 C 0.42712 0.50424 0.96267 0.0
C568 C 0.52442 0.51544 0.96285 0.0
C569 C 0.41976 0.55047 0.96221 0.0
C570 C 0.46398 0.57897 0.96204 0.0
C571 C 0.56118 0.59022 0.96163 0.0
C572 C 0.61381 0.57286 0.96152 0.0
C573 C 0.5165 0.56182 0.96223 0.0
C574 C 0.62114 0.52667 0.96226 0.0
C575 C 0.57692 0.49826 0.96295 0.0
H576 H 0.45709 0.94363 0.19277 0.0
H577 H 0.6298 0.93024 0.19488 0.0
H578 H 0.63927 1.0106 0.19511 0.0
H579 H 0.5987 0.08492 0.19438 0.0
H580 H 0.42617 0.09815 0.19151 0.0
H581 H 0.41659 1.01784 0.19191 0.0
C582 C 0.49683 0.95822 0.19319 0.0
C583 C 0.54256 0.93068 0.19382 0.0
C584 C 0.5021 1.00459 0.1932 0.0
C585 C 0.59374 0.95038 0.19457 0.0
C586 C 0.59928 0.99646 0.19462 0.0
C587 C 0.55904 0.07029 0.19375 0.0
C588 C 0.51331 0.09779 0.19294 0.0
C589 C 0.55376 0.0239 0.19388 0.0
C590 C 0.46212 0.07805 0.19233 0.0
C591 C 0.45656 0.03199 0.19247 0.0
H592 H 0.97126 0.92709 0.45703 0.0
H593 H 0.87269 0.04519 0.45715 0.0
H594 H 0.95361 0.09112 0.45719 0.0
H595 H 0.05201 0.09785 0.45711 0.0
H596 H 0.15098 0.98 0.4571 0.0
H597 H 0.07003 0.93387 0.45713 0.0
C598 C 0.96733 0.96289 0.45705 0.0
C599 C 0.91569 0.98258 0.45705 0.0
C600 C 1.01411 0.98914 0.45711 0.0
C601 C 0.91169 0.02906 0.45713 0.0
C602 C 0.95803 0.05537 0.45716 0.0
C603 C 0.05609 0.06205 0.45712 0.0
C604 C 0.10777 0.04249 0.45708 0.0
C605 C 1.0094 0.03578 0.45714 0.0
C606 C 0.11191 0.99602 0.45713 0.0
C607 C 0.06557 0.96961 0.45713 0.0
H608 H 0.0882 0.44518 0.69432 0.0
H609 H 0.91473 0.43826 0.69475 0.0
H610 H 0.90933 0.519 0.69573 0.0
H611 H 0.95391 0.59154 0.69607 0.0
H612 H 0.12739 0.59809 0.69613 0.0
H613 H 0.13269 0.51736 0.69543 0.0
C614 C 0.04916 0.46114 0.69481 0.0
C615 C 1.00194 0.43544 0.69447 0.0
C616 C 0.04635 0.50757 0.69542 0.0
C617 C 0.95174 0.45707 0.69485 0.0
C618 C 0.94861 0.50329 0.69548 0.0
C619 C 0.99289 0.57539 0.69611 0.0
C620 C 0.0402 0.60104 0.69615 0.0
C621 C 0.99566 0.52888 0.69572 0.0
C622 C 0.09035 0.57932 0.69595 0.0
C623 C 0.09342 0.5331 0.69561 0.0
H624 H 0.36165 0.14107 0.3671 0.0
H625 H 0.19545 0.16451 0.35788 0.0
H626 H 0.17162 0.16484 0.38022 0.0
H627 H 0.19896 0.15968 0.40242 0.0
H628 H 0.36407 0.13076 0.41152 0.0
H629 H 0.38794 0.13118 0.3892 0.0
C630 C 0.32031 0.14633 0.37004 0.0
C631 C 0.28033 0.15327 0.36096 0.0
C632 C 0.30696 0.14546 0.38284 0.0
C633 C 0.22668 0.15913 0.36477 0.0
C634 C 0.2132 0.15944 0.37751 0.0
C635 C 0.24009 0.15357 0.39946 0.0
C636 C 0.27994 0.14563 0.40852 0.0
C637 C 0.25308 0.15289 0.38663 0.0
C638 C 0.33293 0.13688 0.40465 0.0
C639 C 0.34651 0.13726 0.39193 0.0
H640 H 0.89285 0.83678 0.62338 0.0
H641 H 0.90531 0.70004 0.61192 0.0
H642 H 0.89973 0.67608 0.63374 0.0
H643 H 0.90094 0.69418 0.65613 0.0
H644 H 0.89146 0.83099 0.66765 0.0
H645 H 0.88551 0.85448 0.64579 0.0
C646 C 0.89355 0.80169 0.62562 0.0
C647 C 0.9001 0.77035 0.61599 0.0
C648 C 0.8912 0.78809 0.63824 0.0
C649 C 0.90068 0.72499 0.61911 0.0
C650 C 0.89761 0.71121 0.63162 0.0
C651 C 0.89673 0.72912 0.65389 0.0
C652 C 0.89724 0.76075 0.66356 0.0
C653 C 0.89434 0.74251 0.64127 0.0
C654 C 0.89148 0.80586 0.66044 0.0
C655 C 0.88828 0.81938 0.64791 0.0
H656 H 0.17986 0.40442 0.86788 0.0
H657 H 0.34662 0.38707 0.85782 0.0
H658 H 0.37194 0.38853 0.87999 0.0
H659 H 0.34602 0.39373 0.90226 0.0
H660 H 0.17973 0.41472 0.91221 0.0
H661 H 0.15447 0.41299 0.89006 0.0
C662 C 0.22166 0.40075 0.87059 0.0
C663 C 0.26135 0.39519 0.86131 0.0
C664 C 0.23581 0.40234 0.8833 0.0
C665 C 0.31553 0.39146 0.86485 0.0
C666 C 0.32991 0.39214 0.8775 0.0
C667 C 0.30429 0.39772 0.89954 0.0
C668 C 0.26465 0.40398 0.9088 0.0
C669 C 0.29034 0.39736 0.8868 0.0
C670 C 0.21082 0.41004 0.9052 0.0
C671 C 0.19642 0.40887 0.89257 0.0
H672 H 0.65667 0.69458 0.12022 0.0
H673 H 0.6689 0.83379 0.11113 0.0
H674 H 0.67792 0.85143 0.13332 0.0
H675 H 0.6719 0.82822 0.15535 0.0
H676 H 0.65491 0.68937 0.16445 0.0
H677 H 0.65883 0.67077 0.14223 0.0
C678 C 0.66226 0.72874 0.12305 0.0
C679 C 0.6616 0.76283 0.11399 0.0
C680 C 0.6661 0.73879 0.13586 0.0
C681 C 0.6689 0.80688 0.11788 0.0
C682 C 0.67391 0.81704 0.13059 0.0
C683 C 0.66998 0.7938 0.15251 0.0
C684 C 0.6626 0.76031 0.16158 0.0
C685 C 0.67096 0.78339 0.13968 0.0
C686 C 0.66022 0.71588 0.15768 0.0
C687 C 0.66231 0.7052 0.14496 0.0
H688 H 0.71019 0.70985 0.86575 0.0
H689 H 0.81047 0.59323 0.86369 0.0
H690 H 0.81725 0.5914 0.88653 0.0
H691 H 0.79608 0.62401 0.90714 0.0
H692 H 0.69418 0.74001 0.90892 0.0
H693 H 0.68767 0.74141 0.88622 0.0
C694 C 0.7339 0.68424 0.87027 0.0
C695 C 0.75988 0.65183 0.86297 0.0
C696 C 0.73762 0.68338 0.88341 0.0
C697 C 0.78961 0.61837 0.86905 0.0
C698 C 0.79373 0.61743 0.88213 0.0
C699 C 0.77206 0.64937 0.90259 0.0
C700 C 0.74614 0.68208 0.90986 0.0
C701 C 0.76794 0.64982 0.88942 0.0
C702 C 0.71557 0.71488 0.90368 0.0
C703 C 0.71145 0.71558 0.89064 0.0
H704 H 0.37409 0.21236 0.15194 0.0
H705 H 0.44729 0.33738 0.16153 0.0
H706 H 0.4612 0.35405 0.13943 0.0
H707 H 0.46182 0.32978 0.11756 0.0
H708 H 0.38662 0.20644 0.10754 0.0
H709 H 0.36388 0.19257 0.1296 0.0
C710 C 0.39227 0.24357 0.14919 0.0
C711 C 0.41036 0.2732 0.15844 0.0
C712 C 0.40032 0.25306 0.13639 0.0
C713 C 0.43327 0.31375 0.15467 0.0
C714 C 0.44153 0.32329 0.14201 0.0
C715 C 0.43987 0.30011 0.1202 0.0
C716 C 0.42652 0.26885 0.11102 0.0
C717 C 0.42673 0.29263 0.13283 0.0
C718 C 0.39731 0.23093 0.11448 0.0
C719 C 0.38459 0.22293 0.12709 0.0
H720 H 0.76835 0.81715 0.36843 0.0
H721 H 0.82354 0.95234 0.36581 0.0
H722 H 0.81957 0.95903 0.38857 0.0
H723 H 0.80149 0.9262 0.40927 0.0
H724 H 0.74586 0.79107 0.41183 0.0
H725 H 0.75014 0.7844 0.3891 0.0
C726 C 0.78003 0.84794 0.37282 0.0
C727 C 0.79619 0.88417 0.36536 0.0
C728 C 0.77781 0.85155 0.38594 0.0
C729 C 0.8103 0.92407 0.37126 0.0
C730 C 0.80832 0.92787 0.38431 0.0
C731 C 0.7898 0.89542 0.40487 0.0
C732 C 0.77348 0.8592 0.41233 0.0
C733 C 0.79203 0.89185 0.39174 0.0
C734 C 0.75931 0.81934 0.4064 0.0
C735 C 0.76144 0.81554 0.39337 0.0
H736 H 0.13742 0.34466 0.65192 0.0
H737 H 0.14642 0.20666 0.66262 0.0
H738 H 0.14865 0.18525 0.6406 0.0
H739 H 0.13812 0.20518 0.61842 0.0
H740 H 0.12545 0.34306 0.60778 0.0
H741 H 0.13516 0.36491 0.62964 0.0
C742 C 0.14075 0.30992 0.64946 0.0
C743 C 0.14118 0.27734 0.65894 0.0
C744 C 0.14089 0.29773 0.63676 0.0
C745 C 0.14564 0.23248 0.65554 0.0
C746 C 0.14676 0.22016 0.64293 0.0
C747 C 0.13832 0.24005 0.62084 0.0
C748 C 0.13048 0.27236 0.61145 0.0
C749 C 0.14287 0.25242 0.63347 0.0
C750 C 0.131 0.31741 0.6148 0.0
C751 C 0.13643 0.32998 0.62732 0.0
H752 H 0.25828 0.26076 0.26678 0.0
H753 H 0.34597 0.13675 0.26581 0.0
H754 H 0.37721 0.15347 0.24482 0.0
H755 H 0.38542 0.20503 0.22721 0.0
H756 H 0.30349 0.33128 0.22848 0.0
H757 H 0.26465 0.31183 0.24887 0.0
C758 C 0.28438 0.23731 0.26208 0.0
C759 C 0.29967 0.19754 0.26815 0.0
C760 C 0.30357 0.24756 0.24999 0.0
C761 C 0.33281 0.16749 0.26158 0.0
C762 C 0.35116 0.17711 0.2495 0.0
C763 C 0.35853 0.22817 0.23185 0.0
C764 C 0.34746 0.26962 0.2263 0.0
C765 C 0.33745 0.21727 0.24369 0.0
C766 C 0.31281 0.2992 0.23253 0.0
C767 C 0.29069 0.28813 0.24421 0.0
H768 H 0.74945 0.84572 0.51484 0.0
H769 H 0.89181 0.87265 0.4928 0.0
H770 H 0.94845 0.85272 0.5105 0.0
H771 H 0.9581 0.82673 0.53208 0.0
H772 H 0.81671 0.79844 0.5543 0.0
H773 H 0.75925 0.81925 0.53662 0.0
C774 C 0.79283 0.84693 0.51387 0.0
C775 C 0.8161 0.86088 0.50244 0.0
C776 C 0.82543 0.83502 0.52411 0.0
C777 C 0.87254 0.86279 0.50147 0.0
C778 C 0.9051 0.85106 0.51159 0.0
C779 C 0.91471 0.82504 0.5331 0.0
C780 C 0.89182 0.81093 0.54452 0.0
C781 C 0.88202 0.83707 0.52293 0.0
C782 C 0.83546 0.80911 0.54562 0.0
C783 C 0.80257 0.82104 0.53551 0.0
H784 H 0.1921 0.22352 0.73839 0.0
H785 H 0.17582 0.35436 0.72226 0.0
H786 H 0.20922 0.38721 0.74159 0.0
H787 H 0.23923 0.37898 0.76346 0.0
H788 H 0.2542 0.24814 0.77952 0.0
H789 H 0.22544 0.21519 0.75984 0.0
C790 C 0.19632 0.25921 0.73903 0.0
C791 C 0.18122 0.28636 0.72888 0.0
C792 C 0.21504 0.27796 0.75022 0.0
C793 C 0.18709 0.33258 0.72991 0.0
C794 C 0.20599 0.35146 0.74099 0.0
C795 C 0.23597 0.3433 0.76265 0.0
C796 C 0.24869 0.31612 0.77298 0.0
C797 C 0.21928 0.32452 0.75128 0.0
C798 C 0.24517 0.26984 0.77171 0.0
C799 C 0.22847 0.25095 0.76046 0.0
H800 H 0.74574 0.7585 1.00424 0.0
H801 H 0.75595 0.61649 1.00807 0.0
H802 H 0.72921 0.62187 0.03012 0.0
H803 H 0.70121 0.66706 0.04822 0.0
H804 H 0.68596 0.80877 0.04393 0.0
H805 H 0.71713 0.80359 1.02223 0.0
C806 C 0.74254 0.72881 1.00994 0.0
C807 C 0.75299 0.68717 1.00454 0.0
C808 C 0.72645 0.73217 1.02254 0.0
C809 C 0.7477 0.64887 1.01198 0.0
C810 C 0.7327 0.65197 1.0246 0.0
C811 C 0.70536 0.69684 0.04257 0.0
C812 C 0.69179 0.73831 0.04771 0.0
C813 C 0.72183 0.69345 0.02998 0.0
C814 C 0.6963 0.7765 0.0402 0.0
C815 C 0.71402 0.77354 0.02778 0.0
H816 H 0.33269 0.38133 0.04606 0.0
H817 H 0.35285 0.24144 0.03903 0.0
H818 H 0.32042 0.25171 1.01764 0.0
H819 H 0.29293 0.30123 1.0005 0.0
H820 H 0.275 0.44131 1.00737 0.0
H821 H 0.30062 0.43019 0.02922 0.0
C822 C 0.32924 0.35293 0.03992 0.0
C823 C 0.34528 0.31067 0.04416 0.0
C824 C 0.31173 0.35922 0.02754 0.0
C825 C 0.34089 0.27435 0.03602 0.0
C826 C 0.32252 0.28021 1.02376 0.0
C827 C 0.2938 0.32925 1.0068 0.0
C828 C 0.28232 0.3721 1.00224 0.0
C829 C 0.30883 0.32263 1.01935 0.0
C830 C 0.28447 0.4081 1.01055 0.0
C831 C 0.29881 0.40172 1.02308 0.0
H832 H 0.79676 0.8368 0.26253 0.0
H833 H 0.65279 0.85005 0.28501 0.0
H834 H 0.5983 0.82614 0.26737 0.0
H835 H 0.59116 0.80211 0.24556 0.0
H836 H 0.73484 0.78749 0.22307 0.0
H837 H 0.78988 0.81051 0.24084 0.0
C838 C 0.75358 0.83396 0.26367 0.0
C839 C 0.72914 0.84545 0.27516 0.0
C840 C 0.72237 0.81983 0.25348 0.0
C841 C 0.67285 0.84216 0.27629 0.0
C842 C 0.64158 0.82819 0.2662 0.0
C843 C 0.63454 0.8038 0.24452 0.0
C844 C 0.65877 0.79313 0.23297 0.0
C845 C 0.66588 0.81714 0.25475 0.0
C846 C 0.71508 0.79546 0.23185 0.0
C847 C 0.74659 0.80871 0.242 0.0
H848 H 0.26369 0.20871 0.50898 0.0
H849 H 0.12537 0.1485 0.49173 0.0
H850 H 0.07056 0.16632 0.51004 0.0
H851 H 0.06122 0.20019 0.53071 0.0
H852 H 0.19906 0.26019 0.54826 0.0
H853 H 0.25468 0.24153 0.53004 0.0
C854 C 0.2215 0.19972 0.50921 0.0
C855 C 0.19872 0.17731 0.49897 0.0
C856 C 0.19011 0.21011 0.51981 0.0
C857 C 0.14414 0.16526 0.49952 0.0
C858 C 0.11265 0.17569 0.50996 0.0
C859 C 0.10343 0.20926 0.53058 0.0
C860 C 0.12583 0.23179 0.54082 0.0
C861 C 0.13514 0.19825 0.52013 0.0
C862 C 0.18075 0.24287 0.54051 0.0
C863 C 0.21256 0.23226 0.53008 0.0
H864 H 0.90834 0.72956 0.73803 0.0
H865 H 0.76714 0.69426 0.71687 0.0
H866 H 0.72208 0.67038 0.73611 0.0
H867 H 0.72305 0.65867 0.75884 0.0
H868 H 0.86437 0.69219 0.78008 0.0
H869 H 0.90949 0.71709 0.76086 0.0
C870 C 0.86759 0.71685 0.73762 0.0
C871 C 0.84106 0.71395 0.726 0.0
C872 C 0.84212 0.70262 0.74872 0.0
C873 C 0.78851 0.69691 0.72566 0.0
C874 C 0.7627 0.68323 0.73667 0.0
C875 C 0.76351 0.67187 0.75931 0.0
C876 C 0.79013 0.67392 0.77092 0.0
C877 C 0.78913 0.68588 0.74824 0.0
C878 C 0.8431 0.69006 0.77127 0.0
C879 C 0.86877 0.70448 0.76029 0.0
loop_
_geom_bond_atom_site_label_1
_geom_bond_atom_site_label_2
_geom_bond_distance
_geom_bond_site_symmetry_2
_ccdc_geom_bond_type
Cu0 N1 1.999 . S
Cu0 O6 1.974 . S
Cu0 N11 1.985 . S
Cu0 O20 1.959 . S
N1 Cu0 1.999 . S
N1 C3 1.263 . S
N1 C5 1.389 . S
N2 C3 1.358 . S
N2 C4 1.400 . S
C3 N1 1.263 . S
C3 N2 1.358 . S
C3 H9 0.930 . S
C4 N2 1.400 . S
C4 C5 1.351 . S
C4 H21 0.930 . S
C5 N1 1.389 . S
C5 C4 1.351 . S
C5 H10 0.930 . S
O6 Cu0 1.974 . S
O6 C16 1.282 . S
C7 O8 1.261 . S
C7 O20 1.251 . S
O8 C7 1.261 . S
H9 C3 0.930 . S
H10 C5 0.930 . S
N11 Cu0 1.985 . S
N11 C13 1.335 . S
N11 C14 1.390 . S
N12 C13 1.345 . S
N12 C15 1.336 . S
C13 N11 1.335 . S
C13 N12 1.345 . S
C13 H18 0.930 . S
C14 N11 1.390 . S
C14 C15 1.346 . S
C14 H19 0.930 . S
C15 N12 1.336 . S
C15 C14 1.346 . S
C15 H22 0.929 . S
C16 O6 1.282 . S
C16 O17 1.216 . S
O17 C16 1.216 . S
H18 C13 0.930 . S
H19 C14 0.930 . S
O20 Cu0 1.959 . S
O20 C7 1.251 . S
H21 C4 0.930 . S
H22 C15 0.929 . S
Cu23 N24 1.999 . S
Cu23 O29 1.974 . S
Cu23 N34 1.985 . S
Cu23 O43 1.959 . S
N24 Cu23 1.999 . S
N24 C26 1.263 . S
N24 C28 1.389 1_655 S
N25 C26 1.358 . S
N25 C27 1.400 1_655 S
C26 N24 1.263 . S
C26 N25 1.358 . S
C26 H32 0.930 . S
C27 N25 1.400 1_455 S
C27 C28 1.351 . S
C27 H44 0.930 . S
C28 N24 1.389 1_455 S
C28 C27 1.351 . S
C28 H33 0.930 . S
O29 Cu23 1.974 . S
O29 C39 1.282 . S
C30 O31 1.261 . S
C30 O43 1.251 . S
O31 C30 1.261 . S
H32 C26 0.930 . S
H33 C28 0.930 . S
N34 Cu23 1.985 . S
N34 C36 1.335 . S
N34 C37 1.390 . S
N35 C36 1.345 . S
N35 C38 1.336 . S
C36 N34 1.335 . S
C36 N35 1.345 . S
C36 H41 0.930 . S
C37 N34 1.390 . S
C37 C38 1.346 . S
C37 H42 0.930 . S
C38 N35 1.336 . S
C38 C37 1.346 . S
C38 H45 0.929 . S
C39 O29 1.282 . S
C39 O40 1.216 . S
O40 C39 1.216 . S
H41 C36 0.930 . S
H42 C37 0.930 . S
O43 Cu23 1.959 . S
O43 C30 1.251 . S
H44 C27 0.930 . S
H45 C38 0.929 . S
Cu46 N47 1.999 . S
Cu46 O52 1.974 . S
Cu46 N57 1.985 . S
Cu46 O66 1.959 . S
N47 Cu46 1.999 . S
N47 C49 1.263 . S
N47 C51 1.389 . S
N48 C49 1.358 . S
N48 C50 1.400 . S
C49 N47 1.263 . S
C49 N48 1.358 . S
C49 H55 0.930 . S
C50 N48 1.400 . S
C50 C51 1.351 . S
C50 H67 0.930 . S
C51 N47 1.389 . S
C51 C50 1.351 . S
C51 H56 0.930 . S
O52 Cu46 1.974 . S
O52 C62 1.282 . S
C53 O54 1.261 . S
C53 O66 1.251 . S
O54 C53 1.261 . S
H55 C49 0.930 . S
H56 C51 0.930 . S
N57 Cu46 1.985 . S
N57 C59 1.335 . S
N57 C60 1.390 . S
N58 C59 1.345 . S
N58 C61 1.336 . S
C59 N57 1.335 . S
C59 N58 1.345 . S
C59 H64 0.930 . S
C60 N57 1.390 . S
C60 C61 1.346 . S
C60 H65 0.930 . S
C61 N58 1.336 . S
C61 C60 1.346 . S
C61 H68 0.929 . S
C62 O52 1.282 . S
C62 O63 1.216 . S
O63 C62 1.216 . S
H64 C59 0.930 . S
H65 C60 0.930 . S
O66 Cu46 1.959 . S
O66 C53 1.251 . S
H67 C50 0.930 . S
H68 C61 0.929 . S
Cu69 N70 1.999 . S
Cu69 O75 1.974 . S
Cu69 N80 1.985 . S
Cu69 O89 1.959 . S
N70 Cu69 1.999 . S
N70 C72 1.263 . S
N70 C74 1.389 . S
N71 C72 1.358 . S
N71 C73 1.400 . S
C72 N70 1.263 . S
C72 N71 1.358 . S
C72 H78 0.930 . S
C73 N71 1.400 . S
C73 C74 1.351 . S
C73 H90 0.930 . S
C74 N70 1.389 . S
C74 C73 1.351 . S
C74 H79 0.930 . S
O75 Cu69 1.974 . S
O75 C85 1.282 . S
C76 O77 1.261 . S
C76 O89 1.251 . S
O77 C76 1.261 . S
H78 C72 0.930 . S
H79 C74 0.930 . S
N80 Cu69 1.985 . S
N80 C82 1.335 . S
N80 C83 1.390 . S
N81 C82 1.345 . S
N81 C84 1.336 . S
C82 N80 1.335 . S
C82 N81 1.345 . S
C82 H87 0.930 . S
C83 N80 1.390 . S
C83 C84 1.346 . S
C83 H88 0.930 . S
C84 N81 1.336 . S
C84 C83 1.346 . S
C84 H91 0.929 . S
C85 O75 1.282 . S
C85 O86 1.216 . S
O86 C85 1.216 . S
H87 C82 0.930 . S
H88 C83 0.930 . S
O89 Cu69 1.959 . S
O89 C76 1.251 . S
H90 C73 0.930 . S
H91 C84 0.929 . S
Cu92 N93 1.999 . S
Cu92 O98 1.974 . S
Cu92 N103 1.985 . S
Cu92 O112 1.959 . S
N93 Cu92 1.999 . S
N93 C95 1.263 . S
N93 C97 1.389 . S
N94 C95 1.358 . S
N94 C96 1.400 . S
C95 N93 1.263 . S
C95 N94 1.358 . S
C95 H101 0.930 . S
C96 N94 1.400 . S
C96 C97 1.351 . S
C96 H113 0.930 . S
C97 N93 1.389 . S
C97 C96 1.351 . S
C97 H102 0.930 . S
O98 Cu92 1.974 . S
O98 C108 1.282 . S
C99 O100 1.261 . S
C99 O112 1.251 . S
O100 C99 1.261 . S
H101 C95 0.930 . S
H102 C97 0.930 . S
N103 Cu92 1.985 . S
N103 C105 1.335 . S
N103 C106 1.390 . S
N104 C105 1.345 . S
N104 C107 1.336 . S
C105 N103 1.335 . S
C105 N104 1.345 . S
C105 H110 0.930 . S
C106 N103 1.390 . S
C106 C107 1.346 . S
C106 H111 0.930 . S
C107 N104 1.336 . S
C107 C106 1.346 . S
C107 H114 0.929 . S
C108 O98 1.282 . S
C108 O109 1.216 . S
O109 C108 1.216 . S
H110 C105 0.930 . S
H111 C106 0.930 . S
O112 Cu92 1.959 . S
O112 C99 1.251 . S
H113 C96 0.930 . S
H114 C107 0.929 . S
Cu115 N116 1.999 . S
Cu115 O121 1.974 . S
Cu115 N126 1.985 . S
Cu115 O135 1.959 . S
N116 Cu115 1.999 . S
N116 C118 1.263 . S
N116 C120 1.389 . S
N117 C118 1.358 . S
N117 C119 1.400 . S
C118 N116 1.263 . S
C118 N117 1.358 . S
C118 H124 0.930 . S
C119 N117 1.400 . S
C119 C120 1.351 . S
C119 H136 0.930 . S
C120 N116 1.389 . S
C120 C119 1.351 . S
C120 H125 0.930 . S
O121 Cu115 1.974 . S
O121 C131 1.282 . S
C122 O123 1.261 . S
C122 O135 1.251 . S
O123 C122 1.261 . S
H124 C118 0.930 . S
H125 C120 0.930 . S
N126 Cu115 1.985 . S
N126 C128 1.335 . S
N126 C129 1.390 . S
N127 C128 1.345 . S
N127 C130 1.336 . S
C128 N126 1.335 . S
C128 N127 1.345 . S
C128 H133 0.930 . S
C129 N126 1.390 . S
C129 C130 1.346 . S
C129 H134 0.930 . S
C130 N127 1.336 . S
C130 C129 1.346 . S
C130 H137 0.929 . S
C131 O121 1.282 . S
C131 O132 1.216 . S
O132 C131 1.216 . S
H133 C128 0.930 . S
H134 C129 0.930 . S
O135 Cu115 1.959 . S
O135 C122 1.251 . S
H136 C119 0.930 . S
H137 C130 0.929 . S
Cu138 N139 1.999 . S
Cu138 O144 1.974 . S
Cu138 N149 1.985 . S
Cu138 O158 1.959 . S
N139 Cu138 1.999 . S
N139 C141 1.263 . S
N139 C143 1.389 . S
N140 C141 1.358 . S
N140 C142 1.400 . S
C141 N139 1.263 . S
C141 N140 1.358 . S
C141 H147 0.930 . S
C142 N140 1.400 . S
C142 C143 1.351 . S
C142 H159 0.930 . S
C143 N139 1.389 . S
C143 C142 1.351 . S
C143 H148 0.930 . S
O144 Cu138 1.974 . S
O144 C154 1.282 . S
C145 O146 1.261 . S
C145 O158 1.251 . S
O146 C145 1.261 . S
H147 C141 0.930 . S
H148 C143 0.930 . S
N149 Cu138 1.985 . S
N149 C151 1.335 . S
N149 C152 1.390 . S
N150 C151 1.345 . S
N150 C153 1.336 . S
C151 N149 1.335 . S
C151 N150 1.345 . S
C151 H156 0.930 . S
C152 N149 1.390 . S
C152 C153 1.346 . S
C152 H157 0.930 . S
C153 N150 1.336 . S
C153 C152 1.346 . S
C153 H160 0.929 . S
C154 O144 1.282 . S
C154 O155 1.216 . S
O155 C154 1.216 . S
H156 C151 0.930 . S
H157 C152 0.930 . S
O158 Cu138 1.959 . S
O158 C145 1.251 . S
H159 C142 0.930 . S
H160 C153 0.929 . S
Cu161 N162 1.999 . S
Cu161 O167 1.974 . S
Cu161 N172 1.985 . S
Cu161 O181 1.959 . S
N162 Cu161 1.999 . S
N162 C164 1.263 . S
N162 C166 1.389 1_655 S
N163 C164 1.358 . S
N163 C165 1.400 1_655 S
C164 N162 1.263 . S
C164 N163 1.358 . S
C164 H170 0.930 . S
C165 N163 1.400 1_455 S
C165 C166 1.351 . S
C165 H182 0.930 . S
C166 N162 1.389 1_455 S
C166 C165 1.351 . S
C166 H171 0.930 . S
O167 Cu161 1.974 . S
O167 C177 1.282 . S
C168 O169 1.261 . S
C168 O181 1.251 . S
O169 C168 1.261 . S
H170 C164 0.930 . S
H171 C166 0.930 . S
N172 Cu161 1.985 . S
N172 C174 1.335 . S
N172 C175 1.390 . S
N173 C174 1.345 . S
N173 C176 1.336 . S
C174 N172 1.335 . S
C174 N173 1.345 . S
C174 H179 0.930 . S
C175 N172 1.390 . S
C175 C176 1.346 . S
C175 H180 0.930 . S
C176 N173 1.336 . S
C176 C175 1.346 . S
C176 H183 0.929 . S
C177 O167 1.282 . S
C177 O178 1.216 . S
O178 C177 1.216 . S
H179 C174 0.930 . S
H180 C175 0.930 . S
O181 Cu161 1.959 . S
O181 C168 1.251 . S
H182 C165 0.930 . S
H183 C176 0.929 . S
Cu184 N185 1.999 . S
Cu184 O190 1.974 . S
Cu184 N195 1.985 . S
Cu184 O204 1.959 . S
N185 Cu184 1.999 . S
N185 C187 1.263 . S
N185 C189 1.389 . S
N186 C187 1.358 . S
N186 C188 1.400 . S
C187 N185 1.263 . S
C187 N186 1.358 . S
C187 H193 0.930 . S
C188 N186 1.400 . S
C188 C189 1.351 . S
C188 H205 0.930 . S
C189 N185 1.389 . S
C189 C188 1.351 . S
C189 H194 0.930 . S
O190 Cu184 1.974 . S
O190 C200 1.282 . S
C191 O192 1.261 . S
C191 O204 1.251 . S
O192 C191 1.261 . S
H193 C187 0.930 . S
H194 C189 0.930 . S
N195 Cu184 1.985 . S
N195 C197 1.335 . S
N195 C198 1.390 . S
N196 C197 1.345 . S
N196 C199 1.336 . S
C197 N195 1.335 . S
C197 N196 1.345 . S
C197 H202 0.930 . S
C198 N195 1.390 . S
C198 C199 1.346 . S
C198 H203 0.930 . S
C199 N196 1.336 . S
C199 C198 1.346 . S
C199 H206 0.929 . S
C200 O190 1.282 . S
C200 O201 1.216 . S
O201 C200 1.216 . S
H202 C197 0.930 . S
H203 C198 0.930 . S
O204 Cu184 1.959 . S
O204 C191 1.251 . S
H205 C188 0.930 . S
H206 C199 0.929 . S
Cu207 N208 1.999 . S
Cu207 O213 1.974 . S
Cu207 N218 1.985 . S
Cu207 O227 1.959 . S
N208 Cu207 1.999 . S
N208 C210 1.263 . S
N208 C212 1.389 . S
N209 C210 1.358 . S
N209 C211 1.400 . S
C210 N208 1.263 . S
C210 N209 1.358 . S
C210 H216 0.930 . S
C211 N209 1.400 . S
C211 C212 1.351 . S
C211 H228 0.930 . S
C212 N208 1.389 . S
C212 C211 1.351 . S
C212 H217 0.930 . S
O213 Cu207 1.974 . S
O213 C223 1.282 . S
C214 O215 1.261 . S
C214 O227 1.251 . S
O215 C214 1.261 . S
H216 C210 0.930 . S
H217 C212 0.930 . S
N218 Cu207 1.985 . S
N218 C220 1.335 . S
N218 C221 1.390 . S
N219 C220 1.345 . S
N219 C222 1.336 . S
C220 N218 1.335 . S
C220 N219 1.345 . S
C220 H225 0.930 . S
C221 N218 1.390 . S
C221 C222 1.346 . S
C221 H226 0.930 . S
C222 N219 1.336 . S
C222 C221 1.346 . S
C222 H229 0.929 . S
C223 O213 1.282 . S
C223 O224 1.216 . S
O224 C223 1.216 . S
H225 C220 0.930 . S
H226 C221 0.930 . S
O227 Cu207 1.959 . S
O227 C214 1.251 . S
H228 C211 0.930 . S
H229 C222 0.929 . S
Cu230 N231 1.999 . S
Cu230 O236 1.974 . S
Cu230 N241 1.985 . S
Cu230 O250 1.959 . S
N231 Cu230 1.999 . S
N231 C233 1.263 . S
N231 C235 1.389 . S
N232 C233 1.358 . S
N232 C234 1.400 . S
C233 N231 1.263 . S
C233 N232 1.358 . S
C233 H239 0.930 . S
C234 N232 1.400 . S
C234 C235 1.351 . S
C234 H251 0.930 . S
C235 N231 1.389 . S
C235 C234 1.351 . S
C235 H240 0.930 . S
O236 Cu230 1.974 . S
O236 C246 1.282 . S
C237 O238 1.261 . S
C237 O250 1.251 . S
O238 C237 1.261 . S
H239 C233 0.930 . S
H240 C235 0.930 . S
N241 Cu230 1.985 . S
N241 C243 1.335 . S
N241 C244 1.390 . S
N242 C243 1.345 . S
N242 C245 1.336 . S
C243 N241 1.335 . S
C243 N242 1.345 . S
C243 H248 0.930 . S
C244 N241 1.390 . S
C244 C245 1.346 . S
C244 H249 0.930 . S
C245 N242 1.336 . S
C245 C244 1.346 . S
C245 H252 0.929 . S
C246 O236 1.282 . S
C246 O247 1.216 . S
O247 C246 1.216 . S
H248 C243 0.930 . S
H249 C244 0.930 . S
O250 Cu230 1.959 . S
O250 C237 1.251 . S
H251 C234 0.930 . S
H252 C245 0.929 . S
Cu253 N254 1.999 . S
Cu253 O259 1.974 . S
Cu253 N264 1.985 . S
Cu253 O273 1.959 . S
N254 Cu253 1.999 . S
N254 C256 1.263 . S
N254 C258 1.389 1_455 S
N255 C256 1.358 . S
N255 C257 1.400 1_455 S
C256 N254 1.263 . S
C256 N255 1.358 . S
C256 H262 0.930 . S
C257 N255 1.400 1_655 S
C257 C258 1.351 . S
C257 H274 0.930 . S
C258 N254 1.389 1_655 S
C258 C257 1.351 . S
C258 H263 0.930 . S
O259 Cu253 1.974 . S
O259 C269 1.282 . S
C260 O261 1.261 . S
C260 O273 1.251 . S
O261 C260 1.261 . S
H262 C256 0.930 . S
H263 C258 0.930 . S
N264 Cu253 1.985 . S
N264 C266 1.335 . S
N264 C267 1.390 . S
N265 C266 1.345 . S
N265 C268 1.336 . S
C266 N264 1.335 . S
C266 N265 1.345 . S
C266 H271 0.930 . S
C267 N264 1.390 . S
C267 C268 1.346 . S
C267 H272 0.930 . S
C268 N265 1.336 . S
C268 C267 1.346 . S
C268 H275 0.929 . S
C269 O259 1.282 . S
C269 O270 1.216 . S
O270 C269 1.216 . S
H271 C266 0.930 . S
H272 C267 0.930 . S
O273 Cu253 1.959 . S
O273 C260 1.251 . S
H274 C257 0.930 . S
H275 C268 0.929 . S
Cu276 N277 1.999 . S
Cu276 O282 1.974 . S
Cu276 N287 1.985 . S
Cu276 O296 1.959 . S
N277 Cu276 1.999 . S
N277 C279 1.263 . S
N277 C281 1.389 . S
N278 C279 1.358 . S
N278 C280 1.400 . S
C279 N277 1.263 . S
C279 N278 1.358 . S
C279 H285 0.930 . S
C280 N278 1.400 . S
C280 C281 1.351 . S
C280 H297 0.930 . S
C281 N277 1.389 . S
C281 C280 1.351 . S
C281 H286 0.930 . S
O282 Cu276 1.974 . S
O282 C292 1.282 . S
C283 O284 1.261 . S
C283 O296 1.251 . S
O284 C283 1.261 . S
H285 C279 0.930 . S
H286 C281 0.930 . S
N287 Cu276 1.985 . S
N287 C289 1.335 . S
N287 C290 1.390 . S
N288 C289 1.345 . S
N288 C291 1.336 . S
C289 N287 1.335 . S
C289 N288 1.345 . S
C289 H294 0.930 . S
C290 N287 1.390 . S
C290 C291 1.346 . S
C290 H295 0.930 . S
C291 N288 1.336 . S
C291 C290 1.346 . S
C291 H298 0.929 . S
C292 O282 1.282 . S
C292 O293 1.216 . S
O293 C292 1.216 . S
H294 C289 0.930 . S
H295 C290 0.930 . S
O296 Cu276 1.959 . S
O296 C283 1.251 . S
H297 C280 0.930 . S
H298 C291 0.929 . S
Cu299 N300 1.999 . S
Cu299 O305 1.974 . S
Cu299 N310 1.985 . S
Cu299 O319 1.959 . S
N300 Cu299 1.999 . S
N300 C302 1.263 . S
N300 C304 1.389 1_455 S
N301 C302 1.358 . S
N301 C303 1.400 1_455 S
C302 N300 1.263 . S
C302 N301 1.358 . S
C302 H308 0.930 . S
C303 N301 1.400 1_655 S
C303 C304 1.351 . S
C303 H320 0.930 . S
C304 N300 1.389 1_655 S
C304 C303 1.351 . S
C304 H309 0.930 . S
O305 Cu299 1.974 . S
O305 C315 1.282 . S
C306 O307 1.261 . S
C306 O319 1.251 . S
O307 C306 1.261 . S
H308 C302 0.930 . S
H309 C304 0.930 . S
N310 Cu299 1.985 . S
N310 C312 1.335 . S
N310 C313 1.390 . S
N311 C312 1.345 . S
N311 C314 1.336 . S
C312 N310 1.335 . S
C312 N311 1.345 . S
C312 H317 0.930 . S
C313 N310 1.390 . S
C313 C314 1.346 . S
C313 H318 0.930 . S
C314 N311 1.336 . S
C314 C313 1.346 . S
C314 H321 0.929 . S
C315 O305 1.282 . S
C315 O316 1.216 . S
O316 C315 1.216 . S
H317 C312 0.930 . S
H318 C313 0.930 . S
O319 Cu299 1.959 . S
O319 C306 1.251 . S
H320 C303 0.930 . S
H321 C314 0.929 . S
Cu322 N323 1.999 . S
Cu322 O328 1.974 . S
Cu322 N333 1.985 . S
Cu322 O342 1.959 . S
N323 Cu322 1.999 . S
N323 C325 1.263 . S
N323 C327 1.389 . S
N324 C325 1.358 . S
N324 C326 1.400 . S
C325 N323 1.263 . S
C325 N324 1.358 . S
C325 H331 0.930 . S
C326 N324 1.400 . S
C326 C327 1.351 . S
C326 H343 0.930 . S
C327 N323 1.389 . S
C327 C326 1.351 . S
C327 H332 0.930 . S
O328 Cu322 1.974 . S
O328 C338 1.282 . S
C329 O330 1.261 . S
C329 O342 1.251 . S
O330 C329 1.261 . S
H331 C325 0.930 . S
H332 C327 0.930 . S
N333 Cu322 1.985 . S
N333 C335 1.335 . S
N333 C336 1.390 . S
N334 C335 1.345 . S
N334 C337 1.336 . S
C335 N333 1.335 . S
C335 N334 1.345 . S
C335 H340 0.930 . S
C336 N333 1.390 . S
C336 C337 1.346 . S
C336 H341 0.930 . S
C337 N334 1.336 . S
C337 C336 1.346 . S
C337 H344 0.929 . S
C338 O328 1.282 . S
C338 O339 1.216 . S
O339 C338 1.216 . S
H340 C335 0.930 . S
H341 C336 0.930 . S
O342 Cu322 1.959 . S
O342 C329 1.251 . S
H343 C326 0.930 . S
H344 C337 0.929 . S
Cu345 N346 1.999 . S
Cu345 O351 1.974 . S
Cu345 N356 1.985 . S
Cu345 O365 1.959 . S
N346 Cu345 1.999 . S
N346 C348 1.263 . S
N346 C350 1.389 . S
N347 C348 1.358 . S
N347 C349 1.400 . S
C348 N346 1.263 . S
C348 N347 1.358 . S
C348 H354 0.930 . S
C349 N347 1.400 . S
C349 C350 1.351 . S
C349 H366 0.930 . S
C350 N346 1.389 . S
C350 C349 1.351 . S
C350 H355 0.930 . S
O351 Cu345 1.974 . S
O351 C361 1.282 . S
C352 O353 1.261 . S
C352 O365 1.251 . S
O353 C352 1.261 . S
H354 C348 0.930 . S
H355 C350 0.930 . S
N356 Cu345 1.985 . S
N356 C358 1.335 . S
N356 C359 1.390 . S
N357 C358 1.345 . S
N357 C360 1.336 . S
C358 N356 1.335 . S
C358 N357 1.345 . S
C358 H363 0.930 . S
C359 N356 1.390 . S
C359 C360 1.346 . S
C359 H364 0.930 . S
C360 N357 1.336 . S
C360 C359 1.346 . S
C360 H367 0.929 . S
C361 O351 1.282 . S
C361 O362 1.216 . S
O362 C361 1.216 . S
H363 C358 0.930 . S
H364 C359 0.930 . S
O365 Cu345 1.959 . S
O365 C352 1.251 . S
H366 C349 0.930 . S
H367 C360 0.929 . S
H368 C374 0.930 . S
H369 C377 0.930 . S
H370 C378 0.930 . S
H371 C379 0.930 . S
H372 C382 0.930 . S
H373 C383 0.930 . S
C374 H368 0.930 . S
C374 C375 1.355 . S
C374 C376 1.415 . S
C375 C374 1.355 . S
C375 C377 1.419 . S
C376 C374 1.415 . S
C376 C381 1.425 1_665 S
C376 C383 1.409 1_655 S
C377 H369 0.930 . S
C377 C375 1.419 . S
C377 C378 1.362 1_565 S
C378 H370 0.930 . S
C378 C377 1.362 1_545 S
C378 C381 1.409 1_655 S
C379 H371 0.930 . S
C379 C380 1.355 . S
C379 C381 1.415 . S
C380 C379 1.355 . S
C380 C382 1.419 . S
C381 C376 1.425 1_445 S
C381 C378 1.409 1_455 S
C381 C379 1.415 . S
C382 H372 0.930 . S
C382 C380 1.419 . S
C382 C383 1.362 1_545 S
C383 H373 0.930 . S
C383 C376 1.409 1_455 S
C383 C382 1.362 1_565 S
H384 C390 0.930 . S
H385 C393 0.930 . S
H386 C394 0.930 . S
H387 C395 0.930 . S
H388 C398 0.930 . S
H389 C399 0.930 . S
C390 H384 0.930 . S
C390 C391 1.355 . S
C390 C392 1.415 . S
C391 C390 1.355 . S
C391 C393 1.419 1_655 S
C392 C390 1.415 . S
C392 C397 1.425 1_655 S
C392 C399 1.409 . S
C393 H385 0.930 . S
C393 C391 1.419 1_455 S
C393 C394 1.362 . S
C394 H386 0.930 . S
C394 C393 1.362 . S
C394 C397 1.409 . S
C395 H387 0.930 . S
C395 C396 1.355 . S
C395 C397 1.415 . S
C396 C395 1.355 . S
C396 C398 1.419 1_455 S
C397 C392 1.425 1_455 S
C397 C394 1.409 . S
C397 C395 1.415 . S
C398 H388 0.930 . S
C398 C396 1.419 1_655 S
C398 C399 1.362 . S
C399 H389 0.930 . S
C399 C392 1.409 . S
C399 C398 1.362 . S
H400 C406 0.930 . S
H401 C409 0.930 . S
H402 C410 0.930 . S
H403 C411 0.930 . S
H404 C414 0.930 . S
H405 C415 0.930 . S
C406 H400 0.930 . S
C406 C407 1.355 . S
C406 C408 1.415 . S
C407 C406 1.355 . S
C407 C409 1.419 . S
C408 C406 1.415 . S
C408 C413 1.425 . S
C408 C415 1.409 . S
C409 H401 0.930 . S
C409 C407 1.419 . S
C409 C410 1.362 . S
C410 H402 0.930 . S
C410 C409 1.362 . S
C410 C413 1.409 . S
C411 H403 0.930 . S
C411 C412 1.355 . S
C411 C413 1.415 . S
C412 C411 1.355 . S
C412 C414 1.419 . S
C413 C408 1.425 . S
C413 C410 1.409 . S
C413 C411 1.415 . S
C414 H404 0.930 . S
C414 C412 1.419 . S
C414 C415 1.362 . S
C415 H405 0.930 . S
C415 C408 1.409 . S
C415 C414 1.362 . S
H416 C422 0.930 . S
H417 C425 0.930 . S
H418 C426 0.930 . S
H419 C427 0.930 . S
H420 C430 0.930 . S
H421 C431 0.930 . S
C422 H416 0.930 . S
C422 C423 1.355 . S
C422 C424 1.414 . S
C423 C422 1.355 . S
C423 C425 1.419 . S
C424 C422 1.414 . S
C424 C429 1.425 1_545 S
C424 C431 1.410 1_545 S
C425 H417 0.930 . S
C425 C423 1.419 . S
C425 C426 1.362 . S
C426 H418 0.930 . S
C426 C425 1.362 . S
C426 C429 1.411 1_545 S
C427 H419 0.930 . S
C427 C428 1.355 . S
C427 C429 1.413 . S
C428 C427 1.355 . S
C428 C430 1.419 . S
C429 C424 1.425 1_565 S
C429 C426 1.411 1_565 S
C429 C427 1.413 . S
C430 H420 0.930 . S
C430 C428 1.419 . S
C430 C431 1.362 . S
C431 H421 0.930 . S
C431 C424 1.410 1_565 S
C431 C430 1.362 . S
H432 C438 0.930 . S
H433 C441 0.930 . S
H434 C442 0.930 . S
H435 C443 0.930 . S
H436 C446 0.930 . S
H437 C447 0.930 . S
C438 H432 0.930 . S
C438 C439 1.355 . S
C438 C440 1.415 . S
C439 C438 1.355 . S
C439 C441 1.419 . S
C440 C438 1.415 . S
C440 C445 1.425 1_455 S
C440 C447 1.409 1_455 S
C441 H433 0.930 . S
C441 C439 1.419 . S
C441 C442 1.362 . S
C442 H434 0.930 . S
C442 C441 1.362 . S
C442 C445 1.409 1_455 S
C443 H435 0.930 . S
C443 C444 1.355 . S
C443 C445 1.415 . S
C444 C443 1.355 . S
C444 C446 1.419 . S
C445 C440 1.425 1_655 S
C445 C442 1.409 1_655 S
C445 C443 1.415 . S
C446 H436 0.930 . S
C446 C444 1.419 . S
C446 C447 1.362 . S
C447 H437 0.930 . S
C447 C440 1.409 1_655 S
C447 C446 1.362 . S
H448 C454 0.930 . S
H449 C457 0.930 . S
H450 C458 0.930 . S
H451 C459 0.930 . S
H452 C462 0.930 . S
H453 C463 0.930 . S
C454 H448 0.930 . S
C454 C455 1.355 . S
C454 C456 1.415 . S
C455 C454 1.355 . S
C455 C457 1.419 . S
C456 C454 1.415 . S
C456 C461 1.425 . S
C456 C463 1.409 . S
C457 H449 0.930 . S
C457 C455 1.419 . S
C457 C458 1.362 . S
C458 H450 0.930 . S
C458 C457 1.362 . S
C458 C461 1.409 . S
C459 H451 0.930 . S
C459 C460 1.355 . S
C459 C461 1.415 . S
C460 C459 1.355 . S
C460 C462 1.419 . S
C461 C456 1.425 . S
C461 C458 1.409 . S
C461 C459 1.415 . S
C462 H452 0.930 . S
C462 C460 1.419 . S
C462 C463 1.362 . S
C463 H453 0.930 . S
C463 C456 1.409 . S
C463 C462 1.362 . S
H464 C470 0.930 . S
H465 C473 0.930 . S
H466 C474 0.930 . S
H467 C475 0.930 . S
H468 C478 0.930 . S
H469 C479 0.930 . S
C470 H464 0.930 . S
C470 C471 1.355 . S
C470 C472 1.415 . S
C471 C470 1.355 . S
C471 C473 1.419 1_545 S
C472 C470 1.415 . S
C472 C477 1.425 1_545 S
C472 C479 1.409 . S
C473 H465 0.930 . S
C473 C471 1.419 1_565 S
C473 C474 1.362 . S
C474 H466 0.930 . S
C474 C473 1.362 . S
C474 C477 1.409 . S
C475 H467 0.930 . S
C475 C476 1.355 . S
C475 C477 1.415 . S
C476 C475 1.355 . S
C476 C478 1.419 1_565 S
C477 C472 1.425 1_565 S
C477 C474 1.409 . S
C477 C475 1.415 . S
C478 H468 0.930 . S
C478 C476 1.419 1_545 S
C478 C479 1.362 . S
C479 H469 0.930 . S
C479 C472 1.409 . S
C479 C478 1.362 . S
H480 C486 0.930 . S
H481 C489 0.930 . S
H482 C490 0.928 1_655 S
H483 C491 0.930 . S
H484 C494 0.930 . S
H485 C495 0.930 1_455 S
C486 H480 0.930 . S
C486 C487 1.355 . S
C486 C488 1.415 . S
C487 C486 1.355 . S
C487 C489 1.419 . S
C488 C486 1.415 . S
C488 C493 1.425 1_445 S
C488 C495 1.409 1_445 S
C489 H481 0.930 . S
C489 C487 1.419 . S
C489 C490 1.362 . S
C490 H482 0.928 1_455 S
C490 C489 1.362 . S
C490 C493 1.409 1_445 S
C491 H483 0.930 . S
C491 C492 1.355 . S
C491 C493 1.415 . S
C492 C491 1.355 . S
C492 C494 1.419 . S
C493 C488 1.425 1_665 S
C493 C490 1.409 1_665 S
C493 C491 1.415 . S
C494 H484 0.930 . S
C494 C492 1.419 . S
C494 C495 1.362 . S
C495 H485 0.930 1_655 S
C495 C488 1.409 1_665 S
C495 C494 1.362 . S
H496 C502 0.930 . S
H497 C505 0.930 . S
H498 C506 0.930 . S
H499 C507 0.930 . S
H500 C510 0.930 . S
H501 C511 0.930 . S
C502 H496 0.930 . S
C502 C503 1.355 . S
C502 C504 1.415 . S
C503 C502 1.355 . S
C503 C505 1.419 . S
C504 C502 1.415 . S
C504 C509 1.425 1_565 S
C504 C511 1.409 . S
C505 H497 0.930 . S
C505 C503 1.419 . S
C505 C506 1.362 1_565 S
C506 H498 0.930 . S
C506 C505 1.362 1_545 S
C506 C509 1.409 . S
C507 H499 0.930 . S
C507 C508 1.355 . S
C507 C509 1.415 . S
C508 C507 1.355 . S
C508 C510 1.419 . S
C509 C504 1.425 1_545 S
C509 C506 1.409 . S
C509 C507 1.415 . S
C510 H500 0.930 . S
C510 C508 1.419 . S
C510 C511 1.362 1_545 S
C511 H501 0.930 . S
C511 C504 1.409 . S
C511 C510 1.362 1_565 S
H512 C518 0.930 . S
H513 C521 0.930 . S
H514 C522 0.930 . S
H515 C523 0.930 . S
H516 C526 0.930 . S
H517 C527 0.930 . S
C518 H512 0.930 . S
C518 C519 1.355 . S
C518 C520 1.405 1_565 S
C519 C518 1.355 . S
C519 C521 1.419 1_655 S
C520 C518 1.405 1_545 S
C520 C525 1.425 1_645 S
C520 C527 1.419 . S
C521 H513 0.930 . S
C521 C519 1.419 1_455 S
C521 C522 1.362 . S
C522 H514 0.930 . S
C522 C521 1.362 . S
C522 C525 1.420 . S
C523 H515 0.930 . S
C523 C524 1.355 . S
C523 C525 1.404 1_545 S
C524 C523 1.355 . S
C524 C526 1.419 1_455 S
C525 C520 1.425 1_465 S
C525 C522 1.420 . S
C525 C523 1.404 1_565 S
C526 H516 0.930 . S
C526 C524 1.419 1_655 S
C526 C527 1.362 . S
C527 H517 0.930 . S
C527 C520 1.419 . S
C527 C526 1.362 . S
H528 C534 0.930 . S
H529 C537 0.930 . S
H530 C538 0.930 . S
H531 C539 0.930 . S
H532 C542 0.930 . S
H533 C543 0.930 . S
C534 H528 0.930 . S
C534 C535 1.355 . S
C534 C536 1.415 . S
C535 C534 1.355 . S
C535 C537 1.419 . S
C536 C534 1.415 . S
C536 C541 1.425 1_455 S
C536 C543 1.409 . S
C537 H529 0.930 . S
C537 C535 1.419 . S
C537 C538 1.362 1_455 S
C538 H530 0.930 . S
C538 C537 1.362 1_655 S
C538 C541 1.409 . S
C539 H531 0.930 . S
C539 C540 1.355 . S
C539 C541 1.415 . S
C540 C539 1.355 . S
C540 C542 1.419 . S
C541 C536 1.425 1_655 S
C541 C538 1.409 . S
C541 C539 1.415 . S
C542 H532 0.930 . S
C542 C540 1.419 . S
C542 C543 1.362 1_655 S
C543 H533 0.930 . S
C543 C536 1.409 . S
C543 C542 1.362 1_455 S
H544 C550 0.930 . S
H545 C553 0.930 . S
H546 C554 0.930 . S
H547 C555 0.930 . S
H548 C558 0.930 . S
H549 C559 0.930 . S
C550 H544 0.930 . S
C550 C551 1.355 . S
C550 C552 1.415 . S
C551 C550 1.355 . S
C551 C553 1.419 . S
C552 C550 1.415 . S
C552 C557 1.425 . S
C552 C559 1.409 . S
C553 H545 0.930 . S
C553 C551 1.419 . S
C553 C554 1.362 . S
C554 H546 0.930 . S
C554 C553 1.362 . S
C554 C557 1.409 . S
C555 H547 0.930 . S
C555 C556 1.355 . S
C555 C557 1.415 . S
C556 C555 1.355 . S
C556 C558 1.419 . S
C557 C552 1.425 . S
C557 C554 1.409 . S
C557 C555 1.415 . S
C558 H548 0.930 . S
C558 C556 1.419 . S
C558 C559 1.362 . S
C559 H549 0.930 . S
C559 C552 1.409 . S
C559 C558 1.362 . S
H560 C566 0.930 . S
H561 C569 0.930 . S
H562 C570 0.930 . S
H563 C571 0.930 . S
H564 C574 0.930 . S
H565 C575 0.930 . S
C566 H560 0.930 . S
C566 C567 1.355 . S
C566 C568 1.415 . S
C567 C566 1.355 . S
C567 C569 1.419 . S
C568 C566 1.415 . S
C568 C573 1.425 . S
C568 C575 1.409 . S
C569 H561 0.930 . S
C569 C567 1.419 . S
C569 C570 1.362 . S
C570 H562 0.930 . S
C570 C569 1.362 . S
C570 C573 1.409 . S
C571 H563 0.930 . S
C571 C572 1.355 . S
C571 C573 1.415 . S
C572 C571 1.355 . S
C572 C574 1.419 . S
C573 C568 1.425 . S
C573 C570 1.409 . S
C573 C571 1.415 . S
C574 H564 0.930 . S
C574 C572 1.419 . S
C574 C575 1.362 . S
C575 H565 0.930 . S
C575 C568 1.409 . S
C575 C574 1.362 . S
H576 C582 0.930 . S
H577 C585 0.930 . S
H578 C586 0.930 1_545 S
H579 C587 0.930 . S
H580 C590 0.930 . S
H581 C591 0.930 1_565 S
C582 H576 0.930 . S
C582 C583 1.355 . S
C582 C584 1.415 . S
C583 C582 1.355 . S
C583 C585 1.419 . S
C584 C582 1.415 . S
C584 C589 1.425 1_565 S
C584 C591 1.409 1_565 S
C585 H577 0.930 . S
C585 C583 1.419 . S
C585 C586 1.362 . S
C586 H578 0.930 1_565 S
C586 C585 1.362 . S
C586 C589 1.409 1_565 S
C587 H579 0.930 . S
C587 C588 1.355 . S
C587 C589 1.415 . S
C588 C587 1.355 . S
C588 C590 1.419 . S
C589 C584 1.425 1_545 S
C589 C586 1.409 1_545 S
C589 C587 1.415 . S
C590 H580 0.930 . S
C590 C588 1.419 . S
C590 C591 1.362 . S
C591 H581 0.930 1_545 S
C591 C584 1.409 1_545 S
C591 C590 1.362 . S
H592 C598 0.930 1_545 S
H593 C601 0.930 . S
H594 C602 0.930 . S
H595 C603 0.930 1_565 S
H596 C606 0.930 . S
H597 C607 0.930 . S
C598 H592 0.930 1_565 S
C598 C599 1.355 . S
C598 C600 1.415 1_565 S
C599 C598 1.355 . S
C599 C601 1.419 . S
C600 C598 1.415 1_545 S
C600 C605 1.425 1_645 S
C600 C607 1.409 . S
C601 H593 0.930 . S
C601 C599 1.419 . S
C601 C602 1.362 1_655 S
C602 H594 0.930 . S
C602 C601 1.362 1_455 S
C602 C605 1.409 . S
C603 H595 0.930 1_545 S
C603 C604 1.355 . S
C603 C605 1.415 1_545 S
C604 C603 1.355 . S
C604 C606 1.419 . S
C605 C600 1.425 1_465 S
C605 C602 1.409 . S
C605 C603 1.415 1_565 S
C606 H596 0.930 . S
C606 C604 1.419 . S
C606 C607 1.362 1_455 S
C607 H597 0.930 . S
C607 C600 1.409 . S
C607 C606 1.362 1_655 S
H608 C614 0.930 . S
H609 C617 0.930 . S
H610 C618 0.930 . S
H611 C619 0.930 . S
H612 C622 0.930 . S
H613 C623 0.930 . S
C614 H608 0.930 . S
C614 C615 1.355 . S
C614 C616 1.415 . S
C615 C614 1.355 . S
C615 C617 1.419 1_455 S
C616 C614 1.415 . S
C616 C621 1.425 1_455 S
C616 C623 1.409 . S
C617 H609 0.930 . S
C617 C615 1.419 1_655 S
C617 C618 1.362 . S
C618 H610 0.930 . S
C618 C617 1.362 . S
C618 C621 1.409 . S
C619 H611 0.930 . S
C619 C620 1.355 . S
C619 C621 1.415 . S
C620 C619 1.355 . S
C620 C622 1.419 1_655 S
C621 C616 1.425 1_655 S
C621 C618 1.409 . S
C621 C619 1.415 . S
C622 H612 0.930 . S
C622 C620 1.419 1_455 S
C622 C623 1.362 . S
C623 H613 0.930 . S
C623 C616 1.409 . S
C623 C622 1.362 . S
H624 C630 0.930 . S
H625 C633 0.930 . S
H626 C634 0.930 . S
H627 C635 0.930 . S
H628 C638 0.930 . S
H629 C639 0.930 . S
C630 H624 0.930 . S
C630 C631 1.355 . S
C630 C632 1.415 . S
C631 C630 1.355 . S
C631 C633 1.419 . S
C632 C630 1.415 . S
C632 C637 1.425 . S
C632 C639 1.409 . S
C633 H625 0.930 . S
C633 C631 1.419 . S
C633 C634 1.362 . S
C634 H626 0.930 . S
C634 C633 1.362 . S
C634 C637 1.409 . S
C635 H627 0.930 . S
C635 C636 1.355 . S
C635 C637 1.415 . S
C636 C635 1.355 . S
C636 C638 1.419 . S
C637 C632 1.425 . S
C637 C634 1.409 . S
C637 C635 1.415 . S
C638 H628 0.930 . S
C638 C636 1.419 . S
C638 C639 1.362 . S
C639 H629 0.930 . S
C639 C632 1.409 . S
C639 C638 1.362 . S
H640 C646 0.930 . S
H641 C649 0.930 . S
H642 C650 0.930 . S
H643 C651 0.930 . S
H644 C654 0.930 . S
H645 C655 0.930 1_455 S
C646 H640 0.930 . S
C646 C647 1.355 . S
C646 C648 1.415 . S
C647 C646 1.355 . S
C647 C649 1.419 . S
C648 C646 1.415 . S
C648 C653 1.425 . S
C648 C655 1.409 . S
C649 H641 0.930 . S
C649 C647 1.419 . S
C649 C650 1.362 . S
C650 H642 0.930 . S
C650 C649 1.362 . S
C650 C653 1.409 . S
C651 H643 0.930 . S
C651 C652 1.355 . S
C651 C653 1.415 . S
C652 C651 1.355 . S
C652 C654 1.419 . S
C653 C648 1.425 . S
C653 C650 1.409 . S
C653 C651 1.415 . S
C654 H644 0.930 . S
C654 C652 1.419 . S
C654 C655 1.362 . S
C655 H645 0.930 1_655 S
C655 C648 1.409 . S
C655 C654 1.362 . S
H656 C662 0.930 . S
H657 C665 0.930 . S
H658 C666 0.930 . S
H659 C667 0.930 . S
H660 C670 0.930 . S
H661 C671 0.930 . S
C662 H656 0.930 . S
C662 C663 1.355 . S
C662 C664 1.415 . S
C663 C662 1.355 . S
C663 C665 1.419 . S
C664 C662 1.415 . S
C664 C669 1.425 . S
C664 C671 1.409 . S
C665 H657 0.930 . S
C665 C663 1.419 . S
C665 C666 1.362 . S
C666 H658 0.930 . S
C666 C665 1.362 . S
C666 C669 1.409 . S
C667 H659 0.930 . S
C667 C668 1.355 . S
C667 C669 1.415 . S
C668 C667 1.355 . S
C668 C670 1.419 . S
C669 C664 1.425 . S
C669 C666 1.409 . S
C669 C667 1.415 . S
C670 H660 0.930 . S
C670 C668 1.419 . S
C670 C671 1.362 . S
C671 H661 0.930 . S
C671 C664 1.409 . S
C671 C670 1.362 . S
H672 C678 0.930 . S
H673 C681 0.930 . S
H674 C682 0.930 . S
H675 C683 0.930 . S
H676 C686 0.930 . S
H677 C687 0.930 . S
C678 H672 0.930 . S
C678 C679 1.355 . S
C678 C680 1.415 . S
C679 C678 1.355 . S
C679 C681 1.419 . S
C680 C678 1.415 . S
C680 C685 1.425 . S
C680 C687 1.409 . S
C681 H673 0.930 . S
C681 C679 1.419 . S
C681 C682 1.362 . S
C682 H674 0.930 . S
C682 C681 1.362 . S
C682 C685 1.409 . S
C683 H675 0.930 . S
C683 C684 1.355 . S
C683 C685 1.415 . S
C684 C683 1.355 . S
C684 C686 1.419 . S
C685 C680 1.425 . S
C685 C682 1.409 . S
C685 C683 1.415 . S
C686 H676 0.930 . S
C686 C684 1.419 . S
C686 C687 1.362 . S
C687 H677 0.930 . S
C687 C680 1.409 . S
C687 C686 1.362 . S
H688 C694 0.930 . S
H689 C697 0.930 . S
H690 C698 0.930 . S
H691 C699 0.930 . S
H692 C702 0.930 . S
H693 C703 0.930 . S
C694 H688 0.930 . S
C694 C695 1.355 . S
C694 C696 1.415 . S
C695 C694 1.355 . S
C695 C697 1.419 . S
C696 C694 1.415 . S
C696 C701 1.425 . S
C696 C703 1.409 . S
C697 H689 0.930 . S
C697 C695 1.419 . S
C697 C698 1.362 . S
C698 H690 0.930 . S
C698 C697 1.362 . S
C698 C701 1.409 . S
C699 H691 0.930 . S
C699 C700 1.355 . S
C699 C701 1.415 . S
C700 C699 1.355 . S
C700 C702 1.419 . S
C701 C696 1.425 . S
C701 C698 1.409 . S
C701 C699 1.415 . S
C702 H692 0.930 . S
C702 C700 1.419 . S
C702 C703 1.362 . S
C703 H693 0.930 . S
C703 C696 1.409 . S
C703 C702 1.362 . S
H704 C710 0.930 . S
H705 C713 0.930 . S
H706 C714 0.930 . S
H707 C715 0.930 . S
H708 C718 0.930 . S
H709 C719 0.930 . S
C710 H704 0.930 . S
C710 C711 1.355 . S
C710 C712 1.415 . S
C711 C710 1.355 . S
C711 C713 1.419 . S
C712 C710 1.415 . S
C712 C717 1.425 . S
C712 C719 1.409 . S
C713 H705 0.930 . S
C713 C711 1.419 . S
C713 C714 1.362 . S
C714 H706 0.930 . S
C714 C713 1.362 . S
C714 C717 1.409 . S
C715 H707 0.930 . S
C715 C716 1.355 . S
C715 C717 1.415 . S
C716 C715 1.355 . S
C716 C718 1.419 . S
C717 C712 1.425 . S
C717 C714 1.409 . S
C717 C715 1.415 . S
C718 H708 0.930 . S
C718 C716 1.419 . S
C718 C719 1.362 . S
C719 H709 0.930 . S
C719 C712 1.409 . S
C719 C718 1.362 . S
H720 C726 0.930 . S
H721 C729 0.930 1_545 S
H722 C730 0.930 1_545 S
H723 C731 0.930 . S
H724 C734 0.930 . S
H725 C735 0.930 . S
C726 H720 0.930 . S
C726 C727 1.355 . S
C726 C728 1.415 . S
C727 C726 1.355 . S
C727 C729 1.419 . S
C728 C726 1.415 . S
C728 C733 1.425 . S
C728 C735 1.409 . S
C729 H721 0.930 1_565 S
C729 C727 1.419 . S
C729 C730 1.362 . S
C730 H722 0.930 1_565 S
C730 C729 1.362 . S
C730 C733 1.409 . S
C731 H723 0.930 . S
C731 C732 1.355 . S
C731 C733 1.415 . S
C732 C731 1.355 . S
C732 C734 1.419 . S
C733 C728 1.425 . S
C733 C730 1.409 . S
C733 C731 1.415 . S
C734 H724 0.930 . S
C734 C732 1.419 . S
C734 C735 1.362 . S
C735 H725 0.930 . S
C735 C728 1.409 . S
C735 C734 1.362 . S
H736 C742 0.930 . S
H737 C745 0.930 . S
H738 C746 0.930 . S
H739 C747 0.930 . S
H740 C750 0.930 1_655 S
H741 C751 0.930 1_655 S
C742 H736 0.930 . S
C742 C743 1.355 . S
C742 C744 1.415 . S
C743 C742 1.355 . S
C743 C745 1.419 . S
C744 C742 1.415 . S
C744 C749 1.425 . S
C744 C751 1.409 . S
C745 H737 0.930 . S
C745 C743 1.419 . S
C745 C746 1.362 . S
C746 H738 0.930 . S
C746 C745 1.362 . S
C746 C749 1.409 . S
C747 H739 0.930 . S
C747 C748 1.355 . S
C747 C749 1.415 . S
C748 C747 1.355 . S
C748 C750 1.419 . S
C749 C744 1.425 . S
C749 C746 1.409 . S
C749 C747 1.415 . S
C750 H740 0.930 1_455 S
C750 C748 1.419 . S
C750 C751 1.362 . S
C751 H741 0.930 1_455 S
C751 C744 1.409 . S
C751 C750 1.362 . S
H752 C758 0.930 . S
H753 C761 0.930 . S
H754 C762 0.930 . S
H755 C763 0.930 . S
H756 C766 0.930 . S
H757 C767 0.930 . S
C758 H752 0.930 . S
C758 C759 1.355 . S
C758 C760 1.415 . S
C759 C758 1.355 . S
C759 C761 1.419 . S
C760 C758 1.415 . S
C760 C765 1.425 . S
C760 C767 1.409 . S
C761 H753 0.930 . S
C761 C759 1.419 . S
C761 C762 1.362 . S
C762 H754 0.930 . S
C762 C761 1.362 . S
C762 C765 1.409 . S
C763 H755 0.930 . S
C763 C764 1.355 . S
C763 C765 1.415 . S
C764 C763 1.355 . S
C764 C766 1.419 . S
C765 C760 1.425 . S
C765 C762 1.409 . S
C765 C763 1.415 . S
C766 H756 0.930 . S
C766 C764 1.419 . S
C766 C767 1.362 . S
C767 H757 0.930 . S
C767 C760 1.409 . S
C767 C766 1.362 . S
H768 C774 0.930 . S
H769 C777 0.930 . S
H770 C778 0.930 . S
H771 C779 0.930 . S
H772 C782 0.930 . S
H773 C783 0.930 . S
C774 H768 0.930 . S
C774 C775 1.355 . S
C774 C776 1.415 . S
C775 C774 1.355 . S
C775 C777 1.419 . S
C776 C774 1.415 . S
C776 C781 1.425 . S
C776 C783 1.409 . S
C777 H769 0.930 . S
C777 C775 1.419 . S
C777 C778 1.362 . S
C778 H770 0.930 . S
C778 C777 1.362 . S
C778 C781 1.409 . S
C779 H771 0.930 . S
C779 C780 1.355 . S
C779 C781 1.415 . S
C780 C779 1.355 . S
C780 C782 1.419 . S
C781 C776 1.425 . S
C781 C778 1.409 . S
C781 C779 1.415 . S
C782 H772 0.930 . S
C782 C780 1.419 . S
C782 C783 1.362 . S
C783 H773 0.930 . S
C783 C776 1.409 . S
C783 C782 1.362 . S
H784 C790 0.930 . S
H785 C793 0.930 . S
H786 C794 0.930 . S
H787 C795 0.930 . S
H788 C798 0.930 . S
H789 C799 0.930 . S
C790 H784 0.930 . S
C790 C791 1.355 . S
C790 C792 1.415 . S
C791 C790 1.355 . S
C791 C793 1.419 . S
C792 C790 1.415 . S
C792 C797 1.425 . S
C792 C799 1.409 . S
C793 H785 0.930 . S
C793 C791 1.419 . S
C793 C794 1.362 . S
C794 H786 0.930 . S
C794 C793 1.362 . S
C794 C797 1.409 . S
C795 H787 0.930 . S
C795 C796 1.355 . S
C795 C797 1.415 . S
C796 C795 1.355 . S
C796 C798 1.419 . S
C797 C792 1.425 . S
C797 C794 1.409 . S
C797 C795 1.415 . S
C798 H788 0.930 . S
C798 C796 1.419 . S
C798 C799 1.362 . S
C799 H789 0.930 . S
C799 C792 1.409 . S
C799 C798 1.362 . S
H800 C806 0.930 . S
H801 C809 0.930 . S
H802 C810 0.930 . S
H803 C811 0.930 . S
H804 C814 0.930 . S
H805 C815 0.930 . S
C806 H800 0.930 . S
C806 C807 1.355 . S
C806 C808 1.355 1_556 S
C807 C806 1.355 . S
C807 C809 1.419 . S
C808 C806 1.355 1_554 S
C808 C813 1.401 1_554 S
C808 C815 1.496 . S
C809 H801 0.930 . S
C809 C807 1.419 . S
C809 C810 1.362 . S
C810 H802 0.930 . S
C810 C809 1.362 . S
C810 C813 1.409 . S
C811 H803 0.930 . S
C811 C812 1.355 . S
C811 C813 1.415 1_554 S
C812 C811 1.355 . S
C812 C814 1.419 . S
C813 C808 1.401 1_556 S
C813 C810 1.409 . S
C813 C811 1.415 1_556 S
C814 H804 0.930 . S
C814 C812 1.419 . S
C814 C815 1.362 . S
C815 H805 0.930 . S
C815 C808 1.496 . S
C815 C814 1.362 . S
H816 C822 0.930 . S
H817 C825 0.930 . S
H818 C826 0.930 . S
H819 C827 0.930 . S
H820 C830 0.930 . S
H821 C831 0.930 . S
C822 H816 0.930 . S
C822 C823 1.355 . S
C822 C824 1.415 . S
C823 C822 1.355 . S
C823 C825 1.419 . S
C824 C822 1.415 . S
C824 C829 1.425 1_554 S
C824 C831 1.409 . S
C825 H817 0.930 . S
C825 C823 1.419 . S
C825 C826 1.362 1_554 S
C826 H818 0.930 . S
C826 C825 1.362 1_556 S
C826 C829 1.409 . S
C827 H819 0.930 . S
C827 C828 1.355 . S
C827 C829 1.415 . S
C828 C827 1.355 . S
C828 C830 1.419 . S
C829 C824 1.425 1_556 S
C829 C826 1.409 . S
C829 C827 1.415 . S
C830 H820 0.930 . S
C830 C828 1.419 . S
C830 C831 1.362 1_556 S
C831 H821 0.930 . S
C831 C824 1.409 . S
C831 C830 1.362 1_554 S
H832 C838 0.930 . S
H833 C841 0.930 . S
H834 C842 0.930 . S
H835 C843 0.930 . S
H836 C846 0.930 . S
H837 C847 0.930 . S
C838 H832 0.930 . S
C838 C839 1.355 . S
C838 C840 1.415 . S
C839 C838 1.355 . S
C839 C841 1.419 . S
C840 C838 1.415 . S
C840 C845 1.425 . S
C840 C847 1.409 . S
C841 H833 0.930 . S
C841 C839 1.419 . S
C841 C842 1.362 . S
C842 H834 0.930 . S
C842 C841 1.362 . S
C842 C845 1.409 . S
C843 H835 0.930 . S
C843 C844 1.355 . S
C843 C845 1.415 . S
C844 C843 1.355 . S
C844 C846 1.419 . S
C845 C840 1.425 . S
C845 C842 1.409 . S
C845 C843 1.415 . S
C846 H836 0.930 . S
C846 C844 1.419 . S
C846 C847 1.362 . S
C847 H837 0.930 . S
C847 C840 1.409 . S
C847 C846 1.362 . S
H848 C854 0.930 . S
H849 C857 0.930 . S
H850 C858 0.930 . S
H851 C859 0.930 . S
H852 C862 0.930 . S
H853 C863 0.930 . S
C854 H848 0.930 . S
C854 C855 1.355 . S
C854 C856 1.415 . S
C855 C854 1.355 . S
C855 C857 1.419 . S
C856 C854 1.415 . S
C856 C861 1.425 . S
C856 C863 1.409 . S
C857 H849 0.930 . S
C857 C855 1.419 . S
C857 C858 1.362 . S
C858 H850 0.930 . S
C858 C857 1.362 . S
C858 C861 1.409 . S
C859 H851 0.930 . S
C859 C860 1.355 . S
C859 C861 1.415 . S
C860 C859 1.355 . S
C860 C862 1.419 . S
C861 C856 1.425 . S
C861 C858 1.409 . S
C861 C859 1.415 . S
C862 H852 0.930 . S
C862 C860 1.419 . S
C862 C863 1.362 . S
C863 H853 0.930 . S
C863 C856 1.409 . S
C863 C862 1.362 . S
H864 C870 0.930 . S
H865 C873 0.930 . S
H866 C874 0.930 . S
H867 C875 0.930 . S
H868 C878 0.930 . S
H869 C879 0.930 . S
C870 H864 0.930 . S
C870 C871 1.355 . S
C870 C872 1.415 . S
C871 C870 1.355 . S
C871 C873 1.419 . S
C872 C870 1.415 . S
C872 C877 1.425 . S
C872 C879 1.409 . S
C873 H865 0.930 . S
C873 C871 1.419 . S
C873 C874 1.362 . S
C874 H866 0.930 . S
C874 C873 1.362 . S
C874 C877 1.409 . S
C875 H867 0.930 . S
C875 C876 1.355 . S
C875 C877 1.415 . S
C876 C875 1.355 . S
C876 C878 1.419 . S
C877 C872 1.425 . S
C877 C874 1.409 . S
C877 C875 1.415 . S
C878 H868 0.930 . S
C878 C876 1.419 . S
C878 C879 1.362 . S
C879 H869 0.930 . S
C879 C872 1.409 . S
C879 C878 1.362 . S
C375 C246 2.005 . S
C380 C16 1.986 . S
C391 N35 1.883 . S
C396 N265 1.854 . S
C407 C200 1.965 . S
C412 C62 1.975 . S
C423 N219 1.870 . S
C428 N81 1.863 . S
C439 C108 1.976 . S
C444 C338 1.994 . S
C455 N357 1.868 . S
C460 N127 1.865 . S
C471 C154 1.973 . S
C476 C292 1.965 . S
C487 N311 1.896 . S
C492 N173 1.855 . S
C503 C237 1.282 . S
C508 C7 1.292 . S
C519 N25 0.996 . S
C524 N255 0.970 . S
C535 C53 1.356 . S
C540 C191 1.357 . S
C551 N71 1.032 . S
C556 N209 0.986 . S
C567 C99 1.335 . S
C572 C329 1.349 . S
C583 N117 1.040 . S
C588 N347 1.086 . S
C599 C283 1.349 . S
C604 C145 1.357 . S
C615 N301 1.025 . S
C620 N163 0.981 . S
C631 N2 1.637 . S
C636 N140 1.598 . S
C647 C30 1.649 . S
C652 C168 1.653 . S
C663 N48 1.597 . S
C668 N94 1.637 . S
C679 C76 1.641 . S
C684 C122 1.623 . S
C695 N186 1.546 . S
C700 N324 1.560 . S
C711 C352 1.627 . S
C716 C214 1.610 . S
C727 N232 1.573 . S
C732 N278 1.542 . S
C743 C306 1.646 . S
C748 C260 1.653 . S
C759 N12 1.683 . S
C764 C361 1.624 . S
C775 N288 1.662 . S
C780 C39 1.639 . S
C791 C315 1.678 . S
C796 N58 1.663 . S
C807 N334 1.680 . S
C812 C85 1.624 . S
C823 C223 1.665 . S
C828 N104 1.682 . S
C839 N242 1.653 . S
C844 C131 1.664 . S
C855 N150 1.654 . S
C860 C269 1.656 . S
C871 C177 1.630 . S
C876 N196 1.669 . S
