# Generated by pormake.
# Topology wnm, (7)-cn, num edge types: 1
# Building blocks:
#     Node 0, Type 0, BuildingBlock: HICVOG_clean_sbu_0, # of connection points: 7
#     Node 1, Type 0, BuildingBlock: HICVOG_clean_sbu_0, # of connection points: 7
#     Node 2, Type 0, BuildingBlock: HICVOG_clean_sbu_0, # of connection points: 7
#     Node 3, Type 0, BuildingBlock: HICVOG_clean_sbu_0, # of connection points: 7
#     Node 4, Type 0, BuildingBlock: HICVOG_clean_sbu_0, # of connection points: 7
#     Node 5, Type 0, BuildingBlock: HICVOG_clean_sbu_0, # of connection points: 7
#     Node 6, Type 0, BuildingBlock: HICVOG_clean_sbu_0, # of connection points: 7
#     Node 7, Type 0, BuildingBlock: HICVOG_clean_sbu_0, # of connection points: 7
#     Node 8, Type 0, BuildingBlock: HICVOG_clean_sbu_0, # of connection points: 7
#     Node 9, Type 0, BuildingBlock: HICVOG_clean_sbu_0, # of connection points: 7
#     Node 10, Type 0, BuildingBlock: HICVOG_clean_sbu_0, # of connection points: 7
#     Node 11, Type 0, BuildingBlock: HICVOG_clean_sbu_0, # of connection points: 7
#     Node 12, Type 0, BuildingBlock: HICVOG_clean_sbu_0, # of connection points: 7
#     Node 13, Type 0, BuildingBlock: HICVOG_clean_sbu_0, # of connection points: 7
#     Node 14, Type 0, BuildingBlock: HICVOG_clean_sbu_0, # of connection points: 7
#     Node 15, Type 0, BuildingBlock: HICVOG_clean_sbu_0, # of connection points: 7
#     Node 16, Type 0, BuildingBlock: HICVOG_clean_sbu_0, # of connection points: 7
#     Node 17, Type 0, BuildingBlock: HICVOG_clean_sbu_0, # of connection points: 7
#     Edge 18, Type (0, 0), BuildingBlock: UVAHIK_clean_linker_0, # of connection points: 2
#     Edge 19, Type (0, 0), BuildingBlock: UVAHIK_clean_linker_0, # of connection points: 2
#     Edge 20, Type (0, 0), BuildingBlock: UVAHIK_clean_linker_0, # of connection points: 2
#     Edge 21, Type (0, 0), BuildingBlock: UVAHIK_clean_linker_0, # of connection points: 2
#     Edge 22, Type (0, 0), BuildingBlock: UVAHIK_clean_linker_0, # of connection points: 2
#     Edge 23, Type (0, 0), BuildingBlock: UVAHIK_clean_linker_0, # of connection points: 2
#     Edge 24, Type (0, 0), BuildingBlock: UVAHIK_clean_linker_0, # of connection points: 2
#     Edge 25, Type (0, 0), BuildingBlock: UVAHIK_clean_linker_0, # of connection points: 2
#     Edge 26, Type (0, 0), BuildingBlock: UVAHIK_clean_linker_0, # of connection points: 2
#     Edge 27, Type (0, 0), BuildingBlock: UVAHIK_clean_linker_0, # of connection points: 2
#     Edge 28, Type (0, 0), BuildingBlock: UVAHIK_clean_linker_0, # of connection points: 2
#     Edge 29, Type (0, 0), BuildingBlock: UVAHIK_clean_linker_0, # of connection points: 2
#     Edge 30, Type (0, 0), BuildingBlock: UVAHIK_clean_linker_0, # of connection points: 2
#     Edge 31, Type (0, 0), BuildingBlock: UVAHIK_clean_linker_0, # of connection points: 2
#     Edge 32, Type (0, 0), BuildingBlock: UVAHIK_clean_linker_0, # of connection points: 2
#     Edge 33, Type (0, 0), BuildingBlock: UVAHIK_clean_linker_0, # of connection points: 2
#     Edge 34, Type (0, 0), BuildingBlock: UVAHIK_clean_linker_0, # of connection points: 2
#     Edge 35, Type (0, 0), BuildingBlock: UVAHIK_clean_linker_0, # of connection points: 2
#     Edge 36, Type (0, 0), BuildingBlock: UVAHIK_clean_linker_0, # of connection points: 2
#     Edge 37, Type (0, 0), BuildingBlock: UVAHIK_clean_linker_0, # of connection points: 2
#     Edge 38, Type (0, 0), BuildingBlock: UVAHIK_clean_linker_0, # of connection points: 2
#     Edge 39, Type (0, 0), BuildingBlock: UVAHIK_clean_linker_0, # of connection points: 2
#     Edge 40, Type (0, 0), BuildingBlock: UVAHIK_clean_linker_0, # of connection points: 2
#     Edge 41, Type (0, 0), BuildingBlock: UVAHIK_clean_linker_0, # of connection points: 2
#     Edge 42, Type (0, 0), BuildingBlock: UVAHIK_clean_linker_0, # of connection points: 2
#     Edge 43, Type (0, 0), BuildingBlock: UVAHIK_clean_linker_0, # of connection points: 2
#     Edge 44, Type (0, 0), BuildingBlock: UVAHIK_clean_linker_0, # of connection points: 2
#     Edge 45, Type (0, 0), BuildingBlock: UVAHIK_clean_linker_0, # of connection points: 2
#     Edge 46, Type (0, 0), BuildingBlock: UVAHIK_clean_linker_0, # of connection points: 2
#     Edge 47, Type (0, 0), BuildingBlock: UVAHIK_clean_linker_0, # of connection points: 2
#     Edge 48, Type (0, 0), BuildingBlock: UVAHIK_clean_linker_0, # of connection points: 2
#     Edge 49, Type (0, 0), BuildingBlock: UVAHIK_clean_linker_0, # of connection points: 2
#     Edge 50, Type (0, 0), BuildingBlock: UVAHIK_clean_linker_0, # of connection points: 2
#     Edge 51, Type (0, 0), BuildingBlock: UVAHIK_clean_linker_0, # of connection points: 2
#     Edge 52, Type (0, 0), BuildingBlock: UVAHIK_clean_linker_0, # of connection points: 2
#     Edge 53, Type (0, 0), BuildingBlock: UVAHIK_clean_linker_0, # of connection points: 2
#     Edge 54, Type (0, 0), BuildingBlock: UVAHIK_clean_linker_0, # of connection points: 2
#     Edge 55, Type (0, 0), BuildingBlock: UVAHIK_clean_linker_0, # of connection points: 2
#     Edge 56, Type (0, 0), BuildingBlock: UVAHIK_clean_linker_0, # of connection points: 2
#     Edge 57, Type (0, 0), BuildingBlock: UVAHIK_clean_linker_0, # of connection points: 2
#     Edge 58, Type (0, 0), BuildingBlock: UVAHIK_clean_linker_0, # of connection points: 2
#     Edge 59, Type (0, 0), BuildingBlock: UVAHIK_clean_linker_0, # of connection points: 2
#     Edge 60, Type (0, 0), BuildingBlock: UVAHIK_clean_linker_0, # of connection points: 2
#     Edge 61, Type (0, 0), BuildingBlock: UVAHIK_clean_linker_0, # of connection points: 2
#     Edge 62, Type (0, 0), BuildingBlock: UVAHIK_clean_linker_0, # of connection points: 2
#     Edge 63, Type (0, 0), BuildingBlock: UVAHIK_clean_linker_0, # of connection points: 2
#     Edge 64, Type (0, 0), BuildingBlock: UVAHIK_clean_linker_0, # of connection points: 2
#     Edge 65, Type (0, 0), BuildingBlock: UVAHIK_clean_linker_0, # of connection points: 2
#     Edge 66, Type (0, 0), BuildingBlock: UVAHIK_clean_linker_0, # of connection points: 2
#     Edge 67, Type (0, 0), BuildingBlock: UVAHIK_clean_linker_0, # of connection points: 2
#     Edge 68, Type (0, 0), BuildingBlock: UVAHIK_clean_linker_0, # of connection points: 2
#     Edge 69, Type (0, 0), BuildingBlock: UVAHIK_clean_linker_0, # of connection points: 2
#     Edge 70, Type (0, 0), BuildingBlock: UVAHIK_clean_linker_0, # of connection points: 2
#     Edge 71, Type (0, 0), BuildingBlock: UVAHIK_clean_linker_0, # of connection points: 2
#     Edge 72, Type (0, 0), BuildingBlock: UVAHIK_clean_linker_0, # of connection points: 2
#     Edge 73, Type (0, 0), BuildingBlock: UVAHIK_clean_linker_0, # of connection points: 2
#     Edge 74, Type (0, 0), BuildingBlock: UVAHIK_clean_linker_0, # of connection points: 2
#     Edge 75, Type (0, 0), BuildingBlock: UVAHIK_clean_linker_0, # of connection points: 2
#     Edge 76, Type (0, 0), BuildingBlock: UVAHIK_clean_linker_0, # of connection points: 2
#     Edge 77, Type (0, 0), BuildingBlock: UVAHIK_clean_linker_0, # of connection points: 2
#     Edge 78, Type (0, 0), BuildingBlock: UVAHIK_clean_linker_0, # of connection points: 2
#     Edge 79, Type (0, 0), BuildingBlock: UVAHIK_clean_linker_0, # of connection points: 2
#     Edge 80, Type (0, 0), BuildingBlock: UVAHIK_clean_linker_0, # of connection points: 2
# Relax obj value: 0.132
# Max RMSD: 0.193
# Mean RMSD: 0.193
data_MOF--net-wnm--node1-HICVOG_clean_sbu_0--edge1-UVAHIK_clean_linker_0
_symmetry_space_group_name_H-M    P1
_symmetry_Int_Tables_number       1
_symmetry_cell_setting            triclinic
loop_
_symmetry_equiv_pos_as_xyz
'x, y, z'
_cell_length_a     88.922782
_cell_length_b     88.894814
_cell_length_c     25.136196
_cell_angle_alpha  90.008673
_cell_angle_beta   89.996028
_cell_angle_gamma 119.97848
loop_
_atom_site_label
_atom_site_type_symbol
_atom_site_fract_x
_atom_site_fract_y
_atom_site_fract_z
_atom_type_partial_charge
Zn0 Zn 0.12642 0.437 0.16731 0.0
C1 C 0.0933 0.39929 0.26622 0.0
N2 N 0.08158 0.4001 0.23449 0.0
C3 C 0.09137 0.4144 0.2055 0.0
N4 N 0.1084 0.42179 0.21733 0.0
N5 N 0.10953 0.41249 0.25675 0.0
C6 C 0.13092 0.38815 0.29028 0.0
O7 O 0.12858 0.39128 0.24082 0.0
O8 O 0.12427 0.45833 0.15244 0.0
Zn9 Zn 0.12963 0.41873 0.29991 0.0
N10 N 0.12173 0.4227 0.10479 0.0
C11 C 0.11534 0.39467 0.07579 0.0
C12 C 0.11913 0.40664 0.11631 0.0
C13 C 0.12105 0.4275 0.05378 0.0
N14 N 0.1146 0.39933 0.02502 0.0
C15 C 0.11743 0.41544 0.01232 0.0
O16 O 0.15185 0.43193 0.2611 0.0
C17 C 0.15971 0.44117 0.221 0.0
O18 O 0.15162 0.44438 0.18503 0.0
H19 H 0.11984 0.40315 0.15699 0.0
H20 H 0.1231 0.44036 0.04602 0.0
C21 C 0.12955 0.43027 0.40867 0.0
C22 C 0.1299 0.44231 0.44586 0.0
C23 C 0.13084 0.46035 0.37471 0.0
C24 C 0.13032 0.44834 0.33823 0.0
N25 N 0.12981 0.43365 0.35578 0.0
N26 N 0.13063 0.45708 0.42746 0.0
H27 H 0.12932 0.41852 0.42128 0.0
C28 C 0.13321 0.47194 0.18019 0.0
O29 O 0.14384 0.47186 0.21629 0.0
O30 O 0.13082 0.39801 0.32672 0.0
H31 H 0.13036 0.45064 0.29604 0.0
H32 H 0.11307 0.38178 0.08449 0.0
H33 H 0.13135 0.47216 0.36128 0.0
Zn34 Zn 0.56903 0.68871 0.17476 0.0
C35 C 0.60148 0.69105 0.29144 0.0
N36 N 0.59884 0.676 0.27116 0.0
C37 C 0.58646 0.67224 0.23429 0.0
N38 N 0.58193 0.68472 0.23142 0.0
N39 N 0.59121 0.69626 0.26854 0.0
C40 C 0.6133 0.74406 0.29204 0.0
O41 O 0.60775 0.73893 0.24331 0.0
O42 O 0.54784 0.66567 0.15508 0.0
Zn43 Zn 0.58522 0.71104 0.30738 0.0
N44 N 0.58525 0.69921 0.11629 0.0
C45 C 0.6146 0.71841 0.09186 0.0
C46 C 0.60202 0.71 0.13074 0.0
C47 C 0.58044 0.69662 0.06415 0.0
N48 N 0.60987 0.71587 0.03995 0.0
C49 C 0.59312 0.70526 0.02441 0.0
O50 O 0.57126 0.71874 0.26684 0.0
C51 C 0.56256 0.71702 0.22515 0.0
O52 O 0.56069 0.70612 0.18918 0.0
H53 H 0.6056 0.7121 0.17227 0.0
H54 H 0.56699 0.68781 0.05434 0.0
C55 C 0.57515 0.70233 0.41882 0.0
C56 C 0.56359 0.69164 0.45868 0.0
C57 C 0.54503 0.6724 0.39195 0.0
C58 C 0.55651 0.68295 0.35285 0.0
N59 N 0.57121 0.69773 0.36686 0.0
N60 N 0.5488 0.677 0.44374 0.0
H61 H 0.58693 0.71424 0.42865 0.0
C62 C 0.53491 0.66052 0.18629 0.0
O63 O 0.53607 0.67047 0.22648 0.0
O64 O 0.60611 0.7334 0.3301 0.0
H65 H 0.5538 0.67948 0.31143 0.0
H66 H 0.62801 0.72699 0.10277 0.0
H67 H 0.53321 0.66064 0.38132 0.0
Zn68 Zn 0.31684 0.88252 0.17246 0.0
C69 C 0.31197 0.91436 0.27595 0.0
N70 N 0.32592 0.92692 0.25108 0.0
C71 C 0.3311 0.91793 0.22035 0.0
N72 N 0.32031 0.90051 0.22457 0.0
N73 N 0.30871 0.89849 0.26114 0.0
C74 C 0.26389 0.87783 0.29336 0.0
O75 O 0.26919 0.87888 0.24398 0.0
O76 O 0.33995 0.88402 0.15595 0.0
Zn77 Zn 0.29511 0.87851 0.30429 0.0
N78 N 0.30659 0.88703 0.11064 0.0
C79 C 0.2866 0.89569 0.08138 0.0
C80 C 0.29562 0.89308 0.12209 0.0
C81 C 0.30892 0.88343 0.0596 0.0
N82 N 0.28878 0.892 0.03066 0.0
C83 C 0.2997 0.88594 0.01823 0.0
O84 O 0.28595 0.85611 0.26645 0.0
C85 C 0.28756 0.84862 0.22576 0.0
O86 O 0.29888 0.85711 0.19013 0.0
H87 H 0.29365 0.89562 0.16275 0.0
H88 H 0.31744 0.87826 0.05172 0.0
C89 C 0.30624 0.87839 0.41363 0.0
C90 C 0.31821 0.87888 0.45152 0.0
C91 C 0.33683 0.88055 0.381 0.0
C92 C 0.32499 0.88007 0.34402 0.0
N93 N 0.30995 0.87891 0.36089 0.0
N94 N 0.33318 0.87996 0.43356 0.0
H95 H 0.29434 0.87795 0.42535 0.0
C96 C 0.34458 0.87552 0.18598 0.0
O97 O 0.3341 0.86603 0.22434 0.0
O98 O 0.27373 0.87829 0.33075 0.0
H99 H 0.32774 0.88074 0.30201 0.0
H100 H 0.27779 0.90044 0.09001 0.0
H101 H 0.34887 0.88147 0.36812 0.0
Zn102 Zn 0.8791 0.58813 0.69454 0.0
C103 C 0.9177 0.59225 0.78664 0.0
N104 N 0.92741 0.6065 0.75725 0.0
C105 C 0.9155 0.60744 0.72683 0.0
N106 N 0.8993 0.59433 0.73707 0.0
N107 N 0.90058 0.58496 0.77596 0.0
C108 C 0.87531 0.53489 0.81156 0.0
O109 O 0.865 0.53543 0.77516 0.0
O110 O 0.87817 0.60898 0.66824 0.0
Zn111 Zn 0.88251 0.56986 0.82646 0.0
N112 N 0.87862 0.57309 0.63853 0.0
C113 C 0.87821 0.5467 0.61927 0.0
C114 C 0.87891 0.55877 0.65585 0.0
C115 C 0.87795 0.57606 0.58572 0.0
N116 N 0.87749 0.54957 0.5666 0.0
C117 C 0.87746 0.56399 0.54841 0.0
O118 O 0.85725 0.56291 0.81004 0.0
C119 C 0.84914 0.56622 0.77437 0.0
O120 O 0.85694 0.57527 0.73393 0.0
H121 H 0.87967 0.55682 0.69792 0.0
H122 H 0.8776 0.58754 0.57328 0.0
C123 C 0.88725 0.5789 0.94041 0.0
C124 C 0.89112 0.59092 0.98217 0.0
C125 C 0.89551 0.61257 0.91874 0.0
C126 C 0.89147 0.60065 0.87792 0.0
N127 N 0.88761 0.58415 0.88927 0.0
N128 N 0.89522 0.60744 0.9696 0.0
H129 H 0.88418 0.56569 0.94802 0.0
C130 C 0.87836 0.61882 0.70527 0.0
O131 O 0.88095 0.61556 0.75433 0.0
O132 O 0.8842 0.54823 0.84044 0.0
H133 H 0.8915 0.60452 0.83721 0.0
H134 H 0.87831 0.53517 0.63255 0.0
H135 H 0.89875 0.62578 0.91019 0.0
Zn136 Zn 0.421 0.29272 0.69781 0.0
C137 C 0.41455 0.32551 0.7919 0.0
N138 N 0.39989 0.32007 0.76387 0.0
C139 C 0.3999 0.30805 0.73153 0.0
N140 N 0.41391 0.30619 0.73979 0.0
N141 N 0.42295 0.31694 0.77889 0.0
C142 C 0.47335 0.34305 0.81612 0.0
O143 O 0.4736 0.33196 0.78212 0.0
O144 O 0.40049 0.27072 0.67118 0.0
Zn145 Zn 0.43823 0.31484 0.83019 0.0
N146 N 0.43594 0.30752 0.64207 0.0
C147 C 0.46259 0.33325 0.62343 0.0
C148 C 0.45056 0.32172 0.65978 0.0
C149 C 0.43263 0.30441 0.58913 0.0
N150 N 0.4594 0.33018 0.57064 0.0
C151 C 0.44469 0.31613 0.55208 0.0
O152 O 0.44542 0.29671 0.81534 0.0
C153 C 0.44302 0.28551 0.7798 0.0
O154 O 0.43433 0.28392 0.73805 0.0
H155 H 0.45278 0.32398 0.70198 0.0
H156 H 0.42092 0.29288 0.57637 0.0
C157 C 0.42909 0.31156 0.94405 0.0
C158 C 0.41709 0.30369 0.98601 0.0
C159 C 0.3956 0.28557 0.92337 0.0
C160 C 0.40753 0.29313 0.8824 0.0
N161 N 0.42393 0.30606 0.89323 0.0
N162 N 0.40065 0.29098 0.97392 0.0
H163 H 0.44223 0.32189 0.95131 0.0
C164 C 0.39105 0.26085 0.70847 0.0
O165 O 0.39474 0.26647 0.75773 0.0
O166 O 0.45959 0.33856 0.84293 0.0
H167 H 0.40373 0.28878 0.84196 0.0
H168 H 0.47435 0.34456 0.637 0.0
H169 H 0.38246 0.27539 0.9152 0.0
Zn170 Zn 0.71455 0.12703 0.70135 0.0
C171 C 0.6854 0.09 0.80668 0.0
N172 N 0.69145 0.08087 0.78093 0.0
C173 C 0.70233 0.09238 0.74521 0.0
N174 N 0.70295 0.10782 0.74926 0.0
N175 N 0.69255 0.10647 0.78895 0.0
C176 C 0.6659 0.13079 0.8158 0.0
O177 O 0.67666 0.14079 0.77871 0.0
O178 O 0.73631 0.12855 0.67221 0.0
Zn179 Zn 0.69434 0.12498 0.83469 0.0
N180 N 0.6981 0.12469 0.64755 0.0
C181 C 0.67013 0.12097 0.63073 0.0
C182 C 0.68272 0.12226 0.66625 0.0
C183 C 0.70138 0.12558 0.59445 0.0
N184 N 0.67337 0.12196 0.57775 0.0
C185 C 0.68862 0.12412 0.55825 0.0
O186 O 0.71181 0.15 0.81362 0.0
C187 C 0.72242 0.15805 0.77598 0.0
O188 O 0.72355 0.15004 0.73585 0.0
H189 H 0.68032 0.12137 0.70856 0.0
H190 H 0.71383 0.12766 0.58095 0.0
C191 C 0.69802 0.12043 0.94961 0.0
C192 C 0.70683 0.11776 0.99202 0.0
C193 C 0.72715 0.11777 0.93056 0.0
C194 C 0.71857 0.12061 0.88911 0.0
N195 N 0.70415 0.12174 0.89916 0.0
N196 N 0.72111 0.11644 0.98076 0.0
H197 H 0.68642 0.12124 0.95619 0.0
C198 C 0.74681 0.1301 0.70901 0.0
O199 O 0.74179 0.12902 0.7587 0.0
O200 O 0.6706 0.1225 0.8465 0.0
H201 H 0.72325 0.12176 0.84883 0.0
H202 H 0.65787 0.11917 0.64508 0.0
H203 H 0.73855 0.11669 0.92303 0.0
Zn204 Zn 0.79395 0.7705 0.50013 0.0
C205 C 0.76152 0.72927 0.58764 0.0
N206 N 0.75013 0.72843 0.55109 0.0
C207 C 0.75914 0.74372 0.52588 0.0
N208 N 0.77543 0.75331 0.54476 0.0
N209 N 0.77678 0.74432 0.58463 0.0
C210 C 0.79929 0.72336 0.62779 0.0
O211 O 0.79859 0.72733 0.57785 0.0
O212 O 0.79112 0.79161 0.48889 0.0
Zn213 Zn 0.79573 0.7523 0.63378 0.0
N214 N 0.79101 0.75787 0.43483 0.0
C215 C 0.78702 0.73106 0.40166 0.0
C216 C 0.7901 0.74236 0.44373 0.0
C217 C 0.78936 0.76283 0.38488 0.0
N218 N 0.78521 0.73584 0.352 0.0
C219 C 0.78637 0.75144 0.34198 0.0
O220 O 0.81884 0.76643 0.59998 0.0
C221 C 0.82689 0.77555 0.55985 0.0
O222 O 0.81888 0.77804 0.52192 0.0
H223 H 0.79151 0.73871 0.48364 0.0
H224 H 0.79004 0.77521 0.37897 0.0
C225 C 0.79284 0.76379 0.73996 0.0
C226 C 0.79022 0.77462 0.77522 0.0
C227 C 0.78742 0.78967 0.70117 0.0
C228 C 0.79001 0.77895 0.66666 0.0
N229 N 0.7927 0.76629 0.68659 0.0
N230 N 0.78755 0.78724 0.75438 0.0
H231 H 0.7946 0.7533 0.75427 0.0
C232 C 0.7994 0.8049 0.51851 0.0
O233 O 0.80978 0.80468 0.55532 0.0
O234 O 0.79737 0.73223 0.66408 0.0
H235 H 0.78974 0.78054 0.62414 0.0
H236 H 0.78607 0.71859 0.40831 0.0
H237 H 0.78525 0.7998 0.68585 0.0
Zn238 Zn 0.23636 0.022 0.50656 0.0
C239 C 0.26901 0.02575 0.62536 0.0
N240 N 0.26719 0.01103 0.60501 0.0
C241 C 0.25504 0.00692 0.56708 0.0
N242 N 0.2499 0.01896 0.56353 0.0
N243 N 0.2585 0.03046 0.60146 0.0
C244 C 0.28041 0.07786 0.62458 0.0
O245 O 0.2756 0.07253 0.57548 0.0
O246 O 0.21514 0.99843 0.49355 0.0
Zn247 Zn 0.25192 0.04514 0.63797 0.0
N248 N 0.25193 0.03157 0.44581 0.0
C249 C 0.28098 0.05121 0.41916 0.0
C250 C 0.26879 0.04258 0.45894 0.0
C251 C 0.24672 0.02879 0.39397 0.0
N252 N 0.27581 0.04865 0.36764 0.0
C253 C 0.25901 0.03766 0.35356 0.0
O254 O 0.23893 0.05306 0.59403 0.0
C255 C 0.23035 0.05119 0.552 0.0
O256 O 0.2281 0.03973 0.51755 0.0
H257 H 0.2727 0.04489 0.5002 0.0
H258 H 0.23317 0.02025 0.38455 0.0
C259 C 0.24118 0.0345 0.74784 0.0
C260 C 0.22868 0.02452 0.7866 0.0
C261 C 0.20807 0.00982 0.71801 0.0
C262 C 0.22044 0.01974 0.67992 0.0
N263 N 0.23665 0.03194 0.69548 0.0
N264 N 0.21243 0.01249 0.77025 0.0
H265 H 0.25416 0.04442 0.75896 0.0
C266 C 0.20207 0.99569 0.46569 0.0
O267 O 0.20237 0.00867 0.43977 0.0
O268 O 0.27252 0.0674 0.66259 0.0
H269 H 0.21716 0.01788 0.63807 0.0
H270 H 0.29442 0.06006 0.42913 0.0
H271 H 0.19508 1.00013 0.70625 0.0
Zn272 Zn 0.98378 0.21461 0.50606 0.0
C273 C 0.97656 0.24732 0.59813 0.0
N274 N 0.98913 0.25921 0.56687 0.0
C275 C 0.99474 0.24973 0.54092 0.0
N276 N 0.98578 0.23278 0.55424 0.0
N277 N 0.97465 0.23139 0.59153 0.0
C278 C 0.93022 0.21004 0.6282 0.0
O279 O 0.93554 0.21168 0.57866 0.0
O280 O 0.00757 0.21695 0.49749 0.0
Zn281 Zn 0.96184 0.21165 0.6365 0.0
N282 N 0.97465 0.21889 0.44114 0.0
C283 C 0.95269 0.22466 0.41061 0.0
C284 C 0.96156 0.22216 0.45189 0.0
C285 C 0.97916 0.21783 0.38996 0.0
N286 N 0.95695 0.22337 0.35982 0.0
C287 C 0.96987 0.21994 0.34784 0.0
O288 O 0.95247 0.18918 0.5987 0.0
C289 C 0.95405 0.18129 0.55899 0.0
O290 O 0.96566 0.18934 0.52374 0.0
H291 H 0.95786 0.2226 0.49252 0.0
H292 H 0.98933 0.21482 0.38226 0.0
C293 C 0.97539 0.21369 0.74361 0.0
C294 C 0.98774 0.2141 0.77974 0.0
C295 C 1.00355 0.21172 0.70705 0.0
C296 C 0.99126 0.21119 0.67174 0.0
N297 N 0.97748 0.2122 0.69059 0.0
N298 N 1.00151 0.21316 0.75992 0.0
H299 H 0.96442 0.21481 0.7569 0.0
C300 C 0.01059 0.20705 0.46839 0.0
O301 O 0.99791 0.19489 0.44014 0.0
O302 O 0.94033 0.21074 0.6651 0.0
H303 H 0.99267 0.21005 0.6294 0.0
H304 H 0.94229 0.22731 0.41877 0.0
H305 H 0.01463 0.211 0.69263 0.0
Zn306 Zn 0.54292 0.91685 0.03043 0.0
C307 C 0.58241 0.9183 0.10835 0.0
N308 N 0.5916 0.93075 0.0723 0.0
C309 C 0.57938 0.93316 0.0491 0.0
N310 N 0.56355 0.92267 0.0697 0.0
N311 N 0.56535 0.91346 0.10798 0.0
C312 C 0.54128 0.86565 0.15205 0.0
O313 O 0.53171 0.86657 0.11383 0.0
O314 O 0.54194 0.93787 0.00634 0.0
Zn315 Zn 0.5483 0.9003 0.16348 0.0
N316 N 0.54188 0.90229 0.97217 0.0
C317 C 0.53964 0.87531 0.94915 0.0
C318 C 0.54083 0.88715 0.9874 0.0
C319 C 0.54211 0.90633 0.91984 0.0
N320 N 0.53971 0.87919 0.89697 0.0
C321 C 0.541 0.89442 0.88084 0.0
O322 O 0.52273 0.89275 0.14927 0.0
C323 C 0.51397 0.89498 0.11319 0.0
O324 O 0.52117 0.90352 0.0714 0.0
H325 H 0.5409 0.88437 0.02913 0.0
H326 H 0.54286 0.91847 0.90907 0.0
C327 C 0.55337 0.91129 0.27473 0.0
C328 C 0.55776 0.92389 0.31498 0.0
C329 C 0.56429 0.94531 0.24849 0.0
C330 C 0.5597 0.93281 0.20912 0.0
N331 N 0.55449 0.91612 0.22282 0.0
N332 N 0.56319 0.94058 0.30019 0.0
H333 H 0.54926 0.89791 0.28402 0.0
C334 C 0.53883 0.94539 0.04428 0.0
O335 O 0.53857 0.94004 0.09319 0.0
O336 O 0.5499 0.87887 0.18166 0.0
H337 H 0.56032 0.93637 0.16775 0.0
H338 H 0.53869 0.86315 0.96075 0.0
H339 H 0.56858 0.95867 0.23815 0.0
Zn340 Zn 0.10499 0.64904 0.17025 0.0
C341 C 0.06588 0.64327 0.07657 0.0
N342 N 0.06643 0.65532 0.11001 0.0
C343 C 0.0813 0.66041 0.13658 0.0
N344 N 0.08933 0.65165 0.12153 0.0
N345 N 0.07978 0.64109 0.08272 0.0
C346 C 0.05646 0.59571 0.04757 0.0
O347 O 0.06026 0.60087 0.09721 0.0
O348 O 0.12657 0.67252 0.18377 0.0
Zn349 Zn 0.08635 0.62781 0.03803 0.0
N350 N 0.09101 0.63984 0.23364 0.0
C351 C 0.06288 0.61879 0.26367 0.0
C352 C 0.07473 0.62668 0.22272 0.0
C353 C 0.09611 0.64532 0.2845 0.0
N354 N 0.06787 0.62416 0.31428 0.0
C355 C 0.08418 0.63715 0.32643 0.0
O356 O 0.0996 0.61859 0.07582 0.0
C357 C 0.10876 0.6197 0.11588 0.0
O358 O 0.11199 0.63087 0.15234 0.0
H359 H 0.07098 0.62241 0.1822 0.0
H360 H 0.10912 0.65589 0.29178 0.0
C361 C 0.09822 0.63964 0.92979 0.0
C362 C 0.11014 0.65161 0.89294 0.0
C363 C 0.12706 0.66952 0.96452 0.0
C364 C 0.11517 0.65774 0.00066 0.0
N365 N 0.10112 0.64302 0.98274 0.0
N366 N 0.1243 0.66619 0.9117 0.0
H367 H 0.08696 0.62772 0.91688 0.0
C368 C 0.1399 0.67716 0.1547 0.0
O369 O 0.13942 0.66645 0.11785 0.0
O370 O 0.06573 0.60598 0.01077 0.0
H371 H 0.11708 0.66022 0.04287 0.0
H372 H 0.04984 0.6084 0.25545 0.0
H373 H 0.13839 0.68125 0.97826 0.0
Zn374 Zn 0.38009 0.46244 0.02606 0.0
C375 C 0.34279 0.42189 0.10168 0.0
N376 N 0.34709 0.41326 0.06637 0.0
C377 C 0.36162 0.42604 0.04439 0.0
N378 N 0.36591 0.44161 0.06505 0.0
N379 N 0.35439 0.43914 0.10231 0.0
C380 C 0.32999 0.46297 0.14888 0.0
O381 O 0.34077 0.47344 0.11265 0.0
O382 O 0.40227 0.46399 0.00135 0.0
Zn383 Zn 0.3576 0.4558 0.15863 0.0
N384 N 0.3663 0.46328 0.96822 0.0
C385 C 0.34202 0.46639 0.94598 0.0
C386 C 0.35278 0.46525 0.9839 0.0
C387 C 0.36944 0.46213 0.91579 0.0
N388 N 0.34517 0.4654 0.8937 0.0
C389 C 0.35854 0.46323 0.87712 0.0
O390 O 0.3754 0.48157 0.1458 0.0
C391 C 0.38639 0.49071 0.11015 0.0
O392 O 0.38802 0.48389 0.06791 0.0
H393 H 0.3505 0.46598 0.02572 0.0
H394 H 0.38041 0.46069 0.90466 0.0
C395 C 0.36288 0.45034 0.27025 0.0
C396 C 0.37082 0.4458 0.31094 0.0
C397 C 0.3865 0.43998 0.2453 0.0
C398 C 0.37881 0.44468 0.20551 0.0
N399 N 0.36707 0.44961 0.21855 0.0
N400 N 0.38236 0.44067 0.29677 0.0
H401 H 0.35339 0.45422 0.27904 0.0
C402 C 0.4128 0.46689 0.03938 0.0
O403 O 0.40755 0.46671 0.08837 0.0
O404 O 0.33436 0.45371 0.17614 0.0
H405 H 0.38213 0.44436 0.16434 0.0
H406 H 0.33125 0.46805 0.95792 0.0
H407 H 0.39578 0.43592 0.23548 0.0
Zn408 Zn 0.46029 0.10277 0.83151 0.0
C409 C 0.42884 0.06572 0.93477 0.0
N410 N 0.41657 0.06564 0.90352 0.0
C411 C 0.42567 0.07986 0.8734 0.0
N412 N 0.44284 0.08793 0.88385 0.0
N413 N 0.44469 0.07929 0.92387 0.0
C414 C 0.46572 0.05484 0.95581 0.0
O415 O 0.46445 0.05864 0.9061 0.0
O416 O 0.45868 0.12449 0.8176 0.0
Zn417 Zn 0.4652 0.08559 0.96457 0.0
N418 N 0.45444 0.0883 0.76864 0.0
C419 C 0.44666 0.05995 0.73875 0.0
C420 C 0.45135 0.07203 0.77949 0.0
C421 C 0.45345 0.09321 0.71796 0.0
N422 N 0.44558 0.06472 0.68837 0.0
C423 C 0.44893 0.08105 0.67626 0.0
O424 O 0.48679 0.09768 0.92224 0.0
C425 C 0.49414 0.10643 0.88087 0.0
O426 O 0.4857 0.10966 0.84606 0.0
H427 H 0.45234 0.06842 0.81985 0.0
H428 H 0.45599 0.10626 0.71057 0.0
C429 C 0.46393 0.09703 0.07279 0.0
C430 C 0.4664 0.10987 0.11036 0.0
C431 C 0.4752 0.13061 0.04048 0.0
C432 C 0.47289 0.11793 0.00377 0.0
N433 N 0.46724 0.10143 0.02043 0.0
N434 N 0.47197 0.12632 0.09264 0.0
H435 H 0.45992 0.08387 0.08478 0.0
C436 C 0.45592 0.13201 0.85638 0.0
O437 O 0.45357 0.12515 0.90404 0.0
O438 O 0.46537 0.06453 0.99241 0.0
H439 H 0.47576 0.12119 0.96219 0.0
H440 H 0.44397 0.04689 0.74697 0.0
H441 H 0.47967 0.1438 0.02775 0.0
Zn442 Zn 0.90407 0.3578 0.8325 0.0
C443 C 0.93576 0.35991 0.95174 0.0
N444 N 0.93339 0.34498 0.93133 0.0
C445 C 0.92132 0.34129 0.89343 0.0
N446 N 0.91672 0.35374 0.89008 0.0
N447 N 0.92563 0.36513 0.92796 0.0
C448 C 0.94776 0.41312 0.9511 0.0
O449 O 0.94253 0.40806 0.90209 0.0
O450 O 0.88295 0.33476 0.81236 0.0
Zn451 Zn 0.91954 0.38005 0.96558 0.0
N452 N 0.92046 0.36808 0.77434 0.0
C453 C 0.9499 0.38688 0.74996 0.0
C454 C 0.93726 0.37872 0.78884 0.0
C455 C 0.9157 0.3654 0.72216 0.0
N456 N 0.94522 0.38424 0.69801 0.0
C457 C 0.92844 0.37378 0.68244 0.0
O458 O 0.90601 0.38785 0.92344 0.0
C459 C 0.89759 0.3863 0.88125 0.0
O460 O 0.89581 0.3754 0.84539 0.0
H461 H 0.9408 0.38088 0.83041 0.0
H462 H 0.90223 0.35671 0.71231 0.0
C463 C 0.90949 0.37098 0.0768 0.0
C464 C 0.89766 0.36057 0.11656 0.0
C465 C 0.878 0.34275 0.04944 0.0
C466 C 0.88972 0.35304 0.01043 0.0
N467 N 0.90511 0.36696 0.02471 0.0
N468 N 0.8822 0.34677 0.10136 0.0
H469 H 0.92181 0.38225 0.08679 0.0
C470 C 0.86958 0.32976 0.84154 0.0
O471 O 0.87018 0.33987 0.88052 0.0
O472 O 0.94034 0.40239 0.98887 0.0
H473 H 0.88664 0.35006 0.96887 0.0
H474 H 0.96334 0.39534 0.76091 0.0
H475 H 0.86564 0.33166 0.03862 0.0
Zn476 Zn 0.64989 0.55019 0.84081 0.0
C477 C 0.64533 0.5805 0.95166 0.0
N478 N 0.65957 0.59333 0.92884 0.0
C479 C 0.66472 0.5848 0.8959 0.0
N480 N 0.65356 0.56736 0.89672 0.0
N481 N 0.64185 0.56489 0.93348 0.0
C482 C 0.59607 0.54414 0.96017 0.0
O483 O 0.6017 0.54593 0.91094 0.0
O484 O 0.67294 0.55164 0.82315 0.0
Zn485 Zn 0.6271 0.54421 0.97214 0.0
N486 N 0.64038 0.55642 0.78043 0.0
C487 C 0.62228 0.56767 0.75381 0.0
C488 C 0.62991 0.56291 0.79359 0.0
C489 C 0.64338 0.55425 0.72856 0.0
N490 N 0.62526 0.56559 0.70224 0.0
C491 C 0.63556 0.55896 0.68786 0.0
O492 O 0.61809 0.52277 0.92976 0.0
C493 C 0.61975 0.5157 0.88813 0.0
O494 O 0.63145 0.52448 0.85376 0.0
H495 H 0.62747 0.56436 0.83482 0.0
H496 H 0.65191 0.54919 0.71964 0.0
C497 C 0.6368 0.54281 0.08233 0.0
C498 C 0.64733 0.54114 0.12111 0.0
C499 C 0.66451 0.53903 0.0523 0.0
C500 C 0.65412 0.54076 0.01427 0.0
N501 N 0.64046 0.54249 0.02986 0.0
N502 N 0.66087 0.53922 0.10458 0.0
H503 H 0.62571 0.54405 0.09336 0.0
C504 C 0.67768 0.54263 0.85024 0.0
O505 O 0.66726 0.53226 0.88732 0.0
O506 O 0.60566 0.54403 0.99749 0.0
H507 H 0.65682 0.54067 0.97243 0.0
H508 H 0.61397 0.57292 0.76375 0.0
H509 H 0.6754 0.53755 0.04043 0.0
Zn510 Zn 0.2166 0.2354 0.4924 0.0
C511 C 0.24773 0.27199 0.38775 0.0
N512 N 0.26018 0.27093 0.41481 0.0
C513 C 0.25103 0.25688 0.44554 0.0
N514 N 0.23372 0.24987 0.43893 0.0
N515 N 0.23171 0.25911 0.40114 0.0
C516 C 0.20891 0.28238 0.37247 0.0
O517 O 0.21147 0.27915 0.42161 0.0
O518 O 0.21868 0.21401 0.50701 0.0
Zn519 Zn 0.2109 0.25225 0.36049 0.0
N520 N 0.22223 0.2503 0.55402 0.0
C521 C 0.23102 0.27905 0.58234 0.0
C522 C 0.22679 0.26695 0.54193 0.0
C523 C 0.22134 0.24509 0.60546 0.0
N524 N 0.23018 0.27395 0.63351 0.0
C525 C 0.22536 0.25728 0.64681 0.0
O526 O 0.18885 0.23837 0.40048 0.0
C527 C 0.18208 0.22976 0.44255 0.0
O528 O 0.19117 0.22788 0.47822 0.0
H529 H 0.22718 0.27082 0.50101 0.0
H530 H 0.21768 0.23175 0.61358 0.0
C531 C 0.20991 0.24088 0.25072 0.0
C532 C 0.20961 0.22909 0.21267 0.0
C533 C 0.21076 0.21165 0.28236 0.0
C534 C 0.21127 0.22344 0.31967 0.0
N535 N 0.21069 0.2377 0.3033 0.0
N536 N 0.20993 0.21472 0.22993 0.0
H537 H 0.20933 0.25229 0.23898 0.0
C538 C 0.20981 0.20065 0.47816 0.0
O539 O 0.19942 0.20115 0.44196 0.0
O540 O 0.20909 0.27275 0.33539 0.0
H541 H 0.2121 0.22133 0.36158 0.0
H542 H 0.23481 0.29238 0.57324 0.0
H543 H 0.21108 0.20017 0.29489 0.0
Zn544 Zn 0.7707 0.98208 0.489 0.0
C545 C 0.73548 0.97833 0.38009 0.0
N546 N 0.73759 0.99278 0.40354 0.0
C547 C 0.75127 0.99736 0.43586 0.0
N548 N 0.75697 0.98575 0.43396 0.0
N549 N 0.74737 0.97424 0.39705 0.0
C550 C 0.72206 0.92733 0.37412 0.0
O551 O 0.7261 0.93317 0.42307 0.0
O552 O 0.79207 0.00523 0.50763 0.0
Zn553 Zn 0.75273 0.95879 0.35891 0.0
N554 N 0.75515 0.97181 0.54939 0.0
C555 C 0.72615 0.95215 0.57653 0.0
C556 C 0.73816 0.96119 0.53668 0.0
C557 C 0.76063 0.97386 0.6009 0.0
N558 N 0.73159 0.95398 0.62769 0.0
C559 C 0.7485 0.96463 0.64134 0.0
O560 O 0.76567 0.95019 0.40078 0.0
C561 C 0.77505 0.95222 0.44103 0.0
O562 O 0.77849 0.9642 0.47482 0.0
H563 H 0.73401 0.95951 0.49569 0.0
H564 H 0.77427 0.98214 0.60992 0.0
C565 C 0.76371 0.96749 0.24765 0.0
C566 C 0.77604 0.9776 0.20866 0.0
C567 C 0.79537 0.99515 0.27678 0.0
C568 C 0.7831 0.98521 0.31509 0.0
N569 N 0.76762 0.97156 0.29998 0.0
N570 N 0.79158 0.9911 0.22466 0.0
H571 H 0.75136 0.9564 0.23676 0.0
C572 C 0.80562 0.01043 0.47914 0.0
O573 O 0.80538 1.00046 0.4402 0.0
O574 O 0.73143 0.93686 0.3362 0.0
H575 H 0.78587 0.98819 0.35681 0.0
H576 H 0.71262 0.94358 0.56686 0.0
H577 H 0.8078 0.00598 0.28832 0.0
Zn578 Zn 0.04794 0.79952 0.36373 0.0
C579 C 0.01025 0.75729 0.4318 0.0
N580 N 0.01488 0.74962 0.39403 0.0
C581 C 0.02967 0.76287 0.37503 0.0
N582 N 0.03379 0.77788 0.39954 0.0
N583 N 0.02195 0.77446 0.43668 0.0
C584 C 0.99632 0.79521 0.48741 0.0
O585 O 0.00645 0.80485 0.44869 0.0
O586 O 0.07086 0.80232 0.34168 0.0
Zn587 Zn 0.02489 0.78987 0.49667 0.0
N588 N 0.0349 0.80053 0.30382 0.0
C589 C 0.01144 0.80456 0.27805 0.0
C590 C 0.02164 0.80319 0.31746 0.0
C591 C 0.03836 0.79899 0.25194 0.0
N592 N 0.01492 0.80321 0.22634 0.0
C593 C 0.02808 0.80042 0.21172 0.0
O594 O 0.04185 0.81589 0.48656 0.0
C595 C 0.05214 0.82608 0.45116 0.0
O596 O 0.05432 0.82049 0.40717 0.0
H597 H 0.01917 0.80435 0.35882 0.0
H598 H 0.04915 0.79707 0.24241 0.0
C599 C 0.0319 0.7849 0.60657 0.0
C600 C 0.04018 0.78037 0.64619 0.0
C601 C 0.05405 0.773 0.57844 0.0
C602 C 0.04602 0.7777 0.53967 0.0
N603 N 0.03503 0.78342 0.55434 0.0
N604 N 0.05097 0.77446 0.63046 0.0
H605 H 0.02296 0.78937 0.61659 0.0
C606 C 0.08133 0.80564 0.38019 0.0
O607 O 0.0758 0.80529 0.42892 0.0
O608 O 1.00143 0.78692 0.51653 0.0
H609 H 0.04854 0.7768 0.49808 0.0
H610 H 1.00087 0.80674 0.28837 0.0
H611 H 0.06276 0.76834 0.56736 0.0
C612 C 0.964 0.38695 0.96339 0.0
C613 C 0.95104 0.3711 0.98441 0.0
C614 C 0.98048 0.39572 0.9867 0.0
C615 C 0.00909 0.38457 0.05873 0.0
H616 H 0.03958 0.43427 0.07412 0.0
C617 C 0.07866 0.40891 0.11579 0.0
C618 C 0.0837 0.4192 0.16176 0.0
C619 C 0.0648 0.40718 0.08511 0.0
C620 C 0.03121 0.42037 0.06977 0.0
H621 H 0.94482 0.35205 0.04642 0.0
H622 H 0.97356 0.36743 0.08794 0.0
H623 H 0.00929 0.42285 0.04649 0.0
H624 H 0.07928 0.43682 0.20965 0.0
H625 H 0.05488 0.4337 0.15646 0.0
H626 H 0.03061 0.38186 0.08259 0.0
C627 C 0.97102 0.37316 0.05356 0.0
C628 C 0.0139 0.41384 0.05399 0.0
C629 C 0.95454 0.36444 0.03026 0.0
C630 C 0.07585 0.42912 0.17357 0.0
C631 C 0.0618 0.42723 0.14325 0.0
C632 C 0.02629 0.39105 0.07402 0.0
C633 C 0.98436 0.38856 0.03082 0.0
C634 C 1.00262 0.39583 0.04884 0.0
C635 C 0.05542 0.41533 0.10082 0.0
C636 C 0.0376 0.40901 0.07984 0.0
H637 H 0.96185 0.39185 0.92646 0.0
H638 H 0.9905 0.40738 0.96776 0.0
H639 H 1.00086 0.37065 0.05414 0.0
H640 H 0.08415 0.40074 0.10675 0.0
H641 H 0.06043 0.3982 0.05193 0.0
C642 C 0.62391 0.59027 0.94452 0.0
C643 C 0.63232 0.58382 0.97656 0.0
C644 C 0.61305 0.59564 0.96712 0.0
C645 C 0.58907 0.59494 0.08797 0.0
H646 H 0.60218 0.6418 0.04482 0.0
C647 C 0.58066 0.64228 0.22139 0.0
C648 C 0.58076 0.65688 0.19952 0.0
C649 C 0.58102 0.62979 0.18877 0.0
C650 C 0.59789 0.62854 0.05652 0.0
H651 H 0.63566 0.57724 0.05678 0.0
H652 H 0.61653 0.58674 0.09704 0.0
H653 H 0.61452 0.62646 -0.00077 0.0
H654 H 0.57929 0.66866 0.12615 0.0
H655 H 0.57931 0.64659 0.06859 0.0
H656 H 0.57259 0.59712 0.14585 0.0
C657 C 0.61822 0.58747 0.05427 0.0
C658 C 0.60511 0.61976 0.03048 0.0
C659 C 0.6292 0.58212 0.03148 0.0
C660 C 0.57926 0.6577 0.14425 0.0
C661 C 0.57953 0.64509 0.11127 0.0
C662 C 0.58165 0.60366 0.1137 0.0
C663 C 0.61044 0.59476 0.02238 0.0
C664 C 0.60114 0.60305 0.04676 0.0
C665 C 0.5814 0.63149 0.13314 0.0
C666 C 0.58637 0.62081 0.0994 0.0
H667 H 0.62613 0.5916 0.90194 0.0
H668 H 0.60707 0.60096 0.94146 0.0
H669 H 0.58558 0.58196 0.10082 0.0
H670 H 0.5817 0.64122 0.26403 0.0
H671 H 0.58251 0.61964 0.20753 0.0
C672 C 0.34743 0.92431 0.13339 0.0
C673 C 0.34705 0.92724 0.18802 0.0
C674 C 0.36084 0.9368 0.10153 0.0
C675 C 0.40254 0.98005 0.10725 0.0
H676 H 0.38289 0.98969 0.98325 0.0
C677 C 0.42635 0.0487 0.01745 0.0
C678 C 0.42575 0.04977 0.96193 0.0
C679 C 0.42061 0.03252 0.0419 0.0
C680 C 0.38873 0.98709 0.01725 0.0
H681 H 0.36122 0.9445 0.25314 0.0
H682 H 0.38419 0.96615 0.19854 0.0
H683 H 0.36618 0.96235 0.02974 0.0
H684 H 0.41971 0.03534 0.88816 0.0
H685 H 0.40977 0.00724 0.93053 0.0
H686 H 0.42471 0.00547 0.09603 0.0
C687 C 0.37443 0.95436 0.17946 0.0
C688 C 0.37916 0.97128 0.04382 0.0
C689 C 0.36113 0.94194 0.21094 0.0
C690 C 0.42018 0.03474 0.93116 0.0
C691 C 0.41447 0.01868 0.95537 0.0
C692 C 0.41204 0.996 0.08095 0.0
C693 C 0.37404 0.95243 0.12392 0.0
C694 C 0.38571 0.96769 0.09006 0.0
C695 C 0.41407 0.01727 0.01102 0.0
C696 C 0.40506 0.99982 0.0363 0.0
H697 H 0.33683 0.91319 0.11457 0.0
H698 H 0.36031 0.93466 0.059 0.0
H699 H 0.40819 0.97765 0.1421 0.0
H700 H 0.43049 0.06016 0.04179 0.0
H701 H 0.42036 0.03181 0.08493 0.0
C702 C 0.93468 0.57786 0.80408 0.0
C703 C 0.9258 0.58592 0.82464 0.0
C704 C 0.9481 0.57785 0.83306 0.0
C705 C 0.97008 0.58495 0.96069 0.0
H706 H 0.01255 0.61566 0.8848 0.0
C707 C 0.03393 0.626 0.0713 0.0
C708 C 0.04999 0.63181 0.04623 0.0
C709 C 0.01845 0.6162 0.04368 0.0
C710 C 1.00095 0.60668 0.9063 0.0
H711 H 0.92348 0.59971 0.89215 0.0
H712 H 0.94615 0.59869 0.94441 0.0
H713 H 0.9847 0.60424 0.84009 0.0
H714 H 0.06257 0.63219 0.97231 0.0
H715 H 0.03538 0.61412 0.92394 0.0
H716 H 0.98614 0.58711 0.02678 0.0
C717 C 0.94269 0.59233 0.90598 0.0
C718 C 0.98494 0.60021 0.8806 0.0
C719 C 0.92953 0.5927 0.87642 0.0
C720 C 0.05032 0.6275 0.99279 0.0
C721 C 0.03471 0.61735 0.96506 0.0
C722 C 0.98611 0.59105 0.98605 0.0
C723 C 0.95265 0.5857 0.88338 0.0
C724 C 0.96937 0.58975 0.90809 0.0
C725 C 0.01852 0.61175 0.99002 0.0
C726 C 1.00177 0.60261 0.95995 0.0
H727 H 0.93235 0.57302 0.76359 0.0
H728 H 0.95566 0.57275 0.81478 0.0
H729 H 0.95823 0.57681 0.98254 0.0
H730 H 0.03332 0.6293 0.11245 0.0
H731 H 0.00646 0.61271 0.06425 0.0
C732 C 0.40786 0.33441 0.8775 0.0
C733 C 0.41932 0.33832 0.83468 0.0
C734 C 0.40812 0.34772 0.90767 0.0
C735 C 0.41419 0.39 0.88126 0.0
H736 H 0.4033 0.38926 0.03089 0.0
C737 C 0.36942 0.41384 0.96664 0.0
C738 C 0.37387 0.42244 0.01572 0.0
C739 C 0.37968 0.40752 0.94477 0.0
C740 C 0.40659 0.38986 0.98916 0.0
H741 H 0.4407 0.35891 0.79139 0.0
H742 H 0.44103 0.38238 0.84376 0.0
H743 H 0.41436 0.37072 0.99832 0.0
H744 H 0.39213 0.43101 0.08108 0.0
H745 H 0.41019 0.42019 0.04277 0.0
H746 H 0.4055 0.40842 0.8716 0.0
C747 C 0.43202 0.36903 0.8545 0.0
C748 C 0.41286 0.3792 0.97056 0.0
C749 C 0.43198 0.35564 0.82499 0.0
C750 C 0.38883 0.42493 0.04222 0.0
C751 C 0.39901 0.41853 0.02068 0.0
C752 C 0.4077 0.40049 0.89974 0.0
C753 C 0.41954 0.36518 0.8945 0.0
C754 C 0.41633 0.37885 0.91621 0.0
C755 C 0.39431 0.40938 0.97236 0.0
C756 C 0.40344 0.40021 0.95366 0.0
H757 H 0.39774 0.32114 0.88479 0.0
H758 H 0.39826 0.34433 0.93792 0.0
H759 H 0.41653 0.38985 0.83902 0.0
H760 H 0.35769 0.41144 0.94627 0.0
H761 H 0.3756 0.4003 0.90781 0.0
C762 C 0.67759 0.07631 0.89503 0.0
C763 C 0.67277 0.08216 0.84995 0.0
C764 C 0.66507 0.06234 0.92449 0.0
C765 C 0.6178 0.02983 0.93717 0.0
H766 H 0.6356 0.99809 0.95081 0.0
C767 C 0.58134 0.96177 0.03792 0.0
C768 C 0.58403 0.94867 0.0169 0.0
C769 C 0.58966 0.97841 0.01569 0.0
C770 C 0.63033 0.00669 0.94671 0.0
H771 H 0.65115 0.07931 0.80291 0.0
H772 H 0.62918 0.05467 0.85381 0.0
H773 H 0.655 0.02788 0.92464 0.0
H774 H 0.59713 0.94241 0.95588 0.0
H775 H 0.61148 0.97142 0.91603 0.0
H776 H 0.59294 0.00823 0.95846 0.0
C777 C 0.64254 0.06097 0.86721 0.0
C778 C 0.64156 0.02394 0.93276 0.0
C779 C 0.6551 0.07517 0.83822 0.0
C780 C 0.59461 0.95224 0.972 0.0
C781 C 0.60293 0.96887 0.9497 0.0
C782 C 0.6065 0.01247 0.95149 0.0
C783 C 0.64757 0.05369 0.90841 0.0
C784 C 0.6355 0.03576 0.92775 0.0
C785 C 0.6011 0.98234 0.97261 0.0
C786 C 0.61265 1.00068 0.95594 0.0
H787 H 0.69119 0.08139 0.90434 0.0
H788 H 0.66932 0.05735 0.95698 0.0
H789 H 0.61271 0.03859 0.93346 0.0
H790 H 0.57395 0.95954 0.07418 0.0
H791 H 0.58814 0.9885 0.03478 0.0
C792 C 0.6211 0.69582 0.36777 0.0
C793 C 0.61712 0.70234 0.32255 0.0
C794 C 0.63787 0.70447 0.38901 0.0
C795 C 0.68122 0.74462 0.38342 0.0
H796 H 0.69716 0.71192 0.40988 0.0
C797 C 0.74442 0.75929 0.49426 0.0
C798 C 0.75133 0.74852 0.48259 0.0
C799 C 0.73019 0.75764 0.46541 0.0
C800 C 0.69307 0.72131 0.40182 0.0
H801 H 0.62735 0.72285 0.26378 0.0
H802 H 0.65656 0.73823 0.30133 0.0
H803 H 0.66717 0.70122 0.38566 0.0
H804 H 0.75049 0.72928 0.42824 0.0
H805 H 0.72643 0.72713 0.37579 0.0
H806 H 0.70739 0.76474 0.39966 0.0
C807 C 0.64669 0.72673 0.32142 0.0
C808 C 0.67572 0.71512 0.38901 0.0
C809 C 0.62991 0.71805 0.30025 0.0
C810 C 0.74545 0.73783 0.43755 0.0
C811 C 0.73148 0.73641 0.40817 0.0
C812 C 0.69869 0.75086 0.39663 0.0
C813 C 0.65104 0.71964 0.3647 0.0
C814 C 0.66951 0.72665 0.38003 0.0
C815 C 0.72284 0.74527 0.42441 0.0
C816 C 0.70481 0.73924 0.40589 0.0
H817 H 0.6115 0.68354 0.38493 0.0
H818 H 0.64075 0.69881 0.42288 0.0
H819 H 0.67682 0.75383 0.37655 0.0
H820 H 0.7486 0.7674 0.52948 0.0
H821 H 0.72391 0.76471 0.47888 0.0
C822 C 0.25121 0.97761 0.55483 0.0
C823 C 0.24984 0.99144 0.53303 0.0
C824 C 0.25137 0.96499 0.52229 0.0
C825 C 0.26503 0.96237 0.3869 0.0
H826 H 0.2546 0.91656 0.43377 0.0
C827 C 0.2905 0.92416 0.27147 0.0
C828 C 0.29932 0.91788 0.30236 0.0
C829 C 0.27985 0.92955 0.29544 0.0
C830 C 0.25758 0.92932 0.42018 0.0
H831 H 0.24542 1.0015 0.46026 0.0
H832 H 0.2454 0.97939 0.40289 0.0
H833 H 0.2422 0.93182 0.48134 0.0
H834 H 0.30368 0.91173 0.38201 0.0
H835 H 0.28501 0.92135 0.42472 0.0
H836 H 0.28068 0.96006 0.32657 0.0
C837 C 0.24689 0.97861 0.44539 0.0
C838 C 0.25047 0.93808 0.44734 0.0
C839 C 0.24675 0.9913 0.47831 0.0
C840 C 0.29689 0.91647 0.35759 0.0
C841 C 0.28616 0.92188 0.38178 0.0
C842 C 0.27198 0.95356 0.35956 0.0
C843 C 0.25007 0.96579 0.4668 0.0
C844 C 0.25454 0.95496 0.43205 0.0
C845 C 0.2779 0.92892 0.35099 0.0
C846 C 0.26873 0.93714 0.3767 0.0
H847 H 0.25339 0.97716 0.59709 0.0
H848 H 0.2539 0.95545 0.54059 0.0
H849 H 0.26876 0.97542 0.37435 0.0
H850 H 0.2922 0.92526 0.22866 0.0
H851 H 0.27349 0.93466 0.27058 0.0
C852 C 0.09395 0.38317 0.34807 0.0
C853 C 0.08894 0.38321 0.29525 0.0
C854 C 0.08868 0.36736 0.37438 0.0
C855 C 0.06644 0.31898 0.34956 0.0
H856 H 0.05153 0.31628 0.49576 0.0
C857 C 0.00723 0.26204 0.45263 0.0
C858 C 0.00959 0.25787 0.50457 0.0
C859 C 0.02121 0.27521 0.42462 0.0
C860 C 0.05592 0.31687 0.45519 0.0
H861 H 0.07446 0.36702 0.22854 0.0
H862 H 0.06456 0.33982 0.27437 0.0
H863 H 0.06829 0.34454 0.4536 0.0
H864 H 0.02827 0.26342 0.56737 0.0
H865 H 0.05268 0.28675 0.51886 0.0
H866 H 0.05256 0.29108 0.35038 0.0
C867 C 0.07315 0.35167 0.29548 0.0
C868 C 0.06562 0.33311 0.43096 0.0
C869 C 0.0786 0.36734 0.26929 0.0
C870 C 0.0263 0.26617 0.52677 0.0
C871 C 0.04019 0.27959 0.49931 0.0
C872 C 0.05635 0.30273 0.37346 0.0
C873 C 0.07799 0.35136 0.34853 0.0
C874 C 0.07054 0.33439 0.37721 0.0
C875 C 0.03758 0.28469 0.44894 0.0
C876 C 0.05069 0.30155 0.42608 0.0
H877 H 0.10165 0.39527 0.36913 0.0
H878 H 0.0928 0.36771 0.4151 0.0
H879 H 0.07044 0.31939 0.30866 0.0
H880 H 0.99435 0.25624 0.43552 0.0
H881 H 0.01884 0.27907 0.38605 0.0
C882 C 0.71844 0.95954 0.30249 0.0
C883 C 0.71904 0.96619 0.35344 0.0
C884 C 0.70239 0.94861 0.27808 0.0
C885 C 0.65424 0.92381 0.30597 0.0
H886 H 0.65086 0.93166 0.156 0.0
C887 C 0.59426 0.91851 0.19823 0.0
C888 C 0.59127 0.91253 0.14553 0.0
C889 C 0.60804 0.91919 0.22724 0.0
C890 C 0.6516 0.92905 0.19773 0.0
H891 H 0.7036 0.96702 0.4187 0.0
H892 H 0.67586 0.94886 0.37589 0.0
H893 H 0.67924 0.94467 0.19788 0.0
H894 H 0.59954 0.90162 0.08281 0.0
H895 H 0.62356 0.90276 0.13334 0.0
H896 H 0.62636 0.90919 0.30602 0.0
C897 C 0.68751 0.95125 0.35506 0.0
C898 C 0.66793 0.93648 0.22183 0.0
C899 C 0.70345 0.9619 0.37944 0.0
C900 C 0.60138 0.90596 0.12382 0.0
C901 C 0.61523 0.90679 0.15248 0.0
C902 C 0.63787 0.91664 0.28199 0.0
C903 C 0.68667 0.94447 0.30387 0.0
C904 C 0.66949 0.93437 0.27663 0.0
C905 C 0.61923 0.91421 0.20348 0.0
C906 C 0.63638 0.91947 0.22784 0.0
H907 H 0.73032 0.96298 0.28137 0.0
H908 H 0.70233 0.94358 0.23882 0.0
H909 H 0.65488 0.92146 0.34794 0.0
H910 H 0.58726 0.92439 0.21507 0.0
H911 H 0.61094 0.92516 0.26626 0.0
C912 C 0.09952 0.69083 0.16555 0.0
C913 C 0.08705 0.67368 0.17827 0.0
C914 C 0.09991 0.70469 0.19326 0.0
C915 C 0.08183 0.71684 0.30799 0.0
H916 H 0.07329 0.744 0.20403 0.0
C917 C 0.05762 0.76315 0.37175 0.0
C918 C 0.04226 0.75982 0.34597 0.0
C919 C 0.0679 0.75674 0.3511 0.0
C920 C 0.07583 0.73667 0.23354 0.0
H921 H 0.06637 0.65735 0.23237 0.0
H922 H 0.06748 0.68141 0.28226 0.0
H923 H 0.08418 0.72498 0.17479 0.0
H924 H 0.02555 0.74735 0.27845 0.0
H925 H 0.04366 0.73625 0.24149 0.0
H926 H 0.07273 0.72794 0.36645 0.0
C927 C 0.07691 0.6843 0.25093 0.0
C928 C 0.08224 0.72591 0.21694 0.0
C929 C 0.07632 0.67049 0.22264 0.0
C930 C 0.03759 0.75045 0.29819 0.0
C931 C 0.04796 0.74412 0.27719 0.0
C932 C 0.07564 0.72777 0.32467 0.0
C933 C 0.08797 0.70152 0.23444 0.0
C934 C 0.0848 0.71548 0.25379 0.0
C935 C 0.06293 0.74674 0.30439 0.0
C936 C 0.07207 0.73739 0.28742 0.0
H937 H 0.10768 0.69354 0.13077 0.0
H938 H 0.10867 0.71783 0.18003 0.0
H939 H 0.08366 0.70894 0.33721 0.0
H940 H 0.06107 0.76972 0.40985 0.0
H941 H 0.07935 0.75897 0.3729 0.0
C942 C 0.31145 0.40165 0.11213 0.0
C943 C 0.32756 0.41244 0.1364 0.0
C944 C 0.29805 0.38802 0.14039 0.0
C945 C 0.28304 0.36752 0.27233 0.0
H946 H 0.27098 0.32484 0.19709 0.0
C947 C 0.26248 0.30393 0.3824 0.0
C948 C 0.25159 0.28785 0.35826 0.0
C949 C 0.26765 0.31939 0.3551 0.0
C950 C 0.27374 0.33653 0.21842 0.0
H951 H 0.34206 0.41777 0.20963 0.0
H952 H 0.31848 0.39444 0.25991 0.0
H953 H 0.28703 0.35253 0.15143 0.0
H954 H 0.23759 0.27518 0.28659 0.0
H955 H 0.24609 0.30235 0.23865 0.0
H956 H 0.26989 0.35158 0.33953 0.0
C957 C 0.31611 0.39666 0.21918 0.0
C958 C 0.28303 0.35246 0.19218 0.0
C959 C 0.3296 0.41023 0.19062 0.0
C960 C 0.24572 0.28746 0.30628 0.0
C961 C 0.25078 0.30303 0.27881 0.0
C962 C 0.27349 0.35156 0.29839 0.0
C963 C 0.30052 0.38491 0.19354 0.0
C964 C 0.28823 0.36814 0.21929 0.0
C965 C 0.26204 0.31923 0.30271 0.0
C966 C 0.26927 0.33587 0.27238 0.0
H967 H 0.30969 0.40292 0.07003 0.0
H968 H 0.28614 0.37925 0.11974 0.0
H969 H 0.28672 0.3794 0.29401 0.0
H970 H 0.26728 0.30456 0.42245 0.0
H971 H 0.27663 0.33144 0.37463 0.0
C972 C 0.29735 0.05267 0.63589 0.0
C973 C 0.28408 0.03726 0.65823 0.0
C974 C 0.31376 0.06145 0.65958 0.0
C975 C 0.34127 0.05002 0.73647 0.0
H976 H 0.37356 0.09961 0.74248 0.0
C977 C 0.41103 0.07266 0.78645 0.0
C978 C 0.41726 0.08395 0.83011 0.0
C979 C 0.39689 0.07089 0.75724 0.0
C980 C 0.36467 0.08574 0.74084 0.0
H981 H 0.27721 0.01907 0.72316 0.0
H982 H 0.30582 0.03449 0.76545 0.0
H983 H 0.34326 0.08888 0.71615 0.0
H984 H 0.4146 0.10317 0.87537 0.0
H985 H 0.38966 0.09996 0.82477 0.0
H986 H 0.36231 0.04668 0.76152 0.0
C987 C 0.30359 0.03987 0.72966 0.0
C988 C 0.34736 0.0796 0.72581 0.0
C989 C 0.28718 0.03113 0.70591 0.0
C990 C 0.41024 0.09468 0.84098 0.0
C991 C 0.39589 0.09274 0.81218 0.0
C992 C 0.35847 0.0561 0.75103 0.0
C993 C 0.31726 0.05472 0.70551 0.0
C994 C 0.33545 0.06164 0.72379 0.0
C995 C 0.3884 0.08 0.77226 0.0
C996 C 0.37043 0.07401 0.75326 0.0
H997 H 0.29547 0.05716 0.59775 0.0
H998 H 0.32403 0.07268 0.63957 0.0
H999 H 0.33257 0.03611 0.73435 0.0
H1000 H 0.41589 0.06391 0.77823 0.0
H1001 H 0.39166 0.06124 0.7259 0.0
C1002 C 0.91619 0.31156 0.88017 0.0
C1003 C 0.91592 0.326 0.8585 0.0
C1004 C 0.91654 0.29908 0.84739 0.0
C1005 C 0.93247 0.2975 0.71396 0.0
H1006 H 0.91985 0.25074 0.75716 0.0
C1007 C 0.95596 0.25824 0.59558 0.0
C1008 C 0.96416 0.25107 0.62547 0.0
C1009 C 0.94582 0.26409 0.6204 0.0
C1010 C 0.92346 0.26377 0.74467 0.0
H1011 H 0.91382 0.33749 0.78534 0.0
H1012 H 0.91388 0.3155 0.72754 0.0
H1013 H 0.90767 0.26627 0.80443 0.0
H1014 H 0.96795 0.2439 0.70441 0.0
H1015 H 0.95008 0.25426 0.74863 0.0
H1016 H 0.94841 0.29513 0.65481 0.0
C1017 C 0.91439 0.31411 0.77019 0.0
C1018 C 0.91648 0.2727 0.77166 0.0
C1019 C 0.91412 0.32669 0.80332 0.0
C1020 C 0.96158 0.24925 0.68065 0.0
C1021 C 0.95134 0.25512 0.70573 0.0
C1022 C 0.93927 0.28853 0.68676 0.0
C1023 C 0.91654 0.30065 0.79178 0.0
C1024 C 0.92125 0.28988 0.75754 0.0
C1025 C 0.94375 0.26305 0.67589 0.0
C1026 C 0.93515 0.27172 0.70245 0.0
H1027 H 0.91744 0.31055 0.92274 0.0
H1028 H 0.91824 0.28904 0.8659 0.0
H1029 H 0.9368 0.31078 0.70242 0.0
H1030 H 0.95776 0.25971 0.55285 0.0
H1031 H 0.93995 0.26988 0.59624 0.0
C1032 C 0.69395 0.61025 0.88439 0.0
C1033 C 0.68052 0.5947 0.86302 0.0
C1034 C 0.70706 0.62254 0.85208 0.0
C1035 C 0.71218 0.6368 0.71334 0.0
H1036 H 0.75711 0.67279 0.76428 0.0
C1037 C 0.75274 0.69823 0.59085 0.0
C1038 C 0.75826 0.71385 0.6184 0.0
C1039 C 0.74702 0.6827 0.61836 0.0
C1040 C 0.74461 0.66282 0.74955 0.0
H1041 H 0.67151 0.57917 0.79171 0.0
H1042 H 0.69457 0.60044 0.73476 0.0
H1043 H 0.74087 0.64587 0.81494 0.0
H1044 H 0.76275 0.72579 0.69606 0.0
H1045 H 0.75256 0.69839 0.74498 0.0
H1046 H 0.71575 0.65383 0.64857 0.0
C1047 C 0.69467 0.60332 0.77666 0.0
C1048 C 0.73528 0.64738 0.77847 0.0
C1049 C 0.68146 0.59097 0.80937 0.0
C1050 C 0.75868 0.71387 0.67415 0.0
C1051 C 0.75291 0.69823 0.70193 0.0
C1052 C 0.72156 0.65211 0.68424 0.0
C1053 C 0.70717 0.61961 0.79723 0.0
C1054 C 0.71868 0.63437 0.7616 0.0
C1055 C 0.74651 0.6824 0.67417 0.0
C1056 C 0.73768 0.66549 0.70267 0.0
H1057 H 0.69373 0.61347 0.92588 0.0
H1058 H 0.71629 0.63486 0.8697 0.0
H1059 H 0.69936 0.62732 0.69939 0.0
H1060 H 0.75238 0.69796 0.54774 0.0
H1061 H 0.74244 0.6708 0.59587 0.0
C1062 C 0.36806 0.28971 0.72623 0.0
C1063 C 0.38421 0.29606 0.70122 0.0
C1064 C 0.35267 0.27977 0.69829 0.0
C1065 C 0.33553 0.27144 0.56072 0.0
H1066 H 0.29272 0.2405 0.63491 0.0
C1067 C 0.26957 0.24388 0.45741 0.0
C1068 C 0.25986 0.25061 0.481 0.0
C1069 C 0.28318 0.24385 0.48512 0.0
C1070 C 0.30459 0.24896 0.61361 0.0
H1071 H 0.39705 0.29699 0.62732 0.0
H1072 H 0.37002 0.27879 0.57819 0.0
H1073 H 0.32057 0.25049 0.67923 0.0
H1074 H 0.25646 0.26214 0.55243 0.0
H1075 H 0.27953 0.2611 0.60219 0.0
H1076 H 0.31939 0.2697 0.495 0.0
C1077 C 0.36922 0.28172 0.61953 0.0
C1078 C 0.32058 0.25486 0.63902 0.0
C1079 C 0.38473 0.29196 0.64766 0.0
C1080 C 0.2631 0.25608 0.53419 0.0
C1081 C 0.27651 0.25572 0.56237 0.0
C1082 C 0.31956 0.2652 0.53493 0.0
C1083 C 0.35293 0.27574 0.64431 0.0
C1084 C 0.33627 0.26677 0.61375 0.0
C1085 C 0.2872 0.2504 0.53714 0.0
C1086 C 0.30394 0.25436 0.56172 0.0
H1087 H 0.36729 0.29279 0.76751 0.0
H1088 H 0.34059 0.27592 0.71881 0.0
H1089 H 0.34716 0.28071 0.5399 0.0
H1090 H 0.26761 0.24005 0.41592 0.0
H1091 H 0.29125 0.23972 0.46479 0.0
C1092 C 0.71558 0.09009 0.65937 0.0
C1093 C 0.71456 0.08909 0.71503 0.0
C1094 C 0.72565 0.08448 0.63195 0.0
C1095 C 0.73963 0.05254 0.64848 0.0
H1096 H 0.76747 0.0734 0.52253 0.0
C1097 C 0.76132 0.0131 0.52389 0.0
C1098 C 0.75768 0.01302 0.46964 0.0
C1099 C 0.76218 0.02615 0.55734 0.0
C1100 C 0.75972 0.06737 0.55764 0.0
H1101 H 0.72366 0.08231 0.78598 0.0
H1102 H 0.74117 0.07259 0.73849 0.0
H1103 H 0.75623 0.08922 0.57296 0.0
H1104 H 0.75399 0.02754 0.40676 0.0
H1105 H 0.75509 0.04984 0.46422 0.0
H1106 H 0.74208 0.03033 0.6321 0.0
C1107 C 0.7342 0.07753 0.71579 0.0
C1108 C 0.75329 0.07646 0.58643 0.0
C1109 C 0.72421 0.08311 0.74293 0.0
C1110 C 0.75667 0.02714 0.44865 0.0
C1111 C 0.75743 0.04008 0.48175 0.0
C1112 C 0.74585 0.04339 0.61948 0.0
C1113 C 0.73464 0.07765 0.65998 0.0
C1114 C 0.74291 0.06899 0.6316 0.0
C1115 C 0.75931 0.0393 0.537 0.0
C1116 C 0.75563 0.05047 0.57288 0.0
H1117 H 0.7081 0.09454 0.63717 0.0
H1118 H 0.72566 0.08462 0.58887 0.0
H1119 H 0.73149 0.04632 0.6828 0.0
H1120 H 0.76222 0.00255 0.54135 0.0
H1121 H 0.76411 0.02536 0.59956 0.0
C1122 C 0.99585 0.74592 0.52015 0.0
C1123 C 0.9947 0.74685 0.46475 0.0
C1124 C 0.98262 0.73204 0.54855 0.0
C1125 C 0.95231 0.68631 0.52413 0.0
H1126 H 0.93693 0.68614 0.66841 0.0
C1127 C 0.91462 0.62216 0.64221 0.0
C1128 C 0.91986 0.62306 0.69523 0.0
C1129 C 0.91988 0.63745 0.61299 0.0
C1130 C 0.94117 0.68594 0.62815 0.0
H1131 H 0.97832 0.7349 0.39607 0.0
H1132 H 0.95517 0.71087 0.44546 0.0
H1133 H 0.95317 0.71364 0.6207 0.0
H1134 H 0.93471 0.64038 0.75942 0.0
H1135 H 0.94436 0.66684 0.70864 0.0
H1136 H 0.9413 0.65887 0.53218 0.0
C1137 C 0.96631 0.72068 0.46708 0.0
C1138 C 0.9504 0.70171 0.60083 0.0
C1139 C 0.97949 0.73452 0.43891 0.0
C1140 C 0.93039 0.63937 0.71857 0.0
C1141 C 0.93573 0.65456 0.68957 0.0
C1142 C 0.94327 0.67059 0.55159 0.0
C1143 C 0.96812 0.71881 0.52177 0.0
C1144 C 0.95637 0.70209 0.54886 0.0
C1145 C 0.93069 0.65387 0.63622 0.0
C1146 C 0.93794 0.67022 0.60446 0.0
H1147 H 0.00753 0.75486 0.54088 0.0
H1148 H 0.98447 0.73091 0.59065 0.0
H1149 H 0.95694 0.68616 0.48439 0.0
H1150 H 0.90675 0.6097 0.6232 0.0
H1151 H 0.91565 0.63639 0.57208 0.0
C1152 C 0.30743 0.47033 0.12083 0.0
C1153 C 0.313 0.462 0.15681 0.0
C1154 C 0.29144 0.46951 0.12764 0.0
C1155 C 0.25863 0.46239 0.22832 0.0
H1156 H 0.22766 0.45146 0.10772 0.0
C1157 C 0.18685 0.44246 0.25402 0.0
C1158 C 0.17844 0.44694 0.2149 0.0
C1159 C 0.2039 0.44614 0.24693 0.0
C1160 C 0.23625 0.45485 0.14165 0.0
H1161 H 0.30613 0.44628 0.22827 0.0
H1162 H 0.27819 0.44497 0.24047 0.0
H1163 H 0.25597 0.45382 0.09543 0.0
H1164 H 0.18175 0.4594 0.13825 0.0
H1165 H 0.21183 0.46621 0.12632 0.0
H1166 H 0.23908 0.46358 0.27457 0.0
C1167 C 0.28628 0.45218 0.20704 0.0
C1168 C 0.25246 0.45611 0.13462 0.0
C1169 C 0.30223 0.45285 0.19991 0.0
C1170 C 0.1878 0.45574 0.16914 0.0
C1171 C 0.205 0.45951 0.16214 0.0
C1172 C 0.24251 0.4613 0.23527 0.0
C1173 C 0.2807 0.46047 0.17088 0.0
C1174 C 0.26372 0.45967 0.17802 0.0
C1175 C 0.21318 0.45453 0.20069 0.0
C1176 C 0.23098 0.45726 0.1922 0.0
H1177 H 0.31539 0.47746 0.08711 0.0
H1178 H 0.28758 0.47614 0.09939 0.0
H1179 H 0.26716 0.46546 0.26232 0.0
H1180 H 0.18011 0.43562 0.2898 0.0
H1181 H 0.20958 0.44181 0.27712 0.0
C1182 C 0.54944 0.84678 0.20508 0.0
C1183 C 0.54208 0.84951 0.15923 0.0
C1184 C 0.54985 0.83132 0.21146 0.0
C1185 C 0.54923 0.79554 0.13644 0.0
H1186 H 0.53526 0.77086 0.27067 0.0
C1187 C 0.54943 0.73098 0.16821 0.0
C1188 C 0.55608 0.72939 0.21731 0.0
C1189 C 0.5455 0.74427 0.16012 0.0
C1190 C 0.53937 0.77764 0.23303 0.0
H1191 H 0.52963 0.83827 0.08379 0.0
H1192 H 0.53059 0.81152 0.09474 0.0
H1193 H 0.53389 0.79737 0.25908 0.0
H1194 H 0.56313 0.74018 0.29701 0.0
H1195 H 0.55672 0.76322 0.28264 0.0
H1196 H 0.55529 0.7762 0.11083 0.0
C1197 C 0.53596 0.82126 0.12579 0.0
C1198 C 0.53856 0.79284 0.22647 0.0
C1199 C 0.53534 0.83657 0.11972 0.0
C1200 C 0.55805 0.74095 0.25856 0.0
C1201 C 0.55422 0.75418 0.25045 0.0
C1202 C 0.55024 0.78043 0.1432 0.0
C1203 C 0.54314 0.81842 0.1718 0.0
C1204 C 0.54363 0.80205 0.17829 0.0
C1205 C 0.54814 0.75624 0.20095 0.0
C1206 C 0.54552 0.77138 0.19184 0.0
H1207 H 0.55475 0.8565 0.23619 0.0
H1208 H 0.55562 0.82955 0.24716 0.0
H1209 H 0.55332 0.80241 0.09893 0.0
H1210 H 0.54776 0.72232 0.13558 0.0
H1211 H 0.54059 0.7453 0.12167 0.0
C1212 C 0.15778 0.70494 0.20565 0.0
C1213 C 0.15579 0.69437 0.16156 0.0
C1214 C 0.17296 0.72104 0.21203 0.0
C1215 C 0.20973 0.75567 0.1378 0.0
H1216 H 0.23189 0.76851 0.27608 0.0
C1217 C 0.27384 0.82093 0.17139 0.0
C1218 C 0.27476 0.82983 0.21865 0.0
C1219 C 0.26048 0.80369 0.1638 0.0
C1220 C 0.2258 0.76525 0.23725 0.0
H1221 H 0.16812 0.69259 0.08918 0.0
H1222 H 0.19444 0.72068 0.10013 0.0
H1223 H 0.20583 0.74031 0.26422 0.0
H1224 H 0.26251 0.82726 0.29553 0.0
H1225 H 0.23938 0.79778 0.28196 0.0
H1226 H 0.22938 0.78077 0.11108 0.0
C1227 C 0.1843 0.71652 0.1298 0.0
C1228 C 0.21085 0.74905 0.23052 0.0
C1229 C 0.16923 0.70036 0.12373 0.0
C1230 C 0.26232 0.8209 0.25856 0.0
C1231 C 0.24902 0.80382 0.25093 0.0
C1232 C 0.22461 0.77198 0.14465 0.0
C1233 C 0.18639 0.72701 0.17414 0.0
C1234 C 0.20254 0.74411 0.18086 0.0
C1235 C 0.24775 0.79499 0.20329 0.0
C1236 C 0.23275 0.77708 0.19465 0.0
H1237 H 0.14766 0.70074 0.23544 0.0
H1238 H 0.1741 0.72891 0.24635 0.0
H1239 H 0.20356 0.7523 0.09909 0.0
H1240 H 0.28317 0.82737 0.13979 0.0
H1241 H 0.26007 0.79724 0.12684 0.0
C1242 C 0.82216 0.56552 0.74228 0.0
C1243 C 0.83052 0.56093 0.78132 0.0
C1244 C 0.80536 0.56251 0.75025 0.0
C1245 C 0.76501 0.53714 0.8258 0.0
H1246 H 0.75794 0.57584 0.79349 0.0
C1247 C 0.70089 0.53596 0.8769 0.0
C1248 C 0.69488 0.54409 0.84166 0.0
C1249 C 0.71722 0.53754 0.86993 0.0
C1250 C 0.75955 0.56478 0.80196 0.0
H1251 H 0.82728 0.54887 0.85866 0.0
H1252 H 0.79763 0.5434 0.87229 0.0
H1253 H 0.78647 0.57889 0.78094 0.0
H1254 H 0.70129 0.56009 0.77096 0.0
H1255 H 0.72958 0.56247 0.75784 0.0
H1256 H 0.73802 0.5229 0.84592 0.0
C1257 C 0.80428 0.54942 0.83556 0.0
C1258 C 0.77597 0.56658 0.79498 0.0
C1259 C 0.82126 0.55256 0.82776 0.0
C1260 C 0.70555 0.55372 0.79895 0.0
C1261 C 0.72185 0.55518 0.7917 0.0
C1262 C 0.74851 0.53528 0.83235 0.0
C1263 C 0.79632 0.55472 0.79731 0.0
C1264 C 0.77889 0.55277 0.80655 0.0
C1265 C 0.72797 0.54718 0.82727 0.0
C1266 C 0.74553 0.54907 0.82035 0.0
H1267 H 0.82875 0.57188 0.70579 0.0
H1268 H 0.79947 0.56645 0.71958 0.0
H1269 H 0.76682 0.52622 0.83461 0.0
H1270 H 0.69307 0.52854 0.91048 0.0
H1271 H 0.72154 0.53143 0.89869 0.0
C1272 C 0.44929 0.26272 0.74599 0.0
C1273 C 0.44884 0.2727 0.78878 0.0
C1274 C 0.45232 0.24893 0.75467 0.0
C1275 C 0.44662 0.21723 0.85701 0.0
H1276 H 0.4742 0.20629 0.76208 0.0
C1277 C 0.45564 0.15804 0.89331 0.0
C1278 C 0.45592 0.14857 0.84887 0.0
C1279 C 0.45595 0.17381 0.88693 0.0
C1280 C 0.46627 0.20902 0.78861 0.0
H1281 H 0.45191 0.27637 0.87418 0.0
H1282 H 0.45718 0.25218 0.88939 0.0
H1283 H 0.47363 0.23324 0.75002 0.0
H1284 H 0.45661 0.14825 0.76271 0.0
H1285 H 0.45672 0.17558 0.7514 0.0
H1286 H 0.43885 0.19288 0.89477 0.0
C1287 C 0.45508 0.25504 0.84909 0.0
C1288 C 0.46603 0.22454 0.78185 0.0
C1289 C 0.45222 0.26899 0.84033 0.0
C1290 C 0.45645 0.15524 0.79779 0.0
C1291 C 0.45664 0.171 0.79136 0.0
C1292 C 0.44676 0.20167 0.86355 0.0
C1293 C 0.45484 0.24465 0.80643 0.0
C1294 C 0.45613 0.22878 0.81579 0.0
C1295 C 0.45641 0.18052 0.83588 0.0
C1296 C 0.45652 0.19729 0.82929 0.0
H1297 H 0.44678 0.26523 0.70572 0.0
H1298 H 0.45192 0.24115 0.72097 0.0
H1299 H 0.43861 0.21995 0.88326 0.0
H1300 H 0.45538 0.15337 0.9333 0.0
H1301 H 0.45607 0.18086 0.9222 0.0
C1302 C 0.73607 0.18639 0.82655 0.0
C1303 C 0.73512 0.17693 0.78059 0.0
C1304 C 0.74941 0.20368 0.83247 0.0
C1305 C 0.78418 0.24129 0.7569 0.0
H1306 H 0.80621 0.25509 0.89519 0.0
C1307 C 0.85193 0.30225 0.78909 0.0
C1308 C 0.85366 0.3127 0.83325 0.0
C1309 C 0.83681 0.28613 0.78213 0.0
C1310 C 0.8001 0.25149 0.85642 0.0
H1311 H 0.74725 0.17854 0.70411 0.0
H1312 H 0.77041 0.20823 0.71486 0.0
H1313 H 0.78051 0.22656 0.88418 0.0
H1314 H 0.84088 0.31435 0.90481 0.0
H1315 H 0.81471 0.28631 0.89276 0.0
H1316 H 0.80412 0.26613 0.72901 0.0
C1317 C 0.76078 0.20253 0.7461 0.0
C1318 C 0.78529 0.23515 0.85013 0.0
C1319 C 0.74747 0.18536 0.74009 0.0
C1320 C 0.84 0.30666 0.87028 0.0
C1321 C 0.825 0.29053 0.86359 0.0
C1322 C 0.79908 0.25757 0.76311 0.0
C1323 C 0.76212 0.21188 0.79264 0.0
C1324 C 0.77718 0.22976 0.80018 0.0
C1325 C 0.82322 0.28006 0.81948 0.0
C1326 C 0.80727 0.26283 0.81288 0.0
H1327 H 0.72678 0.18034 0.85851 0.0
H1328 H 0.74986 0.21055 0.86853 0.0
H1329 H 0.77815 0.23776 0.71804 0.0
H1330 H 0.86222 0.3065 0.75991 0.0
H1331 H 0.83588 0.27828 0.74797 0.0
C1332 C 0.85508 0.78965 0.50867 0.0
C1333 C 0.84572 0.78154 0.55513 0.0
C1334 C 0.87218 0.79309 0.50222 0.0
C1335 C 0.90961 0.79493 0.57617 0.0
H1336 H 0.92175 0.78502 0.43758 0.0
C1337 C 0.96911 0.78583 0.54099 0.0
C1338 C 0.97934 0.79418 0.49611 0.0
C1339 C 0.95321 0.78523 0.54878 0.0
C1340 C 0.91861 0.78798 0.47641 0.0
H1341 H 0.84737 0.77133 0.63213 0.0
H1342 H 0.87675 0.77699 0.62049 0.0
H1343 H 0.89379 0.78338 0.45008 0.0
H1344 H 0.98078 0.8083 0.42403 0.0
H1345 H 0.95313 0.80714 0.43751 0.0
H1346 H 0.93433 0.7991 0.60263 0.0
C1347 C 0.8711 0.78096 0.58921 0.0
C1348 C 0.90261 0.78715 0.48355 0.0
C1349 C 0.85412 0.77762 0.59575 0.0
C1350 C 0.97326 0.80177 0.45909 0.0
C1351 C 0.95734 0.80103 0.46662 0.0
C1352 C 0.92556 0.79562 0.56911 0.0
C1353 C 0.88028 0.78846 0.54201 0.0
C1354 C 0.89783 0.79051 0.53361 0.0
C1355 C 0.94714 0.7928 0.51155 0.0
C1356 C 0.93021 0.79209 0.5192 0.0
H1357 H 0.84905 0.79288 0.47662 0.0
H1358 H 0.87895 0.79916 0.4657 0.0
H1359 H 0.90654 0.79789 0.61508 0.0
H1360 H 0.97342 0.77984 0.5702 0.0
H1361 H 0.94555 0.77865 0.58357 0.0
C1362 C 0.22651 0.07572 0.583 0.0
C1363 C 0.22456 0.06401 0.5422 0.0
C1364 C 0.22381 0.08961 0.57323 0.0
C1365 C 0.2031 0.10708 0.48803 0.0
H1366 H 0.24099 0.1516 0.53453 0.0
C1367 C 0.2041 0.17166 0.44524 0.0
C1368 C 0.21124 0.18481 0.48405 0.0
C1369 C 0.20543 0.1567 0.45009 0.0
C1370 C 0.23015 0.13929 0.52198 0.0
H1371 H 0.21718 0.05727 0.45965 0.0
H1372 H 0.21208 0.08163 0.44281 0.0
H1373 H 0.24297 0.12549 0.5465 0.0
H1374 H 0.22525 0.19244 0.55874 0.0
H1375 H 0.22713 0.16613 0.56824 0.0
H1376 H 0.19001 0.12075 0.46499 0.0
C1377 C 0.21592 0.07997 0.48228 0.0
C1378 C 0.23136 0.12433 0.52853 0.0
C1379 C 0.2188 0.06602 0.49194 0.0
C1380 C 0.21969 0.1826 0.52801 0.0
C1381 C 0.22086 0.16753 0.5332 0.0
C1382 C 0.20178 0.12206 0.48204 0.0
C1383 C 0.21891 0.09217 0.52255 0.0
C1384 C 0.2178 0.10804 0.51211 0.0
C1385 C 0.2138 0.15437 0.49418 0.0
C1386 C 0.21525 0.13838 0.49935 0.0
H1387 H 0.23072 0.07454 0.62245 0.0
H1388 H 0.22588 0.09859 0.6053 0.0
H1389 H 0.19242 0.09467 0.47536 0.0
H1390 H 0.19762 0.173 0.41059 0.0
H1391 H 0.20011 0.14708 0.41873 0.0
C1392 C 0.92809 0.15415 0.59176 0.0
C1393 C 0.94081 0.16261 0.55221 0.0
C1394 C 0.91426 0.13736 0.58383 0.0
C1395 C 0.8987 0.09728 0.50584 0.0
H1396 H 0.85323 0.09023 0.54227 0.0
C1397 C 0.83537 0.0339 0.45252 0.0
C1398 C 0.82138 0.02757 0.48842 0.0
C1399 C 0.8502 0.05012 0.46029 0.0
C1400 C 0.86581 0.09183 0.53262 0.0
H1401 H 0.94924 0.15957 0.474 0.0
H1402 H 0.925 0.12995 0.46037 0.0
H1403 H 0.87885 0.11859 0.55554 0.0
H1404 H 0.81212 0.03335 0.56105 0.0
H1405 H 0.83815 0.06148 0.57544 0.0
H1406 H 0.88571 0.07043 0.48366 0.0
C1407 C 0.92583 0.1365 0.49752 0.0
C1408 C 0.88053 0.10815 0.54004 0.0
C1409 C 0.93971 0.15346 0.50532 0.0
C1410 C 0.82263 0.03784 0.53254 0.0
C1411 C 0.83754 0.05405 0.54055 0.0
C1412 C 0.88397 0.08086 0.4988 0.0
C1413 C 0.91273 0.12844 0.53626 0.0
C1414 C 0.89716 0.11107 0.52694 0.0
C1415 C 0.85152 0.06045 0.5044 0.0
C1416 C 0.8673 0.0779 0.51218 0.0
H1417 H 0.9285 0.16065 0.62864 0.0
H1418 H 0.90459 0.1314 0.6149 0.0
H1419 H 0.91134 0.09907 0.49582 0.0
H1420 H 0.83483 0.02639 0.41788 0.0
H1421 H 0.8605 0.05467 0.43105 0.0
C1422 C 0.36764 0.86942 0.21815 0.0
C1423 C 0.36151 0.87629 0.17885 0.0
C1424 C 0.38355 0.86999 0.21203 0.0
C1425 C 0.41474 0.87298 0.11101 0.0
H1426 H 0.44769 0.88857 0.22766 0.0
C1427 C 0.486 0.89174 0.08002 0.0
C1428 C 0.49525 0.8891 0.12093 0.0
C1429 C 0.46904 0.88825 0.08801 0.0
C1430 C 0.43853 0.88385 0.19497 0.0
H1431 H 0.36734 0.88919 0.10224 0.0
H1432 H 0.3951 0.89001 0.09122 0.0
H1433 H 0.4196 0.88678 0.23959 0.0
H1434 H 0.49349 0.88002 0.20197 0.0
H1435 H 0.46354 0.8735 0.21564 0.0
H1436 H 0.43346 0.86985 0.06643 0.0
C1437 C 0.38752 0.88415 0.12677 0.0
C1438 C 0.42246 0.88294 0.20175 0.0
C1439 C 0.37167 0.88376 0.13319 0.0
C1440 C 0.48677 0.88222 0.1696 0.0
C1441 C 0.46966 0.87863 0.17756 0.0
C1442 C 0.43071 0.87371 0.10439 0.0
C1443 C 0.39364 0.87729 0.16619 0.0
C1444 C 0.41049 0.87772 0.1596 0.0
C1445 C 0.46066 0.88186 0.13703 0.0
C1446 C 0.44297 0.87944 0.14597 0.0
H1447 H 0.36018 0.86361 0.25393 0.0
H1448 H 0.38784 0.86449 0.24289 0.0
H1449 H 0.40565 0.8686 0.07812 0.0
H1450 H 0.49202 0.89704 0.04193 0.0
H1451 H 0.46275 0.8912 0.05609 0.0
C1452 C 0.12188 0.48886 0.13082 0.0
C1453 C 0.13152 0.48761 0.17313 0.0
C1454 C 0.12031 0.50368 0.12475 0.0
C1455 C 0.14004 0.54996 0.16801 0.0
H1456 H 0.09642 0.54451 0.11744 0.0
C1457 C 0.12256 0.60531 0.16762 0.0
C1458 C 0.11417 0.60642 0.12155 0.0
C1459 C 0.12578 0.59148 0.17433 0.0
C1460 C 0.10874 0.54627 0.13126 0.0
H1461 H 0.14694 0.50094 0.24258 0.0
H1462 H 0.14386 0.52648 0.23284 0.0
H1463 H 0.09953 0.519 0.1283 0.0
H1464 H 0.10328 0.59413 0.04549 0.0
H1465 H 0.10883 0.57028 0.0574 0.0
H1466 H 0.14904 0.5773 0.17173 0.0
C1467 C 0.13784 0.51625 0.20348 0.0
C1468 C 0.11056 0.53163 0.13728 0.0
C1469 C 0.13951 0.5015 0.20927 0.0
C1470 C 0.10965 0.59372 0.08173 0.0
C1471 C 0.11273 0.57993 0.08861 0.0
C1472 C 0.13814 0.56461 0.16242 0.0
C1473 C 0.12821 0.51757 0.16115 0.0
C1474 C 0.12628 0.53325 0.15534 0.0
C1475 C 0.12052 0.57843 0.13533 0.0
C1476 C 0.12252 0.56294 0.14349 0.0
H1477 H 0.11561 0.47842 0.10215 0.0
H1478 H 0.11303 0.5043 0.09113 0.0
H1479 H 0.15242 0.55179 0.18136 0.0
H1480 H 0.12621 0.61483 0.1991 0.0
H1481 H 0.1318 0.59066 0.21082 0.0
C1482 C 0.41029 0.51923 0.07744 0.0
C1483 C 0.39886 0.50947 0.11873 0.0
C1484 C 0.42355 0.53625 0.08594 0.0
C1485 C 0.45021 0.566 0.19344 0.0
H1486 H 0.46644 0.59988 0.07922 0.0
C1487 C 0.50614 0.63694 0.219 0.0
C1488 C 0.51884 0.64355 0.17877 0.0
C1489 C 0.4909 0.62099 0.21267 0.0
C1490 C 0.46212 0.59051 0.11135 0.0
H1491 H 0.39207 0.51038 0.20102 0.0
H1492 H 0.41513 0.54044 0.21569 0.0
H1493 H 0.43997 0.57199 0.06741 0.0
H1494 H 0.52546 0.63855 0.10029 0.0
H1495 H 0.49863 0.61068 0.08893 0.0
H1496 H 0.47236 0.58472 0.23745 0.0
C1497 C 0.41396 0.53467 0.17686 0.0
C1498 C 0.44694 0.5745 0.10466 0.0
C1499 C 0.40063 0.5175 0.16835 0.0
C1500 C 0.51593 0.63383 0.13195 0.0
C1501 C 0.50054 0.61793 0.12536 0.0
C1502 C 0.4653 0.5821 0.20032 0.0
C1503 C 0.42578 0.54417 0.1359 0.0
C1504 C 0.44092 0.56189 0.14526 0.0
C1505 C 0.48787 0.61133 0.16574 0.0
C1506 C 0.47155 0.59444 0.15906 0.0
H1507 H 0.40938 0.51356 0.03859 0.0
H1508 H 0.43248 0.54294 0.05362 0.0
H1509 H 0.44616 0.55657 0.2253 0.0
H1510 H 0.50798 0.64406 0.25567 0.0
H1511 H 0.48134 0.61633 0.24429 0.0
C1512 C 0.52165 0.11998 0.82566 0.0
C1513 C 0.51279 0.11201 0.87296 0.0
C1514 C 0.53888 0.12387 0.81804 0.0
C1515 C 0.57738 0.12837 0.89222 0.0
H1516 H 0.59069 0.11847 0.75551 0.0
C1517 C 0.63795 0.12101 0.86541 0.0
C1518 C 0.6486 0.12932 0.82125 0.0
C1519 C 0.62179 0.12001 0.87059 0.0
C1520 C 0.58722 0.12145 0.79379 0.0
H1521 H 0.51536 0.10221 0.94967 0.0
H1522 H 0.54485 0.10863 0.93605 0.0
H1523 H 0.56206 0.11559 0.76623 0.0
H1524 H 0.65046 0.14283 0.74747 0.0
H1525 H 0.62225 0.14095 0.75642 0.0
H1526 H 0.60236 0.13377 0.92009 0.0
C1527 C 0.53876 0.11221 0.90507 0.0
C1528 C 0.57083 0.11989 0.79989 0.0
C1529 C 0.52169 0.10839 0.91269 0.0
C1530 C 0.64262 0.13639 0.78211 0.0
C1531 C 0.6264 0.13523 0.78703 0.0
C1532 C 0.59367 0.12978 0.88623 0.0
C1533 C 0.54761 0.11991 0.8576 0.0
C1534 C 0.5656 0.12309 0.84943 0.0
C1535 C 0.61584 0.12713 0.83147 0.0
C1536 C 0.59871 0.12615 0.83714 0.0
H1537 H 0.5152 0.12293 0.79422 0.0
H1538 H 0.54535 0.12996 0.78115 0.0
H1539 H 0.57399 0.13133 0.93066 0.0
H1540 H 0.64215 0.1154 0.89619 0.0
H1541 H 0.61386 0.11351 0.90501 0.0
C1542 C 0.89343 0.41048 0.91413 0.0
C1543 C 0.89156 0.399 0.87269 0.0
C1544 C 0.89045 0.42425 0.90536 0.0
C1545 C 0.86923 0.44157 0.8213 0.0
H1546 H 0.90667 0.48618 0.86904 0.0
C1547 C 0.86971 0.50592 0.77875 0.0
C1548 C 0.87671 0.51904 0.81765 0.0
C1549 C 0.87111 0.491 0.78373 0.0
C1550 C 0.89595 0.47383 0.85618 0.0
H1551 H 0.88406 0.39253 0.79009 0.0
H1552 H 0.8785 0.41666 0.77503 0.0
H1553 H 0.90899 0.46025 0.88054 0.0
H1554 H 0.89051 0.52665 0.89271 0.0
H1555 H 0.8925 0.50041 0.90244 0.0
H1556 H 0.85593 0.45504 0.79828 0.0
C1557 C 0.88247 0.41492 0.81421 0.0
C1558 C 0.89734 0.45897 0.86249 0.0
C1559 C 0.88562 0.40111 0.82286 0.0
C1560 C 0.88506 0.51683 0.86189 0.0
C1561 C 0.88629 0.5018 0.86721 0.0
C1562 C 0.86772 0.45645 0.81555 0.0
C1563 C 0.88536 0.4269 0.85507 0.0
C1564 C 0.88396 0.44266 0.84552 0.0
C1565 C 0.87941 0.48869 0.82805 0.0
C1566 C 0.88102 0.4728 0.83325 0.0
H1567 H 0.89778 0.40923 0.95327 0.0
H1568 H 0.89246 0.43307 0.93787 0.0
H1569 H 0.85868 0.42915 0.8082 0.0
H1570 H 0.8633 0.50726 0.7439 0.0
H1571 H 0.86592 0.4814 0.75227 0.0
C1572 C 0.60585 0.4885 0.83107 0.0
C1573 C 0.60657 0.49713 0.87878 0.0
C1574 C 0.59212 0.47154 0.82163 0.0
C1575 C 0.54665 0.44261 0.86023 0.0
H1576 H 0.55281 0.40469 0.81147 0.0
C1577 C 0.48985 0.37186 0.86283 0.0
C1578 C 0.48882 0.36063 0.82188 0.0
C1579 C 0.5045 0.38842 0.86782 0.0
C1580 C 0.55079 0.41517 0.82432 0.0
H1581 H 0.59366 0.49424 0.95476 0.0
H1582 H 0.57004 0.46513 0.93801 0.0
H1583 H 0.57811 0.43371 0.82163 0.0
H1584 H 0.50234 0.35812 0.7536 0.0
H1585 H 0.52756 0.38705 0.76136 0.0
H1586 H 0.51944 0.42439 0.86232 0.0
C1587 C 0.5799 0.47145 0.90767 0.0
C1588 C 0.56533 0.4318 0.8302 0.0
C1589 C 0.59358 0.48818 0.91729 0.0
C1590 C 0.50274 0.36638 0.78591 0.0
C1591 C 0.51731 0.38298 0.79057 0.0
C1592 C 0.53214 0.42609 0.85384 0.0
C1593 C 0.5788 0.46303 0.85946 0.0
C1594 C 0.56343 0.44563 0.84901 0.0
C1595 C 0.51843 0.39427 0.83161 0.0
C1596 C 0.53398 0.41205 0.83652 0.0
H1597 H 0.6156 0.49498 0.80055 0.0
H1598 H 0.5916 0.46532 0.78408 0.0
H1599 H 0.54474 0.45308 0.87399 0.0
H1600 H 0.4794 0.36782 0.89134 0.0
H1601 H 0.50496 0.39656 0.90055 0.0
C1602 C 0.15206 0.21841 0.4074 0.0
C1603 C 0.16334 0.2232 0.45125 0.0
C1604 C 0.13491 0.21463 0.41384 0.0
C1605 C 0.10908 0.22699 0.49311 0.0
H1606 H 0.06936 0.18664 0.43222 0.0
C1607 C 0.0397 0.21705 0.51032 0.0
C1608 C 0.028 0.20863 0.46839 0.0
C1609 C 0.05583 0.21787 0.51149 0.0
C1610 C 0.0803 0.19815 0.44876 0.0
H1611 H 0.16542 0.22745 0.53645 0.0
H1612 H 0.1354 0.22125 0.54753 0.0
H1613 H 0.09791 0.18908 0.429 0.0
H1614 H 0.02425 0.19484 0.3941 0.0
H1615 H 0.05261 0.19698 0.39457 0.0
H1616 H 0.0919 0.23663 0.51043 0.0
C1617 C 0.13986 0.22022 0.50832 0.0
C1618 C 0.09664 0.19942 0.44734 0.0
C1619 C 0.15696 0.22362 0.50205 0.0
C1620 C 0.03292 0.2013 0.4272 0.0
C1621 C 0.04918 0.2024 0.42782 0.0
C1622 C 0.09281 0.2259 0.49365 0.0
C1623 C 0.12876 0.21592 0.46411 0.0
C1624 C 0.1112 0.21389 0.46928 0.0
C1625 C 0.06085 0.21056 0.47023 0.0
C1626 C 0.07816 0.21151 0.47115 0.0
H1627 H 0.15665 0.21802 0.36776 0.0
H1628 H 0.12667 0.21145 0.37906 0.0
H1629 H 0.12015 0.23841 0.50964 0.0
H1630 H 0.03623 0.2227 0.54294 0.0
H1631 H 0.06422 0.22399 0.54536 0.0
C1632 C 0.78841 0.82199 0.46852 0.0
C1633 C 0.79747 0.82045 0.51203 0.0
C1634 C 0.78679 0.83678 0.46248 0.0
C1635 C 0.80567 0.88271 0.50821 0.0
H1636 H 0.76297 0.87746 0.44988 0.0
C1637 C 0.7882 0.9382 0.49792 0.0
C1638 C 0.78066 0.93919 0.44976 0.0
C1639 C 0.79135 0.92442 0.50725 0.0
C1640 C 0.77503 0.87916 0.46594 0.0
H1641 H 0.81175 0.83321 0.58373 0.0
H1642 H 0.80857 0.85872 0.57395 0.0
H1643 H 0.76585 0.85191 0.46303 0.0
H1644 H 0.77141 0.92687 0.37269 0.0
H1645 H 0.77683 0.90314 0.3891 0.0
H1646 H 0.81465 0.91006 0.51166 0.0
C1647 C 0.80305 0.84873 0.54371 0.0
C1648 C 0.77672 0.8645 0.47327 0.0
C1649 C 0.80478 0.83401 0.5495 0.0
C1650 C 0.77705 0.92651 0.41054 0.0
C1651 C 0.78007 0.91279 0.41997 0.0
C1652 C 0.8039 0.8974 0.50128 0.0
C1653 C 0.79405 0.85035 0.50008 0.0
C1654 C 0.79214 0.86605 0.4939 0.0
C1655 C 0.78689 0.91134 0.46877 0.0
C1656 C 0.78863 0.8958 0.47938 0.0
H1657 H 0.7827 0.81183 0.43878 0.0
H1658 H 0.78002 0.83764 0.42786 0.0
H1659 H 0.81782 0.88448 0.52365 0.0
H1660 H 0.79113 0.94771 0.52901 0.0
H1661 H 0.79665 0.92363 0.54527 0.0
C1662 C 0.06829 0.8568 0.4205 0.0
C1663 C 0.06353 0.84477 0.4623 0.0
C1664 C 0.08171 0.87392 0.42703 0.0
C1665 C 0.12256 0.898 0.49568 0.0
H1666 H 0.12165 0.93892 0.44705 0.0
C1667 C 0.18364 0.9663 0.5065 0.0
C1668 C 0.1861 0.9784 0.46658 0.0
C1669 C 0.16812 0.95041 0.50959 0.0
C1670 C 0.12225 0.92762 0.46009 0.0
H1671 H 0.06866 0.84131 0.54427 0.0
H1672 H 0.09252 0.87131 0.55543 0.0
H1673 H 0.09489 0.91085 0.44802 0.0
H1674 H 0.17437 0.98307 0.39768 0.0
H1675 H 0.14767 0.95508 0.40138 0.0
H1676 H 0.14994 0.91436 0.5052 0.0
C1677 C 0.08566 0.86747 0.51784 0.0
C1678 C 0.10684 0.91157 0.46114 0.0
C1679 C 0.07193 0.85039 0.51165 0.0
C1680 C 0.17284 0.97408 0.42912 0.0
C1681 C 0.15742 0.95805 0.43165 0.0
C1682 C 0.13802 0.91398 0.4938 0.0
C1683 C 0.09092 0.87927 0.47516 0.0
C1684 C 0.10686 0.89659 0.47869 0.0
C1685 C 0.15474 0.94603 0.47228 0.0
C1686 C 0.13814 0.92904 0.47562 0.0
H1687 H 0.06207 0.85277 0.38196 0.0
H1688 H 0.08554 0.88268 0.39338 0.0
H1689 H 0.123 0.8866 0.50852 0.0
H1690 H 0.19353 0.96928 0.53632 0.0
H1691 H 0.16654 0.94173 0.54201 0.0
C1692 C 0.13699 0.36495 0.26017 0.0
C1693 C 0.13622 0.37514 0.30166 0.0
C1694 C 0.14437 0.3545 0.26849 0.0
C1695 C 0.15817 0.33438 0.3719 0.0
H1696 H 0.19026 0.33696 0.2628 0.0
C1697 C 0.2023 0.30509 0.40417 0.0
C1698 C 0.20332 0.29523 0.36207 0.0
C1699 C 0.19481 0.31548 0.39643 0.0
C1700 C 0.18123 0.33597 0.29339 0.0
H1701 H 0.14171 0.38161 0.38526 0.0
H1702 H 0.15467 0.36336 0.39978 0.0
H1703 H 0.17454 0.35267 0.25101 0.0
H1704 H 0.19808 0.28922 0.27814 0.0
H1705 H 0.1849 0.3073 0.26468 0.0
H1706 H 0.16483 0.31765 0.41423 0.0
C1707 C 0.14954 0.36345 0.36079 0.0
C1708 C 0.17218 0.34493 0.2866 0.0
C1709 C 0.14214 0.37393 0.35246 0.0
C1710 C 0.19746 0.29664 0.3114 0.0
C1711 C 0.18995 0.30704 0.30367 0.0
C1712 C 0.1672 0.3254 0.37866 0.0
C1713 C 0.15114 0.35398 0.31851 0.0
C1714 C 0.16053 0.34422 0.32573 0.0
C1715 C 0.18817 0.31626 0.34642 0.0
C1716 C 0.17884 0.32609 0.33949 0.0
H1717 H 0.13238 0.36543 0.22067 0.0
H1718 H 0.14504 0.34704 0.23543 0.0
H1719 H 0.14915 0.33342 0.40247 0.0
H1720 H 0.20683 0.30441 0.44362 0.0
H1721 H 0.19399 0.32272 0.42989 0.0
C1722 C 0.70545 0.9021 0.31277 0.0
C1723 C 0.70866 0.90905 0.36444 0.0
C1724 C 0.69459 0.88428 0.30473 0.0
C1725 C 0.66131 0.84367 0.36951 0.0
H1726 H 0.67833 0.82184 0.27159 0.0
C1727 C 0.6297 0.76917 0.35415 0.0
C1728 C 0.62631 0.76244 0.30219 0.0
C1729 C 0.64034 0.78701 0.36268 0.0
C1730 C 0.67335 0.82776 0.2988 0.0
H1731 H 0.70225 0.90292 0.44788 0.0
H1732 H 0.68348 0.87191 0.43389 0.0
H1733 H 0.69445 0.85328 0.28289 0.0
H1734 H 0.63209 0.76899 0.21868 0.0
H1735 H 0.65059 0.79999 0.2336 0.0
H1736 H 0.64023 0.8181 0.38549 0.0
C1737 C 0.68926 0.88018 0.39953 0.0
C1738 C 0.68253 0.84578 0.30508 0.0
C1739 C 0.70009 0.89798 0.40755 0.0
C1740 C 0.6344 0.77377 0.25921 0.0
C1741 C 0.64507 0.79155 0.26775 0.0
C1742 C 0.65215 0.82563 0.36329 0.0
C1743 C 0.68671 0.87306 0.34818 0.0
C1744 C 0.6766 0.85395 0.34042 0.0
C1745 C 0.64789 0.79842 0.31947 0.0
C1746 C 0.65805 0.81749 0.32779 0.0
H1747 H 0.71174 0.91032 0.27866 0.0
H1748 H 0.6926 0.87923 0.26455 0.0
H1749 H 0.6563 0.84958 0.39664 0.0
H1750 H 0.62368 0.76076 0.38809 0.0
H1751 H 0.6425 0.79191 0.40306 0.0
C1752 C 0.23486 0.87184 0.26162 0.0
C1753 C 0.24592 0.87374 0.30417 0.0
C1754 C 0.2172 0.86545 0.27035 0.0
C1755 C 0.18421 0.85686 0.37282 0.0
H1756 H 0.15363 0.82016 0.27626 0.0
C1757 C 0.11107 0.81479 0.4139 0.0
C1758 C 0.09982 0.81146 0.37065 0.0
C1759 C 0.12889 0.8221 0.40576 0.0
C1760 C 0.16197 0.83051 0.3032 0.0
H1761 H 0.2474 0.87156 0.38972 0.0
H1762 H 0.21646 0.86035 0.40498 0.0
H1763 H 0.18492 0.8349 0.26246 0.0
H1764 H 0.09834 0.81256 0.28474 0.0
H1765 H 0.12951 0.8255 0.2705 0.0
H1766 H 0.16125 0.85252 0.41348 0.0
C1767 C 0.22147 0.86376 0.36484 0.0
C1768 C 0.17989 0.83898 0.29528 0.0
C1769 C 0.23917 0.87014 0.35609 0.0
C1770 C 0.10668 0.81497 0.31887 0.0
C1771 C 0.12454 0.82234 0.31073 0.0
C1772 C 0.16627 0.84844 0.38066 0.0
C1773 C 0.21024 0.86088 0.32181 0.0
C1774 C 0.1912 0.85224 0.32997 0.0
C1775 C 0.13587 0.82628 0.35419 0.0
C1776 C 0.15494 0.83514 0.34598 0.0
H1777 H 0.23968 0.87469 0.22118 0.0
H1778 H 0.20892 0.86373 0.23658 0.0
H1779 H 0.1926 0.86715 0.39988 0.0
H1780 H 0.10618 0.81209 0.45429 0.0
H1781 H 0.13722 0.82462 0.43997 0.0
C1782 C 0.81009 0.70918 0.69159 0.0
C1783 C 0.80436 0.71028 0.64042 0.0
C1784 C 0.81738 0.69865 0.70081 0.0
C1785 C 0.82217 0.66281 0.64364 0.0
H1786 H 0.86577 0.68441 0.72084 0.0
C1787 C 0.86645 0.63285 0.6452 0.0
C1788 C 0.87284 0.63172 0.69525 0.0
C1789 C 0.85869 0.64306 0.63838 0.0
C1790 C 0.85354 0.67814 0.69956 0.0
H1791 H 0.80069 0.70036 0.55973 0.0
H1792 H 0.81338 0.68211 0.57577 0.0
H1793 H 0.84934 0.69955 0.7127 0.0
H1794 H 0.87708 0.64123 0.77653 0.0
H1795 H 0.86354 0.65894 0.76463 0.0
H1796 H 0.82639 0.64143 0.6303 0.0
C1797 C 0.8123 0.68934 0.60879 0.0
C1798 C 0.84409 0.68677 0.69515 0.0
C1799 C 0.8051 0.69989 0.59954 0.0
C1800 C 0.87221 0.64176 0.73748 0.0
C1801 C 0.8645 0.65198 0.73064 0.0
C1802 C 0.83162 0.65418 0.64805 0.0
C1803 C 0.81893 0.68894 0.65915 0.0
C1804 C 0.82834 0.67923 0.66691 0.0
C1805 C 0.85725 0.65239 0.6814 0.0
C1806 C 0.84746 0.66179 0.67583 0.0
H1807 H 0.80961 0.71699 0.72392 0.0
H1808 H 0.82213 0.69837 0.74028 0.0
H1809 H 0.80998 0.65657 0.62216 0.0
H1810 H 0.86683 0.62535 0.6118 0.0
H1811 H 0.85352 0.6434 0.59966 0.0
C1812 C 0.29618 0.1032 0.68632 0.0
C1813 C 0.29345 0.09622 0.63474 0.0
C1814 C 0.30692 0.12104 0.69446 0.0
C1815 C 0.32421 0.16263 0.62249 0.0
H1816 H 0.35484 0.18143 0.74419 0.0
C1817 C 0.37517 0.23559 0.64651 0.0
C1818 C 0.37766 0.24264 0.69795 0.0
C1819 C 0.36412 0.2178 0.63829 0.0
C1820 C 0.34618 0.17637 0.71033 0.0
H1821 H 0.30058 0.10231 0.55169 0.0
H1822 H 0.3195 0.13329 0.56605 0.0
H1823 H 0.33805 0.15007 0.73146 0.0
H1824 H 0.36972 0.23676 0.78054 0.0
H1825 H 0.35037 0.20585 0.76603 0.0
H1826 H 0.33244 0.18896 0.60126 0.0
C1827 C 0.31302 0.12509 0.60003 0.0
C1828 C 0.33658 0.1584 0.70303 0.0
C1829 C 0.30227 0.1073 0.59189 0.0
C1830 C 0.36823 0.23171 0.74047 0.0
C1831 C 0.35723 0.21397 0.73228 0.0
C1832 C 0.33384 0.18061 0.62974 0.0
C1833 C 0.31517 0.13223 0.65121 0.0
C1834 C 0.3255 0.15133 0.65898 0.0
C1835 C 0.35537 0.20675 0.68135 0.0
C1836 C 0.34491 0.18767 0.67377 0.0
H1837 H 0.28954 0.09499 0.72014 0.0
H1838 H 0.30824 0.12614 0.73438 0.0
H1839 H 0.31554 0.15759 0.58865 0.0
H1840 H 0.38222 0.24369 0.61291 0.0
H1841 H 0.36297 0.2126 0.59858 0.0
C1842 C 0.90471 0.19873 0.68984 0.0
C1843 C 0.91195 0.20481 0.6393 0.0
C1844 C 0.8868 0.19114 0.69758 0.0
C1845 C 0.84606 0.16822 0.62172 0.0
H1846 H 0.82531 0.17441 0.74936 0.0
C1847 C 0.77217 0.14148 0.64666 0.0
C1848 C 0.76507 0.13545 0.69739 0.0
C1849 C 0.79007 0.14916 0.63851 0.0
C1850 C 0.83093 0.17237 0.71376 0.0
H1851 H 0.90634 0.20891 0.55829 0.0
H1852 H 0.87521 0.19594 0.57205 0.0
H1853 H 0.85675 0.19082 0.73844 0.0
H1854 H 0.77093 0.1315 0.77826 0.0
H1855 H 0.80203 0.14462 0.76379 0.0
H1856 H 0.82023 0.14976 0.59707 0.0
C1857 C 0.88327 0.19659 0.60531 0.0
C1858 C 0.84893 0.18181 0.70749 0.0
C1859 C 0.90112 0.20414 0.59757 0.0
C1860 C 0.77604 0.13625 0.73886 0.0
C1861 C 0.79388 0.14388 0.73071 0.0
C1862 C 0.82805 0.15877 0.628 0.0
C1863 C 0.87584 0.18956 0.65495 0.0
C1864 C 0.8567 0.17985 0.66139 0.0
C1865 C 0.80116 0.15089 0.6809 0.0
C1866 C 0.82029 0.16071 0.67415 0.0
H1867 H 0.91273 0.19909 0.72279 0.0
H1868 H 0.88146 0.18581 0.7363 0.0
H1869 H 0.85168 0.16618 0.58614 0.0
H1870 H 0.76402 0.14101 0.61392 0.0
H1871 H 0.7953 0.15446 0.59966 0.0
C1872 C 0.47161 0.03152 0.92609 0.0
C1873 C 0.46997 0.04112 0.96779 0.0
C1874 C 0.47815 0.0204 0.93569 0.0
C1875 C 0.50646 0.01471 0.02978 0.0
H1876 H 0.49055 0.9712 0.95485 0.0
C1877 C 0.53092 0.96703 0.07675 0.0
C1878 C 0.53353 0.95843 0.03392 0.0
C1879 C 0.52372 0.97763 0.06836 0.0
C1880 C 0.49528 0.98343 0.97552 0.0
H1881 H 0.47273 0.04571 0.05291 0.0
H1882 H 0.48394 0.02606 0.06985 0.0
H1883 H 0.47511 0.98722 0.9435 0.0
H1884 H 0.53139 0.95482 0.94836 0.0
H1885 H 0.51887 0.97349 0.93364 0.0
H1886 H 0.52661 0.01089 0.06186 0.0
C1887 C 0.48055 0.02746 0.02949 0.0
C1888 C 0.48639 0.99257 0.96922 0.0
C1889 C 0.47401 0.03861 0.01986 0.0
C1890 C 0.52949 0.96124 0.98217 0.0
C1891 C 0.52219 0.9718 0.97381 0.0
C1892 C 0.51532 0.00554 0.03618 0.0
C1893 C 0.48312 0.01859 0.98727 0.0
C1894 C 0.49191 0.00834 0.99616 0.0
C1895 C 0.51892 0.97983 0.01698 0.0
C1896 C 0.50985 0.98984 0.00901 0.0
H1897 H 0.46853 0.03309 0.88552 0.0
H1898 H 0.48004 0.01386 0.90222 0.0
H1899 H 0.51127 0.02698 0.05028 0.0
H1900 H 0.53394 0.96517 0.11711 0.0
H1901 H 0.52127 0.98355 0.10247 0.0
C1902 C 0.03424 0.56607 0.07779 0.0
C1903 C 0.04328 0.57751 0.03585 0.0
C1904 C 0.0235 0.54836 0.06817 0.0
C1905 C 0.99999 0.51585 0.96363 0.0
H1906 H 0.00564 0.48485 0.05965 0.0
C1907 C 0.96897 0.44293 0.91929 0.0
C1908 C 0.96071 0.43147 0.96185 0.0
C1909 C 0.9796 0.46068 0.92841 0.0
C1910 C 0.00377 0.49331 0.03281 0.0
H1911 H 0.0474 0.57951 0.9505 0.0
H1912 H 0.02859 0.54849 0.93367 0.0
H1913 H 0.02204 0.5161 0.07493 0.0
H1914 H 0.95768 0.42953 0.04761 0.0
H1915 H 0.97615 0.46061 0.06357 0.0
H1916 H 0.98165 0.49307 0.92166 0.0
C1917 C 0.02985 0.55325 0.97402 0.0
C1918 C 0.01315 0.51121 0.04158 0.0
C1919 C 0.04065 0.571 0.98366 0.0
C1920 C 0.96389 0.43804 0.01399 0.0
C1921 C 0.9745 0.45585 0.02312 0.0
C1922 C 0.99057 0.49794 0.95494 0.0
C1923 C 0.0215 0.54169 0.01639 0.0
C1924 C 0.01135 0.52268 0.00712 0.0
C1925 C 0.98219 0.46741 0.9803 0.0
C1926 C 0.99237 0.48646 0.98939 0.0
H1927 H 0.03584 0.57067 0.11843 0.0
H1928 H 0.01695 0.53983 0.10147 0.0
H1929 H 0.99818 0.52435 0.93676 0.0
H1930 H 0.96692 0.43826 0.87865 0.0
H1931 H 0.98564 0.46918 0.89467 0.0
C1932 C 0.44235 0.47496 0.07209 0.0
C1933 C 0.43121 0.47247 0.02919 0.0
C1934 C 0.46019 0.48246 0.06404 0.0
C1935 C 0.49441 0.5119 0.97275 0.0
H1936 H 0.52243 0.49653 0.04784 0.0
C1937 C 0.56693 0.53776 0.92801 0.0
C1938 C 0.57792 0.53951 0.97061 0.0
C1939 C 0.54914 0.53072 0.93619 0.0
C1940 C 0.51481 0.50115 0.02723 0.0
H1941 H 0.42989 0.47507 0.94378 0.0
H1942 H 0.46115 0.4881 0.92962 0.0
H1943 H 0.49096 0.4804 0.05769 0.0
H1944 H 0.57911 0.53645 0.05586 0.0
H1945 H 0.54802 0.52435 0.07027 0.0
H1946 H 0.51828 0.53267 0.94234 0.0
C1947 C 0.45606 0.48447 0.96961 0.0
C1948 C 0.49678 0.49184 0.03265 0.0
C1949 C 0.43817 0.47688 0.97764 0.0
C1950 C 0.57094 0.5351 0.02213 0.0
C1951 C 0.55312 0.52805 0.03032 0.0
C1952 C 0.51246 0.52122 0.96738 0.0
C1953 C 0.46728 0.48766 0.01291 0.0
C1954 C 0.48638 0.49711 0.00547 0.0
C1955 C 0.54197 0.52533 0.98718 0.0
C1956 C 0.52286 0.51595 0.99458 0.0
H1957 H 0.43738 0.47163 0.11229 0.0
H1958 H 0.46848 0.48483 0.09825 0.0
H1959 H 0.48676 0.51646 0.95207 0.0
H1960 H 0.57191 0.54112 0.88784 0.0
H1961 H 0.54091 0.52874 0.90208 0.0
C1962 C 0.10711 0.40593 0.91964 0.0
C1963 C 0.11697 0.41956 0.9553 0.0
C1964 C 0.10815 0.40889 0.86497 0.0
C1965 C 0.12118 0.44242 0.76177 0.0
H1966 H 0.12713 0.40949 0.67582 0.0
C1967 C 0.13765 0.45389 0.53833 0.0
C1968 C 0.12942 0.4395 0.50412 0.0
C1969 C 0.13643 0.45168 0.59345 0.0
C1970 C 0.12526 0.41868 0.69907 0.0
H1971 H 0.13537 0.44721 0.96099 0.0
H1972 H 0.13695 0.45239 0.8652 0.0
H1973 H 0.12376 0.40552 0.7718 0.0
H1974 H 0.11318 0.41144 0.50122 0.0
H1975 H 0.11095 0.40759 0.59739 0.0
H1976 H 0.12247 0.45548 0.68899 0.0
C1977 C 0.12835 0.43941 0.87998 0.0
C1978 C 0.12335 0.41642 0.75411 0.0
C1979 C 0.12737 0.43643 0.93494 0.0
C1980 C 0.12002 0.42279 0.52633 0.0
C1981 C 0.11871 0.42059 0.58156 0.0
C1982 C 0.12298 0.44463 0.7066 0.0
C1983 C 0.11906 0.42557 0.84443 0.0
C1984 C 0.12124 0.42822 0.78604 0.0
C1985 C 0.1268 0.43503 0.6158 0.0
C1986 C 0.12502 0.43277 0.67455 0.0
H1987 H 0.09881 0.39281 0.9339 0.0
H1988 H 0.10056 0.39804 0.83863 0.0
H1989 H 0.11942 0.45162 0.78533 0.0
H1990 H 0.14507 0.46693 0.52247 0.0
H1991 H 0.14311 0.46306 0.61853 0.0
C1992 C 0.60253 0.70768 0.92957 0.0
C1993 C 0.58907 0.7034 0.96646 0.0
C1994 C 0.59947 0.70708 0.87498 0.0
C1995 C 0.56523 0.68765 0.77412 0.0
H1996 H 0.59834 0.7256 0.68577 0.0
C1997 C 0.55279 0.69049 0.55094 0.0
C1998 C 0.5669 0.69561 0.51618 0.0
C1999 C 0.55537 0.69256 0.60581 0.0
C2000 C 0.58906 0.71481 0.70975 0.0
H2001 H 0.56167 0.6953 0.97371 0.0
H2002 H 0.55632 0.69389 0.87835 0.0
H2003 H 0.60283 0.72656 0.78174 0.0
H2004 H 0.59488 0.70703 0.51194 0.0
H2005 H 0.59938 0.71048 0.60788 0.0
H2006 H 0.55163 0.6757 0.7023 0.0
C2007 C 0.56925 0.69759 0.89216 0.0
C2008 C 0.59162 0.71538 0.76475 0.0
C2009 C 0.57234 0.6983 0.94699 0.0
C2010 C 0.58375 0.70324 0.5375 0.0
C2011 C 0.58632 0.70519 0.59259 0.0
C2012 C 0.56272 0.68702 0.71911 0.0
C2013 C 0.58283 0.70213 0.85564 0.0
C2014 C 0.57977 0.70177 0.79748 0.0
C2015 C 0.57212 0.69963 0.62746 0.0
C2016 C 0.57463 0.70057 0.68618 0.0
H2017 H 0.61557 0.71156 0.94278 0.0
H2018 H 0.61013 0.71038 0.84783 0.0
H2019 H 0.556 0.67687 0.79824 0.0
H2020 H 0.53966 0.6847 0.53571 0.0
H2021 H 0.54417 0.68848 0.63131 0.0
C2022 C 0.31713 0.88582 0.93929 0.0
C2023 C 0.30115 0.88204 0.96181 0.0
C2024 C 0.31848 0.88395 0.88443 0.0
C2025 C 0.29608 0.88254 0.75859 0.0
H2026 H 0.32653 0.86767 0.69745 0.0
C2027 C 0.2987 0.87171 0.53236 0.0
C2028 C 0.31538 0.87856 0.51003 0.0
C2029 C 0.29652 0.87123 0.58762 0.0
C2030 C 0.31805 0.87195 0.714 0.0
H2031 H 0.27394 0.87248 0.94515 0.0
H2032 H 0.27616 0.86874 0.85025 0.0
H2033 H 0.32358 0.86793 0.79399 0.0
H2034 H 0.34281 0.89027 0.52909 0.0
H2035 H 0.33893 0.88934 0.62484 0.0
H2036 H 0.29053 0.88653 0.67863 0.0
C2037 C 0.28777 0.87365 0.87434 0.0
C2038 C 0.31638 0.87213 0.76931 0.0
C2039 C 0.28647 0.87569 0.92884 0.0
C2040 C 0.32974 0.8848 0.54455 0.0
C2041 C 0.32755 0.88422 0.59961 0.0
C2042 C 0.29766 0.88226 0.70337 0.0
C2043 C 0.30386 0.87815 0.85116 0.0
C2044 C 0.30542 0.8775 0.79232 0.0
C2045 C 0.31093 0.87743 0.62181 0.0
C2046 C 0.30874 0.87706 0.68046 0.0
H2047 H 0.32872 0.89097 0.96355 0.0
H2048 H 0.33111 0.88769 0.86788 0.0
H2049 H 0.28779 0.8871 0.77483 0.0
H2050 H 0.28723 0.86635 0.50759 0.0
H2051 H 0.28352 0.86572 0.60365 0.0
C2052 C 0.86868 0.55193 0.45678 0.0
C2053 C 0.87715 0.56649 0.49022 0.0
C2054 C 0.86935 0.55387 0.40157 0.0
C2055 C 0.87993 0.58647 0.2947 0.0
H2056 H 0.88583 0.55344 0.2091 0.0
C2057 C 0.9003 0.59972 0.07605 0.0
C2058 C 0.89057 0.5864 0.03932 0.0
C2059 C 0.89849 0.59649 0.13056 0.0
C2060 C 0.88403 0.56266 0.23248 0.0
H2061 H 0.89317 0.59457 0.4917 0.0
H2062 H 0.89451 0.59797 0.39543 0.0
H2063 H 0.88262 0.54963 0.30543 0.0
H2064 H 0.87155 0.55896 0.03178 0.0
H2065 H 0.86868 0.55328 0.12741 0.0
H2066 H 0.88172 0.59968 0.22179 0.0
C2067 C 0.88696 0.58503 0.41189 0.0
C2068 C 0.88213 0.56047 0.28765 0.0
C2069 C 0.88616 0.5831 0.4672 0.0
C2070 C 0.87947 0.56951 0.05862 0.0
C2071 C 0.87774 0.56625 0.11348 0.0
C2072 C 0.88196 0.58872 0.23969 0.0
C2073 C 0.87869 0.57042 0.37836 0.0
C2074 C 0.88016 0.57242 0.31949 0.0
C2075 C 0.88694 0.57982 0.14993 0.0
C2076 C 0.88417 0.57692 0.20806 0.0
H2077 H 0.86155 0.53896 0.47333 0.0
H2078 H 0.86256 0.54236 0.37708 0.0
H2079 H 0.87809 0.59572 0.31774 0.0
H2080 H 0.90913 0.61284 0.06273 0.0
H2081 H 0.90601 0.60712 0.15769 0.0
C2082 C 0.45636 0.3199 0.45974 0.0
C2083 C 0.44195 0.31383 0.49379 0.0
C2084 C 0.45422 0.319 0.40459 0.0
C2085 C 0.42118 0.29782 0.29843 0.0
H2086 H 0.45458 0.33655 0.21303 0.0
C2087 C 0.40827 0.30486 0.07932 0.0
C2088 C 0.42159 0.30814 0.04295 0.0
C2089 C 0.41145 0.3065 0.13389 0.0
C2090 C 0.44524 0.32559 0.23636 0.0
H2091 H 0.41393 0.30224 0.49641 0.0
H2092 H 0.41019 0.30083 0.40023 0.0
H2093 H 0.45847 0.33694 0.3093 0.0
H2094 H 0.44898 0.3163 0.03601 0.0
H2095 H 0.45456 0.31948 0.13169 0.0
H2096 H 0.40782 0.28664 0.22554 0.0
C2097 C 0.42315 0.3059 0.41615 0.0
C2098 C 0.44747 0.32576 0.29149 0.0
C2099 C 0.42528 0.30668 0.4714 0.0
C2100 C 0.43844 0.31391 0.06258 0.0
C2101 C 0.44163 0.31564 0.11747 0.0
C2102 C 0.41889 0.29773 0.24346 0.0
C2103 C 0.43762 0.31218 0.38204 0.0
C2104 C 0.43543 0.31189 0.32325 0.0
C2105 C 0.42805 0.31152 0.15365 0.0
C2106 C 0.43084 0.31164 0.21188 0.0
H2107 H 0.46937 0.3254 0.47576 0.0
H2108 H 0.46562 0.32364 0.37964 0.0
H2109 H 0.41184 0.28677 0.32139 0.0
H2110 H 0.39519 0.3006 0.06568 0.0
H2111 H 0.4008 0.30358 0.16077 0.0
C2112 C 0.70631 0.10772 0.08475 0.0
C2113 C 0.70161 0.11673 0.04857 0.0
C2114 C 0.70399 0.10854 0.13923 0.0
C2115 C 0.68093 0.11834 0.24165 0.0
H2116 H 0.72141 0.12909 0.32726 0.0
C2117 C 0.68324 0.13165 0.46723 0.0
C2118 C 0.69116 0.12476 0.49987 0.0
C2119 C 0.68459 0.13144 0.41192 0.0
C2120 C 0.70991 0.12587 0.30412 0.0
H2121 H 0.69011 0.1332 0.04169 0.0
H2122 H 0.68574 0.13434 0.13737 0.0
H2123 H 0.72256 0.12646 0.23116 0.0
H2124 H 0.70644 0.11189 0.49983 0.0
H2125 H 0.70862 0.11131 0.40345 0.0
H2126 H 0.66813 0.11738 0.3147 0.0
C2127 C 0.69125 0.12665 0.12302 0.0
C2128 C 0.7106 0.12442 0.24903 0.0
C2129 C 0.69367 0.1259 0.06818 0.0
C2130 C 0.70053 0.11769 0.47596 0.0
C2131 C 0.70176 0.11734 0.42059 0.0
C2132 C 0.68018 0.11965 0.29695 0.0
C2133 C 0.69684 0.11835 0.15905 0.0
C2134 C 0.69608 0.12048 0.21728 0.0
C2135 C 0.69372 0.12413 0.38786 0.0
C2136 C 0.69464 0.12331 0.3289 0.0
H2137 H 0.71224 0.10033 0.07107 0.0
H2138 H 0.70808 0.10173 0.16603 0.0
H2139 H 0.66953 0.11521 0.2181 0.0
H2140 H 0.67598 0.13726 0.4845 0.0
H2141 H 0.67849 0.13705 0.38806 0.0
C2142 C 0.79939 0.76591 0.85957 0.0
C2143 C 0.7899 0.77258 0.83396 0.0
C2144 C 0.79918 0.76456 0.91506 0.0
C2145 C 0.78933 0.78112 0.03802 0.0
H2146 H 0.78572 0.73965 0.10096 0.0
C2147 C 0.79538 0.77246 0.26534 0.0
C2148 C 0.78474 0.75573 0.28617 0.0
C2149 C 0.79563 0.77541 0.21048 0.0
C2150 C 0.78658 0.75126 0.08405 0.0
H2151 H 0.7728 0.7831 0.84693 0.0
H2152 H 0.77228 0.78053 0.94326 0.0
H2153 H 0.78718 0.74289 0.00475 0.0
H2154 H 0.76521 0.7293 0.26663 0.0
H2155 H 0.76535 0.7345 0.17164 0.0
H2156 H 0.78832 0.78928 0.11758 0.0
C2157 C 0.78009 0.77658 0.92059 0.0
C2158 C 0.78766 0.75322 0.02886 0.0
C2159 C 0.78032 0.77796 0.86525 0.0
C2160 C 0.7737 0.74229 0.25163 0.0
C2161 C 0.77387 0.74524 0.19714 0.0
C2162 C 0.78824 0.77916 0.09337 0.0
C2163 C 0.78951 0.76986 0.94621 0.0
C2164 C 0.78895 0.76812 0.00512 0.0
C2165 C 0.78522 0.76169 0.17565 0.0
C2166 C 0.7867 0.76412 0.11698 0.0
H2167 H 0.8073 0.76207 0.83708 0.0
H2168 H 0.80681 0.75959 0.93361 0.0
H2169 H 0.79053 0.79286 0.02102 0.0
H2170 H 0.8042 0.78303 0.29087 0.0
H2171 H 0.80457 0.78822 0.19514 0.0
C2172 C 0.24848 0.03014 0.86501 0.0
C2173 C 0.23242 0.02681 0.84443 0.0
C2174 C 0.25123 0.03104 0.92009 0.0
C2175 C 0.25704 0.04107 0.03685 0.0
H2176 H 0.21842 0.01176 0.12928 0.0
C2177 C 0.26254 0.05061 0.26345 0.0
C2178 C 0.25432 0.03594 0.29645 0.0
C2179 C 0.2594 0.04922 0.20879 0.0
C2180 C 0.22942 0.0199 0.10416 0.0
H2181 H 0.20682 0.02225 0.86527 0.0
H2182 H 0.21179 0.02449 0.96071 0.0
H2183 H 0.21439 0.00955 0.03342 0.0
H2184 H 0.23635 0.00822 0.29805 0.0
H2185 H 0.23117 0.00561 0.20211 0.0
H2186 H 0.27228 0.05087 0.10738 0.0
C2187 C 0.22212 0.02585 0.9348 0.0
C2188 C 0.22704 0.01884 0.04899 0.0
C2189 C 0.21931 0.02471 0.87995 0.0
C2190 C 0.24267 0.0198 0.27369 0.0
C2191 C 0.23972 0.01834 0.21865 0.0
C2192 C 0.25948 0.04198 0.09195 0.0
C2193 C 0.23804 0.02882 0.95577 0.0
C2194 C 0.24077 0.02954 0.01455 0.0
C2195 C 0.24821 0.03302 0.18536 0.0
C2196 C 0.24566 0.03155 0.12647 0.0
H2197 H 0.25874 0.03149 0.83872 0.0
H2198 H 0.26357 0.03308 0.93461 0.0
H2199 H 0.2679 0.04964 0.01187 0.0
H2200 H 0.27146 0.06326 0.27997 0.0
H2201 H 0.26581 0.06091 0.18494 0.0
C2202 C 0.98965 0.22369 0.27042 0.0
C2203 C 0.97293 0.2179 0.291 0.0
C2204 C 0.99213 0.22332 0.21538 0.0
C2205 C 0.97077 0.22278 0.08849 0.0
H2206 H 1.00182 0.20903 0.02523 0.0
C2207 C 0.97028 0.20956 0.8637 0.0
C2208 C 0.98639 0.21554 0.83833 0.0
C2209 C 0.96932 0.21035 0.9191 0.0
C2210 C 0.99324 0.21309 0.04235 0.0
H2211 H 0.94567 0.2063 0.27044 0.0
H2212 H 0.94994 0.2054 0.1755 0.0
H2213 H 0.99922 0.20919 0.12207 0.0
H2214 H 0.01411 0.22713 0.85184 0.0
H2215 H 0.01238 0.22854 0.94816 0.0
H2216 H 0.96469 0.22661 0.00911 0.0
C2217 C 0.96121 0.21068 0.20127 0.0
C2218 C 0.99177 0.21319 0.09781 0.0
C2219 C 0.95876 0.21112 0.25582 0.0
C2220 C 1.00146 0.22233 0.86989 0.0
C2221 C 1.00049 0.22309 0.92522 0.0
C2222 C 0.97222 0.22267 0.03323 0.0
C2223 C 0.97793 0.21714 0.18016 0.0
C2224 C 0.98035 0.21783 0.12147 0.0
C2225 C 0.98441 0.21706 0.95051 0.0
C2226 C 0.98334 0.21767 0.00944 0.0
H2227 H 1.00085 0.22916 0.29644 0.0
H2228 H 0.00519 0.22844 0.20028 0.0
H2229 H 0.96215 0.22682 0.10543 0.0
H2230 H 0.95831 0.20381 0.84121 0.0
H2231 H 0.95669 0.20533 0.93744 0.0
C2232 C 0.55124 0.91461 0.80192 0.0
C2233 C 0.54124 0.89781 0.82303 0.0
C2234 C 0.55247 0.91722 0.74682 0.0
C2235 C 0.54696 0.89352 0.62042 0.0
H2236 H 0.54892 0.93423 0.55725 0.0
C2237 C 0.54484 0.9031 0.39259 0.0
C2238 C 0.55646 0.91977 0.37274 0.0
C2239 C 0.54293 0.90006 0.44749 0.0
C2240 C 0.54853 0.92286 0.5744 0.0
H2241 H 0.52429 0.8707 0.80301 0.0
H2242 H 0.5261 0.8753 0.70732 0.0
H2243 H 0.54514 0.92982 0.65315 0.0
H2244 H 0.57547 0.94614 0.39552 0.0
H2245 H 0.57204 0.94079 0.49071 0.0
H2246 H 0.55021 0.88652 0.54143 0.0
C2247 C 0.53333 0.88641 0.73306 0.0
C2248 C 0.54639 0.92035 0.62935 0.0
C2249 C 0.53221 0.88379 0.78797 0.0
C2250 C 0.56628 0.93317 0.40918 0.0
C2251 C 0.5643 0.93014 0.46385 0.0
C2252 C 0.54899 0.89598 0.56542 0.0
C2253 C 0.54369 0.90311 0.71172 0.0
C2254 C 0.54564 0.90568 0.6531 0.0
C2255 C 0.55246 0.91362 0.48364 0.0
C2256 C 0.5499 0.91073 0.54187 0.0
H2257 H 0.55866 0.92566 0.82771 0.0
H2258 H 0.56075 0.93023 0.73175 0.0
H2259 H 0.54674 0.88222 0.63743 0.0
H2260 H 0.53675 0.8925 0.36614 0.0
H2261 H 0.53359 0.88721 0.46167 0.0
C2262 C 0.09122 0.64105 0.81135 0.0
C2263 C 0.1078 0.64901 0.83464 0.0
C2264 C 0.08938 0.63998 0.756 0.0
C2265 C 0.11389 0.66024 0.63205 0.0
H2266 H 0.07551 0.61996 0.56583 0.0
C2267 C 0.10552 0.64794 0.40304 0.0
C2268 C 0.08859 0.64163 0.38339 0.0
C2269 C 0.1087 0.64977 0.45794 0.0
C2270 C 0.08623 0.63135 0.58383 0.0
H2271 H 0.1354 0.66171 0.81818 0.0
H2272 H 0.13219 0.65944 0.72188 0.0
H2273 H 0.07934 0.62046 0.66186 0.0
H2274 H 0.06197 0.63322 0.40608 0.0
H2275 H 0.06755 0.63635 0.50113 0.0
H2276 H 0.12083 0.67097 0.55347 0.0
C2277 C 0.12061 0.65438 0.74618 0.0
C2278 C 0.0884 0.63166 0.63888 0.0
C2279 C 0.12245 0.65558 0.80142 0.0
C2280 C 0.07513 0.6379 0.41972 0.0
C2281 C 0.07829 0.63962 0.47428 0.0
C2282 C 0.11179 0.65985 0.57682 0.0
C2283 C 0.10407 0.64675 0.72271 0.0
C2284 C 0.10216 0.64617 0.6638 0.0
C2285 C 0.09501 0.6452 0.49406 0.0
C2286 C 0.09781 0.64549 0.55227 0.0
H2287 H 0.07967 0.63621 0.83568 0.0
H2288 H 0.07645 0.63427 0.73935 0.0
H2289 H 0.12449 0.67173 0.64992 0.0
H2290 H 0.11617 0.6507 0.37649 0.0
H2291 H 0.12172 0.65405 0.47222 0.0
C2292 C 0.3706 0.43646 0.40481 0.0
C2293 C 0.36739 0.44659 0.36854 0.0
C2294 C 0.36903 0.438 0.45949 0.0
C2295 C 0.3697 0.46858 0.5601 0.0
H2296 H 0.35223 0.42849 0.65309 0.0
C2297 C 0.35614 0.47117 0.78357 0.0
C2298 C 0.36108 0.46221 0.81917 0.0
C2299 C 0.35725 0.46953 0.72871 0.0
C2300 C 0.35733 0.43983 0.62767 0.0
H2301 H 0.35986 0.46632 0.36222 0.0
H2302 H 0.3566 0.46857 0.45756 0.0
H2303 H 0.35216 0.42459 0.55705 0.0
H2304 H 0.37096 0.44433 0.82471 0.0
H2305 H 0.37303 0.44158 0.72862 0.0
H2306 H 0.37469 0.48378 0.63088 0.0
C2307 C 0.36055 0.45956 0.44344 0.0
C2308 C 0.35727 0.43761 0.5726 0.0
C2309 C 0.36217 0.45806 0.38854 0.0
C2310 C 0.36733 0.45166 0.79853 0.0
C2311 C 0.36831 0.44991 0.74346 0.0
C2312 C 0.36967 0.47079 0.61516 0.0
C2313 C 0.36417 0.4497 0.47961 0.0
C2314 C 0.36352 0.45197 0.5381 0.0
C2315 C 0.36317 0.45875 0.70799 0.0
C2316 C 0.36353 0.45645 0.64956 0.0
H2317 H 0.37462 0.42746 0.39103 0.0
H2318 H 0.37214 0.43035 0.48605 0.0
H2319 H 0.37491 0.47997 0.53486 0.0
H2320 H 0.35128 0.4794 0.79815 0.0
H2321 H 0.35304 0.47637 0.70247 0.0
C2322 C 0.43707 0.07192 0.58461 0.0
C2323 C 0.44812 0.08527 0.61951 0.0
C2324 C 0.43771 0.0748 0.52989 0.0
C2325 C 0.45338 0.1088 0.42596 0.0
H2326 H 0.45348 0.07295 0.33814 0.0
C2327 C 0.47295 0.12002 0.20466 0.0
C2328 C 0.46365 0.10637 0.16849 0.0
C2329 C 0.4703 0.11736 0.25938 0.0
C2330 C 0.45322 0.08298 0.36191 0.0
H2331 H 0.46824 0.11238 0.62388 0.0
H2332 H 0.46928 0.11743 0.52811 0.0
H2333 H 0.44988 0.06889 0.43403 0.0
H2334 H 0.44388 0.07916 0.16214 0.0
H2335 H 0.43928 0.07451 0.25776 0.0
H2336 H 0.45679 0.12293 0.35376 0.0
C2337 C 0.45999 0.10474 0.5434 0.0
C2338 C 0.45117 0.08067 0.41697 0.0
C2339 C 0.45934 0.10185 0.59841 0.0
C2340 C 0.45158 0.08991 0.18863 0.0
C2341 C 0.44889 0.08725 0.24358 0.0
C2342 C 0.45539 0.11111 0.37081 0.0
C2343 C 0.44946 0.09111 0.50843 0.0
C2344 C 0.45127 0.09356 0.44971 0.0
C2345 C 0.45819 0.10097 0.27962 0.0
C2346 C 0.45544 0.09826 0.33811 0.0
H2347 H 0.42813 0.05904 0.59953 0.0
H2348 H 0.42914 0.06413 0.50424 0.0
H2349 H 0.4533 0.11889 0.44994 0.0
H2350 H 0.48244 0.13285 0.19072 0.0
H2351 H 0.47793 0.12814 0.2859 0.0
C2352 C 0.90779 0.367 0.6048 0.0
C2353 C 0.92442 0.37177 0.62446 0.0
C2354 C 0.90472 0.36613 0.54994 0.0
C2355 C 0.92731 0.38293 0.4221 0.0
H2356 H 0.88628 0.34406 0.36087 0.0
C2357 C 0.91819 0.37079 0.19484 0.0
C2358 C 0.90133 0.36403 0.17422 0.0
C2359 C 0.92102 0.37249 0.24987 0.0
C2360 C 0.89769 0.35515 0.37734 0.0
H2361 H 0.95075 0.37914 0.60112 0.0
H2362 H 0.94535 0.37767 0.50604 0.0
H2363 H 0.89084 0.34529 0.45674 0.0
H2364 H 0.87436 0.3543 0.19513 0.0
H2365 H 0.87934 0.3576 0.29058 0.0
H2366 H 0.93413 0.39286 0.34284 0.0
C2367 C 0.93475 0.37476 0.53307 0.0
C2368 C 0.9003 0.35582 0.43232 0.0
C2369 C 0.9378 0.37553 0.58772 0.0
C2370 C 0.88749 0.35941 0.20973 0.0
C2371 C 0.89032 0.36121 0.26453 0.0
C2372 C 0.92465 0.38232 0.36714 0.0
C2373 C 0.91822 0.37015 0.51352 0.0
C2374 C 0.91518 0.36966 0.45528 0.0
C2375 C 0.90708 0.36751 0.28541 0.0
C2376 C 0.90984 0.36839 0.34402 0.0
H2377 H 0.8972 0.3644 0.6314 0.0
H2378 H 0.89188 0.36272 0.53601 0.0
H2379 H 0.93879 0.3939 0.43873 0.0
H2380 H 0.92911 0.37416 0.16875 0.0
H2381 H 0.93407 0.37718 0.26457 0.0
C2382 C 0.63778 0.55159 0.20071 0.0
C2383 C 0.64429 0.54139 0.17911 0.0
C2384 C 0.63637 0.55268 0.2559 0.0
C2385 C 0.65386 0.54606 0.38244 0.0
H2386 H 0.61572 0.54922 0.44522 0.0
C2387 C 0.64241 0.54486 0.61078 0.0
C2388 C 0.63791 0.55697 0.63005 0.0
C2389 C 0.6433 0.54256 0.55592 0.0
C2390 C 0.62652 0.54847 0.42822 0.0
H2391 H 0.65395 0.52397 0.19856 0.0
H2392 H 0.65115 0.52556 0.29433 0.0
H2393 H 0.61641 0.54556 0.3493 0.0
H2394 H 0.63125 0.57641 0.60601 0.0
H2395 H 0.63274 0.57229 0.51116 0.0
H2396 H 0.66387 0.54887 0.46163 0.0
C2397 C 0.6475 0.53305 0.26889 0.0
C2398 C 0.62694 0.54641 0.3732 0.0
C2399 C 0.64901 0.53205 0.21389 0.0
C2400 C 0.63459 0.56683 0.59297 0.0
C2401 C 0.63538 0.56445 0.53841 0.0
C2402 C 0.65337 0.548 0.43753 0.0
C2403 C 0.64139 0.54355 0.29072 0.0
C2404 C 0.64067 0.54529 0.34951 0.0
C2405 C 0.63956 0.55218 0.5192 0.0
C2406 C 0.63978 0.54939 0.46097 0.0
H2407 H 0.63435 0.55923 0.17524 0.0
H2408 H 0.63185 0.5611 0.27127 0.0
H2409 H 0.66479 0.54553 0.36557 0.0
H2410 H 0.64473 0.53674 0.63768 0.0
H2411 H 0.64644 0.53289 0.54224 0.0
C2412 C 0.21821 0.24853 0.13227 0.0
C2413 C 0.20923 0.23183 0.15466 0.0
C2414 C 0.21908 0.25068 0.07701 0.0
C2415 C 0.21465 0.2265 0.9522 0.0
H2416 H 0.21458 0.26596 0.88683 0.0
C2417 C 0.21292 0.23593 0.72332 0.0
C2418 C 0.22423 0.2528 0.70422 0.0
C2419 C 0.21085 0.23265 0.77814 0.0
C2420 C 0.21473 0.25493 0.9046 0.0
H2421 H 0.1937 0.20436 0.13681 0.0
H2422 H 0.19481 0.20813 0.04071 0.0
H2423 H 0.21063 0.26174 0.98268 0.0
H2424 H 0.24272 0.27921 0.72819 0.0
H2425 H 0.23899 0.27345 0.82308 0.0
H2426 H 0.21858 0.21966 0.87369 0.0
C2427 C 0.20155 0.21955 0.06559 0.0
C2428 C 0.21251 0.25253 0.95955 0.0
C2429 C 0.20081 0.2174 0.12072 0.0
C2430 C 0.23374 0.2661 0.74126 0.0
C2431 C 0.23158 0.26285 0.79575 0.0
C2432 C 0.21672 0.22883 0.89712 0.0
C2433 C 0.21092 0.23619 0.04296 0.0
C2434 C 0.2126 0.23838 0.98416 0.0
C2435 C 0.21991 0.24617 0.81482 0.0
C2436 C 0.21697 0.24317 0.87287 0.0
H2437 H 0.22515 0.2599 0.1572 0.0
H2438 H 0.22665 0.26368 0.06102 0.0
H2439 H 0.21506 0.2156 0.96983 0.0
H2440 H 0.20511 0.22538 0.69634 0.0
H2441 H 0.20169 0.21967 0.79183 0.0
C2442 C 0.76468 0.98172 0.72226 0.0
C2443 C 0.75344 0.96573 0.69801 0.0
C2444 C 0.76759 0.98264 0.77727 0.0
C2445 C 0.74795 0.9573 0.90148 0.0
H2446 H 0.79191 0.99114 0.9633 0.0
C2447 C 0.78645 0.97687 0.11714 0.0
C2448 C 0.77275 0.97416 0.15095 0.0
C2449 C 0.78408 0.97514 0.06211 0.0
C2450 C 0.7796 0.98142 0.94682 0.0
H2451 H 0.73709 0.93812 0.71152 0.0
H2452 H 0.74276 0.93952 0.8065 0.0
H2453 H 0.78862 0.98926 0.86724 0.0
H2454 H 0.74579 0.96761 0.15358 0.0
H2455 H 0.74171 0.96505 0.0574 0.0
H2456 H 0.73915 0.94893 0.98087 0.0
C2457 C 0.74883 0.9515 0.78393 0.0
C2458 C 0.77762 0.98055 0.89151 0.0
C2459 C 0.7457 0.95064 0.72932 0.0
C2460 C 0.75651 0.96947 0.1286 0.0
C2461 C 0.7542 0.968 0.07335 0.0
C2462 C 0.75 0.95801 0.95671 0.0
C2463 C 0.75951 0.96754 0.80899 0.0
C2464 C 0.76176 0.96848 0.868 0.0
C2465 C 0.76802 0.97098 0.03927 0.0
C2466 C 0.76584 0.9701 0.98024 0.0
H2467 H 0.77062 0.9936 0.69916 0.0
H2468 H 0.77572 0.99527 0.79505 0.0
H2469 H 0.73541 0.94804 0.88515 0.0
H2470 H 0.79909 0.98039 0.1333 0.0
H2471 H 0.79491 0.9771 0.03751 0.0
C2472 C 0.03305 0.79372 0.72443 0.0
C2473 C 0.03781 0.78191 0.70422 0.0
C2474 C 0.032 0.79562 0.77938 0.0
C2475 C 0.04835 0.78902 0.90707 0.0
H2476 H 0.01024 0.79263 0.96796 0.0
C2477 C 0.03714 0.78837 0.13487 0.0
C2478 C 0.03107 0.79923 0.15415 0.0
C2479 C 0.03844 0.78644 0.08 0.0
C2480 C 0.02111 0.79188 0.95159 0.0
H2481 H 0.04492 0.76268 0.72662 0.0
H2482 H 0.04309 0.76604 0.82194 0.0
H2483 H 0.01122 0.78888 0.87225 0.0
H2484 H 0.02218 0.81699 0.13091 0.0
H2485 H 0.02476 0.8139 0.03588 0.0
H2486 H 0.05832 0.79216 0.98633 0.0
C2487 C 0.04034 0.77394 0.79528 0.0
C2488 C 0.02164 0.7897 0.89669 0.0
C2489 C 0.04132 0.77199 0.7405 0.0
C2490 C 0.02674 0.80838 0.11744 0.0
C2491 C 0.02813 0.80654 0.06284 0.0
C2492 C 0.04787 0.79128 0.96199 0.0
C2493 C 0.0358 0.78586 0.8154 0.0
C2494 C 0.03526 0.78824 0.87378 0.0
C2495 C 0.03373 0.79535 0.04332 0.0
C2496 C 0.03425 0.79278 0.98494 0.0
H2497 H 0.03065 0.80193 0.69818 0.0
H2498 H 0.02867 0.80508 0.79369 0.0
H2499 H 0.05915 0.78817 0.89053 0.0
H2500 H 0.0403 0.78088 0.16193 0.0
H2501 H 0.04263 0.77757 0.06635 0.0
loop_
_geom_bond_atom_site_label_1
_geom_bond_atom_site_label_2
_geom_bond_distance
_geom_bond_site_symmetry_2
_ccdc_geom_bond_type
Zn0 N4 2.020 . S
Zn0 O8 2.019 . S
Zn0 N10 2.119 . S
Zn0 O18 1.975 . S
C1 N2 1.334 . S
C1 N5 1.336 . S
N2 C1 1.334 . S
N2 C3 1.334 . S
C3 N2 1.334 . S
C3 N4 1.336 . S
N4 Zn0 2.020 . S
N4 C3 1.336 . S
N4 N5 1.354 . S
N5 C1 1.336 . S
N5 N4 1.354 . S
N5 Zn9 2.020 . S
C6 O7 1.244 . S
C6 O30 1.257 . S
O7 C6 1.244 . S
O8 Zn0 2.019 . S
O8 C28 1.257 . S
Zn9 N5 2.020 . S
Zn9 O16 1.975 . S
Zn9 N25 2.119 . S
Zn9 O30 2.019 . S
N10 Zn0 2.119 . S
N10 C12 1.334 . S
N10 C13 1.328 . S
C11 C12 1.391 . S
C11 N14 1.329 . S
C11 H32 0.930 . S
C12 N10 1.334 . S
C12 C11 1.391 . S
C12 H19 0.930 . S
C13 N10 1.328 . S
C13 C15 1.392 . S
C13 H20 0.930 . S
N14 C11 1.329 . S
N14 C15 1.331 . S
C15 C13 1.392 . S
C15 N14 1.331 . S
O16 Zn9 1.975 . S
O16 C17 1.252 . S
C17 O16 1.252 . S
C17 O18 1.252 . S
O18 Zn0 1.975 . S
O18 C17 1.252 . S
H19 C12 0.930 . S
H20 C13 0.930 . S
C21 C22 1.392 . S
C21 N25 1.328 . S
C21 H27 0.930 . S
C22 C21 1.392 . S
C22 N26 1.331 . S
C23 C24 1.391 . S
C23 N26 1.329 . S
C23 H33 0.930 . S
C24 C23 1.391 . S
C24 N25 1.334 . S
C24 H31 0.930 . S
N25 Zn9 2.119 . S
N25 C21 1.328 . S
N25 C24 1.334 . S
N26 C22 1.331 . S
N26 C23 1.329 . S
H27 C21 0.930 . S
C28 O8 1.257 . S
C28 O29 1.244 . S
O29 C28 1.244 . S
O30 C6 1.257 . S
O30 Zn9 2.019 . S
H31 C24 0.930 . S
H32 C11 0.930 . S
H33 C23 0.930 . S
Zn34 N38 2.020 . S
Zn34 O42 2.019 . S
Zn34 N44 2.119 . S
Zn34 O52 1.975 . S
C35 N36 1.334 . S
C35 N39 1.336 . S
N36 C35 1.334 . S
N36 C37 1.334 . S
C37 N36 1.334 . S
C37 N38 1.336 . S
N38 Zn34 2.020 . S
N38 C37 1.336 . S
N38 N39 1.354 . S
N39 C35 1.336 . S
N39 N38 1.354 . S
N39 Zn43 2.020 . S
C40 O41 1.244 . S
C40 O64 1.257 . S
O41 C40 1.244 . S
O42 Zn34 2.019 . S
O42 C62 1.257 . S
Zn43 N39 2.020 . S
Zn43 O50 1.975 . S
Zn43 N59 2.119 . S
Zn43 O64 2.019 . S
N44 Zn34 2.119 . S
N44 C46 1.334 . S
N44 C47 1.328 . S
C45 C46 1.391 . S
C45 N48 1.329 . S
C45 H66 0.930 . S
C46 N44 1.334 . S
C46 C45 1.391 . S
C46 H53 0.930 . S
C47 N44 1.328 . S
C47 C49 1.392 . S
C47 H54 0.930 . S
N48 C45 1.329 . S
N48 C49 1.331 . S
C49 C47 1.392 . S
C49 N48 1.331 . S
O50 Zn43 1.975 . S
O50 C51 1.252 . S
C51 O50 1.252 . S
C51 O52 1.252 . S
O52 Zn34 1.975 . S
O52 C51 1.252 . S
H53 C46 0.930 . S
H54 C47 0.930 . S
C55 C56 1.392 . S
C55 N59 1.328 . S
C55 H61 0.930 . S
C56 C55 1.392 . S
C56 N60 1.331 . S
C57 C58 1.391 . S
C57 N60 1.329 . S
C57 H67 0.930 . S
C58 C57 1.391 . S
C58 N59 1.334 . S
C58 H65 0.930 . S
N59 Zn43 2.119 . S
N59 C55 1.328 . S
N59 C58 1.334 . S
N60 C56 1.331 . S
N60 C57 1.329 . S
H61 C55 0.930 . S
C62 O42 1.257 . S
C62 O63 1.244 . S
O63 C62 1.244 . S
O64 C40 1.257 . S
O64 Zn43 2.019 . S
H65 C58 0.930 . S
H66 C45 0.930 . S
H67 C57 0.930 . S
Zn68 N72 2.020 . S
Zn68 O76 2.019 . S
Zn68 N78 2.119 . S
Zn68 O86 1.975 . S
C69 N70 1.334 . S
C69 N73 1.336 . S
N70 C69 1.334 . S
N70 C71 1.334 . S
C71 N70 1.334 . S
C71 N72 1.336 . S
N72 Zn68 2.020 . S
N72 C71 1.336 . S
N72 N73 1.354 . S
N73 C69 1.336 . S
N73 N72 1.354 . S
N73 Zn77 2.020 . S
C74 O75 1.244 . S
C74 O98 1.257 . S
O75 C74 1.244 . S
O76 Zn68 2.019 . S
O76 C96 1.257 . S
Zn77 N73 2.020 . S
Zn77 O84 1.975 . S
Zn77 N93 2.119 . S
Zn77 O98 2.019 . S
N78 Zn68 2.119 . S
N78 C80 1.334 . S
N78 C81 1.328 . S
C79 C80 1.391 . S
C79 N82 1.329 . S
C79 H100 0.930 . S
C80 N78 1.334 . S
C80 C79 1.391 . S
C80 H87 0.930 . S
C81 N78 1.328 . S
C81 C83 1.392 . S
C81 H88 0.930 . S
N82 C79 1.329 . S
N82 C83 1.331 . S
C83 C81 1.392 . S
C83 N82 1.331 . S
O84 Zn77 1.975 . S
O84 C85 1.252 . S
C85 O84 1.252 . S
C85 O86 1.252 . S
O86 Zn68 1.975 . S
O86 C85 1.252 . S
H87 C80 0.930 . S
H88 C81 0.930 . S
C89 C90 1.392 . S
C89 N93 1.328 . S
C89 H95 0.930 . S
C90 C89 1.392 . S
C90 N94 1.331 . S
C91 C92 1.391 . S
C91 N94 1.329 . S
C91 H101 0.930 . S
C92 C91 1.391 . S
C92 N93 1.334 . S
C92 H99 0.930 . S
N93 Zn77 2.119 . S
N93 C89 1.328 . S
N93 C92 1.334 . S
N94 C90 1.331 . S
N94 C91 1.329 . S
H95 C89 0.930 . S
C96 O76 1.257 . S
C96 O97 1.244 . S
O97 C96 1.244 . S
O98 C74 1.257 . S
O98 Zn77 2.019 . S
H99 C92 0.930 . S
H100 C79 0.930 . S
H101 C91 0.930 . S
Zn102 N106 2.020 . S
Zn102 O110 2.019 . S
Zn102 N112 2.119 . S
Zn102 O120 1.975 . S
C103 N104 1.334 . S
C103 N107 1.336 . S
N104 C103 1.334 . S
N104 C105 1.334 . S
C105 N104 1.334 . S
C105 N106 1.336 . S
N106 Zn102 2.020 . S
N106 C105 1.336 . S
N106 N107 1.354 . S
N107 C103 1.336 . S
N107 N106 1.354 . S
N107 Zn111 2.020 . S
C108 O109 1.244 . S
C108 O132 1.257 . S
O109 C108 1.244 . S
O110 Zn102 2.019 . S
O110 C130 1.257 . S
Zn111 N107 2.020 . S
Zn111 O118 1.975 . S
Zn111 N127 2.119 . S
Zn111 O132 2.019 . S
N112 Zn102 2.119 . S
N112 C114 1.334 . S
N112 C115 1.328 . S
C113 C114 1.391 . S
C113 N116 1.329 . S
C113 H134 0.930 . S
C114 N112 1.334 . S
C114 C113 1.391 . S
C114 H121 0.930 . S
C115 N112 1.328 . S
C115 C117 1.392 . S
C115 H122 0.930 . S
N116 C113 1.329 . S
N116 C117 1.331 . S
C117 C115 1.392 . S
C117 N116 1.331 . S
O118 Zn111 1.975 . S
O118 C119 1.252 . S
C119 O118 1.252 . S
C119 O120 1.252 . S
O120 Zn102 1.975 . S
O120 C119 1.252 . S
H121 C114 0.930 . S
H122 C115 0.930 . S
C123 C124 1.392 . S
C123 N127 1.328 . S
C123 H129 0.930 . S
C124 C123 1.392 . S
C124 N128 1.331 . S
C125 C126 1.391 . S
C125 N128 1.329 . S
C125 H135 0.930 . S
C126 C125 1.391 . S
C126 N127 1.334 . S
C126 H133 0.930 . S
N127 Zn111 2.119 . S
N127 C123 1.328 . S
N127 C126 1.334 . S
N128 C124 1.331 . S
N128 C125 1.329 . S
H129 C123 0.930 . S
C130 O110 1.257 . S
C130 O131 1.244 . S
O131 C130 1.244 . S
O132 C108 1.257 . S
O132 Zn111 2.019 . S
H133 C126 0.930 . S
H134 C113 0.930 . S
H135 C125 0.930 . S
Zn136 N140 2.020 . S
Zn136 O144 2.019 . S
Zn136 N146 2.119 . S
Zn136 O154 1.975 . S
C137 N138 1.334 . S
C137 N141 1.336 . S
N138 C137 1.334 . S
N138 C139 1.334 . S
C139 N138 1.334 . S
C139 N140 1.336 . S
N140 Zn136 2.020 . S
N140 C139 1.336 . S
N140 N141 1.354 . S
N141 C137 1.336 . S
N141 N140 1.354 . S
N141 Zn145 2.020 . S
C142 O143 1.244 . S
C142 O166 1.257 . S
O143 C142 1.244 . S
O144 Zn136 2.019 . S
O144 C164 1.257 . S
Zn145 N141 2.020 . S
Zn145 O152 1.975 . S
Zn145 N161 2.119 . S
Zn145 O166 2.019 . S
N146 Zn136 2.119 . S
N146 C148 1.334 . S
N146 C149 1.328 . S
C147 C148 1.391 . S
C147 N150 1.329 . S
C147 H168 0.930 . S
C148 N146 1.334 . S
C148 C147 1.391 . S
C148 H155 0.930 . S
C149 N146 1.328 . S
C149 C151 1.392 . S
C149 H156 0.930 . S
N150 C147 1.329 . S
N150 C151 1.331 . S
C151 C149 1.392 . S
C151 N150 1.331 . S
O152 Zn145 1.975 . S
O152 C153 1.252 . S
C153 O152 1.252 . S
C153 O154 1.252 . S
O154 Zn136 1.975 . S
O154 C153 1.252 . S
H155 C148 0.930 . S
H156 C149 0.930 . S
C157 C158 1.392 . S
C157 N161 1.328 . S
C157 H163 0.930 . S
C158 C157 1.392 . S
C158 N162 1.331 . S
C159 C160 1.391 . S
C159 N162 1.329 . S
C159 H169 0.930 . S
C160 C159 1.391 . S
C160 N161 1.334 . S
C160 H167 0.930 . S
N161 Zn145 2.119 . S
N161 C157 1.328 . S
N161 C160 1.334 . S
N162 C158 1.331 . S
N162 C159 1.329 . S
H163 C157 0.930 . S
C164 O144 1.257 . S
C164 O165 1.244 . S
O165 C164 1.244 . S
O166 C142 1.257 . S
O166 Zn145 2.019 . S
H167 C160 0.930 . S
H168 C147 0.930 . S
H169 C159 0.930 . S
Zn170 N174 2.020 . S
Zn170 O178 2.019 . S
Zn170 N180 2.119 . S
Zn170 O188 1.975 . S
C171 N172 1.334 . S
C171 N175 1.336 . S
N172 C171 1.334 . S
N172 C173 1.334 . S
C173 N172 1.334 . S
C173 N174 1.336 . S
N174 Zn170 2.020 . S
N174 C173 1.336 . S
N174 N175 1.354 . S
N175 C171 1.336 . S
N175 N174 1.354 . S
N175 Zn179 2.020 . S
C176 O177 1.244 . S
C176 O200 1.257 . S
O177 C176 1.244 . S
O178 Zn170 2.019 . S
O178 C198 1.257 . S
Zn179 N175 2.020 . S
Zn179 O186 1.975 . S
Zn179 N195 2.119 . S
Zn179 O200 2.019 . S
N180 Zn170 2.119 . S
N180 C182 1.334 . S
N180 C183 1.328 . S
C181 C182 1.391 . S
C181 N184 1.329 . S
C181 H202 0.930 . S
C182 N180 1.334 . S
C182 C181 1.391 . S
C182 H189 0.930 . S
C183 N180 1.328 . S
C183 C185 1.392 . S
C183 H190 0.930 . S
N184 C181 1.329 . S
N184 C185 1.331 . S
C185 C183 1.392 . S
C185 N184 1.331 . S
O186 Zn179 1.975 . S
O186 C187 1.252 . S
C187 O186 1.252 . S
C187 O188 1.252 . S
O188 Zn170 1.975 . S
O188 C187 1.252 . S
H189 C182 0.930 . S
H190 C183 0.930 . S
C191 C192 1.392 . S
C191 N195 1.328 . S
C191 H197 0.930 . S
C192 C191 1.392 . S
C192 N196 1.331 . S
C193 C194 1.391 . S
C193 N196 1.329 . S
C193 H203 0.930 . S
C194 C193 1.391 . S
C194 N195 1.334 . S
C194 H201 0.930 . S
N195 Zn179 2.119 . S
N195 C191 1.328 . S
N195 C194 1.334 . S
N196 C192 1.331 . S
N196 C193 1.329 . S
H197 C191 0.930 . S
C198 O178 1.257 . S
C198 O199 1.244 . S
O199 C198 1.244 . S
O200 C176 1.257 . S
O200 Zn179 2.019 . S
H201 C194 0.930 . S
H202 C181 0.930 . S
H203 C193 0.930 . S
Zn204 N208 2.020 . S
Zn204 O212 2.019 . S
Zn204 N214 2.119 . S
Zn204 O222 1.975 . S
C205 N206 1.334 . S
C205 N209 1.336 . S
N206 C205 1.334 . S
N206 C207 1.334 . S
C207 N206 1.334 . S
C207 N208 1.336 . S
N208 Zn204 2.020 . S
N208 C207 1.336 . S
N208 N209 1.354 . S
N209 C205 1.336 . S
N209 N208 1.354 . S
N209 Zn213 2.020 . S
C210 O211 1.244 . S
C210 O234 1.257 . S
O211 C210 1.244 . S
O212 Zn204 2.019 . S
O212 C232 1.257 . S
Zn213 N209 2.020 . S
Zn213 O220 1.975 . S
Zn213 N229 2.119 . S
Zn213 O234 2.019 . S
N214 Zn204 2.119 . S
N214 C216 1.334 . S
N214 C217 1.328 . S
C215 C216 1.391 . S
C215 N218 1.329 . S
C215 H236 0.930 . S
C216 N214 1.334 . S
C216 C215 1.391 . S
C216 H223 0.930 . S
C217 N214 1.328 . S
C217 C219 1.392 . S
C217 H224 0.930 . S
N218 C215 1.329 . S
N218 C219 1.331 . S
C219 C217 1.392 . S
C219 N218 1.331 . S
O220 Zn213 1.975 . S
O220 C221 1.252 . S
C221 O220 1.252 . S
C221 O222 1.252 . S
O222 Zn204 1.975 . S
O222 C221 1.252 . S
H223 C216 0.930 . S
H224 C217 0.930 . S
C225 C226 1.392 . S
C225 N229 1.328 . S
C225 H231 0.930 . S
C226 C225 1.392 . S
C226 N230 1.331 . S
C227 C228 1.391 . S
C227 N230 1.329 . S
C227 H237 0.930 . S
C228 C227 1.391 . S
C228 N229 1.334 . S
C228 H235 0.930 . S
N229 Zn213 2.119 . S
N229 C225 1.328 . S
N229 C228 1.334 . S
N230 C226 1.331 . S
N230 C227 1.329 . S
H231 C225 0.930 . S
C232 O212 1.257 . S
C232 O233 1.244 . S
O233 C232 1.244 . S
O234 C210 1.257 . S
O234 Zn213 2.019 . S
H235 C228 0.930 . S
H236 C215 0.930 . S
H237 C227 0.930 . S
Zn238 N242 2.020 . S
Zn238 O246 2.019 . S
Zn238 N248 2.119 . S
Zn238 O256 1.975 . S
C239 N240 1.334 . S
C239 N243 1.336 . S
N240 C239 1.334 . S
N240 C241 1.334 . S
C241 N240 1.334 . S
C241 N242 1.336 . S
N242 Zn238 2.020 . S
N242 C241 1.336 . S
N242 N243 1.354 . S
N243 C239 1.336 . S
N243 N242 1.354 . S
N243 Zn247 2.020 . S
C244 O245 1.244 . S
C244 O268 1.257 . S
O245 C244 1.244 . S
O246 Zn238 2.019 . S
O246 C266 1.257 . S
Zn247 N243 2.020 . S
Zn247 O254 1.975 . S
Zn247 N263 2.119 . S
Zn247 O268 2.019 . S
N248 Zn238 2.119 . S
N248 C250 1.334 . S
N248 C251 1.328 . S
C249 C250 1.391 . S
C249 N252 1.329 . S
C249 H270 0.930 . S
C250 N248 1.334 . S
C250 C249 1.391 . S
C250 H257 0.930 . S
C251 N248 1.328 . S
C251 C253 1.392 . S
C251 H258 0.930 . S
N252 C249 1.329 . S
N252 C253 1.331 . S
C253 C251 1.392 . S
C253 N252 1.331 . S
O254 Zn247 1.975 . S
O254 C255 1.252 . S
C255 O254 1.252 . S
C255 O256 1.252 . S
O256 Zn238 1.975 . S
O256 C255 1.252 . S
H257 C250 0.930 . S
H258 C251 0.930 . S
C259 C260 1.392 . S
C259 N263 1.328 . S
C259 H265 0.930 . S
C260 C259 1.392 . S
C260 N264 1.331 . S
C261 C262 1.391 . S
C261 N264 1.329 . S
C261 H271 0.930 . S
C262 C261 1.391 . S
C262 N263 1.334 . S
C262 H269 0.930 . S
N263 Zn247 2.119 . S
N263 C259 1.328 . S
N263 C262 1.334 . S
N264 C260 1.331 . S
N264 C261 1.329 . S
H265 C259 0.930 . S
C266 O246 1.257 . S
C266 O267 1.244 . S
O267 C266 1.244 . S
O268 C244 1.257 . S
O268 Zn247 2.019 . S
H269 C262 0.930 . S
H270 C249 0.930 . S
H271 C261 0.930 . S
Zn272 N276 2.020 . S
Zn272 O280 2.019 . S
Zn272 N282 2.119 . S
Zn272 O290 1.975 . S
C273 N274 1.334 . S
C273 N277 1.336 . S
N274 C273 1.334 . S
N274 C275 1.334 . S
C275 N274 1.334 . S
C275 N276 1.336 . S
N276 Zn272 2.020 . S
N276 C275 1.336 . S
N276 N277 1.354 . S
N277 C273 1.336 . S
N277 N276 1.354 . S
N277 Zn281 2.020 . S
C278 O279 1.244 . S
C278 O302 1.257 . S
O279 C278 1.244 . S
O280 Zn272 2.019 . S
O280 C300 1.257 . S
Zn281 N277 2.020 . S
Zn281 O288 1.975 . S
Zn281 N297 2.119 . S
Zn281 O302 2.019 . S
N282 Zn272 2.119 . S
N282 C284 1.334 . S
N282 C285 1.328 . S
C283 C284 1.391 . S
C283 N286 1.329 . S
C283 H304 0.930 . S
C284 N282 1.334 . S
C284 C283 1.391 . S
C284 H291 0.930 . S
C285 N282 1.328 . S
C285 C287 1.392 . S
C285 H292 0.930 . S
N286 C283 1.329 . S
N286 C287 1.331 . S
C287 C285 1.392 . S
C287 N286 1.331 . S
O288 Zn281 1.975 . S
O288 C289 1.252 . S
C289 O288 1.252 . S
C289 O290 1.252 . S
O290 Zn272 1.975 . S
O290 C289 1.252 . S
H291 C284 0.930 . S
H292 C285 0.930 . S
C293 C294 1.392 . S
C293 N297 1.328 . S
C293 H299 0.930 . S
C294 C293 1.392 . S
C294 N298 1.331 . S
C295 C296 1.391 . S
C295 N298 1.329 . S
C295 H305 0.930 . S
C296 C295 1.391 . S
C296 N297 1.334 . S
C296 H303 0.930 . S
N297 Zn281 2.119 . S
N297 C293 1.328 . S
N297 C296 1.334 . S
N298 C294 1.331 . S
N298 C295 1.329 . S
H299 C293 0.930 . S
C300 O280 1.257 . S
C300 O301 1.244 . S
O301 C300 1.244 . S
O302 C278 1.257 . S
O302 Zn281 2.019 . S
H303 C296 0.930 . S
H304 C283 0.930 . S
H305 C295 0.930 . S
Zn306 N310 2.020 . S
Zn306 O314 2.019 . S
Zn306 N316 2.119 1_554 S
Zn306 O324 1.975 . S
C307 N308 1.334 . S
C307 N311 1.336 . S
N308 C307 1.334 . S
N308 C309 1.334 . S
C309 N308 1.334 . S
C309 N310 1.336 . S
N310 Zn306 2.020 . S
N310 C309 1.336 . S
N310 N311 1.354 . S
N311 C307 1.336 . S
N311 N310 1.354 . S
N311 Zn315 2.020 . S
C312 O313 1.244 . S
C312 O336 1.257 . S
O313 C312 1.244 . S
O314 Zn306 2.019 . S
O314 C334 1.257 . S
Zn315 N311 2.020 . S
Zn315 O322 1.975 . S
Zn315 N331 2.119 . S
Zn315 O336 2.019 . S
N316 Zn306 2.119 1_556 S
N316 C318 1.334 . S
N316 C319 1.328 . S
C317 C318 1.391 . S
C317 N320 1.329 . S
C317 H338 0.930 . S
C318 N316 1.334 . S
C318 C317 1.391 . S
C318 H325 0.930 1_556 S
C319 N316 1.328 . S
C319 C321 1.392 . S
C319 H326 0.930 . S
N320 C317 1.329 . S
N320 C321 1.331 . S
C321 C319 1.392 . S
C321 N320 1.331 . S
O322 Zn315 1.975 . S
O322 C323 1.252 . S
C323 O322 1.252 . S
C323 O324 1.252 . S
O324 Zn306 1.975 . S
O324 C323 1.252 . S
H325 C318 0.930 1_554 S
H326 C319 0.930 . S
C327 C328 1.392 . S
C327 N331 1.328 . S
C327 H333 0.930 . S
C328 C327 1.392 . S
C328 N332 1.331 . S
C329 C330 1.391 . S
C329 N332 1.329 . S
C329 H339 0.930 . S
C330 C329 1.391 . S
C330 N331 1.334 . S
C330 H337 0.930 . S
N331 Zn315 2.119 . S
N331 C327 1.328 . S
N331 C330 1.334 . S
N332 C328 1.331 . S
N332 C329 1.329 . S
H333 C327 0.930 . S
C334 O314 1.257 . S
C334 O335 1.244 . S
O335 C334 1.244 . S
O336 C312 1.257 . S
O336 Zn315 2.019 . S
H337 C330 0.930 . S
H338 C317 0.930 . S
H339 C329 0.930 . S
Zn340 N344 2.020 . S
Zn340 O348 2.019 . S
Zn340 N350 2.119 . S
Zn340 O358 1.975 . S
C341 N342 1.334 . S
C341 N345 1.336 . S
N342 C341 1.334 . S
N342 C343 1.334 . S
C343 N342 1.334 . S
C343 N344 1.336 . S
N344 Zn340 2.020 . S
N344 C343 1.336 . S
N344 N345 1.354 . S
N345 C341 1.336 . S
N345 N344 1.354 . S
N345 Zn349 2.020 . S
C346 O347 1.244 . S
C346 O370 1.257 . S
O347 C346 1.244 . S
O348 Zn340 2.019 . S
O348 C368 1.257 . S
Zn349 N345 2.020 . S
Zn349 O356 1.975 . S
Zn349 N365 2.119 1_554 S
Zn349 O370 2.019 . S
N350 Zn340 2.119 . S
N350 C352 1.334 . S
N350 C353 1.328 . S
C351 C352 1.391 . S
C351 N354 1.329 . S
C351 H372 0.930 . S
C352 N350 1.334 . S
C352 C351 1.391 . S
C352 H359 0.930 . S
C353 N350 1.328 . S
C353 C355 1.392 . S
C353 H360 0.930 . S
N354 C351 1.329 . S
N354 C355 1.331 . S
C355 C353 1.392 . S
C355 N354 1.331 . S
O356 Zn349 1.975 . S
O356 C357 1.252 . S
C357 O356 1.252 . S
C357 O358 1.252 . S
O358 Zn340 1.975 . S
O358 C357 1.252 . S
H359 C352 0.930 . S
H360 C353 0.930 . S
C361 C362 1.392 . S
C361 N365 1.328 . S
C361 H367 0.930 . S
C362 C361 1.392 . S
C362 N366 1.331 . S
C363 C364 1.391 . S
C363 N366 1.329 . S
C363 H373 0.930 . S
C364 C363 1.391 . S
C364 N365 1.334 . S
C364 H371 0.930 1_556 S
N365 Zn349 2.119 1_556 S
N365 C361 1.328 . S
N365 C364 1.334 . S
N366 C362 1.331 . S
N366 C363 1.329 . S
H367 C361 0.930 . S
C368 O348 1.257 . S
C368 O369 1.244 . S
O369 C368 1.244 . S
O370 C346 1.257 . S
O370 Zn349 2.019 . S
H371 C364 0.930 1_554 S
H372 C351 0.930 . S
H373 C363 0.930 . S
Zn374 N378 2.020 . S
Zn374 O382 2.019 . S
Zn374 N384 2.119 1_554 S
Zn374 O392 1.975 . S
C375 N376 1.334 . S
C375 N379 1.336 . S
N376 C375 1.334 . S
N376 C377 1.334 . S
C377 N376 1.334 . S
C377 N378 1.336 . S
N378 Zn374 2.020 . S
N378 C377 1.336 . S
N378 N379 1.354 . S
N379 C375 1.336 . S
N379 N378 1.354 . S
N379 Zn383 2.020 . S
C380 O381 1.244 . S
C380 O404 1.257 . S
O381 C380 1.244 . S
O382 Zn374 2.019 . S
O382 C402 1.257 . S
Zn383 N379 2.020 . S
Zn383 O390 1.975 . S
Zn383 N399 2.119 . S
Zn383 O404 2.019 . S
N384 Zn374 2.119 1_556 S
N384 C386 1.334 . S
N384 C387 1.328 . S
C385 C386 1.391 . S
C385 N388 1.329 . S
C385 H406 0.930 . S
C386 N384 1.334 . S
C386 C385 1.391 . S
C386 H393 0.930 1_556 S
C387 N384 1.328 . S
C387 C389 1.392 . S
C387 H394 0.930 . S
N388 C385 1.329 . S
N388 C389 1.331 . S
C389 C387 1.392 . S
C389 N388 1.331 . S
O390 Zn383 1.975 . S
O390 C391 1.252 . S
C391 O390 1.252 . S
C391 O392 1.252 . S
O392 Zn374 1.975 . S
O392 C391 1.252 . S
H393 C386 0.930 1_554 S
H394 C387 0.930 . S
C395 C396 1.392 . S
C395 N399 1.328 . S
C395 H401 0.930 . S
C396 C395 1.392 . S
C396 N400 1.331 . S
C397 C398 1.391 . S
C397 N400 1.329 . S
C397 H407 0.930 . S
C398 C397 1.391 . S
C398 N399 1.334 . S
C398 H405 0.930 . S
N399 Zn383 2.119 . S
N399 C395 1.328 . S
N399 C398 1.334 . S
N400 C396 1.331 . S
N400 C397 1.329 . S
H401 C395 0.930 . S
C402 O382 1.257 . S
C402 O403 1.244 . S
O403 C402 1.244 . S
O404 C380 1.257 . S
O404 Zn383 2.019 . S
H405 C398 0.930 . S
H406 C385 0.930 . S
H407 C397 0.930 . S
Zn408 N412 2.020 . S
Zn408 O416 2.019 . S
Zn408 N418 2.119 . S
Zn408 O426 1.975 . S
C409 N410 1.334 . S
C409 N413 1.336 . S
N410 C409 1.334 . S
N410 C411 1.334 . S
C411 N410 1.334 . S
C411 N412 1.336 . S
N412 Zn408 2.020 . S
N412 C411 1.336 . S
N412 N413 1.354 . S
N413 C409 1.336 . S
N413 N412 1.354 . S
N413 Zn417 2.020 . S
C414 O415 1.244 . S
C414 O438 1.257 . S
O415 C414 1.244 . S
O416 Zn408 2.019 . S
O416 C436 1.257 . S
Zn417 N413 2.020 . S
Zn417 O424 1.975 . S
Zn417 N433 2.119 1_556 S
Zn417 O438 2.019 . S
N418 Zn408 2.119 . S
N418 C420 1.334 . S
N418 C421 1.328 . S
C419 C420 1.391 . S
C419 N422 1.329 . S
C419 H440 0.930 . S
C420 N418 1.334 . S
C420 C419 1.391 . S
C420 H427 0.930 . S
C421 N418 1.328 . S
C421 C423 1.392 . S
C421 H428 0.930 . S
N422 C419 1.329 . S
N422 C423 1.331 . S
C423 C421 1.392 . S
C423 N422 1.331 . S
O424 Zn417 1.975 . S
O424 C425 1.252 . S
C425 O424 1.252 . S
C425 O426 1.252 . S
O426 Zn408 1.975 . S
O426 C425 1.252 . S
H427 C420 0.930 . S
H428 C421 0.930 . S
C429 C430 1.392 . S
C429 N433 1.328 . S
C429 H435 0.930 . S
C430 C429 1.392 . S
C430 N434 1.331 . S
C431 C432 1.391 . S
C431 N434 1.329 . S
C431 H441 0.930 . S
C432 C431 1.391 . S
C432 N433 1.334 . S
C432 H439 0.930 1_554 S
N433 Zn417 2.119 1_554 S
N433 C429 1.328 . S
N433 C432 1.334 . S
N434 C430 1.331 . S
N434 C431 1.329 . S
H435 C429 0.930 . S
C436 O416 1.257 . S
C436 O437 1.244 . S
O437 C436 1.244 . S
O438 C414 1.257 . S
O438 Zn417 2.019 . S
H439 C432 0.930 1_556 S
H440 C419 0.930 . S
H441 C431 0.930 . S
Zn442 N446 2.020 . S
Zn442 O450 2.019 . S
Zn442 N452 2.119 . S
Zn442 O460 1.975 . S
C443 N444 1.334 . S
C443 N447 1.336 . S
N444 C443 1.334 . S
N444 C445 1.334 . S
C445 N444 1.334 . S
C445 N446 1.336 . S
N446 Zn442 2.020 . S
N446 C445 1.336 . S
N446 N447 1.354 . S
N447 C443 1.336 . S
N447 N446 1.354 . S
N447 Zn451 2.020 . S
C448 O449 1.244 . S
C448 O472 1.257 . S
O449 C448 1.244 . S
O450 Zn442 2.019 . S
O450 C470 1.257 . S
Zn451 N447 2.020 . S
Zn451 O458 1.975 . S
Zn451 N467 2.119 1_556 S
Zn451 O472 2.019 . S
N452 Zn442 2.119 . S
N452 C454 1.334 . S
N452 C455 1.328 . S
C453 C454 1.391 . S
C453 N456 1.329 . S
C453 H474 0.930 . S
C454 N452 1.334 . S
C454 C453 1.391 . S
C454 H461 0.930 . S
C455 N452 1.328 . S
C455 C457 1.392 . S
C455 H462 0.930 . S
N456 C453 1.329 . S
N456 C457 1.331 . S
C457 C455 1.392 . S
C457 N456 1.331 . S
O458 Zn451 1.975 . S
O458 C459 1.252 . S
C459 O458 1.252 . S
C459 O460 1.252 . S
O460 Zn442 1.975 . S
O460 C459 1.252 . S
H461 C454 0.930 . S
H462 C455 0.930 . S
C463 C464 1.392 . S
C463 N467 1.328 . S
C463 H469 0.930 . S
C464 C463 1.392 . S
C464 N468 1.331 . S
C465 C466 1.391 . S
C465 N468 1.329 . S
C465 H475 0.930 . S
C466 C465 1.391 . S
C466 N467 1.334 . S
C466 H473 0.930 1_554 S
N467 Zn451 2.119 1_554 S
N467 C463 1.328 . S
N467 C466 1.334 . S
N468 C464 1.331 . S
N468 C465 1.329 . S
H469 C463 0.930 . S
C470 O450 1.257 . S
C470 O471 1.244 . S
O471 C470 1.244 . S
O472 C448 1.257 . S
O472 Zn451 2.019 . S
H473 C466 0.930 1_556 S
H474 C453 0.930 . S
H475 C465 0.930 . S
Zn476 N480 2.020 . S
Zn476 O484 2.019 . S
Zn476 N486 2.119 . S
Zn476 O494 1.975 . S
C477 N478 1.334 . S
C477 N481 1.336 . S
N478 C477 1.334 . S
N478 C479 1.334 . S
C479 N478 1.334 . S
C479 N480 1.336 . S
N480 Zn476 2.020 . S
N480 C479 1.336 . S
N480 N481 1.354 . S
N481 C477 1.336 . S
N481 N480 1.354 . S
N481 Zn485 2.020 . S
C482 O483 1.244 . S
C482 O506 1.257 . S
O483 C482 1.244 . S
O484 Zn476 2.019 . S
O484 C504 1.257 . S
Zn485 N481 2.020 . S
Zn485 O492 1.975 . S
Zn485 N501 2.119 1_556 S
Zn485 O506 2.019 . S
N486 Zn476 2.119 . S
N486 C488 1.334 . S
N486 C489 1.328 . S
C487 C488 1.391 . S
C487 N490 1.329 . S
C487 H508 0.930 . S
C488 N486 1.334 . S
C488 C487 1.391 . S
C488 H495 0.930 . S
C489 N486 1.328 . S
C489 C491 1.392 . S
C489 H496 0.930 . S
N490 C487 1.329 . S
N490 C491 1.331 . S
C491 C489 1.392 . S
C491 N490 1.331 . S
O492 Zn485 1.975 . S
O492 C493 1.252 . S
C493 O492 1.252 . S
C493 O494 1.252 . S
O494 Zn476 1.975 . S
O494 C493 1.252 . S
H495 C488 0.930 . S
H496 C489 0.930 . S
C497 C498 1.392 . S
C497 N501 1.328 . S
C497 H503 0.930 . S
C498 C497 1.392 . S
C498 N502 1.331 . S
C499 C500 1.391 . S
C499 N502 1.329 . S
C499 H509 0.930 . S
C500 C499 1.391 . S
C500 N501 1.334 . S
C500 H507 0.930 1_554 S
N501 Zn485 2.119 1_554 S
N501 C497 1.328 . S
N501 C500 1.334 . S
N502 C498 1.331 . S
N502 C499 1.329 . S
H503 C497 0.930 . S
C504 O484 1.257 . S
C504 O505 1.244 . S
O505 C504 1.244 . S
O506 C482 1.257 . S
O506 Zn485 2.019 . S
H507 C500 0.930 1_556 S
H508 C487 0.930 . S
H509 C499 0.930 . S
Zn510 N514 2.020 . S
Zn510 O518 2.019 . S
Zn510 N520 2.119 . S
Zn510 O528 1.975 . S
C511 N512 1.334 . S
C511 N515 1.336 . S
N512 C511 1.334 . S
N512 C513 1.334 . S
C513 N512 1.334 . S
C513 N514 1.336 . S
N514 Zn510 2.020 . S
N514 C513 1.336 . S
N514 N515 1.354 . S
N515 C511 1.336 . S
N515 N514 1.354 . S
N515 Zn519 2.020 . S
C516 O517 1.244 . S
C516 O540 1.257 . S
O517 C516 1.244 . S
O518 Zn510 2.019 . S
O518 C538 1.257 . S
Zn519 N515 2.020 . S
Zn519 O526 1.975 . S
Zn519 N535 2.119 . S
Zn519 O540 2.019 . S
N520 Zn510 2.119 . S
N520 C522 1.334 . S
N520 C523 1.328 . S
C521 C522 1.391 . S
C521 N524 1.329 . S
C521 H542 0.930 . S
C522 N520 1.334 . S
C522 C521 1.391 . S
C522 H529 0.930 . S
C523 N520 1.328 . S
C523 C525 1.392 . S
C523 H530 0.930 . S
N524 C521 1.329 . S
N524 C525 1.331 . S
C525 C523 1.392 . S
C525 N524 1.331 . S
O526 Zn519 1.975 . S
O526 C527 1.252 . S
C527 O526 1.252 . S
C527 O528 1.252 . S
O528 Zn510 1.975 . S
O528 C527 1.252 . S
H529 C522 0.930 . S
H530 C523 0.930 . S
C531 C532 1.392 . S
C531 N535 1.328 . S
C531 H537 0.930 . S
C532 C531 1.392 . S
C532 N536 1.331 . S
C533 C534 1.391 . S
C533 N536 1.329 . S
C533 H543 0.930 . S
C534 C533 1.391 . S
C534 N535 1.334 . S
C534 H541 0.930 . S
N535 Zn519 2.119 . S
N535 C531 1.328 . S
N535 C534 1.334 . S
N536 C532 1.331 . S
N536 C533 1.329 . S
H537 C531 0.930 . S
C538 O518 1.257 . S
C538 O539 1.244 . S
O539 C538 1.244 . S
O540 C516 1.257 . S
O540 Zn519 2.019 . S
H541 C534 0.930 . S
H542 C521 0.930 . S
H543 C533 0.930 . S
Zn544 N548 2.020 . S
Zn544 O552 2.019 . S
Zn544 N554 2.119 . S
Zn544 O562 1.975 . S
C545 N546 1.334 . S
C545 N549 1.336 . S
N546 C545 1.334 . S
N546 C547 1.334 . S
C547 N546 1.334 . S
C547 N548 1.336 . S
N548 Zn544 2.020 . S
N548 C547 1.336 . S
N548 N549 1.354 . S
N549 C545 1.336 . S
N549 N548 1.354 . S
N549 Zn553 2.020 . S
C550 O551 1.244 . S
C550 O574 1.257 . S
O551 C550 1.244 . S
O552 Zn544 2.019 . S
O552 C572 1.257 . S
Zn553 N549 2.020 . S
Zn553 O560 1.975 . S
Zn553 N569 2.119 . S
Zn553 O574 2.019 . S
N554 Zn544 2.119 . S
N554 C556 1.334 . S
N554 C557 1.328 . S
C555 C556 1.391 . S
C555 N558 1.329 . S
C555 H576 0.930 . S
C556 N554 1.334 . S
C556 C555 1.391 . S
C556 H563 0.930 . S
C557 N554 1.328 . S
C557 C559 1.392 . S
C557 H564 0.930 . S
N558 C555 1.329 . S
N558 C559 1.331 . S
C559 C557 1.392 . S
C559 N558 1.331 . S
O560 Zn553 1.975 . S
O560 C561 1.252 . S
C561 O560 1.252 . S
C561 O562 1.252 . S
O562 Zn544 1.975 . S
O562 C561 1.252 . S
H563 C556 0.930 . S
H564 C557 0.930 . S
C565 C566 1.392 . S
C565 N569 1.328 . S
C565 H571 0.930 . S
C566 C565 1.392 . S
C566 N570 1.331 . S
C567 C568 1.391 . S
C567 N570 1.329 . S
C567 H577 0.930 . S
C568 C567 1.391 . S
C568 N569 1.334 . S
C568 H575 0.930 . S
N569 Zn553 2.119 . S
N569 C565 1.328 . S
N569 C568 1.334 . S
N570 C566 1.331 . S
N570 C567 1.329 . S
H571 C565 0.930 . S
C572 O552 1.257 . S
C572 O573 1.244 . S
O573 C572 1.244 . S
O574 C550 1.257 . S
O574 Zn553 2.019 . S
H575 C568 0.930 . S
H576 C555 0.930 . S
H577 C567 0.930 . S
Zn578 N582 2.020 . S
Zn578 O586 2.019 . S
Zn578 N588 2.119 . S
Zn578 O596 1.975 . S
C579 N580 1.334 . S
C579 N583 1.336 . S
N580 C579 1.334 . S
N580 C581 1.334 . S
C581 N580 1.334 . S
C581 N582 1.336 . S
N582 Zn578 2.020 . S
N582 C581 1.336 . S
N582 N583 1.354 . S
N583 C579 1.336 . S
N583 N582 1.354 . S
N583 Zn587 2.020 . S
C584 O585 1.244 . S
C584 O608 1.257 . S
O585 C584 1.244 . S
O586 Zn578 2.019 . S
O586 C606 1.257 . S
Zn587 N583 2.020 . S
Zn587 O594 1.975 . S
Zn587 N603 2.119 . S
Zn587 O608 2.019 . S
N588 Zn578 2.119 . S
N588 C590 1.334 . S
N588 C591 1.328 . S
C589 C590 1.391 . S
C589 N592 1.329 . S
C589 H610 0.930 . S
C590 N588 1.334 . S
C590 C589 1.391 . S
C590 H597 0.930 . S
C591 N588 1.328 . S
C591 C593 1.392 . S
C591 H598 0.930 . S
N592 C589 1.329 . S
N592 C593 1.331 . S
C593 C591 1.392 . S
C593 N592 1.331 . S
O594 Zn587 1.975 . S
O594 C595 1.252 . S
C595 O594 1.252 . S
C595 O596 1.252 . S
O596 Zn578 1.975 . S
O596 C595 1.252 . S
H597 C590 0.930 . S
H598 C591 0.930 . S
C599 C600 1.392 . S
C599 N603 1.328 . S
C599 H605 0.930 . S
C600 C599 1.392 . S
C600 N604 1.331 . S
C601 C602 1.391 . S
C601 N604 1.329 . S
C601 H611 0.930 . S
C602 C601 1.391 . S
C602 N603 1.334 . S
C602 H609 0.930 . S
N603 Zn587 2.119 . S
N603 C599 1.328 . S
N603 C602 1.334 . S
N604 C600 1.331 . S
N604 C601 1.329 . S
H605 C599 0.930 . S
C606 O586 1.257 . S
C606 O607 1.244 . S
O607 C606 1.244 . S
O608 C584 1.257 . S
O608 Zn587 2.019 . S
H609 C602 0.930 . S
H610 C589 0.930 . S
H611 C601 0.930 . S
C612 C613 1.349 . S
C612 C614 1.327 . S
C612 H637 0.950 . S
C613 C612 1.349 . S
C613 C629 1.349 . S
C614 C612 1.327 . S
C614 C633 1.429 1_556 S
C614 H638 0.950 . S
C615 C632 1.574 . S
C615 C634 1.368 . S
C615 H639 0.949 1_455 S
H616 C620 0.949 . S
C617 C618 1.349 . S
C617 C619 1.327 . S
C617 H640 0.950 . S
C618 C617 1.349 . S
C618 C630 1.349 . S
C619 C617 1.327 . S
C619 C635 1.429 . S
C619 H641 0.950 . S
C620 H616 0.949 . S
C620 C628 1.574 . S
C620 C636 1.368 . S
H621 C629 0.950 . S
H622 C627 0.950 . S
H623 C628 0.949 . S
H624 C630 0.950 . S
H625 C631 0.950 . S
H626 C632 0.949 . S
C627 H622 0.950 . S
C627 C629 1.327 1_554 S
C627 C633 1.429 . S
C628 C620 1.574 . S
C628 H623 0.949 . S
C628 C634 1.368 . S
C629 C613 1.349 . S
C629 H621 0.950 . S
C629 C627 1.327 1_556 S
C630 C618 1.349 . S
C630 H624 0.950 . S
C630 C631 1.327 . S
C631 H625 0.950 . S
C631 C630 1.327 . S
C631 C635 1.429 . S
C632 C615 1.574 . S
C632 H626 0.949 . S
C632 C636 1.368 . S
C633 C614 1.429 1_554 S
C633 C627 1.429 . S
C633 C634 1.523 1_655 S
C634 C615 1.368 . S
C634 C628 1.368 . S
C634 C633 1.523 1_455 S
C635 C619 1.429 . S
C635 C631 1.429 . S
C635 C636 1.523 . S
C636 C620 1.368 . S
C636 C632 1.368 . S
C636 C635 1.523 . S
H637 C612 0.950 . S
H638 C614 0.950 . S
H639 C615 0.949 1_655 S
H640 C617 0.950 . S
H641 C619 0.950 . S
C642 C643 1.349 . S
C642 C644 1.327 . S
C642 H667 0.950 . S
C643 C642 1.349 . S
C643 C659 1.349 1_556 S
C644 C642 1.327 . S
C644 C663 1.429 1_556 S
C644 H668 0.950 . S
C645 C662 1.574 . S
C645 C664 1.368 . S
C645 H669 0.949 . S
H646 C650 0.949 . S
C647 C648 1.349 . S
C647 C649 1.327 . S
C647 H670 0.950 . S
C648 C647 1.349 . S
C648 C660 1.349 . S
C649 C647 1.327 . S
C649 C665 1.429 . S
C649 H671 0.950 . S
C650 H646 0.949 . S
C650 C658 1.574 . S
C650 C666 1.368 . S
H651 C659 0.950 . S
H652 C657 0.950 . S
H653 C658 0.949 1_556 S
H654 C660 0.950 . S
H655 C661 0.950 . S
H656 C662 0.949 . S
C657 H652 0.950 . S
C657 C659 1.327 . S
C657 C663 1.429 . S
C658 C650 1.574 . S
C658 H653 0.949 1_554 S
C658 C664 1.368 . S
C659 C643 1.349 1_554 S
C659 H651 0.950 . S
C659 C657 1.327 . S
C660 C648 1.349 . S
C660 H654 0.950 . S
C660 C661 1.327 . S
C661 H655 0.950 . S
C661 C660 1.327 . S
C661 C665 1.429 . S
C662 C645 1.574 . S
C662 H656 0.949 . S
C662 C666 1.368 . S
C663 C644 1.429 1_554 S
C663 C657 1.429 . S
C663 C664 1.523 . S
C664 C645 1.368 . S
C664 C658 1.368 . S
C664 C663 1.523 . S
C665 C649 1.429 . S
C665 C661 1.429 . S
C665 C666 1.523 . S
C666 C650 1.368 . S
C666 C662 1.368 . S
C666 C665 1.523 . S
H667 C642 0.950 . S
H668 C644 0.950 . S
H669 C645 0.949 . S
H670 C647 0.950 . S
H671 C649 0.950 . S
C672 C673 1.349 . S
C672 C674 1.327 . S
C672 H697 0.950 . S
C673 C672 1.349 . S
C673 C689 1.349 . S
C674 C672 1.327 . S
C674 C693 1.429 . S
C674 H698 0.950 . S
C675 C692 1.574 . S
C675 C694 1.368 . S
C675 H699 0.949 . S
H676 C680 0.949 1_556 S
C677 C678 1.349 1_554 S
C677 C679 1.327 . S
C677 H700 0.950 . S
C678 C677 1.349 1_556 S
C678 C690 1.349 . S
C679 C677 1.327 . S
C679 C695 1.429 . S
C679 H701 0.950 . S
C680 H676 0.949 1_554 S
C680 C688 1.574 . S
C680 C696 1.368 . S
H681 C689 0.950 . S
H682 C687 0.950 . S
H683 C688 0.949 . S
H684 C690 0.950 . S
H685 C691 0.950 . S
H686 C692 0.949 . S
C687 H682 0.950 . S
C687 C689 1.327 . S
C687 C693 1.429 . S
C688 C680 1.574 . S
C688 H683 0.949 . S
C688 C694 1.368 . S
C689 C673 1.349 . S
C689 H681 0.950 . S
C689 C687 1.327 . S
C690 C678 1.349 . S
C690 H684 0.950 . S
C690 C691 1.327 . S
C691 H685 0.950 . S
C691 C690 1.327 . S
C691 C695 1.429 1_556 S
C692 C675 1.574 . S
C692 H686 0.949 . S
C692 C696 1.368 . S
C693 C674 1.429 . S
C693 C687 1.429 . S
C693 C694 1.523 . S
C694 C675 1.368 . S
C694 C688 1.368 . S
C694 C693 1.523 . S
C695 C679 1.429 . S
C695 C691 1.429 1_554 S
C695 C696 1.523 1_545 S
C696 C680 1.368 . S
C696 C692 1.368 . S
C696 C695 1.523 1_565 S
H697 C672 0.950 . S
H698 C674 0.950 . S
H699 C675 0.949 . S
H700 C677 0.950 . S
H701 C679 0.950 . S
C702 C703 1.349 . S
C702 C704 1.327 . S
C702 H727 0.950 . S
C703 C702 1.349 . S
C703 C719 1.349 . S
C704 C702 1.327 . S
C704 C723 1.429 . S
C704 H728 0.950 . S
C705 C722 1.574 . S
C705 C724 1.368 . S
C705 H729 0.949 . S
H706 C710 0.949 1_455 S
C707 C708 1.349 . S
C707 C709 1.327 . S
C707 H730 0.950 . S
C708 C707 1.349 . S
C708 C720 1.349 1_554 S
C709 C707 1.327 . S
C709 C725 1.429 1_554 S
C709 H731 0.950 . S
C710 H706 0.949 1_655 S
C710 C718 1.574 . S
C710 C726 1.368 . S
H711 C719 0.950 . S
H712 C717 0.950 . S
H713 C718 0.949 . S
H714 C720 0.950 . S
H715 C721 0.950 . S
H716 C722 0.949 1_554 S
C717 H712 0.950 . S
C717 C719 1.327 . S
C717 C723 1.429 . S
C718 C710 1.574 . S
C718 H713 0.949 . S
C718 C724 1.368 . S
C719 C703 1.349 . S
C719 H711 0.950 . S
C719 C717 1.327 . S
C720 C708 1.349 1_556 S
C720 H714 0.950 . S
C720 C721 1.327 . S
C721 H715 0.950 . S
C721 C720 1.327 . S
C721 C725 1.429 . S
C722 C705 1.574 . S
C722 H716 0.949 1_556 S
C722 C726 1.368 . S
C723 C704 1.429 . S
C723 C717 1.429 . S
C723 C724 1.523 . S
C724 C705 1.368 . S
C724 C718 1.368 . S
C724 C723 1.523 . S
C725 C709 1.429 1_556 S
C725 C721 1.429 . S
C725 C726 1.523 1_455 S
C726 C710 1.368 . S
C726 C722 1.368 . S
C726 C725 1.523 1_655 S
H727 C702 0.950 . S
H728 C704 0.950 . S
H729 C705 0.949 . S
H730 C707 0.950 . S
H731 C709 0.950 . S
C732 C733 1.349 . S
C732 C734 1.327 . S
C732 H757 0.950 . S
C733 C732 1.349 . S
C733 C749 1.349 . S
C734 C732 1.327 . S
C734 C753 1.429 . S
C734 H758 0.950 . S
C735 C752 1.574 . S
C735 C754 1.368 . S
C735 H759 0.949 . S
H736 C740 0.949 1_554 S
C737 C738 1.349 1_556 S
C737 C739 1.327 . S
C737 H760 0.950 . S
C738 C737 1.349 1_554 S
C738 C750 1.349 . S
C739 C737 1.327 . S
C739 C755 1.429 . S
C739 H761 0.950 . S
C740 H736 0.949 1_556 S
C740 C748 1.574 . S
C740 C756 1.368 . S
H741 C749 0.950 . S
H742 C747 0.950 . S
H743 C748 0.949 . S
H744 C750 0.950 . S
H745 C751 0.950 . S
H746 C752 0.949 . S
C747 H742 0.950 . S
C747 C749 1.327 . S
C747 C753 1.429 . S
C748 C740 1.574 . S
C748 H743 0.949 . S
C748 C754 1.368 . S
C749 C733 1.349 . S
C749 H741 0.950 . S
C749 C747 1.327 . S
C750 C738 1.349 . S
C750 H744 0.950 . S
C750 C751 1.327 . S
C751 H745 0.950 . S
C751 C750 1.327 . S
C751 C755 1.429 1_554 S
C752 C735 1.574 . S
C752 H746 0.949 . S
C752 C756 1.368 . S
C753 C734 1.429 . S
C753 C747 1.429 . S
C753 C754 1.523 . S
C754 C735 1.368 . S
C754 C748 1.368 . S
C754 C753 1.523 . S
C755 C739 1.429 . S
C755 C751 1.429 1_556 S
C755 C756 1.523 . S
C756 C740 1.368 . S
C756 C752 1.368 . S
C756 C755 1.523 . S
H757 C732 0.950 . S
H758 C734 0.950 . S
H759 C735 0.949 . S
H760 C737 0.950 . S
H761 C739 0.950 . S
C762 C763 1.349 . S
C762 C764 1.327 . S
C762 H787 0.950 . S
C763 C762 1.349 . S
C763 C779 1.349 . S
C764 C762 1.327 . S
C764 C783 1.429 . S
C764 H788 0.950 . S
C765 C782 1.574 . S
C765 C784 1.368 . S
C765 H789 0.949 . S
H766 C770 0.949 1_565 S
C767 C768 1.349 . S
C767 C769 1.327 . S
C767 H790 0.950 . S
C768 C767 1.349 . S
C768 C780 1.349 1_554 S
C769 C767 1.327 . S
C769 C785 1.429 1_554 S
C769 H791 0.950 . S
C770 H766 0.949 1_545 S
C770 C778 1.574 . S
C770 C786 1.368 . S
H771 C779 0.950 . S
H772 C777 0.950 . S
H773 C778 0.949 . S
H774 C780 0.950 . S
H775 C781 0.950 . S
H776 C782 0.949 1_554 S
C777 H772 0.950 . S
C777 C779 1.327 . S
C777 C783 1.429 . S
C778 C770 1.574 . S
C778 H773 0.949 . S
C778 C784 1.368 . S
C779 C763 1.349 . S
C779 H771 0.950 . S
C779 C777 1.327 . S
C780 C768 1.349 1_556 S
C780 H774 0.950 . S
C780 C781 1.327 . S
C781 H775 0.950 . S
C781 C780 1.327 . S
C781 C785 1.429 . S
C782 C765 1.574 . S
C782 H776 0.949 1_556 S
C782 C786 1.368 . S
C783 C764 1.429 . S
C783 C777 1.429 . S
C783 C784 1.523 . S
C784 C765 1.368 . S
C784 C778 1.368 . S
C784 C783 1.523 . S
C785 C769 1.429 1_556 S
C785 C781 1.429 . S
C785 C786 1.523 1_565 S
C786 C770 1.368 . S
C786 C782 1.368 . S
C786 C785 1.523 1_545 S
H787 C762 0.950 . S
H788 C764 0.950 . S
H789 C765 0.949 . S
H790 C767 0.950 . S
H791 C769 0.950 . S
C792 C793 1.349 . S
C792 C794 1.327 . S
C792 H817 0.950 . S
C793 C792 1.349 . S
C793 C809 1.349 . S
C794 C792 1.327 . S
C794 C813 1.429 . S
C794 H818 0.950 . S
C795 C812 1.574 . S
C795 C814 1.368 . S
C795 H819 0.949 . S
H796 C800 0.949 . S
C797 C798 1.349 . S
C797 C799 1.327 . S
C797 H820 0.950 . S
C798 C797 1.349 . S
C798 C810 1.349 . S
C799 C797 1.327 . S
C799 C815 1.429 . S
C799 H821 0.950 . S
C800 H796 0.949 . S
C800 C808 1.574 . S
C800 C816 1.368 . S
H801 C809 0.950 . S
H802 C807 0.950 . S
H803 C808 0.949 . S
H804 C810 0.950 . S
H805 C811 0.950 . S
H806 C812 0.949 . S
C807 H802 0.950 . S
C807 C809 1.327 . S
C807 C813 1.429 . S
C808 C800 1.574 . S
C808 H803 0.949 . S
C808 C814 1.368 . S
C809 C793 1.349 . S
C809 H801 0.950 . S
C809 C807 1.327 . S
C810 C798 1.349 . S
C810 H804 0.950 . S
C810 C811 1.327 . S
C811 H805 0.950 . S
C811 C810 1.327 . S
C811 C815 1.429 . S
C812 C795 1.574 . S
C812 H806 0.949 . S
C812 C816 1.368 . S
C813 C794 1.429 . S
C813 C807 1.429 . S
C813 C814 1.523 . S
C814 C795 1.368 . S
C814 C808 1.368 . S
C814 C813 1.523 . S
C815 C799 1.429 . S
C815 C811 1.429 . S
C815 C816 1.523 . S
C816 C800 1.368 . S
C816 C812 1.368 . S
C816 C815 1.523 . S
H817 C792 0.950 . S
H818 C794 0.950 . S
H819 C795 0.949 . S
H820 C797 0.950 . S
H821 C799 0.950 . S
C822 C823 1.349 1_565 S
C822 C824 1.327 . S
C822 H847 0.950 . S
C823 C822 1.349 1_545 S
C823 C839 1.349 . S
C824 C822 1.327 . S
C824 C843 1.429 . S
C824 H848 0.950 . S
C825 C842 1.574 . S
C825 C844 1.368 . S
C825 H849 0.949 . S
H826 C830 0.949 . S
C827 C828 1.349 . S
C827 C829 1.327 . S
C827 H850 0.950 . S
C828 C827 1.349 . S
C828 C840 1.349 . S
C829 C827 1.327 . S
C829 C845 1.429 . S
C829 H851 0.950 . S
C830 H826 0.949 . S
C830 C838 1.574 . S
C830 C846 1.368 . S
H831 C839 0.950 . S
H832 C837 0.950 . S
H833 C838 0.949 . S
H834 C840 0.950 . S
H835 C841 0.950 . S
H836 C842 0.949 . S
C837 H832 0.950 . S
C837 C839 1.327 1_565 S
C837 C843 1.429 . S
C838 C830 1.574 . S
C838 H833 0.949 . S
C838 C844 1.368 . S
C839 C823 1.349 . S
C839 H831 0.950 . S
C839 C837 1.327 1_545 S
C840 C828 1.349 . S
C840 H834 0.950 . S
C840 C841 1.327 . S
C841 H835 0.950 . S
C841 C840 1.327 . S
C841 C845 1.429 . S
C842 C825 1.574 . S
C842 H836 0.949 . S
C842 C846 1.368 . S
C843 C824 1.429 . S
C843 C837 1.429 . S
C843 C844 1.523 . S
C844 C825 1.368 . S
C844 C838 1.368 . S
C844 C843 1.523 . S
C845 C829 1.429 . S
C845 C841 1.429 . S
C845 C846 1.523 . S
C846 C830 1.368 . S
C846 C842 1.368 . S
C846 C845 1.523 . S
H847 C822 0.950 . S
H848 C824 0.950 . S
H849 C825 0.949 . S
H850 C827 0.950 . S
H851 C829 0.950 . S
C852 C853 1.349 . S
C852 C854 1.327 . S
C852 H877 0.950 . S
C853 C852 1.349 . S
C853 C869 1.349 . S
C854 C852 1.327 . S
C854 C873 1.429 . S
C854 H878 0.950 . S
C855 C872 1.574 . S
C855 C874 1.368 . S
C855 H879 0.949 . S
H856 C860 0.949 . S
C857 C858 1.349 1_455 S
C857 C859 1.327 . S
C857 H880 0.950 . S
C858 C857 1.349 1_655 S
C858 C870 1.349 1_655 S
C859 C857 1.327 . S
C859 C875 1.429 . S
C859 H881 0.950 . S
C860 H856 0.949 . S
C860 C868 1.574 . S
C860 C876 1.368 . S
H861 C869 0.950 . S
H862 C867 0.950 . S
H863 C868 0.949 . S
H864 C870 0.950 1_655 S
H865 C871 0.950 . S
H866 C872 0.949 . S
C867 H862 0.950 . S
C867 C869 1.327 . S
C867 C873 1.429 . S
C868 C860 1.574 . S
C868 H863 0.949 . S
C868 C874 1.368 . S
C869 C853 1.349 . S
C869 H861 0.950 . S
C869 C867 1.327 . S
C870 C858 1.349 1_455 S
C870 H864 0.950 1_455 S
C870 C871 1.327 . S
C871 H865 0.950 . S
C871 C870 1.327 . S
C871 C875 1.429 . S
C872 C855 1.574 . S
C872 H866 0.949 . S
C872 C876 1.368 . S
C873 C854 1.429 . S
C873 C867 1.429 . S
C873 C874 1.523 . S
C874 C855 1.368 . S
C874 C868 1.368 . S
C874 C873 1.523 . S
C875 C859 1.429 . S
C875 C871 1.429 . S
C875 C876 1.523 . S
C876 C860 1.368 . S
C876 C872 1.368 . S
C876 C875 1.523 . S
H877 C852 0.950 . S
H878 C854 0.950 . S
H879 C855 0.949 . S
H880 C857 0.950 . S
H881 C859 0.950 . S
C882 C883 1.349 . S
C882 C884 1.327 . S
C882 H907 0.950 . S
C883 C882 1.349 . S
C883 C899 1.349 . S
C884 C882 1.327 . S
C884 C903 1.429 . S
C884 H908 0.950 . S
C885 C902 1.574 . S
C885 C904 1.368 . S
C885 H909 0.949 . S
H886 C890 0.949 . S
C887 C888 1.349 . S
C887 C889 1.327 . S
C887 H910 0.950 . S
C888 C887 1.349 . S
C888 C900 1.349 . S
C889 C887 1.327 . S
C889 C905 1.429 . S
C889 H911 0.950 . S
C890 H886 0.949 . S
C890 C898 1.574 . S
C890 C906 1.368 . S
H891 C899 0.950 . S
H892 C897 0.950 . S
H893 C898 0.949 . S
H894 C900 0.950 . S
H895 C901 0.950 . S
H896 C902 0.949 . S
C897 H892 0.950 . S
C897 C899 1.327 . S
C897 C903 1.429 . S
C898 C890 1.574 . S
C898 H893 0.949 . S
C898 C904 1.368 . S
C899 C883 1.349 . S
C899 H891 0.950 . S
C899 C897 1.327 . S
C900 C888 1.349 . S
C900 H894 0.950 . S
C900 C901 1.327 . S
C901 H895 0.950 . S
C901 C900 1.327 . S
C901 C905 1.429 . S
C902 C885 1.574 . S
C902 H896 0.949 . S
C902 C906 1.368 . S
C903 C884 1.429 . S
C903 C897 1.429 . S
C903 C904 1.523 . S
C904 C885 1.368 . S
C904 C898 1.368 . S
C904 C903 1.523 . S
C905 C889 1.429 . S
C905 C901 1.429 . S
C905 C906 1.523 . S
C906 C890 1.368 . S
C906 C902 1.368 . S
C906 C905 1.523 . S
H907 C882 0.950 . S
H908 C884 0.950 . S
H909 C885 0.949 . S
H910 C887 0.950 . S
H911 C889 0.950 . S
C912 C913 1.349 . S
C912 C914 1.327 . S
C912 H937 0.950 . S
C913 C912 1.349 . S
C913 C929 1.349 . S
C914 C912 1.327 . S
C914 C933 1.429 . S
C914 H938 0.950 . S
C915 C932 1.574 . S
C915 C934 1.368 . S
C915 H939 0.949 . S
H916 C920 0.949 . S
C917 C918 1.349 . S
C917 C919 1.327 . S
C917 H940 0.950 . S
C918 C917 1.349 . S
C918 C930 1.349 . S
C919 C917 1.327 . S
C919 C935 1.429 . S
C919 H941 0.950 . S
C920 H916 0.949 . S
C920 C928 1.574 . S
C920 C936 1.368 . S
H921 C929 0.950 . S
H922 C927 0.950 . S
H923 C928 0.949 . S
H924 C930 0.950 . S
H925 C931 0.950 . S
H926 C932 0.949 . S
C927 H922 0.950 . S
C927 C929 1.327 . S
C927 C933 1.429 . S
C928 C920 1.574 . S
C928 H923 0.949 . S
C928 C934 1.368 . S
C929 C913 1.349 . S
C929 H921 0.950 . S
C929 C927 1.327 . S
C930 C918 1.349 . S
C930 H924 0.950 . S
C930 C931 1.327 . S
C931 H925 0.950 . S
C931 C930 1.327 . S
C931 C935 1.429 . S
C932 C915 1.574 . S
C932 H926 0.949 . S
C932 C936 1.368 . S
C933 C914 1.429 . S
C933 C927 1.429 . S
C933 C934 1.523 . S
C934 C915 1.368 . S
C934 C928 1.368 . S
C934 C933 1.523 . S
C935 C919 1.429 . S
C935 C931 1.429 . S
C935 C936 1.523 . S
C936 C920 1.368 . S
C936 C932 1.368 . S
C936 C935 1.523 . S
H937 C912 0.950 . S
H938 C914 0.950 . S
H939 C915 0.949 . S
H940 C917 0.950 . S
H941 C919 0.950 . S
C942 C943 1.349 . S
C942 C944 1.327 . S
C942 H967 0.950 . S
C943 C942 1.349 . S
C943 C959 1.349 . S
C944 C942 1.327 . S
C944 C963 1.429 . S
C944 H968 0.950 . S
C945 C962 1.574 . S
C945 C964 1.368 . S
C945 H969 0.949 . S
H946 C950 0.949 . S
C947 C948 1.349 . S
C947 C949 1.327 . S
C947 H970 0.950 . S
C948 C947 1.349 . S
C948 C960 1.349 . S
C949 C947 1.327 . S
C949 C965 1.429 . S
C949 H971 0.950 . S
C950 H946 0.949 . S
C950 C958 1.574 . S
C950 C966 1.368 . S
H951 C959 0.950 . S
H952 C957 0.950 . S
H953 C958 0.949 . S
H954 C960 0.950 . S
H955 C961 0.950 . S
H956 C962 0.949 . S
C957 H952 0.950 . S
C957 C959 1.327 . S
C957 C963 1.429 . S
C958 C950 1.574 . S
C958 H953 0.949 . S
C958 C964 1.368 . S
C959 C943 1.349 . S
C959 H951 0.950 . S
C959 C957 1.327 . S
C960 C948 1.349 . S
C960 H954 0.950 . S
C960 C961 1.327 . S
C961 H955 0.950 . S
C961 C960 1.327 . S
C961 C965 1.429 . S
C962 C945 1.574 . S
C962 H956 0.949 . S
C962 C966 1.368 . S
C963 C944 1.429 . S
C963 C957 1.429 . S
C963 C964 1.523 . S
C964 C945 1.368 . S
C964 C958 1.368 . S
C964 C963 1.523 . S
C965 C949 1.429 . S
C965 C961 1.429 . S
C965 C966 1.523 . S
C966 C950 1.368 . S
C966 C962 1.368 . S
C966 C965 1.523 . S
H967 C942 0.950 . S
H968 C944 0.950 . S
H969 C945 0.949 . S
H970 C947 0.950 . S
H971 C949 0.950 . S
C972 C973 1.349 . S
C972 C974 1.327 . S
C972 H997 0.950 . S
C973 C972 1.349 . S
C973 C989 1.349 . S
C974 C972 1.327 . S
C974 C993 1.429 . S
C974 H998 0.950 . S
C975 C992 1.574 . S
C975 C994 1.368 . S
C975 H999 0.949 . S
H976 C980 0.949 . S
C977 C978 1.349 . S
C977 C979 1.327 . S
C977 H1000 0.950 . S
C978 C977 1.349 . S
C978 C990 1.349 . S
C979 C977 1.327 . S
C979 C995 1.429 . S
C979 H1001 0.950 . S
C980 H976 0.949 . S
C980 C988 1.574 . S
C980 C996 1.368 . S
H981 C989 0.950 . S
H982 C987 0.950 . S
H983 C988 0.949 . S
H984 C990 0.950 . S
H985 C991 0.950 . S
H986 C992 0.949 . S
C987 H982 0.950 . S
C987 C989 1.327 . S
C987 C993 1.429 . S
C988 C980 1.574 . S
C988 H983 0.949 . S
C988 C994 1.368 . S
C989 C973 1.349 . S
C989 H981 0.950 . S
C989 C987 1.327 . S
C990 C978 1.349 . S
C990 H984 0.950 . S
C990 C991 1.327 . S
C991 H985 0.950 . S
C991 C990 1.327 . S
C991 C995 1.429 . S
C992 C975 1.574 . S
C992 H986 0.949 . S
C992 C996 1.368 . S
C993 C974 1.429 . S
C993 C987 1.429 . S
C993 C994 1.523 . S
C994 C975 1.368 . S
C994 C988 1.368 . S
C994 C993 1.523 . S
C995 C979 1.429 . S
C995 C991 1.429 . S
C995 C996 1.523 . S
C996 C980 1.368 . S
C996 C992 1.368 . S
C996 C995 1.523 . S
H997 C972 0.950 . S
H998 C974 0.950 . S
H999 C975 0.949 . S
H1000 C977 0.950 . S
H1001 C979 0.950 . S
C1002 C1003 1.349 . S
C1002 C1004 1.327 . S
C1002 H1027 0.950 . S
C1003 C1002 1.349 . S
C1003 C1019 1.349 . S
C1004 C1002 1.327 . S
C1004 C1023 1.429 . S
C1004 H1028 0.950 . S
C1005 C1022 1.574 . S
C1005 C1024 1.368 . S
C1005 H1029 0.949 . S
H1006 C1010 0.949 . S
C1007 C1008 1.349 . S
C1007 C1009 1.327 . S
C1007 H1030 0.950 . S
C1008 C1007 1.349 . S
C1008 C1020 1.349 . S
C1009 C1007 1.327 . S
C1009 C1025 1.429 . S
C1009 H1031 0.950 . S
C1010 H1006 0.949 . S
C1010 C1018 1.574 . S
C1010 C1026 1.368 . S
H1011 C1019 0.950 . S
H1012 C1017 0.950 . S
H1013 C1018 0.949 . S
H1014 C1020 0.950 . S
H1015 C1021 0.950 . S
H1016 C1022 0.949 . S
C1017 H1012 0.950 . S
C1017 C1019 1.327 . S
C1017 C1023 1.429 . S
C1018 C1010 1.574 . S
C1018 H1013 0.949 . S
C1018 C1024 1.368 . S
C1019 C1003 1.349 . S
C1019 H1011 0.950 . S
C1019 C1017 1.327 . S
C1020 C1008 1.349 . S
C1020 H1014 0.950 . S
C1020 C1021 1.327 . S
C1021 H1015 0.950 . S
C1021 C1020 1.327 . S
C1021 C1025 1.429 . S
C1022 C1005 1.574 . S
C1022 H1016 0.949 . S
C1022 C1026 1.368 . S
C1023 C1004 1.429 . S
C1023 C1017 1.429 . S
C1023 C1024 1.523 . S
C1024 C1005 1.368 . S
C1024 C1018 1.368 . S
C1024 C1023 1.523 . S
C1025 C1009 1.429 . S
C1025 C1021 1.429 . S
C1025 C1026 1.523 . S
C1026 C1010 1.368 . S
C1026 C1022 1.368 . S
C1026 C1025 1.523 . S
H1027 C1002 0.950 . S
H1028 C1004 0.950 . S
H1029 C1005 0.949 . S
H1030 C1007 0.950 . S
H1031 C1009 0.950 . S
C1032 C1033 1.349 . S
C1032 C1034 1.327 . S
C1032 H1057 0.950 . S
C1033 C1032 1.349 . S
C1033 C1049 1.349 . S
C1034 C1032 1.327 . S
C1034 C1053 1.429 . S
C1034 H1058 0.950 . S
C1035 C1052 1.574 . S
C1035 C1054 1.368 . S
C1035 H1059 0.949 . S
H1036 C1040 0.949 . S
C1037 C1038 1.349 . S
C1037 C1039 1.327 . S
C1037 H1060 0.950 . S
C1038 C1037 1.349 . S
C1038 C1050 1.349 . S
C1039 C1037 1.327 . S
C1039 C1055 1.429 . S
C1039 H1061 0.950 . S
C1040 H1036 0.949 . S
C1040 C1048 1.574 . S
C1040 C1056 1.368 . S
H1041 C1049 0.950 . S
H1042 C1047 0.950 . S
H1043 C1048 0.949 . S
H1044 C1050 0.950 . S
H1045 C1051 0.950 . S
H1046 C1052 0.949 . S
C1047 H1042 0.950 . S
C1047 C1049 1.327 . S
C1047 C1053 1.429 . S
C1048 C1040 1.574 . S
C1048 H1043 0.949 . S
C1048 C1054 1.368 . S
C1049 C1033 1.349 . S
C1049 H1041 0.950 . S
C1049 C1047 1.327 . S
C1050 C1038 1.349 . S
C1050 H1044 0.950 . S
C1050 C1051 1.327 . S
C1051 H1045 0.950 . S
C1051 C1050 1.327 . S
C1051 C1055 1.429 . S
C1052 C1035 1.574 . S
C1052 H1046 0.949 . S
C1052 C1056 1.368 . S
C1053 C1034 1.429 . S
C1053 C1047 1.429 . S
C1053 C1054 1.523 . S
C1054 C1035 1.368 . S
C1054 C1048 1.368 . S
C1054 C1053 1.523 . S
C1055 C1039 1.429 . S
C1055 C1051 1.429 . S
C1055 C1056 1.523 . S
C1056 C1040 1.368 . S
C1056 C1052 1.368 . S
C1056 C1055 1.523 . S
H1057 C1032 0.950 . S
H1058 C1034 0.950 . S
H1059 C1035 0.949 . S
H1060 C1037 0.950 . S
H1061 C1039 0.950 . S
C1062 C1063 1.349 . S
C1062 C1064 1.327 . S
C1062 H1087 0.950 . S
C1063 C1062 1.349 . S
C1063 C1079 1.349 . S
C1064 C1062 1.327 . S
C1064 C1083 1.429 . S
C1064 H1088 0.950 . S
C1065 C1082 1.574 . S
C1065 C1084 1.368 . S
C1065 H1089 0.949 . S
H1066 C1070 0.949 . S
C1067 C1068 1.349 . S
C1067 C1069 1.327 . S
C1067 H1090 0.950 . S
C1068 C1067 1.349 . S
C1068 C1080 1.349 . S
C1069 C1067 1.327 . S
C1069 C1085 1.429 . S
C1069 H1091 0.950 . S
C1070 H1066 0.949 . S
C1070 C1078 1.574 . S
C1070 C1086 1.368 . S
H1071 C1079 0.950 . S
H1072 C1077 0.950 . S
H1073 C1078 0.949 . S
H1074 C1080 0.950 . S
H1075 C1081 0.950 . S
H1076 C1082 0.949 . S
C1077 H1072 0.950 . S
C1077 C1079 1.327 . S
C1077 C1083 1.429 . S
C1078 C1070 1.574 . S
C1078 H1073 0.949 . S
C1078 C1084 1.368 . S
C1079 C1063 1.349 . S
C1079 H1071 0.950 . S
C1079 C1077 1.327 . S
C1080 C1068 1.349 . S
C1080 H1074 0.950 . S
C1080 C1081 1.327 . S
C1081 H1075 0.950 . S
C1081 C1080 1.327 . S
C1081 C1085 1.429 . S
C1082 C1065 1.574 . S
C1082 H1076 0.949 . S
C1082 C1086 1.368 . S
C1083 C1064 1.429 . S
C1083 C1077 1.429 . S
C1083 C1084 1.523 . S
C1084 C1065 1.368 . S
C1084 C1078 1.368 . S
C1084 C1083 1.523 . S
C1085 C1069 1.429 . S
C1085 C1081 1.429 . S
C1085 C1086 1.523 . S
C1086 C1070 1.368 . S
C1086 C1082 1.368 . S
C1086 C1085 1.523 . S
H1087 C1062 0.950 . S
H1088 C1064 0.950 . S
H1089 C1065 0.949 . S
H1090 C1067 0.950 . S
H1091 C1069 0.950 . S
C1092 C1093 1.349 . S
C1092 C1094 1.327 . S
C1092 H1117 0.950 . S
C1093 C1092 1.349 . S
C1093 C1109 1.349 . S
C1094 C1092 1.327 . S
C1094 C1113 1.429 . S
C1094 H1118 0.950 . S
C1095 C1112 1.574 . S
C1095 C1114 1.368 . S
C1095 H1119 0.949 . S
H1096 C1100 0.949 . S
C1097 C1098 1.349 . S
C1097 C1099 1.327 1_565 S
C1097 H1120 0.950 . S
C1098 C1097 1.349 . S
C1098 C1110 1.349 1_565 S
C1099 C1097 1.327 1_545 S
C1099 C1115 1.429 . S
C1099 H1121 0.950 . S
C1100 H1096 0.949 . S
C1100 C1108 1.574 . S
C1100 C1116 1.368 . S
H1101 C1109 0.950 . S
H1102 C1107 0.950 . S
H1103 C1108 0.949 . S
H1104 C1110 0.950 . S
H1105 C1111 0.950 . S
H1106 C1112 0.949 . S
C1107 H1102 0.950 . S
C1107 C1109 1.327 . S
C1107 C1113 1.429 . S
C1108 C1100 1.574 . S
C1108 H1103 0.949 . S
C1108 C1114 1.368 . S
C1109 C1093 1.349 . S
C1109 H1101 0.950 . S
C1109 C1107 1.327 . S
C1110 C1098 1.349 1_545 S
C1110 H1104 0.950 . S
C1110 C1111 1.327 . S
C1111 H1105 0.950 . S
C1111 C1110 1.327 . S
C1111 C1115 1.429 . S
C1112 C1095 1.574 . S
C1112 H1106 0.949 . S
C1112 C1116 1.368 . S
C1113 C1094 1.429 . S
C1113 C1107 1.429 . S
C1113 C1114 1.523 . S
C1114 C1095 1.368 . S
C1114 C1108 1.368 . S
C1114 C1113 1.523 . S
C1115 C1099 1.429 . S
C1115 C1111 1.429 . S
C1115 C1116 1.523 . S
C1116 C1100 1.368 . S
C1116 C1112 1.368 . S
C1116 C1115 1.523 . S
H1117 C1092 0.950 . S
H1118 C1094 0.950 . S
H1119 C1095 0.949 . S
H1120 C1097 0.950 . S
H1121 C1099 0.950 . S
C1122 C1123 1.349 1_655 S
C1122 C1124 1.327 . S
C1122 H1147 0.950 . S
C1123 C1122 1.349 1_455 S
C1123 C1139 1.378 1_455 S
C1124 C1122 1.327 . S
C1124 C1143 1.429 . S
C1124 H1148 0.950 . S
C1125 C1142 1.574 . S
C1125 C1144 1.368 . S
C1125 H1149 0.949 . S
H1126 C1130 0.949 . S
C1127 C1128 1.349 . S
C1127 C1129 1.327 . S
C1127 H1150 0.950 . S
C1128 C1127 1.349 . S
C1128 C1140 1.349 . S
C1129 C1127 1.327 . S
C1129 C1145 1.429 . S
C1129 H1151 0.950 . S
C1130 H1126 0.949 . S
C1130 C1138 1.574 . S
C1130 C1146 1.368 . S
H1131 C1139 0.906 1_455 S
H1132 C1137 0.950 . S
H1133 C1138 0.949 . S
H1134 C1140 0.950 . S
H1135 C1141 0.950 . S
H1136 C1142 0.949 . S
C1137 H1132 0.950 . S
C1137 C1139 1.347 . S
C1137 C1143 1.429 . S
C1138 C1130 1.574 . S
C1138 H1133 0.949 . S
C1138 C1144 1.368 . S
C1139 C1123 1.378 1_655 S
C1139 H1131 0.906 1_655 S
C1139 C1137 1.347 . S
C1140 C1128 1.349 . S
C1140 H1134 0.950 . S
C1140 C1141 1.327 . S
C1141 H1135 0.950 . S
C1141 C1140 1.327 . S
C1141 C1145 1.429 . S
C1142 C1125 1.574 . S
C1142 H1136 0.949 . S
C1142 C1146 1.368 . S
C1143 C1124 1.429 . S
C1143 C1137 1.429 . S
C1143 C1144 1.523 . S
C1144 C1125 1.368 . S
C1144 C1138 1.368 . S
C1144 C1143 1.523 . S
C1145 C1129 1.429 . S
C1145 C1141 1.429 . S
C1145 C1146 1.523 . S
C1146 C1130 1.368 . S
C1146 C1142 1.368 . S
C1146 C1145 1.523 . S
H1147 C1122 0.950 . S
H1148 C1124 0.950 . S
H1149 C1125 0.949 . S
H1150 C1127 0.950 . S
H1151 C1129 0.950 . S
C1152 C1153 1.349 . S
C1152 C1154 1.327 . S
C1152 H1177 0.950 . S
C1153 C1152 1.349 . S
C1153 C1169 1.349 . S
C1154 C1152 1.327 . S
C1154 C1173 1.429 . S
C1154 H1178 0.950 . S
C1155 C1172 1.574 . S
C1155 C1174 1.368 . S
C1155 H1179 0.949 . S
H1156 C1160 0.949 . S
C1157 C1158 1.349 . S
C1157 C1159 1.327 . S
C1157 H1180 0.950 . S
C1158 C1157 1.349 . S
C1158 C1170 1.349 . S
C1159 C1157 1.327 . S
C1159 C1175 1.429 . S
C1159 H1181 0.950 . S
C1160 H1156 0.949 . S
C1160 C1168 1.574 . S
C1160 C1176 1.368 . S
H1161 C1169 0.950 . S
H1162 C1167 0.950 . S
H1163 C1168 0.949 . S
H1164 C1170 0.950 . S
H1165 C1171 0.950 . S
H1166 C1172 0.949 . S
C1167 H1162 0.950 . S
C1167 C1169 1.327 . S
C1167 C1173 1.429 . S
C1168 C1160 1.574 . S
C1168 H1163 0.949 . S
C1168 C1174 1.368 . S
C1169 C1153 1.349 . S
C1169 H1161 0.950 . S
C1169 C1167 1.327 . S
C1170 C1158 1.349 . S
C1170 H1164 0.950 . S
C1170 C1171 1.327 . S
C1171 H1165 0.950 . S
C1171 C1170 1.327 . S
C1171 C1175 1.429 . S
C1172 C1155 1.574 . S
C1172 H1166 0.949 . S
C1172 C1176 1.368 . S
C1173 C1154 1.429 . S
C1173 C1167 1.429 . S
C1173 C1174 1.523 . S
C1174 C1155 1.368 . S
C1174 C1168 1.368 . S
C1174 C1173 1.523 . S
C1175 C1159 1.429 . S
C1175 C1171 1.429 . S
C1175 C1176 1.523 . S
C1176 C1160 1.368 . S
C1176 C1172 1.368 . S
C1176 C1175 1.523 . S
H1177 C1152 0.950 . S
H1178 C1154 0.950 . S
H1179 C1155 0.949 . S
H1180 C1157 0.950 . S
H1181 C1159 0.950 . S
C1182 C1183 1.349 . S
C1182 C1184 1.327 . S
C1182 H1207 0.950 . S
C1183 C1182 1.349 . S
C1183 C1199 1.349 . S
C1184 C1182 1.327 . S
C1184 C1203 1.429 . S
C1184 H1208 0.950 . S
C1185 C1202 1.574 . S
C1185 C1204 1.368 . S
C1185 H1209 0.949 . S
H1186 C1190 0.949 . S
C1187 C1188 1.349 . S
C1187 C1189 1.327 . S
C1187 H1210 0.950 . S
C1188 C1187 1.349 . S
C1188 C1200 1.349 . S
C1189 C1187 1.327 . S
C1189 C1205 1.429 . S
C1189 H1211 0.950 . S
C1190 H1186 0.949 . S
C1190 C1198 1.574 . S
C1190 C1206 1.368 . S
H1191 C1199 0.950 . S
H1192 C1197 0.950 . S
H1193 C1198 0.949 . S
H1194 C1200 0.950 . S
H1195 C1201 0.950 . S
H1196 C1202 0.949 . S
C1197 H1192 0.950 . S
C1197 C1199 1.327 . S
C1197 C1203 1.429 . S
C1198 C1190 1.574 . S
C1198 H1193 0.949 . S
C1198 C1204 1.368 . S
C1199 C1183 1.349 . S
C1199 H1191 0.950 . S
C1199 C1197 1.327 . S
C1200 C1188 1.349 . S
C1200 H1194 0.950 . S
C1200 C1201 1.327 . S
C1201 H1195 0.950 . S
C1201 C1200 1.327 . S
C1201 C1205 1.429 . S
C1202 C1185 1.574 . S
C1202 H1196 0.949 . S
C1202 C1206 1.368 . S
C1203 C1184 1.429 . S
C1203 C1197 1.429 . S
C1203 C1204 1.523 . S
C1204 C1185 1.368 . S
C1204 C1198 1.368 . S
C1204 C1203 1.523 . S
C1205 C1189 1.429 . S
C1205 C1201 1.429 . S
C1205 C1206 1.523 . S
C1206 C1190 1.368 . S
C1206 C1202 1.368 . S
C1206 C1205 1.523 . S
H1207 C1182 0.950 . S
H1208 C1184 0.950 . S
H1209 C1185 0.949 . S
H1210 C1187 0.950 . S
H1211 C1189 0.950 . S
C1212 C1213 1.349 . S
C1212 C1214 1.327 . S
C1212 H1237 0.950 . S
C1213 C1212 1.349 . S
C1213 C1229 1.349 . S
C1214 C1212 1.327 . S
C1214 C1233 1.429 . S
C1214 H1238 0.950 . S
C1215 C1232 1.574 . S
C1215 C1234 1.368 . S
C1215 H1239 0.949 . S
H1216 C1220 0.949 . S
C1217 C1218 1.349 . S
C1217 C1219 1.327 . S
C1217 H1240 0.950 . S
C1218 C1217 1.349 . S
C1218 C1230 1.349 . S
C1219 C1217 1.327 . S
C1219 C1235 1.429 . S
C1219 H1241 0.950 . S
C1220 H1216 0.949 . S
C1220 C1228 1.574 . S
C1220 C1236 1.368 . S
H1221 C1229 0.950 . S
H1222 C1227 0.950 . S
H1223 C1228 0.949 . S
H1224 C1230 0.950 . S
H1225 C1231 0.950 . S
H1226 C1232 0.949 . S
C1227 H1222 0.950 . S
C1227 C1229 1.327 . S
C1227 C1233 1.429 . S
C1228 C1220 1.574 . S
C1228 H1223 0.949 . S
C1228 C1234 1.368 . S
C1229 C1213 1.349 . S
C1229 H1221 0.950 . S
C1229 C1227 1.327 . S
C1230 C1218 1.349 . S
C1230 H1224 0.950 . S
C1230 C1231 1.327 . S
C1231 H1225 0.950 . S
C1231 C1230 1.327 . S
C1231 C1235 1.429 . S
C1232 C1215 1.574 . S
C1232 H1226 0.949 . S
C1232 C1236 1.368 . S
C1233 C1214 1.429 . S
C1233 C1227 1.429 . S
C1233 C1234 1.523 . S
C1234 C1215 1.368 . S
C1234 C1228 1.368 . S
C1234 C1233 1.523 . S
C1235 C1219 1.429 . S
C1235 C1231 1.429 . S
C1235 C1236 1.523 . S
C1236 C1220 1.368 . S
C1236 C1232 1.368 . S
C1236 C1235 1.523 . S
H1237 C1212 0.950 . S
H1238 C1214 0.950 . S
H1239 C1215 0.949 . S
H1240 C1217 0.950 . S
H1241 C1219 0.950 . S
C1242 C1243 1.349 . S
C1242 C1244 1.327 . S
C1242 H1267 0.950 . S
C1243 C1242 1.349 . S
C1243 C1259 1.349 . S
C1244 C1242 1.327 . S
C1244 C1263 1.429 . S
C1244 H1268 0.950 . S
C1245 C1262 1.574 . S
C1245 C1264 1.368 . S
C1245 H1269 0.949 . S
H1246 C1250 0.949 . S
C1247 C1248 1.349 . S
C1247 C1249 1.327 . S
C1247 H1270 0.950 . S
C1248 C1247 1.349 . S
C1248 C1260 1.349 . S
C1249 C1247 1.327 . S
C1249 C1265 1.429 . S
C1249 H1271 0.950 . S
C1250 H1246 0.949 . S
C1250 C1258 1.574 . S
C1250 C1266 1.368 . S
H1251 C1259 0.950 . S
H1252 C1257 0.950 . S
H1253 C1258 0.949 . S
H1254 C1260 0.950 . S
H1255 C1261 0.950 . S
H1256 C1262 0.949 . S
C1257 H1252 0.950 . S
C1257 C1259 1.327 . S
C1257 C1263 1.429 . S
C1258 C1250 1.574 . S
C1258 H1253 0.949 . S
C1258 C1264 1.368 . S
C1259 C1243 1.349 . S
C1259 H1251 0.950 . S
C1259 C1257 1.327 . S
C1260 C1248 1.349 . S
C1260 H1254 0.950 . S
C1260 C1261 1.327 . S
C1261 H1255 0.950 . S
C1261 C1260 1.327 . S
C1261 C1265 1.429 . S
C1262 C1245 1.574 . S
C1262 H1256 0.949 . S
C1262 C1266 1.368 . S
C1263 C1244 1.429 . S
C1263 C1257 1.429 . S
C1263 C1264 1.523 . S
C1264 C1245 1.368 . S
C1264 C1258 1.368 . S
C1264 C1263 1.523 . S
C1265 C1249 1.429 . S
C1265 C1261 1.429 . S
C1265 C1266 1.523 . S
C1266 C1250 1.368 . S
C1266 C1262 1.368 . S
C1266 C1265 1.523 . S
H1267 C1242 0.950 . S
H1268 C1244 0.950 . S
H1269 C1245 0.949 . S
H1270 C1247 0.950 . S
H1271 C1249 0.950 . S
C1272 C1273 1.349 . S
C1272 C1274 1.327 . S
C1272 H1297 0.950 . S
C1273 C1272 1.349 . S
C1273 C1289 1.349 . S
C1274 C1272 1.327 . S
C1274 C1293 1.429 . S
C1274 H1298 0.950 . S
C1275 C1292 1.574 . S
C1275 C1294 1.368 . S
C1275 H1299 0.949 . S
H1276 C1280 0.949 . S
C1277 C1278 1.349 . S
C1277 C1279 1.327 . S
C1277 H1300 0.950 . S
C1278 C1277 1.349 . S
C1278 C1290 1.349 . S
C1279 C1277 1.327 . S
C1279 C1295 1.429 . S
C1279 H1301 0.950 . S
C1280 H1276 0.949 . S
C1280 C1288 1.574 . S
C1280 C1296 1.368 . S
H1281 C1289 0.950 . S
H1282 C1287 0.950 . S
H1283 C1288 0.949 . S
H1284 C1290 0.950 . S
H1285 C1291 0.950 . S
H1286 C1292 0.949 . S
C1287 H1282 0.950 . S
C1287 C1289 1.327 . S
C1287 C1293 1.429 . S
C1288 C1280 1.574 . S
C1288 H1283 0.949 . S
C1288 C1294 1.368 . S
C1289 C1273 1.349 . S
C1289 H1281 0.950 . S
C1289 C1287 1.327 . S
C1290 C1278 1.349 . S
C1290 H1284 0.950 . S
C1290 C1291 1.327 . S
C1291 H1285 0.950 . S
C1291 C1290 1.327 . S
C1291 C1295 1.429 . S
C1292 C1275 1.574 . S
C1292 H1286 0.949 . S
C1292 C1296 1.368 . S
C1293 C1274 1.429 . S
C1293 C1287 1.429 . S
C1293 C1294 1.523 . S
C1294 C1275 1.368 . S
C1294 C1288 1.368 . S
C1294 C1293 1.523 . S
C1295 C1279 1.429 . S
C1295 C1291 1.429 . S
C1295 C1296 1.523 . S
C1296 C1280 1.368 . S
C1296 C1292 1.368 . S
C1296 C1295 1.523 . S
H1297 C1272 0.950 . S
H1298 C1274 0.950 . S
H1299 C1275 0.949 . S
H1300 C1277 0.950 . S
H1301 C1279 0.950 . S
C1302 C1303 1.349 . S
C1302 C1304 1.327 . S
C1302 H1327 0.950 . S
C1303 C1302 1.349 . S
C1303 C1319 1.349 . S
C1304 C1302 1.327 . S
C1304 C1323 1.429 . S
C1304 H1328 0.950 . S
C1305 C1322 1.574 . S
C1305 C1324 1.368 . S
C1305 H1329 0.949 . S
H1306 C1310 0.949 . S
C1307 C1308 1.349 . S
C1307 C1309 1.327 . S
C1307 H1330 0.950 . S
C1308 C1307 1.349 . S
C1308 C1320 1.349 . S
C1309 C1307 1.327 . S
C1309 C1325 1.429 . S
C1309 H1331 0.950 . S
C1310 H1306 0.949 . S
C1310 C1318 1.574 . S
C1310 C1326 1.368 . S
H1311 C1319 0.950 . S
H1312 C1317 0.950 . S
H1313 C1318 0.949 . S
H1314 C1320 0.950 . S
H1315 C1321 0.950 . S
H1316 C1322 0.949 . S
C1317 H1312 0.950 . S
C1317 C1319 1.327 . S
C1317 C1323 1.429 . S
C1318 C1310 1.574 . S
C1318 H1313 0.949 . S
C1318 C1324 1.368 . S
C1319 C1303 1.349 . S
C1319 H1311 0.950 . S
C1319 C1317 1.327 . S
C1320 C1308 1.349 . S
C1320 H1314 0.950 . S
C1320 C1321 1.327 . S
C1321 H1315 0.950 . S
C1321 C1320 1.327 . S
C1321 C1325 1.429 . S
C1322 C1305 1.574 . S
C1322 H1316 0.949 . S
C1322 C1326 1.368 . S
C1323 C1304 1.429 . S
C1323 C1317 1.429 . S
C1323 C1324 1.523 . S
C1324 C1305 1.368 . S
C1324 C1318 1.368 . S
C1324 C1323 1.523 . S
C1325 C1309 1.429 . S
C1325 C1321 1.429 . S
C1325 C1326 1.523 . S
C1326 C1310 1.368 . S
C1326 C1322 1.368 . S
C1326 C1325 1.523 . S
H1327 C1302 0.950 . S
H1328 C1304 0.950 . S
H1329 C1305 0.949 . S
H1330 C1307 0.950 . S
H1331 C1309 0.950 . S
C1332 C1333 1.349 . S
C1332 C1334 1.327 . S
C1332 H1357 0.950 . S
C1333 C1332 1.349 . S
C1333 C1349 1.349 . S
C1334 C1332 1.327 . S
C1334 C1353 1.429 . S
C1334 H1358 0.950 . S
C1335 C1352 1.574 . S
C1335 C1354 1.368 . S
C1335 H1359 0.949 . S
H1336 C1340 0.949 . S
C1337 C1338 1.349 . S
C1337 C1339 1.327 . S
C1337 H1360 0.950 . S
C1338 C1337 1.349 . S
C1338 C1350 1.349 . S
C1339 C1337 1.327 . S
C1339 C1355 1.429 . S
C1339 H1361 0.950 . S
C1340 H1336 0.949 . S
C1340 C1348 1.574 . S
C1340 C1356 1.368 . S
H1341 C1349 0.950 . S
H1342 C1347 0.950 . S
H1343 C1348 0.949 . S
H1344 C1350 0.950 . S
H1345 C1351 0.950 . S
H1346 C1352 0.949 . S
C1347 H1342 0.950 . S
C1347 C1349 1.327 . S
C1347 C1353 1.429 . S
C1348 C1340 1.574 . S
C1348 H1343 0.949 . S
C1348 C1354 1.368 . S
C1349 C1333 1.349 . S
C1349 H1341 0.950 . S
C1349 C1347 1.327 . S
C1350 C1338 1.349 . S
C1350 H1344 0.950 . S
C1350 C1351 1.327 . S
C1351 H1345 0.950 . S
C1351 C1350 1.327 . S
C1351 C1355 1.429 . S
C1352 C1335 1.574 . S
C1352 H1346 0.949 . S
C1352 C1356 1.368 . S
C1353 C1334 1.429 . S
C1353 C1347 1.429 . S
C1353 C1354 1.523 . S
C1354 C1335 1.368 . S
C1354 C1348 1.368 . S
C1354 C1353 1.523 . S
C1355 C1339 1.429 . S
C1355 C1351 1.429 . S
C1355 C1356 1.523 . S
C1356 C1340 1.368 . S
C1356 C1352 1.368 . S
C1356 C1355 1.523 . S
H1357 C1332 0.950 . S
H1358 C1334 0.950 . S
H1359 C1335 0.949 . S
H1360 C1337 0.950 . S
H1361 C1339 0.950 . S
C1362 C1363 1.349 . S
C1362 C1364 1.327 . S
C1362 H1387 0.950 . S
C1363 C1362 1.349 . S
C1363 C1379 1.349 . S
C1364 C1362 1.327 . S
C1364 C1383 1.429 . S
C1364 H1388 0.950 . S
C1365 C1382 1.574 . S
C1365 C1384 1.368 . S
C1365 H1389 0.949 . S
H1366 C1370 0.949 . S
C1367 C1368 1.349 . S
C1367 C1369 1.327 . S
C1367 H1390 0.950 . S
C1368 C1367 1.349 . S
C1368 C1380 1.349 . S
C1369 C1367 1.327 . S
C1369 C1385 1.429 . S
C1369 H1391 0.950 . S
C1370 H1366 0.949 . S
C1370 C1378 1.574 . S
C1370 C1386 1.368 . S
H1371 C1379 0.950 . S
H1372 C1377 0.950 . S
H1373 C1378 0.949 . S
H1374 C1380 0.950 . S
H1375 C1381 0.950 . S
H1376 C1382 0.949 . S
C1377 H1372 0.950 . S
C1377 C1379 1.327 . S
C1377 C1383 1.429 . S
C1378 C1370 1.574 . S
C1378 H1373 0.949 . S
C1378 C1384 1.368 . S
C1379 C1363 1.349 . S
C1379 H1371 0.950 . S
C1379 C1377 1.327 . S
C1380 C1368 1.349 . S
C1380 H1374 0.950 . S
C1380 C1381 1.327 . S
C1381 H1375 0.950 . S
C1381 C1380 1.327 . S
C1381 C1385 1.429 . S
C1382 C1365 1.574 . S
C1382 H1376 0.949 . S
C1382 C1386 1.368 . S
C1383 C1364 1.429 . S
C1383 C1377 1.429 . S
C1383 C1384 1.523 . S
C1384 C1365 1.368 . S
C1384 C1378 1.368 . S
C1384 C1383 1.523 . S
C1385 C1369 1.429 . S
C1385 C1381 1.429 . S
C1385 C1386 1.523 . S
C1386 C1370 1.368 . S
C1386 C1382 1.368 . S
C1386 C1385 1.523 . S
H1387 C1362 0.950 . S
H1388 C1364 0.950 . S
H1389 C1365 0.949 . S
H1390 C1367 0.950 . S
H1391 C1369 0.950 . S
C1392 C1393 1.349 . S
C1392 C1394 1.327 . S
C1392 H1417 0.950 . S
C1393 C1392 1.349 . S
C1393 C1409 1.349 . S
C1394 C1392 1.327 . S
C1394 C1413 1.429 . S
C1394 H1418 0.950 . S
C1395 C1412 1.574 . S
C1395 C1414 1.368 . S
C1395 H1419 0.949 . S
H1396 C1400 0.949 . S
C1397 C1398 1.349 . S
C1397 C1399 1.327 . S
C1397 H1420 0.950 . S
C1398 C1397 1.349 . S
C1398 C1410 1.349 . S
C1399 C1397 1.327 . S
C1399 C1415 1.429 . S
C1399 H1421 0.950 . S
C1400 H1396 0.949 . S
C1400 C1408 1.574 . S
C1400 C1416 1.368 . S
H1401 C1409 0.950 . S
H1402 C1407 0.950 . S
H1403 C1408 0.949 . S
H1404 C1410 0.950 . S
H1405 C1411 0.950 . S
H1406 C1412 0.949 . S
C1407 H1402 0.950 . S
C1407 C1409 1.327 . S
C1407 C1413 1.429 . S
C1408 C1400 1.574 . S
C1408 H1403 0.949 . S
C1408 C1414 1.368 . S
C1409 C1393 1.349 . S
C1409 H1401 0.950 . S
C1409 C1407 1.327 . S
C1410 C1398 1.349 . S
C1410 H1404 0.950 . S
C1410 C1411 1.327 . S
C1411 H1405 0.950 . S
C1411 C1410 1.327 . S
C1411 C1415 1.429 . S
C1412 C1395 1.574 . S
C1412 H1406 0.949 . S
C1412 C1416 1.368 . S
C1413 C1394 1.429 . S
C1413 C1407 1.429 . S
C1413 C1414 1.523 . S
C1414 C1395 1.368 . S
C1414 C1408 1.368 . S
C1414 C1413 1.523 . S
C1415 C1399 1.429 . S
C1415 C1411 1.429 . S
C1415 C1416 1.523 . S
C1416 C1400 1.368 . S
C1416 C1412 1.368 . S
C1416 C1415 1.523 . S
H1417 C1392 0.950 . S
H1418 C1394 0.950 . S
H1419 C1395 0.949 . S
H1420 C1397 0.950 . S
H1421 C1399 0.950 . S
C1422 C1423 1.349 . S
C1422 C1424 1.327 . S
C1422 H1447 0.950 . S
C1423 C1422 1.349 . S
C1423 C1439 1.349 . S
C1424 C1422 1.327 . S
C1424 C1443 1.429 . S
C1424 H1448 0.950 . S
C1425 C1442 1.574 . S
C1425 C1444 1.368 . S
C1425 H1449 0.949 . S
H1426 C1430 0.949 . S
C1427 C1428 1.349 . S
C1427 C1429 1.327 . S
C1427 H1450 0.950 . S
C1428 C1427 1.349 . S
C1428 C1440 1.349 . S
C1429 C1427 1.327 . S
C1429 C1445 1.429 . S
C1429 H1451 0.950 . S
C1430 H1426 0.949 . S
C1430 C1438 1.574 . S
C1430 C1446 1.368 . S
H1431 C1439 0.950 . S
H1432 C1437 0.950 . S
H1433 C1438 0.949 . S
H1434 C1440 0.950 . S
H1435 C1441 0.950 . S
H1436 C1442 0.949 . S
C1437 H1432 0.950 . S
C1437 C1439 1.327 . S
C1437 C1443 1.429 . S
C1438 C1430 1.574 . S
C1438 H1433 0.949 . S
C1438 C1444 1.368 . S
C1439 C1423 1.349 . S
C1439 H1431 0.950 . S
C1439 C1437 1.327 . S
C1440 C1428 1.349 . S
C1440 H1434 0.950 . S
C1440 C1441 1.327 . S
C1441 H1435 0.950 . S
C1441 C1440 1.327 . S
C1441 C1445 1.429 . S
C1442 C1425 1.574 . S
C1442 H1436 0.949 . S
C1442 C1446 1.368 . S
C1443 C1424 1.429 . S
C1443 C1437 1.429 . S
C1443 C1444 1.523 . S
C1444 C1425 1.368 . S
C1444 C1438 1.368 . S
C1444 C1443 1.523 . S
C1445 C1429 1.429 . S
C1445 C1441 1.429 . S
C1445 C1446 1.523 . S
C1446 C1430 1.368 . S
C1446 C1442 1.368 . S
C1446 C1445 1.523 . S
H1447 C1422 0.950 . S
H1448 C1424 0.950 . S
H1449 C1425 0.949 . S
H1450 C1427 0.950 . S
H1451 C1429 0.950 . S
C1452 C1453 1.349 . S
C1452 C1454 1.327 . S
C1452 H1477 0.950 . S
C1453 C1452 1.349 . S
C1453 C1469 1.349 . S
C1454 C1452 1.327 . S
C1454 C1473 1.429 . S
C1454 H1478 0.950 . S
C1455 C1472 1.574 . S
C1455 C1474 1.368 . S
C1455 H1479 0.949 . S
H1456 C1460 0.949 . S
C1457 C1458 1.349 . S
C1457 C1459 1.327 . S
C1457 H1480 0.950 . S
C1458 C1457 1.349 . S
C1458 C1470 1.349 . S
C1459 C1457 1.327 . S
C1459 C1475 1.429 . S
C1459 H1481 0.950 . S
C1460 H1456 0.949 . S
C1460 C1468 1.574 . S
C1460 C1476 1.368 . S
H1461 C1469 0.950 . S
H1462 C1467 0.950 . S
H1463 C1468 0.949 . S
H1464 C1470 0.950 . S
H1465 C1471 0.950 . S
H1466 C1472 0.949 . S
C1467 H1462 0.950 . S
C1467 C1469 1.327 . S
C1467 C1473 1.429 . S
C1468 C1460 1.574 . S
C1468 H1463 0.949 . S
C1468 C1474 1.368 . S
C1469 C1453 1.349 . S
C1469 H1461 0.950 . S
C1469 C1467 1.327 . S
C1470 C1458 1.349 . S
C1470 H1464 0.950 . S
C1470 C1471 1.327 . S
C1471 H1465 0.950 . S
C1471 C1470 1.327 . S
C1471 C1475 1.429 . S
C1472 C1455 1.574 . S
C1472 H1466 0.949 . S
C1472 C1476 1.368 . S
C1473 C1454 1.429 . S
C1473 C1467 1.429 . S
C1473 C1474 1.523 . S
C1474 C1455 1.368 . S
C1474 C1468 1.368 . S
C1474 C1473 1.523 . S
C1475 C1459 1.429 . S
C1475 C1471 1.429 . S
C1475 C1476 1.523 . S
C1476 C1460 1.368 . S
C1476 C1472 1.368 . S
C1476 C1475 1.523 . S
H1477 C1452 0.950 . S
H1478 C1454 0.950 . S
H1479 C1455 0.949 . S
H1480 C1457 0.950 . S
H1481 C1459 0.950 . S
C1482 C1483 1.349 . S
C1482 C1484 1.327 . S
C1482 H1507 0.950 . S
C1483 C1482 1.349 . S
C1483 C1499 1.349 . S
C1484 C1482 1.327 . S
C1484 C1503 1.429 . S
C1484 H1508 0.950 . S
C1485 C1502 1.574 . S
C1485 C1504 1.368 . S
C1485 H1509 0.949 . S
H1486 C1490 0.949 . S
C1487 C1488 1.349 . S
C1487 C1489 1.327 . S
C1487 H1510 0.950 . S
C1488 C1487 1.349 . S
C1488 C1500 1.349 . S
C1489 C1487 1.327 . S
C1489 C1505 1.429 . S
C1489 H1511 0.950 . S
C1490 H1486 0.949 . S
C1490 C1498 1.574 . S
C1490 C1506 1.368 . S
H1491 C1499 0.950 . S
H1492 C1497 0.950 . S
H1493 C1498 0.949 . S
H1494 C1500 0.950 . S
H1495 C1501 0.950 . S
H1496 C1502 0.949 . S
C1497 H1492 0.950 . S
C1497 C1499 1.327 . S
C1497 C1503 1.429 . S
C1498 C1490 1.574 . S
C1498 H1493 0.949 . S
C1498 C1504 1.368 . S
C1499 C1483 1.349 . S
C1499 H1491 0.950 . S
C1499 C1497 1.327 . S
C1500 C1488 1.349 . S
C1500 H1494 0.950 . S
C1500 C1501 1.327 . S
C1501 H1495 0.950 . S
C1501 C1500 1.327 . S
C1501 C1505 1.429 . S
C1502 C1485 1.574 . S
C1502 H1496 0.949 . S
C1502 C1506 1.368 . S
C1503 C1484 1.429 . S
C1503 C1497 1.429 . S
C1503 C1504 1.523 . S
C1504 C1485 1.368 . S
C1504 C1498 1.368 . S
C1504 C1503 1.523 . S
C1505 C1489 1.429 . S
C1505 C1501 1.429 . S
C1505 C1506 1.523 . S
C1506 C1490 1.368 . S
C1506 C1502 1.368 . S
C1506 C1505 1.523 . S
H1507 C1482 0.950 . S
H1508 C1484 0.950 . S
H1509 C1485 0.949 . S
H1510 C1487 0.950 . S
H1511 C1489 0.950 . S
C1512 C1513 1.349 . S
C1512 C1514 1.327 . S
C1512 H1537 0.950 . S
C1513 C1512 1.349 . S
C1513 C1529 1.349 . S
C1514 C1512 1.327 . S
C1514 C1533 1.429 . S
C1514 H1538 0.950 . S
C1515 C1532 1.574 . S
C1515 C1534 1.368 . S
C1515 H1539 0.949 . S
H1516 C1520 0.949 . S
C1517 C1518 1.349 . S
C1517 C1519 1.327 . S
C1517 H1540 0.950 . S
C1518 C1517 1.349 . S
C1518 C1530 1.349 . S
C1519 C1517 1.327 . S
C1519 C1535 1.429 . S
C1519 H1541 0.950 . S
C1520 H1516 0.949 . S
C1520 C1528 1.574 . S
C1520 C1536 1.368 . S
H1521 C1529 0.950 . S
H1522 C1527 0.950 . S
H1523 C1528 0.949 . S
H1524 C1530 0.950 . S
H1525 C1531 0.950 . S
H1526 C1532 0.949 . S
C1527 H1522 0.950 . S
C1527 C1529 1.327 . S
C1527 C1533 1.429 . S
C1528 C1520 1.574 . S
C1528 H1523 0.949 . S
C1528 C1534 1.368 . S
C1529 C1513 1.349 . S
C1529 H1521 0.950 . S
C1529 C1527 1.327 . S
C1530 C1518 1.349 . S
C1530 H1524 0.950 . S
C1530 C1531 1.327 . S
C1531 H1525 0.950 . S
C1531 C1530 1.327 . S
C1531 C1535 1.429 . S
C1532 C1515 1.574 . S
C1532 H1526 0.949 . S
C1532 C1536 1.368 . S
C1533 C1514 1.429 . S
C1533 C1527 1.429 . S
C1533 C1534 1.523 . S
C1534 C1515 1.368 . S
C1534 C1528 1.368 . S
C1534 C1533 1.523 . S
C1535 C1519 1.429 . S
C1535 C1531 1.429 . S
C1535 C1536 1.523 . S
C1536 C1520 1.368 . S
C1536 C1532 1.368 . S
C1536 C1535 1.523 . S
H1537 C1512 0.950 . S
H1538 C1514 0.950 . S
H1539 C1515 0.949 . S
H1540 C1517 0.950 . S
H1541 C1519 0.950 . S
C1542 C1543 1.349 . S
C1542 C1544 1.327 . S
C1542 H1567 0.950 . S
C1543 C1542 1.349 . S
C1543 C1559 1.349 . S
C1544 C1542 1.327 . S
C1544 C1563 1.429 . S
C1544 H1568 0.950 . S
C1545 C1562 1.574 . S
C1545 C1564 1.368 . S
C1545 H1569 0.949 . S
H1546 C1550 0.949 . S
C1547 C1548 1.349 . S
C1547 C1549 1.327 . S
C1547 H1570 0.950 . S
C1548 C1547 1.349 . S
C1548 C1560 1.349 . S
C1549 C1547 1.327 . S
C1549 C1565 1.429 . S
C1549 H1571 0.950 . S
C1550 H1546 0.949 . S
C1550 C1558 1.574 . S
C1550 C1566 1.368 . S
H1551 C1559 0.950 . S
H1552 C1557 0.950 . S
H1553 C1558 0.949 . S
H1554 C1560 0.950 . S
H1555 C1561 0.950 . S
H1556 C1562 0.949 . S
C1557 H1552 0.950 . S
C1557 C1559 1.327 . S
C1557 C1563 1.429 . S
C1558 C1550 1.574 . S
C1558 H1553 0.949 . S
C1558 C1564 1.368 . S
C1559 C1543 1.349 . S
C1559 H1551 0.950 . S
C1559 C1557 1.327 . S
C1560 C1548 1.349 . S
C1560 H1554 0.950 . S
C1560 C1561 1.327 . S
C1561 H1555 0.950 . S
C1561 C1560 1.327 . S
C1561 C1565 1.429 . S
C1562 C1545 1.574 . S
C1562 H1556 0.949 . S
C1562 C1566 1.368 . S
C1563 C1544 1.429 . S
C1563 C1557 1.429 . S
C1563 C1564 1.523 . S
C1564 C1545 1.368 . S
C1564 C1558 1.368 . S
C1564 C1563 1.523 . S
C1565 C1549 1.429 . S
C1565 C1561 1.429 . S
C1565 C1566 1.523 . S
C1566 C1550 1.368 . S
C1566 C1562 1.368 . S
C1566 C1565 1.523 . S
H1567 C1542 0.950 . S
H1568 C1544 0.950 . S
H1569 C1545 0.949 . S
H1570 C1547 0.950 . S
H1571 C1549 0.950 . S
C1572 C1573 1.349 . S
C1572 C1574 1.327 . S
C1572 H1597 0.950 . S
C1573 C1572 1.349 . S
C1573 C1589 1.349 . S
C1574 C1572 1.327 . S
C1574 C1593 1.429 . S
C1574 H1598 0.950 . S
C1575 C1592 1.574 . S
C1575 C1594 1.368 . S
C1575 H1599 0.949 . S
H1576 C1580 0.949 . S
C1577 C1578 1.349 . S
C1577 C1579 1.327 . S
C1577 H1600 0.950 . S
C1578 C1577 1.349 . S
C1578 C1590 1.349 . S
C1579 C1577 1.327 . S
C1579 C1595 1.429 . S
C1579 H1601 0.950 . S
C1580 H1576 0.949 . S
C1580 C1588 1.574 . S
C1580 C1596 1.368 . S
H1581 C1589 0.950 . S
H1582 C1587 0.950 . S
H1583 C1588 0.949 . S
H1584 C1590 0.950 . S
H1585 C1591 0.950 . S
H1586 C1592 0.949 . S
C1587 H1582 0.950 . S
C1587 C1589 1.327 . S
C1587 C1593 1.429 . S
C1588 C1580 1.574 . S
C1588 H1583 0.949 . S
C1588 C1594 1.368 . S
C1589 C1573 1.349 . S
C1589 H1581 0.950 . S
C1589 C1587 1.327 . S
C1590 C1578 1.349 . S
C1590 H1584 0.950 . S
C1590 C1591 1.327 . S
C1591 H1585 0.950 . S
C1591 C1590 1.327 . S
C1591 C1595 1.429 . S
C1592 C1575 1.574 . S
C1592 H1586 0.949 . S
C1592 C1596 1.368 . S
C1593 C1574 1.429 . S
C1593 C1587 1.429 . S
C1593 C1594 1.523 . S
C1594 C1575 1.368 . S
C1594 C1588 1.368 . S
C1594 C1593 1.523 . S
C1595 C1579 1.429 . S
C1595 C1591 1.429 . S
C1595 C1596 1.523 . S
C1596 C1580 1.368 . S
C1596 C1592 1.368 . S
C1596 C1595 1.523 . S
H1597 C1572 0.950 . S
H1598 C1574 0.950 . S
H1599 C1575 0.949 . S
H1600 C1577 0.950 . S
H1601 C1579 0.950 . S
C1602 C1603 1.349 . S
C1602 C1604 1.327 . S
C1602 H1627 0.950 . S
C1603 C1602 1.349 . S
C1603 C1619 1.349 . S
C1604 C1602 1.327 . S
C1604 C1623 1.429 . S
C1604 H1628 0.950 . S
C1605 C1622 1.574 . S
C1605 C1624 1.368 . S
C1605 H1629 0.949 . S
H1606 C1610 0.949 . S
C1607 C1608 1.349 . S
C1607 C1609 1.327 . S
C1607 H1630 0.950 . S
C1608 C1607 1.349 . S
C1608 C1620 1.349 . S
C1609 C1607 1.327 . S
C1609 C1625 1.429 . S
C1609 H1631 0.950 . S
C1610 H1606 0.949 . S
C1610 C1618 1.574 . S
C1610 C1626 1.368 . S
H1611 C1619 0.950 . S
H1612 C1617 0.950 . S
H1613 C1618 0.949 . S
H1614 C1620 0.950 . S
H1615 C1621 0.950 . S
H1616 C1622 0.949 . S
C1617 H1612 0.950 . S
C1617 C1619 1.327 . S
C1617 C1623 1.429 . S
C1618 C1610 1.574 . S
C1618 H1613 0.949 . S
C1618 C1624 1.368 . S
C1619 C1603 1.349 . S
C1619 H1611 0.950 . S
C1619 C1617 1.327 . S
C1620 C1608 1.349 . S
C1620 H1614 0.950 . S
C1620 C1621 1.327 . S
C1621 H1615 0.950 . S
C1621 C1620 1.327 . S
C1621 C1625 1.429 . S
C1622 C1605 1.574 . S
C1622 H1616 0.949 . S
C1622 C1626 1.368 . S
C1623 C1604 1.429 . S
C1623 C1617 1.429 . S
C1623 C1624 1.523 . S
C1624 C1605 1.368 . S
C1624 C1618 1.368 . S
C1624 C1623 1.523 . S
C1625 C1609 1.429 . S
C1625 C1621 1.429 . S
C1625 C1626 1.523 . S
C1626 C1610 1.368 . S
C1626 C1622 1.368 . S
C1626 C1625 1.523 . S
H1627 C1602 0.950 . S
H1628 C1604 0.950 . S
H1629 C1605 0.949 . S
H1630 C1607 0.950 . S
H1631 C1609 0.950 . S
C1632 C1633 1.349 . S
C1632 C1634 1.327 . S
C1632 H1657 0.950 . S
C1633 C1632 1.349 . S
C1633 C1649 1.349 . S
C1634 C1632 1.327 . S
C1634 C1653 1.429 . S
C1634 H1658 0.950 . S
C1635 C1652 1.574 . S
C1635 C1654 1.368 . S
C1635 H1659 0.949 . S
H1636 C1640 0.949 . S
C1637 C1638 1.349 . S
C1637 C1639 1.327 . S
C1637 H1660 0.950 . S
C1638 C1637 1.349 . S
C1638 C1650 1.349 . S
C1639 C1637 1.327 . S
C1639 C1655 1.429 . S
C1639 H1661 0.950 . S
C1640 H1636 0.949 . S
C1640 C1648 1.574 . S
C1640 C1656 1.368 . S
H1641 C1649 0.950 . S
H1642 C1647 0.950 . S
H1643 C1648 0.949 . S
H1644 C1650 0.950 . S
H1645 C1651 0.950 . S
H1646 C1652 0.949 . S
C1647 H1642 0.950 . S
C1647 C1649 1.327 . S
C1647 C1653 1.429 . S
C1648 C1640 1.574 . S
C1648 H1643 0.949 . S
C1648 C1654 1.368 . S
C1649 C1633 1.349 . S
C1649 H1641 0.950 . S
C1649 C1647 1.327 . S
C1650 C1638 1.349 . S
C1650 H1644 0.950 . S
C1650 C1651 1.327 . S
C1651 H1645 0.950 . S
C1651 C1650 1.327 . S
C1651 C1655 1.429 . S
C1652 C1635 1.574 . S
C1652 H1646 0.949 . S
C1652 C1656 1.368 . S
C1653 C1634 1.429 . S
C1653 C1647 1.429 . S
C1653 C1654 1.523 . S
C1654 C1635 1.368 . S
C1654 C1648 1.368 . S
C1654 C1653 1.523 . S
C1655 C1639 1.429 . S
C1655 C1651 1.429 . S
C1655 C1656 1.523 . S
C1656 C1640 1.368 . S
C1656 C1652 1.368 . S
C1656 C1655 1.523 . S
H1657 C1632 0.950 . S
H1658 C1634 0.950 . S
H1659 C1635 0.949 . S
H1660 C1637 0.950 . S
H1661 C1639 0.950 . S
C1662 C1663 1.349 . S
C1662 C1664 1.327 . S
C1662 H1687 0.950 . S
C1663 C1662 1.349 . S
C1663 C1679 1.349 . S
C1664 C1662 1.327 . S
C1664 C1683 1.429 . S
C1664 H1688 0.950 . S
C1665 C1682 1.574 . S
C1665 C1684 1.368 . S
C1665 H1689 0.949 . S
H1666 C1670 0.949 . S
C1667 C1668 1.349 . S
C1667 C1669 1.327 . S
C1667 H1690 0.950 . S
C1668 C1667 1.349 . S
C1668 C1680 1.349 . S
C1669 C1667 1.327 . S
C1669 C1685 1.429 . S
C1669 H1691 0.950 . S
C1670 H1666 0.949 . S
C1670 C1678 1.574 . S
C1670 C1686 1.368 . S
H1671 C1679 0.950 . S
H1672 C1677 0.950 . S
H1673 C1678 0.949 . S
H1674 C1680 0.950 . S
H1675 C1681 0.950 . S
H1676 C1682 0.949 . S
C1677 H1672 0.950 . S
C1677 C1679 1.327 . S
C1677 C1683 1.429 . S
C1678 C1670 1.574 . S
C1678 H1673 0.949 . S
C1678 C1684 1.368 . S
C1679 C1663 1.349 . S
C1679 H1671 0.950 . S
C1679 C1677 1.327 . S
C1680 C1668 1.349 . S
C1680 H1674 0.950 . S
C1680 C1681 1.327 . S
C1681 H1675 0.950 . S
C1681 C1680 1.327 . S
C1681 C1685 1.429 . S
C1682 C1665 1.574 . S
C1682 H1676 0.949 . S
C1682 C1686 1.368 . S
C1683 C1664 1.429 . S
C1683 C1677 1.429 . S
C1683 C1684 1.523 . S
C1684 C1665 1.368 . S
C1684 C1678 1.368 . S
C1684 C1683 1.523 . S
C1685 C1669 1.429 . S
C1685 C1681 1.429 . S
C1685 C1686 1.523 . S
C1686 C1670 1.368 . S
C1686 C1682 1.368 . S
C1686 C1685 1.523 . S
H1687 C1662 0.950 . S
H1688 C1664 0.950 . S
H1689 C1665 0.949 . S
H1690 C1667 0.950 . S
H1691 C1669 0.950 . S
C1692 C1693 1.349 . S
C1692 C1694 1.327 . S
C1692 H1717 0.950 . S
C1693 C1692 1.349 . S
C1693 C1709 1.349 . S
C1694 C1692 1.327 . S
C1694 C1713 1.429 . S
C1694 H1718 0.950 . S
C1695 C1712 1.574 . S
C1695 C1714 1.368 . S
C1695 H1719 0.949 . S
H1696 C1700 0.949 . S
C1697 C1698 1.349 . S
C1697 C1699 1.327 . S
C1697 H1720 0.950 . S
C1698 C1697 1.349 . S
C1698 C1710 1.349 . S
C1699 C1697 1.327 . S
C1699 C1715 1.429 . S
C1699 H1721 0.950 . S
C1700 H1696 0.949 . S
C1700 C1708 1.574 . S
C1700 C1716 1.368 . S
H1701 C1709 0.950 . S
H1702 C1707 0.950 . S
H1703 C1708 0.949 . S
H1704 C1710 0.950 . S
H1705 C1711 0.950 . S
H1706 C1712 0.949 . S
C1707 H1702 0.950 . S
C1707 C1709 1.327 . S
C1707 C1713 1.429 . S
C1708 C1700 1.574 . S
C1708 H1703 0.949 . S
C1708 C1714 1.368 . S
C1709 C1693 1.349 . S
C1709 H1701 0.950 . S
C1709 C1707 1.327 . S
C1710 C1698 1.349 . S
C1710 H1704 0.950 . S
C1710 C1711 1.327 . S
C1711 H1705 0.950 . S
C1711 C1710 1.327 . S
C1711 C1715 1.429 . S
C1712 C1695 1.574 . S
C1712 H1706 0.949 . S
C1712 C1716 1.368 . S
C1713 C1694 1.429 . S
C1713 C1707 1.429 . S
C1713 C1714 1.523 . S
C1714 C1695 1.368 . S
C1714 C1708 1.368 . S
C1714 C1713 1.523 . S
C1715 C1699 1.429 . S
C1715 C1711 1.429 . S
C1715 C1716 1.523 . S
C1716 C1700 1.368 . S
C1716 C1712 1.368 . S
C1716 C1715 1.523 . S
H1717 C1692 0.950 . S
H1718 C1694 0.950 . S
H1719 C1695 0.949 . S
H1720 C1697 0.950 . S
H1721 C1699 0.950 . S
C1722 C1723 1.349 . S
C1722 C1724 1.327 . S
C1722 H1747 0.950 . S
C1723 C1722 1.349 . S
C1723 C1739 1.349 . S
C1724 C1722 1.327 . S
C1724 C1743 1.429 . S
C1724 H1748 0.950 . S
C1725 C1742 1.574 . S
C1725 C1744 1.368 . S
C1725 H1749 0.949 . S
H1726 C1730 0.949 . S
C1727 C1728 1.349 . S
C1727 C1729 1.327 . S
C1727 H1750 0.950 . S
C1728 C1727 1.349 . S
C1728 C1740 1.349 . S
C1729 C1727 1.327 . S
C1729 C1745 1.429 . S
C1729 H1751 0.950 . S
C1730 H1726 0.949 . S
C1730 C1738 1.574 . S
C1730 C1746 1.368 . S
H1731 C1739 0.950 . S
H1732 C1737 0.950 . S
H1733 C1738 0.949 . S
H1734 C1740 0.950 . S
H1735 C1741 0.950 . S
H1736 C1742 0.949 . S
C1737 H1732 0.950 . S
C1737 C1739 1.327 . S
C1737 C1743 1.429 . S
C1738 C1730 1.574 . S
C1738 H1733 0.949 . S
C1738 C1744 1.368 . S
C1739 C1723 1.349 . S
C1739 H1731 0.950 . S
C1739 C1737 1.327 . S
C1740 C1728 1.349 . S
C1740 H1734 0.950 . S
C1740 C1741 1.327 . S
C1741 H1735 0.950 . S
C1741 C1740 1.327 . S
C1741 C1745 1.429 . S
C1742 C1725 1.574 . S
C1742 H1736 0.949 . S
C1742 C1746 1.368 . S
C1743 C1724 1.429 . S
C1743 C1737 1.429 . S
C1743 C1744 1.523 . S
C1744 C1725 1.368 . S
C1744 C1738 1.368 . S
C1744 C1743 1.523 . S
C1745 C1729 1.429 . S
C1745 C1741 1.429 . S
C1745 C1746 1.523 . S
C1746 C1730 1.368 . S
C1746 C1742 1.368 . S
C1746 C1745 1.523 . S
H1747 C1722 0.950 . S
H1748 C1724 0.950 . S
H1749 C1725 0.949 . S
H1750 C1727 0.950 . S
H1751 C1729 0.950 . S
C1752 C1753 1.349 . S
C1752 C1754 1.327 . S
C1752 H1777 0.950 . S
C1753 C1752 1.349 . S
C1753 C1769 1.349 . S
C1754 C1752 1.327 . S
C1754 C1773 1.429 . S
C1754 H1778 0.950 . S
C1755 C1772 1.574 . S
C1755 C1774 1.368 . S
C1755 H1779 0.949 . S
H1756 C1760 0.949 . S
C1757 C1758 1.349 . S
C1757 C1759 1.327 . S
C1757 H1780 0.950 . S
C1758 C1757 1.349 . S
C1758 C1770 1.349 . S
C1759 C1757 1.327 . S
C1759 C1775 1.429 . S
C1759 H1781 0.950 . S
C1760 H1756 0.949 . S
C1760 C1768 1.574 . S
C1760 C1776 1.368 . S
H1761 C1769 0.950 . S
H1762 C1767 0.950 . S
H1763 C1768 0.949 . S
H1764 C1770 0.950 . S
H1765 C1771 0.950 . S
H1766 C1772 0.949 . S
C1767 H1762 0.950 . S
C1767 C1769 1.327 . S
C1767 C1773 1.429 . S
C1768 C1760 1.574 . S
C1768 H1763 0.949 . S
C1768 C1774 1.368 . S
C1769 C1753 1.349 . S
C1769 H1761 0.950 . S
C1769 C1767 1.327 . S
C1770 C1758 1.349 . S
C1770 H1764 0.950 . S
C1770 C1771 1.327 . S
C1771 H1765 0.950 . S
C1771 C1770 1.327 . S
C1771 C1775 1.429 . S
C1772 C1755 1.574 . S
C1772 H1766 0.949 . S
C1772 C1776 1.368 . S
C1773 C1754 1.429 . S
C1773 C1767 1.429 . S
C1773 C1774 1.523 . S
C1774 C1755 1.368 . S
C1774 C1768 1.368 . S
C1774 C1773 1.523 . S
C1775 C1759 1.429 . S
C1775 C1771 1.429 . S
C1775 C1776 1.523 . S
C1776 C1760 1.368 . S
C1776 C1772 1.368 . S
C1776 C1775 1.523 . S
H1777 C1752 0.950 . S
H1778 C1754 0.950 . S
H1779 C1755 0.949 . S
H1780 C1757 0.950 . S
H1781 C1759 0.950 . S
C1782 C1783 1.349 . S
C1782 C1784 1.327 . S
C1782 H1807 0.950 . S
C1783 C1782 1.349 . S
C1783 C1799 1.349 . S
C1784 C1782 1.327 . S
C1784 C1803 1.429 . S
C1784 H1808 0.950 . S
C1785 C1802 1.574 . S
C1785 C1804 1.368 . S
C1785 H1809 0.949 . S
H1786 C1790 0.949 . S
C1787 C1788 1.349 . S
C1787 C1789 1.327 . S
C1787 H1810 0.950 . S
C1788 C1787 1.349 . S
C1788 C1800 1.349 . S
C1789 C1787 1.327 . S
C1789 C1805 1.429 . S
C1789 H1811 0.950 . S
C1790 H1786 0.949 . S
C1790 C1798 1.574 . S
C1790 C1806 1.368 . S
H1791 C1799 0.950 . S
H1792 C1797 0.950 . S
H1793 C1798 0.949 . S
H1794 C1800 0.950 . S
H1795 C1801 0.950 . S
H1796 C1802 0.949 . S
C1797 H1792 0.950 . S
C1797 C1799 1.327 . S
C1797 C1803 1.429 . S
C1798 C1790 1.574 . S
C1798 H1793 0.949 . S
C1798 C1804 1.368 . S
C1799 C1783 1.349 . S
C1799 H1791 0.950 . S
C1799 C1797 1.327 . S
C1800 C1788 1.349 . S
C1800 H1794 0.950 . S
C1800 C1801 1.327 . S
C1801 H1795 0.950 . S
C1801 C1800 1.327 . S
C1801 C1805 1.429 . S
C1802 C1785 1.574 . S
C1802 H1796 0.949 . S
C1802 C1806 1.368 . S
C1803 C1784 1.429 . S
C1803 C1797 1.429 . S
C1803 C1804 1.523 . S
C1804 C1785 1.368 . S
C1804 C1798 1.368 . S
C1804 C1803 1.523 . S
C1805 C1789 1.429 . S
C1805 C1801 1.429 . S
C1805 C1806 1.523 . S
C1806 C1790 1.368 . S
C1806 C1802 1.368 . S
C1806 C1805 1.523 . S
H1807 C1782 0.950 . S
H1808 C1784 0.950 . S
H1809 C1785 0.949 . S
H1810 C1787 0.950 . S
H1811 C1789 0.950 . S
C1812 C1813 1.349 . S
C1812 C1814 1.327 . S
C1812 H1837 0.950 . S
C1813 C1812 1.349 . S
C1813 C1829 1.349 . S
C1814 C1812 1.327 . S
C1814 C1833 1.429 . S
C1814 H1838 0.950 . S
C1815 C1832 1.574 . S
C1815 C1834 1.368 . S
C1815 H1839 0.949 . S
H1816 C1820 0.949 . S
C1817 C1818 1.349 . S
C1817 C1819 1.327 . S
C1817 H1840 0.950 . S
C1818 C1817 1.349 . S
C1818 C1830 1.349 . S
C1819 C1817 1.327 . S
C1819 C1835 1.429 . S
C1819 H1841 0.950 . S
C1820 H1816 0.949 . S
C1820 C1828 1.574 . S
C1820 C1836 1.368 . S
H1821 C1829 0.950 . S
H1822 C1827 0.950 . S
H1823 C1828 0.949 . S
H1824 C1830 0.950 . S
H1825 C1831 0.950 . S
H1826 C1832 0.949 . S
C1827 H1822 0.950 . S
C1827 C1829 1.327 . S
C1827 C1833 1.429 . S
C1828 C1820 1.574 . S
C1828 H1823 0.949 . S
C1828 C1834 1.368 . S
C1829 C1813 1.349 . S
C1829 H1821 0.950 . S
C1829 C1827 1.327 . S
C1830 C1818 1.349 . S
C1830 H1824 0.950 . S
C1830 C1831 1.327 . S
C1831 H1825 0.950 . S
C1831 C1830 1.327 . S
C1831 C1835 1.429 . S
C1832 C1815 1.574 . S
C1832 H1826 0.949 . S
C1832 C1836 1.368 . S
C1833 C1814 1.429 . S
C1833 C1827 1.429 . S
C1833 C1834 1.523 . S
C1834 C1815 1.368 . S
C1834 C1828 1.368 . S
C1834 C1833 1.523 . S
C1835 C1819 1.429 . S
C1835 C1831 1.429 . S
C1835 C1836 1.523 . S
C1836 C1820 1.368 . S
C1836 C1832 1.368 . S
C1836 C1835 1.523 . S
H1837 C1812 0.950 . S
H1838 C1814 0.950 . S
H1839 C1815 0.949 . S
H1840 C1817 0.950 . S
H1841 C1819 0.950 . S
C1842 C1843 1.349 . S
C1842 C1844 1.327 . S
C1842 H1867 0.950 . S
C1843 C1842 1.349 . S
C1843 C1859 1.349 . S
C1844 C1842 1.327 . S
C1844 C1863 1.429 . S
C1844 H1868 0.950 . S
C1845 C1862 1.574 . S
C1845 C1864 1.368 . S
C1845 H1869 0.949 . S
H1846 C1850 0.949 . S
C1847 C1848 1.349 . S
C1847 C1849 1.327 . S
C1847 H1870 0.950 . S
C1848 C1847 1.349 . S
C1848 C1860 1.349 . S
C1849 C1847 1.327 . S
C1849 C1865 1.429 . S
C1849 H1871 0.950 . S
C1850 H1846 0.949 . S
C1850 C1858 1.574 . S
C1850 C1866 1.368 . S
H1851 C1859 0.950 . S
H1852 C1857 0.950 . S
H1853 C1858 0.949 . S
H1854 C1860 0.950 . S
H1855 C1861 0.950 . S
H1856 C1862 0.949 . S
C1857 H1852 0.950 . S
C1857 C1859 1.327 . S
C1857 C1863 1.429 . S
C1858 C1850 1.574 . S
C1858 H1853 0.949 . S
C1858 C1864 1.368 . S
C1859 C1843 1.349 . S
C1859 H1851 0.950 . S
C1859 C1857 1.327 . S
C1860 C1848 1.349 . S
C1860 H1854 0.950 . S
C1860 C1861 1.327 . S
C1861 H1855 0.950 . S
C1861 C1860 1.327 . S
C1861 C1865 1.429 . S
C1862 C1845 1.574 . S
C1862 H1856 0.949 . S
C1862 C1866 1.368 . S
C1863 C1844 1.429 . S
C1863 C1857 1.429 . S
C1863 C1864 1.523 . S
C1864 C1845 1.368 . S
C1864 C1858 1.368 . S
C1864 C1863 1.523 . S
C1865 C1849 1.429 . S
C1865 C1861 1.429 . S
C1865 C1866 1.523 . S
C1866 C1850 1.368 . S
C1866 C1862 1.368 . S
C1866 C1865 1.523 . S
H1867 C1842 0.950 . S
H1868 C1844 0.950 . S
H1869 C1845 0.949 . S
H1870 C1847 0.950 . S
H1871 C1849 0.950 . S
C1872 C1873 1.349 . S
C1872 C1874 1.327 . S
C1872 H1897 0.950 . S
C1873 C1872 1.349 . S
C1873 C1889 1.349 1_556 S
C1874 C1872 1.327 . S
C1874 C1893 1.429 . S
C1874 H1898 0.950 . S
C1875 C1892 1.574 1_545 S
C1875 C1894 1.368 1_554 S
C1875 H1899 0.949 . S
H1876 C1880 0.949 . S
C1877 C1878 1.349 . S
C1877 C1879 1.327 . S
C1877 H1900 0.950 . S
C1878 C1877 1.349 . S
C1878 C1890 1.349 1_554 S
C1879 C1877 1.327 . S
C1879 C1895 1.429 . S
C1879 H1901 0.950 . S
C1880 H1876 0.949 . S
C1880 C1888 1.574 1_565 S
C1880 C1896 1.368 1_556 S
H1881 C1889 0.950 . S
H1882 C1887 0.950 . S
H1883 C1888 0.949 . S
H1884 C1890 0.950 . S
H1885 C1891 0.950 . S
H1886 C1892 0.949 . S
C1887 H1882 0.950 . S
C1887 C1889 1.327 . S
C1887 C1893 1.429 1_554 S
C1888 C1880 1.574 1_545 S
C1888 H1883 0.949 . S
C1888 C1894 1.368 . S
C1889 C1873 1.349 1_554 S
C1889 H1881 0.950 . S
C1889 C1887 1.327 . S
C1890 C1878 1.349 1_556 S
C1890 H1884 0.950 . S
C1890 C1891 1.327 . S
C1891 H1885 0.950 . S
C1891 C1890 1.327 . S
C1891 C1895 1.429 1_556 S
C1892 C1875 1.574 1_565 S
C1892 H1886 0.949 . S
C1892 C1896 1.368 . S
C1893 C1874 1.429 . S
C1893 C1887 1.429 1_556 S
C1893 C1894 1.523 . S
C1894 C1875 1.368 1_556 S
C1894 C1888 1.368 . S
C1894 C1893 1.523 . S
C1895 C1879 1.429 . S
C1895 C1891 1.429 1_554 S
C1895 C1896 1.523 . S
C1896 C1880 1.368 1_554 S
C1896 C1892 1.368 . S
C1896 C1895 1.523 . S
H1897 C1872 0.950 . S
H1898 C1874 0.950 . S
H1899 C1875 0.949 . S
H1900 C1877 0.950 . S
H1901 C1879 0.950 . S
C1902 C1903 1.349 . S
C1902 C1904 1.327 . S
C1902 H1927 0.950 . S
C1903 C1902 1.349 . S
C1903 C1919 1.349 . S
C1904 C1902 1.327 . S
C1904 C1923 1.429 . S
C1904 H1928 0.950 . S
C1905 C1922 1.574 . S
C1905 C1924 1.368 1_556 S
C1905 H1929 0.949 . S
H1906 C1910 0.949 . S
C1907 C1908 1.349 . S
C1907 C1909 1.327 . S
C1907 H1930 0.950 . S
C1908 C1907 1.349 . S
C1908 C1920 1.349 . S
C1909 C1907 1.327 . S
C1909 C1925 1.429 . S
C1909 H1931 0.950 . S
C1910 H1906 0.949 . S
C1910 C1918 1.574 . S
C1910 C1926 1.368 1_554 S
H1911 C1919 0.950 1_556 S
H1912 C1917 0.950 . S
H1913 C1918 0.949 . S
H1914 C1920 0.950 1_554 S
H1915 C1921 0.950 . S
H1916 C1922 0.949 . S
C1917 H1912 0.950 . S
C1917 C1919 1.327 1_556 S
C1917 C1923 1.429 1_556 S
C1918 C1910 1.574 . S
C1918 H1913 0.949 . S
C1918 C1924 1.368 1_655 S
C1919 C1903 1.349 . S
C1919 H1911 0.950 1_554 S
C1919 C1917 1.327 1_554 S
C1920 C1908 1.349 . S
C1920 H1914 0.950 1_556 S
C1920 C1921 1.327 1_556 S
C1921 H1915 0.950 . S
C1921 C1920 1.327 1_554 S
C1921 C1925 1.429 1_554 S
C1922 C1905 1.574 . S
C1922 H1916 0.949 . S
C1922 C1926 1.368 1_455 S
C1923 C1904 1.429 . S
C1923 C1917 1.429 1_554 S
C1923 C1924 1.523 . S
C1924 C1905 1.368 1_554 S
C1924 C1918 1.368 1_455 S
C1924 C1923 1.523 . S
C1925 C1909 1.429 . S
C1925 C1921 1.429 1_556 S
C1925 C1926 1.523 . S
C1926 C1910 1.368 1_556 S
C1926 C1922 1.368 1_655 S
C1926 C1925 1.523 . S
H1927 C1902 0.950 . S
H1928 C1904 0.950 . S
H1929 C1905 0.949 . S
H1930 C1907 0.950 . S
H1931 C1909 0.950 . S
C1932 C1933 1.349 . S
C1932 C1934 1.327 . S
C1932 H1957 0.950 . S
C1933 C1932 1.349 . S
C1933 C1949 1.349 1_554 S
C1934 C1932 1.327 . S
C1934 C1953 1.429 . S
C1934 H1958 0.950 . S
C1935 C1952 1.574 . S
C1935 C1954 1.368 1_556 S
C1935 H1959 0.949 . S
H1936 C1940 0.949 . S
C1937 C1938 1.349 . S
C1937 C1939 1.327 . S
C1937 H1960 0.950 . S
C1938 C1937 1.349 . S
C1938 C1950 1.349 1_556 S
C1939 C1937 1.327 . S
C1939 C1955 1.429 . S
C1939 H1961 0.950 . S
C1940 H1936 0.949 . S
C1940 C1948 1.574 . S
C1940 C1956 1.368 1_554 S
H1941 C1949 0.950 . S
H1942 C1947 0.950 . S
H1943 C1948 0.949 . S
H1944 C1950 0.950 . S
H1945 C1951 0.950 . S
H1946 C1952 0.949 . S
C1947 H1942 0.950 . S
C1947 C1949 1.327 . S
C1947 C1953 1.429 1_556 S
C1948 C1940 1.574 . S
C1948 H1943 0.949 . S
C1948 C1954 1.368 . S
C1949 C1933 1.349 1_556 S
C1949 H1941 0.950 . S
C1949 C1947 1.327 . S
C1950 C1938 1.349 1_554 S
C1950 H1944 0.950 . S
C1950 C1951 1.327 . S
C1951 H1945 0.950 . S
C1951 C1950 1.327 . S
C1951 C1955 1.429 1_554 S
C1952 C1935 1.574 . S
C1952 H1946 0.949 . S
C1952 C1956 1.368 . S
C1953 C1934 1.429 . S
C1953 C1947 1.429 1_554 S
C1953 C1954 1.523 . S
C1954 C1935 1.368 1_554 S
C1954 C1948 1.368 . S
C1954 C1953 1.523 . S
C1955 C1939 1.429 . S
C1955 C1951 1.429 1_556 S
C1955 C1956 1.523 . S
C1956 C1940 1.368 1_556 S
C1956 C1952 1.368 . S
C1956 C1955 1.523 . S
H1957 C1932 0.950 . S
H1958 C1934 0.950 . S
H1959 C1935 0.949 . S
H1960 C1937 0.950 . S
H1961 C1939 0.950 . S
C1962 C1963 1.349 . S
C1962 C1964 1.327 . S
C1962 H1987 0.950 . S
C1963 C1962 1.349 . S
C1963 C1979 1.349 . S
C1964 C1962 1.327 . S
C1964 C1983 1.429 . S
C1964 H1988 0.950 . S
C1965 C1982 1.574 . S
C1965 C1984 1.368 . S
C1965 H1989 0.949 . S
H1966 C1970 0.949 . S
C1967 C1968 1.349 . S
C1967 C1969 1.327 . S
C1967 H1990 0.950 . S
C1968 C1967 1.349 . S
C1968 C1980 1.349 . S
C1969 C1967 1.327 . S
C1969 C1985 1.429 . S
C1969 H1991 0.950 . S
C1970 H1966 0.949 . S
C1970 C1978 1.574 . S
C1970 C1986 1.368 . S
H1971 C1979 0.950 . S
H1972 C1977 0.950 . S
H1973 C1978 0.949 . S
H1974 C1980 0.950 . S
H1975 C1981 0.950 . S
H1976 C1982 0.949 . S
C1977 H1972 0.950 . S
C1977 C1979 1.327 . S
C1977 C1983 1.429 . S
C1978 C1970 1.574 . S
C1978 H1973 0.949 . S
C1978 C1984 1.368 . S
C1979 C1963 1.349 . S
C1979 H1971 0.950 . S
C1979 C1977 1.327 . S
C1980 C1968 1.349 . S
C1980 H1974 0.950 . S
C1980 C1981 1.327 . S
C1981 H1975 0.950 . S
C1981 C1980 1.327 . S
C1981 C1985 1.429 . S
C1982 C1965 1.574 . S
C1982 H1976 0.949 . S
C1982 C1986 1.368 . S
C1983 C1964 1.429 . S
C1983 C1977 1.429 . S
C1983 C1984 1.523 . S
C1984 C1965 1.368 . S
C1984 C1978 1.368 . S
C1984 C1983 1.523 . S
C1985 C1969 1.429 . S
C1985 C1981 1.429 . S
C1985 C1986 1.523 . S
C1986 C1970 1.368 . S
C1986 C1982 1.368 . S
C1986 C1985 1.523 . S
H1987 C1962 0.950 . S
H1988 C1964 0.950 . S
H1989 C1965 0.949 . S
H1990 C1967 0.950 . S
H1991 C1969 0.950 . S
C1992 C1993 1.349 . S
C1992 C1994 1.327 . S
C1992 H2017 0.950 . S
C1993 C1992 1.349 . S
C1993 C2009 1.349 . S
C1994 C1992 1.327 . S
C1994 C2013 1.429 . S
C1994 H2018 0.950 . S
C1995 C2012 1.574 . S
C1995 C2014 1.368 . S
C1995 H2019 0.949 . S
H1996 C2000 0.949 . S
C1997 C1998 1.349 . S
C1997 C1999 1.327 . S
C1997 H2020 0.950 . S
C1998 C1997 1.349 . S
C1998 C2010 1.349 . S
C1999 C1997 1.327 . S
C1999 C2015 1.429 . S
C1999 H2021 0.950 . S
C2000 H1996 0.949 . S
C2000 C2008 1.574 . S
C2000 C2016 1.368 . S
H2001 C2009 0.950 . S
H2002 C2007 0.950 . S
H2003 C2008 0.949 . S
H2004 C2010 0.950 . S
H2005 C2011 0.950 . S
H2006 C2012 0.949 . S
C2007 H2002 0.950 . S
C2007 C2009 1.327 . S
C2007 C2013 1.429 . S
C2008 C2000 1.574 . S
C2008 H2003 0.949 . S
C2008 C2014 1.368 . S
C2009 C1993 1.349 . S
C2009 H2001 0.950 . S
C2009 C2007 1.327 . S
C2010 C1998 1.349 . S
C2010 H2004 0.950 . S
C2010 C2011 1.327 . S
C2011 H2005 0.950 . S
C2011 C2010 1.327 . S
C2011 C2015 1.429 . S
C2012 C1995 1.574 . S
C2012 H2006 0.949 . S
C2012 C2016 1.368 . S
C2013 C1994 1.429 . S
C2013 C2007 1.429 . S
C2013 C2014 1.523 . S
C2014 C1995 1.368 . S
C2014 C2008 1.368 . S
C2014 C2013 1.523 . S
C2015 C1999 1.429 . S
C2015 C2011 1.429 . S
C2015 C2016 1.523 . S
C2016 C2000 1.368 . S
C2016 C2012 1.368 . S
C2016 C2015 1.523 . S
H2017 C1992 0.950 . S
H2018 C1994 0.950 . S
H2019 C1995 0.949 . S
H2020 C1997 0.950 . S
H2021 C1999 0.950 . S
C2022 C2023 1.349 . S
C2022 C2024 1.327 . S
C2022 H2047 0.950 . S
C2023 C2022 1.349 . S
C2023 C2039 1.349 . S
C2024 C2022 1.327 . S
C2024 C2043 1.429 . S
C2024 H2048 0.950 . S
C2025 C2042 1.574 . S
C2025 C2044 1.368 . S
C2025 H2049 0.949 . S
H2026 C2030 0.949 . S
C2027 C2028 1.349 . S
C2027 C2029 1.327 . S
C2027 H2050 0.950 . S
C2028 C2027 1.349 . S
C2028 C2040 1.349 . S
C2029 C2027 1.327 . S
C2029 C2045 1.429 . S
C2029 H2051 0.950 . S
C2030 H2026 0.949 . S
C2030 C2038 1.574 . S
C2030 C2046 1.368 . S
H2031 C2039 0.950 . S
H2032 C2037 0.950 . S
H2033 C2038 0.949 . S
H2034 C2040 0.950 . S
H2035 C2041 0.950 . S
H2036 C2042 0.949 . S
C2037 H2032 0.950 . S
C2037 C2039 1.327 . S
C2037 C2043 1.429 . S
C2038 C2030 1.574 . S
C2038 H2033 0.949 . S
C2038 C2044 1.368 . S
C2039 C2023 1.349 . S
C2039 H2031 0.950 . S
C2039 C2037 1.327 . S
C2040 C2028 1.349 . S
C2040 H2034 0.950 . S
C2040 C2041 1.327 . S
C2041 H2035 0.950 . S
C2041 C2040 1.327 . S
C2041 C2045 1.429 . S
C2042 C2025 1.574 . S
C2042 H2036 0.949 . S
C2042 C2046 1.368 . S
C2043 C2024 1.429 . S
C2043 C2037 1.429 . S
C2043 C2044 1.523 . S
C2044 C2025 1.368 . S
C2044 C2038 1.368 . S
C2044 C2043 1.523 . S
C2045 C2029 1.429 . S
C2045 C2041 1.429 . S
C2045 C2046 1.523 . S
C2046 C2030 1.368 . S
C2046 C2042 1.368 . S
C2046 C2045 1.523 . S
H2047 C2022 0.950 . S
H2048 C2024 0.950 . S
H2049 C2025 0.949 . S
H2050 C2027 0.950 . S
H2051 C2029 0.950 . S
C2052 C2053 1.349 . S
C2052 C2054 1.327 . S
C2052 H2077 0.950 . S
C2053 C2052 1.349 . S
C2053 C2069 1.349 . S
C2054 C2052 1.327 . S
C2054 C2073 1.429 . S
C2054 H2078 0.950 . S
C2055 C2072 1.574 . S
C2055 C2074 1.368 . S
C2055 H2079 0.949 . S
H2056 C2060 0.949 . S
C2057 C2058 1.349 . S
C2057 C2059 1.327 . S
C2057 H2080 0.950 . S
C2058 C2057 1.349 . S
C2058 C2070 1.349 . S
C2059 C2057 1.327 . S
C2059 C2075 1.429 . S
C2059 H2081 0.950 . S
C2060 H2056 0.949 . S
C2060 C2068 1.574 . S
C2060 C2076 1.368 . S
H2061 C2069 0.950 . S
H2062 C2067 0.950 . S
H2063 C2068 0.949 . S
H2064 C2070 0.950 . S
H2065 C2071 0.950 . S
H2066 C2072 0.949 . S
C2067 H2062 0.950 . S
C2067 C2069 1.327 . S
C2067 C2073 1.429 . S
C2068 C2060 1.574 . S
C2068 H2063 0.949 . S
C2068 C2074 1.368 . S
C2069 C2053 1.349 . S
C2069 H2061 0.950 . S
C2069 C2067 1.327 . S
C2070 C2058 1.349 . S
C2070 H2064 0.950 . S
C2070 C2071 1.327 . S
C2071 H2065 0.950 . S
C2071 C2070 1.327 . S
C2071 C2075 1.429 . S
C2072 C2055 1.574 . S
C2072 H2066 0.949 . S
C2072 C2076 1.368 . S
C2073 C2054 1.429 . S
C2073 C2067 1.429 . S
C2073 C2074 1.523 . S
C2074 C2055 1.368 . S
C2074 C2068 1.368 . S
C2074 C2073 1.523 . S
C2075 C2059 1.429 . S
C2075 C2071 1.429 . S
C2075 C2076 1.523 . S
C2076 C2060 1.368 . S
C2076 C2072 1.368 . S
C2076 C2075 1.523 . S
H2077 C2052 0.950 . S
H2078 C2054 0.950 . S
H2079 C2055 0.949 . S
H2080 C2057 0.950 . S
H2081 C2059 0.950 . S
C2082 C2083 1.349 . S
C2082 C2084 1.327 . S
C2082 H2107 0.950 . S
C2083 C2082 1.349 . S
C2083 C2099 1.349 . S
C2084 C2082 1.327 . S
C2084 C2103 1.429 . S
C2084 H2108 0.950 . S
C2085 C2102 1.574 . S
C2085 C2104 1.368 . S
C2085 H2109 0.949 . S
H2086 C2090 0.949 . S
C2087 C2088 1.349 . S
C2087 C2089 1.327 . S
C2087 H2110 0.950 . S
C2088 C2087 1.349 . S
C2088 C2100 1.349 . S
C2089 C2087 1.327 . S
C2089 C2105 1.429 . S
C2089 H2111 0.950 . S
C2090 H2086 0.949 . S
C2090 C2098 1.574 . S
C2090 C2106 1.368 . S
H2091 C2099 0.950 . S
H2092 C2097 0.950 . S
H2093 C2098 0.949 . S
H2094 C2100 0.950 . S
H2095 C2101 0.950 . S
H2096 C2102 0.949 . S
C2097 H2092 0.950 . S
C2097 C2099 1.327 . S
C2097 C2103 1.429 . S
C2098 C2090 1.574 . S
C2098 H2093 0.949 . S
C2098 C2104 1.368 . S
C2099 C2083 1.349 . S
C2099 H2091 0.950 . S
C2099 C2097 1.327 . S
C2100 C2088 1.349 . S
C2100 H2094 0.950 . S
C2100 C2101 1.327 . S
C2101 H2095 0.950 . S
C2101 C2100 1.327 . S
C2101 C2105 1.429 . S
C2102 C2085 1.574 . S
C2102 H2096 0.949 . S
C2102 C2106 1.368 . S
C2103 C2084 1.429 . S
C2103 C2097 1.429 . S
C2103 C2104 1.523 . S
C2104 C2085 1.368 . S
C2104 C2098 1.368 . S
C2104 C2103 1.523 . S
C2105 C2089 1.429 . S
C2105 C2101 1.429 . S
C2105 C2106 1.523 . S
C2106 C2090 1.368 . S
C2106 C2102 1.368 . S
C2106 C2105 1.523 . S
H2107 C2082 0.950 . S
H2108 C2084 0.950 . S
H2109 C2085 0.949 . S
H2110 C2087 0.950 . S
H2111 C2089 0.950 . S
C2112 C2113 1.349 . S
C2112 C2114 1.327 . S
C2112 H2137 0.950 . S
C2113 C2112 1.349 . S
C2113 C2129 1.349 . S
C2114 C2112 1.327 . S
C2114 C2133 1.429 . S
C2114 H2138 0.950 . S
C2115 C2132 1.574 . S
C2115 C2134 1.368 . S
C2115 H2139 0.949 . S
H2116 C2120 0.949 . S
C2117 C2118 1.349 . S
C2117 C2119 1.327 . S
C2117 H2140 0.950 . S
C2118 C2117 1.349 . S
C2118 C2130 1.349 . S
C2119 C2117 1.327 . S
C2119 C2135 1.429 . S
C2119 H2141 0.950 . S
C2120 H2116 0.949 . S
C2120 C2128 1.574 . S
C2120 C2136 1.368 . S
H2121 C2129 0.950 . S
H2122 C2127 0.950 . S
H2123 C2128 0.949 . S
H2124 C2130 0.950 . S
H2125 C2131 0.950 . S
H2126 C2132 0.949 . S
C2127 H2122 0.950 . S
C2127 C2129 1.327 . S
C2127 C2133 1.429 . S
C2128 C2120 1.574 . S
C2128 H2123 0.949 . S
C2128 C2134 1.368 . S
C2129 C2113 1.349 . S
C2129 H2121 0.950 . S
C2129 C2127 1.327 . S
C2130 C2118 1.349 . S
C2130 H2124 0.950 . S
C2130 C2131 1.327 . S
C2131 H2125 0.950 . S
C2131 C2130 1.327 . S
C2131 C2135 1.429 . S
C2132 C2115 1.574 . S
C2132 H2126 0.949 . S
C2132 C2136 1.368 . S
C2133 C2114 1.429 . S
C2133 C2127 1.429 . S
C2133 C2134 1.523 . S
C2134 C2115 1.368 . S
C2134 C2128 1.368 . S
C2134 C2133 1.523 . S
C2135 C2119 1.429 . S
C2135 C2131 1.429 . S
C2135 C2136 1.523 . S
C2136 C2120 1.368 . S
C2136 C2132 1.368 . S
C2136 C2135 1.523 . S
H2137 C2112 0.950 . S
H2138 C2114 0.950 . S
H2139 C2115 0.949 . S
H2140 C2117 0.950 . S
H2141 C2119 0.950 . S
C2142 C2143 1.349 . S
C2142 C2144 1.327 . S
C2142 H2167 0.950 . S
C2143 C2142 1.349 . S
C2143 C2159 1.349 . S
C2144 C2142 1.327 . S
C2144 C2163 1.429 . S
C2144 H2168 0.950 . S
C2145 C2162 1.574 . S
C2145 C2164 1.368 . S
C2145 H2169 0.949 . S
H2146 C2150 0.949 . S
C2147 C2148 1.349 . S
C2147 C2149 1.327 . S
C2147 H2170 0.950 . S
C2148 C2147 1.349 . S
C2148 C2160 1.349 . S
C2149 C2147 1.327 . S
C2149 C2165 1.429 . S
C2149 H2171 0.950 . S
C2150 H2146 0.949 . S
C2150 C2158 1.574 . S
C2150 C2166 1.368 . S
H2151 C2159 0.950 . S
H2152 C2157 0.950 . S
H2153 C2158 0.949 . S
H2154 C2160 0.950 . S
H2155 C2161 0.950 . S
H2156 C2162 0.949 . S
C2157 H2152 0.950 . S
C2157 C2159 1.327 . S
C2157 C2163 1.429 . S
C2158 C2150 1.574 . S
C2158 H2153 0.949 . S
C2158 C2164 1.368 . S
C2159 C2143 1.349 . S
C2159 H2151 0.950 . S
C2159 C2157 1.327 . S
C2160 C2148 1.349 . S
C2160 H2154 0.950 . S
C2160 C2161 1.327 . S
C2161 H2155 0.950 . S
C2161 C2160 1.327 . S
C2161 C2165 1.429 . S
C2162 C2145 1.574 . S
C2162 H2156 0.949 . S
C2162 C2166 1.368 . S
C2163 C2144 1.429 . S
C2163 C2157 1.429 . S
C2163 C2164 1.523 1_556 S
C2164 C2145 1.368 . S
C2164 C2158 1.368 . S
C2164 C2163 1.523 1_554 S
C2165 C2149 1.429 . S
C2165 C2161 1.429 . S
C2165 C2166 1.523 . S
C2166 C2150 1.368 . S
C2166 C2162 1.368 . S
C2166 C2165 1.523 . S
H2167 C2142 0.950 . S
H2168 C2144 0.950 . S
H2169 C2145 0.949 . S
H2170 C2147 0.950 . S
H2171 C2149 0.950 . S
C2172 C2173 1.349 . S
C2172 C2174 1.327 . S
C2172 H2197 0.950 . S
C2173 C2172 1.349 . S
C2173 C2189 1.349 . S
C2174 C2172 1.327 . S
C2174 C2193 1.429 . S
C2174 H2198 0.950 . S
C2175 C2192 1.574 . S
C2175 C2194 1.368 . S
C2175 H2199 0.949 . S
H2176 C2180 0.949 . S
C2177 C2178 1.349 . S
C2177 C2179 1.327 . S
C2177 H2200 0.950 . S
C2178 C2177 1.349 . S
C2178 C2190 1.349 . S
C2179 C2177 1.327 . S
C2179 C2195 1.429 . S
C2179 H2201 0.950 . S
C2180 H2176 0.949 . S
C2180 C2188 1.574 . S
C2180 C2196 1.368 . S
H2181 C2189 0.950 . S
H2182 C2187 0.950 . S
H2183 C2188 0.949 . S
H2184 C2190 0.950 . S
H2185 C2191 0.950 . S
H2186 C2192 0.949 . S
C2187 H2182 0.950 . S
C2187 C2189 1.327 . S
C2187 C2193 1.429 . S
C2188 C2180 1.574 . S
C2188 H2183 0.949 . S
C2188 C2194 1.368 . S
C2189 C2173 1.349 . S
C2189 H2181 0.950 . S
C2189 C2187 1.327 . S
C2190 C2178 1.349 . S
C2190 H2184 0.950 . S
C2190 C2191 1.327 . S
C2191 H2185 0.950 . S
C2191 C2190 1.327 . S
C2191 C2195 1.429 . S
C2192 C2175 1.574 . S
C2192 H2186 0.949 . S
C2192 C2196 1.368 . S
C2193 C2174 1.429 . S
C2193 C2187 1.429 . S
C2193 C2194 1.523 1_556 S
C2194 C2175 1.368 . S
C2194 C2188 1.368 . S
C2194 C2193 1.523 1_554 S
C2195 C2179 1.429 . S
C2195 C2191 1.429 . S
C2195 C2196 1.523 . S
C2196 C2180 1.368 . S
C2196 C2192 1.368 . S
C2196 C2195 1.523 . S
H2197 C2172 0.950 . S
H2198 C2174 0.950 . S
H2199 C2175 0.949 . S
H2200 C2177 0.950 . S
H2201 C2179 0.950 . S
C2202 C2203 1.349 . S
C2202 C2204 1.327 . S
C2202 H2227 0.950 . S
C2203 C2202 1.349 . S
C2203 C2219 1.349 . S
C2204 C2202 1.327 . S
C2204 C2223 1.429 . S
C2204 H2228 0.950 . S
C2205 C2222 1.574 . S
C2205 C2224 1.368 . S
C2205 H2229 0.949 . S
H2206 C2210 0.949 . S
C2207 C2208 1.349 . S
C2207 C2209 1.327 . S
C2207 H2230 0.950 . S
C2208 C2207 1.349 . S
C2208 C2220 1.349 . S
C2209 C2207 1.327 . S
C2209 C2225 1.429 . S
C2209 H2231 0.950 . S
C2210 H2206 0.949 . S
C2210 C2218 1.574 . S
C2210 C2226 1.368 . S
H2211 C2219 0.950 . S
H2212 C2217 0.950 . S
H2213 C2218 0.949 . S
H2214 C2220 0.950 . S
H2215 C2221 0.950 . S
H2216 C2222 0.949 . S
C2217 H2212 0.950 . S
C2217 C2219 1.327 . S
C2217 C2223 1.429 . S
C2218 C2210 1.574 . S
C2218 H2213 0.949 . S
C2218 C2224 1.368 . S
C2219 C2203 1.349 . S
C2219 H2211 0.950 . S
C2219 C2217 1.327 . S
C2220 C2208 1.349 . S
C2220 H2214 0.950 . S
C2220 C2221 1.327 . S
C2221 H2215 0.950 . S
C2221 C2220 1.327 . S
C2221 C2225 1.429 . S
C2222 C2205 1.574 . S
C2222 H2216 0.949 . S
C2222 C2226 1.368 . S
C2223 C2204 1.429 . S
C2223 C2217 1.429 . S
C2223 C2224 1.523 . S
C2224 C2205 1.368 . S
C2224 C2218 1.368 . S
C2224 C2223 1.523 . S
C2225 C2209 1.429 . S
C2225 C2221 1.429 . S
C2225 C2226 1.523 1_556 S
C2226 C2210 1.368 . S
C2226 C2222 1.368 . S
C2226 C2225 1.523 1_554 S
H2227 C2202 0.950 . S
H2228 C2204 0.950 . S
H2229 C2205 0.949 . S
H2230 C2207 0.950 . S
H2231 C2209 0.950 . S
C2232 C2233 1.349 . S
C2232 C2234 1.327 . S
C2232 H2257 0.950 . S
C2233 C2232 1.349 . S
C2233 C2249 1.349 . S
C2234 C2232 1.327 . S
C2234 C2253 1.429 . S
C2234 H2258 0.950 . S
C2235 C2252 1.574 . S
C2235 C2254 1.368 . S
C2235 H2259 0.949 . S
H2236 C2240 0.949 . S
C2237 C2238 1.349 . S
C2237 C2239 1.327 . S
C2237 H2260 0.950 . S
C2238 C2237 1.349 . S
C2238 C2250 1.349 . S
C2239 C2237 1.327 . S
C2239 C2255 1.429 . S
C2239 H2261 0.950 . S
C2240 H2236 0.949 . S
C2240 C2248 1.574 . S
C2240 C2256 1.368 . S
H2241 C2249 0.950 . S
H2242 C2247 0.950 . S
H2243 C2248 0.949 . S
H2244 C2250 0.950 . S
H2245 C2251 0.950 . S
H2246 C2252 0.949 . S
C2247 H2242 0.950 . S
C2247 C2249 1.327 . S
C2247 C2253 1.429 . S
C2248 C2240 1.574 . S
C2248 H2243 0.949 . S
C2248 C2254 1.368 . S
C2249 C2233 1.349 . S
C2249 H2241 0.950 . S
C2249 C2247 1.327 . S
C2250 C2238 1.349 . S
C2250 H2244 0.950 . S
C2250 C2251 1.327 . S
C2251 H2245 0.950 . S
C2251 C2250 1.327 . S
C2251 C2255 1.429 . S
C2252 C2235 1.574 . S
C2252 H2246 0.949 . S
C2252 C2256 1.368 . S
C2253 C2234 1.429 . S
C2253 C2247 1.429 . S
C2253 C2254 1.523 . S
C2254 C2235 1.368 . S
C2254 C2248 1.368 . S
C2254 C2253 1.523 . S
C2255 C2239 1.429 . S
C2255 C2251 1.429 . S
C2255 C2256 1.523 . S
C2256 C2240 1.368 . S
C2256 C2252 1.368 . S
C2256 C2255 1.523 . S
H2257 C2232 0.950 . S
H2258 C2234 0.950 . S
H2259 C2235 0.949 . S
H2260 C2237 0.950 . S
H2261 C2239 0.950 . S
C2262 C2263 1.349 . S
C2262 C2264 1.327 . S
C2262 H2287 0.950 . S
C2263 C2262 1.349 . S
C2263 C2279 1.349 . S
C2264 C2262 1.327 . S
C2264 C2283 1.429 . S
C2264 H2288 0.950 . S
C2265 C2282 1.574 . S
C2265 C2284 1.368 . S
C2265 H2289 0.949 . S
H2266 C2270 0.949 . S
C2267 C2268 1.349 . S
C2267 C2269 1.327 . S
C2267 H2290 0.950 . S
C2268 C2267 1.349 . S
C2268 C2280 1.349 . S
C2269 C2267 1.327 . S
C2269 C2285 1.429 . S
C2269 H2291 0.950 . S
C2270 H2266 0.949 . S
C2270 C2278 1.574 . S
C2270 C2286 1.368 . S
H2271 C2279 0.950 . S
H2272 C2277 0.950 . S
H2273 C2278 0.949 . S
H2274 C2280 0.950 . S
H2275 C2281 0.950 . S
H2276 C2282 0.949 . S
C2277 H2272 0.950 . S
C2277 C2279 1.327 . S
C2277 C2283 1.429 . S
C2278 C2270 1.574 . S
C2278 H2273 0.949 . S
C2278 C2284 1.368 . S
C2279 C2263 1.349 . S
C2279 H2271 0.950 . S
C2279 C2277 1.327 . S
C2280 C2268 1.349 . S
C2280 H2274 0.950 . S
C2280 C2281 1.327 . S
C2281 H2275 0.950 . S
C2281 C2280 1.327 . S
C2281 C2285 1.429 . S
C2282 C2265 1.574 . S
C2282 H2276 0.949 . S
C2282 C2286 1.368 . S
C2283 C2264 1.429 . S
C2283 C2277 1.429 . S
C2283 C2284 1.523 . S
C2284 C2265 1.368 . S
C2284 C2278 1.368 . S
C2284 C2283 1.523 . S
C2285 C2269 1.429 . S
C2285 C2281 1.429 . S
C2285 C2286 1.523 . S
C2286 C2270 1.368 . S
C2286 C2282 1.368 . S
C2286 C2285 1.523 . S
H2287 C2262 0.950 . S
H2288 C2264 0.950 . S
H2289 C2265 0.949 . S
H2290 C2267 0.950 . S
H2291 C2269 0.950 . S
C2292 C2293 1.349 . S
C2292 C2294 1.327 . S
C2292 H2317 0.950 . S
C2293 C2292 1.349 . S
C2293 C2309 1.349 . S
C2294 C2292 1.327 . S
C2294 C2313 1.429 . S
C2294 H2318 0.950 . S
C2295 C2312 1.574 . S
C2295 C2314 1.368 . S
C2295 H2319 0.949 . S
H2296 C2300 0.949 . S
C2297 C2298 1.349 . S
C2297 C2299 1.327 . S
C2297 H2320 0.950 . S
C2298 C2297 1.349 . S
C2298 C2310 1.349 . S
C2299 C2297 1.327 . S
C2299 C2315 1.429 . S
C2299 H2321 0.950 . S
C2300 H2296 0.949 . S
C2300 C2308 1.574 . S
C2300 C2316 1.368 . S
H2301 C2309 0.950 . S
H2302 C2307 0.950 . S
H2303 C2308 0.949 . S
H2304 C2310 0.950 . S
H2305 C2311 0.950 . S
H2306 C2312 0.949 . S
C2307 H2302 0.950 . S
C2307 C2309 1.327 . S
C2307 C2313 1.429 . S
C2308 C2300 1.574 . S
C2308 H2303 0.949 . S
C2308 C2314 1.368 . S
C2309 C2293 1.349 . S
C2309 H2301 0.950 . S
C2309 C2307 1.327 . S
C2310 C2298 1.349 . S
C2310 H2304 0.950 . S
C2310 C2311 1.327 . S
C2311 H2305 0.950 . S
C2311 C2310 1.327 . S
C2311 C2315 1.429 . S
C2312 C2295 1.574 . S
C2312 H2306 0.949 . S
C2312 C2316 1.368 . S
C2313 C2294 1.429 . S
C2313 C2307 1.429 . S
C2313 C2314 1.523 . S
C2314 C2295 1.368 . S
C2314 C2308 1.368 . S
C2314 C2313 1.523 . S
C2315 C2299 1.429 . S
C2315 C2311 1.429 . S
C2315 C2316 1.523 . S
C2316 C2300 1.368 . S
C2316 C2312 1.368 . S
C2316 C2315 1.523 . S
H2317 C2292 0.950 . S
H2318 C2294 0.950 . S
H2319 C2295 0.949 . S
H2320 C2297 0.950 . S
H2321 C2299 0.950 . S
C2322 C2323 1.349 . S
C2322 C2324 1.327 . S
C2322 H2347 0.950 . S
C2323 C2322 1.349 . S
C2323 C2339 1.349 . S
C2324 C2322 1.327 . S
C2324 C2343 1.429 . S
C2324 H2348 0.950 . S
C2325 C2342 1.574 . S
C2325 C2344 1.368 . S
C2325 H2349 0.949 . S
H2326 C2330 0.949 . S
C2327 C2328 1.349 . S
C2327 C2329 1.327 . S
C2327 H2350 0.950 . S
C2328 C2327 1.349 . S
C2328 C2340 1.349 . S
C2329 C2327 1.327 . S
C2329 C2345 1.429 . S
C2329 H2351 0.950 . S
C2330 H2326 0.949 . S
C2330 C2338 1.574 . S
C2330 C2346 1.368 . S
H2331 C2339 0.950 . S
H2332 C2337 0.950 . S
H2333 C2338 0.949 . S
H2334 C2340 0.950 . S
H2335 C2341 0.950 . S
H2336 C2342 0.949 . S
C2337 H2332 0.950 . S
C2337 C2339 1.327 . S
C2337 C2343 1.429 . S
C2338 C2330 1.574 . S
C2338 H2333 0.949 . S
C2338 C2344 1.368 . S
C2339 C2323 1.349 . S
C2339 H2331 0.950 . S
C2339 C2337 1.327 . S
C2340 C2328 1.349 . S
C2340 H2334 0.950 . S
C2340 C2341 1.327 . S
C2341 H2335 0.950 . S
C2341 C2340 1.327 . S
C2341 C2345 1.429 . S
C2342 C2325 1.574 . S
C2342 H2336 0.949 . S
C2342 C2346 1.368 . S
C2343 C2324 1.429 . S
C2343 C2337 1.429 . S
C2343 C2344 1.523 . S
C2344 C2325 1.368 . S
C2344 C2338 1.368 . S
C2344 C2343 1.523 . S
C2345 C2329 1.429 . S
C2345 C2341 1.429 . S
C2345 C2346 1.523 . S
C2346 C2330 1.368 . S
C2346 C2342 1.368 . S
C2346 C2345 1.523 . S
H2347 C2322 0.950 . S
H2348 C2324 0.950 . S
H2349 C2325 0.949 . S
H2350 C2327 0.950 . S
H2351 C2329 0.950 . S
C2352 C2353 1.349 . S
C2352 C2354 1.327 . S
C2352 H2377 0.950 . S
C2353 C2352 1.349 . S
C2353 C2369 1.349 . S
C2354 C2352 1.327 . S
C2354 C2373 1.429 . S
C2354 H2378 0.950 . S
C2355 C2372 1.574 . S
C2355 C2374 1.368 . S
C2355 H2379 0.949 . S
H2356 C2360 0.949 . S
C2357 C2358 1.349 . S
C2357 C2359 1.327 . S
C2357 H2380 0.950 . S
C2358 C2357 1.349 . S
C2358 C2370 1.349 . S
C2359 C2357 1.327 . S
C2359 C2375 1.429 . S
C2359 H2381 0.950 . S
C2360 H2356 0.949 . S
C2360 C2368 1.574 . S
C2360 C2376 1.368 . S
H2361 C2369 0.950 . S
H2362 C2367 0.950 . S
H2363 C2368 0.949 . S
H2364 C2370 0.950 . S
H2365 C2371 0.950 . S
H2366 C2372 0.949 . S
C2367 H2362 0.950 . S
C2367 C2369 1.327 . S
C2367 C2373 1.429 . S
C2368 C2360 1.574 . S
C2368 H2363 0.949 . S
C2368 C2374 1.368 . S
C2369 C2353 1.349 . S
C2369 H2361 0.950 . S
C2369 C2367 1.327 . S
C2370 C2358 1.349 . S
C2370 H2364 0.950 . S
C2370 C2371 1.327 . S
C2371 H2365 0.950 . S
C2371 C2370 1.327 . S
C2371 C2375 1.429 . S
C2372 C2355 1.574 . S
C2372 H2366 0.949 . S
C2372 C2376 1.368 . S
C2373 C2354 1.429 . S
C2373 C2367 1.429 . S
C2373 C2374 1.523 . S
C2374 C2355 1.368 . S
C2374 C2368 1.368 . S
C2374 C2373 1.523 . S
C2375 C2359 1.429 . S
C2375 C2371 1.429 . S
C2375 C2376 1.523 . S
C2376 C2360 1.368 . S
C2376 C2372 1.368 . S
C2376 C2375 1.523 . S
H2377 C2352 0.950 . S
H2378 C2354 0.950 . S
H2379 C2355 0.949 . S
H2380 C2357 0.950 . S
H2381 C2359 0.950 . S
C2382 C2383 1.349 . S
C2382 C2384 1.327 . S
C2382 H2407 0.950 . S
C2383 C2382 1.349 . S
C2383 C2399 1.349 . S
C2384 C2382 1.327 . S
C2384 C2403 1.429 . S
C2384 H2408 0.950 . S
C2385 C2402 1.574 . S
C2385 C2404 1.368 . S
C2385 H2409 0.949 . S
H2386 C2390 0.949 . S
C2387 C2388 1.349 . S
C2387 C2389 1.327 . S
C2387 H2410 0.950 . S
C2388 C2387 1.349 . S
C2388 C2400 1.349 . S
C2389 C2387 1.327 . S
C2389 C2405 1.429 . S
C2389 H2411 0.950 . S
C2390 H2386 0.949 . S
C2390 C2398 1.574 . S
C2390 C2406 1.368 . S
H2391 C2399 0.950 . S
H2392 C2397 0.950 . S
H2393 C2398 0.949 . S
H2394 C2400 0.950 . S
H2395 C2401 0.950 . S
H2396 C2402 0.949 . S
C2397 H2392 0.950 . S
C2397 C2399 1.327 . S
C2397 C2403 1.429 . S
C2398 C2390 1.574 . S
C2398 H2393 0.949 . S
C2398 C2404 1.368 . S
C2399 C2383 1.349 . S
C2399 H2391 0.950 . S
C2399 C2397 1.327 . S
C2400 C2388 1.349 . S
C2400 H2394 0.950 . S
C2400 C2401 1.327 . S
C2401 H2395 0.950 . S
C2401 C2400 1.327 . S
C2401 C2405 1.429 . S
C2402 C2385 1.574 . S
C2402 H2396 0.949 . S
C2402 C2406 1.368 . S
C2403 C2384 1.429 . S
C2403 C2397 1.429 . S
C2403 C2404 1.523 . S
C2404 C2385 1.368 . S
C2404 C2398 1.368 . S
C2404 C2403 1.523 . S
C2405 C2389 1.429 . S
C2405 C2401 1.429 . S
C2405 C2406 1.523 . S
C2406 C2390 1.368 . S
C2406 C2402 1.368 . S
C2406 C2405 1.523 . S
H2407 C2382 0.950 . S
H2408 C2384 0.950 . S
H2409 C2385 0.949 . S
H2410 C2387 0.950 . S
H2411 C2389 0.950 . S
C2412 C2413 1.349 . S
C2412 C2414 1.327 . S
C2412 H2437 0.950 . S
C2413 C2412 1.349 . S
C2413 C2429 1.349 . S
C2414 C2412 1.327 . S
C2414 C2433 1.429 . S
C2414 H2438 0.950 . S
C2415 C2432 1.574 . S
C2415 C2434 1.368 . S
C2415 H2439 0.949 . S
H2416 C2420 0.949 . S
C2417 C2418 1.349 . S
C2417 C2419 1.327 . S
C2417 H2440 0.950 . S
C2418 C2417 1.349 . S
C2418 C2430 1.349 . S
C2419 C2417 1.327 . S
C2419 C2435 1.429 . S
C2419 H2441 0.950 . S
C2420 H2416 0.949 . S
C2420 C2428 1.574 . S
C2420 C2436 1.368 . S
H2421 C2429 0.950 . S
H2422 C2427 0.950 . S
H2423 C2428 0.949 . S
H2424 C2430 0.950 . S
H2425 C2431 0.950 . S
H2426 C2432 0.949 . S
C2427 H2422 0.950 . S
C2427 C2429 1.327 . S
C2427 C2433 1.429 . S
C2428 C2420 1.574 . S
C2428 H2423 0.949 . S
C2428 C2434 1.368 . S
C2429 C2413 1.349 . S
C2429 H2421 0.950 . S
C2429 C2427 1.327 . S
C2430 C2418 1.349 . S
C2430 H2424 0.950 . S
C2430 C2431 1.327 . S
C2431 H2425 0.950 . S
C2431 C2430 1.327 . S
C2431 C2435 1.429 . S
C2432 C2415 1.574 . S
C2432 H2426 0.949 . S
C2432 C2436 1.368 . S
C2433 C2414 1.429 . S
C2433 C2427 1.429 . S
C2433 C2434 1.523 1_554 S
C2434 C2415 1.368 . S
C2434 C2428 1.368 . S
C2434 C2433 1.523 1_556 S
C2435 C2419 1.429 . S
C2435 C2431 1.429 . S
C2435 C2436 1.523 . S
C2436 C2420 1.368 . S
C2436 C2432 1.368 . S
C2436 C2435 1.523 . S
H2437 C2412 0.950 . S
H2438 C2414 0.950 . S
H2439 C2415 0.949 . S
H2440 C2417 0.950 . S
H2441 C2419 0.950 . S
C2442 C2443 1.349 . S
C2442 C2444 1.327 . S
C2442 H2467 0.950 . S
C2443 C2442 1.349 . S
C2443 C2459 1.349 . S
C2444 C2442 1.327 . S
C2444 C2463 1.429 . S
C2444 H2468 0.950 . S
C2445 C2462 1.574 . S
C2445 C2464 1.368 . S
C2445 H2469 0.949 . S
H2446 C2450 0.949 . S
C2447 C2448 1.349 . S
C2447 C2449 1.327 . S
C2447 H2470 0.950 . S
C2448 C2447 1.349 . S
C2448 C2460 1.349 . S
C2449 C2447 1.327 . S
C2449 C2465 1.429 . S
C2449 H2471 0.950 . S
C2450 H2446 0.949 . S
C2450 C2458 1.574 . S
C2450 C2466 1.368 . S
H2451 C2459 0.950 . S
H2452 C2457 0.950 . S
H2453 C2458 0.949 . S
H2454 C2460 0.950 . S
H2455 C2461 0.950 . S
H2456 C2462 0.949 . S
C2457 H2452 0.950 . S
C2457 C2459 1.327 . S
C2457 C2463 1.429 . S
C2458 C2450 1.574 . S
C2458 H2453 0.949 . S
C2458 C2464 1.368 . S
C2459 C2443 1.349 . S
C2459 H2451 0.950 . S
C2459 C2457 1.327 . S
C2460 C2448 1.349 . S
C2460 H2454 0.950 . S
C2460 C2461 1.327 . S
C2461 H2455 0.950 . S
C2461 C2460 1.327 . S
C2461 C2465 1.429 . S
C2462 C2445 1.574 . S
C2462 H2456 0.949 . S
C2462 C2466 1.368 . S
C2463 C2444 1.429 . S
C2463 C2457 1.429 . S
C2463 C2464 1.523 . S
C2464 C2445 1.368 . S
C2464 C2458 1.368 . S
C2464 C2463 1.523 . S
C2465 C2449 1.429 . S
C2465 C2461 1.429 . S
C2465 C2466 1.523 1_554 S
C2466 C2450 1.368 . S
C2466 C2462 1.368 . S
C2466 C2465 1.523 1_556 S
H2467 C2442 0.950 . S
H2468 C2444 0.950 . S
H2469 C2445 0.949 . S
H2470 C2447 0.950 . S
H2471 C2449 0.950 . S
C2472 C2473 1.349 . S
C2472 C2474 1.327 . S
C2472 H2497 0.950 . S
C2473 C2472 1.349 . S
C2473 C2489 1.349 . S
C2474 C2472 1.327 . S
C2474 C2493 1.429 . S
C2474 H2498 0.950 . S
C2475 C2492 1.574 . S
C2475 C2494 1.368 . S
C2475 H2499 0.949 . S
H2476 C2480 0.949 . S
C2477 C2478 1.349 . S
C2477 C2479 1.327 . S
C2477 H2500 0.950 . S
C2478 C2477 1.349 . S
C2478 C2490 1.349 . S
C2479 C2477 1.327 . S
C2479 C2495 1.429 . S
C2479 H2501 0.950 . S
C2480 H2476 0.949 . S
C2480 C2488 1.574 . S
C2480 C2496 1.368 . S
H2481 C2489 0.950 . S
H2482 C2487 0.950 . S
H2483 C2488 0.949 . S
H2484 C2490 0.950 . S
H2485 C2491 0.950 . S
H2486 C2492 0.949 . S
C2487 H2482 0.950 . S
C2487 C2489 1.327 . S
C2487 C2493 1.429 . S
C2488 C2480 1.574 . S
C2488 H2483 0.949 . S
C2488 C2494 1.368 . S
C2489 C2473 1.349 . S
C2489 H2481 0.950 . S
C2489 C2487 1.327 . S
C2490 C2478 1.349 . S
C2490 H2484 0.950 . S
C2490 C2491 1.327 . S
C2491 H2485 0.950 . S
C2491 C2490 1.327 . S
C2491 C2495 1.429 . S
C2492 C2475 1.574 . S
C2492 H2486 0.949 . S
C2492 C2496 1.368 . S
C2493 C2474 1.429 . S
C2493 C2487 1.429 . S
C2493 C2494 1.523 . S
C2494 C2475 1.368 . S
C2494 C2488 1.368 . S
C2494 C2493 1.523 . S
C2495 C2479 1.429 . S
C2495 C2491 1.429 . S
C2495 C2496 1.523 1_554 S
C2496 C2480 1.368 . S
C2496 C2492 1.368 . S
C2496 C2495 1.523 1_556 S
H2497 C2472 0.950 . S
H2498 C2474 0.950 . S
H2499 C2475 0.949 . S
H2500 C2477 0.950 . S
H2501 C2479 0.950 . S
C613 C443 2.183 . S
C618 C3 2.125 . S
C643 C477 2.184 . S
C648 C37 2.125 . S
C673 C71 2.125 . S
C678 C409 2.183 . S
C703 C103 2.125 . S
C708 C341 2.183 . S
C733 C137 2.125 . S
C738 C377 2.184 . S
C763 C171 2.125 . S
C768 C309 2.183 . S
C793 C35 2.183 . S
C798 C207 2.125 . S
C823 C241 2.125 . S
C828 C69 2.183 . S
C853 C1 2.183 . S
C858 C275 2.125 . S
C883 C545 2.183 . S
C888 C307 2.125 . S
C913 C343 2.125 . S
C918 C581 2.183 . S
C943 C375 2.125 . S
C948 C511 2.183 . S
C973 C239 2.183 . S
C978 C411 2.125 . S
C1003 C445 2.125 . S
C1008 C273 2.183 . S
C1033 C479 2.125 . S
C1038 C205 2.183 . S
C1063 C139 2.183 . S
C1068 C513 2.125 . S
C1093 C173 2.183 . S
C1098 C547 2.125 . S
C1123 C579 2.125 . S
C1128 C105 2.183 . S
C1153 C380 1.253 . S
C1158 C17 1.230 . S
C1183 C312 1.254 . S
C1188 C51 1.231 . S
C1213 C368 1.253 . S
C1218 C85 1.231 . S
C1243 C119 1.230 . S
C1248 C504 1.253 . S
C1273 C153 1.231 . S
C1278 C436 1.254 . S
C1303 C187 1.231 . S
C1308 C470 1.253 . S
C1333 C221 1.230 . S
C1338 C584 1.253 1_655 S
C1363 C255 1.231 . S
C1368 C538 1.254 . S
C1393 C289 1.231 . S
C1398 C572 1.253 1_545 S
C1423 C96 1.253 . S
C1428 C323 1.230 . S
C1453 C28 1.254 . S
C1458 C357 1.231 . S
C1483 C391 1.230 . S
C1488 C62 1.253 . S
C1513 C425 1.230 . S
C1518 C176 1.253 . S
C1543 C459 1.231 . S
C1548 C108 1.254 . S
C1573 C493 1.230 . S
C1578 C142 1.253 . S
C1603 C527 1.230 . S
C1608 C300 1.253 1_455 S
C1633 C232 1.254 . S
C1638 C561 1.231 . S
C1663 C595 1.231 . S
C1668 C266 1.253 1_565 S
C1693 C6 0.321 . S
C1698 C516 0.321 . S
C1723 C550 0.320 . S
C1728 C40 0.320 . S
C1753 C74 0.320 . S
C1758 C606 0.320 . S
C1783 C210 0.321 . S
C1788 C130 0.321 . S
C1813 C244 0.320 . S
C1818 C164 0.320 . S
C1843 C278 0.320 . S
C1848 C198 0.320 . S
C1873 C414 0.321 . S
C1878 C334 0.321 . S
C1903 C346 0.320 . S
C1908 C448 0.320 . S
C1933 C402 0.320 . S
C1938 C482 0.320 . S
C1963 C15 1.552 1_556 S
C1968 C22 1.548 . S
C1993 C49 1.552 1_556 S
C1998 C56 1.548 . S
C2023 C83 1.551 1_556 S
C2028 C90 1.548 . S
C2053 C117 1.548 . S
C2058 C124 1.552 1_554 S
C2083 C151 1.548 . S
C2088 C158 1.552 1_554 S
C2113 C192 1.551 1_554 S
C2118 C185 1.548 . S
C2143 C226 1.549 . S
C2148 C219 1.552 . S
C2173 C260 1.548 . S
C2178 C253 1.551 . S
C2203 C287 1.551 . S
C2208 C294 1.548 . S
C2233 C321 1.549 . S
C2238 C328 1.552 . S
C2263 C362 1.548 . S
C2268 C355 1.552 . S
C2293 C396 1.551 . S
C2298 C389 1.548 . S
C2323 C423 1.552 . S
C2328 C430 1.549 . S
C2353 C457 1.552 . S
C2358 C464 1.548 . S
C2383 C498 1.548 . S
C2388 C491 1.551 . S
C2413 C532 1.549 . S
C2418 C525 1.552 . S
C2443 C559 1.551 . S
C2448 C566 1.548 . S
C2473 C600 1.551 . S
C2478 C593 1.548 . S
