# Generated by pormake.
# Topology snz, (6)-cn, num edge types: 1
# Building blocks:
#     Node 0, Type 0, BuildingBlock: CUWYAW_clean_sbu_0, # of connection points: 6
#     Node 1, Type 0, BuildingBlock: CUWYAW_clean_sbu_0, # of connection points: 6
#     Node 2, Type 0, BuildingBlock: CUWYAW_clean_sbu_0, # of connection points: 6
#     Node 3, Type 0, BuildingBlock: CUWYAW_clean_sbu_0, # of connection points: 6
#     Node 4, Type 0, BuildingBlock: CUWYAW_clean_sbu_0, # of connection points: 6
#     Node 5, Type 0, BuildingBlock: CUWYAW_clean_sbu_0, # of connection points: 6
#     Node 6, Type 0, BuildingBlock: CUWYAW_clean_sbu_0, # of connection points: 6
#     Node 7, Type 0, BuildingBlock: CUWYAW_clean_sbu_0, # of connection points: 6
#     Node 8, Type 0, BuildingBlock: CUWYAW_clean_sbu_0, # of connection points: 6
#     Edge 9, Type (0, 0), BuildingBlock: EYOCIG_clean_linker_4, # of connection points: 2
#     Edge 10, Type (0, 0), BuildingBlock: EYOCIG_clean_linker_4, # of connection points: 2
#     Edge 11, Type (0, 0), BuildingBlock: EYOCIG_clean_linker_4, # of connection points: 2
#     Edge 12, Type (0, 0), BuildingBlock: EYOCIG_clean_linker_4, # of connection points: 2
#     Edge 13, Type (0, 0), BuildingBlock: EYOCIG_clean_linker_4, # of connection points: 2
#     Edge 14, Type (0, 0), BuildingBlock: EYOCIG_clean_linker_4, # of connection points: 2
#     Edge 15, Type (0, 0), BuildingBlock: EYOCIG_clean_linker_4, # of connection points: 2
#     Edge 16, Type (0, 0), BuildingBlock: EYOCIG_clean_linker_4, # of connection points: 2
#     Edge 17, Type (0, 0), BuildingBlock: EYOCIG_clean_linker_4, # of connection points: 2
#     Edge 18, Type (0, 0), BuildingBlock: EYOCIG_clean_linker_4, # of connection points: 2
#     Edge 19, Type (0, 0), BuildingBlock: EYOCIG_clean_linker_4, # of connection points: 2
#     Edge 20, Type (0, 0), BuildingBlock: EYOCIG_clean_linker_4, # of connection points: 2
#     Edge 21, Type (0, 0), BuildingBlock: EYOCIG_clean_linker_4, # of connection points: 2
#     Edge 22, Type (0, 0), BuildingBlock: EYOCIG_clean_linker_4, # of connection points: 2
#     Edge 23, Type (0, 0), BuildingBlock: EYOCIG_clean_linker_4, # of connection points: 2
#     Edge 24, Type (0, 0), BuildingBlock: EYOCIG_clean_linker_4, # of connection points: 2
#     Edge 25, Type (0, 0), BuildingBlock: EYOCIG_clean_linker_4, # of connection points: 2
#     Edge 26, Type (0, 0), BuildingBlock: EYOCIG_clean_linker_4, # of connection points: 2
#     Edge 27, Type (0, 0), BuildingBlock: EYOCIG_clean_linker_4, # of connection points: 2
#     Edge 28, Type (0, 0), BuildingBlock: EYOCIG_clean_linker_4, # of connection points: 2
#     Edge 29, Type (0, 0), BuildingBlock: EYOCIG_clean_linker_4, # of connection points: 2
#     Edge 30, Type (0, 0), BuildingBlock: EYOCIG_clean_linker_4, # of connection points: 2
#     Edge 31, Type (0, 0), BuildingBlock: EYOCIG_clean_linker_4, # of connection points: 2
#     Edge 32, Type (0, 0), BuildingBlock: EYOCIG_clean_linker_4, # of connection points: 2
#     Edge 33, Type (0, 0), BuildingBlock: EYOCIG_clean_linker_4, # of connection points: 2
#     Edge 34, Type (0, 0), BuildingBlock: EYOCIG_clean_linker_4, # of connection points: 2
#     Edge 35, Type (0, 0), BuildingBlock: EYOCIG_clean_linker_4, # of connection points: 2
# Relax obj value: 0.174
# Max RMSD: 0.223
# Mean RMSD: 0.216
data_MOF--net-snz--node1-CUWYAW_clean_sbu_0--edge1-EYOCIG_clean_linker_4
_symmetry_space_group_name_H-M    P1
_symmetry_Int_Tables_number       1
_symmetry_cell_setting            triclinic
loop_
_symmetry_equiv_pos_as_xyz
'x, y, z'
_cell_length_a     55.917094
_cell_length_b     55.913302
_cell_length_c     11.670377
_cell_angle_alpha  90.02709
_cell_angle_beta   89.956238
_cell_angle_gamma 119.99934
loop_
_atom_site_label
_atom_site_type_symbol
_atom_site_fract_x
_atom_site_fract_y
_atom_site_fract_z
_atom_type_partial_charge
C0 C 0.12897 0.4659 0.03498 0.0
Eu1 Eu 0.16699 0.45704 0.10198 0.0
C2 C 0.1269 0.49055 0.04811 0.0
C3 C 0.11613 0.4951 0.14923 0.0
C4 C 0.11198 0.5174 0.15582 0.0
C5 C 0.11902 0.53504 0.06248 0.0
C6 C 0.13171 0.53211 0.96525 0.0
C7 C 0.13583 0.50984 0.95821 0.0
C8 C 0.1834 0.45556 0.32218 0.0
C9 C 0.22204 0.51727 0.12895 0.0
C10 C 0.26319 0.44596 0.17622 0.0
Eu11 Eu 0.22595 0.45849 0.10409 0.0
C12 C 0.27951 0.43085 0.16889 0.0
C13 C 0.2944 0.43155 0.06992 0.0
C14 C 0.31505 0.42384 0.07412 0.0
C15 C 0.32175 0.41535 0.17727 0.0
C16 C 0.30491 0.41193 0.27327 0.0
C17 C 0.28413 0.41947 0.26891 0.0
C18 C 0.21063 0.46196 0.88623 0.0
C19 C 0.16529 0.40166 0.0265 0.0
O20 O 0.14906 0.46897 0.96747 0.0
O21 O 0.12631 0.45173 0.12866 0.0
O22 O 0.16032 0.45437 0.29624 0.0
O23 O 0.19572 0.45644 0.22994 0.0
O24 O 0.19539 0.50277 0.10803 0.0
O25 O 0.23796 0.50531 0.13992 0.0
O26 O 0.23749 0.43334 0.21251 0.0
O27 O 0.2684 0.46606 0.10399 0.0
O28 O 0.23388 0.46318 0.91067 0.0
O29 O 0.1981 0.45997 0.97902 0.0
O30 O 0.19248 0.41373 0.04801 0.0
O31 O 0.15074 0.41384 0.04483 0.0
H32 H 0.10989 0.48097 0.22101 0.0
H33 H 0.10218 0.52015 0.23102 0.0
H34 H 0.13718 0.54618 0.89325 0.0
H35 H 0.14492 0.50714 0.88075 0.0
H36 H 0.29128 0.4396 0.99047 0.0
H37 H 0.32696 0.42612 0.99756 0.0
H38 H 0.3088 0.40491 0.35392 0.0
H39 H 0.27292 0.41815 0.34664 0.0
C40 C 0.81987 0.57165 0.03436 0.0
Eu41 Eu 0.82863 0.61852 0.10134 0.0
C42 C 0.7952 0.54494 0.0473 0.0
C43 C 0.7906 0.5296 0.14836 0.0
C44 C 0.76814 0.50326 0.15522 0.0
C45 C 0.75039 0.49276 0.0622 0.0
C46 C 0.75344 0.50837 0.96487 0.0
C47 C 0.77588 0.53466 0.95755 0.0
C48 C 0.82988 0.63629 0.32171 0.0
C49 C 0.76845 0.6134 0.12865 0.0
C50 C 0.83992 0.72591 0.17601 0.0
Eu51 Eu 0.8272 0.67607 0.1038 0.0
C52 C 0.8551 0.75735 0.16874 0.0
C53 C 0.85435 0.77156 0.06999 0.0
C54 C 0.86209 0.79992 0.07436 0.0
C55 C 0.87068 0.81513 0.17749 0.0
C56 C 0.87416 0.8017 0.27324 0.0
C57 C 0.86658 0.77337 0.2687 0.0
C58 C 0.82343 0.65709 0.88595 0.0
C59 C 0.88398 0.67218 0.02559 0.0
O60 O 0.81688 0.58867 0.96672 0.0
O61 O 0.83395 0.58316 0.12823 0.0
O62 O 0.83106 0.61439 0.29559 0.0
O63 O 0.82915 0.64781 0.22954 0.0
O64 O 0.78291 0.60125 0.10684 0.0
O65 O 0.78043 0.64128 0.14028 0.0
O66 O 0.8525 0.71277 0.21203 0.0
O67 O 0.81977 0.71104 0.10401 0.0
O68 O 0.82222 0.67914 0.91052 0.0
O69 O 0.82559 0.64665 0.97864 0.0
O70 O 0.87188 0.68729 0.04683 0.0
O71 O 0.87185 0.64549 0.04444 0.0
H72 H 0.80477 0.53742 0.22 0.0
H73 H 0.7653 0.49072 0.23047 0.0
H74 H 0.7393 0.49986 0.89309 0.0
H75 H 0.77862 0.54645 0.88011 0.0
H76 H 0.84622 0.76038 0.99058 0.0
H77 H 0.85977 0.80955 0.99797 0.0
H78 H 0.88126 0.81262 0.35386 0.0
H79 H 0.86796 0.76349 0.34627 0.0
C80 C 0.71441 0.15685 0.03457 0.0
Eu81 Eu 0.66741 0.11901 0.10191 0.0
C82 C 0.74114 0.15898 0.04891 0.0
C83 C 0.75616 0.16958 0.15077 0.0
C84 C 0.78252 0.17353 0.15889 0.0
C85 C 0.79335 0.16648 0.06633 0.0
C86 C 0.77804 0.15405 0.96818 0.0
C87 C 0.75174 0.15013 0.9596 0.0
C88 C 0.64954 0.10262 0.32227 0.0
C89 C 0.67245 0.06388 0.12941 0.0
C90 C 0.56 1.02282 0.17639 0.0
Eu91 Eu 0.60981 0.06006 0.10445 0.0
C92 C 0.52857 1.00654 0.16891 0.0
C93 C 0.51442 0.99158 0.07004 0.0
C94 C 0.48607 0.97094 0.07423 0.0
C95 C 0.47081 0.9643 0.17727 0.0
C96 C 0.48418 0.98121 0.27314 0.0
C97 C 0.5125 1.00198 0.26878 0.0
C98 C 0.62864 0.0754 0.88647 0.0
C99 C 0.61375 0.12075 0.02674 0.0
O100 O 0.69748 0.13656 0.96775 0.0
O101 O 0.70277 0.15977 0.1274 0.0
O102 O 0.67145 0.12569 0.29615 0.0
O103 O 0.63807 0.0903 0.2301 0.0
O104 O 0.68464 0.09052 0.10848 0.0
O105 O 0.64455 0.04797 0.1403 0.0
O106 O 0.57309 0.04851 0.21285 0.0
O107 O 0.5749 1.01762 0.10415 0.0
O108 O 0.60659 0.05215 0.911 0.0
O109 O 0.63917 0.0879 0.97923 0.0
O110 O 0.5986 0.09358 0.04871 0.0
O111 O 0.6405 0.13527 0.04445 0.0
H112 H 0.74808 0.17577 0.2221 0.0
H113 H 0.79481 0.18315 0.23477 0.0
H114 H 0.78679 0.14857 0.89673 0.0
H115 H 0.74019 0.1412 0.88155 0.0
H116 H 0.52564 0.99464 0.9907 0.0
H117 H 0.47648 0.95899 0.99776 0.0
H118 H 0.47322 0.97737 0.35369 0.0
H119 H 0.52234 1.01323 0.34644 0.0
C120 C 0.84556 1.01706 0.1596 0.0
Eu121 Eu 0.88284 1.00456 0.23166 0.0
C122 C 0.8292 1.03213 0.16671 0.0
C123 C 0.81426 1.03142 0.26557 0.0
C124 C 0.79358 0.03909 0.26123 0.0
C125 C 0.78688 0.04757 0.15803 0.0
C126 C 0.80375 0.05099 0.0621 0.0
C127 C 0.82456 0.04348 0.06661 0.0
C128 C 0.89816 1.00104 0.44956 0.0
C129 C 0.94348 0.06142 0.3094 0.0
C130 C 0.9798 0.99713 0.30163 0.0
Eu131 Eu 0.94188 1.00609 0.23404 0.0
C132 C 0.98176 0.97239 0.28892 0.0
C133 C 0.99249 0.96771 0.18795 0.0
C134 C 0.99638 0.94524 0.18148 0.0
C135 C 0.98913 0.92756 0.27479 0.0
C136 C 0.97653 0.93067 0.37194 0.0
C137 C 0.97267 0.95311 0.37887 0.0
C138 C 0.92548 1.00753 0.01375 0.0
C139 C 0.88686 0.94585 0.20657 0.0
O140 O 0.87125 1.02967 0.12314 0.0
O141 O 0.84039 0.99701 0.232 0.0
O142 O 0.87488 0.99977 0.4251 0.0
O143 O 0.9107 1.00309 0.35675 0.0
O144 O 0.91629 0.04931 0.2879 0.0
O145 O 0.95808 0.04929 0.29102 0.0
O146 O 0.95975 0.99419 0.36898 0.0
O147 O 0.98253 1.01126 0.20775 0.0
O148 O 0.94859 1.00878 0.03978 0.0
O149 O 0.91313 1.00663 0.10598 0.0
O150 O 0.91349 0.96036 0.22775 0.0
O151 O 0.8709 0.95778 0.19553 0.0
H152 H 0.81737 1.02338 0.34508 0.0
H153 H 0.78166 1.03681 0.33774 0.0
H154 H 0.79987 0.058 0.98141 0.0
H155 H 0.83579 0.04482 0.98894 0.0
H156 H 0.99886 0.98184 0.11615 0.0
H157 H 1.00611 0.94238 0.10637 0.0
H158 H 0.97091 0.91659 0.44395 0.0
H159 H 0.96363 0.95591 0.45624 0.0
C160 C 0.26885 0.73725 0.15989 0.0
Eu161 Eu 0.28149 0.78711 0.23168 0.0
C162 C 0.25375 0.7058 0.16684 0.0
C163 C 0.25447 0.69156 0.26555 0.0
C164 C 0.2468 0.66321 0.26099 0.0
C165 C 0.23832 0.64804 0.15773 0.0
C166 C 0.23489 0.66151 0.06196 0.0
C167 C 0.24239 0.68982 0.06668 0.0
C168 C 0.28525 0.80614 0.44952 0.0
C169 C 0.22464 0.79088 0.31001 0.0
C170 C 0.2889 0.89148 0.3026 0.0
Eu171 Eu 0.27992 0.84461 0.23437 0.0
C172 C 0.31359 0.91817 0.28959 0.0
C173 C 0.31822 0.93352 0.18851 0.0
C174 C 0.3407 0.95986 0.18168 0.0
C175 C 0.35846 0.97034 0.27474 0.0
C176 C 0.35537 0.95471 0.37204 0.0
C177 C 0.33292 0.92843 0.37933 0.0
C178 C 0.27874 0.82695 0.01389 0.0
C179 C 0.34015 0.8498 0.20648 0.0
O180 O 0.25631 0.75038 0.12328 0.0
O181 O 0.2889 0.75212 0.23231 0.0
O182 O 0.2866 0.78417 0.42505 0.0
O183 O 0.283 0.81647 0.35674 0.0
O184 O 0.23679 0.77583 0.28871 0.0
O185 O 0.2367 0.81758 0.29117 0.0
O186 O 0.29197 0.87438 0.36946 0.0
O187 O 0.27465 0.88005 0.20898 0.0
O188 O 0.27746 0.84879 0.04019 0.0
O189 O 0.27953 0.8154 0.10598 0.0
O190 O 0.32565 0.86191 0.22826 0.0
O191 O 0.32822 0.82192 0.19498 0.0
H192 H 0.26251 0.7027 0.3451 0.0
H193 H 0.24909 0.65356 0.33739 0.0
H194 H 0.22787 0.65063 0.98122 0.0
H195 H 0.24104 0.69973 0.98911 0.0
H196 H 0.30405 0.92571 0.11689 0.0
H197 H 0.34351 0.97243 0.10658 0.0
H198 H 0.36946 0.96323 0.44397 0.0
H199 H 0.33015 0.91664 0.45678 0.0
C200 C 0.54863 0.44026 0.15981 0.0
Eu201 Eu 0.49883 0.40305 0.23191 0.0
C202 C 0.58006 0.4566 0.16689 0.0
C203 C 0.59426 0.47153 0.26572 0.0
C204 C 0.62261 0.49221 0.26128 0.0
C205 C 0.63779 0.49891 0.15802 0.0
C206 C 0.62436 0.48204 0.06214 0.0
C207 C 0.59605 0.46124 0.06674 0.0
C208 C 0.47987 0.3878 0.44981 0.0
C209 C 0.49505 0.34246 0.31031 0.0
C210 C 0.39449 0.30608 0.30234 0.0
Eu211 Eu 0.44135 0.34403 0.23449 0.0
C212 C 0.36778 0.30401 0.28935 0.0
C213 C 0.35245 0.29324 0.1883 0.0
C214 C 0.32605 0.2892 0.1817 0.0
C215 C 0.31549 0.29634 0.27494 0.0
C216 C 0.3311 0.30898 0.37216 0.0
C217 C 0.35745 0.313 0.37922 0.0
C218 C 0.45909 0.36043 0.01406 0.0
C219 C 0.43616 0.39907 0.20667 0.0
O220 O 0.53554 0.41457 0.1235 0.0
O221 O 0.53374 0.44548 0.23209 0.0
O222 O 0.50187 0.41109 0.4253 0.0
O223 O 0.46946 0.37523 0.35705 0.0
O224 O 0.51013 0.36965 0.28881 0.0
O225 O 0.46835 0.32785 0.29159 0.0
O226 O 0.41154 0.32624 0.3694 0.0
O227 O 0.40596 0.30331 0.20868 0.0
O228 O 0.43724 0.33733 0.04031 0.0
O229 O 0.4706 0.37278 0.10616 0.0
O230 O 0.42403 0.37245 0.22826 0.0
O231 O 0.46404 0.415 0.19539 0.0
H232 H 0.5831 0.46841 0.34526 0.0
H233 H 0.63224 0.50413 0.33776 0.0
H234 H 0.63525 0.48593 0.9814 0.0
H235 H 0.58616 0.45001 0.9891 0.0
H236 H 0.36032 0.28694 0.11657 0.0
H237 H 0.3135 0.2794 0.10659 0.0
H238 H 0.32253 0.3145 0.44416 0.0
H239 H 0.36923 0.32208 0.45663 0.0
C240 C 0.49138 0.1571 0.62256 0.0
Eu241 Eu 0.52576 0.20753 0.6523 0.0
C242 C 0.4786 0.1396 0.5256 0.0
C243 C 0.4537 0.13602 0.48169 0.0
C244 C 0.43793 0.11349 0.41234 0.0
C245 C 0.44797 0.09579 0.3852 0.0
C246 C 0.47378 0.10084 0.41927 0.0
C247 C 0.48936 0.123 0.48876 0.0
C248 C 0.52435 0.25245 0.57125 0.0
C249 C 0.56755 0.23155 0.43741 0.0
C250 C 0.61771 0.3062 0.71488 0.0
Eu251 Eu 0.58304 0.25582 0.68575 0.0
C252 C 0.63027 0.32364 0.81221 0.0
C253 C 0.65508 0.32714 0.85654 0.0
C254 C 0.6707 0.34944 0.92664 0.0
C255 C 0.66099 0.36738 0.95245 0.0
C256 C 0.63509 0.36241 0.91891 0.0
C257 C 0.61945 0.34019 0.84932 0.0
C258 C 0.58438 0.21088 0.76732 0.0
C259 C 0.54118 0.23206 0.90032 0.0
O260 O 0.51808 0.16684 0.62808 0.0
O261 O 0.48329 0.17476 0.65031 0.0
O262 O 0.50288 0.2279 0.57488 0.0
O263 O 0.54479 0.25176 0.61485 0.0
O264 O 0.54431 0.21148 0.47878 0.0
O265 O 0.58659 0.25137 0.49937 0.0
O266 O 0.59109 0.2967 0.70771 0.0
O267 O 0.62563 0.28833 0.68863 0.0
O268 O 0.60584 0.23542 0.76384 0.0
O269 O 0.56398 0.2116 0.72353 0.0
O270 O 0.56434 0.25219 0.85866 0.0
O271 O 0.52227 0.21201 0.83873 0.0
H272 H 0.44551 0.14911 0.50779 0.0
H273 H 0.41753 0.10907 0.3857 0.0
H274 H 0.481 0.08656 0.39927 0.0
H275 H 0.50872 0.12565 0.52089 0.0
H276 H 0.66346 0.31425 0.82989 0.0
H277 H 0.69113 0.3539 0.95282 0.0
H278 H 0.62798 0.3768 0.93865 0.0
H279 H 0.60012 0.33756 0.81672 0.0
C280 C 0.12893 0.24295 0.62242 0.0
Eu281 Eu 0.07853 0.22705 0.65158 0.0
C282 C 0.14635 0.24756 0.52528 0.0
C283 C 0.14965 0.22611 0.48095 0.0
C284 C 0.172 0.23266 0.41116 0.0
C285 C 0.19008 0.26029 0.38539 0.0
C286 C 0.18524 0.28132 0.41871 0.0
C287 C 0.16308 0.2749 0.4883 0.0
C288 C 1.03362 0.18076 0.56982 0.0
C289 C 1.0544 0.24461 0.43704 0.0
C290 C 0.9796 0.21978 0.71543 0.0
Eu291 Eu 1.03005 0.23585 0.68561 0.0
C292 C 0.9621 0.21512 0.81239 0.0
C293 C 0.95869 0.23653 0.85633 0.0
C294 C 0.93647 0.23 0.92686 0.0
C295 C 0.91853 0.2024 0.95354 0.0
C296 C 0.92337 0.18138 0.92 0.0
C297 C 0.94547 0.18779 0.84988 0.0
C298 C 0.07499 0.28221 0.76687 0.0
C299 C 1.05398 0.21776 0.89966 0.0
O300 O 0.1193 0.25999 0.62809 0.0
O301 O 0.11119 0.21722 0.65005 0.0
O302 O 0.05819 0.18389 0.57283 0.0
O303 O 1.03433 0.20184 0.61398 0.0
O304 O 0.0748 0.24204 0.47876 0.0
O305 O 1.03432 0.24337 0.49879 0.0
O306 O 0.98939 0.20287 0.71048 0.0
O307 O 0.99724 0.24552 0.68732 0.0
O308 O 1.05044 0.27912 0.7634 0.0
O309 O 0.07427 0.2611 0.72295 0.0
O310 O 1.03392 0.22095 0.8585 0.0
O311 O 0.07397 0.21885 0.83776 0.0
H312 H 0.13657 0.20485 0.5074 0.0
H313 H 0.17635 0.21659 0.38502 0.0
H314 H 0.19973 0.30278 0.39905 0.0
H315 H 0.16062 0.2917 0.52099 0.0
H316 H 0.97164 0.25777 0.82933 0.0
H317 H 0.93212 0.24605 0.95307 0.0
H318 H 0.90899 0.15993 0.94041 0.0
H319 H 0.94802 0.17103 0.81744 0.0
C320 C 1.04287 0.79451 0.62193 0.0
Eu321 Eu 0.05885 0.76007 0.65151 0.0
C322 C 1.03811 0.80724 0.52492 0.0
C323 C 0.05948 0.83206 0.48084 0.0
C324 C 1.05286 0.84782 0.41124 0.0
C325 C 1.02523 0.83821 0.38564 0.0
C326 C 1.00424 0.81231 0.4189 0.0
C327 C 1.01074 0.79654 0.48806 0.0
C328 C 0.1052 0.76149 0.57044 0.0
C329 C 1.04127 0.71834 0.43668 0.0
C330 C 0.06582 0.66835 0.71486 0.0
Eu331 Eu 1.04988 0.70281 0.68513 0.0
C332 C 0.07038 0.65547 0.81179 0.0
C333 C 1.04884 0.63078 0.85597 0.0
C334 C 1.05522 0.61489 0.9258 0.0
C335 C 0.0828 0.62424 0.95148 0.0
C336 C 0.10398 0.65003 0.91803 0.0
C337 C 0.0977 0.66593 0.84866 0.0
C338 C 1.00351 0.70139 0.76614 0.0
C339 C 0.06789 0.7447 0.8996 0.0
O340 O 1.02589 0.76784 0.62781 0.0
O341 O 0.06863 0.80257 0.64924 0.0
O342 O 0.1021 0.78295 0.57387 0.0
O343 O 0.08408 0.74106 0.61411 0.0
O344 O 1.04422 0.74149 0.47815 0.0
O345 O 1.04218 0.69936 0.49858 0.0
O346 O 0.08279 0.69504 0.71002 0.0
O347 O 1.04011 0.66032 0.68663 0.0
O348 O 1.00659 0.67993 0.76264 0.0
O349 O 1.02464 0.72182 0.72253 0.0
O350 O 0.06463 0.72142 0.85828 0.0
O351 O 0.06693 0.76367 0.8378 0.0
H352 H 0.08074 0.84035 0.5073 0.0
H353 H 0.06888 0.86824 0.38523 0.0
H354 H 0.98276 0.80527 0.3993 0.0
H355 H 0.99402 0.77722 0.52057 0.0
H356 H 1.02761 0.62269 0.82948 0.0
H357 H 1.03906 0.59454 0.95193 0.0
H358 H 0.12541 0.65686 0.93768 0.0
H359 H 0.11455 0.68516 0.81605 0.0
C360 C 0.19772 0.45994 0.66614 0.0
C361 C 0.20103 0.46072 0.7695 0.0
C362 C 0.19573 0.45847 0.54362 0.0
C363 C 0.19268 0.45726 0.43997 0.0
C364 C 0.8251 0.646 0.66575 0.0
C365 C 0.82447 0.64861 0.76915 0.0
C366 C 0.82658 0.64547 0.54321 0.0
C367 C 0.82797 0.64374 0.43956 0.0
C368 C 0.63957 0.0883 0.66633 0.0
C369 C 0.63703 0.08499 0.7697 0.0
C370 C 0.64012 0.0903 0.5438 0.0
C371 C 0.64196 0.09335 0.44012 0.0
C372 C 0.91108 1.00304 0.6697 0.0
C373 C 0.90776 1.00227 0.56632 0.0
C374 C 0.91311 1.00453 0.79224 0.0
C375 C 0.91618 1.00578 0.89591 0.0
C376 C 0.28353 0.81729 0.66967 0.0
C377 C 0.28417 0.81464 0.56628 0.0
C378 C 0.28205 0.81784 0.79223 0.0
C379 C 0.28067 0.81955 0.89592 0.0
C380 C 0.46883 0.37488 0.66994 0.0
C381 C 0.47143 0.3782 0.56657 0.0
C382 C 0.46829 0.37283 0.79247 0.0
C383 C 0.46653 0.36974 0.89614 0.0
C384 C 0.56064 0.23375 0.22182 0.0
C385 C 0.5678 0.23567 0.31876 0.0
C386 C 0.54807 0.23033 0.11619 0.0
C387 C 0.54093 0.22819 0.01914 0.0
C388 C 1.05218 0.23499 0.22171 0.0
C389 C 1.05026 0.24035 0.31853 0.0
C390 C 1.05563 0.2259 0.11591 0.0
C391 C 0.0578 0.22109 0.01859 0.0
C392 C 1.05049 0.72539 0.22119 0.0
C393 C 1.04523 0.71817 0.31808 0.0
C394 C 0.05958 0.73801 0.1156 0.0
C395 C 0.06449 0.74514 0.01849 0.0
C396 C 0.3948 0.41106 0.19215 0.0
C397 C 0.41607 0.40922 0.19583 0.0
C398 C 0.36865 0.41144 0.18935 0.0
C399 C 0.34728 0.41305 0.1863 0.0
C400 C 0.87459 0.86596 0.18978 0.0
C401 C 0.87299 0.84298 0.18676 0.0
C402 C 0.87494 0.89249 0.19246 0.0
C403 C 0.87673 0.91559 0.19599 0.0
C404 C 0.42 0.91739 0.18935 0.0
C405 C 0.44297 0.93877 0.18637 0.0
C406 C 0.39348 0.89122 0.19205 0.0
C407 C 0.37039 0.86992 0.19565 0.0
C408 C 0.59469 0.15078 0.92428 0.0
C409 C 0.60154 0.13554 0.97096 0.0
C410 C 0.5884 0.1698 0.86698 0.0
C411 C 0.58462 0.18721 0.82002 0.0
C412 C 0.11611 0.32731 0.86646 0.0
C413 C 0.09867 0.30613 0.81953 0.0
C414 C 0.1352 0.3526 0.92379 0.0
C415 C 0.15048 0.37468 0.97053 0.0
C416 C 0.95833 0.69736 0.86537 0.0
C417 C 0.97954 0.70112 0.81862 0.0
C418 C 0.93302 0.69113 0.92261 0.0
C419 C 0.91094 0.68433 0.96944 0.0
C420 C 0.0965 0.59026 0.03 0.0
C421 C 0.08988 0.6056 0.99407 0.0
C422 C 0.10423 0.57142 0.05415 0.0
C423 C 0.11064 0.55451 0.06159 0.0
C424 C 0.71343 0.44178 0.05497 0.0
C425 C 0.7306 0.46502 0.06183 0.0
C426 C 0.69453 0.41521 0.03113 0.0
C427 C 0.67935 0.3932 0.99511 0.0
C428 C 0.87098 0.18836 0.03546 0.0
C429 C 0.89286 0.19508 0.99795 0.0
C430 C 0.84443 0.18069 0.06046 0.0
C431 C 0.82116 0.17457 0.06718 0.0
C432 C 0.71379 0.05183 0.14333 0.0
C433 C 0.69251 0.05367 0.13986 0.0
C434 C 0.73996 0.05146 0.14596 0.0
C435 C 0.76133 0.04986 0.14894 0.0
C436 C 0.23442 0.59721 0.1454 0.0
C437 C 0.23602 0.6202 0.14843 0.0
C438 C 0.23404 0.57066 0.14277 0.0
C439 C 0.23221 0.54755 0.13933 0.0
C440 C 0.7151 0.57203 0.14302 0.0
C441 C 0.7382 0.59331 0.13946 0.0
C442 C 0.68857 0.54585 0.14575 0.0
C443 C 0.66561 0.52446 0.14881 0.0
C444 C 1.01113 0.87194 0.3074 0.0
C445 C 1.01787 0.85668 0.34322 0.0
C446 C 1.00344 0.89081 0.28321 0.0
C447 C 0.99724 0.90789 0.27581 0.0
C448 C 0.4137 0.0482 0.30661 0.0
C449 C 0.43004 0.06981 0.34261 0.0
C450 C 0.39487 1.02151 0.28417 0.0
C451 C 0.37794 0.99818 0.27624 0.0
C452 C 0.23775 0.27379 0.30705 0.0
C453 C 0.21589 0.26763 0.34299 0.0
C454 C 0.26431 0.28147 0.28306 0.0
C455 C 0.28765 0.28795 0.27599 0.0
C456 C 0.52033 0.2935 0.47136 0.0
C457 C 0.52409 0.27609 0.51841 0.0
C458 C 0.51407 0.31252 0.41378 0.0
C459 C 0.50724 0.32773 0.36671 0.0
C460 C 0.97348 0.11045 0.41232 0.0
C461 C 0.95823 0.08838 0.36548 0.0
C462 C 0.99253 0.13573 0.46982 0.0
C463 C 1.00995 0.15687 0.51696 0.0
C464 C 0.15033 0.76554 0.47079 0.0
C465 C 0.12914 0.76177 0.51775 0.0
C466 C 0.17563 0.77181 0.41332 0.0
C467 C 0.1977 0.77867 0.36633 0.0
loop_
_geom_bond_atom_site_label_1
_geom_bond_atom_site_label_2
_geom_bond_distance
_geom_bond_site_symmetry_2
_ccdc_geom_bond_type
C0 Eu1 2.835 . S
C0 C2 1.500 . S
C0 O20 1.257 . S
C0 O21 1.260 . S
Eu1 C0 2.835 . S
Eu1 O20 2.473 . S
Eu1 O21 2.480 . S
Eu1 O22 2.430 . S
Eu1 O23 2.670 . S
Eu1 O24 2.394 . S
Eu1 O29 2.352 1_554 S
Eu1 O31 2.374 . S
C2 C0 1.500 . S
C2 C3 1.377 . S
C2 C7 1.377 1_554 S
C3 C2 1.377 . S
C3 C4 1.395 . S
C3 H32 0.931 . S
C4 C3 1.395 . S
C4 C5 1.383 . S
C4 H33 0.931 . S
C5 C4 1.383 . S
C5 C6 1.394 1_554 S
C6 C5 1.394 1_556 S
C6 C7 1.378 . S
C6 H34 0.931 . S
C7 C2 1.377 1_556 S
C7 C6 1.378 . S
C7 H35 0.931 . S
C8 O22 1.259 . S
C8 O23 1.270 . S
C9 O24 1.251 . S
C9 O25 1.251 . S
C10 Eu11 2.835 . S
C10 C12 1.500 . S
C10 O26 1.257 . S
C10 O27 1.260 . S
Eu11 C10 2.835 . S
Eu11 O23 2.355 . S
Eu11 O25 2.374 . S
Eu11 O26 2.473 . S
Eu11 O27 2.480 . S
Eu11 O28 2.430 1_554 S
Eu11 O29 2.668 1_554 S
Eu11 O30 2.394 . S
C12 C10 1.500 . S
C12 C13 1.377 . S
C12 C17 1.377 . S
C13 C12 1.377 . S
C13 C14 1.395 . S
C13 H36 0.931 . S
C14 C13 1.395 . S
C14 C15 1.383 . S
C14 H37 0.931 . S
C15 C14 1.383 . S
C15 C16 1.394 . S
C16 C15 1.394 . S
C16 C17 1.378 . S
C16 H38 0.931 . S
C17 C12 1.377 . S
C17 C16 1.378 . S
C17 H39 0.931 . S
C18 O28 1.259 . S
C18 O29 1.274 . S
C19 O30 1.251 . S
C19 O31 1.251 . S
O20 C0 1.257 . S
O20 Eu1 2.473 . S
O21 C0 1.260 . S
O21 Eu1 2.480 . S
O22 Eu1 2.430 . S
O22 C8 1.259 . S
O23 Eu1 2.670 . S
O23 C8 1.270 . S
O23 Eu11 2.355 . S
O24 Eu1 2.394 . S
O24 C9 1.251 . S
O25 C9 1.251 . S
O25 Eu11 2.374 . S
O26 C10 1.257 . S
O26 Eu11 2.473 . S
O27 C10 1.260 . S
O27 Eu11 2.480 . S
O28 Eu11 2.430 1_556 S
O28 C18 1.259 . S
O29 Eu1 2.352 1_556 S
O29 Eu11 2.668 1_556 S
O29 C18 1.274 . S
O30 Eu11 2.394 . S
O30 C19 1.251 . S
O31 Eu1 2.374 . S
O31 C19 1.251 . S
H32 C3 0.931 . S
H33 C4 0.931 . S
H34 C6 0.931 . S
H35 C7 0.931 . S
H36 C13 0.931 . S
H37 C14 0.931 . S
H38 C16 0.931 . S
H39 C17 0.931 . S
C40 Eu41 2.835 . S
C40 C42 1.500 . S
C40 O60 1.257 . S
C40 O61 1.260 . S
Eu41 C40 2.835 . S
Eu41 O60 2.473 . S
Eu41 O61 2.480 . S
Eu41 O62 2.430 . S
Eu41 O63 2.670 . S
Eu41 O64 2.394 . S
Eu41 O69 2.352 1_554 S
Eu41 O71 2.374 . S
C42 C40 1.500 . S
C42 C43 1.377 . S
C42 C47 1.377 1_554 S
C43 C42 1.377 . S
C43 C44 1.395 . S
C43 H72 0.931 . S
C44 C43 1.395 . S
C44 C45 1.383 . S
C44 H73 0.931 . S
C45 C44 1.383 . S
C45 C46 1.394 1_554 S
C46 C45 1.394 1_556 S
C46 C47 1.378 . S
C46 H74 0.931 . S
C47 C42 1.377 1_556 S
C47 C46 1.378 . S
C47 H75 0.931 . S
C48 O62 1.259 . S
C48 O63 1.270 . S
C49 O64 1.251 . S
C49 O65 1.251 . S
C50 Eu51 2.835 . S
C50 C52 1.500 . S
C50 O66 1.257 . S
C50 O67 1.260 . S
Eu51 C50 2.835 . S
Eu51 O63 2.355 . S
Eu51 O65 2.374 . S
Eu51 O66 2.473 . S
Eu51 O67 2.480 . S
Eu51 O68 2.430 1_554 S
Eu51 O69 2.667 1_554 S
Eu51 O70 2.394 . S
C52 C50 1.500 . S
C52 C53 1.377 . S
C52 C57 1.377 . S
C53 C52 1.377 . S
C53 C54 1.395 . S
C53 H76 0.931 . S
C54 C53 1.395 . S
C54 C55 1.383 . S
C54 H77 0.931 . S
C55 C54 1.383 . S
C55 C56 1.394 . S
C56 C55 1.394 . S
C56 C57 1.378 . S
C56 H78 0.931 . S
C57 C52 1.377 . S
C57 C56 1.378 . S
C57 H79 0.931 . S
C58 O68 1.259 . S
C58 O69 1.274 . S
C59 O70 1.251 . S
C59 O71 1.251 . S
O60 C40 1.257 . S
O60 Eu41 2.473 . S
O61 C40 1.260 . S
O61 Eu41 2.480 . S
O62 Eu41 2.430 . S
O62 C48 1.259 . S
O63 Eu41 2.670 . S
O63 C48 1.270 . S
O63 Eu51 2.355 . S
O64 Eu41 2.394 . S
O64 C49 1.251 . S
O65 C49 1.251 . S
O65 Eu51 2.374 . S
O66 C50 1.257 . S
O66 Eu51 2.473 . S
O67 C50 1.260 . S
O67 Eu51 2.480 . S
O68 Eu51 2.430 1_556 S
O68 C58 1.259 . S
O69 Eu41 2.352 1_556 S
O69 Eu51 2.667 1_556 S
O69 C58 1.274 . S
O70 Eu51 2.394 . S
O70 C59 1.251 . S
O71 Eu41 2.374 . S
O71 C59 1.251 . S
H72 C43 0.931 . S
H73 C44 0.931 . S
H74 C46 0.931 . S
H75 C47 0.931 . S
H76 C53 0.931 . S
H77 C54 0.931 . S
H78 C56 0.931 . S
H79 C57 0.931 . S
C80 Eu81 2.835 . S
C80 C82 1.500 . S
C80 O100 1.257 . S
C80 O101 1.260 . S
Eu81 C80 2.835 . S
Eu81 O100 2.473 . S
Eu81 O101 2.480 . S
Eu81 O102 2.430 . S
Eu81 O103 2.670 . S
Eu81 O104 2.394 . S
Eu81 O109 2.353 1_554 S
Eu81 O111 2.374 . S
C82 C80 1.500 . S
C82 C83 1.377 . S
C82 C87 1.377 1_554 S
C83 C82 1.377 . S
C83 C84 1.395 . S
C83 H112 0.931 . S
C84 C83 1.395 . S
C84 C85 1.383 . S
C84 H113 0.931 . S
C85 C84 1.383 . S
C85 C86 1.394 1_554 S
C86 C85 1.394 1_556 S
C86 C87 1.378 . S
C86 H114 0.931 . S
C87 C82 1.377 1_556 S
C87 C86 1.378 . S
C87 H115 0.931 . S
C88 O102 1.259 . S
C88 O103 1.270 . S
C89 O104 1.251 . S
C89 O105 1.251 . S
C90 Eu91 2.835 1_565 S
C90 C92 1.500 . S
C90 O106 1.257 1_565 S
C90 O107 1.260 . S
Eu91 C90 2.835 1_545 S
Eu91 O103 2.355 . S
Eu91 O105 2.374 . S
Eu91 O106 2.473 . S
Eu91 O107 2.480 1_545 S
Eu91 O108 2.430 1_554 S
Eu91 O109 2.669 1_554 S
Eu91 O110 2.394 . S
C92 C90 1.500 . S
C92 C93 1.377 . S
C92 C97 1.377 . S
C93 C92 1.377 . S
C93 C94 1.395 . S
C93 H116 0.931 . S
C94 C93 1.395 . S
C94 C95 1.383 . S
C94 H117 0.931 . S
C95 C94 1.383 . S
C95 C96 1.394 . S
C96 C95 1.394 . S
C96 C97 1.378 . S
C96 H118 0.931 . S
C97 C92 1.377 . S
C97 C96 1.378 . S
C97 H119 0.939 . S
C98 O108 1.259 . S
C98 O109 1.272 . S
C99 O110 1.251 . S
C99 O111 1.251 . S
O100 C80 1.257 . S
O100 Eu81 2.473 . S
O101 C80 1.260 . S
O101 Eu81 2.480 . S
O102 Eu81 2.430 . S
O102 C88 1.259 . S
O103 Eu81 2.670 . S
O103 C88 1.270 . S
O103 Eu91 2.355 . S
O104 Eu81 2.394 . S
O104 C89 1.251 . S
O105 C89 1.251 . S
O105 Eu91 2.374 . S
O106 C90 1.257 1_545 S
O106 Eu91 2.473 . S
O107 C90 1.260 . S
O107 Eu91 2.480 1_565 S
O108 Eu91 2.430 1_556 S
O108 C98 1.259 . S
O109 Eu81 2.353 1_556 S
O109 Eu91 2.669 1_556 S
O109 C98 1.272 . S
O110 Eu91 2.394 . S
O110 C99 1.251 . S
O111 Eu81 2.374 . S
O111 C99 1.251 . S
H112 C83 0.931 . S
H113 C84 0.931 . S
H114 C86 0.931 . S
H115 C87 0.931 . S
H116 C93 0.931 . S
H117 C94 0.931 . S
H118 C96 0.931 . S
H119 C97 0.939 . S
C120 Eu121 2.835 . S
C120 C122 1.500 1_565 S
C120 O140 1.257 . S
C120 O141 1.260 . S
Eu121 C120 2.835 . S
Eu121 O140 2.473 . S
Eu121 O141 2.480 . S
Eu121 O142 2.430 . S
Eu121 O143 2.670 . S
Eu121 O144 2.394 1_565 S
Eu121 O149 2.355 . S
Eu121 O151 2.374 . S
C122 C120 1.500 1_545 S
C122 C123 1.377 . S
C122 C127 1.377 . S
C123 C122 1.377 . S
C123 C124 1.395 . S
C123 H152 0.931 . S
C124 C123 1.395 . S
C124 C125 1.383 . S
C124 H153 0.931 . S
C125 C124 1.383 . S
C125 C126 1.394 . S
C126 C125 1.394 . S
C126 C127 1.378 . S
C126 H154 0.931 1_554 S
C127 C122 1.377 . S
C127 C126 1.378 . S
C127 H155 0.931 . S
C128 O142 1.259 . S
C128 O143 1.270 . S
C129 O144 1.251 . S
C129 O145 1.251 . S
C130 Eu131 2.835 . S
C130 C132 1.500 . S
C130 O146 1.257 . S
C130 O147 1.260 . S
Eu131 C130 2.835 . S
Eu131 O143 2.355 . S
Eu131 O145 2.374 1_565 S
Eu131 O146 2.473 . S
Eu131 O147 2.480 . S
Eu131 O148 2.429 . S
Eu131 O149 2.670 . S
Eu131 O150 2.394 . S
C132 C130 1.500 . S
C132 C133 1.377 . S
C132 C137 1.377 . S
C133 C132 1.377 . S
C133 C134 1.395 . S
C133 H156 0.931 . S
C134 C133 1.395 . S
C134 C135 1.383 . S
C134 H157 0.931 . S
C135 C134 1.383 . S
C135 C136 1.394 . S
C136 C135 1.394 . S
C136 C137 1.378 . S
C136 H158 0.931 . S
C137 C132 1.377 . S
C137 C136 1.378 . S
C137 H159 0.931 . S
C138 O148 1.260 1_556 S
C138 O149 1.270 1_556 S
C139 O150 1.251 . S
C139 O151 1.251 . S
O140 C120 1.257 . S
O140 Eu121 2.473 . S
O141 C120 1.260 . S
O141 Eu121 2.480 . S
O142 Eu121 2.430 . S
O142 C128 1.259 . S
O143 Eu121 2.670 . S
O143 C128 1.270 . S
O143 Eu131 2.355 . S
O144 Eu121 2.394 1_545 S
O144 C129 1.251 . S
O145 C129 1.251 . S
O145 Eu131 2.374 1_545 S
O146 C130 1.257 . S
O146 Eu131 2.473 . S
O147 C130 1.260 . S
O147 Eu131 2.480 . S
O148 Eu131 2.429 . S
O148 C138 1.260 1_554 S
O149 Eu121 2.355 . S
O149 Eu131 2.670 . S
O149 C138 1.270 1_554 S
O150 Eu131 2.394 . S
O150 C139 1.251 . S
O151 Eu121 2.374 . S
O151 C139 1.251 . S
H152 C123 0.931 . S
H153 C124 0.931 . S
H154 C126 0.931 1_556 S
H155 C127 0.931 . S
H156 C133 0.931 . S
H157 C134 0.931 . S
H158 C136 0.931 . S
H159 C137 0.931 . S
C160 Eu161 2.835 . S
C160 C162 1.500 . S
C160 O180 1.257 . S
C160 O181 1.260 . S
Eu161 C160 2.835 . S
Eu161 O180 2.473 . S
Eu161 O181 2.480 . S
Eu161 O182 2.430 . S
Eu161 O183 2.670 . S
Eu161 O184 2.394 . S
Eu161 O189 2.355 . S
Eu161 O191 2.374 . S
C162 C160 1.500 . S
C162 C163 1.377 . S
C162 C167 1.377 . S
C163 C162 1.377 . S
C163 C164 1.395 . S
C163 H192 0.931 . S
C164 C163 1.395 . S
C164 C165 1.383 . S
C164 H193 0.931 . S
C165 C164 1.383 . S
C165 C166 1.394 . S
C166 C165 1.394 . S
C166 C167 1.378 . S
C166 H194 0.931 1_554 S
C167 C162 1.377 . S
C167 C166 1.378 . S
C167 H195 0.931 . S
C168 O182 1.259 . S
C168 O183 1.270 . S
C169 O184 1.251 . S
C169 O185 1.251 . S
C170 Eu171 2.835 . S
C170 C172 1.500 . S
C170 O186 1.257 . S
C170 O187 1.260 . S
Eu171 C170 2.835 . S
Eu171 O183 2.355 . S
Eu171 O185 2.374 . S
Eu171 O186 2.473 . S
Eu171 O187 2.480 . S
Eu171 O188 2.430 . S
Eu171 O189 2.670 . S
Eu171 O190 2.394 . S
C172 C170 1.500 . S
C172 C173 1.377 . S
C172 C177 1.377 . S
C173 C172 1.377 . S
C173 C174 1.395 . S
C173 H196 0.931 . S
C174 C173 1.395 . S
C174 C175 1.383 . S
C174 H197 0.931 . S
C175 C174 1.383 . S
C175 C176 1.394 . S
C176 C175 1.394 . S
C176 C177 1.378 . S
C176 H198 0.931 . S
C177 C172 1.377 . S
C177 C176 1.378 . S
C177 H199 0.931 . S
C178 O188 1.260 1_556 S
C178 O189 1.270 1_556 S
C179 O190 1.251 . S
C179 O191 1.251 . S
O180 C160 1.257 . S
O180 Eu161 2.473 . S
O181 C160 1.260 . S
O181 Eu161 2.480 . S
O182 Eu161 2.430 . S
O182 C168 1.259 . S
O183 Eu161 2.670 . S
O183 C168 1.270 . S
O183 Eu171 2.355 . S
O184 Eu161 2.394 . S
O184 C169 1.251 . S
O185 C169 1.251 . S
O185 Eu171 2.374 . S
O186 C170 1.257 . S
O186 Eu171 2.473 . S
O187 C170 1.260 . S
O187 Eu171 2.480 . S
O188 Eu171 2.430 . S
O188 C178 1.260 1_554 S
O189 Eu161 2.355 . S
O189 Eu171 2.670 . S
O189 C178 1.270 1_554 S
O190 Eu171 2.394 . S
O190 C179 1.251 . S
O191 Eu161 2.374 . S
O191 C179 1.251 . S
H192 C163 0.931 . S
H193 C164 0.931 . S
H194 C166 0.931 1_556 S
H195 C167 0.931 . S
H196 C173 0.931 . S
H197 C174 0.931 . S
H198 C176 0.931 . S
H199 C177 0.931 . S
C200 Eu201 2.835 . S
C200 C202 1.500 . S
C200 O220 1.257 . S
C200 O221 1.260 . S
Eu201 C200 2.835 . S
Eu201 O220 2.473 . S
Eu201 O221 2.480 . S
Eu201 O222 2.430 . S
Eu201 O223 2.670 . S
Eu201 O224 2.394 . S
Eu201 O229 2.355 . S
Eu201 O231 2.374 . S
C202 C200 1.500 . S
C202 C203 1.377 . S
C202 C207 1.377 . S
C203 C202 1.377 . S
C203 C204 1.395 . S
C203 H232 0.931 . S
C204 C203 1.395 . S
C204 C205 1.383 . S
C204 H233 0.931 . S
C205 C204 1.383 . S
C205 C206 1.394 . S
C206 C205 1.394 . S
C206 C207 1.378 . S
C206 H234 0.931 1_554 S
C207 C202 1.377 . S
C207 C206 1.378 . S
C207 H235 0.931 . S
C208 O222 1.259 . S
C208 O223 1.270 . S
C209 O224 1.251 . S
C209 O225 1.251 . S
C210 Eu211 2.835 . S
C210 C212 1.500 . S
C210 O226 1.257 . S
C210 O227 1.260 . S
Eu211 C210 2.835 . S
Eu211 O223 2.355 . S
Eu211 O225 2.374 . S
Eu211 O226 2.473 . S
Eu211 O227 2.480 . S
Eu211 O228 2.430 1_554 S
Eu211 O229 2.670 . S
Eu211 O230 2.394 . S
C212 C210 1.500 . S
C212 C213 1.377 . S
C212 C217 1.377 . S
C213 C212 1.377 . S
C213 C214 1.395 . S
C213 H236 0.931 . S
C214 C213 1.395 . S
C214 C215 1.383 . S
C214 H237 0.931 . S
C215 C214 1.383 . S
C215 C216 1.394 . S
C216 C215 1.394 . S
C216 C217 1.378 . S
C216 H238 0.931 . S
C217 C212 1.377 . S
C217 C216 1.378 . S
C217 H239 0.931 . S
C218 O228 1.259 . S
C218 O229 1.270 1_556 S
C219 O230 1.251 . S
C219 O231 1.251 . S
O220 C200 1.257 . S
O220 Eu201 2.473 . S
O221 C200 1.260 . S
O221 Eu201 2.480 . S
O222 Eu201 2.430 . S
O222 C208 1.259 . S
O223 Eu201 2.670 . S
O223 C208 1.270 . S
O223 Eu211 2.355 . S
O224 Eu201 2.394 . S
O224 C209 1.251 . S
O225 C209 1.251 . S
O225 Eu211 2.374 . S
O226 C210 1.257 . S
O226 Eu211 2.473 . S
O227 C210 1.260 . S
O227 Eu211 2.480 . S
O228 Eu211 2.430 1_556 S
O228 C218 1.259 . S
O229 Eu201 2.355 . S
O229 Eu211 2.670 . S
O229 C218 1.270 1_554 S
O230 Eu211 2.394 . S
O230 C219 1.251 . S
O231 Eu201 2.374 . S
O231 C219 1.251 . S
H232 C203 0.931 . S
H233 C204 0.931 . S
H234 C206 0.931 1_556 S
H235 C207 0.931 . S
H236 C213 0.931 . S
H237 C214 0.931 . S
H238 C216 0.931 . S
H239 C217 0.931 . S
C240 Eu241 2.835 . S
C240 C242 1.500 . S
C240 O260 1.257 . S
C240 O261 1.260 . S
Eu241 C240 2.835 . S
Eu241 O260 2.473 . S
Eu241 O261 2.480 . S
Eu241 O262 2.430 . S
Eu241 O263 2.670 . S
Eu241 O264 2.394 . S
Eu241 O269 2.355 . S
Eu241 O271 2.374 . S
C242 C240 1.500 . S
C242 C243 1.377 . S
C242 C247 1.377 . S
C243 C242 1.377 . S
C243 C244 1.395 . S
C243 H272 0.931 . S
C244 C243 1.395 . S
C244 C245 1.383 . S
C244 H273 0.931 . S
C245 C244 1.383 . S
C245 C246 1.394 . S
C246 C245 1.394 . S
C246 C247 1.378 . S
C246 H274 0.931 . S
C247 C242 1.377 . S
C247 C246 1.378 . S
C247 H275 0.931 . S
C248 O262 1.259 . S
C248 O263 1.270 . S
C249 O264 1.251 . S
C249 O265 1.251 . S
C250 Eu251 2.835 . S
C250 C252 1.500 . S
C250 O266 1.257 . S
C250 O267 1.260 . S
Eu251 C250 2.835 . S
Eu251 O263 2.355 . S
Eu251 O265 2.374 . S
Eu251 O266 2.473 . S
Eu251 O267 2.480 . S
Eu251 O268 2.430 . S
Eu251 O269 2.670 . S
Eu251 O270 2.394 . S
C252 C250 1.500 . S
C252 C253 1.377 . S
C252 C257 1.377 . S
C253 C252 1.377 . S
C253 C254 1.395 . S
C253 H276 0.931 . S
C254 C253 1.395 . S
C254 C255 1.383 . S
C254 H277 0.931 . S
C255 C254 1.383 . S
C255 C256 1.394 . S
C256 C255 1.394 . S
C256 C257 1.378 . S
C256 H278 0.931 . S
C257 C252 1.377 . S
C257 C256 1.378 . S
C257 H279 0.931 . S
C258 O268 1.259 . S
C258 O269 1.270 . S
C259 O270 1.251 . S
C259 O271 1.251 . S
O260 C240 1.257 . S
O260 Eu241 2.473 . S
O261 C240 1.260 . S
O261 Eu241 2.480 . S
O262 Eu241 2.430 . S
O262 C248 1.259 . S
O263 Eu241 2.670 . S
O263 C248 1.270 . S
O263 Eu251 2.355 . S
O264 Eu241 2.394 . S
O264 C249 1.251 . S
O265 C249 1.251 . S
O265 Eu251 2.374 . S
O266 C250 1.257 . S
O266 Eu251 2.473 . S
O267 C250 1.260 . S
O267 Eu251 2.480 . S
O268 Eu251 2.430 . S
O268 C258 1.259 . S
O269 Eu241 2.355 . S
O269 Eu251 2.670 . S
O269 C258 1.270 . S
O270 Eu251 2.394 . S
O270 C259 1.251 . S
O271 Eu241 2.374 . S
O271 C259 1.251 . S
H272 C243 0.931 . S
H273 C244 0.931 . S
H274 C246 0.931 . S
H275 C247 0.931 . S
H276 C253 0.931 . S
H277 C254 0.931 . S
H278 C256 0.931 . S
H279 C257 0.931 . S
C280 Eu281 2.835 . S
C280 C282 1.500 . S
C280 O300 1.257 . S
C280 O301 1.260 . S
Eu281 C280 2.835 . S
Eu281 O300 2.473 . S
Eu281 O301 2.480 . S
Eu281 O302 2.430 1_455 S
Eu281 O303 2.670 1_455 S
Eu281 O304 2.394 . S
Eu281 O309 2.355 . S
Eu281 O311 2.374 . S
C282 C280 1.500 . S
C282 C283 1.377 . S
C282 C287 1.377 . S
C283 C282 1.377 . S
C283 C284 1.395 . S
C283 H312 0.931 . S
C284 C283 1.395 . S
C284 C285 1.383 . S
C284 H313 0.931 . S
C285 C284 1.383 . S
C285 C286 1.394 . S
C286 C285 1.394 . S
C286 C287 1.378 . S
C286 H314 0.931 . S
C287 C282 1.377 . S
C287 C286 1.378 . S
C287 H315 0.931 . S
C288 O302 1.259 . S
C288 O303 1.270 . S
C289 O304 1.251 . S
C289 O305 1.251 1_455 S
C290 Eu291 2.835 . S
C290 C292 1.500 . S
C290 O306 1.257 . S
C290 O307 1.260 . S
Eu291 C290 2.835 . S
Eu291 O303 2.355 . S
Eu291 O305 2.374 . S
Eu291 O306 2.473 . S
Eu291 O307 2.480 . S
Eu291 O308 2.430 . S
Eu291 O309 2.670 1_655 S
Eu291 O310 2.394 . S
C292 C290 1.500 . S
C292 C293 1.377 . S
C292 C297 1.377 . S
C293 C292 1.377 . S
C293 C294 1.395 . S
C293 H316 0.931 . S
C294 C293 1.395 . S
C294 C295 1.383 . S
C294 H317 0.931 . S
C295 C294 1.383 . S
C295 C296 1.394 . S
C296 C295 1.394 . S
C296 C297 1.378 . S
C296 H318 0.931 . S
C297 C292 1.377 . S
C297 C296 1.378 . S
C297 H319 0.931 . S
C298 O308 1.259 1_455 S
C298 O309 1.270 . S
C299 O310 1.251 . S
C299 O311 1.251 1_655 S
O300 C280 1.257 . S
O300 Eu281 2.473 . S
O301 C280 1.260 . S
O301 Eu281 2.480 . S
O302 Eu281 2.430 1_655 S
O302 C288 1.259 . S
O303 Eu281 2.670 1_655 S
O303 C288 1.270 . S
O303 Eu291 2.355 . S
O304 Eu281 2.394 . S
O304 C289 1.251 . S
O305 C289 1.251 1_655 S
O305 Eu291 2.374 . S
O306 C290 1.257 . S
O306 Eu291 2.473 . S
O307 C290 1.260 . S
O307 Eu291 2.480 . S
O308 Eu291 2.430 . S
O308 C298 1.259 1_655 S
O309 Eu281 2.355 . S
O309 Eu291 2.670 1_455 S
O309 C298 1.270 . S
O310 Eu291 2.394 . S
O310 C299 1.251 . S
O311 Eu281 2.374 . S
O311 C299 1.251 1_455 S
H312 C283 0.931 . S
H313 C284 0.931 . S
H314 C286 0.931 . S
H315 C287 0.931 . S
H316 C293 0.931 . S
H317 C294 0.931 . S
H318 C296 0.931 . S
H319 C297 0.931 . S
C320 Eu321 2.835 1_655 S
C320 C322 1.500 . S
C320 O340 1.257 . S
C320 O341 1.260 1_655 S
Eu321 C320 2.835 1_455 S
Eu321 O340 2.473 1_455 S
Eu321 O341 2.480 . S
Eu321 O342 2.430 . S
Eu321 O343 2.670 . S
Eu321 O344 2.394 1_455 S
Eu321 O349 2.355 1_455 S
Eu321 O351 2.374 . S
C322 C320 1.500 . S
C322 C323 1.377 . S
C322 C327 1.377 . S
C323 C322 1.377 . S
C323 C324 1.395 . S
C323 H352 0.931 1_655 S
C324 C323 1.395 . S
C324 C325 1.383 . S
C324 H353 0.936 . S
C325 C324 1.383 . S
C325 C326 1.394 . S
C326 C325 1.394 . S
C326 C327 1.378 . S
C326 H354 0.931 . S
C327 C322 1.377 . S
C327 C326 1.378 . S
C327 H355 0.931 . S
C328 O342 1.259 . S
C328 O343 1.270 . S
C329 O344 1.251 . S
C329 O345 1.251 . S
C330 Eu331 2.835 1_455 S
C330 C332 1.500 . S
C330 O346 1.257 . S
C330 O347 1.260 1_455 S
Eu331 C330 2.835 1_655 S
Eu331 O343 2.355 1_655 S
Eu331 O345 2.374 . S
Eu331 O346 2.473 1_655 S
Eu331 O347 2.480 . S
Eu331 O348 2.430 . S
Eu331 O349 2.670 . S
Eu331 O350 2.394 . S
C332 C330 1.500 . S
C332 C333 1.377 1_455 S
C332 C337 1.377 . S
C333 C332 1.377 1_655 S
C333 C334 1.395 1_655 S
C333 H356 0.931 . S
C334 C333 1.395 1_455 S
C334 C335 1.383 . S
C334 H357 0.931 1_455 S
C335 C334 1.383 . S
C335 C336 1.394 . S
C336 C335 1.394 . S
C336 C337 1.378 . S
C336 H358 0.931 . S
C337 C332 1.377 . S
C337 C336 1.378 . S
C337 H359 0.931 . S
C338 O348 1.259 . S
C338 O349 1.270 . S
C339 O350 1.251 1_455 S
C339 O351 1.251 . S
O340 C320 1.257 . S
O340 Eu321 2.473 1_655 S
O341 C320 1.260 1_455 S
O341 Eu321 2.480 . S
O342 Eu321 2.430 . S
O342 C328 1.259 . S
O343 Eu321 2.670 . S
O343 C328 1.270 . S
O343 Eu331 2.355 1_455 S
O344 Eu321 2.394 1_655 S
O344 C329 1.251 . S
O345 C329 1.251 . S
O345 Eu331 2.374 . S
O346 C330 1.257 . S
O346 Eu331 2.473 1_455 S
O347 C330 1.260 1_655 S
O347 Eu331 2.480 . S
O348 Eu331 2.430 . S
O348 C338 1.259 . S
O349 Eu321 2.355 1_655 S
O349 Eu331 2.670 . S
O349 C338 1.270 . S
O350 Eu331 2.394 . S
O350 C339 1.251 1_655 S
O351 Eu321 2.374 . S
O351 C339 1.251 . S
H352 C323 0.931 1_455 S
H353 C324 0.936 . S
H354 C326 0.931 . S
H355 C327 0.931 . S
H356 C333 0.931 . S
H357 C334 0.931 1_655 S
H358 C336 0.931 . S
H359 C337 0.931 . S
C360 C361 1.170 . S
C360 C362 1.380 . S
C361 C360 1.170 . S
C362 C360 1.380 . S
C362 C363 1.170 . S
C363 C362 1.170 . S
C364 C365 1.170 . S
C364 C366 1.380 . S
C365 C364 1.170 . S
C366 C364 1.380 . S
C366 C367 1.170 . S
C367 C366 1.170 . S
C368 C369 1.170 . S
C368 C370 1.380 . S
C369 C368 1.170 . S
C370 C368 1.380 . S
C370 C371 1.170 . S
C371 C370 1.170 . S
C372 C373 1.170 . S
C372 C374 1.380 . S
C373 C372 1.170 . S
C374 C372 1.380 . S
C374 C375 1.170 . S
C375 C374 1.170 . S
C376 C377 1.170 . S
C376 C378 1.380 . S
C377 C376 1.170 . S
C378 C376 1.380 . S
C378 C379 1.170 . S
C379 C378 1.170 . S
C380 C381 1.170 . S
C380 C382 1.380 . S
C381 C380 1.170 . S
C382 C380 1.380 . S
C382 C383 1.170 . S
C383 C382 1.170 . S
C384 C385 1.170 . S
C384 C386 1.380 . S
C385 C384 1.170 . S
C386 C384 1.380 . S
C386 C387 1.170 . S
C387 C386 1.170 . S
C388 C389 1.170 . S
C388 C390 1.380 1_455 S
C389 C388 1.170 . S
C390 C388 1.380 1_655 S
C390 C391 1.170 . S
C391 C390 1.170 . S
C392 C393 1.170 . S
C392 C394 1.380 1_655 S
C393 C392 1.170 . S
C394 C392 1.380 1_455 S
C394 C395 1.170 . S
C395 C394 1.170 . S
C396 C397 1.170 . S
C396 C398 1.380 . S
C397 C396 1.170 . S
C398 C396 1.380 . S
C398 C399 1.170 . S
C399 C398 1.170 . S
C400 C401 1.170 . S
C400 C402 1.380 . S
C401 C400 1.170 . S
C402 C400 1.380 . S
C402 C403 1.170 . S
C403 C402 1.170 . S
C404 C405 1.170 . S
C404 C406 1.380 . S
C405 C404 1.170 . S
C406 C404 1.380 . S
C406 C407 1.170 . S
C407 C406 1.170 . S
C408 C409 1.170 1_556 S
C408 C410 1.380 . S
C409 C408 1.170 1_554 S
C410 C408 1.380 . S
C410 C411 1.170 . S
C411 C410 1.170 . S
C412 C413 1.170 . S
C412 C414 1.380 . S
C413 C412 1.170 . S
C414 C412 1.380 . S
C414 C415 1.170 1_556 S
C415 C414 1.170 1_554 S
C416 C417 1.170 . S
C416 C418 1.380 . S
C417 C416 1.170 . S
C418 C416 1.380 . S
C418 C419 1.170 1_556 S
C419 C418 1.170 1_554 S
C420 C421 1.170 . S
C420 C422 1.380 1_556 S
C421 C420 1.170 . S
C422 C420 1.380 1_554 S
C422 C423 1.170 . S
C423 C422 1.170 . S
C424 C425 1.170 . S
C424 C426 1.380 1_554 S
C425 C424 1.170 . S
C426 C424 1.380 1_556 S
C426 C427 1.170 . S
C427 C426 1.170 . S
C428 C429 1.170 1_554 S
C428 C430 1.380 . S
C429 C428 1.170 1_556 S
C430 C428 1.380 . S
C430 C431 1.170 . S
C431 C430 1.170 . S
C432 C433 1.170 . S
C432 C434 1.380 . S
C433 C432 1.170 . S
C434 C432 1.380 . S
C434 C435 1.170 . S
C435 C434 1.170 . S
C436 C437 1.170 . S
C436 C438 1.380 . S
C437 C436 1.170 . S
C438 C436 1.380 . S
C438 C439 1.170 . S
C439 C438 1.170 . S
C440 C441 1.170 . S
C440 C442 1.380 . S
C441 C440 1.170 . S
C442 C440 1.380 . S
C442 C443 1.170 . S
C443 C442 1.170 . S
C444 C445 1.170 . S
C444 C446 1.380 . S
C445 C444 1.170 . S
C446 C444 1.380 . S
C446 C447 1.170 . S
C447 C446 1.170 . S
C448 C449 1.170 . S
C448 C450 1.380 1_545 S
C449 C448 1.170 . S
C450 C448 1.380 1_565 S
C450 C451 1.170 . S
C451 C450 1.170 . S
C452 C453 1.170 . S
C452 C454 1.380 . S
C453 C452 1.170 . S
C454 C452 1.380 . S
C454 C455 1.170 . S
C455 C454 1.170 . S
C456 C457 1.170 . S
C456 C458 1.380 . S
C457 C456 1.170 . S
C458 C456 1.380 . S
C458 C459 1.170 . S
C459 C458 1.170 . S
C460 C461 1.170 . S
C460 C462 1.380 . S
C461 C460 1.170 . S
C462 C460 1.380 . S
C462 C463 1.170 . S
C463 C462 1.170 . S
C464 C465 1.170 . S
C464 C466 1.380 . S
C465 C464 1.170 . S
C466 C464 1.380 . S
C466 C467 1.170 . S
C467 C466 1.170 . S
C361 C18 1.533 . S
C363 C8 1.549 . S
C365 C58 1.538 . S
C367 C48 1.527 . S
C369 C98 1.544 . S
C371 C88 1.538 . S
C373 C128 1.523 . S
C375 C138 1.545 . S
C377 C168 1.551 . S
C379 C178 1.529 . S
C381 C208 1.551 . S
C383 C218 1.522 . S
C385 C249 1.418 . S
C387 C259 1.464 1_554 S
C389 C289 1.415 . S
C391 C299 1.439 1_554 S
C393 C329 1.418 . S
C395 C339 1.464 1_554 S
C397 C219 2.619 . S
C399 C15 2.534 . S
C401 C55 2.559 . S
C403 C139 2.605 . S
C405 C95 2.550 . S
C407 C179 2.605 . S
C409 C99 2.272 . S
C411 C258 2.459 . S
C413 C298 2.458 . S
C415 C19 2.266 . S
C417 C338 2.466 . S
C419 C59 2.250 . S
C421 C335 1.069 . S
C423 C5 1.100 . S
C425 C45 1.073 . S
C427 C255 1.088 . S
C429 C295 1.103 . S
C431 C85 1.063 . S
C433 C89 2.623 . S
C435 C125 2.536 . S
C437 C165 2.542 . S
C439 C9 2.619 . S
C441 C49 2.624 . S
C443 C205 2.536 . S
C445 C325 1.075 . S
C447 C135 1.067 . S
C449 C245 1.074 . S
C451 C175 1.066 . S
C453 C285 1.069 . S
C455 C215 1.084 . S
C457 C248 2.471 . S
C459 C209 2.247 . S
C461 C129 2.281 . S
C463 C288 2.457 . S
C465 C328 2.466 . S
C467 C169 2.247 . S
