# Generated by pormake.
# Topology wmy, (6)-cn, num edge types: 1
# Building blocks:
#     Node 0, Type 0, BuildingBlock: VOLQOD_clean_sbu_1, # of connection points: 6
#     Node 1, Type 0, BuildingBlock: VOLQOD_clean_sbu_1, # of connection points: 6
#     Node 2, Type 0, BuildingBlock: VOLQOD_clean_sbu_1, # of connection points: 6
#     Node 3, Type 0, BuildingBlock: VOLQOD_clean_sbu_1, # of connection points: 6
#     Node 4, Type 0, BuildingBlock: VOLQOD_clean_sbu_1, # of connection points: 6
#     Node 5, Type 0, BuildingBlock: VOLQOD_clean_sbu_1, # of connection points: 6
#     Node 6, Type 0, BuildingBlock: VOLQOD_clean_sbu_1, # of connection points: 6
#     Node 7, Type 0, BuildingBlock: VOLQOD_clean_sbu_1, # of connection points: 6
#     Node 8, Type 0, BuildingBlock: VOLQOD_clean_sbu_1, # of connection points: 6
#     Node 9, Type 0, BuildingBlock: VOLQOD_clean_sbu_1, # of connection points: 6
#     Node 10, Type 0, BuildingBlock: VOLQOD_clean_sbu_1, # of connection points: 6
#     Node 11, Type 0, BuildingBlock: VOLQOD_clean_sbu_1, # of connection points: 6
#     Node 12, Type 0, BuildingBlock: VOLQOD_clean_sbu_1, # of connection points: 6
#     Node 13, Type 0, BuildingBlock: VOLQOD_clean_sbu_1, # of connection points: 6
#     Node 14, Type 0, BuildingBlock: VOLQOD_clean_sbu_1, # of connection points: 6
#     Node 15, Type 0, BuildingBlock: VOLQOD_clean_sbu_1, # of connection points: 6
#     Node 16, Type 0, BuildingBlock: VOLQOD_clean_sbu_1, # of connection points: 6
#     Node 17, Type 0, BuildingBlock: VOLQOD_clean_sbu_1, # of connection points: 6
#     Node 18, Type 0, BuildingBlock: VOLQOD_clean_sbu_1, # of connection points: 6
#     Node 19, Type 0, BuildingBlock: VOLQOD_clean_sbu_1, # of connection points: 6
#     Node 20, Type 0, BuildingBlock: VOLQOD_clean_sbu_1, # of connection points: 6
#     Node 21, Type 0, BuildingBlock: VOLQOD_clean_sbu_1, # of connection points: 6
#     Node 22, Type 0, BuildingBlock: VOLQOD_clean_sbu_1, # of connection points: 6
#     Node 23, Type 0, BuildingBlock: VOLQOD_clean_sbu_1, # of connection points: 6
#     Node 24, Type 0, BuildingBlock: VOLQOD_clean_sbu_1, # of connection points: 6
#     Node 25, Type 0, BuildingBlock: VOLQOD_clean_sbu_1, # of connection points: 6
#     Node 26, Type 0, BuildingBlock: VOLQOD_clean_sbu_1, # of connection points: 6
#     Node 27, Type 0, BuildingBlock: VOLQOD_clean_sbu_1, # of connection points: 6
#     Node 28, Type 0, BuildingBlock: VOLQOD_clean_sbu_1, # of connection points: 6
#     Node 29, Type 0, BuildingBlock: VOLQOD_clean_sbu_1, # of connection points: 6
#     Node 30, Type 0, BuildingBlock: VOLQOD_clean_sbu_1, # of connection points: 6
#     Node 31, Type 0, BuildingBlock: VOLQOD_clean_sbu_1, # of connection points: 6
#     Node 32, Type 0, BuildingBlock: VOLQOD_clean_sbu_1, # of connection points: 6
#     Node 33, Type 0, BuildingBlock: VOLQOD_clean_sbu_1, # of connection points: 6
#     Node 34, Type 0, BuildingBlock: VOLQOD_clean_sbu_1, # of connection points: 6
#     Node 35, Type 0, BuildingBlock: VOLQOD_clean_sbu_1, # of connection points: 6
#     Edge 36, Type (0, 0), BuildingBlock: XUDNAN_clean_linker_2, # of connection points: 2
#     Edge 37, Type (0, 0), BuildingBlock: XUDNAN_clean_linker_2, # of connection points: 2
#     Edge 38, Type (0, 0), BuildingBlock: XUDNAN_clean_linker_2, # of connection points: 2
#     Edge 39, Type (0, 0), BuildingBlock: XUDNAN_clean_linker_2, # of connection points: 2
#     Edge 40, Type (0, 0), BuildingBlock: XUDNAN_clean_linker_2, # of connection points: 2
#     Edge 41, Type (0, 0), BuildingBlock: XUDNAN_clean_linker_2, # of connection points: 2
#     Edge 42, Type (0, 0), BuildingBlock: XUDNAN_clean_linker_2, # of connection points: 2
#     Edge 43, Type (0, 0), BuildingBlock: XUDNAN_clean_linker_2, # of connection points: 2
#     Edge 44, Type (0, 0), BuildingBlock: XUDNAN_clean_linker_2, # of connection points: 2
#     Edge 45, Type (0, 0), BuildingBlock: XUDNAN_clean_linker_2, # of connection points: 2
#     Edge 46, Type (0, 0), BuildingBlock: XUDNAN_clean_linker_2, # of connection points: 2
#     Edge 47, Type (0, 0), BuildingBlock: XUDNAN_clean_linker_2, # of connection points: 2
#     Edge 48, Type (0, 0), BuildingBlock: XUDNAN_clean_linker_2, # of connection points: 2
#     Edge 49, Type (0, 0), BuildingBlock: XUDNAN_clean_linker_2, # of connection points: 2
#     Edge 50, Type (0, 0), BuildingBlock: XUDNAN_clean_linker_2, # of connection points: 2
#     Edge 51, Type (0, 0), BuildingBlock: XUDNAN_clean_linker_2, # of connection points: 2
#     Edge 52, Type (0, 0), BuildingBlock: XUDNAN_clean_linker_2, # of connection points: 2
#     Edge 53, Type (0, 0), BuildingBlock: XUDNAN_clean_linker_2, # of connection points: 2
#     Edge 54, Type (0, 0), BuildingBlock: XUDNAN_clean_linker_2, # of connection points: 2
#     Edge 55, Type (0, 0), BuildingBlock: XUDNAN_clean_linker_2, # of connection points: 2
#     Edge 56, Type (0, 0), BuildingBlock: XUDNAN_clean_linker_2, # of connection points: 2
#     Edge 57, Type (0, 0), BuildingBlock: XUDNAN_clean_linker_2, # of connection points: 2
#     Edge 58, Type (0, 0), BuildingBlock: XUDNAN_clean_linker_2, # of connection points: 2
#     Edge 59, Type (0, 0), BuildingBlock: XUDNAN_clean_linker_2, # of connection points: 2
#     Edge 60, Type (0, 0), BuildingBlock: XUDNAN_clean_linker_2, # of connection points: 2
#     Edge 61, Type (0, 0), BuildingBlock: XUDNAN_clean_linker_2, # of connection points: 2
#     Edge 62, Type (0, 0), BuildingBlock: XUDNAN_clean_linker_2, # of connection points: 2
#     Edge 63, Type (0, 0), BuildingBlock: XUDNAN_clean_linker_2, # of connection points: 2
#     Edge 64, Type (0, 0), BuildingBlock: XUDNAN_clean_linker_2, # of connection points: 2
#     Edge 65, Type (0, 0), BuildingBlock: XUDNAN_clean_linker_2, # of connection points: 2
#     Edge 66, Type (0, 0), BuildingBlock: XUDNAN_clean_linker_2, # of connection points: 2
#     Edge 67, Type (0, 0), BuildingBlock: XUDNAN_clean_linker_2, # of connection points: 2
#     Edge 68, Type (0, 0), BuildingBlock: XUDNAN_clean_linker_2, # of connection points: 2
#     Edge 69, Type (0, 0), BuildingBlock: XUDNAN_clean_linker_2, # of connection points: 2
#     Edge 70, Type (0, 0), BuildingBlock: XUDNAN_clean_linker_2, # of connection points: 2
#     Edge 71, Type (0, 0), BuildingBlock: XUDNAN_clean_linker_2, # of connection points: 2
#     Edge 72, Type (0, 0), BuildingBlock: XUDNAN_clean_linker_2, # of connection points: 2
#     Edge 73, Type (0, 0), BuildingBlock: XUDNAN_clean_linker_2, # of connection points: 2
#     Edge 74, Type (0, 0), BuildingBlock: XUDNAN_clean_linker_2, # of connection points: 2
#     Edge 75, Type (0, 0), BuildingBlock: XUDNAN_clean_linker_2, # of connection points: 2
#     Edge 76, Type (0, 0), BuildingBlock: XUDNAN_clean_linker_2, # of connection points: 2
#     Edge 77, Type (0, 0), BuildingBlock: XUDNAN_clean_linker_2, # of connection points: 2
#     Edge 78, Type (0, 0), BuildingBlock: XUDNAN_clean_linker_2, # of connection points: 2
#     Edge 79, Type (0, 0), BuildingBlock: XUDNAN_clean_linker_2, # of connection points: 2
#     Edge 80, Type (0, 0), BuildingBlock: XUDNAN_clean_linker_2, # of connection points: 2
#     Edge 81, Type (0, 0), BuildingBlock: XUDNAN_clean_linker_2, # of connection points: 2
#     Edge 82, Type (0, 0), BuildingBlock: XUDNAN_clean_linker_2, # of connection points: 2
#     Edge 83, Type (0, 0), BuildingBlock: XUDNAN_clean_linker_2, # of connection points: 2
#     Edge 84, Type (0, 0), BuildingBlock: XUDNAN_clean_linker_2, # of connection points: 2
#     Edge 85, Type (0, 0), BuildingBlock: XUDNAN_clean_linker_2, # of connection points: 2
#     Edge 86, Type (0, 0), BuildingBlock: XUDNAN_clean_linker_2, # of connection points: 2
#     Edge 87, Type (0, 0), BuildingBlock: XUDNAN_clean_linker_2, # of connection points: 2
#     Edge 88, Type (0, 0), BuildingBlock: XUDNAN_clean_linker_2, # of connection points: 2
#     Edge 89, Type (0, 0), BuildingBlock: XUDNAN_clean_linker_2, # of connection points: 2
#     Edge 90, Type (0, 0), BuildingBlock: XUDNAN_clean_linker_2, # of connection points: 2
#     Edge 91, Type (0, 0), BuildingBlock: XUDNAN_clean_linker_2, # of connection points: 2
#     Edge 92, Type (0, 0), BuildingBlock: XUDNAN_clean_linker_2, # of connection points: 2
#     Edge 93, Type (0, 0), BuildingBlock: XUDNAN_clean_linker_2, # of connection points: 2
#     Edge 94, Type (0, 0), BuildingBlock: XUDNAN_clean_linker_2, # of connection points: 2
#     Edge 95, Type (0, 0), BuildingBlock: XUDNAN_clean_linker_2, # of connection points: 2
#     Edge 96, Type (0, 0), BuildingBlock: XUDNAN_clean_linker_2, # of connection points: 2
#     Edge 97, Type (0, 0), BuildingBlock: XUDNAN_clean_linker_2, # of connection points: 2
#     Edge 98, Type (0, 0), BuildingBlock: XUDNAN_clean_linker_2, # of connection points: 2
#     Edge 99, Type (0, 0), BuildingBlock: XUDNAN_clean_linker_2, # of connection points: 2
#     Edge 100, Type (0, 0), BuildingBlock: XUDNAN_clean_linker_2, # of connection points: 2
#     Edge 101, Type (0, 0), BuildingBlock: XUDNAN_clean_linker_2, # of connection points: 2
#     Edge 102, Type (0, 0), BuildingBlock: XUDNAN_clean_linker_2, # of connection points: 2
#     Edge 103, Type (0, 0), BuildingBlock: XUDNAN_clean_linker_2, # of connection points: 2
#     Edge 104, Type (0, 0), BuildingBlock: XUDNAN_clean_linker_2, # of connection points: 2
#     Edge 105, Type (0, 0), BuildingBlock: XUDNAN_clean_linker_2, # of connection points: 2
#     Edge 106, Type (0, 0), BuildingBlock: XUDNAN_clean_linker_2, # of connection points: 2
#     Edge 107, Type (0, 0), BuildingBlock: XUDNAN_clean_linker_2, # of connection points: 2
#     Edge 108, Type (0, 0), BuildingBlock: XUDNAN_clean_linker_2, # of connection points: 2
#     Edge 109, Type (0, 0), BuildingBlock: XUDNAN_clean_linker_2, # of connection points: 2
#     Edge 110, Type (0, 0), BuildingBlock: XUDNAN_clean_linker_2, # of connection points: 2
#     Edge 111, Type (0, 0), BuildingBlock: XUDNAN_clean_linker_2, # of connection points: 2
#     Edge 112, Type (0, 0), BuildingBlock: XUDNAN_clean_linker_2, # of connection points: 2
#     Edge 113, Type (0, 0), BuildingBlock: XUDNAN_clean_linker_2, # of connection points: 2
#     Edge 114, Type (0, 0), BuildingBlock: XUDNAN_clean_linker_2, # of connection points: 2
#     Edge 115, Type (0, 0), BuildingBlock: XUDNAN_clean_linker_2, # of connection points: 2
#     Edge 116, Type (0, 0), BuildingBlock: XUDNAN_clean_linker_2, # of connection points: 2
#     Edge 117, Type (0, 0), BuildingBlock: XUDNAN_clean_linker_2, # of connection points: 2
#     Edge 118, Type (0, 0), BuildingBlock: XUDNAN_clean_linker_2, # of connection points: 2
#     Edge 119, Type (0, 0), BuildingBlock: XUDNAN_clean_linker_2, # of connection points: 2
#     Edge 120, Type (0, 0), BuildingBlock: XUDNAN_clean_linker_2, # of connection points: 2
#     Edge 121, Type (0, 0), BuildingBlock: XUDNAN_clean_linker_2, # of connection points: 2
#     Edge 122, Type (0, 0), BuildingBlock: XUDNAN_clean_linker_2, # of connection points: 2
#     Edge 123, Type (0, 0), BuildingBlock: XUDNAN_clean_linker_2, # of connection points: 2
#     Edge 124, Type (0, 0), BuildingBlock: XUDNAN_clean_linker_2, # of connection points: 2
#     Edge 125, Type (0, 0), BuildingBlock: XUDNAN_clean_linker_2, # of connection points: 2
#     Edge 126, Type (0, 0), BuildingBlock: XUDNAN_clean_linker_2, # of connection points: 2
#     Edge 127, Type (0, 0), BuildingBlock: XUDNAN_clean_linker_2, # of connection points: 2
#     Edge 128, Type (0, 0), BuildingBlock: XUDNAN_clean_linker_2, # of connection points: 2
#     Edge 129, Type (0, 0), BuildingBlock: XUDNAN_clean_linker_2, # of connection points: 2
#     Edge 130, Type (0, 0), BuildingBlock: XUDNAN_clean_linker_2, # of connection points: 2
#     Edge 131, Type (0, 0), BuildingBlock: XUDNAN_clean_linker_2, # of connection points: 2
#     Edge 132, Type (0, 0), BuildingBlock: XUDNAN_clean_linker_2, # of connection points: 2
#     Edge 133, Type (0, 0), BuildingBlock: XUDNAN_clean_linker_2, # of connection points: 2
#     Edge 134, Type (0, 0), BuildingBlock: XUDNAN_clean_linker_2, # of connection points: 2
#     Edge 135, Type (0, 0), BuildingBlock: XUDNAN_clean_linker_2, # of connection points: 2
#     Edge 136, Type (0, 0), BuildingBlock: XUDNAN_clean_linker_2, # of connection points: 2
#     Edge 137, Type (0, 0), BuildingBlock: XUDNAN_clean_linker_2, # of connection points: 2
#     Edge 138, Type (0, 0), BuildingBlock: XUDNAN_clean_linker_2, # of connection points: 2
#     Edge 139, Type (0, 0), BuildingBlock: XUDNAN_clean_linker_2, # of connection points: 2
#     Edge 140, Type (0, 0), BuildingBlock: XUDNAN_clean_linker_2, # of connection points: 2
#     Edge 141, Type (0, 0), BuildingBlock: XUDNAN_clean_linker_2, # of connection points: 2
#     Edge 142, Type (0, 0), BuildingBlock: XUDNAN_clean_linker_2, # of connection points: 2
#     Edge 143, Type (0, 0), BuildingBlock: XUDNAN_clean_linker_2, # of connection points: 2
# Relax obj value: 0.748
# Max RMSD: 0.311
# Mean RMSD: 0.311
data_MOF--net-wmy--node1-VOLQOD_clean_sbu_1--edge1-XUDNAN_clean_linker_2
_symmetry_space_group_name_H-M    P1
_symmetry_Int_Tables_number       1
_symmetry_cell_setting            triclinic
loop_
_symmetry_equiv_pos_as_xyz
'x, y, z'
_cell_length_a     55.805443
_cell_length_b     55.764505
_cell_length_c     56.207913
_cell_angle_alpha  90.037029
_cell_angle_beta   89.976771
_cell_angle_gamma 119.95737
loop_
_atom_site_label
_atom_site_type_symbol
_atom_site_fract_x
_atom_site_fract_y
_atom_site_fract_z
_atom_type_partial_charge
O0 O 0.98626 0.17551 0.12703 0.0
Zn1 Zn -0.00651 0.17841 0.09201 0.0
O2 O 0.96025 0.15259 0.07606 0.0
Zn3 Zn 0.96554 0.12815 0.05514 0.0
Zn4 Zn 0.93092 0.13117 0.09809 0.0
Zn5 Zn 0.94958 0.17375 0.05706 0.0
O6 O 0.96961 0.14071 0.02065 0.0
O7 O 0.96738 0.17916 0.02519 0.0
O8 O 0.02376 0.16925 0.08616 0.0
O9 O 0.00193 0.13192 0.06324 0.0
O10 O 0.93727 0.08773 0.06156 0.0
O11 O 0.92377 0.09233 0.09772 0.0
O12 O 0.89471 0.12611 0.08558 0.0
O13 O 0.00422 0.21745 0.08273 0.0
O14 O 0.90887 0.15136 0.05265 0.0
O15 O 0.96382 0.21173 0.07035 0.0
C16 C 0.96513 0.16285 0.1404 0.0
C17 C 0.97236 0.1633 0.01248 0.0
C18 C 0.92468 0.07723 0.08112 0.0
C19 C 0.02318 0.14909 0.0749 0.0
C20 C 0.88958 0.13274 0.06527 0.0
C21 C 0.98877 0.22737 0.07698 0.0
O22 O 0.94133 0.14589 0.13186 0.0
O23 O 0.81919 0.80479 0.13357 0.0
Zn24 Zn 0.81891 0.81678 0.10029 0.0
O25 O 0.83752 0.80371 0.07985 0.0
Zn26 Zn 0.86306 0.83473 0.06008 0.0
Zn27 Zn 0.85644 0.78859 0.09864 0.0
Zn28 Zn 0.80921 0.77403 0.0599 0.0
O29 O 0.84639 0.83123 0.02684 0.0
O30 O 0.80752 0.79035 0.02815 0.0
O31 O 0.83575 0.85821 0.09997 0.0
O32 O 0.8676 0.87068 0.07192 0.0
O33 O 0.90163 0.83931 0.06274 0.0
O34 O 0.89708 0.81148 0.09304 0.0
O35 O 0.84444 0.75038 0.08597 0.0
O36 O 0.77957 0.79983 0.09051 0.0
O37 O 0.81824 0.74285 0.0554 0.0
O38 O 0.77135 0.76029 0.07367 0.0
C39 C 0.83063 0.7933 0.14469 0.0
C40 C 0.8236 0.81297 0.01745 0.0
C41 C 0.91197 0.82956 0.07759 0.0
C42 C 0.85512 0.87688 0.08753 0.0
C43 C 0.84104 0.74635 0.06366 0.0
C44 C 0.76292 0.77591 0.0823 0.0
O45 O 0.8464 0.78628 0.13398 0.0
O46 O 0.17074 0.00152 0.14008 0.0
Zn47 Zn 0.16613 0.9914 0.10533 0.0
O48 O 0.17237 0.02254 0.08678 0.0
Zn49 Zn 0.14158 0.0148 0.06689 0.0
Zn50 Zn 0.18254 0.05453 0.10612 0.0
Zn51 Zn 0.20236 0.03146 0.06596 0.0
O52 O 0.14767 0.00683 0.03301 0.0
O53 O 0.18813 0.00858 0.03633 0.0
O54 O 0.12783 0.95865 0.09882 0.0
O55 O 0.10978 0.97856 0.0764 0.0
O56 O 0.13138 0.04464 0.07076 0.0
O57 O 0.15179 0.063 0.1054 0.0
O58 O 0.21311 0.08912 0.09042 0.0
O59 O 0.19642 0.98303 0.09786 0.0
O60 O 0.21744 0.07062 0.05697 0.0
O61 O 0.22864 0.02204 0.08089 0.0
C62 C 0.18224 0.02462 0.15108 0.0
C63 C 0.16604 0.00182 0.0248 0.0
C64 C 0.13558 0.06066 0.08846 0.0
C65 C 0.10753 0.95762 0.08745 0.0
C66 C 0.21936 0.09121 0.0684 0.0
C67 C 0.22116 -0.00129 0.09059 0.0
O68 O 0.19001 0.04747 0.14015 0.0
O69 O 0.16826 0.00899 0.33197 0.0
Zn70 Zn 0.167 0.0189 0.36585 0.0
O71 O 0.16188 0.98848 0.38475 0.0
Zn72 Zn 0.13056 0.97276 0.40521 0.0
Zn73 Zn 0.1605 0.95945 0.3663 0.0
Zn74 Zn 0.19211 0.00154 0.40518 0.0
O75 O 0.14136 0.98278 0.4403 0.0
O76 O 0.18409 0.01713 0.43375 0.0
O77 O 0.13573 0.02687 0.37268 0.0
O78 O 0.10998 0.99216 0.39748 0.0
O79 O 0.10587 0.93178 0.39738 0.0
O80 O 0.12111 0.93152 0.36082 0.0
O81 O 0.1726 0.93833 0.38849 0.0
O82 O 0.2058 0.05193 0.37032 0.0
O83 O 0.19554 0.96987 0.41638 0.0
O84 O 0.22508 0.03076 0.38945 0.0
C85 C 0.17631 0.9936 0.32213 0.0
C86 C 0.16307 0.00472 0.44721 0.0
C87 C 0.10324 0.92001 0.37724 0.0
C88 C 0.11412 0.01331 0.38555 0.0
C89 C 0.18471 0.94518 0.40872 0.0
C90 C 0.22701 0.05106 0.37761 0.0
O91 O 0.17811 0.97468 0.33362 0.0
O92 O 0.94236 0.12532 0.32019 0.0
Zn93 Zn 0.92476 0.10857 0.35145 0.0
O94 O 0.95226 0.12437 0.37543 0.0
Zn95 Zn 0.94759 0.09844 0.39921 0.0
Zn96 Zn 0.98835 0.1399 0.36247 0.0
Zn97 Zn 0.9481 0.15221 0.39024 0.0
O98 O 0.92695 0.10079 0.428 0.0
O99 O 0.92126 0.13597 0.41717 0.0
O100 O 0.91089 0.06711 0.35005 0.0
O101 O 0.92634 0.06124 0.38476 0.0
O102 O 0.98406 0.10115 0.40576 0.0
O103 O 0.00144 0.11286 0.36913 0.0
O104 O 0.01395 0.17317 0.38175 0.0
O105 O 0.89695 0.12075 0.35941 0.0
O106 O 0.98505 0.17988 0.40429 0.0
O107 O 0.92937 0.16414 0.36688 0.0
C108 C 0.96723 0.14052 0.31317 0.0
C109 C 0.91634 0.11618 0.43118 0.0
C110 C 0.00028 0.10188 0.38936 0.0
C111 C 0.91403 0.05168 0.36506 0.0
C112 C 0.00947 0.18512 0.3991 0.0
C113 C 0.90411 0.14616 0.36285 0.0
O114 O 0.98768 0.14817 0.32736 0.0
O115 O 0.85489 0.77497 0.32433 0.0
Zn116 Zn 0.87175 0.77582 0.35622 0.0
O117 O 0.882 0.81023 0.37138 0.0
Zn118 Zn 0.92113 0.83341 0.36814 0.0
Zn119 Zn 0.86297 0.82693 0.35699 0.0
Zn120 Zn 0.87389 0.80542 0.40407 0.0
O121 O 0.94133 0.82961 0.39744 0.0
O122 O 0.90592 0.809 0.4223 0.0
O123 O 0.90679 0.77404 0.35187 0.0
O124 O 0.93138 0.81768 0.34042 0.0
O125 O 0.92962 0.87292 0.36164 0.0
O126 O 0.89089 0.8622 0.34201 0.0
O127 O 0.84577 0.8403 0.3821 0.0
O128 O 0.84386 0.74494 0.37702 0.0
O129 O 0.86434 0.83356 0.41466 0.0
O130 O 0.84336 0.76728 0.40981 0.0
C131 C 0.84076 0.78588 0.3173 0.0
C132 C 0.93137 0.81853 0.41762 0.0
C133 C 0.91538 0.87969 0.34834 0.0
C134 C 0.92858 0.79365 0.34244 0.0
C135 C 0.852 0.84457 0.40418 0.0
C136 C 0.83451 0.74516 0.3977 0.0
O137 O 0.83841 0.80363 0.32997 0.0
O138 O -0.00267 0.81545 0.83886 0.0
Zn139 Zn 0.98491 0.81466 0.87242 0.0
O140 O 0.01656 0.83541 0.8919 0.0
Zn141 Zn 0.01471 0.86422 0.90882 0.0
Zn142 Zn 0.05031 0.85218 0.87344 0.0
Zn143 Zn 0.01736 0.81107 0.91554 0.0
O144 O 0.00648 0.85567 0.94339 0.0
O145 O -0.00294 0.81213 0.94493 0.0
O146 O 0.95929 0.83059 0.87347 0.0
O147 O 0.98273 0.86721 0.89682 0.0
O148 O 0.04842 0.90088 0.90356 0.0
O149 O 0.06479 0.89355 0.86998 0.0
O150 O 0.08043 0.85229 0.89366 0.0
O151 O 0.96567 0.77482 0.88303 0.0
O152 O 0.0568 0.82788 0.92527 0.0
O153 O -0.0028 0.7713 0.90468 0.0
C154 C 0.02029 0.82188 0.82893 0.0
C155 C -0.00342 0.83267 0.95429 0.0
C156 C 0.06458 0.90999 0.8857 0.0
C157 C 0.96199 0.85225 0.88367 0.0
C158 C 0.07944 0.84562 0.91552 0.0
C159 C 0.97395 0.76018 0.89392 0.0
O160 O 0.04323 0.83407 0.84031 0.0
O161 O 0.16931 0.17788 0.83959 0.0
Zn162 Zn 0.16897 0.17045 0.87445 0.0
O163 O 0.14084 0.17521 0.88896 0.0
Zn164 Zn 0.11709 0.14413 0.90793 0.0
Zn165 Zn 0.11799 0.18023 0.86599 0.0
Zn166 Zn 0.15808 0.20628 0.9099 0.0
O167 O 0.13033 0.14987 0.94156 0.0
O168 O 0.16277 0.19406 0.94252 0.0
O169 O 0.16036 0.13059 0.87812 0.0
O170 O 0.1198 0.11152 0.89693 0.0
O171 O 0.07821 0.13708 0.90525 0.0
O172 O 0.07858 0.14804 0.86716 0.0
O173 O 0.11178 0.21119 0.87685 0.0
O174 O 0.20611 0.19913 0.8879 0.0
O175 O 0.13214 0.22128 0.9123 0.0
O176 O 0.19698 0.23207 0.89925 0.0
C177 C 0.15512 0.18367 0.82539 0.0
C178 C 0.14962 0.17048 0.95246 0.0
C179 C 0.06556 0.13736 0.88647 0.0
C180 C 0.13899 0.10945 0.88653 0.0
C181 C 0.11474 0.22146 0.89767 0.0
C182 C 0.21421 0.22392 0.89467 0.0
O183 O 0.13453 0.18573 0.83273 0.0
O184 O 0.79769 0.99284 0.83755 0.0
Zn185 Zn 0.80623 0.00283 0.87225 0.0
O186 O 0.80342 0.97133 0.8884 0.0
Zn187 Zn 0.83624 0.98037 0.90613 0.0
Zn188 Zn 0.79535 0.9409 0.86759 0.0
Zn189 Zn 0.77369 0.95907 0.91038 0.0
O190 O 0.83217 0.9895 0.94025 0.0
O191 O 0.78817 0.97902 0.94105 0.0
O192 O 0.84563 0.03579 0.87522 0.0
O193 O 0.86657 0.0159 0.89378 0.0
O194 O 0.84781 0.95138 0.90156 0.0
O195 O 0.82786 0.93526 0.86641 0.0
O196 O 0.76666 0.90437 0.88215 0.0
O197 O 0.77716 0.01098 0.88573 0.0
O198 O 0.76071 0.91949 0.9169 0.0
O199 O 0.74598 0.9696 0.89978 0.0
C200 C 0.79037 0.97113 0.82505 0.0
C201 C 0.81177 0.98915 0.95081 0.0
C202 C 0.84441 0.93705 0.88281 0.0
C203 C 0.86738 0.0364 0.88316 0.0
C204 C 0.75983 0.90027 0.90406 0.0
C205 C 0.75304 -0.00562 0.89394 0.0
O206 O 0.78751 0.94887 0.83419 0.0
O207 O 0.81706 0.9579 0.64532 0.0
Zn208 Zn 0.81576 0.94371 0.61179 0.0
O209 O 0.82921 0.97357 0.58908 0.0
Zn210 Zn 0.86388 0.98156 0.57494 0.0
Zn211 Zn 0.83324 0.00533 0.60573 0.0
Zn212 Zn 0.803 0.96532 0.56395 0.0
O213 O 0.85964 0.97379 0.53936 0.0
O214 O 0.81395 0.95259 0.53494 0.0
O215 O 0.83771 0.92369 0.60873 0.0
O216 O 0.87369 0.95356 0.58693 0.0
O217 O 0.89391 0.021 0.58342 0.0
O218 O 0.87296 0.03079 0.61248 0.0
O219 O 0.8234 0.02817 0.58441 0.0
O220 O 0.7749 0.91848 0.60652 0.0
O221 O 0.80306 -0.00028 0.55405 0.0
O222 O 0.76583 0.9367 0.57489 0.0
C223 C 0.81219 0.97698 0.65194 0.0
C224 C 0.8379 0.95977 0.52684 0.0
C225 C 0.89443 0.03655 0.60039 0.0
C226 C 0.86092 0.93102 0.59866 0.0
C227 C 0.81238 0.02328 0.56384 0.0
C228 C 0.75789 0.91926 0.59184 0.0
O229 O 0.8137 -0.00485 0.63729 0.0
O230 O 0.01659 0.83664 0.65606 0.0
Zn231 Zn 0.04756 0.85726 0.63312 0.0
O232 O 0.03501 0.84233 0.60234 0.0
Zn233 Zn 0.03352 0.86619 0.57922 0.0
Zn234 Zn -0.0003 0.81072 0.60574 0.0
Zn235 Zn 0.05845 0.83177 0.58851 0.0
O236 O 0.05881 0.87132 0.55037 0.0
O237 O 0.08795 0.86288 0.57045 0.0
O238 O 0.05811 0.89752 0.63325 0.0
O239 O 0.04857 0.90212 0.59557 0.0
O240 O -0.00672 0.85544 0.57325 0.0
O241 O 0.97289 0.82442 0.60219 0.0
O242 O -0.0065 0.78716 0.57647 0.0
O243 O 0.07718 0.84858 0.64416 0.0
O244 O 0.03654 0.80353 0.5636 0.0
O245 O 0.07572 0.82164 0.61402 0.0
C246 C 0.00218 0.81041 0.65777 0.0
C247 C 0.08229 0.87254 0.55222 0.0
C248 C 0.97246 0.841 0.58677 0.0
C249 C 0.05671 0.91203 0.61632 0.0
C250 C 0.01051 0.789 0.56034 0.0
C251 C 0.08382 0.83188 0.63472 0.0
O252 O -0.00333 0.79486 0.63943 0.0
O253 O 0.14402 0.19238 0.64255 0.0
Zn254 Zn 0.13316 0.19486 0.60875 0.0
O255 O 0.13055 0.16461 0.59052 0.0
Zn256 Zn 0.09482 0.14164 0.57776 0.0
Zn257 Zn 0.13851 0.14236 0.61075 0.0
Zn258 Zn 0.15518 0.17613 0.56428 0.0
O259 O 0.09278 0.14772 0.54275 0.0
O260 O 0.13606 0.18029 0.53542 0.0
O261 O 0.09644 0.19471 0.6098 0.0
O262 O 0.07107 0.1545 0.59119 0.0
O263 O 0.07963 0.10218 0.58828 0.0
O264 O 0.1027 0.1118 0.62235 0.0
O265 O 0.15535 0.12373 0.59154 0.0
O266 O 0.1647 0.22919 0.59468 0.0
O267 O 0.16605 0.14735 0.55762 0.0
O268 O 0.18676 0.21327 0.57197 0.0
C269 C 0.15626 0.18046 0.65168 0.0
C270 C 0.11077 0.16631 0.5292 0.0
C271 C 0.08288 0.09515 0.60911 0.0
C272 C 0.07328 0.17544 0.6021 0.0
C273 C 0.1644 0.12756 0.57023 0.0
C274 C 0.18566 0.23294 0.5825 0.0
O275 O 0.15975 0.16285 0.63995 0.0
O276 O 0.66692 0.50752 0.49626 0.0
Zn277 Zn 0.67482 0.50215 0.46289 0.0
O278 O 0.64119 0.48509 0.4452 0.0
Zn279 Zn 0.63573 0.45212 0.42932 0.0
Zn280 Zn 0.61024 0.47501 0.46622 0.0
Zn281 Zn 0.64234 0.51054 0.42159 0.0
O282 O 0.64512 0.4593 0.39406 0.0
O283 O 0.65367 0.5025 0.3902 0.0
O284 O 0.69319 0.4788 0.46264 0.0
O285 O 0.66291 0.44182 0.44221 0.0
O286 O 0.59706 0.42051 0.43662 0.0
O287 O 0.59175 0.43435 0.47248 0.0
O288 O 0.58094 0.47829 0.44708 0.0
O289 O 0.69959 0.54077 0.45134 0.0
O290 O 0.60458 0.5051 0.41657 0.0
O291 O 0.67117 0.54915 0.42952 0.0
C292 C 0.64642 0.5054 0.50793 0.0
C293 C 0.65303 0.4811 0.38159 0.0
C294 C 0.58472 0.41568 0.45668 0.0
C295 C 0.68511 0.45467 0.4543 0.0
C296 C 0.58182 0.4901 0.42734 0.0
C297 C 0.69417 0.5573 0.44005 0.0
O298 O 0.6223 0.4948 0.49866 0.0
O299 O 0.44253 0.14805 0.49058 0.0
Zn300 Zn 0.44989 0.16881 0.46012 0.0
O301 O 0.4831 0.17288 0.4471 0.0
Zn302 Zn 0.50966 0.21156 0.45012 0.0
Zn303 Zn 0.49578 0.15076 0.46305 0.0
Zn304 Zn 0.47728 0.16289 0.41441 0.0
O305 O 0.50825 0.23164 0.42009 0.0
O306 O 0.48643 0.19622 0.39519 0.0
O307 O 0.45374 0.20625 0.46692 0.0
O308 O 0.49795 0.22712 0.47656 0.0
O309 O 0.54719 0.21743 0.45962 0.0
O310 O 0.53269 0.17622 0.47641 0.0
O311 O 0.50694 0.13001 0.43919 0.0
O312 O 0.41923 0.14877 0.43709 0.0
O313 O 0.50328 0.14974 0.40599 0.0
O314 O 0.43704 0.13705 0.40688 0.0
C315 C 0.45189 0.13415 0.50106 0.0
C316 C 0.49777 0.22192 0.39969 0.0
C317 C 0.55147 0.20096 0.4723 0.0
C318 C 0.47488 0.22645 0.47644 0.0
C319 C 0.51303 0.13674 0.41732 0.0
C320 C 0.41651 0.13668 0.41722 0.0
O321 O 0.47134 0.13122 0.49197 0.0
O322 O 0.81858 0.27887 0.50173 0.0
Zn323 Zn 0.79292 0.26077 0.47442 0.0
O324 O 0.79639 0.28959 0.45352 0.0
Zn325 Zn 0.76091 0.28329 0.44394 0.0
Zn326 Zn 0.81715 0.32608 0.4671 0.0
Zn327 Zn 0.8147 0.28737 0.42598 0.0
O328 O 0.74782 0.26086 0.41348 0.0
O329 O 0.78709 0.26367 0.40156 0.0
O330 O 0.75408 0.23956 0.48843 0.0
O331 O 0.73469 0.26001 0.46847 0.0
O332 O 0.75975 0.31894 0.44449 0.0
O333 O 0.79126 0.34078 0.47275 0.0
O334 O 0.84314 0.35307 0.44199 0.0
O335 O 0.80402 0.23605 0.45669 0.0
O336 O 0.83695 0.32465 0.41196 0.0
O337 O 0.83564 0.26808 0.43299 0.0
C338 C 0.83308 0.30345 0.50969 0.0
C339 C 0.7614 0.2547 0.39891 0.0
C340 C 0.77138 0.33836 0.45981 0.0
C341 C 0.73383 0.24347 0.48437 0.0
C342 C 0.84653 0.34901 0.42017 0.0
C343 C 0.82402 0.24389 0.442 0.0
O344 O 0.83474 0.32431 0.49865 0.0
O345 O 0.8391 0.3295 0.69046 0.0
Zn346 Zn 0.83806 0.34113 0.72443 0.0
O347 O 0.8171 0.30924 0.74378 0.0
Zn348 Zn 0.78909 0.31119 0.76236 0.0
Zn349 Zn 0.80004 0.27662 0.72477 0.0
Zn350 Zn 0.84182 0.30568 0.76499 0.0
O351 O 0.80029 0.31919 0.79732 0.0
O352 O 0.84217 0.3238 0.79542 0.0
O353 O 0.82229 0.3668 0.72651 0.0
O354 O 0.78763 0.34471 0.75209 0.0
O355 O 0.75137 0.27754 0.75552 0.0
O356 O 0.76015 0.26508 0.72038 0.0
O357 O 0.79702 0.24468 0.74384 0.0
O358 O 0.87696 0.36089 0.73707 0.0
O359 O 0.82621 0.26593 0.77356 0.0
O360 O 0.88118 0.32706 0.7539 0.0
C361 C 0.83234 0.3061 0.68108 0.0
C362 C 0.82366 0.326 0.8067 0.0
C363 C 0.74308 0.26349 0.73625 0.0
C364 C 0.80212 0.3652 0.7385 0.0
C365 C 0.80678 0.24404 0.76417 0.0
C366 C 0.89176 0.35199 0.74665 0.0
O367 O 0.81903 0.28351 0.69274 0.0
O368 O 0.65337 0.50495 0.69095 0.0
Zn369 Zn 0.64272 0.49707 0.72559 0.0
O370 O 0.67587 0.51127 0.74401 0.0
Zn371 Zn 0.67534 0.48704 0.76788 0.0
Zn372 Zn 0.70836 0.52497 0.72509 0.0
Zn373 Zn 0.67951 0.54136 0.7611 0.0
O374 O 0.66115 0.4925 0.80013 0.0
O375 O 0.6555 0.52772 0.78984 0.0
O376 O 0.62005 0.45451 0.72985 0.0
O377 O 0.64741 0.45058 0.75655 0.0
O378 O 0.711 0.48551 0.76669 0.0
O379 O 0.72265 0.49899 0.72896 0.0
O380 O 0.7395 0.55987 0.73931 0.0
O381 O 0.62526 0.52088 0.73395 0.0
O382 O 0.71863 0.56181 0.77201 0.0
O383 O 0.66496 0.55994 0.74097 0.0
C384 C 0.67624 0.51827 0.67979 0.0
C385 C 0.65151 0.50862 0.80438 0.0
C386 C 0.72519 0.48799 0.74799 0.0
C387 C 0.62705 0.43973 0.74228 0.0
C388 C 0.7404 0.56569 0.76133 0.0
C389 C 0.63925 0.54735 0.73588 0.0
O390 O 0.69948 0.52839 0.69058 0.0
O391 O 0.47278 0.14156 0.68279 0.0
Zn392 Zn 0.48231 0.13872 0.71685 0.0
O393 O 0.47616 0.16371 0.7358 0.0
Zn394 Zn 0.50508 0.18355 0.75815 0.0
Zn395 Zn 0.46896 0.18806 0.71703 0.0
Zn396 Zn 0.44435 0.14192 0.75421 0.0
O397 O 0.49582 0.16744 0.79168 0.0
O398 O 0.45537 0.13021 0.78394 0.0
O399 O 0.52274 0.14828 0.71933 0.0
O400 O 0.53695 0.17955 0.74832 0.0
O401 O 0.51857 0.22411 0.75477 0.0
O402 O 0.50265 0.22607 0.71869 0.0
O403 O 0.44016 0.19438 0.73286 0.0
O404 O 0.45504 0.10004 0.72858 0.0
O405 O 0.42762 0.16512 0.7632 0.0
O406 O 0.42013 0.10706 0.73704 0.0
C407 C 0.46286 0.15498 0.67233 0.0
C408 C 0.47601 0.14364 0.7976 0.0
C409 C 0.51824 0.23773 0.73663 0.0
C410 C 0.5417 0.16546 0.73321 0.0
C411 C 0.42792 0.18555 0.75276 0.0
C412 C 0.42953 0.09069 0.7336 0.0
O413 O 0.45903 0.17293 0.68326 0.0
O414 O 0.63185 0.15185 0.18754 0.0
Zn415 Zn 0.62392 0.15415 0.22211 0.0
O416 O 0.65647 0.16166 0.24025 0.0
Zn417 Zn 0.67027 0.19382 0.26021 0.0
Zn418 Zn 0.68659 0.16829 0.21865 0.0
Zn419 Zn 0.64915 0.13071 0.26006 0.0
O420 O 0.6641 0.18372 0.29555 0.0
O421 O 0.6468 0.13827 0.29442 0.0
O422 O 0.61315 0.18362 0.22902 0.0
O423 O 0.64654 0.21041 0.25439 0.0
O424 O 0.70959 0.22265 0.2505 0.0
O425 O 0.7106 0.20876 0.21354 0.0
O426 O 0.71222 0.15845 0.23688 0.0
O427 O 0.59202 0.1153 0.22865 0.0
O428 O 0.67841 0.12163 0.25262 0.0
O429 O 0.61321 0.0991 0.25165 0.0
C430 C 0.64952 0.14807 0.17617 0.0
C431 C 0.65325 0.16026 0.30599 0.0
C432 C 0.7208 0.2268 0.22995 0.0
C433 C 0.62488 0.20482 0.24262 0.0
C434 C 0.70297 0.14164 0.25429 0.0
C435 C 0.59217 0.09572 0.24018 0.0
O436 O 0.67137 0.15083 0.18617 0.0
O437 O 0.84887 0.48977 0.18028 0.0
Zn438 Zn 0.85154 0.47805 0.21372 0.0
O439 O 0.82118 0.47507 0.23133 0.0
Zn440 Zn 0.79697 0.43866 0.24208 0.0
Zn441 Zn 0.79949 0.4857 0.21282 0.0
Zn442 Zn 0.83334 0.49739 0.25847 0.0
O443 O 0.80663 0.43367 0.27602 0.0
O444 O 0.83814 0.47683 0.28533 0.0
O445 O 0.84914 0.44019 0.212 0.0
O446 O 0.80473 0.414 0.22233 0.0
O447 O 0.75741 0.4299 0.23652 0.0
O448 O 0.76715 0.45084 0.20152 0.0
O449 O 0.78194 0.50265 0.23423 0.0
O450 O 0.88662 0.5094 0.22822 0.0
O451 O 0.80399 0.5055 0.26798 0.0
O452 O 0.86961 0.53005 0.25132 0.0
C453 C 0.83714 0.50227 0.17124 0.0
C454 C 0.82492 0.45113 0.29019 0.0
C455 C 0.74955 0.43445 0.21651 0.0
C456 C 0.82697 0.4167 0.21351 0.0
C457 C 0.78487 0.5067 0.25668 0.0
C458 C 0.88976 0.52999 0.24071 0.0
O459 O 0.81989 0.50628 0.18309 0.0
O460 O 0.49317 0.35448 0.17731 0.0
Zn461 Zn 0.50395 0.37583 0.20753 0.0
O462 O 0.49368 0.3503 0.23291 0.0
Zn463 Zn 0.52142 0.35978 0.25632 0.0
Zn464 Zn 0.48157 0.31347 0.22212 0.0
Zn465 Zn 0.46497 0.35149 0.2491 0.0
O466 O 0.51428 0.37513 0.28655 0.0
O467 O 0.48029 0.38163 0.27389 0.0
O468 O 0.54552 0.4011 0.20756 0.0
O469 O 0.55602 0.38914 0.24212 0.0
O470 O 0.52858 0.32815 0.26135 0.0
O471 O 0.5128 0.30572 0.22703 0.0
O472 O 0.45366 0.28746 0.24626 0.0
O473 O 0.48092 0.39463 0.20907 0.0
O474 O 0.44496 0.31615 0.26711 0.0
O475 O 0.44356 0.36045 0.22631 0.0
C476 C 0.47946 0.32916 0.17111 0.0
C477 C 0.49879 0.38572 0.28914 0.0
C478 C 0.52716 0.31062 0.24596 0.0
C479 C 0.56324 0.4033 0.22305 0.0
C480 C 0.44381 0.29287 0.26472 0.0
C481 C 0.45521 0.38287 0.21436 0.0
O482 O 0.47094 0.30963 0.18652 0.0
O483 O 0.45981 0.31349 0.982 0.0
Zn484 Zn 0.4589 0.3077 0.94658 0.0
O485 O 0.48612 0.34178 0.93254 0.0
Zn486 Zn 0.51159 0.33728 0.91333 0.0
Zn487 Zn 0.50719 0.36965 0.95563 0.0
Zn488 Zn 0.46834 0.35476 0.91171 0.0
O489 O 0.49895 0.32947 0.87938 0.0
O490 O 0.46326 0.33664 0.87969 0.0
O491 O 0.46929 0.27745 0.94108 0.0
O492 O 0.51002 0.30295 0.92337 0.0
O493 O 0.55072 0.3679 0.91884 0.0
O494 O 0.54541 0.37532 0.95685 0.0
O495 O 0.51588 0.40712 0.94271 0.0
O496 O 0.42071 0.29948 0.93494 0.0
O497 O 0.49309 0.39577 0.90827 0.0
O498 O 0.43027 0.34179 0.92372 0.0
C499 C 0.47221 0.33385 0.9963 0.0
C500 C 0.47795 0.32825 0.86928 0.0
C501 C 0.56088 0.37831 0.93912 0.0
C502 C 0.49195 0.28037 0.93274 0.0
C503 C 0.51112 0.41375 0.92222 0.0
C504 C 0.4129 0.31675 0.92913 0.0
O505 O 0.49013 0.35794 0.98882 0.0
O506 O 0.65482 0.14253 0.99244 0.0
Zn507 Zn 0.66625 0.15049 0.95751 0.0
O508 O 0.63521 0.14677 0.93958 0.0
Zn509 Zn 0.64411 0.18049 0.92377 0.0
Zn510 Zn 0.60342 0.13668 0.95879 0.0
Zn511 Zn 0.62526 0.1188 0.91601 0.0
O512 O 0.65822 0.18004 0.89058 0.0
O513 O 0.64726 0.13606 0.88652 0.0
O514 O 0.69882 0.19033 0.95397 0.0
O515 O 0.67675 0.21139 0.93974 0.0
O516 O 0.61176 0.18765 0.92571 0.0
O517 O 0.59633 0.16829 0.9611 0.0
O518 O 0.56849 0.10889 0.94188 0.0
O519 O 0.67519 0.12089 0.94598 0.0
O520 O 0.58505 0.10205 0.9082 0.0
O521 O 0.63629 0.09173 0.92687 0.0
C522 C 0.63139 0.13185 1.00296 0.0
C523 C 0.659 0.16082 0.87887 0.0
C524 C 0.59636 0.18319 0.94392 0.0
C525 C 0.69814 0.21229 0.94864 0.0
C526 C 0.56489 0.09947 0.92072 0.0
C527 C 0.65941 0.09746 0.93612 0.0
O528 O 0.60932 0.12646 0.99177 0.0
O529 O 0.83257 0.51166 0.98374 0.0
Zn530 Zn 0.8228 0.50934 0.94932 0.0
O531 O 0.83349 0.48613 0.93378 0.0
Zn532 Zn 0.80459 0.45935 0.91415 0.0
Zn533 Zn 0.84283 0.4659 0.95598 0.0
Zn534 Zn 0.8639 0.5091 0.91348 0.0
O535 O 0.80779 0.47371 0.88082 0.0
O536 O 0.84925 0.51144 0.88128 0.0
O537 O 0.78149 0.49338 0.94664 0.0
O538 O 0.76893 0.45502 0.92567 0.0
O539 O 0.80294 0.42238 0.91676 0.0
O540 O 0.81331 0.42519 0.95529 0.0
O541 O 0.87567 0.46435 0.94279 0.0
O542 O 0.8445 0.54748 0.93534 0.0
O543 O 0.88498 0.48906 0.90952 0.0
O544 O 0.88364 0.54893 0.9246 0.0
C545 C 0.84228 0.50036 0.9974 0.0
C546 C 0.82645 0.49565 0.87086 0.0
C547 C 0.80368 0.41104 0.93626 0.0
C548 C 0.76286 0.47083 0.93736 0.0
C549 C 0.88657 0.47084 0.92211 0.0
C550 C 0.8697 0.56103 0.92859 0.0
O551 O 0.84795 0.4822 0.98957 0.0
O552 O 0.34359 0.84952 0.84268 0.0
Zn553 Zn 0.35842 0.85747 0.80911 0.0
O554 O 0.33003 0.83279 0.78776 0.0
Zn555 Zn 0.34298 0.81625 0.76585 0.0
Zn556 Zn 0.30014 0.80364 0.80457 0.0
Zn557 Zn 0.31694 0.85225 0.76903 0.0
O558 O 0.35616 0.83812 0.73573 0.0
O559 O 0.34011 0.86722 0.7391 0.0
O560 O 0.3912 0.85032 0.80797 0.0
O561 O 0.37607 0.81834 0.77948 0.0
O562 O 0.31503 0.7759 0.76252 0.0
O563 O 0.30152 0.7687 0.80032 0.0
O564 O 0.2647 0.79389 0.7879 0.0
O565 O 0.36623 0.89623 0.80046 0.0
O566 O 0.27707 0.82621 0.75995 0.0
O567 O 0.32409 0.88539 0.78767 0.0
C568 C 0.32056 0.83189 0.85193 0.0
C569 C 0.35449 0.85875 0.72821 0.0
C570 C 0.30287 0.75948 0.77988 0.0
C571 C 0.39379 0.83277 0.79519 0.0
C572 C 0.25912 0.80353 0.76951 0.0
C573 C 0.34826 0.90318 0.79484 0.0
O574 O 0.30105 0.81328 0.83937 0.0
O575 O 0.15048 0.49903 0.83508 0.0
Zn576 Zn 0.14464 0.50448 0.79982 0.0
O577 O 0.15963 0.48746 0.77991 0.0
Zn578 Zn 0.18421 0.50978 0.75552 0.0
Zn579 Zn 0.17895 0.47398 0.79832 0.0
Zn580 Zn 0.13178 0.45818 0.76212 0.0
O581 O 0.16606 0.50481 0.7232 0.0
O582 O 0.12341 0.47244 0.73214 0.0
O583 O 0.16374 0.54596 0.79094 0.0
O584 O 0.19344 0.54741 0.76351 0.0
O585 O 0.21939 0.50763 0.75588 0.0
O586 O 0.21948 0.4999 0.79469 0.0
O587 O 0.17518 0.43958 0.78273 0.0
O588 O 0.1031 0.48262 0.79362 0.0
O589 O 0.1492 0.43604 0.75159 0.0
O590 O 0.09704 0.44187 0.78103 0.0
C591 C 0.15866 0.48393 0.84535 0.0
C592 C 0.14048 0.49069 0.7179 0.0
C593 C 0.23185 0.50691 0.77469 0.0
C594 C 0.18358 0.55929 0.77621 0.0
C595 C 0.16773 0.43223 0.76124 0.0
C596 C 0.08732 0.45692 0.78866 0.0
O597 O 0.16836 0.4712 0.83329 0.0
O598 O 0.49126 0.63645 0.84216 0.0
Zn599 Zn 0.48661 0.6305 0.80685 0.0
O600 O 0.49207 0.66364 0.79317 0.0
Zn601 Zn 0.46373 0.65986 0.77178 0.0
Zn602 Zn 0.4979 0.69137 0.81583 0.0
Zn603 Zn 0.52351 0.67682 0.77432 0.0
O604 O 0.47246 0.65513 0.73708 0.0
O605 O 0.51223 0.65643 0.74366 0.0
O606 O 0.44767 0.59982 0.79863 0.0
O607 O 0.43093 0.62331 0.77906 0.0
O608 O 0.45605 0.6915 0.77881 0.0
O609 O 0.46258 0.69162 0.81775 0.0
O610 O 0.52289 0.72951 0.80042 0.0
O611 O 0.51683 0.6235 0.79447 0.0
O612 O 0.53616 0.71625 0.76804 0.0
O613 O 0.54988 0.66699 0.78831 0.0
C614 C 0.49958 0.65682 0.85655 0.0
C615 C 0.49171 0.65063 0.73026 0.0
C616 C 0.45437 0.69948 0.79981 0.0
C617 C 0.42793 0.60113 0.78834 0.0
C618 C 0.5334 0.73444 0.7795 0.0
C619 C 0.5421 0.64134 0.7901 0.0
O620 O 0.50555 0.68098 0.84921 0.0
O621 O 0.49879 0.66189 0.04119 0.0
Zn622 Zn 0.50489 0.67494 0.07533 0.0
O623 O 0.48771 0.64462 0.09734 0.0
Zn624 Zn 0.46123 0.64757 0.1175 0.0
Zn625 Zn 0.47063 0.61012 0.07988 0.0
Zn626 Zn 0.51599 0.64546 0.11826 0.0
O627 O 0.47749 0.66318 0.15028 0.0
O628 O 0.51904 0.66711 0.14804 0.0
O629 O 0.48946 0.70033 0.07922 0.0
O630 O 0.45468 0.6769 0.10441 0.0
O631 O 0.42424 0.61148 0.11693 0.0
O632 O 0.43012 0.5894 0.08643 0.0
O633 O 0.48648 0.58824 0.09397 0.0
O634 O 0.5458 0.69485 0.08047 0.0
O635 O 0.50389 0.60644 0.12847 0.0
O636 O 0.55279 0.66537 0.10213 0.0
C637 C 0.48873 0.63812 0.03154 0.0
C638 C 0.50159 0.67159 0.15886 0.0
C639 C 0.4148 0.59119 0.1023 0.0
C640 C 0.4684 0.69735 0.0906 0.0
C641 C 0.48602 0.58588 0.11651 0.0
C642 C 0.56185 0.68713 0.08942 0.0
O643 O 0.47802 0.61613 0.04416 0.0
O644 O 0.31048 0.83686 0.04099 0.0
Zn645 Zn 0.30532 0.83508 0.07621 0.0
O646 O 0.33924 0.84372 0.09069 0.0
Zn647 Zn 0.33555 0.81725 0.11382 0.0
Zn648 Zn 0.36646 0.8489 0.06793 0.0
Zn649 Zn 0.352 0.87666 0.1076 0.0
O650 O 0.32795 0.82697 0.147 0.0
O651 O 0.33134 0.86736 0.13841 0.0
O652 O 0.27594 0.79529 0.08395 0.0
O653 O 0.30146 0.78313 0.1057 0.0
O654 O 0.36622 0.80831 0.10919 0.0
O655 O 0.37093 0.81599 0.07003 0.0
O656 O 0.40394 0.87866 0.07941 0.0
O657 O 0.29735 0.86575 0.0844 0.0
O658 O 0.39268 0.89264 0.11254 0.0
O659 O 0.34068 0.89997 0.09016 0.0
C660 C 0.33058 0.84444 0.02654 0.0
C661 C 0.32386 0.8469 0.15238 0.0
C662 C 0.37514 0.80591 0.08885 0.0
C663 C 0.27916 0.77697 0.09483 0.0
C664 C 0.41063 0.89156 0.09924 0.0
C665 C 0.31527 0.89155 0.08592 0.0
O666 O 0.35499 0.85197 0.03399 0.0
O667 O 0.15779 0.48061 0.0355 0.0
Zn668 Zn 0.15873 0.47575 0.07094 0.0
O669 O 0.15128 0.50175 0.08604 0.0
Zn670 Zn 0.17849 0.52443 0.10909 0.0
Zn671 Zn 0.14676 0.52487 0.06356 0.0
Zn672 Zn 0.11828 0.48207 0.10354 0.0
O673 O 0.1675 0.509 0.14294 0.0
O674 O 0.12771 0.47126 0.13455 0.0
O675 O 0.19715 0.4829 0.08095 0.0
O676 O 0.21149 0.52092 0.10294 0.0
O677 O 0.18887 0.56461 0.10373 0.0
O678 O 0.18079 0.56171 0.0647 0.0
O679 O 0.11918 0.53507 0.07748 0.0
O680 O 0.12663 0.43706 0.07771 0.0
O681 O 0.10329 0.50769 0.10929 0.0
O682 O 0.0935 0.44677 0.0869 0.0
C683 C 0.14979 0.49301 0.02121 0.0
C684 C 0.14771 0.4851 0.14875 0.0
C685 C 0.19085 0.57603 0.08351 0.0
C686 C 0.21594 0.503 0.093 0.0
C687 C 0.10587 0.52816 0.09717 0.0
C688 C 0.10108 0.42955 0.08073 0.0
O689 O 0.14219 0.50981 0.02902 0.0
O690 O 0.31916 0.48633 0.52727 0.0
Zn691 Zn 0.30765 0.48178 0.56168 0.0
O692 O 0.33831 0.50423 0.58164 0.0
Zn693 Zn 0.33208 0.52906 0.60027 0.0
Zn694 Zn 0.37032 0.5246 0.56233 0.0
Zn695 Zn 0.34557 0.48268 0.60368 0.0
O696 O 0.3192 0.51436 0.63365 0.0
O697 O 0.32332 0.47677 0.63371 0.0
O698 O 0.27727 0.49151 0.56502 0.0
O699 O 0.29964 0.52949 0.58715 0.0
O700 O 0.36492 0.56765 0.59723 0.0
O701 O 0.37778 0.56317 0.56071 0.0
O702 O 0.40415 0.53063 0.58029 0.0
O703 O 0.29591 0.44269 0.56997 0.0
O704 O 0.38584 0.50432 0.61235 0.0
O705 O 0.33228 0.44545 0.58929 0.0
C706 C 0.34247 0.49607 0.51686 0.0
C707 C 0.31511 0.49201 0.64347 0.0
C708 C 0.37899 0.57816 0.57828 0.0
C709 C 0.27868 0.51272 0.575 0.0
C710 C 0.4066 0.52306 0.60112 0.0
C711 C 0.30925 0.43153 0.57846 0.0
O712 O 0.36513 0.50938 0.52844 0.0
O713 O 0.5132 0.85016 0.53686 0.0
Zn714 Zn 0.51445 0.83951 0.57091 0.0
O715 O 0.49445 0.85078 0.59193 0.0
Zn716 Zn 0.4657 0.81967 0.60912 0.0
Zn717 Zn 0.47799 0.8677 0.57281 0.0
Zn718 Zn 0.51859 0.87651 0.61585 0.0
O719 O 0.47444 0.81883 0.64398 0.0
O720 O 0.51456 0.85769 0.64751 0.0
O721 O 0.49892 0.79822 0.57209 0.0
O722 O 0.46368 0.78565 0.59688 0.0
O723 O 0.42827 0.81531 0.60276 0.0
O724 O 0.43705 0.84135 0.57039 0.0
O725 O 0.47951 0.89963 0.59111 0.0
O726 O 0.55391 0.85866 0.58129 0.0
O727 O 0.50691 0.90467 0.62168 0.0
O728 O 0.55838 0.89065 0.60761 0.0
C729 C 0.50543 0.86565 0.52691 0.0
C730 C 0.49563 0.83508 0.65621 0.0
C731 C 0.42001 0.82337 0.58492 0.0
C732 C 0.47799 0.77961 0.5832 0.0
C733 C 0.49018 0.91047 0.61115 0.0
C734 C 0.56867 0.87904 0.59494 0.0
O735 O 0.4935 0.87628 0.53884 0.0
O736 O 0.14364 0.67993 0.53236 0.0
Zn737 Zn 0.15795 0.6883 0.56552 0.0
O738 O 0.14681 0.6547 0.58163 0.0
Zn739 Zn 0.17617 0.65651 0.60071 0.0
Zn740 Zn 0.13227 0.6236 0.5605 0.0
Zn741 Zn 0.11822 0.64966 0.60289 0.0
O742 O 0.17407 0.66659 0.63546 0.0
O743 O 0.13535 0.66825 0.63311 0.0
O744 O 0.19975 0.71226 0.56534 0.0
O745 O 0.21163 0.68798 0.58898 0.0
O746 O 0.17808 0.62183 0.59487 0.0
O747 O 0.16041 0.61151 0.55818 0.0
O748 O 0.10147 0.5901 0.57778 0.0
O749 O 0.14081 0.70695 0.58319 0.0
O750 O 0.09584 0.60952 0.61026 0.0
O751 O 0.10019 0.67123 0.59341 0.0
C752 C 0.13095 0.65846 0.51932 0.0
C753 C 0.15697 0.67302 0.64434 0.0
C754 C 0.17359 0.60841 0.57536 0.0
C755 C 0.21816 0.70878 0.57564 0.0
C756 C 0.09278 0.58826 0.59912 0.0
C757 C 0.1167 0.6973 0.59211 0.0
O758 O 0.12428 0.63432 0.52722 0.0
O759 O 0.13291 0.66193 0.33513 0.0
Zn760 Zn 0.13129 0.65243 0.30027 0.0
O761 O 0.15551 0.68444 0.28227 0.0
Zn762 Zn 0.18047 0.6795 0.26227 0.0
Zn763 Zn 0.17556 0.71499 0.30287 0.0
Zn764 Zn 0.13481 0.69344 0.26125 0.0
O765 O 0.16653 0.66969 0.22777 0.0
O766 O 0.12743 0.67053 0.23173 0.0
O767 O 0.14238 0.62301 0.29691 0.0
O768 O 0.17931 0.64564 0.27366 0.0
O769 O 0.21986 0.71086 0.26798 0.0
O770 O 0.21386 0.72152 0.30493 0.0
O771 O 0.1824 0.75 0.28658 0.0
O772 O 0.09293 0.64056 0.28859 0.0
O773 O 0.15834 0.73404 0.25307 0.0
O774 O 0.09745 0.68036 0.27522 0.0
C775 C 0.14343 0.68472 0.34653 0.0
C776 C 0.14267 0.66377 0.22 0.0
C777 C 0.22963 0.72307 0.28788 0.0
C778 C 0.1633 0.62467 0.28616 0.0
C779 C 0.17671 0.75391 0.26546 0.0
C780 C 0.08244 0.65514 0.28155 0.0
O781 O 0.15879 0.70787 0.33616 0.0
O782 O 0.33636 0.49063 0.32921 0.0
Zn783 Zn 0.34267 0.50398 0.29555 0.0
O784 O 0.3084 0.49507 0.2813 0.0
Zn785 Zn 0.31157 0.52645 0.26489 0.0
Zn786 Zn 0.27935 0.48279 0.30457 0.0
Zn787 Zn 0.29958 0.46683 0.25779 0.0
O788 O 0.32061 0.52647 0.23026 0.0
O789 O 0.31471 0.48439 0.22597 0.0
O790 O 0.36904 0.5453 0.29587 0.0
O791 O 0.34413 0.56026 0.27685 0.0
O792 O 0.27843 0.53001 0.27167 0.0
O793 O 0.26805 0.51162 0.30802 0.0
O794 O 0.24421 0.45192 0.28989 0.0
O795 O 0.35845 0.48525 0.27614 0.0
O796 O 0.2583 0.44431 0.25503 0.0
O797 O 0.32075 0.44713 0.26378 0.0
C798 C 0.31599 0.48045 0.34361 0.0
C799 C 0.32227 0.50834 0.21773 0.0
C800 C 0.26536 0.52556 0.29129 0.0
C801 C 0.3659 0.56493 0.2879 0.0
C802 C 0.23902 0.44121 0.26909 0.0
C803 C 0.34699 0.46167 0.26596 0.0
O804 O 0.29196 0.47558 0.33707 0.0
O805 O 0.50168 0.86368 0.33925 0.0
Zn806 Zn 0.49145 0.86161 0.305 0.0
O807 O 0.50302 0.83966 0.28854 0.0
Zn808 Zn 0.47546 0.81384 0.26692 0.0
Zn809 Zn 0.51453 0.82066 0.3101 0.0
Zn810 Zn 0.53351 0.86315 0.26927 0.0
O811 O 0.48108 0.82805 0.23243 0.0
O812 O 0.51965 0.86775 0.23841 0.0
O813 O 0.44987 0.84479 0.30173 0.0
O814 O 0.43959 0.81011 0.27661 0.0
O815 O 0.4718 0.77633 0.27206 0.0
O816 O 0.48492 0.78103 0.31013 0.0
O817 O 0.54539 0.81676 0.29444 0.0
O818 O 0.51269 0.89978 0.29131 0.0
O819 O 0.55321 0.84236 0.26197 0.0
O820 O 0.55244 0.90219 0.28099 0.0
C821 C 0.51323 0.85389 0.35254 0.0
C822 C 0.49933 0.85206 0.22529 0.0
C823 C 0.47358 0.76599 0.29184 0.0
C824 C 0.43223 0.82375 0.28992 0.0
C825 C 0.55432 0.82303 0.27312 0.0
C826 C 0.53777 0.91365 0.28434 0.0
O827 O 0.52065 0.83713 0.34428 0.0
H828 H 0.02633 0.20011 0.01014 0.0
H829 H 0.95434 0.15186 0.96605 0.0
H830 H 0.98325 0.17173 0.9298 0.0
H831 H 0.06273 0.26166 0.97062 0.0
H832 H 0.09602 0.26553 0.9775 0.0
H833 H 0.0688 0.25152 0.99943 0.0
H834 H 0.07334 0.20755 1.00326 0.0
H835 H 0.10085 0.22174 0.98183 0.0
H836 H 0.07101 0.1881 0.97687 0.0
H837 H 0.02136 0.19219 0.89902 0.0
H838 H 0.06438 0.2058 0.87706 0.0
H839 H 0.11164 0.24042 0.94178 0.0
C840 C 0.01667 0.1942 0.99278 0.0
C841 C 0.98831 0.1748 0.99059 0.0
C842 C 0.97613 0.16688 0.96784 0.0
C843 C -0.00765 0.17823 0.94729 0.0
C844 C 0.02056 0.19723 0.95001 0.0
C845 C 0.03257 0.20499 0.97227 0.0
C846 C 0.06367 0.2228 0.97069 0.0
C847 C 0.07337 0.25212 0.98012 0.0
C848 C 0.07804 0.20923 0.98392 0.0
C849 C 0.06761 0.22297 0.94406 0.0
C850 C 0.04249 0.20878 0.93235 0.0
C851 C 0.04109 0.20378 0.90796 0.0
C852 C 0.06581 0.21183 0.89555 0.0
C853 C 0.09157 0.2242 0.90768 0.0
C854 C 0.09242 0.23136 0.9319 0.0
H855 H 0.84209 0.86377 0.99737 0.0
H856 H 0.78188 0.77681 0.9879 0.0
H857 H 0.76034 0.78877 0.95499 0.0
H858 H 0.79635 0.88724 0.99149 0.0
H859 H 0.81946 0.91877 0.97601 0.0
H860 H 0.83322 0.90319 0.99562 0.0
H861 H 0.8634 0.90106 0.9615 0.0
H862 H 0.8502 0.91735 0.94195 0.0
H863 H 0.84735 0.88478 0.93371 0.0
H864 H 0.74269 0.81138 0.92504 0.0
H865 H 0.73112 0.84264 0.90215 0.0
H866 H 0.80145 0.91362 0.93403 0.0
C867 C 0.82498 0.84712 0.98788 0.0
C868 C 0.81388 0.81935 0.99507 0.0
C869 C 0.7909 0.79826 0.98259 0.0
C870 C 0.77851 0.80485 0.96385 0.0
C871 C 0.78931 0.83261 0.95783 0.0
C872 C 0.81218 0.85335 0.96945 0.0
C873 C 0.81828 0.88169 0.96145 0.0
C874 C 0.81671 0.8987 0.98239 0.0
C875 C 0.84648 0.89712 0.94889 0.0
C876 C 0.79484 0.87373 0.94411 0.0
C877 C 0.77854 0.84541 0.94174 0.0
C878 C 0.75539 0.83361 0.92674 0.0
C879 C 0.74885 0.85136 0.91392 0.0
C880 C 0.76504 0.88033 0.91686 0.0
C881 C 0.78838 0.89144 0.9319 0.0
H882 H 0.11503 0.96092 0.01195 0.0
H883 H 0.20159 -0.00112 0.99253 0.0
H884 H 0.18983 0.96208 0.9624 0.0
H885 H 0.10172 0.89294 0.01054 0.0
H886 H 0.06706 0.87846 0.99904 0.0
H887 H 0.08182 0.90967 0.01649 0.0
H888 H 0.07271 0.9354 0.98234 0.0
H889 H 0.05729 0.90401 0.96509 0.0
H890 H 0.08546 0.93531 0.95288 0.0
H891 H 0.16722 0.92017 0.93367 0.0
H892 H 0.13646 0.87735 0.91082 0.0
H893 H 0.06722 0.86523 0.9545 0.0
C894 C 0.13145 0.96202 1.00088 0.0
C895 C 0.15914 0.98306 1.00417 0.0
C896 C 0.18016 0.98313 0.98997 0.0
C897 C 0.17368 0.96226 0.97292 0.0
C898 C 0.14619 0.94123 0.9707 0.0
C899 C 0.12548 0.94104 0.9844 0.0
C900 C 0.0979 0.91537 0.98004 0.0
C901 C 0.08648 0.8981 1.00289 0.0
C902 C 0.07712 0.92298 0.96945 0.0
C903 C 0.10631 0.90086 0.96198 0.0
C904 C 0.13404 0.91621 0.95628 0.0
C905 C 0.1456 0.90771 0.93838 0.0
C906 C 0.12814 0.88327 0.92565 0.0
C907 C 0.09976 0.86728 0.93154 0.0
C908 C 0.08909 0.87613 0.95028 0.0
H909 H 0.1894 0.0596 0.45659 0.0
H910 H 0.13676 0.97959 0.4891 0.0
H911 H 0.13738 0.00302 0.52692 0.0
H912 H 0.23042 0.09657 0.50898 0.0
H913 H 0.23038 0.12792 0.50127 0.0
H914 H 0.2289 0.10476 0.47819 0.0
H915 H 0.18401 0.10155 0.46166 0.0
H916 H 0.18549 0.12482 0.4845 0.0
H917 H 0.1549 0.09134 0.48125 0.0
H918 H 0.14308 0.03588 0.56062 0.0
H919 H 0.14504 0.07398 0.58467 0.0
H920 H 0.19166 0.13211 0.52847 0.0
C921 C 0.17848 0.04695 0.47183 0.0
C922 C 0.16343 0.0178 0.47016 0.0
C923 C 0.14858 0.00196 0.49016 0.0
C924 C 0.14903 0.0151 0.5117 0.0
C925 C 0.16416 0.044 0.51271 0.0
C926 C 0.17823 0.05968 0.49312 0.0
C927 C 0.19007 0.09029 0.49766 0.0
C928 C 0.22183 0.10579 0.49646 0.0
C929 C 0.17788 0.10271 0.48025 0.0
C930 C 0.18007 0.08952 0.52279 0.0
C931 C 0.16583 0.06274 0.53143 0.0
C932 C 0.15398 0.05689 0.55401 0.0
C933 C 0.15549 0.07875 0.56763 0.0
C934 C 0.16853 0.10609 0.55846 0.0
C935 C 0.18167 0.11151 0.53604 0.0
H936 H 0.86179 0.06894 0.56038 0.0
H937 H 0.77993 0.02762 0.5294 0.0
H938 H 0.79813 0.05716 0.49366 0.0
H939 H 0.89237 0.13876 0.52806 0.0
H940 H 0.92444 0.13907 0.52343 0.0
H941 H 0.90453 0.12388 0.55011 0.0
H942 H 0.90332 0.07791 0.54132 0.0
H943 H 0.92311 0.09198 0.51465 0.0
H944 H 0.88999 0.06071 0.51328 0.0
H945 H 0.82658 0.08292 0.45825 0.0
H946 H 0.86198 0.09968 0.42638 0.0
H947 H 0.92558 0.11748 0.47872 0.0
C948 C 0.84738 0.06756 0.5468 0.0
C949 C 0.81932 0.04677 0.54791 0.0
C950 C 0.80131 0.04411 0.52914 0.0
C951 C 0.81157 0.06074 0.50874 0.0
C952 C 0.83994 0.07946 0.50728 0.0
C953 C 0.8576 0.08293 0.52593 0.0
C954 C 0.88757 0.09855 0.51812 0.0
C955 C 0.90316 0.12673 0.53069 0.0
C956 C 0.90183 0.08126 0.52206 0.0
C957 C 0.88408 0.10204 0.49197 0.0
C958 C 0.85658 0.09198 0.48619 0.0
C959 C 0.84818 0.09127 0.4627 0.0
C960 C 0.86831 0.10065 0.44474 0.0
C961 C 0.89622 0.10963 0.45036 0.0
C962 C 0.90427 0.11074 0.4742 0.0
H963 H 0.95856 0.77334 0.54396 0.0
H964 H 0.04075 0.79469 0.51984 0.0
H965 H 0.02903 0.80272 0.47942 0.0
H966 H 0.92062 0.74163 0.48708 0.0
H967 H 0.89874 0.75648 0.49155 0.0
H968 H 0.91191 0.74678 0.51681 0.0
H969 H 0.93242 0.79662 0.53338 0.0
H970 H 0.92026 0.80682 0.50785 0.0
H971 H 0.95646 0.82548 0.51547 0.0
H972 H 0.01068 0.81652 0.44311 0.0
H973 H 0.985 0.82812 0.41349 0.0
H974 H 0.91612 0.7989 0.46276 0.0
C975 C 0.97373 0.77836 0.53002 0.0
C976 C 0.00057 0.78321 0.53527 0.0
C977 C 0.01992 0.79051 0.51637 0.0
C978 C 0.01355 0.79544 0.49332 0.0
C979 C 0.98763 0.79269 0.48931 0.0
C980 C 0.96783 0.78367 0.50706 0.0
C981 C 0.94255 0.78484 0.49911 0.0
C982 C 0.91694 0.7557 0.4986 0.0
C983 C 0.93766 0.80461 0.51488 0.0
C984 C 0.95133 0.79635 0.47428 0.0
C985 C 0.97734 0.80076 0.46878 0.0
C986 C 0.99006 0.81262 0.4471 0.0
C987 C 0.97544 0.81935 0.43045 0.0
C988 C 0.94842 0.81425 0.43562 0.0
C989 C 0.9366 0.8029 0.45801 0.0
H990 H 0.88777 0.7416 0.05547 0.0
H991 H 0.84942 0.78968 0.0375 0.0
H992 H 0.88887 0.82052 0.01259 0.0
H993 H 0.96129 0.79885 0.05427 0.0
H994 H 0.97341 0.77833 0.03932 0.0
H995 H 0.94377 0.76192 0.05876 0.0
H996 H 0.91468 0.72922 0.02426 0.0
H997 H 0.94436 0.74563 0.005 0.0
H998 H 0.91248 0.74404 0.99641 0.0
H999 H 0.93302 0.84844 0.99322 0.0
H1000 H 0.97164 0.86205 0.96568 0.0
H1001 H 0.98048 0.79274 0.98964 0.0
C1002 C 0.88814 0.75905 0.04667 0.0
C1003 C 0.86562 0.76392 0.04883 0.0
C1004 C 0.86628 0.78595 0.03611 0.0
C1005 C 0.88886 0.80371 0.02221 0.0
C1006 C 0.91115 0.79932 0.02126 0.0
C1007 C 0.91071 0.77691 0.03216 0.0
C1008 C 0.93552 0.77453 0.02425 0.0
C1009 C 0.95462 0.77864 0.04542 0.0
C1010 C 0.9262 0.74671 0.01173 0.0
C1011 C 0.94926 0.79875 0.00698 0.0
C1012 C 0.93549 0.81352 0.0068 0.0
C1013 C 0.9439 0.83692 0.99284 0.0
C1014 C 0.96604 0.84458 0.97734 0.0
C1015 C 0.97888 0.82826 0.97526 0.0
C1016 C 0.97097 0.80553 0.99085 0.0
H1017 H 0.13743 0.12061 0.97034 0.0
H1018 H 0.18681 0.20866 0.98453 0.0
H1019 H 0.20981 0.19884 0.01788 0.0
H1020 H 0.1307 0.09581 0.03115 0.0
H1021 H 0.13393 0.06648 0.02225 0.0
H1022 H 0.11873 0.08041 1.00226 0.0
H1023 H 0.15437 0.08707 0.9698 0.0
H1024 H 0.17002 0.07334 0.98939 0.0
H1025 H 0.1908 0.10715 0.9764 0.0
H1026 H 0.2289 0.1778 0.04924 0.0
H1027 H 0.24234 0.14841 0.07289 0.0
H1028 H 0.1831 0.07654 0.03299 0.0
C1029 C 0.15247 0.13793 0.98082 0.0
C1030 C 0.16003 0.16538 0.97501 0.0
C1031 C 0.18044 0.18738 0.98887 0.0
C1032 C 0.19366 0.182 0.00778 0.0
C1033 C 0.18643 0.15458 0.01232 0.0
C1034 C 0.16626 0.13302 0.99908 0.0
C1035 C 0.16377 0.10566 0.00547 0.0
C1036 C 0.13507 0.08589 0.01591 0.0
C1037 C 0.17014 0.09257 0.98399 0.0
C1038 C 0.18599 0.11508 0.02414 0.0
C1039 C 0.19862 0.14317 0.02844 0.0
C1040 C 0.21928 0.15582 0.04577 0.0
C1041 C 0.22695 0.13914 0.05898 0.0
C1042 C 0.21455 0.11051 0.05406 0.0
C1043 C 0.19383 0.09861 0.03649 0.0
H1044 H 0.84266 0.04437 0.95204 0.0
H1045 H 0.79105 0.97316 0.99593 0.0
H1046 H 0.79786 0.00438 0.0301 0.0
H1047 H 0.8917 0.08488 0.99455 0.0
H1048 H 0.89526 0.11703 0.98406 0.0
H1049 H 0.88461 0.08853 0.96388 0.0
H1050 H 0.84088 0.09166 0.9536 0.0
H1051 H 0.85105 0.11966 0.97448 0.0
H1052 H 0.81757 0.08893 0.97702 0.0
H1053 H 0.81569 0.04364 0.0602 0.0
H1054 H 0.84467 0.08594 0.08351 0.0
H1055 H 0.8788 0.1315 0.01796 0.0
C1056 C 0.83294 0.03544 0.96894 0.0
C1057 C 0.81697 0.00659 0.97182 0.0
C1058 C 0.80381 -0.00464 0.99377 0.0
C1059 C 0.8073 0.01291 0.01306 0.0
C1060 C 0.8231 0.0415 0.00961 0.0
C1061 C 0.83549 0.0526 0.98798 0.0
C1062 C 0.85221 0.08379 0.98885 0.0
C1063 C 0.88273 0.09415 0.98249 0.0
C1064 C 0.83966 0.09677 0.97252 0.0
C1065 C 0.84868 0.08861 0.01478 0.0
C1066 C 0.83157 0.06405 0.02647 0.0
C1067 C 0.82857 0.06306 0.05115 0.0
C1068 C 0.84498 0.08732 0.06429 0.0
C1069 C 0.86421 0.11215 0.05265 0.0
C1070 C 0.86417 0.11309 0.02751 0.0
H1071 H 0.87979 0.87301 0.4436 0.0
H1072 H 0.81458 0.8621 0.39513 0.0
H1073 H 0.80725 0.8953 0.41907 0.0
H1074 H 0.84846 0.87533 0.49589 0.0
H1075 H 0.87946 0.90147 0.51016 0.0
H1076 H 0.88157 0.8792 0.48814 0.0
H1077 H 0.91608 0.92158 0.46306 0.0
H1078 H 0.91488 0.94396 0.48562 0.0
H1079 H 0.90729 0.94756 0.45512 0.0
H1080 H 0.80342 0.92494 0.45138 0.0
H1081 H 0.80454 0.94984 0.4882 0.0
H1082 H 0.87455 0.94355 0.51353 0.0
C1083 C 0.86399 0.87763 0.4379 0.0
C1084 C 0.84742 0.86468 0.41771 0.0
C1085 C 0.82735 0.87167 0.41064 0.0
C1086 C 0.82316 0.89057 0.42406 0.0
C1087 C 0.83969 0.90269 0.44408 0.0
C1088 C 0.85995 0.8967 0.45075 0.0
C1089 C 0.87422 0.91145 0.47348 0.0
C1090 C 0.8707 0.89062 0.49306 0.0
C1091 C 0.90494 0.93238 0.46903 0.0
C1092 C 0.85817 0.92596 0.47915 0.0
C1093 C 0.8384 0.92077 0.46196 0.0
C1094 C 0.81924 0.92968 0.46463 0.0
C1095 C 0.82 0.94375 0.48558 0.0
C1096 C 0.83995 0.949 0.50342 0.0
C1097 C 0.85965 0.94056 0.49984 0.0
H1098 H 0.072 0.87248 0.50446 0.0
H1099 H 0.13811 0.89408 0.55535 0.0
H1100 H 0.17166 0.90705 0.52241 0.0
H1101 H 0.09607 0.84303 0.46145 0.0
H1102 H 0.08904 0.85659 0.43519 0.0
H1103 H 0.06746 0.84946 0.46113 0.0
H1104 H 0.07553 0.89793 0.46562 0.0
H1105 H 0.09602 0.90924 0.43903 0.0
H1106 H 0.11019 0.92718 0.46636 0.0
H1107 H 0.19858 0.92212 0.48392 0.0
H1108 H 0.21642 0.94131 0.44397 0.0
H1109 H 0.13249 0.9055 0.41795 0.0
C1110 C 0.09355 0.88005 0.50866 0.0
C1111 C 0.10247 0.88247 0.53244 0.0
C1112 C 0.13082 0.89213 0.5372 0.0
C1113 C 0.15001 0.89932 0.51862 0.0
C1114 C 0.14047 0.89621 0.4953 0.0
C1115 C 0.11293 0.88684 0.49034 0.0
C1116 C 0.10819 0.88691 0.46393 0.0
C1117 C 0.08901 0.85729 0.45488 0.0
C1118 C 0.09678 0.90639 0.45839 0.0
C1119 C 0.13743 0.89833 0.45467 0.0
C1120 C 0.15581 0.90346 0.47306 0.0
C1121 C 0.18435 0.91746 0.46927 0.0
C1122 C 0.19436 0.92795 0.44642 0.0
C1123 C 0.17589 0.92408 0.42763 0.0
C1124 C 0.1471 0.90765 0.43162 0.0
H1125 H 0.05885 0.15705 0.51979 0.0
H1126 H 0.14163 0.1946 0.49018 0.0
H1127 H 0.12616 0.21075 0.45551 0.0
H1128 H 0.02193 0.13296 0.46587 0.0
H1129 H -0.00486 0.14028 0.47457 0.0
H1130 H 0.01357 0.13287 0.49689 0.0
H1131 H 0.02675 0.17938 0.51772 0.0
H1132 H 0.00863 0.18698 0.49509 0.0
H1133 H 0.04453 0.21122 0.50112 0.0
H1134 H 0.10023 0.21866 0.42239 0.0
H1135 H 0.06566 0.21546 0.3931 0.0
H1136 H 0.00138 0.17695 0.44643 0.0
C1137 C 0.07373 0.16851 0.50595 0.0
C1138 C 0.10139 0.17429 0.50753 0.0
C1139 C 0.1203 0.18979 0.48924 0.0
C1140 C 0.11175 0.19923 0.4696 0.0
C1141 C 0.0844 0.1935 0.4688 0.0
C1142 C 0.06571 0.17851 0.48654 0.0
C1143 C 0.0373 0.17434 0.48122 0.0
C1144 C 0.01574 0.14328 0.47952 0.0
C1145 C 0.02881 0.18886 0.4999 0.0
C1146 C 0.04263 0.18853 0.45726 0.0
C1147 C 0.06996 0.19962 0.45043 0.0
C1148 C 0.07896 0.21071 0.42777 0.0
C1149 C 0.05927 0.20908 0.4113 0.0
C1150 C 0.03102 0.19674 0.41768 0.0
C1151 C 0.02299 0.18764 0.44132 0.0
H1152 H 0.68421 0.45861 0.36779 0.0
H1153 H 0.65228 0.51083 0.3431 0.0
H1154 H 0.68057 0.52146 0.30649 0.0
H1155 H 0.75186 0.50369 0.35112 0.0
H1156 H 0.7599 0.47727 0.34281 0.0
H1157 H 0.73372 0.46998 0.3648 0.0
H1158 H 0.69842 0.42809 0.34029 0.0
H1159 H 0.72405 0.43497 0.31778 0.0
H1160 H 0.69169 0.43267 0.30981 0.0
H1161 H 0.71503 0.52816 0.27313 0.0
H1162 H 0.75323 0.53148 0.24778 0.0
H1163 H 0.76473 0.47864 0.29745 0.0
C1164 C 0.6824 0.47146 0.35428 0.0
C1165 C 0.66565 0.48343 0.35798 0.0
C1166 C 0.66472 0.50113 0.34037 0.0
C1167 C 0.68075 0.50731 0.31957 0.0
C1168 C 0.69791 0.49597 0.31686 0.0
C1169 C 0.69876 0.47839 0.3338 0.0
C1170 C 0.72085 0.47115 0.32813 0.0
C1171 C 0.74287 0.48113 0.34789 0.0
C1172 C 0.70799 0.43988 0.32371 0.0
C1173 C 0.73251 0.4876 0.30552 0.0
C1174 C 0.71889 0.50152 0.29897 0.0
C1175 C 0.72603 0.51757 0.27826 0.0
C1176 C 0.74769 0.51941 0.264 0.0
C1177 C 0.76233 0.50596 0.27103 0.0
C1178 C 0.7544 0.48982 0.29197 0.0
H1179 H 0.49886 0.21916 0.35123 0.0
H1180 H 0.48364 0.2612 0.40918 0.0
H1181 H 0.46261 0.27933 0.38085 0.0
H1182 H 0.51618 0.27472 0.30666 0.0
H1183 H 0.50067 0.24991 0.28291 0.0
H1184 H 0.51584 0.24225 0.3079 0.0
H1185 H 0.46918 0.1968 0.31433 0.0
H1186 H 0.45362 0.20519 0.29004 0.0
H1187 H 0.43812 0.1985 0.3192 0.0
H1188 H 0.43882 0.28858 0.34681 0.0
H1189 H 0.42561 0.29944 0.30824 0.0
H1190 H 0.45825 0.25293 0.27213 0.0
C1191 C 0.49185 0.23288 0.3578 0.0
C1192 C 0.49302 0.23897 0.38234 0.0
C1193 C 0.4834 0.25672 0.39039 0.0
C1194 C 0.471 0.26671 0.37449 0.0
C1195 C 0.46884 0.25909 0.35059 0.0
C1196 C 0.47993 0.24345 0.34212 0.0
C1197 C 0.47575 0.23896 0.31548 0.0
C1198 C 0.50377 0.25226 0.30248 0.0
C1199 C 0.45812 0.20802 0.30943 0.0
C1200 C 0.46018 0.25418 0.31032 0.0
C1201 C 0.45599 0.26521 0.33088 0.0
C1202 C 0.44229 0.28031 0.33057 0.0
C1203 C 0.43451 0.28606 0.30852 0.0
C1204 C 0.44099 0.27725 0.28696 0.0
C1205 C 0.45265 0.2598 0.28813 0.0
H1206 H 0.74028 0.19589 0.26706 0.0
H1207 H 0.68628 0.11424 0.29663 0.0
H1208 H 0.69386 0.13461 0.33681 0.0
H1209 H 0.78972 0.22044 0.31641 0.0
H1210 H 0.79559 0.25525 0.31453 0.0
H1211 H 0.78636 0.23395 0.28827 0.0
H1212 H 0.74592 0.24345 0.28222 0.0
H1213 H 0.75333 0.26282 0.30923 0.0
H1214 H 0.71952 0.23308 0.30456 0.0
H1215 H 0.70149 0.16504 0.37289 0.0
H1216 H 0.71948 0.20164 0.40393 0.0
H1217 H 0.77223 0.26199 0.3516 0.0
C1218 C 0.73036 0.18216 0.28196 0.0
C1219 C 0.71221 0.15343 0.27853 0.0
C1220 C 0.70002 0.13631 0.29871 0.0
C1221 C 0.70403 0.1477 0.32161 0.0
C1222 C 0.72065 0.17622 0.32415 0.0
C1223 C 0.73434 0.19313 0.30501 0.0
C1224 C 0.75194 0.22302 0.31283 0.0
C1225 C 0.78273 0.2338 0.30772 0.0
C1226 C 0.74204 0.24164 0.30154 0.0
C1227 C 0.74598 0.22021 0.33919 0.0
C1228 C 0.72715 0.19323 0.34531 0.0
C1229 C 0.71671 0.18613 0.36837 0.0
C1230 C 0.72668 0.20703 0.38576 0.0
C1231 C 0.7471 0.23442 0.37994 0.0
C1232 C 0.75664 0.2411 0.35637 0.0
H1233 H 0.89393 0.46849 0.87437 0.0
H1234 H 0.8843 0.42372 0.9401 0.0
H1235 H 0.8693 0.38087 0.91711 0.0
H1236 H 0.83384 0.42145 0.85149 0.0
H1237 H 0.84427 0.42477 0.82076 0.0
H1238 H 0.86228 0.45352 0.84072 0.0
H1239 H 0.9091 0.45634 0.8313 0.0
H1240 H 0.89154 0.42841 0.81035 0.0
H1241 H 0.91207 0.4257 0.8338 0.0
H1242 H 0.84703 0.34111 0.88723 0.0
H1243 H 0.82463 0.30979 0.85267 0.0
H1244 H 0.84479 0.38078 0.80826 0.0
C1245 C 0.89013 0.4501 0.88399 0.0
C1246 C 0.89025 0.44965 0.90914 0.0
C1247 C 0.8846 0.42481 0.92085 0.0
C1248 C 0.87577 0.40021 0.90792 0.0
C1249 C 0.87295 0.40086 0.88332 0.0
C1250 C 0.88057 0.42536 0.87144 0.0
C1251 C 0.87215 0.42029 0.84554 0.0
C1252 C 0.85195 0.43062 0.83929 0.0
C1253 C 0.89774 0.43346 0.82929 0.0
C1254 C 0.85788 0.3891 0.84481 0.0
C1255 C 0.8588 0.37813 0.8666 0.0
C1256 C 0.84638 0.34955 0.87007 0.0
C1257 C 0.83341 0.33192 0.85055 0.0
C1258 C 0.83251 0.34307 0.82822 0.0
C1259 C 0.84472 0.37189 0.82542 0.0
H1260 H 0.56403 0.42692 0.91778 0.0
H1261 H 0.50657 0.45431 0.8983 0.0
H1262 H 0.54126 0.48823 0.87026 0.0
H1263 H 0.63127 0.49276 0.90757 0.0
H1264 H 0.6466 0.4743 0.89406 0.0
H1265 H 0.62101 0.45811 0.91714 0.0
H1266 H 0.59121 0.41667 0.88932 0.0
H1267 H 0.61667 0.43246 0.86625 0.0
H1268 H 0.58124 0.42301 0.86059 0.0
H1269 H 0.57929 0.51411 0.84068 0.0
H1270 H 0.61482 0.527 0.80977 0.0
H1271 H 0.6449 0.47785 0.845 0.0
C1272 C 0.55941 0.44118 0.90859 0.0
C1273 C 0.53319 0.43902 0.91096 0.0
C1274 C 0.52697 0.45653 0.8974 0.0
C1275 C 0.54653 0.4757 0.88138 0.0
C1276 C 0.57183 0.47647 0.87872 0.0
C1277 C 0.57819 0.45946 0.89187 0.0
C1278 C 0.60413 0.46024 0.88259 0.0
C1279 C 0.62712 0.47206 0.90146 0.0
C1280 C 0.59794 0.4314 0.87419 0.0
C1281 C 0.61112 0.47989 0.8618 0.0
C1282 C 0.59267 0.48959 0.8603 0.0
C1283 C 0.59401 0.50689 0.84189 0.0
C1284 C 0.61435 0.51409 0.82437 0.0
C1285 C 0.63278 0.50348 0.82493 0.0
C1286 C 0.63129 0.48644 0.84414 0.0
H1287 H 0.50195 0.16669 0.83993 0.0
H1288 H 0.45783 0.08866 0.80213 0.0
H1289 H 0.46936 0.06564 0.83392 0.0
H1290 H 0.55654 0.16027 0.85909 0.0
H1291 H 0.55957 0.17573 0.88788 0.0
H1292 H 0.54451 0.18447 0.86354 0.0
H1293 H 0.49992 0.16919 0.88933 0.0
H1294 H 0.51569 0.16046 0.91327 0.0
H1295 H 0.48243 0.13494 0.90189 0.0
H1296 H 0.4951 0.05422 0.86457 0.0
H1297 H 0.5282 0.05446 0.89423 0.0
H1298 H 0.54948 0.13735 0.91545 0.0
C1299 C 0.49404 0.1446 0.83877 0.0
C1300 C 0.47898 0.12946 0.81865 0.0
C1301 C 0.46914 0.10062 0.81756 0.0
C1302 C 0.47561 0.08733 0.83552 0.0
C1303 C 0.49116 0.10298 0.85488 0.0
C1304 C 0.49957 0.13083 0.85694 0.0
C1305 C 0.51742 0.14331 0.87876 0.0
C1306 C 0.5462 0.16736 0.87192 0.0
C1307 C 0.50302 0.15254 0.89688 0.0
C1308 C 0.51903 0.1186 0.88787 0.0
C1309 C 0.5038 0.09547 0.87387 0.0
C1310 C 0.50607 0.07172 0.87638 0.0
C1311 C 0.52478 0.07192 0.89326 0.0
C1312 C 0.54025 0.09539 0.90778 0.0
C1313 C 0.53665 0.11858 0.90547 0.0
H1314 H 0.55228 0.17694 0.39031 0.0
H1315 H 0.52856 0.09654 0.4203 0.0
H1316 H 0.56885 0.09761 0.40009 0.0
H1317 H 0.57116 0.16752 0.33483 0.0
H1318 H 0.6 0.20219 0.33183 0.0
H1319 H 0.5716 0.19573 0.3509 0.0
H1320 H 0.60572 0.21808 0.38619 0.0
H1321 H 0.63426 0.22426 0.36714 0.0
H1322 H 0.62828 0.20498 0.39435 0.0
H1323 H 0.60766 0.1052 0.37132 0.0
H1324 H 0.63951 0.11748 0.33714 0.0
H1325 H 0.63923 0.19459 0.32887 0.0
C1326 C 0.55555 0.15952 0.39274 0.0
C1327 C 0.53698 0.13632 0.40639 0.0
C1328 C 0.5424 0.11433 0.40968 0.0
C1329 C 0.56531 0.11493 0.39841 0.0
C1330 C 0.58299 0.13808 0.38469 0.0
C1331 C 0.57845 0.16012 0.38219 0.0
C1332 C 0.5992 0.18196 0.36557 0.0
C1333 C 0.58462 0.18712 0.34455 0.0
C1334 C 0.61798 0.20891 0.37913 0.0
C1335 C 0.61517 0.16805 0.35766 0.0
C1336 C 0.60595 0.14299 0.36918 0.0
C1337 C 0.61545 0.12505 0.36267 0.0
C1338 C 0.63365 0.13226 0.34324 0.0
C1339 C 0.64214 0.15718 0.33047 0.0
C1340 C 0.63381 0.17582 0.33864 0.0
H1341 H 0.84088 0.34408 0.37201 0.0
H1342 H 0.86831 0.40482 0.42889 0.0
H1343 H 0.8692 0.4392 0.40057 0.0
H1344 H 0.87683 0.3922 0.32138 0.0
H1345 H 0.84756 0.37265 0.30212 0.0
H1346 H 0.8553 0.35536 0.3254 0.0
H1347 H 0.8055 0.33551 0.34161 0.0
H1348 H 0.79779 0.35331 0.31888 0.0
H1349 H 0.79336 0.3589 0.34978 0.0
H1350 H 0.86145 0.46496 0.36704 0.0
H1351 H 0.84695 0.48023 0.33125 0.0
H1352 H 0.82041 0.40059 0.29806 0.0
C1353 C 0.84821 0.36491 0.37844 0.0
C1354 C 0.85486 0.37179 0.40273 0.0
C1355 C 0.86352 0.39914 0.41036 0.0
C1356 C 0.86393 0.41876 0.39439 0.0
C1357 C 0.85552 0.41063 0.37094 0.0
C1358 C 0.84806 0.38438 0.36297 0.0
C1359 C 0.83661 0.37951 0.3379 0.0
C1360 C 0.85519 0.37466 0.32068 0.0
C1361 C 0.80654 0.35539 0.33702 0.0
C1362 C 0.83813 0.4069 0.33314 0.0
C1363 C 0.84955 0.42478 0.3522 0.0
C1364 C 0.85268 0.45118 0.35197 0.0
C1365 C 0.84427 0.45961 0.33163 0.0
C1366 C 0.83233 0.44149 0.312 0.0
C1367 C 0.82914 0.41476 0.31291 0.0
H1368 H 0.54879 0.43621 0.41966 0.0
H1369 H 0.56301 0.51656 0.3979 0.0
H1370 H 0.53434 0.4955 0.36198 0.0
H1371 H 0.56364 0.42136 0.36534 0.0
H1372 H 0.54045 0.38457 0.36742 0.0
H1373 H 0.55428 0.40486 0.39385 0.0
H1374 H 0.50144 0.38593 0.40876 0.0
H1375 H 0.4908 0.36593 0.3817 0.0
H1376 H 0.47839 0.38938 0.38869 0.0
H1377 H 0.51144 0.4669 0.3249 0.0
H1378 H 0.49958 0.43518 0.29036 0.0
H1379 H 0.50732 0.37597 0.33472 0.0
C1380 C 0.54415 0.44895 0.4082 0.0
C1381 C 0.55699 0.47774 0.41209 0.0
C1382 C 0.55237 0.49429 0.39573 0.0
C1383 C 0.5363 0.48247 0.37518 0.0
C1384 C 0.52556 0.4542 0.37102 0.0
C1385 C 0.52937 0.43767 0.38718 0.0
C1386 C 0.52148 0.4097 0.37656 0.0
C1387 C 0.54637 0.40483 0.3758 0.0
C1388 C 0.49661 0.38635 0.3897 0.0
C1389 C 0.51341 0.41323 0.35178 0.0
C1390 C 0.51501 0.43863 0.34901 0.0
C1391 C 0.5098 0.44685 0.32707 0.0
C1392 C 0.50315 0.42878 0.30756 0.0
C1393 C 0.50272 0.4033 0.31002 0.0
C1394 C 0.50756 0.39538 0.33245 0.0
H1395 H 0.42714 0.18814 0.80081 0.0
H1396 H 0.4196 0.22769 0.73711 0.0
H1397 H 0.42681 0.26792 0.76121 0.0
H1398 H 0.39982 0.21889 0.84556 0.0
H1399 H 0.42577 0.22267 0.86671 0.0
H1400 H 0.41195 0.19437 0.8458 0.0
H1401 H 0.46184 0.20978 0.83182 0.0
H1402 H 0.47578 0.23862 0.85198 0.0
H1403 H 0.48331 0.24441 0.82064 0.0
H1404 H 0.4416 0.30682 0.79201 0.0
H1405 H 0.46254 0.33964 0.82594 0.0
H1406 H 0.46617 0.27562 0.86662 0.0
C1407 C 0.42547 0.20451 0.79201 0.0
C1408 C 0.4223 0.20449 0.76709 0.0
C1409 C 0.42148 0.22701 0.75624 0.0
C1410 C 0.42572 0.25003 0.76979 0.0
C1411 C 0.43094 0.25024 0.7941 0.0
C1412 C 0.43061 0.22787 0.80508 0.0
C1413 C 0.44122 0.23457 0.83033 0.0
C1414 C 0.41832 0.21656 0.84815 0.0
C1415 C 0.46706 0.23168 0.83387 0.0
C1416 C 0.44836 0.26442 0.83169 0.0
C1417 C 0.44167 0.27307 0.81096 0.0
C1418 C 0.4468 0.30017 0.80833 0.0
C1419 C 0.45884 0.3187 0.8275 0.0
C1420 C 0.46644 0.31014 0.84845 0.0
C1421 C 0.46105 0.28274 0.85049 0.0
H1422 H 0.70968 0.20641 0.8741 0.0
H1423 H 0.65143 0.13046 0.83836 0.0
H1424 H 0.68593 0.14015 0.80654 0.0
H1425 H 0.74097 0.24793 0.82235 0.0
H1426 H 0.77502 0.26537 0.83539 0.0
H1427 H 0.745 0.25229 0.85417 0.0
H1428 H 0.76272 0.2244 0.87792 0.0
H1429 H 0.79235 0.23669 0.85865 0.0
H1430 H 0.76954 0.20003 0.86258 0.0
H1431 H 0.72634 0.16047 0.77732 0.0
H1432 H 0.76782 0.19024 0.75309 0.0
H1433 H 0.80111 0.2488 0.81148 0.0
C1434 C 0.70401 0.19209 0.85933 0.0
C1435 C 0.67776 0.16801 0.85831 0.0
C1436 C 0.67137 0.14924 0.83918 0.0
C1437 C 0.69089 0.15447 0.82119 0.0
C1438 C 0.71692 0.17811 0.82305 0.0
C1439 C 0.72347 0.19654 0.8417 0.0
C1440 C 0.75287 0.22023 0.83988 0.0
C1441 C 0.75349 0.24809 0.8378 0.0
C1442 C 0.77039 0.22032 0.86102 0.0
C1443 C 0.76173 0.21266 0.81696 0.0
C1444 C 0.74076 0.18837 0.8074 0.0
C1445 C 0.74315 0.17917 0.78489 0.0
C1446 C 0.76693 0.19603 0.77133 0.0
C1447 C 0.78809 0.22157 0.78049 0.0
C1448 C 0.78592 0.22899 0.80414 0.0
H1449 H 0.73076 0.53955 0.8037 0.0
H1450 H 0.7952 0.58281 0.75115 0.0
H1451 H 0.82519 0.5689 0.77286 0.0
H1452 H 0.77305 0.55158 0.85575 0.0
H1453 H 0.75064 0.51717 0.86698 0.0
H1454 H 0.73664 0.53379 0.84881 0.0
H1455 H 0.71667 0.49189 0.81967 0.0
H1456 H 0.73086 0.47552 0.83793 0.0
H1457 H 0.73967 0.48143 0.80685 0.0
H1458 H 0.84792 0.54974 0.8019 0.0
H1459 H 0.85986 0.5263 0.83354 0.0
H1460 H 0.77682 0.49084 0.8619 0.0
C1461 C 0.75154 0.54709 0.79708 0.0
C1462 C 0.76103 0.5632 0.77614 0.0
C1463 C 0.78786 0.57119 0.76755 0.0
C1464 C 0.80486 0.56313 0.77964 0.0
C1465 C 0.79434 0.54645 0.79984 0.0
C1466 C 0.76814 0.53841 0.80828 0.0
C1467 C 0.76036 0.51871 0.82902 0.0
C1468 C 0.75487 0.53106 0.85146 0.0
C1469 C 0.7354 0.49021 0.82298 0.0
C1470 C 0.78643 0.51711 0.83135 0.0
C1471 C 0.80605 0.53344 0.81465 0.0
C1472 C 0.83249 0.53654 0.81474 0.0
C1473 C 0.83907 0.52308 0.83264 0.0
C1474 C 0.819 0.50617 0.84968 0.0
C1475 C 0.79229 0.50284 0.84861 0.0
H1476 H 0.40905 0.87743 0.72662 0.0
H1477 H 0.34279 0.87821 0.68729 0.0
H1478 H 0.37558 0.90362 0.65436 0.0
H1479 H 0.46546 0.94748 0.70578 0.0
H1480 H 0.49026 0.93575 0.70529 0.0
H1481 H 0.46259 0.92178 0.7268 0.0
H1482 H 0.44707 0.87191 0.71225 0.0
H1483 H 0.47494 0.88571 0.69124 0.0
H1484 H 0.43994 0.86383 0.68108 0.0
H1485 H 0.41342 0.91989 0.62315 0.0
H1486 H 0.45084 0.9238 0.5972 0.0
H1487 H 0.49397 0.91791 0.6591 0.0
C1488 C 0.40162 0.88345 0.71121 0.0
C1489 C 0.37353 0.87573 0.70917 0.0
C1490 C 0.36435 0.88399 0.68901 0.0
C1491 C 0.38286 0.89855 0.67038 0.0
C1492 C 0.41055 0.90548 0.67275 0.0
C1493 C 0.4199 0.89854 0.69294 0.0
C1494 C 0.44982 0.90604 0.6906 0.0
C1495 C 0.46811 0.92914 0.70816 0.0
C1496 C 0.45311 0.88036 0.69396 0.0
C1497 C 0.45544 0.91645 0.66523 0.0
C1498 C 0.43276 0.91645 0.65527 0.0
C1499 C 0.43158 0.92078 0.63094 0.0
C1500 C 0.45311 0.92319 0.61629 0.0
C1501 C 0.47545 0.92109 0.62602 0.0
C1502 C 0.47753 0.92004 0.65102 0.0
H1503 H 0.13148 0.59779 0.63124 0.0
H1504 H 0.05667 0.53108 0.60041 0.0
H1505 H 0.06132 0.49742 0.62657 0.0
H1506 H 0.16822 0.56051 0.63445 0.0
H1507 H 0.18562 0.57711 0.66176 0.0
H1508 H 0.17549 0.59513 0.64115 0.0
H1509 H 0.1479 0.60277 0.67444 0.0
H1510 H 0.15815 0.58501 0.69519 0.0
H1511 H 0.12199 0.57339 0.69075 0.0
H1512 H 0.07385 0.4721 0.65901 0.0
H1513 H 0.09377 0.45751 0.69161 0.0
H1514 H 0.16243 0.54147 0.69722 0.0
C1515 C 0.11584 0.57607 0.63016 0.0
C1516 C 0.0933 0.56696 0.61434 0.0
C1517 C 0.07379 0.53841 0.61276 0.0
C1518 C 0.07638 0.51927 0.62749 0.0
C1519 C 0.09896 0.52913 0.64309 0.0
C1520 C 0.11846 0.55694 0.64418 0.0
C1521 C 0.14127 0.56271 0.66168 0.0
C1522 C 0.16931 0.57456 0.64899 0.0
C1523 C 0.14237 0.5821 0.6817 0.0
C1524 C 0.13153 0.53383 0.67081 0.0
C1525 C 0.107 0.51465 0.6601 0.0
C1526 C 0.09327 0.48693 0.66711 0.0
C1527 C 0.10474 0.47881 0.68562 0.0
C1528 C 0.12994 0.49823 0.69661 0.0
C1529 C 0.14358 0.52595 0.68874 0.0
H1530 H 0.46565 0.64923 0.68792 0.0
H1531 H 0.50875 0.6133 0.72441 0.0
H1532 H 0.49759 0.58008 0.69167 0.0
H1533 H 0.41138 0.58998 0.66598 0.0
H1534 H 0.40968 0.60307 0.6371 0.0
H1535 H 0.42402 0.62643 0.66182 0.0
H1536 H 0.4702 0.65605 0.6386 0.0
H1537 H 0.45471 0.63304 0.61362 0.0
H1538 H 0.4873 0.63916 0.6255 0.0
H1539 H 0.4733 0.54472 0.65977 0.0
H1540 H 0.44207 0.51359 0.62826 0.0
H1541 H 0.42084 0.57581 0.60898 0.0
C1542 C 0.47331 0.63482 0.68864 0.0
C1543 C 0.48807 0.63389 0.70868 0.0
C1544 C 0.49764 0.61462 0.70912 0.0
C1545 C 0.4914 0.5956 0.6906 0.0
C1546 C 0.47634 0.59661 0.6713 0.0
C1547 C 0.46808 0.61623 0.66982 0.0
C1548 C 0.45128 0.6121 0.64746 0.0
C1549 C 0.42239 0.60761 0.65346 0.0
C1550 C 0.46678 0.63653 0.63026 0.0
C1551 C 0.44979 0.58604 0.63762 0.0
C1552 C 0.46447 0.57745 0.65156 0.0
C1553 C 0.4627 0.55177 0.64805 0.0
C1554 C 0.44506 0.53424 0.63012 0.0
C1555 C 0.43016 0.5429 0.6156 0.0
C1556 C 0.4332 0.56938 0.61905 0.0
H1557 H 0.48589 0.70889 0.17213 0.0
H1558 H 0.53973 0.67717 0.19249 0.0
H1559 H 0.55948 0.7121 0.22475 0.0
H1560 H 0.53554 0.77903 0.17871 0.0
H1561 H 0.51178 0.78939 0.18988 0.0
H1562 H 0.49949 0.75981 0.17057 0.0
H1563 H 0.46318 0.72908 0.2021 0.0
H1564 H 0.47509 0.75864 0.22145 0.0
H1565 H 0.47442 0.72775 0.23188 0.0
H1566 H 0.57331 0.75163 0.25542 0.0
H1567 H 0.58119 0.79276 0.27914 0.0
H1568 H 0.52207 0.8007 0.23477 0.0
C1569 C 0.50133 0.70882 0.18376 0.0
C1570 C 0.5109 0.68995 0.18009 0.0
C1571 C 0.53185 0.69121 0.19518 0.0
C1572 C 0.54322 0.71102 0.21353 0.0
C1573 C 0.5338 0.72981 0.2163 0.0
C1574 C 0.51338 0.72888 0.20169 0.0
C1575 C 0.50813 0.75246 0.20707 0.0
C1576 C 0.51411 0.77128 0.18526 0.0
C1577 C 0.47843 0.74132 0.21616 0.0
C1578 C 0.52907 0.7671 0.22667 0.0
C1579 C 0.54332 0.75352 0.23225 0.0
C1580 C 0.56256 0.76265 0.25089 0.0
C1581 C 0.5671 0.78608 0.26417 0.0
C1582 C 0.55315 0.80057 0.25816 0.0
C1583 C 0.534 0.7908 0.23913 0.0
H1584 H 0.22972 0.76741 0.26275 0.0
H1585 H 0.17194 0.7916 0.23671 0.0
H1586 H 0.20817 0.82536 0.20939 0.0
H1587 H 0.29601 0.83352 0.25471 0.0
H1588 H 0.31325 0.81568 0.24386 0.0
H1589 H 0.28565 0.79922 0.26524 0.0
H1590 H 0.25929 0.75716 0.23689 0.0
H1591 H 0.2868 0.77337 0.21555 0.0
H1592 H 0.25185 0.76298 0.20699 0.0
H1593 H 0.24961 0.85312 0.18258 0.0
H1594 H 0.28809 0.86657 0.15442 0.0
H1595 H 0.3155 0.8181 0.19432 0.0
C1596 C 0.22512 0.78073 0.25207 0.0
C1597 C 0.19852 0.77788 0.2525 0.0
C1598 C 0.19254 0.79428 0.23718 0.0
C1599 C 0.213 0.81342 0.22166 0.0
C1600 C 0.23892 0.81517 0.22128 0.0
C1601 C 0.24478 0.79885 0.23588 0.0
C1602 C 0.27182 0.80042 0.22911 0.0
C1603 C 0.29295 0.81296 0.24943 0.0
C1604 C 0.26716 0.7718 0.22171 0.0
C1605 C 0.28024 0.81986 0.20808 0.0
C1606 C 0.26149 0.82888 0.20435 0.0
C1607 C 0.26444 0.8463 0.18548 0.0
C1608 C 0.28651 0.85393 0.16962 0.0
C1609 C 0.30491 0.84347 0.17224 0.0
C1610 C 0.30195 0.82663 0.19201 0.0
H1611 H 0.22222 0.47818 0.26582 0.0
H1612 H 0.20132 0.3958 0.24337 0.0
H1613 H 0.16732 0.39549 0.21473 0.0
H1614 H 0.15448 0.47511 0.25368 0.0
H1615 H 0.17122 0.5094 0.24126 0.0
H1616 H 0.18773 0.50102 0.26483 0.0
H1617 H 0.23148 0.51642 0.23935 0.0
H1618 H 0.21623 0.5259 0.2157 0.0
H1619 H 0.22831 0.50189 0.21013 0.0
H1620 H 0.14093 0.40698 0.18489 0.0
H1621 H 0.12923 0.43014 0.15343 0.0
H1622 H 0.17372 0.50803 0.19139 0.0
C1623 C 0.20925 0.45945 0.25587 0.0
C1624 C 0.21328 0.43643 0.25758 0.0
C1625 C 0.19757 0.41307 0.24301 0.0
C1626 C 0.17836 0.41286 0.22666 0.0
C1627 C 0.17581 0.43651 0.22466 0.0
C1628 C 0.19112 0.45951 0.23878 0.0
C1629 C 0.18927 0.48426 0.23 0.0
C1630 C 0.17484 0.49298 0.24855 0.0
C1631 C 0.21802 0.50854 0.22341 0.0
C1632 C 0.17139 0.47202 0.20815 0.0
C1633 C 0.16294 0.44418 0.20594 0.0
C1634 C 0.14722 0.42867 0.18662 0.0
C1635 C 0.14062 0.44205 0.16884 0.0
C1636 C 0.1505 0.47092 0.17 0.0
C1637 C 0.1657 0.48594 0.19015 0.0
H1638 H 0.26558 0.48931 0.6491 0.0
H1639 H 0.32235 0.46911 0.68415 0.0
H1640 H 0.28904 0.44778 0.71752 0.0
H1641 H 0.23744 0.50455 0.70013 0.0
H1642 H 0.20269 0.48785 0.68865 0.0
H1643 H 0.2316 0.50243 0.66851 0.0
H1644 H 0.21194 0.45526 0.64722 0.0
H1645 H 0.183 0.44027 0.66741 0.0
H1646 H 0.20454 0.42486 0.66412 0.0
H1647 H 0.24961 0.4307 0.74803 0.0
H1648 H 0.20823 0.41942 0.77231 0.0
H1649 H 0.17569 0.44582 0.71415 0.0
C1650 C 0.27116 0.48079 0.66402 0.0
C1651 C 0.29672 0.48134 0.66443 0.0
C1652 C 0.30297 0.46916 0.68377 0.0
C1653 C 0.28414 0.45692 0.70268 0.0
C1654 C 0.25881 0.45627 0.70153 0.0
C1655 C 0.25228 0.46772 0.68255 0.0
C1656 C 0.22333 0.46333 0.68489 0.0
C1657 C 0.22382 0.49118 0.68562 0.0
C1658 C 0.20461 0.44483 0.66471 0.0
C1659 C 0.21488 0.44846 0.70858 0.0
C1660 C 0.23553 0.44451 0.71798 0.0
C1661 C 0.23307 0.43315 0.7406 0.0
C1662 C 0.20936 0.42654 0.75421 0.0
C1663 C 0.18821 0.43098 0.74506 0.0
C1664 C 0.19084 0.4412 0.72156 0.0
H1665 H 0.48982 0.78479 0.66445 0.0
H1666 H 0.51542 0.86372 0.69829 0.0
H1667 H 0.52896 0.84765 0.73452 0.0
H1668 H 0.46413 0.74063 0.71621 0.0
H1669 H 0.47792 0.71918 0.7064 0.0
H1670 H 0.46799 0.73647 0.68488 0.0
H1671 H 0.51719 0.75904 0.66653 0.0
H1672 H 0.52734 0.74219 0.68834 0.0
H1673 H 0.54687 0.7793 0.68518 0.0
H1674 H 0.53757 0.82027 0.76821 0.0
H1675 H 0.54424 0.78709 0.79317 0.0
H1676 H 0.519 0.73043 0.73341 0.0
C1677 C 0.49769 0.79847 0.6797 0.0
C1678 C 0.50094 0.82519 0.67892 0.0
C1679 C 0.51238 0.84297 0.6988 0.0
C1680 C 0.52023 0.83405 0.71934 0.0
C1681 C 0.51724 0.80762 0.71936 0.0
C1682 C 0.50644 0.79029 0.69985 0.0
C1683 C 0.50696 0.76372 0.70329 0.0
C1684 C 0.47751 0.73853 0.70267 0.0
C1685 C 0.52571 0.76092 0.68473 0.0
C1686 C 0.51934 0.76846 0.72791 0.0
C1687 C 0.52474 0.79356 0.73729 0.0
C1688 C 0.53412 0.80091 0.76073 0.0
C1689 C 0.53799 0.78207 0.77477 0.0
C1690 C 0.5333 0.75666 0.76501 0.0
C1691 C 0.52405 0.75017 0.74121 0.0
H1692 H 0.19191 0.67772 0.68102 0.0
H1693 H 0.13887 0.70866 0.65585 0.0
H1694 H 0.15521 0.74287 0.68824 0.0
H1695 H 0.18355 0.68672 0.74517 0.0
H1696 H 0.21909 0.69858 0.75244 0.0
H1697 H 0.20263 0.67405 0.72859 0.0
H1698 H 0.23987 0.7053 0.69936 0.0
H1699 H 0.25806 0.73198 0.72116 0.0
H1700 H 0.24665 0.74004 0.69408 0.0
H1701 H 0.18394 0.77936 0.71879 0.0
H1702 H 0.21883 0.81109 0.74809 0.0
H1703 H 0.24857 0.75318 0.75622 0.0
C1704 C 0.18317 0.69115 0.68277 0.0
C1705 C 0.16403 0.69036 0.66599 0.0
C1706 C 0.15332 0.70859 0.66867 0.0
C1707 C 0.1625 0.7282 0.68701 0.0
C1708 C 0.18186 0.72891 0.70299 0.0
C1709 C 0.19154 0.71041 0.7014 0.0
C1710 C 0.21351 0.71663 0.7199 0.0
C1711 C 0.20413 0.69253 0.73754 0.0
C1712 C 0.24112 0.72386 0.70791 0.0
C1713 C 0.21504 0.74171 0.73178 0.0
C1714 C 0.1969 0.74879 0.72166 0.0
C1715 C 0.1975 0.77347 0.72753 0.0
C1716 C 0.21727 0.79135 0.74413 0.0
C1717 C 0.23546 0.78394 0.755 0.0
C1718 C 0.23394 0.75864 0.74897 0.0
H1719 H 0.14497 0.58085 0.10553 0.0
H1720 H 0.05949 0.52115 0.12069 0.0
H1721 H 0.05806 0.55341 0.15039 0.0
H1722 H 0.1627 0.59442 0.16339 0.0
H1723 H 0.18796 0.63053 0.16071 0.0
H1724 H 0.1812 0.60763 0.13588 0.0
H1725 H 0.16857 0.63691 0.10849 0.0
H1726 H 0.1768 0.66155 0.13229 0.0
H1727 H 0.1435 0.64612 0.11808 0.0
H1728 H 0.06785 0.59079 0.1812 0.0
H1729 H 0.08828 0.6263 0.21263 0.0
H1730 H 0.16938 0.65812 0.18078 0.0
C1731 C 0.12555 0.57521 0.1142 0.0
C1732 C 0.10193 0.54908 0.11004 0.0
C1733 C 0.07742 0.54152 0.12297 0.0
C1734 C 0.07654 0.55969 0.13994 0.0
C1735 C 0.10059 0.58498 0.1442 0.0
C1736 C 0.1247 0.59256 0.13178 0.0
C1737 C 0.14888 0.61835 0.14228 0.0
C1738 C 0.17153 0.6124 0.15105 0.0
C1739 C 0.16016 0.64218 0.12423 0.0
C1740 C 0.13493 0.62397 0.16287 0.0
C1741 C 0.10689 0.60498 0.16327 0.0
C1742 C 0.08974 0.60579 0.18088 0.0
C1743 C 0.10158 0.62616 0.19865 0.0
C1744 C 0.13048 0.6451 0.19916 0.0
C1745 C 0.14726 0.64403 0.18085 0.0
H1746 H 0.4673 0.59836 0.15721 0.0
H1747 H 0.44233 0.53631 0.10163 0.0
H1748 H 0.39542 0.51076 0.11947 0.0
H1749 H 0.4288 0.55132 0.20438 0.0
H1750 H 0.42095 0.5756 0.21853 0.0
H1751 H 0.45217 0.58803 0.2014 0.0
H1752 H 0.43767 0.61726 0.17531 0.0
H1753 H 0.40678 0.60477 0.19294 0.0
H1754 H 0.40419 0.60041 0.1612 0.0
H1755 H 0.35163 0.49114 0.14512 0.0
H1756 H 0.31616 0.47894 0.17662 0.0
H1757 H 0.36958 0.55679 0.21204 0.0
C1758 C 0.45217 0.57926 0.14879 0.0
C1759 C 0.45861 0.56918 0.12806 0.0
C1760 C 0.4379 0.54428 0.1176 0.0
C1761 C 0.41121 0.52974 0.12754 0.0
C1762 C 0.40546 0.5407 0.14766 0.0
C1763 C 0.42545 0.56492 0.15812 0.0
C1764 C 0.41449 0.57223 0.17989 0.0
C1765 C 0.43001 0.57174 0.20237 0.0
C1766 C 0.41588 0.60033 0.17712 0.0
C1767 C 0.38496 0.54864 0.17986 0.0
C1768 C 0.3801 0.53039 0.16137 0.0
C1769 C 0.35507 0.50555 0.15938 0.0
C1770 C 0.33499 0.49885 0.17721 0.0
C1771 C 0.33983 0.51733 0.19628 0.0
C1772 C 0.36483 0.54281 0.19713 0.0
H1773 H 0.42341 0.85201 0.10637 0.0
H1774 H 0.45122 0.93799 0.12158 0.0
H1775 H 0.48451 0.93849 0.15105 0.0
H1776 H 0.41751 0.83418 0.16457 0.0
H1777 H 0.4263 0.80735 0.16095 0.0
H1778 H 0.41172 0.81652 0.13658 0.0
H1779 H 0.45415 0.82552 0.11067 0.0
H1780 H 0.46903 0.81712 0.13552 0.0
H1781 H 0.48849 0.84999 0.12073 0.0
H1782 H 0.50867 0.92764 0.18276 0.0
H1783 H 0.5189 0.90643 0.21654 0.0
H1784 H 0.46995 0.82521 0.18468 0.0
C1785 C 0.43765 0.87131 0.11495 0.0
C1786 C 0.43576 0.89532 0.11104 0.0
C1787 C 0.45326 0.91979 0.12372 0.0
C1788 C 0.47207 0.92013 0.14051 0.0
C1789 C 0.47241 0.89559 0.14482 0.0
C1790 C 0.45542 0.87152 0.13251 0.0
C1791 C 0.45524 0.84668 0.14375 0.0
C1792 C 0.42597 0.82491 0.15195 0.0
C1793 C 0.46746 0.83408 0.12665 0.0
C1794 C 0.47409 0.86031 0.1648 0.0
C1795 C 0.48446 0.88865 0.16458 0.0
C1796 C 0.50101 0.90557 0.18287 0.0
C1797 C 0.50672 0.89325 0.20202 0.0
C1798 C 0.49539 0.86413 0.2032 0.0
C1799 C 0.47909 0.8475 0.18416 0.0
H1800 H 0.02912 0.10937 0.05171 0.0
H1801 H 0.06927 0.17584 0.10333 0.0
H1802 H 0.10418 0.16182 0.11076 0.0
H1803 H 0.03504 0.05993 0.08373 0.0
H1804 H 0.0415 0.04391 0.05857 0.0
H1805 H 0.02198 0.06133 0.05474 0.0
H1806 H 0.05627 0.0931 0.02224 0.0
H1807 H 0.07516 0.07492 0.02553 0.0
H1808 H 0.09279 0.11205 0.02867 0.0
H1809 H 0.13132 0.13745 0.11567 0.0
H1810 H 0.15086 0.10642 0.11599 0.0
H1811 H 0.09228 0.05552 0.06146 0.0
C1812 C 0.04557 0.12142 0.06423 0.0
C1813 C 0.04646 0.14372 0.07696 0.0
C1814 C 0.06825 0.15878 0.09328 0.0
C1815 C 0.08813 0.15094 0.09764 0.0
C1816 C 0.08599 0.12821 0.08537 0.0
C1817 C 0.06547 0.1139 0.06878 0.0
C1818 C 0.06663 0.08918 0.05908 0.0
C1819 C 0.03969 0.06199 0.06436 0.0
C1820 C 0.07313 0.09254 0.03229 0.0
C1821 C 0.09056 0.09133 0.07334 0.0
C1822 C 0.10157 0.11409 0.08826 0.0
C1823 C 0.1231 0.11976 0.10387 0.0
C1824 C 0.13388 0.10185 0.10405 0.0
C1825 C 0.12307 0.07853 0.08873 0.0
C1826 C 0.10106 0.07324 0.07327 0.0
H1827 H 0.88964 0.92122 0.05951 0.0
H1828 H 0.83749 0.89888 0.12236 0.0
H1829 H 0.84914 0.94753 0.1269 0.0
H1830 H 0.94324 0.98737 0.08049 0.0
H1831 H 0.94884 0.00395 0.0519 0.0
H1832 H 0.93653 0.96736 0.0536 0.0
H1833 H 0.89428 0.95753 0.0275 0.0
H1834 H 0.90642 -0.00591 0.02578 0.0
H1835 H 0.87207 0.97072 0.03661 0.0
H1836 H 0.8665 -0.00181 0.1249 0.0
H1837 H 0.88864 0.04808 0.11677 0.0
H1838 H 0.92915 0.03783 0.05471 0.0
C1839 C 0.88075 0.92654 0.07431 0.0
C1840 C 0.86269 0.9062 0.09064 0.0
C1841 C 0.85136 0.91405 0.10964 0.0
C1842 C 0.85784 0.94163 0.11236 0.0
C1843 C 0.87556 0.96107 0.09588 0.0
C1844 C 0.88686 0.95394 0.07722 0.0
C1845 C 0.90521 0.97888 0.06192 0.0
C1846 C 0.93523 0.98473 0.062 0.0
C1847 C 0.8938 0.97507 0.03645 0.0
C1848 C 0.90262 0.00121 0.07505 0.0
C1849 C 0.88538 0.99041 0.09455 0.0
C1850 C 0.88001 0.00691 0.10967 0.0
C1851 C 0.89277 0.03527 0.10488 0.0
C1852 C 0.9107 0.04696 0.08509 0.0
C1853 C 0.91546 0.02955 0.06989 0.0
H1854 H 0.95158 0.86909 0.04854 0.0
H1855 H 0.94063 0.81432 0.10756 0.0
H1856 H -0.00894 0.83679 0.1123 0.0
H1857 H 0.0191 0.87549 0.02627 0.0
H1858 H 0.03268 0.91142 0.01881 0.0
H1859 H -0.0039 0.88738 0.01637 0.0
H1860 H 0.98565 0.91818 0.0439 0.0
H1861 H 0.02197 0.94244 0.04652 0.0
H1862 H 0.00149 0.92747 0.07291 0.0
H1863 H 0.04154 0.87037 0.11569 0.0
H1864 H 0.08821 0.9119 0.11642 0.0
H1865 H 0.0663 0.94463 0.05536 0.0
C1866 C 0.9598 0.86131 0.06201 0.0
C1867 C 0.94212 0.84016 0.07781 0.0
C1868 C 0.95371 0.83063 0.0953 0.0
C1869 C 0.9824 0.84314 0.09805 0.0
C1870 C -0.00073 0.86484 0.08295 0.0
C1871 C 0.98844 0.87355 0.06498 0.0
C1872 C 0.01083 0.89927 0.05292 0.0
C1873 C 0.01493 0.893 0.02706 0.0
C1874 C 0.0046 0.92324 0.05417 0.0
C1875 C 0.03541 0.90486 0.06819 0.0
C1876 C 0.02857 0.88436 0.08496 0.0
C1877 C 0.04735 0.88628 0.10231 0.0
C1878 C 0.07374 0.90997 0.10269 0.0
C1879 C 0.08077 0.93155 0.0861 0.0
C1880 C 0.0615 0.92853 0.06837 0.0
H1881 H 0.04513 0.10756 0.36435 0.0
H1882 H 0.9894 0.06207 0.42242 0.0
H1883 H 0.01209 0.03417 0.42679 0.0
H1884 H 0.04799 0.05048 0.33853 0.0
H1885 H 0.08423 0.07007 0.33114 0.0
H1886 H 0.06398 0.08704 0.3325 0.0
H1887 H 0.09821 0.12217 0.36316 0.0
H1888 H 0.11871 0.10548 0.36173 0.0
H1889 H 0.10591 0.10962 0.38999 0.0
H1890 H 0.03884 0.01019 0.42404 0.0
H1891 H 0.07117 0.99332 0.41681 0.0
H1892 H 0.11136 0.05504 0.36125 0.0
C1893 C 0.03789 0.09188 0.3781 0.0
C1894 C 0.01559 0.08703 0.3931 0.0
C1895 C 0.00665 0.06635 0.4109 0.0
C1896 C 0.01928 0.05027 0.41343 0.0
C1897 C 0.04097 0.05536 0.39821 0.0
C1898 C 0.0505 0.07583 0.38109 0.0
C1899 C 0.07447 0.07711 0.36731 0.0
C1900 C 0.06722 0.07079 0.3408 0.0
C1901 C 0.10089 0.10527 0.37077 0.0
C1902 C 0.07679 0.05406 0.37936 0.0
C1903 C 0.05704 0.04173 0.39696 0.0
C1904 C 0.05454 0.01974 0.41042 0.0
C1905 C 0.07302 0.01027 0.40605 0.0
C1906 C 0.09394 0.0229 0.38846 0.0
C1907 C 0.09569 0.04501 0.37484 0.0
H1908 H 0.91756 0.01373 0.39331 0.0
H1909 H 0.90127 0.02778 0.32057 0.0
H1910 H 0.90484 0.9873 0.30755 0.0
H1911 H 0.96855 -0.00326 0.38007 0.0
H1912 H 0.95821 0.97039 0.40259 0.0
H1913 H 0.95179 -0.00129 0.40681 0.0
H1914 H 0.89934 0.96447 0.41281 0.0
H1915 H 0.90577 0.93606 0.40951 0.0
H1916 H 0.88068 0.93811 0.39078 0.0
H1917 H 0.91177 0.94624 0.30244 0.0
H1918 H 0.91486 0.9037 0.30657 0.0
H1919 H 0.92995 0.9191 0.38211 0.0
C1920 C 0.91411 0.00804 0.37468 0.0
C1921 C 0.9091 0.024 0.35795 0.0
C1922 C 0.90485 0.01576 0.33376 0.0
C1923 C 0.9072 0.99302 0.32616 0.0
C1924 C 0.91381 0.97883 0.34297 0.0
C1925 C 0.91665 0.98569 0.3668 0.0
C1926 C 0.9239 0.96734 0.38133 0.0
C1927 C 0.95229 0.98431 0.3934 0.0
C1928 C 0.90107 0.95051 0.39968 0.0
C1929 C 0.92477 0.94901 0.36191 0.0
C1930 C 0.91896 0.95601 0.33989 0.0
C1931 C 0.91666 0.94078 0.31951 0.0
C1932 C 0.91882 0.91691 0.32194 0.0
C1933 C 0.92356 0.90879 0.34449 0.0
C1934 C 0.9276 0.92561 0.36452 0.0
H1935 H 0.07732 0.89888 0.33514 0.0
H1936 H 0.07555 0.8788 0.40953 0.0
H1937 H 0.03635 0.83208 0.40226 0.0
H1938 H 0.00999 0.87497 0.33155 0.0
H1939 H 0.00527 0.86226 0.3014 0.0
H1940 H 0.03848 0.88925 0.31083 0.0
H1941 H 0.05968 0.85919 0.29754 0.0
H1942 H 0.02594 0.83164 0.28883 0.0
H1943 H 0.04642 0.82496 0.30971 0.0
H1944 H -0.00658 0.79199 0.38925 0.0
H1945 H 0.94501 0.77075 0.37662 0.0
H1946 H 0.97062 0.81734 0.31101 0.0
C1947 C 0.06915 0.88421 0.34967 0.0
C1948 C 0.07981 0.89205 0.37286 0.0
C1949 C 0.06799 0.87293 0.39166 0.0
C1950 C 0.04594 0.8462 0.38754 0.0
C1951 C 0.03557 0.83904 0.36447 0.0
C1952 C 0.04644 0.85781 0.34592 0.0
C1953 C 0.02752 0.84804 0.3245 0.0
C1954 C 0.01984 0.8699 0.31667 0.0
C1955 C 0.04068 0.84051 0.30393 0.0
C1956 C 0.00305 0.82235 0.33476 0.0
C1957 C 0.009 0.81638 0.35718 0.0
C1958 C 0.98861 0.7961 0.37159 0.0
C1959 C 0.96107 0.78383 0.36415 0.0
C1960 C 0.95437 0.7927 0.3429 0.0
C1961 C 0.9756 0.81008 0.32711 0.0
H1962 H 0.95806 0.89304 0.90738 0.0
H1963 H 0.91783 0.82998 0.85293 0.0
H1964 H 0.88299 0.84452 0.84747 0.0
H1965 H 0.89569 0.88609 0.93328 0.0
H1966 H 0.91084 0.92267 0.93894 0.0
H1967 H 0.93228 0.90697 0.9388 0.0
H1968 H 0.96383 0.9421 0.90689 0.0
H1969 H 0.94245 0.95785 0.90689 0.0
H1970 H 0.94882 0.94518 0.87948 0.0
H1971 H 0.85376 0.86679 0.84701 0.0
H1972 H 0.83089 0.89441 0.85207 0.0
H1973 H 0.88976 0.94269 0.9074 0.0
C1974 C 0.94193 0.88221 0.8943 0.0
C1975 C 0.94071 0.86038 0.88051 0.0
C1976 C 0.91916 0.84671 0.8637 0.0
C1977 C 0.89931 0.85483 0.86047 0.0
C1978 C 0.90125 0.8765 0.8743 0.0
C1979 C 0.92192 0.88992 0.89094 0.0
C1980 C 0.91944 0.91269 0.90341 0.0
C1981 C 0.91423 0.90673 0.93019 0.0
C1982 C 0.94516 0.94113 0.89888 0.0
C1983 C 0.89423 0.91017 0.89098 0.0
C1984 C 0.88412 0.88916 0.87426 0.0
C1985 C 0.86141 0.88321 0.8601 0.0
C1986 C 0.84866 0.89915 0.86306 0.0
C1987 C 0.85858 0.92079 0.88012 0.0
C1988 C 0.88164 0.92624 0.8943 0.0
H1989 H 0.11032 0.06559 0.91596 0.0
H1990 H 0.1601 0.0905 0.85178 0.0
H1991 H 0.14991 0.0422 0.84604 0.0
H1992 H 0.12934 0.01353 0.93545 0.0
H1993 H 0.09514 0.99096 0.94696 0.0
H1994 H 0.10916 0.02792 0.94717 0.0
H1995 H 0.06634 0.02164 0.92372 0.0
H1996 H 0.05235 0.98479 0.9233 0.0
H1997 H 0.05758 0.00332 0.89576 0.0
H1998 H 0.12922 0.98978 0.84506 0.0
H1999 H 0.10196 0.93887 0.84997 0.0
H2000 H 0.0673 0.9499 0.91548 0.0
C2001 C 0.11944 0.06099 0.90088 0.0
C2002 C 0.13586 0.08165 0.88423 0.0
C2003 C 0.14756 0.07492 0.8648 0.0
C2004 C 0.14187 0.04757 0.86141 0.0
C2005 C 0.12496 0.02749 0.87789 0.0
C2006 C 0.11433 0.03406 0.89747 0.0
C2007 C 0.09572 0.00871 0.91205 0.0
C2008 C 0.10808 0.01039 0.93687 0.0
C2009 C 0.06626 0.00437 0.91379 0.0
C2010 C 0.09643 0.9866 0.89704 0.0
C2011 C 0.1136 -0.00228 0.87756 0.0
C2012 C 0.11607 0.9809 0.86047 0.0
C2013 C 0.10044 0.95202 0.86336 0.0
C2014 C 0.08249 0.94033 0.88311 0.0
C2015 C 0.08092 0.95804 0.90024 0.0
H2016 H 0.90728 0.05145 0.84953 0.0
H2017 H 0.88855 0.07562 0.91708 0.0
H2018 H 0.93825 0.10863 0.92342 0.0
H2019 H 0.96308 0.04889 0.86696 0.0
H2020 H 0.98408 0.06303 0.84071 0.0
H2021 H 0.94705 0.04614 0.83847 0.0
H2022 H 0.95017 0.08987 0.81943 0.0
H2023 H 0.98737 0.10676 0.82093 0.0
H2024 H 0.96947 0.12281 0.83424 0.0
H2025 H 0.98904 0.12903 0.92688 0.0
H2026 H 0.03868 0.14411 0.92379 0.0
H2027 H 0.0255 0.1094 0.85273 0.0
C2028 C 0.91364 0.06498 0.8649 0.0
C2029 C 0.89429 0.06185 0.8825 0.0
C2030 C 0.90317 0.07858 0.90311 0.0
C2031 C 0.93133 0.09715 0.90691 0.0
C2032 C 0.95018 0.09884 0.88977 0.0
C2033 C 0.94172 0.08388 0.86879 0.0
C2034 C 0.96633 0.08765 0.85433 0.0
C2035 C 0.96504 0.05977 0.84987 0.0
C2036 C 0.96846 0.10268 0.83084 0.0
C2037 C 0.98979 0.1058 0.87101 0.0
C2038 C 0.97997 0.11196 0.89136 0.0
C2039 C -0.00284 0.12544 0.91065 0.0
C2040 C 0.0252 0.13347 0.90888 0.0
C2041 C 0.03582 0.12805 0.88795 0.0
C2042 C 0.01792 0.11425 0.86872 0.0
H2043 H 0.96809 0.88199 0.56342 0.0
H2044 H 0.92394 0.81263 0.6116 0.0
H2045 H 0.88885 0.82646 0.61811 0.0
H2046 H 0.96053 0.92954 0.59608 0.0
H2047 H 0.95554 0.94717 0.57136 0.0
H2048 H 0.97469 0.9294 0.56728 0.0
H2049 H 0.94195 0.90014 0.5332 0.0
H2050 H 0.92301 0.91825 0.53682 0.0
H2051 H 0.90517 0.88099 0.53836 0.0
H2052 H 0.8616 0.85103 0.62316 0.0
H2053 H 0.8428 0.88287 0.6242 0.0
H2054 H 0.90518 0.93629 0.57315 0.0
C2055 C 0.9506 0.86918 0.57476 0.0
C2056 C 0.94884 0.84619 0.58697 0.0
C2057 C 0.92581 0.83031 0.60199 0.0
C2058 C 0.90571 0.83799 0.60583 0.0
C2059 C 0.90873 0.86146 0.59434 0.0
C2060 C 0.93034 0.87655 0.57879 0.0
C2061 C 0.92991 0.90198 0.56996 0.0
C2062 C 0.95674 0.92859 0.57659 0.0
C2063 C 0.92468 0.90022 0.54299 0.0
C2064 C 0.9054 0.89942 0.58371 0.0
C2065 C 0.89321 0.87574 0.59743 0.0
C2066 C 0.87077 0.86948 0.61225 0.0
C2067 C 0.86034 0.88778 0.61284 0.0
C2068 C 0.87253 0.91218 0.59887 0.0
C2069 C 0.89538 0.91792 0.58417 0.0
H2070 H 0.05705 0.94791 0.58363 0.0
H2071 H 0.0638 0.93816 0.6596 0.0
H2072 H 0.0632 0.98171 0.66679 0.0
H2073 H 0.10051 0.01973 0.58181 0.0
H2074 H 0.08078 0.02477 0.55899 0.0
H2075 H 0.08066 0.99254 0.56074 0.0
H2076 H 0.02676 0.9662 0.56391 0.0
H2077 H 0.02719 -0.0013 0.56235 0.0
H2078 H 0.01071 0.97575 0.5871 0.0
H2079 H 0.06438 0.02743 0.66501 0.0
H2080 H 0.0735 0.07416 0.65416 0.0
H2081 H 0.06263 0.05105 0.57962 0.0
C2082 C 0.0584 0.95477 0.60186 0.0
C2083 C 0.06042 0.93962 0.62108 0.0
C2084 C 0.06241 0.94957 0.64459 0.0
C2085 C 0.06166 0.974 0.64886 0.0
C2086 C 0.0586 0.98781 0.62943 0.0
C2087 C 0.05727 0.97862 0.60641 0.0
C2088 C 0.05592 -0.00209 0.5884 0.0
C2089 C 0.08094 0.00942 0.57147 0.0
C2090 C 0.0285 0.98377 0.57461 0.0
C2091 C 0.05734 0.01993 0.6048 0.0
C2092 C 0.05852 0.01364 0.62845 0.0
C2093 C 0.06299 0.03236 0.64663 0.0
C2094 C 0.068 0.05875 0.64031 0.0
C2095 C 0.06852 0.06595 0.61607 0.0
C2096 C 0.06159 0.04582 0.59829 0.0
H2097 H 0.93224 0.07195 0.56835 0.0
H2098 H 0.91272 0.06113 0.64355 0.0
H2099 H 0.95372 0.10676 0.65186 0.0
H2100 H 0.00225 0.10235 0.572 0.0
H2101 H 0.00953 0.12634 0.54786 0.0
H2102 H 0.97715 0.09461 0.54874 0.0
H2103 H 0.95272 0.12335 0.5459 0.0
H2104 H 0.98497 0.15551 0.54684 0.0
H2105 H 0.95832 0.14872 0.56835 0.0
H2106 H 0.00125 0.14772 0.65246 0.0
H2107 H 0.05124 0.17732 0.64492 0.0
H2108 H 0.03609 0.1679 0.56923 0.0
C2109 C 0.93642 0.07947 0.58648 0.0
C2110 C 0.91957 0.06313 0.60532 0.0
C2111 C 0.92558 0.07343 0.62888 0.0
C2112 C 0.94856 0.09944 0.63372 0.0
C2113 C 0.96465 0.11533 0.61469 0.0
C2114 C 0.95862 0.10583 0.59148 0.0
C2115 C 0.9803 0.12583 0.57442 0.0
C2116 C -0.00692 0.11144 0.55996 0.0
C2117 C 0.96835 0.13917 0.55792 0.0
C2118 C 0.00066 0.14685 0.59182 0.0
C2119 C -0.00891 0.14079 0.61501 0.0
C2120 C 0.00864 0.15349 0.6344 0.0
C2121 C 0.03704 0.17073 0.63003 0.0
C2122 C 0.04717 0.1749 0.6065 0.0
C2123 C 0.02844 0.16547 0.58731 0.0
H2124 H 0.72743 0.33856 0.43787 0.0
H2125 H 0.79449 0.38481 0.48776 0.0
H2126 H 0.77974 0.41953 0.49184 0.0
H2127 H 0.73109 0.39731 0.40839 0.0
H2128 H 0.69417 0.38162 0.40495 0.0
H2129 H 0.70989 0.36022 0.40602 0.0
H2130 H 0.67784 0.33244 0.44111 0.0
H2131 H 0.662 0.35373 0.44014 0.0
H2132 H 0.67711 0.35055 0.46744 0.0
H2133 H 0.7582 0.44971 0.49007 0.0
H2134 H 0.73061 0.47254 0.48315 0.0
H2135 H 0.67744 0.40623 0.43488 0.0
C2136 C 0.73903 0.35596 0.44967 0.0
C2137 C 0.76214 0.35891 0.46247 0.0
C2138 C 0.77668 0.382 0.47778 0.0
C2139 C 0.7685 0.4019 0.48021 0.0
C2140 C 0.74569 0.39838 0.4673 0.0
C2141 C 0.7311 0.37596 0.45239 0.0
C2142 C 0.70729 0.37703 0.44057 0.0
C2143 C 0.71084 0.37918 0.41337 0.0
C2144 C 0.67941 0.35195 0.44775 0.0
C2145 C 0.71083 0.40357 0.45115 0.0
C2146 C 0.73313 0.41562 0.46647 0.0
C2147 C 0.74063 0.44044 0.47815 0.0
C2148 C 0.72486 0.45327 0.47409 0.0
C2149 C 0.70181 0.44118 0.45853 0.0
C2150 C 0.69483 0.41599 0.44697 0.0
H2151 H 0.50731 0.26601 0.50804 0.0
H2152 H 0.4466 0.24691 0.45255 0.0
H2153 H 0.46362 0.29657 0.44698 0.0
H2154 H 0.51173 0.33589 0.52865 0.0
H2155 H 0.54833 0.35041 0.53347 0.0
H2156 H 0.5249 0.31425 0.53941 0.0
H2157 H 0.554 0.30184 0.51156 0.0
H2158 H 0.57679 0.33758 0.50462 0.0
H2159 H 0.55901 0.31319 0.48099 0.0
H2160 H 0.4966 0.34505 0.43752 0.0
H2161 H 0.53798 0.39081 0.43077 0.0
H2162 H 0.57712 0.38017 0.49287 0.0
C2163 C 0.49646 0.27236 0.49589 0.0
C2164 C 0.47571 0.25284 0.48076 0.0
C2165 C 0.46223 0.26156 0.46458 0.0
C2166 C 0.47193 0.28981 0.46119 0.0
C2167 C 0.49449 0.3088 0.47464 0.0
C2168 C 0.50593 0.30048 0.49241 0.0
C2169 C 0.53271 0.32457 0.50161 0.0
C2170 C 0.5292 0.33171 0.52731 0.0
C2171 C 0.55702 0.31893 0.49954 0.0
C2172 C 0.53598 0.34699 0.48461 0.0
C2173 C 0.51349 0.3376 0.46948 0.0
C2174 C 0.51376 0.353 0.44987 0.0
C2175 C 0.53742 0.37866 0.44583 0.0
C2176 C 0.56033 0.38865 0.46122 0.0
C2177 C 0.55946 0.37295 0.48111 0.0
H2178 H 0.68882 0.19543 0.47307 0.0
H2179 H 0.72126 0.26346 0.52293 0.0
H2180 H 0.67435 0.25589 0.52957 0.0
H2181 H 0.65018 0.21177 0.44388 0.0
H2182 H 0.62038 0.17827 0.43836 0.0
H2183 H 0.6534 0.18115 0.44368 0.0
H2184 H 0.63394 0.14693 0.47902 0.0
H2185 H 0.60028 0.14268 0.47307 0.0
H2186 H 0.61518 0.15263 0.50237 0.0
H2187 H 0.62882 0.25167 0.52022 0.0
H2188 H 0.58392 0.24258 0.50322 0.0
H2189 H 0.58057 0.17644 0.46032 0.0
C2190 C 0.68553 0.20704 0.48689 0.0
C2191 C 0.70825 0.22948 0.49799 0.0
C2192 C 0.70381 0.24557 0.51494 0.0
C2193 C 0.67727 0.24166 0.51852 0.0
C2194 C 0.65552 0.2212 0.50533 0.0
C2195 C 0.65911 0.2033 0.49057 0.0
C2196 C 0.63351 0.18581 0.47578 0.0
C2197 C 0.63978 0.18951 0.44886 0.0
C2198 C 0.61991 0.1552 0.483 0.0
C2199 C 0.61597 0.19817 0.48315 0.0
C2200 C 0.62884 0.21843 0.50029 0.0
C2201 C 0.61803 0.23513 0.50748 0.0
C2202 C 0.59292 0.23024 0.4975 0.0
C2203 C 0.57919 0.20888 0.48066 0.0
C2204 C 0.5908 0.19272 0.47344 0.0
H2205 H 0.76403 0.37065 0.76516 0.0
H2206 H 0.82685 0.41201 0.71078 0.0
H2207 H 0.81725 0.45072 0.71073 0.0
H2208 H 0.71591 0.38772 0.74251 0.0
H2209 H 0.70465 0.39275 0.7712 0.0
H2210 H 0.71798 0.36945 0.76817 0.0
H2211 H 0.75446 0.39662 0.80086 0.0
H2212 H 0.74138 0.42022 0.8038 0.0
H2213 H 0.77745 0.43332 0.7974 0.0
H2214 H 0.79887 0.48318 0.71471 0.0
H2215 H 0.77132 0.50611 0.72083 0.0
H2216 H 0.72091 0.44387 0.77303 0.0
C2217 C 0.77591 0.38786 0.75328 0.0
C2218 C 0.79619 0.38825 0.73791 0.0
C2219 C 0.81121 0.41122 0.72268 0.0
C2220 C 0.80603 0.43338 0.72264 0.0
C2221 C 0.78597 0.43232 0.73808 0.0
C2222 C 0.77113 0.41015 0.7531 0.0
C2223 C 0.74971 0.4134 0.76709 0.0
C2224 C 0.72033 0.38942 0.76192 0.0
C2225 C 0.75614 0.41605 0.79388 0.0
C2226 C 0.75415 0.44043 0.75695 0.0
C2227 C 0.77546 0.4512 0.74052 0.0
C2228 C 0.78236 0.47512 0.72771 0.0
C2229 C 0.76655 0.48793 0.73127 0.0
C2230 C 0.74409 0.47675 0.74745 0.0
C2231 C 0.7383 0.45312 0.7609 0.0
H2232 H 0.50917 0.28051 0.72526 0.0
H2233 H 0.57244 0.26129 0.7465 0.0
H2234 H 0.60724 0.31095 0.74623 0.0
H2235 H 0.55306 0.34109 0.6876 0.0
H2236 H 0.53716 0.36057 0.6977 0.0
H2237 H 0.51735 0.32329 0.69686 0.0
H2238 H 0.50546 0.3223 0.74153 0.0
H2239 H 0.52518 0.35953 0.7425 0.0
H2240 H 0.53307 0.33945 0.76283 0.0
H2241 H 0.63432 0.36084 0.74533 0.0
H2242 H 0.65331 0.41078 0.74735 0.0
H2243 H 0.57304 0.40057 0.72888 0.0
C2244 C 0.53049 0.28695 0.72945 0.0
C2245 C 0.53844 0.26736 0.73567 0.0
C2246 C 0.56618 0.27618 0.74167 0.0
C2247 C 0.58604 0.30424 0.74142 0.0
C2248 C 0.57765 0.32314 0.73543 0.0
C2249 C 0.55059 0.31512 0.72981 0.0
C2250 C 0.54704 0.3402 0.7262 0.0
C2251 C 0.53813 0.34135 0.70056 0.0
C2252 C 0.52647 0.34038 0.74435 0.0
C2253 C 0.57632 0.36347 0.73098 0.0
C2254 C 0.59349 0.35283 0.73588 0.0
C2255 C 0.62117 0.3695 0.74154 0.0
C2256 C 0.63166 0.39791 0.74278 0.0
C2257 C 0.61455 0.40961 0.73859 0.0
C2258 C 0.58657 0.3922 0.73209 0.0
H2259 H 0.58277 0.19119 0.76584 0.0
H2260 H 0.56621 0.15455 0.69534 0.0
H2261 H 0.6164 0.17273 0.68962 0.0
H2262 H 0.63972 0.25255 0.75111 0.0
H2263 H 0.65877 0.25662 0.77814 0.0
H2264 H 0.62162 0.23691 0.77838 0.0
H2265 H 0.62294 0.19437 0.79533 0.0
H2266 H 0.6602 0.2141 0.79557 0.0
H2267 H 0.64265 0.18145 0.78011 0.0
H2268 H 0.66864 0.20016 0.68986 0.0
H2269 H 0.71834 0.23212 0.6966 0.0
H2270 H 0.70007 0.25119 0.76692 0.0
C2271 C 0.58955 0.18635 0.74938 0.0
C2272 C 0.57058 0.17145 0.731 0.0
C2273 C 0.58035 0.16569 0.70973 0.0
C2274 C 0.60881 0.17602 0.70632 0.0
C2275 C 0.62703 0.19169 0.72448 0.0
C2276 C 0.6177 0.19643 0.74575 0.0
C2277 C 0.64141 0.21556 0.76179 0.0
C2278 C 0.6403 0.24196 0.76768 0.0
C2279 C 0.64182 0.20046 0.78454 0.0
C2280 C 0.66565 0.2218 0.74587 0.0
C2281 C 0.65699 0.20758 0.72456 0.0
C2282 C 0.67565 0.21106 0.70661 0.0
C2283 C 0.70385 0.22941 0.7106 0.0
C2284 C 0.71318 0.24426 0.73231 0.0
C2285 C 0.69369 0.24019 0.75015 0.0
H2286 H 0.58196 0.20531 0.2181 0.0
H2287 H 0.64025 0.24521 0.27604 0.0
H2288 H 0.62041 0.27497 0.28375 0.0
H2289 H 0.58385 0.26693 0.19664 0.0
H2290 H 0.54754 0.24996 0.18945 0.0
H2291 H 0.56562 0.23077 0.18866 0.0
H2292 H 0.52998 0.19494 0.21813 0.0
H2293 H 0.51185 0.2141 0.21901 0.0
H2294 H 0.52391 0.20663 0.24623 0.0
H2295 H 0.59497 0.30056 0.28563 0.0
H2296 H 0.56639 0.32235 0.28004 0.0
H2297 H 0.52474 0.26721 0.22055 0.0
C2298 C 0.5905 0.22028 0.2324 0.0
C2299 C 0.61273 0.22285 0.24638 0.0
C2300 C 0.62335 0.24282 0.26492 0.0
C2301 C 0.61214 0.25982 0.26958 0.0
C2302 C 0.59032 0.25677 0.25555 0.0
C2303 C 0.57963 0.23768 0.23726 0.0
C2304 C 0.55654 0.23937 0.22457 0.0
C2305 C 0.56384 0.24723 0.19827 0.0
C2306 C 0.52894 0.21213 0.22715 0.0
C2307 C 0.55627 0.26256 0.23848 0.0
C2308 C 0.57576 0.27204 0.25641 0.0
C2309 C 0.57959 0.29336 0.27165 0.0
C2310 C 0.56322 0.30558 0.26833 0.0
C2311 C 0.54336 0.29657 0.24982 0.0
C2312 C 0.53979 0.27463 0.23482 0.0
H2313 H 0.79161 0.37819 0.18344 0.0
H2314 H 0.85827 0.39657 0.23242 0.0
H2315 H 0.8425 0.34665 0.23568 0.0
H2316 H 0.7437 0.32963 0.21357 0.0
H2317 H 0.72308 0.30633 0.19017 0.0
H2318 H 0.74477 0.34242 0.18389 0.0
H2319 H 0.77015 0.33168 0.15067 0.0
H2320 H 0.74776 0.29521 0.15612 0.0
H2321 H 0.78477 0.30995 0.15701 0.0
H2322 H 0.81207 0.29598 0.2427 0.0
H2323 H 0.7723 0.24902 0.24966 0.0
H2324 H 0.72435 0.26394 0.19741 0.0
C2325 C 0.80395 0.37166 0.19345 0.0
C2326 C 0.82639 0.39093 0.20726 0.0
C2327 C 0.84155 0.38203 0.22114 0.0
C2328 C 0.83253 0.35368 0.22323 0.0
C2329 C 0.80868 0.33482 0.21099 0.0
C2330 C 0.79502 0.34353 0.19577 0.0
C2331 C 0.76732 0.31967 0.18807 0.0
C2332 C 0.74335 0.32485 0.19433 0.0
C2333 C 0.76753 0.31378 0.16138 0.0
C2334 C 0.76636 0.29667 0.20292 0.0
C2335 C 0.79065 0.30554 0.21554 0.0
C2336 C 0.79324 0.28872 0.23252 0.0
C2337 C 0.77041 0.26238 0.23678 0.0
C2338 C 0.74529 0.2535 0.22449 0.0
C2339 C 0.74352 0.27046 0.20691 0.0
H2340 H 0.71095 0.42617 0.25016 0.0
H2341 H 0.72379 0.42786 0.1739 0.0
H2342 H 0.67907 0.4258 0.16705 0.0
H2343 H 0.63671 0.37934 0.24968 0.0
H2344 H 0.631 0.39753 0.27353 0.0
H2345 H 0.66324 0.39767 0.27167 0.0
H2346 H 0.6898 0.45158 0.27148 0.0
H2347 H 0.65731 0.45102 0.27366 0.0
H2348 H 0.68099 0.46966 0.24981 0.0
H2349 H 0.63346 0.42475 0.16869 0.0
H2350 H 0.587 0.417 0.17873 0.0
H2351 H 0.60595 0.41885 0.25384 0.0
C2352 C 0.70397 0.42527 0.23203 0.0
C2353 C 0.72059 0.42688 0.21255 0.0
C2354 C 0.71115 0.42643 0.18906 0.0
C2355 C 0.68597 0.42556 0.18499 0.0
C2356 C 0.67068 0.42535 0.20462 0.0
C2357 C 0.67909 0.42472 0.22765 0.0
C2358 C 0.65892 0.42454 0.24564 0.0
C2359 C 0.64674 0.3982 0.26102 0.0
C2360 C 0.67254 0.45078 0.26106 0.0
C2361 C 0.63758 0.42459 0.22915 0.0
C2362 C 0.64485 0.42545 0.20555 0.0
C2363 C 0.62756 0.42421 0.18711 0.0
C2364 C 0.60136 0.42018 0.19298 0.0
C2365 C 0.59288 0.41729 0.21705 0.0
C2366 C 0.61189 0.42111 0.23527 0.0
H2367 H 0.59521 0.22315 0.91601 0.0
H2368 H 0.55163 0.16529 0.97327 0.0
H2369 H 0.51701 0.18037 0.97401 0.0
H2370 H 0.58603 0.2772 0.93927 0.0
H2371 H 0.58207 0.28923 0.91059 0.0
H2372 H 0.60225 0.27237 0.91339 0.0
H2373 H 0.57149 0.23591 0.88145 0.0
H2374 H 0.55221 0.25377 0.87849 0.0
H2375 H 0.53445 0.21741 0.88527 0.0
H2376 H 0.48783 0.20314 0.96963 0.0
H2377 H 0.46929 0.23473 0.96241 0.0
H2378 H 0.53189 0.27687 0.90808 0.0
C2379 C 0.57831 0.21354 0.9286 0.0
C2380 C 0.57622 0.1931 0.94458 0.0
C2381 C 0.55386 0.18119 0.96093 0.0
C2382 C 0.5339 0.18942 0.96139 0.0
C2383 C 0.53652 0.20959 0.94538 0.0
C2384 C 0.55825 0.22161 0.92938 0.0
C2385 C 0.55742 0.24422 0.91524 0.0
C2386 C 0.58348 0.27241 0.91992 0.0
C2387 C 0.55368 0.23739 0.88853 0.0
C2388 C 0.5319 0.24299 0.92581 0.0
C2389 C 0.51991 0.22278 0.94302 0.0
C2390 C 0.49689 0.21891 0.95602 0.0
C2391 C 0.48638 0.2368 0.95174 0.0
C2392 C 0.49912 0.25826 0.93475 0.0
C2393 C 0.52162 0.26069 0.92123 0.0
H2394 H 0.70956 0.25536 0.97806 0.0
H2395 H 0.74097 0.23091 0.91797 0.0
H2396 H 0.77508 0.28005 0.90996 0.0
H2397 H 0.71127 0.31111 0.95328 0.0
H2398 H 0.7226 0.33346 0.97896 0.0
H2399 H 0.70424 0.29653 0.98281 0.0
H2400 H 0.74439 0.29941 0.00807 0.0
H2401 H 0.7627 0.33654 0.00484 0.0
H2402 H 0.77908 0.31699 0.9963 0.0
H2403 H 0.79778 0.33141 0.90348 0.0
H2404 H 0.81389 0.38162 0.90315 0.0
H2405 H 0.77117 0.37317 0.96971 0.0
C2406 C 0.72467 0.2604 0.96406 0.0
C2407 C 0.72336 0.23953 0.94901 0.0
C2408 C 0.74245 0.24668 0.93012 0.0
C2409 C 0.76166 0.27453 0.92533 0.0
C2410 C 0.76178 0.29482 0.93996 0.0
C2411 C 0.74438 0.28807 0.95942 0.0
C2412 C 0.74738 0.3138 0.97138 0.0
C2413 C 0.71973 0.3137 0.9716 0.0
C2414 C 0.75909 0.31687 0.99665 0.0
C2415 C 0.76815 0.336 0.95498 0.0
C2416 C 0.7761 0.32463 0.93688 0.0
C2417 C 0.79252 0.34066 0.91801 0.0
C2418 C 0.80136 0.36906 0.91785 0.0
C2419 C 0.79412 0.38116 0.93662 0.0
C2420 C 0.77753 0.36444 0.95548 0.0
H2421 H 0.71946 0.43271 0.91099 0.0
H2422 H 0.73985 0.48988 0.9701 0.0
H2423 H 0.6901 0.47339 0.97606 0.0
H2424 H 0.66223 0.43984 0.88828 0.0
H2425 H 0.64196 0.40387 0.88009 0.0
H2426 H 0.67918 0.42088 0.87967 0.0
H2427 H 0.67803 0.38376 0.90796 0.0
H2428 H 0.64084 0.36634 0.90846 0.0
H2429 H 0.66 0.37701 0.93595 0.0
H2430 H 0.63838 0.44809 0.97752 0.0
H2431 H 0.58801 0.41798 0.9728 0.0
H2432 H 0.60168 0.37835 0.9119 0.0
C2433 C 0.71352 0.44192 0.92512 0.0
C2434 C 0.73346 0.46246 0.9402 0.0
C2435 C 0.72488 0.47415 0.95833 0.0
C2436 C 0.69672 0.4649 0.96185 0.0
C2437 C 0.67759 0.44428 0.94689 0.0
C2438 C 0.68563 0.43317 0.92871 0.0
C2439 C 0.66099 0.41092 0.91536 0.0
C2440 C 0.66109 0.41939 0.88931 0.0
C2441 C 0.65991 0.38285 0.91705 0.0
C2442 C 0.63774 0.41077 0.92926 0.0
C2443 C 0.64777 0.43016 0.94736 0.0
C2444 C 0.63027 0.43302 0.96328 0.0
C2445 C 0.60173 0.41568 0.96055 0.0
C2446 C 0.59102 0.39584 0.94198 0.0
C2447 C 0.60931 0.39347 0.92613 0.0
H2448 H 0.44483 0.72947 0.76592 0.0
H2449 H 0.44976 0.72068 0.84229 0.0
H2450 H 0.44404 0.76111 0.84896 0.0
H2451 H 0.48011 0.8049 0.76427 0.0
H2452 H 0.45734 0.80572 0.74195 0.0
H2453 H 0.46398 0.77726 0.74281 0.0
H2454 H 0.4117 0.74211 0.74575 0.0
H2455 H 0.40476 0.77025 0.74415 0.0
H2456 H 0.39155 0.74634 0.76873 0.0
H2457 H 0.43472 0.80054 0.84775 0.0
H2458 H 0.41493 0.8305 0.83858 0.0
H2459 H 0.41736 0.81463 0.76338 0.0
C2460 C 0.44463 0.73598 0.78405 0.0
C2461 C 0.44779 0.72185 0.80353 0.0
C2462 C 0.44741 0.73112 0.82699 0.0
C2463 C 0.44448 0.7543 0.83101 0.0
C2464 C 0.44202 0.76813 0.81143 0.0
C2465 C 0.44164 0.75907 0.78842 0.0
C2466 C 0.4361 0.77603 0.77064 0.0
C2467 C 0.46088 0.79195 0.75394 0.0
C2468 C 0.40944 0.75759 0.75651 0.0
C2469 C 0.43271 0.7955 0.78728 0.0
C2470 C 0.43674 0.79103 0.81073 0.0
C2471 C 0.43196 0.80463 0.82944 0.0
C2472 C 0.42105 0.8219 0.82409 0.0
C2473 C 0.41486 0.82497 0.80031 0.0
C2474 C 0.42235 0.81294 0.78171 0.0
H2475 H 0.19541 0.60077 0.80909 0.0
H2476 H 0.20022 0.58503 0.73407 0.0
H2477 H 0.23165 0.63459 0.72723 0.0
H2478 H 0.199 0.66976 0.79861 0.0
H2479 H 0.21887 0.68429 0.82535 0.0
H2480 H 0.19402 0.64783 0.82387 0.0
H2481 H 0.23268 0.63713 0.8355 0.0
H2482 H 0.25781 0.67349 0.83622 0.0
H2483 H 0.26342 0.65055 0.81742 0.0
H2484 H 0.26833 0.68326 0.72948 0.0
H2485 H 0.30019 0.73234 0.73865 0.0
H2486 H 0.26972 0.71848 0.8114 0.0
C2487 C 0.20232 0.608 0.79115 0.0
C2488 C 0.19578 0.58917 0.77218 0.0
C2489 C 0.20538 0.5992 0.74891 0.0
C2490 C 0.22329 0.62726 0.74482 0.0
C2491 C 0.23098 0.64511 0.7641 0.0
C2492 C 0.22009 0.63625 0.78662 0.0
C2493 C 0.23224 0.66018 0.80407 0.0
C2494 C 0.20969 0.66585 0.81353 0.0
C2495 C 0.24744 0.65501 0.8245 0.0
C2496 C 0.25231 0.68334 0.78796 0.0
C2497 C 0.2514 0.67402 0.76507 0.0
C2498 C 0.2689 0.69106 0.74723 0.0
C2499 C 0.28701 0.71887 0.75264 0.0
C2500 C 0.28708 0.72939 0.77557 0.0
C2501 C 0.26995 0.71117 0.7936 0.0
H2502 H 0.38592 0.5794 0.82007 0.0
H2503 H 0.40916 0.57014 0.74871 0.0
H2504 H 0.36009 0.53811 0.73885 0.0
H2505 H 0.32232 0.50624 0.82551 0.0
H2506 H 0.30387 0.51996 0.8416 0.0
H2507 H 0.34084 0.5357 0.84483 0.0
H2508 H 0.34619 0.583 0.83293 0.0
H2509 H 0.30948 0.56743 0.82906 0.0
H2510 H 0.33242 0.58622 0.80485 0.0
H2511 H 0.30917 0.51657 0.73411 0.0
H2512 H 0.25989 0.50353 0.73606 0.0
H2513 H 0.2695 0.52636 0.81064 0.0
C2514 C 0.38063 0.56923 0.8029 0.0
C2515 C 0.401 0.57627 0.78532 0.0
C2516 C 0.39363 0.56408 0.76252 0.0
C2517 C 0.36588 0.54601 0.75677 0.0
C2518 C 0.34592 0.54041 0.77413 0.0
C2519 C 0.35297 0.5512 0.79692 0.0
C2520 C 0.32759 0.54518 0.81121 0.0
C2521 C 0.3234 0.5256 0.83202 0.0
C2522 C 0.32903 0.57206 0.82 0.0
C2523 C 0.30544 0.53092 0.7925 0.0
C2524 C 0.31632 0.52797 0.77133 0.0
C2525 C 0.30029 0.51812 0.75076 0.0
C2526 C 0.27244 0.51109 0.75193 0.0
C2527 C 0.26099 0.51393 0.77347 0.0
C2528 C 0.27765 0.52357 0.79403 0.0
H2529 H 0.3756 0.76587 0.11697 0.0
H2530 H 0.41521 0.81884 0.05596 0.0
H2531 H 0.44538 0.79871 0.05137 0.0
H2532 H 0.43764 0.76691 0.14052 0.0
H2533 H 0.4186 0.73109 0.14925 0.0
H2534 H 0.40176 0.75151 0.14886 0.0
H2535 H 0.36398 0.71517 0.12086 0.0
H2536 H 0.38111 0.69508 0.12101 0.0
H2537 H 0.37418 0.7065 0.09319 0.0
H2538 H 0.46996 0.77219 0.05223 0.0
H2539 H 0.48637 0.73886 0.05759 0.0
H2540 H 0.43034 0.70241 0.11749 0.0
C2541 C 0.39083 0.77335 0.10284 0.0
C2542 C 0.3931 0.79378 0.08681 0.0
C2543 C 0.413 0.80295 0.06831 0.0
C2544 C 0.43038 0.79184 0.06565 0.0
C2545 C 0.42755 0.7716 0.08161 0.0
C2546 C 0.40828 0.76233 0.09981 0.0
C2547 C 0.4085 0.73918 0.11359 0.0
C2548 C 0.41714 0.7477 0.13959 0.0
C2549 C 0.38027 0.7124 0.11205 0.0
C2550 C 0.43055 0.73666 0.09998 0.0
C2551 C 0.4415 0.75581 0.08182 0.0
C2552 C 0.46171 0.75714 0.06646 0.0
C2553 C 0.47087 0.73814 0.06963 0.0
C2554 C 0.45955 0.71801 0.08787 0.0
C2555 C 0.43931 0.7175 0.10332 0.0
H2556 H 0.27825 0.73474 0.11974 0.0
H2557 H 0.23456 0.75197 0.06442 0.0
H2558 H 0.20657 0.70177 0.05605 0.0
H2559 H 0.28371 0.68348 0.08762 0.0
H2560 H 0.27993 0.66262 0.11337 0.0
H2561 H 0.29457 0.69945 0.11646 0.0
H2562 H 0.25847 0.69119 0.1482 0.0
H2563 H 0.24174 0.65413 0.14507 0.0
H2564 H 0.22228 0.67173 0.14121 0.0
H2565 H 0.18767 0.65087 0.0507 0.0
H2566 H 0.17393 0.60153 0.05224 0.0
H2567 H 0.22992 0.61778 0.11148 0.0
C2568 C 0.26241 0.72805 0.10616 0.0
C2569 C 0.25856 0.74729 0.09269 0.0
C2570 C 0.23769 0.73759 0.07507 0.0
C2571 C 0.2219 0.70918 0.07008 0.0
C2572 C 0.2273 0.69099 0.08293 0.0
C2573 C 0.24678 0.70001 0.10084 0.0
C2574 C 0.24956 0.67654 0.11136 0.0
C2575 C 0.27866 0.68079 0.10693 0.0
C2576 C 0.24256 0.67314 0.13803 0.0
C2577 C 0.22811 0.65262 0.09685 0.0
C2578 C 0.21602 0.66156 0.08018 0.0
C2579 C 0.19681 0.6436 0.06377 0.0
C2580 C 0.18933 0.61567 0.0647 0.0
C2581 C 0.2009 0.60592 0.08202 0.0
C2582 C 0.22062 0.62469 0.09822 0.0
H2583 H 0.25663 0.53845 0.1229 0.0
H2584 H 0.23898 0.47649 0.0685 0.0
H2585 H 0.28783 0.48762 0.06997 0.0
H2586 H 0.31774 0.58796 0.10071 0.0
H2587 H 0.33476 0.60104 0.12889 0.0
H2588 H 0.29776 0.58438 0.12704 0.0
H2589 H 0.29358 0.55009 0.15988 0.0
H2590 H 0.3307 0.5659 0.16164 0.0
H2591 H 0.30973 0.52935 0.15584 0.0
H2592 H 0.3395 0.51038 0.07307 0.0
H2593 H 0.38943 0.54312 0.07658 0.0
H2594 H 0.37296 0.59087 0.12838 0.0
C2595 C 0.26277 0.52669 0.11162 0.0
C2596 C 0.24396 0.5066 0.09551 0.0
C2597 C 0.25297 0.49185 0.08105 0.0
C2598 C 0.28064 0.49798 0.08184 0.0
C2599 C 0.29882 0.51859 0.09743 0.0
C2600 C 0.29014 0.53254 0.11221 0.0
C2601 C 0.31411 0.55584 0.12543 0.0
C2602 C 0.31621 0.58395 0.12018 0.0
C2603 C 0.3119 0.54995 0.15229 0.0
C2604 C 0.33795 0.55402 0.11465 0.0
C2605 C 0.32867 0.53194 0.09905 0.0
C2606 C 0.34694 0.52743 0.08553 0.0
C2607 C 0.3753 0.54631 0.08754 0.0
C2608 C 0.38518 0.56966 0.10278 0.0
C2609 C 0.36619 0.57305 0.1169 0.0
H2610 H 0.26835 0.54444 0.60484 0.0
H2611 H 0.2382 0.49518 0.5405 0.0
H2612 H 0.20432 0.51129 0.53532 0.0
H2613 H 0.20149 0.53665 0.62549 0.0
H2614 H 0.21956 0.57175 0.63643 0.0
H2615 H 0.23666 0.55167 0.63586 0.0
H2616 H 0.27615 0.59187 0.61149 0.0
H2617 H 0.25757 0.6105 0.61099 0.0
H2618 H 0.26794 0.60175 0.58345 0.0
H2619 H 0.17838 0.53776 0.53482 0.0
H2620 H 0.16077 0.57021 0.5398 0.0
H2621 H 0.20904 0.60185 0.60454 0.0
C2622 C 0.25432 0.53659 0.58983 0.0
C2623 C 0.2559 0.5187 0.57297 0.0
C2624 C 0.23715 0.50882 0.55366 0.0
C2625 C 0.21793 0.51788 0.5506 0.0
C2626 C 0.21767 0.53639 0.56721 0.0
C2627 C 0.23521 0.54532 0.58659 0.0
C2628 C 0.23259 0.56676 0.60097 0.0
C2629 C 0.22189 0.55603 0.62617 0.0
C2630 C 0.2602 0.59434 0.60175 0.0
C2631 C 0.21129 0.5692 0.58631 0.0
C2632 C 0.20276 0.55142 0.567 0.0
C2633 C 0.18457 0.55143 0.55007 0.0
C2634 C 0.17486 0.57008 0.55298 0.0
C2635 C 0.1835 0.58851 0.57262 0.0
C2636 C 0.20178 0.58781 0.58951 0.0
H2637 H 0.43902 0.73654 0.60903 0.0
H2638 H 0.49765 0.75619 0.5512 0.0
H2639 H 0.48061 0.70621 0.54557 0.0
H2640 H 0.44288 0.67799 0.63274 0.0
H2641 H 0.40647 0.65835 0.63945 0.0
H2642 H 0.42436 0.69563 0.64043 0.0
H2643 H 0.38987 0.6968 0.61052 0.0
H2644 H 0.37121 0.65958 0.60958 0.0
H2645 H 0.38393 0.6791 0.58241 0.0
H2646 H 0.45431 0.65457 0.54395 0.0
H2647 H 0.42165 0.60455 0.547 0.0
H2648 H 0.38067 0.61919 0.60633 0.0
C2649 C 0.44859 0.73047 0.59531 0.0
C2650 C 0.46961 0.75021 0.58046 0.0
C2651 C 0.48154 0.74136 0.56278 0.0
C2652 C 0.47204 0.71309 0.55949 0.0
C2653 C 0.45089 0.69421 0.5742 0.0
C2654 C 0.43945 0.70255 0.59186 0.0
C2655 C 0.41596 0.67821 0.60444 0.0
C2656 C 0.42283 0.67749 0.63083 0.0
C2657 C 0.38864 0.67845 0.60155 0.0
C2658 C 0.4155 0.65473 0.59071 0.0
C2659 C 0.43588 0.6644 0.57344 0.0
C2660 C 0.43848 0.64672 0.55757 0.0
C2661 C 0.41968 0.61838 0.55935 0.0
C2662 C 0.39856 0.60806 0.57687 0.0
C2663 C 0.39669 0.62649 0.59288 0.0
H2664 H 0.3779 0.77818 0.60687 0.0
H2665 H 0.39427 0.84009 0.55277 0.0
H2666 H 0.34418 0.81795 0.54451 0.0
H2667 H 0.32466 0.72122 0.57545 0.0
H2668 H 0.30441 0.70493 0.60167 0.0
H2669 H 0.34139 0.7264 0.60394 0.0
H2670 H 0.33538 0.75673 0.63574 0.0
H2671 H 0.29838 0.73526 0.63365 0.0
H2672 H 0.31438 0.77208 0.62904 0.0
H2673 H 0.2919 0.78836 0.54199 0.0
H2674 H 0.2421 0.75358 0.5453 0.0
H2675 H 0.26131 0.71118 0.60039 0.0
C2676 C 0.37101 0.78729 0.59342 0.0
C2677 C 0.39001 0.81092 0.58053 0.0
C2678 C 0.38008 0.82197 0.56289 0.0
C2679 C 0.35168 0.80957 0.55808 0.0
C2680 C 0.33355 0.78612 0.57099 0.0
C2681 C 0.34286 0.77512 0.58829 0.0
C2682 C 0.31933 0.74942 0.59928 0.0
C2683 C 0.32265 0.724 0.5948 0.0
C2684 C 0.31672 0.75364 0.62601 0.0
C2685 C 0.29529 0.7476 0.58541 0.0
C2686 C 0.30378 0.76897 0.56925 0.0
C2687 C 0.28501 0.77152 0.55458 0.0
C2688 C 0.2568 0.75169 0.55658 0.0
C2689 C 0.24779 0.72959 0.57301 0.0
C2690 C 0.26744 0.72767 0.58751 0.0
H2691 H 0.26237 0.56448 0.26444 0.0
H2692 H 0.22385 0.50929 0.32438 0.0
H2693 H 0.18999 0.52549 0.32773 0.0
H2694 H 0.25686 0.62014 0.2881 0.0
H2695 H 0.25076 0.63096 0.25963 0.0
H2696 H 0.27055 0.6136 0.26136 0.0
H2697 H 0.23686 0.5762 0.23155 0.0
H2698 H 0.21754 0.59409 0.22969 0.0
H2699 H 0.20026 0.55808 0.23772 0.0
H2700 H 0.16153 0.54967 0.32524 0.0
H2701 H 0.1433 0.58161 0.31853 0.0
H2702 H 0.20081 0.61912 0.25981 0.0
C2703 C 0.24671 0.5556 0.27819 0.0
C2704 C 0.24567 0.53563 0.29411 0.0
C2705 C 0.22507 0.52478 0.31205 0.0
C2706 C 0.20563 0.53365 0.31396 0.0
C2707 C 0.20717 0.55329 0.29779 0.0
C2708 C 0.22731 0.56417 0.28033 0.0
C2709 C 0.22586 0.58628 0.26608 0.0
C2710 C 0.25258 0.6144 0.26899 0.0
C2711 C 0.21976 0.57813 0.23971 0.0
C2712 C 0.20168 0.58611 0.27817 0.0
C2713 C 0.191 0.56699 0.29638 0.0
C2714 C 0.16954 0.56454 0.31085 0.0
C2715 C 0.15926 0.58265 0.30689 0.0
C2716 C 0.17066 0.60285 0.2887 0.0
C2717 C 0.19159 0.60393 0.27389 0.0
H2718 H 0.43673 0.72538 0.26223 0.0
H2719 H 0.48606 0.73894 0.32582 0.0
H2720 H 0.46718 0.6886 0.32964 0.0
H2721 H 0.37739 0.6673 0.283 0.0
H2722 H 0.36804 0.64949 0.25481 0.0
H2723 H 0.38781 0.68667 0.2556 0.0
H2724 H 0.42521 0.68542 0.2295 0.0
H2725 H 0.40637 0.64816 0.22904 0.0
H2726 H 0.44168 0.6664 0.23932 0.0
H2727 H 0.44076 0.63662 0.32796 0.0
H2728 H 0.40665 0.58693 0.32194 0.0
H2729 H 0.37451 0.60818 0.26009 0.0
C2730 C 0.4439 0.71779 0.27673 0.0
C2731 C 0.46286 0.736 0.29368 0.0
C2732 C 0.47142 0.72528 0.31266 0.0
C2733 C 0.46101 0.69677 0.31489 0.0
C2734 C 0.44214 0.67933 0.29798 0.0
C2735 C 0.43364 0.68943 0.27928 0.0
C2736 C 0.41157 0.66627 0.26458 0.0
C2737 C 0.38462 0.66751 0.26452 0.0
C2738 C 0.42184 0.66659 0.23911 0.0
C2739 C 0.40838 0.64162 0.27839 0.0
C2740 C 0.42652 0.64946 0.29732 0.0
C2741 C 0.42658 0.63017 0.31308 0.0
C2742 C 0.40721 0.60208 0.30956 0.0
C2743 C 0.38791 0.59388 0.29071 0.0
C2744 C 0.38891 0.6139 0.27478 0.0
H2745 H 0.27219 0.72332 0.2628 0.0
H2746 H 0.25486 0.76473 0.32013 0.0
H2747 H 0.3047 0.79649 0.32556 0.0
H2748 H 0.33139 0.72646 0.29044 0.0
H2749 H 0.3503 0.73214 0.26306 0.0
H2750 H 0.31307 0.71335 0.26278 0.0
H2751 H 0.31287 0.74786 0.23178 0.0
H2752 H 0.35013 0.76619 0.23188 0.0
H2753 H 0.33183 0.78444 0.23812 0.0
H2754 H 0.35628 0.82361 0.32522 0.0
H2755 H 0.40658 0.84236 0.32051 0.0
H2756 H 0.39026 0.78285 0.26403 0.0
C2757 C 0.27892 0.73916 0.2764 0.0
C2758 C 0.25966 0.74153 0.29102 0.0
C2759 C 0.26925 0.76235 0.30881 0.0
C2760 C 0.29752 0.78065 0.31196 0.0
C2761 C 0.31597 0.77783 0.29725 0.0
C2762 C 0.30714 0.75753 0.27992 0.0
C2763 C 0.33142 0.75818 0.26733 0.0
C2764 C 0.33154 0.73092 0.27114 0.0
C2765 C 0.33154 0.76455 0.24071 0.0
C2766 C 0.35514 0.782 0.28031 0.0
C2767 C 0.34581 0.7932 0.29736 0.0
C2768 C 0.36391 0.81509 0.31187 0.0
C2769 C 0.39242 0.82563 0.30905 0.0
C2770 C 0.40239 0.81408 0.29197 0.0
C2771 C 0.38338 0.79218 0.2773 0.0
H2772 H 0.93008 0.11992 0.2765 0.0
H2773 H 0.01527 0.18097 0.2928 0.0
H2774 H 0.02276 0.19573 0.25069 0.0
H2775 H 0.94382 0.0997 0.22068 0.0
H2776 H 0.91253 0.09479 0.20689 0.0
H2777 H 0.91354 0.09033 0.23851 0.0
H2778 H 0.89795 0.12642 0.2457 0.0
H2779 H 0.89706 0.13113 0.21406 0.0
H2780 H 0.91767 0.16051 0.23294 0.0
H2781 H 0.02121 0.20294 0.20684 0.0
H2782 H 0.01204 0.20013 0.16382 0.0
H2783 H 0.9279 0.13364 0.17603 0.0
C2784 C 0.95029 0.13657 0.27132 0.0
C2785 C 0.97208 0.14941 0.288 0.0
C2786 C -0.00172 0.17083 0.28035 0.0
C2787 C 0.00268 0.17945 0.25651 0.0
C2788 C 0.98069 0.16637 0.24059 0.0
C2789 C 0.95507 0.14527 0.24763 0.0
C2790 C 0.93531 0.13361 0.22679 0.0
C2791 C 0.92575 0.10279 0.223 0.0
C2792 C 0.91053 0.13821 0.23008 0.0
C2793 C 0.95393 0.15126 0.2068 0.0
C2794 C 0.97991 0.17022 0.21521 0.0
C2795 C 0.00092 0.18825 0.20007 0.0
C2796 C -0.00454 0.18645 0.17562 0.0
C2797 C 0.96922 0.16662 0.16647 0.0
C2798 C 0.94808 0.14917 0.18242 0.0
H2799 H 0.86069 0.77079 0.27917 0.0
H2800 H 0.79823 0.79155 0.29957 0.0
H2801 H 0.78563 0.79054 0.25731 0.0
H2802 H 0.88478 0.81435 0.23081 0.0
H2803 H 0.89155 0.79215 0.21207 0.0
H2804 H 0.89243 0.78941 0.24389 0.0
H2805 H 0.85594 0.73725 0.24167 0.0
H2806 H 0.85515 0.73972 0.20973 0.0
H2807 H 0.82359 0.72641 0.22663 0.0
H2808 H 0.78357 0.79276 0.21339 0.0
H2809 H 0.79179 0.79815 0.17031 0.0
H2810 H 0.85685 0.77742 0.17773 0.0
C2811 C 0.84369 0.77415 0.27481 0.0
C2812 C 0.83011 0.78085 0.29266 0.0
C2813 C 0.80868 0.78613 0.28618 0.0
C2814 C 0.80137 0.78555 0.26225 0.0
C2815 C 0.81578 0.77977 0.24503 0.0
C2816 C 0.83642 0.77404 0.25097 0.0
C2817 C 0.85066 0.77142 0.22892 0.0
C2818 C 0.88168 0.79313 0.22894 0.0
C2819 C 0.84605 0.74194 0.2266 0.0
C2820 C 0.83532 0.77735 0.20968 0.0
C2821 C 0.81505 0.78171 0.21942 0.0
C2822 C 0.79913 0.78905 0.20551 0.0
C2823 C 0.80412 0.79221 0.18102 0.0
C2824 C 0.82503 0.78823 0.17054 0.0
C2825 C 0.84057 0.78035 0.18512 0.0
H2826 H 0.1579 0.96061 0.28216 0.0
H2827 H 0.21552 0.04349 0.30681 0.0
H2828 H 0.22598 0.05986 0.26532 0.0
H2829 H 0.19683 0.96359 0.2262 0.0
H2830 H 0.16528 0.94433 0.20947 0.0
H2831 H 0.16573 0.9381 0.24089 0.0
H2832 H 0.12536 0.9478 0.24715 0.0
H2833 H 0.12508 0.95453 0.21588 0.0
H2834 H 0.12917 0.98032 0.23737 0.0
H2835 H 0.22525 0.06883 0.22212 0.0
H2836 H 0.21636 0.06897 0.17911 0.0
H2837 H 0.15936 0.98035 0.18176 0.0
C2838 C 0.17354 0.98187 0.27866 0.0
C2839 C 0.18635 0.00075 0.29751 0.0
C2840 C 0.20587 0.02872 0.29246 0.0
C2841 C 0.21187 0.03821 0.26899 0.0
C2842 C 0.19815 0.01945 0.25072 0.0
C2843 C 0.17968 0.99177 0.25517 0.0
C2844 C 0.16617 0.9766 0.23228 0.0
C2845 C 0.17398 0.95434 0.22689 0.0
C2846 C 0.13458 0.96409 0.23324 0.0
C2847 C 0.17931 0.00022 0.21454 0.0
C2848 C 0.19778 0.02471 0.22555 0.0
C2849 C 0.2112 0.04969 0.21317 0.0
C2850 C 0.20586 0.04961 0.18878 0.0
C2851 C 0.18729 0.02469 0.17699 0.0
C2852 C 0.17393 -0.00029 0.19016 0.0
H2853 H 0.98099 0.82563 0.69415 0.0
H2854 H 0.01421 0.77241 0.67651 0.0
H2855 H 0.02222 0.76837 0.71938 0.0
H2856 H 0.02617 0.86328 0.7371 0.0
H2857 H 0.00215 0.86574 0.757 0.0
H2858 H -0.00515 0.86086 0.72567 0.0
H2859 H 0.94788 0.81655 0.73364 0.0
H2860 H 0.95449 0.8218 0.76514 0.0
H2861 H 0.94682 0.78935 0.75174 0.0
H2862 H 0.03506 0.77851 0.76373 0.0
H2863 H 0.04178 0.79306 0.80622 0.0
H2864 H -0.00354 0.83628 0.79428 0.0
C2865 C 0.98865 0.81201 0.69944 0.0
C2866 C -0.00309 0.79923 0.68217 0.0
C2867 C 0.00749 0.78209 0.68957 0.0
C2868 C 0.01234 0.77992 0.71386 0.0
C2869 C 0.00562 0.79434 0.73041 0.0
C2870 C -0.00705 0.80914 0.72352 0.0
C2871 C 0.98862 0.82365 0.74442 0.0
C2872 C 0.00386 0.85524 0.74081 0.0
C2873 C 0.95761 0.81214 0.74901 0.0
C2874 C 0.00174 0.81564 0.76407 0.0
C2875 C 0.01172 0.79895 0.75574 0.0
C2876 C 0.0267 0.79098 0.7705 0.0
C2877 C 0.03074 0.79959 0.79447 0.0
C2878 C 0.01954 0.81565 0.80336 0.0
C2879 C 0.00501 0.82378 0.78789 0.0
H2880 H 0.13286 0.19595 0.68672 0.0
H2881 H 0.19626 0.17406 0.67403 0.0
H2882 H 0.20583 0.17715 0.7172 0.0
H2883 H 0.16624 0.24312 0.73779 0.0
H2884 H 0.13381 0.23092 0.7531 0.0
H2885 H 0.13471 0.23093 0.72104 0.0
H2886 H 0.09852 0.17858 0.72076 0.0
H2887 H 0.09762 0.17835 0.75275 0.0
H2888 H 0.10548 0.1549 0.73708 0.0
H2889 H 0.20606 0.17909 0.76149 0.0
H2890 H 0.19587 0.17766 0.80416 0.0
H2891 H 0.13056 0.19615 0.78843 0.0
C2892 C 0.14929 0.19257 0.69297 0.0
C2893 C 0.16413 0.18516 0.67704 0.0
C2894 C 0.18483 0.17997 0.68594 0.0
C2895 C 0.19045 0.18176 0.7104 0.0
C2896 C 0.17503 0.18856 0.72567 0.0
C2897 C 0.15483 0.19382 0.71733 0.0
C2898 C 0.1394 0.198 0.73765 0.0
C2899 C 0.14381 0.2275 0.73738 0.0
C2900 C 0.10843 0.17615 0.73701 0.0
C2901 C 0.15371 0.19369 0.75874 0.0
C2902 C 0.17448 0.18872 0.75138 0.0
C2903 C 0.19 0.18317 0.76748 0.0
C2904 C 0.18397 0.18236 0.79173 0.0
C2905 C 0.16234 0.18677 0.79975 0.0
C2906 C 0.14727 0.19282 0.78294 0.0
H2907 H 0.7941 0.9386 0.79017 0.0
H2908 H 0.78105 0.00831 0.80113 0.0
H2909 H 0.78182 0.01509 0.75773 0.0
H2910 H 0.84229 0.96866 0.74451 0.0
H2911 H 0.83075 0.93739 0.72747 0.0
H2912 H 0.82553 0.93546 0.75916 0.0
H2913 H 0.77294 0.90261 0.7532 0.0
H2914 H 0.77802 0.90422 0.72145 0.0
H2915 H 0.75381 0.91309 0.73417 0.0
H2916 H 0.78816 0.01707 0.71372 0.0
H2917 H 0.79905 0.0138 0.67179 0.0
H2918 H 0.80886 0.94326 0.68915 0.0
C2919 C 0.79066 0.95481 0.78341 0.0
C2920 C 0.78731 0.9728 0.79904 0.0
C2921 C 0.78358 -0.00577 0.7895 0.0
C2922 C 0.78393 -0.00178 0.76487 0.0
C2923 C 0.78805 0.98062 0.74998 0.0
C2924 C 0.79121 0.95925 0.75884 0.0
C2925 C 0.79739 0.94464 0.73905 0.0
C2926 C 0.82567 0.94668 0.74278 0.0
C2927 C 0.77415 0.91434 0.73684 0.0
C2928 C 0.79782 0.96155 0.71779 0.0
C2929 C 0.7921 0.98201 0.72449 0.0
C2930 C 0.79238 0.00095 0.7082 0.0
C2931 C 0.7987 -0.00104 0.6844 0.0
C2932 C 0.80482 0.97827 0.67708 0.0
C2933 C 0.80416 0.95924 0.69409 0.0
H2934 H 0.63321 0.48873 0.64879 0.0
H2935 H 0.71774 0.5571 0.65195 0.0
H2936 H 0.71648 0.56445 0.60877 0.0
H2937 H 0.64066 0.46153 0.59417 0.0
H2938 H 0.60634 0.45112 0.58359 0.0
H2939 H 0.61298 0.45287 0.61504 0.0
H2940 H 0.59346 0.48608 0.62016 0.0
H2941 H 0.58702 0.48464 0.58862 0.0
H2942 H 0.60798 0.51758 0.60301 0.0
H2943 H 0.70721 0.56314 0.56551 0.0
H2944 H 0.69237 0.55054 0.52394 0.0
H2945 H 0.61389 0.48236 0.54786 0.0
C2946 C 0.65136 0.50547 0.64045 0.0
C2947 C 0.67556 0.52249 0.65381 0.0
C2948 C 0.69901 0.5438 0.64212 0.0
C2949 C 0.6984 0.54827 0.61763 0.0
C2950 C 0.67424 0.53119 0.60504 0.0
C2951 C 0.65122 0.51003 0.61594 0.0
C2952 C 0.62867 0.4933 0.59791 0.0
C2953 C 0.62177 0.46291 0.59766 0.0
C2954 C 0.60275 0.49555 0.60272 0.0
C2955 C 0.64284 0.50806 0.57506 0.0
C2956 C 0.66895 0.53013 0.57975 0.0
C2957 C 0.68675 0.54609 0.56163 0.0
C2958 C 0.6781 0.53877 0.53808 0.0
C2959 C 0.6519 0.51563 0.53272 0.0
C2960 C 0.63372 0.50053 0.55147 0.0
H2961 H 0.48863 0.14176 0.63761 0.0
H2962 H 0.4188 0.15397 0.65028 0.0
H2963 H 0.40397 0.14135 0.60846 0.0
H2964 H 0.50458 0.17352 0.58107 0.0
H2965 H 0.51561 0.15085 0.56854 0.0
H2966 H 0.51842 0.1573 0.60005 0.0
H2967 H 0.48949 0.10447 0.60772 0.0
H2968 H 0.48618 0.09794 0.57614 0.0
H2969 H 0.45569 0.08473 0.59449 0.0
H2970 H 0.39777 0.12929 0.56534 0.0
H2971 H 0.40506 0.12736 0.52237 0.0
H2972 H 0.48063 0.12571 0.53676 0.0
C2973 C 0.47003 0.14143 0.63159 0.0
C2974 C 0.45464 0.14855 0.64714 0.0
C2975 C 0.43083 0.14858 0.63859 0.0
C2976 C 0.42211 0.14113 0.61498 0.0
C2977 C 0.43762 0.13402 0.60012 0.0
C2978 C 0.46139 0.13465 0.60794 0.0
C2979 C 0.47611 0.12936 0.58766 0.0
C2980 C 0.5054 0.15424 0.58412 0.0
C2981 C 0.4769 0.10252 0.59176 0.0
C2982 C 0.45722 0.12628 0.56708 0.0
C2983 C 0.43475 0.12827 0.57483 0.0
C2984 C 0.41519 0.12757 0.55907 0.0
C2985 C 0.41948 0.12637 0.53466 0.0
C2986 C 0.44342 0.12637 0.52615 0.0
C2987 C 0.46187 0.12512 0.54267 0.0
H2988 H 0.84037 0.34191 0.54369 0.0
H2989 H 0.84956 0.27024 0.53076 0.0
H2990 H 0.85643 0.26684 0.57362 0.0
H2991 H 0.89003 0.36995 0.59658 0.0
H2992 H 0.86816 0.38049 0.61144 0.0
H2993 H 0.87008 0.38108 0.5794 0.0
H2994 H 0.81682 0.35004 0.57737 0.0
H2995 H 0.81473 0.34887 0.60929 0.0
H2996 H 0.80039 0.31713 0.59248 0.0
H2997 H 0.85214 0.26483 0.61758 0.0
H2998 H 0.84238 0.26783 0.66003 0.0
H2999 H 0.83764 0.34168 0.64526 0.0
C3000 C 0.84521 0.32639 0.54979 0.0
C3001 C 0.84467 0.30649 0.53389 0.0
C3002 C 0.85005 0.2858 0.54262 0.0
C3003 C 0.85397 0.28369 0.56696 0.0
C3004 C 0.85276 0.3026 0.58237 0.0
C3005 C 0.84912 0.32396 0.57415 0.0
C3006 C 0.84571 0.33965 0.59471 0.0
C3007 C 0.86995 0.36957 0.59558 0.0
C3008 C 0.81775 0.33885 0.59337 0.0
C3009 C 0.84662 0.32293 0.6156 0.0
C3010 C 0.85091 0.30178 0.60809 0.0
C3011 C 0.84957 0.28179 0.62379 0.0
C3012 C 0.8438 0.2835 0.64781 0.0
C3013 C 0.83962 0.30516 0.65594 0.0
C3014 C 0.84142 0.32529 0.63963 0.0
H3015 H 0.67401 0.15249 0.0357 0.0
H3016 H 0.58487 0.10064 0.0293 0.0
H3017 H 0.58099 0.09579 0.07285 0.0
H3018 H 0.68232 0.11626 0.08797 0.0
H3019 H 0.7086 0.14806 0.10119 0.0
H3020 H 0.70502 0.145 0.06929 0.0
H3021 H 0.69974 0.18856 0.06794 0.0
H3022 H 0.70318 0.19169 0.09978 0.0
H3023 H 0.67321 0.18949 0.08555 0.0
H3024 H 0.58567 0.10041 0.11647 0.0
H3025 H 0.59877 0.11359 0.15827 0.0
H3026 H 0.68508 0.16188 0.13774 0.0
C3027 C 0.65375 0.13959 0.04343 0.0
C3028 C 0.62973 0.12685 0.029 0.0
C3029 C 0.60356 0.11061 0.0399 0.0
C3030 C 0.60114 0.10763 0.06465 0.0
C3031 C 0.62507 0.12092 0.07836 0.0
C3032 C 0.65092 0.13646 0.06823 0.0
C3033 C 0.67305 0.15011 0.08728 0.0
C3034 C 0.69345 0.1392 0.08637 0.0
C3035 C 0.68817 0.18184 0.085 0.0
C3036 C 0.65544 0.14041 0.10963 0.0
C3037 C 0.62785 0.12342 0.10395 0.0
C3038 C 0.60722 0.11334 0.1212 0.0
C3039 C 0.61487 0.12106 0.14487 0.0
C3040 C 0.64293 0.13861 0.15122 0.0
C3041 C 0.66355 0.14802 0.1334 0.0
H3042 H 0.85351 0.47916 0.13654 0.0
H3043 H 0.82992 0.54154 0.14823 0.0
H3044 H 0.83355 0.55096 0.105 0.0
H3045 H 0.90139 0.51315 0.08617 0.0
H3046 H 0.8901 0.48082 0.07089 0.0
H3047 H 0.88935 0.48163 0.10293 0.0
H3048 H 0.83726 0.44474 0.10245 0.0
H3049 H 0.83779 0.44388 0.07047 0.0
H3050 H 0.8136 0.45116 0.08552 0.0
H3051 H 0.83635 0.55118 0.06075 0.0
H3052 H 0.83573 0.54096 0.01818 0.0
H3053 H 0.85561 0.47677 0.03476 0.0
C3054 C 0.84981 0.49532 0.13008 0.0
C3055 C 0.8418 0.50993 0.14577 0.0
C3056 C 0.83627 0.53028 0.13654 0.0
C3057 C 0.83838 0.53581 0.11205 0.0
C3058 C 0.84584 0.52068 0.09704 0.0
C3059 C 0.85139 0.50079 0.10567 0.0
C3060 C 0.8564 0.48564 0.08557 0.0
C3061 C 0.88608 0.49062 0.08645 0.0
C3062 C 0.83498 0.45452 0.08604 0.0
C3063 C 0.85225 0.49975 0.06423 0.0
C3064 C 0.84661 0.52018 0.07132 0.0
C3065 C 0.84094 0.53539 0.05498 0.0
C3066 C 0.84058 0.52932 0.03078 0.0
C3067 C 0.84559 0.50798 0.023 0.0
C3068 C 0.85193 0.49332 0.04004 0.0
H3069 H 0.49788 0.36988 0.03366 0.0
H3070 H 0.43522 0.28507 0.01784 0.0
H3071 H 0.42972 0.27428 0.06067 0.0
H3072 H 0.5299 0.35434 0.08072 0.0
H3073 H 0.53648 0.38388 0.09857 0.0
H3074 H 0.53448 0.38543 0.0667 0.0
H3075 H 0.49609 0.39845 0.07076 0.0
H3076 H 0.49819 0.39721 0.10267 0.0
H3077 H 0.4655 0.37652 0.08787 0.0
H3078 H 0.43302 0.27195 0.10576 0.0
H3079 H 0.44303 0.27969 0.149 0.0
H3080 H 0.5029 0.36581 0.1346 0.0
C3081 C 0.4827 0.34914 0.03917 0.0
C3082 C 0.46702 0.3284 0.02224 0.0
C3083 C 0.44754 0.30143 0.03036 0.0
C3084 C 0.44425 0.29502 0.05471 0.0
C3085 C 0.46047 0.31577 0.07087 0.0
C3086 C 0.4791 0.34236 0.06342 0.0
C3087 C 0.49437 0.36079 0.08433 0.0
C3088 C 0.52566 0.37174 0.08246 0.0
C3089 C 0.48815 0.38465 0.08654 0.0
C3090 C 0.4816 0.34039 0.10461 0.0
C3091 C 0.46212 0.31448 0.0966 0.0
C3092 C 0.44811 0.29224 0.11225 0.0
C3093 C 0.45399 0.29676 0.13676 0.0
C3094 C 0.47361 0.32334 0.14531 0.0
C3095 C 0.48757 0.34524 0.12882 0.0
H3096 H 0.36072 0.85436 0.88634 0.0
H3097 H 0.27171 0.81108 0.87616 0.0
H3098 H 0.26518 0.81198 0.91954 0.0
H3099 H 0.35951 0.818 0.93895 0.0
H3100 H 0.38801 0.84752 0.953 0.0
H3101 H 0.38589 0.84519 0.92105 0.0
H3102 H 0.38845 0.89283 0.91904 0.0
H3103 H 0.39055 0.89531 0.95101 0.0
H3104 H 0.36384 0.89823 0.93555 0.0
H3105 H 0.26814 0.81715 0.9635 0.0
H3106 H 0.27977 0.82318 0.00597 0.0
H3107 H 0.36713 0.86136 0.98846 0.0
C3108 C 0.33986 0.84535 0.89323 0.0
C3109 C 0.31668 0.83283 0.87787 0.0
C3110 C 0.28973 0.82078 0.88759 0.0
C3111 C 0.28583 0.8213 0.91218 0.0
C3112 C 0.30909 0.8337 0.92681 0.0
C3113 C 0.33557 0.84531 0.91778 0.0
C3114 C 0.35692 0.85596 0.93759 0.0
C3115 C 0.37356 0.84075 0.93764 0.0
C3116 C 0.37607 0.88746 0.93568 0.0
C3117 C 0.33825 0.8484 0.95919 0.0
C3118 C 0.31078 0.83588 0.95244 0.0
C3119 C 0.28955 0.82692 0.96902 0.0
C3120 C 0.29647 0.83051 0.99317 0.0
C3121 C 0.32444 0.84275 1.0007 0.0
C3122 C 0.3456 0.85197 0.98336 0.0
H3123 H 0.14255 0.51978 0.9819 0.0
H3124 H 0.1571 0.45266 1.0013 0.0
H3125 H 0.15982 0.44309 0.95919 0.0
H3126 H 0.10025 0.48553 0.92909 0.0
H3127 H 0.11447 0.51688 0.91178 0.0
H3128 H 0.11264 0.51842 0.94372 0.0
H3129 H 0.16526 0.5531 0.94536 0.0
H3130 H 0.16726 0.5516 0.91345 0.0
H3131 H 0.18891 0.54387 0.93195 0.0
H3132 H 0.16318 0.44135 0.91549 0.0
H3133 H 0.16541 0.44678 0.87199 0.0
H3134 H 0.14804 0.51423 0.87889 0.0
C3135 C 0.14604 0.50293 0.97726 0.0
C3136 C 0.14967 0.48709 0.99521 0.0
C3137 C 0.15437 0.46531 0.98818 0.0
C3138 C 0.15593 0.45959 0.96418 0.0
C3139 C 0.15267 0.47568 0.94704 0.0
C3140 C 0.14768 0.49682 0.95311 0.0
C3141 C 0.14543 0.51105 0.93077 0.0
C3142 C 0.11647 0.50777 0.92872 0.0
C3143 C 0.16807 0.54172 0.93037 0.0
C3144 C 0.15019 0.49471 0.91142 0.0
C3145 C 0.15432 0.47444 0.92136 0.0
C3146 C 0.15981 0.45705 0.90745 0.0
C3147 C 0.16111 0.46036 0.88267 0.0
C3148 C 0.15685 0.48087 0.87181 0.0
C3149 C 0.15121 0.49821 0.88653 0.0
H3150 H 0.49891 0.67834 0.99808 0.0
H3151 H 0.48185 0.5937 0.00532 0.0
H3152 H 0.48547 0.5908 0.96178 0.0
H3153 H 0.4592 0.66685 0.94457 0.0
H3154 H 0.48282 0.70008 0.93179 0.0
H3155 H 0.47997 0.69601 0.96363 0.0
H3156 H 0.53271 0.71482 0.9665 0.0
H3157 H 0.5357 0.71879 0.93464 0.0
H3158 H 0.548 0.69841 0.94958 0.0
H3159 H 0.49109 0.59684 0.91792 0.0
H3160 H 0.4945 0.6097 0.87584 0.0
H3161 H 0.50647 0.69027 0.89585 0.0
C3162 C 0.49604 0.65921 0.99053 0.0
C3163 C 0.49021 0.63624 0.00523 0.0
C3164 C 0.48628 0.61153 0.99453 0.0
C3165 C 0.48843 0.60974 0.96979 0.0
C3166 C 0.49433 0.63275 0.95589 0.0
C3167 C 0.49781 0.65694 0.96578 0.0
C3168 C 0.50286 0.6782 0.94659 0.0
C3169 C 0.47984 0.68572 0.94665 0.0
C3170 C 0.53153 0.70409 0.94951 0.0
C3171 C 0.5016 0.6621 0.92435 0.0
C3172 C 0.49693 0.63604 0.93028 0.0
C3173 C 0.49468 0.61715 0.91306 0.0
C3174 C 0.49667 0.62475 0.8891 0.0
C3175 C 0.50068 0.65105 0.88231 0.0
C3176 C 0.50357 0.67011 0.90034 0.0
H3177 H 0.28426 0.47394 0.38369 0.0
H3178 H 0.36176 0.48068 0.36088 0.0
H3179 H 0.37601 0.48332 0.4026 0.0
H3180 H 0.31148 0.52146 0.43033 0.0
H3181 H 0.28305 0.50284 0.45061 0.0
H3182 H 0.27724 0.49849 0.41901 0.0
H3183 H 0.25634 0.44551 0.42338 0.0
H3184 H 0.26177 0.44965 0.45507 0.0
H3185 H 0.276 0.43224 0.43812 0.0
H3186 H 0.3846 0.49097 0.44643 0.0
H3187 H 0.38455 0.49827 0.48986 0.0
H3188 H 0.30109 0.48477 0.48481 0.0
C3189 C 0.30387 0.47519 0.38749 0.0
C3190 C 0.32183 0.47711 0.36886 0.0
C3191 C 0.34757 0.47923 0.37471 0.0
C3192 C 0.35593 0.48076 0.39842 0.0
C3193 C 0.33826 0.47986 0.41629 0.0
C3194 C 0.31256 0.47664 0.4112 0.0
C3195 C 0.29809 0.47735 0.43384 0.0
C3196 C 0.29213 0.50147 0.43341 0.0
C3197 C 0.27148 0.44953 0.43784 0.0
C3198 C 0.31994 0.48211 0.45225 0.0
C3199 C 0.34297 0.48353 0.44175 0.0
C3200 C 0.36648 0.48942 0.45494 0.0
C3201 C 0.36635 0.49371 0.47957 0.0
C3202 C 0.34278 0.49185 0.4908 0.0
C3203 C 0.3193 0.4859 0.47684 0.0
H3204 H 0.51997 0.82737 0.3919 0.0
H3205 H 0.5142 0.89932 0.3711 0.0
H3206 H 0.51418 0.91137 0.41309 0.0
H3207 H 0.47497 0.80875 0.44095 0.0
H3208 H 0.49409 0.79827 0.45998 0.0
H3209 H 0.49636 0.79628 0.42816 0.0
H3210 H 0.54967 0.8269 0.43033 0.0
H3211 H 0.54757 0.82881 0.46222 0.0
H3212 H 0.56476 0.86013 0.44487 0.0
H3213 H 0.50985 0.91344 0.45706 0.0
H3214 H 0.50466 0.90672 0.50061 0.0
H3215 H 0.51466 0.83463 0.49394 0.0
C3216 C 0.51936 0.84599 0.39621 0.0
C3217 C 0.51704 0.86231 0.37805 0.0
C3218 C 0.51583 0.8863 0.38455 0.0
C3219 C 0.51586 0.89343 0.40843 0.0
C3220 C 0.51731 0.87656 0.42587 0.0
C3221 C 0.51938 0.85351 0.42017 0.0
C3222 C 0.51949 0.83837 0.44261 0.0
C3223 C 0.49476 0.80866 0.44293 0.0
C3224 C 0.54701 0.83857 0.44515 0.0
C3225 C 0.51657 0.8562 0.46159 0.0
C3226 C 0.51539 0.87813 0.45151 0.0
C3227 C 0.51118 0.89657 0.46523 0.0
C3228 C 0.50814 0.89254 0.48996 0.0
C3229 C 0.50951 0.87035 0.5008 0.0
C3230 C 0.51397 0.85209 0.4863 0.0
H3231 H 0.13323 0.64306 0.37797 0.0
H3232 H 0.14248 0.72496 0.37372 0.0
H3233 H 0.13451 0.72402 0.41708 0.0
H3234 H 0.08075 0.61509 0.42529 0.0
H3235 H 0.09592 0.5969 0.43957 0.0
H3236 H 0.09936 0.60254 0.40788 0.0
H3237 H 0.15266 0.62641 0.41161 0.0
H3238 H 0.14938 0.62069 0.44324 0.0
H3239 H 0.1705 0.65521 0.43173 0.0
H3240 H 0.12746 0.71521 0.46058 0.0
H3241 H 0.12706 0.70187 0.50227 0.0
H3242 H 0.12466 0.6263 0.47943 0.0
C3243 C 0.13311 0.6606 0.38613 0.0
C3244 C 0.13813 0.684 0.37244 0.0
C3245 C 0.13858 0.70684 0.38385 0.0
C3246 C 0.13389 0.70639 0.40842 0.0
C3247 C 0.12908 0.68307 0.4214 0.0
C3248 C 0.12898 0.66071 0.41074 0.0
C3249 C 0.12584 0.63935 0.42915 0.0
C3250 C 0.09886 0.61184 0.42523 0.0
C3251 C 0.1511 0.63519 0.42892 0.0
C3252 C 0.12461 0.6534 0.45189 0.0
C3253 C 0.12601 0.67836 0.44685 0.0
C3254 C 0.12628 0.6957 0.46473 0.0
C3255 C 0.12605 0.68788 0.48841 0.0
C3256 C 0.12585 0.66301 0.49421 0.0
C3257 C 0.12439 0.64519 0.47562 0.0
H3258 H 0.10892 0.38485 0.08002 0.0
H3259 H 0.04522 0.4078 0.07619 0.0
H3260 H 0.00942 0.35844 0.07416 0.0
H3261 H 0.07622 0.32565 0.04027 0.0
H3262 H 0.08714 0.30557 0.05754 0.0
H3263 H 0.10777 0.34278 0.05732 0.0
H3264 H 0.10519 0.34334 0.10337 0.0
H3265 H 0.0844 0.30617 0.10372 0.0
H3266 H 0.07187 0.32687 0.11777 0.0
H3267 H 0.98057 0.30665 0.07327 0.0
H3268 H 0.96066 0.25591 0.07403 0.0
H3269 H 0.0433 0.26721 0.07981 0.0
C3270 C 0.08748 0.37953 0.07845 0.0
C3271 C 0.07985 0.40014 0.07816 0.0
C3272 C 0.05153 0.39231 0.07645 0.0
C3273 C 0.03105 0.36436 0.07525 0.0
C3274 C 0.03926 0.34455 0.07591 0.0
C3275 C 0.06677 0.35176 0.07747 0.0
C3276 C 0.07003 0.32645 0.07876 0.0
C3277 C 0.08624 0.32503 0.05718 0.0
C3278 C 0.08367 0.32567 0.10231 0.0
C3279 C 0.04002 0.30391 0.07781 0.0
C3280 C 0.0226 0.31474 0.07599 0.0
C3281 C -0.00601 0.29789 0.07469 0.0
C3282 C 0.98289 0.26913 0.07514 0.0
C3283 C 0.00042 0.25763 0.0771 0.0
C3284 C 0.02933 0.27535 0.07851 0.0
H3285 H 0.71905 0.72329 0.08645 0.0
H3286 H 0.74072 0.80898 0.07652 0.0
H3287 H 0.69127 0.79494 0.075 0.0
H3288 H 0.65765 0.69198 0.04911 0.0
H3289 H 0.63849 0.66315 0.06889 0.0
H3290 H 0.67564 0.67955 0.06748 0.0
H3291 H 0.67864 0.68813 0.113 0.0
H3292 H 0.64154 0.67173 0.11455 0.0
H3293 H 0.66268 0.70642 0.12573 0.0
H3294 H 0.64027 0.77211 0.07454 0.0
H3295 H 0.58986 0.74206 0.07884 0.0
H3296 H 0.60109 0.67148 0.09169 0.0
C3297 C 0.71327 0.73896 0.08374 0.0
C3298 C 0.73346 0.76712 0.08149 0.0
C3299 C 0.72538 0.78728 0.07837 0.0
C3300 C 0.69744 0.77951 0.07733 0.0
C3301 C 0.67798 0.7516 0.07973 0.0
C3302 C 0.68544 0.73164 0.08314 0.0
C3303 C 0.66032 0.70335 0.08679 0.0
C3304 C 0.65789 0.68333 0.06687 0.0
C3305 C 0.66084 0.69174 0.11149 0.0
C3306 C 0.63768 0.71065 0.08503 0.0
C3307 C 0.64834 0.73851 0.08056 0.0
C3308 C 0.63159 0.75025 0.07807 0.0
C3309 C 0.60303 0.73302 0.08048 0.0
C3310 C 0.59173 0.70455 0.08569 0.0
C3311 C 0.60927 0.69324 0.08787 0.0
H3312 H 0.20935 0.94591 0.09916 0.0
H3313 H 0.27711 0.02833 0.08315 0.0
H3314 H 0.309 0.00978 0.08054 0.0
H3315 H 0.24893 0.92287 0.13436 0.0
H3316 H 0.23013 0.88817 0.12266 0.0
H3317 H 0.21341 0.90856 0.12521 0.0
H3318 H 0.20117 0.90091 0.0803 0.0
H3319 H 0.21822 0.88088 0.0775 0.0
H3320 H 0.22842 0.91064 0.05874 0.0
H3321 H 0.33279 0.98198 0.07812 0.0
H3322 H 0.34733 0.94683 0.07699 0.0
H3323 H 0.26321 0.88272 0.09302 0.0
C3324 C 0.23098 0.9602 0.09554 0.0
C3325 C 0.24083 0.98854 0.09144 0.0
C3326 C 0.26919 0.0065 0.08637 0.0
C3327 C 0.28742 -0.00381 0.08485 0.0
C3328 C 0.27682 0.96797 0.08838 0.0
C3329 C 0.24932 0.95026 0.09372 0.0
C3330 C 0.24284 0.92063 0.09567 0.0
C3331 C 0.23327 0.90941 0.12098 0.0
C3332 C 0.2214 0.90219 0.07693 0.0
C3333 C 0.27099 0.92439 0.09033 0.0
C3334 C 0.29035 0.95185 0.08634 0.0
C3335 C 0.31786 0.96042 0.08126 0.0
C3336 C 0.32587 0.94033 0.08061 0.0
C3337 C 0.30631 0.91213 0.08481 0.0
C3338 C 0.27851 0.9041 0.08947 0.0
H3339 H 0.25868 0.09116 0.40813 0.0
H3340 H 0.25798 0.05793 0.33852 0.0
H3341 H 0.3091 0.08176 0.33878 0.0
H3342 H 0.32913 0.15899 0.40208 0.0
H3343 H 0.33653 0.1561 0.43282 0.0
H3344 H 0.30144 0.14426 0.42354 0.0
H3345 H 0.28694 0.09644 0.44207 0.0
H3346 H 0.32195 0.10746 0.45044 0.0
H3347 H 0.30321 0.07732 0.43188 0.0
H3348 H 0.35837 0.09908 0.35111 0.0
H3349 H 0.40263 0.11417 0.37215 0.0
H3350 H 0.36968 0.13404 0.43437 0.0
C3351 C 0.26953 0.09068 0.39231 0.0
C3352 C 0.25486 0.07369 0.373 0.0
C3353 C 0.26922 0.07183 0.35304 0.0
C3354 C 0.29818 0.08505 0.35319 0.0
C3355 C 0.31216 0.10003 0.37339 0.0
C3356 C 0.29831 0.10356 0.39235 0.0
C3357 C 0.31725 0.11683 0.41338 0.0
C3358 C 0.32134 0.14577 0.41823 0.0
C3359 C 0.30669 0.09839 0.43573 0.0
C3360 C 0.34335 0.11855 0.40391 0.0
C3361 C 0.34031 0.10928 0.38073 0.0
C3362 C 0.36121 0.10705 0.36907 0.0
C3363 C 0.38611 0.11529 0.38125 0.0
C3364 C 0.38963 0.12525 0.40492 0.0
C3365 C 0.3678 0.12664 0.41627 0.0
H3366 H 0.90952 0.19718 0.36106 0.0
H3367 H 0.85271 0.11234 0.38169 0.0
H3368 H 0.82444 0.1278 0.40363 0.0
H3369 H 0.91166 0.22655 0.41425 0.0
H3370 H 0.91312 0.25752 0.40301 0.0
H3371 H 0.926 0.2396 0.38521 0.0
H3372 H 0.89322 0.23479 0.35056 0.0
H3373 H 0.88086 0.25359 0.36792 0.0
H3374 H 0.85671 0.21992 0.3562 0.0
H3375 H 0.80669 0.15383 0.42832 0.0
H3376 H 0.79732 0.18749 0.44905 0.0
H3377 H 0.86683 0.25477 0.41228 0.0
C3378 C 0.89053 0.18173 0.36941 0.0
C3379 C 0.88318 0.15362 0.3696 0.0
C3380 C 0.85845 0.13397 0.38101 0.0
C3381 C 0.84241 0.14259 0.3937 0.0
C3382 C 0.85123 0.17079 0.39438 0.0
C3383 C 0.87436 0.18996 0.38201 0.0
C3384 C 0.8807 0.21918 0.38684 0.0
C3385 C 0.90957 0.23672 0.39799 0.0
C3386 C 0.87768 0.23266 0.36402 0.0
C3387 C 0.85814 0.2136 0.40448 0.0
C3388 C 0.84121 0.18563 0.40859 0.0
C3389 C 0.81957 0.17577 0.42496 0.0
C3390 C 0.81461 0.19505 0.43684 0.0
C3391 C 0.83132 0.22376 0.43228 0.0
C3392 C 0.85358 0.23298 0.41615 0.0
H3393 H 0.79291 0.69983 0.37564 0.0
H3394 H 0.83049 0.73193 0.4445 0.0
H3395 H 0.79763 0.68737 0.46322 0.0
H3396 H 0.72215 0.66118 0.39796 0.0
H3397 H 0.71223 0.63311 0.37722 0.0
H3398 H 0.73866 0.66763 0.36925 0.0
H3399 H 0.77262 0.64971 0.36048 0.0
H3400 H 0.74633 0.61517 0.36845 0.0
H3401 H 0.7794 0.6311 0.38325 0.0
H3402 H 0.76377 0.63848 0.47367 0.0
H3403 H 0.72723 0.5892 0.47599 0.0
H3404 H 0.70892 0.59046 0.40118 0.0
C3405 C 0.79407 0.69741 0.39465 0.0
C3406 C 0.81413 0.71905 0.40869 0.0
C3407 C 0.81506 0.71547 0.43354 0.0
C3408 C 0.7966 0.6903 0.44429 0.0
C3409 C 0.7771 0.66926 0.42996 0.0
C3410 C 0.77538 0.67266 0.40576 0.0
C3411 C 0.75217 0.64687 0.39452 0.0
C3412 C 0.72999 0.65255 0.38413 0.0
C3413 C 0.76331 0.63502 0.37556 0.0
C3414 C 0.74152 0.62831 0.41611 0.0
C3415 C 0.75637 0.64153 0.43632 0.0
C3416 C 0.75163 0.628 0.4581 0.0
C3417 C 0.73103 0.60012 0.45924 0.0
C3418 C 0.71528 0.58652 0.43883 0.0
C3419 C 0.72042 0.60078 0.41709 0.0
H3420 H 0.92443 0.60279 0.92922 0.0
H3421 H 0.84108 0.58559 0.91367 0.0
H3422 H 0.85935 0.63391 0.90129 0.0
H3423 H 0.94749 0.67073 0.9541 0.0
H3424 H 0.98203 0.68567 0.94225 0.0
H3425 H 0.9627 0.64926 0.94902 0.0
H3426 H 0.96976 0.63785 0.90578 0.0
H3427 H 0.98894 0.67424 0.89883 0.0
H3428 H 0.95912 0.65129 0.88131 0.0
H3429 H 0.88583 0.68291 0.88966 0.0
H3430 H 0.91897 0.73227 0.88355 0.0
H3431 H 0.98559 0.71981 0.90877 0.0
C3432 C 0.91012 0.60929 0.92319 0.0
C3433 C 0.88135 0.59048 0.92238 0.0
C3434 C 0.86317 0.59971 0.91462 0.0
C3435 C 0.87334 0.62706 0.90737 0.0
C3436 C 0.90173 0.64506 0.90828 0.0
C3437 C 0.91991 0.63682 0.9163 0.0
C3438 C 0.94934 0.66099 0.91657 0.0
C3439 C 0.96107 0.66702 0.942 0.0
C3440 C 0.96788 0.65577 0.89961 0.0
C3441 C 0.94471 0.68396 0.9074 0.0
C3442 C 0.91711 0.67407 0.90243 0.0
C3443 C 0.90752 0.69101 0.89356 0.0
C3444 C 0.92658 0.71903 0.89006 0.0
C3445 C 0.95491 0.72998 0.89572 0.0
C3446 C 0.96408 0.71208 0.90433 0.0
H3447 H 0.3701 0.26382 0.92202 0.0
H3448 H 0.38872 0.34886 0.93007 0.0
H3449 H 0.33986 0.33435 0.92218 0.0
H3450 H 0.3239 0.24751 0.87363 0.0
H3451 H 0.30052 0.21251 0.88304 0.0
H3452 H 0.33652 0.22902 0.8911 0.0
H3453 H 0.32327 0.21951 0.9357 0.0
H3454 H 0.2872 0.20264 0.92774 0.0
H3455 H 0.30113 0.231 0.94859 0.0
H3456 H 0.28944 0.31099 0.9123 0.0
H3457 H 0.24043 0.28 0.90177 0.0
H3458 H 0.25509 0.21053 0.89867 0.0
C3459 C 0.36378 0.27929 0.92256 0.0
C3460 C 0.38315 0.30743 0.92679 0.0
C3461 C 0.3742 0.32717 0.92688 0.0
C3462 C 0.34651 0.31915 0.92241 0.0
C3463 C 0.32807 0.29135 0.91775 0.0
C3464 C 0.33627 0.2717 0.91785 0.0
C3465 C 0.31251 0.24338 0.91139 0.0
C3466 C 0.31875 0.23248 0.88842 0.0
C3467 C 0.30562 0.22293 0.93209 0.0
C3468 C 0.28975 0.25025 0.90755 0.0
C3469 C 0.29913 0.278 0.91143 0.0
C3470 C 0.28182 0.2892 0.90921 0.0
C3471 C 0.25405 0.27145 0.90318 0.0
C3472 C 0.24394 0.24288 0.89926 0.0
C3473 C 0.26221 0.23232 0.90128 0.0
H3474 H 0.71259 0.1078 0.93105 0.0
H3475 H 0.62716 0.04143 0.9334 0.0
H3476 H 0.64189 0.00764 0.92327 0.0
H3477 H 0.73104 0.08319 0.88067 0.0
H3478 H 0.76551 0.09332 0.89064 0.0
H3479 H 0.74891 0.1121 0.90067 0.0
H3480 H 0.75625 0.10313 0.94459 0.0
H3481 H 0.77329 0.08469 0.9347 0.0
H3482 H 0.74402 0.06815 0.95446 0.0
H3483 H 0.66555 0.98136 0.91143 0.0
H3484 H 0.69683 0.96423 0.89901 0.0
H3485 H 0.76648 0.04807 0.90201 0.0
C3486 C 0.69711 0.08606 0.93003 0.0
C3487 C 0.66878 0.07712 0.93326 0.0
C3488 C 0.64899 0.04863 0.9311 0.0
C3489 C 0.65714 0.02931 0.92534 0.0
C3490 C 0.68514 0.03887 0.92158 0.0
C3491 C 0.70486 0.06654 0.9239 0.0
C3492 C 0.73338 0.07154 0.91752 0.0
C3493 C 0.7454 0.0912 0.8961 0.0
C3494 C 0.75288 0.08252 0.93911 0.0
C3495 C 0.72653 0.04243 0.91107 0.0
C3496 C 0.69864 0.02386 0.91376 0.0
C3497 C 0.68744 -0.00431 0.90924 0.0
C3498 C 0.70532 0.98617 0.90213 0.0
C3499 C 0.73399 0.00484 0.8993 0.0
C3500 C 0.74458 0.03336 0.90362 0.0
H3501 H 0.71525 0.89927 0.56031 0.0
H3502 H 0.73432 0.90752 0.63569 0.0
H3503 H 0.68667 0.89656 0.64485 0.0
H3504 H 0.67792 0.93129 0.55956 0.0
H3505 H 0.65161 0.90891 0.53877 0.0
H3506 H 0.68527 0.91207 0.53779 0.0
H3507 H 0.66386 0.8591 0.54284 0.0
H3508 H 0.62993 0.85553 0.54287 0.0
H3509 H 0.64044 0.84177 0.56716 0.0
H3510 H 0.64124 0.89516 0.64508 0.0
H3511 H 0.59594 0.8915 0.63715 0.0
H3512 H 0.60527 0.881 0.56188 0.0
C3513 C 0.70895 0.89751 0.57875 0.0
C3514 C 0.72824 0.9041 0.5973 0.0
C3515 C 0.71962 0.90208 0.62126 0.0
C3516 C 0.69272 0.89617 0.62662 0.0
C3517 C 0.6747 0.89163 0.60781 0.0
C3518 C 0.68206 0.89111 0.5844 0.0
C3519 C 0.65926 0.88698 0.56745 0.0
C3520 C 0.66912 0.91126 0.54987 0.0
C3521 C 0.64768 0.85918 0.55431 0.0
C3522 C 0.63851 0.88663 0.58491 0.0
C3523 C 0.64788 0.88955 0.60808 0.0
C3524 C 0.63332 0.89213 0.6271 0.0
C3525 C 0.60791 0.89051 0.62239 0.0
C3526 C 0.59736 0.88602 0.59893 0.0
C3527 C 0.61296 0.88433 0.57998 0.0
H3528 H 0.13431 0.84011 0.62579 0.0
H3529 H 0.06341 0.79611 0.6714 0.0
H3530 H 0.07028 0.75587 0.67166 0.0
H3531 H 0.11955 0.79633 0.58856 0.0
H3532 H 0.15177 0.7979 0.58132 0.0
H3533 H 0.15211 0.82749 0.59393 0.0
H3534 H 0.18259 0.82912 0.62918 0.0
H3535 H 0.18417 0.80048 0.61593 0.0
H3536 H 0.17288 0.79827 0.6463 0.0
H3537 H 0.07178 0.71655 0.65301 0.0
H3538 H 0.07629 0.68409 0.62594 0.0
H3539 H 0.14591 0.75344 0.59137 0.0
C3540 C 0.122 0.8229 0.63757 0.0
C3541 C 0.09826 0.82072 0.64834 0.0
C3542 C 0.08176 0.79794 0.66315 0.0
C3543 C 0.08541 0.77486 0.66313 0.0
C3544 C 0.10633 0.7757 0.64894 0.0
C3545 C 0.12541 0.79975 0.63738 0.0
C3546 C 0.1423 0.79399 0.61958 0.0
C3547 C 0.1413 0.80453 0.59439 0.0
C3548 C 0.17226 0.80618 0.62828 0.0
C3549 C 0.12721 0.76282 0.62054 0.0
C3550 C 0.10715 0.75259 0.63803 0.0
C3551 C 0.0882 0.72433 0.63993 0.0
C3552 C 0.0905 0.70609 0.62412 0.0
C3553 C 0.1114 0.71628 0.60648 0.0
C3554 C 0.12983 0.745 0.60477 0.0
H3555 H 0.25466 0.39499 0.57593 0.0
H3556 H 0.33498 0.40049 0.57859 0.0
H3557 H 0.31202 0.34924 0.57747 0.0
H3558 H 0.22192 0.33905 0.61513 0.0
H3559 H 0.18907 0.32362 0.6 0.0
H3560 H 0.21205 0.36042 0.59855 0.0
H3561 H 0.21109 0.35815 0.55242 0.0
H3562 H 0.18799 0.3213 0.55371 0.0
H3563 H 0.22006 0.33507 0.53751 0.0
H3564 H 0.27963 0.29733 0.57645 0.0
H3565 H 0.24054 0.24911 0.57914 0.0
H3566 H 0.18269 0.27964 0.58006 0.0
C3567 C 0.26749 0.38547 0.57586 0.0
C3568 C 0.29649 0.40144 0.57703 0.0
C3569 C 0.31263 0.38836 0.57759 0.0
C3570 C 0.29983 0.35941 0.57685 0.0
C3571 C 0.27103 0.34423 0.57585 0.0
C3572 C 0.25514 0.35688 0.57558 0.0
C3573 C 0.22465 0.33624 0.57635 0.0
C3574 C 0.21115 0.34006 0.59885 0.0
C3575 C 0.2101 0.33779 0.55364 0.0
C3576 C 0.22576 0.30986 0.57731 0.0
C3577 C 0.2526 0.31473 0.57658 0.0
C3578 C 0.25854 0.29326 0.57708 0.0
C3579 C 0.23634 0.26608 0.57857 0.0
C3580 C 0.20889 0.26103 0.58003 0.0
C3581 C 0.2036 0.28313 0.57927 0.0
H3582 H 0.04721 0.40244 0.78474 0.0
H3583 H 0.0593 0.48553 0.78956 0.0
H3584 H 0.01006 0.46724 0.7801 0.0
H3585 H 0.00384 0.38093 0.736 0.0
H3586 H 0.98136 0.34597 0.746 0.0
H3587 H 0.0167 0.36467 0.75598 0.0
H3588 H 0.00063 0.35666 0.79997 0.0
H3589 H 0.96519 0.33734 0.79016 0.0
H3590 H 0.97598 0.36647 0.80985 0.0
H3591 H 0.96177 0.44124 0.76477 0.0
H3592 H 0.91499 0.40792 0.75052 0.0
H3593 H 0.93364 0.34134 0.75706 0.0
C3594 C 0.03937 0.41671 0.7844 0.0
C3595 C 0.05711 0.44542 0.78783 0.0
C3596 C 0.04608 0.46343 0.78714 0.0
C3597 C 0.01817 0.45327 0.78165 0.0
C3598 C 0.00157 0.42505 0.77729 0.0
C3599 C 0.01155 0.4069 0.77917 0.0
C3600 C 0.98956 0.37765 0.77287 0.0
C3601 C -0.00159 0.36668 0.75144 0.0
C3602 C 0.98241 0.3584 0.7945 0.0
C3603 C 0.96591 0.38235 0.76648 0.0
C3604 C 0.97334 0.40986 0.76906 0.0
C3605 C 0.95553 0.41957 0.76304 0.0
C3606 C 0.92911 0.40051 0.75471 0.0
C3607 C 0.92071 0.37204 0.75269 0.0
C3608 C 0.93947 0.36294 0.75853 0.0
H3609 H 0.53326 0.58817 0.78967 0.0
H3610 H 0.59388 0.67312 0.77167 0.0
H3611 H 0.6225 0.65694 0.75194 0.0
H3612 H 0.58359 0.56649 0.80223 0.0
H3613 H 0.56209 0.53232 0.79017 0.0
H3614 H 0.54646 0.55078 0.80303 0.0
H3615 H 0.51964 0.54441 0.76367 0.0
H3616 H 0.53583 0.52661 0.75046 0.0
H3617 H 0.53853 0.5568 0.73617 0.0
H3618 H 0.64383 0.63226 0.73321 0.0
H3619 H 0.6611 0.60078 0.72243 0.0
H3620 H 0.58744 0.53166 0.75272 0.0
C3621 C 0.55272 0.60341 0.78186 0.0
C3622 C 0.56121 0.63191 0.78211 0.0
C3623 C 0.58688 0.65118 0.77174 0.0
C3624 C 0.6032 0.64219 0.76027 0.0
C3625 C 0.59369 0.61393 0.7595 0.0
C3626 C 0.56943 0.59483 0.77047 0.0
C3627 C 0.56468 0.56573 0.76779 0.0
C3628 C 0.56419 0.5531 0.79225 0.0
C3629 C 0.53809 0.54731 0.75368 0.0
C3630 C 0.59014 0.57158 0.75366 0.0
C3631 C 0.60632 0.59951 0.74881 0.0
C3632 C 0.63139 0.61033 0.73684 0.0
C3633 C 0.64093 0.5923 0.73068 0.0
C3634 C 0.62547 0.56387 0.73663 0.0
C3635 C 0.59931 0.5532 0.7475 0.0
H3636 H 0.44647 0.05366 0.74462 0.0
H3637 H 0.37359 0.0626 0.74022 0.0
H3638 H 0.34588 0.01709 0.7594 0.0
H3639 H 0.4118 0.98003 0.7328 0.0
H3640 H 0.43316 0.97424 0.75337 0.0
H3641 H 0.44672 0.00716 0.73868 0.0
H3642 H 0.45869 0.03147 0.77988 0.0
H3643 H 0.44438 -0.00149 0.79472 0.0
H3644 H 0.43173 0.02178 0.8017 0.0
H3645 H 0.32641 0.97163 0.77961 0.0
H3646 H 0.31466 0.92553 0.79463 0.0
H3647 H 0.40034 0.94645 0.7866 0.0
C3648 C 0.42457 0.04582 0.74723 0.0
C3649 C 0.41215 0.06162 0.74089 0.0
C3650 C 0.38351 0.0508 0.74492 0.0
C3651 C 0.36765 0.02511 0.75597 0.0
C3652 C 0.3808 0.01062 0.7629 0.0
C3653 C 0.40847 0.02031 0.75837 0.0
C3654 C 0.41743 0.00045 0.76741 0.0
C3655 C 0.42788 0.98984 0.74684 0.0
C3656 C 0.43935 0.01386 0.78709 0.0
C3657 C 0.39029 0.97782 0.77733 0.0
C3658 C 0.36956 0.98433 0.77484 0.0
C3659 C 0.34243 0.96626 0.78173 0.0
C3660 C 0.33601 0.94021 0.79033 0.0
C3661 C 0.35662 0.93253 0.79183 0.0
C3662 C 0.38428 0.95196 0.78607 0.0
H3663 H 0.55662 0.06322 0.27403 0.0
H3664 H 0.58245 0.06425 0.20134 0.0
H3665 H 0.5677 0.01467 0.20412 0.0
H3666 H 0.58135 0.02807 0.29737 0.0
H3667 H 0.55423 0.00607 0.31772 0.0
H3668 H 0.55769 0.03853 0.30867 0.0
H3669 H 0.50749 0.01457 0.29287 0.0
H3670 H 0.50302 0.98198 0.3032 0.0
H3671 H 0.49577 0.98578 0.27262 0.0
H3672 H 0.56616 0.97212 0.21921 0.0
H3673 H 0.56176 0.93178 0.24124 0.0
H3674 H 0.53222 0.95575 0.30311 0.0
C3675 C 0.55694 0.05233 0.25817 0.0
C3676 C 0.57013 0.06712 0.23737 0.0
C3677 C 0.57163 0.05289 0.21716 0.0
C3678 C 0.56372 0.02485 0.21874 0.0
C3679 C 0.55348 0.01142 0.24039 0.0
C3680 C 0.54856 0.02419 0.25939 0.0
C3681 C 0.53995 0.00602 0.28136 0.0
C3682 C 0.55948 0.02056 0.3025 0.0
C3683 C 0.50976 -0.00349 0.28789 0.0
C3684 C 0.543 0.98217 0.27229 0.0
C3685 C 0.55101 0.98577 0.24868 0.0
C3686 C 0.55876 0.96843 0.23738 0.0
C3687 C 0.55676 0.94595 0.25016 0.0
C3688 C 0.54654 0.94078 0.27373 0.0
C3689 C 0.5399 0.95927 0.285 0.0
H3690 H 0.04949 0.60154 0.26924 0.0
H3691 H 0.0488 0.67786 0.28252 0.0
H3692 H -0.0009 0.65444 0.27173 0.0
H3693 H 0.006 0.58203 0.21782 0.0
H3694 H 0.98906 0.54554 0.22437 0.0
H3695 H 0.02411 0.56805 0.23404 0.0
H3696 H 0.00999 0.55177 0.27763 0.0
H3697 H 0.97501 0.52896 0.26805 0.0
H3698 H 0.9819 0.55418 0.29101 0.0
H3699 H 0.94943 0.62202 0.26087 0.0
H3700 H 0.90334 0.58325 0.25003 0.0
H3701 H 0.93835 0.52966 0.24107 0.0
C3702 C 0.03878 0.61323 0.27025 0.0
C3703 C 0.05263 0.64129 0.27706 0.0
C3704 C 0.03828 0.65621 0.27752 0.0
C3705 C 0.0102 0.64314 0.27136 0.0
C3706 C -0.00276 0.61546 0.2644 0.0
C3707 C 0.01112 0.60076 0.26369 0.0
C3708 C -0.00718 0.57151 0.25499 0.0
C3709 C 0.00365 0.5665 0.2314 0.0
C3710 C 0.98974 0.55037 0.27406 0.0
C3711 C 0.96618 0.57179 0.25138 0.0
C3712 C 0.96912 0.59729 0.25693 0.0
C3713 C 0.94692 0.60206 0.25622 0.0
C3714 C 0.92091 0.57997 0.25008 0.0
C3715 C 0.91753 0.55368 0.24454 0.0
C3716 C 0.94054 0.54973 0.24477 0.0
H3717 H 0.33711 0.40951 0.25542 0.0
H3718 H 0.39665 0.49672 0.2461 0.0
H3719 H 0.42667 0.48477 0.22302 0.0
H3720 H 0.38509 0.38987 0.26734 0.0
H3721 H 0.3672 0.3569 0.25238 0.0
H3722 H 0.34803 0.37232 0.26388 0.0
H3723 H 0.32723 0.36921 0.22193 0.0
H3724 H 0.34686 0.35417 0.21025 0.0
H3725 H 0.34999 0.38499 0.19691 0.0
H3726 H 0.4528 0.46425 0.20581 0.0
H3727 H 0.47588 0.43677 0.20065 0.0
H3728 H 0.40011 0.36269 0.22132 0.0
C3729 C 0.35625 0.42598 0.24813 0.0
C3730 C 0.36468 0.45393 0.25257 0.0
C3731 C 0.39002 0.47509 0.24313 0.0
C3732 C 0.40699 0.46854 0.22965 0.0
C3733 C 0.39833 0.44077 0.22577 0.0
C3734 C 0.37369 0.41978 0.2349 0.0
C3735 C 0.3712 0.39179 0.2312 0.0
C3736 C 0.3677 0.37687 0.25511 0.0
C3737 C 0.3474 0.37399 0.21404 0.0
C3738 C 0.39898 0.40052 0.2199 0.0
C3739 C 0.41389 0.42876 0.21612 0.0
C3740 C 0.44121 0.44204 0.20823 0.0
C3741 C 0.45416 0.42625 0.20533 0.0
C3742 C 0.43982 0.39766 0.21076 0.0
C3743 C 0.41153 0.3845 0.21692 0.0
loop_
_geom_bond_atom_site_label_1
_geom_bond_atom_site_label_2
_geom_bond_distance
_geom_bond_site_symmetry_2
_ccdc_geom_bond_type
O0 Zn1 1.953 . S
O0 C16 1.225 . S
Zn1 O0 1.953 . S
Zn1 O2 1.949 . S
Zn1 O8 1.919 . S
Zn1 O13 1.924 . S
O2 Zn1 1.949 . S
O2 Zn3 1.923 . S
O2 Zn4 1.909 1_455 S
O2 Zn5 1.945 . S
Zn3 O2 1.923 . S
Zn3 O6 1.933 . S
Zn3 O9 1.941 . S
Zn3 O10 1.965 . S
Zn4 O2 1.909 1_655 S
Zn4 O11 1.938 . S
Zn4 O12 1.934 . S
Zn4 O22 1.967 . S
Zn5 O2 1.945 . S
Zn5 O7 1.932 . S
Zn5 O14 1.977 . S
Zn5 O15 1.910 . S
O6 Zn3 1.933 . S
O6 C17 1.226 . S
O7 Zn5 1.932 . S
O7 C17 1.307 . S
O8 Zn1 1.919 . S
O8 C19 1.253 . S
O9 Zn3 1.941 . S
O9 C19 1.283 . S
O10 Zn3 1.965 . S
O10 C18 1.303 1_455 S
O11 Zn4 1.938 . S
O11 C18 1.247 . S
O12 Zn4 1.934 . S
O12 C20 1.304 . S
O13 Zn1 1.924 . S
O13 C21 1.311 . S
O14 Zn5 1.977 . S
O14 C20 1.272 1_455 S
O15 Zn5 1.910 . S
O15 C21 1.231 . S
C16 O0 1.225 . S
C16 O22 1.298 1_455 S
C17 O6 1.226 . S
C17 O7 1.307 . S
C18 O10 1.303 1_655 S
C18 O11 1.247 . S
C19 O8 1.253 . S
C19 O9 1.283 . S
C20 O12 1.304 . S
C20 O14 1.272 1_655 S
C21 O13 1.311 . S
C21 O15 1.231 . S
O22 Zn4 1.967 . S
O22 C16 1.298 1_655 S
O23 Zn24 1.953 . S
O23 C39 1.225 . S
Zn24 O23 1.953 . S
Zn24 O25 1.949 . S
Zn24 O31 1.919 . S
Zn24 O36 1.924 . S
O25 Zn24 1.949 . S
O25 Zn26 1.923 . S
O25 Zn27 1.950 . S
O25 Zn28 1.945 . S
Zn26 O25 1.923 . S
Zn26 O29 1.933 . S
Zn26 O32 1.941 . S
Zn26 O33 1.965 . S
Zn27 O25 1.950 . S
Zn27 O34 1.938 . S
Zn27 O35 1.906 . S
Zn27 O45 1.953 . S
Zn28 O25 1.945 . S
Zn28 O30 1.932 . S
Zn28 O37 1.977 . S
Zn28 O38 1.910 . S
O29 Zn26 1.933 . S
O29 C40 1.226 . S
O30 Zn28 1.932 . S
O30 C40 1.307 . S
O31 Zn24 1.919 . S
O31 C42 1.253 . S
O32 Zn26 1.941 . S
O32 C42 1.283 . S
O33 Zn26 1.965 . S
O33 C41 1.303 . S
O34 Zn27 1.938 . S
O34 C41 1.247 . S
O35 Zn27 1.906 . S
O35 C43 1.304 . S
O36 Zn24 1.924 . S
O36 C44 1.311 . S
O37 Zn28 1.977 . S
O37 C43 1.272 . S
O38 Zn28 1.910 . S
O38 C44 1.231 . S
C39 O23 1.225 . S
C39 O45 1.298 . S
C40 O29 1.226 . S
C40 O30 1.307 . S
C41 O33 1.303 . S
C41 O34 1.247 . S
C42 O31 1.253 . S
C42 O32 1.283 . S
C43 O35 1.304 . S
C43 O37 1.272 . S
C44 O36 1.311 . S
C44 O38 1.231 . S
O45 Zn27 1.953 . S
O45 C39 1.298 . S
O46 Zn47 1.953 . S
O46 C62 1.225 . S
Zn47 O46 1.953 . S
Zn47 O48 1.949 . S
Zn47 O54 1.919 . S
Zn47 O59 1.924 . S
O48 Zn47 1.949 . S
O48 Zn49 1.923 . S
O48 Zn50 1.918 1_565 S
O48 Zn51 1.945 . S
Zn49 O48 1.923 . S
Zn49 O52 1.933 . S
Zn49 O55 1.941 . S
Zn49 O56 1.965 . S
Zn50 O48 1.918 1_545 S
Zn50 O57 1.977 . S
Zn50 O58 1.913 . S
Zn50 O68 1.950 . S
Zn51 O48 1.945 . S
Zn51 O53 1.932 . S
Zn51 O60 1.977 . S
Zn51 O61 1.910 . S
O52 Zn49 1.933 . S
O52 C63 1.226 . S
O53 Zn51 1.932 . S
O53 C63 1.307 . S
O54 Zn47 1.919 . S
O54 C65 1.253 . S
O55 Zn49 1.941 . S
O55 C65 1.283 . S
O56 Zn49 1.965 . S
O56 C64 1.303 1_565 S
O57 Zn50 1.977 . S
O57 C64 1.247 . S
O58 Zn50 1.913 . S
O58 C66 1.304 . S
O59 Zn47 1.924 . S
O59 C67 1.311 . S
O60 Zn51 1.977 . S
O60 C66 1.272 1_565 S
O61 Zn51 1.910 . S
O61 C67 1.231 . S
C62 O46 1.225 . S
C62 O68 1.298 1_565 S
C63 O52 1.226 . S
C63 O53 1.307 . S
C64 O56 1.303 1_545 S
C64 O57 1.247 . S
C65 O54 1.253 . S
C65 O55 1.283 . S
C66 O58 1.304 . S
C66 O60 1.272 1_545 S
C67 O59 1.311 . S
C67 O61 1.231 . S
O68 Zn50 1.950 . S
O68 C62 1.298 1_545 S
O69 Zn70 1.953 . S
O69 C85 1.225 . S
Zn70 O69 1.953 . S
Zn70 O71 1.949 . S
Zn70 O77 1.919 . S
Zn70 O82 1.924 . S
O71 Zn70 1.949 . S
O71 Zn72 1.923 . S
O71 Zn73 1.909 1_545 S
O71 Zn74 1.945 . S
Zn72 O71 1.923 . S
Zn72 O75 1.933 . S
Zn72 O78 1.941 . S
Zn72 O79 1.965 . S
Zn73 O71 1.909 1_565 S
Zn73 O80 1.938 . S
Zn73 O81 1.934 . S
Zn73 O91 1.967 . S
Zn74 O71 1.945 . S
Zn74 O76 1.932 . S
Zn74 O83 1.977 . S
Zn74 O84 1.910 . S
O75 Zn72 1.933 . S
O75 C86 1.226 . S
O76 Zn74 1.932 . S
O76 C86 1.307 . S
O77 Zn70 1.919 . S
O77 C88 1.253 . S
O78 Zn72 1.941 . S
O78 C88 1.283 . S
O79 Zn72 1.965 . S
O79 C87 1.303 1_545 S
O80 Zn73 1.938 . S
O80 C87 1.247 . S
O81 Zn73 1.934 . S
O81 C89 1.304 . S
O82 Zn70 1.924 . S
O82 C90 1.311 . S
O83 Zn74 1.977 . S
O83 C89 1.272 1_545 S
O84 Zn74 1.910 . S
O84 C90 1.231 . S
C85 O69 1.225 . S
C85 O91 1.298 1_545 S
C86 O75 1.226 . S
C86 O76 1.307 . S
C87 O79 1.303 1_565 S
C87 O80 1.247 . S
C88 O77 1.253 . S
C88 O78 1.283 . S
C89 O81 1.304 . S
C89 O83 1.272 1_565 S
C90 O82 1.311 . S
C90 O84 1.231 . S
O91 Zn73 1.967 . S
O91 C85 1.298 1_565 S
O92 Zn93 1.953 . S
O92 C108 1.225 . S
Zn93 O92 1.953 . S
Zn93 O94 1.949 . S
Zn93 O100 1.919 . S
Zn93 O105 1.924 . S
O94 Zn93 1.949 . S
O94 Zn95 1.923 . S
O94 Zn96 1.918 1_655 S
O94 Zn97 1.945 . S
Zn95 O94 1.923 . S
Zn95 O98 1.933 . S
Zn95 O101 1.941 . S
Zn95 O102 1.965 . S
Zn96 O94 1.918 1_455 S
Zn96 O103 1.977 . S
Zn96 O104 1.913 . S
Zn96 O114 1.950 . S
Zn97 O94 1.945 . S
Zn97 O99 1.932 . S
Zn97 O106 1.977 . S
Zn97 O107 1.910 . S
O98 Zn95 1.933 . S
O98 C109 1.226 . S
O99 Zn97 1.932 . S
O99 C109 1.307 . S
O100 Zn93 1.919 . S
O100 C111 1.253 . S
O101 Zn95 1.941 . S
O101 C111 1.283 . S
O102 Zn95 1.965 . S
O102 C110 1.303 1_655 S
O103 Zn96 1.977 . S
O103 C110 1.247 . S
O104 Zn96 1.913 . S
O104 C112 1.304 . S
O105 Zn93 1.924 . S
O105 C113 1.311 . S
O106 Zn97 1.977 . S
O106 C112 1.272 1_655 S
O107 Zn97 1.910 . S
O107 C113 1.231 . S
C108 O92 1.225 . S
C108 O114 1.298 1_655 S
C109 O98 1.226 . S
C109 O99 1.307 . S
C110 O102 1.303 1_455 S
C110 O103 1.247 . S
C111 O100 1.253 . S
C111 O101 1.283 . S
C112 O104 1.304 . S
C112 O106 1.272 1_455 S
C113 O105 1.311 . S
C113 O107 1.231 . S
O114 Zn96 1.950 . S
O114 C108 1.298 1_455 S
O115 Zn116 1.953 . S
O115 C131 1.225 . S
Zn116 O115 1.953 . S
Zn116 O117 1.949 . S
Zn116 O123 1.919 . S
Zn116 O128 1.924 . S
O117 Zn116 1.949 . S
O117 Zn118 1.923 . S
O117 Zn119 1.950 . S
O117 Zn120 1.945 . S
Zn118 O117 1.923 . S
Zn118 O121 1.933 . S
Zn118 O124 1.941 . S
Zn118 O125 1.965 . S
Zn119 O117 1.950 . S
Zn119 O126 1.938 . S
Zn119 O127 1.906 . S
Zn119 O137 1.953 . S
Zn120 O117 1.945 . S
Zn120 O122 1.932 . S
Zn120 O129 1.977 . S
Zn120 O130 1.910 . S
O121 Zn118 1.933 . S
O121 C132 1.226 . S
O122 Zn120 1.932 . S
O122 C132 1.307 . S
O123 Zn116 1.919 . S
O123 C134 1.253 . S
O124 Zn118 1.941 . S
O124 C134 1.283 . S
O125 Zn118 1.965 . S
O125 C133 1.303 . S
O126 Zn119 1.938 . S
O126 C133 1.247 . S
O127 Zn119 1.906 . S
O127 C135 1.304 . S
O128 Zn116 1.924 . S
O128 C136 1.311 . S
O129 Zn120 1.977 . S
O129 C135 1.272 . S
O130 Zn120 1.910 . S
O130 C136 1.231 . S
C131 O115 1.225 . S
C131 O137 1.298 . S
C132 O121 1.226 . S
C132 O122 1.307 . S
C133 O125 1.303 . S
C133 O126 1.247 . S
C134 O123 1.253 . S
C134 O124 1.283 . S
C135 O127 1.304 . S
C135 O129 1.272 . S
C136 O128 1.311 . S
C136 O130 1.231 . S
O137 Zn119 1.953 . S
O137 C131 1.298 . S
O138 Zn139 1.953 . S
O138 C154 1.225 . S
Zn139 O138 1.953 . S
Zn139 O140 1.949 . S
Zn139 O146 1.919 . S
Zn139 O151 1.924 . S
O140 Zn139 1.949 . S
O140 Zn141 1.923 . S
O140 Zn142 1.909 1_655 S
O140 Zn143 1.945 . S
Zn141 O140 1.923 . S
Zn141 O144 1.933 . S
Zn141 O147 1.941 . S
Zn141 O148 1.965 . S
Zn142 O140 1.909 1_455 S
Zn142 O149 1.938 . S
Zn142 O150 1.934 . S
Zn142 O160 1.967 . S
Zn143 O140 1.945 . S
Zn143 O145 1.932 . S
Zn143 O152 1.977 . S
Zn143 O153 1.910 . S
O144 Zn141 1.933 . S
O144 C155 1.226 . S
O145 Zn143 1.932 . S
O145 C155 1.307 . S
O146 Zn139 1.919 . S
O146 C157 1.253 . S
O147 Zn141 1.941 . S
O147 C157 1.283 . S
O148 Zn141 1.965 . S
O148 C156 1.303 1_655 S
O149 Zn142 1.938 . S
O149 C156 1.247 . S
O150 Zn142 1.934 . S
O150 C158 1.304 . S
O151 Zn139 1.924 . S
O151 C159 1.311 . S
O152 Zn143 1.977 . S
O152 C158 1.272 1_655 S
O153 Zn143 1.910 . S
O153 C159 1.231 . S
C154 O138 1.225 . S
C154 O160 1.298 1_655 S
C155 O144 1.226 . S
C155 O145 1.307 . S
C156 O148 1.303 1_455 S
C156 O149 1.247 . S
C157 O146 1.253 . S
C157 O147 1.283 . S
C158 O150 1.304 . S
C158 O152 1.272 1_455 S
C159 O151 1.311 . S
C159 O153 1.231 . S
O160 Zn142 1.967 . S
O160 C154 1.298 1_455 S
O161 Zn162 1.953 . S
O161 C177 1.225 . S
Zn162 O161 1.953 . S
Zn162 O163 1.949 . S
Zn162 O169 1.919 . S
Zn162 O174 1.924 . S
O163 Zn162 1.949 . S
O163 Zn164 1.923 . S
O163 Zn165 1.950 . S
O163 Zn166 1.945 . S
Zn164 O163 1.923 . S
Zn164 O167 1.933 . S
Zn164 O170 1.941 . S
Zn164 O171 1.965 . S
Zn165 O163 1.950 . S
Zn165 O172 1.938 . S
Zn165 O173 1.906 . S
Zn165 O183 1.953 . S
Zn166 O163 1.945 . S
Zn166 O168 1.932 . S
Zn166 O175 1.977 . S
Zn166 O176 1.910 . S
O167 Zn164 1.933 . S
O167 C178 1.226 . S
O168 Zn166 1.932 . S
O168 C178 1.307 . S
O169 Zn162 1.919 . S
O169 C180 1.253 . S
O170 Zn164 1.941 . S
O170 C180 1.283 . S
O171 Zn164 1.965 . S
O171 C179 1.303 . S
O172 Zn165 1.938 . S
O172 C179 1.247 . S
O173 Zn165 1.906 . S
O173 C181 1.304 . S
O174 Zn162 1.924 . S
O174 C182 1.311 . S
O175 Zn166 1.977 . S
O175 C181 1.272 . S
O176 Zn166 1.910 . S
O176 C182 1.231 . S
C177 O161 1.225 . S
C177 O183 1.298 . S
C178 O167 1.226 . S
C178 O168 1.307 . S
C179 O171 1.303 . S
C179 O172 1.247 . S
C180 O169 1.253 . S
C180 O170 1.283 . S
C181 O173 1.304 . S
C181 O175 1.272 . S
C182 O174 1.311 . S
C182 O176 1.231 . S
O183 Zn165 1.953 . S
O183 C177 1.298 . S
O184 Zn185 1.953 . S
O184 C200 1.225 . S
Zn185 O184 1.953 . S
Zn185 O186 1.949 . S
Zn185 O192 1.919 . S
Zn185 O197 1.924 . S
O186 Zn185 1.949 . S
O186 Zn187 1.923 . S
O186 Zn188 1.918 1_545 S
O186 Zn189 1.945 . S
Zn187 O186 1.923 . S
Zn187 O190 1.933 . S
Zn187 O193 1.941 . S
Zn187 O194 1.965 . S
Zn188 O186 1.918 1_565 S
Zn188 O195 1.977 . S
Zn188 O196 1.913 . S
Zn188 O206 1.950 . S
Zn189 O186 1.945 . S
Zn189 O191 1.932 . S
Zn189 O198 1.977 . S
Zn189 O199 1.910 . S
O190 Zn187 1.933 . S
O190 C201 1.226 . S
O191 Zn189 1.932 . S
O191 C201 1.307 . S
O192 Zn185 1.919 . S
O192 C203 1.253 . S
O193 Zn187 1.941 . S
O193 C203 1.283 . S
O194 Zn187 1.965 . S
O194 C202 1.303 1_545 S
O195 Zn188 1.977 . S
O195 C202 1.247 . S
O196 Zn188 1.913 . S
O196 C204 1.304 . S
O197 Zn185 1.924 . S
O197 C205 1.311 . S
O198 Zn189 1.977 . S
O198 C204 1.272 1_545 S
O199 Zn189 1.910 . S
O199 C205 1.231 . S
C200 O184 1.225 . S
C200 O206 1.298 1_545 S
C201 O190 1.226 . S
C201 O191 1.307 . S
C202 O194 1.303 1_565 S
C202 O195 1.247 . S
C203 O192 1.253 . S
C203 O193 1.283 . S
C204 O196 1.304 . S
C204 O198 1.272 1_565 S
C205 O197 1.311 . S
C205 O199 1.231 . S
O206 Zn188 1.950 . S
O206 C200 1.298 1_565 S
O207 Zn208 1.953 . S
O207 C223 1.225 . S
Zn208 O207 1.953 . S
Zn208 O209 1.949 . S
Zn208 O215 1.919 . S
Zn208 O220 1.924 . S
O209 Zn208 1.949 . S
O209 Zn210 1.923 . S
O209 Zn211 1.909 1_565 S
O209 Zn212 1.945 . S
Zn210 O209 1.923 . S
Zn210 O213 1.933 . S
Zn210 O216 1.941 . S
Zn210 O217 1.965 . S
Zn211 O209 1.909 1_545 S
Zn211 O218 1.938 . S
Zn211 O219 1.934 . S
Zn211 O229 1.967 . S
Zn212 O209 1.945 . S
Zn212 O214 1.932 . S
Zn212 O221 1.977 . S
Zn212 O222 1.910 . S
O213 Zn210 1.933 . S
O213 C224 1.226 . S
O214 Zn212 1.932 . S
O214 C224 1.307 . S
O215 Zn208 1.919 . S
O215 C226 1.253 . S
O216 Zn210 1.941 . S
O216 C226 1.283 . S
O217 Zn210 1.965 . S
O217 C225 1.303 1_565 S
O218 Zn211 1.938 . S
O218 C225 1.247 . S
O219 Zn211 1.934 . S
O219 C227 1.304 . S
O220 Zn208 1.924 . S
O220 C228 1.311 . S
O221 Zn212 1.977 . S
O221 C227 1.272 1_565 S
O222 Zn212 1.910 . S
O222 C228 1.231 . S
C223 O207 1.225 . S
C223 O229 1.298 1_565 S
C224 O213 1.226 . S
C224 O214 1.307 . S
C225 O217 1.303 1_545 S
C225 O218 1.247 . S
C226 O215 1.253 . S
C226 O216 1.283 . S
C227 O219 1.304 . S
C227 O221 1.272 1_545 S
C228 O220 1.311 . S
C228 O222 1.231 . S
O229 Zn211 1.967 . S
O229 C223 1.298 1_545 S
O230 Zn231 1.953 . S
O230 C246 1.225 . S
Zn231 O230 1.953 . S
Zn231 O232 1.949 . S
Zn231 O238 1.919 . S
Zn231 O243 1.924 . S
O232 Zn231 1.949 . S
O232 Zn233 1.923 . S
O232 Zn234 1.918 1_455 S
O232 Zn235 1.945 . S
Zn233 O232 1.923 . S
Zn233 O236 1.933 . S
Zn233 O239 1.941 . S
Zn233 O240 1.965 . S
Zn234 O232 1.918 1_655 S
Zn234 O241 1.977 . S
Zn234 O242 1.913 . S
Zn234 O252 1.950 . S
Zn235 O232 1.945 . S
Zn235 O237 1.932 . S
Zn235 O244 1.977 . S
Zn235 O245 1.910 . S
O236 Zn233 1.933 . S
O236 C247 1.226 . S
O237 Zn235 1.932 . S
O237 C247 1.307 . S
O238 Zn231 1.919 . S
O238 C249 1.253 . S
O239 Zn233 1.941 . S
O239 C249 1.283 . S
O240 Zn233 1.965 . S
O240 C248 1.303 1_455 S
O241 Zn234 1.977 . S
O241 C248 1.247 . S
O242 Zn234 1.913 . S
O242 C250 1.304 . S
O243 Zn231 1.924 . S
O243 C251 1.311 . S
O244 Zn235 1.977 . S
O244 C250 1.272 1_455 S
O245 Zn235 1.910 . S
O245 C251 1.231 . S
C246 O230 1.225 . S
C246 O252 1.298 1_455 S
C247 O236 1.226 . S
C247 O237 1.307 . S
C248 O240 1.303 1_655 S
C248 O241 1.247 . S
C249 O238 1.253 . S
C249 O239 1.283 . S
C250 O242 1.304 . S
C250 O244 1.272 1_655 S
C251 O243 1.311 . S
C251 O245 1.231 . S
O252 Zn234 1.950 . S
O252 C246 1.298 1_655 S
O253 Zn254 1.953 . S
O253 C269 1.225 . S
Zn254 O253 1.953 . S
Zn254 O255 1.949 . S
Zn254 O261 1.919 . S
Zn254 O266 1.924 . S
O255 Zn254 1.949 . S
O255 Zn256 1.923 . S
O255 Zn257 1.950 . S
O255 Zn258 1.945 . S
Zn256 O255 1.923 . S
Zn256 O259 1.933 . S
Zn256 O262 1.941 . S
Zn256 O263 1.965 . S
Zn257 O255 1.950 . S
Zn257 O264 1.938 . S
Zn257 O265 1.906 . S
Zn257 O275 1.953 . S
Zn258 O255 1.945 . S
Zn258 O260 1.932 . S
Zn258 O267 1.977 . S
Zn258 O268 1.910 . S
O259 Zn256 1.933 . S
O259 C270 1.226 . S
O260 Zn258 1.932 . S
O260 C270 1.307 . S
O261 Zn254 1.919 . S
O261 C272 1.253 . S
O262 Zn256 1.941 . S
O262 C272 1.283 . S
O263 Zn256 1.965 . S
O263 C271 1.303 . S
O264 Zn257 1.938 . S
O264 C271 1.247 . S
O265 Zn257 1.906 . S
O265 C273 1.304 . S
O266 Zn254 1.924 . S
O266 C274 1.311 . S
O267 Zn258 1.977 . S
O267 C273 1.272 . S
O268 Zn258 1.910 . S
O268 C274 1.231 . S
C269 O253 1.225 . S
C269 O275 1.298 . S
C270 O259 1.226 . S
C270 O260 1.307 . S
C271 O263 1.303 . S
C271 O264 1.247 . S
C272 O261 1.253 . S
C272 O262 1.283 . S
C273 O265 1.304 . S
C273 O267 1.272 . S
C274 O266 1.311 . S
C274 O268 1.231 . S
O275 Zn257 1.953 . S
O275 C269 1.298 . S
O276 Zn277 1.953 . S
O276 C292 1.225 . S
Zn277 O276 1.953 . S
Zn277 O278 1.949 . S
Zn277 O284 1.919 . S
Zn277 O289 1.924 . S
O278 Zn277 1.949 . S
O278 Zn279 1.923 . S
O278 Zn280 1.950 . S
O278 Zn281 1.945 . S
Zn279 O278 1.923 . S
Zn279 O282 1.933 . S
Zn279 O285 1.941 . S
Zn279 O286 1.965 . S
Zn280 O278 1.950 . S
Zn280 O287 1.938 . S
Zn280 O288 1.906 . S
Zn280 O298 1.953 . S
Zn281 O278 1.945 . S
Zn281 O283 1.932 . S
Zn281 O290 1.977 . S
Zn281 O291 1.910 . S
O282 Zn279 1.933 . S
O282 C293 1.226 . S
O283 Zn281 1.932 . S
O283 C293 1.307 . S
O284 Zn277 1.919 . S
O284 C295 1.253 . S
O285 Zn279 1.941 . S
O285 C295 1.283 . S
O286 Zn279 1.965 . S
O286 C294 1.303 . S
O287 Zn280 1.938 . S
O287 C294 1.247 . S
O288 Zn280 1.906 . S
O288 C296 1.304 . S
O289 Zn277 1.924 . S
O289 C297 1.311 . S
O290 Zn281 1.977 . S
O290 C296 1.272 . S
O291 Zn281 1.910 . S
O291 C297 1.231 . S
C292 O276 1.225 . S
C292 O298 1.298 . S
C293 O282 1.226 . S
C293 O283 1.307 . S
C294 O286 1.303 . S
C294 O287 1.247 . S
C295 O284 1.253 . S
C295 O285 1.283 . S
C296 O288 1.304 . S
C296 O290 1.272 . S
C297 O289 1.311 . S
C297 O291 1.231 . S
O298 Zn280 1.953 . S
O298 C292 1.298 . S
O299 Zn300 1.953 . S
O299 C315 1.225 . S
Zn300 O299 1.953 . S
Zn300 O301 1.949 . S
Zn300 O307 1.919 . S
Zn300 O312 1.924 . S
O301 Zn300 1.949 . S
O301 Zn302 1.923 . S
O301 Zn303 1.950 . S
O301 Zn304 1.945 . S
Zn302 O301 1.923 . S
Zn302 O305 1.933 . S
Zn302 O308 1.941 . S
Zn302 O309 1.965 . S
Zn303 O301 1.950 . S
Zn303 O310 1.938 . S
Zn303 O311 1.906 . S
Zn303 O321 1.953 . S
Zn304 O301 1.945 . S
Zn304 O306 1.932 . S
Zn304 O313 1.977 . S
Zn304 O314 1.910 . S
O305 Zn302 1.933 . S
O305 C316 1.226 . S
O306 Zn304 1.932 . S
O306 C316 1.307 . S
O307 Zn300 1.919 . S
O307 C318 1.253 . S
O308 Zn302 1.941 . S
O308 C318 1.283 . S
O309 Zn302 1.965 . S
O309 C317 1.303 . S
O310 Zn303 1.938 . S
O310 C317 1.247 . S
O311 Zn303 1.906 . S
O311 C319 1.304 . S
O312 Zn300 1.924 . S
O312 C320 1.311 . S
O313 Zn304 1.977 . S
O313 C319 1.272 . S
O314 Zn304 1.910 . S
O314 C320 1.231 . S
C315 O299 1.225 . S
C315 O321 1.298 . S
C316 O305 1.226 . S
C316 O306 1.307 . S
C317 O309 1.303 . S
C317 O310 1.247 . S
C318 O307 1.253 . S
C318 O308 1.283 . S
C319 O311 1.304 . S
C319 O313 1.272 . S
C320 O312 1.311 . S
C320 O314 1.231 . S
O321 Zn303 1.953 . S
O321 C315 1.298 . S
O322 Zn323 1.953 . S
O322 C338 1.225 . S
Zn323 O322 1.953 . S
Zn323 O324 1.949 . S
Zn323 O330 1.919 . S
Zn323 O335 1.924 . S
O324 Zn323 1.949 . S
O324 Zn325 1.923 . S
O324 Zn326 1.950 . S
O324 Zn327 1.945 . S
Zn325 O324 1.923 . S
Zn325 O328 1.933 . S
Zn325 O331 1.941 . S
Zn325 O332 1.965 . S
Zn326 O324 1.950 . S
Zn326 O333 1.938 . S
Zn326 O334 1.906 . S
Zn326 O344 1.953 . S
Zn327 O324 1.945 . S
Zn327 O329 1.932 . S
Zn327 O336 1.977 . S
Zn327 O337 1.910 . S
O328 Zn325 1.933 . S
O328 C339 1.226 . S
O329 Zn327 1.932 . S
O329 C339 1.307 . S
O330 Zn323 1.919 . S
O330 C341 1.253 . S
O331 Zn325 1.941 . S
O331 C341 1.283 . S
O332 Zn325 1.965 . S
O332 C340 1.303 . S
O333 Zn326 1.938 . S
O333 C340 1.247 . S
O334 Zn326 1.906 . S
O334 C342 1.304 . S
O335 Zn323 1.924 . S
O335 C343 1.311 . S
O336 Zn327 1.977 . S
O336 C342 1.272 . S
O337 Zn327 1.910 . S
O337 C343 1.231 . S
C338 O322 1.225 . S
C338 O344 1.298 . S
C339 O328 1.226 . S
C339 O329 1.307 . S
C340 O332 1.303 . S
C340 O333 1.247 . S
C341 O330 1.253 . S
C341 O331 1.283 . S
C342 O334 1.304 . S
C342 O336 1.272 . S
C343 O335 1.311 . S
C343 O337 1.231 . S
O344 Zn326 1.953 . S
O344 C338 1.298 . S
O345 Zn346 1.953 . S
O345 C361 1.225 . S
Zn346 O345 1.953 . S
Zn346 O347 1.949 . S
Zn346 O353 1.919 . S
Zn346 O358 1.924 . S
O347 Zn346 1.949 . S
O347 Zn348 1.923 . S
O347 Zn349 1.950 . S
O347 Zn350 1.945 . S
Zn348 O347 1.923 . S
Zn348 O351 1.933 . S
Zn348 O354 1.941 . S
Zn348 O355 1.965 . S
Zn349 O347 1.950 . S
Zn349 O356 1.938 . S
Zn349 O357 1.906 . S
Zn349 O367 1.953 . S
Zn350 O347 1.945 . S
Zn350 O352 1.932 . S
Zn350 O359 1.977 . S
Zn350 O360 1.910 . S
O351 Zn348 1.933 . S
O351 C362 1.226 . S
O352 Zn350 1.932 . S
O352 C362 1.307 . S
O353 Zn346 1.919 . S
O353 C364 1.253 . S
O354 Zn348 1.941 . S
O354 C364 1.283 . S
O355 Zn348 1.965 . S
O355 C363 1.303 . S
O356 Zn349 1.938 . S
O356 C363 1.247 . S
O357 Zn349 1.906 . S
O357 C365 1.304 . S
O358 Zn346 1.924 . S
O358 C366 1.311 . S
O359 Zn350 1.977 . S
O359 C365 1.272 . S
O360 Zn350 1.910 . S
O360 C366 1.231 . S
C361 O345 1.225 . S
C361 O367 1.298 . S
C362 O351 1.226 . S
C362 O352 1.307 . S
C363 O355 1.303 . S
C363 O356 1.247 . S
C364 O353 1.253 . S
C364 O354 1.283 . S
C365 O357 1.304 . S
C365 O359 1.272 . S
C366 O358 1.311 . S
C366 O360 1.231 . S
O367 Zn349 1.953 . S
O367 C361 1.298 . S
O368 Zn369 1.953 . S
O368 C384 1.225 . S
Zn369 O368 1.953 . S
Zn369 O370 1.949 . S
Zn369 O376 1.919 . S
Zn369 O381 1.924 . S
O370 Zn369 1.949 . S
O370 Zn371 1.923 . S
O370 Zn372 1.950 . S
O370 Zn373 1.945 . S
Zn371 O370 1.923 . S
Zn371 O374 1.933 . S
Zn371 O377 1.941 . S
Zn371 O378 1.965 . S
Zn372 O370 1.950 . S
Zn372 O379 1.938 . S
Zn372 O380 1.906 . S
Zn372 O390 1.953 . S
Zn373 O370 1.945 . S
Zn373 O375 1.932 . S
Zn373 O382 1.977 . S
Zn373 O383 1.910 . S
O374 Zn371 1.933 . S
O374 C385 1.226 . S
O375 Zn373 1.932 . S
O375 C385 1.307 . S
O376 Zn369 1.919 . S
O376 C387 1.253 . S
O377 Zn371 1.941 . S
O377 C387 1.283 . S
O378 Zn371 1.965 . S
O378 C386 1.303 . S
O379 Zn372 1.938 . S
O379 C386 1.247 . S
O380 Zn372 1.906 . S
O380 C388 1.304 . S
O381 Zn369 1.924 . S
O381 C389 1.311 . S
O382 Zn373 1.977 . S
O382 C388 1.272 . S
O383 Zn373 1.910 . S
O383 C389 1.231 . S
C384 O368 1.225 . S
C384 O390 1.298 . S
C385 O374 1.226 . S
C385 O375 1.307 . S
C386 O378 1.303 . S
C386 O379 1.247 . S
C387 O376 1.253 . S
C387 O377 1.283 . S
C388 O380 1.304 . S
C388 O382 1.272 . S
C389 O381 1.311 . S
C389 O383 1.231 . S
O390 Zn372 1.953 . S
O390 C384 1.298 . S
O391 Zn392 1.953 . S
O391 C407 1.225 . S
Zn392 O391 1.953 . S
Zn392 O393 1.949 . S
Zn392 O399 1.919 . S
Zn392 O404 1.924 . S
O393 Zn392 1.949 . S
O393 Zn394 1.923 . S
O393 Zn395 1.950 . S
O393 Zn396 1.945 . S
Zn394 O393 1.923 . S
Zn394 O397 1.933 . S
Zn394 O400 1.941 . S
Zn394 O401 1.965 . S
Zn395 O393 1.950 . S
Zn395 O402 1.938 . S
Zn395 O403 1.906 . S
Zn395 O413 1.953 . S
Zn396 O393 1.945 . S
Zn396 O398 1.932 . S
Zn396 O405 1.977 . S
Zn396 O406 1.910 . S
O397 Zn394 1.933 . S
O397 C408 1.226 . S
O398 Zn396 1.932 . S
O398 C408 1.307 . S
O399 Zn392 1.919 . S
O399 C410 1.253 . S
O400 Zn394 1.941 . S
O400 C410 1.283 . S
O401 Zn394 1.965 . S
O401 C409 1.303 . S
O402 Zn395 1.938 . S
O402 C409 1.247 . S
O403 Zn395 1.906 . S
O403 C411 1.304 . S
O404 Zn392 1.924 . S
O404 C412 1.311 . S
O405 Zn396 1.977 . S
O405 C411 1.272 . S
O406 Zn396 1.910 . S
O406 C412 1.231 . S
C407 O391 1.225 . S
C407 O413 1.298 . S
C408 O397 1.226 . S
C408 O398 1.307 . S
C409 O401 1.303 . S
C409 O402 1.247 . S
C410 O399 1.253 . S
C410 O400 1.283 . S
C411 O403 1.304 . S
C411 O405 1.272 . S
C412 O404 1.311 . S
C412 O406 1.231 . S
O413 Zn395 1.953 . S
O413 C407 1.298 . S
O414 Zn415 1.953 . S
O414 C430 1.225 . S
Zn415 O414 1.953 . S
Zn415 O416 1.949 . S
Zn415 O422 1.919 . S
Zn415 O427 1.924 . S
O416 Zn415 1.949 . S
O416 Zn417 1.923 . S
O416 Zn418 1.950 . S
O416 Zn419 1.945 . S
Zn417 O416 1.923 . S
Zn417 O420 1.933 . S
Zn417 O423 1.941 . S
Zn417 O424 1.965 . S
Zn418 O416 1.950 . S
Zn418 O425 1.938 . S
Zn418 O426 1.906 . S
Zn418 O436 1.953 . S
Zn419 O416 1.945 . S
Zn419 O421 1.932 . S
Zn419 O428 1.977 . S
Zn419 O429 1.910 . S
O420 Zn417 1.933 . S
O420 C431 1.226 . S
O421 Zn419 1.932 . S
O421 C431 1.307 . S
O422 Zn415 1.919 . S
O422 C433 1.253 . S
O423 Zn417 1.941 . S
O423 C433 1.283 . S
O424 Zn417 1.965 . S
O424 C432 1.303 . S
O425 Zn418 1.938 . S
O425 C432 1.247 . S
O426 Zn418 1.906 . S
O426 C434 1.304 . S
O427 Zn415 1.924 . S
O427 C435 1.311 . S
O428 Zn419 1.977 . S
O428 C434 1.272 . S
O429 Zn419 1.910 . S
O429 C435 1.231 . S
C430 O414 1.225 . S
C430 O436 1.298 . S
C431 O420 1.226 . S
C431 O421 1.307 . S
C432 O424 1.303 . S
C432 O425 1.247 . S
C433 O422 1.253 . S
C433 O423 1.283 . S
C434 O426 1.304 . S
C434 O428 1.272 . S
C435 O427 1.311 . S
C435 O429 1.231 . S
O436 Zn418 1.953 . S
O436 C430 1.298 . S
O437 Zn438 1.953 . S
O437 C453 1.225 . S
Zn438 O437 1.953 . S
Zn438 O439 1.949 . S
Zn438 O445 1.919 . S
Zn438 O450 1.924 . S
O439 Zn438 1.949 . S
O439 Zn440 1.923 . S
O439 Zn441 1.950 . S
O439 Zn442 1.945 . S
Zn440 O439 1.923 . S
Zn440 O443 1.933 . S
Zn440 O446 1.941 . S
Zn440 O447 1.965 . S
Zn441 O439 1.950 . S
Zn441 O448 1.938 . S
Zn441 O449 1.906 . S
Zn441 O459 1.953 . S
Zn442 O439 1.945 . S
Zn442 O444 1.932 . S
Zn442 O451 1.977 . S
Zn442 O452 1.910 . S
O443 Zn440 1.933 . S
O443 C454 1.226 . S
O444 Zn442 1.932 . S
O444 C454 1.307 . S
O445 Zn438 1.919 . S
O445 C456 1.253 . S
O446 Zn440 1.941 . S
O446 C456 1.283 . S
O447 Zn440 1.965 . S
O447 C455 1.303 . S
O448 Zn441 1.938 . S
O448 C455 1.247 . S
O449 Zn441 1.906 . S
O449 C457 1.304 . S
O450 Zn438 1.924 . S
O450 C458 1.311 . S
O451 Zn442 1.977 . S
O451 C457 1.272 . S
O452 Zn442 1.910 . S
O452 C458 1.231 . S
C453 O437 1.225 . S
C453 O459 1.298 . S
C454 O443 1.226 . S
C454 O444 1.307 . S
C455 O447 1.303 . S
C455 O448 1.247 . S
C456 O445 1.253 . S
C456 O446 1.283 . S
C457 O449 1.304 . S
C457 O451 1.272 . S
C458 O450 1.311 . S
C458 O452 1.231 . S
O459 Zn441 1.953 . S
O459 C453 1.298 . S
O460 Zn461 1.953 . S
O460 C476 1.225 . S
Zn461 O460 1.953 . S
Zn461 O462 1.949 . S
Zn461 O468 1.919 . S
Zn461 O473 1.924 . S
O462 Zn461 1.949 . S
O462 Zn463 1.923 . S
O462 Zn464 1.950 . S
O462 Zn465 1.945 . S
Zn463 O462 1.923 . S
Zn463 O466 1.933 . S
Zn463 O469 1.941 . S
Zn463 O470 1.965 . S
Zn464 O462 1.950 . S
Zn464 O471 1.938 . S
Zn464 O472 1.906 . S
Zn464 O482 1.953 . S
Zn465 O462 1.945 . S
Zn465 O467 1.932 . S
Zn465 O474 1.977 . S
Zn465 O475 1.910 . S
O466 Zn463 1.933 . S
O466 C477 1.226 . S
O467 Zn465 1.932 . S
O467 C477 1.307 . S
O468 Zn461 1.919 . S
O468 C479 1.253 . S
O469 Zn463 1.941 . S
O469 C479 1.283 . S
O470 Zn463 1.965 . S
O470 C478 1.303 . S
O471 Zn464 1.938 . S
O471 C478 1.247 . S
O472 Zn464 1.906 . S
O472 C480 1.304 . S
O473 Zn461 1.924 . S
O473 C481 1.311 . S
O474 Zn465 1.977 . S
O474 C480 1.272 . S
O475 Zn465 1.910 . S
O475 C481 1.231 . S
C476 O460 1.225 . S
C476 O482 1.298 . S
C477 O466 1.226 . S
C477 O467 1.307 . S
C478 O470 1.303 . S
C478 O471 1.247 . S
C479 O468 1.253 . S
C479 O469 1.283 . S
C480 O472 1.304 . S
C480 O474 1.272 . S
C481 O473 1.311 . S
C481 O475 1.231 . S
O482 Zn464 1.953 . S
O482 C476 1.298 . S
O483 Zn484 1.953 . S
O483 C499 1.225 . S
Zn484 O483 1.953 . S
Zn484 O485 1.949 . S
Zn484 O491 1.919 . S
Zn484 O496 1.924 . S
O485 Zn484 1.949 . S
O485 Zn486 1.923 . S
O485 Zn487 1.950 . S
O485 Zn488 1.945 . S
Zn486 O485 1.923 . S
Zn486 O489 1.933 . S
Zn486 O492 1.941 . S
Zn486 O493 1.965 . S
Zn487 O485 1.950 . S
Zn487 O494 1.938 . S
Zn487 O495 1.906 . S
Zn487 O505 1.953 . S
Zn488 O485 1.945 . S
Zn488 O490 1.932 . S
Zn488 O497 1.977 . S
Zn488 O498 1.910 . S
O489 Zn486 1.933 . S
O489 C500 1.226 . S
O490 Zn488 1.932 . S
O490 C500 1.307 . S
O491 Zn484 1.919 . S
O491 C502 1.253 . S
O492 Zn486 1.941 . S
O492 C502 1.283 . S
O493 Zn486 1.965 . S
O493 C501 1.303 . S
O494 Zn487 1.938 . S
O494 C501 1.247 . S
O495 Zn487 1.906 . S
O495 C503 1.304 . S
O496 Zn484 1.924 . S
O496 C504 1.311 . S
O497 Zn488 1.977 . S
O497 C503 1.272 . S
O498 Zn488 1.910 . S
O498 C504 1.231 . S
C499 O483 1.225 . S
C499 O505 1.298 . S
C500 O489 1.226 . S
C500 O490 1.307 . S
C501 O493 1.303 . S
C501 O494 1.247 . S
C502 O491 1.253 . S
C502 O492 1.283 . S
C503 O495 1.304 . S
C503 O497 1.272 . S
C504 O496 1.311 . S
C504 O498 1.231 . S
O505 Zn487 1.953 . S
O505 C499 1.298 . S
O506 Zn507 1.953 . S
O506 C522 1.225 . S
Zn507 O506 1.953 . S
Zn507 O508 1.949 . S
Zn507 O514 1.919 . S
Zn507 O519 1.924 . S
O508 Zn507 1.949 . S
O508 Zn509 1.923 . S
O508 Zn510 1.950 . S
O508 Zn511 1.945 . S
Zn509 O508 1.923 . S
Zn509 O512 1.933 . S
Zn509 O515 1.941 . S
Zn509 O516 1.965 . S
Zn510 O508 1.950 . S
Zn510 O517 1.938 . S
Zn510 O518 1.906 . S
Zn510 O528 1.953 . S
Zn511 O508 1.945 . S
Zn511 O513 1.932 . S
Zn511 O520 1.977 . S
Zn511 O521 1.910 . S
O512 Zn509 1.933 . S
O512 C523 1.226 . S
O513 Zn511 1.932 . S
O513 C523 1.307 . S
O514 Zn507 1.919 . S
O514 C525 1.253 . S
O515 Zn509 1.941 . S
O515 C525 1.283 . S
O516 Zn509 1.965 . S
O516 C524 1.303 . S
O517 Zn510 1.938 . S
O517 C524 1.247 . S
O518 Zn510 1.906 . S
O518 C526 1.304 . S
O519 Zn507 1.924 . S
O519 C527 1.311 . S
O520 Zn511 1.977 . S
O520 C526 1.272 . S
O521 Zn511 1.910 . S
O521 C527 1.231 . S
C522 O506 1.225 . S
C522 O528 1.298 . S
C523 O512 1.226 . S
C523 O513 1.307 . S
C524 O516 1.303 . S
C524 O517 1.247 . S
C525 O514 1.253 . S
C525 O515 1.283 . S
C526 O518 1.304 . S
C526 O520 1.272 . S
C527 O519 1.311 . S
C527 O521 1.231 . S
O528 Zn510 1.953 . S
O528 C522 1.298 . S
O529 Zn530 1.953 . S
O529 C545 1.225 . S
Zn530 O529 1.953 . S
Zn530 O531 1.949 . S
Zn530 O537 1.919 . S
Zn530 O542 1.924 . S
O531 Zn530 1.949 . S
O531 Zn532 1.923 . S
O531 Zn533 1.950 . S
O531 Zn534 1.945 . S
Zn532 O531 1.923 . S
Zn532 O535 1.933 . S
Zn532 O538 1.941 . S
Zn532 O539 1.965 . S
Zn533 O531 1.950 . S
Zn533 O540 1.938 . S
Zn533 O541 1.906 . S
Zn533 O551 1.953 . S
Zn534 O531 1.945 . S
Zn534 O536 1.932 . S
Zn534 O543 1.977 . S
Zn534 O544 1.910 . S
O535 Zn532 1.933 . S
O535 C546 1.226 . S
O536 Zn534 1.932 . S
O536 C546 1.307 . S
O537 Zn530 1.919 . S
O537 C548 1.253 . S
O538 Zn532 1.941 . S
O538 C548 1.283 . S
O539 Zn532 1.965 . S
O539 C547 1.303 . S
O540 Zn533 1.938 . S
O540 C547 1.247 . S
O541 Zn533 1.906 . S
O541 C549 1.304 . S
O542 Zn530 1.924 . S
O542 C550 1.311 . S
O543 Zn534 1.977 . S
O543 C549 1.272 . S
O544 Zn534 1.910 . S
O544 C550 1.231 . S
C545 O529 1.225 . S
C545 O551 1.298 . S
C546 O535 1.226 . S
C546 O536 1.307 . S
C547 O539 1.303 . S
C547 O540 1.247 . S
C548 O537 1.253 . S
C548 O538 1.283 . S
C549 O541 1.304 . S
C549 O543 1.272 . S
C550 O542 1.311 . S
C550 O544 1.231 . S
O551 Zn533 1.953 . S
O551 C545 1.298 . S
O552 Zn553 1.953 . S
O552 C568 1.225 . S
Zn553 O552 1.953 . S
Zn553 O554 1.949 . S
Zn553 O560 1.919 . S
Zn553 O565 1.924 . S
O554 Zn553 1.949 . S
O554 Zn555 1.923 . S
O554 Zn556 1.950 . S
O554 Zn557 1.945 . S
Zn555 O554 1.923 . S
Zn555 O558 1.933 . S
Zn555 O561 1.941 . S
Zn555 O562 1.965 . S
Zn556 O554 1.950 . S
Zn556 O563 1.938 . S
Zn556 O564 1.906 . S
Zn556 O574 1.953 . S
Zn557 O554 1.945 . S
Zn557 O559 1.932 . S
Zn557 O566 1.977 . S
Zn557 O567 1.910 . S
O558 Zn555 1.933 . S
O558 C569 1.226 . S
O559 Zn557 1.932 . S
O559 C569 1.307 . S
O560 Zn553 1.919 . S
O560 C571 1.253 . S
O561 Zn555 1.941 . S
O561 C571 1.283 . S
O562 Zn555 1.965 . S
O562 C570 1.303 . S
O563 Zn556 1.938 . S
O563 C570 1.247 . S
O564 Zn556 1.906 . S
O564 C572 1.304 . S
O565 Zn553 1.924 . S
O565 C573 1.311 . S
O566 Zn557 1.977 . S
O566 C572 1.272 . S
O567 Zn557 1.910 . S
O567 C573 1.231 . S
C568 O552 1.225 . S
C568 O574 1.298 . S
C569 O558 1.226 . S
C569 O559 1.307 . S
C570 O562 1.303 . S
C570 O563 1.247 . S
C571 O560 1.253 . S
C571 O561 1.283 . S
C572 O564 1.304 . S
C572 O566 1.272 . S
C573 O565 1.311 . S
C573 O567 1.231 . S
O574 Zn556 1.953 . S
O574 C568 1.298 . S
O575 Zn576 1.953 . S
O575 C591 1.225 . S
Zn576 O575 1.953 . S
Zn576 O577 1.949 . S
Zn576 O583 1.919 . S
Zn576 O588 1.924 . S
O577 Zn576 1.949 . S
O577 Zn578 1.923 . S
O577 Zn579 1.950 . S
O577 Zn580 1.945 . S
Zn578 O577 1.923 . S
Zn578 O581 1.933 . S
Zn578 O584 1.941 . S
Zn578 O585 1.965 . S
Zn579 O577 1.950 . S
Zn579 O586 1.938 . S
Zn579 O587 1.906 . S
Zn579 O597 1.953 . S
Zn580 O577 1.945 . S
Zn580 O582 1.932 . S
Zn580 O589 1.977 . S
Zn580 O590 1.910 . S
O581 Zn578 1.933 . S
O581 C592 1.226 . S
O582 Zn580 1.932 . S
O582 C592 1.307 . S
O583 Zn576 1.919 . S
O583 C594 1.253 . S
O584 Zn578 1.941 . S
O584 C594 1.283 . S
O585 Zn578 1.965 . S
O585 C593 1.303 . S
O586 Zn579 1.938 . S
O586 C593 1.247 . S
O587 Zn579 1.906 . S
O587 C595 1.304 . S
O588 Zn576 1.924 . S
O588 C596 1.311 . S
O589 Zn580 1.977 . S
O589 C595 1.272 . S
O590 Zn580 1.910 . S
O590 C596 1.231 . S
C591 O575 1.225 . S
C591 O597 1.298 . S
C592 O581 1.226 . S
C592 O582 1.307 . S
C593 O585 1.303 . S
C593 O586 1.247 . S
C594 O583 1.253 . S
C594 O584 1.283 . S
C595 O587 1.304 . S
C595 O589 1.272 . S
C596 O588 1.311 . S
C596 O590 1.231 . S
O597 Zn579 1.953 . S
O597 C591 1.298 . S
O598 Zn599 1.953 . S
O598 C614 1.225 . S
Zn599 O598 1.953 . S
Zn599 O600 1.949 . S
Zn599 O606 1.919 . S
Zn599 O611 1.924 . S
O600 Zn599 1.949 . S
O600 Zn601 1.923 . S
O600 Zn602 1.950 . S
O600 Zn603 1.945 . S
Zn601 O600 1.923 . S
Zn601 O604 1.933 . S
Zn601 O607 1.941 . S
Zn601 O608 1.965 . S
Zn602 O600 1.950 . S
Zn602 O609 1.938 . S
Zn602 O610 1.906 . S
Zn602 O620 1.953 . S
Zn603 O600 1.945 . S
Zn603 O605 1.932 . S
Zn603 O612 1.977 . S
Zn603 O613 1.910 . S
O604 Zn601 1.933 . S
O604 C615 1.226 . S
O605 Zn603 1.932 . S
O605 C615 1.307 . S
O606 Zn599 1.919 . S
O606 C617 1.253 . S
O607 Zn601 1.941 . S
O607 C617 1.283 . S
O608 Zn601 1.965 . S
O608 C616 1.303 . S
O609 Zn602 1.938 . S
O609 C616 1.247 . S
O610 Zn602 1.906 . S
O610 C618 1.304 . S
O611 Zn599 1.924 . S
O611 C619 1.311 . S
O612 Zn603 1.977 . S
O612 C618 1.272 . S
O613 Zn603 1.910 . S
O613 C619 1.231 . S
C614 O598 1.225 . S
C614 O620 1.298 . S
C615 O604 1.226 . S
C615 O605 1.307 . S
C616 O608 1.303 . S
C616 O609 1.247 . S
C617 O606 1.253 . S
C617 O607 1.283 . S
C618 O610 1.304 . S
C618 O612 1.272 . S
C619 O611 1.311 . S
C619 O613 1.231 . S
O620 Zn602 1.953 . S
O620 C614 1.298 . S
O621 Zn622 1.953 . S
O621 C637 1.225 . S
Zn622 O621 1.953 . S
Zn622 O623 1.949 . S
Zn622 O629 1.919 . S
Zn622 O634 1.924 . S
O623 Zn622 1.949 . S
O623 Zn624 1.923 . S
O623 Zn625 1.950 . S
O623 Zn626 1.945 . S
Zn624 O623 1.923 . S
Zn624 O627 1.933 . S
Zn624 O630 1.941 . S
Zn624 O631 1.965 . S
Zn625 O623 1.950 . S
Zn625 O632 1.938 . S
Zn625 O633 1.906 . S
Zn625 O643 1.953 . S
Zn626 O623 1.945 . S
Zn626 O628 1.932 . S
Zn626 O635 1.977 . S
Zn626 O636 1.910 . S
O627 Zn624 1.933 . S
O627 C638 1.226 . S
O628 Zn626 1.932 . S
O628 C638 1.307 . S
O629 Zn622 1.919 . S
O629 C640 1.253 . S
O630 Zn624 1.941 . S
O630 C640 1.283 . S
O631 Zn624 1.965 . S
O631 C639 1.303 . S
O632 Zn625 1.938 . S
O632 C639 1.247 . S
O633 Zn625 1.906 . S
O633 C641 1.304 . S
O634 Zn622 1.924 . S
O634 C642 1.311 . S
O635 Zn626 1.977 . S
O635 C641 1.272 . S
O636 Zn626 1.910 . S
O636 C642 1.231 . S
C637 O621 1.225 . S
C637 O643 1.298 . S
C638 O627 1.226 . S
C638 O628 1.307 . S
C639 O631 1.303 . S
C639 O632 1.247 . S
C640 O629 1.253 . S
C640 O630 1.283 . S
C641 O633 1.304 . S
C641 O635 1.272 . S
C642 O634 1.311 . S
C642 O636 1.231 . S
O643 Zn625 1.953 . S
O643 C637 1.298 . S
O644 Zn645 1.953 . S
O644 C660 1.225 . S
Zn645 O644 1.953 . S
Zn645 O646 1.949 . S
Zn645 O652 1.919 . S
Zn645 O657 1.924 . S
O646 Zn645 1.949 . S
O646 Zn647 1.923 . S
O646 Zn648 1.950 . S
O646 Zn649 1.945 . S
Zn647 O646 1.923 . S
Zn647 O650 1.933 . S
Zn647 O653 1.941 . S
Zn647 O654 1.965 . S
Zn648 O646 1.950 . S
Zn648 O655 1.938 . S
Zn648 O656 1.906 . S
Zn648 O666 1.953 . S
Zn649 O646 1.945 . S
Zn649 O651 1.932 . S
Zn649 O658 1.977 . S
Zn649 O659 1.910 . S
O650 Zn647 1.933 . S
O650 C661 1.226 . S
O651 Zn649 1.932 . S
O651 C661 1.307 . S
O652 Zn645 1.919 . S
O652 C663 1.253 . S
O653 Zn647 1.941 . S
O653 C663 1.283 . S
O654 Zn647 1.965 . S
O654 C662 1.303 . S
O655 Zn648 1.938 . S
O655 C662 1.247 . S
O656 Zn648 1.906 . S
O656 C664 1.304 . S
O657 Zn645 1.924 . S
O657 C665 1.311 . S
O658 Zn649 1.977 . S
O658 C664 1.272 . S
O659 Zn649 1.910 . S
O659 C665 1.231 . S
C660 O644 1.225 . S
C660 O666 1.298 . S
C661 O650 1.226 . S
C661 O651 1.307 . S
C662 O654 1.303 . S
C662 O655 1.247 . S
C663 O652 1.253 . S
C663 O653 1.283 . S
C664 O656 1.304 . S
C664 O658 1.272 . S
C665 O657 1.311 . S
C665 O659 1.231 . S
O666 Zn648 1.953 . S
O666 C660 1.298 . S
O667 Zn668 1.953 . S
O667 C683 1.225 . S
Zn668 O667 1.953 . S
Zn668 O669 1.949 . S
Zn668 O675 1.919 . S
Zn668 O680 1.924 . S
O669 Zn668 1.949 . S
O669 Zn670 1.923 . S
O669 Zn671 1.950 . S
O669 Zn672 1.945 . S
Zn670 O669 1.923 . S
Zn670 O673 1.933 . S
Zn670 O676 1.941 . S
Zn670 O677 1.965 . S
Zn671 O669 1.950 . S
Zn671 O678 1.938 . S
Zn671 O679 1.906 . S
Zn671 O689 1.953 . S
Zn672 O669 1.945 . S
Zn672 O674 1.932 . S
Zn672 O681 1.977 . S
Zn672 O682 1.910 . S
O673 Zn670 1.933 . S
O673 C684 1.226 . S
O674 Zn672 1.932 . S
O674 C684 1.307 . S
O675 Zn668 1.919 . S
O675 C686 1.253 . S
O676 Zn670 1.941 . S
O676 C686 1.283 . S
O677 Zn670 1.965 . S
O677 C685 1.303 . S
O678 Zn671 1.938 . S
O678 C685 1.247 . S
O679 Zn671 1.906 . S
O679 C687 1.304 . S
O680 Zn668 1.924 . S
O680 C688 1.311 . S
O681 Zn672 1.977 . S
O681 C687 1.272 . S
O682 Zn672 1.910 . S
O682 C688 1.231 . S
C683 O667 1.225 . S
C683 O689 1.298 . S
C684 O673 1.226 . S
C684 O674 1.307 . S
C685 O677 1.303 . S
C685 O678 1.247 . S
C686 O675 1.253 . S
C686 O676 1.283 . S
C687 O679 1.304 . S
C687 O681 1.272 . S
C688 O680 1.311 . S
C688 O682 1.231 . S
O689 Zn671 1.953 . S
O689 C683 1.298 . S
O690 Zn691 1.953 . S
O690 C706 1.225 . S
Zn691 O690 1.953 . S
Zn691 O692 1.949 . S
Zn691 O698 1.919 . S
Zn691 O703 1.924 . S
O692 Zn691 1.949 . S
O692 Zn693 1.923 . S
O692 Zn694 1.950 . S
O692 Zn695 1.945 . S
Zn693 O692 1.923 . S
Zn693 O696 1.933 . S
Zn693 O699 1.941 . S
Zn693 O700 1.965 . S
Zn694 O692 1.950 . S
Zn694 O701 1.938 . S
Zn694 O702 1.906 . S
Zn694 O712 1.953 . S
Zn695 O692 1.945 . S
Zn695 O697 1.932 . S
Zn695 O704 1.977 . S
Zn695 O705 1.910 . S
O696 Zn693 1.933 . S
O696 C707 1.226 . S
O697 Zn695 1.932 . S
O697 C707 1.307 . S
O698 Zn691 1.919 . S
O698 C709 1.253 . S
O699 Zn693 1.941 . S
O699 C709 1.283 . S
O700 Zn693 1.965 . S
O700 C708 1.303 . S
O701 Zn694 1.938 . S
O701 C708 1.247 . S
O702 Zn694 1.906 . S
O702 C710 1.304 . S
O703 Zn691 1.924 . S
O703 C711 1.311 . S
O704 Zn695 1.977 . S
O704 C710 1.272 . S
O705 Zn695 1.910 . S
O705 C711 1.231 . S
C706 O690 1.225 . S
C706 O712 1.298 . S
C707 O696 1.226 . S
C707 O697 1.307 . S
C708 O700 1.303 . S
C708 O701 1.247 . S
C709 O698 1.253 . S
C709 O699 1.283 . S
C710 O702 1.304 . S
C710 O704 1.272 . S
C711 O703 1.311 . S
C711 O705 1.231 . S
O712 Zn694 1.953 . S
O712 C706 1.298 . S
O713 Zn714 1.953 . S
O713 C729 1.225 . S
Zn714 O713 1.953 . S
Zn714 O715 1.949 . S
Zn714 O721 1.919 . S
Zn714 O726 1.924 . S
O715 Zn714 1.949 . S
O715 Zn716 1.923 . S
O715 Zn717 1.950 . S
O715 Zn718 1.945 . S
Zn716 O715 1.923 . S
Zn716 O719 1.933 . S
Zn716 O722 1.941 . S
Zn716 O723 1.965 . S
Zn717 O715 1.950 . S
Zn717 O724 1.938 . S
Zn717 O725 1.906 . S
Zn717 O735 1.953 . S
Zn718 O715 1.945 . S
Zn718 O720 1.932 . S
Zn718 O727 1.977 . S
Zn718 O728 1.910 . S
O719 Zn716 1.933 . S
O719 C730 1.226 . S
O720 Zn718 1.932 . S
O720 C730 1.307 . S
O721 Zn714 1.919 . S
O721 C732 1.253 . S
O722 Zn716 1.941 . S
O722 C732 1.283 . S
O723 Zn716 1.965 . S
O723 C731 1.303 . S
O724 Zn717 1.938 . S
O724 C731 1.247 . S
O725 Zn717 1.906 . S
O725 C733 1.304 . S
O726 Zn714 1.924 . S
O726 C734 1.311 . S
O727 Zn718 1.977 . S
O727 C733 1.272 . S
O728 Zn718 1.910 . S
O728 C734 1.231 . S
C729 O713 1.225 . S
C729 O735 1.298 . S
C730 O719 1.226 . S
C730 O720 1.307 . S
C731 O723 1.303 . S
C731 O724 1.247 . S
C732 O721 1.253 . S
C732 O722 1.283 . S
C733 O725 1.304 . S
C733 O727 1.272 . S
C734 O726 1.311 . S
C734 O728 1.231 . S
O735 Zn717 1.953 . S
O735 C729 1.298 . S
O736 Zn737 1.953 . S
O736 C752 1.225 . S
Zn737 O736 1.953 . S
Zn737 O738 1.949 . S
Zn737 O744 1.919 . S
Zn737 O749 1.924 . S
O738 Zn737 1.949 . S
O738 Zn739 1.923 . S
O738 Zn740 1.950 . S
O738 Zn741 1.945 . S
Zn739 O738 1.923 . S
Zn739 O742 1.933 . S
Zn739 O745 1.941 . S
Zn739 O746 1.965 . S
Zn740 O738 1.950 . S
Zn740 O747 1.938 . S
Zn740 O748 1.906 . S
Zn740 O758 1.953 . S
Zn741 O738 1.945 . S
Zn741 O743 1.932 . S
Zn741 O750 1.977 . S
Zn741 O751 1.910 . S
O742 Zn739 1.933 . S
O742 C753 1.226 . S
O743 Zn741 1.932 . S
O743 C753 1.307 . S
O744 Zn737 1.919 . S
O744 C755 1.253 . S
O745 Zn739 1.941 . S
O745 C755 1.283 . S
O746 Zn739 1.965 . S
O746 C754 1.303 . S
O747 Zn740 1.938 . S
O747 C754 1.247 . S
O748 Zn740 1.906 . S
O748 C756 1.304 . S
O749 Zn737 1.924 . S
O749 C757 1.311 . S
O750 Zn741 1.977 . S
O750 C756 1.272 . S
O751 Zn741 1.910 . S
O751 C757 1.231 . S
C752 O736 1.225 . S
C752 O758 1.298 . S
C753 O742 1.226 . S
C753 O743 1.307 . S
C754 O746 1.303 . S
C754 O747 1.247 . S
C755 O744 1.253 . S
C755 O745 1.283 . S
C756 O748 1.304 . S
C756 O750 1.272 . S
C757 O749 1.311 . S
C757 O751 1.231 . S
O758 Zn740 1.953 . S
O758 C752 1.298 . S
O759 Zn760 1.953 . S
O759 C775 1.225 . S
Zn760 O759 1.953 . S
Zn760 O761 1.949 . S
Zn760 O767 1.919 . S
Zn760 O772 1.924 . S
O761 Zn760 1.949 . S
O761 Zn762 1.923 . S
O761 Zn763 1.950 . S
O761 Zn764 1.945 . S
Zn762 O761 1.923 . S
Zn762 O765 1.933 . S
Zn762 O768 1.941 . S
Zn762 O769 1.965 . S
Zn763 O761 1.950 . S
Zn763 O770 1.938 . S
Zn763 O771 1.906 . S
Zn763 O781 1.953 . S
Zn764 O761 1.945 . S
Zn764 O766 1.932 . S
Zn764 O773 1.977 . S
Zn764 O774 1.910 . S
O765 Zn762 1.933 . S
O765 C776 1.226 . S
O766 Zn764 1.932 . S
O766 C776 1.307 . S
O767 Zn760 1.919 . S
O767 C778 1.253 . S
O768 Zn762 1.941 . S
O768 C778 1.283 . S
O769 Zn762 1.965 . S
O769 C777 1.303 . S
O770 Zn763 1.938 . S
O770 C777 1.247 . S
O771 Zn763 1.906 . S
O771 C779 1.304 . S
O772 Zn760 1.924 . S
O772 C780 1.311 . S
O773 Zn764 1.977 . S
O773 C779 1.272 . S
O774 Zn764 1.910 . S
O774 C780 1.231 . S
C775 O759 1.225 . S
C775 O781 1.298 . S
C776 O765 1.226 . S
C776 O766 1.307 . S
C777 O769 1.303 . S
C777 O770 1.247 . S
C778 O767 1.253 . S
C778 O768 1.283 . S
C779 O771 1.304 . S
C779 O773 1.272 . S
C780 O772 1.311 . S
C780 O774 1.231 . S
O781 Zn763 1.953 . S
O781 C775 1.298 . S
O782 Zn783 1.953 . S
O782 C798 1.225 . S
Zn783 O782 1.953 . S
Zn783 O784 1.949 . S
Zn783 O790 1.919 . S
Zn783 O795 1.924 . S
O784 Zn783 1.949 . S
O784 Zn785 1.923 . S
O784 Zn786 1.950 . S
O784 Zn787 1.945 . S
Zn785 O784 1.923 . S
Zn785 O788 1.933 . S
Zn785 O791 1.941 . S
Zn785 O792 1.965 . S
Zn786 O784 1.950 . S
Zn786 O793 1.938 . S
Zn786 O794 1.906 . S
Zn786 O804 1.953 . S
Zn787 O784 1.945 . S
Zn787 O789 1.932 . S
Zn787 O796 1.977 . S
Zn787 O797 1.910 . S
O788 Zn785 1.933 . S
O788 C799 1.226 . S
O789 Zn787 1.932 . S
O789 C799 1.307 . S
O790 Zn783 1.919 . S
O790 C801 1.253 . S
O791 Zn785 1.941 . S
O791 C801 1.283 . S
O792 Zn785 1.965 . S
O792 C800 1.303 . S
O793 Zn786 1.938 . S
O793 C800 1.247 . S
O794 Zn786 1.906 . S
O794 C802 1.304 . S
O795 Zn783 1.924 . S
O795 C803 1.311 . S
O796 Zn787 1.977 . S
O796 C802 1.272 . S
O797 Zn787 1.910 . S
O797 C803 1.231 . S
C798 O782 1.225 . S
C798 O804 1.298 . S
C799 O788 1.226 . S
C799 O789 1.307 . S
C800 O792 1.303 . S
C800 O793 1.247 . S
C801 O790 1.253 . S
C801 O791 1.283 . S
C802 O794 1.304 . S
C802 O796 1.272 . S
C803 O795 1.311 . S
C803 O797 1.231 . S
O804 Zn786 1.953 . S
O804 C798 1.298 . S
O805 Zn806 1.953 . S
O805 C821 1.225 . S
Zn806 O805 1.953 . S
Zn806 O807 1.949 . S
Zn806 O813 1.919 . S
Zn806 O818 1.924 . S
O807 Zn806 1.949 . S
O807 Zn808 1.923 . S
O807 Zn809 1.950 . S
O807 Zn810 1.945 . S
Zn808 O807 1.923 . S
Zn808 O811 1.933 . S
Zn808 O814 1.941 . S
Zn808 O815 1.965 . S
Zn809 O807 1.950 . S
Zn809 O816 1.938 . S
Zn809 O817 1.906 . S
Zn809 O827 1.953 . S
Zn810 O807 1.945 . S
Zn810 O812 1.932 . S
Zn810 O819 1.977 . S
Zn810 O820 1.910 . S
O811 Zn808 1.933 . S
O811 C822 1.226 . S
O812 Zn810 1.932 . S
O812 C822 1.307 . S
O813 Zn806 1.919 . S
O813 C824 1.253 . S
O814 Zn808 1.941 . S
O814 C824 1.283 . S
O815 Zn808 1.965 . S
O815 C823 1.303 . S
O816 Zn809 1.938 . S
O816 C823 1.247 . S
O817 Zn809 1.906 . S
O817 C825 1.304 . S
O818 Zn806 1.924 . S
O818 C826 1.311 . S
O819 Zn810 1.977 . S
O819 C825 1.272 . S
O820 Zn810 1.910 . S
O820 C826 1.231 . S
C821 O805 1.225 . S
C821 O827 1.298 . S
C822 O811 1.226 . S
C822 O812 1.307 . S
C823 O815 1.303 . S
C823 O816 1.247 . S
C824 O813 1.253 . S
C824 O814 1.283 . S
C825 O817 1.304 . S
C825 O819 1.272 . S
C826 O818 1.311 . S
C826 O820 1.231 . S
O827 Zn809 1.953 . S
O827 C821 1.298 . S
H828 C840 0.930 . S
H829 C842 0.930 . S
H830 C843 0.930 . S
H831 C847 0.959 . S
H832 C847 0.959 1_556 S
H833 C847 0.961 . S
H834 C848 0.960 . S
H835 C848 0.961 . S
H836 C848 0.959 . S
H837 C851 0.929 . S
H838 C852 0.931 . S
H839 C854 0.930 . S
C840 H828 0.930 . S
C840 C841 1.399 . S
C840 C845 1.399 . S
C841 C840 1.399 . S
C841 C842 1.376 . S
C842 H829 0.930 . S
C842 C841 1.376 . S
C842 C843 1.388 . S
C843 H830 0.930 . S
C843 C842 1.388 . S
C843 C844 1.390 1_554 S
C844 C843 1.390 1_556 S
C844 C845 1.394 1_556 S
C844 C850 1.465 . S
C845 C840 1.399 . S
C845 C844 1.394 1_554 S
C845 C846 1.516 1_554 S
C846 C845 1.516 1_556 S
C846 C847 1.502 1_556 S
C846 C848 1.561 . S
C846 C849 1.526 . S
C847 H831 0.959 . S
C847 H832 0.959 1_554 S
C847 H833 0.961 . S
C847 C846 1.502 1_554 S
C848 H834 0.960 . S
C848 H835 0.961 . S
C848 H836 0.959 . S
C848 C846 1.561 . S
C849 C846 1.526 . S
C849 C850 1.396 . S
C849 C854 1.390 . S
C850 C844 1.465 . S
C850 C849 1.396 . S
C850 C851 1.399 . S
C851 H837 0.929 . S
C851 C850 1.399 . S
C851 C852 1.385 . S
C852 H838 0.931 . S
C852 C851 1.385 . S
C852 C853 1.389 . S
C853 C852 1.389 . S
C853 C854 1.387 . S
C854 H839 0.930 . S
C854 C849 1.390 . S
C854 C853 1.387 . S
H855 C867 0.930 . S
H856 C869 0.930 . S
H857 C870 0.930 . S
H858 C874 0.959 . S
H859 C874 0.959 1_545 S
H860 C874 0.961 . S
H861 C875 0.960 1_554 S
H862 C875 0.961 1_545 S
H863 C875 0.959 . S
H864 C878 0.929 . S
H865 C879 0.931 . S
H866 C881 0.930 1_545 S
C867 H855 0.930 . S
C867 C868 1.399 . S
C867 C872 1.399 . S
C868 C867 1.399 . S
C868 C869 1.376 . S
C869 H856 0.930 . S
C869 C868 1.376 . S
C869 C870 1.388 1_554 S
C870 H857 0.930 . S
C870 C869 1.388 1_556 S
C870 C871 1.390 . S
C871 C870 1.390 . S
C871 C872 1.394 1_556 S
C871 C877 1.465 . S
C872 C867 1.399 . S
C872 C871 1.394 1_554 S
C872 C873 1.516 . S
C873 C872 1.516 . S
C873 C874 1.502 . S
C873 C875 1.561 1_554 S
C873 C876 1.526 1_554 S
C874 H858 0.959 . S
C874 H859 0.959 1_565 S
C874 H860 0.961 . S
C874 C873 1.502 . S
C875 H861 0.960 1_556 S
C875 H862 0.961 1_565 S
C875 H863 0.959 . S
C875 C873 1.561 1_556 S
C876 C873 1.526 1_556 S
C876 C877 1.396 . S
C876 C881 1.390 . S
C877 C871 1.465 . S
C877 C876 1.396 . S
C877 C878 1.399 . S
C878 H864 0.929 . S
C878 C877 1.399 . S
C878 C879 1.385 . S
C879 H865 0.931 . S
C879 C878 1.385 . S
C879 C880 1.389 . S
C880 C879 1.389 . S
C880 C881 1.387 . S
C881 H866 0.930 1_565 S
C881 C876 1.390 . S
C881 C880 1.387 . S
H882 C894 0.930 . S
H883 C896 0.930 . S
H884 C897 0.930 . S
H885 C901 0.959 . S
H886 C901 0.959 . S
H887 C901 0.961 . S
H888 C902 0.960 . S
H889 C902 0.961 1_655 S
H890 C902 0.959 . S
H891 C905 0.929 . S
H892 C906 0.931 . S
H893 C908 0.930 . S
C894 H882 0.930 . S
C894 C895 1.399 . S
C894 C899 1.399 . S
C895 C894 1.399 . S
C895 C896 1.376 . S
C896 H883 0.930 . S
C896 C895 1.376 . S
C896 C897 1.388 1_554 S
C897 H884 0.930 . S
C897 C896 1.388 1_556 S
C897 C898 1.390 . S
C898 C897 1.390 . S
C898 C899 1.394 1_556 S
C898 C904 1.465 . S
C899 C894 1.399 . S
C899 C898 1.394 1_554 S
C899 C900 1.516 . S
C900 C899 1.516 . S
C900 C901 1.502 . S
C900 C902 1.561 . S
C900 C903 1.526 1_554 S
C901 H885 0.959 . S
C901 H886 0.959 . S
C901 H887 0.961 . S
C901 C900 1.502 . S
C902 H888 0.960 . S
C902 H889 0.961 1_455 S
C902 H890 0.959 . S
C902 C900 1.561 . S
C903 C900 1.526 1_556 S
C903 C904 1.396 . S
C903 C908 1.390 . S
C904 C898 1.465 . S
C904 C903 1.396 . S
C904 C905 1.399 . S
C905 H891 0.929 . S
C905 C904 1.399 . S
C905 C906 1.385 . S
C906 H892 0.931 . S
C906 C905 1.385 . S
C906 C907 1.389 . S
C907 C906 1.389 . S
C907 C908 1.387 . S
C908 H893 0.930 . S
C908 C903 1.390 . S
C908 C907 1.387 . S
H909 C921 0.930 . S
H910 C923 0.930 . S
H911 C924 0.930 . S
H912 C928 0.959 . S
H913 C928 0.959 . S
H914 C928 0.961 . S
H915 C929 0.960 . S
H916 C929 0.961 . S
H917 C929 0.959 . S
H918 C932 0.929 . S
H919 C933 0.931 . S
H920 C935 0.930 . S
C921 H909 0.930 . S
C921 C922 1.399 . S
C921 C926 1.399 . S
C922 C921 1.399 . S
C922 C923 1.376 . S
C923 H910 0.930 . S
C923 C922 1.376 . S
C923 C924 1.388 . S
C924 H911 0.930 . S
C924 C923 1.388 . S
C924 C925 1.390 . S
C925 C924 1.390 . S
C925 C926 1.394 . S
C925 C931 1.465 . S
C926 C921 1.399 . S
C926 C925 1.394 . S
C926 C927 1.516 . S
C927 C926 1.516 . S
C927 C928 1.502 . S
C927 C929 1.561 . S
C927 C930 1.526 . S
C928 H912 0.959 . S
C928 H913 0.959 . S
C928 H914 0.961 . S
C928 C927 1.502 . S
C929 H915 0.960 . S
C929 H916 0.961 . S
C929 H917 0.959 . S
C929 C927 1.561 . S
C930 C927 1.526 . S
C930 C931 1.396 . S
C930 C935 1.390 . S
C931 C925 1.465 . S
C931 C930 1.396 . S
C931 C932 1.399 . S
C932 H918 0.929 . S
C932 C931 1.399 . S
C932 C933 1.385 . S
C933 H919 0.931 . S
C933 C932 1.385 . S
C933 C934 1.389 . S
C934 C933 1.389 . S
C934 C935 1.387 . S
C935 H920 0.930 . S
C935 C930 1.390 . S
C935 C934 1.387 . S
H936 C948 0.930 . S
H937 C950 0.930 1_565 S
H938 C951 0.930 1_565 S
H939 C955 0.959 . S
H940 C955 0.959 . S
H941 C955 0.961 . S
H942 C956 0.960 . S
H943 C956 0.961 . S
H944 C956 0.959 . S
H945 C959 0.929 . S
H946 C960 0.931 . S
H947 C962 0.930 . S
C948 H936 0.930 . S
C948 C949 1.399 . S
C948 C953 1.399 . S
C949 C948 1.399 . S
C949 C950 1.376 . S
C950 H937 0.930 1_545 S
C950 C949 1.376 . S
C950 C951 1.388 . S
C951 H938 0.930 1_545 S
C951 C950 1.388 . S
C951 C952 1.390 . S
C952 C951 1.390 . S
C952 C953 1.394 . S
C952 C958 1.465 . S
C953 C948 1.399 . S
C953 C952 1.394 . S
C953 C954 1.516 . S
C954 C953 1.516 . S
C954 C955 1.502 . S
C954 C956 1.561 . S
C954 C957 1.526 . S
C955 H939 0.959 . S
C955 H940 0.959 . S
C955 H941 0.961 . S
C955 C954 1.502 . S
C956 H942 0.960 . S
C956 H943 0.961 . S
C956 H944 0.959 . S
C956 C954 1.561 . S
C957 C954 1.526 . S
C957 C958 1.396 . S
C957 C962 1.390 . S
C958 C952 1.465 . S
C958 C957 1.396 . S
C958 C959 1.399 . S
C959 H945 0.929 . S
C959 C958 1.399 . S
C959 C960 1.385 . S
C960 H946 0.931 . S
C960 C959 1.385 . S
C960 C961 1.389 . S
C961 C960 1.389 . S
C961 C962 1.387 . S
C962 H947 0.930 . S
C962 C957 1.390 . S
C962 C961 1.387 . S
H963 C975 0.930 . S
H964 C977 0.930 1_455 S
H965 C978 0.930 . S
H966 C982 0.959 . S
H967 C982 0.959 . S
H968 C982 0.961 . S
H969 C983 0.960 . S
H970 C983 0.961 . S
H971 C983 0.959 . S
H972 C986 0.929 . S
H973 C987 0.931 . S
H974 C989 0.930 . S
C975 H963 0.930 . S
C975 C976 1.399 . S
C975 C980 1.399 . S
C976 C975 1.399 . S
C976 C977 1.376 . S
C977 H964 0.930 1_655 S
C977 C976 1.376 . S
C977 C978 1.388 . S
C978 H965 0.930 . S
C978 C977 1.388 . S
C978 C979 1.390 . S
C979 C978 1.390 . S
C979 C980 1.394 . S
C979 C985 1.465 . S
C980 C975 1.399 . S
C980 C979 1.394 . S
C980 C981 1.516 . S
C981 C980 1.516 . S
C981 C982 1.502 . S
C981 C983 1.561 . S
C981 C984 1.526 . S
C982 H966 0.959 . S
C982 H967 0.959 . S
C982 H968 0.961 . S
C982 C981 1.502 . S
C983 H969 0.960 . S
C983 H970 0.961 . S
C983 H971 0.959 . S
C983 C981 1.561 . S
C984 C981 1.526 . S
C984 C985 1.396 . S
C984 C989 1.390 . S
C985 C979 1.465 . S
C985 C984 1.396 . S
C985 C986 1.399 . S
C986 H972 0.929 . S
C986 C985 1.399 . S
C986 C987 1.385 . S
C987 H973 0.931 . S
C987 C986 1.385 . S
C987 C988 1.389 . S
C988 C987 1.389 . S
C988 C989 1.387 . S
C989 H974 0.930 . S
C989 C984 1.390 . S
C989 C988 1.387 . S
H990 C1002 0.930 . S
H991 C1004 0.930 . S
H992 C1005 0.930 . S
H993 C1009 0.959 . S
H994 C1009 0.959 1_556 S
H995 C1009 0.961 . S
H996 C1010 0.960 . S
H997 C1010 0.961 . S
H998 C1010 0.959 . S
H999 C1013 0.929 1_554 S
H1000 C1014 0.931 . S
H1001 C1016 0.930 . S
C1002 H990 0.930 . S
C1002 C1003 1.399 . S
C1002 C1007 1.399 . S
C1003 C1002 1.399 . S
C1003 C1004 1.376 . S
C1004 H991 0.930 . S
C1004 C1003 1.376 . S
C1004 C1005 1.388 . S
C1005 H992 0.930 . S
C1005 C1004 1.388 . S
C1005 C1006 1.390 . S
C1006 C1005 1.390 . S
C1006 C1007 1.394 . S
C1006 C1012 1.465 . S
C1007 C1002 1.399 . S
C1007 C1006 1.394 . S
C1007 C1008 1.516 1_554 S
C1008 C1007 1.516 1_556 S
C1008 C1009 1.502 1_556 S
C1008 C1010 1.561 . S
C1008 C1011 1.526 . S
C1009 H993 0.959 . S
C1009 H994 0.959 1_554 S
C1009 H995 0.961 . S
C1009 C1008 1.502 1_554 S
C1010 H996 0.960 . S
C1010 H997 0.961 . S
C1010 H998 0.959 . S
C1010 C1008 1.561 . S
C1011 C1008 1.526 . S
C1011 C1012 1.396 1_556 S
C1011 C1016 1.390 . S
C1012 C1006 1.465 . S
C1012 C1011 1.396 1_554 S
C1012 C1013 1.399 1_554 S
C1013 H999 0.929 1_556 S
C1013 C1012 1.399 1_556 S
C1013 C1014 1.385 . S
C1014 H1000 0.931 . S
C1014 C1013 1.385 . S
C1014 C1015 1.389 . S
C1015 C1014 1.389 . S
C1015 C1016 1.387 . S
C1016 H1001 0.930 . S
C1016 C1011 1.390 . S
C1016 C1015 1.387 . S
H1017 C1029 0.930 . S
H1018 C1031 0.930 . S
H1019 C1032 0.930 1_554 S
H1020 C1036 0.959 . S
H1021 C1036 0.959 1_565 S
H1022 C1036 0.961 1_556 S
H1023 C1037 0.960 . S
H1024 C1037 0.961 1_565 S
H1025 C1037 0.959 . S
H1026 C1040 0.929 . S
H1027 C1041 0.931 . S
H1028 C1043 0.930 1_565 S
C1029 H1017 0.930 . S
C1029 C1030 1.399 . S
C1029 C1034 1.399 . S
C1030 C1029 1.399 . S
C1030 C1031 1.376 . S
C1031 H1018 0.930 . S
C1031 C1030 1.376 . S
C1031 C1032 1.388 . S
C1032 H1019 0.930 1_556 S
C1032 C1031 1.388 . S
C1032 C1033 1.390 1_556 S
C1033 C1032 1.390 1_554 S
C1033 C1034 1.394 1_554 S
C1033 C1039 1.465 . S
C1034 C1029 1.399 . S
C1034 C1033 1.394 1_556 S
C1034 C1035 1.527 . S
C1035 C1034 1.527 . S
C1035 C1036 1.494 1_556 S
C1035 C1037 1.582 . S
C1035 C1038 1.503 1_556 S
C1036 H1020 0.959 . S
C1036 H1021 0.959 1_545 S
C1036 H1022 0.961 1_554 S
C1036 C1035 1.494 1_554 S
C1037 H1023 0.960 . S
C1037 H1024 0.961 1_545 S
C1037 H1025 0.959 . S
C1037 C1035 1.582 . S
C1038 C1035 1.503 1_554 S
C1038 C1039 1.396 . S
C1038 C1043 1.390 . S
C1039 C1033 1.465 . S
C1039 C1038 1.396 . S
C1039 C1040 1.399 . S
C1040 H1026 0.929 . S
C1040 C1039 1.399 . S
C1040 C1041 1.385 . S
C1041 H1027 0.931 . S
C1041 C1040 1.385 . S
C1041 C1042 1.389 . S
C1042 C1041 1.389 . S
C1042 C1043 1.387 . S
C1043 H1028 0.930 1_545 S
C1043 C1038 1.390 . S
C1043 C1042 1.387 . S
H1044 C1056 0.930 . S
H1045 C1058 0.930 . S
H1046 C1059 0.932 . S
H1047 C1063 0.959 . S
H1048 C1063 0.959 1_554 S
H1049 C1063 0.961 . S
H1050 C1064 0.960 . S
H1051 C1064 0.961 . S
H1052 C1064 0.959 . S
H1053 C1067 0.929 . S
H1054 C1068 0.931 1_455 S
H1055 C1070 0.930 . S
C1056 H1044 0.930 . S
C1056 C1057 1.399 . S
C1056 C1061 1.399 . S
C1057 C1056 1.399 . S
C1057 C1058 1.376 . S
C1058 H1045 0.930 . S
C1058 C1057 1.376 . S
C1058 C1059 1.388 . S
C1059 H1046 0.932 . S
C1059 C1058 1.388 . S
C1059 C1060 1.390 1_556 S
C1060 C1059 1.390 1_554 S
C1060 C1061 1.394 1_554 S
C1060 C1066 1.465 . S
C1061 C1056 1.399 . S
C1061 C1060 1.394 1_556 S
C1061 C1062 1.516 1_556 S
C1062 C1061 1.516 1_554 S
C1062 C1063 1.502 1_554 S
C1062 C1064 1.561 . S
C1062 C1065 1.526 . S
C1063 H1047 0.959 . S
C1063 H1048 0.959 1_556 S
C1063 H1049 0.961 . S
C1063 C1062 1.502 1_556 S
C1064 H1050 0.960 . S
C1064 H1051 0.961 . S
C1064 H1052 0.959 . S
C1064 C1062 1.561 . S
C1065 C1062 1.526 . S
C1065 C1066 1.396 . S
C1065 C1070 1.390 . S
C1066 C1060 1.465 . S
C1066 C1065 1.396 . S
C1066 C1067 1.399 . S
C1067 H1053 0.929 . S
C1067 C1066 1.399 . S
C1067 C1068 1.385 . S
C1068 H1054 0.931 1_655 S
C1068 C1067 1.385 . S
C1068 C1069 1.389 . S
C1069 C1068 1.389 . S
C1069 C1070 1.387 . S
C1070 H1055 0.930 . S
C1070 C1065 1.390 . S
C1070 C1069 1.387 . S
H1071 C1083 0.930 . S
H1072 C1085 0.930 . S
H1073 C1086 0.930 . S
H1074 C1090 0.959 . S
H1075 C1090 0.959 . S
H1076 C1090 0.961 . S
H1077 C1091 0.960 . S
H1078 C1091 0.961 . S
H1079 C1091 0.959 . S
H1080 C1094 0.929 . S
H1081 C1095 0.931 . S
H1082 C1097 0.930 . S
C1083 H1071 0.930 . S
C1083 C1084 1.399 . S
C1083 C1088 1.399 . S
C1084 C1083 1.399 . S
C1084 C1085 1.376 . S
C1085 H1072 0.930 . S
C1085 C1084 1.376 . S
C1085 C1086 1.388 . S
C1086 H1073 0.930 . S
C1086 C1085 1.388 . S
C1086 C1087 1.390 . S
C1087 C1086 1.390 . S
C1087 C1088 1.394 . S
C1087 C1093 1.465 . S
C1088 C1083 1.399 . S
C1088 C1087 1.394 . S
C1088 C1089 1.516 . S
C1089 C1088 1.516 . S
C1089 C1090 1.502 . S
C1089 C1091 1.561 . S
C1089 C1092 1.526 . S
C1090 H1074 0.959 . S
C1090 H1075 0.959 . S
C1090 H1076 0.961 . S
C1090 C1089 1.502 . S
C1091 H1077 0.960 . S
C1091 H1078 0.961 . S
C1091 H1079 0.959 . S
C1091 C1089 1.561 . S
C1092 C1089 1.526 . S
C1092 C1093 1.396 . S
C1092 C1097 1.390 . S
C1093 C1087 1.465 . S
C1093 C1092 1.396 . S
C1093 C1094 1.399 . S
C1094 H1080 0.929 . S
C1094 C1093 1.399 . S
C1094 C1095 1.385 . S
C1095 H1081 0.931 . S
C1095 C1094 1.385 . S
C1095 C1096 1.389 . S
C1096 C1095 1.389 . S
C1096 C1097 1.387 . S
C1097 H1082 0.930 . S
C1097 C1092 1.390 . S
C1097 C1096 1.387 . S
H1098 C1110 0.930 . S
H1099 C1112 0.930 . S
H1100 C1113 0.930 . S
H1101 C1117 0.959 . S
H1102 C1117 0.959 . S
H1103 C1117 0.961 . S
H1104 C1118 0.960 . S
H1105 C1118 0.961 . S
H1106 C1118 0.959 . S
H1107 C1121 0.929 1_545 S
H1108 C1122 0.931 . S
H1109 C1124 0.930 . S
C1110 H1098 0.930 . S
C1110 C1111 1.399 . S
C1110 C1115 1.399 . S
C1111 C1110 1.399 . S
C1111 C1112 1.376 . S
C1112 H1099 0.930 . S
C1112 C1111 1.376 . S
C1112 C1113 1.388 . S
C1113 H1100 0.930 . S
C1113 C1112 1.388 . S
C1113 C1114 1.390 . S
C1114 C1113 1.390 . S
C1114 C1115 1.394 . S
C1114 C1120 1.465 . S
C1115 C1110 1.399 . S
C1115 C1114 1.394 . S
C1115 C1116 1.516 . S
C1116 C1115 1.516 . S
C1116 C1117 1.502 . S
C1116 C1118 1.561 . S
C1116 C1119 1.526 . S
C1117 H1101 0.959 . S
C1117 H1102 0.959 . S
C1117 H1103 0.961 . S
C1117 C1116 1.502 . S
C1118 H1104 0.960 . S
C1118 H1105 0.961 . S
C1118 H1106 0.959 . S
C1118 C1116 1.561 . S
C1119 C1116 1.526 . S
C1119 C1120 1.396 . S
C1119 C1124 1.390 . S
C1120 C1114 1.465 . S
C1120 C1119 1.396 . S
C1120 C1121 1.399 . S
C1121 H1107 0.929 1_565 S
C1121 C1120 1.399 . S
C1121 C1122 1.385 1_565 S
C1122 H1108 0.931 . S
C1122 C1121 1.385 1_545 S
C1122 C1123 1.389 1_545 S
C1123 C1122 1.389 1_565 S
C1123 C1124 1.387 . S
C1124 H1109 0.930 . S
C1124 C1119 1.390 . S
C1124 C1123 1.387 . S
H1125 C1137 0.930 . S
H1126 C1139 0.930 . S
H1127 C1140 0.930 . S
H1128 C1144 0.959 . S
H1129 C1144 0.959 . S
H1130 C1144 0.961 . S
H1131 C1145 0.960 . S
H1132 C1145 0.961 1_655 S
H1133 C1145 0.959 . S
H1134 C1148 0.929 . S
H1135 C1149 0.931 . S
H1136 C1151 0.930 . S
C1137 H1125 0.930 . S
C1137 C1138 1.399 . S
C1137 C1142 1.399 . S
C1138 C1137 1.399 . S
C1138 C1139 1.376 . S
C1139 H1126 0.930 . S
C1139 C1138 1.376 . S
C1139 C1140 1.388 . S
C1140 H1127 0.930 . S
C1140 C1139 1.388 . S
C1140 C1141 1.390 . S
C1141 C1140 1.390 . S
C1141 C1142 1.394 . S
C1141 C1147 1.465 . S
C1142 C1137 1.399 . S
C1142 C1141 1.394 . S
C1142 C1143 1.516 . S
C1143 C1142 1.516 . S
C1143 C1144 1.502 . S
C1143 C1145 1.561 . S
C1143 C1146 1.526 . S
C1144 H1128 0.959 . S
C1144 H1129 0.959 . S
C1144 H1130 0.961 . S
C1144 C1143 1.502 . S
C1145 H1131 0.960 . S
C1145 H1132 0.961 1_455 S
C1145 H1133 0.959 . S
C1145 C1143 1.561 . S
C1146 C1143 1.526 . S
C1146 C1147 1.396 . S
C1146 C1151 1.390 . S
C1147 C1141 1.465 . S
C1147 C1146 1.396 . S
C1147 C1148 1.399 . S
C1148 H1134 0.929 . S
C1148 C1147 1.399 . S
C1148 C1149 1.385 . S
C1149 H1135 0.931 . S
C1149 C1148 1.385 . S
C1149 C1150 1.389 . S
C1150 C1149 1.389 . S
C1150 C1151 1.387 . S
C1151 H1136 0.930 . S
C1151 C1146 1.390 . S
C1151 C1150 1.387 . S
H1152 C1164 0.930 . S
H1153 C1166 0.930 . S
H1154 C1167 0.930 . S
H1155 C1171 0.959 . S
H1156 C1171 0.959 . S
H1157 C1171 0.961 . S
H1158 C1172 0.960 . S
H1159 C1172 0.961 . S
H1160 C1172 0.959 . S
H1161 C1175 0.929 . S
H1162 C1176 0.931 . S
H1163 C1178 0.930 . S
C1164 H1152 0.930 . S
C1164 C1165 1.399 . S
C1164 C1169 1.399 . S
C1165 C1164 1.399 . S
C1165 C1166 1.376 . S
C1166 H1153 0.930 . S
C1166 C1165 1.376 . S
C1166 C1167 1.388 . S
C1167 H1154 0.930 . S
C1167 C1166 1.388 . S
C1167 C1168 1.390 . S
C1168 C1167 1.390 . S
C1168 C1169 1.394 . S
C1168 C1174 1.465 . S
C1169 C1164 1.399 . S
C1169 C1168 1.394 . S
C1169 C1170 1.516 . S
C1170 C1169 1.516 . S
C1170 C1171 1.502 . S
C1170 C1172 1.561 . S
C1170 C1173 1.526 . S
C1171 H1155 0.959 . S
C1171 H1156 0.959 . S
C1171 H1157 0.961 . S
C1171 C1170 1.502 . S
C1172 H1158 0.960 . S
C1172 H1159 0.961 . S
C1172 H1160 0.959 . S
C1172 C1170 1.561 . S
C1173 C1170 1.526 . S
C1173 C1174 1.396 . S
C1173 C1178 1.390 . S
C1174 C1168 1.465 . S
C1174 C1173 1.396 . S
C1174 C1175 1.399 . S
C1175 H1161 0.929 . S
C1175 C1174 1.399 . S
C1175 C1176 1.385 . S
C1176 H1162 0.931 . S
C1176 C1175 1.385 . S
C1176 C1177 1.389 . S
C1177 C1176 1.389 . S
C1177 C1178 1.387 . S
C1178 H1163 0.930 . S
C1178 C1173 1.390 . S
C1178 C1177 1.387 . S
H1179 C1191 0.930 . S
H1180 C1193 0.930 . S
H1181 C1194 0.930 . S
H1182 C1198 0.959 . S
H1183 C1198 0.959 . S
H1184 C1198 0.961 . S
H1185 C1199 0.960 . S
H1186 C1199 0.961 . S
H1187 C1199 0.959 . S
H1188 C1202 0.929 . S
H1189 C1203 0.931 . S
H1190 C1205 0.930 . S
C1191 H1179 0.930 . S
C1191 C1192 1.399 . S
C1191 C1196 1.399 . S
C1192 C1191 1.399 . S
C1192 C1193 1.376 . S
C1193 H1180 0.930 . S
C1193 C1192 1.376 . S
C1193 C1194 1.388 . S
C1194 H1181 0.930 . S
C1194 C1193 1.388 . S
C1194 C1195 1.390 . S
C1195 C1194 1.390 . S
C1195 C1196 1.394 . S
C1195 C1201 1.465 . S
C1196 C1191 1.399 . S
C1196 C1195 1.394 . S
C1196 C1197 1.516 . S
C1197 C1196 1.516 . S
C1197 C1198 1.502 . S
C1197 C1199 1.561 . S
C1197 C1200 1.526 . S
C1198 H1182 0.959 . S
C1198 H1183 0.959 . S
C1198 H1184 0.961 . S
C1198 C1197 1.502 . S
C1199 H1185 0.960 . S
C1199 H1186 0.961 . S
C1199 H1187 0.959 . S
C1199 C1197 1.561 . S
C1200 C1197 1.526 . S
C1200 C1201 1.396 . S
C1200 C1205 1.390 . S
C1201 C1195 1.465 . S
C1201 C1200 1.396 . S
C1201 C1202 1.399 . S
C1202 H1188 0.929 . S
C1202 C1201 1.399 . S
C1202 C1203 1.385 . S
C1203 H1189 0.931 . S
C1203 C1202 1.385 . S
C1203 C1204 1.389 . S
C1204 C1203 1.389 . S
C1204 C1205 1.387 . S
C1205 H1190 0.930 . S
C1205 C1200 1.390 . S
C1205 C1204 1.387 . S
H1206 C1218 0.930 . S
H1207 C1220 0.930 . S
H1208 C1221 0.930 . S
H1209 C1225 0.959 . S
H1210 C1225 0.959 . S
H1211 C1225 0.961 . S
H1212 C1226 0.960 . S
H1213 C1226 0.961 . S
H1214 C1226 0.959 . S
H1215 C1229 0.929 . S
H1216 C1230 0.931 . S
H1217 C1232 0.930 . S
C1218 H1206 0.930 . S
C1218 C1219 1.399 . S
C1218 C1223 1.399 . S
C1219 C1218 1.399 . S
C1219 C1220 1.376 . S
C1220 H1207 0.930 . S
C1220 C1219 1.376 . S
C1220 C1221 1.388 . S
C1221 H1208 0.930 . S
C1221 C1220 1.388 . S
C1221 C1222 1.390 . S
C1222 C1221 1.390 . S
C1222 C1223 1.394 . S
C1222 C1228 1.465 . S
C1223 C1218 1.399 . S
C1223 C1222 1.394 . S
C1223 C1224 1.516 . S
C1224 C1223 1.516 . S
C1224 C1225 1.502 . S
C1224 C1226 1.561 . S
C1224 C1227 1.526 . S
C1225 H1209 0.959 . S
C1225 H1210 0.959 . S
C1225 H1211 0.961 . S
C1225 C1224 1.502 . S
C1226 H1212 0.960 . S
C1226 H1213 0.961 . S
C1226 H1214 0.959 . S
C1226 C1224 1.561 . S
C1227 C1224 1.526 . S
C1227 C1228 1.396 . S
C1227 C1232 1.390 . S
C1228 C1222 1.465 . S
C1228 C1227 1.396 . S
C1228 C1229 1.399 . S
C1229 H1215 0.929 . S
C1229 C1228 1.399 . S
C1229 C1230 1.385 . S
C1230 H1216 0.931 . S
C1230 C1229 1.385 . S
C1230 C1231 1.389 . S
C1231 C1230 1.389 . S
C1231 C1232 1.387 . S
C1232 H1217 0.930 . S
C1232 C1227 1.390 . S
C1232 C1231 1.387 . S
H1233 C1245 0.930 . S
H1234 C1247 0.930 . S
H1235 C1248 0.930 . S
H1236 C1252 0.959 . S
H1237 C1252 0.959 . S
H1238 C1252 0.961 . S
H1239 C1253 0.960 . S
H1240 C1253 0.961 . S
H1241 C1253 0.959 . S
H1242 C1256 0.929 . S
H1243 C1257 0.931 . S
H1244 C1259 0.930 . S
C1245 H1233 0.930 . S
C1245 C1246 1.399 . S
C1245 C1250 1.399 . S
C1246 C1245 1.399 . S
C1246 C1247 1.376 . S
C1247 H1234 0.930 . S
C1247 C1246 1.376 . S
C1247 C1248 1.388 . S
C1248 H1235 0.930 . S
C1248 C1247 1.388 . S
C1248 C1249 1.390 . S
C1249 C1248 1.390 . S
C1249 C1250 1.394 . S
C1249 C1255 1.465 . S
C1250 C1245 1.399 . S
C1250 C1249 1.394 . S
C1250 C1251 1.516 . S
C1251 C1250 1.516 . S
C1251 C1252 1.502 . S
C1251 C1253 1.561 . S
C1251 C1254 1.526 . S
C1252 H1236 0.959 . S
C1252 H1237 0.959 . S
C1252 H1238 0.961 . S
C1252 C1251 1.502 . S
C1253 H1239 0.960 . S
C1253 H1240 0.961 . S
C1253 H1241 0.959 . S
C1253 C1251 1.561 . S
C1254 C1251 1.526 . S
C1254 C1255 1.396 . S
C1254 C1259 1.390 . S
C1255 C1249 1.465 . S
C1255 C1254 1.396 . S
C1255 C1256 1.399 . S
C1256 H1242 0.929 . S
C1256 C1255 1.399 . S
C1256 C1257 1.385 . S
C1257 H1243 0.931 . S
C1257 C1256 1.385 . S
C1257 C1258 1.389 . S
C1258 C1257 1.389 . S
C1258 C1259 1.387 . S
C1259 H1244 0.930 . S
C1259 C1254 1.390 . S
C1259 C1258 1.387 . S
H1260 C1272 0.930 . S
H1261 C1274 0.930 . S
H1262 C1275 0.930 . S
H1263 C1279 0.959 . S
H1264 C1279 0.959 . S
H1265 C1279 0.961 . S
H1266 C1280 0.960 . S
H1267 C1280 0.961 . S
H1268 C1280 0.959 . S
H1269 C1283 0.929 . S
H1270 C1284 0.931 . S
H1271 C1286 0.930 . S
C1272 H1260 0.930 . S
C1272 C1273 1.399 . S
C1272 C1277 1.399 . S
C1273 C1272 1.399 . S
C1273 C1274 1.376 . S
C1274 H1261 0.930 . S
C1274 C1273 1.376 . S
C1274 C1275 1.388 . S
C1275 H1262 0.930 . S
C1275 C1274 1.388 . S
C1275 C1276 1.390 . S
C1276 C1275 1.390 . S
C1276 C1277 1.394 . S
C1276 C1282 1.465 . S
C1277 C1272 1.399 . S
C1277 C1276 1.394 . S
C1277 C1278 1.516 . S
C1278 C1277 1.516 . S
C1278 C1279 1.502 . S
C1278 C1280 1.561 . S
C1278 C1281 1.526 . S
C1279 H1263 0.959 . S
C1279 H1264 0.959 . S
C1279 H1265 0.961 . S
C1279 C1278 1.502 . S
C1280 H1266 0.960 . S
C1280 H1267 0.961 . S
C1280 H1268 0.959 . S
C1280 C1278 1.561 . S
C1281 C1278 1.526 . S
C1281 C1282 1.396 . S
C1281 C1286 1.390 . S
C1282 C1276 1.465 . S
C1282 C1281 1.396 . S
C1282 C1283 1.399 . S
C1283 H1269 0.929 . S
C1283 C1282 1.399 . S
C1283 C1284 1.385 . S
C1284 H1270 0.931 . S
C1284 C1283 1.385 . S
C1284 C1285 1.389 . S
C1285 C1284 1.389 . S
C1285 C1286 1.387 . S
C1286 H1271 0.930 . S
C1286 C1281 1.390 . S
C1286 C1285 1.387 . S
H1287 C1299 0.930 . S
H1288 C1301 0.930 . S
H1289 C1302 0.930 . S
H1290 C1306 0.959 . S
H1291 C1306 0.959 . S
H1292 C1306 0.961 . S
H1293 C1307 0.960 . S
H1294 C1307 0.961 . S
H1295 C1307 0.959 . S
H1296 C1310 0.929 . S
H1297 C1311 0.931 . S
H1298 C1313 0.930 . S
C1299 H1287 0.930 . S
C1299 C1300 1.399 . S
C1299 C1304 1.399 . S
C1300 C1299 1.399 . S
C1300 C1301 1.376 . S
C1301 H1288 0.930 . S
C1301 C1300 1.376 . S
C1301 C1302 1.388 . S
C1302 H1289 0.930 . S
C1302 C1301 1.388 . S
C1302 C1303 1.390 . S
C1303 C1302 1.390 . S
C1303 C1304 1.394 . S
C1303 C1309 1.465 . S
C1304 C1299 1.399 . S
C1304 C1303 1.394 . S
C1304 C1305 1.516 . S
C1305 C1304 1.516 . S
C1305 C1306 1.502 . S
C1305 C1307 1.561 . S
C1305 C1308 1.526 . S
C1306 H1290 0.959 . S
C1306 H1291 0.959 . S
C1306 H1292 0.961 . S
C1306 C1305 1.502 . S
C1307 H1293 0.960 . S
C1307 H1294 0.961 . S
C1307 H1295 0.959 . S
C1307 C1305 1.561 . S
C1308 C1305 1.526 . S
C1308 C1309 1.396 . S
C1308 C1313 1.390 . S
C1309 C1303 1.465 . S
C1309 C1308 1.396 . S
C1309 C1310 1.399 . S
C1310 H1296 0.929 . S
C1310 C1309 1.399 . S
C1310 C1311 1.385 . S
C1311 H1297 0.931 . S
C1311 C1310 1.385 . S
C1311 C1312 1.389 . S
C1312 C1311 1.389 . S
C1312 C1313 1.387 . S
C1313 H1298 0.930 . S
C1313 C1308 1.390 . S
C1313 C1312 1.387 . S
H1314 C1326 0.930 . S
H1315 C1328 0.930 . S
H1316 C1329 0.930 . S
H1317 C1333 0.959 . S
H1318 C1333 0.959 . S
H1319 C1333 0.961 . S
H1320 C1334 0.960 . S
H1321 C1334 0.961 . S
H1322 C1334 0.959 . S
H1323 C1337 0.929 . S
H1324 C1338 0.931 . S
H1325 C1340 0.930 . S
C1326 H1314 0.930 . S
C1326 C1327 1.399 . S
C1326 C1331 1.399 . S
C1327 C1326 1.399 . S
C1327 C1328 1.376 . S
C1328 H1315 0.930 . S
C1328 C1327 1.376 . S
C1328 C1329 1.388 . S
C1329 H1316 0.930 . S
C1329 C1328 1.388 . S
C1329 C1330 1.390 . S
C1330 C1329 1.390 . S
C1330 C1331 1.394 . S
C1330 C1336 1.465 . S
C1331 C1326 1.399 . S
C1331 C1330 1.394 . S
C1331 C1332 1.516 . S
C1332 C1331 1.516 . S
C1332 C1333 1.502 . S
C1332 C1334 1.561 . S
C1332 C1335 1.526 . S
C1333 H1317 0.959 . S
C1333 H1318 0.959 . S
C1333 H1319 0.961 . S
C1333 C1332 1.502 . S
C1334 H1320 0.960 . S
C1334 H1321 0.961 . S
C1334 H1322 0.959 . S
C1334 C1332 1.561 . S
C1335 C1332 1.526 . S
C1335 C1336 1.396 . S
C1335 C1340 1.390 . S
C1336 C1330 1.465 . S
C1336 C1335 1.396 . S
C1336 C1337 1.399 . S
C1337 H1323 0.929 . S
C1337 C1336 1.399 . S
C1337 C1338 1.385 . S
C1338 H1324 0.931 . S
C1338 C1337 1.385 . S
C1338 C1339 1.389 . S
C1339 C1338 1.389 . S
C1339 C1340 1.387 . S
C1340 H1325 0.930 . S
C1340 C1335 1.390 . S
C1340 C1339 1.387 . S
H1341 C1353 0.930 . S
H1342 C1355 0.930 . S
H1343 C1356 0.930 . S
H1344 C1360 0.959 . S
H1345 C1360 0.959 . S
H1346 C1360 0.961 . S
H1347 C1361 0.960 . S
H1348 C1361 0.961 . S
H1349 C1361 0.959 . S
H1350 C1364 0.929 . S
H1351 C1365 0.931 . S
H1352 C1367 0.930 . S
C1353 H1341 0.930 . S
C1353 C1354 1.399 . S
C1353 C1358 1.399 . S
C1354 C1353 1.399 . S
C1354 C1355 1.376 . S
C1355 H1342 0.930 . S
C1355 C1354 1.376 . S
C1355 C1356 1.388 . S
C1356 H1343 0.930 . S
C1356 C1355 1.388 . S
C1356 C1357 1.390 . S
C1357 C1356 1.390 . S
C1357 C1358 1.394 . S
C1357 C1363 1.465 . S
C1358 C1353 1.399 . S
C1358 C1357 1.394 . S
C1358 C1359 1.516 . S
C1359 C1358 1.516 . S
C1359 C1360 1.502 . S
C1359 C1361 1.561 . S
C1359 C1362 1.526 . S
C1360 H1344 0.959 . S
C1360 H1345 0.959 . S
C1360 H1346 0.961 . S
C1360 C1359 1.502 . S
C1361 H1347 0.960 . S
C1361 H1348 0.961 . S
C1361 H1349 0.959 . S
C1361 C1359 1.561 . S
C1362 C1359 1.526 . S
C1362 C1363 1.396 . S
C1362 C1367 1.390 . S
C1363 C1357 1.465 . S
C1363 C1362 1.396 . S
C1363 C1364 1.399 . S
C1364 H1350 0.929 . S
C1364 C1363 1.399 . S
C1364 C1365 1.385 . S
C1365 H1351 0.931 . S
C1365 C1364 1.385 . S
C1365 C1366 1.389 . S
C1366 C1365 1.389 . S
C1366 C1367 1.387 . S
C1367 H1352 0.930 . S
C1367 C1362 1.390 . S
C1367 C1366 1.387 . S
H1368 C1380 0.930 . S
H1369 C1382 0.930 . S
H1370 C1383 0.930 . S
H1371 C1387 0.959 . S
H1372 C1387 0.959 . S
H1373 C1387 0.961 . S
H1374 C1388 0.960 . S
H1375 C1388 0.961 . S
H1376 C1388 0.959 . S
H1377 C1391 0.929 . S
H1378 C1392 0.931 . S
H1379 C1394 0.930 . S
C1380 H1368 0.930 . S
C1380 C1381 1.399 . S
C1380 C1385 1.399 . S
C1381 C1380 1.399 . S
C1381 C1382 1.376 . S
C1382 H1369 0.930 . S
C1382 C1381 1.376 . S
C1382 C1383 1.388 . S
C1383 H1370 0.930 . S
C1383 C1382 1.388 . S
C1383 C1384 1.390 . S
C1384 C1383 1.390 . S
C1384 C1385 1.394 . S
C1384 C1390 1.465 . S
C1385 C1380 1.399 . S
C1385 C1384 1.394 . S
C1385 C1386 1.516 . S
C1386 C1385 1.516 . S
C1386 C1387 1.502 . S
C1386 C1388 1.561 . S
C1386 C1389 1.526 . S
C1387 H1371 0.959 . S
C1387 H1372 0.959 . S
C1387 H1373 0.961 . S
C1387 C1386 1.502 . S
C1388 H1374 0.960 . S
C1388 H1375 0.961 . S
C1388 H1376 0.959 . S
C1388 C1386 1.561 . S
C1389 C1386 1.526 . S
C1389 C1390 1.396 . S
C1389 C1394 1.390 . S
C1390 C1384 1.465 . S
C1390 C1389 1.396 . S
C1390 C1391 1.399 . S
C1391 H1377 0.929 . S
C1391 C1390 1.399 . S
C1391 C1392 1.385 . S
C1392 H1378 0.931 . S
C1392 C1391 1.385 . S
C1392 C1393 1.389 . S
C1393 C1392 1.389 . S
C1393 C1394 1.387 . S
C1394 H1379 0.930 . S
C1394 C1389 1.390 . S
C1394 C1393 1.387 . S
H1395 C1407 0.930 . S
H1396 C1409 0.930 . S
H1397 C1410 0.930 . S
H1398 C1414 0.959 . S
H1399 C1414 0.959 . S
H1400 C1414 0.961 . S
H1401 C1415 0.960 . S
H1402 C1415 0.961 . S
H1403 C1415 0.959 . S
H1404 C1418 0.929 . S
H1405 C1419 0.931 . S
H1406 C1421 0.930 . S
C1407 H1395 0.930 . S
C1407 C1408 1.399 . S
C1407 C1412 1.399 . S
C1408 C1407 1.399 . S
C1408 C1409 1.376 . S
C1409 H1396 0.930 . S
C1409 C1408 1.376 . S
C1409 C1410 1.388 . S
C1410 H1397 0.930 . S
C1410 C1409 1.388 . S
C1410 C1411 1.390 . S
C1411 C1410 1.390 . S
C1411 C1412 1.394 . S
C1411 C1417 1.465 . S
C1412 C1407 1.399 . S
C1412 C1411 1.394 . S
C1412 C1413 1.516 . S
C1413 C1412 1.516 . S
C1413 C1414 1.502 . S
C1413 C1415 1.561 . S
C1413 C1416 1.526 . S
C1414 H1398 0.959 . S
C1414 H1399 0.959 . S
C1414 H1400 0.961 . S
C1414 C1413 1.502 . S
C1415 H1401 0.960 . S
C1415 H1402 0.961 . S
C1415 H1403 0.959 . S
C1415 C1413 1.561 . S
C1416 C1413 1.526 . S
C1416 C1417 1.396 . S
C1416 C1421 1.390 . S
C1417 C1411 1.465 . S
C1417 C1416 1.396 . S
C1417 C1418 1.399 . S
C1418 H1404 0.929 . S
C1418 C1417 1.399 . S
C1418 C1419 1.385 . S
C1419 H1405 0.931 . S
C1419 C1418 1.385 . S
C1419 C1420 1.389 . S
C1420 C1419 1.389 . S
C1420 C1421 1.387 . S
C1421 H1406 0.930 . S
C1421 C1416 1.390 . S
C1421 C1420 1.387 . S
H1422 C1434 0.930 . S
H1423 C1436 0.930 . S
H1424 C1437 0.930 . S
H1425 C1441 0.959 . S
H1426 C1441 0.959 . S
H1427 C1441 0.961 . S
H1428 C1442 0.960 . S
H1429 C1442 0.961 . S
H1430 C1442 0.959 . S
H1431 C1445 0.929 . S
H1432 C1446 0.931 . S
H1433 C1448 0.930 . S
C1434 H1422 0.930 . S
C1434 C1435 1.399 . S
C1434 C1439 1.399 . S
C1435 C1434 1.399 . S
C1435 C1436 1.376 . S
C1436 H1423 0.930 . S
C1436 C1435 1.376 . S
C1436 C1437 1.388 . S
C1437 H1424 0.930 . S
C1437 C1436 1.388 . S
C1437 C1438 1.390 . S
C1438 C1437 1.390 . S
C1438 C1439 1.394 . S
C1438 C1444 1.465 . S
C1439 C1434 1.399 . S
C1439 C1438 1.394 . S
C1439 C1440 1.516 . S
C1440 C1439 1.516 . S
C1440 C1441 1.502 . S
C1440 C1442 1.561 . S
C1440 C1443 1.526 . S
C1441 H1425 0.959 . S
C1441 H1426 0.959 . S
C1441 H1427 0.961 . S
C1441 C1440 1.502 . S
C1442 H1428 0.960 . S
C1442 H1429 0.961 . S
C1442 H1430 0.959 . S
C1442 C1440 1.561 . S
C1443 C1440 1.526 . S
C1443 C1444 1.396 . S
C1443 C1448 1.390 . S
C1444 C1438 1.465 . S
C1444 C1443 1.396 . S
C1444 C1445 1.399 . S
C1445 H1431 0.929 . S
C1445 C1444 1.399 . S
C1445 C1446 1.385 . S
C1446 H1432 0.931 . S
C1446 C1445 1.385 . S
C1446 C1447 1.389 . S
C1447 C1446 1.389 . S
C1447 C1448 1.387 . S
C1448 H1433 0.930 . S
C1448 C1443 1.390 . S
C1448 C1447 1.387 . S
H1449 C1461 0.930 . S
H1450 C1463 0.930 . S
H1451 C1464 0.930 . S
H1452 C1468 0.959 . S
H1453 C1468 0.959 . S
H1454 C1468 0.961 . S
H1455 C1469 0.960 . S
H1456 C1469 0.961 . S
H1457 C1469 0.959 . S
H1458 C1472 0.929 . S
H1459 C1473 0.931 . S
H1460 C1475 0.930 . S
C1461 H1449 0.930 . S
C1461 C1462 1.399 . S
C1461 C1466 1.399 . S
C1462 C1461 1.399 . S
C1462 C1463 1.376 . S
C1463 H1450 0.930 . S
C1463 C1462 1.376 . S
C1463 C1464 1.388 . S
C1464 H1451 0.930 . S
C1464 C1463 1.388 . S
C1464 C1465 1.390 . S
C1465 C1464 1.390 . S
C1465 C1466 1.394 . S
C1465 C1471 1.465 . S
C1466 C1461 1.399 . S
C1466 C1465 1.394 . S
C1466 C1467 1.516 . S
C1467 C1466 1.516 . S
C1467 C1468 1.502 . S
C1467 C1469 1.561 . S
C1467 C1470 1.526 . S
C1468 H1452 0.959 . S
C1468 H1453 0.959 . S
C1468 H1454 0.961 . S
C1468 C1467 1.502 . S
C1469 H1455 0.960 . S
C1469 H1456 0.961 . S
C1469 H1457 0.959 . S
C1469 C1467 1.561 . S
C1470 C1467 1.526 . S
C1470 C1471 1.396 . S
C1470 C1475 1.390 . S
C1471 C1465 1.465 . S
C1471 C1470 1.396 . S
C1471 C1472 1.399 . S
C1472 H1458 0.929 . S
C1472 C1471 1.399 . S
C1472 C1473 1.385 . S
C1473 H1459 0.931 . S
C1473 C1472 1.385 . S
C1473 C1474 1.389 . S
C1474 C1473 1.389 . S
C1474 C1475 1.387 . S
C1475 H1460 0.930 . S
C1475 C1470 1.390 . S
C1475 C1474 1.387 . S
H1476 C1488 0.930 . S
H1477 C1490 0.930 . S
H1478 C1491 0.930 . S
H1479 C1495 0.959 . S
H1480 C1495 0.959 . S
H1481 C1495 0.961 . S
H1482 C1496 0.960 . S
H1483 C1496 0.961 . S
H1484 C1496 0.959 . S
H1485 C1499 0.929 . S
H1486 C1500 0.931 . S
H1487 C1502 0.930 . S
C1488 H1476 0.930 . S
C1488 C1489 1.399 . S
C1488 C1493 1.399 . S
C1489 C1488 1.399 . S
C1489 C1490 1.376 . S
C1490 H1477 0.930 . S
C1490 C1489 1.376 . S
C1490 C1491 1.388 . S
C1491 H1478 0.930 . S
C1491 C1490 1.388 . S
C1491 C1492 1.390 . S
C1492 C1491 1.390 . S
C1492 C1493 1.394 . S
C1492 C1498 1.465 . S
C1493 C1488 1.399 . S
C1493 C1492 1.394 . S
C1493 C1494 1.516 . S
C1494 C1493 1.516 . S
C1494 C1495 1.502 . S
C1494 C1496 1.561 . S
C1494 C1497 1.526 . S
C1495 H1479 0.959 . S
C1495 H1480 0.959 . S
C1495 H1481 0.961 . S
C1495 C1494 1.502 . S
C1496 H1482 0.960 . S
C1496 H1483 0.961 . S
C1496 H1484 0.959 . S
C1496 C1494 1.561 . S
C1497 C1494 1.526 . S
C1497 C1498 1.396 . S
C1497 C1502 1.390 . S
C1498 C1492 1.465 . S
C1498 C1497 1.396 . S
C1498 C1499 1.399 . S
C1499 H1485 0.929 . S
C1499 C1498 1.399 . S
C1499 C1500 1.385 . S
C1500 H1486 0.931 . S
C1500 C1499 1.385 . S
C1500 C1501 1.389 . S
C1501 C1500 1.389 . S
C1501 C1502 1.387 . S
C1502 H1487 0.930 . S
C1502 C1497 1.390 . S
C1502 C1501 1.387 . S
H1503 C1515 0.930 . S
H1504 C1517 0.930 . S
H1505 C1518 0.930 . S
H1506 C1522 0.959 . S
H1507 C1522 0.959 . S
H1508 C1522 0.961 . S
H1509 C1523 0.960 . S
H1510 C1523 0.961 . S
H1511 C1523 0.959 . S
H1512 C1526 0.929 . S
H1513 C1527 0.931 . S
H1514 C1529 0.930 . S
C1515 H1503 0.930 . S
C1515 C1516 1.399 . S
C1515 C1520 1.399 . S
C1516 C1515 1.399 . S
C1516 C1517 1.376 . S
C1517 H1504 0.930 . S
C1517 C1516 1.376 . S
C1517 C1518 1.388 . S
C1518 H1505 0.930 . S
C1518 C1517 1.388 . S
C1518 C1519 1.390 . S
C1519 C1518 1.390 . S
C1519 C1520 1.394 . S
C1519 C1525 1.465 . S
C1520 C1515 1.399 . S
C1520 C1519 1.394 . S
C1520 C1521 1.516 . S
C1521 C1520 1.516 . S
C1521 C1522 1.502 . S
C1521 C1523 1.561 . S
C1521 C1524 1.526 . S
C1522 H1506 0.959 . S
C1522 H1507 0.959 . S
C1522 H1508 0.961 . S
C1522 C1521 1.502 . S
C1523 H1509 0.960 . S
C1523 H1510 0.961 . S
C1523 H1511 0.959 . S
C1523 C1521 1.561 . S
C1524 C1521 1.526 . S
C1524 C1525 1.396 . S
C1524 C1529 1.390 . S
C1525 C1519 1.465 . S
C1525 C1524 1.396 . S
C1525 C1526 1.399 . S
C1526 H1512 0.929 . S
C1526 C1525 1.399 . S
C1526 C1527 1.385 . S
C1527 H1513 0.931 . S
C1527 C1526 1.385 . S
C1527 C1528 1.389 . S
C1528 C1527 1.389 . S
C1528 C1529 1.387 . S
C1529 H1514 0.930 . S
C1529 C1524 1.390 . S
C1529 C1528 1.387 . S
H1530 C1542 0.930 . S
H1531 C1544 0.930 . S
H1532 C1545 0.930 . S
H1533 C1549 0.959 . S
H1534 C1549 0.959 . S
H1535 C1549 0.961 . S
H1536 C1550 0.960 . S
H1537 C1550 0.961 . S
H1538 C1550 0.959 . S
H1539 C1553 0.929 . S
H1540 C1554 0.931 . S
H1541 C1556 0.930 . S
C1542 H1530 0.930 . S
C1542 C1543 1.399 . S
C1542 C1547 1.399 . S
C1543 C1542 1.399 . S
C1543 C1544 1.376 . S
C1544 H1531 0.930 . S
C1544 C1543 1.376 . S
C1544 C1545 1.388 . S
C1545 H1532 0.930 . S
C1545 C1544 1.388 . S
C1545 C1546 1.390 . S
C1546 C1545 1.390 . S
C1546 C1547 1.394 . S
C1546 C1552 1.465 . S
C1547 C1542 1.399 . S
C1547 C1546 1.394 . S
C1547 C1548 1.516 . S
C1548 C1547 1.516 . S
C1548 C1549 1.502 . S
C1548 C1550 1.561 . S
C1548 C1551 1.526 . S
C1549 H1533 0.959 . S
C1549 H1534 0.959 . S
C1549 H1535 0.961 . S
C1549 C1548 1.502 . S
C1550 H1536 0.960 . S
C1550 H1537 0.961 . S
C1550 H1538 0.959 . S
C1550 C1548 1.561 . S
C1551 C1548 1.526 . S
C1551 C1552 1.396 . S
C1551 C1556 1.390 . S
C1552 C1546 1.465 . S
C1552 C1551 1.396 . S
C1552 C1553 1.399 . S
C1553 H1539 0.929 . S
C1553 C1552 1.399 . S
C1553 C1554 1.385 . S
C1554 H1540 0.931 . S
C1554 C1553 1.385 . S
C1554 C1555 1.389 . S
C1555 C1554 1.389 . S
C1555 C1556 1.387 . S
C1556 H1541 0.930 . S
C1556 C1551 1.390 . S
C1556 C1555 1.387 . S
H1557 C1569 0.930 . S
H1558 C1571 0.930 . S
H1559 C1572 0.930 . S
H1560 C1576 0.959 . S
H1561 C1576 0.959 . S
H1562 C1576 0.961 . S
H1563 C1577 0.960 . S
H1564 C1577 0.961 . S
H1565 C1577 0.959 . S
H1566 C1580 0.929 . S
H1567 C1581 0.931 . S
H1568 C1583 0.930 . S
C1569 H1557 0.930 . S
C1569 C1570 1.399 . S
C1569 C1574 1.399 . S
C1570 C1569 1.399 . S
C1570 C1571 1.376 . S
C1571 H1558 0.930 . S
C1571 C1570 1.376 . S
C1571 C1572 1.388 . S
C1572 H1559 0.930 . S
C1572 C1571 1.388 . S
C1572 C1573 1.390 . S
C1573 C1572 1.390 . S
C1573 C1574 1.394 . S
C1573 C1579 1.465 . S
C1574 C1569 1.399 . S
C1574 C1573 1.394 . S
C1574 C1575 1.516 . S
C1575 C1574 1.516 . S
C1575 C1576 1.502 . S
C1575 C1577 1.561 . S
C1575 C1578 1.526 . S
C1576 H1560 0.959 . S
C1576 H1561 0.959 . S
C1576 H1562 0.961 . S
C1576 C1575 1.502 . S
C1577 H1563 0.960 . S
C1577 H1564 0.961 . S
C1577 H1565 0.959 . S
C1577 C1575 1.561 . S
C1578 C1575 1.526 . S
C1578 C1579 1.396 . S
C1578 C1583 1.390 . S
C1579 C1573 1.465 . S
C1579 C1578 1.396 . S
C1579 C1580 1.399 . S
C1580 H1566 0.929 . S
C1580 C1579 1.399 . S
C1580 C1581 1.385 . S
C1581 H1567 0.931 . S
C1581 C1580 1.385 . S
C1581 C1582 1.389 . S
C1582 C1581 1.389 . S
C1582 C1583 1.387 . S
C1583 H1568 0.930 . S
C1583 C1578 1.390 . S
C1583 C1582 1.387 . S
H1584 C1596 0.930 . S
H1585 C1598 0.930 . S
H1586 C1599 0.930 . S
H1587 C1603 0.959 . S
H1588 C1603 0.959 . S
H1589 C1603 0.961 . S
H1590 C1604 0.960 . S
H1591 C1604 0.961 . S
H1592 C1604 0.959 . S
H1593 C1607 0.929 . S
H1594 C1608 0.931 . S
H1595 C1610 0.930 . S
C1596 H1584 0.930 . S
C1596 C1597 1.399 . S
C1596 C1601 1.399 . S
C1597 C1596 1.399 . S
C1597 C1598 1.376 . S
C1598 H1585 0.930 . S
C1598 C1597 1.376 . S
C1598 C1599 1.388 . S
C1599 H1586 0.930 . S
C1599 C1598 1.388 . S
C1599 C1600 1.390 . S
C1600 C1599 1.390 . S
C1600 C1601 1.394 . S
C1600 C1606 1.465 . S
C1601 C1596 1.399 . S
C1601 C1600 1.394 . S
C1601 C1602 1.516 . S
C1602 C1601 1.516 . S
C1602 C1603 1.502 . S
C1602 C1604 1.561 . S
C1602 C1605 1.526 . S
C1603 H1587 0.959 . S
C1603 H1588 0.959 . S
C1603 H1589 0.961 . S
C1603 C1602 1.502 . S
C1604 H1590 0.960 . S
C1604 H1591 0.961 . S
C1604 H1592 0.959 . S
C1604 C1602 1.561 . S
C1605 C1602 1.526 . S
C1605 C1606 1.396 . S
C1605 C1610 1.390 . S
C1606 C1600 1.465 . S
C1606 C1605 1.396 . S
C1606 C1607 1.399 . S
C1607 H1593 0.929 . S
C1607 C1606 1.399 . S
C1607 C1608 1.385 . S
C1608 H1594 0.931 . S
C1608 C1607 1.385 . S
C1608 C1609 1.389 . S
C1609 C1608 1.389 . S
C1609 C1610 1.387 . S
C1610 H1595 0.930 . S
C1610 C1605 1.390 . S
C1610 C1609 1.387 . S
H1611 C1623 0.930 . S
H1612 C1625 0.930 . S
H1613 C1626 0.930 . S
H1614 C1630 0.959 . S
H1615 C1630 0.959 . S
H1616 C1630 0.961 . S
H1617 C1631 0.960 . S
H1618 C1631 0.961 . S
H1619 C1631 0.959 . S
H1620 C1634 0.929 . S
H1621 C1635 0.931 . S
H1622 C1637 0.930 . S
C1623 H1611 0.930 . S
C1623 C1624 1.399 . S
C1623 C1628 1.399 . S
C1624 C1623 1.399 . S
C1624 C1625 1.376 . S
C1625 H1612 0.930 . S
C1625 C1624 1.376 . S
C1625 C1626 1.388 . S
C1626 H1613 0.930 . S
C1626 C1625 1.388 . S
C1626 C1627 1.390 . S
C1627 C1626 1.390 . S
C1627 C1628 1.394 . S
C1627 C1633 1.465 . S
C1628 C1623 1.399 . S
C1628 C1627 1.394 . S
C1628 C1629 1.516 . S
C1629 C1628 1.516 . S
C1629 C1630 1.502 . S
C1629 C1631 1.561 . S
C1629 C1632 1.526 . S
C1630 H1614 0.959 . S
C1630 H1615 0.959 . S
C1630 H1616 0.961 . S
C1630 C1629 1.502 . S
C1631 H1617 0.960 . S
C1631 H1618 0.961 . S
C1631 H1619 0.959 . S
C1631 C1629 1.561 . S
C1632 C1629 1.526 . S
C1632 C1633 1.396 . S
C1632 C1637 1.390 . S
C1633 C1627 1.465 . S
C1633 C1632 1.396 . S
C1633 C1634 1.399 . S
C1634 H1620 0.929 . S
C1634 C1633 1.399 . S
C1634 C1635 1.385 . S
C1635 H1621 0.931 . S
C1635 C1634 1.385 . S
C1635 C1636 1.389 . S
C1636 C1635 1.389 . S
C1636 C1637 1.387 . S
C1637 H1622 0.930 . S
C1637 C1632 1.390 . S
C1637 C1636 1.387 . S
H1638 C1650 0.930 . S
H1639 C1652 0.930 . S
H1640 C1653 0.930 . S
H1641 C1657 0.959 . S
H1642 C1657 0.959 . S
H1643 C1657 0.961 . S
H1644 C1658 0.960 . S
H1645 C1658 0.961 . S
H1646 C1658 0.959 . S
H1647 C1661 0.929 . S
H1648 C1662 0.931 . S
H1649 C1664 0.930 . S
C1650 H1638 0.930 . S
C1650 C1651 1.399 . S
C1650 C1655 1.399 . S
C1651 C1650 1.399 . S
C1651 C1652 1.376 . S
C1652 H1639 0.930 . S
C1652 C1651 1.376 . S
C1652 C1653 1.388 . S
C1653 H1640 0.930 . S
C1653 C1652 1.388 . S
C1653 C1654 1.390 . S
C1654 C1653 1.390 . S
C1654 C1655 1.394 . S
C1654 C1660 1.465 . S
C1655 C1650 1.399 . S
C1655 C1654 1.394 . S
C1655 C1656 1.516 . S
C1656 C1655 1.516 . S
C1656 C1657 1.502 . S
C1656 C1658 1.561 . S
C1656 C1659 1.526 . S
C1657 H1641 0.959 . S
C1657 H1642 0.959 . S
C1657 H1643 0.961 . S
C1657 C1656 1.502 . S
C1658 H1644 0.960 . S
C1658 H1645 0.961 . S
C1658 H1646 0.959 . S
C1658 C1656 1.561 . S
C1659 C1656 1.526 . S
C1659 C1660 1.396 . S
C1659 C1664 1.390 . S
C1660 C1654 1.465 . S
C1660 C1659 1.396 . S
C1660 C1661 1.399 . S
C1661 H1647 0.929 . S
C1661 C1660 1.399 . S
C1661 C1662 1.385 . S
C1662 H1648 0.931 . S
C1662 C1661 1.385 . S
C1662 C1663 1.389 . S
C1663 C1662 1.389 . S
C1663 C1664 1.387 . S
C1664 H1649 0.930 . S
C1664 C1659 1.390 . S
C1664 C1663 1.387 . S
H1665 C1677 0.930 . S
H1666 C1679 0.930 . S
H1667 C1680 0.930 . S
H1668 C1684 0.959 . S
H1669 C1684 0.959 . S
H1670 C1684 0.961 . S
H1671 C1685 0.960 . S
H1672 C1685 0.961 . S
H1673 C1685 0.959 . S
H1674 C1688 0.929 . S
H1675 C1689 0.931 . S
H1676 C1691 0.930 . S
C1677 H1665 0.930 . S
C1677 C1678 1.399 . S
C1677 C1682 1.399 . S
C1678 C1677 1.399 . S
C1678 C1679 1.376 . S
C1679 H1666 0.930 . S
C1679 C1678 1.376 . S
C1679 C1680 1.388 . S
C1680 H1667 0.930 . S
C1680 C1679 1.388 . S
C1680 C1681 1.390 . S
C1681 C1680 1.390 . S
C1681 C1682 1.394 . S
C1681 C1687 1.465 . S
C1682 C1677 1.399 . S
C1682 C1681 1.394 . S
C1682 C1683 1.516 . S
C1683 C1682 1.516 . S
C1683 C1684 1.502 . S
C1683 C1685 1.561 . S
C1683 C1686 1.526 . S
C1684 H1668 0.959 . S
C1684 H1669 0.959 . S
C1684 H1670 0.961 . S
C1684 C1683 1.502 . S
C1685 H1671 0.960 . S
C1685 H1672 0.961 . S
C1685 H1673 0.959 . S
C1685 C1683 1.561 . S
C1686 C1683 1.526 . S
C1686 C1687 1.396 . S
C1686 C1691 1.390 . S
C1687 C1681 1.465 . S
C1687 C1686 1.396 . S
C1687 C1688 1.399 . S
C1688 H1674 0.929 . S
C1688 C1687 1.399 . S
C1688 C1689 1.385 . S
C1689 H1675 0.931 . S
C1689 C1688 1.385 . S
C1689 C1690 1.389 . S
C1690 C1689 1.389 . S
C1690 C1691 1.387 . S
C1691 H1676 0.930 . S
C1691 C1686 1.390 . S
C1691 C1690 1.387 . S
H1692 C1704 0.930 . S
H1693 C1706 0.930 . S
H1694 C1707 0.930 . S
H1695 C1711 0.959 . S
H1696 C1711 0.959 . S
H1697 C1711 0.961 . S
H1698 C1712 0.960 . S
H1699 C1712 0.961 . S
H1700 C1712 0.959 . S
H1701 C1715 0.929 . S
H1702 C1716 0.931 . S
H1703 C1718 0.930 . S
C1704 H1692 0.930 . S
C1704 C1705 1.399 . S
C1704 C1709 1.399 . S
C1705 C1704 1.399 . S
C1705 C1706 1.376 . S
C1706 H1693 0.930 . S
C1706 C1705 1.376 . S
C1706 C1707 1.388 . S
C1707 H1694 0.930 . S
C1707 C1706 1.388 . S
C1707 C1708 1.390 . S
C1708 C1707 1.390 . S
C1708 C1709 1.394 . S
C1708 C1714 1.465 . S
C1709 C1704 1.399 . S
C1709 C1708 1.394 . S
C1709 C1710 1.516 . S
C1710 C1709 1.516 . S
C1710 C1711 1.502 . S
C1710 C1712 1.561 . S
C1710 C1713 1.526 . S
C1711 H1695 0.959 . S
C1711 H1696 0.959 . S
C1711 H1697 0.961 . S
C1711 C1710 1.502 . S
C1712 H1698 0.960 . S
C1712 H1699 0.961 . S
C1712 H1700 0.959 . S
C1712 C1710 1.561 . S
C1713 C1710 1.526 . S
C1713 C1714 1.396 . S
C1713 C1718 1.390 . S
C1714 C1708 1.465 . S
C1714 C1713 1.396 . S
C1714 C1715 1.399 . S
C1715 H1701 0.929 . S
C1715 C1714 1.399 . S
C1715 C1716 1.385 . S
C1716 H1702 0.931 . S
C1716 C1715 1.385 . S
C1716 C1717 1.389 . S
C1717 C1716 1.389 . S
C1717 C1718 1.387 . S
C1718 H1703 0.930 . S
C1718 C1713 1.390 . S
C1718 C1717 1.387 . S
H1719 C1731 0.930 . S
H1720 C1733 0.930 . S
H1721 C1734 0.930 . S
H1722 C1738 0.959 . S
H1723 C1738 0.959 . S
H1724 C1738 0.961 . S
H1725 C1739 0.960 . S
H1726 C1739 0.961 . S
H1727 C1739 0.959 . S
H1728 C1742 0.929 . S
H1729 C1743 0.931 . S
H1730 C1745 0.930 . S
C1731 H1719 0.930 . S
C1731 C1732 1.399 . S
C1731 C1736 1.399 . S
C1732 C1731 1.399 . S
C1732 C1733 1.376 . S
C1733 H1720 0.930 . S
C1733 C1732 1.376 . S
C1733 C1734 1.388 . S
C1734 H1721 0.930 . S
C1734 C1733 1.388 . S
C1734 C1735 1.390 . S
C1735 C1734 1.390 . S
C1735 C1736 1.394 . S
C1735 C1741 1.465 . S
C1736 C1731 1.399 . S
C1736 C1735 1.394 . S
C1736 C1737 1.516 . S
C1737 C1736 1.516 . S
C1737 C1738 1.502 . S
C1737 C1739 1.561 . S
C1737 C1740 1.526 . S
C1738 H1722 0.959 . S
C1738 H1723 0.959 . S
C1738 H1724 0.961 . S
C1738 C1737 1.502 . S
C1739 H1725 0.960 . S
C1739 H1726 0.961 . S
C1739 H1727 0.959 . S
C1739 C1737 1.561 . S
C1740 C1737 1.526 . S
C1740 C1741 1.396 . S
C1740 C1745 1.390 . S
C1741 C1735 1.465 . S
C1741 C1740 1.396 . S
C1741 C1742 1.399 . S
C1742 H1728 0.929 . S
C1742 C1741 1.399 . S
C1742 C1743 1.385 . S
C1743 H1729 0.931 . S
C1743 C1742 1.385 . S
C1743 C1744 1.389 . S
C1744 C1743 1.389 . S
C1744 C1745 1.387 . S
C1745 H1730 0.930 . S
C1745 C1740 1.390 . S
C1745 C1744 1.387 . S
H1746 C1758 0.930 . S
H1747 C1760 0.930 . S
H1748 C1761 0.930 . S
H1749 C1765 0.959 . S
H1750 C1765 0.959 . S
H1751 C1765 0.961 . S
H1752 C1766 0.960 . S
H1753 C1766 0.961 . S
H1754 C1766 0.959 . S
H1755 C1769 0.929 . S
H1756 C1770 0.931 . S
H1757 C1772 0.930 . S
C1758 H1746 0.930 . S
C1758 C1759 1.399 . S
C1758 C1763 1.399 . S
C1759 C1758 1.399 . S
C1759 C1760 1.376 . S
C1760 H1747 0.930 . S
C1760 C1759 1.376 . S
C1760 C1761 1.388 . S
C1761 H1748 0.930 . S
C1761 C1760 1.388 . S
C1761 C1762 1.390 . S
C1762 C1761 1.390 . S
C1762 C1763 1.394 . S
C1762 C1768 1.465 . S
C1763 C1758 1.399 . S
C1763 C1762 1.394 . S
C1763 C1764 1.516 . S
C1764 C1763 1.516 . S
C1764 C1765 1.502 . S
C1764 C1766 1.561 . S
C1764 C1767 1.526 . S
C1765 H1749 0.959 . S
C1765 H1750 0.959 . S
C1765 H1751 0.961 . S
C1765 C1764 1.502 . S
C1766 H1752 0.960 . S
C1766 H1753 0.961 . S
C1766 H1754 0.959 . S
C1766 C1764 1.561 . S
C1767 C1764 1.526 . S
C1767 C1768 1.396 . S
C1767 C1772 1.390 . S
C1768 C1762 1.465 . S
C1768 C1767 1.396 . S
C1768 C1769 1.399 . S
C1769 H1755 0.929 . S
C1769 C1768 1.399 . S
C1769 C1770 1.385 . S
C1770 H1756 0.931 . S
C1770 C1769 1.385 . S
C1770 C1771 1.389 . S
C1771 C1770 1.389 . S
C1771 C1772 1.387 . S
C1772 H1757 0.930 . S
C1772 C1767 1.390 . S
C1772 C1771 1.387 . S
H1773 C1785 0.930 . S
H1774 C1787 0.930 . S
H1775 C1788 0.930 . S
H1776 C1792 0.959 . S
H1777 C1792 0.959 . S
H1778 C1792 0.961 . S
H1779 C1793 0.960 . S
H1780 C1793 0.961 . S
H1781 C1793 0.959 . S
H1782 C1796 0.929 . S
H1783 C1797 0.931 . S
H1784 C1799 0.930 . S
C1785 H1773 0.930 . S
C1785 C1786 1.399 . S
C1785 C1790 1.399 . S
C1786 C1785 1.399 . S
C1786 C1787 1.376 . S
C1787 H1774 0.930 . S
C1787 C1786 1.376 . S
C1787 C1788 1.388 . S
C1788 H1775 0.930 . S
C1788 C1787 1.388 . S
C1788 C1789 1.390 . S
C1789 C1788 1.390 . S
C1789 C1790 1.394 . S
C1789 C1795 1.465 . S
C1790 C1785 1.399 . S
C1790 C1789 1.394 . S
C1790 C1791 1.516 . S
C1791 C1790 1.516 . S
C1791 C1792 1.502 . S
C1791 C1793 1.561 . S
C1791 C1794 1.526 . S
C1792 H1776 0.959 . S
C1792 H1777 0.959 . S
C1792 H1778 0.961 . S
C1792 C1791 1.502 . S
C1793 H1779 0.960 . S
C1793 H1780 0.961 . S
C1793 H1781 0.959 . S
C1793 C1791 1.561 . S
C1794 C1791 1.526 . S
C1794 C1795 1.396 . S
C1794 C1799 1.390 . S
C1795 C1789 1.465 . S
C1795 C1794 1.396 . S
C1795 C1796 1.399 . S
C1796 H1782 0.929 . S
C1796 C1795 1.399 . S
C1796 C1797 1.385 . S
C1797 H1783 0.931 . S
C1797 C1796 1.385 . S
C1797 C1798 1.389 . S
C1798 C1797 1.389 . S
C1798 C1799 1.387 . S
C1799 H1784 0.930 . S
C1799 C1794 1.390 . S
C1799 C1798 1.387 . S
H1800 C1812 0.930 . S
H1801 C1814 0.930 . S
H1802 C1815 0.930 . S
H1803 C1819 0.959 . S
H1804 C1819 0.959 . S
H1805 C1819 0.961 . S
H1806 C1820 0.960 . S
H1807 C1820 0.961 . S
H1808 C1820 0.959 . S
H1809 C1823 0.929 . S
H1810 C1824 0.931 . S
H1811 C1826 0.930 . S
C1812 H1800 0.930 . S
C1812 C1813 1.399 . S
C1812 C1817 1.399 . S
C1813 C1812 1.399 . S
C1813 C1814 1.376 . S
C1814 H1801 0.930 . S
C1814 C1813 1.376 . S
C1814 C1815 1.388 . S
C1815 H1802 0.930 . S
C1815 C1814 1.388 . S
C1815 C1816 1.390 . S
C1816 C1815 1.390 . S
C1816 C1817 1.394 . S
C1816 C1822 1.465 . S
C1817 C1812 1.399 . S
C1817 C1816 1.394 . S
C1817 C1818 1.516 . S
C1818 C1817 1.516 . S
C1818 C1819 1.502 . S
C1818 C1820 1.561 . S
C1818 C1821 1.526 . S
C1819 H1803 0.959 . S
C1819 H1804 0.959 . S
C1819 H1805 0.961 . S
C1819 C1818 1.502 . S
C1820 H1806 0.960 . S
C1820 H1807 0.961 . S
C1820 H1808 0.959 . S
C1820 C1818 1.561 . S
C1821 C1818 1.526 . S
C1821 C1822 1.396 . S
C1821 C1826 1.390 . S
C1822 C1816 1.465 . S
C1822 C1821 1.396 . S
C1822 C1823 1.399 . S
C1823 H1809 0.929 . S
C1823 C1822 1.399 . S
C1823 C1824 1.385 . S
C1824 H1810 0.931 . S
C1824 C1823 1.385 . S
C1824 C1825 1.389 . S
C1825 C1824 1.389 . S
C1825 C1826 1.387 . S
C1826 H1811 0.930 . S
C1826 C1821 1.390 . S
C1826 C1825 1.387 . S
H1827 C1839 0.930 . S
H1828 C1841 0.930 . S
H1829 C1842 0.930 . S
H1830 C1846 0.959 . S
H1831 C1846 0.959 . S
H1832 C1846 0.961 . S
H1833 C1847 0.960 . S
H1834 C1847 0.961 . S
H1835 C1847 0.959 . S
H1836 C1850 0.929 . S
H1837 C1851 0.931 . S
H1838 C1853 0.930 . S
C1839 H1827 0.930 . S
C1839 C1840 1.399 . S
C1839 C1844 1.399 1_565 S
C1840 C1839 1.399 . S
C1840 C1841 1.376 . S
C1841 H1828 0.930 . S
C1841 C1840 1.376 . S
C1841 C1842 1.388 . S
C1842 H1829 0.930 . S
C1842 C1841 1.388 . S
C1842 C1843 1.390 . S
C1843 C1842 1.390 . S
C1843 C1844 1.394 1_565 S
C1843 C1849 1.465 1_565 S
C1844 C1839 1.399 1_545 S
C1844 C1843 1.394 1_545 S
C1844 C1845 1.516 . S
C1845 C1844 1.516 . S
C1845 C1846 1.502 . S
C1845 C1847 1.561 . S
C1845 C1848 1.526 . S
C1846 H1830 0.959 . S
C1846 H1831 0.959 . S
C1846 H1832 0.961 . S
C1846 C1845 1.502 . S
C1847 H1833 0.960 . S
C1847 H1834 0.961 . S
C1847 H1835 0.959 . S
C1847 C1845 1.561 . S
C1848 C1845 1.526 . S
C1848 C1849 1.396 . S
C1848 C1853 1.390 . S
C1849 C1843 1.465 1_545 S
C1849 C1848 1.396 . S
C1849 C1850 1.399 . S
C1850 H1836 0.929 . S
C1850 C1849 1.399 . S
C1850 C1851 1.385 . S
C1851 H1837 0.931 . S
C1851 C1850 1.385 . S
C1851 C1852 1.389 . S
C1852 C1851 1.389 . S
C1852 C1853 1.387 . S
C1853 H1838 0.930 . S
C1853 C1848 1.390 . S
C1853 C1852 1.387 . S
H1854 C1866 0.930 . S
H1855 C1868 0.930 . S
H1856 C1869 0.930 . S
H1857 C1873 0.959 . S
H1858 C1873 0.959 . S
H1859 C1873 0.961 . S
H1860 C1874 0.960 . S
H1861 C1874 0.961 . S
H1862 C1874 0.959 . S
H1863 C1877 0.929 . S
H1864 C1878 0.931 . S
H1865 C1880 0.930 . S
C1866 H1854 0.930 . S
C1866 C1867 1.399 . S
C1866 C1871 1.399 . S
C1867 C1866 1.399 . S
C1867 C1868 1.376 . S
C1868 H1855 0.930 . S
C1868 C1867 1.376 . S
C1868 C1869 1.388 . S
C1869 H1856 0.930 . S
C1869 C1868 1.388 . S
C1869 C1870 1.390 . S
C1870 C1869 1.390 . S
C1870 C1871 1.394 . S
C1870 C1876 1.470 1_655 S
C1871 C1866 1.399 . S
C1871 C1870 1.394 . S
C1871 C1872 1.516 . S
C1872 C1871 1.516 . S
C1872 C1873 1.502 . S
C1872 C1874 1.561 . S
C1872 C1875 1.526 1_655 S
C1873 H1857 0.959 . S
C1873 H1858 0.959 . S
C1873 H1859 0.961 . S
C1873 C1872 1.502 . S
C1874 H1860 0.960 . S
C1874 H1861 0.961 . S
C1874 H1862 0.959 . S
C1874 C1872 1.561 . S
C1875 C1872 1.526 1_455 S
C1875 C1876 1.395 . S
C1875 C1880 1.390 . S
C1876 C1870 1.470 1_455 S
C1876 C1875 1.395 . S
C1876 C1877 1.395 . S
C1877 H1863 0.929 . S
C1877 C1876 1.395 . S
C1877 C1878 1.385 . S
C1878 H1864 0.931 . S
C1878 C1877 1.385 . S
C1878 C1879 1.389 . S
C1879 C1878 1.389 . S
C1879 C1880 1.387 . S
C1880 H1865 0.930 . S
C1880 C1875 1.390 . S
C1880 C1879 1.387 . S
H1881 C1893 0.930 . S
H1882 C1895 0.930 . S
H1883 C1896 0.930 . S
H1884 C1900 0.959 . S
H1885 C1900 0.959 . S
H1886 C1900 0.961 . S
H1887 C1901 0.960 . S
H1888 C1901 0.961 . S
H1889 C1901 0.959 . S
H1890 C1904 0.929 . S
H1891 C1905 0.931 . S
H1892 C1907 0.930 . S
C1893 H1881 0.930 . S
C1893 C1894 1.399 . S
C1893 C1898 1.399 . S
C1894 C1893 1.399 . S
C1894 C1895 1.376 . S
C1895 H1882 0.930 . S
C1895 C1894 1.376 . S
C1895 C1896 1.388 . S
C1896 H1883 0.930 . S
C1896 C1895 1.388 . S
C1896 C1897 1.390 . S
C1897 C1896 1.390 . S
C1897 C1898 1.394 . S
C1897 C1903 1.465 . S
C1898 C1893 1.399 . S
C1898 C1897 1.394 . S
C1898 C1899 1.516 . S
C1899 C1898 1.516 . S
C1899 C1900 1.502 . S
C1899 C1901 1.561 . S
C1899 C1902 1.526 . S
C1900 H1884 0.959 . S
C1900 H1885 0.959 . S
C1900 H1886 0.961 . S
C1900 C1899 1.502 . S
C1901 H1887 0.960 . S
C1901 H1888 0.961 . S
C1901 H1889 0.959 . S
C1901 C1899 1.561 . S
C1902 C1899 1.526 . S
C1902 C1903 1.396 . S
C1902 C1907 1.390 . S
C1903 C1897 1.465 . S
C1903 C1902 1.396 . S
C1903 C1904 1.399 . S
C1904 H1890 0.929 . S
C1904 C1903 1.399 . S
C1904 C1905 1.385 . S
C1905 H1891 0.931 . S
C1905 C1904 1.385 . S
C1905 C1906 1.389 . S
C1906 C1905 1.389 . S
C1906 C1907 1.387 . S
C1907 H1892 0.930 . S
C1907 C1902 1.390 . S
C1907 C1906 1.387 . S
H1908 C1920 0.930 . S
H1909 C1922 0.930 . S
H1910 C1923 0.930 . S
H1911 C1927 0.959 . S
H1912 C1927 0.959 . S
H1913 C1927 0.961 . S
H1914 C1928 0.960 . S
H1915 C1928 0.961 . S
H1916 C1928 0.959 . S
H1917 C1931 0.929 . S
H1918 C1932 0.931 . S
H1919 C1934 0.930 . S
C1920 H1908 0.930 . S
C1920 C1921 1.399 . S
C1920 C1925 1.386 1_545 S
C1921 C1920 1.399 . S
C1921 C1922 1.376 . S
C1922 H1909 0.930 . S
C1922 C1921 1.376 . S
C1922 C1923 1.388 . S
C1923 H1910 0.930 . S
C1923 C1922 1.388 . S
C1923 C1924 1.390 . S
C1924 C1923 1.390 . S
C1924 C1925 1.399 1_545 S
C1924 C1930 1.465 1_545 S
C1925 C1920 1.386 1_565 S
C1925 C1924 1.399 1_565 S
C1925 C1926 1.525 . S
C1926 C1925 1.525 . S
C1926 C1927 1.502 . S
C1926 C1928 1.561 . S
C1926 C1929 1.526 . S
C1927 H1911 0.959 . S
C1927 H1912 0.959 . S
C1927 H1913 0.961 . S
C1927 C1926 1.502 . S
C1928 H1914 0.960 . S
C1928 H1915 0.961 . S
C1928 H1916 0.959 . S
C1928 C1926 1.561 . S
C1929 C1926 1.526 . S
C1929 C1930 1.396 . S
C1929 C1934 1.390 . S
C1930 C1924 1.465 1_565 S
C1930 C1929 1.396 . S
C1930 C1931 1.399 . S
C1931 H1917 0.929 . S
C1931 C1930 1.399 . S
C1931 C1932 1.385 . S
C1932 H1918 0.931 . S
C1932 C1931 1.385 . S
C1932 C1933 1.389 . S
C1933 C1932 1.389 . S
C1933 C1934 1.387 . S
C1934 H1919 0.930 . S
C1934 C1929 1.390 . S
C1934 C1933 1.387 . S
H1935 C1947 0.930 . S
H1936 C1949 0.930 . S
H1937 C1950 0.930 . S
H1938 C1954 0.959 1_655 S
H1939 C1954 0.959 1_655 S
H1940 C1954 0.961 . S
H1941 C1955 0.960 . S
H1942 C1955 0.961 . S
H1943 C1955 0.959 . S
H1944 C1958 0.929 . S
H1945 C1959 0.931 . S
H1946 C1961 0.930 . S
C1947 H1935 0.930 . S
C1947 C1948 1.399 . S
C1947 C1952 1.399 . S
C1948 C1947 1.399 . S
C1948 C1949 1.376 . S
C1949 H1936 0.930 . S
C1949 C1948 1.376 . S
C1949 C1950 1.388 . S
C1950 H1937 0.930 . S
C1950 C1949 1.388 . S
C1950 C1951 1.390 . S
C1951 C1950 1.390 . S
C1951 C1952 1.394 . S
C1951 C1957 1.465 . S
C1952 C1947 1.399 . S
C1952 C1951 1.394 . S
C1952 C1953 1.516 . S
C1953 C1952 1.516 . S
C1953 C1954 1.502 . S
C1953 C1955 1.561 . S
C1953 C1956 1.526 1_455 S
C1954 H1938 0.959 1_455 S
C1954 H1939 0.959 1_455 S
C1954 H1940 0.961 . S
C1954 C1953 1.502 . S
C1955 H1941 0.960 . S
C1955 H1942 0.961 . S
C1955 H1943 0.959 . S
C1955 C1953 1.561 . S
C1956 C1953 1.526 1_655 S
C1956 C1957 1.396 1_655 S
C1956 C1961 1.390 . S
C1957 C1951 1.465 . S
C1957 C1956 1.396 1_455 S
C1957 C1958 1.399 1_455 S
C1958 H1944 0.929 . S
C1958 C1957 1.399 1_655 S
C1958 C1959 1.385 . S
C1959 H1945 0.931 . S
C1959 C1958 1.385 . S
C1959 C1960 1.389 . S
C1960 C1959 1.389 . S
C1960 C1961 1.387 . S
C1961 H1946 0.930 . S
C1961 C1956 1.390 . S
C1961 C1960 1.387 . S
H1962 C1974 0.930 . S
H1963 C1976 0.930 . S
H1964 C1977 0.930 . S
H1965 C1981 0.959 . S
H1966 C1981 0.959 . S
H1967 C1981 0.961 . S
H1968 C1982 0.960 . S
H1969 C1982 0.961 . S
H1970 C1982 0.959 . S
H1971 C1985 0.929 . S
H1972 C1986 0.931 . S
H1973 C1988 0.930 . S
C1974 H1962 0.930 . S
C1974 C1975 1.399 . S
C1974 C1979 1.399 . S
C1975 C1974 1.399 . S
C1975 C1976 1.376 . S
C1976 H1963 0.930 . S
C1976 C1975 1.376 . S
C1976 C1977 1.388 . S
C1977 H1964 0.930 . S
C1977 C1976 1.388 . S
C1977 C1978 1.390 . S
C1978 C1977 1.390 . S
C1978 C1979 1.394 . S
C1978 C1984 1.465 . S
C1979 C1974 1.399 . S
C1979 C1978 1.394 . S
C1979 C1980 1.516 . S
C1980 C1979 1.516 . S
C1980 C1981 1.502 . S
C1980 C1982 1.561 . S
C1980 C1983 1.526 . S
C1981 H1965 0.959 . S
C1981 H1966 0.959 . S
C1981 H1967 0.961 . S
C1981 C1980 1.502 . S
C1982 H1968 0.960 . S
C1982 H1969 0.961 . S
C1982 H1970 0.959 . S
C1982 C1980 1.561 . S
C1983 C1980 1.526 . S
C1983 C1984 1.396 . S
C1983 C1988 1.390 . S
C1984 C1978 1.465 . S
C1984 C1983 1.396 . S
C1984 C1985 1.399 . S
C1985 H1971 0.929 . S
C1985 C1984 1.399 . S
C1985 C1986 1.385 . S
C1986 H1972 0.931 . S
C1986 C1985 1.385 . S
C1986 C1987 1.389 . S
C1987 C1986 1.389 . S
C1987 C1988 1.387 . S
C1988 H1973 0.930 . S
C1988 C1983 1.390 . S
C1988 C1987 1.387 . S
H1989 C2001 0.930 . S
H1990 C2003 0.930 . S
H1991 C2004 0.930 . S
H1992 C2008 0.959 . S
H1993 C2008 0.959 . S
H1994 C2008 0.961 . S
H1995 C2009 0.960 1_545 S
H1996 C2009 0.961 . S
H1997 C2009 0.959 . S
H1998 C2012 0.929 . S
H1999 C2013 0.931 . S
H2000 C2015 0.930 . S
C2001 H1989 0.930 . S
C2001 C2002 1.399 . S
C2001 C2006 1.399 . S
C2002 C2001 1.399 . S
C2002 C2003 1.376 . S
C2003 H1990 0.930 . S
C2003 C2002 1.376 . S
C2003 C2004 1.388 . S
C2004 H1991 0.930 . S
C2004 C2003 1.388 . S
C2004 C2005 1.409 . S
C2005 C2004 1.409 . S
C2005 C2006 1.390 . S
C2005 C2011 1.448 1_545 S
C2006 C2001 1.399 . S
C2006 C2005 1.390 . S
C2006 C2007 1.516 1_545 S
C2007 C2006 1.516 1_565 S
C2007 C2008 1.502 . S
C2007 C2009 1.561 . S
C2007 C2010 1.526 . S
C2008 H1992 0.959 . S
C2008 H1993 0.959 . S
C2008 H1994 0.961 . S
C2008 C2007 1.502 . S
C2009 H1995 0.960 1_565 S
C2009 H1996 0.961 . S
C2009 H1997 0.959 . S
C2009 C2007 1.561 . S
C2010 C2007 1.526 . S
C2010 C2011 1.396 . S
C2010 C2015 1.390 . S
C2011 C2005 1.448 1_565 S
C2011 C2010 1.396 . S
C2011 C2012 1.399 . S
C2012 H1998 0.929 . S
C2012 C2011 1.399 . S
C2012 C2013 1.385 . S
C2013 H1999 0.931 . S
C2013 C2012 1.385 . S
C2013 C2014 1.389 . S
C2014 C2013 1.389 . S
C2014 C2015 1.387 . S
C2015 H2000 0.930 . S
C2015 C2010 1.390 . S
C2015 C2014 1.387 . S
H2016 C2028 0.930 . S
H2017 C2030 0.930 . S
H2018 C2031 0.930 . S
H2019 C2035 0.959 . S
H2020 C2035 0.959 . S
H2021 C2035 0.961 . S
H2022 C2036 0.960 . S
H2023 C2036 0.961 . S
H2024 C2036 0.959 . S
H2025 C2039 0.929 . S
H2026 C2040 0.931 . S
H2027 C2042 0.930 . S
C2028 H2016 0.930 . S
C2028 C2029 1.399 . S
C2028 C2033 1.401 1_655 S
C2029 C2028 1.399 . S
C2029 C2030 1.376 . S
C2030 H2017 0.930 . S
C2030 C2029 1.376 . S
C2030 C2031 1.388 . S
C2031 H2018 0.930 . S
C2031 C2030 1.388 . S
C2031 C2032 1.390 . S
C2032 C2031 1.390 . S
C2032 C2033 1.393 1_655 S
C2032 C2038 1.465 1_655 S
C2033 C2028 1.401 1_455 S
C2033 C2032 1.393 1_455 S
C2033 C2034 1.515 . S
C2034 C2033 1.515 . S
C2034 C2035 1.502 . S
C2034 C2036 1.561 . S
C2034 C2037 1.526 . S
C2035 H2019 0.959 . S
C2035 H2020 0.959 . S
C2035 H2021 0.961 . S
C2035 C2034 1.502 . S
C2036 H2022 0.960 . S
C2036 H2023 0.961 . S
C2036 H2024 0.959 . S
C2036 C2034 1.561 . S
C2037 C2034 1.526 . S
C2037 C2038 1.396 . S
C2037 C2042 1.390 . S
C2038 C2032 1.465 1_455 S
C2038 C2037 1.396 . S
C2038 C2039 1.399 . S
C2039 H2025 0.929 . S
C2039 C2038 1.399 . S
C2039 C2040 1.385 . S
C2040 H2026 0.931 . S
C2040 C2039 1.385 . S
C2040 C2041 1.389 . S
C2041 C2040 1.389 . S
C2041 C2042 1.387 . S
C2042 H2027 0.930 . S
C2042 C2037 1.390 . S
C2042 C2041 1.387 . S
H2043 C2055 0.930 . S
H2044 C2057 0.930 . S
H2045 C2058 0.930 . S
H2046 C2062 0.959 . S
H2047 C2062 0.959 . S
H2048 C2062 0.961 . S
H2049 C2063 0.960 . S
H2050 C2063 0.961 . S
H2051 C2063 0.959 . S
H2052 C2066 0.929 . S
H2053 C2067 0.931 . S
H2054 C2069 0.930 . S
C2055 H2043 0.930 . S
C2055 C2056 1.399 . S
C2055 C2060 1.399 . S
C2056 C2055 1.399 . S
C2056 C2057 1.376 . S
C2057 H2044 0.930 . S
C2057 C2056 1.376 . S
C2057 C2058 1.388 . S
C2058 H2045 0.930 . S
C2058 C2057 1.388 . S
C2058 C2059 1.390 . S
C2059 C2058 1.390 . S
C2059 C2060 1.394 . S
C2059 C2065 1.465 . S
C2060 C2055 1.399 . S
C2060 C2059 1.394 . S
C2060 C2061 1.516 . S
C2061 C2060 1.516 . S
C2061 C2062 1.502 . S
C2061 C2063 1.561 . S
C2061 C2064 1.526 . S
C2062 H2046 0.959 . S
C2062 H2047 0.959 . S
C2062 H2048 0.961 . S
C2062 C2061 1.502 . S
C2063 H2049 0.960 . S
C2063 H2050 0.961 . S
C2063 H2051 0.959 . S
C2063 C2061 1.561 . S
C2064 C2061 1.526 . S
C2064 C2065 1.396 . S
C2064 C2069 1.390 . S
C2065 C2059 1.465 . S
C2065 C2064 1.396 . S
C2065 C2066 1.399 . S
C2066 H2052 0.929 . S
C2066 C2065 1.399 . S
C2066 C2067 1.385 . S
C2067 H2053 0.931 . S
C2067 C2066 1.385 . S
C2067 C2068 1.389 . S
C2068 C2067 1.389 . S
C2068 C2069 1.387 . S
C2069 H2054 0.930 . S
C2069 C2064 1.390 . S
C2069 C2068 1.387 . S
H2070 C2082 0.930 . S
H2071 C2084 0.930 . S
H2072 C2085 0.930 . S
H2073 C2089 0.959 . S
H2074 C2089 0.959 . S
H2075 C2089 0.961 . S
H2076 C2090 0.960 1_565 S
H2077 C2090 0.961 . S
H2078 C2090 0.966 1_565 S
H2079 C2093 0.929 . S
H2080 C2094 0.931 . S
H2081 C2096 0.930 . S
C2082 H2070 0.930 . S
C2082 C2083 1.399 . S
C2082 C2087 1.399 . S
C2083 C2082 1.399 . S
C2083 C2084 1.376 . S
C2084 H2071 0.930 . S
C2084 C2083 1.376 . S
C2084 C2085 1.388 . S
C2085 H2072 0.930 . S
C2085 C2084 1.388 . S
C2085 C2086 1.388 1_565 S
C2086 C2085 1.388 1_545 S
C2086 C2087 1.392 1_545 S
C2086 C2092 1.469 . S
C2087 C2082 1.399 . S
C2087 C2086 1.392 1_565 S
C2087 C2088 1.516 1_565 S
C2088 C2087 1.516 1_545 S
C2088 C2089 1.502 . S
C2088 C2090 1.561 . S
C2088 C2091 1.526 . S
C2089 H2073 0.959 . S
C2089 H2074 0.959 . S
C2089 H2075 0.961 . S
C2089 C2088 1.502 . S
C2090 H2076 0.960 1_545 S
C2090 H2077 0.961 . S
C2090 H2078 0.966 1_545 S
C2090 C2088 1.561 . S
C2091 C2088 1.526 . S
C2091 C2092 1.396 . S
C2091 C2096 1.390 . S
C2092 C2086 1.469 . S
C2092 C2091 1.396 . S
C2092 C2093 1.399 . S
C2093 H2079 0.929 . S
C2093 C2092 1.399 . S
C2093 C2094 1.385 . S
C2094 H2080 0.931 . S
C2094 C2093 1.385 . S
C2094 C2095 1.389 . S
C2095 C2094 1.389 . S
C2095 C2096 1.387 . S
C2096 H2081 0.930 . S
C2096 C2091 1.390 . S
C2096 C2095 1.387 . S
H2097 C2109 0.930 . S
H2098 C2111 0.930 . S
H2099 C2112 0.930 . S
H2100 C2116 0.959 . S
H2101 C2116 0.959 . S
H2102 C2116 0.961 1_655 S
H2103 C2117 0.960 . S
H2104 C2117 0.961 1_455 S
H2105 C2117 0.959 . S
H2106 C2120 0.929 1_655 S
H2107 C2121 0.931 . S
H2108 C2123 0.930 . S
C2109 H2097 0.930 . S
C2109 C2110 1.399 . S
C2109 C2114 1.399 . S
C2110 C2109 1.399 . S
C2110 C2111 1.376 . S
C2111 H2098 0.930 . S
C2111 C2110 1.376 . S
C2111 C2112 1.388 . S
C2112 H2099 0.930 . S
C2112 C2111 1.388 . S
C2112 C2113 1.390 . S
C2113 C2112 1.390 . S
C2113 C2114 1.394 . S
C2113 C2119 1.465 . S
C2114 C2109 1.399 . S
C2114 C2113 1.394 . S
C2114 C2115 1.516 . S
C2115 C2114 1.516 . S
C2115 C2116 1.502 1_655 S
C2115 C2117 1.561 . S
C2115 C2118 1.526 1_655 S
C2116 H2100 0.959 . S
C2116 H2101 0.959 . S
C2116 H2102 0.961 1_455 S
C2116 C2115 1.502 1_455 S
C2117 H2103 0.960 . S
C2117 H2104 0.961 1_655 S
C2117 H2105 0.959 . S
C2117 C2115 1.561 . S
C2118 C2115 1.526 1_455 S
C2118 C2119 1.396 1_455 S
C2118 C2123 1.390 . S
C2119 C2113 1.465 . S
C2119 C2118 1.396 1_655 S
C2119 C2120 1.399 1_655 S
C2120 H2106 0.929 1_455 S
C2120 C2119 1.399 1_455 S
C2120 C2121 1.385 . S
C2121 H2107 0.931 . S
C2121 C2120 1.385 . S
C2121 C2122 1.389 . S
C2122 C2121 1.389 . S
C2122 C2123 1.387 . S
C2123 H2108 0.930 . S
C2123 C2118 1.390 . S
C2123 C2122 1.387 . S
H2124 C2136 0.930 . S
H2125 C2138 0.930 . S
H2126 C2139 0.930 . S
H2127 C2143 0.959 . S
H2128 C2143 0.959 . S
H2129 C2143 0.961 . S
H2130 C2144 0.960 . S
H2131 C2144 0.961 . S
H2132 C2144 0.959 . S
H2133 C2147 0.929 . S
H2134 C2148 0.931 . S
H2135 C2150 0.930 . S
C2136 H2124 0.930 . S
C2136 C2137 1.399 . S
C2136 C2141 1.399 . S
C2137 C2136 1.399 . S
C2137 C2138 1.376 . S
C2138 H2125 0.930 . S
C2138 C2137 1.376 . S
C2138 C2139 1.388 . S
C2139 H2126 0.930 . S
C2139 C2138 1.388 . S
C2139 C2140 1.390 . S
C2140 C2139 1.390 . S
C2140 C2141 1.394 . S
C2140 C2146 1.465 . S
C2141 C2136 1.399 . S
C2141 C2140 1.394 . S
C2141 C2142 1.516 . S
C2142 C2141 1.516 . S
C2142 C2143 1.502 . S
C2142 C2144 1.561 . S
C2142 C2145 1.526 . S
C2143 H2127 0.959 . S
C2143 H2128 0.959 . S
C2143 H2129 0.961 . S
C2143 C2142 1.502 . S
C2144 H2130 0.960 . S
C2144 H2131 0.961 . S
C2144 H2132 0.959 . S
C2144 C2142 1.561 . S
C2145 C2142 1.526 . S
C2145 C2146 1.396 . S
C2145 C2150 1.390 . S
C2146 C2140 1.465 . S
C2146 C2145 1.396 . S
C2146 C2147 1.399 . S
C2147 H2133 0.929 . S
C2147 C2146 1.399 . S
C2147 C2148 1.385 . S
C2148 H2134 0.931 . S
C2148 C2147 1.385 . S
C2148 C2149 1.389 . S
C2149 C2148 1.389 . S
C2149 C2150 1.387 . S
C2150 H2135 0.930 . S
C2150 C2145 1.390 . S
C2150 C2149 1.387 . S
H2151 C2163 0.930 . S
H2152 C2165 0.930 . S
H2153 C2166 0.930 . S
H2154 C2170 0.959 . S
H2155 C2170 0.959 . S
H2156 C2170 0.961 . S
H2157 C2171 0.960 . S
H2158 C2171 0.961 . S
H2159 C2171 0.959 . S
H2160 C2174 0.929 . S
H2161 C2175 0.931 . S
H2162 C2177 0.930 . S
C2163 H2151 0.930 . S
C2163 C2164 1.399 . S
C2163 C2168 1.399 . S
C2164 C2163 1.399 . S
C2164 C2165 1.376 . S
C2165 H2152 0.930 . S
C2165 C2164 1.376 . S
C2165 C2166 1.388 . S
C2166 H2153 0.930 . S
C2166 C2165 1.388 . S
C2166 C2167 1.390 . S
C2167 C2166 1.390 . S
C2167 C2168 1.394 . S
C2167 C2173 1.465 . S
C2168 C2163 1.399 . S
C2168 C2167 1.394 . S
C2168 C2169 1.516 . S
C2169 C2168 1.516 . S
C2169 C2170 1.502 . S
C2169 C2171 1.561 . S
C2169 C2172 1.526 . S
C2170 H2154 0.959 . S
C2170 H2155 0.959 . S
C2170 H2156 0.961 . S
C2170 C2169 1.502 . S
C2171 H2157 0.960 . S
C2171 H2158 0.961 . S
C2171 H2159 0.959 . S
C2171 C2169 1.561 . S
C2172 C2169 1.526 . S
C2172 C2173 1.396 . S
C2172 C2177 1.390 . S
C2173 C2167 1.465 . S
C2173 C2172 1.396 . S
C2173 C2174 1.399 . S
C2174 H2160 0.929 . S
C2174 C2173 1.399 . S
C2174 C2175 1.385 . S
C2175 H2161 0.931 . S
C2175 C2174 1.385 . S
C2175 C2176 1.389 . S
C2176 C2175 1.389 . S
C2176 C2177 1.387 . S
C2177 H2162 0.930 . S
C2177 C2172 1.390 . S
C2177 C2176 1.387 . S
H2178 C2190 0.930 . S
H2179 C2192 0.930 . S
H2180 C2193 0.930 . S
H2181 C2197 0.959 . S
H2182 C2197 0.959 . S
H2183 C2197 0.961 . S
H2184 C2198 0.960 . S
H2185 C2198 0.961 . S
H2186 C2198 0.959 . S
H2187 C2201 0.929 . S
H2188 C2202 0.931 . S
H2189 C2204 0.930 . S
C2190 H2178 0.930 . S
C2190 C2191 1.399 . S
C2190 C2195 1.399 . S
C2191 C2190 1.399 . S
C2191 C2192 1.376 . S
C2192 H2179 0.930 . S
C2192 C2191 1.376 . S
C2192 C2193 1.388 . S
C2193 H2180 0.930 . S
C2193 C2192 1.388 . S
C2193 C2194 1.390 . S
C2194 C2193 1.390 . S
C2194 C2195 1.394 . S
C2194 C2200 1.465 . S
C2195 C2190 1.399 . S
C2195 C2194 1.394 . S
C2195 C2196 1.516 . S
C2196 C2195 1.516 . S
C2196 C2197 1.502 . S
C2196 C2198 1.561 . S
C2196 C2199 1.526 . S
C2197 H2181 0.959 . S
C2197 H2182 0.959 . S
C2197 H2183 0.961 . S
C2197 C2196 1.502 . S
C2198 H2184 0.960 . S
C2198 H2185 0.961 . S
C2198 H2186 0.959 . S
C2198 C2196 1.561 . S
C2199 C2196 1.526 . S
C2199 C2200 1.396 . S
C2199 C2204 1.390 . S
C2200 C2194 1.465 . S
C2200 C2199 1.396 . S
C2200 C2201 1.399 . S
C2201 H2187 0.929 . S
C2201 C2200 1.399 . S
C2201 C2202 1.385 . S
C2202 H2188 0.931 . S
C2202 C2201 1.385 . S
C2202 C2203 1.389 . S
C2203 C2202 1.389 . S
C2203 C2204 1.387 . S
C2204 H2189 0.930 . S
C2204 C2199 1.390 . S
C2204 C2203 1.387 . S
H2205 C2217 0.930 . S
H2206 C2219 0.930 . S
H2207 C2220 0.930 . S
H2208 C2224 0.959 . S
H2209 C2224 0.959 . S
H2210 C2224 0.961 . S
H2211 C2225 0.960 . S
H2212 C2225 0.961 . S
H2213 C2225 0.959 . S
H2214 C2228 0.929 . S
H2215 C2229 0.931 . S
H2216 C2231 0.930 . S
C2217 H2205 0.930 . S
C2217 C2218 1.399 . S
C2217 C2222 1.399 . S
C2218 C2217 1.399 . S
C2218 C2219 1.376 . S
C2219 H2206 0.930 . S
C2219 C2218 1.376 . S
C2219 C2220 1.388 . S
C2220 H2207 0.930 . S
C2220 C2219 1.388 . S
C2220 C2221 1.390 . S
C2221 C2220 1.390 . S
C2221 C2222 1.394 . S
C2221 C2227 1.465 . S
C2222 C2217 1.399 . S
C2222 C2221 1.394 . S
C2222 C2223 1.516 . S
C2223 C2222 1.516 . S
C2223 C2224 1.502 . S
C2223 C2225 1.561 . S
C2223 C2226 1.526 . S
C2224 H2208 0.959 . S
C2224 H2209 0.959 . S
C2224 H2210 0.961 . S
C2224 C2223 1.502 . S
C2225 H2211 0.960 . S
C2225 H2212 0.961 . S
C2225 H2213 0.959 . S
C2225 C2223 1.561 . S
C2226 C2223 1.526 . S
C2226 C2227 1.396 . S
C2226 C2231 1.390 . S
C2227 C2221 1.465 . S
C2227 C2226 1.396 . S
C2227 C2228 1.399 . S
C2228 H2214 0.929 . S
C2228 C2227 1.399 . S
C2228 C2229 1.385 . S
C2229 H2215 0.931 . S
C2229 C2228 1.385 . S
C2229 C2230 1.389 . S
C2230 C2229 1.389 . S
C2230 C2231 1.387 . S
C2231 H2216 0.930 . S
C2231 C2226 1.390 . S
C2231 C2230 1.387 . S
H2232 C2244 0.930 . S
H2233 C2246 0.930 . S
H2234 C2247 0.930 . S
H2235 C2251 0.959 . S
H2236 C2251 0.959 . S
H2237 C2251 0.961 . S
H2238 C2252 0.960 . S
H2239 C2252 0.961 . S
H2240 C2252 0.959 . S
H2241 C2255 0.929 . S
H2242 C2256 0.931 . S
H2243 C2258 0.930 . S
C2244 H2232 0.930 . S
C2244 C2245 1.399 . S
C2244 C2249 1.399 . S
C2245 C2244 1.399 . S
C2245 C2246 1.376 . S
C2246 H2233 0.930 . S
C2246 C2245 1.376 . S
C2246 C2247 1.388 . S
C2247 H2234 0.930 . S
C2247 C2246 1.388 . S
C2247 C2248 1.390 . S
C2248 C2247 1.390 . S
C2248 C2249 1.394 . S
C2248 C2254 1.465 . S
C2249 C2244 1.399 . S
C2249 C2248 1.394 . S
C2249 C2250 1.516 . S
C2250 C2249 1.516 . S
C2250 C2251 1.502 . S
C2250 C2252 1.561 . S
C2250 C2253 1.526 . S
C2251 H2235 0.959 . S
C2251 H2236 0.959 . S
C2251 H2237 0.961 . S
C2251 C2250 1.502 . S
C2252 H2238 0.960 . S
C2252 H2239 0.961 . S
C2252 H2240 0.959 . S
C2252 C2250 1.561 . S
C2253 C2250 1.526 . S
C2253 C2254 1.396 . S
C2253 C2258 1.390 . S
C2254 C2248 1.465 . S
C2254 C2253 1.396 . S
C2254 C2255 1.399 . S
C2255 H2241 0.929 . S
C2255 C2254 1.399 . S
C2255 C2256 1.385 . S
C2256 H2242 0.931 . S
C2256 C2255 1.385 . S
C2256 C2257 1.389 . S
C2257 C2256 1.389 . S
C2257 C2258 1.387 . S
C2258 H2243 0.930 . S
C2258 C2253 1.390 . S
C2258 C2257 1.387 . S
H2259 C2271 0.930 . S
H2260 C2273 0.930 . S
H2261 C2274 0.930 . S
H2262 C2278 0.959 . S
H2263 C2278 0.959 . S
H2264 C2278 0.961 . S
H2265 C2279 0.960 . S
H2266 C2279 0.961 . S
H2267 C2279 0.959 . S
H2268 C2282 0.929 . S
H2269 C2283 0.931 . S
H2270 C2285 0.930 . S
C2271 H2259 0.930 . S
C2271 C2272 1.399 . S
C2271 C2276 1.399 . S
C2272 C2271 1.399 . S
C2272 C2273 1.376 . S
C2273 H2260 0.930 . S
C2273 C2272 1.376 . S
C2273 C2274 1.388 . S
C2274 H2261 0.930 . S
C2274 C2273 1.388 . S
C2274 C2275 1.390 . S
C2275 C2274 1.390 . S
C2275 C2276 1.394 . S
C2275 C2281 1.465 . S
C2276 C2271 1.399 . S
C2276 C2275 1.394 . S
C2276 C2277 1.516 . S
C2277 C2276 1.516 . S
C2277 C2278 1.502 . S
C2277 C2279 1.561 . S
C2277 C2280 1.526 . S
C2278 H2262 0.959 . S
C2278 H2263 0.959 . S
C2278 H2264 0.961 . S
C2278 C2277 1.502 . S
C2279 H2265 0.960 . S
C2279 H2266 0.961 . S
C2279 H2267 0.959 . S
C2279 C2277 1.561 . S
C2280 C2277 1.526 . S
C2280 C2281 1.396 . S
C2280 C2285 1.390 . S
C2281 C2275 1.465 . S
C2281 C2280 1.396 . S
C2281 C2282 1.399 . S
C2282 H2268 0.929 . S
C2282 C2281 1.399 . S
C2282 C2283 1.385 . S
C2283 H2269 0.931 . S
C2283 C2282 1.385 . S
C2283 C2284 1.389 . S
C2284 C2283 1.389 . S
C2284 C2285 1.387 . S
C2285 H2270 0.930 . S
C2285 C2280 1.390 . S
C2285 C2284 1.387 . S
H2286 C2298 0.930 . S
H2287 C2300 0.930 . S
H2288 C2301 0.930 . S
H2289 C2305 0.959 . S
H2290 C2305 0.959 . S
H2291 C2305 0.961 . S
H2292 C2306 0.960 . S
H2293 C2306 0.961 . S
H2294 C2306 0.959 . S
H2295 C2309 0.929 . S
H2296 C2310 0.931 . S
H2297 C2312 0.930 . S
C2298 H2286 0.930 . S
C2298 C2299 1.399 . S
C2298 C2303 1.399 . S
C2299 C2298 1.399 . S
C2299 C2300 1.376 . S
C2300 H2287 0.930 . S
C2300 C2299 1.376 . S
C2300 C2301 1.388 . S
C2301 H2288 0.930 . S
C2301 C2300 1.388 . S
C2301 C2302 1.390 . S
C2302 C2301 1.390 . S
C2302 C2303 1.394 . S
C2302 C2308 1.465 . S
C2303 C2298 1.399 . S
C2303 C2302 1.394 . S
C2303 C2304 1.516 . S
C2304 C2303 1.516 . S
C2304 C2305 1.502 . S
C2304 C2306 1.561 . S
C2304 C2307 1.526 . S
C2305 H2289 0.959 . S
C2305 H2290 0.959 . S
C2305 H2291 0.961 . S
C2305 C2304 1.502 . S
C2306 H2292 0.960 . S
C2306 H2293 0.961 . S
C2306 H2294 0.959 . S
C2306 C2304 1.561 . S
C2307 C2304 1.526 . S
C2307 C2308 1.396 . S
C2307 C2312 1.390 . S
C2308 C2302 1.465 . S
C2308 C2307 1.396 . S
C2308 C2309 1.399 . S
C2309 H2295 0.929 . S
C2309 C2308 1.399 . S
C2309 C2310 1.385 . S
C2310 H2296 0.931 . S
C2310 C2309 1.385 . S
C2310 C2311 1.389 . S
C2311 C2310 1.389 . S
C2311 C2312 1.387 . S
C2312 H2297 0.930 . S
C2312 C2307 1.390 . S
C2312 C2311 1.387 . S
H2313 C2325 0.930 . S
H2314 C2327 0.930 . S
H2315 C2328 0.930 . S
H2316 C2332 0.959 . S
H2317 C2332 0.959 . S
H2318 C2332 0.961 . S
H2319 C2333 0.960 . S
H2320 C2333 0.961 . S
H2321 C2333 0.959 . S
H2322 C2336 0.929 . S
H2323 C2337 0.931 . S
H2324 C2339 0.930 . S
C2325 H2313 0.930 . S
C2325 C2326 1.399 . S
C2325 C2330 1.399 . S
C2326 C2325 1.399 . S
C2326 C2327 1.376 . S
C2327 H2314 0.930 . S
C2327 C2326 1.376 . S
C2327 C2328 1.388 . S
C2328 H2315 0.930 . S
C2328 C2327 1.388 . S
C2328 C2329 1.390 . S
C2329 C2328 1.390 . S
C2329 C2330 1.394 . S
C2329 C2335 1.465 . S
C2330 C2325 1.399 . S
C2330 C2329 1.394 . S
C2330 C2331 1.516 . S
C2331 C2330 1.516 . S
C2331 C2332 1.502 . S
C2331 C2333 1.561 . S
C2331 C2334 1.526 . S
C2332 H2316 0.959 . S
C2332 H2317 0.959 . S
C2332 H2318 0.961 . S
C2332 C2331 1.502 . S
C2333 H2319 0.960 . S
C2333 H2320 0.961 . S
C2333 H2321 0.959 . S
C2333 C2331 1.561 . S
C2334 C2331 1.526 . S
C2334 C2335 1.396 . S
C2334 C2339 1.390 . S
C2335 C2329 1.465 . S
C2335 C2334 1.396 . S
C2335 C2336 1.399 . S
C2336 H2322 0.929 . S
C2336 C2335 1.399 . S
C2336 C2337 1.385 . S
C2337 H2323 0.931 . S
C2337 C2336 1.385 . S
C2337 C2338 1.389 . S
C2338 C2337 1.389 . S
C2338 C2339 1.387 . S
C2339 H2324 0.930 . S
C2339 C2334 1.390 . S
C2339 C2338 1.387 . S
H2340 C2352 0.930 . S
H2341 C2354 0.930 . S
H2342 C2355 0.930 . S
H2343 C2359 0.959 . S
H2344 C2359 0.959 . S
H2345 C2359 0.961 . S
H2346 C2360 0.960 . S
H2347 C2360 0.961 . S
H2348 C2360 0.959 . S
H2349 C2363 0.929 . S
H2350 C2364 0.931 . S
H2351 C2366 0.930 . S
C2352 H2340 0.930 . S
C2352 C2353 1.399 . S
C2352 C2357 1.399 . S
C2353 C2352 1.399 . S
C2353 C2354 1.376 . S
C2354 H2341 0.930 . S
C2354 C2353 1.376 . S
C2354 C2355 1.388 . S
C2355 H2342 0.930 . S
C2355 C2354 1.388 . S
C2355 C2356 1.390 . S
C2356 C2355 1.390 . S
C2356 C2357 1.394 . S
C2356 C2362 1.465 . S
C2357 C2352 1.399 . S
C2357 C2356 1.394 . S
C2357 C2358 1.516 . S
C2358 C2357 1.516 . S
C2358 C2359 1.502 . S
C2358 C2360 1.561 . S
C2358 C2361 1.526 . S
C2359 H2343 0.959 . S
C2359 H2344 0.959 . S
C2359 H2345 0.961 . S
C2359 C2358 1.502 . S
C2360 H2346 0.960 . S
C2360 H2347 0.961 . S
C2360 H2348 0.959 . S
C2360 C2358 1.561 . S
C2361 C2358 1.526 . S
C2361 C2362 1.396 . S
C2361 C2366 1.390 . S
C2362 C2356 1.465 . S
C2362 C2361 1.396 . S
C2362 C2363 1.399 . S
C2363 H2349 0.929 . S
C2363 C2362 1.399 . S
C2363 C2364 1.385 . S
C2364 H2350 0.931 . S
C2364 C2363 1.385 . S
C2364 C2365 1.389 . S
C2365 C2364 1.389 . S
C2365 C2366 1.387 . S
C2366 H2351 0.930 . S
C2366 C2361 1.390 . S
C2366 C2365 1.387 . S
H2367 C2379 0.930 . S
H2368 C2381 0.930 . S
H2369 C2382 0.930 . S
H2370 C2386 0.959 . S
H2371 C2386 0.959 . S
H2372 C2386 0.961 . S
H2373 C2387 0.960 . S
H2374 C2387 0.961 . S
H2375 C2387 0.959 . S
H2376 C2390 0.929 . S
H2377 C2391 0.931 . S
H2378 C2393 0.930 . S
C2379 H2367 0.930 . S
C2379 C2380 1.399 . S
C2379 C2384 1.399 . S
C2380 C2379 1.399 . S
C2380 C2381 1.376 . S
C2381 H2368 0.930 . S
C2381 C2380 1.376 . S
C2381 C2382 1.388 . S
C2382 H2369 0.930 . S
C2382 C2381 1.388 . S
C2382 C2383 1.390 . S
C2383 C2382 1.390 . S
C2383 C2384 1.394 . S
C2383 C2389 1.465 . S
C2384 C2379 1.399 . S
C2384 C2383 1.394 . S
C2384 C2385 1.516 . S
C2385 C2384 1.516 . S
C2385 C2386 1.502 . S
C2385 C2387 1.561 1_556 S
C2385 C2388 1.526 . S
C2386 H2370 0.959 . S
C2386 H2371 0.959 . S
C2386 H2372 0.961 . S
C2386 C2385 1.502 . S
C2387 H2373 0.960 . S
C2387 H2374 0.961 . S
C2387 H2375 0.959 . S
C2387 C2385 1.561 1_554 S
C2388 C2385 1.526 . S
C2388 C2389 1.396 . S
C2388 C2393 1.390 . S
C2389 C2383 1.465 . S
C2389 C2388 1.396 . S
C2389 C2390 1.399 . S
C2390 H2376 0.929 . S
C2390 C2389 1.399 . S
C2390 C2391 1.385 . S
C2391 H2377 0.931 . S
C2391 C2390 1.385 . S
C2391 C2392 1.389 . S
C2392 C2391 1.389 . S
C2392 C2393 1.387 . S
C2393 H2378 0.930 . S
C2393 C2388 1.390 . S
C2393 C2392 1.387 . S
H2394 C2406 0.930 . S
H2395 C2408 0.930 . S
H2396 C2409 0.930 . S
H2397 C2413 0.929 1_556 S
H2398 C2413 0.985 . S
H2399 C2413 0.987 . S
H2400 C2414 0.960 . S
H2401 C2414 0.961 . S
H2402 C2414 0.959 1_556 S
H2403 C2417 0.929 . S
H2404 C2418 0.931 . S
H2405 C2420 0.930 . S
C2406 H2394 0.930 . S
C2406 C2407 1.399 . S
C2406 C2411 1.399 . S
C2407 C2406 1.399 . S
C2407 C2408 1.376 . S
C2408 H2395 0.930 . S
C2408 C2407 1.376 . S
C2408 C2409 1.388 . S
C2409 H2396 0.930 . S
C2409 C2408 1.388 . S
C2409 C2410 1.390 . S
C2410 C2409 1.390 . S
C2410 C2411 1.394 . S
C2410 C2416 1.465 . S
C2411 C2406 1.399 . S
C2411 C2410 1.394 . S
C2411 C2412 1.516 . S
C2412 C2411 1.516 . S
C2412 C2413 1.480 1_556 S
C2412 C2414 1.561 1_556 S
C2412 C2415 1.526 . S
C2413 H2397 0.929 1_554 S
C2413 H2398 0.985 . S
C2413 H2399 0.987 . S
C2413 C2412 1.480 1_554 S
C2414 H2400 0.960 . S
C2414 H2401 0.961 . S
C2414 H2402 0.959 1_554 S
C2414 C2412 1.561 1_554 S
C2415 C2412 1.526 . S
C2415 C2416 1.396 . S
C2415 C2420 1.390 . S
C2416 C2410 1.465 . S
C2416 C2415 1.396 . S
C2416 C2417 1.399 . S
C2417 H2403 0.929 . S
C2417 C2416 1.399 . S
C2417 C2418 1.385 . S
C2418 H2404 0.931 . S
C2418 C2417 1.385 . S
C2418 C2419 1.389 . S
C2419 C2418 1.389 . S
C2419 C2420 1.387 . S
C2420 H2405 0.930 . S
C2420 C2415 1.390 . S
C2420 C2419 1.387 . S
H2421 C2433 0.930 . S
H2422 C2435 0.930 . S
H2423 C2436 0.930 . S
H2424 C2440 0.959 . S
H2425 C2440 0.959 . S
H2426 C2440 0.961 . S
H2427 C2441 0.960 . S
H2428 C2441 0.961 . S
H2429 C2441 0.959 . S
H2430 C2444 0.929 . S
H2431 C2445 0.931 . S
H2432 C2447 0.930 . S
C2433 H2421 0.930 . S
C2433 C2434 1.399 . S
C2433 C2438 1.399 . S
C2434 C2433 1.399 . S
C2434 C2435 1.376 . S
C2435 H2422 0.930 . S
C2435 C2434 1.376 . S
C2435 C2436 1.388 . S
C2436 H2423 0.930 . S
C2436 C2435 1.388 . S
C2436 C2437 1.390 . S
C2437 C2436 1.390 . S
C2437 C2438 1.394 . S
C2437 C2443 1.465 . S
C2438 C2433 1.399 . S
C2438 C2437 1.394 . S
C2438 C2439 1.516 . S
C2439 C2438 1.516 . S
C2439 C2440 1.502 1_556 S
C2439 C2441 1.561 . S
C2439 C2442 1.526 . S
C2440 H2424 0.959 . S
C2440 H2425 0.959 . S
C2440 H2426 0.961 . S
C2440 C2439 1.502 1_554 S
C2441 H2427 0.960 . S
C2441 H2428 0.961 . S
C2441 H2429 0.959 . S
C2441 C2439 1.561 . S
C2442 C2439 1.526 . S
C2442 C2443 1.396 . S
C2442 C2447 1.390 . S
C2443 C2437 1.465 . S
C2443 C2442 1.396 . S
C2443 C2444 1.399 . S
C2444 H2430 0.929 . S
C2444 C2443 1.399 . S
C2444 C2445 1.385 . S
C2445 H2431 0.931 . S
C2445 C2444 1.385 . S
C2445 C2446 1.389 . S
C2446 C2445 1.389 . S
C2446 C2447 1.387 . S
C2447 H2432 0.930 . S
C2447 C2442 1.390 . S
C2447 C2446 1.387 . S
H2448 C2460 0.930 . S
H2449 C2462 0.930 . S
H2450 C2463 0.930 . S
H2451 C2467 0.959 . S
H2452 C2467 0.959 . S
H2453 C2467 0.961 . S
H2454 C2468 0.960 . S
H2455 C2468 0.961 . S
H2456 C2468 0.959 . S
H2457 C2471 0.929 . S
H2458 C2472 0.931 . S
H2459 C2474 0.930 . S
C2460 H2448 0.930 . S
C2460 C2461 1.399 . S
C2460 C2465 1.399 . S
C2461 C2460 1.399 . S
C2461 C2462 1.376 . S
C2462 H2449 0.930 . S
C2462 C2461 1.376 . S
C2462 C2463 1.388 . S
C2463 H2450 0.930 . S
C2463 C2462 1.388 . S
C2463 C2464 1.390 . S
C2464 C2463 1.390 . S
C2464 C2465 1.394 . S
C2464 C2470 1.465 . S
C2465 C2460 1.399 . S
C2465 C2464 1.394 . S
C2465 C2466 1.516 . S
C2466 C2465 1.516 . S
C2466 C2467 1.502 . S
C2466 C2468 1.561 . S
C2466 C2469 1.526 . S
C2467 H2451 0.959 . S
C2467 H2452 0.959 . S
C2467 H2453 0.961 . S
C2467 C2466 1.502 . S
C2468 H2454 0.960 . S
C2468 H2455 0.961 . S
C2468 H2456 0.959 . S
C2468 C2466 1.561 . S
C2469 C2466 1.526 . S
C2469 C2470 1.396 . S
C2469 C2474 1.390 . S
C2470 C2464 1.465 . S
C2470 C2469 1.396 . S
C2470 C2471 1.399 . S
C2471 H2457 0.929 . S
C2471 C2470 1.399 . S
C2471 C2472 1.385 . S
C2472 H2458 0.931 . S
C2472 C2471 1.385 . S
C2472 C2473 1.389 . S
C2473 C2472 1.389 . S
C2473 C2474 1.387 . S
C2474 H2459 0.930 . S
C2474 C2469 1.390 . S
C2474 C2473 1.387 . S
H2475 C2487 0.930 . S
H2476 C2489 0.930 . S
H2477 C2490 0.930 . S
H2478 C2494 0.959 . S
H2479 C2494 0.959 . S
H2480 C2494 0.961 . S
H2481 C2495 0.960 . S
H2482 C2495 0.961 . S
H2483 C2495 0.959 . S
H2484 C2498 0.929 . S
H2485 C2499 0.931 . S
H2486 C2501 0.930 . S
C2487 H2475 0.930 . S
C2487 C2488 1.399 . S
C2487 C2492 1.399 . S
C2488 C2487 1.399 . S
C2488 C2489 1.376 . S
C2489 H2476 0.930 . S
C2489 C2488 1.376 . S
C2489 C2490 1.388 . S
C2490 H2477 0.930 . S
C2490 C2489 1.388 . S
C2490 C2491 1.390 . S
C2491 C2490 1.390 . S
C2491 C2492 1.394 . S
C2491 C2497 1.465 . S
C2492 C2487 1.399 . S
C2492 C2491 1.394 . S
C2492 C2493 1.516 . S
C2493 C2492 1.516 . S
C2493 C2494 1.502 . S
C2493 C2495 1.561 . S
C2493 C2496 1.526 . S
C2494 H2478 0.959 . S
C2494 H2479 0.959 . S
C2494 H2480 0.961 . S
C2494 C2493 1.502 . S
C2495 H2481 0.960 . S
C2495 H2482 0.961 . S
C2495 H2483 0.959 . S
C2495 C2493 1.561 . S
C2496 C2493 1.526 . S
C2496 C2497 1.396 . S
C2496 C2501 1.390 . S
C2497 C2491 1.465 . S
C2497 C2496 1.396 . S
C2497 C2498 1.399 . S
C2498 H2484 0.929 . S
C2498 C2497 1.399 . S
C2498 C2499 1.385 . S
C2499 H2485 0.931 . S
C2499 C2498 1.385 . S
C2499 C2500 1.389 . S
C2500 C2499 1.389 . S
C2500 C2501 1.387 . S
C2501 H2486 0.930 . S
C2501 C2496 1.390 . S
C2501 C2500 1.387 . S
H2502 C2514 0.930 . S
H2503 C2516 0.930 . S
H2504 C2517 0.930 . S
H2505 C2521 0.959 . S
H2506 C2521 0.959 . S
H2507 C2521 0.961 . S
H2508 C2522 0.960 . S
H2509 C2522 0.961 . S
H2510 C2522 0.959 . S
H2511 C2525 0.929 . S
H2512 C2526 0.931 . S
H2513 C2528 0.930 . S
C2514 H2502 0.930 . S
C2514 C2515 1.399 . S
C2514 C2519 1.399 . S
C2515 C2514 1.399 . S
C2515 C2516 1.376 . S
C2516 H2503 0.930 . S
C2516 C2515 1.376 . S
C2516 C2517 1.388 . S
C2517 H2504 0.930 . S
C2517 C2516 1.388 . S
C2517 C2518 1.390 . S
C2518 C2517 1.390 . S
C2518 C2519 1.394 . S
C2518 C2524 1.465 . S
C2519 C2514 1.399 . S
C2519 C2518 1.394 . S
C2519 C2520 1.516 . S
C2520 C2519 1.516 . S
C2520 C2521 1.502 . S
C2520 C2522 1.561 . S
C2520 C2523 1.526 . S
C2521 H2505 0.959 . S
C2521 H2506 0.959 . S
C2521 H2507 0.961 . S
C2521 C2520 1.502 . S
C2522 H2508 0.960 . S
C2522 H2509 0.961 . S
C2522 H2510 0.959 . S
C2522 C2520 1.561 . S
C2523 C2520 1.526 . S
C2523 C2524 1.396 . S
C2523 C2528 1.390 . S
C2524 C2518 1.465 . S
C2524 C2523 1.396 . S
C2524 C2525 1.399 . S
C2525 H2511 0.929 . S
C2525 C2524 1.399 . S
C2525 C2526 1.385 . S
C2526 H2512 0.931 . S
C2526 C2525 1.385 . S
C2526 C2527 1.389 . S
C2527 C2526 1.389 . S
C2527 C2528 1.387 . S
C2528 H2513 0.930 . S
C2528 C2523 1.390 . S
C2528 C2527 1.387 . S
H2529 C2541 0.930 . S
H2530 C2543 0.930 . S
H2531 C2544 0.930 . S
H2532 C2548 0.959 . S
H2533 C2548 0.959 1_556 S
H2534 C2548 0.961 . S
H2535 C2549 0.960 . S
H2536 C2549 0.961 . S
H2537 C2549 0.959 . S
H2538 C2552 0.929 . S
H2539 C2553 0.931 . S
H2540 C2555 0.930 . S
C2541 H2529 0.930 . S
C2541 C2542 1.399 . S
C2541 C2546 1.399 . S
C2542 C2541 1.399 . S
C2542 C2543 1.376 . S
C2543 H2530 0.930 . S
C2543 C2542 1.376 . S
C2543 C2544 1.388 . S
C2544 H2531 0.930 . S
C2544 C2543 1.388 . S
C2544 C2545 1.390 . S
C2545 C2544 1.390 . S
C2545 C2546 1.394 . S
C2545 C2551 1.465 . S
C2546 C2541 1.399 . S
C2546 C2545 1.394 . S
C2546 C2547 1.516 . S
C2547 C2546 1.516 . S
C2547 C2548 1.502 . S
C2547 C2549 1.561 1_554 S
C2547 C2550 1.526 . S
C2548 H2532 0.959 . S
C2548 H2533 0.959 1_554 S
C2548 H2534 0.961 . S
C2548 C2547 1.502 . S
C2549 H2535 0.960 . S
C2549 H2536 0.961 . S
C2549 H2537 0.959 . S
C2549 C2547 1.561 1_556 S
C2550 C2547 1.526 . S
C2550 C2551 1.396 . S
C2550 C2555 1.390 . S
C2551 C2545 1.465 . S
C2551 C2550 1.396 . S
C2551 C2552 1.399 . S
C2552 H2538 0.929 . S
C2552 C2551 1.399 . S
C2552 C2553 1.385 . S
C2553 H2539 0.931 . S
C2553 C2552 1.385 . S
C2553 C2554 1.389 . S
C2554 C2553 1.389 . S
C2554 C2555 1.387 . S
C2555 H2540 0.930 . S
C2555 C2550 1.390 . S
C2555 C2554 1.387 . S
H2556 C2568 0.930 . S
H2557 C2570 0.930 . S
H2558 C2571 0.930 . S
H2559 C2575 0.959 . S
H2560 C2575 0.959 . S
H2561 C2575 0.961 . S
H2562 C2576 0.960 . S
H2563 C2576 0.961 . S
H2564 C2576 0.959 . S
H2565 C2579 0.929 . S
H2566 C2580 0.931 . S
H2567 C2582 0.930 . S
C2568 H2556 0.930 . S
C2568 C2569 1.399 . S
C2568 C2573 1.399 . S
C2569 C2568 1.399 . S
C2569 C2570 1.376 . S
C2570 H2557 0.930 . S
C2570 C2569 1.376 . S
C2570 C2571 1.388 . S
C2571 H2558 0.930 . S
C2571 C2570 1.388 . S
C2571 C2572 1.390 . S
C2572 C2571 1.390 . S
C2572 C2573 1.394 . S
C2572 C2578 1.465 . S
C2573 C2568 1.399 . S
C2573 C2572 1.394 . S
C2573 C2574 1.516 . S
C2574 C2573 1.516 . S
C2574 C2575 1.502 . S
C2574 C2576 1.561 . S
C2574 C2577 1.526 . S
C2575 H2559 0.959 . S
C2575 H2560 0.959 . S
C2575 H2561 0.961 . S
C2575 C2574 1.502 . S
C2576 H2562 0.960 . S
C2576 H2563 0.961 . S
C2576 H2564 0.959 . S
C2576 C2574 1.561 . S
C2577 C2574 1.526 . S
C2577 C2578 1.396 . S
C2577 C2582 1.390 . S
C2578 C2572 1.465 . S
C2578 C2577 1.396 . S
C2578 C2579 1.399 . S
C2579 H2565 0.929 . S
C2579 C2578 1.399 . S
C2579 C2580 1.385 . S
C2580 H2566 0.931 . S
C2580 C2579 1.385 . S
C2580 C2581 1.389 . S
C2581 C2580 1.389 . S
C2581 C2582 1.387 . S
C2582 H2567 0.930 . S
C2582 C2577 1.390 . S
C2582 C2581 1.387 . S
H2583 C2595 0.930 . S
H2584 C2597 0.930 1_556 S
H2585 C2598 0.930 1_556 S
H2586 C2602 0.959 . S
H2587 C2602 0.959 . S
H2588 C2602 0.961 . S
H2589 C2603 0.960 . S
H2590 C2603 0.961 . S
H2591 C2603 0.959 . S
H2592 C2606 0.929 1_556 S
H2593 C2607 0.931 . S
H2594 C2609 0.930 . S
C2595 H2583 0.930 . S
C2595 C2596 1.399 . S
C2595 C2600 1.399 . S
C2596 C2595 1.399 . S
C2596 C2597 1.376 . S
C2597 H2584 0.930 1_554 S
C2597 C2596 1.376 . S
C2597 C2598 1.388 . S
C2598 H2585 0.930 1_554 S
C2598 C2597 1.388 . S
C2598 C2599 1.390 . S
C2599 C2598 1.390 . S
C2599 C2600 1.394 . S
C2599 C2605 1.465 . S
C2600 C2595 1.399 . S
C2600 C2599 1.394 . S
C2600 C2601 1.516 . S
C2601 C2600 1.516 . S
C2601 C2602 1.502 . S
C2601 C2603 1.561 . S
C2601 C2604 1.526 . S
C2602 H2586 0.959 . S
C2602 H2587 0.959 . S
C2602 H2588 0.961 . S
C2602 C2601 1.502 . S
C2603 H2589 0.960 . S
C2603 H2590 0.961 . S
C2603 H2591 0.959 . S
C2603 C2601 1.561 . S
C2604 C2601 1.526 . S
C2604 C2605 1.396 . S
C2604 C2609 1.390 . S
C2605 C2599 1.465 . S
C2605 C2604 1.396 . S
C2605 C2606 1.399 . S
C2606 H2592 0.929 1_554 S
C2606 C2605 1.399 . S
C2606 C2607 1.385 . S
C2607 H2593 0.931 . S
C2607 C2606 1.385 . S
C2607 C2608 1.389 . S
C2608 C2607 1.389 . S
C2608 C2609 1.387 . S
C2609 H2594 0.930 . S
C2609 C2604 1.390 . S
C2609 C2608 1.387 . S
H2610 C2622 0.930 . S
H2611 C2624 0.930 . S
H2612 C2625 0.930 . S
H2613 C2629 0.959 . S
H2614 C2629 0.959 . S
H2615 C2629 0.961 . S
H2616 C2630 0.960 . S
H2617 C2630 0.961 . S
H2618 C2630 0.959 . S
H2619 C2633 0.929 . S
H2620 C2634 0.931 . S
H2621 C2636 0.930 . S
C2622 H2610 0.930 . S
C2622 C2623 1.399 . S
C2622 C2627 1.399 . S
C2623 C2622 1.399 . S
C2623 C2624 1.376 . S
C2624 H2611 0.930 . S
C2624 C2623 1.376 . S
C2624 C2625 1.388 . S
C2625 H2612 0.930 . S
C2625 C2624 1.388 . S
C2625 C2626 1.390 . S
C2626 C2625 1.390 . S
C2626 C2627 1.394 . S
C2626 C2632 1.465 . S
C2627 C2622 1.399 . S
C2627 C2626 1.394 . S
C2627 C2628 1.516 . S
C2628 C2627 1.516 . S
C2628 C2629 1.502 . S
C2628 C2630 1.561 . S
C2628 C2631 1.526 . S
C2629 H2613 0.959 . S
C2629 H2614 0.959 . S
C2629 H2615 0.961 . S
C2629 C2628 1.502 . S
C2630 H2616 0.960 . S
C2630 H2617 0.961 . S
C2630 H2618 0.959 . S
C2630 C2628 1.561 . S
C2631 C2628 1.526 . S
C2631 C2632 1.396 . S
C2631 C2636 1.390 . S
C2632 C2626 1.465 . S
C2632 C2631 1.396 . S
C2632 C2633 1.399 . S
C2633 H2619 0.929 . S
C2633 C2632 1.399 . S
C2633 C2634 1.385 . S
C2634 H2620 0.931 . S
C2634 C2633 1.385 . S
C2634 C2635 1.389 . S
C2635 C2634 1.389 . S
C2635 C2636 1.387 . S
C2636 H2621 0.930 . S
C2636 C2631 1.390 . S
C2636 C2635 1.387 . S
H2637 C2649 0.930 . S
H2638 C2651 0.930 . S
H2639 C2652 0.930 . S
H2640 C2656 0.959 . S
H2641 C2656 0.959 . S
H2642 C2656 0.961 . S
H2643 C2657 0.960 . S
H2644 C2657 0.961 . S
H2645 C2657 0.959 . S
H2646 C2660 0.929 . S
H2647 C2661 0.931 . S
H2648 C2663 0.930 . S
C2649 H2637 0.930 . S
C2649 C2650 1.399 . S
C2649 C2654 1.399 . S
C2650 C2649 1.399 . S
C2650 C2651 1.376 . S
C2651 H2638 0.930 . S
C2651 C2650 1.376 . S
C2651 C2652 1.388 . S
C2652 H2639 0.930 . S
C2652 C2651 1.388 . S
C2652 C2653 1.390 . S
C2653 C2652 1.390 . S
C2653 C2654 1.394 . S
C2653 C2659 1.465 . S
C2654 C2649 1.399 . S
C2654 C2653 1.394 . S
C2654 C2655 1.516 . S
C2655 C2654 1.516 . S
C2655 C2656 1.502 . S
C2655 C2657 1.561 . S
C2655 C2658 1.526 . S
C2656 H2640 0.959 . S
C2656 H2641 0.959 . S
C2656 H2642 0.961 . S
C2656 C2655 1.502 . S
C2657 H2643 0.960 . S
C2657 H2644 0.961 . S
C2657 H2645 0.959 . S
C2657 C2655 1.561 . S
C2658 C2655 1.526 . S
C2658 C2659 1.396 . S
C2658 C2663 1.390 . S
C2659 C2653 1.465 . S
C2659 C2658 1.396 . S
C2659 C2660 1.399 . S
C2660 H2646 0.929 . S
C2660 C2659 1.399 . S
C2660 C2661 1.385 . S
C2661 H2647 0.931 . S
C2661 C2660 1.385 . S
C2661 C2662 1.389 . S
C2662 C2661 1.389 . S
C2662 C2663 1.387 . S
C2663 H2648 0.930 . S
C2663 C2658 1.390 . S
C2663 C2662 1.387 . S
H2664 C2676 0.930 . S
H2665 C2678 0.930 . S
H2666 C2679 0.930 . S
H2667 C2683 0.959 . S
H2668 C2683 0.959 . S
H2669 C2683 0.961 . S
H2670 C2684 0.960 . S
H2671 C2684 0.961 . S
H2672 C2684 0.959 . S
H2673 C2687 0.929 . S
H2674 C2688 0.931 . S
H2675 C2690 0.930 . S
C2676 H2664 0.930 . S
C2676 C2677 1.399 . S
C2676 C2681 1.399 . S
C2677 C2676 1.399 . S
C2677 C2678 1.376 . S
C2678 H2665 0.930 . S
C2678 C2677 1.376 . S
C2678 C2679 1.388 . S
C2679 H2666 0.930 . S
C2679 C2678 1.388 . S
C2679 C2680 1.390 . S
C2680 C2679 1.390 . S
C2680 C2681 1.394 . S
C2680 C2686 1.465 . S
C2681 C2676 1.399 . S
C2681 C2680 1.394 . S
C2681 C2682 1.516 . S
C2682 C2681 1.516 . S
C2682 C2683 1.502 . S
C2682 C2684 1.561 . S
C2682 C2685 1.526 . S
C2683 H2667 0.959 . S
C2683 H2668 0.959 . S
C2683 H2669 0.961 . S
C2683 C2682 1.502 . S
C2684 H2670 0.960 . S
C2684 H2671 0.961 . S
C2684 H2672 0.959 . S
C2684 C2682 1.561 . S
C2685 C2682 1.526 . S
C2685 C2686 1.396 . S
C2685 C2690 1.390 . S
C2686 C2680 1.465 . S
C2686 C2685 1.396 . S
C2686 C2687 1.399 . S
C2687 H2673 0.929 . S
C2687 C2686 1.399 . S
C2687 C2688 1.385 . S
C2688 H2674 0.931 . S
C2688 C2687 1.385 . S
C2688 C2689 1.389 . S
C2689 C2688 1.389 . S
C2689 C2690 1.387 . S
C2690 H2675 0.930 . S
C2690 C2685 1.390 . S
C2690 C2689 1.387 . S
H2691 C2703 0.930 . S
H2692 C2705 0.930 . S
H2693 C2706 0.930 . S
H2694 C2710 0.959 . S
H2695 C2710 0.959 . S
H2696 C2710 0.961 . S
H2697 C2711 0.960 . S
H2698 C2711 0.961 . S
H2699 C2711 0.959 . S
H2700 C2714 0.929 . S
H2701 C2715 0.931 . S
H2702 C2717 0.930 . S
C2703 H2691 0.930 . S
C2703 C2704 1.399 . S
C2703 C2708 1.399 . S
C2704 C2703 1.399 . S
C2704 C2705 1.376 . S
C2705 H2692 0.930 . S
C2705 C2704 1.376 . S
C2705 C2706 1.388 . S
C2706 H2693 0.930 . S
C2706 C2705 1.388 . S
C2706 C2707 1.390 . S
C2707 C2706 1.390 . S
C2707 C2708 1.394 . S
C2707 C2713 1.465 . S
C2708 C2703 1.399 . S
C2708 C2707 1.394 . S
C2708 C2709 1.516 . S
C2709 C2708 1.516 . S
C2709 C2710 1.502 . S
C2709 C2711 1.561 . S
C2709 C2712 1.526 . S
C2710 H2694 0.959 . S
C2710 H2695 0.959 . S
C2710 H2696 0.961 . S
C2710 C2709 1.502 . S
C2711 H2697 0.960 . S
C2711 H2698 0.961 . S
C2711 H2699 0.959 . S
C2711 C2709 1.561 . S
C2712 C2709 1.526 . S
C2712 C2713 1.396 . S
C2712 C2717 1.390 . S
C2713 C2707 1.465 . S
C2713 C2712 1.396 . S
C2713 C2714 1.399 . S
C2714 H2700 0.929 . S
C2714 C2713 1.399 . S
C2714 C2715 1.385 . S
C2715 H2701 0.931 . S
C2715 C2714 1.385 . S
C2715 C2716 1.389 . S
C2716 C2715 1.389 . S
C2716 C2717 1.387 . S
C2717 H2702 0.930 . S
C2717 C2712 1.390 . S
C2717 C2716 1.387 . S
H2718 C2730 0.930 . S
H2719 C2732 0.930 . S
H2720 C2733 0.930 . S
H2721 C2737 0.959 . S
H2722 C2737 0.959 . S
H2723 C2737 0.961 . S
H2724 C2738 0.960 . S
H2725 C2738 0.961 . S
H2726 C2738 0.959 . S
H2727 C2741 0.929 . S
H2728 C2742 0.931 . S
H2729 C2744 0.930 . S
C2730 H2718 0.930 . S
C2730 C2731 1.399 . S
C2730 C2735 1.399 . S
C2731 C2730 1.399 . S
C2731 C2732 1.376 . S
C2732 H2719 0.930 . S
C2732 C2731 1.376 . S
C2732 C2733 1.388 . S
C2733 H2720 0.930 . S
C2733 C2732 1.388 . S
C2733 C2734 1.390 . S
C2734 C2733 1.390 . S
C2734 C2735 1.394 . S
C2734 C2740 1.465 . S
C2735 C2730 1.399 . S
C2735 C2734 1.394 . S
C2735 C2736 1.516 . S
C2736 C2735 1.516 . S
C2736 C2737 1.502 . S
C2736 C2738 1.561 . S
C2736 C2739 1.526 . S
C2737 H2721 0.959 . S
C2737 H2722 0.959 . S
C2737 H2723 0.961 . S
C2737 C2736 1.502 . S
C2738 H2724 0.960 . S
C2738 H2725 0.961 . S
C2738 H2726 0.959 . S
C2738 C2736 1.561 . S
C2739 C2736 1.526 . S
C2739 C2740 1.396 . S
C2739 C2744 1.390 . S
C2740 C2734 1.465 . S
C2740 C2739 1.396 . S
C2740 C2741 1.399 . S
C2741 H2727 0.929 . S
C2741 C2740 1.399 . S
C2741 C2742 1.385 . S
C2742 H2728 0.931 . S
C2742 C2741 1.385 . S
C2742 C2743 1.389 . S
C2743 C2742 1.389 . S
C2743 C2744 1.387 . S
C2744 H2729 0.930 . S
C2744 C2739 1.390 . S
C2744 C2743 1.387 . S
H2745 C2757 0.930 . S
H2746 C2759 0.930 . S
H2747 C2760 0.930 . S
H2748 C2764 0.959 . S
H2749 C2764 0.959 . S
H2750 C2764 0.961 . S
H2751 C2765 0.960 . S
H2752 C2765 0.961 . S
H2753 C2765 0.959 . S
H2754 C2768 0.929 . S
H2755 C2769 0.931 . S
H2756 C2771 0.930 . S
C2757 H2745 0.930 . S
C2757 C2758 1.399 . S
C2757 C2762 1.399 . S
C2758 C2757 1.399 . S
C2758 C2759 1.376 . S
C2759 H2746 0.930 . S
C2759 C2758 1.376 . S
C2759 C2760 1.388 . S
C2760 H2747 0.930 . S
C2760 C2759 1.388 . S
C2760 C2761 1.390 . S
C2761 C2760 1.390 . S
C2761 C2762 1.394 . S
C2761 C2767 1.465 . S
C2762 C2757 1.399 . S
C2762 C2761 1.394 . S
C2762 C2763 1.516 . S
C2763 C2762 1.516 . S
C2763 C2764 1.502 . S
C2763 C2765 1.561 . S
C2763 C2766 1.526 . S
C2764 H2748 0.959 . S
C2764 H2749 0.959 . S
C2764 H2750 0.961 . S
C2764 C2763 1.502 . S
C2765 H2751 0.960 . S
C2765 H2752 0.961 . S
C2765 H2753 0.959 . S
C2765 C2763 1.561 . S
C2766 C2763 1.526 . S
C2766 C2767 1.396 . S
C2766 C2771 1.390 . S
C2767 C2761 1.465 . S
C2767 C2766 1.396 . S
C2767 C2768 1.399 . S
C2768 H2754 0.929 . S
C2768 C2767 1.399 . S
C2768 C2769 1.385 . S
C2769 H2755 0.931 . S
C2769 C2768 1.385 . S
C2769 C2770 1.389 . S
C2770 C2769 1.389 . S
C2770 C2771 1.387 . S
C2771 H2756 0.930 . S
C2771 C2766 1.390 . S
C2771 C2770 1.387 . S
H2772 C2784 0.934 1_455 S
H2773 C2786 0.930 . S
H2774 C2787 0.930 . S
H2775 C2791 0.959 . S
H2776 C2791 0.959 . S
H2777 C2791 0.961 . S
H2778 C2792 0.960 . S
H2779 C2792 0.961 . S
H2780 C2792 0.959 . S
H2781 C2795 0.935 1_655 S
H2782 C2796 0.917 . S
H2783 C2798 0.930 . S
C2784 H2772 0.934 1_655 S
C2784 C2785 1.395 . S
C2784 C2789 1.397 1_655 S
C2785 C2784 1.395 . S
C2785 C2786 1.376 . S
C2786 H2773 0.930 . S
C2786 C2785 1.376 . S
C2786 C2787 1.388 . S
C2787 H2774 0.930 . S
C2787 C2786 1.388 . S
C2787 C2788 1.402 1_655 S
C2788 C2787 1.402 1_455 S
C2788 C2789 1.377 . S
C2788 C2794 1.467 . S
C2789 C2784 1.397 1_455 S
C2789 C2788 1.377 . S
C2789 C2790 1.516 . S
C2790 C2789 1.516 . S
C2790 C2791 1.502 1_455 S
C2790 C2792 1.561 . S
C2790 C2793 1.526 . S
C2791 H2775 0.959 . S
C2791 H2776 0.959 . S
C2791 H2777 0.961 . S
C2791 C2790 1.502 1_655 S
C2792 H2778 0.960 . S
C2792 H2779 0.961 . S
C2792 H2780 0.959 . S
C2792 C2790 1.561 . S
C2793 C2790 1.526 . S
C2793 C2794 1.396 . S
C2793 C2798 1.390 . S
C2794 C2788 1.467 . S
C2794 C2793 1.396 . S
C2794 C2795 1.399 . S
C2795 H2781 0.935 1_455 S
C2795 C2794 1.399 . S
C2795 C2796 1.385 . S
C2796 H2782 0.917 . S
C2796 C2795 1.385 . S
C2796 C2797 1.389 . S
C2797 C2796 1.389 . S
C2797 C2798 1.387 . S
C2798 H2783 0.930 . S
C2798 C2793 1.390 . S
C2798 C2797 1.387 . S
H2799 C2811 0.930 . S
H2800 C2813 0.930 . S
H2801 C2814 0.930 . S
H2802 C2818 0.959 . S
H2803 C2818 0.959 . S
H2804 C2818 0.961 . S
H2805 C2819 0.960 . S
H2806 C2819 0.961 . S
H2807 C2819 0.959 . S
H2808 C2822 0.929 . S
H2809 C2823 0.931 . S
H2810 C2825 0.930 . S
C2811 H2799 0.930 . S
C2811 C2812 1.399 . S
C2811 C2816 1.399 . S
C2812 C2811 1.399 . S
C2812 C2813 1.376 . S
C2813 H2800 0.930 . S
C2813 C2812 1.376 . S
C2813 C2814 1.388 . S
C2814 H2801 0.930 . S
C2814 C2813 1.388 . S
C2814 C2815 1.390 . S
C2815 C2814 1.390 . S
C2815 C2816 1.394 . S
C2815 C2821 1.465 . S
C2816 C2811 1.399 . S
C2816 C2815 1.394 . S
C2816 C2817 1.516 . S
C2817 C2816 1.516 . S
C2817 C2818 1.502 . S
C2817 C2819 1.561 . S
C2817 C2820 1.526 . S
C2818 H2802 0.959 . S
C2818 H2803 0.959 . S
C2818 H2804 0.961 . S
C2818 C2817 1.502 . S
C2819 H2805 0.960 . S
C2819 H2806 0.961 . S
C2819 H2807 0.959 . S
C2819 C2817 1.561 . S
C2820 C2817 1.526 . S
C2820 C2821 1.396 . S
C2820 C2825 1.390 . S
C2821 C2815 1.465 . S
C2821 C2820 1.396 . S
C2821 C2822 1.399 . S
C2822 H2808 0.929 . S
C2822 C2821 1.399 . S
C2822 C2823 1.385 . S
C2823 H2809 0.931 . S
C2823 C2822 1.385 . S
C2823 C2824 1.389 . S
C2824 C2823 1.389 . S
C2824 C2825 1.387 . S
C2825 H2810 0.930 . S
C2825 C2820 1.390 . S
C2825 C2824 1.387 . S
H2826 C2838 0.930 . S
H2827 C2840 0.930 . S
H2828 C2841 0.930 . S
H2829 C2845 0.959 . S
H2830 C2845 0.959 . S
H2831 C2845 0.961 . S
H2832 C2846 0.960 . S
H2833 C2846 0.961 . S
H2834 C2846 0.959 . S
H2835 C2849 0.929 . S
H2836 C2850 0.931 . S
H2837 C2852 0.930 . S
C2838 H2826 0.930 . S
C2838 C2839 1.399 1_565 S
C2838 C2843 1.399 . S
C2839 C2838 1.399 1_545 S
C2839 C2840 1.376 . S
C2840 H2827 0.930 . S
C2840 C2839 1.376 . S
C2840 C2841 1.388 . S
C2841 H2828 0.930 . S
C2841 C2840 1.388 . S
C2841 C2842 1.390 . S
C2842 C2841 1.390 . S
C2842 C2843 1.394 1_545 S
C2842 C2848 1.465 . S
C2843 C2838 1.399 . S
C2843 C2842 1.394 1_565 S
C2843 C2844 1.516 . S
C2844 C2843 1.516 . S
C2844 C2845 1.502 . S
C2844 C2846 1.561 . S
C2844 C2847 1.526 . S
C2845 H2829 0.959 . S
C2845 H2830 0.959 . S
C2845 H2831 0.961 . S
C2845 C2844 1.502 . S
C2846 H2832 0.960 . S
C2846 H2833 0.961 . S
C2846 H2834 0.959 . S
C2846 C2844 1.561 . S
C2847 C2844 1.526 . S
C2847 C2848 1.396 1_565 S
C2847 C2852 1.390 . S
C2848 C2842 1.465 . S
C2848 C2847 1.396 1_545 S
C2848 C2849 1.399 . S
C2849 H2835 0.929 . S
C2849 C2848 1.399 . S
C2849 C2850 1.385 . S
C2850 H2836 0.931 . S
C2850 C2849 1.385 . S
C2850 C2851 1.389 1_545 S
C2851 C2850 1.389 1_565 S
C2851 C2852 1.387 . S
C2852 H2837 0.930 . S
C2852 C2847 1.390 . S
C2852 C2851 1.387 . S
H2853 C2865 0.930 . S
H2854 C2867 0.930 . S
H2855 C2868 0.930 . S
H2856 C2872 0.959 . S
H2857 C2872 0.959 . S
H2858 C2872 0.961 . S
H2859 C2873 0.960 . S
H2860 C2873 0.961 . S
H2861 C2873 0.959 1_455 S
H2862 C2876 0.929 . S
H2863 C2877 0.931 . S
H2864 C2879 0.930 . S
C2865 H2853 0.930 . S
C2865 C2866 1.399 1_655 S
C2865 C2870 1.399 . S
C2866 C2865 1.399 1_455 S
C2866 C2867 1.376 . S
C2867 H2854 0.930 . S
C2867 C2866 1.376 . S
C2867 C2868 1.388 . S
C2868 H2855 0.930 . S
C2868 C2867 1.388 . S
C2868 C2869 1.390 . S
C2869 C2868 1.390 . S
C2869 C2870 1.394 1_455 S
C2869 C2875 1.465 . S
C2870 C2865 1.399 . S
C2870 C2869 1.394 1_655 S
C2870 C2871 1.516 . S
C2871 C2870 1.516 . S
C2871 C2872 1.502 . S
C2871 C2873 1.561 . S
C2871 C2874 1.526 . S
C2872 H2856 0.959 . S
C2872 H2857 0.959 . S
C2872 H2858 0.961 . S
C2872 C2871 1.502 . S
C2873 H2859 0.960 . S
C2873 H2860 0.961 . S
C2873 H2861 0.959 1_655 S
C2873 C2871 1.561 . S
C2874 C2871 1.526 . S
C2874 C2875 1.396 1_655 S
C2874 C2879 1.390 . S
C2875 C2869 1.465 . S
C2875 C2874 1.396 1_455 S
C2875 C2876 1.399 . S
C2876 H2862 0.929 . S
C2876 C2875 1.399 . S
C2876 C2877 1.385 . S
C2877 H2863 0.931 . S
C2877 C2876 1.385 . S
C2877 C2878 1.389 1_455 S
C2878 C2877 1.389 1_655 S
C2878 C2879 1.387 . S
C2879 H2864 0.930 . S
C2879 C2874 1.390 . S
C2879 C2878 1.387 . S
H2880 C2892 0.930 . S
H2881 C2894 0.930 . S
H2882 C2895 0.930 . S
H2883 C2899 0.959 . S
H2884 C2899 0.959 . S
H2885 C2899 0.961 . S
H2886 C2900 0.960 . S
H2887 C2900 0.961 . S
H2888 C2900 0.959 . S
H2889 C2903 0.929 . S
H2890 C2904 0.931 . S
H2891 C2906 0.930 . S
C2892 H2880 0.930 . S
C2892 C2893 1.399 . S
C2892 C2897 1.399 . S
C2893 C2892 1.399 . S
C2893 C2894 1.376 . S
C2894 H2881 0.930 . S
C2894 C2893 1.376 . S
C2894 C2895 1.388 . S
C2895 H2882 0.930 . S
C2895 C2894 1.388 . S
C2895 C2896 1.390 . S
C2896 C2895 1.390 . S
C2896 C2897 1.394 . S
C2896 C2902 1.465 . S
C2897 C2892 1.399 . S
C2897 C2896 1.394 . S
C2897 C2898 1.516 . S
C2898 C2897 1.516 . S
C2898 C2899 1.502 . S
C2898 C2900 1.561 . S
C2898 C2901 1.526 . S
C2899 H2883 0.959 . S
C2899 H2884 0.959 . S
C2899 H2885 0.961 . S
C2899 C2898 1.502 . S
C2900 H2886 0.960 . S
C2900 H2887 0.961 . S
C2900 H2888 0.959 . S
C2900 C2898 1.561 . S
C2901 C2898 1.526 . S
C2901 C2902 1.396 . S
C2901 C2906 1.390 . S
C2902 C2896 1.465 . S
C2902 C2901 1.396 . S
C2902 C2903 1.399 . S
C2903 H2889 0.929 . S
C2903 C2902 1.399 . S
C2903 C2904 1.385 . S
C2904 H2890 0.931 . S
C2904 C2903 1.385 . S
C2904 C2905 1.389 . S
C2905 C2904 1.389 . S
C2905 C2906 1.387 . S
C2906 H2891 0.930 . S
C2906 C2901 1.390 . S
C2906 C2905 1.387 . S
H2907 C2919 0.930 . S
H2908 C2921 0.930 . S
H2909 C2922 0.930 . S
H2910 C2926 0.959 . S
H2911 C2926 0.959 . S
H2912 C2926 0.961 . S
H2913 C2927 0.960 . S
H2914 C2927 0.961 . S
H2915 C2927 0.959 . S
H2916 C2930 0.929 . S
H2917 C2931 0.931 . S
H2918 C2933 0.930 . S
C2919 H2907 0.930 . S
C2919 C2920 1.399 1_565 S
C2919 C2924 1.399 . S
C2920 C2919 1.399 1_545 S
C2920 C2921 1.376 . S
C2921 H2908 0.930 . S
C2921 C2920 1.376 . S
C2921 C2922 1.388 . S
C2922 H2909 0.930 . S
C2922 C2921 1.388 . S
C2922 C2923 1.390 . S
C2923 C2922 1.390 . S
C2923 C2924 1.394 1_545 S
C2923 C2929 1.465 . S
C2924 C2919 1.399 . S
C2924 C2923 1.394 1_565 S
C2924 C2925 1.516 . S
C2925 C2924 1.516 . S
C2925 C2926 1.502 . S
C2925 C2927 1.561 . S
C2925 C2928 1.526 . S
C2926 H2910 0.959 . S
C2926 H2911 0.959 . S
C2926 H2912 0.961 . S
C2926 C2925 1.502 . S
C2927 H2913 0.960 . S
C2927 H2914 0.961 . S
C2927 H2915 0.959 . S
C2927 C2925 1.561 . S
C2928 C2925 1.526 . S
C2928 C2929 1.396 1_565 S
C2928 C2933 1.390 . S
C2929 C2923 1.465 . S
C2929 C2928 1.396 1_545 S
C2929 C2930 1.399 . S
C2930 H2916 0.929 . S
C2930 C2929 1.399 . S
C2930 C2931 1.385 . S
C2931 H2917 0.931 . S
C2931 C2930 1.385 . S
C2931 C2932 1.389 1_545 S
C2932 C2931 1.389 1_565 S
C2932 C2933 1.387 . S
C2933 H2918 0.930 . S
C2933 C2928 1.390 . S
C2933 C2932 1.387 . S
H2934 C2946 0.930 . S
H2935 C2948 0.930 . S
H2936 C2949 0.930 . S
H2937 C2953 0.959 . S
H2938 C2953 0.959 . S
H2939 C2953 0.961 . S
H2940 C2954 0.960 . S
H2941 C2954 0.961 . S
H2942 C2954 0.959 . S
H2943 C2957 0.929 . S
H2944 C2958 0.931 . S
H2945 C2960 0.930 . S
C2946 H2934 0.930 . S
C2946 C2947 1.399 . S
C2946 C2951 1.399 . S
C2947 C2946 1.399 . S
C2947 C2948 1.376 . S
C2948 H2935 0.930 . S
C2948 C2947 1.376 . S
C2948 C2949 1.388 . S
C2949 H2936 0.930 . S
C2949 C2948 1.388 . S
C2949 C2950 1.390 . S
C2950 C2949 1.390 . S
C2950 C2951 1.394 . S
C2950 C2956 1.465 . S
C2951 C2946 1.399 . S
C2951 C2950 1.394 . S
C2951 C2952 1.516 . S
C2952 C2951 1.516 . S
C2952 C2953 1.502 . S
C2952 C2954 1.561 . S
C2952 C2955 1.526 . S
C2953 H2937 0.959 . S
C2953 H2938 0.959 . S
C2953 H2939 0.961 . S
C2953 C2952 1.502 . S
C2954 H2940 0.960 . S
C2954 H2941 0.961 . S
C2954 H2942 0.959 . S
C2954 C2952 1.561 . S
C2955 C2952 1.526 . S
C2955 C2956 1.396 . S
C2955 C2960 1.390 . S
C2956 C2950 1.465 . S
C2956 C2955 1.396 . S
C2956 C2957 1.399 . S
C2957 H2943 0.929 . S
C2957 C2956 1.399 . S
C2957 C2958 1.385 . S
C2958 H2944 0.931 . S
C2958 C2957 1.385 . S
C2958 C2959 1.389 . S
C2959 C2958 1.389 . S
C2959 C2960 1.387 . S
C2960 H2945 0.930 . S
C2960 C2955 1.390 . S
C2960 C2959 1.387 . S
H2961 C2973 0.930 . S
H2962 C2975 0.930 . S
H2963 C2976 0.930 . S
H2964 C2980 0.959 . S
H2965 C2980 0.959 . S
H2966 C2980 0.961 . S
H2967 C2981 0.960 . S
H2968 C2981 0.961 . S
H2969 C2981 0.959 . S
H2970 C2984 0.929 . S
H2971 C2985 0.931 . S
H2972 C2987 0.930 . S
C2973 H2961 0.930 . S
C2973 C2974 1.399 . S
C2973 C2978 1.399 . S
C2974 C2973 1.399 . S
C2974 C2975 1.376 . S
C2975 H2962 0.930 . S
C2975 C2974 1.376 . S
C2975 C2976 1.388 . S
C2976 H2963 0.930 . S
C2976 C2975 1.388 . S
C2976 C2977 1.390 . S
C2977 C2976 1.390 . S
C2977 C2978 1.394 . S
C2977 C2983 1.465 . S
C2978 C2973 1.399 . S
C2978 C2977 1.394 . S
C2978 C2979 1.516 . S
C2979 C2978 1.516 . S
C2979 C2980 1.502 . S
C2979 C2981 1.561 . S
C2979 C2982 1.526 . S
C2980 H2964 0.959 . S
C2980 H2965 0.959 . S
C2980 H2966 0.961 . S
C2980 C2979 1.502 . S
C2981 H2967 0.960 . S
C2981 H2968 0.961 . S
C2981 H2969 0.959 . S
C2981 C2979 1.561 . S
C2982 C2979 1.526 . S
C2982 C2983 1.396 . S
C2982 C2987 1.390 . S
C2983 C2977 1.465 . S
C2983 C2982 1.396 . S
C2983 C2984 1.399 . S
C2984 H2970 0.929 . S
C2984 C2983 1.399 . S
C2984 C2985 1.385 . S
C2985 H2971 0.931 . S
C2985 C2984 1.385 . S
C2985 C2986 1.389 . S
C2986 C2985 1.389 . S
C2986 C2987 1.387 . S
C2987 H2972 0.930 . S
C2987 C2982 1.390 . S
C2987 C2986 1.387 . S
H2988 C3000 0.930 . S
H2989 C3002 0.930 . S
H2990 C3003 0.930 . S
H2991 C3007 0.959 . S
H2992 C3007 0.959 . S
H2993 C3007 0.961 . S
H2994 C3008 0.960 . S
H2995 C3008 0.961 . S
H2996 C3008 0.959 . S
H2997 C3011 0.929 . S
H2998 C3012 0.931 . S
H2999 C3014 0.930 . S
C3000 H2988 0.930 . S
C3000 C3001 1.399 . S
C3000 C3005 1.399 . S
C3001 C3000 1.399 . S
C3001 C3002 1.376 . S
C3002 H2989 0.930 . S
C3002 C3001 1.376 . S
C3002 C3003 1.388 . S
C3003 H2990 0.930 . S
C3003 C3002 1.388 . S
C3003 C3004 1.390 . S
C3004 C3003 1.390 . S
C3004 C3005 1.394 . S
C3004 C3010 1.465 . S
C3005 C3000 1.399 . S
C3005 C3004 1.394 . S
C3005 C3006 1.516 . S
C3006 C3005 1.516 . S
C3006 C3007 1.502 . S
C3006 C3008 1.561 . S
C3006 C3009 1.526 . S
C3007 H2991 0.959 . S
C3007 H2992 0.959 . S
C3007 H2993 0.961 . S
C3007 C3006 1.502 . S
C3008 H2994 0.960 . S
C3008 H2995 0.961 . S
C3008 H2996 0.959 . S
C3008 C3006 1.561 . S
C3009 C3006 1.526 . S
C3009 C3010 1.396 . S
C3009 C3014 1.390 . S
C3010 C3004 1.465 . S
C3010 C3009 1.396 . S
C3010 C3011 1.399 . S
C3011 H2997 0.929 . S
C3011 C3010 1.399 . S
C3011 C3012 1.385 . S
C3012 H2998 0.931 . S
C3012 C3011 1.385 . S
C3012 C3013 1.389 . S
C3013 C3012 1.389 . S
C3013 C3014 1.387 . S
C3014 H2999 0.930 . S
C3014 C3009 1.390 . S
C3014 C3013 1.387 . S
H3015 C3027 0.930 . S
H3016 C3029 0.930 . S
H3017 C3030 0.930 . S
H3018 C3034 0.959 . S
H3019 C3034 0.959 . S
H3020 C3034 0.961 . S
H3021 C3035 0.960 . S
H3022 C3035 0.961 . S
H3023 C3035 0.959 . S
H3024 C3038 0.929 . S
H3025 C3039 0.931 . S
H3026 C3041 0.930 . S
C3027 H3015 0.930 . S
C3027 C3028 1.399 . S
C3027 C3032 1.399 . S
C3028 C3027 1.399 . S
C3028 C3029 1.376 . S
C3029 H3016 0.930 . S
C3029 C3028 1.376 . S
C3029 C3030 1.388 . S
C3030 H3017 0.930 . S
C3030 C3029 1.388 . S
C3030 C3031 1.390 . S
C3031 C3030 1.390 . S
C3031 C3032 1.394 . S
C3031 C3037 1.465 . S
C3032 C3027 1.399 . S
C3032 C3031 1.394 . S
C3032 C3033 1.516 . S
C3033 C3032 1.516 . S
C3033 C3034 1.502 . S
C3033 C3035 1.561 . S
C3033 C3036 1.526 . S
C3034 H3018 0.959 . S
C3034 H3019 0.959 . S
C3034 H3020 0.961 . S
C3034 C3033 1.502 . S
C3035 H3021 0.960 . S
C3035 H3022 0.961 . S
C3035 H3023 0.959 . S
C3035 C3033 1.561 . S
C3036 C3033 1.526 . S
C3036 C3037 1.396 . S
C3036 C3041 1.390 . S
C3037 C3031 1.465 . S
C3037 C3036 1.396 . S
C3037 C3038 1.399 . S
C3038 H3024 0.929 . S
C3038 C3037 1.399 . S
C3038 C3039 1.385 . S
C3039 H3025 0.931 . S
C3039 C3038 1.385 . S
C3039 C3040 1.389 . S
C3040 C3039 1.389 . S
C3040 C3041 1.387 . S
C3041 H3026 0.930 . S
C3041 C3036 1.390 . S
C3041 C3040 1.387 . S
H3042 C3054 0.930 . S
H3043 C3056 0.930 . S
H3044 C3057 0.930 . S
H3045 C3061 0.959 . S
H3046 C3061 0.959 . S
H3047 C3061 0.961 . S
H3048 C3062 0.960 . S
H3049 C3062 0.961 . S
H3050 C3062 0.959 . S
H3051 C3065 0.929 . S
H3052 C3066 0.931 . S
H3053 C3068 0.930 . S
C3054 H3042 0.930 . S
C3054 C3055 1.399 . S
C3054 C3059 1.399 . S
C3055 C3054 1.399 . S
C3055 C3056 1.376 . S
C3056 H3043 0.930 . S
C3056 C3055 1.376 . S
C3056 C3057 1.388 . S
C3057 H3044 0.930 . S
C3057 C3056 1.388 . S
C3057 C3058 1.390 . S
C3058 C3057 1.390 . S
C3058 C3059 1.394 . S
C3058 C3064 1.465 . S
C3059 C3054 1.399 . S
C3059 C3058 1.394 . S
C3059 C3060 1.516 . S
C3060 C3059 1.516 . S
C3060 C3061 1.502 . S
C3060 C3062 1.561 . S
C3060 C3063 1.526 . S
C3061 H3045 0.959 . S
C3061 H3046 0.959 . S
C3061 H3047 0.961 . S
C3061 C3060 1.502 . S
C3062 H3048 0.960 . S
C3062 H3049 0.961 . S
C3062 H3050 0.959 . S
C3062 C3060 1.561 . S
C3063 C3060 1.526 . S
C3063 C3064 1.396 . S
C3063 C3068 1.390 . S
C3064 C3058 1.465 . S
C3064 C3063 1.396 . S
C3064 C3065 1.399 . S
C3065 H3051 0.929 . S
C3065 C3064 1.399 . S
C3065 C3066 1.385 . S
C3066 H3052 0.931 . S
C3066 C3065 1.385 . S
C3066 C3067 1.389 . S
C3067 C3066 1.389 . S
C3067 C3068 1.387 . S
C3068 H3053 0.930 . S
C3068 C3063 1.390 . S
C3068 C3067 1.387 . S
H3069 C3081 0.930 . S
H3070 C3083 0.930 . S
H3071 C3084 0.930 . S
H3072 C3088 0.959 . S
H3073 C3088 0.959 . S
H3074 C3088 0.961 . S
H3075 C3089 0.960 . S
H3076 C3089 0.961 . S
H3077 C3089 0.959 . S
H3078 C3092 0.929 . S
H3079 C3093 0.931 . S
H3080 C3095 0.930 . S
C3081 H3069 0.930 . S
C3081 C3082 1.399 . S
C3081 C3086 1.399 . S
C3082 C3081 1.399 . S
C3082 C3083 1.376 . S
C3083 H3070 0.930 . S
C3083 C3082 1.376 . S
C3083 C3084 1.388 . S
C3084 H3071 0.930 . S
C3084 C3083 1.388 . S
C3084 C3085 1.390 . S
C3085 C3084 1.390 . S
C3085 C3086 1.394 . S
C3085 C3091 1.465 . S
C3086 C3081 1.399 . S
C3086 C3085 1.394 . S
C3086 C3087 1.516 . S
C3087 C3086 1.516 . S
C3087 C3088 1.502 . S
C3087 C3089 1.561 . S
C3087 C3090 1.526 . S
C3088 H3072 0.959 . S
C3088 H3073 0.959 . S
C3088 H3074 0.961 . S
C3088 C3087 1.502 . S
C3089 H3075 0.960 . S
C3089 H3076 0.961 . S
C3089 H3077 0.959 . S
C3089 C3087 1.561 . S
C3090 C3087 1.526 . S
C3090 C3091 1.396 . S
C3090 C3095 1.390 . S
C3091 C3085 1.465 . S
C3091 C3090 1.396 . S
C3091 C3092 1.399 . S
C3092 H3078 0.929 . S
C3092 C3091 1.399 . S
C3092 C3093 1.385 . S
C3093 H3079 0.931 . S
C3093 C3092 1.385 . S
C3093 C3094 1.389 . S
C3094 C3093 1.389 . S
C3094 C3095 1.387 . S
C3095 H3080 0.930 . S
C3095 C3090 1.390 . S
C3095 C3094 1.387 . S
H3096 C3108 0.930 . S
H3097 C3110 0.930 . S
H3098 C3111 0.930 . S
H3099 C3115 0.959 . S
H3100 C3115 0.959 . S
H3101 C3115 0.961 . S
H3102 C3116 0.960 . S
H3103 C3116 0.961 . S
H3104 C3116 0.959 . S
H3105 C3119 0.929 . S
H3106 C3120 0.931 . S
H3107 C3122 0.930 . S
C3108 H3096 0.930 . S
C3108 C3109 1.399 . S
C3108 C3113 1.399 . S
C3109 C3108 1.399 . S
C3109 C3110 1.376 . S
C3110 H3097 0.930 . S
C3110 C3109 1.376 . S
C3110 C3111 1.388 . S
C3111 H3098 0.930 . S
C3111 C3110 1.388 . S
C3111 C3112 1.390 . S
C3112 C3111 1.390 . S
C3112 C3113 1.394 . S
C3112 C3118 1.465 . S
C3113 C3108 1.399 . S
C3113 C3112 1.394 . S
C3113 C3114 1.516 . S
C3114 C3113 1.516 . S
C3114 C3115 1.502 . S
C3114 C3116 1.561 . S
C3114 C3117 1.526 . S
C3115 H3099 0.959 . S
C3115 H3100 0.959 . S
C3115 H3101 0.961 . S
C3115 C3114 1.502 . S
C3116 H3102 0.960 . S
C3116 H3103 0.961 . S
C3116 H3104 0.959 . S
C3116 C3114 1.561 . S
C3117 C3114 1.526 . S
C3117 C3118 1.396 . S
C3117 C3122 1.390 . S
C3118 C3112 1.465 . S
C3118 C3117 1.396 . S
C3118 C3119 1.399 . S
C3119 H3105 0.929 . S
C3119 C3118 1.399 . S
C3119 C3120 1.385 . S
C3120 H3106 0.931 . S
C3120 C3119 1.385 . S
C3120 C3121 1.389 . S
C3121 C3120 1.389 . S
C3121 C3122 1.387 . S
C3122 H3107 0.930 . S
C3122 C3117 1.390 . S
C3122 C3121 1.387 . S
H3123 C3135 0.930 . S
H3124 C3137 0.930 . S
H3125 C3138 0.930 . S
H3126 C3142 0.959 . S
H3127 C3142 0.959 . S
H3128 C3142 0.961 . S
H3129 C3143 0.960 . S
H3130 C3143 0.961 . S
H3131 C3143 0.959 . S
H3132 C3146 0.929 . S
H3133 C3147 0.931 . S
H3134 C3149 0.930 . S
C3135 H3123 0.930 . S
C3135 C3136 1.399 . S
C3135 C3140 1.399 . S
C3136 C3135 1.399 . S
C3136 C3137 1.376 . S
C3137 H3124 0.930 . S
C3137 C3136 1.376 . S
C3137 C3138 1.388 . S
C3138 H3125 0.930 . S
C3138 C3137 1.388 . S
C3138 C3139 1.390 . S
C3139 C3138 1.390 . S
C3139 C3140 1.394 . S
C3139 C3145 1.465 . S
C3140 C3135 1.399 . S
C3140 C3139 1.394 . S
C3140 C3141 1.516 . S
C3141 C3140 1.516 . S
C3141 C3142 1.502 . S
C3141 C3143 1.561 . S
C3141 C3144 1.526 . S
C3142 H3126 0.959 . S
C3142 H3127 0.959 . S
C3142 H3128 0.961 . S
C3142 C3141 1.502 . S
C3143 H3129 0.960 . S
C3143 H3130 0.961 . S
C3143 H3131 0.959 . S
C3143 C3141 1.561 . S
C3144 C3141 1.526 . S
C3144 C3145 1.396 . S
C3144 C3149 1.390 . S
C3145 C3139 1.465 . S
C3145 C3144 1.396 . S
C3145 C3146 1.399 . S
C3146 H3132 0.929 . S
C3146 C3145 1.399 . S
C3146 C3147 1.385 . S
C3147 H3133 0.931 . S
C3147 C3146 1.385 . S
C3147 C3148 1.389 . S
C3148 C3147 1.389 . S
C3148 C3149 1.387 . S
C3149 H3134 0.930 . S
C3149 C3144 1.390 . S
C3149 C3148 1.387 . S
H3150 C3162 0.930 . S
H3151 C3164 0.930 . S
H3152 C3165 0.930 . S
H3153 C3169 0.959 . S
H3154 C3169 0.959 . S
H3155 C3169 0.961 . S
H3156 C3170 0.960 . S
H3157 C3170 0.961 . S
H3158 C3170 0.959 . S
H3159 C3173 0.929 . S
H3160 C3174 0.931 . S
H3161 C3176 0.930 . S
C3162 H3150 0.930 . S
C3162 C3163 1.399 . S
C3162 C3167 1.399 . S
C3163 C3162 1.399 . S
C3163 C3164 1.376 . S
C3164 H3151 0.930 . S
C3164 C3163 1.376 . S
C3164 C3165 1.388 . S
C3165 H3152 0.930 . S
C3165 C3164 1.388 . S
C3165 C3166 1.390 . S
C3166 C3165 1.390 . S
C3166 C3167 1.394 . S
C3166 C3172 1.465 . S
C3167 C3162 1.399 . S
C3167 C3166 1.394 . S
C3167 C3168 1.516 . S
C3168 C3167 1.516 . S
C3168 C3169 1.502 . S
C3168 C3170 1.561 . S
C3168 C3171 1.526 . S
C3169 H3153 0.959 . S
C3169 H3154 0.959 . S
C3169 H3155 0.961 . S
C3169 C3168 1.502 . S
C3170 H3156 0.960 . S
C3170 H3157 0.961 . S
C3170 H3158 0.959 . S
C3170 C3168 1.561 . S
C3171 C3168 1.526 . S
C3171 C3172 1.396 . S
C3171 C3176 1.390 . S
C3172 C3166 1.465 . S
C3172 C3171 1.396 . S
C3172 C3173 1.399 . S
C3173 H3159 0.929 . S
C3173 C3172 1.399 . S
C3173 C3174 1.385 . S
C3174 H3160 0.931 . S
C3174 C3173 1.385 . S
C3174 C3175 1.389 . S
C3175 C3174 1.389 . S
C3175 C3176 1.387 . S
C3176 H3161 0.930 . S
C3176 C3171 1.390 . S
C3176 C3175 1.387 . S
H3177 C3189 0.930 . S
H3178 C3191 0.930 . S
H3179 C3192 0.930 . S
H3180 C3196 0.959 . S
H3181 C3196 0.959 . S
H3182 C3196 0.961 . S
H3183 C3197 0.960 . S
H3184 C3197 0.961 . S
H3185 C3197 0.959 . S
H3186 C3200 0.929 . S
H3187 C3201 0.931 . S
H3188 C3203 0.930 . S
C3189 H3177 0.930 . S
C3189 C3190 1.399 . S
C3189 C3194 1.399 . S
C3190 C3189 1.399 . S
C3190 C3191 1.376 . S
C3191 H3178 0.930 . S
C3191 C3190 1.376 . S
C3191 C3192 1.388 . S
C3192 H3179 0.930 . S
C3192 C3191 1.388 . S
C3192 C3193 1.390 . S
C3193 C3192 1.390 . S
C3193 C3194 1.394 . S
C3193 C3199 1.465 . S
C3194 C3189 1.399 . S
C3194 C3193 1.394 . S
C3194 C3195 1.516 . S
C3195 C3194 1.516 . S
C3195 C3196 1.502 . S
C3195 C3197 1.561 . S
C3195 C3198 1.526 . S
C3196 H3180 0.959 . S
C3196 H3181 0.959 . S
C3196 H3182 0.961 . S
C3196 C3195 1.502 . S
C3197 H3183 0.960 . S
C3197 H3184 0.961 . S
C3197 H3185 0.959 . S
C3197 C3195 1.561 . S
C3198 C3195 1.526 . S
C3198 C3199 1.396 . S
C3198 C3203 1.390 . S
C3199 C3193 1.465 . S
C3199 C3198 1.396 . S
C3199 C3200 1.399 . S
C3200 H3186 0.929 . S
C3200 C3199 1.399 . S
C3200 C3201 1.385 . S
C3201 H3187 0.931 . S
C3201 C3200 1.385 . S
C3201 C3202 1.389 . S
C3202 C3201 1.389 . S
C3202 C3203 1.387 . S
C3203 H3188 0.930 . S
C3203 C3198 1.390 . S
C3203 C3202 1.387 . S
H3204 C3216 0.930 . S
H3205 C3218 0.930 . S
H3206 C3219 0.930 . S
H3207 C3223 0.959 . S
H3208 C3223 0.959 . S
H3209 C3223 0.961 . S
H3210 C3224 0.960 . S
H3211 C3224 0.961 . S
H3212 C3224 0.959 . S
H3213 C3227 0.929 . S
H3214 C3228 0.931 . S
H3215 C3230 0.930 . S
C3216 H3204 0.930 . S
C3216 C3217 1.399 . S
C3216 C3221 1.399 . S
C3217 C3216 1.399 . S
C3217 C3218 1.376 . S
C3218 H3205 0.930 . S
C3218 C3217 1.376 . S
C3218 C3219 1.388 . S
C3219 H3206 0.930 . S
C3219 C3218 1.388 . S
C3219 C3220 1.390 . S
C3220 C3219 1.390 . S
C3220 C3221 1.394 . S
C3220 C3226 1.465 . S
C3221 C3216 1.399 . S
C3221 C3220 1.394 . S
C3221 C3222 1.516 . S
C3222 C3221 1.516 . S
C3222 C3223 1.502 . S
C3222 C3224 1.561 . S
C3222 C3225 1.526 . S
C3223 H3207 0.959 . S
C3223 H3208 0.959 . S
C3223 H3209 0.961 . S
C3223 C3222 1.502 . S
C3224 H3210 0.960 . S
C3224 H3211 0.961 . S
C3224 H3212 0.959 . S
C3224 C3222 1.561 . S
C3225 C3222 1.526 . S
C3225 C3226 1.396 . S
C3225 C3230 1.390 . S
C3226 C3220 1.465 . S
C3226 C3225 1.396 . S
C3226 C3227 1.399 . S
C3227 H3213 0.929 . S
C3227 C3226 1.399 . S
C3227 C3228 1.385 . S
C3228 H3214 0.931 . S
C3228 C3227 1.385 . S
C3228 C3229 1.389 . S
C3229 C3228 1.389 . S
C3229 C3230 1.387 . S
C3230 H3215 0.930 . S
C3230 C3225 1.390 . S
C3230 C3229 1.387 . S
H3231 C3243 0.930 . S
H3232 C3245 0.930 . S
H3233 C3246 0.930 . S
H3234 C3250 0.959 . S
H3235 C3250 0.959 . S
H3236 C3250 0.961 . S
H3237 C3251 0.960 . S
H3238 C3251 0.961 . S
H3239 C3251 0.959 . S
H3240 C3254 0.929 . S
H3241 C3255 0.931 . S
H3242 C3257 0.930 . S
C3243 H3231 0.930 . S
C3243 C3244 1.399 . S
C3243 C3248 1.399 . S
C3244 C3243 1.399 . S
C3244 C3245 1.376 . S
C3245 H3232 0.930 . S
C3245 C3244 1.376 . S
C3245 C3246 1.388 . S
C3246 H3233 0.930 . S
C3246 C3245 1.388 . S
C3246 C3247 1.390 . S
C3247 C3246 1.390 . S
C3247 C3248 1.394 . S
C3247 C3253 1.465 . S
C3248 C3243 1.399 . S
C3248 C3247 1.394 . S
C3248 C3249 1.516 . S
C3249 C3248 1.516 . S
C3249 C3250 1.502 . S
C3249 C3251 1.561 . S
C3249 C3252 1.526 . S
C3250 H3234 0.959 . S
C3250 H3235 0.959 . S
C3250 H3236 0.961 . S
C3250 C3249 1.502 . S
C3251 H3237 0.960 . S
C3251 H3238 0.961 . S
C3251 H3239 0.959 . S
C3251 C3249 1.561 . S
C3252 C3249 1.526 . S
C3252 C3253 1.396 . S
C3252 C3257 1.390 . S
C3253 C3247 1.465 . S
C3253 C3252 1.396 . S
C3253 C3254 1.399 . S
C3254 H3240 0.929 . S
C3254 C3253 1.399 . S
C3254 C3255 1.385 . S
C3255 H3241 0.931 . S
C3255 C3254 1.385 . S
C3255 C3256 1.389 . S
C3256 C3255 1.389 . S
C3256 C3257 1.387 . S
C3257 H3242 0.930 . S
C3257 C3252 1.390 . S
C3257 C3256 1.387 . S
H3258 C3270 0.930 . S
H3259 C3272 0.930 . S
H3260 C3273 0.930 . S
H3261 C3277 0.959 . S
H3262 C3277 0.959 . S
H3263 C3277 0.961 . S
H3264 C3278 0.960 . S
H3265 C3278 0.961 . S
H3266 C3278 0.959 . S
H3267 C3281 0.929 . S
H3268 C3282 0.931 . S
H3269 C3284 0.930 . S
C3270 H3258 0.930 . S
C3270 C3271 1.399 . S
C3270 C3275 1.399 . S
C3271 C3270 1.399 . S
C3271 C3272 1.376 . S
C3272 H3259 0.930 . S
C3272 C3271 1.376 . S
C3272 C3273 1.388 . S
C3273 H3260 0.930 . S
C3273 C3272 1.388 . S
C3273 C3274 1.390 . S
C3274 C3273 1.390 . S
C3274 C3275 1.394 . S
C3274 C3280 1.465 . S
C3275 C3270 1.399 . S
C3275 C3274 1.394 . S
C3275 C3276 1.516 . S
C3276 C3275 1.516 . S
C3276 C3277 1.502 . S
C3276 C3278 1.561 . S
C3276 C3279 1.526 . S
C3277 H3261 0.959 . S
C3277 H3262 0.959 . S
C3277 H3263 0.961 . S
C3277 C3276 1.502 . S
C3278 H3264 0.960 . S
C3278 H3265 0.961 . S
C3278 H3266 0.959 . S
C3278 C3276 1.561 . S
C3279 C3276 1.526 . S
C3279 C3280 1.396 . S
C3279 C3284 1.390 . S
C3280 C3274 1.465 . S
C3280 C3279 1.396 . S
C3280 C3281 1.399 . S
C3281 H3267 0.929 . S
C3281 C3280 1.399 . S
C3281 C3282 1.385 . S
C3282 H3268 0.931 . S
C3282 C3281 1.385 . S
C3282 C3283 1.389 . S
C3283 C3282 1.389 . S
C3283 C3284 1.387 . S
C3284 H3269 0.930 . S
C3284 C3279 1.390 . S
C3284 C3283 1.387 . S
H3285 C3297 0.930 . S
H3286 C3299 0.930 . S
H3287 C3300 0.930 . S
H3288 C3304 0.959 . S
H3289 C3304 0.959 . S
H3290 C3304 0.961 . S
H3291 C3305 0.960 . S
H3292 C3305 0.961 . S
H3293 C3305 0.959 . S
H3294 C3308 0.929 . S
H3295 C3309 0.931 . S
H3296 C3311 0.930 . S
C3297 H3285 0.930 . S
C3297 C3298 1.399 . S
C3297 C3302 1.399 . S
C3298 C3297 1.399 . S
C3298 C3299 1.376 . S
C3299 H3286 0.930 . S
C3299 C3298 1.376 . S
C3299 C3300 1.388 . S
C3300 H3287 0.930 . S
C3300 C3299 1.388 . S
C3300 C3301 1.390 . S
C3301 C3300 1.390 . S
C3301 C3302 1.394 . S
C3301 C3307 1.465 . S
C3302 C3297 1.399 . S
C3302 C3301 1.394 . S
C3302 C3303 1.516 . S
C3303 C3302 1.516 . S
C3303 C3304 1.502 . S
C3303 C3305 1.561 . S
C3303 C3306 1.526 . S
C3304 H3288 0.959 . S
C3304 H3289 0.959 . S
C3304 H3290 0.961 . S
C3304 C3303 1.502 . S
C3305 H3291 0.960 . S
C3305 H3292 0.961 . S
C3305 H3293 0.959 . S
C3305 C3303 1.561 . S
C3306 C3303 1.526 . S
C3306 C3307 1.396 . S
C3306 C3311 1.390 . S
C3307 C3301 1.465 . S
C3307 C3306 1.396 . S
C3307 C3308 1.399 . S
C3308 H3294 0.929 . S
C3308 C3307 1.399 . S
C3308 C3309 1.385 . S
C3309 H3295 0.931 . S
C3309 C3308 1.385 . S
C3309 C3310 1.389 . S
C3310 C3309 1.389 . S
C3310 C3311 1.387 . S
C3311 H3296 0.930 . S
C3311 C3306 1.390 . S
C3311 C3310 1.387 . S
H3312 C3324 0.930 . S
H3313 C3326 0.930 . S
H3314 C3327 0.930 . S
H3315 C3331 0.959 . S
H3316 C3331 0.959 . S
H3317 C3331 0.961 . S
H3318 C3332 0.960 . S
H3319 C3332 0.961 . S
H3320 C3332 0.959 . S
H3321 C3335 0.929 . S
H3322 C3336 0.931 . S
H3323 C3338 0.930 . S
C3324 H3312 0.930 . S
C3324 C3325 1.399 . S
C3324 C3329 1.399 . S
C3325 C3324 1.399 . S
C3325 C3326 1.376 . S
C3326 H3313 0.930 . S
C3326 C3325 1.376 . S
C3326 C3327 1.388 . S
C3327 H3314 0.930 . S
C3327 C3326 1.388 . S
C3327 C3328 1.390 . S
C3328 C3327 1.390 . S
C3328 C3329 1.394 . S
C3328 C3334 1.465 . S
C3329 C3324 1.399 . S
C3329 C3328 1.394 . S
C3329 C3330 1.516 . S
C3330 C3329 1.516 . S
C3330 C3331 1.502 . S
C3330 C3332 1.561 . S
C3330 C3333 1.526 . S
C3331 H3315 0.959 . S
C3331 H3316 0.959 . S
C3331 H3317 0.961 . S
C3331 C3330 1.502 . S
C3332 H3318 0.960 . S
C3332 H3319 0.961 . S
C3332 H3320 0.959 . S
C3332 C3330 1.561 . S
C3333 C3330 1.526 . S
C3333 C3334 1.396 . S
C3333 C3338 1.390 . S
C3334 C3328 1.465 . S
C3334 C3333 1.396 . S
C3334 C3335 1.399 . S
C3335 H3321 0.929 . S
C3335 C3334 1.399 . S
C3335 C3336 1.385 . S
C3336 H3322 0.931 . S
C3336 C3335 1.385 . S
C3336 C3337 1.389 . S
C3337 C3336 1.389 . S
C3337 C3338 1.387 . S
C3338 H3323 0.930 . S
C3338 C3333 1.390 . S
C3338 C3337 1.387 . S
H3339 C3351 0.930 . S
H3340 C3353 0.930 . S
H3341 C3354 0.930 . S
H3342 C3358 0.959 . S
H3343 C3358 0.959 . S
H3344 C3358 0.961 . S
H3345 C3359 0.960 . S
H3346 C3359 0.961 . S
H3347 C3359 0.959 . S
H3348 C3362 0.929 . S
H3349 C3363 0.931 . S
H3350 C3365 0.930 . S
C3351 H3339 0.930 . S
C3351 C3352 1.399 . S
C3351 C3356 1.399 . S
C3352 C3351 1.399 . S
C3352 C3353 1.376 . S
C3353 H3340 0.930 . S
C3353 C3352 1.376 . S
C3353 C3354 1.388 . S
C3354 H3341 0.930 . S
C3354 C3353 1.388 . S
C3354 C3355 1.390 . S
C3355 C3354 1.390 . S
C3355 C3356 1.394 . S
C3355 C3361 1.465 . S
C3356 C3351 1.399 . S
C3356 C3355 1.394 . S
C3356 C3357 1.516 . S
C3357 C3356 1.516 . S
C3357 C3358 1.502 . S
C3357 C3359 1.561 . S
C3357 C3360 1.526 . S
C3358 H3342 0.959 . S
C3358 H3343 0.959 . S
C3358 H3344 0.961 . S
C3358 C3357 1.502 . S
C3359 H3345 0.960 . S
C3359 H3346 0.961 . S
C3359 H3347 0.959 . S
C3359 C3357 1.561 . S
C3360 C3357 1.526 . S
C3360 C3361 1.396 . S
C3360 C3365 1.390 . S
C3361 C3355 1.465 . S
C3361 C3360 1.396 . S
C3361 C3362 1.399 . S
C3362 H3348 0.929 . S
C3362 C3361 1.399 . S
C3362 C3363 1.385 . S
C3363 H3349 0.931 . S
C3363 C3362 1.385 . S
C3363 C3364 1.389 . S
C3364 C3363 1.389 . S
C3364 C3365 1.387 . S
C3365 H3350 0.930 . S
C3365 C3360 1.390 . S
C3365 C3364 1.387 . S
H3366 C3378 0.930 . S
H3367 C3380 0.930 . S
H3368 C3381 0.930 . S
H3369 C3385 0.959 . S
H3370 C3385 0.959 . S
H3371 C3385 0.961 . S
H3372 C3386 0.960 . S
H3373 C3386 0.961 . S
H3374 C3386 0.959 . S
H3375 C3389 0.929 . S
H3376 C3390 0.931 . S
H3377 C3392 0.930 . S
C3378 H3366 0.930 . S
C3378 C3379 1.399 . S
C3378 C3383 1.399 . S
C3379 C3378 1.399 . S
C3379 C3380 1.376 . S
C3380 H3367 0.930 . S
C3380 C3379 1.376 . S
C3380 C3381 1.388 . S
C3381 H3368 0.930 . S
C3381 C3380 1.388 . S
C3381 C3382 1.390 . S
C3382 C3381 1.390 . S
C3382 C3383 1.394 . S
C3382 C3388 1.465 . S
C3383 C3378 1.399 . S
C3383 C3382 1.394 . S
C3383 C3384 1.516 . S
C3384 C3383 1.516 . S
C3384 C3385 1.502 . S
C3384 C3386 1.561 . S
C3384 C3387 1.526 . S
C3385 H3369 0.959 . S
C3385 H3370 0.959 . S
C3385 H3371 0.961 . S
C3385 C3384 1.502 . S
C3386 H3372 0.960 . S
C3386 H3373 0.961 . S
C3386 H3374 0.959 . S
C3386 C3384 1.561 . S
C3387 C3384 1.526 . S
C3387 C3388 1.396 . S
C3387 C3392 1.390 . S
C3388 C3382 1.465 . S
C3388 C3387 1.396 . S
C3388 C3389 1.399 . S
C3389 H3375 0.929 . S
C3389 C3388 1.399 . S
C3389 C3390 1.385 . S
C3390 H3376 0.931 . S
C3390 C3389 1.385 . S
C3390 C3391 1.389 . S
C3391 C3390 1.389 . S
C3391 C3392 1.387 . S
C3392 H3377 0.930 . S
C3392 C3387 1.390 . S
C3392 C3391 1.387 . S
H3393 C3405 0.930 . S
H3394 C3407 0.930 . S
H3395 C3408 0.930 . S
H3396 C3412 0.959 . S
H3397 C3412 0.959 . S
H3398 C3412 0.961 . S
H3399 C3413 0.960 . S
H3400 C3413 0.961 . S
H3401 C3413 0.959 . S
H3402 C3416 0.929 . S
H3403 C3417 0.931 . S
H3404 C3419 0.930 . S
C3405 H3393 0.930 . S
C3405 C3406 1.399 . S
C3405 C3410 1.399 . S
C3406 C3405 1.399 . S
C3406 C3407 1.376 . S
C3407 H3394 0.930 . S
C3407 C3406 1.376 . S
C3407 C3408 1.388 . S
C3408 H3395 0.930 . S
C3408 C3407 1.388 . S
C3408 C3409 1.390 . S
C3409 C3408 1.390 . S
C3409 C3410 1.394 . S
C3409 C3415 1.465 . S
C3410 C3405 1.399 . S
C3410 C3409 1.394 . S
C3410 C3411 1.516 . S
C3411 C3410 1.516 . S
C3411 C3412 1.502 . S
C3411 C3413 1.561 . S
C3411 C3414 1.526 . S
C3412 H3396 0.959 . S
C3412 H3397 0.959 . S
C3412 H3398 0.961 . S
C3412 C3411 1.502 . S
C3413 H3399 0.960 . S
C3413 H3400 0.961 . S
C3413 H3401 0.959 . S
C3413 C3411 1.561 . S
C3414 C3411 1.526 . S
C3414 C3415 1.396 . S
C3414 C3419 1.390 . S
C3415 C3409 1.465 . S
C3415 C3414 1.396 . S
C3415 C3416 1.399 . S
C3416 H3402 0.929 . S
C3416 C3415 1.399 . S
C3416 C3417 1.385 . S
C3417 H3403 0.931 . S
C3417 C3416 1.385 . S
C3417 C3418 1.389 . S
C3418 C3417 1.389 . S
C3418 C3419 1.387 . S
C3419 H3404 0.930 . S
C3419 C3414 1.390 . S
C3419 C3418 1.387 . S
H3420 C3432 0.930 . S
H3421 C3434 0.930 . S
H3422 C3435 0.930 . S
H3423 C3439 0.959 . S
H3424 C3439 0.959 . S
H3425 C3439 0.961 . S
H3426 C3440 0.960 . S
H3427 C3440 0.961 . S
H3428 C3440 0.959 . S
H3429 C3443 0.929 . S
H3430 C3444 0.931 . S
H3431 C3446 0.930 . S
C3432 H3420 0.930 . S
C3432 C3433 1.399 . S
C3432 C3437 1.399 . S
C3433 C3432 1.399 . S
C3433 C3434 1.376 . S
C3434 H3421 0.930 . S
C3434 C3433 1.376 . S
C3434 C3435 1.388 . S
C3435 H3422 0.930 . S
C3435 C3434 1.388 . S
C3435 C3436 1.390 . S
C3436 C3435 1.390 . S
C3436 C3437 1.394 . S
C3436 C3442 1.465 . S
C3437 C3432 1.399 . S
C3437 C3436 1.394 . S
C3437 C3438 1.516 . S
C3438 C3437 1.516 . S
C3438 C3439 1.502 . S
C3438 C3440 1.561 . S
C3438 C3441 1.526 . S
C3439 H3423 0.959 . S
C3439 H3424 0.959 . S
C3439 H3425 0.961 . S
C3439 C3438 1.502 . S
C3440 H3426 0.960 . S
C3440 H3427 0.961 . S
C3440 H3428 0.959 . S
C3440 C3438 1.561 . S
C3441 C3438 1.526 . S
C3441 C3442 1.396 . S
C3441 C3446 1.390 . S
C3442 C3436 1.465 . S
C3442 C3441 1.396 . S
C3442 C3443 1.399 . S
C3443 H3429 0.929 . S
C3443 C3442 1.399 . S
C3443 C3444 1.385 . S
C3444 H3430 0.931 . S
C3444 C3443 1.385 . S
C3444 C3445 1.389 . S
C3445 C3444 1.389 . S
C3445 C3446 1.387 . S
C3446 H3431 0.930 . S
C3446 C3441 1.390 . S
C3446 C3445 1.387 . S
H3447 C3459 0.930 . S
H3448 C3461 0.930 . S
H3449 C3462 0.930 . S
H3450 C3466 0.959 . S
H3451 C3466 0.959 . S
H3452 C3466 0.961 . S
H3453 C3467 0.960 . S
H3454 C3467 0.961 . S
H3455 C3467 0.959 . S
H3456 C3470 0.929 . S
H3457 C3471 0.931 . S
H3458 C3473 0.930 . S
C3459 H3447 0.930 . S
C3459 C3460 1.399 . S
C3459 C3464 1.399 . S
C3460 C3459 1.399 . S
C3460 C3461 1.376 . S
C3461 H3448 0.930 . S
C3461 C3460 1.376 . S
C3461 C3462 1.388 . S
C3462 H3449 0.930 . S
C3462 C3461 1.388 . S
C3462 C3463 1.390 . S
C3463 C3462 1.390 . S
C3463 C3464 1.394 . S
C3463 C3469 1.465 . S
C3464 C3459 1.399 . S
C3464 C3463 1.394 . S
C3464 C3465 1.516 . S
C3465 C3464 1.516 . S
C3465 C3466 1.502 . S
C3465 C3467 1.561 . S
C3465 C3468 1.526 . S
C3466 H3450 0.959 . S
C3466 H3451 0.959 . S
C3466 H3452 0.961 . S
C3466 C3465 1.502 . S
C3467 H3453 0.960 . S
C3467 H3454 0.961 . S
C3467 H3455 0.959 . S
C3467 C3465 1.561 . S
C3468 C3465 1.526 . S
C3468 C3469 1.396 . S
C3468 C3473 1.390 . S
C3469 C3463 1.465 . S
C3469 C3468 1.396 . S
C3469 C3470 1.399 . S
C3470 H3456 0.929 . S
C3470 C3469 1.399 . S
C3470 C3471 1.385 . S
C3471 H3457 0.931 . S
C3471 C3470 1.385 . S
C3471 C3472 1.389 . S
C3472 C3471 1.389 . S
C3472 C3473 1.387 . S
C3473 H3458 0.930 . S
C3473 C3468 1.390 . S
C3473 C3472 1.387 . S
H3474 C3486 0.930 . S
H3475 C3488 0.930 . S
H3476 C3489 0.930 . S
H3477 C3493 0.959 . S
H3478 C3493 0.959 . S
H3479 C3493 0.961 . S
H3480 C3494 0.960 . S
H3481 C3494 0.961 . S
H3482 C3494 0.959 . S
H3483 C3497 0.929 . S
H3484 C3498 0.931 . S
H3485 C3500 0.930 . S
C3486 H3474 0.930 . S
C3486 C3487 1.399 . S
C3486 C3491 1.399 . S
C3487 C3486 1.399 . S
C3487 C3488 1.376 . S
C3488 H3475 0.930 . S
C3488 C3487 1.376 . S
C3488 C3489 1.388 . S
C3489 H3476 0.930 . S
C3489 C3488 1.388 . S
C3489 C3490 1.390 . S
C3490 C3489 1.390 . S
C3490 C3491 1.394 . S
C3490 C3496 1.465 . S
C3491 C3486 1.399 . S
C3491 C3490 1.394 . S
C3491 C3492 1.516 . S
C3492 C3491 1.516 . S
C3492 C3493 1.502 . S
C3492 C3494 1.561 . S
C3492 C3495 1.526 . S
C3493 H3477 0.959 . S
C3493 H3478 0.959 . S
C3493 H3479 0.961 . S
C3493 C3492 1.502 . S
C3494 H3480 0.960 . S
C3494 H3481 0.961 . S
C3494 H3482 0.959 . S
C3494 C3492 1.561 . S
C3495 C3492 1.526 . S
C3495 C3496 1.396 . S
C3495 C3500 1.390 . S
C3496 C3490 1.465 . S
C3496 C3495 1.396 . S
C3496 C3497 1.399 . S
C3497 H3483 0.929 . S
C3497 C3496 1.399 . S
C3497 C3498 1.385 . S
C3498 H3484 0.931 . S
C3498 C3497 1.385 . S
C3498 C3499 1.389 . S
C3499 C3498 1.389 . S
C3499 C3500 1.387 . S
C3500 H3485 0.930 . S
C3500 C3495 1.390 . S
C3500 C3499 1.387 . S
H3501 C3513 0.930 . S
H3502 C3515 0.930 . S
H3503 C3516 0.930 . S
H3504 C3520 0.959 . S
H3505 C3520 0.959 . S
H3506 C3520 0.961 . S
H3507 C3521 0.960 . S
H3508 C3521 0.961 . S
H3509 C3521 0.959 . S
H3510 C3524 0.929 . S
H3511 C3525 0.931 . S
H3512 C3527 0.930 . S
C3513 H3501 0.930 . S
C3513 C3514 1.399 . S
C3513 C3518 1.399 . S
C3514 C3513 1.399 . S
C3514 C3515 1.376 . S
C3515 H3502 0.930 . S
C3515 C3514 1.376 . S
C3515 C3516 1.388 . S
C3516 H3503 0.930 . S
C3516 C3515 1.388 . S
C3516 C3517 1.390 . S
C3517 C3516 1.390 . S
C3517 C3518 1.394 . S
C3517 C3523 1.465 . S
C3518 C3513 1.399 . S
C3518 C3517 1.394 . S
C3518 C3519 1.516 . S
C3519 C3518 1.516 . S
C3519 C3520 1.502 . S
C3519 C3521 1.561 . S
C3519 C3522 1.526 . S
C3520 H3504 0.959 . S
C3520 H3505 0.959 . S
C3520 H3506 0.961 . S
C3520 C3519 1.502 . S
C3521 H3507 0.960 . S
C3521 H3508 0.961 . S
C3521 H3509 0.959 . S
C3521 C3519 1.561 . S
C3522 C3519 1.526 . S
C3522 C3523 1.396 . S
C3522 C3527 1.390 . S
C3523 C3517 1.465 . S
C3523 C3522 1.396 . S
C3523 C3524 1.399 . S
C3524 H3510 0.929 . S
C3524 C3523 1.399 . S
C3524 C3525 1.385 . S
C3525 H3511 0.931 . S
C3525 C3524 1.385 . S
C3525 C3526 1.389 . S
C3526 C3525 1.389 . S
C3526 C3527 1.387 . S
C3527 H3512 0.930 . S
C3527 C3522 1.390 . S
C3527 C3526 1.387 . S
H3528 C3540 0.930 . S
H3529 C3542 0.930 . S
H3530 C3543 0.930 . S
H3531 C3547 0.959 . S
H3532 C3547 0.959 . S
H3533 C3547 0.961 . S
H3534 C3548 0.960 . S
H3535 C3548 0.961 . S
H3536 C3548 0.959 . S
H3537 C3551 0.929 . S
H3538 C3552 0.931 . S
H3539 C3554 0.930 . S
C3540 H3528 0.930 . S
C3540 C3541 1.399 . S
C3540 C3545 1.399 . S
C3541 C3540 1.399 . S
C3541 C3542 1.376 . S
C3542 H3529 0.930 . S
C3542 C3541 1.376 . S
C3542 C3543 1.388 . S
C3543 H3530 0.930 . S
C3543 C3542 1.388 . S
C3543 C3544 1.390 . S
C3544 C3543 1.390 . S
C3544 C3545 1.394 . S
C3544 C3550 1.465 . S
C3545 C3540 1.399 . S
C3545 C3544 1.394 . S
C3545 C3546 1.516 . S
C3546 C3545 1.516 . S
C3546 C3547 1.502 . S
C3546 C3548 1.561 . S
C3546 C3549 1.526 . S
C3547 H3531 0.959 . S
C3547 H3532 0.959 . S
C3547 H3533 0.961 . S
C3547 C3546 1.502 . S
C3548 H3534 0.960 . S
C3548 H3535 0.961 . S
C3548 H3536 0.959 . S
C3548 C3546 1.561 . S
C3549 C3546 1.526 . S
C3549 C3550 1.396 . S
C3549 C3554 1.390 . S
C3550 C3544 1.465 . S
C3550 C3549 1.396 . S
C3550 C3551 1.399 . S
C3551 H3537 0.929 . S
C3551 C3550 1.399 . S
C3551 C3552 1.385 . S
C3552 H3538 0.931 . S
C3552 C3551 1.385 . S
C3552 C3553 1.389 . S
C3553 C3552 1.389 . S
C3553 C3554 1.387 . S
C3554 H3539 0.930 . S
C3554 C3549 1.390 . S
C3554 C3553 1.387 . S
H3555 C3567 0.930 . S
H3556 C3569 0.930 . S
H3557 C3570 0.930 . S
H3558 C3574 0.959 . S
H3559 C3574 0.959 . S
H3560 C3574 0.961 . S
H3561 C3575 0.960 . S
H3562 C3575 0.961 . S
H3563 C3575 0.959 . S
H3564 C3578 0.929 . S
H3565 C3579 0.931 . S
H3566 C3581 0.930 . S
C3567 H3555 0.930 . S
C3567 C3568 1.399 . S
C3567 C3572 1.399 . S
C3568 C3567 1.399 . S
C3568 C3569 1.376 . S
C3569 H3556 0.930 . S
C3569 C3568 1.376 . S
C3569 C3570 1.388 . S
C3570 H3557 0.930 . S
C3570 C3569 1.388 . S
C3570 C3571 1.390 . S
C3571 C3570 1.390 . S
C3571 C3572 1.394 . S
C3571 C3577 1.465 . S
C3572 C3567 1.399 . S
C3572 C3571 1.394 . S
C3572 C3573 1.516 . S
C3573 C3572 1.516 . S
C3573 C3574 1.502 . S
C3573 C3575 1.561 . S
C3573 C3576 1.526 . S
C3574 H3558 0.959 . S
C3574 H3559 0.959 . S
C3574 H3560 0.961 . S
C3574 C3573 1.502 . S
C3575 H3561 0.960 . S
C3575 H3562 0.961 . S
C3575 H3563 0.959 . S
C3575 C3573 1.561 . S
C3576 C3573 1.526 . S
C3576 C3577 1.396 . S
C3576 C3581 1.390 . S
C3577 C3571 1.465 . S
C3577 C3576 1.396 . S
C3577 C3578 1.399 . S
C3578 H3564 0.929 . S
C3578 C3577 1.399 . S
C3578 C3579 1.385 . S
C3579 H3565 0.931 . S
C3579 C3578 1.385 . S
C3579 C3580 1.389 . S
C3580 C3579 1.389 . S
C3580 C3581 1.387 . S
C3581 H3566 0.930 . S
C3581 C3576 1.390 . S
C3581 C3580 1.387 . S
H3582 C3594 0.930 . S
H3583 C3596 0.930 . S
H3584 C3597 0.930 . S
H3585 C3601 0.959 . S
H3586 C3601 0.959 . S
H3587 C3601 0.961 1_455 S
H3588 C3602 0.960 . S
H3589 C3602 0.961 . S
H3590 C3602 0.959 . S
H3591 C3605 0.929 . S
H3592 C3606 0.931 . S
H3593 C3608 0.930 . S
C3594 H3582 0.930 . S
C3594 C3595 1.399 . S
C3594 C3599 1.399 . S
C3595 C3594 1.399 . S
C3595 C3596 1.376 . S
C3596 H3583 0.930 . S
C3596 C3595 1.376 . S
C3596 C3597 1.388 . S
C3597 H3584 0.930 . S
C3597 C3596 1.388 . S
C3597 C3598 1.390 . S
C3598 C3597 1.390 . S
C3598 C3599 1.394 . S
C3598 C3604 1.465 1_455 S
C3599 C3594 1.399 . S
C3599 C3598 1.394 . S
C3599 C3600 1.516 . S
C3600 C3599 1.516 . S
C3600 C3601 1.502 1_455 S
C3600 C3602 1.561 . S
C3600 C3603 1.526 1_455 S
C3601 H3585 0.959 . S
C3601 H3586 0.959 . S
C3601 H3587 0.961 1_655 S
C3601 C3600 1.502 1_655 S
C3602 H3588 0.960 . S
C3602 H3589 0.961 . S
C3602 H3590 0.959 . S
C3602 C3600 1.561 . S
C3603 C3600 1.526 1_655 S
C3603 C3604 1.396 . S
C3603 C3608 1.390 . S
C3604 C3598 1.465 1_655 S
C3604 C3603 1.396 . S
C3604 C3605 1.399 . S
C3605 H3591 0.929 . S
C3605 C3604 1.399 . S
C3605 C3606 1.385 . S
C3606 H3592 0.931 . S
C3606 C3605 1.385 . S
C3606 C3607 1.389 . S
C3607 C3606 1.389 . S
C3607 C3608 1.387 . S
C3608 H3593 0.930 . S
C3608 C3603 1.390 . S
C3608 C3607 1.387 . S
H3609 C3621 0.930 . S
H3610 C3623 0.930 . S
H3611 C3624 0.930 . S
H3612 C3628 0.959 . S
H3613 C3628 0.959 . S
H3614 C3628 0.961 . S
H3615 C3629 0.960 . S
H3616 C3629 0.961 . S
H3617 C3629 0.959 . S
H3618 C3632 0.929 . S
H3619 C3633 0.931 . S
H3620 C3635 0.930 . S
C3621 H3609 0.930 . S
C3621 C3622 1.399 . S
C3621 C3626 1.399 . S
C3622 C3621 1.399 . S
C3622 C3623 1.376 . S
C3623 H3610 0.930 . S
C3623 C3622 1.376 . S
C3623 C3624 1.388 . S
C3624 H3611 0.930 . S
C3624 C3623 1.388 . S
C3624 C3625 1.390 . S
C3625 C3624 1.390 . S
C3625 C3626 1.394 . S
C3625 C3631 1.465 . S
C3626 C3621 1.399 . S
C3626 C3625 1.394 . S
C3626 C3627 1.516 . S
C3627 C3626 1.516 . S
C3627 C3628 1.502 . S
C3627 C3629 1.561 . S
C3627 C3630 1.526 . S
C3628 H3612 0.959 . S
C3628 H3613 0.959 . S
C3628 H3614 0.961 . S
C3628 C3627 1.502 . S
C3629 H3615 0.960 . S
C3629 H3616 0.961 . S
C3629 H3617 0.959 . S
C3629 C3627 1.561 . S
C3630 C3627 1.526 . S
C3630 C3631 1.396 . S
C3630 C3635 1.390 . S
C3631 C3625 1.465 . S
C3631 C3630 1.396 . S
C3631 C3632 1.399 . S
C3632 H3618 0.929 . S
C3632 C3631 1.399 . S
C3632 C3633 1.385 . S
C3633 H3619 0.931 . S
C3633 C3632 1.385 . S
C3633 C3634 1.389 . S
C3634 C3633 1.389 . S
C3634 C3635 1.387 . S
C3635 H3620 0.930 . S
C3635 C3630 1.390 . S
C3635 C3634 1.387 . S
H3636 C3648 0.930 . S
H3637 C3650 0.930 . S
H3638 C3651 0.930 . S
H3639 C3655 0.959 . S
H3640 C3655 0.959 . S
H3641 C3655 0.961 1_545 S
H3642 C3656 0.960 . S
H3643 C3656 0.961 . S
H3644 C3656 0.959 . S
H3645 C3659 0.929 . S
H3646 C3660 0.931 . S
H3647 C3662 0.930 . S
C3648 H3636 0.930 . S
C3648 C3649 1.399 . S
C3648 C3653 1.399 . S
C3649 C3648 1.399 . S
C3649 C3650 1.376 . S
C3650 H3637 0.930 . S
C3650 C3649 1.376 . S
C3650 C3651 1.388 . S
C3651 H3638 0.930 . S
C3651 C3650 1.388 . S
C3651 C3652 1.390 . S
C3652 C3651 1.390 . S
C3652 C3653 1.394 . S
C3652 C3658 1.465 1_545 S
C3653 C3648 1.399 . S
C3653 C3652 1.394 . S
C3653 C3654 1.516 . S
C3654 C3653 1.516 . S
C3654 C3655 1.502 1_545 S
C3654 C3656 1.561 . S
C3654 C3657 1.526 1_545 S
C3655 H3639 0.959 . S
C3655 H3640 0.959 . S
C3655 H3641 0.961 1_565 S
C3655 C3654 1.502 1_565 S
C3656 H3642 0.960 . S
C3656 H3643 0.961 . S
C3656 H3644 0.959 . S
C3656 C3654 1.561 . S
C3657 C3654 1.526 1_565 S
C3657 C3658 1.396 . S
C3657 C3662 1.390 . S
C3658 C3652 1.465 1_565 S
C3658 C3657 1.396 . S
C3658 C3659 1.399 . S
C3659 H3645 0.929 . S
C3659 C3658 1.399 . S
C3659 C3660 1.385 . S
C3660 H3646 0.931 . S
C3660 C3659 1.385 . S
C3660 C3661 1.389 . S
C3661 C3660 1.389 . S
C3661 C3662 1.387 . S
C3662 H3647 0.930 . S
C3662 C3657 1.390 . S
C3662 C3661 1.387 . S
H3663 C3675 0.930 . S
H3664 C3677 0.930 . S
H3665 C3678 0.930 . S
H3666 C3682 0.959 . S
H3667 C3682 0.959 . S
H3668 C3682 0.961 . S
H3669 C3683 0.960 . S
H3670 C3683 0.961 . S
H3671 C3683 0.959 . S
H3672 C3686 0.929 . S
H3673 C3687 0.931 . S
H3674 C3689 0.930 . S
C3675 H3663 0.930 . S
C3675 C3676 1.399 . S
C3675 C3680 1.399 . S
C3676 C3675 1.399 . S
C3676 C3677 1.376 . S
C3677 H3664 0.930 . S
C3677 C3676 1.376 . S
C3677 C3678 1.388 . S
C3678 H3665 0.930 . S
C3678 C3677 1.388 . S
C3678 C3679 1.390 . S
C3679 C3678 1.390 . S
C3679 C3680 1.394 . S
C3679 C3685 1.465 1_545 S
C3680 C3675 1.399 . S
C3680 C3679 1.394 . S
C3680 C3681 1.516 1_545 S
C3681 C3680 1.516 1_565 S
C3681 C3682 1.502 . S
C3681 C3683 1.561 . S
C3681 C3684 1.526 . S
C3682 H3666 0.959 . S
C3682 H3667 0.959 . S
C3682 H3668 0.961 . S
C3682 C3681 1.502 . S
C3683 H3669 0.960 . S
C3683 H3670 0.961 . S
C3683 H3671 0.959 . S
C3683 C3681 1.561 . S
C3684 C3681 1.526 . S
C3684 C3685 1.396 . S
C3684 C3689 1.390 . S
C3685 C3679 1.465 1_565 S
C3685 C3684 1.396 . S
C3685 C3686 1.399 . S
C3686 H3672 0.929 . S
C3686 C3685 1.399 . S
C3686 C3687 1.385 . S
C3687 H3673 0.931 . S
C3687 C3686 1.385 . S
C3687 C3688 1.389 . S
C3688 C3687 1.389 . S
C3688 C3689 1.387 . S
C3689 H3674 0.930 . S
C3689 C3684 1.390 . S
C3689 C3688 1.387 . S
H3690 C3702 0.930 . S
H3691 C3704 0.930 . S
H3692 C3705 0.930 . S
H3693 C3709 0.959 . S
H3694 C3709 0.959 . S
H3695 C3709 0.961 . S
H3696 C3710 0.960 . S
H3697 C3710 0.961 . S
H3698 C3710 0.959 . S
H3699 C3713 0.929 . S
H3700 C3714 0.931 . S
H3701 C3716 0.930 . S
C3702 H3690 0.930 . S
C3702 C3703 1.399 . S
C3702 C3707 1.399 . S
C3703 C3702 1.399 . S
C3703 C3704 1.376 . S
C3704 H3691 0.930 . S
C3704 C3703 1.376 . S
C3704 C3705 1.388 . S
C3705 H3692 0.930 . S
C3705 C3704 1.388 . S
C3705 C3706 1.390 . S
C3706 C3705 1.390 . S
C3706 C3707 1.394 . S
C3706 C3712 1.465 1_455 S
C3707 C3702 1.399 . S
C3707 C3706 1.394 . S
C3707 C3708 1.516 . S
C3708 C3707 1.516 . S
C3708 C3709 1.502 . S
C3708 C3710 1.561 . S
C3708 C3711 1.526 1_455 S
C3709 H3693 0.959 . S
C3709 H3694 0.959 . S
C3709 H3695 0.961 . S
C3709 C3708 1.502 . S
C3710 H3696 0.960 . S
C3710 H3697 0.961 . S
C3710 H3698 0.959 . S
C3710 C3708 1.561 . S
C3711 C3708 1.526 1_655 S
C3711 C3712 1.396 . S
C3711 C3716 1.390 . S
C3712 C3706 1.465 1_655 S
C3712 C3711 1.396 . S
C3712 C3713 1.399 . S
C3713 H3699 0.929 . S
C3713 C3712 1.399 . S
C3713 C3714 1.385 . S
C3714 H3700 0.931 . S
C3714 C3713 1.385 . S
C3714 C3715 1.389 . S
C3715 C3714 1.389 . S
C3715 C3716 1.387 . S
C3716 H3701 0.930 . S
C3716 C3711 1.390 . S
C3716 C3715 1.387 . S
H3717 C3729 0.930 . S
H3718 C3731 0.930 . S
H3719 C3732 0.930 . S
H3720 C3736 0.959 . S
H3721 C3736 0.959 . S
H3722 C3736 0.961 . S
H3723 C3737 0.960 . S
H3724 C3737 0.961 . S
H3725 C3737 0.959 . S
H3726 C3740 0.929 . S
H3727 C3741 0.931 . S
H3728 C3743 0.930 . S
C3729 H3717 0.930 . S
C3729 C3730 1.399 . S
C3729 C3734 1.399 . S
C3730 C3729 1.399 . S
C3730 C3731 1.376 . S
C3731 H3718 0.930 . S
C3731 C3730 1.376 . S
C3731 C3732 1.388 . S
C3732 H3719 0.930 . S
C3732 C3731 1.388 . S
C3732 C3733 1.390 . S
C3733 C3732 1.390 . S
C3733 C3734 1.394 . S
C3733 C3739 1.465 . S
C3734 C3729 1.399 . S
C3734 C3733 1.394 . S
C3734 C3735 1.516 . S
C3735 C3734 1.516 . S
C3735 C3736 1.502 . S
C3735 C3737 1.561 . S
C3735 C3738 1.526 . S
C3736 H3720 0.959 . S
C3736 H3721 0.959 . S
C3736 H3722 0.961 . S
C3736 C3735 1.502 . S
C3737 H3723 0.960 . S
C3737 H3724 0.961 . S
C3737 H3725 0.959 . S
C3737 C3735 1.561 . S
C3738 C3735 1.526 . S
C3738 C3739 1.396 . S
C3738 C3743 1.390 . S
C3739 C3733 1.465 . S
C3739 C3738 1.396 . S
C3739 C3740 1.399 . S
C3740 H3726 0.929 . S
C3740 C3739 1.399 . S
C3740 C3741 1.385 . S
C3741 H3727 0.931 . S
C3741 C3740 1.385 . S
C3741 C3742 1.389 . S
C3742 C3741 1.389 . S
C3742 C3743 1.387 . S
C3743 H3728 0.930 . S
C3743 C3738 1.390 . S
C3743 C3742 1.387 . S
C841 C17 1.175 . S
C853 C181 1.162 . S
C868 C40 1.196 . S
C880 C204 1.118 . S
C895 C63 1.207 . S
C907 C158 1.082 . S
C922 C86 1.210 . S
C934 C273 1.045 . S
C949 C227 1.090 . S
C961 C109 1.173 . S
C976 C250 1.039 . S
C988 C132 1.208 . S
C1003 C43 1.048 . S
C1015 C155 1.207 . S
C1030 C178 1.162 . S
C1042 C66 1.158 . S
C1057 C201 1.210 . S
C1069 C20 1.042 . S
C1084 C135 1.143 . S
C1096 C224 1.169 . S
C1111 C247 1.203 . S
C1123 C89 1.059 . S
C1138 C270 1.153 . S
C1150 C112 1.178 . S
C1165 C293 1.153 . S
C1177 C457 1.174 . S
C1192 C316 1.172 . S
C1204 C480 1.094 . S
C1219 C434 1.047 . S
C1231 C339 1.210 . S
C1246 C549 1.180 . S
C1258 C362 1.158 . S
C1273 C503 1.052 . S
C1285 C385 1.192 . S
C1300 C408 1.154 . S
C1312 C526 1.176 . S
C1327 C319 1.089 . S
C1339 C431 1.191 . S
C1354 C342 1.048 . S
C1366 C454 1.207 . S
C1381 C296 1.173 . S
C1393 C477 1.156 . S
C1408 C411 1.040 . S
C1420 C500 1.210 . S
C1435 C523 1.156 . S
C1447 C365 1.171 . S
C1462 C388 1.088 . S
C1474 C546 1.191 . S
C1489 C569 1.184 . S
C1501 C733 1.146 . S
C1516 C756 1.169 . S
C1528 C592 1.172 . S
C1543 C615 1.153 . S
C1555 C710 1.171 . S
C1570 C638 1.211 . S
C1582 C825 1.048 . S
C1597 C779 1.132 . S
C1609 C661 1.159 . S
C1624 C802 1.125 . S
C1636 C684 1.161 . S
C1651 C707 1.209 . S
C1663 C595 1.046 . S
C1678 C730 1.210 . S
C1690 C618 1.042 . S
C1705 C753 1.177 . S
C1717 C572 1.124 . S
C1732 C687 1.104 . S
C1744 C776 1.185 . S
C1759 C641 1.067 . S
C1771 C799 1.200 . S
C1786 C664 1.086 . S
C1798 C822 1.192 . S
C1813 C19 1.160 . S
C1825 C64 1.175 . S
C1840 C42 1.035 . S
C1852 C18 1.210 . S
C1867 C41 1.124 . S
C1879 C65 1.053 . S
C1894 C110 1.134 . S
C1906 C88 1.034 . S
C1921 C111 1.026 . S
C1933 C133 1.207 . S
C1948 C87 1.113 . S
C1960 C134 1.116 . S
C1975 C157 1.131 . S
C1987 C202 1.116 . S
C2002 C180 1.029 . S
C2014 C156 1.214 . S
C2029 C203 1.042 . S
C2041 C179 1.157 . S
C2056 C248 1.136 . S
C2068 C226 1.163 . S
C2083 C249 1.038 . S
C2095 C271 1.213 . S
C2110 C225 1.164 . S
C2122 C272 1.140 . S
C2137 C340 1.114 . S
C2149 C295 1.122 . S
C2164 C318 1.013 . S
C2176 C294 1.150 . S
C2191 C341 1.007 . S
C2203 C317 1.193 . S
C2218 C364 1.162 . S
C2230 C386 1.138 . S
C2245 C409 1.153 . S
C2257 C387 1.012 . S
C2272 C410 1.103 . S
C2284 C363 1.210 . S
C2299 C433 1.004 . S
C2311 C478 1.192 . S
C2326 C456 1.161 . S
C2338 C432 1.117 . S
C2353 C455 1.213 . S
C2365 C479 1.011 . S
C2380 C524 1.184 . S
C2392 C502 1.012 . S
C2407 C525 1.130 . S
C2419 C547 1.116 . S
C2434 C548 1.066 . S
C2446 C501 1.142 . S
C2461 C616 1.193 . S
C2473 C571 1.142 . S
C2488 C594 1.001 . S
C2500 C570 1.172 . S
C2515 C617 1.166 . S
C2527 C593 1.153 . S
C2542 C662 1.116 . S
C2554 C640 1.128 . S
C2569 C663 1.164 . S
C2581 C685 1.166 . S
C2596 C686 1.134 . S
C2608 C639 1.198 . S
C2623 C709 1.076 . S
C2635 C754 1.203 . S
C2650 C732 1.110 . S
C2662 C708 1.122 . S
C2677 C731 1.212 . S
C2689 C755 1.008 . S
C2704 C800 1.214 . S
C2716 C778 1.014 . S
C2731 C823 1.158 . S
C2743 C801 1.041 . S
C2758 C777 1.152 . S
C2770 C824 1.049 . S
C2785 C108 1.615 . S
C2797 C16 1.605 . S
C2812 C131 1.648 . S
C2824 C39 1.597 . S
C2839 C85 1.595 . S
C2851 C62 1.635 . S
C2866 C246 1.599 . S
C2878 C154 1.635 . S
C2893 C269 1.661 . S
C2905 C177 1.637 . S
C2920 C200 1.633 . S
C2932 C223 1.660 . S
C2947 C384 1.641 . S
C2959 C292 1.652 . S
C2974 C407 1.647 . S
C2986 C315 1.597 . S
C3001 C338 1.595 . S
C3013 C361 1.635 . S
C3028 C522 1.658 1_554 S
C3040 C430 1.623 . S
C3055 C453 1.657 . S
C3067 C545 1.622 1_554 S
C3082 C499 1.633 1_554 S
C3094 C476 1.660 . S
C3109 C568 1.647 . S
C3121 C660 1.597 1_556 S
C3136 C683 1.610 1_556 S
C3148 C591 1.660 . S
C3163 C637 1.660 1_556 S
C3175 C614 1.623 . S
C3190 C798 1.599 . S
C3202 C706 1.636 . S
C3217 C821 1.657 . S
C3229 C729 1.651 . S
C3244 C775 1.626 . S
C3256 C752 1.597 . S
C3271 C688 1.094 . S
C3283 C21 1.192 . S
C3298 C44 1.102 . S
C3310 C642 1.186 . S
C3325 C67 1.185 . S
C3337 C665 1.106 . S
C3352 C90 1.140 . S
C3364 C320 1.153 . S
C3379 C113 1.149 . S
C3391 C343 1.121 . S
C3406 C136 1.093 . S
C3418 C297 1.177 . S
C3433 C550 1.189 . S
C3445 C159 1.073 . S
C3460 C504 1.169 . S
C3472 C182 1.164 . S
C3487 C527 1.202 . S
C3499 C205 1.079 . S
C3514 C228 1.119 . S
C3526 C734 1.199 . S
C3541 C251 1.206 . S
C3553 C757 1.088 . S
C3568 C711 1.107 . S
C3580 C274 1.203 . S
C3595 C596 1.128 . S
C3607 C366 1.164 . S
C3622 C619 1.072 . S
C3634 C389 1.205 . S
C3649 C412 1.126 . S
C3661 C573 1.166 . S
C3676 C435 1.126 . S
C3688 C826 1.195 . S
C3703 C780 1.150 . S
C3715 C458 1.086 . S
C3730 C803 1.182 . S
C3742 C481 1.073 . S
