# Generated by pormake.
# Topology unh, (4)-cn, num edge types: 1
# Building blocks:
#     Node 0, Type 0, BuildingBlock: KUFVIS_clean_sbu_0, # of connection points: 4
#     Node 1, Type 0, BuildingBlock: KUFVIS_clean_sbu_0, # of connection points: 4
#     Node 2, Type 0, BuildingBlock: KUFVIS_clean_sbu_0, # of connection points: 4
#     Node 3, Type 0, BuildingBlock: KUFVIS_clean_sbu_0, # of connection points: 4
#     Node 4, Type 0, BuildingBlock: KUFVIS_clean_sbu_0, # of connection points: 4
#     Node 5, Type 0, BuildingBlock: KUFVIS_clean_sbu_0, # of connection points: 4
#     Edge 6, Type (0, 0), BuildingBlock: FUNLAD_clean_linker_0, # of connection points: 2
#     Edge 7, Type (0, 0), BuildingBlock: FUNLAD_clean_linker_0, # of connection points: 2
#     Edge 8, Type (0, 0), BuildingBlock: FUNLAD_clean_linker_0, # of connection points: 2
#     Edge 9, Type (0, 0), BuildingBlock: FUNLAD_clean_linker_0, # of connection points: 2
#     Edge 10, Type (0, 0), BuildingBlock: FUNLAD_clean_linker_0, # of connection points: 2
#     Edge 11, Type (0, 0), BuildingBlock: FUNLAD_clean_linker_0, # of connection points: 2
#     Edge 12, Type (0, 0), BuildingBlock: FUNLAD_clean_linker_0, # of connection points: 2
#     Edge 13, Type (0, 0), BuildingBlock: FUNLAD_clean_linker_0, # of connection points: 2
#     Edge 14, Type (0, 0), BuildingBlock: FUNLAD_clean_linker_0, # of connection points: 2
#     Edge 15, Type (0, 0), BuildingBlock: FUNLAD_clean_linker_0, # of connection points: 2
#     Edge 16, Type (0, 0), BuildingBlock: FUNLAD_clean_linker_0, # of connection points: 2
#     Edge 17, Type (0, 0), BuildingBlock: FUNLAD_clean_linker_0, # of connection points: 2
# Relax obj value: 0.110
# Max RMSD: 0.223
# Mean RMSD: 0.223
data_MOF--net-unh--node1-KUFVIS_clean_sbu_0--edge1-FUNLAD_clean_linker_0
_symmetry_space_group_name_H-M    P1
_symmetry_Int_Tables_number       1
_symmetry_cell_setting            triclinic
loop_
_symmetry_equiv_pos_as_xyz
'x, y, z'
_cell_length_a     48.48591
_cell_length_b     48.425458
_cell_length_c     25.704397
_cell_angle_alpha  89.963585
_cell_angle_beta   90.068298
_cell_angle_gamma 119.99749
loop_
_atom_site_label
_atom_site_type_symbol
_atom_site_fract_x
_atom_site_fract_y
_atom_site_fract_z
_atom_type_partial_charge
Mn0 Mn 0.14434 0.58203 0.05547 0.0
Mn1 Mn 0.10976 0.62758 0.05051 0.0
C2 C 0.16281 0.62368 0.99767 0.0
C3 C 0.18068 0.57003 0.09281 0.0
C4 C 0.08124 0.56235 0.00039 0.0
O5 O 0.11901 0.57085 0.12201 0.0
O6 O 0.09855 0.60348 0.1175 0.0
C7 C 0.14619 0.67245 0.13543 0.0
N8 N 0.13674 0.66718 0.08474 0.0
C9 C 0.1664 0.72332 0.06569 0.0
C10 C 0.17626 0.72937 0.11779 0.0
C11 C 0.16614 0.70381 0.15277 0.0
C12 C 0.14635 0.69159 0.05074 0.0
H13 H 0.13862 0.65286 0.16239 0.0
C14 C 0.10264 0.58237 0.14082 0.0
O15 O 0.15544 0.54831 0.06912 0.0
O16 O 0.18464 0.59856 0.095 0.0
N17 N 0.11867 0.65245 0.98841 0.0
C18 C 0.10804 0.64247 0.93907 0.0
C19 C 0.11668 0.66507 0.89907 0.0
C20 C 0.13591 0.69767 0.91026 0.0
C21 C 0.14616 0.7074 0.96146 0.0
C22 C 0.13658 0.68381 -0.0002 0.0
H23 H 0.09335 0.61744 0.93017 0.0
O24 O 0.16881 0.60066 0.99057 0.0
O25 O 0.14681 0.62208 0.03934 0.0
O26 O 0.10345 0.55689 0.01343 0.0
O27 O 0.08094 0.58774 0.01298 0.0
C28 C 0.16597 0.73953 0.97578 0.0
C29 C 0.17611 0.74749 0.02785 0.0
H30 H 0.1918 0.75352 0.13125 0.0
H31 H 0.17379 0.70827 0.19297 0.0
H32 H 0.10865 0.65737 0.85966 0.0
H33 H 0.14277 0.71501 0.87921 0.0
H34 H 0.17384 0.75829 0.94695 0.0
H35 H 0.19163 0.77225 0.03826 0.0
Mn36 Mn 0.55514 0.13724 0.24035 0.0
Mn37 Mn 0.47548 0.10405 0.22811 0.0
C38 C 0.53449 0.15808 0.18196 0.0
C39 C 0.60269 0.17252 0.28109 0.0
C40 C 0.51291 0.07581 0.18001 0.0
O41 O 0.53841 0.11013 0.30503 0.0
O42 O 0.48568 0.09047 0.29532 0.0
C43 C 0.46474 0.13838 0.31383 0.0
N44 N 0.46225 0.13046 0.26253 0.0
C45 C 0.43731 0.16149 0.24287 0.0
C46 C 0.4394 0.16979 0.29556 0.0
C47 C 0.45321 0.15822 0.33117 0.0
C48 C 0.449 0.14145 0.22793 0.0
H49 H 0.47551 0.12969 0.34128 0.0
C50 C 0.50978 0.09342 0.32077 0.0
O51 O 0.59938 0.14749 0.25692 0.0
O52 O 0.57818 0.17655 0.28257 0.0
N53 N 0.46217 0.11529 0.16535 0.0
C54 C 0.46334 0.10627 0.11556 0.0
C55 C 0.45126 0.11659 0.07496 0.0
C56 C 0.43792 0.13585 0.08599 0.0
C57 C 0.4366 0.14447 0.1376 0.0
C58 C 0.44875 0.13324 0.17651 0.0
H59 H 0.47368 0.09158 0.10681 0.0
O60 O 0.56342 0.16355 0.17679 0.0
O61 O 0.51859 0.14096 0.22185 0.0
O62 O 0.54019 0.09731 0.19598 0.0
O63 O 0.48711 0.0758 0.19029 0.0
C64 C 0.42426 0.16426 0.15186 0.0
C65 C 0.42465 0.1728 0.20444 0.0
H66 H 0.43072 0.18526 0.30904 0.0
H67 H 0.45506 0.16466 0.37185 0.0
H68 H 0.45238 0.10985 0.03522 0.0
H69 H 0.42894 0.14404 0.0545 0.0
H70 H 0.4148 0.17339 0.1226 0.0
H71 H 0.41546 0.18835 0.21483 0.0
Mn72 Mn 0.42028 0.56351 0.39436 0.0
Mn73 Mn 0.36816 0.48439 0.39778 0.0
C74 C 0.37561 0.54274 0.34307 0.0
C75 C 0.4391 0.61358 0.43101 0.0
C76 C 0.43064 0.51381 0.33866 0.0
O77 O 0.43315 0.5487 0.45847 0.0
O78 O 0.3951 0.497 0.4619 0.0
C79 C 0.32903 0.48338 0.48683 0.0
N80 N 0.33124 0.47678 0.43601 0.0
C81 C 0.27491 0.45475 0.42331 0.0
C82 C 0.27198 0.46108 0.47562 0.0
C83 C 0.29917 0.47551 0.50747 0.0
C84 C 0.30525 0.46296 0.40499 0.0
H85 H 0.3499 0.49463 0.51136 0.0
C86 C 0.41964 0.52155 0.48058 0.0
O87 O 0.45749 0.60728 0.40278 0.0
O88 O 0.4099 0.59091 0.43745 0.0
N89 N 0.34041 0.46868 0.33877 0.0
C90 C 0.3475 0.46529 0.28872 0.0
C91 C 0.32302 0.45193 0.25152 0.0
C92 C 0.29151 0.44191 0.26623 0.0
C93 C 0.28472 0.44515 0.31814 0.0
C94 C 0.31006 0.45842 0.35359 0.0
H95 H 0.37167 0.47299 0.27714 0.0
O96 O 0.39984 0.57061 0.333 0.0
O97 O 0.37774 0.52826 0.38436 0.0
O98 O 0.43925 0.54286 0.34835 0.0
O99 O 0.40505 0.49023 0.35643 0.0
C100 C 0.2539 0.43628 0.3359 0.0
C101 C 0.24901 0.44111 0.38842 0.0
H102 H 0.24902 0.4552 0.49162 0.0
H103 H 0.29713 0.48063 0.54781 0.0
H104 H 0.32844 0.44947 0.21155 0.0
H105 H 0.27274 0.4319 0.23731 0.0
H106 H 0.23386 0.42606 0.30934 0.0
H107 H 0.22526 0.43453 0.40147 0.0
Mn108 Mn 0.85457 0.42153 0.55451 0.0
Mn109 Mn 0.88854 0.37544 0.55057 0.0
C110 C 0.83321 0.37729 0.50189 0.0
C111 C 0.82049 0.43582 0.59367 0.0
C112 C 0.9155 0.43905 0.49503 0.0
O113 O 0.88303 0.43541 0.61793 0.0
O114 O 0.90146 0.40097 0.61613 0.0
C115 C 0.85471 0.33246 0.63887 0.0
N116 N 0.86262 0.33662 0.5875 0.0
C117 C 0.83256 0.28009 0.57189 0.0
C118 C 0.82429 0.27518 0.62471 0.0
C119 C 0.83538 0.30149 0.65831 0.0
C120 C 0.85211 0.31148 0.55483 0.0
H121 H 0.86303 0.35263 0.66479 0.0
C122 C 0.89891 0.42351 0.63759 0.0
O123 O 0.84431 0.45599 0.56551 0.0
O124 O 0.81655 0.40741 0.59913 0.0
N125 N 0.87772 0.34925 0.48974 0.0
C126 C 0.88647 0.35817 0.43942 0.0
C127 C 0.87649 0.33472 0.40057 0.0
C128 C 0.85778 0.30237 0.41387 0.0
C129 C 0.84936 0.29375 0.46599 0.0
C130 C 0.86024 0.31815 0.50309 0.0
H131 H 0.90074 0.383 0.4289 0.0
O132 O 0.82698 0.40005 0.4935 0.0
O133 O 0.85118 0.38073 0.54186 0.0
O134 O 0.89322 0.44445 0.50739 0.0
O135 O 0.91657 0.41446 0.51026 0.0
C136 C 0.83009 0.26194 0.48243 0.0
C137 C 0.82168 0.25512 0.53533 0.0
H138 H 0.8092 0.25134 0.63979 0.0
H139 H 0.82895 0.29791 0.69907 0.0
H140 H 0.88306 0.34157 0.36042 0.0
H141 H 0.84987 0.28438 0.38372 0.0
H142 H 0.82126 0.24258 0.45459 0.0
H143 H 0.80652 0.2306 0.54738 0.0
Mn144 Mn 0.43721 0.85503 0.73188 0.0
Mn145 Mn 0.51664 0.88514 0.73723 0.0
C146 C 0.46105 0.83541 0.67768 0.0
C147 C 0.38645 0.81936 0.7618 0.0
C148 C 0.48589 0.91873 0.68371 0.0
O149 O 0.44934 0.87846 0.80052 0.0
O150 O 0.50204 0.89617 0.80258 0.0
C151 C 0.51854 0.84511 0.82269 0.0
N152 N 0.52523 0.8555 0.77257 0.0
C153 C 0.54839 0.82251 0.75595 0.0
C154 C 0.54195 0.81164 0.8075 0.0
C155 C 0.52694 0.82297 0.84098 0.0
C156 C 0.53974 0.84481 0.74005 0.0
H157 H 0.50679 0.85357 0.84846 0.0
C158 C 0.47644 0.89306 0.82278 0.0
O159 O 0.3925 0.84586 0.73941 0.0
O160 O 0.40992 0.81395 0.76743 0.0
N161 N 0.53366 0.87582 0.67691 0.0
C162 C 0.53661 0.88737 0.62762 0.0
C163 C 0.55032 0.87761 0.5889 0.0
C164 C 0.56092 0.85619 0.60126 0.0
C165 C 0.55788 0.84486 0.65235 0.0
C166 C 0.54432 0.85567 0.68944 0.0
H167 H 0.52831 0.90366 0.6178 0.0
O168 O 0.43336 0.83176 0.66606 0.0
O169 O 0.47377 0.85023 0.72099 0.0
O170 O 0.45717 0.89735 0.69285 0.0
O171 O 0.50995 0.91675 0.69894 0.0
C172 C 0.56718 0.82277 0.66769 0.0
C173 C 0.56244 0.8116 0.71944 0.0
H174 H 0.54816 0.79437 0.82165 0.0
H175 H 0.52173 0.81455 0.88073 0.0
H176 H 0.55252 0.88642 0.54954 0.0
H177 H 0.57116 0.84845 0.57116 0.0
H178 H 0.57765 0.81391 0.63983 0.0
H179 H 0.56933 0.79432 0.7306 0.0
Mn180 Mn 0.57519 0.43276 0.90267 0.0
Mn181 Mn 0.62379 0.51202 0.88912 0.0
C182 C 0.61622 0.45195 0.84368 0.0
C183 C 0.56235 0.38519 0.94403 0.0
C184 C 0.55719 0.4762 0.84358 0.0
O185 O 0.56653 0.45076 0.96759 0.0
O186 O 0.60146 0.50318 0.95741 0.0
C187 C 0.67002 0.52202 0.97254 0.0
N188 N 0.66375 0.52406 0.92147 0.0
C189 C 0.71895 0.54599 0.89875 0.0
C190 C 0.72602 0.54433 0.95117 0.0
C191 C 0.70144 0.53227 0.9882 0.0
C192 C 0.68723 0.53569 0.88552 0.0
H193 H 0.65116 0.51254 0.00109 0.0
C194 C 0.57995 0.47957 0.98332 0.0
O195 O 0.54066 0.38885 0.92048 0.0
O196 O 0.59109 0.40936 0.94459 0.0
N197 N 0.64701 0.52365 0.82507 0.0
C198 C 0.63596 0.52219 0.77579 0.0
C199 C 0.65742 0.53256 0.73393 0.0
C200 C 0.68999 0.54441 0.74318 0.0
C201 C 0.70084 0.54598 0.79428 0.0
C202 C 0.67839 0.53561 0.83449 0.0
H203 H 0.61092 0.51293 0.76841 0.0
O204 O 0.59206 0.42335 0.83867 0.0
O205 O 0.61565 0.46828 0.88336 0.0
O206 O 0.55071 0.44854 0.85884 0.0
O207 O 0.58355 0.50153 0.85347 0.0
C208 C 0.73296 0.55686 0.80678 0.0
C209 C 0.74201 0.55686 0.85897 0.0
H210 H 0.75019 0.55199 0.96335 0.0
H211 H 0.70669 0.53075 0.02869 0.0
H212 H 0.64885 0.53125 0.69461 0.0
H213 H 0.70642 0.55206 0.71074 0.0
H214 H 0.75085 0.56493 0.77649 0.0
H215 H 0.76672 0.56493 0.86802 0.0
C216 C 0.05568 0.51149 0.94898 0.0
C217 C 0.05573 0.53917 0.96569 0.0
C218 C 0.03382 0.49153 0.91171 0.0
C219 C 0.01133 0.49855 0.89057 0.0
C220 C 0.01071 0.52572 0.90847 0.0
C221 C 0.03255 0.54567 0.94575 0.0
C222 C 0.99111 0.47879 0.8467 0.0
C223 C 0.96395 0.47781 0.83202 0.0
C224 C 0.94648 0.46213 0.78349 0.0
C225 C 0.94868 0.43725 0.75919 0.0
C226 C 0.93312 0.42456 0.71196 0.0
C227 C 0.91495 0.43635 0.68816 0.0
H228 H 0.92519 0.4921 0.77856 0.0
C229 C 0.91205 0.46055 0.71337 0.0
C230 C 0.92752 0.47314 0.76053 0.0
H231 H 0.898 0.47003 0.69658 0.0
H232 H 0.07315 0.50567 0.96348 0.0
H233 H 0.03497 0.47088 0.89847 0.0
H234 H 0.99448 0.53266 0.89232 0.0
H235 H 0.03196 0.56685 0.95744 0.0
H236 H -5e-05 0.46576 0.82457 0.0
H237 H 0.95504 0.4907 0.85439 0.0
H238 H 0.96215 0.4273 0.77645 0.0
H239 H 0.93547 0.40559 0.69409 0.0
C240 C 0.50786 0.92589 0.89951 0.0
C241 C 0.47842 0.9078 0.87417 0.0
C242 C 0.5098 0.94138 0.9464 0.0
C243 C 0.4823 0.93921 0.96881 0.0
C244 C 0.45276 0.91997 0.94473 0.0
C245 C 0.45081 0.90455 0.89788 0.0
C246 C 0.4833 0.95727 0.01613 0.0
C247 C 0.50911 0.98489 0.03035 0.0
C248 C 0.50884 0.00567 0.0726 0.0
C249 C 0.53791 0.02825 0.09486 0.0
C250 C 0.53914 0.05035 0.13103 0.0
C251 C 0.51125 0.05055 0.14542 0.0
H252 H 0.458 0.98909 0.07058 0.0
C253 C 0.48202 0.02748 0.12398 0.0
C254 C 0.4808 0.00537 0.08786 0.0
H255 H 0.46008 0.02703 0.13385 0.0
H256 H 0.52954 0.9285 0.88282 0.0
H257 H 0.53288 0.955 0.96469 0.0
H258 H 0.43116 0.91759 0.96139 0.0
H259 H 0.42764 0.89053 0.87989 0.0
H260 H 0.46124 0.94851 0.03765 0.0
H261 H 0.53125 0.99364 0.00908 0.0
H262 H 0.55988 0.02919 0.08354 0.0
H263 H 0.5621 0.06775 0.14668 0.0
C264 C 0.47828 0.53197 0.2808 0.0
C265 C 0.45055 0.50699 0.30319 0.0
C266 C 0.49581 0.52559 0.24454 0.0
C267 C 0.48607 0.49397 0.2301 0.0
C268 C 0.45873 0.46904 0.25324 0.0
C269 C 0.44122 0.47541 0.28945 0.0
C270 C 0.5021 0.48596 0.18842 0.0
C271 C 0.53189 0.50584 0.17138 0.0
C272 C 0.54575 0.49841 0.12569 0.0
C273 C 0.56878 0.52366 0.09577 0.0
C274 C 0.58047 0.51763 0.05011 0.0
C275 C 0.56946 0.48613 0.03359 0.0
H276 H 0.5193 0.44678 0.1338 0.0
C277 C 0.54756 0.46086 0.06498 0.0
C278 C 0.53596 0.4669 0.11064 0.0
H279 H 0.53904 0.43629 0.05407 0.0
H280 H 0.48611 0.5566 0.29026 0.0
H281 H 0.51618 0.54564 0.22678 0.0
H282 H 0.45056 0.44447 0.24266 0.0
H283 H 0.41999 0.45552 0.30581 0.0
H284 H 0.48801 0.46286 0.17 0.0
H285 H 0.5461 0.52912 0.18911 0.0
H286 H 0.57703 0.54816 0.10686 0.0
H287 H 0.59757 0.5377 0.02721 0.0
C288 C 0.93997 0.48889 0.44128 0.0
C289 C 0.9406 0.46179 0.45939 0.0
C290 C 0.96216 0.50914 0.40476 0.0
C291 C 0.98569 0.50302 0.38581 0.0
C292 C 0.98678 0.47626 0.40462 0.0
C293 C 0.96453 0.45595 0.44113 0.0
C294 C 0.00678 0.52346 0.34339 0.0
C295 C 0.03523 0.52631 0.33233 0.0
C296 C 0.05402 0.54311 0.28545 0.0
C297 C 0.05116 0.56741 0.26029 0.0
C298 C 0.06743 0.58065 0.21385 0.0
C299 C 0.08701 0.57004 0.19176 0.0
H300 H 0.07764 0.51524 0.28353 0.0
C301 C 0.09093 0.54681 0.2183 0.0
C302 C 0.07472 0.53363 0.26467 0.0
H303 H 0.1061 0.53828 0.20286 0.0
H304 H 0.92192 0.49421 0.45445 0.0
H305 H 0.96063 0.52943 0.39067 0.0
H306 H 0.00387 0.47007 0.38992 0.0
H307 H 0.96561 0.43519 0.45392 0.0
H308 H -0.00229 0.53565 0.3195 0.0
H309 H 0.04428 0.51416 0.35637 0.0
H310 H 0.03641 0.57629 0.27608 0.0
H311 H 0.06428 0.59889 0.19496 0.0
C312 C 0.52974 0.07725 0.39838 0.0
C313 C 0.5041 0.07578 0.37039 0.0
C314 C 0.52441 0.05909 0.44334 0.0
C315 C 0.49323 0.03916 0.4617 0.0
C316 C 0.46768 0.03817 0.4343 0.0
C317 C 0.47301 0.05634 0.38929 0.0
C318 C 0.48618 0.01715 0.50641 0.0
C319 C 0.50777 0.02079 0.54286 0.0
C320 C 0.50164 0.99614 0.58264 0.0
C321 C 0.52748 0.99379 0.60192 0.0
C322 C 0.52252 0.96917 0.63584 0.0
C323 C 0.49153 0.94649 0.65156 0.0
H324 H 0.45038 0.9762 0.5881 0.0
C325 C 0.46581 0.94984 0.63433 0.0
C326 C 0.47079 0.97444 0.6004 0.0
H327 H 0.44166 0.93315 0.64631 0.0
H328 H 0.55402 0.09186 0.38494 0.0
H329 H 0.54479 0.05997 0.4621 0.0
H330 H 0.44341 0.02288 0.44732 0.0
H331 H 0.45267 0.05464 0.36884 0.0
H332 H 0.46245 0.99642 0.50771 0.0
H333 H 0.53155 0.04141 0.54173 0.0
H334 H 0.55153 0.0104 0.58932 0.0
H335 H 0.54294 0.96751 0.6486 0.0
C336 C 0.53871 0.50913 0.79583 0.0
C337 C 0.53367 0.47898 0.81046 0.0
C338 C 0.51805 0.51184 0.7611 0.0
C339 C 0.49208 0.48442 0.73958 0.0
C340 C 0.48609 0.45433 0.75626 0.0
C341 C 0.50669 0.45159 0.79122 0.0
C342 C 0.47143 0.48632 0.69864 0.0
C343 C 0.4822 0.51086 0.66494 0.0
C344 C 0.46365 0.5127 0.62039 0.0
C345 C 0.47453 0.54247 0.59673 0.0
C346 C 0.45976 0.54536 0.55221 0.0
C347 C 0.43373 0.51841 0.52985 0.0
H348 H 0.42836 0.46219 0.61501 0.0
C349 C 0.42229 0.48862 0.55409 0.0
C350 C 0.43714 0.48572 0.59883 0.0
H351 H 0.40235 0.46736 0.53785 0.0
H352 H 0.55889 0.53074 0.81062 0.0
H353 H 0.5227 0.53549 0.7511 0.0
H354 H 0.46602 0.43283 0.74084 0.0
H355 H 0.5019 0.42796 0.80194 0.0
H356 H 0.44754 0.46612 0.69462 0.0
H357 H 0.50637 0.53063 0.66897 0.0
H358 H 0.49491 0.56363 0.61234 0.0
H359 H 0.46919 0.56876 0.53489 0.0
C360 C 0.19583 0.53151 0.12943 0.0
C361 C 0.20418 0.56289 0.11607 0.0
C362 C 0.21821 0.5252 0.1527 0.0
C363 C 0.24939 0.55016 0.16204 0.0
C364 C 0.25784 0.5813 0.14742 0.0
C365 C 0.23537 0.5877 0.12529 0.0
C366 C 0.27388 0.54475 0.18653 0.0
C367 C 0.26743 0.52353 0.22501 0.0
C368 C 0.2935 0.52326 0.25459 0.0
C369 C 0.29165 0.52101 0.30904 0.0
C370 C 0.31809 0.52593 0.33822 0.0
C371 C 0.34624 0.53197 0.31316 0.0
H372 H 0.32325 0.5295 0.18755 0.0
C373 C 0.34764 0.53285 0.2587 0.0
C374 C 0.32138 0.5282 0.22957 0.0
H375 H 0.36937 0.53797 0.23877 0.0
H376 H 0.17192 0.51196 0.12257 0.0
H377 H 0.21123 0.50085 0.16273 0.0
H378 H 0.28179 0.60088 0.15401 0.0
H379 H 0.24251 0.61207 0.11498 0.0
H380 H 0.29856 0.56135 0.17651 0.0
H381 H 0.24322 0.50929 0.23938 0.0
H382 H 0.27043 0.5173 0.32911 0.0
H383 H 0.31697 0.52629 0.38029 0.0
C384 C 0.65785 0.18934 0.31268 0.0
C385 C 0.63345 0.19643 0.30367 0.0
C386 C 0.68726 0.21267 0.3326 0.0
C387 C 0.69278 0.24353 0.343 0.0
C388 C 0.66846 0.25055 0.33353 0.0
C389 C 0.63898 0.22717 0.31466 0.0
C390 C 0.72368 0.26934 0.36258 0.0
C391 C 0.7422 0.2645 0.39606 0.0
C392 C 0.76966 0.29187 0.42147 0.0
C393 C 0.77378 0.29118 0.47537 0.0
C394 C 0.79575 0.31881 0.50158 0.0
C395 C 0.81471 0.34709 0.47391 0.0
H396 H 0.78724 0.32087 0.3518 0.0
C397 C 0.81177 0.34735 0.41972 0.0
C398 C 0.78962 0.31987 0.39357 0.0
H399 H 0.82592 0.3691 0.39784 0.0
H400 H 0.65422 0.16583 0.30429 0.0
H401 H 0.7058 0.20674 0.33871 0.0
H402 H 0.67221 0.27421 0.3411 0.0
H403 H 0.62073 0.23342 0.30769 0.0
H404 H 0.72972 0.29364 0.3533 0.0
H405 H 0.73468 0.24064 0.41027 0.0
H406 H 0.75859 0.26989 0.49763 0.0
H407 H 0.79689 0.31847 0.54365 0.0
C408 C 0.47168 0.81384 0.59711 0.0
C409 C 0.47142 0.81524 0.65154 0.0
C410 C 0.47596 0.79057 0.57231 0.0
C411 C 0.47947 0.76798 0.60182 0.0
C412 C 0.48013 0.77017 0.65629 0.0
C413 C 0.47592 0.79344 0.68093 0.0
C414 C 0.47726 0.73905 0.57802 0.0
C415 C 0.48197 0.73611 0.52724 0.0
C416 C 0.47188 0.7045 0.50387 0.0
C417 C 0.48941 0.70154 0.46303 0.0
C418 C 0.47916 0.67185 0.43962 0.0
C419 C 0.45076 0.64492 0.45587 0.0
H420 H 0.42892 0.67915 0.55032 0.0
C421 C 0.43307 0.64807 0.49622 0.0
C422 C 0.44353 0.67748 0.52005 0.0
H423 H 0.41104 0.62778 0.50949 0.0
H424 H 0.46745 0.83004 0.57387 0.0
H425 H 0.47445 0.78922 0.53033 0.0
H426 H 0.48237 0.75288 0.67998 0.0
H427 H 0.47464 0.79341 0.72302 0.0
H428 H 0.46953 0.71844 0.60325 0.0
H429 H 0.49256 0.75684 0.50196 0.0
H430 H 0.51108 0.72215 0.44945 0.0
H431 H 0.49315 0.67008 0.40833 0.0
C432 C 0.64535 0.45672 0.76159 0.0
C433 C 0.64566 0.46031 0.81568 0.0
C434 C 0.67224 0.46001 0.73602 0.0
C435 C 0.69959 0.46625 0.76455 0.0
C436 C 0.69986 0.47028 0.81862 0.0
C437 C 0.67309 0.46723 0.844 0.0
C438 C 0.72626 0.46424 0.74054 0.0
C439 C 0.73343 0.46889 0.68964 0.0
C440 C 0.7565 0.46101 0.66622 0.0
C441 C 0.75773 0.43391 0.68251 0.0
C442 C 0.77855 0.42581 0.65881 0.0
C443 C 0.79872 0.44473 0.61865 0.0
H444 H 0.77541 0.5004 0.61193 0.0
C445 C 0.79757 0.47184 0.60231 0.0
C446 C 0.77628 0.47966 0.62551 0.0
H447 H 0.81273 0.48671 0.57111 0.0
H448 H 0.62403 0.45056 0.73938 0.0
H449 H 0.67079 0.45581 0.69451 0.0
H450 H 0.72043 0.47466 0.84155 0.0
H451 H 0.67337 0.46899 0.88604 0.0
H452 H 0.74004 0.45765 0.76585 0.0
H453 H 0.72223 0.47851 0.66453 0.0
H454 H 0.74209 0.41851 0.71281 0.0
H455 H 0.77884 0.40471 0.67205 0.0
C456 C 0.33124 0.80462 0.78989 0.0
C457 C 0.3542 0.79578 0.77941 0.0
C458 C 0.30111 0.78202 0.80846 0.0
C459 C 0.29347 0.75019 0.81587 0.0
C460 C 0.31612 0.74129 0.80361 0.0
C461 C 0.3463 0.7639 0.7862 0.0
C462 C 0.26253 0.72557 0.83724 0.0
C463 C 0.24696 0.73162 0.87479 0.0
C464 C 0.22107 0.70529 0.90473 0.0
C465 C 0.22011 0.70833 0.95888 0.0
C466 C 0.1999 0.68194 0.98926 0.0
C467 C 0.17962 0.65248 0.9657 0.0
H468 H 0.1994 0.67323 0.83924 0.0
C469 C 0.17939 0.64979 0.91142 0.0
C470 C 0.19966 0.67609 0.88104 0.0
H471 H 0.16411 0.6271 0.89267 0.0
H472 H 0.33675 0.82906 0.78469 0.0
H473 H 0.28386 0.78942 0.81674 0.0
H474 H 0.31072 0.71687 0.8088 0.0
H475 H 0.36343 0.75634 0.77789 0.0
H476 H 0.25479 0.70097 0.827 0.0
H477 H 0.25655 0.7558 0.88924 0.0
H478 H 0.2364 0.73056 0.978 0.0
H479 H 0.20113 0.68419 0.03125 0.0
C480 C 0.5239 0.33041 0.97731 0.0
C481 C 0.55533 0.35446 0.96701 0.0
C482 C 0.51779 0.30119 -0.00168 0.0
C483 C 0.54305 0.29554 0.00856 0.0
C484 C 0.57431 0.31944 0.99749 0.0
C485 C 0.58044 0.34871 0.9775 0.0
C486 C 0.53801 0.26505 0.03022 0.0
C487 C 0.51516 0.24762 0.06508 0.0
C488 C 0.5153 0.22099 0.09318 0.0
C489 C 0.50957 0.21788 0.14692 0.0
C490 C 0.51462 0.19635 0.17577 0.0
C491 C 0.52431 0.17682 0.15095 0.0
H492 H 0.52802 0.20215 0.02654 0.0
C493 C 0.52879 0.17897 0.09695 0.0
C494 C 0.52399 0.20064 0.06813 0.0
H495 H 0.53669 0.16437 0.07728 0.0
H496 H 0.50411 0.3342 0.96928 0.0
H497 H 0.49336 0.28295 0.00563 0.0
H498 H 0.59415 0.31559 0.00488 0.0
H499 H 0.6049 0.36667 0.96951 0.0
H500 H 0.5561 0.25871 0.02159 0.0
H501 H 0.49906 0.25565 0.07835 0.0
H502 H 0.50296 0.23337 0.16704 0.0
H503 H 0.51214 0.1958 0.2177 0.0
loop_
_geom_bond_atom_site_label_1
_geom_bond_atom_site_label_2
_geom_bond_distance
_geom_bond_site_symmetry_2
_ccdc_geom_bond_type
Mn0 O5 2.095 . S
Mn0 O15 2.162 . S
Mn0 O16 2.297 . S
Mn0 O24 2.385 . S
Mn0 O25 2.209 . S
Mn0 O26 2.094 . S
Mn1 O6 2.121 . S
Mn1 N8 2.257 . S
Mn1 N17 2.282 1_554 S
Mn1 O25 2.215 . S
Mn1 O27 2.117 . S
C2 O24 1.234 . S
C2 O25 1.283 . S
C3 O15 1.281 . S
C3 O16 1.236 . S
C4 O26 1.240 1_556 S
C4 O27 1.264 1_556 S
O5 Mn0 2.095 . S
O5 C14 1.250 . S
O6 Mn1 2.121 . S
O6 C14 1.258 . S
C7 N8 1.326 . S
C7 C11 1.460 . S
C7 H13 0.929 . S
N8 Mn1 2.257 . S
N8 C7 1.326 . S
N8 C12 1.362 . S
C9 C10 1.258 . S
C9 C12 1.431 . S
C9 C29 1.449 . S
C10 C9 1.258 . S
C10 C11 1.477 . S
C10 H30 0.931 . S
C11 C7 1.460 . S
C11 C10 1.477 . S
C11 H31 0.930 . S
C12 N8 1.362 . S
C12 C9 1.431 . S
C12 C22 1.476 1_554 S
H13 C7 0.929 . S
C14 O5 1.250 . S
C14 O6 1.258 . S
O15 Mn0 2.162 . S
O15 C3 1.281 . S
O16 Mn0 2.297 . S
O16 C3 1.236 . S
N17 Mn1 2.282 1_556 S
N17 C18 1.328 . S
N17 C22 1.318 . S
C18 N17 1.328 . S
C18 C19 1.457 . S
C18 H23 0.929 . S
C19 C18 1.457 . S
C19 C20 1.291 . S
C19 H32 0.931 . S
C20 C19 1.291 . S
C20 C21 1.373 . S
C20 H33 0.929 . S
C21 C20 1.373 . S
C21 C22 1.396 . S
C21 C28 1.403 . S
C22 C12 1.476 1_556 S
C22 N17 1.318 . S
C22 C21 1.396 . S
H23 C18 0.929 . S
O24 Mn0 2.385 . S
O24 C2 1.234 . S
O25 Mn0 2.209 . S
O25 Mn1 2.215 . S
O25 C2 1.283 . S
O26 Mn0 2.094 . S
O26 C4 1.240 1_554 S
O27 Mn1 2.117 . S
O27 C4 1.264 1_554 S
C28 C21 1.403 . S
C28 C29 1.399 1_556 S
C28 H34 0.929 . S
C29 C9 1.449 . S
C29 C28 1.399 1_554 S
C29 H35 0.930 . S
H30 C10 0.931 . S
H31 C11 0.930 . S
H32 C19 0.931 . S
H33 C20 0.929 . S
H34 C28 0.929 . S
H35 C29 0.930 . S
Mn36 O41 2.095 . S
Mn36 O51 2.162 . S
Mn36 O52 2.297 . S
Mn36 O60 2.385 . S
Mn36 O61 2.209 . S
Mn36 O62 2.094 . S
Mn37 O42 2.121 . S
Mn37 N44 2.257 . S
Mn37 N53 2.282 . S
Mn37 O61 2.215 . S
Mn37 O63 2.117 . S
C38 O60 1.234 . S
C38 O61 1.283 . S
C39 O51 1.281 . S
C39 O52 1.236 . S
C40 O62 1.240 . S
C40 O63 1.264 . S
O41 Mn36 2.095 . S
O41 C50 1.250 . S
O42 Mn37 2.121 . S
O42 C50 1.258 . S
C43 N44 1.326 . S
C43 C47 1.460 . S
C43 H49 0.929 . S
N44 Mn37 2.257 . S
N44 C43 1.326 . S
N44 C48 1.362 . S
C45 C46 1.258 . S
C45 C48 1.431 . S
C45 C65 1.449 . S
C46 C45 1.258 . S
C46 C47 1.477 . S
C46 H66 0.931 . S
C47 C43 1.460 . S
C47 C46 1.477 . S
C47 H67 0.930 . S
C48 N44 1.362 . S
C48 C45 1.431 . S
C48 C58 1.476 . S
H49 C43 0.929 . S
C50 O41 1.250 . S
C50 O42 1.258 . S
O51 Mn36 2.162 . S
O51 C39 1.281 . S
O52 Mn36 2.297 . S
O52 C39 1.236 . S
N53 Mn37 2.282 . S
N53 C54 1.328 . S
N53 C58 1.318 . S
C54 N53 1.328 . S
C54 C55 1.457 . S
C54 H59 0.929 . S
C55 C54 1.457 . S
C55 C56 1.291 . S
C55 H68 0.931 . S
C56 C55 1.291 . S
C56 C57 1.373 . S
C56 H69 0.929 . S
C57 C56 1.373 . S
C57 C58 1.396 . S
C57 C64 1.403 . S
C58 C48 1.476 . S
C58 N53 1.318 . S
C58 C57 1.396 . S
H59 C54 0.929 . S
O60 Mn36 2.385 . S
O60 C38 1.234 . S
O61 Mn36 2.209 . S
O61 Mn37 2.215 . S
O61 C38 1.283 . S
O62 Mn36 2.094 . S
O62 C40 1.240 . S
O63 Mn37 2.117 . S
O63 C40 1.264 . S
C64 C57 1.403 . S
C64 C65 1.399 . S
C64 H70 0.929 . S
C65 C45 1.449 . S
C65 C64 1.399 . S
C65 H71 0.930 . S
H66 C46 0.931 . S
H67 C47 0.930 . S
H68 C55 0.931 . S
H69 C56 0.929 . S
H70 C64 0.929 . S
H71 C65 0.930 . S
Mn72 O77 2.095 . S
Mn72 O87 2.162 . S
Mn72 O88 2.297 . S
Mn72 O96 2.385 . S
Mn72 O97 2.209 . S
Mn72 O98 2.094 . S
Mn73 O78 2.121 . S
Mn73 N80 2.257 . S
Mn73 N89 2.282 . S
Mn73 O97 2.215 . S
Mn73 O99 2.117 . S
C74 O96 1.234 . S
C74 O97 1.283 . S
C75 O87 1.281 . S
C75 O88 1.236 . S
C76 O98 1.240 . S
C76 O99 1.264 . S
O77 Mn72 2.095 . S
O77 C86 1.250 . S
O78 Mn73 2.121 . S
O78 C86 1.258 . S
C79 N80 1.326 . S
C79 C83 1.460 . S
C79 H85 0.929 . S
N80 Mn73 2.257 . S
N80 C79 1.326 . S
N80 C84 1.362 . S
C81 C82 1.258 . S
C81 C84 1.431 . S
C81 C101 1.449 . S
C82 C81 1.258 . S
C82 C83 1.477 . S
C82 H102 0.931 . S
C83 C79 1.460 . S
C83 C82 1.477 . S
C83 H103 0.930 . S
C84 N80 1.362 . S
C84 C81 1.431 . S
C84 C94 1.476 . S
H85 C79 0.929 . S
C86 O77 1.250 . S
C86 O78 1.258 . S
O87 Mn72 2.162 . S
O87 C75 1.281 . S
O88 Mn72 2.297 . S
O88 C75 1.236 . S
N89 Mn73 2.282 . S
N89 C90 1.328 . S
N89 C94 1.318 . S
C90 N89 1.328 . S
C90 C91 1.457 . S
C90 H95 0.929 . S
C91 C90 1.457 . S
C91 C92 1.291 . S
C91 H104 0.931 . S
C92 C91 1.291 . S
C92 C93 1.373 . S
C92 H105 0.929 . S
C93 C92 1.373 . S
C93 C94 1.396 . S
C93 C100 1.403 . S
C94 C84 1.476 . S
C94 N89 1.318 . S
C94 C93 1.396 . S
H95 C90 0.929 . S
O96 Mn72 2.385 . S
O96 C74 1.234 . S
O97 Mn72 2.209 . S
O97 Mn73 2.215 . S
O97 C74 1.283 . S
O98 Mn72 2.094 . S
O98 C76 1.240 . S
O99 Mn73 2.117 . S
O99 C76 1.264 . S
C100 C93 1.403 . S
C100 C101 1.399 . S
C100 H106 0.929 . S
C101 C81 1.449 . S
C101 C100 1.399 . S
C101 H107 0.930 . S
H102 C82 0.931 . S
H103 C83 0.930 . S
H104 C91 0.931 . S
H105 C92 0.929 . S
H106 C100 0.929 . S
H107 C101 0.930 . S
Mn108 O113 2.095 . S
Mn108 O123 2.162 . S
Mn108 O124 2.297 . S
Mn108 O132 2.385 . S
Mn108 O133 2.209 . S
Mn108 O134 2.094 . S
Mn109 O114 2.121 . S
Mn109 N116 2.257 . S
Mn109 N125 2.282 . S
Mn109 O133 2.215 . S
Mn109 O135 2.117 . S
C110 O132 1.234 . S
C110 O133 1.283 . S
C111 O123 1.281 . S
C111 O124 1.236 . S
C112 O134 1.240 . S
C112 O135 1.264 . S
O113 Mn108 2.095 . S
O113 C122 1.250 . S
O114 Mn109 2.121 . S
O114 C122 1.258 . S
C115 N116 1.326 . S
C115 C119 1.460 . S
C115 H121 0.929 . S
N116 Mn109 2.257 . S
N116 C115 1.326 . S
N116 C120 1.362 . S
C117 C118 1.258 . S
C117 C120 1.431 . S
C117 C137 1.449 . S
C118 C117 1.258 . S
C118 C119 1.477 . S
C118 H138 0.931 . S
C119 C115 1.460 . S
C119 C118 1.477 . S
C119 H139 0.930 . S
C120 N116 1.362 . S
C120 C117 1.431 . S
C120 C130 1.476 . S
H121 C115 0.929 . S
C122 O113 1.250 . S
C122 O114 1.258 . S
O123 Mn108 2.162 . S
O123 C111 1.281 . S
O124 Mn108 2.297 . S
O124 C111 1.236 . S
N125 Mn109 2.282 . S
N125 C126 1.328 . S
N125 C130 1.318 . S
C126 N125 1.328 . S
C126 C127 1.457 . S
C126 H131 0.929 . S
C127 C126 1.457 . S
C127 C128 1.291 . S
C127 H140 0.931 . S
C128 C127 1.291 . S
C128 C129 1.373 . S
C128 H141 0.929 . S
C129 C128 1.373 . S
C129 C130 1.396 . S
C129 C136 1.403 . S
C130 C120 1.476 . S
C130 N125 1.318 . S
C130 C129 1.396 . S
H131 C126 0.929 . S
O132 Mn108 2.385 . S
O132 C110 1.234 . S
O133 Mn108 2.209 . S
O133 Mn109 2.215 . S
O133 C110 1.283 . S
O134 Mn108 2.094 . S
O134 C112 1.240 . S
O135 Mn109 2.117 . S
O135 C112 1.264 . S
C136 C129 1.403 . S
C136 C137 1.399 . S
C136 H142 0.929 . S
C137 C117 1.449 . S
C137 C136 1.399 . S
C137 H143 0.930 . S
H138 C118 0.931 . S
H139 C119 0.930 . S
H140 C127 0.931 . S
H141 C128 0.929 . S
H142 C136 0.929 . S
H143 C137 0.930 . S
Mn144 O149 2.095 . S
Mn144 O159 2.162 . S
Mn144 O160 2.297 . S
Mn144 O168 2.385 . S
Mn144 O169 2.209 . S
Mn144 O170 2.094 . S
Mn145 O150 2.121 . S
Mn145 N152 2.257 . S
Mn145 N161 2.282 . S
Mn145 O169 2.215 . S
Mn145 O171 2.117 . S
C146 O168 1.234 . S
C146 O169 1.283 . S
C147 O159 1.281 . S
C147 O160 1.236 . S
C148 O170 1.240 . S
C148 O171 1.264 . S
O149 Mn144 2.095 . S
O149 C158 1.250 . S
O150 Mn145 2.121 . S
O150 C158 1.258 . S
C151 N152 1.326 . S
C151 C155 1.460 . S
C151 H157 0.929 . S
N152 Mn145 2.257 . S
N152 C151 1.326 . S
N152 C156 1.362 . S
C153 C154 1.258 . S
C153 C156 1.431 . S
C153 C173 1.449 . S
C154 C153 1.258 . S
C154 C155 1.477 . S
C154 H174 0.931 . S
C155 C151 1.460 . S
C155 C154 1.477 . S
C155 H175 0.930 . S
C156 N152 1.362 . S
C156 C153 1.431 . S
C156 C166 1.476 . S
H157 C151 0.929 . S
C158 O149 1.250 . S
C158 O150 1.258 . S
O159 Mn144 2.162 . S
O159 C147 1.281 . S
O160 Mn144 2.297 . S
O160 C147 1.236 . S
N161 Mn145 2.282 . S
N161 C162 1.328 . S
N161 C166 1.318 . S
C162 N161 1.328 . S
C162 C163 1.457 . S
C162 H167 0.929 . S
C163 C162 1.457 . S
C163 C164 1.291 . S
C163 H176 0.931 . S
C164 C163 1.291 . S
C164 C165 1.373 . S
C164 H177 0.929 . S
C165 C164 1.373 . S
C165 C166 1.396 . S
C165 C172 1.403 . S
C166 C156 1.476 . S
C166 N161 1.318 . S
C166 C165 1.396 . S
H167 C162 0.929 . S
O168 Mn144 2.385 . S
O168 C146 1.234 . S
O169 Mn144 2.209 . S
O169 Mn145 2.215 . S
O169 C146 1.283 . S
O170 Mn144 2.094 . S
O170 C148 1.240 . S
O171 Mn145 2.117 . S
O171 C148 1.264 . S
C172 C165 1.403 . S
C172 C173 1.399 . S
C172 H178 0.929 . S
C173 C153 1.449 . S
C173 C172 1.399 . S
C173 H179 0.930 . S
H174 C154 0.931 . S
H175 C155 0.930 . S
H176 C163 0.931 . S
H177 C164 0.929 . S
H178 C172 0.929 . S
H179 C173 0.930 . S
Mn180 O185 2.095 . S
Mn180 O195 2.162 . S
Mn180 O196 2.297 . S
Mn180 O204 2.385 . S
Mn180 O205 2.209 . S
Mn180 O206 2.094 . S
Mn181 O186 2.121 . S
Mn181 N188 2.257 . S
Mn181 N197 2.282 . S
Mn181 O205 2.215 . S
Mn181 O207 2.117 . S
C182 O204 1.234 . S
C182 O205 1.283 . S
C183 O195 1.281 . S
C183 O196 1.236 . S
C184 O206 1.240 . S
C184 O207 1.264 . S
O185 Mn180 2.095 . S
O185 C194 1.250 . S
O186 Mn181 2.121 . S
O186 C194 1.258 . S
C187 N188 1.326 . S
C187 C191 1.460 . S
C187 H193 0.929 . S
N188 Mn181 2.257 . S
N188 C187 1.326 . S
N188 C192 1.362 . S
C189 C190 1.258 . S
C189 C192 1.431 . S
C189 C209 1.449 . S
C190 C189 1.258 . S
C190 C191 1.477 . S
C190 H210 0.931 . S
C191 C187 1.460 . S
C191 C190 1.477 . S
C191 H211 0.930 1_556 S
C192 N188 1.362 . S
C192 C189 1.431 . S
C192 C202 1.476 . S
H193 C187 0.929 . S
C194 O185 1.250 . S
C194 O186 1.258 . S
O195 Mn180 2.162 . S
O195 C183 1.281 . S
O196 Mn180 2.297 . S
O196 C183 1.236 . S
N197 Mn181 2.282 . S
N197 C198 1.328 . S
N197 C202 1.318 . S
C198 N197 1.328 . S
C198 C199 1.457 . S
C198 H203 0.929 . S
C199 C198 1.457 . S
C199 C200 1.291 . S
C199 H212 0.931 . S
C200 C199 1.291 . S
C200 C201 1.373 . S
C200 H213 0.929 . S
C201 C200 1.373 . S
C201 C202 1.396 . S
C201 C208 1.403 . S
C202 C192 1.476 . S
C202 N197 1.318 . S
C202 C201 1.396 . S
H203 C198 0.929 . S
O204 Mn180 2.385 . S
O204 C182 1.234 . S
O205 Mn180 2.209 . S
O205 Mn181 2.215 . S
O205 C182 1.283 . S
O206 Mn180 2.094 . S
O206 C184 1.240 . S
O207 Mn181 2.117 . S
O207 C184 1.264 . S
C208 C201 1.403 . S
C208 C209 1.399 . S
C208 H214 0.929 . S
C209 C189 1.449 . S
C209 C208 1.399 . S
C209 H215 0.930 . S
H210 C190 0.931 . S
H211 C191 0.930 1_554 S
H212 C199 0.931 . S
H213 C200 0.929 . S
H214 C208 0.929 . S
H215 C209 0.930 . S
C216 C217 1.386 . S
C216 C218 1.383 . S
C216 H232 0.951 . S
C217 C216 1.386 . S
C217 C221 1.383 . S
C218 C216 1.383 . S
C218 C219 1.402 . S
C218 H233 0.951 . S
C219 C218 1.402 . S
C219 C220 1.375 . S
C219 C222 1.481 . S
C220 C219 1.375 . S
C220 C221 1.367 . S
C220 H234 0.951 . S
C221 C217 1.383 . S
C221 C220 1.367 . S
C221 H235 0.950 . S
C222 C219 1.481 . S
C222 C223 1.297 1_455 S
C222 H236 0.950 . S
C223 C222 1.297 1_655 S
C223 C224 1.479 . S
C223 H237 0.950 . S
C224 C223 1.479 . S
C224 C225 1.375 . S
C224 C230 1.404 . S
C225 C224 1.375 . S
C225 C226 1.369 . S
C225 H238 0.950 . S
C226 C225 1.369 . S
C226 C227 1.392 . S
C226 H239 0.951 . S
C227 C226 1.392 . S
C227 C229 1.384 . S
H228 C230 0.949 . S
C229 C227 1.384 . S
C229 C230 1.385 . S
C229 H231 0.950 . S
C230 C224 1.404 . S
C230 H228 0.949 . S
C230 C229 1.385 . S
H231 C229 0.950 . S
H232 C216 0.951 . S
H233 C218 0.951 . S
H234 C220 0.951 . S
H235 C221 0.950 . S
H236 C222 0.950 . S
H237 C223 0.950 . S
H238 C225 0.950 . S
H239 C226 0.951 . S
C240 C241 1.386 . S
C240 C242 1.383 . S
C240 H256 0.951 . S
C241 C240 1.386 . S
C241 C245 1.383 . S
C242 C240 1.383 . S
C242 C243 1.402 . S
C242 H257 0.951 . S
C243 C242 1.402 . S
C243 C244 1.375 . S
C243 C246 1.504 . S
C244 C243 1.375 . S
C244 C245 1.367 . S
C244 H258 0.951 . S
C245 C241 1.383 . S
C245 C244 1.367 . S
C245 H259 0.950 . S
C246 C243 1.504 . S
C246 C247 1.297 1_565 S
C246 H260 0.926 1_565 S
C247 C246 1.297 1_545 S
C247 C248 1.479 1_556 S
C247 H261 0.950 . S
C248 C247 1.479 1_554 S
C248 C249 1.375 . S
C248 C254 1.404 . S
C249 C248 1.375 . S
C249 C250 1.369 . S
C249 H262 0.950 . S
C250 C249 1.369 . S
C250 C251 1.392 . S
C250 H263 0.951 . S
C251 C250 1.392 . S
C251 C253 1.384 . S
H252 C254 0.949 . S
C253 C251 1.384 . S
C253 C254 1.385 . S
C253 H255 0.950 . S
C254 C248 1.404 . S
C254 H252 0.949 . S
C254 C253 1.385 . S
H255 C253 0.950 . S
H256 C240 0.951 . S
H257 C242 0.951 . S
H258 C244 0.951 . S
H259 C245 0.950 . S
H260 C246 0.926 1_545 S
H261 C247 0.950 . S
H262 C249 0.950 . S
H263 C250 0.951 . S
C264 C265 1.386 . S
C264 C266 1.383 . S
C264 H280 0.951 . S
C265 C264 1.386 . S
C265 C269 1.383 . S
C266 C264 1.383 . S
C266 C267 1.402 . S
C266 H281 0.951 . S
C267 C266 1.402 . S
C267 C268 1.375 . S
C267 C270 1.481 . S
C268 C267 1.375 . S
C268 C269 1.367 . S
C268 H282 0.951 . S
C269 C265 1.383 . S
C269 C268 1.367 . S
C269 H283 0.950 . S
C270 C267 1.481 . S
C270 C271 1.297 . S
C270 H284 0.950 . S
C271 C270 1.297 . S
C271 C272 1.479 . S
C271 H285 0.950 . S
C272 C271 1.479 . S
C272 C273 1.375 . S
C272 C278 1.404 . S
C273 C272 1.375 . S
C273 C274 1.369 . S
C273 H286 0.950 . S
C274 C273 1.369 . S
C274 C275 1.392 . S
C274 H287 0.951 . S
C275 C274 1.392 . S
C275 C277 1.384 . S
H276 C278 0.949 . S
C277 C275 1.384 . S
C277 C278 1.385 . S
C277 H279 0.950 . S
C278 C272 1.404 . S
C278 H276 0.949 . S
C278 C277 1.385 . S
H279 C277 0.950 . S
H280 C264 0.951 . S
H281 C266 0.951 . S
H282 C268 0.951 . S
H283 C269 0.950 . S
H284 C270 0.950 . S
H285 C271 0.950 . S
H286 C273 0.950 . S
H287 C274 0.951 . S
C288 C289 1.386 . S
C288 C290 1.383 . S
C288 H304 0.951 . S
C289 C288 1.386 . S
C289 C293 1.383 . S
C290 C288 1.383 . S
C290 C291 1.402 . S
C290 H305 0.951 . S
C291 C290 1.402 . S
C291 C292 1.375 . S
C291 C294 1.504 . S
C292 C291 1.375 . S
C292 C293 1.367 . S
C292 H306 0.951 . S
C293 C289 1.383 . S
C293 C292 1.367 . S
C293 H307 0.950 . S
C294 C291 1.504 . S
C294 C295 1.286 1_655 S
C294 H308 0.938 . S
C295 C294 1.286 1_455 S
C295 C296 1.479 . S
C295 H309 0.950 . S
C296 C295 1.479 . S
C296 C297 1.375 . S
C296 C302 1.404 . S
C297 C296 1.375 . S
C297 C298 1.369 . S
C297 H310 0.950 . S
C298 C297 1.369 . S
C298 C299 1.392 . S
C298 H311 0.951 . S
C299 C298 1.392 . S
C299 C301 1.384 . S
H300 C302 0.949 . S
C301 C299 1.384 . S
C301 C302 1.385 . S
C301 H303 0.950 . S
C302 C296 1.404 . S
C302 H300 0.949 . S
C302 C301 1.385 . S
H303 C301 0.950 . S
H304 C288 0.951 . S
H305 C290 0.951 . S
H306 C292 0.951 . S
H307 C293 0.950 . S
H308 C294 0.938 . S
H309 C295 0.950 . S
H310 C297 0.950 . S
H311 C298 0.951 . S
C312 C313 1.386 . S
C312 C314 1.383 . S
C312 H328 0.951 . S
C313 C312 1.386 . S
C313 C317 1.383 . S
C314 C312 1.383 . S
C314 C315 1.402 . S
C314 H329 0.951 . S
C315 C314 1.402 . S
C315 C316 1.375 . S
C315 C318 1.481 . S
C316 C315 1.375 . S
C316 C317 1.367 . S
C316 H330 0.951 . S
C317 C313 1.383 . S
C317 C316 1.367 . S
C317 H331 0.950 . S
C318 C315 1.481 . S
C318 C319 1.297 . S
C318 H332 0.950 . S
C319 C318 1.297 . S
C319 C320 1.479 1_545 S
C319 H333 0.950 . S
C320 C319 1.479 1_565 S
C320 C321 1.375 . S
C320 C326 1.404 . S
C321 C320 1.375 . S
C321 C322 1.369 . S
C321 H334 0.950 . S
C322 C321 1.369 . S
C322 C323 1.392 . S
C322 H335 0.951 . S
C323 C322 1.392 . S
C323 C325 1.384 . S
H324 C326 0.949 . S
C325 C323 1.384 . S
C325 C326 1.385 . S
C325 H327 0.950 . S
C326 C320 1.404 . S
C326 H324 0.949 . S
C326 C325 1.385 . S
H327 C325 0.950 . S
H328 C312 0.951 . S
H329 C314 0.951 . S
H330 C316 0.951 . S
H331 C317 0.950 . S
H332 C318 0.950 . S
H333 C319 0.950 . S
H334 C321 0.950 . S
H335 C322 0.951 . S
C336 C337 1.386 . S
C336 C338 1.383 . S
C336 H352 0.951 . S
C337 C336 1.386 . S
C337 C341 1.383 . S
C338 C336 1.383 . S
C338 C339 1.402 . S
C338 H353 0.951 . S
C339 C338 1.402 . S
C339 C340 1.375 . S
C339 C342 1.481 . S
C340 C339 1.375 . S
C340 C341 1.367 . S
C340 H354 0.951 . S
C341 C337 1.383 . S
C341 C340 1.367 . S
C341 H355 0.950 . S
C342 C339 1.481 . S
C342 C343 1.297 . S
C342 H356 0.950 . S
C343 C342 1.297 . S
C343 C344 1.479 . S
C343 H357 0.950 . S
C344 C343 1.479 . S
C344 C345 1.375 . S
C344 C350 1.404 . S
C345 C344 1.375 . S
C345 C346 1.369 . S
C345 H358 0.950 . S
C346 C345 1.369 . S
C346 C347 1.392 . S
C346 H359 0.951 . S
C347 C346 1.392 . S
C347 C349 1.384 . S
H348 C350 0.949 . S
C349 C347 1.384 . S
C349 C350 1.385 . S
C349 H351 0.950 . S
C350 C344 1.404 . S
C350 H348 0.949 . S
C350 C349 1.385 . S
H351 C349 0.950 . S
H352 C336 0.951 . S
H353 C338 0.951 . S
H354 C340 0.951 . S
H355 C341 0.950 . S
H356 C342 0.950 . S
H357 C343 0.950 . S
H358 C345 0.950 . S
H359 C346 0.951 . S
C360 C361 1.386 . S
C360 C362 1.383 . S
C360 H376 0.951 . S
C361 C360 1.386 . S
C361 C365 1.383 . S
C362 C360 1.383 . S
C362 C363 1.402 . S
C362 H377 0.951 . S
C363 C362 1.402 . S
C363 C364 1.375 . S
C363 C366 1.481 . S
C364 C363 1.375 . S
C364 C365 1.367 . S
C364 H378 0.951 . S
C365 C361 1.383 . S
C365 C364 1.367 . S
C365 H379 0.950 . S
C366 C363 1.481 . S
C366 C367 1.297 . S
C366 H380 0.950 . S
C367 C366 1.297 . S
C367 C368 1.479 . S
C367 H381 0.950 . S
C368 C367 1.479 . S
C368 C369 1.375 . S
C368 C374 1.404 . S
C369 C368 1.375 . S
C369 C370 1.369 . S
C369 H382 0.950 . S
C370 C369 1.369 . S
C370 C371 1.392 . S
C370 H383 0.951 . S
C371 C370 1.392 . S
C371 C373 1.384 . S
H372 C374 0.949 . S
C373 C371 1.384 . S
C373 C374 1.385 . S
C373 H375 0.950 . S
C374 C368 1.404 . S
C374 H372 0.949 . S
C374 C373 1.385 . S
H375 C373 0.950 . S
H376 C360 0.951 . S
H377 C362 0.951 . S
H378 C364 0.951 . S
H379 C365 0.950 . S
H380 C366 0.950 . S
H381 C367 0.950 . S
H382 C369 0.950 . S
H383 C370 0.951 . S
C384 C385 1.386 . S
C384 C386 1.383 . S
C384 H400 0.951 . S
C385 C384 1.386 . S
C385 C389 1.383 . S
C386 C384 1.383 . S
C386 C387 1.402 . S
C386 H401 0.951 . S
C387 C386 1.402 . S
C387 C388 1.375 . S
C387 C390 1.481 . S
C388 C387 1.375 . S
C388 C389 1.367 . S
C388 H402 0.951 . S
C389 C385 1.383 . S
C389 C388 1.367 . S
C389 H403 0.950 . S
C390 C387 1.481 . S
C390 C391 1.297 . S
C390 H404 0.950 . S
C391 C390 1.297 . S
C391 C392 1.479 . S
C391 H405 0.950 . S
C392 C391 1.479 . S
C392 C393 1.375 . S
C392 C398 1.404 . S
C393 C392 1.375 . S
C393 C394 1.369 . S
C393 H406 0.950 . S
C394 C393 1.369 . S
C394 C395 1.392 . S
C394 H407 0.951 . S
C395 C394 1.392 . S
C395 C397 1.384 . S
H396 C398 0.949 . S
C397 C395 1.384 . S
C397 C398 1.385 . S
C397 H399 0.950 . S
C398 C392 1.404 . S
C398 H396 0.949 . S
C398 C397 1.385 . S
H399 C397 0.950 . S
H400 C384 0.951 . S
H401 C386 0.951 . S
H402 C388 0.951 . S
H403 C389 0.950 . S
H404 C390 0.950 . S
H405 C391 0.950 . S
H406 C393 0.950 . S
H407 C394 0.951 . S
C408 C409 1.386 . S
C408 C410 1.383 . S
C408 H424 0.951 . S
C409 C408 1.386 . S
C409 C413 1.383 . S
C410 C408 1.383 . S
C410 C411 1.402 . S
C410 H425 0.951 . S
C411 C410 1.402 . S
C411 C412 1.375 . S
C411 C414 1.481 . S
C412 C411 1.375 . S
C412 C413 1.367 . S
C412 H426 0.951 . S
C413 C409 1.383 . S
C413 C412 1.367 . S
C413 H427 0.950 . S
C414 C411 1.481 . S
C414 C415 1.297 . S
C414 H428 0.950 . S
C415 C414 1.297 . S
C415 C416 1.479 . S
C415 H429 0.950 . S
C416 C415 1.479 . S
C416 C417 1.375 . S
C416 C422 1.404 . S
C417 C416 1.375 . S
C417 C418 1.369 . S
C417 H430 0.950 . S
C418 C417 1.369 . S
C418 C419 1.392 . S
C418 H431 0.951 . S
C419 C418 1.392 . S
C419 C421 1.384 . S
H420 C422 0.949 . S
C421 C419 1.384 . S
C421 C422 1.385 . S
C421 H423 0.950 . S
C422 C416 1.404 . S
C422 H420 0.949 . S
C422 C421 1.385 . S
H423 C421 0.950 . S
H424 C408 0.951 . S
H425 C410 0.951 . S
H426 C412 0.951 . S
H427 C413 0.950 . S
H428 C414 0.950 . S
H429 C415 0.950 . S
H430 C417 0.950 . S
H431 C418 0.951 . S
C432 C433 1.386 . S
C432 C434 1.383 . S
C432 H448 0.951 . S
C433 C432 1.386 . S
C433 C437 1.383 . S
C434 C432 1.383 . S
C434 C435 1.402 . S
C434 H449 0.951 . S
C435 C434 1.402 . S
C435 C436 1.375 . S
C435 C438 1.481 . S
C436 C435 1.375 . S
C436 C437 1.367 . S
C436 H450 0.951 . S
C437 C433 1.383 . S
C437 C436 1.367 . S
C437 H451 0.950 . S
C438 C435 1.481 . S
C438 C439 1.297 . S
C438 H452 0.950 . S
C439 C438 1.297 . S
C439 C440 1.479 . S
C439 H453 0.950 . S
C440 C439 1.479 . S
C440 C441 1.375 . S
C440 C446 1.404 . S
C441 C440 1.375 . S
C441 C442 1.369 . S
C441 H454 0.950 . S
C442 C441 1.369 . S
C442 C443 1.392 . S
C442 H455 0.951 . S
C443 C442 1.392 . S
C443 C445 1.384 . S
H444 C446 0.949 . S
C445 C443 1.384 . S
C445 C446 1.385 . S
C445 H447 0.950 . S
C446 C440 1.404 . S
C446 H444 0.949 . S
C446 C445 1.385 . S
H447 C445 0.950 . S
H448 C432 0.951 . S
H449 C434 0.951 . S
H450 C436 0.951 . S
H451 C437 0.950 . S
H452 C438 0.950 . S
H453 C439 0.950 . S
H454 C441 0.950 . S
H455 C442 0.951 . S
C456 C457 1.386 . S
C456 C458 1.383 . S
C456 H472 0.951 . S
C457 C456 1.386 . S
C457 C461 1.383 . S
C458 C456 1.383 . S
C458 C459 1.402 . S
C458 H473 0.951 . S
C459 C458 1.402 . S
C459 C460 1.375 . S
C459 C462 1.481 . S
C460 C459 1.375 . S
C460 C461 1.367 . S
C460 H474 0.951 . S
C461 C457 1.383 . S
C461 C460 1.367 . S
C461 H475 0.950 . S
C462 C459 1.481 . S
C462 C463 1.297 . S
C462 H476 0.950 . S
C463 C462 1.297 . S
C463 C464 1.479 . S
C463 H477 0.950 . S
C464 C463 1.479 . S
C464 C465 1.375 . S
C464 C470 1.404 . S
C465 C464 1.375 . S
C465 C466 1.369 1_556 S
C465 H478 0.950 . S
C466 C465 1.369 1_554 S
C466 C467 1.392 . S
C466 H479 0.951 . S
C467 C466 1.392 . S
C467 C469 1.384 1_554 S
H468 C470 0.949 . S
C469 C467 1.384 1_556 S
C469 C470 1.385 . S
C469 H471 0.950 . S
C470 C464 1.404 . S
C470 H468 0.949 . S
C470 C469 1.385 . S
H471 C469 0.950 . S
H472 C456 0.951 . S
H473 C458 0.951 . S
H474 C460 0.951 . S
H475 C461 0.950 . S
H476 C462 0.950 . S
H477 C463 0.950 . S
H478 C465 0.950 . S
H479 C466 0.951 . S
C480 C481 1.386 1_554 S
C480 C482 1.383 . S
C480 H496 0.951 . S
C481 C480 1.386 1_556 S
C481 C485 1.383 . S
C482 C480 1.383 . S
C482 C483 1.402 . S
C482 H497 0.951 . S
C483 C482 1.402 . S
C483 C484 1.375 1_554 S
C483 C486 1.481 . S
C484 C483 1.375 1_556 S
C484 C485 1.367 . S
C484 H498 0.951 . S
C485 C481 1.383 . S
C485 C484 1.367 . S
C485 H499 0.950 . S
C486 C483 1.481 . S
C486 C487 1.297 . S
C486 H500 0.950 . S
C487 C486 1.297 . S
C487 C488 1.479 . S
C487 H501 0.950 . S
C488 C487 1.479 . S
C488 C489 1.375 . S
C488 C494 1.404 . S
C489 C488 1.375 . S
C489 C490 1.369 . S
C489 H502 0.950 . S
C490 C489 1.369 . S
C490 C491 1.392 . S
C490 H503 0.951 . S
C491 C490 1.392 . S
C491 C493 1.384 . S
H492 C494 0.949 . S
C493 C491 1.384 . S
C493 C494 1.385 . S
C493 H495 0.950 . S
C494 C488 1.404 . S
C494 H492 0.949 . S
C494 C493 1.385 . S
H495 C493 0.950 . S
H496 C480 0.951 . S
H497 C482 0.951 . S
H498 C484 0.951 . S
H499 C485 0.950 . S
H500 C486 0.950 . S
H501 C487 0.950 . S
H502 C489 0.950 . S
H503 C490 0.951 . S
C217 C4 1.153 . S
C227 C122 1.230 . S
C241 C158 1.174 . S
C251 C40 1.189 . S
C265 C76 1.156 . S
C275 C194 1.226 1_554 S
C289 C112 1.155 . S
C299 C14 1.229 . S
C313 C50 1.198 . S
C323 C148 1.159 . S
C337 C184 1.209 . S
C347 C86 1.130 . S
C361 C3 1.202 . S
C371 C74 1.185 . S
C385 C39 1.203 . S
C395 C110 1.187 . S
C409 C146 1.196 . S
C419 C75 1.203 . S
C433 C182 1.175 . S
C443 C111 1.198 . S
C457 C147 1.194 . S
C467 C2 1.159 . S
C481 C183 1.200 . S
C491 C38 1.177 . S
