# Generated by pormake.
# Topology wll, (5)-cn, num edge types: 1
# Building blocks:
#     Node 0, Type 0, BuildingBlock: BEQFEK_clean_sbu_0, # of connection points: 5
#     Node 1, Type 0, BuildingBlock: BEQFEK_clean_sbu_0, # of connection points: 5
#     Node 2, Type 0, BuildingBlock: BEQFEK_clean_sbu_0, # of connection points: 5
#     Node 3, Type 0, BuildingBlock: BEQFEK_clean_sbu_0, # of connection points: 5
#     Node 4, Type 0, BuildingBlock: BEQFEK_clean_sbu_0, # of connection points: 5
#     Node 5, Type 0, BuildingBlock: BEQFEK_clean_sbu_0, # of connection points: 5
#     Node 6, Type 0, BuildingBlock: BEQFEK_clean_sbu_0, # of connection points: 5
#     Node 7, Type 0, BuildingBlock: BEQFEK_clean_sbu_0, # of connection points: 5
#     Node 8, Type 0, BuildingBlock: BEQFEK_clean_sbu_0, # of connection points: 5
#     Node 9, Type 0, BuildingBlock: BEQFEK_clean_sbu_0, # of connection points: 5
#     Node 10, Type 0, BuildingBlock: BEQFEK_clean_sbu_0, # of connection points: 5
#     Node 11, Type 0, BuildingBlock: BEQFEK_clean_sbu_0, # of connection points: 5
#     Node 12, Type 0, BuildingBlock: BEQFEK_clean_sbu_0, # of connection points: 5
#     Node 13, Type 0, BuildingBlock: BEQFEK_clean_sbu_0, # of connection points: 5
#     Node 14, Type 0, BuildingBlock: BEQFEK_clean_sbu_0, # of connection points: 5
#     Node 15, Type 0, BuildingBlock: BEQFEK_clean_sbu_0, # of connection points: 5
#     Node 16, Type 0, BuildingBlock: BEQFEK_clean_sbu_0, # of connection points: 5
#     Node 17, Type 0, BuildingBlock: BEQFEK_clean_sbu_0, # of connection points: 5
#     Edge 18, Type (0, 0), BuildingBlock: TEMPAE_clean_linker_10, # of connection points: 2
#     Edge 19, Type (0, 0), BuildingBlock: TEMPAE_clean_linker_10, # of connection points: 2
#     Edge 20, Type (0, 0), BuildingBlock: TEMPAE_clean_linker_10, # of connection points: 2
#     Edge 21, Type (0, 0), BuildingBlock: TEMPAE_clean_linker_10, # of connection points: 2
#     Edge 22, Type (0, 0), BuildingBlock: TEMPAE_clean_linker_10, # of connection points: 2
#     Edge 23, Type (0, 0), BuildingBlock: TEMPAE_clean_linker_10, # of connection points: 2
#     Edge 24, Type (0, 0), BuildingBlock: TEMPAE_clean_linker_10, # of connection points: 2
#     Edge 25, Type (0, 0), BuildingBlock: TEMPAE_clean_linker_10, # of connection points: 2
#     Edge 26, Type (0, 0), BuildingBlock: TEMPAE_clean_linker_10, # of connection points: 2
#     Edge 27, Type (0, 0), BuildingBlock: TEMPAE_clean_linker_10, # of connection points: 2
#     Edge 28, Type (0, 0), BuildingBlock: TEMPAE_clean_linker_10, # of connection points: 2
#     Edge 29, Type (0, 0), BuildingBlock: TEMPAE_clean_linker_10, # of connection points: 2
#     Edge 30, Type (0, 0), BuildingBlock: TEMPAE_clean_linker_10, # of connection points: 2
#     Edge 31, Type (0, 0), BuildingBlock: TEMPAE_clean_linker_10, # of connection points: 2
#     Edge 32, Type (0, 0), BuildingBlock: TEMPAE_clean_linker_10, # of connection points: 2
#     Edge 33, Type (0, 0), BuildingBlock: TEMPAE_clean_linker_10, # of connection points: 2
#     Edge 34, Type (0, 0), BuildingBlock: TEMPAE_clean_linker_10, # of connection points: 2
#     Edge 35, Type (0, 0), BuildingBlock: TEMPAE_clean_linker_10, # of connection points: 2
#     Edge 36, Type (0, 0), BuildingBlock: TEMPAE_clean_linker_10, # of connection points: 2
#     Edge 37, Type (0, 0), BuildingBlock: TEMPAE_clean_linker_10, # of connection points: 2
#     Edge 38, Type (0, 0), BuildingBlock: TEMPAE_clean_linker_10, # of connection points: 2
#     Edge 39, Type (0, 0), BuildingBlock: TEMPAE_clean_linker_10, # of connection points: 2
#     Edge 40, Type (0, 0), BuildingBlock: TEMPAE_clean_linker_10, # of connection points: 2
#     Edge 41, Type (0, 0), BuildingBlock: TEMPAE_clean_linker_10, # of connection points: 2
#     Edge 42, Type (0, 0), BuildingBlock: TEMPAE_clean_linker_10, # of connection points: 2
#     Edge 43, Type (0, 0), BuildingBlock: TEMPAE_clean_linker_10, # of connection points: 2
#     Edge 44, Type (0, 0), BuildingBlock: TEMPAE_clean_linker_10, # of connection points: 2
#     Edge 45, Type (0, 0), BuildingBlock: TEMPAE_clean_linker_10, # of connection points: 2
#     Edge 46, Type (0, 0), BuildingBlock: TEMPAE_clean_linker_10, # of connection points: 2
#     Edge 47, Type (0, 0), BuildingBlock: TEMPAE_clean_linker_10, # of connection points: 2
#     Edge 48, Type (0, 0), BuildingBlock: TEMPAE_clean_linker_10, # of connection points: 2
#     Edge 49, Type (0, 0), BuildingBlock: TEMPAE_clean_linker_10, # of connection points: 2
#     Edge 50, Type (0, 0), BuildingBlock: TEMPAE_clean_linker_10, # of connection points: 2
#     Edge 51, Type (0, 0), BuildingBlock: TEMPAE_clean_linker_10, # of connection points: 2
#     Edge 52, Type (0, 0), BuildingBlock: TEMPAE_clean_linker_10, # of connection points: 2
#     Edge 53, Type (0, 0), BuildingBlock: TEMPAE_clean_linker_10, # of connection points: 2
#     Edge 54, Type (0, 0), BuildingBlock: TEMPAE_clean_linker_10, # of connection points: 2
#     Edge 55, Type (0, 0), BuildingBlock: TEMPAE_clean_linker_10, # of connection points: 2
#     Edge 56, Type (0, 0), BuildingBlock: TEMPAE_clean_linker_10, # of connection points: 2
#     Edge 57, Type (0, 0), BuildingBlock: TEMPAE_clean_linker_10, # of connection points: 2
#     Edge 58, Type (0, 0), BuildingBlock: TEMPAE_clean_linker_10, # of connection points: 2
#     Edge 59, Type (0, 0), BuildingBlock: TEMPAE_clean_linker_10, # of connection points: 2
#     Edge 60, Type (0, 0), BuildingBlock: TEMPAE_clean_linker_10, # of connection points: 2
#     Edge 61, Type (0, 0), BuildingBlock: TEMPAE_clean_linker_10, # of connection points: 2
#     Edge 62, Type (0, 0), BuildingBlock: TEMPAE_clean_linker_10, # of connection points: 2
# Relax obj value: 0.195
# Max RMSD: 0.163
# Mean RMSD: 0.161
data_MOF--net-wll--node1-BEQFEK_clean_sbu_0--edge1-TEMPAE_clean_linker_10
_symmetry_space_group_name_H-M    P1
_symmetry_Int_Tables_number       1
_symmetry_cell_setting            triclinic
loop_
_symmetry_equiv_pos_as_xyz
'x, y, z'
_cell_length_a     40.09528
_cell_length_b     40.148093
_cell_length_c     67.759399
_cell_angle_alpha  90.003296
_cell_angle_beta   89.991281
_cell_angle_gamma 120.00994
loop_
_atom_site_label
_atom_site_type_symbol
_atom_site_fract_x
_atom_site_fract_y
_atom_site_fract_z
_atom_type_partial_charge
Co0 Co 0.3026 0.31806 0.12028 0.0
Co1 Co 0.34943 0.30773 0.08629 0.0
C2 C 0.32646 0.25842 0.12235 0.0
O3 O 0.30841 0.2744 0.12917 0.0
O4 O 0.34433 0.26884 0.10599 0.0
C5 C 0.236 0.29255 0.14376 0.0
O6 O 0.22504 0.26044 0.13399 0.0
C7 C 0.36186 0.26511 0.0552 0.0
C8 C 0.3999 0.31082 0.03439 0.0
C9 C 0.37983 0.27127 0.03701 0.0
N10 N 0.37076 0.29938 0.06295 0.0
N11 N 0.39403 0.32666 0.05061 0.0
C12 C 0.33253 0.2274 0.06392 0.0
H13 H 0.31192 0.23118 0.07324 0.0
H14 H 0.3165 0.20596 0.05219 0.0
H15 H 0.34743 0.21624 0.07332 0.0
C16 C 0.25424 0.31542 0.08667 0.0
N17 N 0.28268 0.31095 0.09445 0.0
N18 N 0.30119 0.30474 0.08018 0.0
C19 C 0.2841 0.30373 0.06285 0.0
C20 C 0.25405 0.31093 0.06632 0.0
C21 C 0.23165 0.32929 0.09819 0.0
H22 H 0.24956 0.34869 0.11022 0.0
H23 H 0.20618 0.30421 0.10483 0.0
H24 H 0.22157 0.34495 0.08865 0.0
O25 O 0.35228 0.36617 0.12098 0.0
O26 O 0.38642 0.35981 0.09687 0.0
H27 H 0.32441 0.32132 0.03901 0.0
H28 H 0.27484 0.29041 0.0316 0.0
C29 C 0.29641 0.29617 0.04329 0.0
H30 H 0.29998 0.27067 0.04444 0.0
H31 H 0.40459 0.35597 0.05288 0.0
O32 O 0.2683 0.32193 0.13981 0.0
C33 C 0.38301 0.37925 0.11082 0.0
Co34 Co 0.68522 0.97964 0.11784 0.0
Co35 Co 0.6874 0.03415 0.08417 0.0
C36 C 0.74167 0.06181 0.11939 0.0
O37 O 0.72994 0.02818 0.12602 0.0
O38 O 0.72686 0.06748 0.10405 0.0
C39 C 0.67506 0.94066 0.15419 0.0
O40 O 0.66941 0.96811 0.16097 0.0
C41 C 0.73053 0.08682 0.05228 0.0
C42 C 0.68503 0.08103 0.03185 0.0
C43 C 0.72464 0.09738 0.03363 0.0
N44 N 0.69607 0.06415 0.06074 0.0
N45 N 0.66898 0.06143 0.04862 0.0
C46 C 0.76813 0.09839 0.06227 0.0
H47 H 0.77212 0.07302 0.06344 0.0
H48 H 0.79286 0.12209 0.05443 0.0
H49 H 0.76779 0.10868 0.07737 0.0
C50 C 0.68723 0.93487 0.084 0.0
N51 N 0.6897 0.96693 0.09172 0.0
N52 N 0.68978 0.9891 0.07741 0.0
C53 C 0.68684 0.97139 0.06003 0.0
C54 C 0.68521 0.93657 0.06365 0.0
C55 C 0.68194 0.90133 0.09606 0.0
H56 H 0.65494 0.88997 0.10474 0.0
H57 H 0.70617 0.91108 0.10664 0.0
H58 H 0.68053 0.87798 0.08671 0.0
O59 O 0.63822 0.98359 0.12091 0.0
O60 O 0.63654 0.019 0.09606 0.0
H61 H 0.65753 0.99012 0.04058 0.0
H62 H 0.67971 0.96616 0.02824 0.0
C63 C 0.68294 0.9861 0.04038 0.0
H64 H 0.70897 0.01426 0.03747 0.0
H65 H 0.6395 0.04474 0.0514 0.0
O66 O 0.68184 0.93989 0.13594 0.0
C67 C 0.62175 -0.00096 0.11162 0.0
Co68 Co 0.01057 0.70888 0.1187 0.0
Co69 Co 0.95606 0.65458 0.08559 0.0
C70 C 0.92769 0.68296 0.11946 0.0
O71 O 0.9613 0.70452 0.12631 0.0
O72 O 0.92203 0.66204 0.10431 0.0
C73 C 0.04953 0.73999 0.15486 0.0
O74 O 0.02221 0.707 0.16184 0.0
C75 C 0.90258 0.64093 0.0539 0.0
C76 C 0.90367 0.59543 0.03609 0.0
C77 C 0.88783 0.6192 0.03693 0.0
N78 N 0.92586 0.63047 0.06275 0.0
N79 N 0.92614 0.60293 0.05218 0.0
C80 C 0.89835 0.67421 0.06053 0.0
H81 H 0.92389 0.69476 0.06922 0.0
H82 H 0.89471 0.6893 0.0477 0.0
H83 H 0.87249 0.6634 0.07008 0.0
C84 C 0.05486 0.75374 0.0841 0.0
N85 N 0.02309 0.72442 0.09225 0.0
N86 N 0.00074 0.70144 0.07823 0.0
C87 C 0.01795 0.71522 0.06065 0.0
C88 C 0.05269 0.74884 0.06379 0.0
C89 C 0.08849 0.783 0.09578 0.0
H90 H 0.1 0.76816 0.10498 0.0
H91 H 0.07872 0.79816 0.10589 0.0
H92 H 0.11176 0.80427 0.08613 0.0
O93 O 0.00749 0.6585 0.12296 0.0
O94 O 0.97135 0.62025 0.09863 0.0
H95 H -0.00221 0.66562 0.04217 0.0
H96 H 0.02256 0.71082 0.02895 0.0
C97 C 0.00264 0.69531 0.04132 0.0
H98 H 0.97466 0.69353 0.03826 0.0
H99 H 0.94253 0.59013 0.05562 0.0
O100 O 0.05025 0.74685 0.13651 0.0
C101 C 0.99169 0.62614 0.11409 0.0
Co102 Co 0.69851 0.67979 0.88146 0.0
Co103 Co 0.64809 0.685 0.91531 0.0
C104 C 0.67784 0.74044 0.88094 0.0
O105 O 0.69756 0.72645 0.87395 0.0
O106 O 0.6573 0.72654 0.89633 0.0
C107 C 0.76398 0.70439 0.8573 0.0
O108 O 0.7728 0.73784 0.865 0.0
C109 C 0.64391 0.72995 0.9473 0.0
C110 C 0.59207 0.68933 0.96402 0.0
C111 C 0.62196 0.72725 0.96373 0.0
N112 N 0.62769 0.69555 0.93834 0.0
N113 N 0.59655 0.67133 0.9483 0.0
C114 C 0.68158 0.76345 0.94094 0.0
H115 H 0.69822 0.75351 0.93208 0.0
H116 H 0.69884 0.7799 0.95392 0.0
H117 H 0.67603 0.78277 0.93152 0.0
C118 C 0.743 0.67692 0.91558 0.0
N119 N 0.71483 0.68169 0.9077 0.0
N120 N 0.69356 0.68353 0.92199 0.0
C121 C 0.70756 0.67981 0.93945 0.0
C122 C 0.73948 0.67592 0.93591 0.0
C123 C 0.77072 0.67026 0.90382 0.0
H124 H 0.7547 0.64702 0.8929 0.0
H125 H 0.79034 0.69688 0.8956 0.0
H126 H 0.78818 0.66241 0.9134 0.0
O127 O 0.64608 0.63541 0.87795 0.0
O128 O 0.60995 0.63592 0.90278 0.0
H129 H 0.6572 0.65639 0.9577 0.0
H130 H 0.70058 0.66561 0.97057 0.0
C131 C 0.68867 0.67627 0.95899 0.0
H132 H 0.69353 0.70489 0.96352 0.0
H133 H 0.5787 0.6425 0.94452 0.0
O134 O 0.73314 0.67455 0.86265 0.0
C135 C 0.61396 0.62077 0.88705 0.0
Co136 Co 0.33463 0.02439 0.88381 0.0
Co137 Co 0.31479 0.96437 0.91774 0.0
C138 C 0.27333 0.9418 0.87935 0.0
O139 O 0.29427 0.97554 0.87263 0.0
O140 O 0.27684 0.93334 0.89701 0.0
C141 C 0.3115 0.0627 0.85783 0.0
O142 O 0.27792 0.0367 0.86491 0.0
C143 C 0.26464 0.91391 0.94837 0.0
C144 C 0.30353 0.90349 0.96713 0.0
C145 C 0.26554 0.89492 0.96535 0.0
N146 N 0.3002 0.9326 0.94061 0.0
N147 N 0.32333 0.92606 0.95177 0.0
C148 C 0.23171 0.9174 0.94036 0.0
H149 H 0.24246 0.94348 0.93102 0.0
H150 H 0.21386 0.91869 0.95253 0.0
H151 H 0.21344 0.89199 0.93101 0.0
C152 C 0.32652 0.06853 0.91634 0.0
N153 N 0.32219 0.03549 0.90891 0.0
N154 N 0.31467 0.01086 0.92339 0.0
C155 C 0.31384 0.02755 0.94054 0.0
C156 C 0.3211 0.0645 0.93659 0.0
C157 C 0.33929 0.1044 0.90451 0.0
H158 H 0.31631 0.09959 0.89387 0.0
H159 H 0.34517 0.12932 0.91396 0.0
H160 H 0.36553 0.11101 0.89599 0.0
O161 O 0.38188 0.02172 0.88605 0.0
O162 O 0.36735 0.9765 0.90888 0.0
H163 H 0.32025 0.03272 0.97237 0.0
H164 H 0.28225 0.98732 0.96338 0.0
C165 C 0.31204 0.01087 0.96054 0.0
H166 H 0.33156 -0.00121 0.96107 0.0
H167 H 0.3527 0.93752 0.94909 0.0
O168 O 0.34185 0.06401 0.86434 0.0
C169 C 0.39074 0.00076 0.89638 0.0
Co170 Co 0.97517 0.29763 0.8791 0.0
Co171 Co 0.03484 0.33537 0.91365 0.0
C172 C 0.05629 0.31213 0.87639 0.0
O173 O 0.02287 0.30087 0.86951 0.0
O174 O 0.06533 0.32526 0.89385 0.0
C175 C 0.93212 0.23361 0.85546 0.0
O176 O 0.95256 0.22194 0.86536 0.0
C177 C 0.09059 0.34577 0.94486 0.0
C178 C 0.07495 0.37362 0.96835 0.0
C179 C 0.09809 0.35782 0.96444 0.0
N180 N 0.06329 0.35283 0.93788 0.0
N181 N 0.05471 0.37023 0.95187 0.0
C182 C 0.10993 0.3293 0.93259 0.0
H183 H 0.08952 0.29834 0.92986 0.0
H184 H 0.13647 0.33298 0.93968 0.0
H185 H 0.1182 0.34423 0.91816 0.0
C186 C 0.9263 0.24976 0.91179 0.0
N187 N 0.96071 0.27627 0.90448 0.0
N188 N 0.98618 0.29012 0.91882 0.0
C189 C 0.9691 0.27122 0.93563 0.0
C190 C 0.93035 0.24544 0.93185 0.0
C191 C 0.88951 0.23308 0.90029 0.0
H192 H 0.89149 0.25355 0.88874 0.0
H193 H 0.88437 0.20615 0.89302 0.0
H194 H 0.86467 0.22638 0.91002 0.0
O195 O 0.98334 0.34932 0.87923 0.0
O196 O 0.02705 0.37798 0.90288 0.0
H197 H 0.99218 0.30226 0.96249 0.0
H198 H 0.97396 0.25124 0.96452 0.0
C199 C 0.9897 0.27673 0.95482 0.0
H200 H 0.01895 0.28134 0.95211 0.0
H201 H 0.03377 0.37827 0.95045 0.0
O202 O 0.9361 0.26636 0.85929 0.0
C203 C 0.00563 0.37909 0.88921 0.0
Co204 Co 0.96095 0.64572 0.44859 0.0
Co205 Co 0.01343 0.63879 0.41667 0.0
C206 C 0.98291 0.58605 0.45204 0.0
O207 O 0.96293 0.6006 0.45794 0.0
O208 O 0.00388 0.59848 0.43667 0.0
C209 C 0.8946 0.62269 0.47205 0.0
O210 O 0.88547 0.58851 0.46525 0.0
C211 C 0.02304 0.5947 0.38585 0.0
C212 C 0.07243 0.6382 0.36859 0.0
C213 C 0.04523 0.59932 0.36927 0.0
N214 N 0.03646 0.62909 0.39454 0.0
N215 N 0.06629 0.65499 0.38433 0.0
C216 C 0.98696 0.5593 0.39221 0.0
H217 H 0.96864 0.56712 0.4011 0.0
H218 H 0.97051 0.54204 0.37923 0.0
H219 H 0.99472 0.54145 0.40152 0.0
C220 C 0.91703 0.64394 0.41319 0.0
N221 N 0.94536 0.64071 0.42204 0.0
N222 N 0.96783 0.63873 0.40849 0.0
C223 C 0.95475 0.64128 0.39053 0.0
C224 C 0.922 0.64428 0.39294 0.0
C225 C 0.88859 0.65109 0.42392 0.0
H226 H 0.90397 0.6751 0.43452 0.0
H227 H 0.86875 0.62499 0.43244 0.0
H228 H 0.87145 0.65812 0.41364 0.0
O229 O 0.01246 0.69149 0.45194 0.0
O230 O 0.05 0.6889 0.42857 0.0
H231 H 0.0056 0.66593 0.37266 0.0
H232 H 0.9616 0.65068 0.3589 0.0
C233 C 0.97475 0.6437 0.37148 0.0
H234 H 0.97279 0.61565 0.36848 0.0
H235 H 0.08166 0.68425 0.38775 0.0
O236 O 0.92552 0.65191 0.46627 0.0
C237 C 0.04497 0.70564 0.44329 0.0
Co238 Co 0.3342 0.3077 0.45365 0.0
Co239 Co 0.35265 0.36784 0.4199 0.0
C240 C 0.39673 0.3902 0.45736 0.0
O241 O 0.37632 0.35631 0.46401 0.0
O242 O 0.3919 0.39906 0.44001 0.0
C243 C 0.3584 0.26807 0.47797 0.0
O244 O 0.3912 0.29155 0.46926 0.0
C245 C 0.39703 0.42625 0.38998 0.0
C246 C 0.35483 0.40989 0.36575 0.0
C247 C 0.39324 0.43426 0.37042 0.0
N248 N 0.36288 0.39747 0.39625 0.0
N249 N 0.33755 0.38847 0.38186 0.0
C250 C 0.43198 0.44624 0.40286 0.0
H251 H 0.42402 0.45439 0.41696 0.0
H252 H 0.44291 0.42633 0.40619 0.0
H253 H 0.45502 0.47292 0.39598 0.0
C254 C 0.33889 0.26266 0.42044 0.0
N255 N 0.34345 0.29562 0.42813 0.0
N256 N 0.35331 0.32143 0.41407 0.0
C257 C 0.3572 0.30618 0.39707 0.0
C258 C 0.34752 0.26816 0.40042 0.0
C259 C 0.32173 0.22549 0.43159 0.0
H260 H 0.30145 0.22464 0.44297 0.0
H261 H 0.34512 0.22319 0.43907 0.0
H262 H 0.30608 0.20046 0.4216 0.0
O263 O 0.2883 0.31203 0.4535 0.0
O264 O 0.30088 0.35613 0.43042 0.0
H265 H 0.34698 0.32877 0.37064 0.0
H266 H 0.38247 0.31401 0.36804 0.0
C267 C 0.37114 0.32787 0.37808 0.0
H268 H 0.39443 0.35766 0.38105 0.0
H269 H 0.30892 0.36637 0.3827 0.0
O270 O 0.32823 0.26877 0.47302 0.0
C271 C 0.27892 0.3332 0.4438 0.0
Co272 Co 0.68679 0.03157 0.45348 0.0
Co273 Co 0.62787 0.98871 0.41931 0.0
C274 C 0.60436 0.01317 0.4555 0.0
O275 O 0.63801 0.02674 0.46257 0.0
O276 O 0.59595 0.99838 0.43834 0.0
C277 C 0.72806 0.09653 0.47761 0.0
O278 O 0.70667 0.10762 0.46816 0.0
C279 C 0.57426 0.97845 0.38752 0.0
C280 C 0.58016 0.93839 0.3674 0.0
C281 C 0.56212 0.95999 0.36943 0.0
N282 N 0.59842 0.96832 0.39573 0.0
N283 N 0.6014 0.94392 0.38377 0.0
C284 C 0.56715 0.00895 0.39577 0.0
H285 H 0.59179 0.02923 0.40506 0.0
H286 H 0.56269 0.02516 0.38378 0.0
H287 H 0.54092 0.99518 0.40512 0.0
C288 C 0.73449 0.07816 0.41994 0.0
N289 N 0.70064 0.05117 0.42762 0.0
N290 N 0.67553 0.03439 0.4133 0.0
C291 C 0.69231 0.05126 0.39605 0.0
C292 C 0.73045 0.07925 0.3996 0.0
C293 C 0.77103 0.09864 0.43161 0.0
H294 H 0.77093 0.07984 0.44361 0.0
H295 H 0.77312 0.12481 0.43834 0.0
H296 H 0.79666 0.10727 0.42215 0.0
O297 O 0.68068 0.98051 0.45469 0.0
O298 O 0.63759 0.94836 0.43124 0.0
H299 H 0.66731 0.01274 0.37166 0.0
H300 H 0.68854 0.06302 0.36512 0.0
C301 C 0.672 0.04113 0.37655 0.0
H302 H 0.6437 0.03933 0.37813 0.0
H303 H 0.61902 0.93216 0.38646 0.0
O304 O 0.72543 0.06458 0.47316 0.0
C305 C 0.65944 0.94954 0.44529 0.0
Co306 Co 0.35743 -0.001 0.21405 0.0
Co307 Co 0.31939 0.02111 0.24847 0.0
C308 C 0.34097 0.06404 0.21043 0.0
O309 O 0.35227 0.04201 0.20341 0.0
O310 O 0.32856 0.06025 0.22803 0.0
C311 C 0.41934 0.01927 0.18851 0.0
O312 O 0.42858 0.05331 0.19556 0.0
C313 C 0.31383 0.06891 0.27985 0.0
C314 C 0.27734 0.02522 0.30188 0.0
C315 C 0.29913 0.0646 0.29888 0.0
N316 N 0.3024 0.03378 0.27234 0.0
N317 N 0.27998 0.0078 0.28544 0.0
C318 C 0.33711 0.10548 0.26853 0.0
H319 H 0.32519 0.10219 0.25348 0.0
H320 H 0.36724 0.11156 0.26724 0.0
H321 H 0.33657 0.13015 0.27553 0.0
C322 C 0.40887 0.00405 0.24656 0.0
N323 N 0.38054 0.00928 0.23929 0.0
N324 N 0.36526 0.01913 0.25375 0.0
C325 C 0.38423 0.02141 0.27063 0.0
C326 C 0.41233 0.01186 0.2666 0.0
C327 C 0.43043 0.9894 0.23476 0.0
H328 H 0.40996 0.96444 0.22572 0.0
H329 H 0.45055 0.0124 0.22464 0.0
H330 H 0.44742 0.98093 0.24432 0.0
O331 O 0.30605 0.95363 0.21558 0.0
O332 O 0.27736 0.96977 0.23879 0.0
H333 H 0.34364 0.00505 0.29419 0.0
H334 H 0.39305 0.02949 0.30225 0.0
C335 C 0.37311 0.02846 0.29061 0.0
H336 H 0.37328 0.05614 0.29054 0.0
H337 H 0.26768 0.97818 0.28347 0.0
O338 O 0.38887 0.98995 0.19468 0.0
C339 C 0.27656 0.94618 0.22588 0.0
Co340 Co 0.99041 0.3562 0.21241 0.0
Co341 Co 0.9722 0.29471 0.24579 0.0
C342 C 0.92606 0.27502 0.20852 0.0
O343 O 0.94651 0.309 0.20194 0.0
O344 O 0.93199 0.26549 0.22552 0.0
C345 C 0.97001 0.40074 0.18901 0.0
O346 O 0.93599 0.37623 0.19625 0.0
C347 C 0.92642 0.23917 0.2769 0.0
C348 C 0.97127 0.24788 0.29853 0.0
C349 C 0.93169 0.22906 0.29583 0.0
N350 N 0.96114 0.26394 0.26922 0.0
N351 N 0.98783 0.2683 0.28206 0.0
C352 C 0.8894 0.22464 0.26581 0.0
H353 H 0.89303 0.2171 0.25057 0.0
H354 H 0.88172 0.24761 0.26505 0.0
H355 H 0.86561 0.19844 0.27267 0.0
C356 C 0.98787 0.40074 0.24638 0.0
N357 N 0.98242 0.36769 0.23834 0.0
N358 N 0.97429 0.3421 0.2524 0.0
C359 C 0.97358 0.35809 0.26982 0.0
C360 C 0.98205 0.39556 0.26651 0.0
C361 C 0.00221 0.4377 0.23531 0.0
H362 H 0.02593 0.44213 0.22526 0.0
H363 H 0.97839 0.43609 0.22629 0.0
H364 H 0.01251 0.46263 0.24546 0.0
O365 O 0.03503 0.34908 0.21169 0.0
O366 O 0.02287 0.30479 0.23464 0.0
H367 H 0.99313 0.33502 0.29248 0.0
H368 H 0.96679 0.3574 0.30154 0.0
C369 C 0.96842 0.33943 0.28955 0.0
H370 H 0.94157 0.31113 0.28957 0.0
H371 H 0.01732 0.28661 0.27995 0.0
O372 O -0.001 0.398 0.19414 0.0
C373 C 0.04425 0.32731 0.22098 0.0
Co374 Co 0.63537 0.63727 0.21586 0.0
Co375 Co 0.69875 0.67955 0.24806 0.0
C376 C 0.71673 0.65528 0.2099 0.0
O377 O 0.6824 0.64222 0.20392 0.0
O378 O 0.7271 0.66958 0.22706 0.0
C379 C 0.59318 0.60707 0.17996 0.0
O380 O 0.62134 0.63834 0.17197 0.0
C381 C 0.75436 0.68526 0.27723 0.0
C382 C 0.7616 0.73301 0.29633 0.0
C383 C 0.77334 0.70604 0.29402 0.0
N384 N 0.73257 0.69927 0.27012 0.0
N385 N 0.73729 0.72808 0.28145 0.0
C386 C 0.75329 0.65005 0.26908 0.0
H387 H 0.72669 0.63285 0.2603 0.0
H388 H 0.75451 0.632 0.28115 0.0
H389 H 0.77843 0.65885 0.25922 0.0
C390 C 0.59311 0.58973 0.2499 0.0
N391 N 0.62598 0.61709 0.24162 0.0
N392 N 0.65228 0.63428 0.25537 0.0
C393 C 0.63706 0.61782 0.27294 0.0
C394 C 0.59897 0.58908 0.27006 0.0
C395 C 0.55557 0.56902 0.23905 0.0
H396 H 0.55218 0.58959 0.22952 0.0
H397 H 0.55573 0.54674 0.22943 0.0
H398 H 0.53059 0.55519 0.2492 0.0
O399 O 0.63984 0.68807 0.21641 0.0
O400 O 0.68679 0.71956 0.23834 0.0
H401 H 0.66652 0.66045 0.29523 0.0
H402 H 0.64109 0.6116 0.30459 0.0
C403 C 0.65831 0.63016 0.29215 0.0
H404 H 0.68494 0.62847 0.29109 0.0
H405 H 0.72327 0.74378 0.27927 0.0
O406 O 0.59312 0.60202 0.19846 0.0
C407 C 0.66226 0.71855 0.22596 0.0
Co408 Co 0.62707 0.98231 0.78586 0.0
Co409 Co 0.67249 0.96744 0.7527 0.0
C410 C 0.64791 0.92068 0.78949 0.0
O411 O 0.63282 0.93978 0.79598 0.0
O412 O 0.66353 0.9272 0.77253 0.0
C413 C 0.59993 0.99319 0.82243 0.0
O414 O 0.63274 0.99733 0.82881 0.0
C415 C 0.68344 0.92331 0.72181 0.0
C416 C 0.72651 0.96847 0.70233 0.0
C417 C 0.7035 0.92892 0.70427 0.0
N418 N 0.69405 0.95785 0.72978 0.0
N419 N 0.72018 0.98475 0.71821 0.0
C420 C 0.65127 0.8863 0.72974 0.0
H421 H 0.63155 0.89179 0.73888 0.0
H422 H 0.63477 0.86632 0.71755 0.0
H423 H 0.66349 0.87243 0.73917 0.0
C424 C 0.58097 0.98086 0.75198 0.0
N425 N 0.60827 0.97489 0.75993 0.0
N426 N 0.6263 0.96761 0.74586 0.0
C427 C 0.61013 0.96762 0.72839 0.0
C428 C 0.58105 0.97637 0.73166 0.0
C429 C 0.55968 0.99628 0.76346 0.0
H430 H 0.57946 0.01821 0.77414 0.0
H431 H 0.53613 0.97246 0.77193 0.0
H432 H 0.54732 0.00962 0.75377 0.0
O433 O 0.67738 0.0285 0.78704 0.0
O434 O 0.71123 0.0186 0.76413 0.0
H435 H 0.65177 0.98406 0.70526 0.0
H436 H 0.60233 0.95622 0.69692 0.0
C437 C 0.62267 0.95994 0.70893 0.0
H438 H 0.62419 0.93324 0.70993 0.0
H439 H 0.73274 0.01422 0.72084 0.0
O440 O 0.59184 0.98724 0.80419 0.0
C441 C 0.70876 0.03919 0.77781 0.0
Co442 Co 0.02244 0.65041 0.79102 0.0
Co443 Co 0.03106 0.70474 0.75571 0.0
C444 C 0.08574 0.73172 0.78996 0.0
O445 O 0.06996 0.69841 0.79761 0.0
O446 O 0.073 0.73825 0.77413 0.0
C447 C 0.04724 0.60956 0.81482 0.0
O448 O 0.0789 0.62951 0.80448 0.0
C449 C 0.07172 0.75874 0.72346 0.0
C450 C 0.02579 0.74209 0.70123 0.0
C451 C 0.06513 0.76518 0.70406 0.0
N452 N 0.03813 0.73197 0.73139 0.0
N453 N 0.01064 0.72282 0.71818 0.0
C454 C 0.10892 0.77831 0.73465 0.0
H455 H 0.10443 0.78923 0.74883 0.0
H456 H 0.11842 0.75725 0.73794 0.0
H457 H 0.13177 0.80324 0.72651 0.0
C458 C 0.01607 0.59901 0.7581 0.0
N459 N 0.02332 0.63335 0.76521 0.0
N460 N 0.02997 0.65716 0.75045 0.0
C461 C 0.02905 0.63917 0.73346 0.0
C462 C 0.01945 0.60143 0.73764 0.0
C463 C 0.00167 0.56359 0.77052 0.0
H464 H 0.98459 0.56474 0.78309 0.0
H465 H 0.02664 0.56203 0.77646 0.0
H466 H 0.98343 0.53722 0.7618 0.0
O467 O 0.97859 0.65877 0.79392 0.0
O468 O 0.98167 0.69462 0.7682 0.0
H469 H 0.01355 0.65906 0.70769 0.0
H470 H 0.04711 0.64242 0.70309 0.0
C471 C 0.03885 0.65818 0.71364 0.0
H472 H 0.0633 0.68792 0.71501 0.0
H473 H 0.98184 0.702 0.72039 0.0
O474 O 0.01807 0.61301 0.81111 0.0
C475 C 0.96518 0.67633 0.78396 0.0
Co476 Co 0.34774 0.36231 0.78333 0.0
Co477 Co 0.29175 0.31019 0.75009 0.0
C478 C 0.26599 0.3392 0.78496 0.0
O479 O 0.29989 0.36006 0.79153 0.0
O480 O 0.2594 0.31846 0.76966 0.0
C481 C 0.38897 0.42729 0.80801 0.0
O482 O 0.36381 0.43626 0.80116 0.0
C483 C 0.24152 0.30586 0.71859 0.0
C484 C 0.23039 0.25449 0.70151 0.0
C485 C 0.22221 0.28427 0.70208 0.0
N486 N 0.25993 0.2896 0.7273 0.0
N487 N 0.25301 0.2587 0.71715 0.0
C488 C 0.24581 0.34343 0.72518 0.0
H489 H 0.27221 0.35968 0.73421 0.0
H490 H 0.24705 0.36109 0.71229 0.0
H491 H 0.22074 0.33782 0.73447 0.0
C492 C 0.3929 0.4075 0.7489 0.0
N493 N 0.36073 0.37869 0.75704 0.0
N494 N 0.33794 0.35619 0.74299 0.0
C495 C 0.35532 0.36968 0.72541 0.0
C496 C 0.3905 0.40276 0.72859 0.0
C497 C 0.42705 0.43622 0.76047 0.0
H498 H 0.43545 0.42098 0.77128 0.0
H499 H 0.4191 0.455 0.76881 0.0
H500 H 0.45199 0.45435 0.7508 0.0
O501 O 0.3416 0.31064 0.78648 0.0
O502 O 0.30474 0.27303 0.76214 0.0
H503 H 0.32924 0.31888 0.70751 0.0
H504 H 0.36127 0.3624 0.69411 0.0
C505 C 0.33954 0.35005 0.70607 0.0
H506 H 0.31472 0.35351 0.70189 0.0
H507 H 0.26424 0.24094 0.72067 0.0
O508 O 0.38806 0.39696 0.80188 0.0
C509 C 0.32499 0.27831 0.7776 0.0
Co510 Co 0.03003 0.34581 0.54879 0.0
Co511 Co 0.98547 0.35906 0.5833 0.0
C512 C 0.00764 0.40601 0.54618 0.0
O513 O 0.02318 0.3877 0.53926 0.0
O514 O 0.99263 0.3989 0.56331 0.0
C515 C 0.09276 0.37004 0.52308 0.0
O516 O 0.10324 0.40324 0.53159 0.0
C517 C 0.97757 0.40359 0.61558 0.0
C518 C 0.94115 0.3582 0.63689 0.0
C519 C 0.96277 0.39781 0.63466 0.0
N520 N 0.96651 0.36909 0.60733 0.0
N521 N 0.94403 0.34209 0.62 0.0
C522 C 0.00091 0.44101 0.60496 0.0
H523 H 0.03129 0.44776 0.60398 0.0
H524 H -0.00059 0.46487 0.61232 0.0
H525 H 0.98976 0.43864 0.5898 0.0
C526 C 0.08013 0.34988 0.58157 0.0
N527 N 0.05123 0.35416 0.57428 0.0
N528 N 0.03249 0.35904 0.58893 0.0
C529 C 0.0492 0.35803 0.60607 0.0
C530 C 0.07986 0.35232 0.60194 0.0
C531 C 0.10403 0.33847 0.56946 0.0
H532 H 0.0852 0.31472 0.55933 0.0
H533 H 0.12447 0.36336 0.56037 0.0
H534 H 0.12069 0.32932 0.57885 0.0
O535 O 0.97948 0.29964 0.54853 0.0
O536 O 0.94589 0.30776 0.57227 0.0
H537 H 0.00512 0.33389 0.62802 0.0
H538 H 0.05333 0.35872 0.63796 0.0
C539 C 0.03435 0.35913 0.62616 0.0
H540 H 0.03262 0.38568 0.62773 0.0
H541 H 0.93209 0.31265 0.61746 0.0
O542 O 0.06243 0.34017 0.52886 0.0
C543 C 0.9483 0.28801 0.55812 0.0
Co544 Co 0.64378 0.68079 0.54776 0.0
Co545 Co 0.63934 0.625 0.58119 0.0
C546 C 0.58235 0.59983 0.5475 0.0
O547 O 0.59638 0.63357 0.54057 0.0
O548 O 0.59683 0.59301 0.5626 0.0
C549 C 0.62001 0.72308 0.52394 0.0
O550 O 0.58678 0.70098 0.53263 0.0
C551 C 0.59529 0.5748 0.61302 0.0
C552 C 0.63662 0.56358 0.62904 0.0
C553 C 0.59849 0.55498 0.62902 0.0
N554 N 0.62961 0.59382 0.60399 0.0
N555 N 0.65427 0.58695 0.61354 0.0
C556 C 0.56132 0.57855 0.6071 0.0
H557 H 0.57087 0.60567 0.59881 0.0
H558 H 0.54454 0.57798 0.62025 0.0
H559 H 0.5424 0.55423 0.59727 0.0
C560 C 0.64759 0.72797 0.5823 0.0
N561 N 0.64292 0.69529 0.57415 0.0
N562 N 0.64144 0.67201 0.58825 0.0
C563 C 0.64537 0.68935 0.60583 0.0
C564 C 0.64898 0.72508 0.60261 0.0
C565 C 0.6536 0.76236 0.57082 0.0
H566 H 0.67585 0.76934 0.55932 0.0
H567 H 0.62634 0.75553 0.5633 0.0
H568 H 0.6625 0.78772 0.58051 0.0
O569 O 0.68771 0.67226 0.54359 0.0
O570 O 0.68782 0.63555 0.56815 0.0
H571 H 0.66884 0.66215 0.62381 0.0
H572 H 0.6591 0.69558 0.63702 0.0
C573 C 0.64875 0.67344 0.62522 0.0
H574 H 0.62011 0.64936 0.62954 0.0
H575 H 0.68312 0.59841 0.60958 0.0
O576 O 0.64915 0.72036 0.52878 0.0
C577 C 0.70252 0.65466 0.55237 0.0
Co578 Co 0.31008 0.96383 0.54701 0.0
Co579 Co 0.3669 0.01006 0.58132 0.0
C580 C 0.39181 0.98428 0.54532 0.0
O581 O 0.35782 0.96552 0.53851 0.0
O582 O 0.39909 0.00325 0.5613 0.0
C583 C 0.26662 0.89848 0.52359 0.0
O584 O 0.28798 0.88696 0.53272 0.0
C585 C 0.42421 0.02326 0.61162 0.0
C586 C 0.40901 0.05096 0.63538 0.0
C587 C 0.43213 0.03526 0.63116 0.0
N588 N 0.39654 0.03001 0.60496 0.0
N589 N 0.38832 0.04751 0.61906 0.0
C590 C 0.44319 0.0067 0.59912 0.0
H591 H 0.45253 0.02268 0.585 0.0
H592 H 0.4222 0.97614 0.59577 0.0
H593 H 0.46913 0.00906 0.60629 0.0
C594 C 0.26209 0.91755 0.58049 0.0
N595 N 0.29565 0.94525 0.57289 0.0
N596 N 0.32039 0.96285 0.58726 0.0
C597 C 0.30377 0.94552 0.60447 0.0
C598 C 0.26606 0.91665 0.60081 0.0
C599 C 0.22568 0.89616 0.56879 0.0
H600 H 0.22502 0.91471 0.55686 0.0
H601 H 0.22453 0.87045 0.56201 0.0
H602 H 0.19987 0.88666 0.57822 0.0
O603 O 0.31718 0.01549 0.54513 0.0
O604 O 0.35458 0.04875 0.57032 0.0
H605 H 0.32435 0.9816 0.62996 0.0
H606 H 0.30889 0.93178 0.63478 0.0
C607 C 0.3238 0.9556 0.62402 0.0
H608 H 0.35371 0.96152 0.62225 0.0
H609 H 0.36706 0.05516 0.61791 0.0
O610 O 0.27062 0.93108 0.52779 0.0
C611 C 0.33475 0.04641 0.5551 0.0
C612 C 0.37526 0.20904 0.02743 0.0
C613 C 0.37415 0.24215 0.02206 0.0
C614 C 0.36768 0.18019 0.01352 0.0
C615 C 0.35837 0.18451 0.99388 0.0
C616 C 0.35783 0.21824 0.98834 0.0
C617 C 0.36612 0.24688 0.00248 0.0
C618 C 0.36929 0.14498 0.01988 0.0
C619 C 0.34762 0.22367 0.96759 0.0
C620 C 0.36841 0.12536 0.95306 0.0
C621 C 0.33042 0.09527 0.95108 0.0
C622 C 0.37802 0.15449 0.96707 0.0
C623 C 0.34876 0.15354 0.97917 0.0
C624 C 0.31025 0.12306 0.97715 0.0
C625 C 0.3016 0.094 0.9632 0.0
C626 C 0.41946 0.18613 0.96899 0.0
C627 C 0.27823 0.12131 0.98964 0.0
H628 H 0.38209 0.20575 0.04252 0.0
H629 H 0.36512 0.27246 0.99838 0.0
H630 H 0.34058 0.11894 0.01802 0.0
H631 H 0.38977 0.14126 0.01041 0.0
H632 H 0.37829 0.14668 0.03553 0.0
H633 H 0.3488 0.25172 0.96564 0.0
H634 H 0.36761 0.22194 0.95687 0.0
H635 H 0.31814 0.20025 0.96391 0.0
H636 H 0.39063 0.12581 0.94375 0.0
H637 H 0.27229 0.07042 0.96162 0.0
H638 H 0.42965 0.18702 0.98431 0.0
H639 H 0.42187 0.21442 0.96599 0.0
H640 H 0.43881 0.18226 0.95869 0.0
H641 H 0.28437 0.12001 0.0055 0.0
H642 H 0.24979 0.09596 0.98605 0.0
H643 H 0.27648 0.14778 0.98744 0.0
C644 C 0.78467 0.11166 0.01533 0.0
C645 C 0.75326 0.11755 0.01776 0.0
C646 C 0.813 0.13199 0.00106 0.0
C647 C 0.80867 0.15719 0.9881 0.0
C648 C 0.77569 0.16135 0.98959 0.0
C649 C 0.7485 0.1417 0.00454 0.0
C650 C 0.84797 0.12712 1.00017 0.0
C651 C 0.76934 0.18682 0.97553 0.0
C652 C 0.89841 0.23852 0.96455 0.0
C653 C 0.89932 0.22256 0.94629 0.0
C654 C 0.86925 0.21742 0.97833 0.0
C655 C 0.83934 0.18001 0.97343 0.0
C656 C 0.8395 0.16408 0.9548 0.0
C657 C 0.86992 0.18529 0.94161 0.0
C658 C 0.87068 0.23506 0.99823 0.0
C659 C 0.80753 0.12473 0.94879 0.0
H660 H 0.78725 0.09108 0.02458 0.0
H661 H 0.72373 0.14557 0.00603 0.0
H662 H 0.84985 0.1159 0.98551 0.0
H663 H 0.87451 0.15545 0.0021 0.0
H664 H 0.84743 0.10719 0.0117 0.0
H665 H 0.74078 0.18451 0.97764 0.0
H666 H 0.79202 0.21724 0.9777 0.0
H667 H 0.77156 0.17911 0.96004 0.0
H668 H 0.92037 0.2677 0.96805 0.0
H669 H 0.87064 0.17269 0.92759 0.0
H670 H 0.87067 0.21606 0.01014 0.0
H671 H 0.84471 0.23778 1.00031 0.0
H672 H 0.89662 0.26396 0.99996 0.0
H673 H 0.80753 0.10248 0.95849 0.0
H674 H 0.81041 0.11777 0.93324 0.0
H675 H 0.77919 0.12299 0.9506 0.0
C676 C 0.8734 0.62527 0.00176 0.0
C677 C 0.86369 0.62325 0.02174 0.0
C678 C 0.85276 0.63253 0.98729 0.0
C679 C 0.82132 0.63715 0.993 0.0
C680 C 0.81049 0.63354 0.01312 0.0
C681 C 0.83194 0.62677 0.02727 0.0
C682 C 0.86533 0.63647 0.96601 0.0
C683 C 0.77673 0.6376 0.01974 0.0
C684 C 0.79231 0.69517 0.96023 0.0
C685 C 0.76059 0.66605 0.95031 0.0
C686 C 0.81262 0.68614 0.97406 0.0
C687 C 0.80054 0.64705 0.97805 0.0
C688 C 0.76834 0.61756 0.96797 0.0
C689 C 0.74876 0.62749 0.95412 0.0
C690 C 0.84691 0.71836 0.98445 0.0
C691 C 0.75443 0.57562 0.97192 0.0
H692 H 0.89802 0.62257 0.99752 0.0
H693 H 0.82398 0.62439 0.0427 0.0
H694 H 0.84084 0.61631 0.9566 0.0
H695 H 0.87465 0.66601 0.96072 0.0
H696 H 0.88947 0.6307 0.96392 0.0
H697 H 0.7709 0.63207 0.03579 0.0
H698 H 0.78244 0.66708 0.01649 0.0
H699 H 0.75044 0.61728 0.01146 0.0
H700 H 0.80119 0.72497 0.95713 0.0
H701 H 0.72404 0.60517 0.94632 0.0
H702 H 0.87285 0.71577 0.98188 0.0
H703 H 0.84173 0.71632 0.0006 0.0
H704 H 0.85301 0.74718 0.97936 0.0
H705 H 0.77784 0.56922 0.96889 0.0
H706 H 0.72904 0.55626 0.96276 0.0
H707 H 0.74655 0.56903 0.98771 0.0
C708 C 0.70101 0.89227 0.04548 0.0
C709 C 0.67501 0.90496 0.04954 0.0
C710 C 0.69174 0.8626 0.03181 0.0
C711 C 0.65539 0.84503 0.02229 0.0
C712 C 0.62877 0.85739 0.02671 0.0
C713 C 0.63903 0.88744 0.04024 0.0
C714 C 0.72103 0.85051 0.0273 0.0
C715 C 0.58958 0.83907 0.01709 0.0
C716 C 0.64538 0.79593 0.97301 0.0
C717 C 0.62924 0.75727 0.97858 0.0
C718 C 0.65422 0.82476 0.9871 0.0
C719 C 0.64572 0.81458 0.00722 0.0
C720 C 0.62805 0.77543 0.01287 0.0
C721 C 0.62006 0.74722 0.99847 0.0
C722 C 0.67296 0.86618 0.98046 0.0
C723 C 0.61794 0.7634 0.03415 0.0
H724 H 0.72878 0.90598 0.0528 0.0
H725 H 0.61891 0.89724 0.04363 0.0
H726 H 0.70858 0.81934 0.03027 0.0
H727 H 0.72877 0.8552 0.01142 0.0
H728 H 0.74773 0.8667 0.03618 0.0
H729 H 0.5717 0.85101 0.02275 0.0
H730 H 0.5928 0.84358 0.00089 0.0
H731 H 0.57399 0.80756 0.01968 0.0
H732 H 0.6509 0.80379 0.9576 0.0
H733 H 0.60721 0.71733 0.00284 0.0
H734 H 0.70085 0.88352 0.9882 0.0
H735 H 0.65443 0.87843 0.98439 0.0
H736 H 0.67827 0.86933 0.9643 0.0
H737 H 0.64445 0.77667 0.04328 0.0
H738 H 0.60319 0.73169 0.03602 0.0
H739 H 0.59892 0.77385 0.03994 0.0
C740 C 0.24282 0.8731 0.99977 0.0
C741 C 0.23418 0.87244 0.97966 0.0
C742 C 0.21363 0.8528 0.0137 0.0
C743 C 0.17485 0.83145 0.00738 0.0
C744 C 0.16599 0.83013 0.98707 0.0
C745 C 0.19583 0.85019 0.97344 0.0
C746 C 0.22427 0.85435 0.03519 0.0
C747 C 0.12497 0.80763 0.97975 0.0
C748 C 0.10138 0.75166 0.04009 0.0
C749 C 0.08376 0.77001 0.04936 0.0
C750 C 0.13132 0.77142 0.02649 0.0
C751 C 0.14351 0.8103 0.02198 0.0
C752 C 0.12562 0.82888 0.03134 0.0
C753 C 0.09605 0.80851 0.04508 0.0
C754 C 0.15001 0.75077 0.01704 0.0
C755 C 0.13755 0.87015 0.02673 0.0
H756 H 0.27244 0.88996 0.00467 0.0
H757 H 0.18899 0.84797 0.95789 0.0
H758 H 0.21019 0.86715 0.04402 0.0
H759 H 0.21367 0.82482 0.04088 0.0
H760 H 0.25587 0.87153 0.03763 0.0
H761 H 0.12284 0.81032 0.96355 0.0
H762 H 0.11249 0.77675 0.98347 0.0
H763 H 0.1071 0.81786 0.98722 0.0
H764 H 0.09188 0.72189 0.04365 0.0
H765 H 0.08225 0.82249 0.05237 0.0
H766 H 0.18137 0.76641 0.0202 0.0
H767 H 0.14661 0.75023 0.00078 0.0
H768 H 0.13751 0.72071 0.0224 0.0
H769 H 0.1685 0.88913 0.03022 0.0
H770 H 0.12053 0.88026 0.03517 0.0
H771 H 0.13387 0.87329 0.01074 0.0
C772 C 0.24881 0.3412 0.03505 0.0
C773 C 0.23094 0.31803 0.05157 0.0
C774 C 0.22736 0.34787 0.02085 0.0
C775 C 0.18726 0.33215 0.02362 0.0
C776 C 0.16923 0.30966 0.04059 0.0
C777 C 0.19123 0.30244 0.05424 0.0
C778 C 0.24755 0.37139 0.00279 0.0
C779 C 0.12672 0.29323 0.04434 0.0
C780 C 0.13928 0.37798 0.9947 0.0
C781 C 0.12158 0.35154 0.9793 0.0
C782 C 0.16032 0.37182 0.00941 0.0
C783 C 0.16414 0.33864 0.00853 0.0
C784 C 0.14605 0.31168 0.99313 0.0
C785 C 0.12427 0.31801 0.97899 0.0
C786 C 0.17827 0.40069 0.02593 0.0
C787 C 0.14973 0.27613 0.99155 0.0
H788 H 0.27969 0.35426 0.03323 0.0
H789 H 0.17736 0.28453 0.06701 0.0
H790 H 0.23405 0.3543 0.98927 0.0
H791 H 0.2444 0.39728 0.00212 0.0
H792 H 0.27873 0.38075 0.00262 0.0
H793 H 0.11759 0.27826 0.05879 0.0
H794 H 0.11947 0.31652 0.04398 0.0
H795 H 0.10978 0.2725 0.03252 0.0
H796 H 0.13663 0.40355 0.99527 0.0
H797 H 0.10878 0.29622 0.96791 0.0
H798 H 0.21002 0.41355 0.02566 0.0
H799 H 0.16801 0.3861 0.04039 0.0
H800 H 0.17138 0.42421 0.02489 0.0
H801 H 0.1806 0.28439 0.99111 0.0
H802 H 0.13533 0.2589 0.97817 0.0
H803 H 0.13688 0.25768 0.00472 0.0
C804 C 0.04203 0.57973 0.3341 0.0
C805 C 0.03895 0.57022 0.35416 0.0
C806 C 0.03361 0.55181 0.31951 0.0
C807 C 0.02234 0.51366 0.32519 0.0
C808 C 0.02043 0.50425 0.34544 0.0
C809 C 0.02883 0.53271 0.3597 0.0
C810 C 0.03596 0.56289 0.29805 0.0
C811 C 0.00904 0.46402 0.35206 0.0
C812 C 0.96382 0.43235 0.28928 0.0
C813 C 0.99217 0.4257 0.28142 0.0
C814 C 0.97329 0.46111 0.30351 0.0
C815 C 0.01198 0.48342 0.30996 0.0
C816 C 0.04066 0.4766 0.30197 0.0
C817 C 0.03035 0.44772 0.28773 0.0
C818 C 0.94196 0.4676 0.31168 0.0
C819 C 0.08215 0.49968 0.3085 0.0
H820 H 0.04993 0.60879 0.32981 0.0
H821 H 0.02752 0.52559 0.3752 0.0
H822 H 0.05579 0.55588 0.29002 0.0
H823 H 0.00718 0.54607 0.29108 0.0
H824 H 0.04614 0.594 0.2961 0.0
H825 H 0.00981 0.46166 0.36837 0.0
H826 H 0.97949 0.44349 0.34684 0.0
H827 H 0.02863 0.45505 0.34544 0.0
H828 H 0.93431 0.41505 0.28425 0.0
H829 H 0.05206 0.44222 0.28151 0.0
H830 H 0.94925 0.49776 0.309 0.0
H831 H 0.93974 0.46307 0.32789 0.0
H832 H 0.91342 0.44804 0.30497 0.0
H833 H 0.09336 0.5307 0.30564 0.0
H834 H 0.10089 0.49077 0.30079 0.0
H835 H 0.08421 0.49629 0.32463 0.0
C836 C 0.56443 0.58508 0.30147 0.0
C837 C 0.56942 0.56666 0.28512 0.0
C838 C 0.53596 0.56421 0.31561 0.0
C839 C 0.51106 0.52423 0.31292 0.0
C840 C 0.51551 0.50563 0.2962 0.0
C841 C 0.54504 0.52703 0.28264 0.0
C842 C 0.53264 0.58488 0.33346 0.0
C843 C 0.48896 0.46321 0.29258 0.0
C844 C 0.45999 0.46099 0.35699 0.0
C845 C 0.42382 0.45842 0.35613 0.0
C846 C 0.48893 0.48314 0.34333 0.0
C847 C 0.48092 0.50167 0.32782 0.0
C848 C 0.44404 0.49815 0.32643 0.0
C849 C 0.41597 0.47671 0.34069 0.0
C850 C 0.528 0.4865 0.34544 0.0
C851 C 0.43413 0.5166 0.30974 0.0
H852 H 0.58265 0.61593 0.30313 0.0
H853 H 0.5489 0.51284 0.26995 0.0
H854 H 0.50381 0.58237 0.33382 0.0
H855 H 0.53552 0.57131 0.34714 0.0
H856 H 0.55492 0.61587 0.3336 0.0
H857 H 0.49512 0.45357 0.27836 0.0
H858 H 0.49184 0.44623 0.30469 0.0
H859 H 0.45856 0.45658 0.29248 0.0
H860 H 0.46559 0.44504 0.36811 0.0
H861 H 0.38776 0.47408 0.33972 0.0
H862 H 0.55083 0.51724 0.34579 0.0
H863 H 0.53382 0.47321 0.33251 0.0
H864 H 0.53026 0.4723 0.35904 0.0
H865 H 0.45366 0.54821 0.30998 0.0
H866 H 0.40392 0.51052 0.31058 0.0
H867 H 0.43837 0.50597 0.29538 0.0
C868 C 0.50604 0.96719 0.35931 0.0
C869 C 0.53907 0.96564 0.35416 0.0
C870 C 0.48491 0.97405 0.34497 0.0
C871 C 0.49731 0.97968 0.32505 0.0
C872 C 0.53036 0.97755 0.31975 0.0
C873 C 0.55066 0.97021 0.33437 0.0
C874 C 0.44944 0.97543 0.35113 0.0
C875 C 0.54466 0.9837 0.29871 0.0
C876 C 0.42566 0.96592 0.28475 0.0
C877 C 0.43484 0.00387 0.28111 0.0
C878 C 0.44573 0.95758 0.29905 0.0
C879 C 0.47586 0.98805 0.30978 0.0
C880 C 0.48535 0.02653 0.30599 0.0
C881 C 0.46446 0.03396 0.29175 0.0
C882 C 0.43445 0.91619 0.30282 0.0
C883 C 0.5175 0.05979 0.31699 0.0
H884 H 0.49659 0.96282 0.37455 0.0
H885 H 0.57626 0.96905 0.33039 0.0
H886 H 0.45319 0.00415 0.34774 0.0
H887 H 0.42409 0.95394 0.34264 0.0
H888 H 0.44319 0.96964 0.36713 0.0
H889 H 0.57068 0.98086 0.29702 0.0
H890 H 0.52177 0.96257 0.28884 0.0
H891 H 0.55167 0.01279 0.29367 0.0
H892 H 0.40237 0.94275 0.27657 0.0
H893 H 0.47124 0.06326 0.28887 0.0
H894 H 0.42574 0.90872 0.31846 0.0
H895 H 0.45947 0.91206 0.30023 0.0
H896 H 0.41031 0.89589 0.29323 0.0
H897 H 0.51116 0.0568 0.33304 0.0
H898 H 0.52176 0.08802 0.31199 0.0
H899 H 0.54485 0.0596 0.31491 0.0
C900 C 0.35366 0.21172 0.38962 0.0
C901 C 0.34204 0.23864 0.38557 0.0
C902 C 0.34676 0.18248 0.37607 0.0
C903 C 0.32892 0.18093 0.35778 0.0
C904 C 0.31784 0.20853 0.35347 0.0
C905 C 0.3239 0.23658 0.36756 0.0
C906 C 0.35811 0.15299 0.38141 0.0
C907 C 0.29951 0.20839 0.33397 0.0
C908 C 0.34323 0.1279 0.31517 0.0
C909 C 0.30703 0.09443 0.31398 0.0
C910 C 0.35063 0.15645 0.32922 0.0
C911 C 0.32179 0.15052 0.34309 0.0
C912 C 0.28584 0.11592 0.34263 0.0
C913 C 0.2788 0.08841 0.32798 0.0
C914 C 0.38917 0.19316 0.32906 0.0
C915 C 0.25478 0.10801 0.35757 0.0
H916 H 0.36795 0.21339 0.40346 0.0
H917 H 0.31391 0.25664 0.36454 0.0
H918 H 0.33261 0.12366 0.38054 0.0
H919 H 0.37965 0.1542 0.37074 0.0
H920 H 0.37046 0.15745 0.3965 0.0
H921 H 0.29436 0.23303 0.33254 0.0
H922 H 0.31825 0.20957 0.32162 0.0
H923 H 0.27159 0.18131 0.33236 0.0
H924 H 0.36608 0.13177 0.30527 0.0
H925 H 0.25105 0.0622 0.32742 0.0
H926 H 0.40424 0.1966 0.34328 0.0
H927 H 0.38488 0.21827 0.3274 0.0
H928 H 0.40805 0.19376 0.3169 0.0
H929 H 0.26635 0.11106 0.37275 0.0
H930 H 0.22936 0.07874 0.35593 0.0
H931 H 0.24514 0.12938 0.35591 0.0
C932 C 0.86809 0.20792 0.31244 0.0
C933 C 0.90256 0.20698 0.31127 0.0
C934 C 0.84042 0.18696 0.32691 0.0
C935 C 0.84827 0.1663 0.34132 0.0
C936 C 0.88382 0.16678 0.34087 0.0
C937 C 0.91036 0.1868 0.32573 0.0
C938 C 0.80263 0.18675 0.32669 0.0
C939 C 0.89386 0.14628 0.3564 0.0
C940 C 0.78766 0.14054 0.38802 0.0
C941 C 0.7611 0.10154 0.38488 0.0
C942 C 0.817 0.16174 0.37427 0.0
C943 C 0.81895 0.14376 0.35666 0.0
C944 C 0.79214 0.10438 0.35342 0.0
C945 C 0.76411 0.08358 0.36777 0.0
C946 C 0.8458 0.20335 0.37856 0.0
C947 C 0.79264 0.08436 0.33464 0.0
H948 H 0.86279 0.22549 0.30225 0.0
H949 H 0.93733 0.18669 0.32522 0.0
H950 H 0.77828 0.15669 0.32617 0.0
H951 H 0.79949 0.19995 0.34041 0.0
H952 H 0.80024 0.20267 0.31386 0.0
H953 H 0.92355 0.15126 0.3546 0.0
H954 H 0.8912 0.15613 0.37132 0.0
H955 H 0.87336 0.11489 0.35569 0.0
H956 H 0.78541 0.15456 0.40121 0.0
H957 H 0.74442 0.05315 0.36554 0.0
H958 H 0.84258 0.22216 0.36767 0.0
H959 H 0.87556 0.20843 0.37712 0.0
H960 H 0.84219 0.2121 0.3936 0.0
H961 H 0.78964 0.09959 0.32169 0.0
H962 H 0.76912 0.05386 0.33419 0.0
H963 H 0.82059 0.08519 0.33314 0.0
C964 C 0.91989 0.6898 0.36882 0.0
C965 C 0.90164 0.65356 0.37778 0.0
C966 C 0.90038 0.69974 0.35495 0.0
C967 C 0.86193 0.6725 0.34984 0.0
C968 C 0.84361 0.63562 0.35876 0.0
C969 C 0.86366 0.62672 0.37283 0.0
C970 C 0.92064 0.73953 0.34603 0.0
C971 C 0.80285 0.60566 0.35349 0.0
C972 C 0.79655 0.70627 0.32823 0.0
C973 C 0.79764 0.69913 0.30805 0.0
C974 C 0.81786 0.69835 0.34196 0.0
C975 C 0.84063 0.68269 0.33536 0.0
C976 C 0.84265 0.67634 0.31496 0.0
C977 C 0.82158 0.68519 0.30153 0.0
C978 C 0.81555 0.70621 0.36357 0.0
C979 C 0.86661 0.65966 0.30736 0.0
H980 H 0.94926 0.71052 0.37293 0.0
H981 H 0.84976 0.59878 0.37993 0.0
H982 H 0.92144 0.73759 0.32973 0.0
H983 H 0.90448 0.75457 0.34952 0.0
H984 H 0.95061 0.75723 0.35153 0.0
H985 H 0.79325 0.578 0.3613 0.0
H986 H 0.7829 0.61631 0.35727 0.0
H987 H 0.80053 0.60024 0.33735 0.0
H988 H 0.7784 0.71739 0.33337 0.0
H989 H 0.82406 0.68128 0.28591 0.0
H990 H 0.84488 0.72515 0.36956 0.0
H991 H 0.80277 0.67888 0.372 0.0
H992 H 0.79792 0.72006 0.36618 0.0
H993 H 0.8972 0.67844 0.31158 0.0
H994 H 0.86491 0.65624 0.29105 0.0
H995 H 0.85675 0.6311 0.31419 0.0
C996 C 0.62844 0.75868 0.62622 0.0
C997 C 0.65807 0.75541 0.6173 0.0
C998 C 0.6367 0.78726 0.64041 0.0
C999 C 0.67553 0.81298 0.64568 0.0
C1000 C 0.70554 0.80963 0.63659 0.0
C1001 C 0.69639 0.78075 0.62247 0.0
C1002 C 0.60394 0.78991 0.64977 0.0
C1003 C 0.74723 0.83647 0.64181 0.0
C1004 C 0.69796 0.90782 0.66922 0.0
C1005 C 0.6984 0.89986 0.68933 0.0
C1006 C 0.69094 0.87993 0.65482 0.0
C1007 C 0.68464 0.84338 0.6607 0.0
C1008 C 0.68627 0.83563 0.68095 0.0
C1009 C 0.69321 0.86403 0.69503 0.0
C1010 C 0.68943 0.88927 0.63337 0.0
C1011 C 0.68016 0.79716 0.68776 0.0
H1012 H 0.59884 0.7388 0.6221 0.0
H1013 H 0.71912 0.77786 0.61544 0.0
H1014 H 0.60427 0.78637 0.66599 0.0
H1015 H 0.60751 0.81877 0.64702 0.0
H1016 H 0.57541 0.76777 0.644 0.0
H1017 H 0.76708 0.82996 0.6334 0.0
H1018 H 0.75497 0.86665 0.63876 0.0
H1019 H 0.75179 0.83444 0.65781 0.0
H1020 H 0.70205 0.93557 0.66477 0.0
H1021 H 0.69466 0.8582 0.71052 0.0
H1022 H 0.66032 0.86964 0.62732 0.0
H1023 H 0.71023 0.8847 0.62466 0.0
H1024 H 0.69606 0.91941 0.63121 0.0
H1025 H 0.65092 0.77405 0.6835 0.0
H1026 H 0.68333 0.79607 0.704 0.0
H1027 H 0.70112 0.79085 0.68042 0.0
C1028 C 0.23157 0.91147 0.63242 0.0
C1029 C 0.23553 0.89379 0.61545 0.0
C1030 C 0.20314 0.89029 0.64652 0.0
C1031 C 0.17716 0.85073 0.64323 0.0
C1032 C 0.18027 0.83293 0.62582 0.0
C1033 C 0.20983 0.85458 0.61227 0.0
C1034 C 0.20128 0.91014 0.66508 0.0
C1035 C 0.15252 0.79103 0.62155 0.0
C1036 C 0.12884 0.78738 0.6877 0.0
C1037 C 0.09367 0.78697 0.68842 0.0
C1038 C 0.15635 0.80829 0.67318 0.0
C1039 C 0.14775 0.82775 0.6584 0.0
C1040 C 0.1115 0.82584 0.65842 0.0
C1041 C 0.08494 0.80562 0.67353 0.0
C1042 C 0.1948 0.80991 0.67381 0.0
C1043 C 0.10086 0.84524 0.64255 0.0
H1044 H 0.25069 0.942 0.63468 0.0
H1045 H 0.21292 0.8408 0.5992 0.0
H1046 H 0.17276 0.90816 0.66625 0.0
H1047 H 0.20463 0.89556 0.67822 0.0
H1048 H 0.22399 0.94097 0.66551 0.0
H1049 H 0.1571 0.78233 0.60669 0.0
H1050 H 0.1559 0.77278 0.63274 0.0
H1051 H 0.12241 0.78511 0.62255 0.0
H1052 H 0.13486 0.77104 0.69839 0.0
H1053 H 0.05739 0.80457 0.67376 0.0
H1054 H 0.21841 0.84029 0.67458 0.0
H1055 H 0.19908 0.7974 0.66011 0.0
H1056 H 0.19734 0.79413 0.68665 0.0
H1057 H 0.12049 0.87681 0.64318 0.0
H1058 H 0.07075 0.8392 0.64405 0.0
H1059 H 0.10435 0.83545 0.62777 0.0
C1060 C 0.08135 0.30558 0.62545 0.0
C1061 C 0.10069 0.34134 0.61603 0.0
C1062 C 0.10053 0.29456 0.63899 0.0
C1063 C 0.13978 0.3203 0.64338 0.0
C1064 C 0.15941 0.35648 0.63376 0.0
C1065 C 0.13963 0.36643 0.62001 0.0
C1066 C 0.07876 0.2555 0.64864 0.0
C1067 C 0.20106 0.38491 0.63827 0.0
C1068 C 0.17783 0.30893 0.69274 0.0
C1069 C 0.19977 0.29208 0.68721 0.0
C1070 C 0.15842 0.31849 0.67861 0.0
C1071 C 0.15995 0.30988 0.65849 0.0
C1072 C 0.1807 0.29139 0.65289 0.0
C1073 C 0.20045 0.2828 0.66731 0.0
C1074 C 0.13658 0.33816 0.68521 0.0
C1075 C 0.18233 0.28102 0.63163 0.0
H1076 H 0.05119 0.28621 0.62214 0.0
H1077 H 0.15437 0.39405 0.6126 0.0
H1078 H 0.09405 0.23924 0.64615 0.0
H1079 H 0.07743 0.25886 0.66482 0.0
H1080 H 0.04889 0.23825 0.64293 0.0
H1081 H 0.21221 0.41166 0.6294 0.0
H1082 H 0.20427 0.39265 0.65416 0.0
H1083 H 0.21916 0.37174 0.63532 0.0
H1084 H 0.17552 0.3145 0.70815 0.0
H1085 H 0.21701 0.26939 0.66296 0.0
H1086 H 0.10569 0.32026 0.68132 0.0
H1087 H 0.14775 0.36605 0.67742 0.0
H1088 H 0.13891 0.34359 0.70137 0.0
H1089 H 0.15273 0.26273 0.62581 0.0
H1090 H 0.19853 0.26546 0.6298 0.0
H1091 H 0.1963 0.30748 0.62249 0.0
C1092 C 0.94325 0.41915 0.6651 0.0
C1093 C 0.97091 0.42649 0.6505 0.0
C1094 C 0.95056 0.44571 0.68034 0.0
C1095 C 0.98606 0.4808 0.68073 0.0
C1096 C 0.01437 0.48799 0.66628 0.0
C1097 C 0.00687 0.46026 0.65174 0.0
C1098 C 0.92025 0.43631 0.69595 0.0
C1099 C 0.05238 0.52529 0.66596 0.0
C1100 C 0.98906 0.5664 0.70627 0.0
C1101 C 0.01028 0.56988 0.72336 0.0
C1102 C 0.98118 0.5377 0.69225 0.0
C1103 C 0.99328 0.51063 0.69582 0.0
C1104 C 0.0134 0.513 0.71343 0.0
C1105 C 0.0223 0.54307 0.72682 0.0
C1106 C 0.96054 0.53682 0.67344 0.0
C1107 C 0.02568 0.48394 0.7181 0.0
H1108 H 0.91575 0.39266 0.66455 0.0
H1109 H 0.02949 0.46508 0.64145 0.0
H1110 H 0.93298 0.43959 0.71086 0.0
H1111 H 0.90927 0.45671 0.69495 0.0
H1112 H 0.89553 0.40657 0.69445 0.0
H1113 H 0.07067 0.52702 0.65324 0.0
H1114 H 0.04723 0.54998 0.66517 0.0
H1115 H 0.06853 0.52845 0.67977 0.0
H1116 H 0.9786 0.58624 0.70378 0.0
H1117 H 0.0389 0.54572 0.73994 0.0
H1118 H 0.93315 0.50909 0.67221 0.0
H1119 H 0.9785 0.53901 0.6605 0.0
H1120 H 0.95399 0.5606 0.6727 0.0
H1121 H 0.00081 0.45431 0.71666 0.0
H1122 H 0.0377 0.48763 0.73323 0.0
H1123 H 0.04788 0.48676 0.70741 0.0
C1124 C 0.43922 0.40668 0.70454 0.0
C1125 C 0.42128 0.42442 0.7141 0.0
C1126 C 0.46904 0.4271 0.69096 0.0
C1127 C 0.48078 0.46601 0.6868 0.0
C1128 C 0.46271 0.48402 0.69656 0.0
C1129 C 0.43328 0.463 0.71025 0.0
C1130 C 0.48794 0.40707 0.68106 0.0
C1131 C 0.47415 0.52531 0.69235 0.0
C1132 C 0.57857 0.53104 0.66347 0.0
C1133 C 0.56857 0.5309 0.64364 0.0
C1134 C 0.55036 0.50963 0.67769 0.0
C1135 C 0.51128 0.48764 0.67188 0.0
C1136 C 0.5012 0.4866 0.65179 0.0
C1137 C 0.53004 0.50784 0.63789 0.0
C1138 C 0.56227 0.51093 0.69894 0.0
C1139 C 0.45986 0.46341 0.645 0.0
H1140 H 0.43004 0.37688 0.70783 0.0
H1141 H 0.41933 0.47653 0.71784 0.0
H1142 H 0.48377 0.40647 0.66486 0.0
H1143 H 0.51942 0.42319 0.68385 0.0
H1144 H 0.47615 0.37706 0.68636 0.0
H1145 H 0.45739 0.53508 0.70127 0.0
H1146 H 0.50523 0.54441 0.6955 0.0
H1147 H 0.46966 0.5287 0.67649 0.0
H1148 H 0.60839 0.54852 0.66795 0.0
H1149 H 0.5223 0.50612 0.62248 0.0
H1150 H 0.55209 0.48135 0.70444 0.0
H1151 H 0.54864 0.52356 0.70825 0.0
H1152 H 0.594 0.52818 0.7009 0.0
H1153 H 0.44803 0.43264 0.64875 0.0
H1154 H 0.45682 0.46585 0.62885 0.0
H1155 H 0.44203 0.4733 0.6528 0.0
C1156 C 0.57803 0.00848 0.70063 0.0
C1157 C 0.55915 0.98485 0.71685 0.0
C1158 C 0.55772 0.01711 0.68662 0.0
C1159 C 0.51785 0.00296 0.68935 0.0
C1160 C 0.49881 0.97983 0.70598 0.0
C1161 C 0.5196 0.97052 0.71936 0.0
C1162 C 0.57882 0.04102 0.66882 0.0
C1163 C 0.45655 0.96505 0.70968 0.0
C1164 C 0.47342 0.05325 0.66134 0.0
C1165 C 0.45479 0.02745 0.64582 0.0
C1166 C 0.49372 0.04549 0.67581 0.0
C1167 C 0.49586 0.0114 0.67448 0.0
C1168 C 0.47682 0.98512 0.65894 0.0
C1169 C 0.45567 0.99298 0.64514 0.0
C1170 C 0.51258 0.07355 0.69257 0.0
C1171 C 0.47878 0.94867 0.65686 0.0
H1172 H 0.60881 0.02045 0.69892 0.0
H1173 H 0.50498 0.95219 0.73189 0.0
H1174 H 0.56492 0.02489 0.65511 0.0
H1175 H 0.57718 0.06779 0.66857 0.0
H1176 H 0.60962 0.04893 0.66863 0.0
H1177 H 0.44671 0.94954 0.72396 0.0
H1178 H 0.45073 0.98932 0.70968 0.0
H1179 H 0.43911 0.94521 0.69766 0.0
H1180 H 0.47202 0.07949 0.66221 0.0
H1181 H 0.43929 0.97165 0.634 0.0
H1182 H 0.54415 0.08513 0.69231 0.0
H1183 H 0.50177 0.05858 0.7069 0.0
H1184 H 0.50706 0.09802 0.69184 0.0
H1185 H 0.50928 0.95564 0.65652 0.0
H1186 H 0.46427 0.93243 0.64325 0.0
H1187 H 0.465 0.92972 0.66977 0.0
C1188 C 0.45367 0.42476 0.11426 0.0
C1189 C 0.41572 0.41718 0.11617 0.0
C1190 C 0.48441 0.45833 0.12232 0.0
C1191 C 0.47686 0.48505 0.13211 0.0
C1192 C 0.43889 0.47884 0.13268 0.0
C1193 C 0.40871 0.44474 0.1249 0.0
C1194 C 0.52446 0.46375 0.12162 0.0
C1195 C 0.42977 0.50703 0.14261 0.0
C1196 C 0.53893 0.54005 0.17571 0.0
C1197 C 0.56329 0.57641 0.16753 0.0
C1198 C 0.51124 0.51002 0.16419 0.0
C1199 C 0.50738 0.51659 0.14402 0.0
C1200 C 0.53168 0.55325 0.13564 0.0
C1201 C 0.55961 0.58275 0.14749 0.0
C1202 C 0.48606 0.47121 0.17366 0.0
C1203 C 0.52791 0.56135 0.11425 0.0
H1204 H 0.4591 0.40342 0.10753 0.0
H1205 H 0.37937 0.43914 0.12613 0.0
H1206 H 0.54567 0.49343 0.11694 0.0
H1207 H 0.53283 0.45952 0.13662 0.0
H1208 H 0.52633 0.44308 0.11142 0.0
H1209 H 0.40002 0.50074 0.13934 0.0
H1210 H 0.43273 0.50571 0.15883 0.0
H1211 H 0.45034 0.53686 0.13785 0.0
H1212 H 0.54175 0.53481 0.19115 0.0
H1213 H 0.57836 0.6108 0.1411 0.0
H1214 H 0.4885 0.44863 0.16544 0.0
H1215 H 0.45545 0.46377 0.17304 0.0
H1216 H 0.49381 0.47049 0.18934 0.0
H1217 H 0.53158 0.54109 0.10461 0.0
H1218 H 0.5494 0.59124 0.10992 0.0
H1219 H 0.49861 0.55672 0.11148 0.0
C1220 C 0.57571 0.98242 0.13961 0.0
C1221 C 0.58663 0.99646 0.12031 0.0
C1222 C 0.54567 0.98408 0.14922 0.0
C1223 C 0.52556 -0.00043 0.1392 0.0
C1224 C 0.53491 0.01182 0.11937 0.0
C1225 C 0.56562 0.01042 0.11018 0.0
C1226 C 0.53686 0.97109 0.17046 0.0
C1227 C 0.5135 0.02776 0.10812 0.0
C1228 C 0.43298 0.9807 0.16417 0.0
C1229 C 0.44549 0.01498 0.17473 0.0
C1230 C 0.45826 0.97588 0.15173 0.0
C1231 C 0.49705 0.00576 0.15018 0.0
C1232 C 0.50956 0.04073 0.16047 0.0
C1233 C 0.48352 0.04502 0.17249 0.0
C1234 C 0.44377 0.93848 0.1407 0.0
C1235 C 0.55087 0.07307 0.15943 0.0
H1236 H 0.59168 0.97153 0.1476 0.0
H1237 H 0.57366 0.02104 0.09523 0.0
H1238 H 0.54344 0.99608 0.18003 0.0
H1239 H 0.50581 0.94989 0.17225 0.0
H1240 H 0.55382 0.95788 0.17578 0.0
H1241 H 0.52115 0.03174 0.0922 0.0
H1242 H 0.48194 0.00835 0.10956 0.0
H1243 H 0.52039 0.056 0.11441 0.0
H1244 H 0.40347 0.95753 0.16571 0.0
H1245 H 0.49338 0.07156 0.18064 0.0
H1246 H 0.45753 0.92256 0.14669 0.0
H1247 H 0.45174 0.94414 0.12487 0.0
H1248 H 0.41202 0.91979 0.14186 0.0
H1249 H 0.57012 0.06334 0.16571 0.0
H1250 H 0.55553 0.09901 0.16764 0.0
H1251 H 0.55958 0.08124 0.14384 0.0
C1252 C 0.0092 0.45463 0.16565 0.0
C1253 C 0.97485 0.43256 0.17616 0.0
C1254 C 0.01452 0.48577 0.15395 0.0
C1255 C 0.98504 0.49531 0.15303 0.0
C1256 C 0.95013 0.47281 0.16341 0.0
C1257 C 0.94536 0.44153 0.17474 0.0
C1258 C 0.05188 0.50881 0.14284 0.0
C1259 C 0.91818 0.4824 0.16298 0.0
C1260 C 0.00875 0.59732 0.14223 0.0
C1261 C 0.99434 0.59388 0.12301 0.0
C1262 C 0.00711 0.56573 0.15192 0.0
C1263 C 0.99114 0.52993 0.14207 0.0
C1264 C 0.97844 0.52671 0.12231 0.0
C1265 C 0.97997 0.5587 0.11303 0.0
C1266 C 0.02071 0.57022 0.17306 0.0
C1267 C 0.96184 0.4891 0.11125 0.0
H1268 H 0.03199 0.44764 0.16659 0.0
H1269 H 0.91881 0.42465 0.18287 0.0
H1270 H 0.046 0.51074 0.127 0.0
H1271 H 0.06765 0.53859 0.14868 0.0
H1272 H 0.07083 0.49606 0.14404 0.0
H1273 H 0.8925 0.46148 0.17151 0.0
H1274 H 0.92869 0.51153 0.16923 0.0
H1275 H 0.90927 0.48287 0.14754 0.0
H1276 H 0.01994 0.62437 0.15007 0.0
H1277 H 0.96906 0.55587 0.09812 0.0
H1278 H 0.04158 0.55992 0.17475 0.0
H1279 H 0.99587 0.55233 0.18284 0.0
H1280 H 0.03456 0.60053 0.17819 0.0
H1281 H 0.9813 0.47699 0.11241 0.0
H1282 H 0.95705 0.49239 0.09539 0.0
H1283 H 0.93387 0.46792 0.11792 0.0
C1284 C 0.43961 0.43935 0.83295 0.0
C1285 C 0.41895 0.45283 0.82211 0.0
C1286 C 0.4694 0.46379 0.84571 0.0
C1287 C 0.47915 0.50276 0.84735 0.0
C1288 C 0.45768 0.51625 0.83687 0.0
C1289 C 0.42759 0.49099 0.82448 0.0
C1290 C 0.49125 0.44826 0.85692 0.0
C1291 C 0.46761 0.55779 0.83802 0.0
C1292 C 0.54465 0.56825 0.88785 0.0
C1293 C 0.58005 0.58767 0.87791 0.0
C1294 C 0.51165 0.53941 0.87834 0.0
C1295 C 0.51412 0.53037 0.85839 0.0
C1296 C 0.54997 0.54911 0.84849 0.0
C1297 C 0.5825 0.57724 0.85842 0.0
C1298 C 0.47398 0.51936 0.88944 0.0
C1299 C 0.55372 0.54055 0.82714 0.0
H1300 H 0.4327 0.4097 0.83135 0.0
H1301 H 0.41167 0.50152 0.81614 0.0
H1302 H 0.52098 0.46118 0.85104 0.0
H1303 H 0.49353 0.45625 0.87275 0.0
H1304 H 0.47734 0.41647 0.85577 0.0
H1305 H 0.44663 0.5631 0.82993 0.0
H1306 H 0.46859 0.56654 0.85363 0.0
H1307 H 0.49667 0.57649 0.83165 0.0
H1308 H 0.54256 0.576 0.90293 0.0
H1309 H 0.60965 0.59208 0.85056 0.0
H1310 H 0.46081 0.4877 0.8881 0.0
H1311 H 0.45345 0.52719 0.88291 0.0
H1312 H 0.4776 0.52716 0.90534 0.0
H1313 H 0.54322 0.50943 0.82518 0.0
H1314 H 0.5839 0.55701 0.82176 0.0
H1315 H 0.53559 0.54781 0.81774 0.0
C1316 C 0.58193 0.00472 0.85613 0.0
C1317 C 0.5721 0.99438 0.8363 0.0
C1318 C 0.55559 0.00624 0.86925 0.0
C1319 C 0.51865 0.997 0.86234 0.0
C1320 C 0.50841 0.9859 0.84242 0.0
C1321 C 0.5353 0.98489 0.82965 0.0
C1322 C 0.5675 0.01844 0.89035 0.0
C1323 C 0.46918 0.97564 0.83449 0.0
C1324 C 0.43106 0.96952 0.89406 0.0
C1325 C 0.42756 0.00237 0.89201 0.0
C1326 C 0.46245 0.96821 0.88573 0.0
C1327 C 0.49095 0.00068 0.87538 0.0
C1328 C 0.48936 0.03508 0.87499 0.0
C1329 C 0.45752 0.03543 0.88322 0.0
C1330 C 0.46322 0.93104 0.88648 0.0
C1331 C 0.51952 0.07054 0.8644 0.0
H1332 H 0.61034 0.01205 0.86136 0.0
H1333 H 0.52739 0.97664 0.81438 0.0
H1334 H 0.56806 0.04591 0.89326 0.0
H1335 H 0.54622 0.99671 0.90064 0.0
H1336 H 0.5964 0.02245 0.89371 0.0
H1337 H 0.46523 0.96596 0.81887 0.0
H1338 H 0.44628 0.9524 0.84352 0.0
H1339 H 0.46513 0.00098 0.83545 0.0
H1340 H 0.40796 0.94392 0.90089 0.0
H1341 H 0.45517 0.06109 0.88189 0.0
H1342 H 0.49265 0.93654 0.88976 0.0
H1343 H 0.45479 0.91674 0.87185 0.0
H1344 H 0.44304 0.91095 0.89774 0.0
H1345 H 0.54887 0.07638 0.86819 0.0
H1346 H 0.51735 0.09637 0.86805 0.0
H1347 H 0.51582 0.06577 0.84823 0.0
C1348 C 0.01679 0.56946 0.84473 0.0
C1349 C 0.04475 0.58184 0.82983 0.0
C1350 C 0.01197 0.54067 0.85807 0.0
C1351 C 0.03493 0.52325 0.85605 0.0
C1352 C 0.06452 0.53706 0.84166 0.0
C1353 C 0.06933 0.56653 0.82884 0.0
C1354 C 0.98085 0.52744 0.87357 0.0
C1355 C 0.08923 0.5188 0.83882 0.0
C1356 C 0.03518 0.45094 0.89221 0.0
C1357 C 0.00941 0.41617 0.88292 0.0
C1358 C 0.0424 0.48633 0.88427 0.0
C1359 C 0.02401 0.48672 0.86649 0.0
C1360 C 0.99671 0.45169 0.85763 0.0
C1361 C 0.98942 0.41696 0.86607 0.0
C1362 C 0.07079 0.5232 0.89443 0.0
C1363 C 0.97667 0.45077 0.83855 0.0
H1364 H -0.00182 0.58178 0.84575 0.0
H1365 H 0.09107 0.57617 0.81737 0.0
H1366 H 0.95599 0.49936 0.86915 0.0
H1367 H 0.99145 0.52324 0.88796 0.0
H1368 H 0.97051 0.54825 0.87556 0.0
H1369 H 0.1133 0.53527 0.82834 0.0
H1370 H 0.10139 0.51653 0.85311 0.0
H1371 H 0.07122 0.48918 0.833 0.0
H1372 H 0.05053 0.45061 0.9053 0.0
H1373 H 0.96918 0.39035 0.85882 0.0
H1374 H 0.05936 0.54327 0.89522 0.0
H1375 H 0.09793 0.53764 0.88581 0.0
H1376 H 0.07766 0.51797 0.9096 0.0
H1377 H 0.96137 0.4672 0.84015 0.0
H1378 H 0.95552 0.42102 0.83384 0.0
H1379 H -0.00168 0.46464 0.82663 0.0
C1380 C 0.22081 0.88837 0.49626 0.0
C1381 C 0.23705 0.87323 0.50928 0.0
C1382 C 0.19137 0.8644 0.48322 0.0
C1383 C 0.17748 0.82436 0.48353 0.0
C1384 C 0.19442 0.80906 0.4963 0.0
C1385 C 0.22427 0.83378 0.50893 0.0
C1386 C 0.1744 0.88174 0.46954 0.0
C1387 C 0.17999 0.76638 0.4972 0.0
C1388 C 0.0741 0.75442 0.4701 0.0
C1389 C 0.07827 0.73998 0.45197 0.0
C1390 C 0.10612 0.78299 0.48016 0.0
C1391 C 0.14317 0.7979 0.47176 0.0
C1392 C 0.14741 0.78529 0.45291 0.0
C1393 C 0.11486 0.75624 0.44326 0.0
C1394 C 0.10047 0.79563 0.50029 0.0
C1395 C 0.18648 0.80121 0.44337 0.0
H1396 H 0.23095 0.91898 0.49634 0.0
H1397 H 0.23674 0.82199 0.51899 0.0
H1398 H 0.17343 0.87161 0.45421 0.0
H1399 H 0.14434 0.87225 0.47402 0.0
H1400 H 0.19106 0.91368 0.46968 0.0
H1401 H 0.19745 0.75936 0.50729 0.0
H1402 H 0.14967 0.75099 0.50239 0.0
H1403 H 0.18044 0.75525 0.48228 0.0
H1404 H 0.04596 0.74222 0.47693 0.0
H1405 H 0.1183 0.74548 0.42918 0.0
H1406 H 0.11419 0.82741 0.5009 0.0
H1407 H 0.11459 0.78696 0.51165 0.0
H1408 H 0.06955 0.78288 0.5042 0.0
H1409 H 0.20236 0.8331 0.44391 0.0
H1410 H 0.18434 0.79192 0.42775 0.0
H1411 H 0.20376 0.79124 0.45163 0.0
C1412 C 0.1566 0.3916 0.50765 0.0
C1413 C 0.11667 0.36705 0.50751 0.0
C1414 C 0.18012 0.38658 0.4941 0.0
C1415 C 0.16303 0.35699 0.47978 0.0
C1416 C 0.12248 0.33402 0.47868 0.0
C1417 C 0.09974 0.33887 0.49282 0.0
C1418 C 0.22332 0.41115 0.49603 0.0
C1419 C 0.10321 0.30311 0.46319 0.0
C1420 C 0.23395 0.35976 0.44179 0.0
C1421 C 0.24435 0.33446 0.45038 0.0
C1422 C 0.2054 0.36561 0.45043 0.0
C1423 C 0.18777 0.3464 0.46824 0.0
C1424 C 0.19652 0.31916 0.47625 0.0
C1425 C 0.22422 0.31313 0.46706 0.0
C1426 C 0.19561 0.39377 0.44109 0.0
C1427 C 0.17868 0.29829 0.49535 0.0
H1428 H 0.16962 0.41345 0.51901 0.0
H1429 H 0.06871 0.32033 0.49252 0.0
H1430 H 0.2355 0.39294 0.50074 0.0
H1431 H 0.23642 0.42403 0.48159 0.0
H1432 H 0.23189 0.43466 0.50697 0.0
H1433 H 0.07191 0.2929 0.46201 0.0
H1434 H 0.11679 0.31385 0.44855 0.0
H1435 H 0.10672 0.27819 0.46702 0.0
H1436 H 0.24904 0.37605 0.42878 0.0
H1437 H 0.23161 0.29314 0.47373 0.0
H1438 H 0.2093 0.42099 0.44963 0.0
H1439 H 0.16404 0.38231 0.44132 0.0
H1440 H 0.20597 0.40045 0.4256 0.0
H1441 H 0.18723 0.3194 0.50758 0.0
H1442 H 0.18767 0.27704 0.49921 0.0
H1443 H 0.14683 0.283 0.49435 0.0
C1444 C 0.67745 0.91521 0.46989 0.0
C1445 C 0.65717 0.91374 0.4527 0.0
C1446 C 0.67125 0.88164 0.47932 0.0
C1447 C 0.64474 0.8455 0.47116 0.0
C1448 C 0.62613 0.84365 0.45309 0.0
C1449 C 0.63228 0.87788 0.44413 0.0
C1450 C 0.69148 0.88493 0.49867 0.0
C1451 C 0.59853 0.80555 0.44368 0.0
C1452 C 0.65287 0.76446 0.49475 0.0
C1453 C 0.62389 0.75167 0.50913 0.0
C1454 C 0.6582 0.79315 0.48122 0.0
C1455 C 0.63472 0.81013 0.48254 0.0
C1456 C 0.60458 0.79638 0.49662 0.0
C1457 C 0.59922 0.76692 0.5096 0.0
C1458 C 0.68994 0.80635 0.46607 0.0
C1459 C 0.57943 0.8143 0.49876 0.0
H1460 H 0.69699 0.9427 0.47661 0.0
H1461 H 0.61672 0.87644 0.43078 0.0
H1462 H 0.6699 0.87196 0.51068 0.0
H1463 H 0.70729 0.86886 0.49793 0.0
H1464 H 0.71222 0.91526 0.50266 0.0
H1465 H 0.59093 0.80907 0.42836 0.0
H1466 H 0.61113 0.78644 0.44345 0.0
H1467 H 0.57167 0.79092 0.45251 0.0
H1468 H 0.67159 0.75221 0.49417 0.0
H1469 H 0.57679 0.75701 0.5207 0.0
H1470 H 0.7139 0.83526 0.47013 0.0
H1471 H 0.67934 0.80884 0.45132 0.0
H1472 H 0.70153 0.78641 0.46498 0.0
H1473 H 0.59719 0.8445 0.50384 0.0
H1474 H 0.55566 0.79857 0.50949 0.0
H1475 H 0.56682 0.81498 0.4843 0.0
C1476 C 0.10628 0.80513 0.1608 0.0
C1477 C 0.07951 0.76869 0.16807 0.0
C1478 C 0.13574 0.8323 0.17283 0.0
C1479 C 0.13871 0.82275 0.19262 0.0
C1480 C 0.11132 0.78634 0.20023 0.0
C1481 C 0.08193 0.75972 0.18785 0.0
C1482 C 0.1643 0.87093 0.16418 0.0
C1483 C 0.11372 0.77514 0.22122 0.0
C1484 C 0.24077 0.88051 0.21137 0.0
C1485 C 0.23996 0.91093 0.2211 0.0
C1486 C 0.20727 0.85004 0.20326 0.0
C1487 C 0.17216 0.8502 0.20472 0.0
C1488 C 0.17057 0.87936 0.21575 0.0
C1489 C 0.20457 0.90938 0.22393 0.0
C1490 C 0.21009 0.81916 0.1919 0.0
C1491 C 0.13362 0.88045 0.21765 0.0
H1492 H 0.10447 0.8124 0.14558 0.0
H1493 H 0.0613 0.73162 0.19359 0.0
H1494 H 0.1659 0.89444 0.17348 0.0
H1495 H 0.19343 0.87414 0.16397 0.0
H1496 H 0.15666 0.87462 0.14889 0.0
H1497 H 0.08851 0.74698 0.22533 0.0
H1498 H 0.14024 0.77332 0.22312 0.0
H1499 H 0.11564 0.79739 0.23161 0.0
H1500 H 0.26801 0.88132 0.20939 0.0
H1501 H 0.20379 0.93283 0.23143 0.0
H1502 H 0.20675 0.82258 0.17589 0.0
H1503 H 0.18664 0.79021 0.19629 0.0
H1504 H 0.23817 0.82053 0.19424 0.0
H1505 H 0.12668 0.88874 0.20326 0.0
H1506 H 0.13582 0.90146 0.22898 0.0
H1507 H 0.10929 0.85163 0.22152 0.0
C1508 C 0.09846 0.34702 0.19731 0.0
C1509 C 0.07822 0.32537 0.2139 0.0
C1510 C 0.12643 0.34134 0.18811 0.0
C1511 C 0.1351 0.31388 0.19591 0.0
C1512 C 0.11683 0.29381 0.21343 0.0
C1513 C 0.08827 0.29955 0.22217 0.0
C1514 C 0.14506 0.36321 0.16936 0.0
C1515 C 0.12621 0.2651 0.22245 0.0
C1516 C 0.17043 0.2711 0.15708 0.0
C1517 C 0.21036 0.29521 0.15847 0.0
C1518 C 0.14552 0.27568 0.16986 0.0
C1519 C 0.16107 0.30446 0.18465 0.0
C1520 C 0.20146 0.32727 0.18688 0.0
C1521 C 0.22568 0.32275 0.17355 0.0
C1522 C 0.10257 0.25127 0.16676 0.0
C1523 C 0.21909 0.35754 0.20279 0.0
H1524 H 0.09125 0.36731 0.19085 0.0
H1525 H 0.07303 0.28291 0.23506 0.0
H1526 H 0.17687 0.3785 0.17075 0.0
H1527 H 0.13715 0.34275 0.15686 0.0
H1528 H 0.13615 0.38459 0.16567 0.0
H1529 H 0.11383 0.2562 0.23748 0.0
H1530 H 0.11446 0.23909 0.21299 0.0
H1531 H 0.15786 0.2773 0.22328 0.0
H1532 H 0.15856 0.24979 0.14541 0.0
H1533 H 0.25663 0.34105 0.17483 0.0
H1534 H 0.09088 0.26978 0.16183 0.0
H1535 H 0.08803 0.23754 0.18082 0.0
H1536 H 0.09513 0.22843 0.15554 0.0
H1537 H 0.21488 0.38209 0.19908 0.0
H1538 H 0.25046 0.36855 0.20448 0.0
H1539 H 0.20472 0.3458 0.21717 0.0
C1540 C 0.6947 0.79024 0.22376 0.0
C1541 C 0.66176 0.75412 0.22103 0.0
C1542 C 0.69694 0.82345 0.21563 0.0
C1543 C 0.66533 0.82031 0.20475 0.0
C1544 C 0.63088 0.78442 0.20343 0.0
C1545 C 0.62959 0.75171 0.2115 0.0
C1546 C 0.73415 0.86126 0.21735 0.0
C1547 C 0.59633 0.77998 0.19221 0.0
C1548 C 0.6621 0.90856 0.18726 0.0
C1549 C 0.67381 0.91096 0.16754 0.0
C1550 C 0.65994 0.87968 0.19979 0.0
C1551 C 0.66992 0.85285 0.1924 0.0
C1552 C 0.68256 0.8557 0.17264 0.0
C1553 C 0.68422 0.88462 0.16045 0.0
C1554 C 0.64618 0.87731 0.22076 0.0
C1555 C 0.69364 0.82772 0.16422 0.0
H1556 H 0.71963 0.79227 0.23116 0.0
H1557 H 0.60382 0.72391 0.20962 0.0
H1558 H 0.7493 0.86844 0.20293 0.0
H1559 H 0.72846 0.88485 0.2211 0.0
H1560 H 0.7536 0.86018 0.22869 0.0
H1561 H 0.57026 0.75155 0.19486 0.0
H1562 H 0.58991 0.80289 0.19641 0.0
H1563 H 0.60268 0.78289 0.17616 0.0
H1564 H 0.65406 0.92887 0.19283 0.0
H1565 H 0.69354 0.88642 0.14528 0.0
H1566 H 0.66713 0.87672 0.23123 0.0
H1567 H 0.61846 0.85017 0.22283 0.0
H1568 H 0.64194 0.90184 0.22461 0.0
H1569 H 0.71621 0.82726 0.1735 0.0
H1570 H 0.70458 0.83504 0.14885 0.0
H1571 H 0.66829 0.79823 0.1643 0.0
C1572 C 0.74111 0.09302 0.8018 0.0
C1573 C 0.74364 0.0741 0.78492 0.0
C1574 C 0.77414 0.12193 0.81099 0.0
C1575 C 0.8107 0.13288 0.8029 0.0
C1576 C 0.81347 0.11602 0.78507 0.0
C1577 C 0.77983 0.08648 0.77634 0.0
C1578 C 0.76992 0.13895 0.83009 0.0
C1579 C 0.85201 0.12783 0.77576 0.0
C1580 C 0.89034 0.22361 0.82617 0.0
C1581 C 0.90368 0.20829 0.84072 0.0
C1582 C 0.8618 0.19949 0.81274 0.0
C1583 C 0.84567 0.15918 0.81431 0.0
C1584 C 0.85998 0.14371 0.82857 0.0
C1585 C 0.88914 0.16853 0.84148 0.0
C1586 C 0.84787 0.21702 0.79742 0.0
C1587 C 0.84303 0.10081 0.83093 0.0
H1588 H 0.71332 0.08398 0.8085 0.0
H1589 H 0.78203 0.07228 0.7632 0.0
H1590 H 0.78303 0.13106 0.84234 0.0
H1591 H 0.78539 0.17079 0.82918 0.0
H1592 H 0.73932 0.1287 0.83385 0.0
H1593 H 0.84896 0.11656 0.76049 0.0
H1594 H 0.87021 0.15963 0.7754 0.0
H1595 H 0.86741 0.11662 0.78473 0.0
H1596 H 0.90199 0.25445 0.82538 0.0
H1597 H 0.89944 0.15663 0.85271 0.0
H1598 H 0.81859 0.21121 0.80137 0.0
H1599 H 0.84585 0.20385 0.78275 0.0
H1600 H 0.86712 0.24865 0.79623 0.0
H1601 H 0.81263 0.08768 0.83585 0.0
H1602 H 0.85906 0.09357 0.84187 0.0
H1603 H 0.84302 0.0875 0.81659 0.0
C1604 C 0.82908 0.73077 0.84219 0.0
C1605 C 0.79067 0.70112 0.84349 0.0
C1606 C 0.85555 0.72683 0.83034 0.0
C1607 C 0.84309 0.69266 0.8193 0.0
C1608 C 0.80389 0.66349 0.81974 0.0
C1609 C 0.77817 0.66791 0.832 0.0
C1610 C 0.89727 0.75834 0.83048 0.0
C1611 C 0.78943 0.62697 0.80791 0.0
C1612 C 0.91372 0.69448 0.78127 0.0
C1613 C 0.93146 0.67763 0.79194 0.0
C1614 C 0.8838 0.6984 0.78969 0.0
C1615 C 0.87193 0.68568 0.80928 0.0
C1616 C 0.88904 0.66776 0.81989 0.0
C1617 C 0.91832 0.6637 0.81105 0.0
C1618 C 0.86559 0.71697 0.77785 0.0
C1619 C 0.87744 0.6541 0.84088 0.0
H1620 H 0.83887 0.75651 0.85103 0.0
H1621 H 0.74835 0.64511 0.83277 0.0
H1622 H 0.91502 0.74758 0.83757 0.0
H1623 H 0.90802 0.76684 0.81519 0.0
H1624 H 0.9017 0.78427 0.83862 0.0
H1625 H 0.75748 0.60951 0.80784 0.0
H1626 H 0.79978 0.63372 0.79244 0.0
H1627 H 0.80096 0.60929 0.81426 0.0
H1628 H 0.92354 0.70512 0.76647 0.0
H1629 H 0.93176 0.65062 0.81946 0.0
H1630 H 0.87279 0.74496 0.78459 0.0
H1631 H 0.83376 0.69864 0.77806 0.0
H1632 H 0.87555 0.72204 0.76227 0.0
H1633 H 0.88346 0.67888 0.8505 0.0
H1634 H 0.893 0.63994 0.84691 0.0
H1635 H 0.84606 0.63346 0.84169 0.0
C1636 C 0.342 0.24984 0.80579 0.0
C1637 C 0.32707 0.24582 0.78664 0.0
C1638 C 0.34072 0.21868 0.81569 0.0
C1639 C 0.32472 0.18262 0.80612 0.0
C1640 C 0.31131 0.17868 0.78645 0.0
C1641 C 0.31231 0.21032 0.77697 0.0
C1642 C 0.35491 0.22398 0.83676 0.0
C1643 C 0.29484 0.1408 0.77568 0.0
C1644 C 0.34725 0.1125 0.83199 0.0
C1645 C 0.31393 0.0913 0.84337 0.0
C1646 C 0.35033 0.14089 0.81883 0.0
C1647 C 0.31971 0.14875 0.81741 0.0
C1648 C 0.28562 0.1267 0.82848 0.0
C1649 C 0.28301 0.09798 0.84119 0.0
C1650 C 0.38679 0.16332 0.80695 0.0
C1651 C 0.25261 0.13469 0.82765 0.0
H1652 H 0.35349 0.27711 0.81344 0.0
H1653 H 0.30098 0.20705 0.76213 0.0
H1654 H 0.3306 0.2055 0.84671 0.0
H1655 H 0.3768 0.21497 0.83831 0.0
H1656 H 0.3678 0.25427 0.84182 0.0
H1657 H 0.28969 0.14358 0.75981 0.0
H1658 H 0.31459 0.12903 0.77689 0.0
H1659 H 0.2671 0.1196 0.78254 0.0
H1660 H 0.37103 0.10706 0.83346 0.0
H1661 H 0.2572 0.08166 0.84996 0.0
H1662 H 0.40306 0.19332 0.81247 0.0
H1663 H 0.37981 0.16462 0.79122 0.0
H1664 H 0.40574 0.15054 0.80787 0.0
H1665 H 0.26211 0.16383 0.83363 0.0
H1666 H 0.22725 0.11346 0.83627 0.0
H1667 H 0.24356 0.13431 0.81215 0.0
C1668 C 0.91622 0.23574 0.53329 0.0
C1669 C 0.9135 0.25331 0.55067 0.0
C1670 C 0.88334 0.20746 0.52371 0.0
C1671 C 0.84668 0.19554 0.53194 0.0
C1672 C 0.84369 0.21093 0.55024 0.0
C1673 C 0.87721 0.24004 0.55933 0.0
C1674 C 0.88785 0.19211 0.5041 0.0
C1675 C 0.80507 0.19793 0.55974 0.0
C1676 C 0.76871 0.16083 0.49307 0.0
C1677 C 0.75551 0.12128 0.49288 0.0
C1678 C 0.79704 0.18519 0.50651 0.0
C1679 C 0.81186 0.16942 0.52033 0.0
C1680 C 0.79685 0.12918 0.521 0.0
C1681 C 0.76917 0.1056 0.50707 0.0
C1682 C 0.81278 0.22804 0.50508 0.0
C1683 C 0.81123 0.11124 0.53585 0.0
H1684 H 0.94405 0.24542 0.5265 0.0
H1685 H 0.87483 0.2532 0.57283 0.0
H1686 H 0.87322 0.16027 0.50447 0.0
H1687 H 0.87403 0.20017 0.49229 0.0
H1688 H 0.91853 0.20344 0.50008 0.0
H1689 H 0.80802 0.2079 0.57527 0.0
H1690 H 0.78943 0.20959 0.55133 0.0
H1691 H 0.78716 0.1661 0.55943 0.0
H1692 H 0.75811 0.17301 0.48215 0.0
H1693 H 0.75851 0.07489 0.50718 0.0
H1694 H 0.8432 0.24233 0.50007 0.0
H1695 H 0.81245 0.24005 0.51977 0.0
H1696 H 0.79615 0.23539 0.49459 0.0
H1697 H 0.84069 0.11783 0.53175 0.0
H1698 H 0.79244 0.07948 0.53655 0.0
H1699 H 0.81292 0.1234 0.55076 0.0
C1700 C 0.7542 0.63674 0.55229 0.0
C1701 C 0.73528 0.65376 0.54286 0.0
C1702 C 0.78267 0.63251 0.54242 0.0
C1703 C 0.7919 0.6451 0.52263 0.0
C1704 C 0.77374 0.66329 0.51326 0.0
C1705 C 0.74591 0.66766 0.52353 0.0
C1706 C 0.80209 0.61366 0.55296 0.0
C1707 C 0.78259 0.67683 0.49209 0.0
C1708 C 0.88279 0.66109 0.49714 0.0
C1709 C 0.8689 0.62736 0.48593 0.0
C1710 C 0.85843 0.66649 0.50994 0.0
C1711 C 0.81915 0.63779 0.51121 0.0
C1712 C 0.80516 0.60333 0.50024 0.0
C1713 C 0.83034 0.59839 0.48784 0.0
C1714 C 0.87447 0.70332 0.52167 0.0
C1715 C 0.76328 0.57232 0.50101 0.0
H1716 H 0.74631 0.62611 0.56725 0.0
H1717 H 0.73149 0.68083 0.51608 0.0
H1718 H 0.79383 0.58565 0.54589 0.0
H1719 H 0.83385 0.63181 0.55175 0.0
H1720 H 0.79413 0.60854 0.56882 0.0
H1721 H 0.76667 0.6914 0.48717 0.0
H1722 H 0.81387 0.69707 0.49026 0.0
H1723 H 0.77482 0.65192 0.48224 0.0
H1724 H 0.91275 0.68338 0.49588 0.0
H1725 H 0.81951 0.57229 0.47919 0.0
H1726 H 0.86652 0.69686 0.53746 0.0
H1727 H 0.86182 0.72068 0.51627 0.0
H1728 H 0.90632 0.72097 0.52051 0.0
H1729 H 0.75423 0.56354 0.5165 0.0
H1730 H 0.75745 0.54645 0.49236 0.0
H1731 H 0.74515 0.58369 0.49505 0.0
C1732 C 0.35399 0.11628 0.55735 0.0
C1733 C 0.3347 0.08089 0.54744 0.0
C1734 C 0.35756 0.14975 0.54873 0.0
C1735 C 0.34205 0.14766 0.5297 0.0
C1736 C 0.32128 0.11179 0.52002 0.0
C1737 C 0.31756 0.07887 0.52909 0.0
C1738 C 0.37908 0.18748 0.55963 0.0
C1739 C 0.30456 0.10838 0.49962 0.0
C1740 C 0.32498 0.22281 0.50581 0.0
C1741 C 0.35634 0.2403 0.49281 0.0
C1742 C 0.32144 0.19449 0.51912 0.0
C1743 C 0.34946 0.18292 0.51903 0.0
C1744 C 0.38203 0.2017 0.50655 0.0
C1745 C 0.38524 0.23047 0.49368 0.0
C1746 C 0.28676 0.17565 0.53253 0.0
C1747 C 0.41223 0.18973 0.50583 0.0
H1748 H 0.36708 0.11803 0.57159 0.0
H1749 H 0.3024 0.05169 0.52131 0.0
H1750 H 0.40702 0.2062 0.55221 0.0
H1751 H 0.36252 0.20285 0.55936 0.0
H1752 H 0.38485 0.18345 0.57523 0.0
H1753 H 0.28824 0.07811 0.49441 0.0
H1754 H 0.285 0.12043 0.49948 0.0
H1755 H 0.32808 0.12524 0.48895 0.0
H1756 H 0.3029 0.23085 0.50539 0.0
H1757 H 0.40959 0.24406 0.4837 0.0
H1758 H 0.29549 0.17307 0.54774 0.0
H1759 H 0.26661 0.14615 0.52717 0.0
H1760 H 0.27109 0.19194 0.53306 0.0
H1761 H 0.42245 0.18879 0.52092 0.0
H1762 H 0.43743 0.20948 0.49666 0.0
H1763 H 0.39943 0.16032 0.49956 0.0
C1764 C 0.34825 0.12885 0.20468 0.0
C1765 C 0.34006 0.09293 0.19736 0.0
C1766 C 0.3471 0.15623 0.19223 0.0
C1767 C 0.33613 0.14679 0.17221 0.0
C1768 C 0.32735 0.11029 0.16486 0.0
C1769 C 0.33009 0.08405 0.17745 0.0
C1770 C 0.35781 0.19528 0.20044 0.0
C1771 C 0.3143 0.09865 0.14381 0.0
C1772 C 0.29703 0.20393 0.14623 0.0
C1773 C 0.32821 0.22857 0.13425 0.0
C1774 C 0.29893 0.17659 0.15835 0.0
C1775 C 0.33334 0.17486 0.159 0.0
C1776 C 0.36498 0.19985 0.14697 0.0
C1777 C 0.36178 0.22598 0.13446 0.0
C1778 C 0.26412 0.14956 0.17043 0.0
C1779 C 0.40249 0.19959 0.14766 0.0
H1780 H 0.35622 0.13576 0.22005 0.0
H1781 H 0.32332 0.05606 0.17185 0.0
H1782 H 0.38118 0.21815 0.19144 0.0
H1783 H 0.33273 0.19981 0.19962 0.0
H1784 H 0.36753 0.19871 0.21604 0.0
H1785 H 0.30765 0.06883 0.14056 0.0
H1786 H 0.28817 0.10074 0.14089 0.0
H1787 H 0.33693 0.11851 0.13344 0.0
H1788 H 0.27099 0.20583 0.14598 0.0
H1789 H 0.38606 0.24537 0.12536 0.0
H1790 H 0.27109 0.15437 0.18638 0.0
H1791 H 0.25585 0.1193 0.16716 0.0
H1792 H 0.23899 0.15338 0.16749 0.0
H1793 H 0.4139 0.2052 0.16297 0.0
H1794 H 0.42464 0.2215 0.13773 0.0
H1795 H 0.39771 0.17087 0.14337 0.0
C1796 C 0.76773 0.12824 0.13243 0.0
C1797 C 0.77053 0.09492 0.13085 0.0
C1798 C 0.79209 0.15823 0.14513 0.0
C1799 C 0.8207 0.15527 0.15595 0.0
C1800 C 0.82453 0.12225 0.15383 0.0
C1801 C 0.79891 0.09213 0.14155 0.0
C1802 C 0.78649 0.19254 0.1474 0.0
C1803 C 0.85553 0.11863 0.16461 0.0
C1804 C 0.90579 0.24744 0.17494 0.0
C1805 C 0.89775 0.24531 0.19519 0.0
C1806 C 0.88103 0.21824 0.16202 0.0
C1807 C 0.84677 0.18677 0.16945 0.0
C1808 C 0.8379 0.18504 0.18981 0.0
C1809 C 0.8639 0.21408 0.20253 0.0
C1810 C 0.8921 0.22052 0.14054 0.0
C1811 C 0.80105 0.15247 0.19815 0.0
H1812 H 0.74539 0.13014 0.12436 0.0
H1813 H 0.80108 0.06636 0.14029 0.0
H1814 H 0.78023 0.19543 0.16306 0.0
H1815 H 0.81328 0.21931 0.14334 0.0
H1816 H 0.76258 0.19018 0.1381 0.0
H1817 H 0.85595 0.09206 0.1605 0.0
H1818 H 0.8842 0.14386 0.16134 0.0
H1819 H 0.85098 0.1183 0.18077 0.0
H1820 H 0.93226 0.27135 0.16928 0.0
H1821 H 0.85762 0.21257 0.21817 0.0
H1822 H 0.86945 0.2202 0.13103 0.0
H1823 H 0.8945 0.19498 0.13654 0.0
H1824 H 0.91993 0.24684 0.13717 0.0
H1825 H 0.77594 0.14983 0.18988 0.0
H1826 H 0.79736 0.15663 0.21405 0.0
H1827 H 0.80084 0.12491 0.19641 0.0
C1828 C 0.89746 0.71062 0.14118 0.0
C1829 C 0.89444 0.67928 0.13058 0.0
C1830 C 0.86732 0.70645 0.15336 0.0
C1831 C 0.83404 0.66975 0.15549 0.0
C1832 C 0.83071 0.63808 0.14465 0.0
C1833 C 0.86074 0.64339 0.13205 0.0
C1834 C 0.87134 0.74117 0.16417 0.0
C1835 C 0.79613 0.59832 0.14694 0.0
C1836 C 0.77727 0.65412 0.2028 0.0
C1837 C 0.74571 0.65677 0.196 0.0
C1838 C 0.80572 0.65716 0.18965 0.0
C1839 C 0.8031 0.66438 0.16939 0.0
C1840 C 0.7713 0.66721 0.1625 0.0
C1841 C 0.74265 0.66274 0.17585 0.0
C1842 C 0.83863 0.65282 0.19743 0.0
C1843 C 0.76811 0.67606 0.14115 0.0
H1844 H 0.92352 0.73839 0.13999 0.0
H1845 H 0.85863 0.61901 0.12405 0.0
H1846 H 0.84586 0.74441 0.1613 0.0
H1847 H 0.87256 0.73725 0.1803 0.0
H1848 H 0.89769 0.76813 0.15973 0.0
H1849 H 0.7978 0.57684 0.13728 0.0
H1850 H 0.79383 0.58879 0.16251 0.0
H1851 H 0.76932 0.59871 0.14341 0.0
H1852 H 0.77952 0.64936 0.21837 0.0
H1853 H 0.71846 0.66529 0.17062 0.0
H1854 H 0.86618 0.68018 0.19552 0.0
H1855 H 0.8409 0.63043 0.1889 0.0
H1856 H 0.83512 0.64486 0.2133 0.0
H1857 H 0.79345 0.70406 0.13702 0.0
H1858 H 0.74156 0.67741 0.13819 0.0
H1859 H 0.76815 0.65387 0.13142 0.0
C1860 C 0.63896 0.76764 0.86747 0.0
C1861 C 0.67478 0.76983 0.8694 0.0
C1862 C 0.63395 0.79169 0.85429 0.0
C1863 C 0.66589 0.81945 0.84336 0.0
C1864 C 0.70253 0.82285 0.84589 0.0
C1865 C 0.70637 0.79742 0.85863 0.0
C1866 C 0.59423 0.78652 0.85158 0.0
C1867 C 0.73755 0.85308 0.83504 0.0
C1868 C 0.64955 0.86019 0.79605 0.0
C1869 C 0.65125 0.89382 0.80302 0.0
C1870 C 0.65358 0.83524 0.80911 0.0
C1871 C 0.66095 0.8451 0.82936 0.0
C1872 C 0.66339 0.87944 0.83634 0.0
C1873 C 0.65783 0.90303 0.82313 0.0
C1874 C 0.64963 0.79822 0.80128 0.0
C1875 C 0.6725 0.89161 0.85767 0.0
H1876 H 0.61437 0.74581 0.87556 0.0
H1877 H 0.73405 0.79899 0.86013 0.0
H1878 H 0.59451 0.81358 0.85525 0.0
H1879 H 0.58536 0.77984 0.8359 0.0
H1880 H 0.5723 0.76307 0.86095 0.0
H1881 H 0.76433 0.85342 0.8396 0.0
H1882 H 0.73368 0.84777 0.81892 0.0
H1883 H 0.74117 0.88197 0.83776 0.0
H1884 H 0.64445 0.85316 0.78049 0.0
H1885 H 0.65979 0.92943 0.82847 0.0
H1886 H 0.6268 0.77341 0.80955 0.0
H1887 H 0.6769 0.79798 0.80353 0.0
H1888 H 0.64236 0.7941 0.78532 0.0
H1889 H 0.64979 0.86988 0.86739 0.0
H1890 H 0.67482 0.91994 0.86052 0.0
H1891 H 0.70008 0.89336 0.8619 0.0
C1892 C 0.11762 0.7994 0.80173 0.0
C1893 C 0.11661 0.76404 0.80099 0.0
C1894 C 0.14325 0.82879 0.81435 0.0
C1895 C 0.16935 0.82304 0.82592 0.0
C1896 C 0.16963 0.78799 0.82451 0.0
C1897 C 0.1427 0.75858 0.81231 0.0
C1898 C 0.14137 0.86534 0.81586 0.0
C1899 C 0.19799 0.78137 0.83607 0.0
C1900 C 0.25631 0.91245 0.84596 0.0
C1901 C 0.24632 0.91153 0.86586 0.0
C1902 C 0.23183 0.88342 0.83288 0.0
C1903 C 0.19595 0.8535 0.83974 0.0
C1904 C 0.18543 0.85278 0.85978 0.0
C1905 C 0.21113 0.88151 0.87272 0.0
C1906 C 0.24462 0.88448 0.8118 0.0
C1907 C 0.14688 0.82194 0.86749 0.0
H1908 H 0.09704 0.80339 0.79316 0.0
H1909 H 0.14189 0.73119 0.81169 0.0
H1910 H 0.13436 0.86914 0.83125 0.0
H1911 H 0.16976 0.8906 0.81225 0.0
H1912 H 0.11938 0.86524 0.80585 0.0
H1913 H 0.19636 0.75372 0.83214 0.0
H1914 H 0.22778 0.80517 0.83336 0.0
H1915 H 0.19229 0.78113 0.85209 0.0
H1916 H 0.2838 0.93546 0.84071 0.0
H1917 H 0.20342 0.88095 0.88811 0.0
H1918 H 0.22434 0.88678 0.80153 0.0
H1919 H 0.24426 0.85731 0.80825 0.0
H1920 H 0.27404 0.90899 0.80902 0.0
H1921 H 0.12335 0.82151 0.85866 0.0
H1922 H 0.14253 0.82635 0.88326 0.0
H1923 H 0.14438 0.79328 0.86591 0.0
C1924 C 0.08384 0.32064 0.84274 0.0
C1925 C 0.08598 0.31389 0.86289 0.0
C1926 C 0.11275 0.3251 0.82962 0.0
C1927 C 0.14398 0.32154 0.8367 0.0
C1928 C 0.14587 0.31378 0.85696 0.0
C1929 C 0.11708 0.31069 0.86992 0.0
C1930 C 0.1103 0.33452 0.80826 0.0
C1931 C 0.17824 0.30873 0.86491 0.0
C1932 C 0.19981 0.29994 0.79852 0.0
C1933 C 0.23352 0.33572 0.79675 0.0
C1934 C 0.17064 0.29476 0.81172 0.0
C1935 C 0.17486 0.32645 0.82288 0.0
C1936 C 0.20828 0.36299 0.82058 0.0
C1937 C 0.23756 0.36703 0.80778 0.0
C1938 C 0.13585 0.25517 0.81413 0.0
C1939 C 0.21318 0.39775 0.83172 0.0
H1940 H 0.06008 0.3237 0.83731 0.0
H1941 H 0.11867 0.30538 0.88549 0.0
H1942 H 0.1363 0.36209 0.80424 0.0
H1943 H 0.10955 0.31197 0.79852 0.0
H1944 H 0.0844 0.337 0.80522 0.0
H1945 H 0.17443 0.30087 0.8808 0.0
H1946 H 0.18004 0.28599 0.85648 0.0
H1947 H 0.20611 0.33576 0.86301 0.0
H1948 H 0.19698 0.27556 0.79023 0.0
H1949 H 0.2637 0.39469 0.8064 0.0
H1950 H 0.10924 0.25578 0.81039 0.0
H1951 H 0.13326 0.2459 0.82976 0.0
H1952 H 0.13739 0.23339 0.80466 0.0
H1953 H 0.18831 0.40199 0.82882 0.0
H1954 H 0.24007 0.42444 0.82755 0.0
H1955 H 0.21382 0.39316 0.84782 0.0
C1956 C 0.02013 0.55818 0.46705 0.0
C1957 C 0.985 0.5573 0.46467 0.0
C1958 C 0.02401 0.53445 0.48095 0.0
C1959 C 0.99163 0.50839 0.49222 0.0
C1960 C 0.95575 0.50655 0.48941 0.0
C1961 C 0.95304 0.53155 0.47589 0.0
C1962 C 0.06294 0.53785 0.48386 0.0
C1963 C 0.92026 0.47815 0.50063 0.0
C1964 C 0.99537 0.42279 0.51288 0.0
C1965 C 0.00328 0.43257 0.53287 0.0
C1966 C 0.99057 0.44679 0.49964 0.0
C1967 C 0.99503 0.48208 0.50643 0.0
C1968 C 0.00325 0.49229 0.52662 0.0
C1969 C 0.00661 0.46697 0.53974 0.0
C1970 C 0.98058 0.43426 0.47839 0.0
C1971 C 0.00921 0.53021 0.53424 0.0
H1972 H 0.04503 0.57859 0.45862 0.0
H1973 H 0.92589 0.53097 0.47405 0.0
H1974 H 0.07173 0.54427 0.49956 0.0
H1975 H 0.06136 0.51015 0.48025 0.0
H1976 H 0.08559 0.56075 0.47453 0.0
H1977 H 0.89432 0.47963 0.49627 0.0
H1978 H 0.91458 0.44847 0.49802 0.0
H1979 H 0.92493 0.48371 0.51671 0.0
H1980 H 0.99221 0.39584 0.50763 0.0
H1981 H 0.01282 0.47449 0.5552 0.0
H1982 H 0.004 0.4547 0.46854 0.0
H1983 H 0.954 0.43453 0.47411 0.0
H1984 H 0.97606 0.40497 0.47577 0.0
H1985 H 0.03319 0.55424 0.52609 0.0
H1986 H 0.01595 0.53405 0.55027 0.0
H1987 H 0.98302 0.53231 0.53162 0.0
C1988 C 0.52502 0.57246 0.52537 0.0
C1989 C 0.55191 0.56753 0.53628 0.0
C1990 C 0.49861 0.54322 0.51292 0.0
C1991 C 0.5002 0.50894 0.51085 0.0
C1992 C 0.52713 0.50374 0.52198 0.0
C1993 C 0.55226 0.5329 0.53483 0.0
C1994 C 0.46937 0.54919 0.50181 0.0
C1995 C 0.53032 0.468 0.51979 0.0
C1996 C 0.41437 0.41868 0.49086 0.0
C1997 C 0.42389 0.42035 0.47084 0.0
C1998 C 0.43861 0.44774 0.50396 0.0
C1999 C 0.47382 0.47852 0.49698 0.0
C2000 C 0.48392 0.48004 0.47681 0.0
C2001 C 0.45841 0.45119 0.46386 0.0
C2002 C 0.42627 0.44579 0.5252 0.0
C2003 C 0.52178 0.51188 0.46897 0.0
H2004 H 0.5248 0.59929 0.52651 0.0
H2005 H 0.57348 0.52934 0.54304 0.0
H2006 H 0.47473 0.54997 0.48572 0.0
H2007 H 0.43993 0.52479 0.50459 0.0
H2008 H 0.47029 0.57635 0.50609 0.0
H2009 H 0.55306 0.4686 0.52941 0.0
H2010 H 0.50248 0.44208 0.52347 0.0
H2011 H 0.53701 0.46498 0.50422 0.0
H2012 H 0.38734 0.39507 0.4962 0.0
H2013 H 0.46574 0.45235 0.44838 0.0
H2014 H 0.42583 0.4724 0.52912 0.0
H2015 H 0.44726 0.44396 0.53515 0.0
H2016 H 0.39728 0.42064 0.52807 0.0
H2017 H 0.52342 0.54007 0.47099 0.0
H2018 H 0.52581 0.50815 0.45307 0.0
H2019 H 0.54597 0.51284 0.47741 0.0
C2020 C 0.54329 0.01437 0.46117 0.0
C2021 C 0.57368 0.01034 0.46854 0.0
C2022 C 0.51373 0.01067 0.47373 0.0
C2023 C 0.51399 0.00121 0.49387 0.0
C2024 C 0.54433 0.99642 0.50124 0.0
C2025 C 0.57416 0.00174 0.48855 0.0
C2026 C 0.48246 0.01719 0.46553 0.0
C2027 C 0.54496 0.98501 0.52243 0.0
C2028 C 0.45831 0.02274 0.53214 0.0
C2029 C 0.42383 0.9875 0.53325 0.0
C2030 C 0.48758 0.02783 0.51905 0.0
C2031 C 0.48273 0.99647 0.50737 0.0
C2032 C 0.44841 0.96043 0.50893 0.0
C2033 C 0.419 0.95659 0.5216 0.0
C2034 C 0.52329 0.06697 0.51739 0.0
C2035 C 0.44282 0.92595 0.49727 0.0
H2036 H 0.543 0.021 0.44567 0.0
H2037 H 0.59738 0.99797 0.49418 0.0
H2038 H 0.45408 0.99056 0.46693 0.0
H2039 H 0.48096 0.03991 0.47416 0.0
H2040 H 0.4873 0.02589 0.44976 0.0
H2041 H 0.56985 0.98088 0.52558 0.0
H2042 H 0.54634 0.00738 0.53254 0.0
H2043 H 0.51801 0.95785 0.52584 0.0
H2044 H 0.46177 0.04683 0.54094 0.0
H2045 H 0.39227 0.92935 0.52249 0.0
H2046 H 0.52732 0.07707 0.50187 0.0
H2047 H 0.54909 0.06519 0.52158 0.0
H2048 H 0.52188 0.08872 0.52695 0.0
H2049 H 0.4434 0.93175 0.48124 0.0
H2050 H 0.41515 0.8996 0.50082 0.0
H2051 H 0.46678 0.92037 0.50033 0.0
loop_
_geom_bond_atom_site_label_1
_geom_bond_atom_site_label_2
_geom_bond_distance
_geom_bond_site_symmetry_2
_ccdc_geom_bond_type
Co0 O3 1.970 . S
Co0 N17 1.989 . S
Co0 O25 1.967 . S
Co0 O32 1.920 . S
Co1 O4 1.966 . S
Co1 N10 2.022 . S
Co1 N18 1.993 . S
Co1 O26 1.941 . S
C2 O3 1.258 . S
C2 O4 1.263 . S
O3 Co0 1.970 . S
O3 C2 1.258 . S
O4 Co1 1.966 . S
O4 C2 1.263 . S
C5 O6 1.235 . S
C5 O32 1.289 . S
O6 C5 1.235 . S
C7 C9 1.400 . S
C7 N10 1.351 . S
C7 C12 1.501 . S
C8 C9 1.387 . S
C8 N11 1.341 . S
C9 C7 1.400 . S
C9 C8 1.387 . S
N10 Co1 2.022 . S
N10 C7 1.351 . S
N10 N11 1.365 . S
N11 C8 1.341 . S
N11 N10 1.365 . S
N11 H31 0.862 . S
C12 C7 1.501 . S
C12 H13 0.961 . S
C12 H14 0.961 . S
C12 H15 0.960 . S
H13 C12 0.961 . S
H14 C12 0.961 . S
H15 C12 0.960 . S
C16 N17 1.342 . S
C16 C20 1.401 . S
C16 C21 1.499 . S
N17 Co0 1.989 . S
N17 C16 1.342 . S
N17 N18 1.388 . S
N18 Co1 1.993 . S
N18 N17 1.388 . S
N18 C19 1.346 . S
C19 N18 1.346 . S
C19 C20 1.396 . S
C19 C29 1.510 . S
C20 C16 1.401 . S
C20 C19 1.396 . S
C21 C16 1.499 . S
C21 H22 0.959 . S
C21 H23 0.960 . S
C21 H24 0.961 . S
H22 C21 0.959 . S
H23 C21 0.960 . S
H24 C21 0.961 . S
O25 Co0 1.967 . S
O25 C33 1.258 . S
O26 Co1 1.941 . S
O26 C33 1.266 . S
H27 C29 0.959 . S
H28 C29 0.961 . S
C29 C19 1.510 . S
C29 H27 0.959 . S
C29 H28 0.961 . S
C29 H30 0.960 . S
H30 C29 0.960 . S
H31 N11 0.862 . S
O32 Co0 1.920 . S
O32 C5 1.289 . S
C33 O25 1.258 . S
C33 O26 1.266 . S
Co34 O37 1.970 1_565 S
Co34 N51 1.989 . S
Co34 O59 1.967 . S
Co34 O66 1.920 . S
Co35 O38 1.966 . S
Co35 N44 2.022 . S
Co35 N52 1.993 1_545 S
Co35 O60 1.941 . S
C36 O37 1.258 . S
C36 O38 1.263 . S
O37 Co34 1.970 1_545 S
O37 C36 1.258 . S
O38 Co35 1.966 . S
O38 C36 1.263 . S
C39 O40 1.235 . S
C39 O66 1.289 . S
O40 C39 1.235 . S
C41 C43 1.400 . S
C41 N44 1.351 . S
C41 C46 1.501 . S
C42 C43 1.387 . S
C42 N45 1.341 . S
C43 C41 1.400 . S
C43 C42 1.387 . S
N44 Co35 2.022 . S
N44 C41 1.351 . S
N44 N45 1.365 . S
N45 C42 1.341 . S
N45 N44 1.365 . S
N45 H65 0.862 . S
C46 C41 1.501 . S
C46 H47 0.961 . S
C46 H48 0.961 . S
C46 H49 0.960 . S
H47 C46 0.961 . S
H48 C46 0.961 . S
H49 C46 0.960 . S
C50 N51 1.342 . S
C50 C54 1.401 . S
C50 C55 1.499 . S
N51 Co34 1.989 . S
N51 C50 1.342 . S
N51 N52 1.388 . S
N52 Co35 1.993 1_565 S
N52 N51 1.388 . S
N52 C53 1.346 . S
C53 N52 1.346 . S
C53 C54 1.396 . S
C53 C63 1.510 . S
C54 C50 1.401 . S
C54 C53 1.396 . S
C55 C50 1.499 . S
C55 H56 0.959 . S
C55 H57 0.960 . S
C55 H58 0.961 . S
H56 C55 0.959 . S
H57 C55 0.960 . S
H58 C55 0.961 . S
O59 Co34 1.967 . S
O59 C67 1.258 1_565 S
O60 Co35 1.941 . S
O60 C67 1.266 . S
H61 C63 0.959 . S
H62 C63 0.961 . S
C63 C53 1.510 . S
C63 H61 0.959 . S
C63 H62 0.961 . S
C63 H64 0.960 1_565 S
H64 C63 0.960 1_545 S
H65 N45 0.862 . S
O66 Co34 1.920 . S
O66 C39 1.289 . S
C67 O59 1.258 1_545 S
C67 O60 1.266 . S
Co68 O71 1.970 1_455 S
Co68 N85 1.989 . S
Co68 O93 1.967 . S
Co68 O100 1.920 . S
Co69 O72 1.966 . S
Co69 N78 2.022 . S
Co69 N86 1.993 1_655 S
Co69 O94 1.941 . S
C70 O71 1.258 . S
C70 O72 1.263 . S
O71 Co68 1.970 1_655 S
O71 C70 1.258 . S
O72 Co69 1.966 . S
O72 C70 1.263 . S
C73 O74 1.235 . S
C73 O100 1.289 . S
O74 C73 1.235 . S
C75 C77 1.400 . S
C75 N78 1.351 . S
C75 C80 1.501 . S
C76 C77 1.387 . S
C76 N79 1.341 . S
C77 C75 1.400 . S
C77 C76 1.387 . S
N78 Co69 2.022 . S
N78 C75 1.351 . S
N78 N79 1.365 . S
N79 C76 1.341 . S
N79 N78 1.365 . S
N79 H99 0.862 . S
C80 C75 1.501 . S
C80 H81 0.961 . S
C80 H82 0.961 . S
C80 H83 0.960 . S
H81 C80 0.961 . S
H82 C80 0.961 . S
H83 C80 0.960 . S
C84 N85 1.342 . S
C84 C88 1.401 . S
C84 C89 1.499 . S
N85 Co68 1.989 . S
N85 C84 1.342 . S
N85 N86 1.388 . S
N86 Co69 1.993 1_455 S
N86 N85 1.388 . S
N86 C87 1.346 . S
C87 N86 1.346 . S
C87 C88 1.396 . S
C87 C97 1.510 . S
C88 C84 1.401 . S
C88 C87 1.396 . S
C89 C84 1.499 . S
C89 H90 0.959 . S
C89 H91 0.960 . S
C89 H92 0.961 . S
H90 C89 0.959 . S
H91 C89 0.960 . S
H92 C89 0.961 . S
O93 Co68 1.967 . S
O93 C101 1.258 1_455 S
O94 Co69 1.941 . S
O94 C101 1.266 . S
H95 C97 0.959 . S
H96 C97 0.961 . S
C97 C87 1.510 . S
C97 H95 0.959 . S
C97 H96 0.961 . S
C97 H98 0.960 1_455 S
H98 C97 0.960 1_655 S
H99 N79 0.862 . S
O100 Co68 1.920 . S
O100 C73 1.289 . S
C101 O93 1.258 1_655 S
C101 O94 1.266 . S
Co102 O105 1.970 . S
Co102 N119 1.989 . S
Co102 O127 1.967 . S
Co102 O134 1.920 . S
Co103 O106 1.966 . S
Co103 N112 2.022 . S
Co103 N120 1.993 . S
Co103 O128 1.941 . S
C104 O105 1.258 . S
C104 O106 1.263 . S
O105 Co102 1.970 . S
O105 C104 1.258 . S
O106 Co103 1.966 . S
O106 C104 1.263 . S
C107 O108 1.235 . S
C107 O134 1.289 . S
O108 C107 1.235 . S
C109 C111 1.400 . S
C109 N112 1.351 . S
C109 C114 1.501 . S
C110 C111 1.387 . S
C110 N113 1.341 . S
C111 C109 1.400 . S
C111 C110 1.387 . S
N112 Co103 2.022 . S
N112 C109 1.351 . S
N112 N113 1.365 . S
N113 C110 1.341 . S
N113 N112 1.365 . S
N113 H133 0.862 . S
C114 C109 1.501 . S
C114 H115 0.961 . S
C114 H116 0.961 . S
C114 H117 0.960 . S
H115 C114 0.961 . S
H116 C114 0.961 . S
H117 C114 0.960 . S
C118 N119 1.342 . S
C118 C122 1.401 . S
C118 C123 1.499 . S
N119 Co102 1.989 . S
N119 C118 1.342 . S
N119 N120 1.388 . S
N120 Co103 1.993 . S
N120 N119 1.388 . S
N120 C121 1.346 . S
C121 N120 1.346 . S
C121 C122 1.396 . S
C121 C131 1.510 . S
C122 C118 1.401 . S
C122 C121 1.396 . S
C123 C118 1.499 . S
C123 H124 0.959 . S
C123 H125 0.960 . S
C123 H126 0.961 . S
H124 C123 0.959 . S
H125 C123 0.960 . S
H126 C123 0.961 . S
O127 Co102 1.967 . S
O127 C135 1.258 . S
O128 Co103 1.941 . S
O128 C135 1.266 . S
H129 C131 0.959 . S
H130 C131 0.961 . S
C131 C121 1.510 . S
C131 H129 0.959 . S
C131 H130 0.961 . S
C131 H132 0.960 . S
H132 C131 0.960 . S
H133 N113 0.862 . S
O134 Co102 1.920 . S
O134 C107 1.289 . S
C135 O127 1.258 . S
C135 O128 1.266 . S
Co136 O139 1.970 1_545 S
Co136 N153 1.989 . S
Co136 O161 1.967 . S
Co136 O168 1.920 . S
Co137 O140 1.966 . S
Co137 N146 2.022 . S
Co137 N154 1.993 1_565 S
Co137 O162 1.941 . S
C138 O139 1.258 . S
C138 O140 1.263 . S
O139 Co136 1.970 1_565 S
O139 C138 1.258 . S
O140 Co137 1.966 . S
O140 C138 1.263 . S
C141 O142 1.235 . S
C141 O168 1.289 . S
O142 C141 1.235 . S
C143 C145 1.400 . S
C143 N146 1.351 . S
C143 C148 1.501 . S
C144 C145 1.387 . S
C144 N147 1.341 . S
C145 C143 1.400 . S
C145 C144 1.387 . S
N146 Co137 2.022 . S
N146 C143 1.351 . S
N146 N147 1.365 . S
N147 C144 1.341 . S
N147 N146 1.365 . S
N147 H167 0.862 . S
C148 C143 1.501 . S
C148 H149 0.961 . S
C148 H150 0.961 . S
C148 H151 0.960 . S
H149 C148 0.961 . S
H150 C148 0.961 . S
H151 C148 0.960 . S
C152 N153 1.342 . S
C152 C156 1.401 . S
C152 C157 1.499 . S
N153 Co136 1.989 . S
N153 C152 1.342 . S
N153 N154 1.388 . S
N154 Co137 1.993 1_545 S
N154 N153 1.388 . S
N154 C155 1.346 . S
C155 N154 1.346 . S
C155 C156 1.396 . S
C155 C165 1.510 . S
C156 C152 1.401 . S
C156 C155 1.396 . S
C157 C152 1.499 . S
C157 H158 0.959 . S
C157 H159 0.960 . S
C157 H160 0.961 . S
H158 C157 0.959 . S
H159 C157 0.960 . S
H160 C157 0.961 . S
O161 Co136 1.967 . S
O161 C169 1.258 1_545 S
O162 Co137 1.941 . S
O162 C169 1.266 . S
H163 C165 0.959 . S
H164 C165 0.961 . S
C165 C155 1.510 . S
C165 H163 0.959 . S
C165 H164 0.961 . S
C165 H166 0.960 1_545 S
H166 C165 0.960 1_565 S
H167 N147 0.862 . S
O168 Co136 1.920 . S
O168 C141 1.289 . S
C169 O161 1.258 1_565 S
C169 O162 1.266 . S
Co170 O173 1.970 1_655 S
Co170 N187 1.989 . S
Co170 O195 1.967 . S
Co170 O202 1.920 . S
Co171 O174 1.966 . S
Co171 N180 2.022 . S
Co171 N188 1.993 1_455 S
Co171 O196 1.941 . S
C172 O173 1.258 . S
C172 O174 1.263 . S
O173 Co170 1.970 1_455 S
O173 C172 1.258 . S
O174 Co171 1.966 . S
O174 C172 1.263 . S
C175 O176 1.235 . S
C175 O202 1.289 . S
O176 C175 1.235 . S
C177 C179 1.400 . S
C177 N180 1.351 . S
C177 C182 1.501 . S
C178 C179 1.387 . S
C178 N181 1.341 . S
C179 C177 1.400 . S
C179 C178 1.387 . S
N180 Co171 2.022 . S
N180 C177 1.351 . S
N180 N181 1.365 . S
N181 C178 1.341 . S
N181 N180 1.365 . S
N181 H201 0.862 . S
C182 C177 1.501 . S
C182 H183 0.961 . S
C182 H184 0.961 . S
C182 H185 0.960 . S
H183 C182 0.961 . S
H184 C182 0.961 . S
H185 C182 0.960 . S
C186 N187 1.342 . S
C186 C190 1.401 . S
C186 C191 1.499 . S
N187 Co170 1.989 . S
N187 C186 1.342 . S
N187 N188 1.388 . S
N188 Co171 1.993 1_655 S
N188 N187 1.388 . S
N188 C189 1.346 . S
C189 N188 1.346 . S
C189 C190 1.396 . S
C189 C199 1.510 . S
C190 C186 1.401 . S
C190 C189 1.396 . S
C191 C186 1.499 . S
C191 H192 0.959 . S
C191 H193 0.960 . S
C191 H194 0.961 . S
H192 C191 0.959 . S
H193 C191 0.960 . S
H194 C191 0.961 . S
O195 Co170 1.967 . S
O195 C203 1.258 1_655 S
O196 Co171 1.941 . S
O196 C203 1.266 . S
H197 C199 0.959 . S
H198 C199 0.961 . S
C199 C189 1.510 . S
C199 H197 0.959 . S
C199 H198 0.961 . S
C199 H200 0.960 1_655 S
H200 C199 0.960 1_455 S
H201 N181 0.862 . S
O202 Co170 1.920 . S
O202 C175 1.289 . S
C203 O195 1.258 1_455 S
C203 O196 1.266 . S
Co204 O207 1.970 . S
Co204 N221 1.989 . S
Co204 O229 1.967 1_655 S
Co204 O236 1.920 . S
Co205 O208 1.966 . S
Co205 N214 2.022 . S
Co205 N222 1.993 1_455 S
Co205 O230 1.941 . S
C206 O207 1.258 . S
C206 O208 1.263 1_655 S
O207 Co204 1.970 . S
O207 C206 1.258 . S
O208 Co205 1.966 . S
O208 C206 1.263 1_455 S
C209 O210 1.235 . S
C209 O236 1.289 . S
O210 C209 1.235 . S
C211 C213 1.400 . S
C211 N214 1.351 . S
C211 C216 1.501 . S
C212 C213 1.387 . S
C212 N215 1.341 . S
C213 C211 1.400 . S
C213 C212 1.387 . S
N214 Co205 2.022 . S
N214 C211 1.351 . S
N214 N215 1.365 . S
N215 C212 1.341 . S
N215 N214 1.365 . S
N215 H235 0.862 . S
C216 C211 1.501 . S
C216 H217 0.961 . S
C216 H218 0.961 1_455 S
C216 H219 0.960 . S
H217 C216 0.961 . S
H218 C216 0.961 1_655 S
H219 C216 0.960 . S
C220 N221 1.342 . S
C220 C224 1.401 . S
C220 C225 1.499 . S
N221 Co204 1.989 . S
N221 C220 1.342 . S
N221 N222 1.388 . S
N222 Co205 1.993 1_655 S
N222 N221 1.388 . S
N222 C223 1.346 . S
C223 N222 1.346 . S
C223 C224 1.396 . S
C223 C233 1.510 . S
C224 C220 1.401 . S
C224 C223 1.396 . S
C225 C220 1.499 . S
C225 H226 0.959 . S
C225 H227 0.960 . S
C225 H228 0.961 . S
H226 C225 0.959 . S
H227 C225 0.960 . S
H228 C225 0.961 . S
O229 Co204 1.967 1_455 S
O229 C237 1.258 . S
O230 Co205 1.941 . S
O230 C237 1.266 . S
H231 C233 0.959 . S
H232 C233 0.961 . S
C233 C223 1.510 . S
C233 H231 0.959 . S
C233 H232 0.961 . S
C233 H234 0.960 . S
H234 C233 0.960 . S
H235 N215 0.862 . S
O236 Co204 1.920 . S
O236 C209 1.289 . S
C237 O229 1.258 . S
C237 O230 1.266 . S
Co238 O241 1.970 . S
Co238 N255 1.989 . S
Co238 O263 1.967 . S
Co238 O270 1.920 . S
Co239 O242 1.966 . S
Co239 N248 2.022 . S
Co239 N256 1.993 . S
Co239 O264 1.941 . S
C240 O241 1.258 . S
C240 O242 1.263 . S
O241 Co238 1.970 . S
O241 C240 1.258 . S
O242 Co239 1.966 . S
O242 C240 1.263 . S
C243 O244 1.235 . S
C243 O270 1.289 . S
O244 C243 1.235 . S
C245 C247 1.400 . S
C245 N248 1.351 . S
C245 C250 1.501 . S
C246 C247 1.387 . S
C246 N249 1.341 . S
C247 C245 1.400 . S
C247 C246 1.387 . S
N248 Co239 2.022 . S
N248 C245 1.351 . S
N248 N249 1.365 . S
N249 C246 1.341 . S
N249 N248 1.365 . S
N249 H269 0.862 . S
C250 C245 1.501 . S
C250 H251 0.961 . S
C250 H252 0.961 . S
C250 H253 0.960 . S
H251 C250 0.961 . S
H252 C250 0.961 . S
H253 C250 0.960 . S
C254 N255 1.342 . S
C254 C258 1.401 . S
C254 C259 1.499 . S
N255 Co238 1.989 . S
N255 C254 1.342 . S
N255 N256 1.388 . S
N256 Co239 1.993 . S
N256 N255 1.388 . S
N256 C257 1.346 . S
C257 N256 1.346 . S
C257 C258 1.396 . S
C257 C267 1.510 . S
C258 C254 1.401 . S
C258 C257 1.396 . S
C259 C254 1.499 . S
C259 H260 0.959 . S
C259 H261 0.960 . S
C259 H262 0.961 . S
H260 C259 0.959 . S
H261 C259 0.960 . S
H262 C259 0.961 . S
O263 Co238 1.967 . S
O263 C271 1.258 . S
O264 Co239 1.941 . S
O264 C271 1.266 . S
H265 C267 0.959 . S
H266 C267 0.961 . S
C267 C257 1.510 . S
C267 H265 0.959 . S
C267 H266 0.961 . S
C267 H268 0.960 . S
H268 C267 0.960 . S
H269 N249 0.862 . S
O270 Co238 1.920 . S
O270 C243 1.289 . S
C271 O263 1.258 . S
C271 O264 1.266 . S
Co272 O275 1.970 . S
Co272 N289 1.989 . S
Co272 O297 1.967 1_545 S
Co272 O304 1.920 . S
Co273 O276 1.966 . S
Co273 N282 2.022 . S
Co273 N290 1.993 1_565 S
Co273 O298 1.941 . S
C274 O275 1.258 . S
C274 O276 1.263 1_545 S
O275 Co272 1.970 . S
O275 C274 1.258 . S
O276 Co273 1.966 . S
O276 C274 1.263 1_565 S
C277 O278 1.235 . S
C277 O304 1.289 . S
O278 C277 1.235 . S
C279 C281 1.400 . S
C279 N282 1.351 . S
C279 C284 1.501 . S
C280 C281 1.387 . S
C280 N283 1.341 . S
C281 C279 1.400 . S
C281 C280 1.387 . S
N282 Co273 2.022 . S
N282 C279 1.351 . S
N282 N283 1.365 . S
N283 C280 1.341 . S
N283 N282 1.365 . S
N283 H303 0.862 . S
C284 C279 1.501 . S
C284 H285 0.961 . S
C284 H286 0.961 1_565 S
C284 H287 0.960 . S
H285 C284 0.961 . S
H286 C284 0.961 1_545 S
H287 C284 0.960 . S
C288 N289 1.342 . S
C288 C292 1.401 . S
C288 C293 1.499 . S
N289 Co272 1.989 . S
N289 C288 1.342 . S
N289 N290 1.388 . S
N290 Co273 1.993 1_545 S
N290 N289 1.388 . S
N290 C291 1.346 . S
C291 N290 1.346 . S
C291 C292 1.396 . S
C291 C301 1.510 . S
C292 C288 1.401 . S
C292 C291 1.396 . S
C293 C288 1.499 . S
C293 H294 0.959 . S
C293 H295 0.960 . S
C293 H296 0.961 . S
H294 C293 0.959 . S
H295 C293 0.960 . S
H296 C293 0.961 . S
O297 Co272 1.967 1_565 S
O297 C305 1.258 . S
O298 Co273 1.941 . S
O298 C305 1.266 . S
H299 C301 0.959 . S
H300 C301 0.961 . S
C301 C291 1.510 . S
C301 H299 0.959 . S
C301 H300 0.961 . S
C301 H302 0.960 . S
H302 C301 0.960 . S
H303 N283 0.862 . S
O304 Co272 1.920 . S
O304 C277 1.289 . S
C305 O297 1.258 . S
C305 O298 1.266 . S
Co306 O309 1.970 1_565 S
Co306 N323 1.992 1_565 S
Co306 O331 1.967 . S
Co306 O338 1.920 . S
Co307 O310 1.966 . S
Co307 N316 2.022 . S
Co307 N324 1.993 . S
Co307 O332 1.941 1_545 S
C308 O309 1.258 . S
C308 O310 1.263 . S
O309 Co306 1.970 1_545 S
O309 C308 1.258 . S
O310 Co307 1.966 . S
O310 C308 1.263 . S
C311 O312 1.252 . S
C311 O338 1.286 1_545 S
O312 C311 1.252 . S
C313 C315 1.400 . S
C313 N316 1.351 . S
C313 C318 1.501 . S
C314 C315 1.387 . S
C314 N317 1.341 . S
C315 C313 1.400 . S
C315 C314 1.387 . S
N316 Co307 2.022 . S
N316 C313 1.351 . S
N316 N317 1.365 . S
N317 C314 1.341 . S
N317 N316 1.365 . S
N317 H337 0.862 1_545 S
C318 C313 1.501 . S
C318 H319 0.961 . S
C318 H320 0.961 . S
C318 H321 0.960 . S
H319 C318 0.961 . S
H320 C318 0.961 . S
H321 C318 0.960 . S
C322 N323 1.325 1_565 S
C322 C326 1.402 1_565 S
C322 C327 1.499 . S
N323 Co306 1.992 1_545 S
N323 C322 1.325 1_545 S
N323 N324 1.405 . S
N324 Co307 1.993 . S
N324 N323 1.405 . S
N324 C325 1.346 . S
C325 N324 1.346 . S
C325 C326 1.394 . S
C325 C335 1.510 . S
C326 C322 1.402 1_545 S
C326 C325 1.394 . S
C327 C322 1.499 . S
C327 H328 0.959 . S
C327 H329 0.960 . S
C327 H330 0.961 . S
H328 C327 0.959 . S
H329 C327 0.960 . S
H330 C327 0.961 . S
O331 Co306 1.967 . S
O331 C339 1.258 . S
O332 Co307 1.941 1_565 S
O332 C339 1.266 . S
H333 C335 0.959 . S
H334 C335 0.961 . S
C335 C325 1.510 . S
C335 H333 0.959 . S
C335 H334 0.961 . S
C335 H336 0.960 . S
H336 C335 0.960 . S
H337 N317 0.862 1_565 S
O338 Co306 1.920 . S
O338 C311 1.286 1_565 S
C339 O331 1.258 . S
C339 O332 1.266 . S
Co340 O343 1.970 1_455 S
Co340 N357 1.989 1_455 S
Co340 O365 1.967 . S
Co340 O372 1.920 . S
Co341 O344 1.966 . S
Co341 N350 2.022 . S
Co341 N358 1.993 . S
Co341 O366 1.941 1_655 S
C342 O343 1.258 . S
C342 O344 1.263 . S
O343 Co340 1.970 1_655 S
O343 C342 1.258 . S
O344 Co341 1.966 . S
O344 C342 1.263 . S
C345 O346 1.235 . S
C345 O372 1.289 1_655 S
O346 C345 1.235 . S
C347 C349 1.400 . S
C347 N350 1.351 . S
C347 C352 1.501 . S
C348 C349 1.387 . S
C348 N351 1.341 . S
C349 C347 1.400 . S
C349 C348 1.387 . S
N350 Co341 2.022 . S
N350 C347 1.351 . S
N350 N351 1.365 . S
N351 C348 1.341 . S
N351 N350 1.365 . S
N351 H371 0.862 1_655 S
C352 C347 1.501 . S
C352 H353 0.961 . S
C352 H354 0.961 . S
C352 H355 0.960 . S
H353 C352 0.961 . S
H354 C352 0.961 . S
H355 C352 0.960 . S
C356 N357 1.342 1_455 S
C356 C360 1.401 1_455 S
C356 C361 1.499 . S
N357 Co340 1.989 1_655 S
N357 C356 1.342 1_655 S
N357 N358 1.388 . S
N358 Co341 1.993 . S
N358 N357 1.388 . S
N358 C359 1.346 . S
C359 N358 1.346 . S
C359 C360 1.394 . S
C359 C369 1.510 . S
C360 C356 1.401 1_655 S
C360 C359 1.394 . S
C361 C356 1.499 . S
C361 H362 0.959 . S
C361 H363 0.960 . S
C361 H364 0.961 . S
H362 C361 0.959 . S
H363 C361 0.960 . S
H364 C361 0.961 . S
O365 Co340 1.967 . S
O365 C373 1.258 . S
O366 Co341 1.941 1_455 S
O366 C373 1.266 . S
H367 C369 0.959 . S
H368 C369 0.961 . S
C369 C359 1.510 . S
C369 H367 0.959 . S
C369 H368 0.961 . S
C369 H370 0.960 . S
H370 C369 0.960 . S
H371 N351 0.862 1_455 S
O372 Co340 1.920 . S
O372 C345 1.289 1_455 S
C373 O365 1.258 . S
C373 O366 1.266 . S
Co374 O377 1.970 . S
Co374 N391 1.989 . S
Co374 O399 1.967 . S
Co374 O406 1.920 . S
Co375 O378 1.966 . S
Co375 N384 2.022 . S
Co375 N392 1.993 . S
Co375 O400 1.941 . S
C376 O377 1.258 . S
C376 O378 1.263 . S
O377 Co374 1.970 . S
O377 C376 1.258 . S
O378 Co375 1.966 . S
O378 C376 1.263 . S
C379 O380 1.235 . S
C379 O406 1.289 . S
O380 C379 1.235 . S
C381 C383 1.400 . S
C381 N384 1.351 . S
C381 C386 1.501 . S
C382 C383 1.387 . S
C382 N385 1.341 . S
C383 C381 1.400 . S
C383 C382 1.387 . S
N384 Co375 2.022 . S
N384 C381 1.351 . S
N384 N385 1.365 . S
N385 C382 1.341 . S
N385 N384 1.365 . S
N385 H405 0.862 . S
C386 C381 1.501 . S
C386 H387 0.961 . S
C386 H388 0.961 . S
C386 H389 0.960 . S
H387 C386 0.961 . S
H388 C386 0.961 . S
H389 C386 0.960 . S
C390 N391 1.342 . S
C390 C394 1.401 . S
C390 C395 1.499 . S
N391 Co374 1.989 . S
N391 C390 1.342 . S
N391 N392 1.388 . S
N392 Co375 1.993 . S
N392 N391 1.388 . S
N392 C393 1.346 . S
C393 N392 1.346 . S
C393 C394 1.396 . S
C393 C403 1.510 . S
C394 C390 1.401 . S
C394 C393 1.396 . S
C395 C390 1.499 . S
C395 H396 0.959 . S
C395 H397 0.960 . S
C395 H398 0.961 . S
H396 C395 0.959 . S
H397 C395 0.960 . S
H398 C395 0.961 . S
O399 Co374 1.967 . S
O399 C407 1.258 . S
O400 Co375 1.941 . S
O400 C407 1.266 . S
H401 C403 0.959 . S
H402 C403 0.961 . S
C403 C393 1.510 . S
C403 H401 0.959 . S
C403 H402 0.961 . S
C403 H404 0.960 . S
H404 C403 0.960 . S
H405 N385 0.862 . S
O406 Co374 1.920 . S
O406 C379 1.289 . S
C407 O399 1.258 . S
C407 O400 1.266 . S
Co408 O411 1.970 1_545 S
Co408 N425 1.992 1_545 S
Co408 O433 1.967 . S
Co408 O440 1.920 . S
Co409 O412 1.966 . S
Co409 N418 2.022 . S
Co409 N426 1.993 . S
Co409 O434 1.941 1_565 S
C410 O411 1.258 . S
C410 O412 1.263 . S
O411 Co408 1.970 1_565 S
O411 C410 1.258 . S
O412 Co409 1.966 . S
O412 C410 1.263 . S
C413 O414 1.252 . S
C413 O440 1.286 1_565 S
O414 C413 1.252 . S
C415 C417 1.400 . S
C415 N418 1.351 . S
C415 C420 1.501 . S
C416 C417 1.387 . S
C416 N419 1.341 . S
C417 C415 1.400 . S
C417 C416 1.387 . S
N418 Co409 2.022 . S
N418 C415 1.351 . S
N418 N419 1.365 . S
N419 C416 1.341 . S
N419 N418 1.365 . S
N419 H439 0.862 1_565 S
C420 C415 1.501 . S
C420 H421 0.961 . S
C420 H422 0.961 . S
C420 H423 0.960 . S
H421 C420 0.961 . S
H422 C420 0.961 . S
H423 C420 0.960 . S
C424 N425 1.325 1_545 S
C424 C428 1.402 1_545 S
C424 C429 1.499 . S
N425 Co408 1.992 1_565 S
N425 C424 1.325 1_565 S
N425 N426 1.405 . S
N426 Co409 1.993 . S
N426 N425 1.405 . S
N426 C427 1.346 . S
C427 N426 1.346 . S
C427 C428 1.394 . S
C427 C437 1.510 . S
C428 C424 1.402 1_565 S
C428 C427 1.394 . S
C429 C424 1.499 . S
C429 H430 0.959 . S
C429 H431 0.960 . S
C429 H432 0.961 . S
H430 C429 0.959 . S
H431 C429 0.960 . S
H432 C429 0.961 . S
O433 Co408 1.967 . S
O433 C441 1.258 . S
O434 Co409 1.941 1_545 S
O434 C441 1.266 . S
H435 C437 0.959 . S
H436 C437 0.961 . S
C437 C427 1.510 . S
C437 H435 0.959 . S
C437 H436 0.961 . S
C437 H438 0.960 . S
H438 C437 0.960 . S
H439 N419 0.862 1_545 S
O440 Co408 1.920 . S
O440 C413 1.286 1_545 S
C441 O433 1.258 . S
C441 O434 1.266 . S
Co442 O445 1.970 1_655 S
Co442 N459 1.989 1_655 S
Co442 O467 1.967 . S
Co442 O474 1.920 . S
Co443 O446 1.966 . S
Co443 N452 2.022 . S
Co443 N460 1.993 . S
Co443 O468 1.941 1_455 S
C444 O445 1.258 . S
C444 O446 1.263 . S
O445 Co442 1.970 1_455 S
O445 C444 1.258 . S
O446 Co443 1.966 . S
O446 C444 1.263 . S
C447 O448 1.235 . S
C447 O474 1.289 1_455 S
O448 C447 1.235 . S
C449 C451 1.400 . S
C449 N452 1.351 . S
C449 C454 1.501 . S
C450 C451 1.387 . S
C450 N453 1.341 . S
C451 C449 1.400 . S
C451 C450 1.387 . S
N452 Co443 2.022 . S
N452 C449 1.351 . S
N452 N453 1.365 . S
N453 C450 1.341 . S
N453 N452 1.365 . S
N453 H473 0.862 1_455 S
C454 C449 1.501 . S
C454 H455 0.961 . S
C454 H456 0.961 . S
C454 H457 0.960 . S
H455 C454 0.961 . S
H456 C454 0.961 . S
H457 C454 0.960 . S
C458 N459 1.342 1_655 S
C458 C462 1.401 1_655 S
C458 C463 1.499 . S
N459 Co442 1.989 1_455 S
N459 C458 1.342 1_455 S
N459 N460 1.388 . S
N460 Co443 1.993 . S
N460 N459 1.388 . S
N460 C461 1.346 . S
C461 N460 1.346 . S
C461 C462 1.394 . S
C461 C471 1.510 . S
C462 C458 1.401 1_455 S
C462 C461 1.394 . S
C463 C458 1.499 . S
C463 H464 0.959 . S
C463 H465 0.960 . S
C463 H466 0.961 . S
H464 C463 0.959 . S
H465 C463 0.960 . S
H466 C463 0.961 . S
O467 Co442 1.967 . S
O467 C475 1.258 . S
O468 Co443 1.941 1_655 S
O468 C475 1.266 . S
H469 C471 0.959 . S
H470 C471 0.961 . S
C471 C461 1.510 . S
C471 H469 0.959 . S
C471 H470 0.961 . S
C471 H472 0.960 . S
H472 C471 0.960 . S
H473 N453 0.862 1_655 S
O474 Co442 1.920 . S
O474 C447 1.289 1_655 S
C475 O467 1.258 . S
C475 O468 1.266 . S
Co476 O479 1.970 . S
Co476 N493 1.989 . S
Co476 O501 1.967 . S
Co476 O508 1.920 . S
Co477 O480 1.966 . S
Co477 N486 2.022 . S
Co477 N494 1.993 . S
Co477 O502 1.941 . S
C478 O479 1.258 . S
C478 O480 1.263 . S
O479 Co476 1.970 . S
O479 C478 1.258 . S
O480 Co477 1.966 . S
O480 C478 1.263 . S
C481 O482 1.235 . S
C481 O508 1.289 . S
O482 C481 1.235 . S
C483 C485 1.400 . S
C483 N486 1.351 . S
C483 C488 1.501 . S
C484 C485 1.387 . S
C484 N487 1.341 . S
C485 C483 1.400 . S
C485 C484 1.387 . S
N486 Co477 2.022 . S
N486 C483 1.351 . S
N486 N487 1.365 . S
N487 C484 1.341 . S
N487 N486 1.365 . S
N487 H507 0.862 . S
C488 C483 1.501 . S
C488 H489 0.961 . S
C488 H490 0.961 . S
C488 H491 0.960 . S
H489 C488 0.961 . S
H490 C488 0.961 . S
H491 C488 0.960 . S
C492 N493 1.342 . S
C492 C496 1.401 . S
C492 C497 1.499 . S
N493 Co476 1.989 . S
N493 C492 1.342 . S
N493 N494 1.388 . S
N494 Co477 1.993 . S
N494 N493 1.388 . S
N494 C495 1.346 . S
C495 N494 1.346 . S
C495 C496 1.396 . S
C495 C505 1.510 . S
C496 C492 1.401 . S
C496 C495 1.396 . S
C497 C492 1.499 . S
C497 H498 0.959 . S
C497 H499 0.960 . S
C497 H500 0.961 . S
H498 C497 0.959 . S
H499 C497 0.960 . S
H500 C497 0.961 . S
O501 Co476 1.967 . S
O501 C509 1.258 . S
O502 Co477 1.941 . S
O502 C509 1.266 . S
H503 C505 0.959 . S
H504 C505 0.961 . S
C505 C495 1.510 . S
C505 H503 0.959 . S
C505 H504 0.961 . S
C505 H506 0.960 . S
H506 C505 0.960 . S
H507 N487 0.862 . S
O508 Co476 1.920 . S
O508 C481 1.289 . S
C509 O501 1.258 . S
C509 O502 1.266 . S
Co510 O513 1.970 . S
Co510 N527 1.989 . S
Co510 O535 1.967 1_455 S
Co510 O542 1.920 . S
Co511 O514 1.966 . S
Co511 N520 2.022 . S
Co511 N528 1.993 1_655 S
Co511 O536 1.941 . S
C512 O513 1.258 . S
C512 O514 1.263 1_455 S
O513 Co510 1.970 . S
O513 C512 1.258 . S
O514 Co511 1.966 . S
O514 C512 1.263 1_655 S
C515 O516 1.235 . S
C515 O542 1.289 . S
O516 C515 1.235 . S
C517 C519 1.400 . S
C517 N520 1.351 . S
C517 C522 1.501 . S
C518 C519 1.387 . S
C518 N521 1.341 . S
C519 C517 1.400 . S
C519 C518 1.387 . S
N520 Co511 2.022 . S
N520 C517 1.351 . S
N520 N521 1.365 . S
N521 C518 1.341 . S
N521 N520 1.365 . S
N521 H541 0.862 . S
C522 C517 1.501 . S
C522 H523 0.961 . S
C522 H524 0.961 1_655 S
C522 H525 0.960 . S
H523 C522 0.961 . S
H524 C522 0.961 1_455 S
H525 C522 0.960 . S
C526 N527 1.342 . S
C526 C530 1.401 . S
C526 C531 1.499 . S
N527 Co510 1.989 . S
N527 C526 1.342 . S
N527 N528 1.388 . S
N528 Co511 1.993 1_455 S
N528 N527 1.388 . S
N528 C529 1.346 . S
C529 N528 1.346 . S
C529 C530 1.396 . S
C529 C539 1.510 . S
C530 C526 1.401 . S
C530 C529 1.396 . S
C531 C526 1.499 . S
C531 H532 0.959 . S
C531 H533 0.960 . S
C531 H534 0.961 . S
H532 C531 0.959 . S
H533 C531 0.960 . S
H534 C531 0.961 . S
O535 Co510 1.967 1_655 S
O535 C543 1.258 . S
O536 Co511 1.941 . S
O536 C543 1.266 . S
H537 C539 0.959 . S
H538 C539 0.961 . S
C539 C529 1.510 . S
C539 H537 0.959 . S
C539 H538 0.961 . S
C539 H540 0.960 . S
H540 C539 0.960 . S
H541 N521 0.862 . S
O542 Co510 1.920 . S
O542 C515 1.289 . S
C543 O535 1.258 . S
C543 O536 1.266 . S
Co544 O547 1.970 . S
Co544 N561 1.989 . S
Co544 O569 1.967 . S
Co544 O576 1.920 . S
Co545 O548 1.966 . S
Co545 N554 2.022 . S
Co545 N562 1.993 . S
Co545 O570 1.941 . S
C546 O547 1.258 . S
C546 O548 1.263 . S
O547 Co544 1.970 . S
O547 C546 1.258 . S
O548 Co545 1.966 . S
O548 C546 1.263 . S
C549 O550 1.235 . S
C549 O576 1.289 . S
O550 C549 1.235 . S
C551 C553 1.400 . S
C551 N554 1.351 . S
C551 C556 1.501 . S
C552 C553 1.387 . S
C552 N555 1.341 . S
C553 C551 1.400 . S
C553 C552 1.387 . S
N554 Co545 2.022 . S
N554 C551 1.351 . S
N554 N555 1.365 . S
N555 C552 1.341 . S
N555 N554 1.365 . S
N555 H575 0.862 . S
C556 C551 1.501 . S
C556 H557 0.961 . S
C556 H558 0.961 . S
C556 H559 0.960 . S
H557 C556 0.961 . S
H558 C556 0.961 . S
H559 C556 0.960 . S
C560 N561 1.342 . S
C560 C564 1.401 . S
C560 C565 1.499 . S
N561 Co544 1.989 . S
N561 C560 1.342 . S
N561 N562 1.388 . S
N562 Co545 1.993 . S
N562 N561 1.388 . S
N562 C563 1.346 . S
C563 N562 1.346 . S
C563 C564 1.396 . S
C563 C573 1.510 . S
C564 C560 1.401 . S
C564 C563 1.396 . S
C565 C560 1.499 . S
C565 H566 0.959 . S
C565 H567 0.960 . S
C565 H568 0.961 . S
H566 C565 0.959 . S
H567 C565 0.960 . S
H568 C565 0.961 . S
O569 Co544 1.967 . S
O569 C577 1.258 . S
O570 Co545 1.941 . S
O570 C577 1.266 . S
H571 C573 0.959 . S
H572 C573 0.961 . S
C573 C563 1.510 . S
C573 H571 0.959 . S
C573 H572 0.961 . S
C573 H574 0.960 . S
H574 C573 0.960 . S
H575 N555 0.862 . S
O576 Co544 1.920 . S
O576 C549 1.289 . S
C577 O569 1.258 . S
C577 O570 1.266 . S
Co578 O581 1.970 . S
Co578 N595 1.989 . S
Co578 O603 1.967 1_565 S
Co578 O610 1.920 . S
Co579 O582 1.966 . S
Co579 N588 2.022 . S
Co579 N596 1.993 1_545 S
Co579 O604 1.941 . S
C580 O581 1.258 . S
C580 O582 1.263 1_565 S
O581 Co578 1.970 . S
O581 C580 1.258 . S
O582 Co579 1.966 . S
O582 C580 1.263 1_545 S
C583 O584 1.235 . S
C583 O610 1.289 . S
O584 C583 1.235 . S
C585 C587 1.400 . S
C585 N588 1.351 . S
C585 C590 1.501 . S
C586 C587 1.387 . S
C586 N589 1.341 . S
C587 C585 1.400 . S
C587 C586 1.387 . S
N588 Co579 2.022 . S
N588 C585 1.351 . S
N588 N589 1.365 . S
N589 C586 1.341 . S
N589 N588 1.365 . S
N589 H609 0.862 . S
C590 C585 1.501 . S
C590 H591 0.961 . S
C590 H592 0.961 1_545 S
C590 H593 0.960 . S
H591 C590 0.961 . S
H592 C590 0.961 1_565 S
H593 C590 0.960 . S
C594 N595 1.342 . S
C594 C598 1.401 . S
C594 C599 1.499 . S
N595 Co578 1.989 . S
N595 C594 1.342 . S
N595 N596 1.388 . S
N596 Co579 1.993 1_565 S
N596 N595 1.388 . S
N596 C597 1.346 . S
C597 N596 1.346 . S
C597 C598 1.396 . S
C597 C607 1.510 . S
C598 C594 1.401 . S
C598 C597 1.396 . S
C599 C594 1.499 . S
C599 H600 0.959 . S
C599 H601 0.960 . S
C599 H602 0.961 . S
H600 C599 0.959 . S
H601 C599 0.960 . S
H602 C599 0.961 . S
O603 Co578 1.967 1_545 S
O603 C611 1.258 . S
O604 Co579 1.941 . S
O604 C611 1.266 . S
H605 C607 0.959 . S
H606 C607 0.961 . S
C607 C597 1.510 . S
C607 H605 0.959 . S
C607 H606 0.961 . S
C607 H608 0.960 . S
H608 C607 0.960 . S
H609 N589 0.862 . S
O610 Co578 1.920 . S
O610 C583 1.289 . S
C611 O603 1.258 . S
C611 O604 1.266 . S
C612 C613 1.391 . S
C612 C614 1.394 . S
C612 H628 0.931 . S
C613 C612 1.391 . S
C613 C617 1.376 . S
C614 C612 1.394 . S
C614 C615 1.380 . S
C614 C618 1.531 . S
C615 C614 1.380 . S
C615 C616 1.408 1_554 S
C615 C623 1.492 1_554 S
C616 C615 1.408 1_556 S
C616 C617 1.367 1_556 S
C616 C619 1.539 . S
C617 C613 1.376 . S
C617 C616 1.367 1_554 S
C617 H629 0.929 . S
C618 C614 1.531 . S
C618 H630 0.960 . S
C618 H631 0.962 . S
C618 H632 0.960 . S
C619 C616 1.539 . S
C619 H633 0.961 . S
C619 H634 0.961 . S
C619 H635 0.961 . S
C620 C621 1.370 . S
C620 C622 1.363 . S
C620 H636 0.931 . S
C621 C620 1.370 . S
C621 C625 1.408 . S
C622 C620 1.363 . S
C622 C623 1.370 . S
C622 C626 1.524 . S
C623 C615 1.492 1_556 S
C623 C622 1.370 . S
C623 C624 1.403 . S
C624 C623 1.403 . S
C624 C625 1.404 . S
C624 C627 1.539 1_556 S
C625 C621 1.408 . S
C625 C624 1.404 . S
C625 H637 0.930 . S
C626 C622 1.524 . S
C626 H638 0.956 . S
C626 H639 0.961 . S
C626 H640 0.961 . S
C627 C624 1.539 1_554 S
C627 H641 0.958 . S
C627 H642 0.961 . S
C627 H643 0.960 . S
H628 C612 0.931 . S
H629 C617 0.929 . S
H630 C618 0.960 . S
H631 C618 0.962 . S
H632 C618 0.960 . S
H633 C619 0.961 . S
H634 C619 0.961 . S
H635 C619 0.961 . S
H636 C620 0.931 . S
H637 C625 0.930 . S
H638 C626 0.956 . S
H639 C626 0.961 . S
H640 C626 0.961 . S
H641 C627 0.958 . S
H642 C627 0.961 . S
H643 C627 0.960 . S
C644 C645 1.391 . S
C644 C646 1.394 1_554 S
C644 H660 0.931 . S
C645 C644 1.391 . S
C645 C649 1.376 . S
C646 C644 1.394 1_556 S
C646 C647 1.369 . S
C646 C650 1.531 . S
C647 C646 1.369 . S
C647 C648 1.410 1_556 S
C647 C655 1.503 . S
C648 C647 1.410 1_554 S
C648 C649 1.392 . S
C648 C651 1.503 1_554 S
C649 C645 1.376 . S
C649 C648 1.392 . S
C649 H661 0.929 . S
C650 C646 1.531 . S
C650 H662 0.960 . S
C650 H663 0.962 . S
C650 H664 0.960 . S
C651 C648 1.503 1_556 S
C651 H665 0.927 1_556 S
C651 H666 0.973 . S
C651 H667 0.993 . S
C652 C653 1.370 . S
C652 C654 1.363 . S
C652 H668 0.931 . S
C653 C652 1.370 . S
C653 C657 1.408 . S
C654 C652 1.363 . S
C654 C655 1.370 . S
C654 C658 1.524 1_556 S
C655 C647 1.503 . S
C655 C654 1.370 . S
C655 C656 1.403 . S
C656 C655 1.403 . S
C656 C657 1.404 . S
C656 C659 1.539 . S
C657 C653 1.408 . S
C657 C656 1.404 . S
C657 H669 0.930 . S
C658 C654 1.524 1_554 S
C658 H670 0.956 . S
C658 H671 0.961 . S
C658 H672 0.961 . S
C659 C656 1.539 . S
C659 H673 0.958 . S
C659 H674 0.961 . S
C659 H675 0.960 . S
H660 C644 0.931 . S
H661 C649 0.929 . S
H662 C650 0.960 . S
H663 C650 0.962 . S
H664 C650 0.960 . S
H665 C651 0.927 1_554 S
H666 C651 0.973 . S
H667 C651 0.993 . S
H668 C652 0.931 . S
H669 C657 0.930 . S
H670 C658 0.956 . S
H671 C658 0.961 . S
H672 C658 0.961 . S
H673 C659 0.958 . S
H674 C659 0.961 . S
H675 C659 0.960 . S
C676 C677 1.391 . S
C676 C678 1.394 1_554 S
C676 H692 0.916 1_554 S
C677 C676 1.391 . S
C677 C681 1.376 . S
C678 C676 1.394 1_556 S
C678 C679 1.369 . S
C678 C682 1.531 . S
C679 C678 1.369 . S
C679 C680 1.410 1_556 S
C679 C687 1.503 . S
C680 C679 1.410 1_554 S
C680 C681 1.392 . S
C680 C683 1.511 . S
C681 C677 1.376 . S
C681 C680 1.392 . S
C681 H693 0.929 . S
C682 C678 1.531 . S
C682 H694 0.960 . S
C682 H695 0.962 . S
C682 H696 0.960 . S
C683 C680 1.511 . S
C683 H697 0.961 . S
C683 H698 0.961 . S
C683 H699 0.961 . S
C684 C685 1.370 . S
C684 C686 1.363 . S
C684 H700 0.931 . S
C685 C684 1.370 . S
C685 C689 1.408 . S
C686 C684 1.363 . S
C686 C687 1.370 . S
C686 C690 1.524 . S
C687 C679 1.503 . S
C687 C686 1.370 . S
C687 C688 1.403 . S
C688 C687 1.403 . S
C688 C689 1.404 . S
C688 C691 1.539 . S
C689 C685 1.408 . S
C689 C688 1.404 . S
C689 H701 0.930 . S
C690 C686 1.524 . S
C690 H702 0.956 . S
C690 H703 0.961 1_556 S
C690 H704 0.961 . S
C691 C688 1.539 . S
C691 H705 0.958 . S
C691 H706 0.961 . S
C691 H707 0.960 . S
H692 C676 0.916 1_556 S
H693 C681 0.929 . S
H694 C682 0.960 . S
H695 C682 0.962 . S
H696 C682 0.960 . S
H697 C683 0.961 . S
H698 C683 0.961 . S
H699 C683 0.961 . S
H700 C684 0.931 . S
H701 C689 0.930 . S
H702 C690 0.956 . S
H703 C690 0.961 1_554 S
H704 C690 0.961 . S
H705 C691 0.958 . S
H706 C691 0.961 . S
H707 C691 0.960 . S
C708 C709 1.391 . S
C708 C710 1.394 . S
C708 H724 0.931 . S
C709 C708 1.391 . S
C709 C713 1.376 . S
C710 C708 1.394 . S
C710 C711 1.369 . S
C710 C714 1.531 . S
C711 C710 1.369 . S
C711 C712 1.410 . S
C711 C719 1.503 . S
C712 C711 1.410 . S
C712 C713 1.392 . S
C712 C715 1.511 . S
C713 C709 1.376 . S
C713 C712 1.392 . S
C713 H725 0.929 . S
C714 C710 1.531 . S
C714 H726 0.960 . S
C714 H727 0.962 . S
C714 H728 0.960 . S
C715 C712 1.511 . S
C715 H729 0.961 . S
C715 H730 0.961 . S
C715 H731 0.961 . S
C716 C717 1.370 . S
C716 C718 1.363 . S
C716 H732 0.931 . S
C717 C716 1.370 . S
C717 C721 1.408 . S
C718 C716 1.363 . S
C718 C719 1.370 1_556 S
C718 C722 1.524 . S
C719 C711 1.503 . S
C719 C718 1.370 1_554 S
C719 C720 1.403 . S
C720 C719 1.403 . S
C720 C721 1.404 1_554 S
C720 C723 1.539 . S
C721 C717 1.408 . S
C721 C720 1.404 1_556 S
C721 H733 0.930 1_556 S
C722 C718 1.524 . S
C722 H734 0.956 . S
C722 H735 0.961 . S
C722 H736 0.961 . S
C723 C720 1.539 . S
C723 H737 0.958 . S
C723 H738 0.961 . S
C723 H739 0.960 . S
H724 C708 0.931 . S
H725 C713 0.929 . S
H726 C714 0.960 . S
H727 C714 0.962 . S
H728 C714 0.960 . S
H729 C715 0.961 . S
H730 C715 0.961 . S
H731 C715 0.961 . S
H732 C716 0.931 . S
H733 C721 0.930 1_554 S
H734 C722 0.956 . S
H735 C722 0.961 . S
H736 C722 0.961 . S
H737 C723 0.958 . S
H738 C723 0.961 . S
H739 C723 0.960 . S
C740 C741 1.391 . S
C740 C742 1.358 1_556 S
C740 H756 0.931 . S
C741 C740 1.391 . S
C741 C745 1.376 . S
C742 C740 1.358 1_554 S
C742 C743 1.383 . S
C742 C746 1.555 . S
C743 C742 1.383 . S
C743 C744 1.410 1_554 S
C743 C751 1.503 . S
C744 C743 1.410 1_556 S
C744 C745 1.392 . S
C744 C747 1.511 1_556 S
C745 C741 1.376 . S
C745 C744 1.392 . S
C745 H757 0.929 . S
C746 C742 1.555 . S
C746 H758 0.960 . S
C746 H759 0.962 . S
C746 H760 0.960 . S
C747 C744 1.511 1_554 S
C747 H761 0.961 1_554 S
C747 H762 0.961 . S
C747 H763 0.961 . S
C748 C749 1.370 . S
C748 C750 1.363 . S
C748 H764 0.931 . S
C749 C748 1.370 . S
C749 C753 1.408 . S
C750 C748 1.363 . S
C750 C751 1.370 . S
C750 C754 1.524 1_554 S
C751 C743 1.503 . S
C751 C750 1.370 . S
C751 C752 1.403 . S
C752 C751 1.403 . S
C752 C753 1.404 . S
C752 C755 1.539 . S
C753 C749 1.408 . S
C753 C752 1.404 . S
C753 H765 0.930 . S
C754 C750 1.524 1_556 S
C754 H766 0.956 . S
C754 H767 0.961 . S
C754 H768 0.961 . S
C755 C752 1.539 . S
C755 H769 0.958 . S
C755 H770 0.961 . S
C755 H771 0.960 . S
H756 C740 0.931 . S
H757 C745 0.929 . S
H758 C746 0.960 . S
H759 C746 0.962 . S
H760 C746 0.960 . S
H761 C747 0.961 1_556 S
H762 C747 0.961 . S
H763 C747 0.961 . S
H764 C748 0.931 . S
H765 C753 0.930 . S
H766 C754 0.956 . S
H767 C754 0.961 . S
H768 C754 0.961 . S
H769 C755 0.958 . S
H770 C755 0.961 . S
H771 C755 0.960 . S
C772 C773 1.391 . S
C772 C774 1.394 . S
C772 H788 0.931 . S
C773 C772 1.391 . S
C773 C777 1.376 . S
C774 C772 1.394 . S
C774 C775 1.369 . S
C774 C778 1.531 1_554 S
C775 C774 1.369 . S
C775 C776 1.410 . S
C775 C783 1.503 . S
C776 C775 1.410 . S
C776 C777 1.392 . S
C776 C779 1.511 . S
C777 C773 1.376 . S
C777 C776 1.392 . S
C777 H789 0.929 . S
C778 C774 1.531 1_556 S
C778 H790 0.960 . S
C778 H791 0.962 . S
C778 H792 0.960 . S
C779 C776 1.511 . S
C779 H793 0.961 . S
C779 H794 0.961 . S
C779 H795 0.961 . S
C780 C781 1.370 . S
C780 C782 1.363 . S
C780 H796 0.931 . S
C781 C780 1.370 . S
C781 C785 1.408 . S
C782 C780 1.363 . S
C782 C783 1.370 1_556 S
C782 C786 1.524 1_556 S
C783 C775 1.503 . S
C783 C782 1.370 1_554 S
C783 C784 1.403 1_554 S
C784 C783 1.403 1_556 S
C784 C785 1.404 . S
C784 C787 1.539 1_556 S
C785 C781 1.408 . S
C785 C784 1.404 . S
C785 H797 0.930 . S
C786 C782 1.524 1_554 S
C786 H798 0.977 . S
C786 H799 0.961 . S
C786 H800 0.961 . S
C787 C784 1.539 1_554 S
C787 H801 0.958 1_554 S
C787 H802 0.961 . S
C787 H803 0.960 . S
H788 C772 0.931 . S
H789 C777 0.929 . S
H790 C778 0.960 . S
H791 C778 0.962 . S
H792 C778 0.960 . S
H793 C779 0.961 . S
H794 C779 0.961 . S
H795 C779 0.961 . S
H796 C780 0.931 . S
H797 C785 0.930 . S
H798 C786 0.977 . S
H799 C786 0.961 . S
H800 C786 0.961 . S
H801 C787 0.958 1_556 S
H802 C787 0.961 . S
H803 C787 0.960 . S
C804 C805 1.391 . S
C804 C806 1.394 . S
C804 H820 0.931 . S
C805 C804 1.391 . S
C805 C809 1.376 . S
C806 C804 1.394 . S
C806 C807 1.369 . S
C806 C810 1.531 . S
C807 C806 1.369 . S
C807 C808 1.410 . S
C807 C815 1.503 . S
C808 C807 1.410 . S
C808 C809 1.392 . S
C808 C811 1.511 . S
C809 C805 1.376 . S
C809 C808 1.392 . S
C809 H821 0.929 . S
C810 C806 1.531 . S
C810 H822 0.960 . S
C810 H823 0.962 1_455 S
C810 H824 0.960 . S
C811 C808 1.511 . S
C811 H825 0.961 . S
C811 H826 0.961 . S
C811 H827 0.961 . S
C812 C813 1.370 1_655 S
C812 C814 1.363 . S
C812 H828 0.931 . S
C813 C812 1.370 1_455 S
C813 C817 1.408 . S
C814 C812 1.363 . S
C814 C815 1.370 1_655 S
C814 C818 1.524 . S
C815 C807 1.503 . S
C815 C814 1.370 1_455 S
C815 C816 1.403 . S
C816 C815 1.403 . S
C816 C817 1.404 . S
C816 C819 1.539 . S
C817 C813 1.408 . S
C817 C816 1.404 . S
C817 H829 0.930 . S
C818 C814 1.524 . S
C818 H830 0.956 . S
C818 H831 0.961 . S
C818 H832 0.961 . S
C819 C816 1.539 . S
C819 H833 0.958 . S
C819 H834 0.961 . S
C819 H835 0.960 . S
H820 C804 0.931 . S
H821 C809 0.929 . S
H822 C810 0.960 . S
H823 C810 0.962 1_655 S
H824 C810 0.960 . S
H825 C811 0.961 . S
H826 C811 0.961 . S
H827 C811 0.961 . S
H828 C812 0.931 . S
H829 C817 0.930 . S
H830 C818 0.956 . S
H831 C818 0.961 . S
H832 C818 0.961 . S
H833 C819 0.958 . S
H834 C819 0.961 . S
H835 C819 0.960 . S
C836 C837 1.391 . S
C836 C838 1.394 . S
C836 H852 0.931 . S
C837 C836 1.391 . S
C837 C841 1.376 . S
C838 C836 1.394 . S
C838 C839 1.369 . S
C838 C842 1.531 . S
C839 C838 1.369 . S
C839 C840 1.410 . S
C839 C847 1.503 . S
C840 C839 1.410 . S
C840 C841 1.392 . S
C840 C843 1.511 . S
C841 C837 1.376 . S
C841 C840 1.392 . S
C841 H853 0.929 . S
C842 C838 1.531 . S
C842 H854 0.960 . S
C842 H855 0.962 . S
C842 H856 0.960 . S
C843 C840 1.511 . S
C843 H857 0.961 . S
C843 H858 0.961 . S
C843 H859 0.961 . S
C844 C845 1.370 . S
C844 C846 1.363 . S
C844 H860 0.931 . S
C845 C844 1.370 . S
C845 C849 1.408 . S
C846 C844 1.363 . S
C846 C847 1.370 . S
C846 C850 1.524 . S
C847 C839 1.503 . S
C847 C846 1.370 . S
C847 C848 1.403 . S
C848 C847 1.403 . S
C848 C849 1.404 . S
C848 C851 1.539 . S
C849 C845 1.408 . S
C849 C848 1.404 . S
C849 H861 0.930 . S
C850 C846 1.524 . S
C850 H862 0.956 . S
C850 H863 0.961 . S
C850 H864 0.961 . S
C851 C848 1.539 . S
C851 H865 0.958 . S
C851 H866 0.961 . S
C851 H867 0.960 . S
H852 C836 0.931 . S
H853 C841 0.929 . S
H854 C842 0.960 . S
H855 C842 0.962 . S
H856 C842 0.960 . S
H857 C843 0.961 . S
H858 C843 0.961 . S
H859 C843 0.961 . S
H860 C844 0.931 . S
H861 C849 0.930 . S
H862 C850 0.956 . S
H863 C850 0.961 . S
H864 C850 0.961 . S
H865 C851 0.958 . S
H866 C851 0.961 . S
H867 C851 0.960 . S
C868 C869 1.391 . S
C868 C870 1.394 . S
C868 H884 0.931 . S
C869 C868 1.391 . S
C869 C873 1.376 . S
C870 C868 1.394 . S
C870 C871 1.369 . S
C870 C874 1.531 . S
C871 C870 1.369 . S
C871 C872 1.410 . S
C871 C879 1.503 . S
C872 C871 1.410 . S
C872 C873 1.392 . S
C872 C875 1.511 . S
C873 C869 1.376 . S
C873 C872 1.392 . S
C873 H885 0.929 . S
C874 C870 1.531 . S
C874 H886 0.960 1_565 S
C874 H887 0.962 . S
C874 H888 0.960 . S
C875 C872 1.511 . S
C875 H889 0.961 . S
C875 H890 0.961 . S
C875 H891 0.961 1_565 S
C876 C877 1.370 . S
C876 C878 1.363 . S
C876 H892 0.931 . S
C877 C876 1.370 . S
C877 C881 1.408 1_565 S
C878 C876 1.363 . S
C878 C879 1.370 . S
C878 C882 1.524 . S
C879 C871 1.503 . S
C879 C878 1.370 . S
C879 C880 1.403 1_565 S
C880 C879 1.403 1_545 S
C880 C881 1.404 . S
C880 C883 1.539 . S
C881 C877 1.408 1_545 S
C881 C880 1.404 . S
C881 H893 0.930 . S
C882 C878 1.524 . S
C882 H894 0.956 . S
C882 H895 0.961 . S
C882 H896 0.961 . S
C883 C880 1.539 . S
C883 H897 0.958 . S
C883 H898 0.961 . S
C883 H899 0.960 . S
H884 C868 0.931 . S
H885 C873 0.929 . S
H886 C874 0.960 1_545 S
H887 C874 0.962 . S
H888 C874 0.960 . S
H889 C875 0.961 . S
H890 C875 0.961 . S
H891 C875 0.961 1_545 S
H892 C876 0.931 . S
H893 C881 0.930 . S
H894 C882 0.956 . S
H895 C882 0.961 . S
H896 C882 0.961 . S
H897 C883 0.958 . S
H898 C883 0.961 . S
H899 C883 0.960 . S
C900 C901 1.391 . S
C900 C902 1.394 . S
C900 H916 0.931 . S
C901 C900 1.391 . S
C901 C905 1.376 . S
C902 C900 1.394 . S
C902 C903 1.369 . S
C902 C906 1.531 . S
C903 C902 1.369 . S
C903 C904 1.410 . S
C903 C911 1.503 . S
C904 C903 1.410 . S
C904 C905 1.392 . S
C904 C907 1.511 . S
C905 C901 1.376 . S
C905 C904 1.392 . S
C905 H917 0.929 . S
C906 C902 1.531 . S
C906 H918 0.960 . S
C906 H919 0.962 . S
C906 H920 0.960 . S
C907 C904 1.511 . S
C907 H921 0.961 . S
C907 H922 0.961 . S
C907 H923 0.961 . S
C908 C909 1.370 . S
C908 C910 1.363 . S
C908 H924 0.931 . S
C909 C908 1.370 . S
C909 C913 1.408 . S
C910 C908 1.363 . S
C910 C911 1.370 . S
C910 C914 1.524 . S
C911 C903 1.503 . S
C911 C910 1.370 . S
C911 C912 1.403 . S
C912 C911 1.403 . S
C912 C913 1.404 . S
C912 C915 1.539 . S
C913 C909 1.408 . S
C913 C912 1.404 . S
C913 H925 0.930 . S
C914 C910 1.524 . S
C914 H926 0.956 . S
C914 H927 0.961 . S
C914 H928 0.961 . S
C915 C912 1.539 . S
C915 H929 0.958 . S
C915 H930 0.961 . S
C915 H931 0.960 . S
H916 C900 0.931 . S
H917 C905 0.929 . S
H918 C906 0.960 . S
H919 C906 0.962 . S
H920 C906 0.960 . S
H921 C907 0.961 . S
H922 C907 0.961 . S
H923 C907 0.961 . S
H924 C908 0.931 . S
H925 C913 0.930 . S
H926 C914 0.956 . S
H927 C914 0.961 . S
H928 C914 0.961 . S
H929 C915 0.958 . S
H930 C915 0.961 . S
H931 C915 0.960 . S
C932 C933 1.391 . S
C932 C934 1.394 . S
C932 H948 0.931 . S
C933 C932 1.391 . S
C933 C937 1.376 . S
C934 C932 1.394 . S
C934 C935 1.369 . S
C934 C938 1.531 . S
C935 C934 1.369 . S
C935 C936 1.410 . S
C935 C943 1.503 . S
C936 C935 1.410 . S
C936 C937 1.392 . S
C936 C939 1.511 . S
C937 C933 1.376 . S
C937 C936 1.392 . S
C937 H949 0.929 . S
C938 C934 1.531 . S
C938 H950 0.960 . S
C938 H951 0.962 . S
C938 H952 0.960 . S
C939 C936 1.511 . S
C939 H953 0.961 . S
C939 H954 0.961 . S
C939 H955 0.961 . S
C940 C941 1.370 . S
C940 C942 1.363 . S
C940 H956 0.931 . S
C941 C940 1.370 . S
C941 C945 1.408 . S
C942 C940 1.363 . S
C942 C943 1.370 . S
C942 C946 1.524 . S
C943 C935 1.503 . S
C943 C942 1.370 . S
C943 C944 1.403 . S
C944 C943 1.403 . S
C944 C945 1.404 . S
C944 C947 1.539 . S
C945 C941 1.408 . S
C945 C944 1.404 . S
C945 H957 0.930 . S
C946 C942 1.524 . S
C946 H958 0.956 . S
C946 H959 0.961 . S
C946 H960 0.961 . S
C947 C944 1.539 . S
C947 H961 0.958 . S
C947 H962 0.961 . S
C947 H963 0.960 . S
H948 C932 0.931 . S
H949 C937 0.929 . S
H950 C938 0.960 . S
H951 C938 0.962 . S
H952 C938 0.960 . S
H953 C939 0.961 . S
H954 C939 0.961 . S
H955 C939 0.961 . S
H956 C940 0.931 . S
H957 C945 0.930 . S
H958 C946 0.956 . S
H959 C946 0.961 . S
H960 C946 0.961 . S
H961 C947 0.958 . S
H962 C947 0.961 . S
H963 C947 0.960 . S
C964 C965 1.391 . S
C964 C966 1.394 . S
C964 H980 0.931 . S
C965 C964 1.391 . S
C965 C969 1.376 . S
C966 C964 1.394 . S
C966 C967 1.369 . S
C966 C970 1.531 . S
C967 C966 1.369 . S
C967 C968 1.410 . S
C967 C975 1.503 . S
C968 C967 1.410 . S
C968 C969 1.392 . S
C968 C971 1.511 . S
C969 C965 1.376 . S
C969 C968 1.392 . S
C969 H981 0.929 . S
C970 C966 1.531 . S
C970 H982 0.960 . S
C970 H983 0.962 . S
C970 H984 0.960 . S
C971 C968 1.511 . S
C971 H985 0.961 . S
C971 H986 0.961 . S
C971 H987 0.961 . S
C972 C973 1.370 . S
C972 C974 1.363 . S
C972 H988 0.931 . S
C973 C972 1.370 . S
C973 C977 1.408 . S
C974 C972 1.363 . S
C974 C975 1.370 . S
C974 C978 1.524 . S
C975 C967 1.503 . S
C975 C974 1.370 . S
C975 C976 1.403 . S
C976 C975 1.403 . S
C976 C977 1.404 . S
C976 C979 1.539 . S
C977 C973 1.408 . S
C977 C976 1.404 . S
C977 H989 0.930 . S
C978 C974 1.524 . S
C978 H990 0.956 . S
C978 H991 0.961 . S
C978 H992 0.961 . S
C979 C976 1.539 . S
C979 H993 0.958 . S
C979 H994 0.961 . S
C979 H995 0.960 . S
H980 C964 0.931 . S
H981 C969 0.929 . S
H982 C970 0.960 . S
H983 C970 0.962 . S
H984 C970 0.960 . S
H985 C971 0.961 . S
H986 C971 0.961 . S
H987 C971 0.961 . S
H988 C972 0.931 . S
H989 C977 0.930 . S
H990 C978 0.956 . S
H991 C978 0.961 . S
H992 C978 0.961 . S
H993 C979 0.958 . S
H994 C979 0.961 . S
H995 C979 0.960 . S
C996 C997 1.391 . S
C996 C998 1.394 . S
C996 H1012 0.931 . S
C997 C996 1.391 . S
C997 C1001 1.376 . S
C998 C996 1.394 . S
C998 C999 1.369 . S
C998 C1002 1.531 . S
C999 C998 1.369 . S
C999 C1000 1.410 . S
C999 C1007 1.503 . S
C1000 C999 1.410 . S
C1000 C1001 1.392 . S
C1000 C1003 1.511 . S
C1001 C997 1.376 . S
C1001 C1000 1.392 . S
C1001 H1013 0.929 . S
C1002 C998 1.531 . S
C1002 H1014 0.960 . S
C1002 H1015 0.962 . S
C1002 H1016 0.960 . S
C1003 C1000 1.511 . S
C1003 H1017 0.961 . S
C1003 H1018 0.961 . S
C1003 H1019 0.961 . S
C1004 C1005 1.370 . S
C1004 C1006 1.363 . S
C1004 H1020 0.931 . S
C1005 C1004 1.370 . S
C1005 C1009 1.408 . S
C1006 C1004 1.363 . S
C1006 C1007 1.370 . S
C1006 C1010 1.524 . S
C1007 C999 1.503 . S
C1007 C1006 1.370 . S
C1007 C1008 1.403 . S
C1008 C1007 1.403 . S
C1008 C1009 1.404 . S
C1008 C1011 1.539 . S
C1009 C1005 1.408 . S
C1009 C1008 1.404 . S
C1009 H1021 0.930 . S
C1010 C1006 1.524 . S
C1010 H1022 0.956 . S
C1010 H1023 0.961 . S
C1010 H1024 0.961 . S
C1011 C1008 1.539 . S
C1011 H1025 0.958 . S
C1011 H1026 0.961 . S
C1011 H1027 0.960 . S
H1012 C996 0.931 . S
H1013 C1001 0.929 . S
H1014 C1002 0.960 . S
H1015 C1002 0.962 . S
H1016 C1002 0.960 . S
H1017 C1003 0.961 . S
H1018 C1003 0.961 . S
H1019 C1003 0.961 . S
H1020 C1004 0.931 . S
H1021 C1009 0.930 . S
H1022 C1010 0.956 . S
H1023 C1010 0.961 . S
H1024 C1010 0.961 . S
H1025 C1011 0.958 . S
H1026 C1011 0.961 . S
H1027 C1011 0.960 . S
C1028 C1029 1.391 . S
C1028 C1030 1.394 . S
C1028 H1044 0.931 . S
C1029 C1028 1.391 . S
C1029 C1033 1.376 . S
C1030 C1028 1.394 . S
C1030 C1031 1.369 . S
C1030 C1034 1.531 . S
C1031 C1030 1.369 . S
C1031 C1032 1.410 . S
C1031 C1039 1.503 . S
C1032 C1031 1.410 . S
C1032 C1033 1.392 . S
C1032 C1035 1.511 . S
C1033 C1029 1.376 . S
C1033 C1032 1.392 . S
C1033 H1045 0.929 . S
C1034 C1030 1.531 . S
C1034 H1046 0.960 . S
C1034 H1047 0.962 . S
C1034 H1048 0.960 . S
C1035 C1032 1.511 . S
C1035 H1049 0.961 . S
C1035 H1050 0.961 . S
C1035 H1051 0.961 . S
C1036 C1037 1.370 . S
C1036 C1038 1.363 . S
C1036 H1052 0.931 . S
C1037 C1036 1.370 . S
C1037 C1041 1.408 . S
C1038 C1036 1.363 . S
C1038 C1039 1.370 . S
C1038 C1042 1.524 . S
C1039 C1031 1.503 . S
C1039 C1038 1.370 . S
C1039 C1040 1.403 . S
C1040 C1039 1.403 . S
C1040 C1041 1.404 . S
C1040 C1043 1.539 . S
C1041 C1037 1.408 . S
C1041 C1040 1.404 . S
C1041 H1053 0.930 . S
C1042 C1038 1.524 . S
C1042 H1054 0.956 . S
C1042 H1055 0.961 . S
C1042 H1056 0.961 . S
C1043 C1040 1.539 . S
C1043 H1057 0.958 . S
C1043 H1058 0.961 . S
C1043 H1059 0.960 . S
H1044 C1028 0.931 . S
H1045 C1033 0.929 . S
H1046 C1034 0.960 . S
H1047 C1034 0.962 . S
H1048 C1034 0.960 . S
H1049 C1035 0.961 . S
H1050 C1035 0.961 . S
H1051 C1035 0.961 . S
H1052 C1036 0.931 . S
H1053 C1041 0.930 . S
H1054 C1042 0.956 . S
H1055 C1042 0.961 . S
H1056 C1042 0.961 . S
H1057 C1043 0.958 . S
H1058 C1043 0.961 . S
H1059 C1043 0.960 . S
C1060 C1061 1.391 . S
C1060 C1062 1.394 . S
C1060 H1076 0.931 . S
C1061 C1060 1.391 . S
C1061 C1065 1.376 . S
C1062 C1060 1.394 . S
C1062 C1063 1.369 . S
C1062 C1066 1.531 . S
C1063 C1062 1.369 . S
C1063 C1064 1.410 . S
C1063 C1071 1.503 . S
C1064 C1063 1.410 . S
C1064 C1065 1.392 . S
C1064 C1067 1.511 . S
C1065 C1061 1.376 . S
C1065 C1064 1.392 . S
C1065 H1077 0.929 . S
C1066 C1062 1.531 . S
C1066 H1078 0.960 . S
C1066 H1079 0.962 . S
C1066 H1080 0.960 . S
C1067 C1064 1.511 . S
C1067 H1081 0.961 . S
C1067 H1082 0.961 . S
C1067 H1083 0.961 . S
C1068 C1069 1.370 . S
C1068 C1070 1.363 . S
C1068 H1084 0.931 . S
C1069 C1068 1.370 . S
C1069 C1073 1.408 . S
C1070 C1068 1.363 . S
C1070 C1071 1.370 . S
C1070 C1074 1.524 . S
C1071 C1063 1.503 . S
C1071 C1070 1.370 . S
C1071 C1072 1.403 . S
C1072 C1071 1.403 . S
C1072 C1073 1.404 . S
C1072 C1075 1.539 . S
C1073 C1069 1.408 . S
C1073 C1072 1.404 . S
C1073 H1085 0.930 . S
C1074 C1070 1.524 . S
C1074 H1086 0.956 . S
C1074 H1087 0.961 . S
C1074 H1088 0.961 . S
C1075 C1072 1.539 . S
C1075 H1089 0.958 . S
C1075 H1090 0.961 . S
C1075 H1091 0.960 . S
H1076 C1060 0.931 . S
H1077 C1065 0.929 . S
H1078 C1066 0.960 . S
H1079 C1066 0.962 . S
H1080 C1066 0.960 . S
H1081 C1067 0.961 . S
H1082 C1067 0.961 . S
H1083 C1067 0.961 . S
H1084 C1068 0.931 . S
H1085 C1073 0.930 . S
H1086 C1074 0.956 . S
H1087 C1074 0.961 . S
H1088 C1074 0.961 . S
H1089 C1075 0.958 . S
H1090 C1075 0.961 . S
H1091 C1075 0.960 . S
C1092 C1093 1.391 . S
C1092 C1094 1.394 . S
C1092 H1108 0.931 . S
C1093 C1092 1.391 . S
C1093 C1097 1.376 . S
C1094 C1092 1.394 . S
C1094 C1095 1.369 . S
C1094 C1098 1.531 . S
C1095 C1094 1.369 . S
C1095 C1096 1.410 1_655 S
C1095 C1103 1.503 . S
C1096 C1095 1.410 1_455 S
C1096 C1097 1.392 1_455 S
C1096 C1099 1.511 . S
C1097 C1093 1.376 . S
C1097 C1096 1.392 1_655 S
C1097 H1109 0.929 1_655 S
C1098 C1094 1.531 . S
C1098 H1110 0.960 . S
C1098 H1111 0.962 . S
C1098 H1112 0.960 . S
C1099 C1096 1.511 . S
C1099 H1113 0.961 . S
C1099 H1114 0.961 . S
C1099 H1115 0.961 . S
C1100 C1101 1.370 . S
C1100 C1102 1.363 . S
C1100 H1116 0.931 . S
C1101 C1100 1.370 . S
C1101 C1105 1.408 . S
C1102 C1100 1.363 . S
C1102 C1103 1.370 . S
C1102 C1106 1.524 . S
C1103 C1095 1.503 . S
C1103 C1102 1.370 . S
C1103 C1104 1.403 . S
C1104 C1103 1.403 . S
C1104 C1105 1.404 . S
C1104 C1107 1.539 . S
C1105 C1101 1.408 . S
C1105 C1104 1.404 . S
C1105 H1117 0.930 . S
C1106 C1102 1.524 . S
C1106 H1118 0.956 . S
C1106 H1119 0.962 1_655 S
C1106 H1120 0.961 . S
C1107 C1104 1.539 . S
C1107 H1121 0.958 . S
C1107 H1122 0.961 . S
C1107 H1123 0.960 . S
H1108 C1092 0.931 . S
H1109 C1097 0.929 1_455 S
H1110 C1098 0.960 . S
H1111 C1098 0.962 . S
H1112 C1098 0.960 . S
H1113 C1099 0.961 . S
H1114 C1099 0.961 . S
H1115 C1099 0.961 . S
H1116 C1100 0.931 . S
H1117 C1105 0.930 . S
H1118 C1106 0.956 . S
H1119 C1106 0.962 1_455 S
H1120 C1106 0.961 . S
H1121 C1107 0.958 . S
H1122 C1107 0.961 . S
H1123 C1107 0.960 . S
C1124 C1125 1.391 . S
C1124 C1126 1.394 . S
C1124 H1140 0.931 . S
C1125 C1124 1.391 . S
C1125 C1129 1.376 . S
C1126 C1124 1.394 . S
C1126 C1127 1.369 . S
C1126 C1130 1.531 . S
C1127 C1126 1.369 . S
C1127 C1128 1.410 . S
C1127 C1135 1.503 . S
C1128 C1127 1.410 . S
C1128 C1129 1.392 . S
C1128 C1131 1.511 . S
C1129 C1125 1.376 . S
C1129 C1128 1.392 . S
C1129 H1141 0.929 . S
C1130 C1126 1.531 . S
C1130 H1142 0.960 . S
C1130 H1143 0.962 . S
C1130 H1144 0.960 . S
C1131 C1128 1.511 . S
C1131 H1145 0.961 . S
C1131 H1146 0.961 . S
C1131 H1147 0.961 . S
C1132 C1133 1.370 . S
C1132 C1134 1.363 . S
C1132 H1148 0.931 . S
C1133 C1132 1.370 . S
C1133 C1137 1.408 . S
C1134 C1132 1.363 . S
C1134 C1135 1.370 . S
C1134 C1138 1.524 . S
C1135 C1127 1.503 . S
C1135 C1134 1.370 . S
C1135 C1136 1.403 . S
C1136 C1135 1.403 . S
C1136 C1137 1.404 . S
C1136 C1139 1.539 . S
C1137 C1133 1.408 . S
C1137 C1136 1.404 . S
C1137 H1149 0.930 . S
C1138 C1134 1.524 . S
C1138 H1150 0.956 . S
C1138 H1151 0.961 . S
C1138 H1152 0.961 . S
C1139 C1136 1.539 . S
C1139 H1153 0.958 . S
C1139 H1154 0.961 . S
C1139 H1155 0.960 . S
H1140 C1124 0.931 . S
H1141 C1129 0.929 . S
H1142 C1130 0.960 . S
H1143 C1130 0.962 . S
H1144 C1130 0.960 . S
H1145 C1131 0.961 . S
H1146 C1131 0.961 . S
H1147 C1131 0.961 . S
H1148 C1132 0.931 . S
H1149 C1137 0.930 . S
H1150 C1138 0.956 . S
H1151 C1138 0.961 . S
H1152 C1138 0.961 . S
H1153 C1139 0.958 . S
H1154 C1139 0.961 . S
H1155 C1139 0.960 . S
C1156 C1157 1.391 . S
C1156 C1158 1.394 . S
C1156 H1172 0.931 . S
C1157 C1156 1.391 . S
C1157 C1161 1.378 1_545 S
C1158 C1156 1.394 . S
C1158 C1159 1.369 . S
C1158 C1162 1.531 . S
C1159 C1158 1.369 . S
C1159 C1160 1.410 . S
C1159 C1167 1.503 . S
C1160 C1159 1.410 . S
C1160 C1161 1.390 1_545 S
C1160 C1163 1.520 1_545 S
C1161 C1157 1.378 1_565 S
C1161 C1160 1.390 1_565 S
C1161 H1173 0.929 . S
C1162 C1158 1.531 . S
C1162 H1174 0.960 . S
C1162 H1175 0.962 . S
C1162 H1176 0.960 . S
C1163 C1160 1.520 1_565 S
C1163 H1177 0.955 1_565 S
C1163 H1178 0.943 1_565 S
C1163 H1179 0.976 . S
C1164 C1165 1.370 . S
C1164 C1166 1.363 . S
C1164 H1180 0.931 . S
C1165 C1164 1.370 . S
C1165 C1169 1.408 . S
C1166 C1164 1.363 . S
C1166 C1167 1.370 . S
C1166 C1170 1.524 . S
C1167 C1159 1.503 . S
C1167 C1166 1.370 . S
C1167 C1168 1.403 1_545 S
C1168 C1167 1.403 1_565 S
C1168 C1169 1.404 1_565 S
C1168 C1171 1.539 . S
C1169 C1165 1.408 . S
C1169 C1168 1.404 1_545 S
C1169 H1181 0.930 1_545 S
C1170 C1166 1.524 . S
C1170 H1182 0.956 . S
C1170 H1183 0.961 . S
C1170 H1184 0.961 . S
C1171 C1168 1.539 . S
C1171 H1185 0.958 . S
C1171 H1186 0.961 . S
C1171 H1187 0.960 . S
H1172 C1156 0.931 . S
H1173 C1161 0.929 . S
H1174 C1162 0.960 . S
H1175 C1162 0.962 . S
H1176 C1162 0.960 . S
H1177 C1163 0.955 1_545 S
H1178 C1163 0.943 1_545 S
H1179 C1163 0.976 . S
H1180 C1164 0.931 . S
H1181 C1169 0.930 1_565 S
H1182 C1170 0.956 . S
H1183 C1170 0.961 . S
H1184 C1170 0.961 . S
H1185 C1171 0.958 . S
H1186 C1171 0.961 . S
H1187 C1171 0.960 . S
C1188 C1189 1.391 . S
C1188 C1190 1.394 . S
C1188 H1204 0.931 . S
C1189 C1188 1.391 . S
C1189 C1193 1.376 . S
C1190 C1188 1.394 . S
C1190 C1191 1.369 . S
C1190 C1194 1.531 . S
C1191 C1190 1.369 . S
C1191 C1192 1.410 . S
C1191 C1199 1.503 . S
C1192 C1191 1.410 . S
C1192 C1193 1.392 . S
C1192 C1195 1.511 . S
C1193 C1189 1.376 . S
C1193 C1192 1.392 . S
C1193 H1205 0.929 . S
C1194 C1190 1.531 . S
C1194 H1206 0.960 . S
C1194 H1207 0.962 . S
C1194 H1208 0.960 . S
C1195 C1192 1.511 . S
C1195 H1209 0.961 . S
C1195 H1210 0.961 . S
C1195 H1211 0.961 . S
C1196 C1197 1.370 . S
C1196 C1198 1.363 . S
C1196 H1212 0.931 . S
C1197 C1196 1.370 . S
C1197 C1201 1.408 . S
C1198 C1196 1.363 . S
C1198 C1199 1.370 . S
C1198 C1202 1.524 . S
C1199 C1191 1.503 . S
C1199 C1198 1.370 . S
C1199 C1200 1.403 . S
C1200 C1199 1.403 . S
C1200 C1201 1.404 . S
C1200 C1203 1.539 . S
C1201 C1197 1.408 . S
C1201 C1200 1.404 . S
C1201 H1213 0.930 . S
C1202 C1198 1.524 . S
C1202 H1214 0.956 . S
C1202 H1215 0.961 . S
C1202 H1216 0.961 . S
C1203 C1200 1.539 . S
C1203 H1217 0.958 . S
C1203 H1218 0.961 . S
C1203 H1219 0.960 . S
H1204 C1188 0.931 . S
H1205 C1193 0.929 . S
H1206 C1194 0.960 . S
H1207 C1194 0.962 . S
H1208 C1194 0.960 . S
H1209 C1195 0.961 . S
H1210 C1195 0.961 . S
H1211 C1195 0.961 . S
H1212 C1196 0.931 . S
H1213 C1201 0.930 . S
H1214 C1202 0.956 . S
H1215 C1202 0.961 . S
H1216 C1202 0.961 . S
H1217 C1203 0.958 . S
H1218 C1203 0.961 . S
H1219 C1203 0.960 . S
C1220 C1221 1.391 . S
C1220 C1222 1.394 . S
C1220 H1236 0.931 . S
C1221 C1220 1.391 . S
C1221 C1225 1.364 . S
C1222 C1220 1.394 . S
C1222 C1223 1.369 . S
C1222 C1226 1.531 . S
C1223 C1222 1.369 . S
C1223 C1224 1.410 . S
C1223 C1231 1.503 . S
C1224 C1223 1.410 . S
C1224 C1225 1.408 . S
C1224 C1227 1.511 1_545 S
C1225 C1221 1.364 . S
C1225 C1224 1.408 . S
C1225 H1237 0.927 1_545 S
C1226 C1222 1.531 . S
C1226 H1238 0.960 . S
C1226 H1239 0.962 1_545 S
C1226 H1240 0.960 . S
C1227 C1224 1.511 1_565 S
C1227 H1241 0.961 . S
C1227 H1242 0.961 . S
C1227 H1243 0.961 1_565 S
C1228 C1229 1.370 . S
C1228 C1230 1.363 . S
C1228 H1244 0.931 . S
C1229 C1228 1.370 . S
C1229 C1233 1.408 1_565 S
C1230 C1228 1.363 . S
C1230 C1231 1.370 1_565 S
C1230 C1234 1.524 . S
C1231 C1223 1.503 . S
C1231 C1230 1.370 1_545 S
C1231 C1232 1.403 . S
C1232 C1231 1.403 . S
C1232 C1233 1.404 . S
C1232 C1235 1.539 . S
C1233 C1229 1.408 1_545 S
C1233 C1232 1.404 . S
C1233 H1245 0.930 . S
C1234 C1230 1.524 . S
C1234 H1246 0.956 . S
C1234 H1247 0.961 . S
C1234 H1248 0.961 . S
C1235 C1232 1.539 . S
C1235 H1249 0.958 . S
C1235 H1250 0.961 . S
C1235 H1251 0.960 . S
H1236 C1220 0.931 . S
H1237 C1225 0.927 1_565 S
H1238 C1226 0.960 . S
H1239 C1226 0.962 1_565 S
H1240 C1226 0.960 . S
H1241 C1227 0.961 . S
H1242 C1227 0.961 . S
H1243 C1227 0.961 1_545 S
H1244 C1228 0.931 . S
H1245 C1233 0.930 . S
H1246 C1234 0.956 . S
H1247 C1234 0.961 . S
H1248 C1234 0.961 . S
H1249 C1235 0.958 . S
H1250 C1235 0.961 . S
H1251 C1235 0.960 . S
C1252 C1253 1.391 . S
C1252 C1254 1.394 . S
C1252 H1268 0.931 . S
C1253 C1252 1.391 . S
C1253 C1257 1.376 1_455 S
C1254 C1252 1.394 . S
C1254 C1255 1.369 1_455 S
C1254 C1258 1.531 . S
C1255 C1254 1.369 1_655 S
C1255 C1256 1.410 . S
C1255 C1263 1.503 . S
C1256 C1255 1.410 . S
C1256 C1257 1.392 . S
C1256 C1259 1.511 . S
C1257 C1253 1.376 1_655 S
C1257 C1256 1.392 . S
C1257 H1269 0.929 . S
C1258 C1254 1.531 . S
C1258 H1270 0.960 . S
C1258 H1271 0.962 . S
C1258 H1272 0.960 . S
C1259 C1256 1.511 . S
C1259 H1273 0.961 . S
C1259 H1274 0.961 . S
C1259 H1275 0.961 . S
C1260 C1261 1.370 1_455 S
C1260 C1262 1.363 . S
C1260 H1276 0.931 . S
C1261 C1260 1.370 1_655 S
C1261 C1265 1.408 . S
C1262 C1260 1.363 . S
C1262 C1263 1.370 1_455 S
C1262 C1266 1.524 . S
C1263 C1255 1.503 . S
C1263 C1262 1.370 1_655 S
C1263 C1264 1.403 . S
C1264 C1263 1.403 . S
C1264 C1265 1.404 . S
C1264 C1267 1.539 . S
C1265 C1261 1.408 . S
C1265 C1264 1.404 . S
C1265 H1277 0.930 . S
C1266 C1262 1.524 . S
C1266 H1278 0.956 . S
C1266 H1279 0.961 . S
C1266 H1280 0.961 . S
C1267 C1264 1.539 . S
C1267 H1281 0.958 . S
C1267 H1282 0.961 . S
C1267 H1283 0.960 . S
H1268 C1252 0.931 . S
H1269 C1257 0.929 . S
H1270 C1258 0.960 . S
H1271 C1258 0.962 . S
H1272 C1258 0.960 . S
H1273 C1259 0.961 . S
H1274 C1259 0.961 . S
H1275 C1259 0.961 . S
H1276 C1260 0.931 . S
H1277 C1265 0.930 . S
H1278 C1266 0.956 . S
H1279 C1266 0.961 . S
H1280 C1266 0.961 . S
H1281 C1267 0.958 . S
H1282 C1267 0.961 . S
H1283 C1267 0.960 . S
C1284 C1285 1.391 . S
C1284 C1286 1.394 . S
C1284 H1300 0.931 . S
C1285 C1284 1.391 . S
C1285 C1289 1.376 . S
C1286 C1284 1.394 . S
C1286 C1287 1.369 . S
C1286 C1290 1.531 . S
C1287 C1286 1.369 . S
C1287 C1288 1.410 . S
C1287 C1295 1.503 . S
C1288 C1287 1.410 . S
C1288 C1289 1.392 . S
C1288 C1291 1.511 . S
C1289 C1285 1.376 . S
C1289 C1288 1.392 . S
C1289 H1301 0.929 . S
C1290 C1286 1.531 . S
C1290 H1302 0.960 . S
C1290 H1303 0.962 . S
C1290 H1304 0.960 . S
C1291 C1288 1.511 . S
C1291 H1305 0.961 . S
C1291 H1306 0.961 . S
C1291 H1307 0.961 . S
C1292 C1293 1.370 . S
C1292 C1294 1.363 . S
C1292 H1308 0.931 . S
C1293 C1292 1.370 . S
C1293 C1297 1.408 . S
C1294 C1292 1.363 . S
C1294 C1295 1.370 . S
C1294 C1298 1.524 . S
C1295 C1287 1.503 . S
C1295 C1294 1.370 . S
C1295 C1296 1.403 . S
C1296 C1295 1.403 . S
C1296 C1297 1.404 . S
C1296 C1299 1.539 . S
C1297 C1293 1.408 . S
C1297 C1296 1.404 . S
C1297 H1309 0.930 . S
C1298 C1294 1.524 . S
C1298 H1310 0.956 . S
C1298 H1311 0.961 . S
C1298 H1312 0.961 . S
C1299 C1296 1.539 . S
C1299 H1313 0.958 . S
C1299 H1314 0.961 . S
C1299 H1315 0.960 . S
H1300 C1284 0.931 . S
H1301 C1289 0.929 . S
H1302 C1290 0.960 . S
H1303 C1290 0.962 . S
H1304 C1290 0.960 . S
H1305 C1291 0.961 . S
H1306 C1291 0.961 . S
H1307 C1291 0.961 . S
H1308 C1292 0.931 . S
H1309 C1297 0.930 . S
H1310 C1298 0.956 . S
H1311 C1298 0.961 . S
H1312 C1298 0.961 . S
H1313 C1299 0.958 . S
H1314 C1299 0.961 . S
H1315 C1299 0.960 . S
C1316 C1317 1.391 1_565 S
C1316 C1318 1.394 . S
C1316 H1332 0.931 . S
C1317 C1316 1.391 1_545 S
C1317 C1321 1.376 . S
C1318 C1316 1.394 . S
C1318 C1319 1.369 1_565 S
C1318 C1322 1.531 . S
C1319 C1318 1.369 1_545 S
C1319 C1320 1.410 . S
C1319 C1327 1.503 . S
C1320 C1319 1.410 . S
C1320 C1321 1.392 . S
C1320 C1323 1.511 . S
C1321 C1317 1.376 . S
C1321 C1320 1.392 . S
C1321 H1333 0.929 . S
C1322 C1318 1.531 . S
C1322 H1334 0.960 . S
C1322 H1335 0.962 . S
C1322 H1336 0.960 . S
C1323 C1320 1.511 . S
C1323 H1337 0.961 . S
C1323 H1338 0.961 . S
C1323 H1339 0.961 . S
C1324 C1325 1.370 . S
C1324 C1326 1.363 . S
C1324 H1340 0.931 . S
C1325 C1324 1.370 . S
C1325 C1329 1.408 1_565 S
C1326 C1324 1.363 . S
C1326 C1327 1.370 1_565 S
C1326 C1330 1.524 . S
C1327 C1319 1.503 . S
C1327 C1326 1.370 1_545 S
C1327 C1328 1.403 . S
C1328 C1327 1.403 . S
C1328 C1329 1.404 . S
C1328 C1331 1.539 . S
C1329 C1325 1.408 1_545 S
C1329 C1328 1.404 . S
C1329 H1341 0.930 . S
C1330 C1326 1.524 . S
C1330 H1342 0.956 . S
C1330 H1343 0.961 . S
C1330 H1344 0.961 . S
C1331 C1328 1.539 . S
C1331 H1345 0.958 . S
C1331 H1346 0.961 . S
C1331 H1347 0.960 . S
H1332 C1316 0.931 . S
H1333 C1321 0.929 . S
H1334 C1322 0.960 . S
H1335 C1322 0.962 . S
H1336 C1322 0.960 . S
H1337 C1323 0.961 . S
H1338 C1323 0.961 . S
H1339 C1323 0.961 . S
H1340 C1324 0.931 . S
H1341 C1329 0.930 . S
H1342 C1330 0.956 . S
H1343 C1330 0.961 . S
H1344 C1330 0.961 . S
H1345 C1331 0.958 . S
H1346 C1331 0.961 . S
H1347 C1331 0.960 . S
C1348 C1349 1.391 . S
C1348 C1350 1.394 . S
C1348 H1364 0.931 . S
C1349 C1348 1.391 . S
C1349 C1353 1.376 1_655 S
C1350 C1348 1.394 . S
C1350 C1351 1.369 . S
C1350 C1354 1.531 . S
C1351 C1350 1.369 . S
C1351 C1352 1.410 1_655 S
C1351 C1359 1.503 . S
C1352 C1351 1.410 1_455 S
C1352 C1353 1.392 . S
C1352 C1355 1.511 . S
C1353 C1349 1.376 1_455 S
C1353 C1352 1.392 . S
C1353 H1365 0.929 . S
C1354 C1350 1.531 . S
C1354 H1366 0.960 . S
C1354 H1367 0.962 . S
C1354 H1368 0.960 . S
C1355 C1352 1.511 . S
C1355 H1369 0.961 . S
C1355 H1370 0.961 . S
C1355 H1371 0.961 . S
C1356 C1357 1.370 . S
C1356 C1358 1.361 1_455 S
C1356 H1372 0.935 . S
C1357 C1356 1.370 . S
C1357 C1361 1.408 . S
C1358 C1356 1.361 1_655 S
C1358 C1359 1.370 . S
C1358 C1362 1.518 . S
C1359 C1351 1.503 . S
C1359 C1358 1.370 . S
C1359 C1360 1.403 . S
C1360 C1359 1.403 . S
C1360 C1361 1.404 1_655 S
C1360 C1363 1.539 . S
C1361 C1357 1.408 . S
C1361 C1360 1.404 1_455 S
C1361 H1373 0.930 . S
C1362 C1358 1.518 . S
C1362 H1374 0.975 . S
C1362 H1375 0.953 1_655 S
C1362 H1376 0.958 1_655 S
C1363 C1360 1.539 . S
C1363 H1377 0.957 . S
C1363 H1378 0.963 1_655 S
C1363 H1379 0.959 1_655 S
H1364 C1348 0.931 . S
H1365 C1353 0.929 . S
H1366 C1354 0.960 . S
H1367 C1354 0.962 . S
H1368 C1354 0.960 . S
H1369 C1355 0.961 . S
H1370 C1355 0.961 . S
H1371 C1355 0.961 . S
H1372 C1356 0.935 . S
H1373 C1361 0.930 . S
H1374 C1362 0.975 . S
H1375 C1362 0.953 1_455 S
H1376 C1362 0.958 1_455 S
H1377 C1363 0.957 . S
H1378 C1363 0.963 1_455 S
H1379 C1363 0.959 1_455 S
C1380 C1381 1.391 . S
C1380 C1382 1.394 . S
C1380 H1396 0.931 . S
C1381 C1380 1.391 . S
C1381 C1385 1.376 . S
C1382 C1380 1.394 . S
C1382 C1383 1.369 . S
C1382 C1386 1.531 . S
C1383 C1382 1.369 . S
C1383 C1384 1.410 . S
C1383 C1391 1.503 . S
C1384 C1383 1.410 . S
C1384 C1385 1.392 . S
C1384 C1387 1.511 . S
C1385 C1381 1.376 . S
C1385 C1384 1.392 . S
C1385 H1397 0.929 . S
C1386 C1382 1.531 . S
C1386 H1398 0.960 . S
C1386 H1399 0.962 . S
C1386 H1400 0.960 . S
C1387 C1384 1.511 . S
C1387 H1401 0.961 . S
C1387 H1402 0.961 . S
C1387 H1403 0.961 . S
C1388 C1389 1.370 . S
C1388 C1390 1.363 . S
C1388 H1404 0.931 . S
C1389 C1388 1.370 . S
C1389 C1393 1.408 . S
C1390 C1388 1.363 . S
C1390 C1391 1.370 . S
C1390 C1394 1.524 . S
C1391 C1383 1.503 . S
C1391 C1390 1.370 . S
C1391 C1392 1.403 . S
C1392 C1391 1.403 . S
C1392 C1393 1.404 . S
C1392 C1395 1.539 . S
C1393 C1389 1.408 . S
C1393 C1392 1.404 . S
C1393 H1405 0.930 . S
C1394 C1390 1.524 . S
C1394 H1406 0.956 . S
C1394 H1407 0.961 . S
C1394 H1408 0.961 . S
C1395 C1392 1.539 . S
C1395 H1409 0.958 . S
C1395 H1410 0.961 . S
C1395 H1411 0.960 . S
H1396 C1380 0.931 . S
H1397 C1385 0.929 . S
H1398 C1386 0.960 . S
H1399 C1386 0.962 . S
H1400 C1386 0.960 . S
H1401 C1387 0.961 . S
H1402 C1387 0.961 . S
H1403 C1387 0.961 . S
H1404 C1388 0.931 . S
H1405 C1393 0.930 . S
H1406 C1394 0.956 . S
H1407 C1394 0.961 . S
H1408 C1394 0.961 . S
H1409 C1395 0.958 . S
H1410 C1395 0.961 . S
H1411 C1395 0.960 . S
C1412 C1413 1.391 . S
C1412 C1414 1.394 . S
C1412 H1428 0.931 . S
C1413 C1412 1.391 . S
C1413 C1417 1.376 . S
C1414 C1412 1.394 . S
C1414 C1415 1.369 . S
C1414 C1418 1.531 . S
C1415 C1414 1.369 . S
C1415 C1416 1.410 . S
C1415 C1423 1.503 . S
C1416 C1415 1.410 . S
C1416 C1417 1.392 . S
C1416 C1419 1.511 . S
C1417 C1413 1.376 . S
C1417 C1416 1.392 . S
C1417 H1429 0.929 . S
C1418 C1414 1.531 . S
C1418 H1430 0.960 . S
C1418 H1431 0.962 . S
C1418 H1432 0.960 . S
C1419 C1416 1.511 . S
C1419 H1433 0.961 . S
C1419 H1434 0.961 . S
C1419 H1435 0.961 . S
C1420 C1421 1.370 . S
C1420 C1422 1.363 . S
C1420 H1436 0.931 . S
C1421 C1420 1.370 . S
C1421 C1425 1.408 . S
C1422 C1420 1.363 . S
C1422 C1423 1.370 . S
C1422 C1426 1.524 . S
C1423 C1415 1.503 . S
C1423 C1422 1.370 . S
C1423 C1424 1.403 . S
C1424 C1423 1.403 . S
C1424 C1425 1.404 . S
C1424 C1427 1.539 . S
C1425 C1421 1.408 . S
C1425 C1424 1.404 . S
C1425 H1437 0.930 . S
C1426 C1422 1.524 . S
C1426 H1438 0.956 . S
C1426 H1439 0.961 . S
C1426 H1440 0.961 . S
C1427 C1424 1.539 . S
C1427 H1441 0.958 . S
C1427 H1442 0.961 . S
C1427 H1443 0.960 . S
H1428 C1412 0.931 . S
H1429 C1417 0.929 . S
H1430 C1418 0.960 . S
H1431 C1418 0.962 . S
H1432 C1418 0.960 . S
H1433 C1419 0.961 . S
H1434 C1419 0.961 . S
H1435 C1419 0.961 . S
H1436 C1420 0.931 . S
H1437 C1425 0.930 . S
H1438 C1426 0.956 . S
H1439 C1426 0.961 . S
H1440 C1426 0.961 . S
H1441 C1427 0.958 . S
H1442 C1427 0.961 . S
H1443 C1427 0.960 . S
C1444 C1445 1.391 . S
C1444 C1446 1.394 . S
C1444 H1460 0.931 . S
C1445 C1444 1.391 . S
C1445 C1449 1.376 . S
C1446 C1444 1.394 . S
C1446 C1447 1.369 . S
C1446 C1450 1.531 . S
C1447 C1446 1.369 . S
C1447 C1448 1.410 . S
C1447 C1455 1.503 . S
C1448 C1447 1.410 . S
C1448 C1449 1.392 . S
C1448 C1451 1.511 . S
C1449 C1445 1.376 . S
C1449 C1448 1.392 . S
C1449 H1461 0.929 . S
C1450 C1446 1.531 . S
C1450 H1462 0.960 . S
C1450 H1463 0.962 . S
C1450 H1464 0.960 . S
C1451 C1448 1.511 . S
C1451 H1465 0.961 . S
C1451 H1466 0.961 . S
C1451 H1467 0.961 . S
C1452 C1453 1.370 . S
C1452 C1454 1.363 . S
C1452 H1468 0.931 . S
C1453 C1452 1.370 . S
C1453 C1457 1.408 . S
C1454 C1452 1.363 . S
C1454 C1455 1.370 . S
C1454 C1458 1.524 . S
C1455 C1447 1.503 . S
C1455 C1454 1.370 . S
C1455 C1456 1.403 . S
C1456 C1455 1.403 . S
C1456 C1457 1.404 . S
C1456 C1459 1.539 . S
C1457 C1453 1.408 . S
C1457 C1456 1.404 . S
C1457 H1469 0.930 . S
C1458 C1454 1.524 . S
C1458 H1470 0.956 . S
C1458 H1471 0.961 . S
C1458 H1472 0.961 . S
C1459 C1456 1.539 . S
C1459 H1473 0.958 . S
C1459 H1474 0.961 . S
C1459 H1475 0.960 . S
H1460 C1444 0.931 . S
H1461 C1449 0.929 . S
H1462 C1450 0.960 . S
H1463 C1450 0.962 . S
H1464 C1450 0.960 . S
H1465 C1451 0.961 . S
H1466 C1451 0.961 . S
H1467 C1451 0.961 . S
H1468 C1452 0.931 . S
H1469 C1457 0.930 . S
H1470 C1458 0.956 . S
H1471 C1458 0.961 . S
H1472 C1458 0.961 . S
H1473 C1459 0.958 . S
H1474 C1459 0.961 . S
H1475 C1459 0.960 . S
C1476 C1477 1.391 . S
C1476 C1478 1.394 . S
C1476 H1492 0.931 . S
C1477 C1476 1.391 . S
C1477 C1481 1.376 . S
C1478 C1476 1.394 . S
C1478 C1479 1.369 . S
C1478 C1482 1.531 . S
C1479 C1478 1.369 . S
C1479 C1480 1.410 . S
C1479 C1487 1.503 . S
C1480 C1479 1.410 . S
C1480 C1481 1.392 . S
C1480 C1483 1.511 . S
C1481 C1477 1.376 . S
C1481 C1480 1.392 . S
C1481 H1493 0.929 . S
C1482 C1478 1.531 . S
C1482 H1494 0.960 . S
C1482 H1495 0.962 . S
C1482 H1496 0.960 . S
C1483 C1480 1.511 . S
C1483 H1497 0.961 . S
C1483 H1498 0.961 . S
C1483 H1499 0.961 . S
C1484 C1485 1.370 . S
C1484 C1486 1.363 . S
C1484 H1500 0.931 . S
C1485 C1484 1.370 . S
C1485 C1489 1.408 . S
C1486 C1484 1.363 . S
C1486 C1487 1.370 . S
C1486 C1490 1.524 . S
C1487 C1479 1.503 . S
C1487 C1486 1.370 . S
C1487 C1488 1.403 . S
C1488 C1487 1.403 . S
C1488 C1489 1.404 . S
C1488 C1491 1.539 . S
C1489 C1485 1.408 . S
C1489 C1488 1.404 . S
C1489 H1501 0.930 . S
C1490 C1486 1.524 . S
C1490 H1502 0.956 . S
C1490 H1503 0.961 . S
C1490 H1504 0.961 . S
C1491 C1488 1.539 . S
C1491 H1505 0.958 . S
C1491 H1506 0.961 . S
C1491 H1507 0.960 . S
H1492 C1476 0.931 . S
H1493 C1481 0.929 . S
H1494 C1482 0.960 . S
H1495 C1482 0.962 . S
H1496 C1482 0.960 . S
H1497 C1483 0.961 . S
H1498 C1483 0.961 . S
H1499 C1483 0.961 . S
H1500 C1484 0.931 . S
H1501 C1489 0.930 . S
H1502 C1490 0.956 . S
H1503 C1490 0.961 . S
H1504 C1490 0.961 . S
H1505 C1491 0.958 . S
H1506 C1491 0.961 . S
H1507 C1491 0.960 . S
C1508 C1509 1.391 . S
C1508 C1510 1.394 . S
C1508 H1524 0.931 . S
C1509 C1508 1.391 . S
C1509 C1513 1.376 . S
C1510 C1508 1.394 . S
C1510 C1511 1.369 . S
C1510 C1514 1.531 . S
C1511 C1510 1.369 . S
C1511 C1512 1.410 . S
C1511 C1519 1.503 . S
C1512 C1511 1.410 . S
C1512 C1513 1.392 . S
C1512 C1515 1.511 . S
C1513 C1509 1.376 . S
C1513 C1512 1.392 . S
C1513 H1525 0.929 . S
C1514 C1510 1.531 . S
C1514 H1526 0.960 . S
C1514 H1527 0.962 . S
C1514 H1528 0.960 . S
C1515 C1512 1.511 . S
C1515 H1529 0.961 . S
C1515 H1530 0.961 . S
C1515 H1531 0.961 . S
C1516 C1517 1.370 . S
C1516 C1518 1.363 . S
C1516 H1532 0.931 . S
C1517 C1516 1.370 . S
C1517 C1521 1.408 . S
C1518 C1516 1.363 . S
C1518 C1519 1.370 . S
C1518 C1522 1.524 . S
C1519 C1511 1.503 . S
C1519 C1518 1.370 . S
C1519 C1520 1.403 . S
C1520 C1519 1.403 . S
C1520 C1521 1.404 . S
C1520 C1523 1.539 . S
C1521 C1517 1.408 . S
C1521 C1520 1.404 . S
C1521 H1533 0.930 . S
C1522 C1518 1.524 . S
C1522 H1534 0.956 . S
C1522 H1535 0.961 . S
C1522 H1536 0.961 . S
C1523 C1520 1.539 . S
C1523 H1537 0.958 . S
C1523 H1538 0.961 . S
C1523 H1539 0.960 . S
H1524 C1508 0.931 . S
H1525 C1513 0.929 . S
H1526 C1514 0.960 . S
H1527 C1514 0.962 . S
H1528 C1514 0.960 . S
H1529 C1515 0.961 . S
H1530 C1515 0.961 . S
H1531 C1515 0.961 . S
H1532 C1516 0.931 . S
H1533 C1521 0.930 . S
H1534 C1522 0.956 . S
H1535 C1522 0.961 . S
H1536 C1522 0.961 . S
H1537 C1523 0.958 . S
H1538 C1523 0.961 . S
H1539 C1523 0.960 . S
C1540 C1541 1.391 . S
C1540 C1542 1.394 . S
C1540 H1556 0.931 . S
C1541 C1540 1.391 . S
C1541 C1545 1.376 . S
C1542 C1540 1.394 . S
C1542 C1543 1.369 . S
C1542 C1546 1.531 . S
C1543 C1542 1.369 . S
C1543 C1544 1.410 . S
C1543 C1551 1.503 . S
C1544 C1543 1.410 . S
C1544 C1545 1.392 . S
C1544 C1547 1.511 . S
C1545 C1541 1.376 . S
C1545 C1544 1.392 . S
C1545 H1557 0.929 . S
C1546 C1542 1.531 . S
C1546 H1558 0.960 . S
C1546 H1559 0.962 . S
C1546 H1560 0.960 . S
C1547 C1544 1.511 . S
C1547 H1561 0.961 . S
C1547 H1562 0.961 . S
C1547 H1563 0.961 . S
C1548 C1549 1.370 . S
C1548 C1550 1.363 . S
C1548 H1564 0.931 . S
C1549 C1548 1.370 . S
C1549 C1553 1.408 . S
C1550 C1548 1.363 . S
C1550 C1551 1.370 . S
C1550 C1554 1.524 . S
C1551 C1543 1.503 . S
C1551 C1550 1.370 . S
C1551 C1552 1.403 . S
C1552 C1551 1.403 . S
C1552 C1553 1.404 . S
C1552 C1555 1.539 . S
C1553 C1549 1.408 . S
C1553 C1552 1.404 . S
C1553 H1565 0.930 . S
C1554 C1550 1.524 . S
C1554 H1566 0.956 . S
C1554 H1567 0.961 . S
C1554 H1568 0.961 . S
C1555 C1552 1.539 . S
C1555 H1569 0.958 . S
C1555 H1570 0.961 . S
C1555 H1571 0.960 . S
H1556 C1540 0.931 . S
H1557 C1545 0.929 . S
H1558 C1546 0.960 . S
H1559 C1546 0.962 . S
H1560 C1546 0.960 . S
H1561 C1547 0.961 . S
H1562 C1547 0.961 . S
H1563 C1547 0.961 . S
H1564 C1548 0.931 . S
H1565 C1553 0.930 . S
H1566 C1554 0.956 . S
H1567 C1554 0.961 . S
H1568 C1554 0.961 . S
H1569 C1555 0.958 . S
H1570 C1555 0.961 . S
H1571 C1555 0.960 . S
C1572 C1573 1.391 . S
C1572 C1574 1.394 . S
C1572 H1588 0.931 . S
C1573 C1572 1.391 . S
C1573 C1577 1.376 . S
C1574 C1572 1.394 . S
C1574 C1575 1.369 . S
C1574 C1578 1.531 . S
C1575 C1574 1.369 . S
C1575 C1576 1.410 . S
C1575 C1583 1.503 . S
C1576 C1575 1.410 . S
C1576 C1577 1.392 . S
C1576 C1579 1.511 . S
C1577 C1573 1.376 . S
C1577 C1576 1.392 . S
C1577 H1589 0.929 . S
C1578 C1574 1.531 . S
C1578 H1590 0.960 . S
C1578 H1591 0.962 . S
C1578 H1592 0.960 . S
C1579 C1576 1.511 . S
C1579 H1593 0.961 . S
C1579 H1594 0.961 . S
C1579 H1595 0.961 . S
C1580 C1581 1.370 . S
C1580 C1582 1.363 . S
C1580 H1596 0.931 . S
C1581 C1580 1.370 . S
C1581 C1585 1.408 . S
C1582 C1580 1.363 . S
C1582 C1583 1.370 . S
C1582 C1586 1.524 . S
C1583 C1575 1.503 . S
C1583 C1582 1.370 . S
C1583 C1584 1.403 . S
C1584 C1583 1.403 . S
C1584 C1585 1.404 . S
C1584 C1587 1.539 . S
C1585 C1581 1.408 . S
C1585 C1584 1.404 . S
C1585 H1597 0.930 . S
C1586 C1582 1.524 . S
C1586 H1598 0.956 . S
C1586 H1599 0.961 . S
C1586 H1600 0.961 . S
C1587 C1584 1.539 . S
C1587 H1601 0.958 . S
C1587 H1602 0.961 . S
C1587 H1603 0.960 . S
H1588 C1572 0.931 . S
H1589 C1577 0.929 . S
H1590 C1578 0.960 . S
H1591 C1578 0.962 . S
H1592 C1578 0.960 . S
H1593 C1579 0.961 . S
H1594 C1579 0.961 . S
H1595 C1579 0.961 . S
H1596 C1580 0.931 . S
H1597 C1585 0.930 . S
H1598 C1586 0.956 . S
H1599 C1586 0.961 . S
H1600 C1586 0.961 . S
H1601 C1587 0.958 . S
H1602 C1587 0.961 . S
H1603 C1587 0.960 . S
C1604 C1605 1.391 . S
C1604 C1606 1.394 . S
C1604 H1620 0.931 . S
C1605 C1604 1.391 . S
C1605 C1609 1.376 . S
C1606 C1604 1.394 . S
C1606 C1607 1.369 . S
C1606 C1610 1.531 . S
C1607 C1606 1.369 . S
C1607 C1608 1.410 . S
C1607 C1615 1.503 . S
C1608 C1607 1.410 . S
C1608 C1609 1.392 . S
C1608 C1611 1.511 . S
C1609 C1605 1.376 . S
C1609 C1608 1.392 . S
C1609 H1621 0.929 . S
C1610 C1606 1.531 . S
C1610 H1622 0.960 . S
C1610 H1623 0.962 . S
C1610 H1624 0.960 . S
C1611 C1608 1.511 . S
C1611 H1625 0.961 . S
C1611 H1626 0.961 . S
C1611 H1627 0.961 . S
C1612 C1613 1.370 . S
C1612 C1614 1.363 . S
C1612 H1628 0.931 . S
C1613 C1612 1.370 . S
C1613 C1617 1.408 . S
C1614 C1612 1.363 . S
C1614 C1615 1.370 . S
C1614 C1618 1.524 . S
C1615 C1607 1.503 . S
C1615 C1614 1.370 . S
C1615 C1616 1.403 . S
C1616 C1615 1.403 . S
C1616 C1617 1.404 . S
C1616 C1619 1.539 . S
C1617 C1613 1.408 . S
C1617 C1616 1.404 . S
C1617 H1629 0.930 . S
C1618 C1614 1.524 . S
C1618 H1630 0.956 . S
C1618 H1631 0.961 . S
C1618 H1632 0.961 . S
C1619 C1616 1.539 . S
C1619 H1633 0.958 . S
C1619 H1634 0.961 . S
C1619 H1635 0.960 . S
H1620 C1604 0.931 . S
H1621 C1609 0.929 . S
H1622 C1610 0.960 . S
H1623 C1610 0.962 . S
H1624 C1610 0.960 . S
H1625 C1611 0.961 . S
H1626 C1611 0.961 . S
H1627 C1611 0.961 . S
H1628 C1612 0.931 . S
H1629 C1617 0.930 . S
H1630 C1618 0.956 . S
H1631 C1618 0.961 . S
H1632 C1618 0.961 . S
H1633 C1619 0.958 . S
H1634 C1619 0.961 . S
H1635 C1619 0.960 . S
C1636 C1637 1.391 . S
C1636 C1638 1.394 . S
C1636 H1652 0.931 . S
C1637 C1636 1.391 . S
C1637 C1641 1.376 . S
C1638 C1636 1.394 . S
C1638 C1639 1.369 . S
C1638 C1642 1.531 . S
C1639 C1638 1.369 . S
C1639 C1640 1.410 . S
C1639 C1647 1.503 . S
C1640 C1639 1.410 . S
C1640 C1641 1.392 . S
C1640 C1643 1.511 . S
C1641 C1637 1.376 . S
C1641 C1640 1.392 . S
C1641 H1653 0.929 . S
C1642 C1638 1.531 . S
C1642 H1654 0.960 . S
C1642 H1655 0.962 . S
C1642 H1656 0.960 . S
C1643 C1640 1.511 . S
C1643 H1657 0.961 . S
C1643 H1658 0.961 . S
C1643 H1659 0.961 . S
C1644 C1645 1.370 . S
C1644 C1646 1.363 . S
C1644 H1660 0.931 . S
C1645 C1644 1.370 . S
C1645 C1649 1.408 . S
C1646 C1644 1.363 . S
C1646 C1647 1.370 . S
C1646 C1650 1.524 . S
C1647 C1639 1.503 . S
C1647 C1646 1.370 . S
C1647 C1648 1.403 . S
C1648 C1647 1.403 . S
C1648 C1649 1.404 . S
C1648 C1651 1.539 . S
C1649 C1645 1.408 . S
C1649 C1648 1.404 . S
C1649 H1661 0.930 . S
C1650 C1646 1.524 . S
C1650 H1662 0.956 . S
C1650 H1663 0.961 . S
C1650 H1664 0.961 . S
C1651 C1648 1.539 . S
C1651 H1665 0.958 . S
C1651 H1666 0.961 . S
C1651 H1667 0.960 . S
H1652 C1636 0.931 . S
H1653 C1641 0.929 . S
H1654 C1642 0.960 . S
H1655 C1642 0.962 . S
H1656 C1642 0.960 . S
H1657 C1643 0.961 . S
H1658 C1643 0.961 . S
H1659 C1643 0.961 . S
H1660 C1644 0.931 . S
H1661 C1649 0.930 . S
H1662 C1650 0.956 . S
H1663 C1650 0.961 . S
H1664 C1650 0.961 . S
H1665 C1651 0.958 . S
H1666 C1651 0.961 . S
H1667 C1651 0.960 . S
C1668 C1669 1.391 . S
C1668 C1670 1.394 . S
C1668 H1684 0.931 . S
C1669 C1668 1.391 . S
C1669 C1673 1.376 . S
C1670 C1668 1.394 . S
C1670 C1671 1.369 . S
C1670 C1674 1.531 . S
C1671 C1670 1.369 . S
C1671 C1672 1.410 . S
C1671 C1679 1.503 . S
C1672 C1671 1.410 . S
C1672 C1673 1.392 . S
C1672 C1675 1.511 . S
C1673 C1669 1.376 . S
C1673 C1672 1.392 . S
C1673 H1685 0.929 . S
C1674 C1670 1.531 . S
C1674 H1686 0.960 . S
C1674 H1687 0.962 . S
C1674 H1688 0.960 . S
C1675 C1672 1.511 . S
C1675 H1689 0.961 . S
C1675 H1690 0.961 . S
C1675 H1691 0.961 . S
C1676 C1677 1.370 . S
C1676 C1678 1.363 . S
C1676 H1692 0.931 . S
C1677 C1676 1.370 . S
C1677 C1681 1.408 . S
C1678 C1676 1.363 . S
C1678 C1679 1.370 . S
C1678 C1682 1.524 . S
C1679 C1671 1.503 . S
C1679 C1678 1.370 . S
C1679 C1680 1.403 . S
C1680 C1679 1.403 . S
C1680 C1681 1.404 . S
C1680 C1683 1.539 . S
C1681 C1677 1.408 . S
C1681 C1680 1.404 . S
C1681 H1693 0.930 . S
C1682 C1678 1.524 . S
C1682 H1694 0.956 . S
C1682 H1695 0.961 . S
C1682 H1696 0.961 . S
C1683 C1680 1.539 . S
C1683 H1697 0.958 . S
C1683 H1698 0.961 . S
C1683 H1699 0.960 . S
H1684 C1668 0.931 . S
H1685 C1673 0.929 . S
H1686 C1674 0.960 . S
H1687 C1674 0.962 . S
H1688 C1674 0.960 . S
H1689 C1675 0.961 . S
H1690 C1675 0.961 . S
H1691 C1675 0.961 . S
H1692 C1676 0.931 . S
H1693 C1681 0.930 . S
H1694 C1682 0.956 . S
H1695 C1682 0.961 . S
H1696 C1682 0.961 . S
H1697 C1683 0.958 . S
H1698 C1683 0.961 . S
H1699 C1683 0.960 . S
C1700 C1701 1.391 . S
C1700 C1702 1.394 . S
C1700 H1716 0.931 . S
C1701 C1700 1.391 . S
C1701 C1705 1.376 . S
C1702 C1700 1.394 . S
C1702 C1703 1.369 . S
C1702 C1706 1.531 . S
C1703 C1702 1.369 . S
C1703 C1704 1.410 . S
C1703 C1711 1.503 . S
C1704 C1703 1.410 . S
C1704 C1705 1.392 . S
C1704 C1707 1.511 . S
C1705 C1701 1.376 . S
C1705 C1704 1.392 . S
C1705 H1717 0.929 . S
C1706 C1702 1.531 . S
C1706 H1718 0.960 . S
C1706 H1719 0.962 . S
C1706 H1720 0.960 . S
C1707 C1704 1.511 . S
C1707 H1721 0.961 . S
C1707 H1722 0.961 . S
C1707 H1723 0.961 . S
C1708 C1709 1.370 . S
C1708 C1710 1.363 . S
C1708 H1724 0.931 . S
C1709 C1708 1.370 . S
C1709 C1713 1.408 . S
C1710 C1708 1.363 . S
C1710 C1711 1.370 . S
C1710 C1714 1.524 . S
C1711 C1703 1.503 . S
C1711 C1710 1.370 . S
C1711 C1712 1.403 . S
C1712 C1711 1.403 . S
C1712 C1713 1.404 . S
C1712 C1715 1.539 . S
C1713 C1709 1.408 . S
C1713 C1712 1.404 . S
C1713 H1725 0.930 . S
C1714 C1710 1.524 . S
C1714 H1726 0.956 . S
C1714 H1727 0.961 . S
C1714 H1728 0.961 . S
C1715 C1712 1.539 . S
C1715 H1729 0.958 . S
C1715 H1730 0.961 . S
C1715 H1731 0.960 . S
H1716 C1700 0.931 . S
H1717 C1705 0.929 . S
H1718 C1706 0.960 . S
H1719 C1706 0.962 . S
H1720 C1706 0.960 . S
H1721 C1707 0.961 . S
H1722 C1707 0.961 . S
H1723 C1707 0.961 . S
H1724 C1708 0.931 . S
H1725 C1713 0.930 . S
H1726 C1714 0.956 . S
H1727 C1714 0.961 . S
H1728 C1714 0.961 . S
H1729 C1715 0.958 . S
H1730 C1715 0.961 . S
H1731 C1715 0.960 . S
C1732 C1733 1.391 . S
C1732 C1734 1.394 . S
C1732 H1748 0.931 . S
C1733 C1732 1.391 . S
C1733 C1737 1.376 . S
C1734 C1732 1.394 . S
C1734 C1735 1.369 . S
C1734 C1738 1.531 . S
C1735 C1734 1.369 . S
C1735 C1736 1.410 . S
C1735 C1743 1.503 . S
C1736 C1735 1.410 . S
C1736 C1737 1.392 . S
C1736 C1739 1.511 . S
C1737 C1733 1.376 . S
C1737 C1736 1.392 . S
C1737 H1749 0.929 . S
C1738 C1734 1.531 . S
C1738 H1750 0.960 . S
C1738 H1751 0.962 . S
C1738 H1752 0.960 . S
C1739 C1736 1.511 . S
C1739 H1753 0.961 . S
C1739 H1754 0.961 . S
C1739 H1755 0.961 . S
C1740 C1741 1.370 . S
C1740 C1742 1.363 . S
C1740 H1756 0.931 . S
C1741 C1740 1.370 . S
C1741 C1745 1.408 . S
C1742 C1740 1.363 . S
C1742 C1743 1.370 . S
C1742 C1746 1.524 . S
C1743 C1735 1.503 . S
C1743 C1742 1.370 . S
C1743 C1744 1.403 . S
C1744 C1743 1.403 . S
C1744 C1745 1.404 . S
C1744 C1747 1.539 . S
C1745 C1741 1.408 . S
C1745 C1744 1.404 . S
C1745 H1757 0.930 . S
C1746 C1742 1.524 . S
C1746 H1758 0.956 . S
C1746 H1759 0.961 . S
C1746 H1760 0.961 . S
C1747 C1744 1.539 . S
C1747 H1761 0.958 . S
C1747 H1762 0.961 . S
C1747 H1763 0.960 . S
H1748 C1732 0.931 . S
H1749 C1737 0.929 . S
H1750 C1738 0.960 . S
H1751 C1738 0.962 . S
H1752 C1738 0.960 . S
H1753 C1739 0.961 . S
H1754 C1739 0.961 . S
H1755 C1739 0.961 . S
H1756 C1740 0.931 . S
H1757 C1745 0.930 . S
H1758 C1746 0.956 . S
H1759 C1746 0.961 . S
H1760 C1746 0.961 . S
H1761 C1747 0.958 . S
H1762 C1747 0.961 . S
H1763 C1747 0.960 . S
C1764 C1765 1.391 . S
C1764 C1766 1.394 . S
C1764 H1780 0.931 . S
C1765 C1764 1.391 . S
C1765 C1769 1.376 . S
C1766 C1764 1.394 . S
C1766 C1767 1.369 . S
C1766 C1770 1.531 . S
C1767 C1766 1.369 . S
C1767 C1768 1.410 . S
C1767 C1775 1.503 . S
C1768 C1767 1.410 . S
C1768 C1769 1.392 . S
C1768 C1771 1.511 . S
C1769 C1765 1.376 . S
C1769 C1768 1.392 . S
C1769 H1781 0.929 . S
C1770 C1766 1.531 . S
C1770 H1782 0.960 . S
C1770 H1783 0.962 . S
C1770 H1784 0.960 . S
C1771 C1768 1.511 . S
C1771 H1785 0.961 . S
C1771 H1786 0.961 . S
C1771 H1787 0.961 . S
C1772 C1773 1.370 . S
C1772 C1774 1.363 . S
C1772 H1788 0.931 . S
C1773 C1772 1.370 . S
C1773 C1777 1.408 . S
C1774 C1772 1.363 . S
C1774 C1775 1.370 . S
C1774 C1778 1.524 . S
C1775 C1767 1.503 . S
C1775 C1774 1.370 . S
C1775 C1776 1.403 . S
C1776 C1775 1.403 . S
C1776 C1777 1.404 . S
C1776 C1779 1.539 . S
C1777 C1773 1.408 . S
C1777 C1776 1.404 . S
C1777 H1789 0.930 . S
C1778 C1774 1.524 . S
C1778 H1790 0.956 . S
C1778 H1791 0.961 . S
C1778 H1792 0.961 . S
C1779 C1776 1.539 . S
C1779 H1793 0.958 . S
C1779 H1794 0.961 . S
C1779 H1795 0.960 . S
H1780 C1764 0.931 . S
H1781 C1769 0.929 . S
H1782 C1770 0.960 . S
H1783 C1770 0.962 . S
H1784 C1770 0.960 . S
H1785 C1771 0.961 . S
H1786 C1771 0.961 . S
H1787 C1771 0.961 . S
H1788 C1772 0.931 . S
H1789 C1777 0.930 . S
H1790 C1778 0.956 . S
H1791 C1778 0.961 . S
H1792 C1778 0.961 . S
H1793 C1779 0.958 . S
H1794 C1779 0.961 . S
H1795 C1779 0.960 . S
C1796 C1797 1.391 . S
C1796 C1798 1.394 . S
C1796 H1812 0.931 . S
C1797 C1796 1.391 . S
C1797 C1801 1.376 . S
C1798 C1796 1.394 . S
C1798 C1799 1.369 . S
C1798 C1802 1.531 . S
C1799 C1798 1.369 . S
C1799 C1800 1.410 . S
C1799 C1807 1.503 . S
C1800 C1799 1.410 . S
C1800 C1801 1.392 . S
C1800 C1803 1.511 . S
C1801 C1797 1.376 . S
C1801 C1800 1.392 . S
C1801 H1813 0.929 . S
C1802 C1798 1.531 . S
C1802 H1814 0.960 . S
C1802 H1815 0.962 . S
C1802 H1816 0.960 . S
C1803 C1800 1.511 . S
C1803 H1817 0.961 . S
C1803 H1818 0.961 . S
C1803 H1819 0.961 . S
C1804 C1805 1.370 . S
C1804 C1806 1.363 . S
C1804 H1820 0.931 . S
C1805 C1804 1.370 . S
C1805 C1809 1.408 . S
C1806 C1804 1.363 . S
C1806 C1807 1.370 . S
C1806 C1810 1.524 . S
C1807 C1799 1.503 . S
C1807 C1806 1.370 . S
C1807 C1808 1.403 . S
C1808 C1807 1.403 . S
C1808 C1809 1.404 . S
C1808 C1811 1.539 . S
C1809 C1805 1.408 . S
C1809 C1808 1.404 . S
C1809 H1821 0.930 . S
C1810 C1806 1.524 . S
C1810 H1822 0.956 . S
C1810 H1823 0.961 . S
C1810 H1824 0.961 . S
C1811 C1808 1.539 . S
C1811 H1825 0.958 . S
C1811 H1826 0.961 . S
C1811 H1827 0.960 . S
H1812 C1796 0.931 . S
H1813 C1801 0.929 . S
H1814 C1802 0.960 . S
H1815 C1802 0.962 . S
H1816 C1802 0.960 . S
H1817 C1803 0.961 . S
H1818 C1803 0.961 . S
H1819 C1803 0.961 . S
H1820 C1804 0.931 . S
H1821 C1809 0.930 . S
H1822 C1810 0.956 . S
H1823 C1810 0.961 . S
H1824 C1810 0.961 . S
H1825 C1811 0.958 . S
H1826 C1811 0.961 . S
H1827 C1811 0.960 . S
C1828 C1829 1.391 . S
C1828 C1830 1.394 . S
C1828 H1844 0.931 . S
C1829 C1828 1.391 . S
C1829 C1833 1.376 . S
C1830 C1828 1.394 . S
C1830 C1831 1.369 . S
C1830 C1834 1.531 . S
C1831 C1830 1.369 . S
C1831 C1832 1.410 . S
C1831 C1839 1.503 . S
C1832 C1831 1.410 . S
C1832 C1833 1.392 . S
C1832 C1835 1.511 . S
C1833 C1829 1.376 . S
C1833 C1832 1.392 . S
C1833 H1845 0.929 . S
C1834 C1830 1.531 . S
C1834 H1846 0.960 . S
C1834 H1847 0.962 . S
C1834 H1848 0.960 . S
C1835 C1832 1.511 . S
C1835 H1849 0.961 . S
C1835 H1850 0.961 . S
C1835 H1851 0.961 . S
C1836 C1837 1.370 . S
C1836 C1838 1.363 . S
C1836 H1852 0.931 . S
C1837 C1836 1.370 . S
C1837 C1841 1.408 . S
C1838 C1836 1.363 . S
C1838 C1839 1.370 . S
C1838 C1842 1.524 . S
C1839 C1831 1.503 . S
C1839 C1838 1.370 . S
C1839 C1840 1.403 . S
C1840 C1839 1.403 . S
C1840 C1841 1.404 . S
C1840 C1843 1.539 . S
C1841 C1837 1.408 . S
C1841 C1840 1.404 . S
C1841 H1853 0.930 . S
C1842 C1838 1.524 . S
C1842 H1854 0.956 . S
C1842 H1855 0.961 . S
C1842 H1856 0.961 . S
C1843 C1840 1.539 . S
C1843 H1857 0.958 . S
C1843 H1858 0.961 . S
C1843 H1859 0.960 . S
H1844 C1828 0.931 . S
H1845 C1833 0.929 . S
H1846 C1834 0.960 . S
H1847 C1834 0.962 . S
H1848 C1834 0.960 . S
H1849 C1835 0.961 . S
H1850 C1835 0.961 . S
H1851 C1835 0.961 . S
H1852 C1836 0.931 . S
H1853 C1841 0.930 . S
H1854 C1842 0.956 . S
H1855 C1842 0.961 . S
H1856 C1842 0.961 . S
H1857 C1843 0.958 . S
H1858 C1843 0.961 . S
H1859 C1843 0.960 . S
C1860 C1861 1.391 . S
C1860 C1862 1.394 . S
C1860 H1876 0.931 . S
C1861 C1860 1.391 . S
C1861 C1865 1.376 . S
C1862 C1860 1.394 . S
C1862 C1863 1.369 . S
C1862 C1866 1.531 . S
C1863 C1862 1.369 . S
C1863 C1864 1.410 . S
C1863 C1871 1.503 . S
C1864 C1863 1.410 . S
C1864 C1865 1.392 . S
C1864 C1867 1.511 . S
C1865 C1861 1.376 . S
C1865 C1864 1.392 . S
C1865 H1877 0.929 . S
C1866 C1862 1.531 . S
C1866 H1878 0.960 . S
C1866 H1879 0.962 . S
C1866 H1880 0.960 . S
C1867 C1864 1.511 . S
C1867 H1881 0.961 . S
C1867 H1882 0.961 . S
C1867 H1883 0.961 . S
C1868 C1869 1.370 . S
C1868 C1870 1.363 . S
C1868 H1884 0.931 . S
C1869 C1868 1.370 . S
C1869 C1873 1.408 . S
C1870 C1868 1.363 . S
C1870 C1871 1.370 . S
C1870 C1874 1.524 . S
C1871 C1863 1.503 . S
C1871 C1870 1.370 . S
C1871 C1872 1.403 . S
C1872 C1871 1.403 . S
C1872 C1873 1.404 . S
C1872 C1875 1.539 . S
C1873 C1869 1.408 . S
C1873 C1872 1.404 . S
C1873 H1885 0.930 . S
C1874 C1870 1.524 . S
C1874 H1886 0.956 . S
C1874 H1887 0.961 . S
C1874 H1888 0.961 . S
C1875 C1872 1.539 . S
C1875 H1889 0.958 . S
C1875 H1890 0.961 . S
C1875 H1891 0.960 . S
H1876 C1860 0.931 . S
H1877 C1865 0.929 . S
H1878 C1866 0.960 . S
H1879 C1866 0.962 . S
H1880 C1866 0.960 . S
H1881 C1867 0.961 . S
H1882 C1867 0.961 . S
H1883 C1867 0.961 . S
H1884 C1868 0.931 . S
H1885 C1873 0.930 . S
H1886 C1874 0.956 . S
H1887 C1874 0.961 . S
H1888 C1874 0.961 . S
H1889 C1875 0.958 . S
H1890 C1875 0.961 . S
H1891 C1875 0.960 . S
C1892 C1893 1.391 . S
C1892 C1894 1.394 . S
C1892 H1908 0.931 . S
C1893 C1892 1.391 . S
C1893 C1897 1.376 . S
C1894 C1892 1.394 . S
C1894 C1895 1.369 . S
C1894 C1898 1.531 . S
C1895 C1894 1.369 . S
C1895 C1896 1.410 . S
C1895 C1903 1.503 . S
C1896 C1895 1.410 . S
C1896 C1897 1.392 . S
C1896 C1899 1.511 . S
C1897 C1893 1.376 . S
C1897 C1896 1.392 . S
C1897 H1909 0.929 . S
C1898 C1894 1.531 . S
C1898 H1910 0.960 . S
C1898 H1911 0.962 . S
C1898 H1912 0.960 . S
C1899 C1896 1.511 . S
C1899 H1913 0.961 . S
C1899 H1914 0.961 . S
C1899 H1915 0.961 . S
C1900 C1901 1.370 . S
C1900 C1902 1.363 . S
C1900 H1916 0.931 . S
C1901 C1900 1.370 . S
C1901 C1905 1.408 . S
C1902 C1900 1.363 . S
C1902 C1903 1.370 . S
C1902 C1906 1.524 . S
C1903 C1895 1.503 . S
C1903 C1902 1.370 . S
C1903 C1904 1.403 . S
C1904 C1903 1.403 . S
C1904 C1905 1.404 . S
C1904 C1907 1.539 . S
C1905 C1901 1.408 . S
C1905 C1904 1.404 . S
C1905 H1917 0.930 . S
C1906 C1902 1.524 . S
C1906 H1918 0.956 . S
C1906 H1919 0.961 . S
C1906 H1920 0.961 . S
C1907 C1904 1.539 . S
C1907 H1921 0.958 . S
C1907 H1922 0.961 . S
C1907 H1923 0.960 . S
H1908 C1892 0.931 . S
H1909 C1897 0.929 . S
H1910 C1898 0.960 . S
H1911 C1898 0.962 . S
H1912 C1898 0.960 . S
H1913 C1899 0.961 . S
H1914 C1899 0.961 . S
H1915 C1899 0.961 . S
H1916 C1900 0.931 . S
H1917 C1905 0.930 . S
H1918 C1906 0.956 . S
H1919 C1906 0.961 . S
H1920 C1906 0.961 . S
H1921 C1907 0.958 . S
H1922 C1907 0.961 . S
H1923 C1907 0.960 . S
C1924 C1925 1.391 . S
C1924 C1926 1.394 . S
C1924 H1940 0.931 . S
C1925 C1924 1.391 . S
C1925 C1929 1.376 . S
C1926 C1924 1.394 . S
C1926 C1927 1.369 . S
C1926 C1930 1.531 . S
C1927 C1926 1.369 . S
C1927 C1928 1.410 . S
C1927 C1935 1.503 . S
C1928 C1927 1.410 . S
C1928 C1929 1.392 . S
C1928 C1931 1.511 . S
C1929 C1925 1.376 . S
C1929 C1928 1.392 . S
C1929 H1941 0.929 . S
C1930 C1926 1.531 . S
C1930 H1942 0.960 . S
C1930 H1943 0.962 . S
C1930 H1944 0.960 . S
C1931 C1928 1.511 . S
C1931 H1945 0.961 . S
C1931 H1946 0.961 . S
C1931 H1947 0.961 . S
C1932 C1933 1.370 . S
C1932 C1934 1.363 . S
C1932 H1948 0.931 . S
C1933 C1932 1.370 . S
C1933 C1937 1.408 . S
C1934 C1932 1.363 . S
C1934 C1935 1.370 . S
C1934 C1938 1.524 . S
C1935 C1927 1.503 . S
C1935 C1934 1.370 . S
C1935 C1936 1.403 . S
C1936 C1935 1.403 . S
C1936 C1937 1.404 . S
C1936 C1939 1.539 . S
C1937 C1933 1.408 . S
C1937 C1936 1.404 . S
C1937 H1949 0.930 . S
C1938 C1934 1.524 . S
C1938 H1950 0.956 . S
C1938 H1951 0.961 . S
C1938 H1952 0.961 . S
C1939 C1936 1.539 . S
C1939 H1953 0.958 . S
C1939 H1954 0.961 . S
C1939 H1955 0.960 . S
H1940 C1924 0.931 . S
H1941 C1929 0.929 . S
H1942 C1930 0.960 . S
H1943 C1930 0.962 . S
H1944 C1930 0.960 . S
H1945 C1931 0.961 . S
H1946 C1931 0.961 . S
H1947 C1931 0.961 . S
H1948 C1932 0.931 . S
H1949 C1937 0.930 . S
H1950 C1938 0.956 . S
H1951 C1938 0.961 . S
H1952 C1938 0.961 . S
H1953 C1939 0.958 . S
H1954 C1939 0.961 . S
H1955 C1939 0.960 . S
C1956 C1957 1.391 1_455 S
C1956 C1958 1.394 . S
C1956 H1972 0.931 . S
C1957 C1956 1.391 1_655 S
C1957 C1961 1.376 . S
C1958 C1956 1.394 . S
C1958 C1959 1.369 1_455 S
C1958 C1962 1.531 . S
C1959 C1958 1.369 1_655 S
C1959 C1960 1.410 . S
C1959 C1967 1.502 . S
C1960 C1959 1.410 . S
C1960 C1961 1.392 . S
C1960 C1963 1.511 . S
C1961 C1957 1.376 . S
C1961 C1960 1.392 . S
C1961 H1973 0.929 . S
C1962 C1958 1.531 . S
C1962 H1974 0.960 . S
C1962 H1975 0.962 . S
C1962 H1976 0.960 . S
C1963 C1960 1.511 . S
C1963 H1977 0.961 . S
C1963 H1978 0.961 . S
C1963 H1979 0.961 . S
C1964 C1965 1.370 . S
C1964 C1966 1.363 . S
C1964 H1980 0.931 . S
C1965 C1964 1.370 . S
C1965 C1969 1.408 1_455 S
C1966 C1964 1.363 . S
C1966 C1967 1.373 1_455 S
C1966 C1970 1.524 . S
C1967 C1959 1.502 . S
C1967 C1966 1.373 1_655 S
C1967 C1968 1.402 . S
C1968 C1967 1.402 . S
C1968 C1969 1.404 . S
C1968 C1971 1.539 . S
C1969 C1965 1.408 1_655 S
C1969 C1968 1.404 . S
C1969 H1981 0.930 . S
C1970 C1966 1.524 . S
C1970 H1982 0.956 . S
C1970 H1983 0.961 1_455 S
C1970 H1984 0.961 . S
C1971 C1968 1.539 . S
C1971 H1985 0.958 1_655 S
C1971 H1986 0.961 . S
C1971 H1987 0.960 . S
H1972 C1956 0.931 . S
H1973 C1961 0.929 . S
H1974 C1962 0.960 . S
H1975 C1962 0.962 . S
H1976 C1962 0.960 . S
H1977 C1963 0.961 . S
H1978 C1963 0.961 . S
H1979 C1963 0.961 . S
H1980 C1964 0.931 . S
H1981 C1969 0.930 . S
H1982 C1970 0.956 . S
H1983 C1970 0.961 1_655 S
H1984 C1970 0.961 . S
H1985 C1971 0.958 1_455 S
H1986 C1971 0.961 . S
H1987 C1971 0.960 . S
C1988 C1989 1.391 . S
C1988 C1990 1.394 . S
C1988 H2004 0.931 . S
C1989 C1988 1.391 . S
C1989 C1993 1.376 . S
C1990 C1988 1.394 . S
C1990 C1991 1.369 . S
C1990 C1994 1.531 . S
C1991 C1990 1.369 . S
C1991 C1992 1.410 . S
C1991 C1999 1.503 . S
C1992 C1991 1.410 . S
C1992 C1993 1.392 . S
C1992 C1995 1.511 . S
C1993 C1989 1.376 . S
C1993 C1992 1.392 . S
C1993 H2005 0.929 . S
C1994 C1990 1.531 . S
C1994 H2006 0.960 . S
C1994 H2007 0.962 . S
C1994 H2008 0.960 . S
C1995 C1992 1.511 . S
C1995 H2009 0.961 . S
C1995 H2010 0.961 . S
C1995 H2011 0.961 . S
C1996 C1997 1.370 . S
C1996 C1998 1.363 . S
C1996 H2012 0.931 . S
C1997 C1996 1.370 . S
C1997 C2001 1.408 . S
C1998 C1996 1.363 . S
C1998 C1999 1.370 . S
C1998 C2002 1.524 . S
C1999 C1991 1.503 . S
C1999 C1998 1.370 . S
C1999 C2000 1.403 . S
C2000 C1999 1.403 . S
C2000 C2001 1.404 . S
C2000 C2003 1.539 . S
C2001 C1997 1.408 . S
C2001 C2000 1.404 . S
C2001 H2013 0.930 . S
C2002 C1998 1.524 . S
C2002 H2014 0.956 . S
C2002 H2015 0.961 . S
C2002 H2016 0.961 . S
C2003 C2000 1.539 . S
C2003 H2017 0.958 . S
C2003 H2018 0.961 . S
C2003 H2019 0.960 . S
H2004 C1988 0.931 . S
H2005 C1993 0.929 . S
H2006 C1994 0.960 . S
H2007 C1994 0.962 . S
H2008 C1994 0.960 . S
H2009 C1995 0.961 . S
H2010 C1995 0.961 . S
H2011 C1995 0.961 . S
H2012 C1996 0.931 . S
H2013 C2001 0.930 . S
H2014 C2002 0.956 . S
H2015 C2002 0.961 . S
H2016 C2002 0.961 . S
H2017 C2003 0.958 . S
H2018 C2003 0.961 . S
H2019 C2003 0.960 . S
C2020 C2021 1.391 . S
C2020 C2022 1.392 . S
C2020 H2036 0.931 . S
C2021 C2020 1.391 . S
C2021 C2025 1.376 1_545 S
C2022 C2020 1.392 . S
C2022 C2023 1.368 1_545 S
C2022 C2026 1.533 . S
C2023 C2022 1.368 1_565 S
C2023 C2024 1.410 . S
C2023 C2031 1.503 . S
C2024 C2023 1.410 . S
C2024 C2025 1.392 . S
C2024 C2027 1.511 . S
C2025 C2021 1.376 1_565 S
C2025 C2024 1.392 . S
C2025 H2037 0.929 . S
C2026 C2022 1.533 . S
C2026 H2038 0.960 1_545 S
C2026 H2039 0.962 . S
C2026 H2040 0.960 1_545 S
C2027 C2024 1.511 . S
C2027 H2041 0.961 . S
C2027 H2042 0.961 . S
C2027 H2043 0.961 . S
C2028 C2029 1.370 1_545 S
C2028 C2030 1.363 . S
C2028 H2044 0.931 . S
C2029 C2028 1.370 1_565 S
C2029 C2033 1.408 . S
C2030 C2028 1.363 . S
C2030 C2031 1.370 1_545 S
C2030 C2034 1.524 . S
C2031 C2023 1.503 . S
C2031 C2030 1.370 1_565 S
C2031 C2032 1.403 . S
C2032 C2031 1.403 . S
C2032 C2033 1.404 . S
C2032 C2035 1.539 . S
C2033 C2029 1.408 . S
C2033 C2032 1.404 . S
C2033 H2045 0.930 . S
C2034 C2030 1.524 . S
C2034 H2046 0.956 . S
C2034 H2047 0.961 . S
C2034 H2048 0.961 . S
C2035 C2032 1.539 . S
C2035 H2049 0.958 . S
C2035 H2050 0.961 . S
C2035 H2051 0.960 . S
H2036 C2020 0.931 . S
H2037 C2025 0.929 . S
H2038 C2026 0.960 1_565 S
H2039 C2026 0.962 . S
H2040 C2026 0.960 1_565 S
H2041 C2027 0.961 . S
H2042 C2027 0.961 . S
H2043 C2027 0.961 . S
H2044 C2028 0.931 . S
H2045 C2033 0.930 . S
H2046 C2034 0.956 . S
H2047 C2034 0.961 . S
H2048 C2034 0.961 . S
H2049 C2035 0.958 . S
H2050 C2035 0.961 . S
H2051 C2035 0.960 . S
C613 C9 1.324 . S
C621 C156 1.322 . S
C645 C43 1.334 . S
C653 C190 1.344 . S
C677 C77 1.373 . S
C685 C122 1.379 . S
C709 C54 1.310 . S
C717 C111 1.313 . S
C741 C145 1.333 . S
C749 C88 1.343 . S
C773 C20 1.370 . S
C781 C179 1.376 . S
C805 C213 1.357 . S
C813 C360 1.363 1_455 S
C837 C394 1.353 . S
C845 C247 1.355 . S
C869 C281 1.340 . S
C877 C326 1.349 1_565 S
C901 C258 1.344 . S
C909 C315 1.350 . S
C933 C349 1.353 . S
C941 C292 1.350 . S
C965 C224 1.351 . S
C973 C383 1.347 . S
C997 C564 1.358 . S
C1005 C417 1.355 . S
C1029 C598 1.338 . S
C1037 C451 1.343 . S
C1061 C530 1.331 . S
C1069 C485 1.338 . S
C1093 C519 1.345 . S
C1101 C462 1.359 1_655 S
C1125 C496 1.362 . S
C1133 C553 1.358 . S
C1157 C428 1.348 1_545 S
C1165 C587 1.346 . S
C1189 C33 1.375 . S
C1197 C379 1.335 . S
C1221 C67 1.352 . S
C1229 C311 1.307 1_565 S
C1253 C345 1.326 1_455 S
C1261 C101 1.377 . S
C1285 C481 1.311 . S
C1293 C135 1.358 . S
C1317 C413 1.341 1_545 S
C1325 C169 1.355 . S
C1349 C447 1.338 1_655 S
C1357 C203 1.367 . S
C1381 C583 1.316 . S
C1389 C237 1.370 . S
C1413 C515 1.333 . S
C1421 C271 1.360 . S
C1445 C305 1.353 . S
C1453 C549 1.325 . S
C1477 C73 1.270 . S
C1485 C339 1.327 . S
C1509 C373 1.367 . S
C1517 C5 1.323 . S
C1541 C407 1.315 . S
C1549 C39 1.312 . S
C1573 C441 1.326 . S
C1581 C175 1.290 . S
C1605 C107 1.316 . S
C1613 C475 1.342 . S
C1637 C509 1.326 . S
C1645 C141 1.294 . S
C1669 C543 1.354 . S
C1677 C277 1.351 . S
C1701 C577 1.359 . S
C1709 C209 1.329 . S
C1733 C611 1.365 . S
C1741 C243 1.325 . S
C1765 C308 1.995 . S
C1773 C2 1.998 . S
C1797 C36 2.017 . S
C1805 C342 2.024 . S
C1829 C70 2.008 . S
C1837 C376 2.016 . S
C1861 C104 1.994 . S
C1869 C410 1.999 . S
C1893 C444 2.019 . S
C1901 C138 2.024 . S
C1925 C172 2.006 . S
C1933 C478 2.016 . S
C1957 C206 1.973 . S
C1965 C512 1.977 . S
C1989 C546 1.977 . S
C1997 C240 1.983 . S
C2021 C274 1.973 . S
C2029 C580 1.979 . S
