# Generated by pormake.
# Topology umq, (4)-cn, num edge types: 1
# Building blocks:
#     Node 0, Type 0, BuildingBlock: NAHDIM_clean_sbu_0, # of connection points: 4
#     Node 1, Type 0, BuildingBlock: NAHDIM_clean_sbu_0, # of connection points: 4
#     Node 2, Type 0, BuildingBlock: NAHDIM_clean_sbu_0, # of connection points: 4
#     Node 3, Type 0, BuildingBlock: NAHDIM_clean_sbu_0, # of connection points: 4
#     Node 4, Type 0, BuildingBlock: NAHDIM_clean_sbu_0, # of connection points: 4
#     Node 5, Type 0, BuildingBlock: NAHDIM_clean_sbu_0, # of connection points: 4
#     Node 6, Type 0, BuildingBlock: NAHDIM_clean_sbu_0, # of connection points: 4
#     Node 7, Type 0, BuildingBlock: NAHDIM_clean_sbu_0, # of connection points: 4
#     Node 8, Type 0, BuildingBlock: NAHDIM_clean_sbu_0, # of connection points: 4
#     Node 9, Type 0, BuildingBlock: NAHDIM_clean_sbu_0, # of connection points: 4
#     Node 10, Type 0, BuildingBlock: NAHDIM_clean_sbu_0, # of connection points: 4
#     Node 11, Type 0, BuildingBlock: NAHDIM_clean_sbu_0, # of connection points: 4
#     Node 12, Type 0, BuildingBlock: NAHDIM_clean_sbu_0, # of connection points: 4
#     Node 13, Type 0, BuildingBlock: NAHDIM_clean_sbu_0, # of connection points: 4
#     Node 14, Type 0, BuildingBlock: NAHDIM_clean_sbu_0, # of connection points: 4
#     Node 15, Type 0, BuildingBlock: NAHDIM_clean_sbu_0, # of connection points: 4
#     Node 16, Type 0, BuildingBlock: NAHDIM_clean_sbu_0, # of connection points: 4
#     Node 17, Type 0, BuildingBlock: NAHDIM_clean_sbu_0, # of connection points: 4
#     Node 18, Type 0, BuildingBlock: NAHDIM_clean_sbu_0, # of connection points: 4
#     Node 19, Type 0, BuildingBlock: NAHDIM_clean_sbu_0, # of connection points: 4
#     Node 20, Type 0, BuildingBlock: NAHDIM_clean_sbu_0, # of connection points: 4
#     Node 21, Type 0, BuildingBlock: NAHDIM_clean_sbu_0, # of connection points: 4
#     Node 22, Type 0, BuildingBlock: NAHDIM_clean_sbu_0, # of connection points: 4
#     Node 23, Type 0, BuildingBlock: NAHDIM_clean_sbu_0, # of connection points: 4
#     Node 24, Type 0, BuildingBlock: NAHDIM_clean_sbu_0, # of connection points: 4
#     Node 25, Type 0, BuildingBlock: NAHDIM_clean_sbu_0, # of connection points: 4
#     Node 26, Type 0, BuildingBlock: NAHDIM_clean_sbu_0, # of connection points: 4
#     Node 27, Type 0, BuildingBlock: NAHDIM_clean_sbu_0, # of connection points: 4
#     Node 28, Type 0, BuildingBlock: NAHDIM_clean_sbu_0, # of connection points: 4
#     Node 29, Type 0, BuildingBlock: NAHDIM_clean_sbu_0, # of connection points: 4
#     Node 30, Type 0, BuildingBlock: NAHDIM_clean_sbu_0, # of connection points: 4
#     Node 31, Type 0, BuildingBlock: NAHDIM_clean_sbu_0, # of connection points: 4
#     Edge 32, Type (0, 0), BuildingBlock: KIFKEQ_clean_linker_1, # of connection points: 2
#     Edge 33, Type (0, 0), BuildingBlock: KIFKEQ_clean_linker_1, # of connection points: 2
#     Edge 34, Type (0, 0), BuildingBlock: KIFKEQ_clean_linker_1, # of connection points: 2
#     Edge 35, Type (0, 0), BuildingBlock: KIFKEQ_clean_linker_1, # of connection points: 2
#     Edge 36, Type (0, 0), BuildingBlock: KIFKEQ_clean_linker_1, # of connection points: 2
#     Edge 37, Type (0, 0), BuildingBlock: KIFKEQ_clean_linker_1, # of connection points: 2
#     Edge 38, Type (0, 0), BuildingBlock: KIFKEQ_clean_linker_1, # of connection points: 2
#     Edge 39, Type (0, 0), BuildingBlock: KIFKEQ_clean_linker_1, # of connection points: 2
#     Edge 40, Type (0, 0), BuildingBlock: KIFKEQ_clean_linker_1, # of connection points: 2
#     Edge 41, Type (0, 0), BuildingBlock: KIFKEQ_clean_linker_1, # of connection points: 2
#     Edge 42, Type (0, 0), BuildingBlock: KIFKEQ_clean_linker_1, # of connection points: 2
#     Edge 43, Type (0, 0), BuildingBlock: KIFKEQ_clean_linker_1, # of connection points: 2
#     Edge 44, Type (0, 0), BuildingBlock: KIFKEQ_clean_linker_1, # of connection points: 2
#     Edge 45, Type (0, 0), BuildingBlock: KIFKEQ_clean_linker_1, # of connection points: 2
#     Edge 46, Type (0, 0), BuildingBlock: KIFKEQ_clean_linker_1, # of connection points: 2
#     Edge 47, Type (0, 0), BuildingBlock: KIFKEQ_clean_linker_1, # of connection points: 2
#     Edge 48, Type (0, 0), BuildingBlock: KIFKEQ_clean_linker_1, # of connection points: 2
#     Edge 49, Type (0, 0), BuildingBlock: KIFKEQ_clean_linker_1, # of connection points: 2
#     Edge 50, Type (0, 0), BuildingBlock: KIFKEQ_clean_linker_1, # of connection points: 2
#     Edge 51, Type (0, 0), BuildingBlock: KIFKEQ_clean_linker_1, # of connection points: 2
#     Edge 52, Type (0, 0), BuildingBlock: KIFKEQ_clean_linker_1, # of connection points: 2
#     Edge 53, Type (0, 0), BuildingBlock: KIFKEQ_clean_linker_1, # of connection points: 2
#     Edge 54, Type (0, 0), BuildingBlock: KIFKEQ_clean_linker_1, # of connection points: 2
#     Edge 55, Type (0, 0), BuildingBlock: KIFKEQ_clean_linker_1, # of connection points: 2
#     Edge 56, Type (0, 0), BuildingBlock: KIFKEQ_clean_linker_1, # of connection points: 2
#     Edge 57, Type (0, 0), BuildingBlock: KIFKEQ_clean_linker_1, # of connection points: 2
#     Edge 58, Type (0, 0), BuildingBlock: KIFKEQ_clean_linker_1, # of connection points: 2
#     Edge 59, Type (0, 0), BuildingBlock: KIFKEQ_clean_linker_1, # of connection points: 2
#     Edge 60, Type (0, 0), BuildingBlock: KIFKEQ_clean_linker_1, # of connection points: 2
#     Edge 61, Type (0, 0), BuildingBlock: KIFKEQ_clean_linker_1, # of connection points: 2
#     Edge 62, Type (0, 0), BuildingBlock: KIFKEQ_clean_linker_1, # of connection points: 2
#     Edge 63, Type (0, 0), BuildingBlock: KIFKEQ_clean_linker_1, # of connection points: 2
#     Edge 64, Type (0, 0), BuildingBlock: KIFKEQ_clean_linker_1, # of connection points: 2
#     Edge 65, Type (0, 0), BuildingBlock: KIFKEQ_clean_linker_1, # of connection points: 2
#     Edge 66, Type (0, 0), BuildingBlock: KIFKEQ_clean_linker_1, # of connection points: 2
#     Edge 67, Type (0, 0), BuildingBlock: KIFKEQ_clean_linker_1, # of connection points: 2
#     Edge 68, Type (0, 0), BuildingBlock: KIFKEQ_clean_linker_1, # of connection points: 2
#     Edge 69, Type (0, 0), BuildingBlock: KIFKEQ_clean_linker_1, # of connection points: 2
#     Edge 70, Type (0, 0), BuildingBlock: KIFKEQ_clean_linker_1, # of connection points: 2
#     Edge 71, Type (0, 0), BuildingBlock: KIFKEQ_clean_linker_1, # of connection points: 2
#     Edge 72, Type (0, 0), BuildingBlock: KIFKEQ_clean_linker_1, # of connection points: 2
#     Edge 73, Type (0, 0), BuildingBlock: KIFKEQ_clean_linker_1, # of connection points: 2
#     Edge 74, Type (0, 0), BuildingBlock: KIFKEQ_clean_linker_1, # of connection points: 2
#     Edge 75, Type (0, 0), BuildingBlock: KIFKEQ_clean_linker_1, # of connection points: 2
#     Edge 76, Type (0, 0), BuildingBlock: KIFKEQ_clean_linker_1, # of connection points: 2
#     Edge 77, Type (0, 0), BuildingBlock: KIFKEQ_clean_linker_1, # of connection points: 2
#     Edge 78, Type (0, 0), BuildingBlock: KIFKEQ_clean_linker_1, # of connection points: 2
#     Edge 79, Type (0, 0), BuildingBlock: KIFKEQ_clean_linker_1, # of connection points: 2
#     Edge 80, Type (0, 0), BuildingBlock: KIFKEQ_clean_linker_1, # of connection points: 2
#     Edge 81, Type (0, 0), BuildingBlock: KIFKEQ_clean_linker_1, # of connection points: 2
#     Edge 82, Type (0, 0), BuildingBlock: KIFKEQ_clean_linker_1, # of connection points: 2
#     Edge 83, Type (0, 0), BuildingBlock: KIFKEQ_clean_linker_1, # of connection points: 2
#     Edge 84, Type (0, 0), BuildingBlock: KIFKEQ_clean_linker_1, # of connection points: 2
#     Edge 85, Type (0, 0), BuildingBlock: KIFKEQ_clean_linker_1, # of connection points: 2
#     Edge 86, Type (0, 0), BuildingBlock: KIFKEQ_clean_linker_1, # of connection points: 2
#     Edge 87, Type (0, 0), BuildingBlock: KIFKEQ_clean_linker_1, # of connection points: 2
#     Edge 88, Type (0, 0), BuildingBlock: KIFKEQ_clean_linker_1, # of connection points: 2
#     Edge 89, Type (0, 0), BuildingBlock: KIFKEQ_clean_linker_1, # of connection points: 2
#     Edge 90, Type (0, 0), BuildingBlock: KIFKEQ_clean_linker_1, # of connection points: 2
#     Edge 91, Type (0, 0), BuildingBlock: KIFKEQ_clean_linker_1, # of connection points: 2
#     Edge 92, Type (0, 0), BuildingBlock: KIFKEQ_clean_linker_1, # of connection points: 2
#     Edge 93, Type (0, 0), BuildingBlock: KIFKEQ_clean_linker_1, # of connection points: 2
#     Edge 94, Type (0, 0), BuildingBlock: KIFKEQ_clean_linker_1, # of connection points: 2
#     Edge 95, Type (0, 0), BuildingBlock: KIFKEQ_clean_linker_1, # of connection points: 2
# Relax obj value: 0.091
# Max RMSD: 0.104
# Mean RMSD: 0.104
data_MOF--net-umq--node1-NAHDIM_clean_sbu_0--edge1-KIFKEQ_clean_linker_1
_symmetry_space_group_name_H-M    P1
_symmetry_Int_Tables_number       1
_symmetry_cell_setting            triclinic
loop_
_symmetry_equiv_pos_as_xyz
'x, y, z'
_cell_length_a     68.674368
_cell_length_b     68.670894
_cell_length_c     44.055021
_cell_angle_alpha  90.004107
_cell_angle_beta   90.097254
_cell_angle_gamma 90.019817
loop_
_atom_site_label
_atom_site_type_symbol
_atom_site_fract_x
_atom_site_fract_y
_atom_site_fract_z
_atom_type_partial_charge
C0 C 0.24019 0.05547 0.17761 0.0
O1 O 0.24976 0.05678 0.1519 0.0
O2 O 0.22363 0.09171 0.12128 0.0
Zn3 Zn 0.22984 0.09571 0.1655 0.0
O4 O 0.20953 0.11239 0.18538 0.0
C5 C 0.26878 0.10819 0.14949 0.0
O6 O 0.26619 0.09649 0.12624 0.0
O7 O 0.23088 0.07016 0.18737 0.0
C8 C 0.21107 0.11508 0.21382 0.0
O9 O 0.22541 0.1066 0.22854 0.0
C10 C 0.21745 0.10589 0.10546 0.0
O11 O 0.21453 0.1228 0.11867 0.0
O12 O 0.25543 0.10972 0.16929 0.0
C13 C 0.92679 0.22743 0.20037 0.0
O14 O 0.92052 0.21139 0.18733 0.0
O15 O 0.89288 0.23447 0.13605 0.0
Zn16 Zn 0.88963 0.23969 0.18073 0.0
O17 O 0.8749 0.21832 0.20167 0.0
C18 C 0.87769 0.27907 0.16864 0.0
O19 O 0.89259 0.27857 0.14998 0.0
O20 O 0.91586 0.24235 0.20039 0.0
C21 C 0.85795 0.21345 0.19292 0.0
O22 O 0.85036 0.22202 0.16901 0.0
C23 C 0.89146 0.21804 0.12295 0.0
O24 O 0.88783 0.2024 0.13916 0.0
O25 O 0.87408 0.26426 0.18498 0.0
C26 C 0.76221 0.93244 0.18308 0.0
O27 O 0.77813 0.92725 0.16869 0.0
O28 O 0.75612 0.89968 0.11711 0.0
Zn29 Zn 0.74943 0.8955 0.16121 0.0
O30 O 0.76939 0.87921 0.18288 0.0
C31 C 0.71676 0.87241 0.14134 0.0
O32 O 0.72667 0.87204 0.11587 0.0
O33 O 0.74757 0.92114 0.18265 0.0
C34 C 0.77474 0.86258 0.1734 0.0
O35 O 0.76755 0.85585 0.14781 0.0
C36 C 0.77272 0.89743 0.1049 0.0
O37 O 0.78772 0.89263 0.12185 0.0
O38 O 0.72358 0.88171 0.16394 0.0
C39 C 0.06273 0.76302 0.19631 0.0
O40 O 0.07172 0.77975 0.19266 0.0
O41 O 0.09543 0.75643 0.12306 0.0
Zn42 Zn 0.09726 0.74951 0.16751 0.0
O43 O 0.11314 0.76917 0.19078 0.0
C44 C 0.1295 0.7245 0.16559 0.0
O45 O 0.13748 0.74125 0.15833 0.0
O46 O 0.07081 0.74754 0.18676 0.0
C47 C 0.12076 0.78438 0.17946 0.0
O48 O 0.118 0.78833 0.15059 0.0
C49 C 0.08015 0.76269 0.10998 0.0
O50 O 0.06428 0.76548 0.12598 0.0
O51 O 0.1113 0.7239 0.17074 0.0
C52 C 0.23193 0.92931 0.29411 0.0
O53 O 0.21517 0.92409 0.30595 0.0
O54 O 0.23612 0.89972 0.36397 0.0
Zn55 Zn 0.24208 0.89336 0.32029 0.0
O56 O 0.21998 0.87897 0.30023 0.0
C57 C 0.28072 0.88004 0.33569 0.0
O58 O 0.28066 0.89554 0.35317 0.0
O59 O 0.24655 0.91818 0.29742 0.0
C60 C 0.21881 0.86054 0.30183 0.0
O61 O 0.23187 0.85093 0.3177 0.0
C62 C 0.22227 0.89217 0.37904 0.0
O63 O 0.21055 0.8797 0.3657 0.0
O64 O 0.26599 0.87654 0.31907 0.0
C65 C 0.05662 0.22726 0.30792 0.0
O66 O 0.06207 0.21177 0.32325 0.0
O67 O 0.09025 0.2374 0.3723 0.0
Zn68 Zn 0.09401 0.23967 0.32716 0.0
O69 O 0.10856 0.21659 0.31082 0.0
C70 C 0.10673 0.27953 0.33259 0.0
O71 O 0.09157 0.28085 0.35063 0.0
O72 O 0.06811 0.24171 0.30631 0.0
C73 C 0.12638 0.21447 0.31788 0.0
O74 O 0.13453 0.22708 0.33639 0.0
C75 C 0.09156 0.22164 0.38731 0.0
O76 O 0.09521 0.20528 0.37298 0.0
O77 O 0.1102 0.26348 0.31932 0.0
C78 C 0.75989 0.0573 0.30366 0.0
O79 O 0.7763 0.06478 0.31366 0.0
O80 O 0.75012 0.09103 0.37157 0.0
Zn81 Zn 0.74529 0.0932 0.32657 0.0
O82 O 0.76623 0.10872 0.30595 0.0
C83 C 0.70671 0.10792 0.3398 0.0
O84 O 0.70919 0.09855 0.36551 0.0
O85 O 0.74418 0.06679 0.30721 0.0
C86 C 0.77262 0.12464 0.31674 0.0
O87 O 0.7659 0.13093 0.34287 0.0
C88 C 0.76665 0.08969 0.38444 0.0
O89 O 0.7825 0.08942 0.36781 0.0
O90 O 0.71998 0.10725 0.31975 0.0
C91 C 0.93199 0.7604 0.30028 0.0
O92 O 0.92771 0.77394 0.32025 0.0
O93 O 0.89588 0.75443 0.3576 0.0
Zn94 Zn 0.89278 0.74998 0.31258 0.0
O95 O 0.8778 0.7714 0.29203 0.0
C96 C 0.88295 0.70923 0.31864 0.0
O97 O 0.89923 0.70852 0.33433 0.0
O98 O 0.91911 0.74793 0.29317 0.0
C99 C 0.86043 0.77532 0.29976 0.0
O100 O 0.85257 0.76588 0.32262 0.0
C101 C 0.89324 0.77047 0.37138 0.0
O102 O 0.88812 0.78598 0.35586 0.0
O103 O 0.87773 0.72525 0.30677 0.0
C104 C 0.76465 0.9296 0.78745 0.0
O105 O 0.78217 0.92286 0.79323 0.0
O106 O 0.76184 0.9002 0.86163 0.0
Zn107 Zn 0.75426 0.89478 0.8183 0.0
O108 O 0.7753 0.87985 0.79675 0.0
C109 C 0.71814 0.8772 0.83962 0.0
O110 O 0.72195 0.8867 0.86482 0.0
O111 O 0.74993 0.91997 0.79636 0.0
C112 C 0.77072 0.87095 0.77248 0.0
O113 O 0.75265 0.87185 0.76271 0.0
C114 C 0.77086 0.88768 0.87755 0.0
O115 O 0.77592 0.87105 0.86509 0.0
O116 O 0.72968 0.87878 0.81723 0.0
C117 C 0.05929 0.77395 0.80083 0.0
O118 O 0.06477 0.78994 0.81485 0.0
O119 O 0.09339 0.76762 0.86663 0.0
Zn120 Zn 0.09635 0.76122 0.82223 0.0
O121 O 0.11209 0.78201 0.80147 0.0
C122 C 0.10689 0.72065 0.83323 0.0
O123 O 0.09167 0.72061 0.85125 0.0
O124 O 0.07046 0.75922 0.80128 0.0
C125 C 0.13056 0.78102 0.80233 0.0
O126 O 0.13883 0.76693 0.81785 0.0
C127 C 0.07835 0.76286 0.88168 0.0
O128 O 0.06391 0.75403 0.86772 0.0
O129 O 0.11101 0.73599 0.81843 0.0
C130 C 0.24739 0.06192 0.80961 0.0
O131 O 0.25349 0.06138 0.83788 0.0
O132 O 0.23523 0.09901 0.86505 0.0
Zn133 Zn 0.24152 0.10331 0.82086 0.0
O134 O 0.22141 0.12006 0.80067 0.0
C135 C 0.27934 0.11797 0.83923 0.0
O136 O 0.27533 0.10891 0.86472 0.0
O137 O 0.24204 0.07804 0.79823 0.0
C138 C 0.21961 0.13804 0.80677 0.0
O139 O 0.23071 0.14583 0.82784 0.0
C140 C 0.21899 0.10296 0.87738 0.0
O141 O 0.2047 0.10979 0.86062 0.0
O142 O 0.2673 0.11706 0.81732 0.0
C143 C 0.93521 0.2227 0.80445 0.0
O144 O 0.92572 0.20609 0.80497 0.0
O145 O 0.90391 0.22958 0.88011 0.0
Zn146 Zn 0.90111 0.23607 0.83571 0.0
O147 O 0.88523 0.21559 0.81402 0.0
C148 C 0.88444 0.27351 0.85282 0.0
O149 O 0.89058 0.26887 0.88013 0.0
O150 O 0.92756 0.23763 0.81659 0.0
C151 C 0.86729 0.21829 0.80828 0.0
O152 O 0.85891 0.23445 0.81739 0.0
C153 C 0.8912 0.21984 0.89455 0.0
O154 O 0.87588 0.21318 0.87997 0.0
O155 O 0.88774 0.262 0.83083 0.0
C156 C 0.74681 0.05849 0.6814 0.0
O157 O 0.73327 0.06106 0.66067 0.0
O158 O 0.75865 0.10012 0.62746 0.0
Zn159 Zn 0.75346 0.09961 0.6724 0.0
O160 O 0.77117 0.11815 0.6943 0.0
C161 C 0.71296 0.1077 0.65923 0.0
O162 O 0.71717 0.09955 0.63307 0.0
O163 O 0.75719 0.07287 0.6896 0.0
C164 C 0.78918 0.12015 0.68857 0.0
O165 O 0.79711 0.10971 0.66688 0.0
C166 C 0.76945 0.08816 0.61334 0.0
O167 O 0.7787 0.07456 0.6286 0.0
O168 O 0.72602 0.10874 0.67964 0.0
C169 C 0.93275 0.77168 0.68396 0.0
O170 O 0.92487 0.78811 0.67489 0.0
O171 O 0.89873 0.7575 0.61481 0.0
Zn172 Zn 0.89705 0.75597 0.66043 0.0
O173 O 0.88143 0.77822 0.67722 0.0
C174 C 0.88515 0.71552 0.65769 0.0
O175 O 0.89768 0.71464 0.63521 0.0
O176 O 0.92359 0.75583 0.67968 0.0
C177 C 0.86632 0.78441 0.66365 0.0
O178 O 0.86133 0.77664 0.63751 0.0
C179 C 0.9023 0.77304 0.60016 0.0
O180 O 0.90555 0.78927 0.61512 0.0
O181 O 0.88286 0.7315 0.67175 0.0
C182 C 0.23113 0.93888 0.68717 0.0
O183 O 0.21462 0.9354 0.67306 0.0
O184 O 0.2374 0.90444 0.62002 0.0
Zn185 Zn 0.24075 0.90073 0.66499 0.0
O186 O 0.21806 0.88636 0.68303 0.0
C187 C 0.28131 0.88909 0.6632 0.0
O188 O 0.28385 0.906 0.64982 0.0
O189 O 0.24453 0.92617 0.6864 0.0
C190 C 0.2166 0.86832 0.67707 0.0
O191 O 0.22914 0.86038 0.65829 0.0
C192 C 0.22101 0.90454 0.60658 0.0
O193 O 0.205 0.90279 0.62262 0.0
O194 O 0.26435 0.88417 0.6717 0.0
C195 C 0.06625 0.23289 0.70256 0.0
O196 O 0.07818 0.21794 0.70277 0.0
O197 O 0.09802 0.24491 0.62804 0.0
Zn198 Zn 0.09867 0.25062 0.67282 0.0
O199 O 0.11638 0.23206 0.69484 0.0
C200 C 0.10941 0.2903 0.65828 0.0
O201 O 0.10058 0.28645 0.6325 0.0
O202 O 0.07177 0.24878 0.69054 0.0
C203 C 0.12963 0.22213 0.68204 0.0
O204 O 0.13206 0.22357 0.65255 0.0
C205 C 0.09022 0.23004 0.6159 0.0
O206 O 0.08195 0.21685 0.63321 0.0
O207 O 0.10972 0.27743 0.67901 0.0
C208 C 0.73893 0.5554 0.69793 0.0
O209 O 0.72244 0.55995 0.68455 0.0
O210 O 0.73845 0.58845 0.6335 0.0
Zn211 Zn 0.74906 0.59282 0.67553 0.0
O212 O 0.73121 0.60958 0.70055 0.0
C213 C 0.784 0.61279 0.69416 0.0
O214 O 0.77735 0.60902 0.72148 0.0
O215 O 0.75302 0.56736 0.69685 0.0
C216 C 0.71302 0.61129 0.69598 0.0
O217 O 0.70482 0.60165 0.67359 0.0
C218 C 0.73491 0.60321 0.61701 0.0
O219 O 0.73743 0.62069 0.62851 0.0
O220 O 0.7745 0.60685 0.6712 0.0
C221 C 0.43431 0.73448 0.70973 0.0
O222 O 0.42874 0.71803 0.69716 0.0
O223 O 0.3999 0.74059 0.64407 0.0
Zn224 Zn 0.39691 0.74674 0.68857 0.0
O225 O 0.38103 0.72636 0.70997 0.0
C226 C 0.38419 0.78539 0.67244 0.0
O227 O 0.39612 0.78284 0.6495 0.0
O228 O 0.42301 0.7491 0.70864 0.0
C229 C 0.36421 0.72196 0.70005 0.0
O230 O 0.35778 0.73035 0.67517 0.0
C231 C 0.39834 0.72384 0.63204 0.0
O232 O 0.39503 0.70862 0.64935 0.0
O233 O 0.38255 0.77206 0.69227 0.0
C234 C 0.26637 0.4397 0.68662 0.0
O235 O 0.28312 0.43319 0.67643 0.0
O236 O 0.25836 0.4028 0.62208 0.0
Zn237 Zn 0.25394 0.40203 0.66724 0.0
O238 O 0.27532 0.38805 0.68948 0.0
C239 C 0.21322 0.39232 0.66239 0.0
O240 O 0.21266 0.40811 0.64557 0.0
O241 O 0.25139 0.42893 0.68449 0.0
C242 C 0.28293 0.37241 0.67974 0.0
O243 O 0.27735 0.36538 0.65339 0.0
C244 C 0.27463 0.40426 0.60853 0.0
O245 O 0.29071 0.40579 0.62453 0.0
O246 O 0.22925 0.3872 0.67442 0.0
C247 C 0.55881 0.26049 0.685 0.0
O248 O 0.56689 0.27656 0.67488 0.0
O249 O 0.59545 0.24791 0.62074 0.0
Zn250 Zn 0.5953 0.24531 0.66625 0.0
O251 O 0.60973 0.26727 0.68621 0.0
C252 C 0.60505 0.20443 0.66476 0.0
O253 O 0.58998 0.20342 0.64641 0.0
O254 O 0.56815 0.24458 0.68297 0.0
C255 C 0.62728 0.27096 0.67928 0.0
O256 O 0.63567 0.26082 0.65766 0.0
C257 C 0.59438 0.26378 0.606 0.0
O258 O 0.59248 0.28028 0.62077 0.0
O259 O 0.60953 0.22071 0.67655 0.0
C260 C 0.74944 0.42829 0.81128 0.0
O261 O 0.75526 0.42768 0.83969 0.0
O262 O 0.73633 0.38955 0.8633 0.0
Zn263 Zn 0.74198 0.38673 0.81875 0.0
O264 O 0.72141 0.3713 0.79704 0.0
C265 C 0.78181 0.3764 0.83138 0.0
O266 O 0.78058 0.39102 0.8505 0.0
O267 O 0.74361 0.41278 0.79846 0.0
C268 C 0.71061 0.35849 0.80918 0.0
O269 O 0.71224 0.35496 0.83839 0.0
C270 C 0.72147 0.39761 0.87495 0.0
O271 O 0.7079 0.40479 0.85714 0.0
O272 O 0.76724 0.37229 0.81475 0.0
C273 C 0.56231 0.74129 0.8219 0.0
O274 O 0.56323 0.74863 0.84941 0.0
O275 O 0.59936 0.73044 0.87673 0.0
Zn276 Zn 0.60323 0.73299 0.83176 0.0
O277 O 0.61835 0.71018 0.8156 0.0
C278 C 0.61505 0.77311 0.83846 0.0
O279 O 0.6004 0.77363 0.85757 0.0
O280 O 0.57754 0.73407 0.81007 0.0
C281 C 0.63685 0.71047 0.81562 0.0
O282 O 0.64594 0.72552 0.82738 0.0
C283 C 0.59525 0.7146 0.89017 0.0
O284 O 0.59317 0.69859 0.87417 0.0
O285 O 0.61856 0.75744 0.82413 0.0
C286 C 0.26199 0.56564 0.80429 0.0
O287 O 0.27768 0.57159 0.81867 0.0
O288 O 0.25411 0.5969 0.87135 0.0
Zn289 Zn 0.24812 0.60164 0.82708 0.0
O290 O 0.26873 0.61801 0.8072 0.0
C291 C 0.21096 0.61821 0.84514 0.0
O292 O 0.21529 0.61055 0.87162 0.0
O293 O 0.2468 0.57617 0.80493 0.0
C294 C 0.27322 0.63482 0.81698 0.0
O295 O 0.26461 0.64156 0.84144 0.0
C296 C 0.27066 0.59909 0.88387 0.0
O297 O 0.28561 0.60458 0.86739 0.0
O298 O 0.2226 0.61588 0.82301 0.0
C299 C 0.43429 0.26955 0.80513 0.0
O300 O 0.43047 0.28562 0.82019 0.0
O301 O 0.40187 0.26486 0.87148 0.0
Zn302 Zn 0.39667 0.26026 0.827 0.0
O303 O 0.38285 0.28258 0.80687 0.0
C304 C 0.38366 0.22071 0.83624 0.0
O305 O 0.39963 0.21945 0.85259 0.0
O306 O 0.4218 0.25591 0.80506 0.0
C307 C 0.36517 0.2864 0.81282 0.0
O308 O 0.35615 0.27629 0.83387 0.0
C309 C 0.39768 0.28014 0.8864 0.0
O310 O 0.38959 0.29496 0.8724 0.0
O311 O 0.37969 0.23664 0.82295 0.0
C312 C 0.26682 0.4294 0.30175 0.0
O313 O 0.28215 0.42306 0.31667 0.0
O314 O 0.25834 0.39716 0.36617 0.0
Zn315 Zn 0.25255 0.39298 0.32174 0.0
O316 O 0.27295 0.37671 0.30117 0.0
C317 C 0.21446 0.37845 0.33863 0.0
O318 O 0.21822 0.38747 0.36427 0.0
O319 O 0.25163 0.41885 0.3008 0.0
C320 C 0.27493 0.35872 0.30711 0.0
O321 O 0.26403 0.35079 0.32826 0.0
C322 C 0.27374 0.39224 0.38025 0.0
O323 O 0.28793 0.38367 0.3654 0.0
O324 O 0.22681 0.37921 0.3172 0.0
C325 C 0.5565 0.26305 0.306 0.0
O326 O 0.56042 0.27699 0.32551 0.0
O327 O 0.59479 0.26081 0.36117 0.0
Zn328 Zn 0.59657 0.25401 0.31668 0.0
O329 O 0.61129 0.27418 0.29284 0.0
C330 C 0.60591 0.21319 0.32538 0.0
O331 O 0.58977 0.213 0.34137 0.0
O332 O 0.56985 0.25111 0.29884 0.0
C333 C 0.61888 0.28955 0.30374 0.0
O334 O 0.61683 0.29342 0.33276 0.0
C335 C 0.60903 0.25689 0.37858 0.0
O336 O 0.62487 0.24924 0.3669 0.0
O337 O 0.61119 0.22888 0.31252 0.0
C338 C 0.74729 0.5584 0.31485 0.0
O339 O 0.76382 0.56211 0.32874 0.0
O340 O 0.73438 0.59972 0.37487 0.0
Zn341 Zn 0.73787 0.59858 0.32964 0.0
O342 O 0.71803 0.61576 0.30969 0.0
C343 C 0.77826 0.609 0.33843 0.0
O344 O 0.77548 0.601 0.36516 0.0
O345 O 0.73437 0.57159 0.31328 0.0
C346 C 0.72043 0.6341 0.30929 0.0
O347 O 0.73574 0.64163 0.32285 0.0
C348 C 0.72414 0.58812 0.39064 0.0
O349 O 0.71463 0.57394 0.37715 0.0
O350 O 0.76445 0.60899 0.3192 0.0
C351 C 0.43423 0.72325 0.32287 0.0
O352 O 0.42888 0.7074 0.33735 0.0
O353 O 0.40139 0.73025 0.38809 0.0
Zn354 Zn 0.39718 0.73615 0.34375 0.0
O355 O 0.38153 0.71516 0.32292 0.0
C356 C 0.37973 0.77334 0.36074 0.0
O357 O 0.38605 0.76896 0.38806 0.0
O358 O 0.42296 0.7379 0.32283 0.0
C359 C 0.36334 0.71732 0.31875 0.0
O360 O 0.3547 0.73285 0.32974 0.0
C361 C 0.38934 0.72069 0.40409 0.0
O362 O 0.37354 0.71368 0.39127 0.0
O363 O 0.38316 0.76177 0.33887 0.0
C364 C 0.27267 0.55846 0.19271 0.0
O365 O 0.28922 0.56466 0.18134 0.0
O366 O 0.26225 0.59424 0.12721 0.0
Zn367 Zn 0.26006 0.59593 0.17264 0.0
O368 O 0.28274 0.61025 0.1909 0.0
C369 C 0.2204 0.61014 0.16777 0.0
O370 O 0.21869 0.59656 0.14693 0.0
O371 O 0.25779 0.5694 0.19133 0.0
C372 C 0.28414 0.62832 0.18513 0.0
O373 O 0.27175 0.63621 0.16596 0.0
C374 C 0.27799 0.59235 0.1124 0.0
O375 O 0.29459 0.59099 0.12712 0.0
O376 O 0.23636 0.61184 0.18213 0.0
C377 C 0.42668 0.25957 0.19866 0.0
O378 O 0.41789 0.27608 0.19242 0.0
O379 O 0.39723 0.25289 0.12531 0.0
Zn380 Zn 0.39292 0.24536 0.16904 0.0
O381 O 0.37622 0.26477 0.1911 0.0
C382 C 0.36836 0.21474 0.14755 0.0
O383 O 0.36711 0.22663 0.12429 0.0
O384 O 0.4187 0.24369 0.19058 0.0
C385 C 0.36164 0.27333 0.17939 0.0
O386 O 0.35712 0.26992 0.15089 0.0
C387 C 0.39947 0.26986 0.11435 0.0
O388 O 0.39952 0.28501 0.13255 0.0
O389 O 0.37901 0.21946 0.17003 0.0
C390 C 0.72663 0.43378 0.19794 0.0
O391 O 0.70939 0.42551 0.1969 0.0
O392 O 0.7327 0.405 0.11765 0.0
Zn393 Zn 0.73721 0.40039 0.16231 0.0
O394 O 0.71489 0.38581 0.18119 0.0
C395 C 0.77307 0.38052 0.14619 0.0
O396 O 0.7694 0.38761 0.11909 0.0
O397 O 0.74079 0.42583 0.18417 0.0
C398 C 0.71289 0.36759 0.1773 0.0
O399 O 0.72522 0.35833 0.15969 0.0
C400 C 0.71682 0.40203 0.10352 0.0
O401 O 0.70143 0.39612 0.11862 0.0
O402 O 0.7615 0.38428 0.16792 0.0
C403 C 0.55827 0.7254 0.20061 0.0
O404 O 0.56447 0.70947 0.1872 0.0
O405 O 0.58858 0.73344 0.13171 0.0
Zn406 Zn 0.5935 0.73977 0.1757 0.0
O407 O 0.61082 0.71978 0.19522 0.0
C408 C 0.60578 0.7784 0.15768 0.0
O409 O 0.59369 0.77549 0.13497 0.0
O410 O 0.56836 0.74084 0.19852 0.0
C411 C 0.62912 0.72078 0.19128 0.0
O412 O 0.63619 0.7344 0.17348 0.0
C413 C 0.59415 0.71793 0.1186 0.0
O414 O 0.60322 0.70448 0.13441 0.0
O415 O 0.60736 0.76548 0.17818 0.0
H416 H 0.36273 0.18961 0.19511 0.0
H417 H 0.34711 0.19924 0.10122 0.0
H418 H 0.34105 0.16136 0.19663 0.0
H419 H 0.32541 0.17128 0.10289 0.0
H420 H 0.29788 0.11203 0.1076 0.0
H421 H 0.3245 0.13557 0.10791 0.0
H422 H 0.30527 0.157 0.19503 0.0
H423 H 0.27883 0.13336 0.19496 0.0
C424 C 0.35482 0.1856 0.17475 0.0
C425 C 0.35653 0.19674 0.14811 0.0
C426 C 0.34236 0.16949 0.17567 0.0
C427 C 0.3315 0.16413 0.1499 0.0
C428 C 0.33375 0.17489 0.12301 0.0
C429 C 0.34608 0.19102 0.12215 0.0
C430 C 0.29948 0.12158 0.12701 0.0
C431 C 0.28612 0.12095 0.15111 0.0
C432 C 0.31468 0.13512 0.12711 0.0
C433 C 0.31689 0.14823 0.15138 0.0
C434 C 0.30406 0.14699 0.17612 0.0
C435 C 0.28882 0.13352 0.17597 0.0
H436 H 0.84387 0.28303 0.20058 0.0
H437 H 0.8806 0.31281 0.13592 0.0
H438 H 0.81986 0.30891 0.1964 0.0
H439 H 0.85675 0.33902 0.13234 0.0
H440 H 0.79819 0.36636 0.10355 0.0
H441 H 0.82467 0.34331 0.11099 0.0
H442 H 0.81301 0.34252 0.20735 0.0
H443 H 0.78614 0.36519 0.19979 0.0
C444 C 0.84697 0.29525 0.18581 0.0
C445 C 0.8641 0.29578 0.16842 0.0
C446 C 0.83323 0.31017 0.18355 0.0
C447 C 0.83633 0.32601 0.16393 0.0
C448 C 0.85377 0.32686 0.1473 0.0
C449 C 0.8675 0.3119 0.1495 0.0
C450 C 0.80134 0.36137 0.12636 0.0
C451 C 0.78997 0.36752 0.15105 0.0
C452 C 0.81663 0.34825 0.13066 0.0
C453 C 0.82096 0.34102 0.15977 0.0
C454 C 0.80988 0.34757 0.18457 0.0
C455 C 0.79453 0.36064 0.18025 0.0
H456 H 0.60922 0.80668 0.11427 0.0
H457 H 0.63302 0.78799 0.20037 0.0
H458 H 0.63411 0.83197 0.11107 0.0
H459 H 0.658 0.81301 0.19689 0.0
H460 H 0.69376 0.86811 0.19162 0.0
H461 H 0.66459 0.84806 0.19666 0.0
H462 H 0.66933 0.83132 0.10243 0.0
H463 H 0.69822 0.85154 0.09722 0.0
C464 C 0.6196 0.8081 0.13267 0.0
C465 C 0.61924 0.79521 0.15744 0.0
C466 C 0.63392 0.82252 0.13075 0.0
C467 C 0.64812 0.82438 0.1536 0.0
C468 C 0.64718 0.81208 0.17904 0.0
C469 C 0.6329 0.79765 0.18094 0.0
C470 C 0.68847 0.86029 0.17191 0.0
C471 C 0.69839 0.86131 0.14407 0.0
C472 C 0.6718 0.84876 0.17484 0.0
C473 C 0.66468 0.83807 0.14997 0.0
C474 C 0.67428 0.83957 0.12192 0.0
C475 C 0.69095 0.85105 0.11901 0.0
H476 H 0.18499 0.61232 0.13912 0.0
H477 H 0.2211 0.64175 0.20527 0.0
H478 H 0.16172 0.63923 0.14106 0.0
H479 H 0.19784 0.66844 0.20722 0.0
H480 H 0.16903 0.72255 0.16497 0.0
H481 H 0.18944 0.69372 0.16854 0.0
H482 H 0.1382 0.65753 0.17543 0.0
H483 H 0.11757 0.68655 0.1718 0.0
C484 C 0.18782 0.62435 0.1544 0.0
C485 C 0.20501 0.62499 0.17176 0.0
C486 C 0.17446 0.63971 0.15558 0.0
C487 C 0.17812 0.65601 0.17402 0.0
C488 C 0.19482 0.65619 0.19245 0.0
C489 C 0.20809 0.64084 0.1914 0.0
C490 C 0.16206 0.70848 0.1673 0.0
C491 C 0.14168 0.70683 0.16808 0.0
C492 C 0.17377 0.69197 0.16958 0.0
C493 C 0.1654 0.6734 0.17247 0.0
C494 C 0.14502 0.67168 0.17313 0.0
C495 C 0.13325 0.68827 0.17116 0.0
H496 H 0.28401 0.84556 0.30528 0.0
H497 H 0.31421 0.88258 0.36927 0.0
H498 H 0.30947 0.8212 0.31033 0.0
H499 H 0.34 0.85829 0.37378 0.0
H500 H 0.36641 0.79908 0.40326 0.0
H501 H 0.34394 0.8261 0.3956 0.0
H502 H 0.34314 0.81429 0.29926 0.0
H503 H 0.36521 0.78698 0.307 0.0
C504 C 0.29622 0.84863 0.32014 0.0
C505 C 0.29702 0.86598 0.33699 0.0
C506 C 0.3109 0.83468 0.32289 0.0
C507 C 0.32678 0.83777 0.3425 0.0
C508 C 0.32783 0.85535 0.35879 0.0
C509 C 0.31311 0.86931 0.35607 0.0
C510 C 0.36157 0.80234 0.38041 0.0
C511 C 0.36747 0.79077 0.35579 0.0
C512 C 0.34877 0.81792 0.37599 0.0
C513 C 0.34165 0.82229 0.34683 0.0
C514 C 0.34809 0.81111 0.32208 0.0
C515 C 0.36083 0.79551 0.32651 0.0
H516 H 0.20115 0.35979 0.28783 0.0
H517 H 0.18783 0.36949 0.38247 0.0
H518 H 0.17341 0.33782 0.28374 0.0
H519 H 0.16045 0.3471 0.37861 0.0
H520 H 0.10419 0.31576 0.35822 0.0
H521 H 0.12858 0.3416 0.35727 0.0
H522 H 0.16556 0.30566 0.30113 0.0
H523 H 0.14104 0.28014 0.3014 0.0
C524 C 0.19226 0.35729 0.30774 0.0
C525 C 0.19678 0.36629 0.33553 0.0
C526 C 0.17641 0.34462 0.30543 0.0
C527 C 0.16477 0.34057 0.33089 0.0
C528 C 0.16895 0.35006 0.35844 0.0
C529 C 0.18474 0.36281 0.36071 0.0
C530 C 0.11743 0.31348 0.34539 0.0
C531 C 0.1207 0.29586 0.33001 0.0
C532 C 0.13146 0.32824 0.345 0.0
C533 C 0.14908 0.32568 0.32926 0.0
C534 C 0.15206 0.30826 0.31315 0.0
C535 C 0.13803 0.29355 0.31346 0.0
H536 H 0.69568 0.12678 0.28796 0.0
H537 H 0.67901 0.11791 0.3815 0.0
H538 H 0.66931 0.15016 0.28186 0.0
H539 H 0.65301 0.14173 0.37566 0.0
H540 H 0.59983 0.17737 0.35114 0.0
H541 H 0.62222 0.14974 0.3521 0.0
H542 H 0.6636 0.18274 0.2991 0.0
H543 H 0.64115 0.20998 0.29746 0.0
C544 C 0.68633 0.12974 0.30719 0.0
C545 C 0.68956 0.12062 0.3353 0.0
C546 C 0.67127 0.14322 0.30373 0.0
C547 C 0.65918 0.148 0.32836 0.0
C548 C 0.66192 0.13827 0.35613 0.0
C549 C 0.67692 0.12468 0.35954 0.0
C550 C 0.61362 0.17861 0.33943 0.0
C551 C 0.61873 0.1959 0.32432 0.0
C552 C 0.62649 0.16283 0.34012 0.0
C553 C 0.64473 0.16402 0.32573 0.0
C554 C 0.64957 0.18116 0.31002 0.0
C555 C 0.63672 0.19688 0.30926 0.0
H556 H 0.78927 0.62606 0.28507 0.0
H557 H 0.80793 0.61725 0.37779 0.0
H558 H 0.81683 0.64774 0.27669 0.0
H559 H 0.83512 0.63935 0.36969 0.0
H560 H 0.88866 0.67298 0.34314 0.0
H561 H 0.86558 0.64594 0.34446 0.0
H562 H 0.82433 0.68021 0.29302 0.0
H563 H 0.84746 0.70689 0.29101 0.0
C564 C 0.79935 0.62861 0.30359 0.0
C565 C 0.79628 0.6201 0.3322 0.0
C566 C 0.81509 0.64112 0.29883 0.0
C567 C 0.82805 0.64549 0.32262 0.0
C568 C 0.82553 0.63619 0.35078 0.0
C569 C 0.80985 0.62358 0.35549 0.0
C570 C 0.87476 0.67462 0.33177 0.0
C571 C 0.86985 0.69214 0.31716 0.0
C572 C 0.8615 0.65916 0.33266 0.0
C573 C 0.84306 0.66092 0.31897 0.0
C574 C 0.83848 0.67821 0.30344 0.0
C575 C 0.85172 0.69361 0.30249 0.0
H576 H 0.7047 0.85766 0.78979 0.0
H577 H 0.69345 0.86648 0.8853 0.0
H578 H 0.67816 0.83418 0.78737 0.0
H579 H 0.66727 0.84258 0.88308 0.0
H580 H 0.61179 0.80893 0.86521 0.0
H581 H 0.63516 0.83568 0.8636 0.0
H582 H 0.67226 0.80164 0.80485 0.0
H583 H 0.64874 0.7752 0.80579 0.0
C584 C 0.69654 0.85462 0.81027 0.0
C585 C 0.70126 0.86386 0.83779 0.0
C586 C 0.68138 0.84108 0.80891 0.0
C587 C 0.67066 0.83638 0.83507 0.0
C588 C 0.67507 0.84602 0.86241 0.0
C589 C 0.69017 0.85964 0.86373 0.0
C590 C 0.62484 0.80725 0.8517 0.0
C591 C 0.62843 0.78991 0.83572 0.0
C592 C 0.63829 0.82254 0.85093 0.0
C593 C 0.65564 0.82079 0.83422 0.0
C594 C 0.65894 0.80362 0.81763 0.0
C595 C 0.64549 0.78838 0.81831 0.0
H596 H 0.10347 0.68589 0.8633 0.0
H597 H 0.14054 0.71716 0.80084 0.0
H598 H 0.1268 0.65907 0.86421 0.0
H599 H 0.16395 0.69069 0.80234 0.0
H600 H 0.19685 0.63469 0.79308 0.0
H601 H 0.1698 0.65741 0.78806 0.0
H602 H 0.15907 0.65326 0.88447 0.0
H603 H 0.18577 0.63015 0.88936 0.0
C604 C 0.11652 0.687 0.84963 0.0
C605 C 0.12017 0.7037 0.8321 0.0
C606 C 0.12994 0.67168 0.85029 0.0
C607 C 0.14728 0.67275 0.83343 0.0
C608 C 0.15063 0.68924 0.81527 0.0
C609 C 0.13724 0.7045 0.81457 0.0
C610 C 0.1886 0.63847 0.81316 0.0
C611 C 0.19357 0.63073 0.84166 0.0
C612 C 0.17314 0.65157 0.8103 0.0
C613 C 0.16236 0.6573 0.83589 0.0
C614 C 0.16692 0.64902 0.86422 0.0
C615 C 0.18233 0.63585 0.86706 0.0
H616 H 0.34887 0.21939 0.80633 0.0
H617 H 0.3872 0.18467 0.86233 0.0
H618 H 0.32525 0.19305 0.80574 0.0
H619 H 0.36365 0.15803 0.86115 0.0
H620 H 0.30522 0.12734 0.88415 0.0
H621 H 0.3317 0.1509 0.88177 0.0
H622 H 0.31942 0.16065 0.78675 0.0
H623 H 0.29261 0.13748 0.7893 0.0
C624 C 0.35236 0.20604 0.81825 0.0
C625 C 0.36989 0.20417 0.83448 0.0
C626 C 0.33886 0.19086 0.81773 0.0
C627 C 0.34256 0.1734 0.83336 0.0
C628 C 0.36026 0.17138 0.84916 0.0
C629 C 0.37379 0.1866 0.84971 0.0
C630 C 0.30829 0.13436 0.86267 0.0
C631 C 0.29669 0.13067 0.83699 0.0
C632 C 0.32355 0.1478 0.86127 0.0
C633 C 0.32758 0.15778 0.83412 0.0
C634 C 0.31646 0.15348 0.80815 0.0
C635 C 0.30116 0.14011 0.80958 0.0
H636 H 0.87085 0.28807 0.79908 0.0
H637 H 0.87031 0.29844 0.89584 0.0
H638 H 0.84836 0.31508 0.79167 0.0
H639 H 0.84741 0.32509 0.88851 0.0
H640 H 0.81513 0.38022 0.86507 0.0
H641 H 0.8423 0.35742 0.86831 0.0
H642 H 0.81441 0.32052 0.8017 0.0
H643 H 0.7876 0.34346 0.79789 0.0
C644 C 0.86602 0.29618 0.81877 0.0
C645 C 0.87224 0.291 0.84809 0.0
C646 C 0.85305 0.31161 0.81452 0.0
C647 C 0.84594 0.32215 0.83951 0.0
C648 C 0.85275 0.31743 0.86872 0.0
C649 C 0.8658 0.30205 0.87295 0.0
C650 C 0.81493 0.36736 0.85085 0.0
C651 C 0.79914 0.3636 0.83137 0.0
C652 C 0.83045 0.35424 0.85284 0.0
C653 C 0.83049 0.33708 0.83541 0.0
C654 C 0.815 0.3337 0.81518 0.0
C655 C 0.79953 0.34681 0.81314 0.0
H656 H 0.63858 0.20277 0.6979 0.0
H657 H 0.60114 0.16782 0.64075 0.0
H658 H 0.66219 0.17653 0.69951 0.0
H659 H 0.62466 0.1412 0.64308 0.0
H660 H 0.6848 0.11458 0.61669 0.0
H661 H 0.65641 0.13548 0.62171 0.0
H662 H 0.66989 0.14436 0.71658 0.0
H663 H 0.69868 0.12391 0.7113 0.0
C664 C 0.63521 0.18933 0.68613 0.0
C665 C 0.61807 0.18748 0.6689 0.0
C666 C 0.64871 0.17418 0.68725 0.0
C667 C 0.64538 0.15676 0.67131 0.0
C668 C 0.6278 0.15455 0.65524 0.0
C669 C 0.61428 0.16976 0.65404 0.0
C670 C 0.68156 0.12075 0.63874 0.0
C671 C 0.69417 0.11784 0.66348 0.0
C672 C 0.66518 0.13265 0.64168 0.0
C673 C 0.66097 0.14179 0.66948 0.0
C674 C 0.67293 0.13787 0.69469 0.0
C675 C 0.68939 0.12607 0.6917 0.0
H676 H 0.80047 0.62435 0.64072 0.0
H677 H 0.80672 0.62961 0.73803 0.0
H678 H 0.82692 0.64745 0.63359 0.0
H679 H 0.8335 0.65249 0.73082 0.0
H680 H 0.85826 0.71271 0.70302 0.0
H681 H 0.83594 0.68597 0.71294 0.0
H682 H 0.86179 0.65303 0.63982 0.0
H683 H 0.88398 0.68 0.62946 0.0
C684 C 0.80767 0.63021 0.66061 0.0
C685 C 0.80136 0.62527 0.68996 0.0
C686 C 0.82294 0.64337 0.6565 0.0
C687 C 0.83226 0.65188 0.68164 0.0
C688 C 0.82642 0.64639 0.711 0.0
C689 C 0.81114 0.63321 0.71512 0.0
C690 C 0.85932 0.69971 0.68919 0.0
C691 C 0.8728 0.69855 0.66528 0.0
C692 C 0.84661 0.68431 0.69505 0.0
C693 C 0.84706 0.66738 0.67713 0.0
C694 C 0.86093 0.66597 0.65379 0.0
C695 C 0.8737 0.68139 0.64796 0.0
H696 H 0.31953 0.89437 0.64729 0.0
H697 H 0.28018 0.85275 0.68795 0.0
H698 H 0.34617 0.87098 0.65211 0.0
H699 H 0.30655 0.82938 0.69209 0.0
H700 H 0.35981 0.79613 0.71837 0.0
H701 H 0.33654 0.82286 0.7186 0.0
H702 H 0.35595 0.8402 0.62934 0.0
H703 H 0.37961 0.81375 0.62943 0.0
C704 C 0.31657 0.88028 0.65732 0.0
C705 C 0.29774 0.87541 0.66718 0.0
C706 C 0.33181 0.86686 0.65995 0.0
C707 C 0.32849 0.84833 0.67252 0.0
C708 C 0.3097 0.84363 0.68278 0.0
C709 C 0.29453 0.85701 0.68019 0.0
C710 C 0.35927 0.80577 0.69892 0.0
C711 C 0.37143 0.80271 0.67375 0.0
C712 C 0.34587 0.82103 0.699 0.0
C713 C 0.34423 0.83353 0.67384 0.0
C714 C 0.35694 0.83095 0.64918 0.0
C715 C 0.37044 0.81571 0.64917 0.0
H716 H 0.12757 0.30366 0.70943 0.0
H717 H 0.11795 0.3174 0.61485 0.0
H718 H 0.15035 0.33073 0.71342 0.0
H719 H 0.14114 0.34412 0.61863 0.0
H720 H 0.17694 0.39788 0.63791 0.0
H721 H 0.14919 0.37566 0.63986 0.0
H722 H 0.18285 0.33585 0.69488 0.0
H723 H 0.21027 0.35814 0.69357 0.0
C724 C 0.13018 0.31256 0.68956 0.0
C725 C 0.12113 0.30824 0.66173 0.0
C726 C 0.14332 0.32802 0.69181 0.0
C727 C 0.14778 0.33942 0.66625 0.0
C728 C 0.13793 0.33573 0.63883 0.0
C729 C 0.1247 0.32033 0.63662 0.0
C730 C 0.17831 0.38448 0.65071 0.0
C731 C 0.19585 0.37973 0.66543 0.0
C732 C 0.16244 0.37172 0.65171 0.0
C733 C 0.1638 0.35396 0.66746 0.0
C734 C 0.18117 0.34953 0.68292 0.0
C735 C 0.19698 0.36227 0.68196 0.0
H736 H 0.20363 0.13296 0.0654 0.0
H737 H 0.22601 0.07422 0.07025 0.0
H738 H 0.20225 0.13057 0.01024 0.0
H739 H 0.22439 0.07178 0.01506 0.0
H740 H 0.24487 0.0874 0.91773 0.0
H741 H 0.2425 0.08672 0.97283 0.0
H742 H 0.18579 0.11372 0.96772 0.0
H743 H 0.18822 0.11461 0.91242 0.0
C744 C 0.20805 0.11946 0.05474 0.0
C745 C 0.21506 0.10383 0.07222 0.0
C746 C 0.20714 0.11805 0.02312 0.0
C747 C 0.21329 0.10101 0.00829 0.0
C748 C 0.21978 0.08518 0.02583 0.0
C749 C 0.22061 0.08656 0.05745 0.0
C750 C 0.23181 0.09305 0.92829 0.0
C751 C 0.21678 0.10116 0.91068 0.0
C752 C 0.23041 0.09255 0.95989 0.0
C753 C 0.21398 0.1002 0.97463 0.0
C754 C 0.19873 0.1079 0.95701 0.0
C755 C 0.20008 0.10831 0.92534 0.0
H756 H 0.91972 0.23391 0.93192 0.0
H757 H 0.86657 0.20018 0.93249 0.0
H758 H 0.92132 0.23186 0.98708 0.0
H759 H 0.86806 0.19838 0.98775 0.0
H760 H 0.88545 0.18628 0.08637 0.0
H761 H 0.88693 0.18502 0.03095 0.0
H762 H 0.90236 0.24599 0.02872 0.0
H763 H 0.90114 0.24723 0.08382 0.0
C764 C 0.90844 0.22595 0.94377 0.0
C765 C 0.89294 0.21733 0.92781 0.0
C766 C 0.90931 0.22486 0.9754 0.0
C767 C 0.89474 0.21508 0.99178 0.0
C768 C 0.87959 0.20589 0.97576 0.0
C769 C 0.87868 0.20702 0.9441 0.0
C770 C 0.8893 0.19937 0.07404 0.0
C771 C 0.89314 0.21686 0.08951 0.0
C772 C 0.89004 0.19866 0.04231 0.0
C773 C 0.89477 0.2154 0.02547 0.0
C774 C 0.89893 0.23278 0.04103 0.0
C775 C 0.8981 0.23351 0.07264 0.0
H776 H 0.76014 0.9195 0.91084 0.0
H777 H 0.78871 0.86363 0.91857 0.0
H778 H 0.7628 0.92393 0.96557 0.0
H779 H 0.79109 0.86799 0.97339 0.0
H780 H 0.80431 0.88803 0.06983 0.0
H781 H 0.80612 0.88754 0.01441 0.0
H782 H 0.74694 0.90857 0.0092 0.0
H783 H 0.74517 0.90928 0.06429 0.0
C784 C 0.76712 0.90822 0.92416 0.0
C785 C 0.77406 0.89113 0.91035 0.0
C786 C 0.76857 0.91074 0.95555 0.0
C787 C 0.77702 0.89625 0.97384 0.0
C788 C 0.78465 0.8795 0.9599 0.0
C789 C 0.78317 0.87695 0.92849 0.0
C790 C 0.79177 0.89276 0.05684 0.0
C791 C 0.77457 0.89862 0.07148 0.0
C792 C 0.79278 0.89238 0.02511 0.0
C793 C 0.77666 0.89798 0.00743 0.0
C794 C 0.75969 0.90439 0.02214 0.0
C795 C 0.75864 0.90467 0.05376 0.0
H796 H 0.04931 0.75271 0.92098 0.0
H797 H 0.10626 0.77945 0.91775 0.0
H798 H 0.04965 0.75488 0.97616 0.0
H799 H 0.10641 0.78196 0.97294 0.0
H800 H 0.1101 0.75707 0.07019 0.0
H801 H 0.10914 0.75932 0.01509 0.0
H802 H 0.0489 0.77723 0.01911 0.0
H803 H 0.04971 0.77461 0.07433 0.0
C804 C 0.0618 0.75928 0.932 0.0
C805 C 0.07782 0.76576 0.91496 0.0
C806 C 0.06194 0.76063 0.96365 0.0
C807 C 0.07811 0.76851 0.97897 0.0
C808 C 0.09387 0.77555 0.96185 0.0
C809 C 0.09372 0.7742 0.9302 0.0
C810 C 0.09667 0.76163 0.05937 0.0
C811 C 0.07994 0.76553 0.07667 0.0
C812 C 0.09617 0.76304 0.02776 0.0
C813 C 0.07893 0.76841 0.01268 0.0
C814 C 0.06233 0.7728 0.03002 0.0
C815 C 0.06283 0.7714 0.06168 0.0
H816 H 0.19699 0.87563 0.41947 0.0
H817 H 0.24317 0.91819 0.41288 0.0
H818 H 0.19575 0.88057 0.47422 0.0
H819 H 0.24159 0.92347 0.46747 0.0
H820 H 0.25155 0.90648 0.56716 0.0
H821 H 0.25056 0.90526 0.51208 0.0
H822 H 0.18769 0.90325 0.5146 0.0
H823 H 0.18869 0.90402 0.57001 0.0
C824 C 0.2067 0.88623 0.42963 0.0
C825 C 0.22031 0.89638 0.41184 0.0
C826 C 0.2059 0.88915 0.46101 0.0
C827 C 0.21867 0.90232 0.47527 0.0
C828 C 0.23179 0.91296 0.45728 0.0
C829 C 0.23263 0.91 0.42595 0.0
C830 C 0.23749 0.90592 0.55602 0.0
C831 C 0.2202 0.90525 0.57302 0.0
C832 C 0.23691 0.90535 0.52437 0.0
C833 C 0.21904 0.90415 0.50889 0.0
C834 C 0.20171 0.90392 0.52585 0.0
C835 C 0.20228 0.90447 0.55759 0.0
H836 H 0.07441 0.20063 0.58166 0.0
H837 H 0.10611 0.25483 0.57444 0.0
H838 H 0.07378 0.19803 0.52631 0.0
H839 H 0.10576 0.25203 0.51947 0.0
H840 H 0.08329 0.25293 0.42319 0.0
H841 H 0.08228 0.25422 0.47832 0.0
H842 H 0.0956 0.1928 0.48264 0.0
H843 H 0.09627 0.19139 0.42724 0.0
C844 C 0.08131 0.21193 0.56831 0.0
C845 C 0.09022 0.22798 0.58246 0.0
C846 C 0.08102 0.21038 0.53663 0.0
C847 C 0.0896 0.22489 0.51851 0.0
C848 C 0.09871 0.24079 0.53275 0.0
C849 C 0.09901 0.24232 0.56431 0.0
C850 C 0.08592 0.23965 0.43583 0.0
C851 C 0.08998 0.22207 0.4208 0.0
C852 C 0.08544 0.24043 0.46746 0.0
C853 C 0.08905 0.22366 0.48487 0.0
C854 C 0.09264 0.20595 0.46987 0.0
C855 C 0.09311 0.20516 0.43813 0.0
H856 H 0.79093 0.065 0.5753 0.0
H857 H 0.75038 0.11314 0.57546 0.0
H858 H 0.79101 0.0653 0.5198 0.0
H859 H 0.75068 0.11354 0.52027 0.0
H860 H 0.73671 0.09232 0.42481 0.0
H861 H 0.73846 0.09204 0.47992 0.0
H862 H 0.80095 0.08567 0.47547 0.0
H863 H 0.79924 0.08573 0.42 0.0
C864 C 0.78217 0.07573 0.56354 0.0
C865 C 0.77057 0.08896 0.57981 0.0
C866 C 0.78229 0.07595 0.53177 0.0
C867 C 0.77073 0.08934 0.51569 0.0
C868 C 0.75949 0.10284 0.53201 0.0
C869 C 0.75942 0.10267 0.56367 0.0
C870 C 0.75085 0.09082 0.43549 0.0
C871 C 0.76785 0.0891 0.41797 0.0
C872 C 0.75185 0.09078 0.46712 0.0
C873 C 0.76986 0.08898 0.48203 0.0
C874 C 0.78686 0.08697 0.46459 0.0
C875 C 0.78587 0.08709 0.43284 0.0
H876 H 0.91096 0.803 0.56143 0.0
H877 H 0.89262 0.7428 0.56286 0.0
H878 H 0.9098 0.80275 0.50606 0.0
H879 H 0.89092 0.74271 0.50776 0.0
H880 H 0.90791 0.74243 0.40885 0.0
H881 H 0.91121 0.7435 0.46378 0.0
H882 H 0.88682 0.80151 0.4646 0.0
H883 H 0.88406 0.80065 0.40939 0.0
C884 C 0.90665 0.78973 0.54995 0.0
C885 C 0.90193 0.77291 0.56656 0.0
C886 C 0.90586 0.78962 0.51821 0.0
C887 C 0.90028 0.77271 0.50241 0.0
C888 C 0.8956 0.7559 0.51911 0.0
C889 C 0.89647 0.75598 0.55077 0.0
C890 C 0.9033 0.75545 0.42071 0.0
C891 C 0.89565 0.77143 0.40474 0.0
C892 C 0.9051 0.75602 0.45226 0.0
C893 C 0.89916 0.77253 0.46868 0.0
C894 C 0.89175 0.78864 0.45266 0.0
C895 C 0.89006 0.78811 0.42101 0.0
H896 H 0.72618 0.63171 0.57601 0.0
H897 H 0.73223 0.5693 0.58456 0.0
H898 H 0.72103 0.62813 0.52159 0.0
H899 H 0.72748 0.56578 0.52997 0.0
H900 H 0.70483 0.56552 0.43225 0.0
H901 H 0.70462 0.56929 0.48745 0.0
H902 H 0.74203 0.61961 0.47942 0.0
H903 H 0.74198 0.61611 0.4246 0.0
C904 C 0.72629 0.61721 0.56632 0.0
C905 C 0.72982 0.60081 0.58458 0.0
C906 C 0.72343 0.61517 0.5351 0.0
C907 C 0.72408 0.59669 0.52139 0.0
C908 C 0.72676 0.58021 0.53984 0.0
C909 C 0.72959 0.58224 0.57112 0.0
C910 C 0.7129 0.57745 0.4423 0.0
C911 C 0.72343 0.5905 0.42402 0.0
C912 C 0.71284 0.57955 0.47391 0.0
C913 C 0.72325 0.59479 0.48782 0.0
C914 C 0.73358 0.60792 0.46944 0.0
C915 C 0.73367 0.60581 0.43796 0.0
H916 H 0.41941 0.73526 0.43785 0.0
H917 H 0.36616 0.70204 0.44541 0.0
H918 H 0.42324 0.73436 0.49281 0.0
H919 H 0.36989 0.7014 0.50049 0.0
H920 H 0.39099 0.69131 0.5978 0.0
H921 H 0.39037 0.68882 0.54245 0.0
H922 H 0.40617 0.74954 0.53551 0.0
H923 H 0.40703 0.752 0.59056 0.0
C924 C 0.40857 0.72766 0.4512 0.0
C925 C 0.3924 0.71884 0.43724 0.0
C926 C 0.41073 0.72723 0.48272 0.0
C927 C 0.3968 0.71794 0.50101 0.0
C928 C 0.38096 0.70854 0.487 0.0
C929 C 0.37877 0.70901 0.45544 0.0
C930 C 0.3945 0.70407 0.58444 0.0
C931 C 0.39902 0.72186 0.5986 0.0
C932 C 0.39403 0.70266 0.55276 0.0
C933 C 0.39821 0.71898 0.53462 0.0
C934 C 0.40313 0.73664 0.54882 0.0
C935 C 0.4035 0.73807 0.58042 0.0
H936 H 0.24879 0.41282 0.41605 0.0
H937 H 0.30187 0.3791 0.41946 0.0
H938 H 0.24999 0.41699 0.47081 0.0
H939 H 0.30278 0.38283 0.47458 0.0
H940 H 0.30651 0.40757 0.57139 0.0
H941 H 0.30722 0.40594 0.51597 0.0
H942 H 0.24494 0.39701 0.51468 0.0
H943 H 0.24414 0.39911 0.56964 0.0
C944 C 0.26073 0.40627 0.42849 0.0
C945 C 0.27517 0.39551 0.4134 0.0
C946 C 0.26136 0.40858 0.45995 0.0
C947 C 0.27636 0.40007 0.47716 0.0
C948 C 0.2911 0.38971 0.46199 0.0
C949 C 0.29052 0.38748 0.43041 0.0
C950 C 0.29297 0.40535 0.55922 0.0
C951 C 0.27527 0.40353 0.57495 0.0
C952 C 0.2934 0.4043 0.52748 0.0
C953 C 0.27613 0.40142 0.51085 0.0
C954 C 0.25847 0.3996 0.52668 0.0
C955 C 0.25803 0.40069 0.55829 0.0
H956 H 0.60417 0.23303 0.56998 0.0
H957 H 0.58865 0.29399 0.56625 0.0
H958 H 0.60792 0.23259 0.51506 0.0
H959 H 0.59245 0.29347 0.51101 0.0
H960 H 0.57987 0.27516 0.41001 0.0
H961 H 0.57633 0.27772 0.46511 0.0
H962 H 0.63081 0.24731 0.47718 0.0
H963 H 0.63439 0.2447 0.42231 0.0
C964 C 0.60151 0.24634 0.55745 0.0
C965 C 0.59614 0.26356 0.57252 0.0
C966 C 0.60379 0.2461 0.52599 0.0
C967 C 0.60059 0.26302 0.50879 0.0
C968 C 0.59493 0.2802 0.52372 0.0
C969 C 0.59283 0.2805 0.55532 0.0
C970 C 0.59115 0.26914 0.42444 0.0
C971 C 0.60737 0.25964 0.41179 0.0
C972 C 0.58916 0.27069 0.45595 0.0
C973 C 0.60323 0.26259 0.47539 0.0
C974 C 0.61961 0.25346 0.46273 0.0
C975 C 0.62171 0.25207 0.43129 0.0
H976 H 0.74814 0.38601 0.91706 0.0
H977 H 0.69132 0.41256 0.90858 0.0
H978 H 0.74605 0.38848 0.97193 0.0
H979 H 0.68938 0.41526 0.96391 0.0
H980 H 0.68635 0.39411 0.06509 0.0
H981 H 0.68675 0.39408 0.0096 0.0
H982 H 0.74647 0.41383 0.01086 0.0
H983 H 0.74622 0.41359 0.06605 0.0
C984 C 0.7352 0.39243 0.92688 0.0
C985 C 0.7199 0.39912 0.90839 0.0
C986 C 0.73407 0.39397 0.95839 0.0
C987 C 0.71762 0.40221 0.97227 0.0
C988 C 0.7022 0.40876 0.95386 0.0
C989 C 0.70336 0.40728 0.9222 0.0
C990 C 0.69951 0.3986 0.0535 0.0
C991 C 0.71631 0.40367 0.07001 0.0
C992 C 0.6997 0.39866 0.02172 0.0
C993 C 0.71671 0.40375 0.00586 0.0
C994 C 0.73325 0.40948 0.02242 0.0
C995 C 0.73306 0.40944 0.05408 0.0
H996 H 0.57489 0.74235 0.07999 0.0
H997 H 0.60822 0.68898 0.08194 0.0
H998 H 0.57325 0.74055 0.02488 0.0
H999 H 0.60694 0.68744 0.02663 0.0
H1000 H 0.58801 0.68325 0.92706 0.0
H1001 H 0.58569 0.68302 0.98242 0.0
H1002 H 0.59633 0.74503 0.98404 0.0
H1003 H 0.59826 0.74536 0.92901 0.0
C1004 C 0.5818 0.73018 0.06868 0.0
C1005 C 0.59182 0.71589 0.08535 0.0
C1006 C 0.58095 0.72921 0.03706 0.0
C1007 C 0.59014 0.71397 0.02134 0.0
C1008 C 0.59957 0.69929 0.03806 0.0
C1009 C 0.60039 0.70023 0.06976 0.0
C1010 C 0.58974 0.69684 0.93926 0.0
C1011 C 0.59334 0.71431 0.92362 0.0
C1012 C 0.5885 0.69668 0.97097 0.0
C1013 C 0.59077 0.71401 0.98763 0.0
C1014 C 0.59419 0.73148 0.9719 0.0
C1015 C 0.59544 0.73163 0.94031 0.0
H1016 H 0.30797 0.58491 0.07302 0.0
H1017 H 0.24683 0.5997 0.07578 0.0
H1018 H 0.30683 0.58498 0.0176 0.0
H1019 H 0.24585 0.6004 0.02073 0.0
H1020 H 0.2444 0.58283 0.92272 0.0
H1021 H 0.2469 0.57974 0.97757 0.0
H1022 H 0.30374 0.60675 0.97517 0.0
H1023 H 0.3015 0.60921 0.92003 0.0
C1024 C 0.29432 0.58823 0.06182 0.0
C1025 C 0.27749 0.59224 0.07881 0.0
C1026 C 0.29368 0.58838 0.03006 0.0
C1027 C 0.27623 0.59263 0.01464 0.0
C1028 C 0.25945 0.59668 0.03176 0.0
C1029 C 0.26005 0.5964 0.06341 0.0
C1030 C 0.25749 0.588 0.93386 0.0
C1031 C 0.27271 0.59637 0.91703 0.0
C1032 C 0.25888 0.58634 0.96536 0.0
C1033 C 0.27544 0.59318 0.98089 0.0
C1034 C 0.29086 0.60115 0.96396 0.0
C1035 C 0.28954 0.60266 0.93235 0.0
H1036 H 0.38381 0.30677 0.92732 0.0
H1037 H 0.418 0.25412 0.92082 0.0
H1038 H 0.38583 0.3052 0.98258 0.0
H1039 H 0.42051 0.25288 0.97586 0.0
H1040 H 0.39739 0.2416 0.07108 0.0
H1041 H 0.39863 0.24539 0.01641 0.0
H1042 H 0.40672 0.30743 0.02706 0.0
H1043 H 0.40498 0.30368 0.0822 0.0
C1044 C 0.39201 0.29504 0.93766 0.0
C1045 C 0.40054 0.28044 0.9197 0.0
C1046 C 0.39325 0.29419 0.96934 0.0
C1047 C 0.40315 0.27879 0.98369 0.0
C1048 C 0.4124 0.2647 0.96559 0.0
C1049 C 0.41105 0.26547 0.93401 0.0
C1050 C 0.39954 0.25607 0.06187 0.0
C1051 C 0.40108 0.27235 0.08106 0.0
C1052 C 0.40038 0.25822 0.03043 0.0
C1053 C 0.40289 0.2767 0.01729 0.0
C1054 C 0.4046 0.29301 0.03645 0.0
C1055 C 0.4037 0.29085 0.06804 0.0
H1056 H 0.25733 0.02072 0.16281 0.0
H1057 H 0.2222 0.04851 0.23167 0.0
H1058 H 0.25569 0.99011 0.19094 0.0
H1059 H 0.22089 0.01811 0.25989 0.0
H1060 H 0.20334 0.9559 0.28293 0.0
H1061 H 0.20587 0.98619 0.25456 0.0
H1062 H 0.26689 0.97498 0.2385 0.0
H1063 H 0.2643 0.9444 0.2665 0.0
C1064 C 0.24936 0.02034 0.184 0.0
C1065 C 0.23981 0.03702 0.19491 0.0
C1066 C 0.24851 0.00283 0.20018 0.0
C1067 C 0.23808 0.00168 0.22756 0.0
C1068 C 0.22877 0.01844 0.23862 0.0
C1069 C 0.22962 0.0359 0.2225 0.0
C1070 C 0.21731 0.95987 0.27337 0.0
C1071 C 0.23362 0.94776 0.27702 0.0
C1072 C 0.21878 0.97729 0.25724 0.0
C1073 C 0.2366 0.98302 0.24439 0.0
C1074 C 0.25292 0.97087 0.24789 0.0
C1075 C 0.25145 0.95342 0.26407 0.0
H1076 H 0.9437 0.25774 0.23099 0.0
H1077 H 0.95339 0.19802 0.20396 0.0
H1078 H 0.97503 0.25793 0.25719 0.0
H1079 H 0.98481 0.19835 0.22962 0.0
H1080 H 0.02884 0.19883 0.30719 0.0
H1081 H -0.00247 0.19928 0.28118 0.0
H1082 H 0.01 0.25688 0.24688 0.0
H1083 H 0.04121 0.25661 0.2734 0.0
C1084 C 0.95256 0.2447 0.23048 0.0
C1085 C 0.94603 0.22784 0.21548 0.0
C1086 C 0.97055 0.24484 0.24537 0.0
C1087 C 0.98237 0.22813 0.24557 0.0
C1088 C 0.97591 0.21136 0.23029 0.0
C1089 C 0.95794 0.21122 0.21542 0.0
C1090 C 0.02491 0.21161 0.29415 0.0
C1091 C 0.03753 0.22767 0.29234 0.0
C1092 C 0.00701 0.21182 0.27909 0.0
C1093 C 0.00131 0.22808 0.26186 0.0
C1094 C 0.01388 0.24421 0.26022 0.0
C1095 C 0.0318 0.24401 0.2753 0.0
H1096 H 0.79034 0.03228 0.29575 0.0
H1097 H 0.72945 0.04006 0.27392 0.0
H1098 H 0.79066 0.00199 0.26702 0.0
H1099 H 0.72992 0.01005 0.24447 0.0
H1100 H 0.73301 0.94551 0.21987 0.0
H1101 H 0.7324 0.97528 0.24989 0.0
H1102 H 0.78912 0.99092 0.21519 0.0
H1103 H 0.78997 0.96088 0.18581 0.0
C1104 C 0.77703 0.02755 0.28477 0.0
C1105 C 0.75988 0.03858 0.28709 0.0
C1106 C 0.77725 0.01025 0.26812 0.0
C1107 C 0.76035 0.00364 0.25329 0.0
C1108 C 0.74314 0.01459 0.2559 0.0
C1109 C 0.74289 0.03185 0.27268 0.0
C1110 C 0.74534 0.95532 0.2186 0.0
C1111 C 0.76156 0.95082 0.20049 0.0
C1112 C 0.74495 0.97243 0.23572 0.0
C1113 C 0.76072 0.98548 0.235 0.0
C1114 C 0.77686 0.98104 0.21666 0.0
C1115 C 0.77729 0.96388 0.19964 0.0
H1116 H 0.04136 0.73076 0.21109 0.0
H1117 H 0.04067 0.79363 0.21555 0.0
H1118 H 0.00999 0.72967 0.23691 0.0
H1119 H 0.00915 0.79256 0.2406 0.0
H1120 H 0.96334 0.78337 0.31329 0.0
H1121 H 0.995 0.78348 0.28855 0.0
H1122 H 0.97596 0.73725 0.22889 0.0
H1123 H 0.94442 0.73679 0.25419 0.0
C1124 C 0.03447 0.74435 0.21742 0.0
C1125 C 0.04353 0.76228 0.21134 0.0
C1126 C 0.01644 0.74373 0.23208 0.0
C1127 C 0.00708 0.76103 0.2409 0.0
C1128 C 0.01611 0.77895 0.23458 0.0
C1129 C 0.03414 0.77957 0.22003 0.0
C1130 C 0.96591 0.77318 0.29496 0.0
C1131 C 0.95135 0.7601 0.28566 0.0
C1132 C 0.98403 0.77333 0.28065 0.0
C1133 C 0.98798 0.76045 0.25662 0.0
C1134 C 0.97347 0.74722 0.24754 0.0
C1135 C 0.95536 0.74702 0.26194 0.0
H1136 H 0.73052 0.94756 0.77191 0.0
H1137 H 0.79303 0.9535 0.76525 0.0
H1138 H 0.72642 0.9784 0.74527 0.0
H1139 H 0.78889 0.98416 0.73816 0.0
H1140 H 0.77365 0.04857 0.72443 0.0
H1141 H 0.77792 0.01718 0.74915 0.0
H1142 H 0.73109 0.99326 0.69517 0.0
H1143 H 0.72655 0.02484 0.67072 0.0
C1144 C 0.74338 0.95539 0.76464 0.0
C1145 C 0.76211 0.94812 0.77081 0.0
C1146 C 0.74102 0.973 0.7492 0.0
C1147 C 0.75733 0.98372 0.73963 0.0
C1148 C 0.77604 0.97636 0.74558 0.0
C1149 C 0.77841 0.95875 0.761 0.0
C1150 C 0.76428 0.03662 0.71775 0.0
C1151 C 0.74972 0.03922 0.69565 0.0
C1152 C 0.76681 0.01859 0.73181 0.0
C1153 C 0.75485 0.00273 0.7241 0.0
C1154 C 0.74038 0.00527 0.70184 0.0
C1155 C 0.73786 0.02333 0.68772 0.0
H1156 H 0.9505 0.74118 0.71272 0.0
H1157 H 0.9576 0.80229 0.69206 0.0
H1158 H 0.98086 0.74163 0.74135 0.0
H1159 H 0.98827 0.8026 0.7199 0.0
H1160 H 0.03081 0.80168 0.79924 0.0
H1161 H 0.00032 0.80086 0.77094 0.0
H1162 H 0.01544 0.74421 0.73528 0.0
H1163 H 0.04564 0.74479 0.76431 0.0
C1164 C 0.95864 0.75467 0.71404 0.0
C1165 C 0.95161 0.77172 0.70019 0.0
C1166 C 0.9761 0.75491 0.73035 0.0
C1167 C 0.987 0.77217 0.73301 0.0
C1168 C 0.98008 0.78915 0.71877 0.0
C1169 C 0.96256 0.78894 0.70262 0.0
C1170 C 0.0276 0.78903 0.78543 0.0
C1171 C 0.04064 0.7733 0.78403 0.0
C1172 C 0.01018 0.78861 0.76902 0.0
C1173 C 0.00545 0.7725 0.75071 0.0
C1174 C 0.01849 0.75674 0.74945 0.0
C1175 C 0.03586 0.75711 0.76599 0.0
H1176 H 0.20607 0.96963 0.69209 0.0
H1177 H 0.26254 0.94925 0.72175 0.0
H1178 H 0.21047 -0.0007 0.72175 0.0
H1179 H 0.267 0.97903 0.75107 0.0
H1180 H 0.25705 0.02475 0.82643 0.0
H1181 H 0.25334 0.99501 0.79656 0.0
H1182 H 0.23085 0.02874 0.72155 0.0
H1183 H 0.23429 0.05836 0.75137 0.0
C1184 C 0.21945 0.97151 0.70482 0.0
C1185 C 0.23394 0.95708 0.70456 0.0
C1186 C 0.22201 0.98854 0.72169 0.0
C1187 C 0.23908 0.99148 0.73874 0.0
C1188 C 0.25359 0.97707 0.73845 0.0
C1189 C 0.25107 0.96008 0.72148 0.0
C1190 C 0.25137 0.02582 0.80354 0.0
C1191 C 0.24591 0.04391 0.79133 0.0
C1192 C 0.24932 0.0088 0.78639 0.0
C1193 C 0.24172 0.00954 0.75675 0.0
C1194 C 0.23648 0.02766 0.74447 0.0
C1195 C 0.23857 0.04465 0.76153 0.0
H1196 H 0.95419 0.19447 0.77239 0.0
H1197 H 0.95955 0.25416 0.80242 0.0
H1198 H 0.98554 0.19698 0.74688 0.0
H1199 H 0.99112 0.2565 0.77757 0.0
H1200 H 0.03723 0.26016 0.70344 0.0
H1201 H 0.00538 0.25755 0.72745 0.0
H1202 H 0.01978 0.19962 0.75853 0.0
H1203 H 0.05138 0.20202 0.73389 0.0
C1204 C 0.96211 0.20809 0.77371 0.0
C1205 C 0.95438 0.22412 0.78943 0.0
C1206 C 0.98012 0.2095 0.7592 0.0
C1207 C 0.99083 0.22694 0.76018 0.0
C1208 C 0.98311 0.24295 0.77598 0.0
C1209 C 0.96507 0.24156 0.7904 0.0
C1210 C 0.03357 0.24685 0.71533 0.0
C1211 C 0.04683 0.2313 0.71677 0.0
C1212 C 0.01537 0.2454 0.72925 0.0
C1213 C 0.01005 0.22839 0.74497 0.0
C1214 C 0.0233 0.21282 0.74625 0.0
C1215 C 0.04147 0.21424 0.73226 0.0
H1216 H 0.7123 0.52602 0.70204 0.0
H1217 H 0.77009 0.54267 0.73125 0.0
H1218 H 0.71541 0.49545 0.72965 0.0
H1219 H 0.77324 0.51192 0.75861 0.0
H1220 H 0.7612 0.46431 0.83089 0.0
H1221 H 0.75902 0.49515 0.80341 0.0
H1222 H 0.73441 0.46512 0.7262 0.0
H1223 H 0.73635 0.43443 0.75359 0.0
C1224 C 0.72569 0.52314 0.71426 0.0
C1225 C 0.74096 0.53676 0.71441 0.0
C1226 C 0.72751 0.50558 0.72996 0.0
C1227 C 0.74459 0.50127 0.74623 0.0
C1228 C 0.75984 0.51492 0.7465 0.0
C1229 C 0.75806 0.53247 0.73068 0.0
C1230 C 0.75538 0.46429 0.80802 0.0
C1231 C 0.74888 0.44693 0.79448 0.0
C1232 C 0.75422 0.48193 0.79225 0.0
C1233 C 0.74646 0.48255 0.76272 0.0
C1234 C 0.7402 0.46515 0.74909 0.0
C1235 C 0.74142 0.44754 0.76476 0.0
H1236 H 0.52702 0.75565 0.83999 0.0
H1237 H 0.55543 0.72609 0.76561 0.0
H1238 H 0.49615 0.75421 0.81254 0.0
H1239 H 0.52467 0.72492 0.73809 0.0
H1240 H 0.46219 0.7063 0.71503 0.0
H1241 H 0.49312 0.70834 0.74206 0.0
H1242 H 0.48035 0.76781 0.76702 0.0
H1243 H 0.44928 0.76573 0.74036 0.0
C1244 C 0.52671 0.74894 0.81775 0.0
C1245 C 0.54367 0.74094 0.80503 0.0
C1246 C 0.50905 0.7482 0.80197 0.0
C1247 C 0.50798 0.73941 0.77319 0.0
C1248 C 0.52497 0.73155 0.7604 0.0
C1249 C 0.54262 0.73233 0.77612 0.0
C1250 C 0.46598 0.71983 0.72624 0.0
C1251 C 0.45326 0.73584 0.72556 0.0
C1252 C 0.48375 0.72102 0.7416 0.0
C1253 C 0.48917 0.73824 0.75667 0.0
C1254 C 0.47648 0.75428 0.75592 0.0
C1255 C 0.45873 0.75311 0.74049 0.0
H1256 H 0.29515 0.46689 0.69265 0.0
H1257 H 0.23508 0.45556 0.71586 0.0
H1258 H 0.29376 0.49761 0.7202 0.0
H1259 H 0.23386 0.48603 0.74409 0.0
H1260 H 0.2333 0.55082 0.76784 0.0
H1261 H 0.2342 0.52095 0.73798 0.0
H1262 H 0.29201 0.50882 0.77197 0.0
H1263 H 0.29132 0.53891 0.80116 0.0
C1264 C 0.28165 0.47095 0.70363 0.0
C1265 C 0.26524 0.45876 0.70213 0.0
C1266 C 0.28089 0.4885 0.7196 0.0
C1267 C 0.26374 0.49422 0.73453 0.0
C1268 C 0.24723 0.48217 0.73258 0.0
C1269 C 0.24796 0.46465 0.71651 0.0
C1270 C 0.2462 0.54176 0.76895 0.0
C1271 C 0.26225 0.54725 0.78684 0.0
C1272 C 0.24667 0.5246 0.75194 0.0
C1273 C 0.26319 0.51251 0.75251 0.0
C1274 C 0.27919 0.51796 0.77059 0.0
C1275 C 0.27874 0.53515 0.78751 0.0
H1276 H 0.44536 0.2395 0.76825 0.0
H1277 H 0.46436 0.29547 0.80204 0.0
H1278 H 0.47488 0.23707 0.73781 0.0
H1279 H 0.49405 0.29282 0.7722 0.0
H1280 H 0.53479 0.29185 0.69147 0.0
H1281 H 0.50444 0.29364 0.71979 0.0
H1282 H 0.50976 0.23276 0.74313 0.0
H1283 H 0.53991 0.23083 0.71417 0.0
C1284 C 0.4559 0.25122 0.76935 0.0
C1285 C 0.4525 0.2677 0.78751 0.0
C1286 C 0.47285 0.24979 0.75199 0.0
C1287 C 0.48678 0.26479 0.75248 0.0
C1288 C 0.48345 0.28117 0.7709 0.0
C1289 C 0.46649 0.28262 0.78818 0.0
C1290 C 0.52943 0.27881 0.70247 0.0
C1291 C 0.5398 0.26122 0.70066 0.0
C1292 C 0.5121 0.27987 0.71889 0.0
C1293 C 0.50476 0.26339 0.73394 0.0
C1294 C 0.51492 0.24568 0.73158 0.0
C1295 C 0.53224 0.2446 0.71507 0.0
H1296 H 0.24146 0.54246 0.22202 0.0
H1297 H 0.30132 0.53106 0.19764 0.0
H1298 H 0.23998 0.51133 0.24842 0.0
H1299 H 0.29968 0.49972 0.22343 0.0
H1300 H 0.2965 0.45585 0.30115 0.0
H1301 H 0.29766 0.48691 0.27454 0.0
H1302 H 0.2399 0.47658 0.23892 0.0
H1303 H 0.23854 0.4457 0.26612 0.0
C1304 C 0.25426 0.53325 0.2221 0.0
C1305 C 0.27153 0.53926 0.20781 0.0
C1306 C 0.25337 0.51536 0.2371 0.0
C1307 C 0.26972 0.50306 0.23809 0.0
C1308 C 0.28692 0.50899 0.2235 0.0
C1309 C 0.28782 0.5269 0.20855 0.0
C1310 C 0.28403 0.46021 0.28768 0.0
C1311 C 0.26742 0.44832 0.28576 0.0
C1312 C 0.28475 0.47796 0.27226 0.0
C1313 C 0.2689 0.4842 0.25452 0.0
C1314 C 0.25227 0.47231 0.25268 0.0
C1315 C 0.25153 0.45457 0.26816 0.0
H1316 H 0.5445 0.23754 0.26213 0.0
H1317 H 0.52454 0.28555 0.31736 0.0
H1318 H 0.51296 0.23637 0.23681 0.0
H1319 H 0.49285 0.28407 0.29253 0.0
H1320 H 0.44793 0.29108 0.21668 0.0
H1321 H 0.47897 0.29134 0.24333 0.0
H1322 H 0.47893 0.22842 0.24504 0.0
H1323 H 0.448 0.22814 0.21768 0.0
C1324 C 0.53333 0.24774 0.26906 0.0
C1325 C 0.53706 0.26171 0.29166 0.0
C1326 C 0.51521 0.24699 0.25465 0.0
C1327 C 0.5004 0.26017 0.26257 0.0
C1328 C 0.50404 0.27391 0.28556 0.0
C1329 C 0.52218 0.27469 0.29992 0.0
C1330 C 0.45451 0.27729 0.22273 0.0
C1331 C 0.4455 0.25959 0.21502 0.0
C1332 C 0.47226 0.27744 0.23821 0.0
C1333 C 0.4814 0.2599 0.24642 0.0
C1334 C 0.47237 0.24218 0.23874 0.0
C1335 C 0.45461 0.24203 0.22319 0.0
H1336 H 0.71532 0.54706 0.28255 0.0
H1337 H 0.77192 0.52707 0.31224 0.0
H1338 H 0.71049 0.5168 0.25495 0.0
H1339 H 0.76685 0.49649 0.28507 0.0
H1340 H 0.76005 0.45519 0.20347 0.0
H1341 H 0.76494 0.48485 0.23293 0.0
H1342 H 0.7051 0.48241 0.26283 0.0
H1343 H 0.70006 0.45304 0.23286 0.0
C1344 C 0.72667 0.53613 0.28344 0.0
C1345 C 0.74404 0.53951 0.29954 0.0
C1346 C 0.72385 0.51872 0.26772 0.0
C1347 C 0.73829 0.50423 0.26778 0.0
C1348 C 0.75556 0.50748 0.28425 0.0
C1349 C 0.7584 0.52494 0.29997 0.0
C1350 C 0.74793 0.461 0.2163 0.0
C1351 C 0.72964 0.4518 0.21572 0.0
C1352 C 0.75078 0.47791 0.23337 0.0
C1353 C 0.73542 0.48598 0.25026 0.0
C1354 C 0.71716 0.47672 0.24976 0.0
C1355 C 0.7143 0.45983 0.23266 0.0
H1356 H 0.44827 0.75285 0.28774 0.0
H1357 H 0.46202 0.69486 0.31933 0.0
H1358 H 0.47817 0.75331 0.25816 0.0
H1359 H 0.49219 0.69553 0.29027 0.0
H1360 H 0.53275 0.69524 0.20796 0.0
H1361 H 0.50293 0.69488 0.23782 0.0
H1362 H 0.51316 0.7546 0.26436 0.0
H1363 H 0.54274 0.75513 0.23394 0.0
C1364 C 0.45775 0.74025 0.28856 0.0
C1365 C 0.45275 0.72379 0.30584 0.0
C1366 C 0.47494 0.74056 0.27172 0.0
C1367 C 0.48756 0.72445 0.27182 0.0
C1368 C 0.48264 0.70806 0.28935 0.0
C1369 C 0.46542 0.70773 0.30616 0.0
C1370 C 0.52862 0.70831 0.22012 0.0
C1371 C 0.5401 0.72522 0.21853 0.0
C1372 C 0.5116 0.70806 0.2374 0.0
C1373 C 0.50569 0.7247 0.25353 0.0
C1374 C 0.51717 0.74162 0.2519 0.0
C1375 C 0.53417 0.74188 0.23457 0.0
H1376 H 0.18096 0.13621 0.18986 0.0
H1377 H 0.21066 0.12382 0.27427 0.0
H1378 H 0.1599 0.15926 0.21613 0.0
H1379 H 0.18936 0.14658 0.30058 0.0
H1380 H 0.16492 0.20663 0.32697 0.0
H1381 H 0.18458 0.18169 0.30248 0.0
H1382 H 0.13387 0.16127 0.25377 0.0
H1383 H 0.11423 0.18649 0.27786 0.0
C1384 C 0.18288 0.13827 0.21406 0.0
C1385 C 0.19755 0.12826 0.22994 0.0
C1386 C 0.17074 0.1514 0.22915 0.0
C1387 C 0.173 0.1548 0.26043 0.0
C1388 C 0.18743 0.1445 0.27639 0.0
C1389 C 0.19957 0.13137 0.26132 0.0
C1390 C 0.15792 0.19677 0.31116 0.0
C1391 C 0.13803 0.1986 0.30428 0.0
C1392 C 0.16918 0.18239 0.29725 0.0
C1393 C 0.16079 0.16951 0.27615 0.0
C1394 C 0.14081 0.17113 0.26964 0.0
C1395 C 0.12954 0.18551 0.28358 0.0
H1396 H 0.82359 0.19619 0.17689 0.0
H1397 H 0.86645 0.19836 0.24878 0.0
H1398 H 0.80395 0.17377 0.20708 0.0
H1399 H 0.84676 0.17595 0.27889 0.0
H1400 H 0.79235 0.15716 0.3352 0.0
H1401 H 0.81395 0.17768 0.30492 0.0
H1402 H 0.80583 0.13954 0.228 0.0
H1403 H 0.78427 0.119 0.25815 0.0
C1404 C 0.82887 0.19181 0.19904 0.0
C1405 C 0.84654 0.19909 0.21047 0.0
C1406 C 0.81767 0.1789 0.21625 0.0
C1407 C 0.82383 0.17318 0.24534 0.0
C1408 C 0.8416 0.18027 0.25664 0.0
C1409 C 0.8529 0.19301 0.23931 0.0
C1410 C 0.79527 0.15309 0.31189 0.0
C1411 C 0.78655 0.1365 0.29905 0.0
C1412 C 0.8077 0.16478 0.29462 0.0
C1413 C 0.81149 0.16022 0.2641 0.0
C1414 C 0.80299 0.14349 0.25139 0.0
C1415 C 0.79074 0.13169 0.26873 0.0
H1416 H 0.82545 0.79156 0.31491 0.0
H1417 H 0.86905 0.79079 0.24426 0.0
H1418 H 0.80547 0.81348 0.28422 0.0
H1419 H 0.84896 0.8126 0.2136 0.0
H1420 H 0.79432 0.82978 0.15601 0.0
H1421 H 0.81588 0.80956 0.187 0.0
H1422 H 0.80723 0.84815 0.26315 0.0
H1423 H 0.78579 0.86846 0.23224 0.0
C1424 C 0.83081 0.79614 0.29292 0.0
C1425 C 0.8488 0.78942 0.28199 0.0
C1426 C 0.81941 0.80874 0.27543 0.0
C1427 C 0.82567 0.81466 0.24652 0.0
C1428 C 0.84374 0.80811 0.23571 0.0
C1429 C 0.85526 0.79573 0.25335 0.0
C1430 C 0.79708 0.83399 0.17932 0.0
C1431 C 0.78833 0.85068 0.19169 0.0
C1432 C 0.80949 0.82248 0.19698 0.0
C1433 C 0.81317 0.8273 0.22746 0.0
C1434 C 0.80451 0.84404 0.23978 0.0
C1435 C 0.79233 0.85569 0.22202 0.0
H1436 H 0.19061 0.87581 0.26487 0.0
H1437 H 0.21203 0.82136 0.30109 0.0
H1438 H 0.16577 0.85819 0.23623 0.0
H1439 H 0.18743 0.80379 0.27213 0.0
H1440 H 0.12967 0.77975 0.23944 0.0
H1441 H 0.15224 0.79886 0.26996 0.0
H1442 H 0.16396 0.8358 0.19276 0.0
H1443 H 0.1411 0.81686 0.16224 0.0
C1444 C 0.19 0.8601 0.26677 0.0
C1445 C 0.20331 0.84998 0.28524 0.0
C1446 C 0.17584 0.85001 0.25023 0.0
C1447 C 0.17464 0.82961 0.25189 0.0
C1448 C 0.18781 0.81953 0.27065 0.0
C1449 C 0.20198 0.8296 0.28713 0.0
C1450 C 0.13695 0.79202 0.22897 0.0
C1451 C 0.13365 0.79672 0.19833 0.0
C1452 C 0.14998 0.8029 0.24645 0.0
C1453 C 0.15999 0.81875 0.23373 0.0
C1454 C 0.15634 0.82377 0.2033 0.0
C1455 C 0.14331 0.81285 0.18577 0.0
H1456 H 0.86809 0.79755 0.72209 0.0
H1457 H 0.83577 0.80414 0.63849 0.0
H1458 H 0.84549 0.81933 0.74756 0.0
H1459 H 0.81356 0.82658 0.66364 0.0
H1460 H 0.76424 0.8451 0.72664 0.0
H1461 H 0.78806 0.82548 0.69971 0.0
H1462 H 0.83427 0.85184 0.75237 0.0
H1463 H 0.81026 0.87094 0.78017 0.0
C1464 C 0.85632 0.8039 0.70902 0.0
C1465 C 0.85363 0.79901 0.67832 0.0
C1466 C 0.8434 0.8165 0.7236 0.0
C1467 C 0.8276 0.82466 0.70774 0.0
C1468 C 0.82532 0.82026 0.67674 0.0
C1469 C 0.83813 0.80749 0.66224 0.0
C1470 C 0.77949 0.84675 0.73242 0.0
C1471 C 0.78536 0.85951 0.75561 0.0
C1472 C 0.79319 0.83559 0.71681 0.0
C1473 C 0.81314 0.83708 0.72376 0.0
C1474 C 0.81902 0.85008 0.74671 0.0
C1475 C 0.80527 0.86111 0.76256 0.0
H1476 H 0.18763 0.88003 0.71568 0.0
H1477 H 0.21344 0.82876 0.67547 0.0
H1478 H 0.16611 0.85933 0.74585 0.0
H1479 H 0.19193 0.8082 0.70551 0.0
H1480 H 0.16969 0.77927 0.79244 0.0
H1481 H 0.1894 0.80077 0.76105 0.0
H1482 H 0.13849 0.83513 0.74001 0.0
H1483 H 0.11864 0.8136 0.77157 0.0
C1484 C 0.18859 0.86438 0.71306 0.0
C1485 C 0.20233 0.85603 0.69333 0.0
C1486 C 0.17623 0.85255 0.73026 0.0
C1487 C 0.1775 0.83217 0.72822 0.0
C1488 C 0.19085 0.82387 0.70787 0.0
C1489 C 0.20308 0.83566 0.69053 0.0
C1490 C 0.16267 0.79145 0.78126 0.0
C1491 C 0.14259 0.7947 0.78444 0.0
C1492 C 0.17395 0.80367 0.76311 0.0
C1493 C 0.16544 0.81952 0.74791 0.0
C1494 C 0.14543 0.82306 0.75157 0.0
C1495 C 0.13408 0.8107 0.76954 0.0
H1496 H 0.1309 0.21906 0.74381 0.0
H1497 H 0.15735 0.19662 0.66199 0.0
H1498 H 0.15229 0.19856 0.77432 0.0
H1499 H 0.17882 0.17618 0.69265 0.0
H1500 H 0.19818 0.12733 0.75726 0.0
H1501 H 0.17616 0.1475 0.72732 0.0
H1502 H 0.18781 0.19633 0.78642 0.0
H1503 H 0.20981 0.17614 0.81658 0.0
C1504 C 0.14127 0.20975 0.73232 0.0
C1505 C 0.14244 0.20947 0.70045 0.0
C1506 C 0.15358 0.1981 0.74983 0.0
C1507 C 0.16723 0.18581 0.73587 0.0
C1508 C 0.16831 0.1854 0.70401 0.0
C1509 C 0.15608 0.19716 0.68647 0.0
C1510 C 0.196 0.14235 0.76398 0.0
C1511 C 0.20576 0.15015 0.7893 0.0
C1512 C 0.18349 0.15392 0.74669 0.0
C1513 C 0.18033 0.17349 0.75448 0.0
C1514 C 0.18986 0.18123 0.78004 0.0
C1515 C 0.20251 0.1697 0.79722 0.0
H1516 H 0.87972 0.1828 0.78765 0.0
H1517 H 0.82944 0.22062 0.78977 0.0
H1518 H 0.86106 0.15875 0.75904 0.0
H1519 H 0.81099 0.19683 0.76061 0.0
H1520 H 0.77756 0.14186 0.73713 0.0
H1521 H 0.79669 0.16501 0.76639 0.0
H1522 H 0.8465 0.15371 0.70925 0.0
H1523 H 0.82744 0.1301 0.6803 0.0
C1524 C 0.86471 0.18601 0.78195 0.0
C1525 C 0.85604 0.2036 0.79107 0.0
C1526 C 0.85406 0.17227 0.76538 0.0
C1527 C 0.83453 0.17585 0.75756 0.0
C1528 C 0.82591 0.19348 0.76666 0.0
C1529 C 0.83653 0.20717 0.78326 0.0
C1530 C 0.7926 0.14427 0.73077 0.0
C1531 C 0.80097 0.13415 0.70632 0.0
C1532 C 0.80354 0.15764 0.74748 0.0
C1533 C 0.8231 0.16129 0.74008 0.0
C1534 C 0.83153 0.15107 0.71575 0.0
C1535 C 0.82058 0.13763 0.69905 0.0
H1536 H 0.72442 0.62945 0.74817 0.0
H1537 H 0.67536 0.62308 0.68742 0.0
H1538 H 0.70577 0.65205 0.77915 0.0
H1539 H 0.65688 0.64621 0.71788 0.0
H1540 H 0.62292 0.6761 0.79282 0.0
H1541 H 0.64106 0.651 0.76581 0.0
H1542 H 0.69386 0.68462 0.77646 0.0
H1543 H 0.67587 0.70935 0.80422 0.0
C1544 C 0.70965 0.63291 0.74138 0.0
C1545 C 0.70139 0.62453 0.71526 0.0
C1546 C 0.69899 0.64596 0.75907 0.0
C1547 C 0.67986 0.65107 0.75094 0.0
C1548 C 0.67149 0.64243 0.72505 0.0
C1549 C 0.68212 0.62925 0.70746 0.0
C1550 C 0.63844 0.67805 0.78958 0.0
C1551 C 0.64796 0.69474 0.80062 0.0
C1552 C 0.64881 0.66372 0.77392 0.0
C1553 C 0.66891 0.6658 0.76883 0.0
C1554 C 0.67845 0.68237 0.78033 0.0
C1555 C 0.66811 0.69663 0.79613 0.0
H1556 H 0.29072 0.66847 0.83593 0.0
H1557 H 0.28798 0.62841 0.76036 0.0
H1558 H 0.31352 0.68886 0.80758 0.0
H1559 H 0.31068 0.64885 0.7321 0.0
H1560 H 0.33064 0.70463 0.68066 0.0
H1561 H 0.30934 0.68291 0.70931 0.0
H1562 H 0.34808 0.68664 0.78638 0.0
H1563 H 0.36949 0.70831 0.75775 0.0
C1564 C 0.29502 0.66399 0.81334 0.0
C1565 C 0.28752 0.64686 0.80037 0.0
C1566 C 0.30814 0.6756 0.7972 0.0
C1567 C 0.31381 0.67043 0.76765 0.0
C1568 C 0.30641 0.65325 0.75475 0.0
C1569 C 0.2935 0.64152 0.77101 0.0
C1570 C 0.33467 0.70076 0.70366 0.0
C1571 C 0.35173 0.7082 0.71695 0.0
C1572 C 0.32252 0.68826 0.71999 0.0
C1573 C 0.32707 0.68314 0.75006 0.0
C1574 C 0.34417 0.69049 0.76331 0.0
C1575 C 0.35646 0.70279 0.74685 0.0
H1576 H 0.32931 0.30196 0.82422 0.0
H1577 H 0.37675 0.30357 0.75991 0.0
H1578 H 0.31069 0.32419 0.79207 0.0
H1579 H 0.35804 0.32571 0.72776 0.0
H1580 H 0.3057 0.34144 0.66367 0.0
H1581 H 0.32682 0.32208 0.69662 0.0
H1582 H 0.31229 0.35911 0.77246 0.0
H1583 H 0.29126 0.37855 0.73962 0.0
C1584 C 0.33582 0.30716 0.80337 0.0
C1585 C 0.35446 0.30096 0.79457 0.0
C1586 C 0.3252 0.31995 0.78504 0.0
C1587 C 0.33292 0.32659 0.7574 0.0
C1588 C 0.35169 0.32067 0.74884 0.0
C1589 C 0.36242 0.30809 0.76734 0.0
C1590 C 0.30713 0.34554 0.68731 0.0
C1591 C 0.29675 0.36147 0.69905 0.0
C1592 C 0.31929 0.33452 0.70611 0.0
C1593 C 0.32111 0.33908 0.73709 0.0
C1594 C 0.31101 0.3552 0.74872 0.0
C1595 C 0.29905 0.36636 0.72985 0.0
H1596 H 0.61553 0.29108 0.72958 0.0
H1597 H 0.66456 0.28332 0.66937 0.0
H1598 H 0.63481 0.31329 0.76071 0.0
H1599 H 0.68383 0.30541 0.70068 0.0
H1600 H 0.70638 0.36011 0.7476 0.0
H1601 H 0.68538 0.34017 0.71563 0.0
H1602 H 0.66349 0.31068 0.79516 0.0
H1603 H 0.68441 0.33076 0.82733 0.0
C1604 C 0.63038 0.29419 0.72287 0.0
C1605 C 0.63854 0.28539 0.69702 0.0
C1606 C 0.64144 0.30681 0.74084 0.0
C1607 C 0.66084 0.31102 0.73321 0.0
C1608 C 0.66886 0.30258 0.70698 0.0
C1609 C 0.65784 0.28986 0.68912 0.0
C1610 C 0.69702 0.34946 0.75835 0.0
C1611 C 0.69713 0.34697 0.79004 0.0
C1612 C 0.68507 0.33797 0.73998 0.0
C1613 C 0.67286 0.32381 0.75287 0.0
C1614 C 0.67263 0.3216 0.7846 0.0
C1615 C 0.68468 0.33303 0.80301 0.0
H1616 H 0.33252 0.2977 0.16053 0.0
H1617 H 0.36342 0.27862 0.24075 0.0
H1618 H 0.31213 0.31875 0.19194 0.0
H1619 H 0.34303 0.29964 0.272 0.0
H1620 H 0.28613 0.32116 0.31797 0.0
H1621 H 0.30759 0.3009 0.28708 0.0
H1622 H 0.31593 0.34873 0.22483 0.0
H1623 H 0.29451 0.36903 0.25563 0.0
C1624 C 0.33499 0.29803 0.18482 0.0
C1625 C 0.34957 0.28648 0.19814 0.0
C1626 C 0.32339 0.31015 0.20276 0.0
C1627 C 0.32599 0.31079 0.2344 0.0
C1628 C 0.34059 0.29929 0.2477 0.0
C1629 C 0.35232 0.28734 0.22976 0.0
C1630 C 0.29261 0.32738 0.29778 0.0
C1631 C 0.2886 0.34669 0.28924 0.0
C1632 C 0.30495 0.31581 0.28018 0.0
C1633 C 0.31336 0.32324 0.25353 0.0
C1634 C 0.30948 0.34258 0.2451 0.0
C1635 C 0.29731 0.35422 0.26286 0.0
H1636 H 0.63962 0.32197 0.3201 0.0
H1637 H 0.6255 0.28572 0.24292 0.0
H1638 H 0.66124 0.34137 0.28829 0.0
H1639 H 0.6468 0.30532 0.21108 0.0
H1640 H 0.70547 0.32851 0.17586 0.0
H1641 H 0.68164 0.31051 0.20562 0.0
H1642 H 0.66168 0.36427 0.24588 0.0
H1643 H 0.68577 0.38228 0.21653 0.0
C1644 C 0.64096 0.31826 0.2963 0.0
C1645 C 0.63093 0.30222 0.28411 0.0
C1646 C 0.65327 0.32944 0.27802 0.0
C1647 C 0.65581 0.32482 0.24717 0.0
C1648 C 0.6454 0.30907 0.23486 0.0
C1649 C 0.63311 0.2979 0.2531 0.0
C1650 C 0.69593 0.33652 0.19092 0.0
C1651 C 0.69758 0.35682 0.1939 0.0
C1652 C 0.68219 0.32621 0.20787 0.0
C1653 C 0.66978 0.33596 0.22818 0.0
C1654 C 0.6712 0.35631 0.23074 0.0
C1655 C 0.68493 0.36663 0.21377 0.0
H1656 H 0.68722 0.62319 0.27948 0.0
H1657 H 0.72244 0.6735 0.30123 0.0
H1658 H 0.66513 0.64381 0.25039 0.0
H1659 H 0.70017 0.69413 0.2725 0.0
H1660 H 0.66888 0.72063 0.19069 0.0
H1661 H 0.6907 0.69948 0.2193 0.0
H1662 H 0.64114 0.66989 0.25816 0.0
H1663 H 0.61926 0.69084 0.22922 0.0
C1664 C 0.6902 0.63866 0.27821 0.0
C1665 C 0.70661 0.64671 0.29263 0.0
C1666 C 0.67749 0.65048 0.26165 0.0
C1667 C 0.68095 0.67058 0.25908 0.0
C1668 C 0.69727 0.67864 0.27371 0.0
C1669 C 0.70995 0.66684 0.29035 0.0
C1670 C 0.66262 0.70956 0.20522 0.0
C1671 C 0.64233 0.70743 0.20771 0.0
C1672 C 0.67513 0.69754 0.22177 0.0
C1673 C 0.66764 0.68309 0.2411 0.0
C1674 C 0.64735 0.68078 0.24325 0.0
C1675 C 0.63483 0.69284 0.22676 0.0
H1676 H 0.31077 0.61707 0.22808 0.0
H1677 H 0.28821 0.66777 0.18172 0.0
H1678 H 0.3306 0.63811 0.26045 0.0
H1679 H 0.30814 0.68868 0.21382 0.0
H1680 H 0.32528 0.71969 0.30142 0.0
H1681 H 0.30743 0.69774 0.2681 0.0
H1682 H 0.35847 0.66145 0.25947 0.0
H1683 H 0.3764 0.68337 0.29315 0.0
C1684 C 0.31022 0.63266 0.22453 0.0
C1685 C 0.29779 0.64075 0.20248 0.0
C1686 C 0.32162 0.6447 0.24302 0.0
C1687 C 0.32074 0.66505 0.2399 0.0
C1688 C 0.30885 0.67306 0.21712 0.0
C1689 C 0.29753 0.66106 0.19859 0.0
C1690 C 0.33271 0.70699 0.29258 0.0
C1691 C 0.35229 0.70331 0.29989 0.0
C1692 C 0.32251 0.69449 0.27328 0.0
C1693 C 0.33162 0.67798 0.26092 0.0
C1694 C 0.35106 0.67403 0.26874 0.0
C1695 C 0.36133 0.68661 0.28796 0.0
loop_
_geom_bond_atom_site_label_1
_geom_bond_atom_site_label_2
_geom_bond_distance
_geom_bond_site_symmetry_2
_ccdc_geom_bond_type
C0 O1 1.160 . S
C0 O7 1.185 . S
O1 C0 1.160 . S
O2 Zn3 1.899 . S
O2 C10 1.284 . S
Zn3 O2 1.899 . S
Zn3 O4 2.032 . S
Zn3 O7 2.086 . S
Zn3 O12 1.977 . S
O4 Zn3 2.032 . S
O4 C8 1.278 . S
C5 O6 1.203 . S
C5 O12 1.267 . S
O6 C5 1.203 . S
O7 C0 1.185 . S
O7 Zn3 2.086 . S
C8 O4 1.278 . S
C8 O9 1.211 . S
O9 C8 1.211 . S
C10 O2 1.284 . S
C10 O11 1.273 . S
O11 C10 1.273 . S
O12 Zn3 1.977 . S
O12 C5 1.267 . S
C13 O14 1.160 . S
C13 O20 1.185 . S
O14 C13 1.160 . S
O15 Zn16 1.899 . S
O15 C23 1.284 . S
Zn16 O15 1.899 . S
Zn16 O17 2.032 . S
Zn16 O20 2.086 . S
Zn16 O25 1.977 . S
O17 Zn16 2.032 . S
O17 C21 1.278 . S
C18 O19 1.203 . S
C18 O25 1.267 . S
O19 C18 1.203 . S
O20 C13 1.185 . S
O20 Zn16 2.086 . S
C21 O17 1.278 . S
C21 O22 1.211 . S
O22 C21 1.211 . S
C23 O15 1.284 . S
C23 O24 1.273 . S
O24 C23 1.273 . S
O25 Zn16 1.977 . S
O25 C18 1.267 . S
C26 O27 1.160 . S
C26 O33 1.185 . S
O27 C26 1.160 . S
O28 Zn29 1.899 . S
O28 C36 1.284 . S
Zn29 O28 1.899 . S
Zn29 O30 2.032 . S
Zn29 O33 2.086 . S
Zn29 O38 1.977 . S
O30 Zn29 2.032 . S
O30 C34 1.278 . S
C31 O32 1.203 . S
C31 O38 1.267 . S
O32 C31 1.203 . S
O33 C26 1.185 . S
O33 Zn29 2.086 . S
C34 O30 1.278 . S
C34 O35 1.211 . S
O35 C34 1.211 . S
C36 O28 1.284 . S
C36 O37 1.273 . S
O37 C36 1.273 . S
O38 Zn29 1.977 . S
O38 C31 1.267 . S
C39 O40 1.160 . S
C39 O46 1.185 . S
O40 C39 1.160 . S
O41 Zn42 1.899 . S
O41 C49 1.284 . S
Zn42 O41 1.899 . S
Zn42 O43 2.032 . S
Zn42 O46 2.086 . S
Zn42 O51 1.977 . S
O43 Zn42 2.032 . S
O43 C47 1.278 . S
C44 O45 1.203 . S
C44 O51 1.267 . S
O45 C44 1.203 . S
O46 C39 1.185 . S
O46 Zn42 2.086 . S
C47 O43 1.278 . S
C47 O48 1.211 . S
O48 C47 1.211 . S
C49 O41 1.284 . S
C49 O50 1.273 . S
O50 C49 1.273 . S
O51 Zn42 1.977 . S
O51 C44 1.267 . S
C52 O53 1.160 . S
C52 O59 1.185 . S
O53 C52 1.160 . S
O54 Zn55 1.899 . S
O54 C62 1.284 . S
Zn55 O54 1.899 . S
Zn55 O56 2.032 . S
Zn55 O59 2.086 . S
Zn55 O64 1.977 . S
O56 Zn55 2.032 . S
O56 C60 1.278 . S
C57 O58 1.203 . S
C57 O64 1.267 . S
O58 C57 1.203 . S
O59 C52 1.185 . S
O59 Zn55 2.086 . S
C60 O56 1.278 . S
C60 O61 1.211 . S
O61 C60 1.211 . S
C62 O54 1.284 . S
C62 O63 1.273 . S
O63 C62 1.273 . S
O64 Zn55 1.977 . S
O64 C57 1.267 . S
C65 O66 1.160 . S
C65 O72 1.185 . S
O66 C65 1.160 . S
O67 Zn68 1.899 . S
O67 C75 1.284 . S
Zn68 O67 1.899 . S
Zn68 O69 2.032 . S
Zn68 O72 2.086 . S
Zn68 O77 1.977 . S
O69 Zn68 2.032 . S
O69 C73 1.278 . S
C70 O71 1.203 . S
C70 O77 1.267 . S
O71 C70 1.203 . S
O72 C65 1.185 . S
O72 Zn68 2.086 . S
C73 O69 1.278 . S
C73 O74 1.211 . S
O74 C73 1.211 . S
C75 O67 1.284 . S
C75 O76 1.273 . S
O76 C75 1.273 . S
O77 Zn68 1.977 . S
O77 C70 1.267 . S
C78 O79 1.160 . S
C78 O85 1.185 . S
O79 C78 1.160 . S
O80 Zn81 1.899 . S
O80 C88 1.284 . S
Zn81 O80 1.899 . S
Zn81 O82 2.032 . S
Zn81 O85 2.086 . S
Zn81 O90 1.977 . S
O82 Zn81 2.032 . S
O82 C86 1.278 . S
C83 O84 1.203 . S
C83 O90 1.267 . S
O84 C83 1.203 . S
O85 C78 1.185 . S
O85 Zn81 2.086 . S
C86 O82 1.278 . S
C86 O87 1.211 . S
O87 C86 1.211 . S
C88 O80 1.284 . S
C88 O89 1.273 . S
O89 C88 1.273 . S
O90 Zn81 1.977 . S
O90 C83 1.267 . S
C91 O92 1.160 . S
C91 O98 1.185 . S
O92 C91 1.160 . S
O93 Zn94 1.899 . S
O93 C101 1.284 . S
Zn94 O93 1.899 . S
Zn94 O95 2.032 . S
Zn94 O98 2.086 . S
Zn94 O103 1.977 . S
O95 Zn94 2.032 . S
O95 C99 1.278 . S
C96 O97 1.203 . S
C96 O103 1.267 . S
O97 C96 1.203 . S
O98 C91 1.185 . S
O98 Zn94 2.086 . S
C99 O95 1.278 . S
C99 O100 1.211 . S
O100 C99 1.211 . S
C101 O93 1.284 . S
C101 O102 1.273 . S
O102 C101 1.273 . S
O103 Zn94 1.977 . S
O103 C96 1.267 . S
C104 O105 1.160 . S
C104 O111 1.185 . S
O105 C104 1.160 . S
O106 Zn107 1.899 . S
O106 C114 1.284 . S
Zn107 O106 1.899 . S
Zn107 O108 2.032 . S
Zn107 O111 2.086 . S
Zn107 O116 1.977 . S
O108 Zn107 2.032 . S
O108 C112 1.278 . S
C109 O110 1.203 . S
C109 O116 1.267 . S
O110 C109 1.203 . S
O111 C104 1.185 . S
O111 Zn107 2.086 . S
C112 O108 1.278 . S
C112 O113 1.211 . S
O113 C112 1.211 . S
C114 O106 1.284 . S
C114 O115 1.273 . S
O115 C114 1.273 . S
O116 Zn107 1.977 . S
O116 C109 1.267 . S
C117 O118 1.160 . S
C117 O124 1.185 . S
O118 C117 1.160 . S
O119 Zn120 1.899 . S
O119 C127 1.284 . S
Zn120 O119 1.899 . S
Zn120 O121 2.032 . S
Zn120 O124 2.086 . S
Zn120 O129 1.977 . S
O121 Zn120 2.032 . S
O121 C125 1.278 . S
C122 O123 1.203 . S
C122 O129 1.267 . S
O123 C122 1.203 . S
O124 C117 1.185 . S
O124 Zn120 2.086 . S
C125 O121 1.278 . S
C125 O126 1.211 . S
O126 C125 1.211 . S
C127 O119 1.284 . S
C127 O128 1.273 . S
O128 C127 1.273 . S
O129 Zn120 1.977 . S
O129 C122 1.267 . S
C130 O131 1.160 . S
C130 O137 1.185 . S
O131 C130 1.160 . S
O132 Zn133 1.899 . S
O132 C140 1.284 . S
Zn133 O132 1.899 . S
Zn133 O134 2.032 . S
Zn133 O137 2.086 . S
Zn133 O142 1.977 . S
O134 Zn133 2.032 . S
O134 C138 1.278 . S
C135 O136 1.203 . S
C135 O142 1.267 . S
O136 C135 1.203 . S
O137 C130 1.185 . S
O137 Zn133 2.086 . S
C138 O134 1.278 . S
C138 O139 1.211 . S
O139 C138 1.211 . S
C140 O132 1.284 . S
C140 O141 1.273 . S
O141 C140 1.273 . S
O142 Zn133 1.977 . S
O142 C135 1.267 . S
C143 O144 1.160 . S
C143 O150 1.185 . S
O144 C143 1.160 . S
O145 Zn146 1.899 . S
O145 C153 1.284 . S
Zn146 O145 1.899 . S
Zn146 O147 2.032 . S
Zn146 O150 2.086 . S
Zn146 O155 1.977 . S
O147 Zn146 2.032 . S
O147 C151 1.278 . S
C148 O149 1.203 . S
C148 O155 1.267 . S
O149 C148 1.203 . S
O150 C143 1.185 . S
O150 Zn146 2.086 . S
C151 O147 1.278 . S
C151 O152 1.211 . S
O152 C151 1.211 . S
C153 O145 1.284 . S
C153 O154 1.273 . S
O154 C153 1.273 . S
O155 Zn146 1.977 . S
O155 C148 1.267 . S
C156 O157 1.160 . S
C156 O163 1.185 . S
O157 C156 1.160 . S
O158 Zn159 1.899 . S
O158 C166 1.284 . S
Zn159 O158 1.899 . S
Zn159 O160 2.032 . S
Zn159 O163 2.086 . S
Zn159 O168 1.977 . S
O160 Zn159 2.032 . S
O160 C164 1.278 . S
C161 O162 1.203 . S
C161 O168 1.267 . S
O162 C161 1.203 . S
O163 C156 1.185 . S
O163 Zn159 2.086 . S
C164 O160 1.278 . S
C164 O165 1.211 . S
O165 C164 1.211 . S
C166 O158 1.284 . S
C166 O167 1.273 . S
O167 C166 1.273 . S
O168 Zn159 1.977 . S
O168 C161 1.267 . S
C169 O170 1.160 . S
C169 O176 1.185 . S
O170 C169 1.160 . S
O171 Zn172 1.899 . S
O171 C179 1.284 . S
Zn172 O171 1.899 . S
Zn172 O173 2.032 . S
Zn172 O176 2.086 . S
Zn172 O181 1.977 . S
O173 Zn172 2.032 . S
O173 C177 1.278 . S
C174 O175 1.203 . S
C174 O181 1.267 . S
O175 C174 1.203 . S
O176 C169 1.185 . S
O176 Zn172 2.086 . S
C177 O173 1.278 . S
C177 O178 1.211 . S
O178 C177 1.211 . S
C179 O171 1.284 . S
C179 O180 1.273 . S
O180 C179 1.273 . S
O181 Zn172 1.977 . S
O181 C174 1.267 . S
C182 O183 1.160 . S
C182 O189 1.185 . S
O183 C182 1.160 . S
O184 Zn185 1.899 . S
O184 C192 1.284 . S
Zn185 O184 1.899 . S
Zn185 O186 2.032 . S
Zn185 O189 2.086 . S
Zn185 O194 1.977 . S
O186 Zn185 2.032 . S
O186 C190 1.278 . S
C187 O188 1.203 . S
C187 O194 1.267 . S
O188 C187 1.203 . S
O189 C182 1.185 . S
O189 Zn185 2.086 . S
C190 O186 1.278 . S
C190 O191 1.211 . S
O191 C190 1.211 . S
C192 O184 1.284 . S
C192 O193 1.273 . S
O193 C192 1.273 . S
O194 Zn185 1.977 . S
O194 C187 1.267 . S
C195 O196 1.160 . S
C195 O202 1.185 . S
O196 C195 1.160 . S
O197 Zn198 1.899 . S
O197 C205 1.284 . S
Zn198 O197 1.899 . S
Zn198 O199 2.032 . S
Zn198 O202 2.086 . S
Zn198 O207 1.977 . S
O199 Zn198 2.032 . S
O199 C203 1.278 . S
C200 O201 1.203 . S
C200 O207 1.267 . S
O201 C200 1.203 . S
O202 C195 1.185 . S
O202 Zn198 2.086 . S
C203 O199 1.278 . S
C203 O204 1.211 . S
O204 C203 1.211 . S
C205 O197 1.284 . S
C205 O206 1.273 . S
O206 C205 1.273 . S
O207 Zn198 1.977 . S
O207 C200 1.267 . S
C208 O209 1.160 . S
C208 O215 1.185 . S
O209 C208 1.160 . S
O210 Zn211 1.899 . S
O210 C218 1.284 . S
Zn211 O210 1.899 . S
Zn211 O212 2.032 . S
Zn211 O215 2.086 . S
Zn211 O220 1.977 . S
O212 Zn211 2.032 . S
O212 C216 1.278 . S
C213 O214 1.203 . S
C213 O220 1.267 . S
O214 C213 1.203 . S
O215 C208 1.185 . S
O215 Zn211 2.086 . S
C216 O212 1.278 . S
C216 O217 1.211 . S
O217 C216 1.211 . S
C218 O210 1.284 . S
C218 O219 1.273 . S
O219 C218 1.273 . S
O220 Zn211 1.977 . S
O220 C213 1.267 . S
C221 O222 1.160 . S
C221 O228 1.185 . S
O222 C221 1.160 . S
O223 Zn224 1.899 . S
O223 C231 1.284 . S
Zn224 O223 1.899 . S
Zn224 O225 2.032 . S
Zn224 O228 2.086 . S
Zn224 O233 1.977 . S
O225 Zn224 2.032 . S
O225 C229 1.278 . S
C226 O227 1.203 . S
C226 O233 1.267 . S
O227 C226 1.203 . S
O228 C221 1.185 . S
O228 Zn224 2.086 . S
C229 O225 1.278 . S
C229 O230 1.211 . S
O230 C229 1.211 . S
C231 O223 1.284 . S
C231 O232 1.273 . S
O232 C231 1.273 . S
O233 Zn224 1.977 . S
O233 C226 1.267 . S
C234 O235 1.160 . S
C234 O241 1.185 . S
O235 C234 1.160 . S
O236 Zn237 1.899 . S
O236 C244 1.284 . S
Zn237 O236 1.899 . S
Zn237 O238 2.032 . S
Zn237 O241 2.086 . S
Zn237 O246 1.977 . S
O238 Zn237 2.032 . S
O238 C242 1.278 . S
C239 O240 1.203 . S
C239 O246 1.267 . S
O240 C239 1.203 . S
O241 C234 1.185 . S
O241 Zn237 2.086 . S
C242 O238 1.278 . S
C242 O243 1.211 . S
O243 C242 1.211 . S
C244 O236 1.284 . S
C244 O245 1.273 . S
O245 C244 1.273 . S
O246 Zn237 1.977 . S
O246 C239 1.267 . S
C247 O248 1.160 . S
C247 O254 1.185 . S
O248 C247 1.160 . S
O249 Zn250 1.899 . S
O249 C257 1.284 . S
Zn250 O249 1.899 . S
Zn250 O251 2.032 . S
Zn250 O254 2.086 . S
Zn250 O259 1.977 . S
O251 Zn250 2.032 . S
O251 C255 1.278 . S
C252 O253 1.203 . S
C252 O259 1.267 . S
O253 C252 1.203 . S
O254 C247 1.185 . S
O254 Zn250 2.086 . S
C255 O251 1.278 . S
C255 O256 1.211 . S
O256 C255 1.211 . S
C257 O249 1.284 . S
C257 O258 1.273 . S
O258 C257 1.273 . S
O259 Zn250 1.977 . S
O259 C252 1.267 . S
C260 O261 1.160 . S
C260 O267 1.185 . S
O261 C260 1.160 . S
O262 Zn263 1.899 . S
O262 C270 1.284 . S
Zn263 O262 1.899 . S
Zn263 O264 2.032 . S
Zn263 O267 2.086 . S
Zn263 O272 1.977 . S
O264 Zn263 2.032 . S
O264 C268 1.278 . S
C265 O266 1.203 . S
C265 O272 1.267 . S
O266 C265 1.203 . S
O267 C260 1.185 . S
O267 Zn263 2.086 . S
C268 O264 1.278 . S
C268 O269 1.211 . S
O269 C268 1.211 . S
C270 O262 1.284 . S
C270 O271 1.273 . S
O271 C270 1.273 . S
O272 Zn263 1.977 . S
O272 C265 1.267 . S
C273 O274 1.160 . S
C273 O280 1.185 . S
O274 C273 1.160 . S
O275 Zn276 1.899 . S
O275 C283 1.284 . S
Zn276 O275 1.899 . S
Zn276 O277 2.032 . S
Zn276 O280 2.086 . S
Zn276 O285 1.977 . S
O277 Zn276 2.032 . S
O277 C281 1.278 . S
C278 O279 1.203 . S
C278 O285 1.267 . S
O279 C278 1.203 . S
O280 C273 1.185 . S
O280 Zn276 2.086 . S
C281 O277 1.278 . S
C281 O282 1.211 . S
O282 C281 1.211 . S
C283 O275 1.284 . S
C283 O284 1.273 . S
O284 C283 1.273 . S
O285 Zn276 1.977 . S
O285 C278 1.267 . S
C286 O287 1.160 . S
C286 O293 1.185 . S
O287 C286 1.160 . S
O288 Zn289 1.899 . S
O288 C296 1.284 . S
Zn289 O288 1.899 . S
Zn289 O290 2.032 . S
Zn289 O293 2.086 . S
Zn289 O298 1.977 . S
O290 Zn289 2.032 . S
O290 C294 1.278 . S
C291 O292 1.203 . S
C291 O298 1.267 . S
O292 C291 1.203 . S
O293 C286 1.185 . S
O293 Zn289 2.086 . S
C294 O290 1.278 . S
C294 O295 1.211 . S
O295 C294 1.211 . S
C296 O288 1.284 . S
C296 O297 1.273 . S
O297 C296 1.273 . S
O298 Zn289 1.977 . S
O298 C291 1.267 . S
C299 O300 1.160 . S
C299 O306 1.185 . S
O300 C299 1.160 . S
O301 Zn302 1.899 . S
O301 C309 1.284 . S
Zn302 O301 1.899 . S
Zn302 O303 2.032 . S
Zn302 O306 2.086 . S
Zn302 O311 1.977 . S
O303 Zn302 2.032 . S
O303 C307 1.278 . S
C304 O305 1.203 . S
C304 O311 1.267 . S
O305 C304 1.203 . S
O306 C299 1.185 . S
O306 Zn302 2.086 . S
C307 O303 1.278 . S
C307 O308 1.211 . S
O308 C307 1.211 . S
C309 O301 1.284 . S
C309 O310 1.273 . S
O310 C309 1.273 . S
O311 Zn302 1.977 . S
O311 C304 1.267 . S
C312 O313 1.160 . S
C312 O319 1.185 . S
O313 C312 1.160 . S
O314 Zn315 1.899 . S
O314 C322 1.284 . S
Zn315 O314 1.899 . S
Zn315 O316 2.032 . S
Zn315 O319 2.086 . S
Zn315 O324 1.977 . S
O316 Zn315 2.032 . S
O316 C320 1.278 . S
C317 O318 1.203 . S
C317 O324 1.267 . S
O318 C317 1.203 . S
O319 C312 1.185 . S
O319 Zn315 2.086 . S
C320 O316 1.278 . S
C320 O321 1.211 . S
O321 C320 1.211 . S
C322 O314 1.284 . S
C322 O323 1.273 . S
O323 C322 1.273 . S
O324 Zn315 1.977 . S
O324 C317 1.267 . S
C325 O326 1.160 . S
C325 O332 1.185 . S
O326 C325 1.160 . S
O327 Zn328 1.899 . S
O327 C335 1.284 . S
Zn328 O327 1.899 . S
Zn328 O329 2.032 . S
Zn328 O332 2.086 . S
Zn328 O337 1.977 . S
O329 Zn328 2.032 . S
O329 C333 1.278 . S
C330 O331 1.203 . S
C330 O337 1.267 . S
O331 C330 1.203 . S
O332 C325 1.185 . S
O332 Zn328 2.086 . S
C333 O329 1.278 . S
C333 O334 1.211 . S
O334 C333 1.211 . S
C335 O327 1.284 . S
C335 O336 1.273 . S
O336 C335 1.273 . S
O337 Zn328 1.977 . S
O337 C330 1.267 . S
C338 O339 1.160 . S
C338 O345 1.185 . S
O339 C338 1.160 . S
O340 Zn341 1.899 . S
O340 C348 1.284 . S
Zn341 O340 1.899 . S
Zn341 O342 2.032 . S
Zn341 O345 2.086 . S
Zn341 O350 1.977 . S
O342 Zn341 2.032 . S
O342 C346 1.278 . S
C343 O344 1.203 . S
C343 O350 1.267 . S
O344 C343 1.203 . S
O345 C338 1.185 . S
O345 Zn341 2.086 . S
C346 O342 1.278 . S
C346 O347 1.211 . S
O347 C346 1.211 . S
C348 O340 1.284 . S
C348 O349 1.273 . S
O349 C348 1.273 . S
O350 Zn341 1.977 . S
O350 C343 1.267 . S
C351 O352 1.160 . S
C351 O358 1.185 . S
O352 C351 1.160 . S
O353 Zn354 1.899 . S
O353 C361 1.284 . S
Zn354 O353 1.899 . S
Zn354 O355 2.032 . S
Zn354 O358 2.086 . S
Zn354 O363 1.977 . S
O355 Zn354 2.032 . S
O355 C359 1.278 . S
C356 O357 1.203 . S
C356 O363 1.267 . S
O357 C356 1.203 . S
O358 C351 1.185 . S
O358 Zn354 2.086 . S
C359 O355 1.278 . S
C359 O360 1.211 . S
O360 C359 1.211 . S
C361 O353 1.284 . S
C361 O362 1.273 . S
O362 C361 1.273 . S
O363 Zn354 1.977 . S
O363 C356 1.267 . S
C364 O365 1.160 . S
C364 O371 1.185 . S
O365 C364 1.160 . S
O366 Zn367 1.899 . S
O366 C374 1.284 . S
Zn367 O366 1.899 . S
Zn367 O368 2.032 . S
Zn367 O371 2.086 . S
Zn367 O376 1.977 . S
O368 Zn367 2.032 . S
O368 C372 1.278 . S
C369 O370 1.203 . S
C369 O376 1.267 . S
O370 C369 1.203 . S
O371 C364 1.185 . S
O371 Zn367 2.086 . S
C372 O368 1.278 . S
C372 O373 1.211 . S
O373 C372 1.211 . S
C374 O366 1.284 . S
C374 O375 1.273 . S
O375 C374 1.273 . S
O376 Zn367 1.977 . S
O376 C369 1.267 . S
C377 O378 1.160 . S
C377 O384 1.185 . S
O378 C377 1.160 . S
O379 Zn380 1.899 . S
O379 C387 1.284 . S
Zn380 O379 1.899 . S
Zn380 O381 2.032 . S
Zn380 O384 2.086 . S
Zn380 O389 1.977 . S
O381 Zn380 2.032 . S
O381 C385 1.278 . S
C382 O383 1.203 . S
C382 O389 1.267 . S
O383 C382 1.203 . S
O384 C377 1.185 . S
O384 Zn380 2.086 . S
C385 O381 1.278 . S
C385 O386 1.211 . S
O386 C385 1.211 . S
C387 O379 1.284 . S
C387 O388 1.273 . S
O388 C387 1.273 . S
O389 Zn380 1.977 . S
O389 C382 1.267 . S
C390 O391 1.160 . S
C390 O397 1.185 . S
O391 C390 1.160 . S
O392 Zn393 1.899 . S
O392 C400 1.284 . S
Zn393 O392 1.899 . S
Zn393 O394 2.032 . S
Zn393 O397 2.086 . S
Zn393 O402 1.977 . S
O394 Zn393 2.032 . S
O394 C398 1.278 . S
C395 O396 1.203 . S
C395 O402 1.267 . S
O396 C395 1.203 . S
O397 C390 1.185 . S
O397 Zn393 2.086 . S
C398 O394 1.278 . S
C398 O399 1.211 . S
O399 C398 1.211 . S
C400 O392 1.284 . S
C400 O401 1.273 . S
O401 C400 1.273 . S
O402 Zn393 1.977 . S
O402 C395 1.267 . S
C403 O404 1.160 . S
C403 O410 1.185 . S
O404 C403 1.160 . S
O405 Zn406 1.899 . S
O405 C413 1.284 . S
Zn406 O405 1.899 . S
Zn406 O407 2.032 . S
Zn406 O410 2.086 . S
Zn406 O415 1.977 . S
O407 Zn406 2.032 . S
O407 C411 1.278 . S
C408 O409 1.203 . S
C408 O415 1.267 . S
O409 C408 1.203 . S
O410 C403 1.185 . S
O410 Zn406 2.086 . S
C411 O407 1.278 . S
C411 O412 1.211 . S
O412 C411 1.211 . S
C413 O405 1.284 . S
C413 O414 1.273 . S
O414 C413 1.273 . S
O415 Zn406 1.977 . S
O415 C408 1.267 . S
H416 C424 0.950 . S
H417 C429 0.950 . S
H418 C426 0.950 . S
H419 C428 0.950 . S
H420 C430 0.950 . S
H421 C432 0.950 . S
H422 C434 0.950 . S
H423 C435 0.950 . S
C424 H416 0.950 . S
C424 C425 1.386 . S
C424 C426 1.391 . S
C425 C424 1.386 . S
C425 C429 1.393 . S
C426 H418 0.950 . S
C426 C424 1.391 . S
C426 C427 1.400 . S
C427 C426 1.400 . S
C427 C428 1.398 . S
C427 C433 1.491 . S
C428 H419 0.950 . S
C428 C427 1.398 . S
C428 C429 1.391 . S
C429 H417 0.950 . S
C429 C425 1.393 . S
C429 C428 1.391 . S
C430 H420 0.950 . S
C430 C431 1.386 . S
C430 C432 1.391 . S
C431 C430 1.386 . S
C431 C435 1.393 . S
C432 H421 0.950 . S
C432 C430 1.391 . S
C432 C433 1.400 . S
C433 C427 1.491 . S
C433 C432 1.400 . S
C433 C434 1.398 . S
C434 H422 0.950 . S
C434 C433 1.398 . S
C434 C435 1.391 . S
C435 H423 0.950 . S
C435 C431 1.393 . S
C435 C434 1.391 . S
H436 C444 0.950 . S
H437 C449 0.950 . S
H438 C446 0.950 . S
H439 C448 0.950 . S
H440 C450 0.950 . S
H441 C452 0.950 . S
H442 C454 0.950 . S
H443 C455 0.950 . S
C444 H436 0.950 . S
C444 C445 1.386 . S
C444 C446 1.391 . S
C445 C444 1.386 . S
C445 C449 1.393 . S
C446 H438 0.950 . S
C446 C444 1.391 . S
C446 C447 1.400 . S
C447 C446 1.400 . S
C447 C448 1.398 . S
C447 C453 1.491 . S
C448 H439 0.950 . S
C448 C447 1.398 . S
C448 C449 1.391 . S
C449 H437 0.950 . S
C449 C445 1.393 . S
C449 C448 1.391 . S
C450 H440 0.950 . S
C450 C451 1.386 . S
C450 C452 1.391 . S
C451 C450 1.386 . S
C451 C455 1.393 . S
C452 H441 0.950 . S
C452 C450 1.391 . S
C452 C453 1.400 . S
C453 C447 1.491 . S
C453 C452 1.400 . S
C453 C454 1.398 . S
C454 H442 0.950 . S
C454 C453 1.398 . S
C454 C455 1.391 . S
C455 H443 0.950 . S
C455 C451 1.393 . S
C455 C454 1.391 . S
H456 C464 0.950 . S
H457 C469 0.950 . S
H458 C466 0.950 . S
H459 C468 0.950 . S
H460 C470 0.950 . S
H461 C472 0.950 . S
H462 C474 0.950 . S
H463 C475 0.950 . S
C464 H456 0.950 . S
C464 C465 1.386 . S
C464 C466 1.391 . S
C465 C464 1.386 . S
C465 C469 1.393 . S
C466 H458 0.950 . S
C466 C464 1.391 . S
C466 C467 1.400 . S
C467 C466 1.400 . S
C467 C468 1.398 . S
C467 C473 1.491 . S
C468 H459 0.950 . S
C468 C467 1.398 . S
C468 C469 1.391 . S
C469 H457 0.950 . S
C469 C465 1.393 . S
C469 C468 1.391 . S
C470 H460 0.950 . S
C470 C471 1.386 . S
C470 C472 1.391 . S
C471 C470 1.386 . S
C471 C475 1.393 . S
C472 H461 0.950 . S
C472 C470 1.391 . S
C472 C473 1.400 . S
C473 C467 1.491 . S
C473 C472 1.400 . S
C473 C474 1.398 . S
C474 H462 0.950 . S
C474 C473 1.398 . S
C474 C475 1.391 . S
C475 H463 0.950 . S
C475 C471 1.393 . S
C475 C474 1.391 . S
H476 C484 0.950 . S
H477 C489 0.950 . S
H478 C486 0.950 . S
H479 C488 0.950 . S
H480 C490 0.950 . S
H481 C492 0.950 . S
H482 C494 0.950 . S
H483 C495 0.950 . S
C484 H476 0.950 . S
C484 C485 1.386 . S
C484 C486 1.391 . S
C485 C484 1.386 . S
C485 C489 1.393 . S
C486 H478 0.950 . S
C486 C484 1.391 . S
C486 C487 1.400 . S
C487 C486 1.400 . S
C487 C488 1.398 . S
C487 C493 1.491 . S
C488 H479 0.950 . S
C488 C487 1.398 . S
C488 C489 1.391 . S
C489 H477 0.950 . S
C489 C485 1.393 . S
C489 C488 1.391 . S
C490 H480 0.950 . S
C490 C491 1.386 . S
C490 C492 1.391 . S
C491 C490 1.386 . S
C491 C495 1.393 . S
C492 H481 0.950 . S
C492 C490 1.391 . S
C492 C493 1.400 . S
C493 C487 1.491 . S
C493 C492 1.400 . S
C493 C494 1.398 . S
C494 H482 0.950 . S
C494 C493 1.398 . S
C494 C495 1.391 . S
C495 H483 0.950 . S
C495 C491 1.393 . S
C495 C494 1.391 . S
H496 C504 0.950 . S
H497 C509 0.950 . S
H498 C506 0.950 . S
H499 C508 0.950 . S
H500 C510 0.950 . S
H501 C512 0.950 . S
H502 C514 0.950 . S
H503 C515 0.950 . S
C504 H496 0.950 . S
C504 C505 1.386 . S
C504 C506 1.391 . S
C505 C504 1.386 . S
C505 C509 1.393 . S
C506 H498 0.950 . S
C506 C504 1.391 . S
C506 C507 1.400 . S
C507 C506 1.400 . S
C507 C508 1.398 . S
C507 C513 1.491 . S
C508 H499 0.950 . S
C508 C507 1.398 . S
C508 C509 1.391 . S
C509 H497 0.950 . S
C509 C505 1.393 . S
C509 C508 1.391 . S
C510 H500 0.950 . S
C510 C511 1.386 . S
C510 C512 1.391 . S
C511 C510 1.386 . S
C511 C515 1.393 . S
C512 H501 0.950 . S
C512 C510 1.391 . S
C512 C513 1.400 . S
C513 C507 1.491 . S
C513 C512 1.400 . S
C513 C514 1.398 . S
C514 H502 0.950 . S
C514 C513 1.398 . S
C514 C515 1.391 . S
C515 H503 0.950 . S
C515 C511 1.393 . S
C515 C514 1.391 . S
H516 C524 0.950 . S
H517 C529 0.950 . S
H518 C526 0.950 . S
H519 C528 0.950 . S
H520 C530 0.950 . S
H521 C532 0.950 . S
H522 C534 0.950 . S
H523 C535 0.950 . S
C524 H516 0.950 . S
C524 C525 1.386 . S
C524 C526 1.391 . S
C525 C524 1.386 . S
C525 C529 1.393 . S
C526 H518 0.950 . S
C526 C524 1.391 . S
C526 C527 1.400 . S
C527 C526 1.400 . S
C527 C528 1.398 . S
C527 C533 1.491 . S
C528 H519 0.950 . S
C528 C527 1.398 . S
C528 C529 1.391 . S
C529 H517 0.950 . S
C529 C525 1.393 . S
C529 C528 1.391 . S
C530 H520 0.950 . S
C530 C531 1.386 . S
C530 C532 1.391 . S
C531 C530 1.386 . S
C531 C535 1.393 . S
C532 H521 0.950 . S
C532 C530 1.391 . S
C532 C533 1.400 . S
C533 C527 1.491 . S
C533 C532 1.400 . S
C533 C534 1.398 . S
C534 H522 0.950 . S
C534 C533 1.398 . S
C534 C535 1.391 . S
C535 H523 0.950 . S
C535 C531 1.393 . S
C535 C534 1.391 . S
H536 C544 0.950 . S
H537 C549 0.950 . S
H538 C546 0.950 . S
H539 C548 0.950 . S
H540 C550 0.950 . S
H541 C552 0.950 . S
H542 C554 0.950 . S
H543 C555 0.950 . S
C544 H536 0.950 . S
C544 C545 1.386 . S
C544 C546 1.391 . S
C545 C544 1.386 . S
C545 C549 1.393 . S
C546 H538 0.950 . S
C546 C544 1.391 . S
C546 C547 1.400 . S
C547 C546 1.400 . S
C547 C548 1.398 . S
C547 C553 1.491 . S
C548 H539 0.950 . S
C548 C547 1.398 . S
C548 C549 1.391 . S
C549 H537 0.950 . S
C549 C545 1.393 . S
C549 C548 1.391 . S
C550 H540 0.950 . S
C550 C551 1.386 . S
C550 C552 1.391 . S
C551 C550 1.386 . S
C551 C555 1.393 . S
C552 H541 0.950 . S
C552 C550 1.391 . S
C552 C553 1.400 . S
C553 C547 1.491 . S
C553 C552 1.400 . S
C553 C554 1.398 . S
C554 H542 0.950 . S
C554 C553 1.398 . S
C554 C555 1.391 . S
C555 H543 0.950 . S
C555 C551 1.393 . S
C555 C554 1.391 . S
H556 C564 0.950 . S
H557 C569 0.950 . S
H558 C566 0.950 . S
H559 C568 0.950 . S
H560 C570 0.950 . S
H561 C572 0.950 . S
H562 C574 0.950 . S
H563 C575 0.950 . S
C564 H556 0.950 . S
C564 C565 1.386 . S
C564 C566 1.391 . S
C565 C564 1.386 . S
C565 C569 1.393 . S
C566 H558 0.950 . S
C566 C564 1.391 . S
C566 C567 1.400 . S
C567 C566 1.400 . S
C567 C568 1.398 . S
C567 C573 1.491 . S
C568 H559 0.950 . S
C568 C567 1.398 . S
C568 C569 1.391 . S
C569 H557 0.950 . S
C569 C565 1.393 . S
C569 C568 1.391 . S
C570 H560 0.950 . S
C570 C571 1.386 . S
C570 C572 1.391 . S
C571 C570 1.386 . S
C571 C575 1.393 . S
C572 H561 0.950 . S
C572 C570 1.391 . S
C572 C573 1.400 . S
C573 C567 1.491 . S
C573 C572 1.400 . S
C573 C574 1.398 . S
C574 H562 0.950 . S
C574 C573 1.398 . S
C574 C575 1.391 . S
C575 H563 0.950 . S
C575 C571 1.393 . S
C575 C574 1.391 . S
H576 C584 0.950 . S
H577 C589 0.950 . S
H578 C586 0.950 . S
H579 C588 0.950 . S
H580 C590 0.950 . S
H581 C592 0.950 . S
H582 C594 0.950 . S
H583 C595 0.950 . S
C584 H576 0.950 . S
C584 C585 1.386 . S
C584 C586 1.391 . S
C585 C584 1.386 . S
C585 C589 1.393 . S
C586 H578 0.950 . S
C586 C584 1.391 . S
C586 C587 1.400 . S
C587 C586 1.400 . S
C587 C588 1.398 . S
C587 C593 1.491 . S
C588 H579 0.950 . S
C588 C587 1.398 . S
C588 C589 1.391 . S
C589 H577 0.950 . S
C589 C585 1.393 . S
C589 C588 1.391 . S
C590 H580 0.950 . S
C590 C591 1.386 . S
C590 C592 1.391 . S
C591 C590 1.386 . S
C591 C595 1.393 . S
C592 H581 0.950 . S
C592 C590 1.391 . S
C592 C593 1.400 . S
C593 C587 1.491 . S
C593 C592 1.400 . S
C593 C594 1.398 . S
C594 H582 0.950 . S
C594 C593 1.398 . S
C594 C595 1.391 . S
C595 H583 0.950 . S
C595 C591 1.393 . S
C595 C594 1.391 . S
H596 C604 0.950 . S
H597 C609 0.950 . S
H598 C606 0.950 . S
H599 C608 0.950 . S
H600 C610 0.950 . S
H601 C612 0.950 . S
H602 C614 0.950 . S
H603 C615 0.950 . S
C604 H596 0.950 . S
C604 C605 1.386 . S
C604 C606 1.391 . S
C605 C604 1.386 . S
C605 C609 1.393 . S
C606 H598 0.950 . S
C606 C604 1.391 . S
C606 C607 1.400 . S
C607 C606 1.400 . S
C607 C608 1.398 . S
C607 C613 1.491 . S
C608 H599 0.950 . S
C608 C607 1.398 . S
C608 C609 1.391 . S
C609 H597 0.950 . S
C609 C605 1.393 . S
C609 C608 1.391 . S
C610 H600 0.950 . S
C610 C611 1.386 . S
C610 C612 1.391 . S
C611 C610 1.386 . S
C611 C615 1.393 . S
C612 H601 0.950 . S
C612 C610 1.391 . S
C612 C613 1.400 . S
C613 C607 1.491 . S
C613 C612 1.400 . S
C613 C614 1.398 . S
C614 H602 0.950 . S
C614 C613 1.398 . S
C614 C615 1.391 . S
C615 H603 0.950 . S
C615 C611 1.393 . S
C615 C614 1.391 . S
H616 C624 0.950 . S
H617 C629 0.950 . S
H618 C626 0.950 . S
H619 C628 0.950 . S
H620 C630 0.950 . S
H621 C632 0.950 . S
H622 C634 0.950 . S
H623 C635 0.950 . S
C624 H616 0.950 . S
C624 C625 1.386 . S
C624 C626 1.391 . S
C625 C624 1.386 . S
C625 C629 1.393 . S
C626 H618 0.950 . S
C626 C624 1.391 . S
C626 C627 1.400 . S
C627 C626 1.400 . S
C627 C628 1.398 . S
C627 C633 1.491 . S
C628 H619 0.950 . S
C628 C627 1.398 . S
C628 C629 1.391 . S
C629 H617 0.950 . S
C629 C625 1.393 . S
C629 C628 1.391 . S
C630 H620 0.950 . S
C630 C631 1.386 . S
C630 C632 1.391 . S
C631 C630 1.386 . S
C631 C635 1.393 . S
C632 H621 0.950 . S
C632 C630 1.391 . S
C632 C633 1.400 . S
C633 C627 1.491 . S
C633 C632 1.400 . S
C633 C634 1.398 . S
C634 H622 0.950 . S
C634 C633 1.398 . S
C634 C635 1.391 . S
C635 H623 0.950 . S
C635 C631 1.393 . S
C635 C634 1.391 . S
H636 C644 0.950 . S
H637 C649 0.950 . S
H638 C646 0.950 . S
H639 C648 0.950 . S
H640 C650 0.950 . S
H641 C652 0.950 . S
H642 C654 0.950 . S
H643 C655 0.950 . S
C644 H636 0.950 . S
C644 C645 1.386 . S
C644 C646 1.391 . S
C645 C644 1.386 . S
C645 C649 1.393 . S
C646 H638 0.950 . S
C646 C644 1.391 . S
C646 C647 1.400 . S
C647 C646 1.400 . S
C647 C648 1.398 . S
C647 C653 1.491 . S
C648 H639 0.950 . S
C648 C647 1.398 . S
C648 C649 1.391 . S
C649 H637 0.950 . S
C649 C645 1.393 . S
C649 C648 1.391 . S
C650 H640 0.950 . S
C650 C651 1.386 . S
C650 C652 1.391 . S
C651 C650 1.386 . S
C651 C655 1.393 . S
C652 H641 0.950 . S
C652 C650 1.391 . S
C652 C653 1.400 . S
C653 C647 1.491 . S
C653 C652 1.400 . S
C653 C654 1.398 . S
C654 H642 0.950 . S
C654 C653 1.398 . S
C654 C655 1.391 . S
C655 H643 0.950 . S
C655 C651 1.393 . S
C655 C654 1.391 . S
H656 C664 0.950 . S
H657 C669 0.950 . S
H658 C666 0.950 . S
H659 C668 0.950 . S
H660 C670 0.950 . S
H661 C672 0.950 . S
H662 C674 0.950 . S
H663 C675 0.950 . S
C664 H656 0.950 . S
C664 C665 1.386 . S
C664 C666 1.391 . S
C665 C664 1.386 . S
C665 C669 1.393 . S
C666 H658 0.950 . S
C666 C664 1.391 . S
C666 C667 1.400 . S
C667 C666 1.400 . S
C667 C668 1.398 . S
C667 C673 1.491 . S
C668 H659 0.950 . S
C668 C667 1.398 . S
C668 C669 1.391 . S
C669 H657 0.950 . S
C669 C665 1.393 . S
C669 C668 1.391 . S
C670 H660 0.950 . S
C670 C671 1.386 . S
C670 C672 1.391 . S
C671 C670 1.386 . S
C671 C675 1.393 . S
C672 H661 0.950 . S
C672 C670 1.391 . S
C672 C673 1.400 . S
C673 C667 1.491 . S
C673 C672 1.400 . S
C673 C674 1.398 . S
C674 H662 0.950 . S
C674 C673 1.398 . S
C674 C675 1.391 . S
C675 H663 0.950 . S
C675 C671 1.393 . S
C675 C674 1.391 . S
H676 C684 0.950 . S
H677 C689 0.950 . S
H678 C686 0.950 . S
H679 C688 0.950 . S
H680 C690 0.950 . S
H681 C692 0.950 . S
H682 C694 0.950 . S
H683 C695 0.950 . S
C684 H676 0.950 . S
C684 C685 1.386 . S
C684 C686 1.391 . S
C685 C684 1.386 . S
C685 C689 1.393 . S
C686 H678 0.950 . S
C686 C684 1.391 . S
C686 C687 1.400 . S
C687 C686 1.400 . S
C687 C688 1.398 . S
C687 C693 1.491 . S
C688 H679 0.950 . S
C688 C687 1.398 . S
C688 C689 1.391 . S
C689 H677 0.950 . S
C689 C685 1.393 . S
C689 C688 1.391 . S
C690 H680 0.950 . S
C690 C691 1.386 . S
C690 C692 1.391 . S
C691 C690 1.386 . S
C691 C695 1.393 . S
C692 H681 0.950 . S
C692 C690 1.391 . S
C692 C693 1.400 . S
C693 C687 1.491 . S
C693 C692 1.400 . S
C693 C694 1.398 . S
C694 H682 0.950 . S
C694 C693 1.398 . S
C694 C695 1.391 . S
C695 H683 0.950 . S
C695 C691 1.393 . S
C695 C694 1.391 . S
H696 C704 0.950 . S
H697 C709 0.950 . S
H698 C706 0.950 . S
H699 C708 0.950 . S
H700 C710 0.950 . S
H701 C712 0.950 . S
H702 C714 0.950 . S
H703 C715 0.950 . S
C704 H696 0.950 . S
C704 C705 1.386 . S
C704 C706 1.391 . S
C705 C704 1.386 . S
C705 C709 1.393 . S
C706 H698 0.950 . S
C706 C704 1.391 . S
C706 C707 1.400 . S
C707 C706 1.400 . S
C707 C708 1.398 . S
C707 C713 1.491 . S
C708 H699 0.950 . S
C708 C707 1.398 . S
C708 C709 1.391 . S
C709 H697 0.950 . S
C709 C705 1.393 . S
C709 C708 1.391 . S
C710 H700 0.950 . S
C710 C711 1.386 . S
C710 C712 1.391 . S
C711 C710 1.386 . S
C711 C715 1.393 . S
C712 H701 0.950 . S
C712 C710 1.391 . S
C712 C713 1.400 . S
C713 C707 1.491 . S
C713 C712 1.400 . S
C713 C714 1.398 . S
C714 H702 0.950 . S
C714 C713 1.398 . S
C714 C715 1.391 . S
C715 H703 0.950 . S
C715 C711 1.393 . S
C715 C714 1.391 . S
H716 C724 0.950 . S
H717 C729 0.950 . S
H718 C726 0.950 . S
H719 C728 0.950 . S
H720 C730 0.950 . S
H721 C732 0.950 . S
H722 C734 0.950 . S
H723 C735 0.950 . S
C724 H716 0.950 . S
C724 C725 1.386 . S
C724 C726 1.391 . S
C725 C724 1.386 . S
C725 C729 1.393 . S
C726 H718 0.950 . S
C726 C724 1.391 . S
C726 C727 1.400 . S
C727 C726 1.400 . S
C727 C728 1.398 . S
C727 C733 1.491 . S
C728 H719 0.950 . S
C728 C727 1.398 . S
C728 C729 1.391 . S
C729 H717 0.950 . S
C729 C725 1.393 . S
C729 C728 1.391 . S
C730 H720 0.950 . S
C730 C731 1.386 . S
C730 C732 1.391 . S
C731 C730 1.386 . S
C731 C735 1.393 . S
C732 H721 0.950 . S
C732 C730 1.391 . S
C732 C733 1.400 . S
C733 C727 1.491 . S
C733 C732 1.400 . S
C733 C734 1.398 . S
C734 H722 0.950 . S
C734 C733 1.398 . S
C734 C735 1.391 . S
C735 H723 0.950 . S
C735 C731 1.393 . S
C735 C734 1.391 . S
H736 C744 0.950 . S
H737 C749 0.950 . S
H738 C746 0.950 . S
H739 C748 0.950 . S
H740 C750 0.950 . S
H741 C752 0.950 . S
H742 C754 0.950 . S
H743 C755 0.950 . S
C744 H736 0.950 . S
C744 C745 1.386 . S
C744 C746 1.391 . S
C745 C744 1.386 . S
C745 C749 1.393 . S
C746 H738 0.950 . S
C746 C744 1.391 . S
C746 C747 1.400 . S
C747 C746 1.400 . S
C747 C748 1.398 . S
C747 C753 1.491 1_554 S
C748 H739 0.950 . S
C748 C747 1.398 . S
C748 C749 1.391 . S
C749 H737 0.950 . S
C749 C745 1.393 . S
C749 C748 1.391 . S
C750 H740 0.950 . S
C750 C751 1.386 . S
C750 C752 1.391 . S
C751 C750 1.386 . S
C751 C755 1.393 . S
C752 H741 0.950 . S
C752 C750 1.391 . S
C752 C753 1.400 . S
C753 C747 1.491 1_556 S
C753 C752 1.400 . S
C753 C754 1.398 . S
C754 H742 0.950 . S
C754 C753 1.398 . S
C754 C755 1.391 . S
C755 H743 0.950 . S
C755 C751 1.393 . S
C755 C754 1.391 . S
H756 C764 0.950 . S
H757 C769 0.950 . S
H758 C766 0.950 . S
H759 C768 0.950 . S
H760 C770 0.950 . S
H761 C772 0.950 . S
H762 C774 0.950 . S
H763 C775 0.950 . S
C764 H756 0.950 . S
C764 C765 1.386 . S
C764 C766 1.391 . S
C765 C764 1.386 . S
C765 C769 1.393 . S
C766 H758 0.950 . S
C766 C764 1.391 . S
C766 C767 1.400 . S
C767 C766 1.400 . S
C767 C768 1.398 . S
C767 C773 1.491 1_556 S
C768 H759 0.950 . S
C768 C767 1.398 . S
C768 C769 1.391 . S
C769 H757 0.950 . S
C769 C765 1.393 . S
C769 C768 1.391 . S
C770 H760 0.950 . S
C770 C771 1.386 . S
C770 C772 1.391 . S
C771 C770 1.386 . S
C771 C775 1.393 . S
C772 H761 0.950 . S
C772 C770 1.391 . S
C772 C773 1.400 . S
C773 C767 1.491 1_554 S
C773 C772 1.400 . S
C773 C774 1.398 . S
C774 H762 0.950 . S
C774 C773 1.398 . S
C774 C775 1.391 . S
C775 H763 0.950 . S
C775 C771 1.393 . S
C775 C774 1.391 . S
H776 C784 0.950 . S
H777 C789 0.950 . S
H778 C786 0.950 . S
H779 C788 0.950 . S
H780 C790 0.950 . S
H781 C792 0.950 . S
H782 C794 0.950 . S
H783 C795 0.950 . S
C784 H776 0.950 . S
C784 C785 1.386 . S
C784 C786 1.391 . S
C785 C784 1.386 . S
C785 C789 1.393 . S
C786 H778 0.950 . S
C786 C784 1.391 . S
C786 C787 1.400 . S
C787 C786 1.400 . S
C787 C788 1.398 . S
C787 C793 1.491 1_556 S
C788 H779 0.950 . S
C788 C787 1.398 . S
C788 C789 1.391 . S
C789 H777 0.950 . S
C789 C785 1.393 . S
C789 C788 1.391 . S
C790 H780 0.950 . S
C790 C791 1.386 . S
C790 C792 1.391 . S
C791 C790 1.386 . S
C791 C795 1.393 . S
C792 H781 0.950 . S
C792 C790 1.391 . S
C792 C793 1.400 . S
C793 C787 1.491 1_554 S
C793 C792 1.400 . S
C793 C794 1.398 . S
C794 H782 0.950 . S
C794 C793 1.398 . S
C794 C795 1.391 . S
C795 H783 0.950 . S
C795 C791 1.393 . S
C795 C794 1.391 . S
H796 C804 0.950 . S
H797 C809 0.950 . S
H798 C806 0.950 . S
H799 C808 0.950 . S
H800 C810 0.950 . S
H801 C812 0.950 . S
H802 C814 0.950 . S
H803 C815 0.950 . S
C804 H796 0.950 . S
C804 C805 1.386 . S
C804 C806 1.391 . S
C805 C804 1.386 . S
C805 C809 1.393 . S
C806 H798 0.950 . S
C806 C804 1.391 . S
C806 C807 1.400 . S
C807 C806 1.400 . S
C807 C808 1.398 . S
C807 C813 1.491 1_556 S
C808 H799 0.950 . S
C808 C807 1.398 . S
C808 C809 1.391 . S
C809 H797 0.950 . S
C809 C805 1.393 . S
C809 C808 1.391 . S
C810 H800 0.950 . S
C810 C811 1.386 . S
C810 C812 1.391 . S
C811 C810 1.386 . S
C811 C815 1.393 . S
C812 H801 0.950 . S
C812 C810 1.391 . S
C812 C813 1.400 . S
C813 C807 1.491 1_554 S
C813 C812 1.400 . S
C813 C814 1.398 . S
C814 H802 0.950 . S
C814 C813 1.398 . S
C814 C815 1.391 . S
C815 H803 0.950 . S
C815 C811 1.393 . S
C815 C814 1.391 . S
H816 C824 0.950 . S
H817 C829 0.950 . S
H818 C826 0.950 . S
H819 C828 0.950 . S
H820 C830 0.950 . S
H821 C832 0.950 . S
H822 C834 0.950 . S
H823 C835 0.950 . S
C824 H816 0.950 . S
C824 C825 1.386 . S
C824 C826 1.391 . S
C825 C824 1.386 . S
C825 C829 1.393 . S
C826 H818 0.950 . S
C826 C824 1.391 . S
C826 C827 1.400 . S
C827 C826 1.400 . S
C827 C828 1.398 . S
C827 C833 1.491 . S
C828 H819 0.950 . S
C828 C827 1.398 . S
C828 C829 1.391 . S
C829 H817 0.950 . S
C829 C825 1.393 . S
C829 C828 1.391 . S
C830 H820 0.950 . S
C830 C831 1.386 . S
C830 C832 1.391 . S
C831 C830 1.386 . S
C831 C835 1.393 . S
C832 H821 0.950 . S
C832 C830 1.391 . S
C832 C833 1.400 . S
C833 C827 1.491 . S
C833 C832 1.400 . S
C833 C834 1.398 . S
C834 H822 0.950 . S
C834 C833 1.398 . S
C834 C835 1.391 . S
C835 H823 0.950 . S
C835 C831 1.393 . S
C835 C834 1.391 . S
H836 C844 0.950 . S
H837 C849 0.950 . S
H838 C846 0.950 . S
H839 C848 0.950 . S
H840 C850 0.950 . S
H841 C852 0.950 . S
H842 C854 0.950 . S
H843 C855 0.950 . S
C844 H836 0.950 . S
C844 C845 1.386 . S
C844 C846 1.391 . S
C845 C844 1.386 . S
C845 C849 1.393 . S
C846 H838 0.950 . S
C846 C844 1.391 . S
C846 C847 1.400 . S
C847 C846 1.400 . S
C847 C848 1.398 . S
C847 C853 1.491 . S
C848 H839 0.950 . S
C848 C847 1.398 . S
C848 C849 1.391 . S
C849 H837 0.950 . S
C849 C845 1.393 . S
C849 C848 1.391 . S
C850 H840 0.950 . S
C850 C851 1.386 . S
C850 C852 1.391 . S
C851 C850 1.386 . S
C851 C855 1.393 . S
C852 H841 0.950 . S
C852 C850 1.391 . S
C852 C853 1.400 . S
C853 C847 1.491 . S
C853 C852 1.400 . S
C853 C854 1.398 . S
C854 H842 0.950 . S
C854 C853 1.398 . S
C854 C855 1.391 . S
C855 H843 0.950 . S
C855 C851 1.393 . S
C855 C854 1.391 . S
H856 C864 0.950 . S
H857 C869 0.950 . S
H858 C866 0.950 . S
H859 C868 0.950 . S
H860 C870 0.950 . S
H861 C872 0.950 . S
H862 C874 0.950 . S
H863 C875 0.950 . S
C864 H856 0.950 . S
C864 C865 1.386 . S
C864 C866 1.391 . S
C865 C864 1.386 . S
C865 C869 1.393 . S
C866 H858 0.950 . S
C866 C864 1.391 . S
C866 C867 1.400 . S
C867 C866 1.400 . S
C867 C868 1.398 . S
C867 C873 1.491 . S
C868 H859 0.950 . S
C868 C867 1.398 . S
C868 C869 1.391 . S
C869 H857 0.950 . S
C869 C865 1.393 . S
C869 C868 1.391 . S
C870 H860 0.950 . S
C870 C871 1.386 . S
C870 C872 1.391 . S
C871 C870 1.386 . S
C871 C875 1.393 . S
C872 H861 0.950 . S
C872 C870 1.391 . S
C872 C873 1.400 . S
C873 C867 1.491 . S
C873 C872 1.400 . S
C873 C874 1.398 . S
C874 H862 0.950 . S
C874 C873 1.398 . S
C874 C875 1.391 . S
C875 H863 0.950 . S
C875 C871 1.393 . S
C875 C874 1.391 . S
H876 C884 0.950 . S
H877 C889 0.950 . S
H878 C886 0.950 . S
H879 C888 0.950 . S
H880 C890 0.950 . S
H881 C892 0.950 . S
H882 C894 0.950 . S
H883 C895 0.950 . S
C884 H876 0.950 . S
C884 C885 1.386 . S
C884 C886 1.391 . S
C885 C884 1.386 . S
C885 C889 1.393 . S
C886 H878 0.950 . S
C886 C884 1.391 . S
C886 C887 1.400 . S
C887 C886 1.400 . S
C887 C888 1.398 . S
C887 C893 1.491 . S
C888 H879 0.950 . S
C888 C887 1.398 . S
C888 C889 1.391 . S
C889 H877 0.950 . S
C889 C885 1.393 . S
C889 C888 1.391 . S
C890 H880 0.950 . S
C890 C891 1.386 . S
C890 C892 1.391 . S
C891 C890 1.386 . S
C891 C895 1.393 . S
C892 H881 0.950 . S
C892 C890 1.391 . S
C892 C893 1.400 . S
C893 C887 1.491 . S
C893 C892 1.400 . S
C893 C894 1.398 . S
C894 H882 0.950 . S
C894 C893 1.398 . S
C894 C895 1.391 . S
C895 H883 0.950 . S
C895 C891 1.393 . S
C895 C894 1.391 . S
H896 C904 0.950 . S
H897 C909 0.950 . S
H898 C906 0.950 . S
H899 C908 0.950 . S
H900 C910 0.950 . S
H901 C912 0.950 . S
H902 C914 0.950 . S
H903 C915 0.950 . S
C904 H896 0.950 . S
C904 C905 1.386 . S
C904 C906 1.391 . S
C905 C904 1.386 . S
C905 C909 1.393 . S
C906 H898 0.950 . S
C906 C904 1.391 . S
C906 C907 1.400 . S
C907 C906 1.400 . S
C907 C908 1.398 . S
C907 C913 1.491 . S
C908 H899 0.950 . S
C908 C907 1.398 . S
C908 C909 1.391 . S
C909 H897 0.950 . S
C909 C905 1.393 . S
C909 C908 1.391 . S
C910 H900 0.950 . S
C910 C911 1.386 . S
C910 C912 1.391 . S
C911 C910 1.386 . S
C911 C915 1.393 . S
C912 H901 0.950 . S
C912 C910 1.391 . S
C912 C913 1.400 . S
C913 C907 1.491 . S
C913 C912 1.400 . S
C913 C914 1.398 . S
C914 H902 0.950 . S
C914 C913 1.398 . S
C914 C915 1.391 . S
C915 H903 0.950 . S
C915 C911 1.393 . S
C915 C914 1.391 . S
H916 C924 0.950 . S
H917 C929 0.950 . S
H918 C926 0.950 . S
H919 C928 0.950 . S
H920 C930 0.950 . S
H921 C932 0.950 . S
H922 C934 0.950 . S
H923 C935 0.950 . S
C924 H916 0.950 . S
C924 C925 1.386 . S
C924 C926 1.391 . S
C925 C924 1.386 . S
C925 C929 1.393 . S
C926 H918 0.950 . S
C926 C924 1.391 . S
C926 C927 1.400 . S
C927 C926 1.400 . S
C927 C928 1.398 . S
C927 C933 1.491 . S
C928 H919 0.950 . S
C928 C927 1.398 . S
C928 C929 1.391 . S
C929 H917 0.950 . S
C929 C925 1.393 . S
C929 C928 1.391 . S
C930 H920 0.950 . S
C930 C931 1.386 . S
C930 C932 1.391 . S
C931 C930 1.386 . S
C931 C935 1.393 . S
C932 H921 0.950 . S
C932 C930 1.391 . S
C932 C933 1.400 . S
C933 C927 1.491 . S
C933 C932 1.400 . S
C933 C934 1.398 . S
C934 H922 0.950 . S
C934 C933 1.398 . S
C934 C935 1.391 . S
C935 H923 0.950 . S
C935 C931 1.393 . S
C935 C934 1.391 . S
H936 C944 0.950 . S
H937 C949 0.950 . S
H938 C946 0.950 . S
H939 C948 0.950 . S
H940 C950 0.950 . S
H941 C952 0.950 . S
H942 C954 0.950 . S
H943 C955 0.950 . S
C944 H936 0.950 . S
C944 C945 1.386 . S
C944 C946 1.391 . S
C945 C944 1.386 . S
C945 C949 1.393 . S
C946 H938 0.950 . S
C946 C944 1.391 . S
C946 C947 1.400 . S
C947 C946 1.400 . S
C947 C948 1.398 . S
C947 C953 1.491 . S
C948 H939 0.950 . S
C948 C947 1.398 . S
C948 C949 1.391 . S
C949 H937 0.950 . S
C949 C945 1.393 . S
C949 C948 1.391 . S
C950 H940 0.950 . S
C950 C951 1.386 . S
C950 C952 1.391 . S
C951 C950 1.386 . S
C951 C955 1.393 . S
C952 H941 0.950 . S
C952 C950 1.391 . S
C952 C953 1.400 . S
C953 C947 1.491 . S
C953 C952 1.400 . S
C953 C954 1.398 . S
C954 H942 0.950 . S
C954 C953 1.398 . S
C954 C955 1.391 . S
C955 H943 0.950 . S
C955 C951 1.393 . S
C955 C954 1.391 . S
H956 C964 0.950 . S
H957 C969 0.950 . S
H958 C966 0.950 . S
H959 C968 0.950 . S
H960 C970 0.950 . S
H961 C972 0.950 . S
H962 C974 0.950 . S
H963 C975 0.950 . S
C964 H956 0.950 . S
C964 C965 1.386 . S
C964 C966 1.391 . S
C965 C964 1.386 . S
C965 C969 1.393 . S
C966 H958 0.950 . S
C966 C964 1.391 . S
C966 C967 1.400 . S
C967 C966 1.400 . S
C967 C968 1.398 . S
C967 C973 1.491 . S
C968 H959 0.950 . S
C968 C967 1.398 . S
C968 C969 1.391 . S
C969 H957 0.950 . S
C969 C965 1.393 . S
C969 C968 1.391 . S
C970 H960 0.950 . S
C970 C971 1.386 . S
C970 C972 1.391 . S
C971 C970 1.386 . S
C971 C975 1.393 . S
C972 H961 0.950 . S
C972 C970 1.391 . S
C972 C973 1.400 . S
C973 C967 1.491 . S
C973 C972 1.400 . S
C973 C974 1.398 . S
C974 H962 0.950 . S
C974 C973 1.398 . S
C974 C975 1.391 . S
C975 H963 0.950 . S
C975 C971 1.393 . S
C975 C974 1.391 . S
H976 C984 0.950 . S
H977 C989 0.950 . S
H978 C986 0.950 . S
H979 C988 0.950 . S
H980 C990 0.950 . S
H981 C992 0.950 . S
H982 C994 0.950 . S
H983 C995 0.950 . S
C984 H976 0.950 . S
C984 C985 1.386 . S
C984 C986 1.391 . S
C985 C984 1.386 . S
C985 C989 1.393 . S
C986 H978 0.950 . S
C986 C984 1.391 . S
C986 C987 1.400 . S
C987 C986 1.400 . S
C987 C988 1.398 . S
C987 C993 1.491 1_556 S
C988 H979 0.950 . S
C988 C987 1.398 . S
C988 C989 1.391 . S
C989 H977 0.950 . S
C989 C985 1.393 . S
C989 C988 1.391 . S
C990 H980 0.950 . S
C990 C991 1.386 . S
C990 C992 1.391 . S
C991 C990 1.386 . S
C991 C995 1.393 . S
C992 H981 0.950 . S
C992 C990 1.391 . S
C992 C993 1.400 . S
C993 C987 1.491 1_554 S
C993 C992 1.400 . S
C993 C994 1.398 . S
C994 H982 0.950 . S
C994 C993 1.398 . S
C994 C995 1.391 . S
C995 H983 0.950 . S
C995 C991 1.393 . S
C995 C994 1.391 . S
H996 C1004 0.950 . S
H997 C1009 0.950 . S
H998 C1006 0.950 . S
H999 C1008 0.950 . S
H1000 C1010 0.950 . S
H1001 C1012 0.950 . S
H1002 C1014 0.950 . S
H1003 C1015 0.950 . S
C1004 H996 0.950 . S
C1004 C1005 1.386 . S
C1004 C1006 1.391 . S
C1005 C1004 1.386 . S
C1005 C1009 1.393 . S
C1006 H998 0.950 . S
C1006 C1004 1.391 . S
C1006 C1007 1.400 . S
C1007 C1006 1.400 . S
C1007 C1008 1.398 . S
C1007 C1013 1.491 1_554 S
C1008 H999 0.950 . S
C1008 C1007 1.398 . S
C1008 C1009 1.391 . S
C1009 H997 0.950 . S
C1009 C1005 1.393 . S
C1009 C1008 1.391 . S
C1010 H1000 0.950 . S
C1010 C1011 1.386 . S
C1010 C1012 1.391 . S
C1011 C1010 1.386 . S
C1011 C1015 1.393 . S
C1012 H1001 0.950 . S
C1012 C1010 1.391 . S
C1012 C1013 1.400 . S
C1013 C1007 1.491 1_556 S
C1013 C1012 1.400 . S
C1013 C1014 1.398 . S
C1014 H1002 0.950 . S
C1014 C1013 1.398 . S
C1014 C1015 1.391 . S
C1015 H1003 0.950 . S
C1015 C1011 1.393 . S
C1015 C1014 1.391 . S
H1016 C1024 0.950 . S
H1017 C1029 0.950 . S
H1018 C1026 0.950 . S
H1019 C1028 0.950 . S
H1020 C1030 0.950 . S
H1021 C1032 0.950 . S
H1022 C1034 0.950 . S
H1023 C1035 0.950 . S
C1024 H1016 0.950 . S
C1024 C1025 1.386 . S
C1024 C1026 1.391 . S
C1025 C1024 1.386 . S
C1025 C1029 1.393 . S
C1026 H1018 0.950 . S
C1026 C1024 1.391 . S
C1026 C1027 1.400 . S
C1027 C1026 1.400 . S
C1027 C1028 1.398 . S
C1027 C1033 1.491 1_554 S
C1028 H1019 0.950 . S
C1028 C1027 1.398 . S
C1028 C1029 1.391 . S
C1029 H1017 0.950 . S
C1029 C1025 1.393 . S
C1029 C1028 1.391 . S
C1030 H1020 0.950 . S
C1030 C1031 1.386 . S
C1030 C1032 1.391 . S
C1031 C1030 1.386 . S
C1031 C1035 1.393 . S
C1032 H1021 0.950 . S
C1032 C1030 1.391 . S
C1032 C1033 1.400 . S
C1033 C1027 1.491 1_556 S
C1033 C1032 1.400 . S
C1033 C1034 1.398 . S
C1034 H1022 0.950 . S
C1034 C1033 1.398 . S
C1034 C1035 1.391 . S
C1035 H1023 0.950 . S
C1035 C1031 1.393 . S
C1035 C1034 1.391 . S
H1036 C1044 0.950 . S
H1037 C1049 0.950 . S
H1038 C1046 0.950 . S
H1039 C1048 0.950 . S
H1040 C1050 0.950 . S
H1041 C1052 0.950 . S
H1042 C1054 0.950 . S
H1043 C1055 0.950 . S
C1044 H1036 0.950 . S
C1044 C1045 1.386 . S
C1044 C1046 1.391 . S
C1045 C1044 1.386 . S
C1045 C1049 1.393 . S
C1046 H1038 0.950 . S
C1046 C1044 1.391 . S
C1046 C1047 1.400 . S
C1047 C1046 1.400 . S
C1047 C1048 1.398 . S
C1047 C1053 1.491 1_556 S
C1048 H1039 0.950 . S
C1048 C1047 1.398 . S
C1048 C1049 1.391 . S
C1049 H1037 0.950 . S
C1049 C1045 1.393 . S
C1049 C1048 1.391 . S
C1050 H1040 0.950 . S
C1050 C1051 1.386 . S
C1050 C1052 1.391 . S
C1051 C1050 1.386 . S
C1051 C1055 1.393 . S
C1052 H1041 0.950 . S
C1052 C1050 1.391 . S
C1052 C1053 1.400 . S
C1053 C1047 1.491 1_554 S
C1053 C1052 1.400 . S
C1053 C1054 1.398 . S
C1054 H1042 0.950 . S
C1054 C1053 1.398 . S
C1054 C1055 1.391 . S
C1055 H1043 0.950 . S
C1055 C1051 1.393 . S
C1055 C1054 1.391 . S
H1056 C1064 0.950 . S
H1057 C1069 0.950 . S
H1058 C1066 0.950 1_565 S
H1059 C1068 0.950 . S
H1060 C1070 0.950 . S
H1061 C1072 0.950 1_545 S
H1062 C1074 0.950 . S
H1063 C1075 0.950 . S
C1064 H1056 0.950 . S
C1064 C1065 1.386 . S
C1064 C1066 1.391 . S
C1065 C1064 1.386 . S
C1065 C1069 1.393 . S
C1066 H1058 0.950 1_545 S
C1066 C1064 1.391 . S
C1066 C1067 1.400 . S
C1067 C1066 1.400 . S
C1067 C1068 1.398 . S
C1067 C1073 1.491 1_545 S
C1068 H1059 0.950 . S
C1068 C1067 1.398 . S
C1068 C1069 1.391 . S
C1069 H1057 0.950 . S
C1069 C1065 1.393 . S
C1069 C1068 1.391 . S
C1070 H1060 0.950 . S
C1070 C1071 1.386 . S
C1070 C1072 1.391 . S
C1071 C1070 1.386 . S
C1071 C1075 1.393 . S
C1072 H1061 0.950 1_565 S
C1072 C1070 1.391 . S
C1072 C1073 1.400 . S
C1073 C1067 1.491 1_565 S
C1073 C1072 1.400 . S
C1073 C1074 1.398 . S
C1074 H1062 0.950 . S
C1074 C1073 1.398 . S
C1074 C1075 1.391 . S
C1075 H1063 0.950 . S
C1075 C1071 1.393 . S
C1075 C1074 1.391 . S
H1076 C1084 0.950 . S
H1077 C1089 0.950 . S
H1078 C1086 0.950 . S
H1079 C1088 0.950 . S
H1080 C1090 0.950 . S
H1081 C1092 0.950 . S
H1082 C1094 0.950 . S
H1083 C1095 0.950 . S
C1084 H1076 0.950 . S
C1084 C1085 1.386 . S
C1084 C1086 1.391 . S
C1085 C1084 1.386 . S
C1085 C1089 1.393 . S
C1086 H1078 0.950 . S
C1086 C1084 1.391 . S
C1086 C1087 1.400 . S
C1087 C1086 1.400 . S
C1087 C1088 1.398 . S
C1087 C1093 1.491 1_655 S
C1088 H1079 0.950 . S
C1088 C1087 1.398 . S
C1088 C1089 1.391 . S
C1089 H1077 0.950 . S
C1089 C1085 1.393 . S
C1089 C1088 1.391 . S
C1090 H1080 0.950 . S
C1090 C1091 1.386 . S
C1090 C1092 1.391 . S
C1091 C1090 1.386 . S
C1091 C1095 1.393 . S
C1092 H1081 0.950 . S
C1092 C1090 1.391 . S
C1092 C1093 1.400 . S
C1093 C1087 1.491 1_455 S
C1093 C1092 1.400 . S
C1093 C1094 1.398 . S
C1094 H1082 0.950 . S
C1094 C1093 1.398 . S
C1094 C1095 1.391 . S
C1095 H1083 0.950 . S
C1095 C1091 1.393 . S
C1095 C1094 1.391 . S
H1096 C1104 0.950 . S
H1097 C1109 0.950 . S
H1098 C1106 0.950 . S
H1099 C1108 0.950 . S
H1100 C1110 0.950 . S
H1101 C1112 0.950 . S
H1102 C1114 0.950 . S
H1103 C1115 0.950 . S
C1104 H1096 0.950 . S
C1104 C1105 1.386 . S
C1104 C1106 1.391 . S
C1105 C1104 1.386 . S
C1105 C1109 1.393 . S
C1106 H1098 0.950 . S
C1106 C1104 1.391 . S
C1106 C1107 1.400 . S
C1107 C1106 1.400 . S
C1107 C1108 1.398 . S
C1107 C1113 1.491 1_545 S
C1108 H1099 0.950 . S
C1108 C1107 1.398 . S
C1108 C1109 1.391 . S
C1109 H1097 0.950 . S
C1109 C1105 1.393 . S
C1109 C1108 1.391 . S
C1110 H1100 0.950 . S
C1110 C1111 1.386 . S
C1110 C1112 1.391 . S
C1111 C1110 1.386 . S
C1111 C1115 1.393 . S
C1112 H1101 0.950 . S
C1112 C1110 1.391 . S
C1112 C1113 1.400 . S
C1113 C1107 1.491 1_565 S
C1113 C1112 1.400 . S
C1113 C1114 1.398 . S
C1114 H1102 0.950 . S
C1114 C1113 1.398 . S
C1114 C1115 1.391 . S
C1115 H1103 0.950 . S
C1115 C1111 1.393 . S
C1115 C1114 1.391 . S
H1116 C1124 0.950 . S
H1117 C1129 0.950 . S
H1118 C1126 0.950 . S
H1119 C1128 0.950 . S
H1120 C1130 0.950 . S
H1121 C1132 0.950 . S
H1122 C1134 0.950 . S
H1123 C1135 0.950 . S
C1124 H1116 0.950 . S
C1124 C1125 1.386 . S
C1124 C1126 1.391 . S
C1125 C1124 1.386 . S
C1125 C1129 1.393 . S
C1126 H1118 0.950 . S
C1126 C1124 1.391 . S
C1126 C1127 1.400 . S
C1127 C1126 1.400 . S
C1127 C1128 1.398 . S
C1127 C1133 1.491 1_455 S
C1128 H1119 0.950 . S
C1128 C1127 1.398 . S
C1128 C1129 1.391 . S
C1129 H1117 0.950 . S
C1129 C1125 1.393 . S
C1129 C1128 1.391 . S
C1130 H1120 0.950 . S
C1130 C1131 1.386 . S
C1130 C1132 1.391 . S
C1131 C1130 1.386 . S
C1131 C1135 1.393 . S
C1132 H1121 0.950 . S
C1132 C1130 1.391 . S
C1132 C1133 1.400 . S
C1133 C1127 1.491 1_655 S
C1133 C1132 1.400 . S
C1133 C1134 1.398 . S
C1134 H1122 0.950 . S
C1134 C1133 1.398 . S
C1134 C1135 1.391 . S
C1135 H1123 0.950 . S
C1135 C1131 1.393 . S
C1135 C1134 1.391 . S
H1136 C1144 0.950 . S
H1137 C1149 0.950 . S
H1138 C1146 0.950 . S
H1139 C1148 0.934 1_545 S
H1140 C1150 0.950 . S
H1141 C1152 0.950 . S
H1142 C1154 0.934 1_565 S
H1143 C1155 0.950 . S
C1144 H1136 0.950 . S
C1144 C1145 1.386 . S
C1144 C1146 1.391 . S
C1145 C1144 1.386 . S
C1145 C1149 1.393 . S
C1146 H1138 0.950 . S
C1146 C1144 1.391 . S
C1146 C1147 1.400 . S
C1147 C1146 1.400 . S
C1147 C1148 1.398 . S
C1147 C1153 1.491 1_565 S
C1148 H1139 0.934 1_565 S
C1148 C1147 1.398 . S
C1148 C1149 1.391 . S
C1149 H1137 0.950 . S
C1149 C1145 1.393 . S
C1149 C1148 1.391 . S
C1150 H1140 0.950 . S
C1150 C1151 1.386 . S
C1150 C1152 1.391 . S
C1151 C1150 1.386 . S
C1151 C1155 1.393 . S
C1152 H1141 0.950 . S
C1152 C1150 1.391 . S
C1152 C1153 1.400 . S
C1153 C1147 1.491 1_545 S
C1153 C1152 1.400 . S
C1153 C1154 1.398 . S
C1154 H1142 0.934 1_545 S
C1154 C1153 1.398 . S
C1154 C1155 1.391 . S
C1155 H1143 0.950 . S
C1155 C1151 1.393 . S
C1155 C1154 1.391 . S
H1156 C1164 0.950 . S
H1157 C1169 0.950 . S
H1158 C1166 0.950 . S
H1159 C1168 0.950 . S
H1160 C1170 0.950 . S
H1161 C1172 0.950 . S
H1162 C1174 0.950 . S
H1163 C1175 0.950 . S
C1164 H1156 0.950 . S
C1164 C1165 1.386 . S
C1164 C1166 1.391 . S
C1165 C1164 1.386 . S
C1165 C1169 1.393 . S
C1166 H1158 0.950 . S
C1166 C1164 1.391 . S
C1166 C1167 1.400 . S
C1167 C1166 1.400 . S
C1167 C1168 1.398 . S
C1167 C1173 1.491 1_655 S
C1168 H1159 0.950 . S
C1168 C1167 1.398 . S
C1168 C1169 1.391 . S
C1169 H1157 0.950 . S
C1169 C1165 1.393 . S
C1169 C1168 1.391 . S
C1170 H1160 0.950 . S
C1170 C1171 1.386 . S
C1170 C1172 1.391 . S
C1171 C1170 1.386 . S
C1171 C1175 1.393 . S
C1172 H1161 0.950 . S
C1172 C1170 1.391 . S
C1172 C1173 1.400 . S
C1173 C1167 1.491 1_455 S
C1173 C1172 1.400 . S
C1173 C1174 1.398 . S
C1174 H1162 0.950 . S
C1174 C1173 1.398 . S
C1174 C1175 1.391 . S
C1175 H1163 0.950 . S
C1175 C1171 1.393 . S
C1175 C1174 1.391 . S
H1176 C1184 0.950 . S
H1177 C1189 0.950 . S
H1178 C1186 0.952 . S
H1179 C1188 0.950 . S
H1180 C1190 0.950 . S
H1181 C1192 0.952 . S
H1182 C1194 0.950 . S
H1183 C1195 0.950 . S
C1184 H1176 0.950 . S
C1184 C1185 1.386 . S
C1184 C1186 1.391 . S
C1185 C1184 1.386 . S
C1185 C1189 1.393 . S
C1186 H1178 0.952 . S
C1186 C1184 1.391 . S
C1186 C1187 1.400 . S
C1187 C1186 1.400 . S
C1187 C1188 1.398 . S
C1187 C1193 1.491 1_565 S
C1188 H1179 0.950 . S
C1188 C1187 1.398 . S
C1188 C1189 1.391 . S
C1189 H1177 0.950 . S
C1189 C1185 1.393 . S
C1189 C1188 1.391 . S
C1190 H1180 0.950 . S
C1190 C1191 1.386 . S
C1190 C1192 1.391 . S
C1191 C1190 1.386 . S
C1191 C1195 1.393 . S
C1192 H1181 0.952 . S
C1192 C1190 1.391 . S
C1192 C1193 1.400 . S
C1193 C1187 1.491 1_545 S
C1193 C1192 1.400 . S
C1193 C1194 1.398 . S
C1194 H1182 0.950 . S
C1194 C1193 1.398 . S
C1194 C1195 1.391 . S
C1195 H1183 0.950 . S
C1195 C1191 1.393 . S
C1195 C1194 1.391 . S
H1196 C1204 0.950 . S
H1197 C1209 0.950 . S
H1198 C1206 0.950 . S
H1199 C1208 0.950 . S
H1200 C1210 0.950 . S
H1201 C1212 0.950 . S
H1202 C1214 0.950 . S
H1203 C1215 0.950 . S
C1204 H1196 0.950 . S
C1204 C1205 1.386 . S
C1204 C1206 1.391 . S
C1205 C1204 1.386 . S
C1205 C1209 1.393 . S
C1206 H1198 0.950 . S
C1206 C1204 1.391 . S
C1206 C1207 1.400 . S
C1207 C1206 1.400 . S
C1207 C1208 1.398 . S
C1207 C1213 1.491 1_655 S
C1208 H1199 0.950 . S
C1208 C1207 1.398 . S
C1208 C1209 1.391 . S
C1209 H1197 0.950 . S
C1209 C1205 1.393 . S
C1209 C1208 1.391 . S
C1210 H1200 0.950 . S
C1210 C1211 1.386 . S
C1210 C1212 1.391 . S
C1211 C1210 1.386 . S
C1211 C1215 1.393 . S
C1212 H1201 0.950 . S
C1212 C1210 1.391 . S
C1212 C1213 1.400 . S
C1213 C1207 1.491 1_455 S
C1213 C1212 1.400 . S
C1213 C1214 1.398 . S
C1214 H1202 0.950 . S
C1214 C1213 1.398 . S
C1214 C1215 1.391 . S
C1215 H1203 0.950 . S
C1215 C1211 1.393 . S
C1215 C1214 1.391 . S
H1216 C1224 0.950 . S
H1217 C1229 0.950 . S
H1218 C1226 0.950 . S
H1219 C1228 0.950 . S
H1220 C1230 0.950 . S
H1221 C1232 0.950 . S
H1222 C1234 0.950 . S
H1223 C1235 0.950 . S
C1224 H1216 0.950 . S
C1224 C1225 1.386 . S
C1224 C1226 1.391 . S
C1225 C1224 1.386 . S
C1225 C1229 1.393 . S
C1226 H1218 0.950 . S
C1226 C1224 1.391 . S
C1226 C1227 1.400 . S
C1227 C1226 1.400 . S
C1227 C1228 1.398 . S
C1227 C1233 1.491 . S
C1228 H1219 0.950 . S
C1228 C1227 1.398 . S
C1228 C1229 1.391 . S
C1229 H1217 0.950 . S
C1229 C1225 1.393 . S
C1229 C1228 1.391 . S
C1230 H1220 0.950 . S
C1230 C1231 1.386 . S
C1230 C1232 1.391 . S
C1231 C1230 1.386 . S
C1231 C1235 1.393 . S
C1232 H1221 0.950 . S
C1232 C1230 1.391 . S
C1232 C1233 1.400 . S
C1233 C1227 1.491 . S
C1233 C1232 1.400 . S
C1233 C1234 1.398 . S
C1234 H1222 0.950 . S
C1234 C1233 1.398 . S
C1234 C1235 1.391 . S
C1235 H1223 0.950 . S
C1235 C1231 1.393 . S
C1235 C1234 1.391 . S
H1236 C1244 0.950 . S
H1237 C1249 0.950 . S
H1238 C1246 0.950 . S
H1239 C1248 0.950 . S
H1240 C1250 0.950 . S
H1241 C1252 0.950 . S
H1242 C1254 0.950 . S
H1243 C1255 0.950 . S
C1244 H1236 0.950 . S
C1244 C1245 1.386 . S
C1244 C1246 1.391 . S
C1245 C1244 1.386 . S
C1245 C1249 1.393 . S
C1246 H1238 0.950 . S
C1246 C1244 1.391 . S
C1246 C1247 1.400 . S
C1247 C1246 1.400 . S
C1247 C1248 1.398 . S
C1247 C1253 1.491 . S
C1248 H1239 0.950 . S
C1248 C1247 1.398 . S
C1248 C1249 1.391 . S
C1249 H1237 0.950 . S
C1249 C1245 1.393 . S
C1249 C1248 1.391 . S
C1250 H1240 0.950 . S
C1250 C1251 1.386 . S
C1250 C1252 1.391 . S
C1251 C1250 1.386 . S
C1251 C1255 1.393 . S
C1252 H1241 0.950 . S
C1252 C1250 1.391 . S
C1252 C1253 1.400 . S
C1253 C1247 1.491 . S
C1253 C1252 1.400 . S
C1253 C1254 1.398 . S
C1254 H1242 0.950 . S
C1254 C1253 1.398 . S
C1254 C1255 1.391 . S
C1255 H1243 0.950 . S
C1255 C1251 1.393 . S
C1255 C1254 1.391 . S
H1256 C1264 0.950 . S
H1257 C1269 0.950 . S
H1258 C1266 0.950 . S
H1259 C1268 0.950 . S
H1260 C1270 0.950 . S
H1261 C1272 0.950 . S
H1262 C1274 0.950 . S
H1263 C1275 0.950 . S
C1264 H1256 0.950 . S
C1264 C1265 1.386 . S
C1264 C1266 1.391 . S
C1265 C1264 1.386 . S
C1265 C1269 1.393 . S
C1266 H1258 0.950 . S
C1266 C1264 1.391 . S
C1266 C1267 1.400 . S
C1267 C1266 1.400 . S
C1267 C1268 1.398 . S
C1267 C1273 1.491 . S
C1268 H1259 0.950 . S
C1268 C1267 1.398 . S
C1268 C1269 1.391 . S
C1269 H1257 0.950 . S
C1269 C1265 1.393 . S
C1269 C1268 1.391 . S
C1270 H1260 0.950 . S
C1270 C1271 1.386 . S
C1270 C1272 1.391 . S
C1271 C1270 1.386 . S
C1271 C1275 1.393 . S
C1272 H1261 0.950 . S
C1272 C1270 1.391 . S
C1272 C1273 1.400 . S
C1273 C1267 1.491 . S
C1273 C1272 1.400 . S
C1273 C1274 1.398 . S
C1274 H1262 0.950 . S
C1274 C1273 1.398 . S
C1274 C1275 1.391 . S
C1275 H1263 0.950 . S
C1275 C1271 1.393 . S
C1275 C1274 1.391 . S
H1276 C1284 0.950 . S
H1277 C1289 0.950 . S
H1278 C1286 0.950 . S
H1279 C1288 0.950 . S
H1280 C1290 0.950 . S
H1281 C1292 0.950 . S
H1282 C1294 0.950 . S
H1283 C1295 0.950 . S
C1284 H1276 0.950 . S
C1284 C1285 1.386 . S
C1284 C1286 1.391 . S
C1285 C1284 1.386 . S
C1285 C1289 1.393 . S
C1286 H1278 0.950 . S
C1286 C1284 1.391 . S
C1286 C1287 1.400 . S
C1287 C1286 1.400 . S
C1287 C1288 1.398 . S
C1287 C1293 1.491 . S
C1288 H1279 0.950 . S
C1288 C1287 1.398 . S
C1288 C1289 1.391 . S
C1289 H1277 0.950 . S
C1289 C1285 1.393 . S
C1289 C1288 1.391 . S
C1290 H1280 0.950 . S
C1290 C1291 1.386 . S
C1290 C1292 1.391 . S
C1291 C1290 1.386 . S
C1291 C1295 1.393 . S
C1292 H1281 0.950 . S
C1292 C1290 1.391 . S
C1292 C1293 1.400 . S
C1293 C1287 1.491 . S
C1293 C1292 1.400 . S
C1293 C1294 1.398 . S
C1294 H1282 0.950 . S
C1294 C1293 1.398 . S
C1294 C1295 1.391 . S
C1295 H1283 0.950 . S
C1295 C1291 1.393 . S
C1295 C1294 1.391 . S
H1296 C1304 0.950 . S
H1297 C1309 0.950 . S
H1298 C1306 0.950 . S
H1299 C1308 0.950 . S
H1300 C1310 0.950 . S
H1301 C1312 0.950 . S
H1302 C1314 0.950 . S
H1303 C1315 0.950 . S
C1304 H1296 0.950 . S
C1304 C1305 1.386 . S
C1304 C1306 1.391 . S
C1305 C1304 1.386 . S
C1305 C1309 1.393 . S
C1306 H1298 0.950 . S
C1306 C1304 1.391 . S
C1306 C1307 1.400 . S
C1307 C1306 1.400 . S
C1307 C1308 1.398 . S
C1307 C1313 1.491 . S
C1308 H1299 0.950 . S
C1308 C1307 1.398 . S
C1308 C1309 1.391 . S
C1309 H1297 0.950 . S
C1309 C1305 1.393 . S
C1309 C1308 1.391 . S
C1310 H1300 0.950 . S
C1310 C1311 1.386 . S
C1310 C1312 1.391 . S
C1311 C1310 1.386 . S
C1311 C1315 1.393 . S
C1312 H1301 0.950 . S
C1312 C1310 1.391 . S
C1312 C1313 1.400 . S
C1313 C1307 1.491 . S
C1313 C1312 1.400 . S
C1313 C1314 1.398 . S
C1314 H1302 0.950 . S
C1314 C1313 1.398 . S
C1314 C1315 1.391 . S
C1315 H1303 0.950 . S
C1315 C1311 1.393 . S
C1315 C1314 1.391 . S
H1316 C1324 0.950 . S
H1317 C1329 0.950 . S
H1318 C1326 0.950 . S
H1319 C1328 0.950 . S
H1320 C1330 0.950 . S
H1321 C1332 0.950 . S
H1322 C1334 0.950 . S
H1323 C1335 0.950 . S
C1324 H1316 0.950 . S
C1324 C1325 1.386 . S
C1324 C1326 1.391 . S
C1325 C1324 1.386 . S
C1325 C1329 1.393 . S
C1326 H1318 0.950 . S
C1326 C1324 1.391 . S
C1326 C1327 1.400 . S
C1327 C1326 1.400 . S
C1327 C1328 1.398 . S
C1327 C1333 1.491 . S
C1328 H1319 0.950 . S
C1328 C1327 1.398 . S
C1328 C1329 1.391 . S
C1329 H1317 0.950 . S
C1329 C1325 1.393 . S
C1329 C1328 1.391 . S
C1330 H1320 0.950 . S
C1330 C1331 1.386 . S
C1330 C1332 1.391 . S
C1331 C1330 1.386 . S
C1331 C1335 1.393 . S
C1332 H1321 0.950 . S
C1332 C1330 1.391 . S
C1332 C1333 1.400 . S
C1333 C1327 1.491 . S
C1333 C1332 1.400 . S
C1333 C1334 1.398 . S
C1334 H1322 0.950 . S
C1334 C1333 1.398 . S
C1334 C1335 1.391 . S
C1335 H1323 0.950 . S
C1335 C1331 1.393 . S
C1335 C1334 1.391 . S
H1336 C1344 0.950 . S
H1337 C1349 0.950 . S
H1338 C1346 0.950 . S
H1339 C1348 0.950 . S
H1340 C1350 0.950 . S
H1341 C1352 0.950 . S
H1342 C1354 0.950 . S
H1343 C1355 0.950 . S
C1344 H1336 0.950 . S
C1344 C1345 1.386 . S
C1344 C1346 1.391 . S
C1345 C1344 1.386 . S
C1345 C1349 1.393 . S
C1346 H1338 0.950 . S
C1346 C1344 1.391 . S
C1346 C1347 1.400 . S
C1347 C1346 1.400 . S
C1347 C1348 1.398 . S
C1347 C1353 1.491 . S
C1348 H1339 0.950 . S
C1348 C1347 1.398 . S
C1348 C1349 1.391 . S
C1349 H1337 0.950 . S
C1349 C1345 1.393 . S
C1349 C1348 1.391 . S
C1350 H1340 0.950 . S
C1350 C1351 1.386 . S
C1350 C1352 1.391 . S
C1351 C1350 1.386 . S
C1351 C1355 1.393 . S
C1352 H1341 0.950 . S
C1352 C1350 1.391 . S
C1352 C1353 1.400 . S
C1353 C1347 1.491 . S
C1353 C1352 1.400 . S
C1353 C1354 1.398 . S
C1354 H1342 0.950 . S
C1354 C1353 1.398 . S
C1354 C1355 1.391 . S
C1355 H1343 0.950 . S
C1355 C1351 1.393 . S
C1355 C1354 1.391 . S
H1356 C1364 0.950 . S
H1357 C1369 0.950 . S
H1358 C1366 0.950 . S
H1359 C1368 0.950 . S
H1360 C1370 0.950 . S
H1361 C1372 0.950 . S
H1362 C1374 0.950 . S
H1363 C1375 0.950 . S
C1364 H1356 0.950 . S
C1364 C1365 1.386 . S
C1364 C1366 1.391 . S
C1365 C1364 1.386 . S
C1365 C1369 1.393 . S
C1366 H1358 0.950 . S
C1366 C1364 1.391 . S
C1366 C1367 1.400 . S
C1367 C1366 1.400 . S
C1367 C1368 1.398 . S
C1367 C1373 1.491 . S
C1368 H1359 0.950 . S
C1368 C1367 1.398 . S
C1368 C1369 1.391 . S
C1369 H1357 0.950 . S
C1369 C1365 1.393 . S
C1369 C1368 1.391 . S
C1370 H1360 0.950 . S
C1370 C1371 1.386 . S
C1370 C1372 1.391 . S
C1371 C1370 1.386 . S
C1371 C1375 1.393 . S
C1372 H1361 0.950 . S
C1372 C1370 1.391 . S
C1372 C1373 1.400 . S
C1373 C1367 1.491 . S
C1373 C1372 1.400 . S
C1373 C1374 1.398 . S
C1374 H1362 0.950 . S
C1374 C1373 1.398 . S
C1374 C1375 1.391 . S
C1375 H1363 0.950 . S
C1375 C1371 1.393 . S
C1375 C1374 1.391 . S
H1376 C1384 0.950 . S
H1377 C1389 0.950 . S
H1378 C1386 0.950 . S
H1379 C1388 0.950 . S
H1380 C1390 0.950 . S
H1381 C1392 0.950 . S
H1382 C1394 0.950 . S
H1383 C1395 0.950 . S
C1384 H1376 0.950 . S
C1384 C1385 1.386 . S
C1384 C1386 1.391 . S
C1385 C1384 1.386 . S
C1385 C1389 1.393 . S
C1386 H1378 0.950 . S
C1386 C1384 1.391 . S
C1386 C1387 1.400 . S
C1387 C1386 1.400 . S
C1387 C1388 1.398 . S
C1387 C1393 1.491 . S
C1388 H1379 0.950 . S
C1388 C1387 1.398 . S
C1388 C1389 1.391 . S
C1389 H1377 0.950 . S
C1389 C1385 1.393 . S
C1389 C1388 1.391 . S
C1390 H1380 0.950 . S
C1390 C1391 1.386 . S
C1390 C1392 1.391 . S
C1391 C1390 1.386 . S
C1391 C1395 1.393 . S
C1392 H1381 0.950 . S
C1392 C1390 1.391 . S
C1392 C1393 1.400 . S
C1393 C1387 1.491 . S
C1393 C1392 1.400 . S
C1393 C1394 1.398 . S
C1394 H1382 0.950 . S
C1394 C1393 1.398 . S
C1394 C1395 1.391 . S
C1395 H1383 0.950 . S
C1395 C1391 1.393 . S
C1395 C1394 1.391 . S
H1396 C1404 0.950 . S
H1397 C1409 0.950 . S
H1398 C1406 0.950 . S
H1399 C1408 0.950 . S
H1400 C1410 0.950 . S
H1401 C1412 0.950 . S
H1402 C1414 0.950 . S
H1403 C1415 0.950 . S
C1404 H1396 0.950 . S
C1404 C1405 1.386 . S
C1404 C1406 1.391 . S
C1405 C1404 1.386 . S
C1405 C1409 1.393 . S
C1406 H1398 0.950 . S
C1406 C1404 1.391 . S
C1406 C1407 1.400 . S
C1407 C1406 1.400 . S
C1407 C1408 1.398 . S
C1407 C1413 1.491 . S
C1408 H1399 0.950 . S
C1408 C1407 1.398 . S
C1408 C1409 1.391 . S
C1409 H1397 0.950 . S
C1409 C1405 1.393 . S
C1409 C1408 1.391 . S
C1410 H1400 0.950 . S
C1410 C1411 1.386 . S
C1410 C1412 1.391 . S
C1411 C1410 1.386 . S
C1411 C1415 1.393 . S
C1412 H1401 0.950 . S
C1412 C1410 1.391 . S
C1412 C1413 1.400 . S
C1413 C1407 1.491 . S
C1413 C1412 1.400 . S
C1413 C1414 1.398 . S
C1414 H1402 0.950 . S
C1414 C1413 1.398 . S
C1414 C1415 1.391 . S
C1415 H1403 0.950 . S
C1415 C1411 1.393 . S
C1415 C1414 1.391 . S
H1416 C1424 0.950 . S
H1417 C1429 0.950 . S
H1418 C1426 0.950 . S
H1419 C1428 0.950 . S
H1420 C1430 0.950 . S
H1421 C1432 0.950 . S
H1422 C1434 0.950 . S
H1423 C1435 0.950 . S
C1424 H1416 0.950 . S
C1424 C1425 1.386 . S
C1424 C1426 1.391 . S
C1425 C1424 1.386 . S
C1425 C1429 1.393 . S
C1426 H1418 0.950 . S
C1426 C1424 1.391 . S
C1426 C1427 1.400 . S
C1427 C1426 1.400 . S
C1427 C1428 1.398 . S
C1427 C1433 1.491 . S
C1428 H1419 0.950 . S
C1428 C1427 1.398 . S
C1428 C1429 1.391 . S
C1429 H1417 0.950 . S
C1429 C1425 1.393 . S
C1429 C1428 1.391 . S
C1430 H1420 0.950 . S
C1430 C1431 1.386 . S
C1430 C1432 1.391 . S
C1431 C1430 1.386 . S
C1431 C1435 1.393 . S
C1432 H1421 0.950 . S
C1432 C1430 1.391 . S
C1432 C1433 1.400 . S
C1433 C1427 1.491 . S
C1433 C1432 1.400 . S
C1433 C1434 1.398 . S
C1434 H1422 0.950 . S
C1434 C1433 1.398 . S
C1434 C1435 1.391 . S
C1435 H1423 0.950 . S
C1435 C1431 1.393 . S
C1435 C1434 1.391 . S
H1436 C1444 0.950 . S
H1437 C1449 0.950 . S
H1438 C1446 0.950 . S
H1439 C1448 0.950 . S
H1440 C1450 0.950 . S
H1441 C1452 0.950 . S
H1442 C1454 0.950 . S
H1443 C1455 0.950 . S
C1444 H1436 0.950 . S
C1444 C1445 1.386 . S
C1444 C1446 1.391 . S
C1445 C1444 1.386 . S
C1445 C1449 1.393 . S
C1446 H1438 0.950 . S
C1446 C1444 1.391 . S
C1446 C1447 1.400 . S
C1447 C1446 1.400 . S
C1447 C1448 1.398 . S
C1447 C1453 1.491 . S
C1448 H1439 0.950 . S
C1448 C1447 1.398 . S
C1448 C1449 1.391 . S
C1449 H1437 0.950 . S
C1449 C1445 1.393 . S
C1449 C1448 1.391 . S
C1450 H1440 0.950 . S
C1450 C1451 1.386 . S
C1450 C1452 1.391 . S
C1451 C1450 1.386 . S
C1451 C1455 1.393 . S
C1452 H1441 0.950 . S
C1452 C1450 1.391 . S
C1452 C1453 1.400 . S
C1453 C1447 1.491 . S
C1453 C1452 1.400 . S
C1453 C1454 1.398 . S
C1454 H1442 0.950 . S
C1454 C1453 1.398 . S
C1454 C1455 1.391 . S
C1455 H1443 0.950 . S
C1455 C1451 1.393 . S
C1455 C1454 1.391 . S
H1456 C1464 0.950 . S
H1457 C1469 0.950 . S
H1458 C1466 0.950 . S
H1459 C1468 0.950 . S
H1460 C1470 0.950 . S
H1461 C1472 0.950 . S
H1462 C1474 0.950 . S
H1463 C1475 0.950 . S
C1464 H1456 0.950 . S
C1464 C1465 1.386 . S
C1464 C1466 1.391 . S
C1465 C1464 1.386 . S
C1465 C1469 1.393 . S
C1466 H1458 0.950 . S
C1466 C1464 1.391 . S
C1466 C1467 1.400 . S
C1467 C1466 1.400 . S
C1467 C1468 1.398 . S
C1467 C1473 1.491 . S
C1468 H1459 0.950 . S
C1468 C1467 1.398 . S
C1468 C1469 1.391 . S
C1469 H1457 0.950 . S
C1469 C1465 1.393 . S
C1469 C1468 1.391 . S
C1470 H1460 0.950 . S
C1470 C1471 1.386 . S
C1470 C1472 1.391 . S
C1471 C1470 1.386 . S
C1471 C1475 1.393 . S
C1472 H1461 0.950 . S
C1472 C1470 1.391 . S
C1472 C1473 1.400 . S
C1473 C1467 1.491 . S
C1473 C1472 1.400 . S
C1473 C1474 1.398 . S
C1474 H1462 0.950 . S
C1474 C1473 1.398 . S
C1474 C1475 1.391 . S
C1475 H1463 0.950 . S
C1475 C1471 1.393 . S
C1475 C1474 1.391 . S
H1476 C1484 0.950 . S
H1477 C1489 0.950 . S
H1478 C1486 0.950 . S
H1479 C1488 0.950 . S
H1480 C1490 0.950 . S
H1481 C1492 0.950 . S
H1482 C1494 0.950 . S
H1483 C1495 0.950 . S
C1484 H1476 0.950 . S
C1484 C1485 1.386 . S
C1484 C1486 1.391 . S
C1485 C1484 1.386 . S
C1485 C1489 1.393 . S
C1486 H1478 0.950 . S
C1486 C1484 1.391 . S
C1486 C1487 1.400 . S
C1487 C1486 1.400 . S
C1487 C1488 1.398 . S
C1487 C1493 1.491 . S
C1488 H1479 0.950 . S
C1488 C1487 1.398 . S
C1488 C1489 1.391 . S
C1489 H1477 0.950 . S
C1489 C1485 1.393 . S
C1489 C1488 1.391 . S
C1490 H1480 0.950 . S
C1490 C1491 1.386 . S
C1490 C1492 1.391 . S
C1491 C1490 1.386 . S
C1491 C1495 1.393 . S
C1492 H1481 0.950 . S
C1492 C1490 1.391 . S
C1492 C1493 1.400 . S
C1493 C1487 1.491 . S
C1493 C1492 1.400 . S
C1493 C1494 1.398 . S
C1494 H1482 0.950 . S
C1494 C1493 1.398 . S
C1494 C1495 1.391 . S
C1495 H1483 0.950 . S
C1495 C1491 1.393 . S
C1495 C1494 1.391 . S
H1496 C1504 0.950 . S
H1497 C1509 0.950 . S
H1498 C1506 0.950 . S
H1499 C1508 0.950 . S
H1500 C1510 0.950 . S
H1501 C1512 0.950 . S
H1502 C1514 0.950 . S
H1503 C1515 0.950 . S
C1504 H1496 0.950 . S
C1504 C1505 1.386 . S
C1504 C1506 1.391 . S
C1505 C1504 1.386 . S
C1505 C1509 1.393 . S
C1506 H1498 0.950 . S
C1506 C1504 1.391 . S
C1506 C1507 1.400 . S
C1507 C1506 1.400 . S
C1507 C1508 1.398 . S
C1507 C1513 1.491 . S
C1508 H1499 0.950 . S
C1508 C1507 1.398 . S
C1508 C1509 1.391 . S
C1509 H1497 0.950 . S
C1509 C1505 1.393 . S
C1509 C1508 1.391 . S
C1510 H1500 0.950 . S
C1510 C1511 1.386 . S
C1510 C1512 1.391 . S
C1511 C1510 1.386 . S
C1511 C1515 1.393 . S
C1512 H1501 0.950 . S
C1512 C1510 1.391 . S
C1512 C1513 1.400 . S
C1513 C1507 1.491 . S
C1513 C1512 1.400 . S
C1513 C1514 1.398 . S
C1514 H1502 0.950 . S
C1514 C1513 1.398 . S
C1514 C1515 1.391 . S
C1515 H1503 0.950 . S
C1515 C1511 1.393 . S
C1515 C1514 1.391 . S
H1516 C1524 0.950 . S
H1517 C1529 0.950 . S
H1518 C1526 0.950 . S
H1519 C1528 0.950 . S
H1520 C1530 0.950 . S
H1521 C1532 0.950 . S
H1522 C1534 0.950 . S
H1523 C1535 0.950 . S
C1524 H1516 0.950 . S
C1524 C1525 1.386 . S
C1524 C1526 1.391 . S
C1525 C1524 1.386 . S
C1525 C1529 1.393 . S
C1526 H1518 0.950 . S
C1526 C1524 1.391 . S
C1526 C1527 1.400 . S
C1527 C1526 1.400 . S
C1527 C1528 1.398 . S
C1527 C1533 1.491 . S
C1528 H1519 0.950 . S
C1528 C1527 1.398 . S
C1528 C1529 1.391 . S
C1529 H1517 0.950 . S
C1529 C1525 1.393 . S
C1529 C1528 1.391 . S
C1530 H1520 0.950 . S
C1530 C1531 1.386 . S
C1530 C1532 1.391 . S
C1531 C1530 1.386 . S
C1531 C1535 1.393 . S
C1532 H1521 0.950 . S
C1532 C1530 1.391 . S
C1532 C1533 1.400 . S
C1533 C1527 1.491 . S
C1533 C1532 1.400 . S
C1533 C1534 1.398 . S
C1534 H1522 0.950 . S
C1534 C1533 1.398 . S
C1534 C1535 1.391 . S
C1535 H1523 0.950 . S
C1535 C1531 1.393 . S
C1535 C1534 1.391 . S
H1536 C1544 0.950 . S
H1537 C1549 0.950 . S
H1538 C1546 0.950 . S
H1539 C1548 0.950 . S
H1540 C1550 0.950 . S
H1541 C1552 0.950 . S
H1542 C1554 0.950 . S
H1543 C1555 0.950 . S
C1544 H1536 0.950 . S
C1544 C1545 1.386 . S
C1544 C1546 1.391 . S
C1545 C1544 1.386 . S
C1545 C1549 1.393 . S
C1546 H1538 0.950 . S
C1546 C1544 1.391 . S
C1546 C1547 1.400 . S
C1547 C1546 1.400 . S
C1547 C1548 1.398 . S
C1547 C1553 1.491 . S
C1548 H1539 0.950 . S
C1548 C1547 1.398 . S
C1548 C1549 1.391 . S
C1549 H1537 0.950 . S
C1549 C1545 1.393 . S
C1549 C1548 1.391 . S
C1550 H1540 0.950 . S
C1550 C1551 1.386 . S
C1550 C1552 1.391 . S
C1551 C1550 1.386 . S
C1551 C1555 1.393 . S
C1552 H1541 0.950 . S
C1552 C1550 1.391 . S
C1552 C1553 1.400 . S
C1553 C1547 1.491 . S
C1553 C1552 1.400 . S
C1553 C1554 1.398 . S
C1554 H1542 0.950 . S
C1554 C1553 1.398 . S
C1554 C1555 1.391 . S
C1555 H1543 0.950 . S
C1555 C1551 1.393 . S
C1555 C1554 1.391 . S
H1556 C1564 0.950 . S
H1557 C1569 0.950 . S
H1558 C1566 0.950 . S
H1559 C1568 0.950 . S
H1560 C1570 0.950 . S
H1561 C1572 0.950 . S
H1562 C1574 0.950 . S
H1563 C1575 0.950 . S
C1564 H1556 0.950 . S
C1564 C1565 1.386 . S
C1564 C1566 1.391 . S
C1565 C1564 1.386 . S
C1565 C1569 1.393 . S
C1566 H1558 0.950 . S
C1566 C1564 1.391 . S
C1566 C1567 1.400 . S
C1567 C1566 1.400 . S
C1567 C1568 1.398 . S
C1567 C1573 1.491 . S
C1568 H1559 0.950 . S
C1568 C1567 1.398 . S
C1568 C1569 1.391 . S
C1569 H1557 0.950 . S
C1569 C1565 1.393 . S
C1569 C1568 1.391 . S
C1570 H1560 0.950 . S
C1570 C1571 1.386 . S
C1570 C1572 1.391 . S
C1571 C1570 1.386 . S
C1571 C1575 1.393 . S
C1572 H1561 0.950 . S
C1572 C1570 1.391 . S
C1572 C1573 1.400 . S
C1573 C1567 1.491 . S
C1573 C1572 1.400 . S
C1573 C1574 1.398 . S
C1574 H1562 0.950 . S
C1574 C1573 1.398 . S
C1574 C1575 1.391 . S
C1575 H1563 0.950 . S
C1575 C1571 1.393 . S
C1575 C1574 1.391 . S
H1576 C1584 0.950 . S
H1577 C1589 0.950 . S
H1578 C1586 0.950 . S
H1579 C1588 0.950 . S
H1580 C1590 0.950 . S
H1581 C1592 0.950 . S
H1582 C1594 0.950 . S
H1583 C1595 0.950 . S
C1584 H1576 0.950 . S
C1584 C1585 1.386 . S
C1584 C1586 1.391 . S
C1585 C1584 1.386 . S
C1585 C1589 1.393 . S
C1586 H1578 0.950 . S
C1586 C1584 1.391 . S
C1586 C1587 1.400 . S
C1587 C1586 1.400 . S
C1587 C1588 1.398 . S
C1587 C1593 1.491 . S
C1588 H1579 0.950 . S
C1588 C1587 1.398 . S
C1588 C1589 1.391 . S
C1589 H1577 0.950 . S
C1589 C1585 1.393 . S
C1589 C1588 1.391 . S
C1590 H1580 0.950 . S
C1590 C1591 1.386 . S
C1590 C1592 1.391 . S
C1591 C1590 1.386 . S
C1591 C1595 1.393 . S
C1592 H1581 0.950 . S
C1592 C1590 1.391 . S
C1592 C1593 1.400 . S
C1593 C1587 1.491 . S
C1593 C1592 1.400 . S
C1593 C1594 1.398 . S
C1594 H1582 0.950 . S
C1594 C1593 1.398 . S
C1594 C1595 1.391 . S
C1595 H1583 0.950 . S
C1595 C1591 1.393 . S
C1595 C1594 1.391 . S
H1596 C1604 0.950 . S
H1597 C1609 0.950 . S
H1598 C1606 0.950 . S
H1599 C1608 0.950 . S
H1600 C1610 0.950 . S
H1601 C1612 0.950 . S
H1602 C1614 0.950 . S
H1603 C1615 0.950 . S
C1604 H1596 0.950 . S
C1604 C1605 1.386 . S
C1604 C1606 1.391 . S
C1605 C1604 1.386 . S
C1605 C1609 1.393 . S
C1606 H1598 0.950 . S
C1606 C1604 1.391 . S
C1606 C1607 1.400 . S
C1607 C1606 1.400 . S
C1607 C1608 1.398 . S
C1607 C1613 1.491 . S
C1608 H1599 0.950 . S
C1608 C1607 1.398 . S
C1608 C1609 1.391 . S
C1609 H1597 0.950 . S
C1609 C1605 1.393 . S
C1609 C1608 1.391 . S
C1610 H1600 0.950 . S
C1610 C1611 1.386 . S
C1610 C1612 1.391 . S
C1611 C1610 1.386 . S
C1611 C1615 1.393 . S
C1612 H1601 0.950 . S
C1612 C1610 1.391 . S
C1612 C1613 1.400 . S
C1613 C1607 1.491 . S
C1613 C1612 1.400 . S
C1613 C1614 1.398 . S
C1614 H1602 0.950 . S
C1614 C1613 1.398 . S
C1614 C1615 1.391 . S
C1615 H1603 0.950 . S
C1615 C1611 1.393 . S
C1615 C1614 1.391 . S
H1616 C1624 0.950 . S
H1617 C1629 0.950 . S
H1618 C1626 0.950 . S
H1619 C1628 0.950 . S
H1620 C1630 0.950 . S
H1621 C1632 0.950 . S
H1622 C1634 0.950 . S
H1623 C1635 0.950 . S
C1624 H1616 0.950 . S
C1624 C1625 1.386 . S
C1624 C1626 1.391 . S
C1625 C1624 1.386 . S
C1625 C1629 1.393 . S
C1626 H1618 0.950 . S
C1626 C1624 1.391 . S
C1626 C1627 1.400 . S
C1627 C1626 1.400 . S
C1627 C1628 1.398 . S
C1627 C1633 1.491 . S
C1628 H1619 0.950 . S
C1628 C1627 1.398 . S
C1628 C1629 1.391 . S
C1629 H1617 0.950 . S
C1629 C1625 1.393 . S
C1629 C1628 1.391 . S
C1630 H1620 0.950 . S
C1630 C1631 1.386 . S
C1630 C1632 1.391 . S
C1631 C1630 1.386 . S
C1631 C1635 1.393 . S
C1632 H1621 0.950 . S
C1632 C1630 1.391 . S
C1632 C1633 1.400 . S
C1633 C1627 1.491 . S
C1633 C1632 1.400 . S
C1633 C1634 1.398 . S
C1634 H1622 0.950 . S
C1634 C1633 1.398 . S
C1634 C1635 1.391 . S
C1635 H1623 0.950 . S
C1635 C1631 1.393 . S
C1635 C1634 1.391 . S
H1636 C1644 0.950 . S
H1637 C1649 0.950 . S
H1638 C1646 0.950 . S
H1639 C1648 0.950 . S
H1640 C1650 0.950 . S
H1641 C1652 0.950 . S
H1642 C1654 0.950 . S
H1643 C1655 0.950 . S
C1644 H1636 0.950 . S
C1644 C1645 1.386 . S
C1644 C1646 1.391 . S
C1645 C1644 1.386 . S
C1645 C1649 1.393 . S
C1646 H1638 0.950 . S
C1646 C1644 1.391 . S
C1646 C1647 1.400 . S
C1647 C1646 1.400 . S
C1647 C1648 1.398 . S
C1647 C1653 1.491 . S
C1648 H1639 0.950 . S
C1648 C1647 1.398 . S
C1648 C1649 1.391 . S
C1649 H1637 0.950 . S
C1649 C1645 1.393 . S
C1649 C1648 1.391 . S
C1650 H1640 0.950 . S
C1650 C1651 1.386 . S
C1650 C1652 1.391 . S
C1651 C1650 1.386 . S
C1651 C1655 1.393 . S
C1652 H1641 0.950 . S
C1652 C1650 1.391 . S
C1652 C1653 1.400 . S
C1653 C1647 1.491 . S
C1653 C1652 1.400 . S
C1653 C1654 1.398 . S
C1654 H1642 0.950 . S
C1654 C1653 1.398 . S
C1654 C1655 1.391 . S
C1655 H1643 0.950 . S
C1655 C1651 1.393 . S
C1655 C1654 1.391 . S
H1656 C1664 0.950 . S
H1657 C1669 0.950 . S
H1658 C1666 0.950 . S
H1659 C1668 0.950 . S
H1660 C1670 0.950 . S
H1661 C1672 0.950 . S
H1662 C1674 0.950 . S
H1663 C1675 0.950 . S
C1664 H1656 0.950 . S
C1664 C1665 1.386 . S
C1664 C1666 1.391 . S
C1665 C1664 1.386 . S
C1665 C1669 1.393 . S
C1666 H1658 0.950 . S
C1666 C1664 1.391 . S
C1666 C1667 1.400 . S
C1667 C1666 1.400 . S
C1667 C1668 1.398 . S
C1667 C1673 1.491 . S
C1668 H1659 0.950 . S
C1668 C1667 1.398 . S
C1668 C1669 1.391 . S
C1669 H1657 0.950 . S
C1669 C1665 1.393 . S
C1669 C1668 1.391 . S
C1670 H1660 0.950 . S
C1670 C1671 1.386 . S
C1670 C1672 1.391 . S
C1671 C1670 1.386 . S
C1671 C1675 1.393 . S
C1672 H1661 0.950 . S
C1672 C1670 1.391 . S
C1672 C1673 1.400 . S
C1673 C1667 1.491 . S
C1673 C1672 1.400 . S
C1673 C1674 1.398 . S
C1674 H1662 0.950 . S
C1674 C1673 1.398 . S
C1674 C1675 1.391 . S
C1675 H1663 0.950 . S
C1675 C1671 1.393 . S
C1675 C1674 1.391 . S
H1676 C1684 0.950 . S
H1677 C1689 0.950 . S
H1678 C1686 0.950 . S
H1679 C1688 0.950 . S
H1680 C1690 0.950 . S
H1681 C1692 0.950 . S
H1682 C1694 0.950 . S
H1683 C1695 0.950 . S
C1684 H1676 0.950 . S
C1684 C1685 1.386 . S
C1684 C1686 1.391 . S
C1685 C1684 1.386 . S
C1685 C1689 1.393 . S
C1686 H1678 0.950 . S
C1686 C1684 1.391 . S
C1686 C1687 1.400 . S
C1687 C1686 1.400 . S
C1687 C1688 1.398 . S
C1687 C1693 1.491 . S
C1688 H1679 0.950 . S
C1688 C1687 1.398 . S
C1688 C1689 1.391 . S
C1689 H1677 0.950 . S
C1689 C1685 1.393 . S
C1689 C1688 1.391 . S
C1690 H1680 0.950 . S
C1690 C1691 1.386 . S
C1690 C1692 1.391 . S
C1691 C1690 1.386 . S
C1691 C1695 1.393 . S
C1692 H1681 0.950 . S
C1692 C1690 1.391 . S
C1692 C1693 1.400 . S
C1693 C1687 1.491 . S
C1693 C1692 1.400 . S
C1693 C1694 1.398 . S
C1694 H1682 0.950 . S
C1694 C1693 1.398 . S
C1694 C1695 1.391 . S
C1695 H1683 0.950 . S
C1695 C1691 1.393 . S
C1695 C1694 1.391 . S
C425 C382 1.349 . S
C431 C5 1.360 . S
C445 C18 1.355 . S
C451 C395 1.354 . S
C465 C408 1.355 . S
C471 C31 1.355 . S
C485 C369 1.363 . S
C491 C44 1.346 . S
C505 C57 1.368 . S
C511 C356 1.341 . S
C525 C317 1.361 . S
C531 C70 1.348 . S
C545 C83 1.368 . S
C551 C330 1.341 . S
C565 C343 1.343 . S
C571 C96 1.366 . S
C585 C109 1.347 . S
C591 C278 1.363 . S
C605 C122 1.348 . S
C611 C291 1.361 . S
C625 C304 1.346 . S
C631 C135 1.363 . S
C645 C148 1.342 . S
C651 C265 1.368 . S
C665 C252 1.358 . S
C671 C161 1.352 . S
C685 C213 1.366 . S
C691 C174 1.343 . S
C705 C187 1.367 . S
C711 C226 1.342 . S
C725 C200 1.358 . S
C731 C239 1.352 . S
C745 C10 1.387 . S
C751 C140 1.386 . S
C765 C153 1.381 . S
C771 C23 1.392 . S
C785 C114 1.381 . S
C791 C36 1.392 . S
C805 C127 1.392 . S
C811 C49 1.381 . S
C825 C62 1.385 . S
C831 C192 1.389 . S
C845 C205 1.383 . S
C851 C75 1.390 . S
C865 C166 1.393 . S
C871 C88 1.381 . S
C885 C179 1.392 . S
C891 C101 1.381 . S
C905 C218 1.392 . S
C911 C348 1.381 . S
C925 C361 1.380 . S
C931 C231 1.393 . S
C945 C322 1.382 . S
C951 C244 1.391 . S
C965 C257 1.392 . S
C971 C335 1.382 . S
C985 C270 1.392 . S
C991 C400 1.382 . S
C1005 C413 1.380 . S
C1011 C283 1.393 . S
C1025 C374 1.390 . S
C1031 C296 1.384 . S
C1045 C309 1.383 . S
C1051 C387 1.390 . S
C1065 C0 1.211 . S
C1071 C52 1.207 . S
C1085 C13 1.217 . S
C1091 C65 1.216 . S
C1105 C78 1.197 . S
C1111 C26 1.195 . S
C1125 C39 1.217 . S
C1131 C91 1.217 . S
C1145 C104 1.206 . S
C1151 C156 1.203 . S
C1165 C169 1.195 . S
C1171 C117 1.195 . S
C1185 C182 1.208 . S
C1191 C130 1.212 . S
C1205 C143 1.214 . S
C1211 C195 1.216 . S
C1225 C208 1.205 . S
C1231 C260 1.202 . S
C1245 C273 1.213 . S
C1251 C221 1.210 . S
C1265 C234 1.197 . S
C1271 C286 1.195 . S
C1285 C299 1.217 . S
C1291 C247 1.217 . S
C1305 C364 1.195 . S
C1311 C312 1.196 . S
C1325 C325 1.198 . S
C1331 C377 1.196 . S
C1345 C338 1.206 . S
C1351 C390 1.203 . S
C1365 C351 1.200 . S
C1371 C403 1.197 . S
C1385 C8 1.401 . S
C1391 C73 1.391 . S
C1405 C21 1.399 . S
C1411 C86 1.393 . S
C1425 C99 1.411 . S
C1431 C34 1.383 . S
C1445 C60 1.388 . S
C1451 C47 1.405 . S
C1465 C177 1.396 . S
C1471 C112 1.401 . S
C1485 C190 1.388 . S
C1491 C125 1.408 . S
C1505 C203 1.412 . S
C1511 C138 1.383 . S
C1525 C151 1.412 . S
C1531 C164 1.383 . S
C1545 C216 1.386 . S
C1551 C281 1.407 . S
C1565 C294 1.401 . S
C1571 C229 1.391 . S
C1585 C307 1.407 . S
C1591 C242 1.386 . S
C1605 C255 1.383 . S
C1611 C268 1.411 . S
C1625 C385 1.385 . S
C1631 C320 1.408 . S
C1645 C333 1.388 . S
C1651 C398 1.404 . S
C1665 C346 1.393 . S
C1671 C411 1.404 . S
C1685 C372 1.404 . S
C1691 C359 1.393 . S
