# Generated by pormake.
# Topology vce, (5)-cn, num edge types: 1
# Building blocks:
#     Node 0, Type 0, BuildingBlock: XOMCOT_clean_sbu_1, # of connection points: 5
#     Node 1, Type 0, BuildingBlock: XOMCOT_clean_sbu_1, # of connection points: 5
#     Node 2, Type 0, BuildingBlock: XOMCOT_clean_sbu_1, # of connection points: 5
#     Node 3, Type 0, BuildingBlock: XOMCOT_clean_sbu_1, # of connection points: 5
#     Node 4, Type 0, BuildingBlock: XOMCOT_clean_sbu_1, # of connection points: 5
#     Node 5, Type 0, BuildingBlock: XOMCOT_clean_sbu_1, # of connection points: 5
#     Node 6, Type 0, BuildingBlock: XOMCOT_clean_sbu_1, # of connection points: 5
#     Node 7, Type 0, BuildingBlock: XOMCOT_clean_sbu_1, # of connection points: 5
#     Node 8, Type 0, BuildingBlock: XOMCOT_clean_sbu_1, # of connection points: 5
#     Node 9, Type 0, BuildingBlock: XOMCOT_clean_sbu_1, # of connection points: 5
#     Node 10, Type 0, BuildingBlock: XOMCOT_clean_sbu_1, # of connection points: 5
#     Node 11, Type 0, BuildingBlock: XOMCOT_clean_sbu_1, # of connection points: 5
#     Node 12, Type 0, BuildingBlock: XOMCOT_clean_sbu_1, # of connection points: 5
#     Node 13, Type 0, BuildingBlock: XOMCOT_clean_sbu_1, # of connection points: 5
#     Node 14, Type 0, BuildingBlock: XOMCOT_clean_sbu_1, # of connection points: 5
#     Node 15, Type 0, BuildingBlock: XOMCOT_clean_sbu_1, # of connection points: 5
#     Node 16, Type 0, BuildingBlock: XOMCOT_clean_sbu_1, # of connection points: 5
#     Node 17, Type 0, BuildingBlock: XOMCOT_clean_sbu_1, # of connection points: 5
#     Node 18, Type 0, BuildingBlock: XOMCOT_clean_sbu_1, # of connection points: 5
#     Node 19, Type 0, BuildingBlock: XOMCOT_clean_sbu_1, # of connection points: 5
#     Node 20, Type 0, BuildingBlock: XOMCOT_clean_sbu_1, # of connection points: 5
#     Node 21, Type 0, BuildingBlock: XOMCOT_clean_sbu_1, # of connection points: 5
#     Node 22, Type 0, BuildingBlock: XOMCOT_clean_sbu_1, # of connection points: 5
#     Node 23, Type 0, BuildingBlock: XOMCOT_clean_sbu_1, # of connection points: 5
#     Node 24, Type 0, BuildingBlock: XOMCOT_clean_sbu_1, # of connection points: 5
#     Node 25, Type 0, BuildingBlock: XOMCOT_clean_sbu_1, # of connection points: 5
#     Node 26, Type 0, BuildingBlock: XOMCOT_clean_sbu_1, # of connection points: 5
#     Node 27, Type 0, BuildingBlock: XOMCOT_clean_sbu_1, # of connection points: 5
#     Node 28, Type 0, BuildingBlock: XOMCOT_clean_sbu_1, # of connection points: 5
#     Node 29, Type 0, BuildingBlock: XOMCOT_clean_sbu_1, # of connection points: 5
#     Node 30, Type 0, BuildingBlock: XOMCOT_clean_sbu_1, # of connection points: 5
#     Node 31, Type 0, BuildingBlock: XOMCOT_clean_sbu_1, # of connection points: 5
#     Edge 32, Type (0, 0), BuildingBlock: KIFKEQ_clean_linker_1, # of connection points: 2
#     Edge 33, Type (0, 0), BuildingBlock: KIFKEQ_clean_linker_1, # of connection points: 2
#     Edge 34, Type (0, 0), BuildingBlock: KIFKEQ_clean_linker_1, # of connection points: 2
#     Edge 35, Type (0, 0), BuildingBlock: KIFKEQ_clean_linker_1, # of connection points: 2
#     Edge 36, Type (0, 0), BuildingBlock: KIFKEQ_clean_linker_1, # of connection points: 2
#     Edge 37, Type (0, 0), BuildingBlock: KIFKEQ_clean_linker_1, # of connection points: 2
#     Edge 38, Type (0, 0), BuildingBlock: KIFKEQ_clean_linker_1, # of connection points: 2
#     Edge 39, Type (0, 0), BuildingBlock: KIFKEQ_clean_linker_1, # of connection points: 2
#     Edge 40, Type (0, 0), BuildingBlock: KIFKEQ_clean_linker_1, # of connection points: 2
#     Edge 41, Type (0, 0), BuildingBlock: KIFKEQ_clean_linker_1, # of connection points: 2
#     Edge 42, Type (0, 0), BuildingBlock: KIFKEQ_clean_linker_1, # of connection points: 2
#     Edge 43, Type (0, 0), BuildingBlock: KIFKEQ_clean_linker_1, # of connection points: 2
#     Edge 44, Type (0, 0), BuildingBlock: KIFKEQ_clean_linker_1, # of connection points: 2
#     Edge 45, Type (0, 0), BuildingBlock: KIFKEQ_clean_linker_1, # of connection points: 2
#     Edge 46, Type (0, 0), BuildingBlock: KIFKEQ_clean_linker_1, # of connection points: 2
#     Edge 47, Type (0, 0), BuildingBlock: KIFKEQ_clean_linker_1, # of connection points: 2
#     Edge 48, Type (0, 0), BuildingBlock: KIFKEQ_clean_linker_1, # of connection points: 2
#     Edge 49, Type (0, 0), BuildingBlock: KIFKEQ_clean_linker_1, # of connection points: 2
#     Edge 50, Type (0, 0), BuildingBlock: KIFKEQ_clean_linker_1, # of connection points: 2
#     Edge 51, Type (0, 0), BuildingBlock: KIFKEQ_clean_linker_1, # of connection points: 2
#     Edge 52, Type (0, 0), BuildingBlock: KIFKEQ_clean_linker_1, # of connection points: 2
#     Edge 53, Type (0, 0), BuildingBlock: KIFKEQ_clean_linker_1, # of connection points: 2
#     Edge 54, Type (0, 0), BuildingBlock: KIFKEQ_clean_linker_1, # of connection points: 2
#     Edge 55, Type (0, 0), BuildingBlock: KIFKEQ_clean_linker_1, # of connection points: 2
#     Edge 56, Type (0, 0), BuildingBlock: KIFKEQ_clean_linker_1, # of connection points: 2
#     Edge 57, Type (0, 0), BuildingBlock: KIFKEQ_clean_linker_1, # of connection points: 2
#     Edge 58, Type (0, 0), BuildingBlock: KIFKEQ_clean_linker_1, # of connection points: 2
#     Edge 59, Type (0, 0), BuildingBlock: KIFKEQ_clean_linker_1, # of connection points: 2
#     Edge 60, Type (0, 0), BuildingBlock: KIFKEQ_clean_linker_1, # of connection points: 2
#     Edge 61, Type (0, 0), BuildingBlock: KIFKEQ_clean_linker_1, # of connection points: 2
#     Edge 62, Type (0, 0), BuildingBlock: KIFKEQ_clean_linker_1, # of connection points: 2
#     Edge 63, Type (0, 0), BuildingBlock: KIFKEQ_clean_linker_1, # of connection points: 2
#     Edge 64, Type (0, 0), BuildingBlock: KIFKEQ_clean_linker_1, # of connection points: 2
#     Edge 65, Type (0, 0), BuildingBlock: KIFKEQ_clean_linker_1, # of connection points: 2
#     Edge 66, Type (0, 0), BuildingBlock: KIFKEQ_clean_linker_1, # of connection points: 2
#     Edge 67, Type (0, 0), BuildingBlock: KIFKEQ_clean_linker_1, # of connection points: 2
#     Edge 68, Type (0, 0), BuildingBlock: KIFKEQ_clean_linker_1, # of connection points: 2
#     Edge 69, Type (0, 0), BuildingBlock: KIFKEQ_clean_linker_1, # of connection points: 2
#     Edge 70, Type (0, 0), BuildingBlock: KIFKEQ_clean_linker_1, # of connection points: 2
#     Edge 71, Type (0, 0), BuildingBlock: KIFKEQ_clean_linker_1, # of connection points: 2
#     Edge 72, Type (0, 0), BuildingBlock: KIFKEQ_clean_linker_1, # of connection points: 2
#     Edge 73, Type (0, 0), BuildingBlock: KIFKEQ_clean_linker_1, # of connection points: 2
#     Edge 74, Type (0, 0), BuildingBlock: KIFKEQ_clean_linker_1, # of connection points: 2
#     Edge 75, Type (0, 0), BuildingBlock: KIFKEQ_clean_linker_1, # of connection points: 2
#     Edge 76, Type (0, 0), BuildingBlock: KIFKEQ_clean_linker_1, # of connection points: 2
#     Edge 77, Type (0, 0), BuildingBlock: KIFKEQ_clean_linker_1, # of connection points: 2
#     Edge 78, Type (0, 0), BuildingBlock: KIFKEQ_clean_linker_1, # of connection points: 2
#     Edge 79, Type (0, 0), BuildingBlock: KIFKEQ_clean_linker_1, # of connection points: 2
#     Edge 80, Type (0, 0), BuildingBlock: KIFKEQ_clean_linker_1, # of connection points: 2
#     Edge 81, Type (0, 0), BuildingBlock: KIFKEQ_clean_linker_1, # of connection points: 2
#     Edge 82, Type (0, 0), BuildingBlock: KIFKEQ_clean_linker_1, # of connection points: 2
#     Edge 83, Type (0, 0), BuildingBlock: KIFKEQ_clean_linker_1, # of connection points: 2
#     Edge 84, Type (0, 0), BuildingBlock: KIFKEQ_clean_linker_1, # of connection points: 2
#     Edge 85, Type (0, 0), BuildingBlock: KIFKEQ_clean_linker_1, # of connection points: 2
#     Edge 86, Type (0, 0), BuildingBlock: KIFKEQ_clean_linker_1, # of connection points: 2
#     Edge 87, Type (0, 0), BuildingBlock: KIFKEQ_clean_linker_1, # of connection points: 2
#     Edge 88, Type (0, 0), BuildingBlock: KIFKEQ_clean_linker_1, # of connection points: 2
#     Edge 89, Type (0, 0), BuildingBlock: KIFKEQ_clean_linker_1, # of connection points: 2
#     Edge 90, Type (0, 0), BuildingBlock: KIFKEQ_clean_linker_1, # of connection points: 2
#     Edge 91, Type (0, 0), BuildingBlock: KIFKEQ_clean_linker_1, # of connection points: 2
#     Edge 92, Type (0, 0), BuildingBlock: KIFKEQ_clean_linker_1, # of connection points: 2
#     Edge 93, Type (0, 0), BuildingBlock: KIFKEQ_clean_linker_1, # of connection points: 2
#     Edge 94, Type (0, 0), BuildingBlock: KIFKEQ_clean_linker_1, # of connection points: 2
#     Edge 95, Type (0, 0), BuildingBlock: KIFKEQ_clean_linker_1, # of connection points: 2
#     Edge 96, Type (0, 0), BuildingBlock: KIFKEQ_clean_linker_1, # of connection points: 2
#     Edge 97, Type (0, 0), BuildingBlock: KIFKEQ_clean_linker_1, # of connection points: 2
#     Edge 98, Type (0, 0), BuildingBlock: KIFKEQ_clean_linker_1, # of connection points: 2
#     Edge 99, Type (0, 0), BuildingBlock: KIFKEQ_clean_linker_1, # of connection points: 2
#     Edge 100, Type (0, 0), BuildingBlock: KIFKEQ_clean_linker_1, # of connection points: 2
#     Edge 101, Type (0, 0), BuildingBlock: KIFKEQ_clean_linker_1, # of connection points: 2
#     Edge 102, Type (0, 0), BuildingBlock: KIFKEQ_clean_linker_1, # of connection points: 2
#     Edge 103, Type (0, 0), BuildingBlock: KIFKEQ_clean_linker_1, # of connection points: 2
#     Edge 104, Type (0, 0), BuildingBlock: KIFKEQ_clean_linker_1, # of connection points: 2
#     Edge 105, Type (0, 0), BuildingBlock: KIFKEQ_clean_linker_1, # of connection points: 2
#     Edge 106, Type (0, 0), BuildingBlock: KIFKEQ_clean_linker_1, # of connection points: 2
#     Edge 107, Type (0, 0), BuildingBlock: KIFKEQ_clean_linker_1, # of connection points: 2
#     Edge 108, Type (0, 0), BuildingBlock: KIFKEQ_clean_linker_1, # of connection points: 2
#     Edge 109, Type (0, 0), BuildingBlock: KIFKEQ_clean_linker_1, # of connection points: 2
#     Edge 110, Type (0, 0), BuildingBlock: KIFKEQ_clean_linker_1, # of connection points: 2
#     Edge 111, Type (0, 0), BuildingBlock: KIFKEQ_clean_linker_1, # of connection points: 2
# Relax obj value: 0.149
# Max RMSD: 0.171
# Mean RMSD: 0.171
data_MOF--net-vce--node1-XOMCOT_clean_sbu_1--edge1-KIFKEQ_clean_linker_1
_symmetry_space_group_name_H-M    P1
_symmetry_Int_Tables_number       1
_symmetry_cell_setting            triclinic
loop_
_symmetry_equiv_pos_as_xyz
'x, y, z'
_cell_length_a     49.19119
_cell_length_b     127.81527
_cell_length_c     27.103154
_cell_angle_alpha  89.872954
_cell_angle_beta   90.029494
_cell_angle_gamma 90.049045
loop_
_atom_site_label
_atom_site_type_symbol
_atom_site_fract_x
_atom_site_fract_y
_atom_site_fract_z
_atom_type_partial_charge
C0 C 0.0047 0.24237 0.43294 0.0
C1 C -0.00479 0.25138 0.41137 0.0
N2 N 0.013 0.25446 0.37638 0.0
N3 N 0.02852 0.23963 0.41206 0.0
C4 C 0.0331 0.24717 0.37764 0.0
H5 H -0.00565 0.23784 0.46101 0.0
Co6 Co 0.04719 0.22706 0.42838 0.0
C7 C 0.06406 0.22203 0.32457 0.0
O8 O 0.0483 0.21373 0.32378 0.0
N9 N 0.06615 0.21453 0.44659 0.0
C10 C 0.0818 0.20222 0.49769 0.0
C11 C 0.06999 0.21193 0.4944 0.0
C12 C 0.07656 0.20625 0.42159 0.0
N13 N 0.08587 0.19854 0.45174 0.0
O14 O 0.07565 0.23497 0.46017 0.0
H15 H 0.06333 0.21658 0.52534 0.0
H16 H 0.07736 0.20577 0.38216 0.0
O17 O 0.06577 0.2276 0.36371 0.0
C18 C 0.06674 0.2378 0.50249 0.0
O19 O 0.04098 0.23612 0.51242 0.0
N20 N 0.01728 0.21928 0.40439 0.0
C21 C 0.96401 0.21207 0.39675 0.0
C22 C 0.97491 0.21861 0.36014 0.0
C23 C 0.00167 0.22221 0.36484 0.0
C24 C 0.00724 0.21236 0.4382 0.0
C25 C 0.98098 0.2085 0.43447 0.0
H26 H 0.00898 0.22803 0.33905 0.0
H27 H 0.01834 0.21056 0.47135 0.0
H28 H 0.05059 0.24725 0.35353 0.0
H29 H 0.97604 0.25513 0.41964 0.0
H30 H 0.086 0.19807 0.53166 0.0
H31 H 0.96222 0.22165 0.33078 0.0
H32 H 0.97322 0.20347 0.46349 0.0
C33 C 0.21505 0.08085 0.40558 0.0
C34 C 0.22414 0.07078 0.39761 0.0
N35 N 0.21136 0.06688 0.35757 0.0
N36 N 0.19672 0.0834 0.37057 0.0
C37 C 0.19425 0.0746 0.34302 0.0
H38 H 0.22298 0.08626 0.43266 0.0
Co39 Co 0.18339 0.09709 0.3569 0.0
C40 C 0.17791 0.09183 0.24806 0.0
O41 O 0.20199 0.09563 0.23767 0.0
N42 N 0.16902 0.11079 0.34251 0.0
C43 C 0.15891 0.12521 0.29988 0.0
C44 C 0.16839 0.11518 0.29712 0.0
C45 C 0.15963 0.11854 0.3725 0.0
N46 N 0.15365 0.12746 0.34736 0.0
O47 O 0.15054 0.09342 0.39071 0.0
H48 H 0.17549 0.11163 0.26367 0.0
H49 H 0.15845 0.11786 0.41219 0.0
O50 O 0.16879 0.09221 0.29239 0.0
C51 C 0.15651 0.09601 0.43503 0.0
O52 O 0.18005 0.10057 0.44315 0.0
N53 N 0.21836 0.10105 0.33251 0.0
C54 C 0.27356 0.10343 0.35342 0.0
C55 C 0.26437 0.09487 0.32578 0.0
C56 C 0.23673 0.09388 0.31525 0.0
C57 C 0.22777 0.11009 0.35349 0.0
C58 C 0.25528 0.11152 0.36322 0.0
H59 H 0.23006 0.08664 0.29893 0.0
H60 H 0.21411 0.11572 0.36936 0.0
H61 H 0.1814 0.07405 0.31084 0.0
H62 H 0.24041 0.06696 0.41758 0.0
H63 H 0.15653 0.13048 0.26891 0.0
H64 H 0.27768 0.0884 0.31696 0.0
H65 H 0.26162 0.11846 0.38302 0.0
C66 C 0.00631 0.07947 0.83108 0.0
C67 C -0.00477 0.07049 0.84994 0.0
N68 N 0.01231 0.06647 0.88402 0.0
N69 N 0.0305 0.08136 0.85264 0.0
C70 C 0.03371 0.07327 0.88489 0.0
H71 H -0.00345 0.08467 0.805 0.0
Co72 Co 0.04901 0.09422 0.83955 0.0
C73 C 0.06848 0.09828 0.94208 0.0
O74 O 0.05333 0.10672 0.94384 0.0
N75 N 0.06707 0.10708 0.82339 0.0
C76 C 0.07937 0.11997 0.77232 0.0
C77 C 0.06833 0.11013 0.77571 0.0
C78 C 0.07831 0.11526 0.84819 0.0
N79 N 0.08552 0.1233 0.81806 0.0
O80 O 0.07671 0.08691 0.80269 0.0
H81 H 0.06018 0.10571 0.74515 0.0
H82 H 0.08117 0.11549 0.8874 0.0
O83 O 0.06939 0.09281 0.90243 0.0
C84 C 0.06726 0.08432 0.7604 0.0
O85 O 0.04124 0.08575 0.75205 0.0
N86 N 0.01997 0.10144 0.86941 0.0
C87 C 0.96551 0.10596 0.88255 0.0
C88 C 0.9791 0.09965 0.91674 0.0
C89 C 0.00651 0.09747 0.90953 0.0
C90 C 0.00759 0.10863 0.83962 0.0
C91 C 0.98035 0.11115 0.84611 0.0
H92 H 0.01586 0.09158 0.9326 0.0
H93 H 0.01744 0.11143 0.80665 0.0
H94 H 0.05087 0.07261 0.90965 0.0
H95 H 0.9753 0.06752 0.84066 0.0
H96 H 0.08126 0.1245 0.73875 0.0
H97 H 0.96796 0.09544 0.94498 0.0
H98 H 0.9702 0.11591 0.81858 0.0
C99 C 0.2266 0.23654 0.88795 0.0
C100 C 0.23755 0.24641 0.89242 0.0
N101 N 0.21799 0.25303 0.90804 0.0
N102 N 0.20034 0.23674 0.90203 0.0
C103 C 0.19531 0.24699 0.91081 0.0
H104 H 0.23765 0.22951 0.87849 0.0
Co105 Co 0.17786 0.2248 0.91234 0.0
C106 C 0.16438 0.2375 0.00778 0.0
O107 O 0.18551 0.24377 0.00867 0.0
N108 N 0.15511 0.21284 0.92202 0.0
C109 C 0.1325 0.20013 0.96073 0.0
C110 C 0.14547 0.20957 0.96612 0.0
C111 C 0.14783 0.20509 0.89034 0.0
N112 N 0.13415 0.19723 0.91317 0.0
O113 O 0.15121 0.23089 0.86917 0.0
H114 H 0.14912 0.21338 1.001 0.0
H115 H 0.15366 0.20494 0.85186 0.0
O116 O 0.16127 0.23089 0.97263 0.0
C117 C 0.15921 0.22795 0.82648 0.0
O118 O 0.18103 0.22204 0.82394 0.0
N119 N 0.20587 0.21816 0.94875 0.0
C120 C 0.25879 0.21087 0.9604 0.0
C121 C 0.24978 0.2197 0.98655 0.0
C122 C 0.22292 0.2231 0.98099 0.0
C123 C 0.21336 0.2088 0.92886 0.0
C124 C 0.23927 0.20479 0.93612 0.0
H125 H 0.21767 0.23052 0.99637 0.0
H126 H 0.20067 0.20493 0.90217 0.0
H127 H 0.17555 0.24981 0.92194 0.0
H128 H 0.25882 0.2483 0.88777 0.0
H129 H 0.12411 0.19542 0.99029 0.0
H130 H 0.26385 0.22467 0.00632 0.0
H131 H 0.24476 0.19762 0.91742 0.0
C132 C 0.97764 0.83382 0.56204 0.0
C133 C 0.98841 0.82483 0.58209 0.0
N134 N 0.97169 0.82139 0.61801 0.0
N135 N 0.95399 0.83611 0.58468 0.0
C136 C 0.95092 0.82837 0.61877 0.0
H137 H 0.98699 0.8386 0.53377 0.0
Co138 Co 0.9331 0.84838 0.57196 0.0
C139 C 0.91176 0.85212 0.67253 0.0
O140 O 0.9227 0.86148 0.67262 0.0
N141 N 0.91144 0.86084 0.55892 0.0
C142 C 0.87983 0.87132 0.52573 0.0
C143 C 0.89003 0.86133 0.52752 0.0
C144 C 0.91339 0.87085 0.57598 0.0
N145 N 0.89453 0.87735 0.5562 0.0
O146 O 0.90728 0.84001 0.53593 0.0
H147 H 0.88183 0.85491 0.5066 0.0
H148 H 0.92881 0.8735 0.60147 0.0
O149 O 0.91383 0.84626 0.63457 0.0
C150 C 0.9176 0.83906 0.49279 0.0
O151 O 0.94173 0.84317 0.48505 0.0
N152 N 0.96098 0.85634 0.60001 0.0
C153 C 0.01426 0.86325 0.6125 0.0
C154 C 0.0017 0.85694 0.64852 0.0
C155 C 0.97494 0.85356 0.64159 0.0
C156 C 0.97238 0.86294 0.56633 0.0
C157 C -0.0015 0.86683 0.57287 0.0
H158 H 0.96665 0.84782 0.66676 0.0
H159 H 0.96201 0.86456 0.53198 0.0
H160 H 0.93399 0.82793 0.64416 0.0
H161 H 0.00767 0.82132 0.57217 0.0
H162 H 0.86259 0.87389 0.50405 0.0
H163 H 0.01307 0.85377 0.6793 0.0
H164 H 0.007 0.87186 0.54464 0.0
C165 C 0.74707 0.9884 0.62041 0.0
C166 C 0.73419 0.9979 0.62544 0.0
N167 N 0.75247 1.00506 0.64082 0.0
N168 N 0.77338 0.98937 0.63365 0.0
C169 C 0.77634 0.99974 0.643 0.0
H170 H 0.73736 0.98107 0.61103 0.0
Co171 Co 0.79795 0.97793 0.64228 0.0
C172 C 0.81028 0.99073 0.73771 0.0
O173 O 0.78798 0.99633 0.73967 0.0
N174 N 0.82251 0.9665 0.65066 0.0
C175 C 0.84597 0.95402 0.68925 0.0
C176 C 0.83118 0.96301 0.69505 0.0
C177 C 0.83194 0.95923 0.61832 0.0
N178 N 0.84634 0.95155 0.64107 0.0
O179 O 0.82329 0.98472 0.59893 0.0
H180 H 0.8254 0.96631 0.73015 0.0
H181 H 0.82719 0.95927 0.57934 0.0
O182 O 0.81416 0.98424 0.70236 0.0
C183 C 0.81487 0.9818 0.55645 0.0
O184 O 0.7933 0.97572 0.5547 0.0
N185 N 0.77154 0.97049 0.67844 0.0
C186 C 0.72109 0.96125 0.69494 0.0
C187 C 0.72923 0.97009 0.72207 0.0
C188 C 0.75482 0.97451 0.71374 0.0
C189 C 0.76515 0.96122 0.65642 0.0
C190 C 0.74058 0.95625 0.66574 0.0
H191 H 0.75916 0.98188 0.73064 0.0
H192 H 0.77768 0.95814 0.62724 0.0
H193 H 0.79545 1.00321 0.6541 0.0
H194 H 0.71254 0.99918 0.62176 0.0
H195 H 0.85411 0.94922 0.71873 0.0
H196 H 0.7151 0.97431 0.74522 0.0
H197 H 0.73581 0.94918 0.64558 0.0
C198 C 0.97138 0.99321 0.1631 0.0
C199 C 0.98114 1.00244 0.14413 0.0
N200 N 0.9643 1.00566 0.10804 0.0
N201 N 0.94808 0.99055 0.13996 0.0
C202 C 0.94434 0.99831 0.10616 0.0
H203 H 0.9814 0.98845 0.19065 0.0
Co204 Co 0.93034 0.97757 0.1533 0.0
C205 C 0.9075 0.97425 0.05258 0.0
O206 O 0.92197 0.9657 0.04713 0.0
N207 N 0.91295 0.96453 0.16962 0.0
C208 C 0.90235 0.9513 0.22012 0.0
C209 C 0.91348 0.96112 0.21683 0.0
C210 C 0.90066 0.95653 0.14503 0.0
N211 N 0.89437 0.94831 0.17483 0.0
O212 O 0.90367 0.9847 0.19341 0.0
H213 H 0.92281 0.96529 0.24704 0.0
H214 H 0.89629 0.95657 0.10623 0.0
O215 O 0.90808 0.97934 0.09323 0.0
C216 C 0.91377 0.98675 0.23581 0.0
O217 O 0.93948 0.98451 0.24343 0.0
N218 N 0.95839 0.97063 0.11917 0.0
C219 C 0.00982 0.96403 0.09054 0.0
C220 C -0.00446 0.97128 0.06183 0.0
C221 C 0.96995 0.97459 0.07713 0.0
C222 C 0.97134 0.96298 0.14525 0.0
C223 C -0.00315 0.95942 0.13106 0.0
H224 H 0.9603 0.98086 0.05691 0.0
H225 H 0.96336 0.96029 0.18004 0.0
H226 H 0.92791 0.99841 0.07959 0.0
H227 H 2e-05 1.00623 0.15434 0.0
H228 H 0.90152 0.94654 0.25316 0.0
H229 H 0.00505 0.97506 0.03043 0.0
H230 H 0.00752 0.95401 0.15502 0.0
C231 C 0.75612 0.83266 0.11222 0.0
C232 C 0.74697 0.82251 0.10918 0.0
N233 N 0.76744 0.8164 0.09299 0.0
N234 N 0.78217 0.83315 0.09695 0.0
C235 C 0.7889 0.82303 0.08818 0.0
H236 H 0.74389 0.83938 0.12175 0.0
Co237 Co 0.80101 0.84597 0.08528 0.0
C238 C 0.81907 0.83354 0.99146 0.0
O239 O 0.79998 0.82637 0.99023 0.0
N240 N 0.81953 0.85891 0.0736 0.0
C241 C 0.83335 0.87267 0.02978 0.0
C242 C 0.82368 0.86265 0.02759 0.0
C243 C 0.82671 0.86702 0.10344 0.0
N244 N 0.83496 0.87557 0.07741 0.0
O245 O 0.82952 0.84133 0.12834 0.0
H246 H 0.81812 0.85865 0.99401 0.0
H247 H 0.8241 0.86693 0.14307 0.0
O248 O 0.81944 0.84042 0.02582 0.0
C249 C 0.82083 0.84389 0.17111 0.0
O250 O 0.79752 0.84889 0.17377 0.0
N251 N 0.77125 0.85104 0.04927 0.0
C252 C 0.7171 0.85609 0.03387 0.0
C253 C 0.72946 0.84819 0.00591 0.0
C254 C 0.75691 0.84586 0.01376 0.0
C255 C 0.76009 0.85941 0.07288 0.0
C256 C 0.73321 0.86222 0.06492 0.0
H257 H 0.7652 0.83913 0.99587 0.0
H258 H 0.77097 0.86321 0.10247 0.0
H259 H 0.8089 0.82063 0.07614 0.0
H260 H 0.72618 0.82003 0.11495 0.0
H261 H 0.83787 0.87759 0.99828 0.0
H262 H 0.71745 0.84325 0.98186 0.0
H263 H 0.72432 0.86824 0.08787 0.0
C264 C -0.00012 0.74255 0.86507 0.0
C265 C 0.9888 0.75193 0.85043 0.0
N266 N 0.00877 0.75811 0.83278 0.0
N267 N 0.02689 0.74257 0.85627 0.0
C268 C 0.03179 0.75236 0.83843 0.0
H269 H 0.98846 0.73606 0.87989 0.0
Co270 Co 0.05177 0.73107 0.86413 0.0
C271 C 0.06076 0.73808 0.75933 0.0
O272 O 0.03492 0.74045 0.75418 0.0
N273 N 0.07696 0.71985 0.87164 0.0
C274 C 0.11683 0.71158 0.87061 0.0
C275 C 0.10401 0.72109 0.86591 0.0
C276 C 0.07393 0.70941 0.87998 0.0
N277 N 0.09793 0.70417 0.87937 0.0
O278 O 0.0757 0.73999 0.90217 0.0
H279 H 0.11385 0.72845 0.85756 0.0
H280 H 0.05457 0.70565 0.88609 0.0
O281 O 0.06946 0.73446 0.80057 0.0
C282 C 0.06508 0.73984 0.94534 0.0
O283 O 0.04139 0.73522 0.95046 0.0
N284 N 0.02678 0.72184 0.83543 0.0
C285 C 0.98141 0.70935 0.81901 0.0
C286 C 0.98986 0.71166 0.86695 0.0
C287 C 0.01238 0.71794 0.87417 0.0
C288 C 0.02092 0.7187 0.7884 0.0
C289 C -0.00247 0.71269 0.7792 0.0
H290 H 0.0179 0.72007 0.91133 0.0
H291 H 0.03356 0.7209 0.75773 0.0
H292 H 0.05178 0.75499 0.82728 0.0
H293 H 0.96734 0.75377 0.85046 0.0
H294 H 0.1384 0.71022 0.86621 0.0
H295 H 0.978 0.70933 0.89881 0.0
H296 H -0.00825 0.71089 0.7416 0.0
C297 C 0.22299 0.58476 0.91319 0.0
C298 C 0.23598 0.57582 0.89777 0.0
N299 N 0.22184 0.5716 0.86003 0.0
N300 N 0.20056 0.58632 0.88557 0.0
C301 C 0.20037 0.57815 0.85352 0.0
H302 H 0.23002 0.59002 0.9417 0.0
Co303 Co 0.17766 0.59829 0.88999 0.0
C304 C 0.16171 0.60184 0.7875 0.0
O305 O 0.16994 0.61156 0.79257 0.0
N306 N 0.15367 0.61031 0.89352 0.0
C307 C 0.11395 0.61882 0.89286 0.0
C308 C 0.12634 0.6092 0.89189 0.0
C309 C 0.15713 0.62091 0.89452 0.0
N310 N 0.13327 0.62625 0.89459 0.0
O311 O 0.15022 0.58987 0.92136 0.0
H312 H 0.11575 0.60183 0.8885 0.0
H313 H 0.17662 0.62477 0.8942 0.0
O314 O 0.16354 0.59547 0.82377 0.0
C315 C 0.15752 0.58945 0.96661 0.0
O316 O 0.18021 0.59413 0.97954 0.0
N317 N 0.20668 0.6064 0.86783 0.0
C318 C 0.26114 0.61217 0.8722 0.0
C319 C 0.2509 0.60695 0.8305 0.0
C320 C 0.22339 0.60406 0.8291 0.0
C321 C 0.21618 0.61202 0.90682 0.0
C322 C 0.24297 0.61534 0.90882 0.0
H323 H 0.21659 0.59884 0.8003 0.0
H324 H 0.20366 0.61298 0.93927 0.0
H325 H 0.18498 0.57712 0.82547 0.0
H326 H 0.25503 0.57291 0.91227 0.0
H327 H 0.09228 0.62019 0.89068 0.0
H328 H 0.26446 0.60416 0.80196 0.0
H329 H 0.25003 0.61936 0.94157 0.0
C330 C 0.00084 0.58389 0.34579 0.0
C331 C 0.98786 0.57491 0.36097 0.0
N332 N 0.00208 0.57061 0.39841 0.0
N333 N 0.0234 0.58538 0.37313 0.0
C334 C 0.02361 0.57713 0.405 0.0
H335 H -0.00642 0.58926 0.31788 0.0
Co336 Co 0.0456 0.59755 0.36824 0.0
C337 C 0.06895 0.59985 0.46618 0.0
O338 O 0.06033 0.60957 0.46504 0.0
N339 N 0.06875 0.6098 0.3631 0.0
C340 C 0.1081 0.6184 0.35457 0.0
C341 C 0.09603 0.60877 0.35896 0.0
C342 C 0.06504 0.6204 0.36249 0.0
N343 N 0.08866 0.62575 0.35682 0.0
O344 O 0.0708 0.58988 0.32784 0.0
H345 H 0.10683 0.60141 0.35949 0.0
H346 H 0.04561 0.62425 0.36579 0.0
O347 O 0.06455 0.59378 0.42958 0.0
C348 C 0.06151 0.59057 0.28389 0.0
O349 O 0.03899 0.59588 0.27669 0.0
N350 N 0.01827 0.60493 0.40066 0.0
C351 C 0.96303 0.60857 0.41115 0.0
C352 C 0.97719 0.60293 0.44734 0.0
C353 C 0.00513 0.60128 0.44173 0.0
C354 C 0.00494 0.61104 0.36729 0.0
C355 C 0.97751 0.61327 0.37276 0.0
H356 H 0.01498 0.59579 0.46621 0.0
H357 H 0.01451 0.61295 0.33252 0.0
H358 H 0.0389 0.57607 0.43327 0.0
H359 H 0.96867 0.57206 0.34682 0.0
H360 H 0.12964 0.61991 0.35047 0.0
H361 H 0.96634 0.59895 0.47665 0.0
H362 H 0.967 0.61734 0.34324 0.0
C363 C 0.22446 0.74539 0.33635 0.0
C364 C 0.23378 0.75459 0.35627 0.0
N365 N 0.21703 0.75741 0.39311 0.0
N366 N 0.2015 0.74235 0.3596 0.0
C367 C 0.19759 0.74984 0.39459 0.0
H368 H 0.23462 0.74094 0.30796 0.0
Co369 Co 0.18417 0.72932 0.34414 0.0
C370 C 0.16229 0.72421 0.44329 0.0
O371 O 0.17671 0.71557 0.44322 0.0
N372 N 0.16692 0.71627 0.3258 0.0
C373 C 0.15672 0.70353 0.27261 0.0
C374 C 0.16943 0.71296 0.27871 0.0
C375 C 0.15155 0.7086 0.34728 0.0
N376 N 0.1454 0.70067 0.31574 0.0
O377 O 0.15695 0.73667 0.30552 0.0
H378 H 0.18098 0.71693 0.25048 0.0
H379 H 0.14441 0.70877 0.3848 0.0
O380 O 0.16263 0.73026 0.40546 0.0
C381 C 0.16786 0.73833 0.26328 0.0
O382 O 0.1935 0.73575 0.25768 0.0
N383 N 0.21317 0.72224 0.37555 0.0
C384 C 0.26775 0.7182 0.39273 0.0
C385 C 0.25291 0.7243 0.42597 0.0
C386 C 0.22539 0.72614 0.41704 0.0
C387 C 0.22688 0.71539 0.34606 0.0
C388 C 0.2541 0.7131 0.35461 0.0
H389 H 0.21493 0.73169 0.4402 0.0
H390 H 0.21817 0.71267 0.31209 0.0
H391 H 0.18133 0.74962 0.42144 0.0
H392 H 0.25228 0.75864 0.34601 0.0
H393 H 0.15686 0.69893 0.23913 0.0
H394 H 0.26306 0.72843 0.4556 0.0
H395 H 0.26517 0.7085 0.32774 0.0
C396 C 0.97843 0.32632 0.08277 0.0
C397 C 0.99053 0.31764 0.10332 0.0
N398 N 0.97524 0.3143 0.14159 0.0
N399 N 0.95542 0.32855 0.10758 0.0
C400 C 0.95397 0.32106 0.14305 0.0
H401 H 0.98627 0.33089 0.05227 0.0
Co402 Co 0.93265 0.3403 0.0963 0.0
C403 C 0.91562 0.34614 0.19597 0.0
O404 O 0.92337 0.35572 0.18531 0.0
N405 N 0.90859 0.3521 0.08604 0.0
C406 C 0.86874 0.36046 0.08233 0.0
C407 C 0.88126 0.35091 0.0861 0.0
C408 C 0.91188 0.36268 0.08281 0.0
N409 N 0.88795 0.36794 0.08031 0.0
O410 O 0.90556 0.33127 0.06771 0.0
H411 H 0.87068 0.34359 0.09123 0.0
H412 H 0.93129 0.36658 0.0844 0.0
O413 O 0.91795 0.33893 0.16353 0.0
C414 C 0.91357 0.33043 0.02295 0.0
O415 O 0.93709 0.33461 0.01109 0.0
N416 N 0.96144 0.34891 0.11508 0.0
C417 C 0.01447 0.35657 0.11158 0.0
C418 C 0.00453 0.35172 0.15466 0.0
C419 C 0.9778 0.34783 0.15554 0.0
C420 C 0.97074 0.35385 0.07388 0.0
C421 C -0.00338 0.3581 0.07206 0.0
H422 H 0.97133 0.3431 0.18648 0.0
H423 H 0.95855 0.35387 0.04067 0.0
H424 H 0.938 0.32075 0.1704 0.0
H425 H 0.00928 0.31411 0.09085 0.0
H426 H 0.84703 0.36176 0.0838 0.0
H427 H 0.01786 0.35016 0.1856 0.0
H428 H 0.00324 0.36185 0.03826 0.0
C429 C 0.75371 0.4847 0.11559 0.0
C430 C 0.74293 0.49437 0.12645 0.0
N431 N 0.76043 0.49957 0.15595 0.0
N432 N 0.77804 0.48369 0.13787 0.0
C433 C 0.78176 0.49294 0.16152 0.0
H434 H 0.74344 0.47848 0.096 0.0
Co435 Co 0.79635 0.47076 0.14587 0.0
C436 C 0.84668 0.47656 0.19535 0.0
O437 O 0.86026 0.47227 0.15891 0.0
N438 N 0.81462 0.45774 0.15549 0.0
C439 C 0.83362 0.44465 0.19742 0.0
C440 C 0.82098 0.45414 0.20098 0.0
C441 C 0.82346 0.45008 0.12466 0.0
N442 N 0.83534 0.44204 0.14944 0.0
O443 O 0.81891 0.47405 0.0902 0.0
H444 H 0.81647 0.45817 0.23507 0.0
H445 H 0.82132 0.45039 0.08498 0.0
O446 O 0.82084 0.47703 0.1932 0.0
C447 C 0.80593 0.47069 0.05253 0.0
O448 O 0.78308 0.46559 0.06014 0.0
N449 N 0.7718 0.46726 0.19523 0.0
C450 C 0.71958 0.46572 0.2318 0.0
C451 C 0.73745 0.4733 0.25059 0.0
C452 C 0.76404 0.47379 0.23243 0.0
C453 C 0.75577 0.45911 0.18122 0.0
C454 C 0.72968 0.45806 0.19995 0.0
H455 H 0.77694 0.48022 0.24344 0.0
H456 H 0.76192 0.45416 0.15089 0.0
H457 H 0.79899 0.49451 0.18511 0.0
H458 H 0.7228 0.49698 0.11618 0.0
H459 H 0.84035 0.4399 0.22818 0.0
H460 H 0.73019 0.47936 0.27515 0.0
H461 H 0.7164 0.45218 0.18418 0.0
C462 C 0.9057 0.50276 0.66492 0.0
C463 C 0.91236 0.51241 0.6458 0.0
N464 N 0.92653 0.51105 0.60372 0.0
N465 N 0.91534 0.49517 0.63519 0.0
C466 C 0.92772 0.50051 0.5979 0.0
H467 H 0.89527 0.50146 0.69941 0.0
Co468 Co 0.91599 0.48047 0.648 0.0
C469 C 0.90889 0.47105 0.54805 0.0
O470 O 0.92407 0.46293 0.5593 0.0
N471 N 0.91675 0.46576 0.66128 0.0
C472 C 0.92914 0.45049 0.694 0.0
C473 C 0.93589 0.46086 0.68851 0.0
C474 C 0.8982 0.45811 0.6514 0.0
N475 N 0.90544 0.4487 0.67063 0.0
O476 O 0.87905 0.48073 0.67139 0.0
H477 H 0.95353 0.46456 0.70446 0.0
H478 H 0.87957 0.45947 0.63112 0.0
O479 O 0.90449 0.4782 0.57989 0.0
C480 C 0.88203 0.48144 0.71816 0.0
O481 O 0.90671 0.48215 0.73622 0.0
N482 N 0.95311 0.48055 0.63331 0.0
C483 C 0.00938 0.4823 0.63879 0.0
C484 C -0.00316 0.47912 0.59471 0.0
C485 C 0.9684 0.47846 0.5924 0.0
C486 C 0.96521 0.48397 0.67548 0.0
C487 C -0.00686 0.48482 0.67921 0.0
H488 H 0.95918 0.47653 0.55766 0.0
H489 H 0.95296 0.48594 0.70708 0.0
H490 H 0.93853 0.49671 0.56823 0.0
H491 H 0.90742 0.51986 0.66237 0.0
H492 H 0.94098 0.44468 0.71362 0.0
H493 H 0.00886 0.47734 0.56233 0.0
H494 H 0.00194 0.48725 0.71402 0.0
C495 C 0.75775 0.33183 0.64615 0.0
C496 C 0.74475 0.32281 0.63131 0.0
N497 N 0.7581 0.31877 0.59224 0.0
N498 N 0.77941 0.3336 0.61692 0.0
C499 C 0.77917 0.32548 0.58457 0.0
H500 H 0.75141 0.33693 0.67574 0.0
Co501 Co 0.80173 0.34573 0.62074 0.0
C502 C 0.82775 0.3471 0.52416 0.0
O503 O 0.8205 0.35698 0.52314 0.0
N504 N 0.8251 0.35793 0.62502 0.0
C505 C 0.86506 0.36619 0.62926 0.0
C506 C 0.85238 0.35669 0.62454 0.0
C507 C 0.82191 0.3685 0.62989 0.0
N508 N 0.846 0.37369 0.6329 0.0
O509 O 0.82593 0.3383 0.66434 0.0
H510 H 0.86264 0.34926 0.62066 0.0
H511 H 0.80254 0.37242 0.63192 0.0
O512 O 0.82161 0.34134 0.56118 0.0
C513 C 0.81762 0.34078 0.70745 0.0
O514 O 0.79711 0.34733 0.71069 0.0
N515 N 0.7753 0.35296 0.58505 0.0
C516 C 0.7203 0.35645 0.56949 0.0
C517 C 0.73552 0.35078 0.53496 0.0
C518 C 0.76329 0.34918 0.54319 0.0
C519 C 0.76108 0.35919 0.61651 0.0
C520 C 0.73375 0.36132 0.60858 0.0
H521 H 0.77378 0.34363 0.52005 0.0
H522 H 0.76961 0.36119 0.65198 0.0
H523 H 0.7936 0.32471 0.55472 0.0
H524 H 0.7267 0.31956 0.64819 0.0
H525 H 0.88682 0.36746 0.62953 0.0
H526 H 0.72553 0.34671 0.50496 0.0
H527 H 0.72248 0.36544 0.63686 0.0
C528 C 0.51002 0.24259 0.90727 0.0
C529 C 0.50071 0.25258 0.89796 0.0
N530 N 0.51226 0.25607 0.85595 0.0
N531 N 0.52747 0.23972 0.87139 0.0
C532 C 0.52885 0.24821 0.8413 0.0
H533 H 0.50302 0.23749 0.9365 0.0
Co534 Co 0.54141 0.22597 0.8618 0.0
C535 C 0.54833 0.23017 0.75168 0.0
O536 O 0.52363 0.22704 0.74131 0.0
N537 N 0.55619 0.21227 0.85081 0.0
C538 C 0.56372 0.19723 0.81167 0.0
C539 C 0.55345 0.20713 0.80754 0.0
C540 C 0.56866 0.20518 0.88084 0.0
N541 N 0.57314 0.19591 0.85779 0.0
O542 O 0.57398 0.23008 0.89627 0.0
H543 H 0.54321 0.21009 0.77533 0.0
H544 H 0.57322 0.20659 0.9193 0.0
O545 O 0.55688 0.23008 0.79646 0.0
C546 C 0.56649 0.22847 0.94096 0.0
O547 O 0.54297 0.22383 0.94842 0.0
N548 N 0.50666 0.22158 0.83789 0.0
C549 C 0.45128 0.2168 0.84397 0.0
C550 C 0.46002 0.22581 0.8192 0.0
C551 C 0.48778 0.22808 0.81667 0.0
C552 C 0.49803 0.2126 0.86066 0.0
C553 C 0.47068 0.20993 0.86283 0.0
H554 H 0.49362 0.2355 0.80096 0.0
H555 H 0.51177 0.2079 0.8823 0.0
H556 H 0.54049 0.24844 0.80755 0.0
H557 H 0.48512 0.25662 0.9186 0.0
H558 H 0.56377 0.19135 0.78297 0.0
H559 H 0.44546 0.23138 0.80471 0.0
H560 H 0.46467 0.20308 0.88378 0.0
C561 C 0.67189 0.07436 0.90779 0.0
C562 C 0.67755 0.06473 0.88765 0.0
N563 N 0.68558 0.06609 0.84052 0.0
N564 N 0.67614 0.08188 0.87374 0.0
C565 C 0.68413 0.07656 0.8328 0.0
H566 H 0.66657 0.07577 0.94586 0.0
Co567 Co 0.67785 0.0964 0.88773 0.0
C568 C 0.65952 0.10724 0.79674 0.0
O569 O 0.67641 0.11495 0.80608 0.0
N570 N 0.67992 0.111 0.90314 0.0
C571 C 0.69526 0.12663 0.92646 0.0
C572 C 0.70202 0.11634 0.91868 0.0
C573 C 0.65971 0.11826 0.9035 0.0
N574 N 0.66865 0.12792 0.91644 0.0
O575 O 0.64466 0.09559 0.92503 0.0
H576 H 0.72196 0.11305 0.92439 0.0
H577 H 0.63905 0.11652 0.89247 0.0
O578 O 0.65832 0.09936 0.82598 0.0
C579 C 0.65195 0.0961 0.97026 0.0
O580 O 0.678 0.09669 0.98064 0.0
N581 N 0.71181 0.09677 0.85784 0.0
C582 C 0.76693 0.09589 0.8374 0.0
C583 C 0.7484 0.09842 0.79998 0.0
C584 C 0.7206 0.0986 0.81075 0.0
C585 C 0.7296 0.0938 0.89361 0.0
C586 C 0.7572 0.0934 0.88444 0.0
H587 H 0.70663 0.09996 0.78092 0.0
H588 H 0.72216 0.09198 0.93015 0.0
H589 H 0.6906 0.08033 0.79905 0.0
H590 H 0.67674 0.05731 0.90696 0.0
H591 H 0.70905 0.13268 0.93878 0.0
H592 H 0.75531 0.10012 0.76288 0.0
H593 H 0.77087 0.09147 0.91446 0.0
C594 C 0.56742 0.07642 0.41368 0.0
C595 C 0.56209 0.0666 0.43247 0.0
N596 N 0.53494 0.06535 0.43598 0.0
N597 N 0.54383 0.08147 0.40498 0.0
C598 C 0.5244 0.07445 0.41863 0.0
H599 H 0.58736 0.07981 0.40831 0.0
Co600 Co 0.5408 0.0957 0.38421 0.0
C601 C 0.56442 0.10751 0.4672 0.0
O602 O 0.54548 0.11467 0.46154 0.0
N603 N 0.5383 0.11006 0.36265 0.0
C604 C 0.52301 0.12522 0.33264 0.0
C605 C 0.51648 0.11503 0.34341 0.0
C606 C 0.55826 0.11748 0.36102 0.0
N607 N 0.54932 0.12687 0.34393 0.0
O608 O 0.57017 0.09395 0.33878 0.0
H609 H 0.4968 0.11162 0.33681 0.0
H610 H 0.57897 0.11601 0.3726 0.0
O611 O 0.56511 0.09963 0.43819 0.0
C612 C 0.55913 0.0905 0.29936 0.0
O613 O 0.53323 0.08798 0.30097 0.0
N614 N 0.50984 0.09698 0.42348 0.0
C615 C 0.45789 0.09649 0.4627 0.0
C616 C 0.48036 0.09718 0.49418 0.0
C617 C 0.50653 0.0971 0.47367 0.0
C618 C 0.48802 0.09571 0.39331 0.0
C619 C 0.46191 0.09563 0.41193 0.0
H620 H 0.52375 0.09675 0.49821 0.0
H621 H 0.49107 0.09449 0.35427 0.0
H622 H 0.50285 0.07602 0.41684 0.0
H623 H 0.57716 0.06099 0.44468 0.0
H624 H 0.50907 0.13102 0.31829 0.0
H625 H 0.47771 0.0975 0.53381 0.0
H626 H 0.4449 0.09484 0.38676 0.0
C627 C 0.72155 0.24124 0.34106 0.0
C628 C 0.73068 0.25061 0.3591 0.0
N629 N 0.71235 0.25433 0.39153 0.0
N630 N 0.6973 0.23886 0.36133 0.0
C631 C 0.69222 0.24699 0.3925 0.0
H632 H 0.73239 0.23626 0.31559 0.0
Co633 Co 0.68054 0.22582 0.34551 0.0
C634 C 0.65708 0.22056 0.44362 0.0
O635 O 0.67089 0.21176 0.44344 0.0
N636 N 0.66424 0.21272 0.32645 0.0
C637 C 0.65578 0.20019 0.27127 0.0
C638 C 0.66804 0.20965 0.27934 0.0
C639 C 0.64849 0.20493 0.3459 0.0
N640 N 0.64341 0.19712 0.31312 0.0
O641 O 0.65322 0.23283 0.30623 0.0
H642 H 0.67986 0.21393 0.25243 0.0
H643 H 0.64008 0.20499 0.38257 0.0
O644 O 0.65827 0.22669 0.40618 0.0
C645 C 0.66321 0.23542 0.2643 0.0
O646 O 0.68946 0.23428 0.25756 0.0
N647 N 0.70935 0.21895 0.37802 0.0
C648 C 0.76115 0.21242 0.40662 0.0
C649 C 0.74545 0.21877 0.43776 0.0
C650 C 0.71979 0.22212 0.42235 0.0
C651 C 0.72399 0.21244 0.34847 0.0
C652 C 0.74966 0.20899 0.36224 0.0
H653 H 0.7091 0.22779 0.44462 0.0
H654 H 0.71712 0.21064 0.3118 0.0
H655 H 0.67439 0.24746 0.41576 0.0
H656 H 0.74996 0.25423 0.35016 0.0
H657 H 0.65658 0.19579 0.23722 0.0
H658 H 0.75352 0.22164 0.47236 0.0
H659 H 0.76125 0.20443 0.33604 0.0
C660 C 0.48427 0.83017 0.12198 0.0
C661 C 0.49465 0.82033 0.13052 0.0
N662 N 0.47876 0.81542 0.16389 0.0
N663 N 0.46211 0.83164 0.1504 0.0
C664 C 0.45858 0.82233 0.17366 0.0
H665 H 0.49366 0.8362 0.09969 0.0
Co666 Co 0.44466 0.8448 0.15986 0.0
C667 C 0.43373 0.83609 0.26479 0.0
O668 O 0.45788 0.8321 0.27231 0.0
N669 N 0.42636 0.85771 0.16953 0.0
C670 C 0.41294 0.87213 0.20847 0.0
C671 C 0.42405 0.86238 0.2141 0.0
C672 C 0.41591 0.8648 0.13727 0.0
N673 N 0.40792 0.87367 0.1603 0.0
O674 O 0.41442 0.83983 0.12137 0.0
H675 H 0.43158 0.85919 0.24844 0.0
H676 H 0.41575 0.86378 0.09766 0.0
O677 O 0.42786 0.84035 0.22326 0.0
C678 C 0.42283 0.84145 0.07725 0.0
O679 O 0.44662 0.84598 0.07133 0.0
N680 N 0.47723 0.85039 0.18999 0.0
C681 C 0.53181 0.85649 0.18354 0.0
C682 C 0.52459 0.84707 0.20661 0.0
C683 C 0.4972 0.84424 0.21014 0.0
C684 C 0.48417 0.86018 0.17345 0.0
C685 C 0.51104 0.86351 0.17186 0.0
H686 H 0.4933 0.83632 0.2211 0.0
H687 H 0.46983 0.86517 0.15497 0.0
H688 H 0.44211 0.82078 0.19893 0.0
H689 H 0.51369 0.81741 0.11613 0.0
H690 H 0.40965 0.87782 0.23736 0.0
H691 H 0.53981 0.84131 0.21639 0.0
H692 H 0.51551 0.87108 0.15574 0.0
C693 C 0.26196 0.98872 0.11535 0.0
C694 C 0.25275 0.99869 0.12446 0.0
N695 N 0.26487 1.00231 0.16573 0.0
N696 N 0.28002 0.98594 0.15042 0.0
C697 C 0.28187 0.99451 0.17987 0.0
H698 H 0.2545 0.98358 0.08676 0.0
Co699 Co 0.29344 0.9721 0.15962 0.0
C700 C 0.30472 0.97608 0.26788 0.0
O701 O 0.2808 0.97263 0.28156 0.0
N702 N 0.30764 0.95833 0.16974 0.0
C703 C 0.31486 0.94295 0.20641 0.0
C704 C 0.30515 0.95289 0.21241 0.0
C705 C 0.31957 0.95142 0.13837 0.0
N706 N 0.32388 0.94201 0.15992 0.0
O707 O 0.32491 0.97572 0.12123 0.0
H708 H 0.2954 0.95569 0.24536 0.0
H709 H 0.32395 0.95306 0.10003 0.0
O710 O 0.31147 0.9762 0.22219 0.0
C711 C 0.31601 0.97396 0.07758 0.0
O712 O 0.29172 0.96977 0.07288 0.0
N713 N 0.25958 0.96816 0.1882 0.0
C714 C 0.20384 0.96447 0.18742 0.0
C715 C 0.21432 0.97321 0.21175 0.0
C716 C 0.24232 0.97491 0.21184 0.0
C717 C 0.24923 0.95933 0.16665 0.0
C718 C 0.22158 0.95719 0.16718 0.0
H719 H 0.24957 0.98215 0.22723 0.0
H720 H 0.2617 0.95443 0.14357 0.0
H721 H 0.29354 0.99467 0.21363 0.0
H722 H 0.23737 1.00273 0.10324 0.0
H723 H 0.31484 0.93678 0.23386 0.0
H724 H 0.20087 0.97912 0.22664 0.0
H725 H 0.21391 0.95057 0.14642 0.0
C726 C 0.42447 0.99754 0.68415 0.0
C727 C 0.43006 1.00722 0.66444 0.0
N728 N 0.44585 1.00604 0.62418 0.0
N729 N 0.4365 0.99004 0.65684 0.0
C730 C 0.44906 0.99551 0.62008 0.0
H731 H 0.41247 0.99622 0.71688 0.0
Co732 Co 0.4367 0.97518 0.66927 0.0
C733 C 0.41209 0.96659 0.57487 0.0
O734 O 0.42144 0.95705 0.58086 0.0
N735 N 0.43685 0.96045 0.68191 0.0
C736 C 0.4513 0.94478 0.70688 0.0
C737 C 0.45845 0.95507 0.69924 0.0
C738 C 0.41648 0.95324 0.68078 0.0
N739 N 0.42493 0.94358 0.69488 0.0
O740 O 0.40413 0.97626 0.70828 0.0
H741 H 0.47825 0.9584 0.70639 0.0
H742 H 0.39584 0.95503 0.66982 0.0
O743 O 0.41678 0.97362 0.60727 0.0
C744 C 0.41396 0.97696 0.75197 0.0
O745 O 0.44053 0.97693 0.75702 0.0
N746 N 0.47062 0.97423 0.63913 0.0
C747 C 0.52609 0.97139 0.62582 0.0
C748 C 0.50747 0.96714 0.59205 0.0
C749 C 0.47956 0.96873 0.59919 0.0
C750 C 0.48862 0.97881 0.67054 0.0
C751 C 0.51632 0.97756 0.66445 0.0
H752 H 0.46561 0.96509 0.57411 0.0
H753 H 0.48131 0.983 0.70246 0.0
H754 H 0.46097 0.99182 0.59151 0.0
H755 H 0.42289 1.01457 0.67923 0.0
H756 H 0.46463 0.93861 0.7197 0.0
H757 H 0.51435 0.96235 0.56162 0.0
H758 H 0.52983 0.98083 0.692 0.0
C759 C 0.29079 0.8224 0.69384 0.0
C760 C 0.28162 0.81324 0.67318 0.0
N761 N 0.27971 0.81455 0.62402 0.0
N762 N 0.29485 0.82961 0.65813 0.0
C763 C 0.28807 0.82453 0.61574 0.0
H764 H 0.29287 0.82381 0.73291 0.0
Co765 Co 0.30112 0.84413 0.66939 0.0
C766 C 0.32731 0.85144 0.57493 0.0
O767 O 0.31642 0.86079 0.57852 0.0
N768 N 0.30676 0.85874 0.68213 0.0
C769 C 0.29851 0.87457 0.71336 0.0
C770 C 0.28818 0.86473 0.70552 0.0
C771 C 0.32868 0.8652 0.67726 0.0
N772 N 0.32392 0.87493 0.69532 0.0
O773 O 0.33265 0.84101 0.70948 0.0
H774 H 0.26846 0.8621 0.71773 0.0
H775 H 0.34791 0.86277 0.66162 0.0
O776 O 0.3227 0.84457 0.60833 0.0
C777 C 0.32382 0.84103 0.75394 0.0
O778 O 0.29802 0.84315 0.76131 0.0
N779 N 0.26831 0.84694 0.63753 0.0
C780 C 0.21376 0.85053 0.61631 0.0
C781 C 0.23355 0.85152 0.57919 0.0
C782 C 0.26092 0.84951 0.59042 0.0
C783 C 0.24907 0.84548 0.67287 0.0
C784 C 0.22191 0.84737 0.66344 0.0
H785 H 0.27558 0.84988 0.56109 0.0
H786 H 0.25506 0.84307 0.70948 0.0
H787 H 0.28755 0.82828 0.57991 0.0
H788 H 0.27603 0.80621 0.69311 0.0
H789 H 0.28808 0.881 0.73107 0.0
H790 H 0.2279 0.85369 0.54193 0.0
H791 H 0.20751 0.84658 0.69345 0.0
C792 C 0.56333 0.7479 0.44282 0.0
C793 C 0.558 0.7576 0.42297 0.0
N794 N 0.5487 0.75638 0.3765 0.0
N795 N 0.55769 0.74045 0.4092 0.0
C796 C 0.54917 0.74589 0.36896 0.0
H797 H 0.56992 0.74646 0.48022 0.0
Co798 Co 0.55686 0.72572 0.41901 0.0
C799 C 0.58102 0.71701 0.32598 0.0
O800 O 0.56667 0.70838 0.33036 0.0
N801 N 0.55585 0.711 0.42926 0.0
C802 C 0.54106 0.69479 0.44259 0.0
C803 C 0.53361 0.7051 0.43798 0.0
C804 C 0.57674 0.70407 0.43049 0.0
N805 N 0.56828 0.69406 0.43757 0.0
O806 O 0.58841 0.72647 0.46169 0.0
H807 H 0.51305 0.70801 0.44013 0.0
H808 H 0.59768 0.70635 0.42482 0.0
O809 O 0.57902 0.72419 0.35868 0.0
C810 C 0.57797 0.72643 0.50504 0.0
O811 O 0.55139 0.72582 0.50866 0.0
N812 N 0.52377 0.72529 0.38512 0.0
C813 C 0.46883 0.72593 0.36124 0.0
C814 C 0.48804 0.72287 0.32582 0.0
C815 C 0.51573 0.72274 0.33833 0.0
C816 C 0.50523 0.7285 0.41908 0.0
C817 C 0.47782 0.72883 0.40814 0.0
H818 H 0.53019 0.72077 0.31018 0.0
H819 H 0.51183 0.73069 0.45558 0.0
H820 H 0.5421 0.74218 0.33555 0.0
H821 H 0.56029 0.76497 0.44211 0.0
H822 H 0.52716 0.68831 0.44749 0.0
H823 H 0.48174 0.7207 0.28893 0.0
H824 H 0.4637 0.73111 0.43684 0.0
C825 C 0.71957 0.57896 0.39727 0.0
C826 C 0.72896 0.56904 0.38671 0.0
N827 N 0.71604 0.56553 0.34611 0.0
N828 N 0.70059 0.58174 0.3638 0.0
C829 C 0.69875 0.57332 0.33345 0.0
H830 H 0.72725 0.58405 0.42591 0.0
Co831 Co 0.68527 0.5953 0.35609 0.0
C832 C 0.64238 0.58864 0.28556 0.0
O833 O 0.62358 0.58863 0.31995 0.0
N834 N 0.66981 0.60884 0.3465 0.0
C835 C 0.65693 0.62306 0.30518 0.0
C836 C 0.66644 0.61305 0.30116 0.0
C837 C 0.6622 0.61661 0.37777 0.0
N838 N 0.65442 0.62542 0.35335 0.0
O839 O 0.65606 0.59148 0.39952 0.0
H840 H 0.67143 0.60921 0.26685 0.0
H841 H 0.66331 0.616 0.41752 0.0
O842 O 0.66692 0.59079 0.29669 0.0
C843 C 0.66508 0.59404 0.4421 0.0
O844 O 0.68929 0.59838 0.44453 0.0
N845 N 0.71574 0.59937 0.32039 0.0
C846 C 0.77031 0.60262 0.30087 0.0
C847 C 0.75565 0.59511 0.27407 0.0
C848 C 0.72788 0.59376 0.28367 0.0
C849 C 0.72937 0.60718 0.34387 0.0
C850 C 0.75653 0.60911 0.33376 0.0
H851 H 0.71701 0.58753 0.26537 0.0
H852 H 0.71991 0.6113 0.37412 0.0
H853 H 0.68591 0.57305 0.30114 0.0
H854 H 0.7452 0.56499 0.40576 0.0
H855 H 0.65237 0.62823 0.27463 0.0
H856 H 0.76592 0.58989 0.2488 0.0
H857 H 0.7674 0.61482 0.35578 0.0
C858 C 0.54316 0.5698 0.83223 0.0
C859 C 0.53685 0.5605 0.85519 0.0
N860 N 0.52988 0.56249 0.90234 0.0
N861 N 0.5404 0.57774 0.86453 0.0
C862 C 0.53249 0.573 0.90712 0.0
H863 H 0.54867 0.57063 0.79388 0.0
Co864 Co 0.54348 0.5923 0.85124 0.0
C865 C 0.57671 0.59992 0.94005 0.0
O866 O 0.57299 0.60996 0.93254 0.0
N867 N 0.54647 0.60683 0.83709 0.0
C868 C 0.53534 0.62316 0.81659 0.0
C869 C 0.52567 0.6132 0.82466 0.0
C870 C 0.56877 0.61303 0.83372 0.0
N871 N 0.56248 0.6231 0.82293 0.0
O872 O 0.57399 0.58983 0.80838 0.0
H873 H 0.50462 0.6108 0.8223 0.0
H874 H 0.58923 0.61027 0.84048 0.0
O875 O 0.56633 0.59317 0.91075 0.0
C876 C 0.56337 0.58987 0.76523 0.0
O877 O 0.53685 0.59098 0.76196 0.0
N878 N 0.51163 0.59467 0.88687 0.0
C879 C 0.45893 0.5997 0.91415 0.0
C880 C 0.48102 0.60428 0.93857 0.0
C881 C 0.50749 0.60154 0.92466 0.0
C882 C 0.49018 0.59004 0.86373 0.0
C883 C 0.46368 0.59229 0.87744 0.0
H884 H 0.52426 0.60551 0.94179 0.0
H885 H 0.49366 0.58496 0.8325 0.0
H886 H 0.52744 0.57726 0.94033 0.0
H887 H 0.5371 0.55287 0.83804 0.0
H888 H 0.52314 0.63001 0.80866 0.0
H889 H 0.47784 0.61016 0.96666 0.0
H890 H 0.447 0.58877 0.85723 0.0
C891 C 0.73448 0.73462 0.86886 0.0
C892 C 0.74309 0.7446 0.87997 0.0
N893 N 0.73017 0.74783 0.92106 0.0
N894 N 0.71606 0.73146 0.90259 0.0
C895 C 0.71367 0.73975 0.93367 0.0
H896 H 0.74225 0.72977 0.83944 0.0
Co897 Co 0.70128 0.7177 0.90703 0.0
C898 C 0.69426 0.71968 0.01818 0.0
O899 O 0.71794 0.71544 0.02762 0.0
N900 N 0.68574 0.70398 0.91285 0.0
C901 C 0.67812 0.68804 0.94356 0.0
C902 C 0.68956 0.69763 0.95226 0.0
C903 C 0.67129 0.69798 0.88071 0.0
N904 N 0.66664 0.68823 0.89866 0.0
O905 O 0.66895 0.72253 0.87428 0.0
H906 H 0.70129 0.69957 0.98451 0.0
H907 H 0.66532 0.70049 0.84416 0.0
O908 O 0.6862 0.72084 0.97347 0.0
C909 C 0.67655 0.72171 0.8292 0.0
O910 O 0.70052 0.7176 0.82015 0.0
N911 N 0.73562 0.71267 0.9288 0.0
C912 C 0.7908 0.7077 0.91965 0.0
C913 C 0.7824 0.71595 0.95016 0.0
C914 C 0.75473 0.7184 0.95379 0.0
C915 C 0.74378 0.7044 0.90054 0.0
C916 C 0.77095 0.70164 0.8965 0.0
H917 H 0.74907 0.72542 0.9733 0.0
H918 H 0.72971 0.70049 0.87622 0.0
H919 H 0.70072 0.73975 0.96586 0.0
H920 H 0.75874 0.7489 0.86055 0.0
H921 H 0.67869 0.68132 0.96796 0.0
H922 H 0.79717 0.72092 0.96832 0.0
H923 H 0.77642 0.69546 0.87104 0.0
C924 C 0.42705 0.32629 0.59239 0.0
C925 C 0.43303 0.3164 0.60939 0.0
N926 N 0.44086 0.31703 0.65705 0.0
N927 N 0.43088 0.33324 0.629 0.0
C928 C 0.43922 0.32737 0.66795 0.0
H929 H 0.42153 0.32831 0.55496 0.0
Co930 Co 0.43008 0.34795 0.623 0.0
C931 C 0.41462 0.3555 0.72355 0.0
O932 O 0.42831 0.36422 0.71691 0.0
N933 N 0.42953 0.36292 0.61639 0.0
C934 C 0.44308 0.37916 0.5995 0.0
C935 C 0.45078 0.36886 0.60194 0.0
C936 C 0.40878 0.36989 0.62127 0.0
N937 N 0.41665 0.37991 0.61201 0.0
O938 O 0.39502 0.34712 0.59139 0.0
H939 H 0.47075 0.36597 0.5928 0.0
H940 H 0.38846 0.36765 0.6323 0.0
O941 O 0.41402 0.34861 0.68941 0.0
C942 C 0.40019 0.3487 0.54566 0.0
O943 O 0.42527 0.35097 0.53291 0.0
N944 N 0.4659 0.34827 0.64533 0.0
C945 C 0.52243 0.34755 0.64811 0.0
C946 C 0.50754 0.35007 0.6908 0.0
C947 C 0.47895 0.35025 0.68884 0.0
C948 C 0.48024 0.34559 0.60436 0.0
C949 C 0.50829 0.34524 0.60478 0.0
H950 H 0.46775 0.3519 0.72202 0.0
H951 H 0.46962 0.3439 0.57042 0.0
H952 H 0.44482 0.33071 0.70316 0.0
H953 H 0.43286 0.30936 0.58729 0.0
H954 H 0.45602 0.38558 0.58817 0.0
H955 H 0.51784 0.3518 0.72515 0.0
H956 H 0.5188 0.34345 0.57072 0.0
C957 C 0.30186 0.50126 0.58915 0.0
C958 C 0.29626 0.51121 0.60575 0.0
N959 N 0.28832 0.51068 0.65338 0.0
N960 N 0.29781 0.49433 0.62594 0.0
C961 C 0.28987 0.50034 0.66473 0.0
H962 H 0.30748 0.49924 0.55185 0.0
Co963 Co 0.29776 0.47948 0.62056 0.0
C964 C 0.32127 0.47203 0.71577 0.0
O965 O 0.30614 0.46356 0.7144 0.0
N966 N 0.29742 0.46455 0.61464 0.0
C967 C 0.28307 0.44827 0.6009 0.0
C968 C 0.27543 0.45857 0.60472 0.0
C969 C 0.31837 0.4576 0.6157 0.0
N970 N 0.31011 0.4476 0.60797 0.0
O971 O 0.32934 0.47996 0.57823 0.0
H972 H 0.25498 0.46146 0.60005 0.0
H973 H 0.3393 0.45986 0.62198 0.0
O974 O 0.31988 0.47877 0.68085 0.0
C975 C 0.31968 0.47861 0.53478 0.0
O976 O 0.2933 0.47731 0.53021 0.0
N977 N 0.26472 0.47929 0.65436 0.0
C978 C 0.21023 0.48129 0.67859 0.0
C979 C 0.22931 0.47888 0.71528 0.0
C980 C 0.25686 0.4781 0.70249 0.0
C981 C 0.24614 0.4817 0.6189 0.0
C982 C 0.21889 0.48272 0.6301 0.0
H983 H 0.27141 0.47695 0.73156 0.0
H984 H 0.2527 0.4829 0.58132 0.0
H985 H 0.28407 0.49709 0.7 0.0
H986 H 0.29743 0.51823 0.58357 0.0
H987 H 0.26957 0.44174 0.59411 0.0
H988 H 0.22308 0.47789 0.75333 0.0
H989 H 0.20461 0.48457 0.60087 0.0
C990 C 0.48285 0.48908 0.16465 0.0
C991 C 0.49194 0.49917 0.15774 0.0
N992 N 0.47327 0.5045 0.13118 0.0
N993 N 0.4588 0.48785 0.14149 0.0
C994 C 0.45277 0.49754 0.12433 0.0
H995 H 0.49423 0.48278 0.18155 0.0
Co996 Co 0.44167 0.47476 0.12873 0.0
C997 C 0.42837 0.48565 0.02782 0.0
O998 O 0.44906 0.49207 0.02404 0.0
N999 N 0.42407 0.46181 0.11525 0.0
C1000 C 0.41061 0.44815 0.07074 0.0
C1001 C 0.42473 0.45737 0.07009 0.0
C1002 C 0.40952 0.45495 0.14313 0.0
N1003 N 0.40091 0.44658 0.11658 0.0
O1004 O 0.41109 0.47922 0.16728 0.0
H1005 H 0.43534 0.46057 0.03853 0.0
H1006 H 0.40533 0.45606 0.18194 0.0
O1007 O 0.42575 0.4797 0.06566 0.0
C1008 C 0.4199 0.47701 0.2106 0.0
O1009 O 0.44364 0.47233 0.21422 0.0
N1010 N 0.474 0.46974 0.09903 0.0
C1011 C 0.52934 0.46597 0.10992 0.0
C1012 C 0.5202 0.47411 0.07928 0.0
C1013 C 0.49222 0.47576 0.07355 0.0
C1014 C 0.48276 0.46091 0.12261 0.0
C1015 C 0.51026 0.45871 0.12708 0.0
H1016 H 0.48597 0.48289 0.05614 0.0
H1017 H 0.46894 0.45622 0.14428 0.0
H1018 H 0.43416 0.49929 0.10491 0.0
H1019 H 0.51187 0.502 0.16805 0.0
H1020 H 0.40839 0.44283 0.03997 0.0
H1021 H 0.53418 0.4799 0.06484 0.0
H1022 H 0.5164 0.45204 0.14916 0.0
C1023 C 0.24693 0.33292 0.14698 0.0
C1024 C 0.23608 0.32392 0.12759 0.0
N1025 N 0.25412 0.31978 0.09575 0.0
N1026 N 0.2719 0.33454 0.12792 0.0
C1027 C 0.27569 0.3264 0.09649 0.0
H1028 H 0.23699 0.33809 0.17284 0.0
Co1029 Co 0.29358 0.34632 0.14339 0.0
C1030 C 0.32477 0.351 0.05409 0.0
O1031 O 0.31876 0.36087 0.06145 0.0
N1032 N 0.31612 0.35814 0.15971 0.0
C1033 C 0.355 0.36656 0.17505 0.0
C1034 C 0.34319 0.35702 0.16673 0.0
C1035 C 0.3122 0.36866 0.16389 0.0
N1036 N 0.33558 0.37395 0.17316 0.0
O1037 O 0.3165 0.33778 0.18441 0.0
H1038 H 0.35415 0.34973 0.1635 0.0
H1039 H 0.2929 0.37249 0.15863 0.0
O1040 O 0.31582 0.34395 0.0836 0.0
C1041 C 0.30499 0.33735 0.22669 0.0
O1042 O 0.28027 0.34114 0.23072 0.0
N1043 N 0.26854 0.35462 0.11002 0.0
C1044 C 0.21691 0.36162 0.08399 0.0
C1045 C 0.2337 0.35674 0.04891 0.0
C1046 C 0.25951 0.35318 0.06285 0.0
C1047 C 0.2529 0.35973 0.14361 0.0
C1048 C 0.22737 0.36351 0.13116 0.0
H1049 H 0.27079 0.34835 0.03742 0.0
H1050 H 0.25924 0.36 0.18181 0.0
H1051 H 0.29389 0.32534 0.07467 0.0
H1052 H 0.21609 0.3208 0.13551 0.0
H1053 H 0.37656 0.36797 0.17938 0.0
H1054 H 0.22616 0.35498 0.01231 0.0
H1055 H 0.21489 0.36687 0.15996 0.0
H1056 H 0.11483 0.22781 0.01801 0.0
H1057 H 0.17477 0.24555 0.09903 0.0
H1058 H 0.08945 0.22493 0.09417 0.0
H1059 H 0.14999 0.24243 0.17508 0.0
H1060 H 0.08935 0.24066 0.30202 0.0
H1061 H 0.1109 0.24556 0.22405 0.0
H1062 H 0.09413 0.2147 0.16649 0.0
H1063 H 0.07188 0.21001 0.24318 0.0
C1064 C 0.12256 0.23112 0.05201 0.0
C1065 C 0.14701 0.23679 0.05242 0.0
C1066 C 0.1081 0.22942 0.0958 0.0
C1067 C 0.11784 0.23331 0.14114 0.0
C1068 C 0.14168 0.23938 0.14102 0.0
C1069 C 0.15599 0.24114 0.09723 0.0
C1070 C 0.09031 0.23495 0.27267 0.0
C1071 C 0.07878 0.22496 0.27884 0.0
C1072 C 0.10271 0.23773 0.22794 0.0
C1073 C 0.10408 0.23056 0.18855 0.0
C1074 C 0.09289 0.22054 0.19529 0.0
C1075 C 0.08033 0.2178 0.23965 0.0
H1076 H 0.19339 0.08684 0.15486 0.0
H1077 H 0.12214 0.09054 0.2462 0.0
H1078 H 0.16489 0.08601 0.08173 0.0
H1079 H 0.09339 0.08946 0.1727 0.0
H1080 H 0.06361 0.10691 0.03297 0.0
H1081 H 0.08755 0.10244 0.10788 0.0
H1082 H 0.12951 0.0776 0.03155 0.0
H1083 H 0.10539 0.08221 0.95516 0.0
C1084 C 0.17154 0.08723 0.15945 0.0
C1085 C 0.16003 0.08898 0.20622 0.0
C1086 C 0.15517 0.08665 0.11744 0.0
C1087 C 0.12688 0.08784 0.1212 0.0
C1088 C 0.11519 0.08871 0.1685 0.0
C1089 C 0.13162 0.08926 0.21066 0.0
C1090 C 0.07781 0.10044 0.03183 0.0
C1091 C 0.08281 0.095 0.98771 0.0
C1092 C 0.09131 0.09779 0.07524 0.0
C1093 C 0.11033 0.08961 0.07596 0.0
C1094 C 0.11501 0.08397 0.03214 0.0
C1095 C 0.10125 0.08661 0.98842 0.0
H1096 H 0.93209 0.85511 0.76393 0.0
H1097 H 0.867 0.83971 0.68605 0.0
H1098 H 0.91382 0.84905 0.84209 0.0
H1099 H 0.8471 0.83427 0.7646 0.0
H1100 H 0.82225 0.82091 0.91022 0.0
H1101 H 0.84737 0.82405 0.83447 0.0
H1102 H 0.88049 0.85243 0.89735 0.0
H1103 H 0.85747 0.84871 0.97417 0.0
C1104 C 0.9136 0.8505 0.76377 0.0
C1105 C 0.90072 0.84797 0.71917 0.0
C1106 C 0.90294 0.84707 0.80869 0.0
C1107 C 0.87857 0.84129 0.81035 0.0
C1108 C 0.86606 0.83857 0.76524 0.0
C1109 C 0.87726 0.84175 0.72008 0.0
C1110 C 0.83528 0.82773 0.90812 0.0
C1111 C 0.83719 0.83472 0.948 0.0
C1112 C 0.84948 0.82961 0.86427 0.0
C1113 C 0.86566 0.83863 0.85879 0.0
C1114 C 0.8685 0.84534 0.89969 0.0
C1115 C 0.85484 0.84331 0.94388 0.0
H1116 H 0.85718 0.97946 0.75155 0.0
H1117 H 0.80472 1.00184 0.82327 0.0
H1118 H 0.88126 0.9767 0.82841 0.0
H1119 H 0.83023 0.99974 0.89942 0.0
H1120 H 0.85632 0.98235 0.04153 0.0
H1121 H 0.83492 0.98785 0.96415 0.0
H1122 H 0.91087 0.98263 0.88746 0.0
H1123 H 0.93122 0.9765 0.9639 0.0
C1124 C 0.85095 0.98389 0.78357 0.0
C1125 C 0.82838 0.99058 0.7815 0.0
C1126 C 0.86509 0.98244 0.82777 0.0
C1127 C 0.85753 0.98789 0.87081 0.0
C1128 C 0.83618 0.99516 0.86766 0.0
C1129 C 0.82171 0.99646 0.82365 0.0
C1130 C 0.86829 0.98248 0.00799 0.0
C1131 C 0.89514 0.97886 0.00819 0.0
C1132 C 0.85619 0.98568 0.96363 0.0
C1133 C 0.871 0.98556 0.91899 0.0
C1134 C 0.89847 0.98253 0.92043 0.0
C1135 C 0.91024 0.97908 0.96432 0.0
H1136 H 0.13596 0.74268 0.46508 0.0
H1137 H 0.15538 0.71227 0.52547 0.0
H1138 H 0.11387 0.7474 0.5429 0.0
H1139 H 0.1331 0.71688 0.6021 0.0
H1140 H 0.04854 0.74553 0.66754 0.0
H1141 H 0.07394 0.74304 0.59153 0.0
H1142 H 0.13819 0.7279 0.67362 0.0
H1143 H 0.11238 0.73016 0.74977 0.0
C1144 C 0.13538 0.73699 0.49471 0.0
C1145 C 0.14747 0.7271 0.48895 0.0
C1146 C 0.12274 0.73968 0.53932 0.0
C1147 C 0.12196 0.73256 0.57905 0.0
C1148 C 0.13385 0.72266 0.57286 0.0
C1149 C 0.14642 0.71998 0.52854 0.0
C1150 C 0.06822 0.74177 0.66957 0.0
C1151 C 0.07825 0.73792 0.71475 0.0
C1152 C 0.08288 0.7404 0.62588 0.0
C1153 C 0.10797 0.73516 0.62625 0.0
C1154 C 0.11866 0.7318 0.67185 0.0
C1155 C 0.10398 0.73316 0.71561 0.0
H1156 H 0.1762 0.60901 0.69714 0.0
H1157 H 0.12214 0.58722 0.76947 0.0
H1158 H 0.15475 0.60518 0.61801 0.0
H1159 H 0.10003 0.58359 0.68989 0.0
H1160 H 0.04756 0.59992 0.55763 0.0
H1161 H 0.07179 0.59733 0.63556 0.0
H1162 H 0.14475 0.58964 0.55507 0.0
H1163 H 0.12006 0.59194 0.47678 0.0
C1164 C 0.15993 0.60329 0.69594 0.0
C1165 C 0.15067 0.59847 0.73941 0.0
C1166 C 0.14782 0.60104 0.65059 0.0
C1167 C 0.1258 0.59407 0.64786 0.0
C1168 C 0.11706 0.58896 0.69107 0.0
C1169 C 0.12968 0.59103 0.73645 0.0
C1170 C 0.06852 0.59732 0.55676 0.0
C1171 C 0.08202 0.59606 0.51158 0.0
C1172 C 0.08234 0.59581 0.60124 0.0
C1173 C 0.11012 0.5933 0.60127 0.0
C1174 C 0.1233 0.59155 0.55595 0.0
C1175 C 0.10923 0.59281 0.51133 0.0
H1176 H 0.88213 0.3456 0.51148 0.0
H1177 H 0.80548 0.34002 0.4392 0.0
H1178 H 0.90595 0.34299 0.43304 0.0
H1179 H 0.82909 0.33743 0.36054 0.0
H1180 H 0.88339 0.32974 0.22695 0.0
H1181 H 0.86374 0.32718 0.30956 0.0
H1182 H 0.90509 0.35496 0.36027 0.0
H1183 H 0.92432 0.35754 0.27867 0.0
C1184 C 0.87054 0.34344 0.47904 0.0
C1185 C 0.84213 0.34287 0.48114 0.0
C1186 C 0.88407 0.34204 0.43412 0.0
C1187 C 0.86937 0.34009 0.39048 0.0
C1188 C 0.84101 0.33882 0.3935 0.0
C1189 C 0.82749 0.34029 0.43843 0.0
C1190 C 0.88845 0.33521 0.25601 0.0
C1191 C 0.90521 0.34388 0.2462 0.0
C1192 C 0.87718 0.33376 0.30318 0.0
C1193 C 0.88298 0.34084 0.34153 0.0
C1194 C 0.90051 0.34928 0.33186 0.0
C1195 C 0.91133 0.35081 0.28484 0.0
H1196 H 0.83327 0.49011 0.26924 0.0
H1197 H 0.88822 0.46505 0.23233 0.0
H1198 H 0.85028 0.49003 0.35381 0.0
H1199 H 0.90363 0.46427 0.31694 0.0
H1200 H 0.93929 0.4673 0.46685 0.0
H1201 H 0.92746 0.47047 0.38117 0.0
H1202 H 0.84793 0.48129 0.4268 0.0
H1203 H 0.86115 0.47896 0.51286 0.0
C1204 C 0.84921 0.48466 0.27925 0.0
C1205 C 0.85968 0.47769 0.24415 0.0
C1206 C 0.8587 0.48447 0.32798 0.0
C1207 C 0.87827 0.47706 0.34312 0.0
C1208 C 0.8891 0.47027 0.30721 0.0
C1209 C 0.8802 0.47069 0.25832 0.0
C1210 C 0.9193 0.47038 0.45832 0.0
C1211 C 0.90099 0.47278 0.49622 0.0
C1212 C 0.91236 0.47214 0.40904 0.0
C1213 C 0.88648 0.47603 0.39619 0.0
C1214 C 0.86821 0.47848 0.43463 0.0
C1215 C 0.87559 0.47703 0.48411 0.0
H1216 H 0.60386 0.22785 0.74893 0.0
H1217 H 0.5348 0.23629 0.65896 0.0
H1218 H 0.63241 0.22732 0.67492 0.0
H1219 H 0.56305 0.23564 0.58534 0.0
H1220 H 0.62518 0.23795 0.46053 0.0
H1221 H 0.60172 0.24262 0.53726 0.0
H1222 H 0.63301 0.21467 0.60669 0.0
H1223 H 0.65628 0.21006 0.53104 0.0
C1224 C 0.59495 0.22985 0.7136 0.0
C1225 C 0.56705 0.232 0.70971 0.0
C1226 C 0.6112 0.22946 0.67113 0.0
C1227 C 0.59991 0.2313 0.62407 0.0
C1228 C 0.57246 0.23422 0.62086 0.0
C1229 C 0.55623 0.23453 0.66312 0.0
C1230 C 0.62703 0.23283 0.49224 0.0
C1231 C 0.64245 0.22359 0.48937 0.0
C1232 C 0.61365 0.23551 0.5362 0.0
C1233 C 0.61568 0.22906 0.57831 0.0
C1234 C 0.63141 0.21993 0.57541 0.0
C1235 C 0.64453 0.21722 0.53163 0.0
H1236 H 0.59649 0.09181 0.50468 0.0
H1237 H 0.5691 0.12334 0.53345 0.0
H1238 H 0.61972 0.09155 0.58452 0.0
H1239 H 0.59161 0.12297 0.61314 0.0
H1240 H 0.65734 0.12299 0.72946 0.0
H1241 H 0.63652 0.12284 0.64841 0.0
H1242 H 0.60816 0.09127 0.67348 0.0
H1243 H 0.62979 0.0913 0.7549 0.0
C1244 C 0.59565 0.09871 0.52776 0.0
C1245 C 0.58099 0.1076 0.5127 0.0
C1246 C 0.60867 0.09851 0.5737 0.0
C1247 C 0.60739 0.10722 0.60526 0.0
C1248 C 0.59325 0.11617 0.58954 0.0
C1249 C 0.58025 0.11637 0.54385 0.0
C1250 C 0.64664 0.116 0.71793 0.0
C1251 C 0.64517 0.10716 0.74877 0.0
C1252 C 0.63459 0.11594 0.67141 0.0
C1253 C 0.62065 0.10706 0.65449 0.0
C1254 C 0.61904 0.0982 0.6853 0.0
C1255 C 0.63116 0.09825 0.73209 0.0
H1256 H 0.3412 0.86424 0.49814 0.0
H1257 H 0.34646 0.83213 0.54729 0.0
H1258 H 0.36419 0.85963 0.42181 0.0
H1259 H 0.36914 0.82746 0.47025 0.0
H1260 H 0.38581 0.84712 0.27122 0.0
H1261 H 0.35848 0.85014 0.3451 0.0
H1262 H 0.41208 0.8301 0.42894 0.0
H1263 H 0.43895 0.82692 0.35531 0.0
C1264 C 0.34719 0.85618 0.49266 0.0
C1265 C 0.34208 0.84857 0.5291 0.0
C1266 C 0.36017 0.85351 0.44855 0.0
C1267 C 0.36841 0.84315 0.43957 0.0
C1268 C 0.36331 0.83553 0.47605 0.0
C1269 C 0.3503 0.83821 0.52027 0.0
C1270 C 0.3915 0.84322 0.30522 0.0
C1271 C 0.41474 0.83685 0.3073 0.0
C1272 C 0.37596 0.84503 0.34773 0.0
C1273 C 0.38323 0.84046 0.39323 0.0
C1274 C 0.40572 0.8337 0.39461 0.0
C1275 C 0.42125 0.83192 0.35227 0.0
H1276 H 0.40628 0.95447 0.49274 0.0
H1277 H 0.38833 0.98527 0.54964 0.0
H1278 H 0.38462 0.95907 0.41496 0.0
H1279 H 0.3666 0.98986 0.47134 0.0
H1280 H 0.29493 0.98461 0.35716 0.0
H1281 H 0.3242 0.98388 0.42958 0.0
H1282 H 0.38866 0.97081 0.34089 0.0
H1283 H 0.3591 0.97155 0.26801 0.0
C1284 C 0.39779 0.96224 0.48866 0.0
C1285 C 0.3988 0.96947 0.52768 0.0
C1286 C 0.38567 0.96492 0.44377 0.0
C1287 C 0.37408 0.97486 0.43687 0.0
C1288 C 0.37533 0.98214 0.47564 0.0
C1289 C 0.38769 0.97949 0.5205 0.0
C1290 C 0.31564 0.98187 0.35287 0.0
C1291 C 0.32476 0.97809 0.30716 0.0
C1292 C 0.33243 0.98148 0.39432 0.0
C1293 C 0.35861 0.97717 0.39106 0.0
C1294 C 0.36843 0.97406 0.34454 0.0
C1295 C 0.35168 0.97459 0.30277 0.0
H1296 H 0.70933 0.72444 0.11181 0.0
H1297 H 0.63841 0.71975 0.02059 0.0
H1298 H 0.68063 0.7253 0.18495 0.0
H1299 H 0.60951 0.72059 0.09424 0.0
H1300 H 0.57936 0.70544 0.24169 0.0
H1301 H 0.60471 0.70808 0.16572 0.0
H1302 H 0.64356 0.73525 0.22867 0.0
H1303 H 0.6179 0.73265 0.30532 0.0
C1304 C 0.68751 0.72377 0.10731 0.0
C1305 C 0.67613 0.72195 0.06048 0.0
C1306 C 0.67106 0.72433 0.14924 0.0
C1307 C 0.64282 0.72293 0.14549 0.0
C1308 C 0.63126 0.72159 0.09833 0.0
C1309 C 0.64775 0.7212 0.05614 0.0
C1310 C 0.59324 0.71201 0.23953 0.0
C1311 C 0.59674 0.71879 0.2799 0.0
C1312 C 0.60756 0.71358 0.19563 0.0
C1313 C 0.62602 0.72191 0.19098 0.0
C1314 C 0.6295 0.72875 0.23118 0.0
C1315 C 0.61484 0.72725 0.27507 0.0
H1316 H 0.5699 0.58139 0.99 0.0
H1317 H 0.61245 0.61093 0.99606 0.0
H1318 H 0.58729 0.57693 0.07219 0.0
H1319 H 0.63005 0.60641 0.07746 0.0
H1320 H 0.67487 0.59186 0.20522 0.0
H1321 H 0.66116 0.59305 0.11904 0.0
H1322 H 0.57893 0.58491 0.15927 0.0
H1323 H 0.59252 0.5838 0.24602 0.0
C1324 C 0.58332 0.58684 0.00844 0.0
C1325 C 0.58974 0.59653 0.98665 0.0
C1326 C 0.59312 0.58431 0.05556 0.0
C1327 C 0.61 0.59133 0.08118 0.0
C1328 C 0.61728 0.60081 0.05843 0.0
C1329 C 0.6071 0.60342 0.0119 0.0
C1330 C 0.65393 0.59017 0.19582 0.0
C1331 C 0.63471 0.58784 0.23273 0.0
C1332 C 0.64609 0.59088 0.14638 0.0
C1333 C 0.61896 0.58915 0.13252 0.0
C1334 C 0.60003 0.58624 0.1689 0.0
C1335 C 0.6078 0.58564 0.21859 0.0
H1336 H 0.37475 0.35824 0.03359 0.0
H1337 H 0.31106 0.33865 0.97551 0.0
H1338 H 0.39807 0.3578 0.95438 0.0
H1339 H 0.33369 0.33857 0.89468 0.0
H1340 H 0.39155 0.33725 0.75881 0.0
H1341 H 0.37207 0.33419 0.84093 0.0
H1342 H 0.38832 0.3664 0.87909 0.0
H1343 H 0.40811 0.36934 0.79857 0.0
C1344 C 0.36609 0.35365 1.0039 0.0
C1345 C 0.34129 0.34844 0.01048 0.0
C1346 C 0.3792 0.3535 0.95827 0.0
C1347 C 0.36742 0.34839 0.91757 0.0
C1348 C 0.34339 0.34257 0.92513 0.0
C1349 C 0.33045 0.34258 0.97137 0.0
C1350 C 0.3909 0.34366 0.78487 0.0
C1351 C 0.40157 0.35353 0.77214 0.0
C1352 C 0.37971 0.34191 0.8319 0.0
C1353 C 0.379 0.34999 0.86713 0.0
C1354 C 0.38919 0.35988 0.85368 0.0
C1355 C 0.40038 0.36161 0.8071 0.0
H1356 H 0.42221 0.49893 0.94945 0.0
H1357 H 0.39249 0.46972 0.00891 0.0
H1358 H 0.3951 0.49629 0.87548 0.0
H1359 H 0.36727 0.4666 0.93371 0.0
H1360 H 0.30785 0.46621 0.80882 0.0
H1361 H 0.33103 0.4704 0.88519 0.0
H1362 H 0.39253 0.4872 0.80264 0.0
H1363 H 0.36783 0.48359 0.7264 0.0
C1364 C 0.40999 0.4919 0.94663 0.0
C1365 C 0.40983 0.48447 0.98498 0.0
C1366 C 0.39463 0.49031 0.90381 0.0
C1367 C 0.3791 0.48114 0.8977 0.0
C1368 C 0.37852 0.47384 0.93679 0.0
C1369 C 0.39333 0.47557 0.98006 0.0
C1370 C 0.32636 0.4708 0.80705 0.0
C1371 C 0.33618 0.4745 0.76164 0.0
C1372 C 0.33983 0.47316 0.85098 0.0
C1373 C 0.364 0.47908 0.85068 0.0
C1374 C 0.37379 0.48279 0.8049 0.0
C1375 C 0.35982 0.48064 0.76097 0.0
H1376 H 0.79179 0.19497 0.38637 0.0
H1377 H 0.79749 0.22634 0.44527 0.0
H1378 H 0.84141 0.19382 0.3854 0.0
H1379 H 0.84671 0.22494 0.44614 0.0
H1380 H 0.93349 0.21526 0.47819 0.0
H1381 H 0.88437 0.21391 0.48655 0.0
H1382 H 0.87806 0.2045 0.33409 0.0
H1383 H 0.92771 0.20582 0.32558 0.0
C1384 C 0.80354 0.20154 0.39982 0.0
C1385 C 0.7906 0.21077 0.41563 0.0
C1386 C 0.83187 0.20087 0.39917 0.0
C1387 C 0.84771 0.20932 0.41528 0.0
C1388 C 0.83486 0.21828 0.43382 0.0
C1389 C 0.80661 0.21903 0.43376 0.0
C1390 C 0.92171 0.2127 0.44665 0.0
C1391 C 0.93436 0.21054 0.40129 0.0
C1392 C 0.89362 0.21201 0.45143 0.0
C1393 C 0.87758 0.20908 0.41106 0.0
C1394 C 0.89015 0.20666 0.36589 0.0
C1395 C 0.91839 0.20748 0.3609 0.0
H1396 H 0.42347 0.08015 0.4677 0.0
H1397 H 0.42902 0.11345 0.49047 0.0
H1398 H 0.37495 0.08184 0.45045 0.0
H1399 H 0.38032 0.11516 0.47389 0.0
H1400 H 0.28568 0.11034 0.44656 0.0
H1401 H 0.32811 0.1082 0.49189 0.0
H1402 H 0.36353 0.0927 0.36624 0.0
H1403 H 0.32171 0.09529 0.31949 0.0
C1404 C 0.41388 0.08771 0.47226 0.0
C1405 C 0.42973 0.09668 0.48012 0.0
C1406 C 0.38629 0.0887 0.46169 0.0
C1407 C 0.37434 0.09865 0.45971 0.0
C1408 C 0.38927 0.10742 0.4751 0.0
C1409 C 0.417 0.10643 0.48518 0.0
C1410 C 0.30267 0.10672 0.42789 0.0
C1411 C 0.30026 0.10305 0.37899 0.0
C1412 C 0.32676 0.10536 0.45432 0.0
C1413 C 0.34862 0.10009 0.43282 0.0
C1414 C 0.34654 0.09657 0.38391 0.0
C1415 C 0.32266 0.09809 0.35712 0.0
H1416 H 0.80394 0.08132 0.86465 0.0
H1417 H 0.7963 0.1115 0.79408 0.0
H1418 H 0.85249 0.08387 0.87247 0.0
H1419 H 0.84558 0.11386 0.79902 0.0
H1420 H 0.9249 0.12059 0.88484 0.0
H1421 H 0.87695 0.11769 0.86399 0.0
H1422 H 0.89458 0.08513 0.83428 0.0
H1423 H 0.94157 0.08796 0.85806 0.0
C1424 C 0.8129 0.08838 0.84948 0.0
C1425 C 0.79649 0.09629 0.8295 0.0
C1426 C 0.84077 0.08983 0.85363 0.0
C1427 C 0.85289 0.09916 0.83701 0.0
C1428 C 0.83671 0.10671 0.81322 0.0
C1429 C 0.80863 0.10529 0.80957 0.0
C1430 C 0.91812 0.11282 0.87476 0.0
C1431 C 0.93635 0.10442 0.87456 0.0
C1432 C 0.89093 0.11117 0.86195 0.0
C1433 C 0.88193 0.10116 0.84759 0.0
C1434 C 0.90062 0.09287 0.8463 0.0
C1435 C 0.92746 0.09446 0.86012 0.0
H1436 H 0.4183 0.23103 0.88758 0.0
H1437 H 0.42032 0.19918 0.83487 0.0
H1438 H 0.37286 0.22808 0.92137 0.0
H1439 H 0.37474 0.19623 0.86863 0.0
H1440 H 0.28086 0.20351 0.87441 0.0
H1441 H 0.32768 0.20391 0.8488 0.0
H1442 H 0.35108 0.21637 0.99035 0.0
H1443 H 0.3038 0.21547 0.01804 0.0
C1444 C 0.40878 0.22346 0.88249 0.0
C1445 C 0.42254 0.21537 0.85805 0.0
C1446 C 0.38307 0.22172 0.90261 0.0
C1447 C 0.37058 0.21189 0.89814 0.0
C1448 C 0.38406 0.20386 0.8727 0.0
C1449 C 0.40995 0.20556 0.85317 0.0
C1450 C 0.2958 0.20591 0.90139 0.0
C1451 C 0.28818 0.20942 0.94877 0.0
C1452 C 0.32278 0.20624 0.88618 0.0
C1453 C 0.34285 0.21025 0.91741 0.0
C1454 C 0.33577 0.21335 0.96542 0.0
C1455 C 0.3087 0.21285 0.98115 0.0
H1456 H 0.19198 0.86704 0.56474 0.0
H1457 H 0.16992 0.83957 0.64914 0.0
H1458 H 0.14392 0.87231 0.56258 0.0
H1459 H 0.12262 0.84511 0.64883 0.0
H1460 H 0.04976 0.86509 0.69075 0.0
H1461 H 0.09912 0.86303 0.68792 0.0
H1462 H 0.09653 0.86227 0.529 0.0
H1463 H 0.04742 0.86367 0.53112 0.0
C1464 C 0.17691 0.86208 0.58221 0.0
C1465 C 0.18473 0.85298 0.60775 0.0
C1466 C 0.14961 0.86516 0.58148 0.0
C1467 C 0.13001 0.85925 0.60685 0.0
C1468 C 0.13762 0.84994 0.63029 0.0
C1469 C 0.16464 0.84677 0.63026 0.0
C1470 C 0.05964 0.86458 0.65515 0.0
C1471 C 0.04436 0.86443 0.6113 0.0
C1472 C 0.08787 0.86349 0.65361 0.0
C1473 C 0.10132 0.86246 0.60821 0.0
C1474 C 0.0865 0.86316 0.56433 0.0
C1475 C 0.05828 0.86404 0.5658 0.0
H1476 H 0.54846 0.95201 0.61234 0.0
H1477 H 0.56924 0.98431 0.64081 0.0
H1478 H 0.59546 0.94688 0.6312 0.0
H1479 H 0.61552 0.97908 0.6616 0.0
H1480 H 0.67888 0.96342 0.76137 0.0
H1481 H 0.63063 0.96448 0.74047 0.0
H1482 H 0.64805 0.9545 0.59211 0.0
H1483 H 0.69606 0.95407 0.61092 0.0
C1484 C 0.56315 0.95802 0.62149 0.0
C1485 C 0.55519 0.96855 0.6256 0.0
C1486 C 0.58979 0.95506 0.63296 0.0
C1487 C 0.60848 0.96258 0.64926 0.0
C1488 C 0.60104 0.97314 0.65037 0.0
C1489 C 0.57471 0.97613 0.63814 0.0
C1490 C 0.67251 0.96131 0.72447 0.0
C1491 C 0.69171 0.95886 0.68783 0.0
C1492 C 0.64491 0.96184 0.71275 0.0
C1493 C 0.63603 0.95964 0.66467 0.0
C1494 C 0.6546 0.95615 0.62948 0.0
C1495 C 0.68221 0.95584 0.64074 0.0
H1496 H 0.04492 0.98015 0.083 0.0
H1497 H 0.04172 0.94646 0.09385 0.0
H1498 H 0.09277 0.97987 0.10216 0.0
H1499 H 0.0905 0.94608 0.11131 0.0
H1500 H 0.16326 0.9512 0.21572 0.0
H1501 H 0.11727 0.95038 0.1812 0.0
H1502 H 0.13725 0.97586 0.08203 0.0
H1503 H 0.18218 0.97703 0.1191 0.0
C1504 C 0.05478 0.97263 0.0872 0.0
C1505 C 0.03965 0.96332 0.08701 0.0
C1506 C 0.08233 0.97246 0.09846 0.0
C1507 C 0.09545 0.96296 0.10909 0.0
C1508 C 0.0808 0.95355 0.1046 0.0
C1509 C 0.05303 0.95373 0.09395 0.0
C1510 C 0.15735 0.95671 0.18725 0.0
C1511 C 0.17555 0.96438 0.17088 0.0
C1512 C 0.13134 0.95613 0.16674 0.0
C1513 C 0.12355 0.96305 0.12873 0.0
C1514 C 0.14229 0.97056 0.11189 0.0
C1515 C 0.16793 0.97128 0.13315 0.0
H1516 H 0.58134 0.85013 0.22108 0.0
H1517 H 0.54493 0.86577 0.09548 0.0
H1518 H 0.62495 0.85001 0.17788 0.0
H1519 H 0.58856 0.86605 0.05429 0.0
H1520 H 0.68292 0.87293 0.03064 0.0
H1521 H 0.63741 0.87378 0.06728 0.0
H1522 H 0.64017 0.84057 0.09604 0.0
H1523 H 0.68537 0.8397 0.0592 0.0
C1524 C 0.58258 0.85366 0.18481 0.0
C1525 C 0.55943 0.85797 0.16214 0.0
C1526 C 0.60753 0.85357 0.16012 0.0
C1527 C 0.60987 0.85794 0.11267 0.0
C1528 C 0.58724 0.86269 0.09096 0.0
C1529 C 0.56226 0.86262 0.11512 0.0
C1530 C 0.67332 0.86578 0.04328 0.0
C1531 C 0.68744 0.85624 0.0417 0.0
C1532 C 0.6475 0.86628 0.06457 0.0
C1533 C 0.63572 0.85727 0.0853 0.0
C1534 C 0.64912 0.84764 0.08101 0.0
C1535 C 0.6747 0.84711 0.05907 0.0
H1536 H 0.82693 0.72313 0.89696 0.0
H1537 H 0.81921 0.68949 0.90526 0.0
H1538 H 0.87163 0.72124 0.86011 0.0
H1539 H 0.86365 0.68759 0.86609 0.0
H1540 H 0.95921 0.69213 0.8627 0.0
H1541 H 0.91125 0.69045 0.88327 0.0
H1542 H 0.8925 0.71582 0.78323 0.0
H1543 H 0.94071 0.71772 0.76425 0.0
C1544 C 0.83494 0.71532 0.89159 0.0
C1545 C 0.81957 0.70646 0.90438 0.0
C1546 C 0.8603 0.71423 0.86926 0.0
C1547 C 0.87091 0.70425 0.85895 0.0
C1548 C 0.85596 0.69538 0.87319 0.0
C1549 C 0.83056 0.69647 0.89569 0.0
C1550 C 0.94464 0.69703 0.84351 0.0
C1551 C 0.95362 0.70519 0.8127 0.0
C1552 C 0.91715 0.69611 0.85546 0.0
C1553 C 0.89824 0.70327 0.83628 0.0
C1554 C 0.9068 0.71042 0.79985 0.0
C1555 C 0.93433 0.71137 0.78813 0.0
H1556 H 0.41643 0.58837 0.94824 0.0
H1557 H 0.43855 0.61887 0.89286 0.0
H1558 H 0.36836 0.59297 0.94193 0.0
H1559 H 0.39025 0.6235 0.88589 0.0
H1560 H 0.2855 0.60679 0.95828 0.0
H1561 H 0.3337 0.60559 0.9762 0.0
H1562 H 0.35229 0.61605 0.82846 0.0
H1563 H 0.30346 0.61749 0.81043 0.0
C1564 C 0.41088 0.59617 0.9362 0.0
C1565 C 0.43092 0.60333 0.92169 0.0
C1566 C 0.38348 0.5988 0.93235 0.0
C1567 C 0.37569 0.60857 0.91313 0.0
C1568 C 0.3958 0.61591 0.90051 0.0
C1569 C 0.4233 0.61332 0.90512 0.0
C1570 C 0.29976 0.60912 0.92986 0.0
C1571 C 0.29067 0.61236 0.88299 0.0
C1572 C 0.32738 0.60833 0.94012 0.0
C1573 C 0.34663 0.61073 0.90379 0.0
C1574 C 0.33775 0.61427 0.85729 0.0
C1575 C 0.30992 0.61501 0.84683 0.0
H1576 H 0.92365 0.62358 0.40937 0.0
H1577 H 0.93727 0.59048 0.39255 0.0
H1578 H 0.87728 0.62149 0.3786 0.0
H1579 H 0.89195 0.58837 0.35842 0.0
H1580 H 0.79988 0.58682 0.33824 0.0
H1581 H 0.84593 0.58799 0.37004 0.0
H1582 H 0.85382 0.61889 0.30569 0.0
H1583 H 0.80679 0.61787 0.27722 0.0
C1584 C 0.91638 0.61584 0.39997 0.0
C1585 C 0.9336 0.60716 0.40426 0.0
C1586 C 0.8901 0.61463 0.38123 0.0
C1587 C 0.88086 0.60478 0.36495 0.0
C1588 C 0.898 0.59606 0.37104 0.0
C1589 C 0.92397 0.59723 0.39091 0.0
C1590 C 0.81187 0.59371 0.32961 0.0
C1591 C 0.8001 0.60221 0.30482 0.0
C1592 C 0.83827 0.59443 0.34811 0.0
C1593 C 0.85365 0.60362 0.34136 0.0
C1594 C 0.84239 0.61182 0.31311 0.0
C1595 C 0.81571 0.61118 0.29567 0.0
H1596 H 0.30709 0.70313 0.39925 0.0
H1597 H 0.29414 0.73603 0.3728 0.0
H1598 H 0.35573 0.7054 0.38296 0.0
H1599 H 0.34191 0.73826 0.35303 0.0
H1600 H 0.43242 0.74108 0.38336 0.0
H1601 H 0.3837 0.73913 0.38981 0.0
H1602 H 0.38916 0.70852 0.32246 0.0
H1603 H 0.43867 0.71027 0.31954 0.0
C1604 C 0.31485 0.71084 0.39033 0.0
C1605 C 0.29734 0.71947 0.38875 0.0
C1606 C 0.34251 0.71214 0.38002 0.0
C1607 C 0.35287 0.72203 0.36663 0.0
C1608 C 0.33495 0.73059 0.3644 0.0
C1609 C 0.30759 0.72934 0.37589 0.0
C1610 C 0.42315 0.73399 0.36931 0.0
C1611 C 0.43928 0.72576 0.35175 0.0
C1612 C 0.39511 0.73288 0.37265 0.0
C1613 C 0.38238 0.72358 0.35738 0.0
C1614 C 0.39836 0.71567 0.33583 0.0
C1615 C 0.42664 0.71674 0.33319 0.0
H1616 H 0.18397 0.37788 0.11197 0.0
H1617 H 0.18264 0.3477 0.04051 0.0
H1618 H 0.1343 0.3777 0.11622 0.0
H1619 H 0.13339 0.34754 0.0446 0.0
H1620 H 0.05147 0.36489 0.17719 0.0
H1621 H 0.10034 0.36747 0.16401 0.0
H1622 H 0.09226 0.35564 0.01552 0.0
H1623 H 0.04431 0.35261 0.02927 0.0
C1624 C 0.17305 0.37132 0.09626 0.0
C1625 C 0.18725 0.36281 0.07587 0.0
C1626 C 0.14467 0.37118 0.09909 0.0
C1627 C 0.12995 0.36256 0.0813 0.0
C1628 C 0.14409 0.35436 0.05822 0.0
C1629 C 0.17239 0.35448 0.0555 0.0
C1630 C 0.06022 0.36285 0.14184 0.0
C1631 C 0.04391 0.35865 0.10423 0.0
C1632 C 0.08809 0.36444 0.13404 0.0
C1633 C 0.10013 0.36178 0.08861 0.0
C1634 C 0.08369 0.35771 0.05099 0.0
C1635 C 0.05606 0.3561 0.05878 0.0
H1636 H 0.54335 0.46126 0.20485 0.0
H1637 H 0.5779 0.47163 0.06628 0.0
H1638 H 0.5878 0.46216 0.24326 0.0
H1639 H 0.62252 0.47288 0.10597 0.0
H1640 H 0.69245 0.48302 0.2029 0.0
H1641 H 0.64502 0.48365 0.17631 0.0
H1642 H 0.63282 0.45231 0.23176 0.0
H1643 H 0.6804 0.45165 0.25798 0.0
C1644 C 0.56047 0.46356 0.18216 0.0
C1645 C 0.55706 0.46614 0.13189 0.0
C1646 C 0.58588 0.4642 0.20458 0.0
C1647 C 0.60846 0.46762 0.17767 0.0
C1648 C 0.60523 0.47034 0.12767 0.0
C1649 C 0.57976 0.46958 0.10491 0.0
C1650 C 0.6793 0.47645 0.21136 0.0
C1651 C 0.68992 0.4673 0.2328 0.0
C1652 C 0.65236 0.47674 0.19531 0.0
C1653 C 0.63554 0.46796 0.20118 0.0
C1654 C 0.64544 0.45918 0.22675 0.0
C1655 C 0.67252 0.45882 0.24214 0.0
H1656 H 0.04684 0.46766 0.61167 0.0
H1657 H 0.03887 0.49803 0.67972 0.0
H1658 H 0.09548 0.46771 0.63064 0.0
H1659 H 0.08703 0.49791 0.70034 0.0
H1660 H 0.17952 0.49854 0.66635 0.0
H1661 H 0.13023 0.49904 0.65858 0.0
H1662 H 0.12593 0.46657 0.70307 0.0
H1663 H 0.17564 0.46609 0.7098 0.0
C1664 C 0.05558 0.47438 0.63018 0.0
C1665 C 0.0392 0.48283 0.64427 0.0
C1666 C 0.08324 0.47432 0.64188 0.0
C1667 C 0.09493 0.48274 0.66771 0.0
C1668 C 0.07861 0.49132 0.68046 0.0
C1669 C 0.05106 0.49137 0.66873 0.0
C1670 C 0.16787 0.49163 0.67603 0.0
C1671 C 0.18107 0.48229 0.68882 0.0
C1672 C 0.13971 0.49189 0.67143 0.0
C1673 C 0.12429 0.48279 0.67945 0.0
C1674 C 0.13742 0.47363 0.69578 0.0
C1675 C 0.1657 0.4734 0.7005 0.0
H1676 H 0.55552 0.33316 0.60558 0.0
H1677 H 0.55718 0.3624 0.6849 0.0
H1678 H 0.6027 0.3354 0.58303 0.0
H1679 H 0.60548 0.36431 0.66569 0.0
H1680 H 0.68074 0.37143 0.57479 0.0
H1681 H 0.63328 0.36875 0.59855 0.0
H1682 H 0.64747 0.33536 0.60549 0.0
H1683 H 0.694 0.3381 0.5788 0.0
C1684 C 0.56627 0.33996 0.61927 0.0
C1685 C 0.55253 0.3477 0.64626 0.0
C1686 C 0.5935 0.34122 0.60663 0.0
C1687 C 0.60799 0.35014 0.62173 0.0
C1688 C 0.59478 0.3575 0.65211 0.0
C1689 C 0.56725 0.35631 0.66409 0.0
C1690 C 0.67325 0.36353 0.57994 0.0
C1691 C 0.69067 0.35496 0.57378 0.0
C1692 C 0.64628 0.36198 0.59458 0.0
C1693 C 0.63644 0.35183 0.60453 0.0
C1694 C 0.65397 0.34327 0.59734 0.0
C1695 C 0.68066 0.34481 0.58171 0.0
H1696 H 0.08361 0.18908 0.36127 0.0
H1697 H 0.11157 0.18423 0.51099 0.0
H1698 H 0.10029 0.17188 0.33912 0.0
H1699 H 0.12764 0.16689 0.48852 0.0
H1700 H 0.12686 0.13183 0.43333 0.0
H1701 H 0.11056 0.14903 0.46077 0.0
H1702 H 0.1452 0.16326 0.33066 0.0
H1703 H 0.16182 0.14638 0.30404 0.0
C1704 C 0.0934 0.18447 0.3896 0.0
C1705 C 0.09616 0.18827 0.43813 0.0
C1706 C 0.10292 0.17451 0.37678 0.0
C1707 C 0.11532 0.16798 0.41203 0.0
C1708 C 0.1179 0.17166 0.46058 0.0
C1709 C 0.10864 0.18168 0.47338 0.0
C1710 C 0.13121 0.13865 0.41089 0.0
C1711 C 0.14524 0.1376 0.36591 0.0
C1712 C 0.12183 0.1485 0.42656 0.0
C1713 C 0.12617 0.15751 0.39744 0.0
C1714 C 0.14086 0.15647 0.35337 0.0
C1715 C 0.15035 0.14672 0.33802 0.0
H1716 H 0.08143 0.13284 0.90786 0.0
H1717 H 0.1104 0.13775 0.75911 0.0
H1718 H 0.09388 0.15069 0.92856 0.0
H1719 H 0.12132 0.15578 0.77904 0.0
H1720 H 0.16061 0.18547 0.84486 0.0
H1721 H 0.15035 0.16739 0.82178 0.0
H1722 H 0.07944 0.16799 0.91587 0.0
H1723 H 0.0903 0.18587 0.93963 0.0
C1724 C 0.09054 0.13766 0.87948 0.0
C1725 C 0.09464 0.13373 0.83157 0.0
C1726 C 0.09734 0.14802 0.8912 0.0
C1727 C 0.10829 0.15484 0.85536 0.0
C1728 C 0.11307 0.15083 0.80784 0.0
C1729 C 0.10645 0.14045 0.7962 0.0
C1730 C 0.14263 0.18177 0.85991 0.0
C1731 C 0.12633 0.18709 0.89422 0.0
C1732 C 0.13672 0.17137 0.84683 0.0
C1733 C 0.11422 0.16608 0.86743 0.0
C1734 C 0.09738 0.17162 0.90023 0.0
C1735 C 0.10344 0.18193 0.91357 0.0
H1736 H 0.87552 0.89186 0.49184 0.0
H1737 H 0.90394 0.88795 0.64126 0.0
H1738 H 0.86611 0.91025 0.50781 0.0
H1739 H 0.89385 0.90629 0.65807 0.0
H1740 H 0.89195 0.94138 0.66814 0.0
H1741 H 0.90584 0.92379 0.64468 0.0
H1742 H 0.83599 0.92157 0.54837 0.0
H1743 H 0.82284 0.93937 0.57094 0.0
C1744 C 0.87963 0.89493 0.52829 0.0
C1745 C 0.8904 0.8884 0.56534 0.0
C1746 C 0.87412 0.9055 0.53757 0.0
C1747 C 0.879 0.90987 0.58438 0.0
C1748 C 0.89019 0.90334 0.62125 0.0
C1749 C 0.89596 0.89278 0.61176 0.0
C1750 C 0.87982 0.93716 0.64142 0.0
C1751 C 0.85631 0.94177 0.62141 0.0
C1752 C 0.88761 0.92701 0.62827 0.0
C1753 C 0.8719 0.92108 0.5951 0.0
C1754 C 0.84887 0.92586 0.57363 0.0
C1755 C 0.84126 0.9361 0.58644 0.0
H1756 H 0.89616 0.93894 0.08452 0.0
H1757 H 0.86911 0.9341 0.23444 0.0
H1758 H 0.88106 0.92137 0.06335 0.0
H1759 H 0.85424 0.91648 0.21326 0.0
H1760 H 0.85752 0.88132 0.16544 0.0
H1761 H 0.87119 0.89904 0.19032 0.0
H1762 H 0.83999 0.91126 0.0529 0.0
H1763 H 0.82642 0.8938 0.02854 0.0
C1764 C 0.88671 0.93422 0.11292 0.0
C1765 C 0.88396 0.93806 0.16129 0.0
C1766 C 0.87808 0.92408 0.10079 0.0
C1767 C 0.86643 0.91743 0.13661 0.0
C1768 C 0.86349 0.92128 0.18486 0.0
C1769 C 0.87202 0.93143 0.19696 0.0
C1770 C 0.85341 0.88781 0.14086 0.0
C1771 C 0.84133 0.88604 0.09457 0.0
C1772 C 0.86124 0.89798 0.15504 0.0
C1773 C 0.85714 0.90661 0.12325 0.0
C1774 C 0.84423 0.90482 0.07781 0.0
C1775 C 0.83642 0.89474 0.0638 0.0
H1776 H 0.06208 0.68825 0.86231 0.0
H1777 H 0.14476 0.69446 0.90721 0.0
H1778 H 0.07093 0.6695 0.86688 0.0
H1779 H 0.15359 0.67576 0.91167 0.0
H1780 H 0.16795 0.64162 0.8634 0.0
H1781 H 0.15933 0.66043 0.86085 0.0
H1782 H 0.0797 0.65535 0.92343 0.0
H1783 H 0.0883 0.63663 0.92606 0.0
C1784 C 0.08205 0.68566 0.87368 0.0
C1785 C 0.10267 0.69298 0.88416 0.0
C1786 C 0.08718 0.67486 0.87627 0.0
C1787 C 0.11308 0.67103 0.88943 0.0
C1788 C 0.13356 0.67835 0.90047 0.0
C1789 C 0.12844 0.68913 0.89795 0.0
C1790 C 0.14871 0.6445 0.8771 0.0
C1791 C 0.12882 0.6375 0.89465 0.0
C1792 C 0.14372 0.65533 0.87561 0.0
C1793 C 0.11869 0.65948 0.89165 0.0
C1794 C 0.09898 0.65248 0.90979 0.0
C1795 C 0.10397 0.64169 0.91132 0.0
H1796 H 0.11972 0.6883 0.24904 0.0
H1797 H 0.1399 0.69029 0.40383 0.0
H1798 H 0.10349 0.67052 0.26098 0.0
H1799 H 0.12251 0.67242 0.41596 0.0
H1800 H 0.06621 0.64147 0.41103 0.0
H1801 H 0.07685 0.66033 0.40493 0.0
H1802 H 0.13166 0.65392 0.28455 0.0
H1803 H 0.12151 0.63527 0.2914 0.0
C1804 C 0.12061 0.685 0.2858 0.0
C1805 C 0.13181 0.69075 0.32521 0.0
C1806 C 0.1111 0.67478 0.29262 0.0
C1807 C 0.11198 0.66999 0.33926 0.0
C1808 C 0.12151 0.67591 0.37955 0.0
C1809 C 0.13143 0.68616 0.37258 0.0
C1810 C 0.08034 0.64416 0.38313 0.0
C1811 C 0.093 0.63691 0.35162 0.0
C1812 C 0.0866 0.65491 0.3799 0.0
C1813 C 0.1051 0.65863 0.34421 0.0
C1814 C 0.11724 0.65135 0.31225 0.0
C1815 C 0.11148 0.64066 0.31622 0.0
H1816 H 0.82153 0.43164 0.06519 0.0
H1817 H 0.87495 0.43034 0.19137 0.0
H1818 H 0.83721 0.41428 0.03992 0.0
H1819 H 0.88938 0.41295 0.16819 0.0
H1820 H 0.92321 0.38341 0.10827 0.0
H1821 H 0.91361 0.40199 0.11561 0.0
H1822 H 0.83172 0.39666 0.06364 0.0
H1823 H 0.84186 0.37825 0.05319 0.0
C1824 C 0.83677 0.42771 0.08727 0.0
C1825 C 0.8466 0.43235 0.13076 0.0
C1826 C 0.84557 0.41769 0.07318 0.0
C1827 C 0.86443 0.41206 0.10221 0.0
C1828 C 0.87509 0.41697 0.1444 0.0
C1829 C 0.86644 0.42695 0.15824 0.0
C1830 C 0.90333 0.38618 0.09741 0.0
C1831 C 0.88324 0.37916 0.08087 0.0
C1832 C 0.89766 0.39689 0.10221 0.0
C1833 C 0.87168 0.40091 0.09101 0.0
C1834 C 0.85202 0.39396 0.07242 0.0
C1835 C 0.85775 0.38329 0.06719 0.0
H1836 H 0.8755 0.44092 0.59403 0.0
H1837 H 0.90424 0.43356 0.7403 0.0
H1838 H 0.85799 0.42297 0.5857 0.0
H1839 H 0.88666 0.41587 0.73258 0.0
H1840 H 0.88916 0.38234 0.67938 0.0
H1841 H 0.90021 0.4007 0.68808 0.0
H1842 H 0.82576 0.40905 0.61336 0.0
H1843 H 0.81498 0.39036 0.6033 0.0
C1844 C 0.87763 0.43555 0.62471 0.0
C1845 C 0.89171 0.43865 0.66752 0.0
C1846 C 0.8676 0.42524 0.62 0.0
C1847 C 0.87133 0.41783 0.65808 0.0
C1848 C 0.88403 0.4212 0.70182 0.0
C1849 C 0.8941 0.43139 0.70637 0.0
C1850 C 0.8751 0.38803 0.66446 0.0
C1851 C 0.85121 0.38478 0.6403 0.0
C1852 C 0.8813 0.39865 0.67002 0.0
C1853 C 0.86386 0.40648 0.65177 0.0
C1854 C 0.83979 0.40328 0.62771 0.0
C1855 C 0.83345 0.39256 0.62235 0.0
H1856 H 0.61383 0.13075 0.92358 0.0
H1857 H 0.68954 0.14756 0.9078 0.0
H1858 H 0.58904 0.14726 0.91871 0.0
H1859 H 0.6649 0.16396 0.90295 0.0
H1860 H 0.61495 0.19342 0.92261 0.0
H1861 H 0.63712 0.17684 0.94503 0.0
H1862 H 0.57849 0.16002 0.85677 0.0
H1863 H 0.55631 0.1764 0.83589 0.0
C1864 C 0.62524 0.13793 0.9191 0.0
C1865 C 0.65378 0.13772 0.91598 0.0
C1866 C 0.61101 0.14743 0.9164 0.0
C1867 C 0.6249 0.15701 0.91042 0.0
C1868 C 0.65345 0.15681 0.90847 0.0
C1869 C 0.66765 0.14733 0.91115 0.0
C1870 C 0.60658 0.18614 0.90902 0.0
C1871 C 0.58411 0.18623 0.87704 0.0
C1872 C 0.61939 0.17664 0.92136 0.0
C1873 C 0.60979 0.16704 0.90237 0.0
C1874 C 0.58643 0.16718 0.8725 0.0
C1875 C 0.57383 0.17661 0.86005 0.0
H1876 H 0.63536 0.18616 0.39887 0.0
H1877 H 0.61824 0.18559 0.24271 0.0
H1878 H 0.61306 0.16906 0.40798 0.0
H1879 H 0.5975 0.16853 0.25116 0.0
H1880 H 0.53716 0.1432 0.28361 0.0
H1881 H 0.55852 0.16021 0.28031 0.0
H1882 H 0.61687 0.1504 0.39012 0.0
H1883 H 0.59427 0.13332 0.39531 0.0
C1884 C 0.62678 0.18244 0.36655 0.0
C1885 C 0.62879 0.18732 0.32001 0.0
C1886 C 0.6143 0.17255 0.37163 0.0
C1887 C 0.60335 0.16731 0.33034 0.0
C1888 C 0.60522 0.17229 0.28409 0.0
C1889 C 0.61753 0.1821 0.27909 0.0
C1890 C 0.55436 0.14461 0.30753 0.0
C1891 C 0.56376 0.13678 0.33992 0.0
C1892 C 0.56695 0.15442 0.30518 0.0
C1893 C 0.58968 0.15679 0.33471 0.0
C1894 C 0.59929 0.14896 0.36707 0.0
C1895 C 0.58654 0.13908 0.36957 0.0
H1896 H 0.36359 0.8768 0.10321 0.0
H1897 H 0.43094 0.89246 0.17265 0.0
H1898 H 0.34255 0.89385 0.08506 0.0
H1899 H 0.41042 0.90942 0.15461 0.0
H1900 H 0.37143 0.93948 0.11131 0.0
H1901 H 0.39361 0.92265 0.09347 0.0
H1902 H 0.32222 0.90634 0.14568 0.0
H1903 H 0.30056 0.92307 0.16348 0.0
C1904 C 0.37427 0.88392 0.11295 0.0
C1905 C 0.39876 0.88339 0.13933 0.0
C1906 C 0.36223 0.89365 0.10296 0.0
C1907 C 0.37475 0.90301 0.1186 0.0
C1908 C 0.40034 0.90242 0.14151 0.0
C1909 C 0.41207 0.89272 0.15209 0.0
C1910 C 0.36032 0.93227 0.11731 0.0
C1911 C 0.33442 0.93251 0.13891 0.0
C1912 C 0.37299 0.92266 0.10748 0.0
C1913 C 0.35973 0.91314 0.11839 0.0
C1914 C 0.33294 0.91348 0.13631 0.0
C1915 C 0.32055 0.92305 0.14679 0.0
H1916 H 0.33244 0.88794 0.77175 0.0
H1917 H 0.3537 0.88287 0.61955 0.0
H1918 H 0.35707 0.90458 0.77109 0.0
H1919 H 0.37813 0.89973 0.61833 0.0
H1920 H 0.38737 0.93679 0.62852 0.0
H1921 H 0.36458 0.91964 0.6273 0.0
H1922 H 0.40605 0.91108 0.76172 0.0
H1923 H 0.42892 0.92807 0.76245 0.0
C1924 C 0.34268 0.89036 0.73825 0.0
C1925 C 0.34133 0.88406 0.69583 0.0
C1926 C 0.35678 0.89989 0.73783 0.0
C1927 C 0.36947 0.90354 0.69459 0.0
C1928 C 0.3684 0.89719 0.65213 0.0
C1929 C 0.35473 0.88749 0.65292 0.0
C1930 C 0.39139 0.93126 0.65794 0.0
C1931 C 0.40989 0.93382 0.69567 0.0
C1932 C 0.37861 0.9214 0.65697 0.0
C1933 C 0.38358 0.91395 0.6943 0.0
C1934 C 0.4017 0.91661 0.73244 0.0
C1935 C 0.41485 0.92635 0.73284 0.0
H1936 H 0.61948 0.69149 0.40035 0.0
H1937 H 0.55336 0.67455 0.46874 0.0
H1938 H 0.64375 0.67517 0.38853 0.0
H1939 H 0.57679 0.6582 0.45388 0.0
H1940 H 0.63008 0.62947 0.44181 0.0
H1941 H 0.61258 0.64636 0.47027 0.0
H1942 H 0.64121 0.66087 0.33576 0.0
H1943 H 0.65977 0.64434 0.30922 0.0
C1944 C 0.61007 0.68435 0.41321 0.0
C1945 C 0.58405 0.68447 0.43481 0.0
C1946 C 0.62393 0.67489 0.40583 0.0
C1947 C 0.61214 0.66524 0.41933 0.0
C1948 C 0.58673 0.66541 0.44306 0.0
C1949 C 0.57299 0.67486 0.45092 0.0
C1950 C 0.63303 0.63632 0.41888 0.0
C1951 C 0.64599 0.63546 0.37283 0.0
C1952 C 0.62274 0.64601 0.43489 0.0
C1953 C 0.62521 0.65507 0.40527 0.0
C1954 C 0.63907 0.6542 0.36012 0.0
C1955 C 0.64939 0.64459 0.34436 0.0
H1956 H 0.61632 0.68724 0.85843 0.0
H1957 H 0.68819 0.66912 0.88803 0.0
H1958 H 0.59209 0.67127 0.83416 0.0
H1959 H 0.66496 0.65325 0.86154 0.0
H1960 H 0.60665 0.62582 0.88127 0.0
H1961 H 0.63286 0.64174 0.89245 0.0
H1962 H 0.58446 0.65713 0.78062 0.0
H1963 H 0.55762 0.64118 0.7709 0.0
C1964 C 0.62711 0.67986 0.85819 0.0
C1965 C 0.65401 0.67936 0.8752 0.0
C1966 C 0.61331 0.67068 0.84432 0.0
C1967 C 0.62631 0.66083 0.84659 0.0
C1968 C 0.65386 0.66055 0.86066 0.0
C1969 C 0.66737 0.66966 0.87527 0.0
C1970 C 0.60189 0.63253 0.85845 0.0
C1971 C 0.58 0.63219 0.8252 0.0
C1972 C 0.61701 0.64173 0.86474 0.0
C1973 C 0.61096 0.65085 0.83746 0.0
C1974 C 0.58953 0.65039 0.80302 0.0
C1975 C 0.5742 0.64121 0.79718 0.0
H1976 H 0.3614 0.38217 0.60743 0.0
H1977 H 0.43591 0.39974 0.62294 0.0
H1978 H 0.33562 0.3985 0.60861 0.0
H1979 H 0.41054 0.41594 0.62141 0.0
H1980 H 0.3562 0.44361 0.6603 0.0
H1981 H 0.38125 0.42713 0.66457 0.0
H1982 H 0.32527 0.4134 0.56018 0.0
H1983 H 0.30013 0.42977 0.5569 0.0
C1984 C 0.37235 0.38947 0.61111 0.0
C1985 C 0.4009 0.38952 0.61453 0.0
C1986 C 0.35756 0.39889 0.61121 0.0
C1987 C 0.37087 0.40866 0.61474 0.0
C1988 C 0.39936 0.40866 0.6191 0.0
C1989 C 0.41406 0.39928 0.61921 0.0
C1990 C 0.34942 0.4371 0.63797 0.0
C1991 C 0.32606 0.43805 0.6084 0.0
C1992 C 0.36378 0.4276 0.64038 0.0
C1993 C 0.35534 0.4188 0.61291 0.0
C1994 C 0.33217 0.41985 0.58282 0.0
C1995 C 0.31775 0.4293 0.58071 0.0
H1996 H 0.36647 0.43498 0.06165 0.0
H1997 H 0.40139 0.4373 0.20722 0.0
H1998 H 0.34719 0.41809 0.08231 0.0
H1999 H 0.3809 0.42044 0.22918 0.0
H2000 H 0.37708 0.38417 0.21824 0.0
H2001 H 0.38884 0.40254 0.21064 0.0
H2002 H 0.31554 0.40791 0.12645 0.0
H2003 H 0.30457 0.38934 0.13176 0.0
C2004 C 0.36972 0.43193 0.09846 0.0
C2005 C 0.38593 0.43743 0.13246 0.0
C2006 C 0.35829 0.42226 0.11062 0.0
C2007 C 0.36255 0.41777 0.1574 0.0
C2008 C 0.37753 0.42354 0.19249 0.0
C2009 C 0.38905 0.43327 0.18018 0.0
C2010 C 0.36342 0.38924 0.19806 0.0
C2011 C 0.34012 0.38515 0.17477 0.0
C2012 C 0.36999 0.39987 0.19432 0.0
C2013 C 0.35336 0.40678 0.16745 0.0
C2014 C 0.32918 0.40281 0.14663 0.0
C2015 C 0.32267 0.39215 0.15016 0.0
H2016 H 0.02406 0.30458 0.15645 0.0
H2017 H 0.94011 0.30414 0.20332 0.0
H2018 H 0.03404 0.29019 0.21236 0.0
H2019 H 0.95027 0.28979 0.25957 0.0
H2020 H 0.98353 0.27207 0.39263 0.0
H2021 H 0.97474 0.28633 0.33551 0.0
H2022 H 0.02599 0.27154 0.22693 0.0
H2023 H 0.03471 0.25712 0.28435 0.0
C2024 C 0.00757 0.3014 0.17817 0.0
C2025 C 0.98115 0.30565 0.17489 0.0
C2026 C 0.01339 0.2931 0.21044 0.0
C2027 C -0.00696 0.28879 0.24076 0.0
C2028 C 0.96662 0.29299 0.23744 0.0
C2029 C 0.96076 0.30127 0.20501 0.0
C2030 C -0.00717 0.27176 0.35651 0.0
C2031 C 0.00963 0.2633 0.34319 0.0
C2032 C 0.98773 0.27999 0.32358 0.0
C2033 C -0.00067 0.28008 0.27619 0.0
C2034 C 0.01678 0.27178 0.26318 0.0
C2035 C 0.02185 0.2635 0.29621 0.0
H2036 H 0.21833 1.01381 0.15791 0.0
H2037 H 0.29449 1.01223 0.23712 0.0
H2038 H 0.20554 1.02914 0.20475 0.0
H2039 H 0.28141 1.02767 0.28453 0.0
H2040 H 0.23578 0.04931 0.39366 0.0
H2041 H 0.24939 1.03376 0.34762 0.0
H2042 H 0.21678 0.04737 0.21427 0.0
H2043 H 0.2034 0.06284 0.2598 0.0
C2044 C 0.23264 1.01677 0.18476 0.0
C2045 C 0.25769 1.0117 0.19307 0.0
C2046 C 0.22518 1.02562 0.21191 0.0
C2047 C 0.24241 1.02972 0.24849 0.0
C2048 C 0.26743 1.02467 0.25709 0.0
C2049 C 0.27498 1.0158 0.22972 0.0
C2050 C 0.23154 0.04901 0.35452 0.0
C2051 C 0.21822 0.05739 0.33087 0.0
C2052 C 0.23945 0.04008 0.32801 0.0
C2053 C 0.23421 0.03925 0.27708 0.0
C2054 C 0.22079 0.04761 0.25354 0.0
C2055 C 0.21297 0.05653 0.27992 0.0
H2056 H 0.03796 0.06047 0.96955 0.0
H2057 H 0.97395 0.05133 0.86921 0.0
H2058 H 0.02665 0.04564 0.02239 0.0
H2059 H 0.96137 0.03722 0.92333 0.0
H2060 H 0.95654 1.00669 0.00896 0.0
H2061 H 0.96995 1.02091 0.95376 0.0
H2062 H -0.00366 0.03905 0.07958 0.0
H2063 H 0.98415 1.02456 0.13381 0.0
C2064 C 0.02146 0.05538 0.95859 0.0
C2065 C 0.0068 0.05735 0.91491 0.0
C2066 C 0.01464 0.04689 0.98945 0.0
C2067 C -0.00724 0.04014 0.97792 0.0
C2068 C 0.97851 0.04204 0.93379 0.0
C2069 C 0.98556 0.05038 0.90276 0.0
C2070 C 0.96491 1.01378 0.02465 0.0
C2071 C 0.9692 1.0145 0.07574 0.0
C2072 C 0.97267 1.02199 0.99303 0.0
C2073 C 0.98451 1.03127 0.01168 0.0
C2074 C 0.98804 1.03203 0.06316 0.0
C2075 C 0.98073 1.02375 0.09453 0.0
H2076 H 0.22498 0.30268 0.12171 0.0
H2077 H 0.27423 0.31538 1.00437 0.0
H2078 H 0.21592 0.28719 0.07276 0.0
H2079 H 0.2647 0.29986 0.95426 0.0
H2080 H 0.26309 0.26555 0.89982 0.0
H2081 H 0.27239 0.28167 0.94378 0.0
H2082 H 0.19128 0.28107 1.0045 0.0
H2083 H 0.18236 0.26471 0.96287 0.0
C2084 C 0.23371 0.30221 0.08513 0.0
C2085 C 0.2502 0.31034 0.06695 0.0
C2086 C 0.22837 0.2933 0.05675 0.0
C2087 C 0.23915 0.29224 0.00892 0.0
C2088 C 0.25612 0.30031 0.99097 0.0
C2089 C 0.26164 0.30923 0.01969 0.0
C2090 C 0.24713 0.26877 0.92256 0.0
C2091 C 0.22206 0.2635 0.92812 0.0
C2092 C 0.25245 0.27816 0.94757 0.0
C2093 C 0.23283 0.28268 0.97869 0.0
C2094 C 0.20728 0.27774 0.98212 0.0
C2095 C 0.20201 0.26832 0.95743 0.0
H2096 H 0.96598 0.77158 0.83938 0.0
H2097 H 0.04279 0.76718 0.76529 0.0
H2098 H 0.95679 0.78677 0.78825 0.0
H2099 H 0.03437 0.78279 0.71606 0.0
H2100 H -0.00137 0.80354 0.59558 0.0
H2101 H 0.0084 0.78879 0.64952 0.0
H2102 H 0.96604 0.80423 0.7685 0.0
H2103 H 0.95569 0.8189 0.7136 0.0
C2104 C 0.98111 0.77387 0.81251 0.0
C2105 C 0.00506 0.76796 0.80647 0.0
C2106 C 0.97594 0.78274 0.78335 0.0
C2107 C -0.00537 0.78609 0.74728 0.0
C2108 C 0.01909 0.7804 0.74252 0.0
C2109 C 0.02418 0.77148 0.77151 0.0
C2110 C -0.00855 0.80381 0.63329 0.0
C2111 C 0.97637 0.81245 0.65009 0.0
C2112 C -0.00278 0.79534 0.66454 0.0
C2113 C 0.98833 0.79524 0.71396 0.0
C2114 C 0.97303 0.80388 0.73068 0.0
C2115 C 0.96703 0.81233 0.69915 0.0
H2116 H 0.68417 0.06542 0.73995 0.0
H2117 H 0.71311 0.04864 0.86783 0.0
H2118 H 0.7026 0.05164 0.68645 0.0
H2119 H 0.73107 1.03494 0.81504 0.0
H2120 H 0.78144 1.01603 0.70966 0.0
H2121 H 0.76685 1.03153 0.75432 0.0
H2122 H 0.69394 1.03292 0.66602 0.0
H2123 H 0.70867 1.01744 0.62071 0.0
C2124 C 0.69452 0.05883 0.75664 0.0
C2125 C 0.69687 0.05813 0.80832 0.0
C2126 C 0.70496 0.05089 0.72602 0.0
C2127 C 0.71844 0.04214 0.74629 0.0
C2128 C 0.72114 0.04158 0.7979 0.0
C2129 C 0.71048 0.0494 0.82835 0.0
C2130 C 0.7625 1.01967 0.699 0.0
C2131 C 0.74608 1.01525 0.66186 0.0
C2132 C 0.75398 1.02856 0.72507 0.0
C2133 C 0.72894 1.03342 0.7145 0.0
C2134 C 0.71331 1.02941 0.67535 0.0
C2135 C 0.72171 1.02045 0.64953 0.0
H2136 H 0.72271 0.75157 0.01934 0.0
H2137 H 0.74934 0.76618 0.88399 0.0
H2138 H 0.7334 0.76757 0.06441 0.0
H2139 H 0.75991 0.78214 0.92879 0.0
H2140 H 0.79958 0.8064 0.02558 0.0
H2141 H 0.79113 0.7896 0.9866 0.0
H2142 H 0.71976 0.78536 0.07713 0.0
H2143 H 0.72874 0.802 0.1174 0.0
C2144 C 0.73055 0.75821 0.99899 0.0
C2145 C 0.73519 0.75749 0.94781 0.0
C2146 C 0.73677 0.76742 0.02495 0.0
C2147 C 0.74781 0.7762 1.00054 0.0
C2148 C 0.75208 0.77551 0.94928 0.0
C2149 C 0.74589 0.76632 0.9234 0.0
C2150 C 0.78232 0.80187 0.03793 0.0
C2151 C 0.76468 0.80577 0.07445 0.0
C2152 C 0.77725 0.79222 0.01498 0.0
C2153 C 0.75443 0.78612 0.02788 0.0
C2154 C 0.73754 0.78977 0.06604 0.0
C2155 C 0.7426 0.79942 0.08895 0.0
H2156 H 0.25606 0.55584 0.88736 0.0
H2157 H 0.20519 0.56626 0.76704 0.0
H2158 H 0.27158 0.54122 0.83799 0.0
H2159 H 0.2197 0.55126 0.71835 0.0
H2160 H 0.27374 0.5304 0.62363 0.0
H2161 H 0.25705 0.54463 0.67375 0.0
H2162 H 0.2609 0.52488 0.80298 0.0
H2163 H 0.27897 0.5107 0.75314 0.0
C2164 C 0.24803 0.55504 0.85042 0.0
C2165 C 0.22946 0.56243 0.83139 0.0
C2166 C 0.25673 0.5465 0.82211 0.0
C2167 C 0.2471 0.54496 0.77374 0.0
C2168 C 0.22804 0.55221 0.75504 0.0
C2169 C 0.21938 0.5608 0.78335 0.0
C2170 C 0.27142 0.52901 0.66272 0.0
C2171 C 0.27809 0.51923 0.68379 0.0
C2172 C 0.26134 0.53723 0.69163 0.0
C2173 C 0.25739 0.53602 0.74276 0.0
C2174 C 0.2639 0.52624 0.76392 0.0
C2175 C 0.27411 0.518 0.735 0.0
H2176 H 0.93998 0.53087 0.63201 0.0
H2177 H 0.94268 0.50992 0.50734 0.0
H2178 H 0.95974 0.54469 0.58217 0.0
H2179 H 0.96361 0.52372 0.4577 0.0
H2180 H 0.97011 0.55443 0.36864 0.0
H2181 H 0.95335 0.53989 0.41788 0.0
H2182 H -0.00019 0.55094 0.54256 0.0
H2183 H 0.01577 0.5658 0.49356 0.0
C2184 C 0.94472 0.52916 0.59393 0.0
C2185 C 0.93928 0.51919 0.5739 0.0
C2186 C 0.95654 0.53711 0.56534 0.0
C2187 C 0.96343 0.53542 0.5156 0.0
C2188 C 0.95835 0.52542 0.49563 0.0
C2189 C 0.94652 0.51743 0.52433 0.0
C2190 C 0.97674 0.55383 0.4066 0.0
C2191 C -0.00583 0.56144 0.427 0.0
C2192 C 0.96732 0.54535 0.43485 0.0
C2193 C 0.975 0.54416 0.48458 0.0
C2194 C -0.00697 0.55163 0.50468 0.0
C2195 C 0.0025 0.56012 0.47633 0.0
H2196 H 0.23804 0.8011 0.63975 0.0
H2197 H 0.29583 0.81092 0.52967 0.0
H2198 H 0.22021 0.78791 0.58389 0.0
H2199 H 0.27911 0.79735 0.47398 0.0
H2200 H 0.23334 0.77681 0.36747 0.0
H2201 H 0.24634 0.79111 0.42184 0.0
H2202 H 0.22646 0.77186 0.54829 0.0
H2203 H 0.21209 0.75782 0.49298 0.0
C2204 C 0.24713 0.80036 0.60357 0.0
C2205 C 0.2685 0.80705 0.58934 0.0
C2206 C 0.23699 0.79271 0.57137 0.0
C2207 C 0.24815 0.79133 0.52393 0.0
C2208 C 0.26942 0.79816 0.50959 0.0
C2209 C 0.27923 0.80596 0.54162 0.0
C2210 C 0.23141 0.77573 0.40695 0.0
C2211 C 0.22158 0.76619 0.42587 0.0
C2212 C 0.23921 0.7839 0.4384 0.0
C2213 C 0.238 0.78276 0.49011 0.0
C2214 C 0.22747 0.77324 0.50894 0.0
C2215 C 0.21917 0.76512 0.47726 0.0
H2216 H 0.72235 0.51438 0.13379 0.0
H2217 H 0.78643 0.50729 0.2377 0.0
H2218 H 0.71118 0.52999 0.18008 0.0
H2219 H 0.77631 0.52327 0.28227 0.0
H2220 H 0.73406 0.54697 0.3824 0.0
H2221 H 0.7452 0.53119 0.33614 0.0
H2222 H 0.72403 0.54702 0.20039 0.0
H2223 H 0.71226 0.56262 0.24697 0.0
C2224 C 0.73424 0.51612 0.1663 0.0
C2225 C 0.75526 0.50937 0.18171 0.0
C2226 C 0.728 0.52523 0.19274 0.0
C2227 C 0.74271 0.52801 0.23536 0.0
C2228 C 0.7641 0.52138 0.25027 0.0
C2229 C 0.77022 0.51221 0.22402 0.0
C2230 C 0.73179 0.54706 0.34268 0.0
C2231 C 0.72205 0.55608 0.31861 0.0
C2232 C 0.73834 0.53801 0.31594 0.0
C2233 C 0.73564 0.53771 0.26414 0.0
C2234 C 0.72594 0.54677 0.24016 0.0
C2235 C 0.71915 0.55579 0.26697 0.0
H2236 H 0.78985 0.30758 0.52864 0.0
H2237 H 0.709 0.30864 0.59061 0.0
H2238 H 0.77716 0.29219 0.4811 0.0
H2239 H 0.69649 0.29321 0.54329 0.0
H2240 H 0.69323 0.25875 0.48408 0.0
H2241 H 0.70359 0.27432 0.53374 0.0
H2242 H 0.74926 0.28725 0.41203 0.0
H2243 H 0.73892 0.27188 0.36306 0.0
C2244 C 0.76933 0.30463 0.5321 0.0
C2245 C 0.75061 0.30951 0.56389 0.0
C2246 C 0.76199 0.29574 0.50465 0.0
C2247 C 0.73567 0.29139 0.508 0.0
C2248 C 0.71702 0.2962 0.54006 0.0
C2249 C 0.72431 0.30512 0.56737 0.0
C2250 C 0.70515 0.26498 0.46782 0.0
C2251 C 0.71552 0.26393 0.41968 0.0
C2252 C 0.7112 0.27393 0.49632 0.0
C2253 C 0.72778 0.28204 0.47741 0.0
C2254 C 0.73715 0.2811 0.42861 0.0
C2255 C 0.7311 0.27224 0.40033 0.0
H2256 H 0.43302 0.29612 0.64386 0.0
H2257 H 0.47196 0.31839 0.74068 0.0
H2258 H 0.45181 0.28182 0.69209 0.0
H2259 H 0.49041 0.30398 0.78949 0.0
H2260 H 0.49372 0.27453 0.89232 0.0
H2261 H 0.47665 0.28953 0.8454 0.0
H2262 H 0.49582 0.27362 0.70949 0.0
H2263 H 0.51232 0.2586 0.75625 0.0
C2264 C 0.4457 0.29803 0.67518 0.0
C2265 C 0.45101 0.30853 0.68771 0.0
C2266 C 0.45653 0.28977 0.70296 0.0
C2267 C 0.47289 0.2917 0.74453 0.0
C2268 C 0.47778 0.30218 0.7579 0.0
C2269 C 0.46708 0.31048 0.72982 0.0
C2270 C 0.49437 0.27425 0.85243 0.0
C2271 C 0.50444 0.26532 0.82824 0.0
C2272 C 0.48475 0.28289 0.82549 0.0
C2273 C 0.48465 0.28279 0.77355 0.0
C2274 C 0.49524 0.27394 0.7494 0.0
C2275 C 0.50506 0.26535 0.77631 0.0
H2276 H 0.48533 0.06547 0.48087 0.0
H2277 H 0.55198 0.04513 0.44234 0.0
H2278 H 0.4628 0.05094 0.52268 0.0
H2279 H 0.52977 1.03066 0.48527 0.0
H2280 H 0.47077 1.00444 0.53381 0.0
H2281 H 0.49117 1.0185 0.48515 0.0
H2282 H 0.46882 0.04078 0.59734 0.0
H2283 H 0.44884 1.0269 0.64596 0.0
C2284 C 0.49512 0.0579 0.48082 0.0
C2285 C 0.52065 0.05656 0.4582 0.0
C2286 C 0.48229 0.04955 0.50537 0.0
C2287 C 0.49447 0.03958 0.50787 0.0
C2288 C 0.51961 0.03817 0.484 0.0
C2289 C 0.53253 0.04653 0.45972 0.0
C2290 C 0.47021 1.0123 0.54838 0.0
C2291 C 0.45778 1.01437 0.59425 0.0
C2292 C 0.48199 1.02041 0.52029 0.0
C2293 C 0.48156 1.03085 0.53696 0.0
C2294 C 0.46912 1.03291 0.5826 0.0
C2295 C 0.45756 1.02484 0.61074 0.0
H2296 H 0.46014 0.80932 0.2545 0.0
H2297 H 0.51318 0.7998 0.1358 0.0
H2298 H 0.47533 0.79453 0.30341 0.0
H2299 H 0.52943 0.78527 0.18594 0.0
H2300 H 0.5398 0.75528 0.27696 0.0
H2301 H 0.52027 0.76874 0.22379 0.0
H2302 H 0.51429 0.78954 0.34865 0.0
H2303 H 0.53238 0.77604 0.40189 0.0
C2304 C 0.47483 0.80406 0.23838 0.0
C2305 C 0.4855 0.80593 0.19093 0.0
C2306 C 0.48391 0.7956 0.26696 0.0
C2307 C 0.50404 0.78874 0.24923 0.0
C2308 C 0.51388 0.79033 0.20102 0.0
C2309 C 0.50471 0.79877 0.17231 0.0
C2310 C 0.53411 0.76267 0.29329 0.0
C2311 C 0.53787 0.76446 0.34415 0.0
C2312 C 0.52309 0.77047 0.26254 0.0
C2313 C 0.51548 0.78028 0.2817 0.0
C2314 C 0.51937 0.78205 0.33243 0.0
C2315 C 0.53026 0.77429 0.36309 0.0
H2316 H 0.4437 0.51261 0.05428 0.0
H2317 H 0.5129 0.51915 0.1478 0.0
H2318 H 0.45537 0.52744 1.00288 0.0
H2319 H 0.52507 0.53379 0.09485 0.0
H2320 H 0.53143 0.56394 1.0028 0.0
H2321 H 0.51485 0.55105 0.06267 0.0
H2322 H 0.48963 0.531 0.94298 0.0
H2323 H 0.50511 0.54392 0.88385 0.0
C2324 C 0.4613 0.51717 0.06446 0.0
C2325 C 0.47764 0.51434 0.10512 0.0
C2326 C 0.46818 0.5257 0.03436 0.0
C2327 C 0.49158 0.53172 0.0438 0.0
C2328 C 0.50695 0.52935 0.08616 0.0
C2329 C 0.50004 0.52082 0.11641 0.0
C2330 C 0.52207 0.55683 0.98934 0.0
C2331 C 0.51983 0.555 0.93827 0.0
C2332 C 0.51275 0.54938 0.0237 0.0
C2333 C 0.50076 0.53994 0.00788 0.0
C2334 C 0.49832 0.53821 0.95683 0.0
C2335 C 0.50764 0.5456 0.92267 0.0
H2336 H 0.05253 0.24734 0.58763 0.0
H2337 H 0.12116 0.23323 0.51436 0.0
H2338 H 0.07607 0.24632 0.66597 0.0
H2339 H 0.14567 0.23274 0.59286 0.0
H2340 H 0.16046 0.21714 0.74132 0.0
H2341 H 0.14186 0.22186 0.66182 0.0
H2342 H 0.10964 0.25039 0.72416 0.0
H2343 H 0.12773 0.24533 0.80524 0.0
C2344 C 0.07314 0.24435 0.588 0.0
C2345 C 0.0848 0.2402 0.54483 0.0
C2346 C 0.08675 0.24381 0.63318 0.0
C2347 C 0.11259 0.23919 0.63641 0.0
C2348 C 0.12541 0.23604 0.5922 0.0
C2349 C 0.1116 0.23649 0.54688 0.0
C2350 C 0.14934 0.22443 0.73824 0.0
C2351 C 0.1455 0.23085 0.77969 0.0
C2352 C 0.13896 0.22723 0.69222 0.0
C2353 C 0.12462 0.23663 0.68579 0.0
C2354 C 0.12049 0.24306 0.72751 0.0
C2355 C 0.13071 0.24017 0.77409 0.0
H2356 H 0.12837 0.07791 0.45632 0.0
H2357 H 0.14825 0.10846 0.51312 0.0
H2358 H 0.11018 0.07291 0.53748 0.0
H2359 H 0.1297 0.10369 0.59307 0.0
H2360 H 0.11922 0.09141 0.74362 0.0
H2361 H 0.1409 0.09309 0.66278 0.0
H2362 H 0.07466 0.0759 0.59643 0.0
H2363 H 0.05373 0.07393 0.67713 0.0
C2364 C 0.12804 0.08364 0.48569 0.0
C2365 C 0.1395 0.09359 0.47846 0.0
C2366 C 0.11794 0.08077 0.53235 0.0
C2367 C 0.11912 0.08781 0.5724 0.0
C2368 C 0.1293 0.09792 0.56387 0.0
C2369 C 0.13947 0.10074 0.51771 0.0
C2370 C 0.10993 0.08763 0.71209 0.0
C2371 C 0.08472 0.08259 0.7167 0.0
C2372 C 0.12204 0.08875 0.66551 0.0
C2373 C 0.10912 0.08489 0.62268 0.0
C2374 C 0.08521 0.07901 0.62828 0.0
C2375 C 0.07319 0.07787 0.6747 0.0
H2376 H 0.81064 0.85201 0.2612 0.0
H2377 H 0.8629 0.8299 0.18732 0.0
H2378 H 0.83188 0.84796 0.33917 0.0
H2379 H 0.88404 0.82553 0.26683 0.0
H2380 H 0.93787 0.83369 0.40362 0.0
H2381 H 0.91371 0.83294 0.32592 0.0
H2382 H 0.83737 0.8357 0.40372 0.0
H2383 H 0.86198 0.83689 0.48204 0.0
C2384 C 0.82659 0.84618 0.26163 0.0
C2385 C 0.83515 0.84131 0.2178 0.0
C2386 C 0.83859 0.84374 0.3068 0.0
C2387 C 0.85948 0.83629 0.30987 0.0
C2388 C 0.86807 0.83135 0.26597 0.0
C2389 C 0.85606 0.83386 0.22034 0.0
C2390 C 0.91586 0.83393 0.40439 0.0
C2391 C 0.90188 0.83562 0.44899 0.0
C2392 C 0.90194 0.83342 0.35958 0.0
C2393 C 0.87356 0.83452 0.35809 0.0
C2394 C 0.85933 0.83514 0.40328 0.0
C2395 C 0.87336 0.83569 0.44833 0.0
H2396 H 0.85467 0.99671 0.53823 0.0
H2397 H 0.80559 0.97307 0.46732 0.0
H2398 H 0.87579 1.0008 0.45842 0.0
H2399 H 0.82698 0.97679 0.38937 0.0
H2400 H 0.85786 0.98678 0.24516 0.0
H2401 H 0.83214 0.98805 0.32215 0.0
H2402 H 0.90682 0.9937 0.40201 0.0
H2403 H 0.93194 0.99301 0.32546 0.0
C2404 C 0.84846 0.99239 0.5058 0.0
C2405 C 0.82848 0.98457 0.5093 0.0
C2406 C 0.86052 0.99471 0.46 0.0
C2407 C 0.85299 0.98919 0.41693 0.0
C2408 C 0.83288 0.98144 0.42094 0.0
C2409 C 0.82078 0.97921 0.46619 0.0
C2410 C 0.86858 0.9886 0.27899 0.0
C2411 C 0.89698 0.98961 0.2792 0.0
C2412 C 0.85394 0.9892 0.32334 0.0
C2413 C 0.86743 0.99072 0.36884 0.0
C2414 C 0.89557 0.99255 0.36812 0.0
C2415 C 0.91007 0.99206 0.32394 0.0
H2416 H 0.0453 0.73922 0.03848 0.0
H2417 H 0.11725 0.74784 0.95662 0.0
H2418 H 0.06948 0.74108 0.11484 0.0
H2419 H 0.14141 0.7506 0.03447 0.0
H2420 H 0.18608 0.73794 0.16918 0.0
H2421 H 0.16148 0.74084 0.09404 0.0
H2422 H 0.09019 0.74941 0.17827 0.0
H2423 H 0.11489 0.74569 0.25479 0.0
C2424 C 0.06627 0.74179 0.03671 0.0
C2425 C 0.07948 0.74315 0.99102 0.0
C2426 C 0.08018 0.743 0.08115 0.0
C2427 C 0.10775 0.74585 0.08172 0.0
C2428 C 0.12044 0.74805 0.03593 0.0
C2429 C 0.10655 0.74661 0.99106 0.0
C2430 C 0.16517 0.74051 0.17211 0.0
C2431 C 0.15239 0.74145 0.2184 0.0
C2432 C 0.15101 0.74233 0.1284 0.0
C2433 C 0.12358 0.74535 0.12913 0.0
C2434 C 0.11109 0.74684 0.17569 0.0
C2435 C 0.12525 0.74479 0.21982 0.0
H2436 H 0.03814 0.58288 0.2015 0.0
H2437 H 0.11642 0.58921 0.26669 0.0
H2438 H 0.05964 0.57936 0.12243 0.0
H2439 H 0.13813 0.5861 0.18693 0.0
H2440 H 0.17452 0.57779 0.04355 0.0
H2441 H 0.15074 0.575 0.12131 0.0
H2442 H 0.0792 0.58971 0.05966 0.0
H2443 H 0.10293 0.59207 0.98126 0.0
C2444 C 0.06009 0.58335 0.19899 0.0
C2445 C 0.07564 0.58635 0.24015 0.0
C2446 C 0.0724 0.58143 0.15348 0.0
C2447 C 0.10061 0.58262 0.14769 0.0
C2448 C 0.11637 0.585 0.18984 0.0
C2449 C 0.104 0.58679 0.23572 0.0
C2450 C 0.15336 0.58007 0.04622 0.0
C2451 C 0.14047 0.5851 0.00644 0.0
C2452 C 0.13984 0.57861 0.09103 0.0
C2453 C 0.1132 0.58232 0.09746 0.0
C2454 C 0.09963 0.58666 0.05624 0.0
C2455 C 0.11312 0.58799 0.01104 0.0
H2456 H 0.85758 0.33069 0.01675 0.0
H2457 H 0.92999 0.32288 0.93506 0.0
H2458 H 0.83132 0.33036 0.94005 0.0
H2459 H 0.90453 0.32313 0.85873 0.0
H2460 H 0.85354 0.32432 0.72118 0.0
H2461 H 0.87255 0.31816 0.79976 0.0
H2462 H 0.82876 0.34254 0.87632 0.0
H2463 H 0.80933 0.34829 0.79936 0.0
C2464 C 0.86771 0.32859 0.98272 0.0
C2465 C 0.8959 0.32699 0.98182 0.0
C2466 C 0.85281 0.32858 0.93848 0.0
C2467 C 0.86591 0.32707 0.89259 0.0
C2468 C 0.89356 0.32435 0.89284 0.0
C2469 C 0.90828 0.32426 0.93687 0.0
C2470 C 0.84797 0.32829 0.75498 0.0
C2471 C 0.83002 0.33682 0.75384 0.0
C2472 C 0.8588 0.32476 0.80011 0.0
C2473 C 0.8521 0.32977 0.84495 0.0
C2474 C 0.83393 0.33824 0.84328 0.0
C2475 C 0.82301 0.34165 0.79864 0.0
H2476 H 0.84892 0.48261 0.01875 0.0
H2477 H 0.78255 0.46313 0.96907 0.0
H2478 H 0.86153 0.48592 0.93266 0.0
H2479 H 0.79473 0.46658 0.88384 0.0
H2480 H 0.85084 0.46479 0.74364 0.0
H2481 H 0.8302 0.46241 0.825 0.0
H2482 H 0.84563 0.49491 0.85843 0.0
H2483 H 0.86658 0.49714 0.77752 0.0
C2484 C 0.83706 0.47905 0.9896 0.0
C2485 C 0.8148 0.4726 1.00093 0.0
C2486 C 0.84405 0.48102 0.94024 0.0
C2487 C 0.82898 0.47657 0.90121 0.0
C2488 C 0.80688 0.47008 0.91278 0.0
C2489 C 0.79989 0.46813 0.96187 0.0
C2490 C 0.8484 0.47153 0.76742 0.0
C2491 C 0.8597 0.4812 0.754 0.0
C2492 C 0.83698 0.47015 0.81439 0.0
C2493 C 0.83682 0.47843 0.84875 0.0
C2494 C 0.84598 0.48832 0.83338 0.0
C2495 C 0.85739 0.48967 0.78659 0.0
H2496 H 0.54423 0.23568 0.02465 0.0
H2497 H 0.62206 0.22946 0.95759 0.0
H2498 H 0.56616 0.23924 0.10303 0.0
H2499 H 0.64437 0.23283 0.03723 0.0
H2500 H 0.6785 0.24544 0.18056 0.0
H2501 H 0.65554 0.24541 0.10093 0.0
H2502 H 0.58751 0.22912 0.16646 0.0
H2503 H 0.61047 0.2293 0.24647 0.0
C2504 C 0.56619 0.23515 0.02665 0.0
C2505 C 0.58144 0.23221 0.98501 0.0
C2506 C 0.57874 0.23712 0.07183 0.0
C2507 C 0.60699 0.23614 0.07699 0.0
C2508 C 0.62253 0.23371 0.03463 0.0
C2509 C 0.60985 0.23179 0.98892 0.0
C2510 C 0.65835 0.24205 0.17821 0.0
C2511 C 0.64626 0.23739 0.21994 0.0
C2512 C 0.64534 0.24193 0.13233 0.0
C2513 C 0.61983 0.23714 0.12683 0.0
C2514 C 0.60707 0.23297 0.16923 0.0
C2515 C 0.62012 0.23311 0.21531 0.0
H2516 H 0.6126 0.08177 0.99318 0.0
H2517 H 0.6503 0.11033 0.04265 0.0
H2518 H 0.59047 0.07982 0.07367 0.0
H2519 H 0.62756 0.10872 0.12209 0.0
H2520 H 0.61109 0.09707 0.27681 0.0
H2521 H 0.63138 0.0985 0.19469 0.0
H2522 H 0.55783 0.08606 0.13007 0.0
H2523 H 0.53825 0.08421 0.21153 0.0
C2524 C 0.61523 0.08783 0.02069 0.0
C2525 C 0.63281 0.09625 0.01184 0.0
C2526 C 0.60279 0.08669 0.06698 0.0
C2527 C 0.60762 0.09402 0.10494 0.0
C2528 C 0.62397 0.10277 0.09449 0.0
C2529 C 0.63659 0.10381 0.04867 0.0
C2530 C 0.59949 0.09451 0.24508 0.0
C2531 C 0.57307 0.09055 0.25085 0.0
C2532 C 0.61093 0.09544 0.19788 0.0
C2533 C 0.59611 0.09252 0.15543 0.0
C2534 C 0.56999 0.0883 0.16163 0.0
C2535 C 0.5587 0.08729 0.20861 0.0
H2536 H 0.36742 0.84184 0.06116 0.0
H2537 H 0.44407 0.83512 0.99084 0.0
H2538 H 0.34452 0.84042 0.98106 0.0
H2539 H 0.42144 0.83338 0.9116 0.0
H2540 H 0.37778 0.84568 0.77137 0.0
H2541 H 0.40146 0.84435 0.85079 0.0
H2542 H 0.33074 0.82951 0.91477 0.0
H2543 H 0.30716 0.83114 0.83638 0.0
C2544 C 0.3792 0.83977 0.02888 0.0
C2545 C 0.40748 0.83863 0.03221 0.0
C2546 C 0.36618 0.83897 0.98284 0.0
C2547 C 0.38119 0.83692 0.93941 0.0
C2548 C 0.40927 0.83523 0.9437 0.0
C2549 C 0.42221 0.83612 0.98934 0.0
C2550 C 0.36765 0.84194 0.80221 0.0
C2551 C 0.34065 0.83856 0.79775 0.0
C2552 C 0.38111 0.84119 0.84786 0.0
C2553 C 0.36788 0.83695 0.88972 0.0
C2554 C 0.34137 0.83307 0.88403 0.0
C2555 C 0.32794 0.83391 0.83882 0.0
H2556 H 0.37148 0.97395 0.06121 0.0
H2557 H 0.29419 0.97923 0.99001 0.0
H2558 H 0.39422 0.97543 0.98089 0.0
H2559 H 0.31661 0.98097 0.91071 0.0
H2560 H 0.3617 0.97009 0.77058 0.0
H2561 H 0.33835 0.97024 0.85054 0.0
H2562 H 0.40604 0.98696 0.91478 0.0
H2563 H 0.42932 0.98655 0.83597 0.0
C2564 C 0.35948 0.97566 0.02865 0.0
C2565 C 0.33112 0.97641 0.03182 0.0
C2566 C 0.3724 0.97649 0.98256 0.0
C2567 C 0.35717 0.97818 0.939 0.0
C2568 C 0.32894 0.97939 0.94299 0.0
C2569 C 0.31612 0.97849 0.98866 0.0
C2570 C 0.37127 0.97392 0.80168 0.0
C2571 C 0.39735 0.97824 0.79707 0.0
C2572 C 0.35799 0.97401 0.84758 0.0
C2573 C 0.37048 0.97851 0.8895 0.0
C2574 C 0.39607 0.9832 0.8839 0.0
C2575 C 0.40931 0.98304 0.83844 0.0
H2576 H 0.55891 0.73303 0.59301 0.0
H2577 H 0.6323 0.72208 0.52271 0.0
H2578 H 0.58169 0.73328 0.67221 0.0
H2579 H 0.65529 0.72213 0.60316 0.0
H2580 H 0.69542 0.7309 0.74694 0.0
H2581 H 0.67231 0.73308 0.66827 0.0
H2582 H 0.59815 0.72132 0.73355 0.0
H2583 H 0.6215 0.71936 0.81311 0.0
C2584 C 0.58005 0.73067 0.59444 0.0
C2585 C 0.59377 0.72746 0.55144 0.0
C2586 C 0.59304 0.73075 0.64016 0.0
C2587 C 0.62022 0.7276 0.64449 0.0
C2588 C 0.63434 0.72469 0.60121 0.0
C2589 C 0.62125 0.72465 0.55505 0.0
C2590 C 0.67399 0.72898 0.74472 0.0
C2591 C 0.66018 0.72499 0.78615 0.0
C2592 C 0.66085 0.73011 0.6994 0.0
C2593 C 0.6335 0.7272 0.69407 0.0
C2594 C 0.61923 0.7237 0.73629 0.0
C2595 C 0.63246 0.72263 0.78202 0.0
H2596 H 0.61909 0.5884 0.75291 0.0
H2597 H 0.5434 0.58926 0.67206 0.0
H2598 H 0.64398 0.58798 0.67458 0.0
H2599 H 0.56792 0.58922 0.59489 0.0
H2600 H 0.61832 0.58249 0.4586 0.0
H2601 H 0.59503 0.57986 0.5377 0.0
H2602 H 0.65414 0.59975 0.60926 0.0
H2603 H 0.67749 0.60208 0.53162 0.0
C2604 C 0.60779 0.58845 0.71861 0.0
C2605 C 0.57929 0.58894 0.71892 0.0
C2606 C 0.62199 0.58828 0.67365 0.0
C2607 C 0.60797 0.58862 0.62814 0.0
C2608 C 0.57947 0.58879 0.62885 0.0
C2609 C 0.56538 0.58892 0.67347 0.0
C2610 C 0.62624 0.58627 0.49132 0.0
C2611 C 0.64974 0.59248 0.48867 0.0
C2612 C 0.61295 0.58478 0.5367 0.0
C2613 C 0.6228 0.58954 0.58021 0.0
C2614 C 0.64627 0.59575 0.57711 0.0
C2615 C 0.65953 0.59717 0.53216 0.0
H2616 H 0.39574 0.3602 0.46334 0.0
H2617 H 0.36234 0.33294 0.53525 0.0
H2618 H 0.37383 0.35525 0.3865 0.0
H2619 H 0.34016 0.32786 0.4574 0.0
H2620 H 0.284 0.33134 0.31473 0.0
H2621 H 0.30517 0.33333 0.3955 0.0
H2622 H 0.38113 0.34132 0.32501 0.0
H2623 H 0.35977 0.33945 0.24401 0.0
C2624 C 0.38312 0.35325 0.46287 0.0
C2625 C 0.38058 0.34699 0.50528 0.0
C2626 C 0.37098 0.3503 0.41859 0.0
C2627 C 0.35596 0.34099 0.41536 0.0
C2628 C 0.35183 0.33504 0.45864 0.0
C2629 C 0.36414 0.33801 0.50334 0.0
C2630 C 0.30546 0.33322 0.31645 0.0
C2631 C 0.32015 0.33537 0.27298 0.0
C2632 C 0.31756 0.33437 0.36282 0.0
C2633 C 0.34461 0.33774 0.36674 0.0
C2634 C 0.36001 0.33895 0.32318 0.0
C2635 C 0.34791 0.33774 0.2767 0.0
H2636 H 0.37035 0.48743 0.51871 0.0
H2637 H 0.30565 0.47046 0.44668 0.0
H2638 H 0.39405 0.48897 0.43925 0.0
H2639 H 0.32919 0.47177 0.36858 0.0
H2640 H 0.36551 0.48188 0.22431 0.0
H2641 H 0.34183 0.48354 0.30367 0.0
H2642 H 0.4177 0.47852 0.38058 0.0
H2643 H 0.44109 0.47723 0.30251 0.0
C2644 C 0.3614 0.48393 0.48617 0.0
C2645 C 0.33616 0.47885 0.48904 0.0
C2646 C 0.37484 0.48484 0.44057 0.0
C2647 C 0.36333 0.48062 0.39713 0.0
C2648 C 0.33834 0.47538 0.40066 0.0
C2649 C 0.32499 0.47453 0.4458 0.0
C2650 C 0.37706 0.48132 0.25823 0.0
C2651 C 0.40506 0.47928 0.25698 0.0
C2652 C 0.36355 0.48218 0.30375 0.0
C2653 C 0.37782 0.48105 0.34875 0.0
C2654 C 0.40601 0.47953 0.34704 0.0
C2655 C 0.41939 0.47867 0.30193 0.0
loop_
_geom_bond_atom_site_label_1
_geom_bond_atom_site_label_2
_geom_bond_distance
_geom_bond_site_symmetry_2
_ccdc_geom_bond_type
C0 C1 1.351 . S
C0 N3 1.368 . S
C0 H5 0.931 . S
C1 C0 1.351 . S
C1 N2 1.373 . S
C1 H29 0.930 . S
N2 C1 1.373 . S
N2 C4 1.340 . S
N3 C0 1.368 . S
N3 C4 1.321 . S
N3 Co6 2.135 . S
C4 N2 1.340 . S
C4 N3 1.321 . S
C4 H28 0.930 . S
H5 C0 0.931 . S
Co6 N3 2.135 . S
Co6 N9 2.121 . S
Co6 O14 2.055 . S
Co6 O17 2.039 . S
Co6 N20 2.140 . S
C7 O8 1.227 . S
C7 O17 1.265 . S
O8 C7 1.227 . S
N9 Co6 2.121 . S
N9 C11 1.375 . S
N9 C12 1.313 . S
C10 C11 1.338 . S
C10 N13 1.377 . S
C10 H30 0.930 . S
C11 N9 1.375 . S
C11 C10 1.338 . S
C11 H15 0.931 . S
C12 N9 1.313 . S
C12 N13 1.344 . S
C12 H16 0.930 . S
N13 C10 1.377 . S
N13 C12 1.344 . S
O14 Co6 2.055 . S
O14 C18 1.253 . S
H15 C11 0.931 . S
H16 C12 0.930 . S
O17 Co6 2.039 . S
O17 C7 1.265 . S
C18 O14 1.253 . S
C18 O19 1.227 . S
O19 C18 1.227 . S
N20 Co6 2.140 . S
N20 C23 1.346 . S
N20 C24 1.345 . S
C21 C22 1.387 . S
C21 C25 1.391 . S
C22 C21 1.387 . S
C22 C23 1.369 1_655 S
C22 H31 0.929 . S
C23 N20 1.346 . S
C23 C22 1.369 1_455 S
C23 H26 0.928 . S
C24 N20 1.345 . S
C24 C25 1.371 1_455 S
C24 H27 0.931 . S
C25 C21 1.391 . S
C25 C24 1.371 1_655 S
C25 H32 0.930 . S
H26 C23 0.928 . S
H27 C24 0.931 . S
H28 C4 0.930 . S
H29 C1 0.930 . S
H30 C10 0.930 . S
H31 C22 0.929 . S
H32 C25 0.930 . S
C33 C34 1.351 . S
C33 N36 1.368 . S
C33 H38 0.931 . S
C34 C33 1.351 . S
C34 N35 1.373 . S
C34 H62 0.930 . S
N35 C34 1.373 . S
N35 C37 1.340 . S
N36 C33 1.368 . S
N36 C37 1.321 . S
N36 Co39 2.135 . S
C37 N35 1.340 . S
C37 N36 1.321 . S
C37 H61 0.930 . S
H38 C33 0.931 . S
Co39 N36 2.135 . S
Co39 N42 2.121 . S
Co39 O47 2.055 . S
Co39 O50 2.039 . S
Co39 N53 2.140 . S
C40 O41 1.227 . S
C40 O50 1.265 . S
O41 C40 1.227 . S
N42 Co39 2.121 . S
N42 C44 1.375 . S
N42 C45 1.313 . S
C43 C44 1.338 . S
C43 N46 1.377 . S
C43 H63 0.930 . S
C44 N42 1.375 . S
C44 C43 1.338 . S
C44 H48 0.931 . S
C45 N42 1.313 . S
C45 N46 1.344 . S
C45 H49 0.930 . S
N46 C43 1.377 . S
N46 C45 1.344 . S
O47 Co39 2.055 . S
O47 C51 1.253 . S
H48 C44 0.931 . S
H49 C45 0.930 . S
O50 Co39 2.039 . S
O50 C40 1.265 . S
C51 O47 1.253 . S
C51 O52 1.227 . S
O52 C51 1.227 . S
N53 Co39 2.140 . S
N53 C56 1.346 . S
N53 C57 1.345 . S
C54 C55 1.387 . S
C54 C58 1.391 . S
C55 C54 1.387 . S
C55 C56 1.369 . S
C55 H64 0.929 . S
C56 N53 1.346 . S
C56 C55 1.369 . S
C56 H59 0.928 . S
C57 N53 1.345 . S
C57 C58 1.371 . S
C57 H60 0.931 . S
C58 C54 1.391 . S
C58 C57 1.371 . S
C58 H65 0.930 . S
H59 C56 0.928 . S
H60 C57 0.931 . S
H61 C37 0.930 . S
H62 C34 0.930 . S
H63 C43 0.930 . S
H64 C55 0.929 . S
H65 C58 0.930 . S
C66 C67 1.351 . S
C66 N69 1.368 . S
C66 H71 0.931 . S
C67 C66 1.351 . S
C67 N68 1.373 . S
C67 H95 0.930 . S
N68 C67 1.373 . S
N68 C70 1.340 . S
N69 C66 1.368 . S
N69 C70 1.321 . S
N69 Co72 2.135 . S
C70 N68 1.340 . S
C70 N69 1.321 . S
C70 H94 0.930 . S
H71 C66 0.931 . S
Co72 N69 2.135 . S
Co72 N75 2.121 . S
Co72 O80 2.055 . S
Co72 O83 2.039 . S
Co72 N86 2.140 . S
C73 O74 1.227 . S
C73 O83 1.265 . S
O74 C73 1.227 . S
N75 Co72 2.121 . S
N75 C77 1.375 . S
N75 C78 1.313 . S
C76 C77 1.338 . S
C76 N79 1.377 . S
C76 H96 0.930 . S
C77 N75 1.375 . S
C77 C76 1.338 . S
C77 H81 0.931 . S
C78 N75 1.313 . S
C78 N79 1.344 . S
C78 H82 0.930 . S
N79 C76 1.377 . S
N79 C78 1.344 . S
O80 Co72 2.055 . S
O80 C84 1.253 . S
H81 C77 0.931 . S
H82 C78 0.930 . S
O83 Co72 2.039 . S
O83 C73 1.265 . S
C84 O80 1.253 . S
C84 O85 1.227 . S
O85 C84 1.227 . S
N86 Co72 2.140 . S
N86 C89 1.346 . S
N86 C90 1.345 . S
C87 C88 1.387 . S
C87 C91 1.391 . S
C88 C87 1.387 . S
C88 C89 1.369 1_655 S
C88 H97 0.929 . S
C89 N86 1.346 . S
C89 C88 1.369 1_455 S
C89 H92 0.928 . S
C90 N86 1.345 . S
C90 C91 1.371 1_455 S
C90 H93 0.931 . S
C91 C87 1.391 . S
C91 C90 1.371 1_655 S
C91 H98 0.930 . S
H92 C89 0.928 . S
H93 C90 0.931 . S
H94 C70 0.930 . S
H95 C67 0.930 . S
H96 C76 0.930 . S
H97 C88 0.929 . S
H98 C91 0.930 . S
C99 C100 1.351 . S
C99 N102 1.368 . S
C99 H104 0.931 . S
C100 C99 1.351 . S
C100 N101 1.373 . S
C100 H128 0.930 . S
N101 C100 1.373 . S
N101 C103 1.340 . S
N102 C99 1.368 . S
N102 C103 1.321 . S
N102 Co105 2.135 . S
C103 N101 1.340 . S
C103 N102 1.321 . S
C103 H127 0.930 . S
H104 C99 0.931 . S
Co105 N102 2.135 . S
Co105 N108 2.121 . S
Co105 O113 2.055 . S
Co105 O116 2.039 . S
Co105 N119 2.140 . S
C106 O107 1.227 . S
C106 O116 1.265 . S
O107 C106 1.227 . S
N108 Co105 2.121 . S
N108 C110 1.375 . S
N108 C111 1.313 . S
C109 C110 1.338 . S
C109 N112 1.377 . S
C109 H129 0.930 . S
C110 N108 1.375 . S
C110 C109 1.338 . S
C110 H114 0.931 . S
C111 N108 1.313 . S
C111 N112 1.344 . S
C111 H115 0.930 . S
N112 C109 1.377 . S
N112 C111 1.344 . S
O113 Co105 2.055 . S
O113 C117 1.253 . S
H114 C110 0.931 . S
H115 C111 0.930 . S
O116 Co105 2.039 . S
O116 C106 1.265 . S
C117 O113 1.253 . S
C117 O118 1.227 . S
O118 C117 1.227 . S
N119 Co105 2.140 . S
N119 C122 1.346 . S
N119 C123 1.345 . S
C120 C121 1.387 . S
C120 C124 1.391 . S
C121 C120 1.387 . S
C121 C122 1.369 . S
C121 H130 0.929 . S
C122 N119 1.346 . S
C122 C121 1.369 . S
C122 H125 0.928 . S
C123 N119 1.345 . S
C123 C124 1.371 . S
C123 H126 0.931 . S
C124 C120 1.391 . S
C124 C123 1.371 . S
C124 H131 0.930 . S
H125 C122 0.928 . S
H126 C123 0.931 . S
H127 C103 0.930 . S
H128 C100 0.930 . S
H129 C109 0.930 . S
H130 C121 0.929 . S
H131 C124 0.930 . S
C132 C133 1.351 . S
C132 N135 1.368 . S
C132 H137 0.931 . S
C133 C132 1.351 . S
C133 N134 1.373 . S
C133 H161 0.930 . S
N134 C133 1.373 . S
N134 C136 1.340 . S
N135 C132 1.368 . S
N135 C136 1.321 . S
N135 Co138 2.135 . S
C136 N134 1.340 . S
C136 N135 1.321 . S
C136 H160 0.930 . S
H137 C132 0.931 . S
Co138 N135 2.135 . S
Co138 N141 2.121 . S
Co138 O146 2.055 . S
Co138 O149 2.039 . S
Co138 N152 2.140 . S
C139 O140 1.227 . S
C139 O149 1.265 . S
O140 C139 1.227 . S
N141 Co138 2.121 . S
N141 C143 1.375 . S
N141 C144 1.313 . S
C142 C143 1.338 . S
C142 N145 1.377 . S
C142 H162 0.930 . S
C143 N141 1.375 . S
C143 C142 1.338 . S
C143 H147 0.931 . S
C144 N141 1.313 . S
C144 N145 1.344 . S
C144 H148 0.930 . S
N145 C142 1.377 . S
N145 C144 1.344 . S
O146 Co138 2.055 . S
O146 C150 1.253 . S
H147 C143 0.931 . S
H148 C144 0.930 . S
O149 Co138 2.039 . S
O149 C139 1.265 . S
C150 O146 1.253 . S
C150 O151 1.227 . S
O151 C150 1.227 . S
N152 Co138 2.140 . S
N152 C155 1.346 . S
N152 C156 1.345 . S
C153 C154 1.387 . S
C153 C157 1.391 . S
C154 C153 1.387 . S
C154 C155 1.369 1_455 S
C154 H163 0.929 . S
C155 N152 1.346 . S
C155 C154 1.369 1_655 S
C155 H158 0.928 . S
C156 N152 1.345 . S
C156 C157 1.371 1_655 S
C156 H159 0.931 . S
C157 C153 1.391 . S
C157 C156 1.371 1_455 S
C157 H164 0.930 . S
H158 C155 0.928 . S
H159 C156 0.931 . S
H160 C136 0.930 . S
H161 C133 0.930 . S
H162 C142 0.930 . S
H163 C154 0.929 . S
H164 C157 0.930 . S
C165 C166 1.351 . S
C165 N168 1.368 . S
C165 H170 0.931 . S
C166 C165 1.351 . S
C166 N167 1.373 . S
C166 H194 0.930 . S
N167 C166 1.373 . S
N167 C169 1.340 . S
N168 C165 1.368 . S
N168 C169 1.321 . S
N168 Co171 2.135 . S
C169 N167 1.340 . S
C169 N168 1.321 . S
C169 H193 0.930 . S
H170 C165 0.931 . S
Co171 N168 2.135 . S
Co171 N174 2.121 . S
Co171 O179 2.055 . S
Co171 O182 2.039 . S
Co171 N185 2.140 . S
C172 O173 1.227 . S
C172 O182 1.265 . S
O173 C172 1.227 . S
N174 Co171 2.121 . S
N174 C176 1.375 . S
N174 C177 1.313 . S
C175 C176 1.338 . S
C175 N178 1.377 . S
C175 H195 0.930 . S
C176 N174 1.375 . S
C176 C175 1.338 . S
C176 H180 0.931 . S
C177 N174 1.313 . S
C177 N178 1.344 . S
C177 H181 0.930 . S
N178 C175 1.377 . S
N178 C177 1.344 . S
O179 Co171 2.055 . S
O179 C183 1.253 . S
H180 C176 0.931 . S
H181 C177 0.930 . S
O182 Co171 2.039 . S
O182 C172 1.265 . S
C183 O179 1.253 . S
C183 O184 1.227 . S
O184 C183 1.227 . S
N185 Co171 2.140 . S
N185 C188 1.346 . S
N185 C189 1.345 . S
C186 C187 1.387 . S
C186 C190 1.391 . S
C187 C186 1.387 . S
C187 C188 1.369 . S
C187 H196 0.929 . S
C188 N185 1.346 . S
C188 C187 1.369 . S
C188 H191 0.928 . S
C189 N185 1.345 . S
C189 C190 1.371 . S
C189 H192 0.931 . S
C190 C186 1.391 . S
C190 C189 1.371 . S
C190 H197 0.930 . S
H191 C188 0.928 . S
H192 C189 0.931 . S
H193 C169 0.930 . S
H194 C166 0.930 . S
H195 C175 0.930 . S
H196 C187 0.929 . S
H197 C190 0.930 . S
C198 C199 1.351 . S
C198 N201 1.368 . S
C198 H203 0.931 . S
C199 C198 1.351 . S
C199 N200 1.373 . S
C199 H227 0.930 . S
N200 C199 1.373 . S
N200 C202 1.340 . S
N201 C198 1.368 . S
N201 C202 1.321 . S
N201 Co204 2.135 . S
C202 N200 1.340 . S
C202 N201 1.321 . S
C202 H226 0.930 . S
H203 C198 0.931 . S
Co204 N201 2.135 . S
Co204 N207 2.121 . S
Co204 O212 2.055 . S
Co204 O215 2.039 . S
Co204 N218 2.140 . S
C205 O206 1.227 . S
C205 O215 1.265 . S
O206 C205 1.227 . S
N207 Co204 2.121 . S
N207 C209 1.375 . S
N207 C210 1.313 . S
C208 C209 1.338 . S
C208 N211 1.377 . S
C208 H228 0.930 . S
C209 N207 1.375 . S
C209 C208 1.338 . S
C209 H213 0.931 . S
C210 N207 1.313 . S
C210 N211 1.344 . S
C210 H214 0.930 . S
N211 C208 1.377 . S
N211 C210 1.344 . S
O212 Co204 2.055 . S
O212 C216 1.253 . S
H213 C209 0.931 . S
H214 C210 0.930 . S
O215 Co204 2.039 . S
O215 C205 1.265 . S
C216 O212 1.253 . S
C216 O217 1.227 . S
O217 C216 1.227 . S
N218 Co204 2.140 . S
N218 C221 1.346 . S
N218 C222 1.345 . S
C219 C220 1.387 . S
C219 C223 1.391 . S
C220 C219 1.387 . S
C220 C221 1.369 1_455 S
C220 H229 0.929 . S
C221 N218 1.346 . S
C221 C220 1.369 1_655 S
C221 H224 0.928 . S
C222 N218 1.345 . S
C222 C223 1.371 1_655 S
C222 H225 0.931 . S
C223 C219 1.391 . S
C223 C222 1.371 1_455 S
C223 H230 0.930 . S
H224 C221 0.928 . S
H225 C222 0.931 . S
H226 C202 0.930 . S
H227 C199 0.930 . S
H228 C208 0.930 . S
H229 C220 0.929 . S
H230 C223 0.930 . S
C231 C232 1.351 . S
C231 N234 1.368 . S
C231 H236 0.931 . S
C232 C231 1.351 . S
C232 N233 1.373 . S
C232 H260 0.930 . S
N233 C232 1.373 . S
N233 C235 1.340 . S
N234 C231 1.368 . S
N234 C235 1.321 . S
N234 Co237 2.135 . S
C235 N233 1.340 . S
C235 N234 1.321 . S
C235 H259 0.930 . S
H236 C231 0.931 . S
Co237 N234 2.135 . S
Co237 N240 2.121 . S
Co237 O245 2.055 . S
Co237 O248 2.039 . S
Co237 N251 2.140 . S
C238 O239 1.227 . S
C238 O248 1.265 . S
O239 C238 1.227 . S
N240 Co237 2.121 . S
N240 C242 1.375 . S
N240 C243 1.313 . S
C241 C242 1.338 . S
C241 N244 1.377 . S
C241 H261 0.930 . S
C242 N240 1.375 . S
C242 C241 1.338 . S
C242 H246 0.931 . S
C243 N240 1.313 . S
C243 N244 1.344 . S
C243 H247 0.930 . S
N244 C241 1.377 . S
N244 C243 1.344 . S
O245 Co237 2.055 . S
O245 C249 1.253 . S
H246 C242 0.931 . S
H247 C243 0.930 . S
O248 Co237 2.039 . S
O248 C238 1.265 . S
C249 O245 1.253 . S
C249 O250 1.227 . S
O250 C249 1.227 . S
N251 Co237 2.140 . S
N251 C254 1.346 . S
N251 C255 1.345 . S
C252 C253 1.387 . S
C252 C256 1.391 . S
C253 C252 1.387 . S
C253 C254 1.369 . S
C253 H262 0.929 . S
C254 N251 1.346 . S
C254 C253 1.369 . S
C254 H257 0.928 . S
C255 N251 1.345 . S
C255 C256 1.371 . S
C255 H258 0.931 . S
C256 C252 1.391 . S
C256 C255 1.371 . S
C256 H263 0.930 . S
H257 C254 0.928 . S
H258 C255 0.931 . S
H259 C235 0.930 . S
H260 C232 0.930 . S
H261 C241 0.930 . S
H262 C253 0.929 . S
H263 C256 0.930 . S
C264 C265 1.351 . S
C264 N267 1.368 . S
C264 H269 0.931 . S
C265 C264 1.351 . S
C265 N266 1.373 . S
C265 H293 0.930 . S
N266 C265 1.373 . S
N266 C268 1.340 . S
N267 C264 1.368 . S
N267 C268 1.321 . S
N267 Co270 2.135 . S
C268 N266 1.340 . S
C268 N267 1.321 . S
C268 H292 0.930 . S
H269 C264 0.931 . S
Co270 N267 2.135 . S
Co270 N273 2.121 . S
Co270 O278 2.055 . S
Co270 O281 2.039 . S
Co270 N284 2.140 . S
C271 O272 1.227 . S
C271 O281 1.265 . S
O272 C271 1.227 . S
N273 Co270 2.121 . S
N273 C275 1.375 . S
N273 C276 1.313 . S
C274 C275 1.338 . S
C274 N277 1.377 . S
C274 H294 0.930 . S
C275 N273 1.375 . S
C275 C274 1.338 . S
C275 H279 0.931 . S
C276 N273 1.313 . S
C276 N277 1.344 . S
C276 H280 0.930 . S
N277 C274 1.377 . S
N277 C276 1.344 . S
O278 Co270 2.055 . S
O278 C282 1.253 . S
H279 C275 0.931 . S
H280 C276 0.930 . S
O281 Co270 2.039 . S
O281 C271 1.265 . S
C282 O278 1.253 . S
C282 O283 1.227 . S
O283 C282 1.227 . S
N284 Co270 2.140 . S
N284 C287 1.346 . S
N284 C288 1.345 . S
C285 C286 1.387 . S
C285 C289 1.391 . S
C286 C285 1.387 . S
C286 C287 1.369 1_655 S
C286 H295 0.929 . S
C287 N284 1.346 . S
C287 C286 1.369 1_455 S
C287 H290 0.928 . S
C288 N284 1.345 . S
C288 C289 1.371 1_455 S
C288 H291 0.931 . S
C289 C285 1.391 . S
C289 C288 1.371 1_655 S
C289 H296 0.930 . S
H290 C287 0.928 . S
H291 C288 0.931 . S
H292 C268 0.930 . S
H293 C265 0.930 . S
H294 C274 0.930 . S
H295 C286 0.929 . S
H296 C289 0.930 . S
C297 C298 1.351 . S
C297 N300 1.368 . S
C297 H302 0.931 . S
C298 C297 1.351 . S
C298 N299 1.373 . S
C298 H326 0.930 . S
N299 C298 1.373 . S
N299 C301 1.340 . S
N300 C297 1.368 . S
N300 C301 1.321 . S
N300 Co303 2.135 . S
C301 N299 1.340 . S
C301 N300 1.321 . S
C301 H325 0.930 . S
H302 C297 0.931 . S
Co303 N300 2.135 . S
Co303 N306 2.121 . S
Co303 O311 2.055 . S
Co303 O314 2.039 . S
Co303 N317 2.140 . S
C304 O305 1.227 . S
C304 O314 1.265 . S
O305 C304 1.227 . S
N306 Co303 2.121 . S
N306 C308 1.375 . S
N306 C309 1.313 . S
C307 C308 1.338 . S
C307 N310 1.377 . S
C307 H327 0.930 . S
C308 N306 1.375 . S
C308 C307 1.338 . S
C308 H312 0.931 . S
C309 N306 1.313 . S
C309 N310 1.344 . S
C309 H313 0.930 . S
N310 C307 1.377 . S
N310 C309 1.344 . S
O311 Co303 2.055 . S
O311 C315 1.253 . S
H312 C308 0.931 . S
H313 C309 0.930 . S
O314 Co303 2.039 . S
O314 C304 1.265 . S
C315 O311 1.253 . S
C315 O316 1.227 . S
O316 C315 1.227 . S
N317 Co303 2.140 . S
N317 C320 1.346 . S
N317 C321 1.345 . S
C318 C319 1.387 . S
C318 C322 1.391 . S
C319 C318 1.387 . S
C319 C320 1.369 . S
C319 H328 0.929 . S
C320 N317 1.346 . S
C320 C319 1.369 . S
C320 H323 0.928 . S
C321 N317 1.345 . S
C321 C322 1.371 . S
C321 H324 0.931 . S
C322 C318 1.391 . S
C322 C321 1.371 . S
C322 H329 0.930 . S
H323 C320 0.928 . S
H324 C321 0.931 . S
H325 C301 0.930 . S
H326 C298 0.930 . S
H327 C307 0.930 . S
H328 C319 0.929 . S
H329 C322 0.930 . S
C330 C331 1.351 . S
C330 N333 1.368 . S
C330 H335 0.931 . S
C331 C330 1.351 . S
C331 N332 1.373 . S
C331 H359 0.930 . S
N332 C331 1.373 . S
N332 C334 1.340 . S
N333 C330 1.368 . S
N333 C334 1.321 . S
N333 Co336 2.135 . S
C334 N332 1.340 . S
C334 N333 1.321 . S
C334 H358 0.930 . S
H335 C330 0.931 . S
Co336 N333 2.135 . S
Co336 N339 2.121 . S
Co336 O344 2.055 . S
Co336 O347 2.039 . S
Co336 N350 2.140 . S
C337 O338 1.227 . S
C337 O347 1.265 . S
O338 C337 1.227 . S
N339 Co336 2.121 . S
N339 C341 1.375 . S
N339 C342 1.313 . S
C340 C341 1.338 . S
C340 N343 1.377 . S
C340 H360 0.930 . S
C341 N339 1.375 . S
C341 C340 1.338 . S
C341 H345 0.931 . S
C342 N339 1.313 . S
C342 N343 1.344 . S
C342 H346 0.930 . S
N343 C340 1.377 . S
N343 C342 1.344 . S
O344 Co336 2.055 . S
O344 C348 1.253 . S
H345 C341 0.931 . S
H346 C342 0.930 . S
O347 Co336 2.039 . S
O347 C337 1.265 . S
C348 O344 1.253 . S
C348 O349 1.227 . S
O349 C348 1.227 . S
N350 Co336 2.140 . S
N350 C353 1.346 . S
N350 C354 1.345 . S
C351 C352 1.387 . S
C351 C355 1.391 . S
C352 C351 1.387 . S
C352 C353 1.369 1_655 S
C352 H361 0.929 . S
C353 N350 1.346 . S
C353 C352 1.369 1_455 S
C353 H356 0.928 . S
C354 N350 1.345 . S
C354 C355 1.371 1_455 S
C354 H357 0.931 . S
C355 C351 1.391 . S
C355 C354 1.371 1_655 S
C355 H362 0.930 . S
H356 C353 0.928 . S
H357 C354 0.931 . S
H358 C334 0.930 . S
H359 C331 0.930 . S
H360 C340 0.930 . S
H361 C352 0.929 . S
H362 C355 0.930 . S
C363 C364 1.351 . S
C363 N366 1.368 . S
C363 H368 0.931 . S
C364 C363 1.351 . S
C364 N365 1.373 . S
C364 H392 0.930 . S
N365 C364 1.373 . S
N365 C367 1.340 . S
N366 C363 1.368 . S
N366 C367 1.321 . S
N366 Co369 2.135 . S
C367 N365 1.340 . S
C367 N366 1.321 . S
C367 H391 0.930 . S
H368 C363 0.931 . S
Co369 N366 2.135 . S
Co369 N372 2.121 . S
Co369 O377 2.055 . S
Co369 O380 2.039 . S
Co369 N383 2.140 . S
C370 O371 1.227 . S
C370 O380 1.265 . S
O371 C370 1.227 . S
N372 Co369 2.121 . S
N372 C374 1.375 . S
N372 C375 1.313 . S
C373 C374 1.338 . S
C373 N376 1.377 . S
C373 H393 0.930 . S
C374 N372 1.375 . S
C374 C373 1.338 . S
C374 H378 0.931 . S
C375 N372 1.313 . S
C375 N376 1.344 . S
C375 H379 0.930 . S
N376 C373 1.377 . S
N376 C375 1.344 . S
O377 Co369 2.055 . S
O377 C381 1.253 . S
H378 C374 0.931 . S
H379 C375 0.930 . S
O380 Co369 2.039 . S
O380 C370 1.265 . S
C381 O377 1.253 . S
C381 O382 1.227 . S
O382 C381 1.227 . S
N383 Co369 2.140 . S
N383 C386 1.346 . S
N383 C387 1.345 . S
C384 C385 1.387 . S
C384 C388 1.391 . S
C385 C384 1.387 . S
C385 C386 1.369 . S
C385 H394 0.929 . S
C386 N383 1.346 . S
C386 C385 1.369 . S
C386 H389 0.928 . S
C387 N383 1.345 . S
C387 C388 1.371 . S
C387 H390 0.931 . S
C388 C384 1.391 . S
C388 C387 1.371 . S
C388 H395 0.930 . S
H389 C386 0.928 . S
H390 C387 0.931 . S
H391 C367 0.930 . S
H392 C364 0.930 . S
H393 C373 0.930 . S
H394 C385 0.929 . S
H395 C388 0.930 . S
C396 C397 1.351 . S
C396 N399 1.368 . S
C396 H401 0.931 . S
C397 C396 1.351 . S
C397 N398 1.373 . S
C397 H425 0.930 . S
N398 C397 1.373 . S
N398 C400 1.340 . S
N399 C396 1.368 . S
N399 C400 1.321 . S
N399 Co402 2.135 . S
C400 N398 1.340 . S
C400 N399 1.321 . S
C400 H424 0.930 . S
H401 C396 0.931 . S
Co402 N399 2.135 . S
Co402 N405 2.121 . S
Co402 O410 2.055 . S
Co402 O413 2.039 . S
Co402 N416 2.140 . S
C403 O404 1.227 . S
C403 O413 1.265 . S
O404 C403 1.227 . S
N405 Co402 2.121 . S
N405 C407 1.375 . S
N405 C408 1.313 . S
C406 C407 1.338 . S
C406 N409 1.377 . S
C406 H426 0.930 . S
C407 N405 1.375 . S
C407 C406 1.338 . S
C407 H411 0.931 . S
C408 N405 1.313 . S
C408 N409 1.344 . S
C408 H412 0.930 . S
N409 C406 1.377 . S
N409 C408 1.344 . S
O410 Co402 2.055 . S
O410 C414 1.253 . S
H411 C407 0.931 . S
H412 C408 0.930 . S
O413 Co402 2.039 . S
O413 C403 1.265 . S
C414 O410 1.253 . S
C414 O415 1.227 . S
O415 C414 1.227 . S
N416 Co402 2.140 . S
N416 C419 1.346 . S
N416 C420 1.345 . S
C417 C418 1.387 . S
C417 C421 1.391 . S
C418 C417 1.387 . S
C418 C419 1.369 1_455 S
C418 H427 0.929 . S
C419 N416 1.346 . S
C419 C418 1.369 1_655 S
C419 H422 0.928 . S
C420 N416 1.345 . S
C420 C421 1.371 1_655 S
C420 H423 0.931 . S
C421 C417 1.391 . S
C421 C420 1.371 1_455 S
C421 H428 0.930 . S
H422 C419 0.928 . S
H423 C420 0.931 . S
H424 C400 0.930 . S
H425 C397 0.930 . S
H426 C406 0.930 . S
H427 C418 0.929 . S
H428 C421 0.930 . S
C429 C430 1.351 . S
C429 N432 1.368 . S
C429 H434 0.931 . S
C430 C429 1.351 . S
C430 N431 1.373 . S
C430 H458 0.930 . S
N431 C430 1.373 . S
N431 C433 1.340 . S
N432 C429 1.368 . S
N432 C433 1.321 . S
N432 Co435 2.135 . S
C433 N431 1.340 . S
C433 N432 1.321 . S
C433 H457 0.930 . S
H434 C429 0.931 . S
Co435 N432 2.135 . S
Co435 N438 2.121 . S
Co435 O443 2.055 . S
Co435 O446 2.039 . S
Co435 N449 2.140 . S
C436 O437 1.227 . S
C436 O446 1.265 . S
O437 C436 1.227 . S
N438 Co435 2.121 . S
N438 C440 1.375 . S
N438 C441 1.313 . S
C439 C440 1.338 . S
C439 N442 1.377 . S
C439 H459 0.930 . S
C440 N438 1.375 . S
C440 C439 1.338 . S
C440 H444 0.931 . S
C441 N438 1.313 . S
C441 N442 1.344 . S
C441 H445 0.930 . S
N442 C439 1.377 . S
N442 C441 1.344 . S
O443 Co435 2.055 . S
O443 C447 1.253 . S
H444 C440 0.931 . S
H445 C441 0.930 . S
O446 Co435 2.039 . S
O446 C436 1.265 . S
C447 O443 1.253 . S
C447 O448 1.227 . S
O448 C447 1.227 . S
N449 Co435 2.140 . S
N449 C452 1.346 . S
N449 C453 1.345 . S
C450 C451 1.387 . S
C450 C454 1.391 . S
C451 C450 1.387 . S
C451 C452 1.369 . S
C451 H460 0.929 . S
C452 N449 1.346 . S
C452 C451 1.369 . S
C452 H455 0.928 . S
C453 N449 1.345 . S
C453 C454 1.371 . S
C453 H456 0.931 . S
C454 C450 1.391 . S
C454 C453 1.371 . S
C454 H461 0.930 . S
H455 C452 0.928 . S
H456 C453 0.931 . S
H457 C433 0.930 . S
H458 C430 0.930 . S
H459 C439 0.930 . S
H460 C451 0.929 . S
H461 C454 0.930 . S
C462 C463 1.351 . S
C462 N465 1.368 . S
C462 H467 0.931 . S
C463 C462 1.351 . S
C463 N464 1.373 . S
C463 H491 0.930 . S
N464 C463 1.373 . S
N464 C466 1.340 . S
N465 C462 1.368 . S
N465 C466 1.321 . S
N465 Co468 2.135 . S
C466 N464 1.340 . S
C466 N465 1.321 . S
C466 H490 0.930 . S
H467 C462 0.931 . S
Co468 N465 2.135 . S
Co468 N471 2.121 . S
Co468 O476 2.055 . S
Co468 O479 2.039 . S
Co468 N482 2.140 . S
C469 O470 1.227 . S
C469 O479 1.265 . S
O470 C469 1.227 . S
N471 Co468 2.121 . S
N471 C473 1.375 . S
N471 C474 1.313 . S
C472 C473 1.338 . S
C472 N475 1.377 . S
C472 H492 0.930 . S
C473 N471 1.375 . S
C473 C472 1.338 . S
C473 H477 0.931 . S
C474 N471 1.313 . S
C474 N475 1.344 . S
C474 H478 0.930 . S
N475 C472 1.377 . S
N475 C474 1.344 . S
O476 Co468 2.055 . S
O476 C480 1.253 . S
H477 C473 0.931 . S
H478 C474 0.930 . S
O479 Co468 2.039 . S
O479 C469 1.265 . S
C480 O476 1.253 . S
C480 O481 1.227 . S
O481 C480 1.227 . S
N482 Co468 2.140 . S
N482 C485 1.346 . S
N482 C486 1.345 . S
C483 C484 1.387 . S
C483 C487 1.391 . S
C484 C483 1.387 . S
C484 C485 1.369 1_455 S
C484 H493 0.929 . S
C485 N482 1.346 . S
C485 C484 1.369 1_655 S
C485 H488 0.928 . S
C486 N482 1.345 . S
C486 C487 1.371 1_655 S
C486 H489 0.931 . S
C487 C483 1.391 . S
C487 C486 1.371 1_455 S
C487 H494 0.930 . S
H488 C485 0.928 . S
H489 C486 0.931 . S
H490 C466 0.930 . S
H491 C463 0.930 . S
H492 C472 0.930 . S
H493 C484 0.929 . S
H494 C487 0.930 . S
C495 C496 1.351 . S
C495 N498 1.368 . S
C495 H500 0.931 . S
C496 C495 1.351 . S
C496 N497 1.373 . S
C496 H524 0.930 . S
N497 C496 1.373 . S
N497 C499 1.340 . S
N498 C495 1.368 . S
N498 C499 1.321 . S
N498 Co501 2.135 . S
C499 N497 1.340 . S
C499 N498 1.321 . S
C499 H523 0.930 . S
H500 C495 0.931 . S
Co501 N498 2.135 . S
Co501 N504 2.121 . S
Co501 O509 2.055 . S
Co501 O512 2.039 . S
Co501 N515 2.140 . S
C502 O503 1.227 . S
C502 O512 1.265 . S
O503 C502 1.227 . S
N504 Co501 2.121 . S
N504 C506 1.375 . S
N504 C507 1.313 . S
C505 C506 1.338 . S
C505 N508 1.377 . S
C505 H525 0.930 . S
C506 N504 1.375 . S
C506 C505 1.338 . S
C506 H510 0.931 . S
C507 N504 1.313 . S
C507 N508 1.344 . S
C507 H511 0.930 . S
N508 C505 1.377 . S
N508 C507 1.344 . S
O509 Co501 2.055 . S
O509 C513 1.253 . S
H510 C506 0.931 . S
H511 C507 0.930 . S
O512 Co501 2.039 . S
O512 C502 1.265 . S
C513 O509 1.253 . S
C513 O514 1.227 . S
O514 C513 1.227 . S
N515 Co501 2.140 . S
N515 C518 1.346 . S
N515 C519 1.345 . S
C516 C517 1.387 . S
C516 C520 1.391 . S
C517 C516 1.387 . S
C517 C518 1.369 . S
C517 H526 0.929 . S
C518 N515 1.346 . S
C518 C517 1.369 . S
C518 H521 0.928 . S
C519 N515 1.345 . S
C519 C520 1.371 . S
C519 H522 0.931 . S
C520 C516 1.391 . S
C520 C519 1.371 . S
C520 H527 0.930 . S
H521 C518 0.928 . S
H522 C519 0.931 . S
H523 C499 0.930 . S
H524 C496 0.930 . S
H525 C505 0.930 . S
H526 C517 0.929 . S
H527 C520 0.930 . S
C528 C529 1.351 . S
C528 N531 1.368 . S
C528 H533 0.931 . S
C529 C528 1.351 . S
C529 N530 1.373 . S
C529 H557 0.930 . S
N530 C529 1.373 . S
N530 C532 1.340 . S
N531 C528 1.368 . S
N531 C532 1.321 . S
N531 Co534 2.135 . S
C532 N530 1.340 . S
C532 N531 1.321 . S
C532 H556 0.930 . S
H533 C528 0.931 . S
Co534 N531 2.135 . S
Co534 N537 2.121 . S
Co534 O542 2.055 . S
Co534 O545 2.039 . S
Co534 N548 2.140 . S
C535 O536 1.227 . S
C535 O545 1.265 . S
O536 C535 1.227 . S
N537 Co534 2.121 . S
N537 C539 1.375 . S
N537 C540 1.313 . S
C538 C539 1.338 . S
C538 N541 1.377 . S
C538 H558 0.930 . S
C539 N537 1.375 . S
C539 C538 1.338 . S
C539 H543 0.931 . S
C540 N537 1.313 . S
C540 N541 1.344 . S
C540 H544 0.930 . S
N541 C538 1.377 . S
N541 C540 1.344 . S
O542 Co534 2.055 . S
O542 C546 1.253 . S
H543 C539 0.931 . S
H544 C540 0.930 . S
O545 Co534 2.039 . S
O545 C535 1.265 . S
C546 O542 1.253 . S
C546 O547 1.227 . S
O547 C546 1.227 . S
N548 Co534 2.140 . S
N548 C551 1.346 . S
N548 C552 1.345 . S
C549 C550 1.387 . S
C549 C553 1.391 . S
C550 C549 1.387 . S
C550 C551 1.369 . S
C550 H559 0.929 . S
C551 N548 1.346 . S
C551 C550 1.369 . S
C551 H554 0.928 . S
C552 N548 1.345 . S
C552 C553 1.371 . S
C552 H555 0.931 . S
C553 C549 1.391 . S
C553 C552 1.371 . S
C553 H560 0.930 . S
H554 C551 0.928 . S
H555 C552 0.931 . S
H556 C532 0.930 . S
H557 C529 0.930 . S
H558 C538 0.930 . S
H559 C550 0.929 . S
H560 C553 0.930 . S
C561 C562 1.351 . S
C561 N564 1.368 . S
C561 H566 0.931 . S
C562 C561 1.351 . S
C562 N563 1.373 . S
C562 H590 0.930 . S
N563 C562 1.373 . S
N563 C565 1.340 . S
N564 C561 1.368 . S
N564 C565 1.321 . S
N564 Co567 2.135 . S
C565 N563 1.340 . S
C565 N564 1.321 . S
C565 H589 0.930 . S
H566 C561 0.931 . S
Co567 N564 2.135 . S
Co567 N570 2.121 . S
Co567 O575 2.055 . S
Co567 O578 2.039 . S
Co567 N581 2.140 . S
C568 O569 1.227 . S
C568 O578 1.265 . S
O569 C568 1.227 . S
N570 Co567 2.121 . S
N570 C572 1.375 . S
N570 C573 1.313 . S
C571 C572 1.338 . S
C571 N574 1.377 . S
C571 H591 0.930 . S
C572 N570 1.375 . S
C572 C571 1.338 . S
C572 H576 0.931 . S
C573 N570 1.313 . S
C573 N574 1.344 . S
C573 H577 0.930 . S
N574 C571 1.377 . S
N574 C573 1.344 . S
O575 Co567 2.055 . S
O575 C579 1.253 . S
H576 C572 0.931 . S
H577 C573 0.930 . S
O578 Co567 2.039 . S
O578 C568 1.265 . S
C579 O575 1.253 . S
C579 O580 1.227 . S
O580 C579 1.227 . S
N581 Co567 2.140 . S
N581 C584 1.346 . S
N581 C585 1.345 . S
C582 C583 1.387 . S
C582 C586 1.391 . S
C583 C582 1.387 . S
C583 C584 1.369 . S
C583 H592 0.929 . S
C584 N581 1.346 . S
C584 C583 1.369 . S
C584 H587 0.928 . S
C585 N581 1.345 . S
C585 C586 1.371 . S
C585 H588 0.931 . S
C586 C582 1.391 . S
C586 C585 1.371 . S
C586 H593 0.930 . S
H587 C584 0.928 . S
H588 C585 0.931 . S
H589 C565 0.930 . S
H590 C562 0.930 . S
H591 C571 0.930 . S
H592 C583 0.929 . S
H593 C586 0.930 . S
C594 C595 1.351 . S
C594 N597 1.368 . S
C594 H599 0.931 . S
C595 C594 1.351 . S
C595 N596 1.373 . S
C595 H623 0.930 . S
N596 C595 1.373 . S
N596 C598 1.340 . S
N597 C594 1.368 . S
N597 C598 1.321 . S
N597 Co600 2.135 . S
C598 N596 1.340 . S
C598 N597 1.321 . S
C598 H622 0.930 . S
H599 C594 0.931 . S
Co600 N597 2.135 . S
Co600 N603 2.121 . S
Co600 O608 2.055 . S
Co600 O611 2.039 . S
Co600 N614 2.140 . S
C601 O602 1.227 . S
C601 O611 1.265 . S
O602 C601 1.227 . S
N603 Co600 2.121 . S
N603 C605 1.375 . S
N603 C606 1.313 . S
C604 C605 1.338 . S
C604 N607 1.377 . S
C604 H624 0.930 . S
C605 N603 1.375 . S
C605 C604 1.338 . S
C605 H609 0.931 . S
C606 N603 1.313 . S
C606 N607 1.344 . S
C606 H610 0.930 . S
N607 C604 1.377 . S
N607 C606 1.344 . S
O608 Co600 2.055 . S
O608 C612 1.253 . S
H609 C605 0.931 . S
H610 C606 0.930 . S
O611 Co600 2.039 . S
O611 C601 1.265 . S
C612 O608 1.253 . S
C612 O613 1.227 . S
O613 C612 1.227 . S
N614 Co600 2.140 . S
N614 C617 1.346 . S
N614 C618 1.345 . S
C615 C616 1.387 . S
C615 C619 1.391 . S
C616 C615 1.387 . S
C616 C617 1.369 . S
C616 H625 0.929 . S
C617 N614 1.346 . S
C617 C616 1.369 . S
C617 H620 0.928 . S
C618 N614 1.345 . S
C618 C619 1.371 . S
C618 H621 0.931 . S
C619 C615 1.391 . S
C619 C618 1.371 . S
C619 H626 0.930 . S
H620 C617 0.928 . S
H621 C618 0.931 . S
H622 C598 0.930 . S
H623 C595 0.930 . S
H624 C604 0.930 . S
H625 C616 0.929 . S
H626 C619 0.930 . S
C627 C628 1.351 . S
C627 N630 1.368 . S
C627 H632 0.931 . S
C628 C627 1.351 . S
C628 N629 1.373 . S
C628 H656 0.930 . S
N629 C628 1.373 . S
N629 C631 1.340 . S
N630 C627 1.368 . S
N630 C631 1.321 . S
N630 Co633 2.135 . S
C631 N629 1.340 . S
C631 N630 1.321 . S
C631 H655 0.930 . S
H632 C627 0.931 . S
Co633 N630 2.135 . S
Co633 N636 2.121 . S
Co633 O641 2.055 . S
Co633 O644 2.039 . S
Co633 N647 2.140 . S
C634 O635 1.227 . S
C634 O644 1.265 . S
O635 C634 1.227 . S
N636 Co633 2.121 . S
N636 C638 1.375 . S
N636 C639 1.313 . S
C637 C638 1.338 . S
C637 N640 1.377 . S
C637 H657 0.930 . S
C638 N636 1.375 . S
C638 C637 1.338 . S
C638 H642 0.931 . S
C639 N636 1.313 . S
C639 N640 1.344 . S
C639 H643 0.930 . S
N640 C637 1.377 . S
N640 C639 1.344 . S
O641 Co633 2.055 . S
O641 C645 1.253 . S
H642 C638 0.931 . S
H643 C639 0.930 . S
O644 Co633 2.039 . S
O644 C634 1.265 . S
C645 O641 1.253 . S
C645 O646 1.227 . S
O646 C645 1.227 . S
N647 Co633 2.140 . S
N647 C650 1.346 . S
N647 C651 1.345 . S
C648 C649 1.387 . S
C648 C652 1.391 . S
C649 C648 1.387 . S
C649 C650 1.369 . S
C649 H658 0.929 . S
C650 N647 1.346 . S
C650 C649 1.369 . S
C650 H653 0.928 . S
C651 N647 1.345 . S
C651 C652 1.371 . S
C651 H654 0.931 . S
C652 C648 1.391 . S
C652 C651 1.371 . S
C652 H659 0.930 . S
H653 C650 0.928 . S
H654 C651 0.931 . S
H655 C631 0.930 . S
H656 C628 0.930 . S
H657 C637 0.930 . S
H658 C649 0.929 . S
H659 C652 0.930 . S
C660 C661 1.351 . S
C660 N663 1.368 . S
C660 H665 0.931 . S
C661 C660 1.351 . S
C661 N662 1.373 . S
C661 H689 0.930 . S
N662 C661 1.373 . S
N662 C664 1.340 . S
N663 C660 1.368 . S
N663 C664 1.321 . S
N663 Co666 2.135 . S
C664 N662 1.340 . S
C664 N663 1.321 . S
C664 H688 0.930 . S
H665 C660 0.931 . S
Co666 N663 2.135 . S
Co666 N669 2.121 . S
Co666 O674 2.055 . S
Co666 O677 2.039 . S
Co666 N680 2.140 . S
C667 O668 1.227 . S
C667 O677 1.265 . S
O668 C667 1.227 . S
N669 Co666 2.121 . S
N669 C671 1.375 . S
N669 C672 1.313 . S
C670 C671 1.338 . S
C670 N673 1.377 . S
C670 H690 0.930 . S
C671 N669 1.375 . S
C671 C670 1.338 . S
C671 H675 0.931 . S
C672 N669 1.313 . S
C672 N673 1.344 . S
C672 H676 0.930 . S
N673 C670 1.377 . S
N673 C672 1.344 . S
O674 Co666 2.055 . S
O674 C678 1.253 . S
H675 C671 0.931 . S
H676 C672 0.930 . S
O677 Co666 2.039 . S
O677 C667 1.265 . S
C678 O674 1.253 . S
C678 O679 1.227 . S
O679 C678 1.227 . S
N680 Co666 2.140 . S
N680 C683 1.346 . S
N680 C684 1.345 . S
C681 C682 1.387 . S
C681 C685 1.391 . S
C682 C681 1.387 . S
C682 C683 1.369 . S
C682 H691 0.929 . S
C683 N680 1.346 . S
C683 C682 1.369 . S
C683 H686 0.928 . S
C684 N680 1.345 . S
C684 C685 1.371 . S
C684 H687 0.931 . S
C685 C681 1.391 . S
C685 C684 1.371 . S
C685 H692 0.930 . S
H686 C683 0.928 . S
H687 C684 0.931 . S
H688 C664 0.930 . S
H689 C661 0.930 . S
H690 C670 0.930 . S
H691 C682 0.929 . S
H692 C685 0.930 . S
C693 C694 1.351 . S
C693 N696 1.368 . S
C693 H698 0.931 . S
C694 C693 1.351 . S
C694 N695 1.373 . S
C694 H722 0.930 . S
N695 C694 1.373 . S
N695 C697 1.340 . S
N696 C693 1.368 . S
N696 C697 1.321 . S
N696 Co699 2.135 . S
C697 N695 1.340 . S
C697 N696 1.321 . S
C697 H721 0.930 . S
H698 C693 0.931 . S
Co699 N696 2.135 . S
Co699 N702 2.121 . S
Co699 O707 2.055 . S
Co699 O710 2.039 . S
Co699 N713 2.140 . S
C700 O701 1.227 . S
C700 O710 1.265 . S
O701 C700 1.227 . S
N702 Co699 2.121 . S
N702 C704 1.375 . S
N702 C705 1.313 . S
C703 C704 1.338 . S
C703 N706 1.377 . S
C703 H723 0.930 . S
C704 N702 1.375 . S
C704 C703 1.338 . S
C704 H708 0.931 . S
C705 N702 1.313 . S
C705 N706 1.344 . S
C705 H709 0.930 . S
N706 C703 1.377 . S
N706 C705 1.344 . S
O707 Co699 2.055 . S
O707 C711 1.253 . S
H708 C704 0.931 . S
H709 C705 0.930 . S
O710 Co699 2.039 . S
O710 C700 1.265 . S
C711 O707 1.253 . S
C711 O712 1.227 . S
O712 C711 1.227 . S
N713 Co699 2.140 . S
N713 C716 1.346 . S
N713 C717 1.345 . S
C714 C715 1.387 . S
C714 C718 1.391 . S
C715 C714 1.387 . S
C715 C716 1.369 . S
C715 H724 0.929 . S
C716 N713 1.346 . S
C716 C715 1.369 . S
C716 H719 0.928 . S
C717 N713 1.345 . S
C717 C718 1.371 . S
C717 H720 0.931 . S
C718 C714 1.391 . S
C718 C717 1.371 . S
C718 H725 0.930 . S
H719 C716 0.928 . S
H720 C717 0.931 . S
H721 C697 0.930 . S
H722 C694 0.930 . S
H723 C703 0.930 . S
H724 C715 0.929 . S
H725 C718 0.930 . S
C726 C727 1.351 . S
C726 N729 1.368 . S
C726 H731 0.931 . S
C727 C726 1.351 . S
C727 N728 1.373 . S
C727 H755 0.930 . S
N728 C727 1.373 . S
N728 C730 1.340 . S
N729 C726 1.368 . S
N729 C730 1.321 . S
N729 Co732 2.135 . S
C730 N728 1.340 . S
C730 N729 1.321 . S
C730 H754 0.930 . S
H731 C726 0.931 . S
Co732 N729 2.135 . S
Co732 N735 2.121 . S
Co732 O740 2.055 . S
Co732 O743 2.039 . S
Co732 N746 2.140 . S
C733 O734 1.227 . S
C733 O743 1.265 . S
O734 C733 1.227 . S
N735 Co732 2.121 . S
N735 C737 1.375 . S
N735 C738 1.313 . S
C736 C737 1.338 . S
C736 N739 1.377 . S
C736 H756 0.930 . S
C737 N735 1.375 . S
C737 C736 1.338 . S
C737 H741 0.931 . S
C738 N735 1.313 . S
C738 N739 1.344 . S
C738 H742 0.930 . S
N739 C736 1.377 . S
N739 C738 1.344 . S
O740 Co732 2.055 . S
O740 C744 1.253 . S
H741 C737 0.931 . S
H742 C738 0.930 . S
O743 Co732 2.039 . S
O743 C733 1.265 . S
C744 O740 1.253 . S
C744 O745 1.227 . S
O745 C744 1.227 . S
N746 Co732 2.140 . S
N746 C749 1.346 . S
N746 C750 1.345 . S
C747 C748 1.387 . S
C747 C751 1.391 . S
C748 C747 1.387 . S
C748 C749 1.369 . S
C748 H757 0.929 . S
C749 N746 1.346 . S
C749 C748 1.369 . S
C749 H752 0.928 . S
C750 N746 1.345 . S
C750 C751 1.371 . S
C750 H753 0.931 . S
C751 C747 1.391 . S
C751 C750 1.371 . S
C751 H758 0.930 . S
H752 C749 0.928 . S
H753 C750 0.931 . S
H754 C730 0.930 . S
H755 C727 0.930 . S
H756 C736 0.930 . S
H757 C748 0.929 . S
H758 C751 0.930 . S
C759 C760 1.351 . S
C759 N762 1.368 . S
C759 H764 0.931 . S
C760 C759 1.351 . S
C760 N761 1.373 . S
C760 H788 0.930 . S
N761 C760 1.373 . S
N761 C763 1.340 . S
N762 C759 1.368 . S
N762 C763 1.321 . S
N762 Co765 2.135 . S
C763 N761 1.340 . S
C763 N762 1.321 . S
C763 H787 0.930 . S
H764 C759 0.931 . S
Co765 N762 2.135 . S
Co765 N768 2.121 . S
Co765 O773 2.055 . S
Co765 O776 2.039 . S
Co765 N779 2.140 . S
C766 O767 1.227 . S
C766 O776 1.265 . S
O767 C766 1.227 . S
N768 Co765 2.121 . S
N768 C770 1.375 . S
N768 C771 1.313 . S
C769 C770 1.338 . S
C769 N772 1.377 . S
C769 H789 0.930 . S
C770 N768 1.375 . S
C770 C769 1.338 . S
C770 H774 0.931 . S
C771 N768 1.313 . S
C771 N772 1.344 . S
C771 H775 0.930 . S
N772 C769 1.377 . S
N772 C771 1.344 . S
O773 Co765 2.055 . S
O773 C777 1.253 . S
H774 C770 0.931 . S
H775 C771 0.930 . S
O776 Co765 2.039 . S
O776 C766 1.265 . S
C777 O773 1.253 . S
C777 O778 1.227 . S
O778 C777 1.227 . S
N779 Co765 2.140 . S
N779 C782 1.346 . S
N779 C783 1.345 . S
C780 C781 1.387 . S
C780 C784 1.391 . S
C781 C780 1.387 . S
C781 C782 1.369 . S
C781 H790 0.929 . S
C782 N779 1.346 . S
C782 C781 1.369 . S
C782 H785 0.928 . S
C783 N779 1.345 . S
C783 C784 1.371 . S
C783 H786 0.931 . S
C784 C780 1.391 . S
C784 C783 1.371 . S
C784 H791 0.930 . S
H785 C782 0.928 . S
H786 C783 0.931 . S
H787 C763 0.930 . S
H788 C760 0.930 . S
H789 C769 0.930 . S
H790 C781 0.929 . S
H791 C784 0.930 . S
C792 C793 1.351 . S
C792 N795 1.368 . S
C792 H797 0.931 . S
C793 C792 1.351 . S
C793 N794 1.373 . S
C793 H821 0.930 . S
N794 C793 1.373 . S
N794 C796 1.340 . S
N795 C792 1.368 . S
N795 C796 1.321 . S
N795 Co798 2.135 . S
C796 N794 1.340 . S
C796 N795 1.321 . S
C796 H820 0.930 . S
H797 C792 0.931 . S
Co798 N795 2.135 . S
Co798 N801 2.121 . S
Co798 O806 2.055 . S
Co798 O809 2.039 . S
Co798 N812 2.140 . S
C799 O800 1.227 . S
C799 O809 1.265 . S
O800 C799 1.227 . S
N801 Co798 2.121 . S
N801 C803 1.375 . S
N801 C804 1.313 . S
C802 C803 1.338 . S
C802 N805 1.377 . S
C802 H822 0.930 . S
C803 N801 1.375 . S
C803 C802 1.338 . S
C803 H807 0.931 . S
C804 N801 1.313 . S
C804 N805 1.344 . S
C804 H808 0.930 . S
N805 C802 1.377 . S
N805 C804 1.344 . S
O806 Co798 2.055 . S
O806 C810 1.253 . S
H807 C803 0.931 . S
H808 C804 0.930 . S
O809 Co798 2.039 . S
O809 C799 1.265 . S
C810 O806 1.253 . S
C810 O811 1.227 . S
O811 C810 1.227 . S
N812 Co798 2.140 . S
N812 C815 1.346 . S
N812 C816 1.345 . S
C813 C814 1.387 . S
C813 C817 1.391 . S
C814 C813 1.387 . S
C814 C815 1.369 . S
C814 H823 0.929 . S
C815 N812 1.346 . S
C815 C814 1.369 . S
C815 H818 0.928 . S
C816 N812 1.345 . S
C816 C817 1.371 . S
C816 H819 0.931 . S
C817 C813 1.391 . S
C817 C816 1.371 . S
C817 H824 0.930 . S
H818 C815 0.928 . S
H819 C816 0.931 . S
H820 C796 0.930 . S
H821 C793 0.930 . S
H822 C802 0.930 . S
H823 C814 0.929 . S
H824 C817 0.930 . S
C825 C826 1.351 . S
C825 N828 1.368 . S
C825 H830 0.931 . S
C826 C825 1.351 . S
C826 N827 1.373 . S
C826 H854 0.930 . S
N827 C826 1.373 . S
N827 C829 1.340 . S
N828 C825 1.368 . S
N828 C829 1.321 . S
N828 Co831 2.135 . S
C829 N827 1.340 . S
C829 N828 1.321 . S
C829 H853 0.930 . S
H830 C825 0.931 . S
Co831 N828 2.135 . S
Co831 N834 2.121 . S
Co831 O839 2.055 . S
Co831 O842 2.039 . S
Co831 N845 2.140 . S
C832 O833 1.227 . S
C832 O842 1.265 . S
O833 C832 1.227 . S
N834 Co831 2.121 . S
N834 C836 1.375 . S
N834 C837 1.313 . S
C835 C836 1.338 . S
C835 N838 1.377 . S
C835 H855 0.930 . S
C836 N834 1.375 . S
C836 C835 1.338 . S
C836 H840 0.931 . S
C837 N834 1.313 . S
C837 N838 1.344 . S
C837 H841 0.930 . S
N838 C835 1.377 . S
N838 C837 1.344 . S
O839 Co831 2.055 . S
O839 C843 1.253 . S
H840 C836 0.931 . S
H841 C837 0.930 . S
O842 Co831 2.039 . S
O842 C832 1.265 . S
C843 O839 1.253 . S
C843 O844 1.227 . S
O844 C843 1.227 . S
N845 Co831 2.140 . S
N845 C848 1.346 . S
N845 C849 1.345 . S
C846 C847 1.387 . S
C846 C850 1.391 . S
C847 C846 1.387 . S
C847 C848 1.369 . S
C847 H856 0.929 . S
C848 N845 1.346 . S
C848 C847 1.369 . S
C848 H851 0.928 . S
C849 N845 1.345 . S
C849 C850 1.371 . S
C849 H852 0.931 . S
C850 C846 1.391 . S
C850 C849 1.371 . S
C850 H857 0.930 . S
H851 C848 0.928 . S
H852 C849 0.931 . S
H853 C829 0.930 . S
H854 C826 0.930 . S
H855 C835 0.930 . S
H856 C847 0.929 . S
H857 C850 0.930 . S
C858 C859 1.351 . S
C858 N861 1.368 . S
C858 H863 0.931 . S
C859 C858 1.351 . S
C859 N860 1.373 . S
C859 H887 0.930 . S
N860 C859 1.373 . S
N860 C862 1.340 . S
N861 C858 1.368 . S
N861 C862 1.321 . S
N861 Co864 2.135 . S
C862 N860 1.340 . S
C862 N861 1.321 . S
C862 H886 0.930 . S
H863 C858 0.931 . S
Co864 N861 2.135 . S
Co864 N867 2.121 . S
Co864 O872 2.055 . S
Co864 O875 2.039 . S
Co864 N878 2.140 . S
C865 O866 1.227 . S
C865 O875 1.265 . S
O866 C865 1.227 . S
N867 Co864 2.121 . S
N867 C869 1.375 . S
N867 C870 1.313 . S
C868 C869 1.338 . S
C868 N871 1.377 . S
C868 H888 0.930 . S
C869 N867 1.375 . S
C869 C868 1.338 . S
C869 H873 0.931 . S
C870 N867 1.313 . S
C870 N871 1.344 . S
C870 H874 0.930 . S
N871 C868 1.377 . S
N871 C870 1.344 . S
O872 Co864 2.055 . S
O872 C876 1.253 . S
H873 C869 0.931 . S
H874 C870 0.930 . S
O875 Co864 2.039 . S
O875 C865 1.265 . S
C876 O872 1.253 . S
C876 O877 1.227 . S
O877 C876 1.227 . S
N878 Co864 2.140 . S
N878 C881 1.346 . S
N878 C882 1.345 . S
C879 C880 1.387 . S
C879 C883 1.391 . S
C880 C879 1.387 . S
C880 C881 1.369 . S
C880 H889 0.929 . S
C881 N878 1.346 . S
C881 C880 1.369 . S
C881 H884 0.928 . S
C882 N878 1.345 . S
C882 C883 1.371 . S
C882 H885 0.931 . S
C883 C879 1.391 . S
C883 C882 1.371 . S
C883 H890 0.930 . S
H884 C881 0.928 . S
H885 C882 0.931 . S
H886 C862 0.930 . S
H887 C859 0.930 . S
H888 C868 0.930 . S
H889 C880 0.929 . S
H890 C883 0.930 . S
C891 C892 1.351 . S
C891 N894 1.368 . S
C891 H896 0.931 . S
C892 C891 1.351 . S
C892 N893 1.373 . S
C892 H920 0.930 . S
N893 C892 1.373 . S
N893 C895 1.340 . S
N894 C891 1.368 . S
N894 C895 1.321 . S
N894 Co897 2.135 . S
C895 N893 1.340 . S
C895 N894 1.321 . S
C895 H919 0.930 . S
H896 C891 0.931 . S
Co897 N894 2.135 . S
Co897 N900 2.121 . S
Co897 O905 2.055 . S
Co897 O908 2.039 . S
Co897 N911 2.140 . S
C898 O899 1.227 . S
C898 O908 1.265 . S
O899 C898 1.227 . S
N900 Co897 2.121 . S
N900 C902 1.375 . S
N900 C903 1.313 . S
C901 C902 1.338 . S
C901 N904 1.377 . S
C901 H921 0.930 . S
C902 N900 1.375 . S
C902 C901 1.338 . S
C902 H906 0.931 . S
C903 N900 1.313 . S
C903 N904 1.344 . S
C903 H907 0.930 . S
N904 C901 1.377 . S
N904 C903 1.344 . S
O905 Co897 2.055 . S
O905 C909 1.253 . S
H906 C902 0.931 . S
H907 C903 0.930 . S
O908 Co897 2.039 . S
O908 C898 1.265 . S
C909 O905 1.253 . S
C909 O910 1.227 . S
O910 C909 1.227 . S
N911 Co897 2.140 . S
N911 C914 1.346 . S
N911 C915 1.345 . S
C912 C913 1.387 . S
C912 C916 1.391 . S
C913 C912 1.387 . S
C913 C914 1.369 . S
C913 H922 0.929 . S
C914 N911 1.346 . S
C914 C913 1.369 . S
C914 H917 0.928 . S
C915 N911 1.345 . S
C915 C916 1.371 . S
C915 H918 0.931 . S
C916 C912 1.391 . S
C916 C915 1.371 . S
C916 H923 0.930 . S
H917 C914 0.928 . S
H918 C915 0.931 . S
H919 C895 0.930 . S
H920 C892 0.930 . S
H921 C901 0.930 . S
H922 C913 0.929 . S
H923 C916 0.930 . S
C924 C925 1.351 . S
C924 N927 1.368 . S
C924 H929 0.931 . S
C925 C924 1.351 . S
C925 N926 1.373 . S
C925 H953 0.930 . S
N926 C925 1.373 . S
N926 C928 1.340 . S
N927 C924 1.368 . S
N927 C928 1.321 . S
N927 Co930 2.135 . S
C928 N926 1.340 . S
C928 N927 1.321 . S
C928 H952 0.930 . S
H929 C924 0.931 . S
Co930 N927 2.135 . S
Co930 N933 2.121 . S
Co930 O938 2.055 . S
Co930 O941 2.039 . S
Co930 N944 2.140 . S
C931 O932 1.227 . S
C931 O941 1.265 . S
O932 C931 1.227 . S
N933 Co930 2.121 . S
N933 C935 1.375 . S
N933 C936 1.313 . S
C934 C935 1.338 . S
C934 N937 1.377 . S
C934 H954 0.930 . S
C935 N933 1.375 . S
C935 C934 1.338 . S
C935 H939 0.931 . S
C936 N933 1.313 . S
C936 N937 1.344 . S
C936 H940 0.930 . S
N937 C934 1.377 . S
N937 C936 1.344 . S
O938 Co930 2.055 . S
O938 C942 1.253 . S
H939 C935 0.931 . S
H940 C936 0.930 . S
O941 Co930 2.039 . S
O941 C931 1.265 . S
C942 O938 1.253 . S
C942 O943 1.227 . S
O943 C942 1.227 . S
N944 Co930 2.140 . S
N944 C947 1.346 . S
N944 C948 1.345 . S
C945 C946 1.387 . S
C945 C949 1.391 . S
C946 C945 1.387 . S
C946 C947 1.369 . S
C946 H955 0.929 . S
C947 N944 1.346 . S
C947 C946 1.369 . S
C947 H950 0.928 . S
C948 N944 1.345 . S
C948 C949 1.371 . S
C948 H951 0.931 . S
C949 C945 1.391 . S
C949 C948 1.371 . S
C949 H956 0.930 . S
H950 C947 0.928 . S
H951 C948 0.931 . S
H952 C928 0.930 . S
H953 C925 0.930 . S
H954 C934 0.930 . S
H955 C946 0.929 . S
H956 C949 0.930 . S
C957 C958 1.351 . S
C957 N960 1.368 . S
C957 H962 0.931 . S
C958 C957 1.351 . S
C958 N959 1.373 . S
C958 H986 0.930 . S
N959 C958 1.373 . S
N959 C961 1.340 . S
N960 C957 1.368 . S
N960 C961 1.321 . S
N960 Co963 2.135 . S
C961 N959 1.340 . S
C961 N960 1.321 . S
C961 H985 0.930 . S
H962 C957 0.931 . S
Co963 N960 2.135 . S
Co963 N966 2.121 . S
Co963 O971 2.055 . S
Co963 O974 2.039 . S
Co963 N977 2.140 . S
C964 O965 1.227 . S
C964 O974 1.265 . S
O965 C964 1.227 . S
N966 Co963 2.121 . S
N966 C968 1.375 . S
N966 C969 1.313 . S
C967 C968 1.338 . S
C967 N970 1.377 . S
C967 H987 0.930 . S
C968 N966 1.375 . S
C968 C967 1.338 . S
C968 H972 0.931 . S
C969 N966 1.313 . S
C969 N970 1.344 . S
C969 H973 0.930 . S
N970 C967 1.377 . S
N970 C969 1.344 . S
O971 Co963 2.055 . S
O971 C975 1.253 . S
H972 C968 0.931 . S
H973 C969 0.930 . S
O974 Co963 2.039 . S
O974 C964 1.265 . S
C975 O971 1.253 . S
C975 O976 1.227 . S
O976 C975 1.227 . S
N977 Co963 2.140 . S
N977 C980 1.346 . S
N977 C981 1.345 . S
C978 C979 1.387 . S
C978 C982 1.391 . S
C979 C978 1.387 . S
C979 C980 1.369 . S
C979 H988 0.929 . S
C980 N977 1.346 . S
C980 C979 1.369 . S
C980 H983 0.928 . S
C981 N977 1.345 . S
C981 C982 1.371 . S
C981 H984 0.931 . S
C982 C978 1.391 . S
C982 C981 1.371 . S
C982 H989 0.930 . S
H983 C980 0.928 . S
H984 C981 0.931 . S
H985 C961 0.930 . S
H986 C958 0.930 . S
H987 C967 0.930 . S
H988 C979 0.929 . S
H989 C982 0.930 . S
C990 C991 1.351 . S
C990 N993 1.368 . S
C990 H995 0.931 . S
C991 C990 1.351 . S
C991 N992 1.373 . S
C991 H1019 0.930 . S
N992 C991 1.373 . S
N992 C994 1.340 . S
N993 C990 1.368 . S
N993 C994 1.321 . S
N993 Co996 2.135 . S
C994 N992 1.340 . S
C994 N993 1.321 . S
C994 H1018 0.930 . S
H995 C990 0.931 . S
Co996 N993 2.135 . S
Co996 N999 2.121 . S
Co996 O1004 2.055 . S
Co996 O1007 2.039 . S
Co996 N1010 2.140 . S
C997 O998 1.227 . S
C997 O1007 1.265 . S
O998 C997 1.227 . S
N999 Co996 2.121 . S
N999 C1001 1.375 . S
N999 C1002 1.313 . S
C1000 C1001 1.338 . S
C1000 N1003 1.377 . S
C1000 H1020 0.930 . S
C1001 N999 1.375 . S
C1001 C1000 1.338 . S
C1001 H1005 0.931 . S
C1002 N999 1.313 . S
C1002 N1003 1.344 . S
C1002 H1006 0.930 . S
N1003 C1000 1.377 . S
N1003 C1002 1.344 . S
O1004 Co996 2.055 . S
O1004 C1008 1.253 . S
H1005 C1001 0.931 . S
H1006 C1002 0.930 . S
O1007 Co996 2.039 . S
O1007 C997 1.265 . S
C1008 O1004 1.253 . S
C1008 O1009 1.227 . S
O1009 C1008 1.227 . S
N1010 Co996 2.140 . S
N1010 C1013 1.346 . S
N1010 C1014 1.345 . S
C1011 C1012 1.387 . S
C1011 C1015 1.391 . S
C1012 C1011 1.387 . S
C1012 C1013 1.369 . S
C1012 H1021 0.929 . S
C1013 N1010 1.346 . S
C1013 C1012 1.369 . S
C1013 H1016 0.928 . S
C1014 N1010 1.345 . S
C1014 C1015 1.371 . S
C1014 H1017 0.931 . S
C1015 C1011 1.391 . S
C1015 C1014 1.371 . S
C1015 H1022 0.930 . S
H1016 C1013 0.928 . S
H1017 C1014 0.931 . S
H1018 C994 0.930 . S
H1019 C991 0.930 . S
H1020 C1000 0.930 . S
H1021 C1012 0.929 . S
H1022 C1015 0.930 . S
C1023 C1024 1.351 . S
C1023 N1026 1.368 . S
C1023 H1028 0.931 . S
C1024 C1023 1.351 . S
C1024 N1025 1.373 . S
C1024 H1052 0.930 . S
N1025 C1024 1.373 . S
N1025 C1027 1.340 . S
N1026 C1023 1.368 . S
N1026 C1027 1.321 . S
N1026 Co1029 2.135 . S
C1027 N1025 1.340 . S
C1027 N1026 1.321 . S
C1027 H1051 0.930 . S
H1028 C1023 0.931 . S
Co1029 N1026 2.135 . S
Co1029 N1032 2.121 . S
Co1029 O1037 2.055 . S
Co1029 O1040 2.039 . S
Co1029 N1043 2.140 . S
C1030 O1031 1.227 . S
C1030 O1040 1.265 . S
O1031 C1030 1.227 . S
N1032 Co1029 2.121 . S
N1032 C1034 1.375 . S
N1032 C1035 1.313 . S
C1033 C1034 1.338 . S
C1033 N1036 1.377 . S
C1033 H1053 0.930 . S
C1034 N1032 1.375 . S
C1034 C1033 1.338 . S
C1034 H1038 0.931 . S
C1035 N1032 1.313 . S
C1035 N1036 1.344 . S
C1035 H1039 0.930 . S
N1036 C1033 1.377 . S
N1036 C1035 1.344 . S
O1037 Co1029 2.055 . S
O1037 C1041 1.253 . S
H1038 C1034 0.931 . S
H1039 C1035 0.930 . S
O1040 Co1029 2.039 . S
O1040 C1030 1.265 . S
C1041 O1037 1.253 . S
C1041 O1042 1.227 . S
O1042 C1041 1.227 . S
N1043 Co1029 2.140 . S
N1043 C1046 1.346 . S
N1043 C1047 1.345 . S
C1044 C1045 1.387 . S
C1044 C1048 1.391 . S
C1045 C1044 1.387 . S
C1045 C1046 1.369 . S
C1045 H1054 0.929 . S
C1046 N1043 1.346 . S
C1046 C1045 1.369 . S
C1046 H1049 0.928 . S
C1047 N1043 1.345 . S
C1047 C1048 1.371 . S
C1047 H1050 0.931 . S
C1048 C1044 1.391 . S
C1048 C1047 1.371 . S
C1048 H1055 0.930 . S
H1049 C1046 0.928 . S
H1050 C1047 0.931 . S
H1051 C1027 0.930 . S
H1052 C1024 0.930 . S
H1053 C1033 0.930 . S
H1054 C1045 0.929 . S
H1055 C1048 0.930 . S
H1056 C1064 0.950 1_556 S
H1057 C1069 0.950 . S
H1058 C1066 0.950 . S
H1059 C1068 0.950 . S
H1060 C1070 0.950 . S
H1061 C1072 0.950 . S
H1062 C1074 0.950 . S
H1063 C1075 0.950 . S
C1064 H1056 0.950 1_554 S
C1064 C1065 1.386 . S
C1064 C1066 1.391 . S
C1065 C1064 1.386 . S
C1065 C1069 1.393 . S
C1066 H1058 0.950 . S
C1066 C1064 1.391 . S
C1066 C1067 1.400 . S
C1067 C1066 1.400 . S
C1067 C1068 1.398 . S
C1067 C1073 1.491 . S
C1068 H1059 0.950 . S
C1068 C1067 1.398 . S
C1068 C1069 1.391 . S
C1069 H1057 0.950 . S
C1069 C1065 1.393 . S
C1069 C1068 1.391 . S
C1070 H1060 0.950 . S
C1070 C1071 1.386 . S
C1070 C1072 1.391 . S
C1071 C1070 1.386 . S
C1071 C1075 1.393 . S
C1072 H1061 0.950 . S
C1072 C1070 1.391 . S
C1072 C1073 1.400 . S
C1073 C1067 1.491 . S
C1073 C1072 1.400 . S
C1073 C1074 1.398 . S
C1074 H1062 0.950 . S
C1074 C1073 1.398 . S
C1074 C1075 1.391 . S
C1075 H1063 0.950 . S
C1075 C1071 1.393 . S
C1075 C1074 1.391 . S
H1076 C1084 0.950 . S
H1077 C1089 0.950 . S
H1078 C1086 0.950 . S
H1079 C1088 0.950 . S
H1080 C1090 0.950 . S
H1081 C1092 0.950 . S
H1082 C1094 0.950 . S
H1083 C1095 0.950 1_556 S
C1084 H1076 0.950 . S
C1084 C1085 1.386 . S
C1084 C1086 1.391 . S
C1085 C1084 1.386 . S
C1085 C1089 1.393 . S
C1086 H1078 0.950 . S
C1086 C1084 1.391 . S
C1086 C1087 1.400 . S
C1087 C1086 1.400 . S
C1087 C1088 1.398 . S
C1087 C1093 1.491 . S
C1088 H1079 0.950 . S
C1088 C1087 1.398 . S
C1088 C1089 1.391 . S
C1089 H1077 0.950 . S
C1089 C1085 1.393 . S
C1089 C1088 1.391 . S
C1090 H1080 0.950 . S
C1090 C1091 1.386 . S
C1090 C1092 1.391 . S
C1091 C1090 1.386 . S
C1091 C1095 1.393 . S
C1092 H1081 0.950 . S
C1092 C1090 1.391 . S
C1092 C1093 1.400 . S
C1093 C1087 1.491 . S
C1093 C1092 1.400 . S
C1093 C1094 1.398 . S
C1094 H1082 0.950 . S
C1094 C1093 1.398 . S
C1094 C1095 1.391 . S
C1095 H1083 0.950 1_554 S
C1095 C1091 1.393 . S
C1095 C1094 1.391 . S
H1096 C1104 0.950 . S
H1097 C1109 0.950 . S
H1098 C1106 0.950 . S
H1099 C1108 0.950 . S
H1100 C1110 0.950 . S
H1101 C1112 0.950 . S
H1102 C1114 0.950 . S
H1103 C1115 0.950 1_554 S
C1104 H1096 0.950 . S
C1104 C1105 1.386 . S
C1104 C1106 1.391 . S
C1105 C1104 1.386 . S
C1105 C1109 1.393 . S
C1106 H1098 0.950 . S
C1106 C1104 1.391 . S
C1106 C1107 1.400 . S
C1107 C1106 1.400 . S
C1107 C1108 1.398 . S
C1107 C1113 1.491 . S
C1108 H1099 0.950 . S
C1108 C1107 1.398 . S
C1108 C1109 1.391 . S
C1109 H1097 0.950 . S
C1109 C1105 1.393 . S
C1109 C1108 1.391 . S
C1110 H1100 0.950 . S
C1110 C1111 1.386 . S
C1110 C1112 1.391 . S
C1111 C1110 1.386 . S
C1111 C1115 1.393 . S
C1112 H1101 0.950 . S
C1112 C1110 1.391 . S
C1112 C1113 1.400 . S
C1113 C1107 1.491 . S
C1113 C1112 1.400 . S
C1113 C1114 1.398 . S
C1114 H1102 0.950 . S
C1114 C1113 1.398 . S
C1114 C1115 1.391 . S
C1115 H1103 0.950 1_556 S
C1115 C1111 1.393 . S
C1115 C1114 1.391 . S
H1116 C1124 0.950 . S
H1117 C1129 0.950 . S
H1118 C1126 0.950 . S
H1119 C1128 0.950 . S
H1120 C1130 0.950 1_554 S
H1121 C1132 0.950 . S
H1122 C1134 0.950 . S
H1123 C1135 0.950 . S
C1124 H1116 0.950 . S
C1124 C1125 1.386 . S
C1124 C1126 1.391 . S
C1125 C1124 1.386 . S
C1125 C1129 1.393 . S
C1126 H1118 0.950 . S
C1126 C1124 1.391 . S
C1126 C1127 1.400 . S
C1127 C1126 1.400 . S
C1127 C1128 1.398 . S
C1127 C1133 1.491 . S
C1128 H1119 0.950 . S
C1128 C1127 1.398 . S
C1128 C1129 1.391 . S
C1129 H1117 0.950 . S
C1129 C1125 1.393 . S
C1129 C1128 1.391 . S
C1130 H1120 0.950 1_556 S
C1130 C1131 1.386 . S
C1130 C1132 1.391 . S
C1131 C1130 1.386 . S
C1131 C1135 1.393 . S
C1132 H1121 0.950 . S
C1132 C1130 1.391 . S
C1132 C1133 1.400 . S
C1133 C1127 1.491 . S
C1133 C1132 1.400 . S
C1133 C1134 1.398 . S
C1134 H1122 0.950 . S
C1134 C1133 1.398 . S
C1134 C1135 1.391 . S
C1135 H1123 0.950 . S
C1135 C1131 1.393 . S
C1135 C1134 1.391 . S
H1136 C1144 0.950 . S
H1137 C1149 0.950 . S
H1138 C1146 0.950 . S
H1139 C1148 0.950 . S
H1140 C1150 0.950 . S
H1141 C1152 0.950 . S
H1142 C1154 0.950 . S
H1143 C1155 0.950 . S
C1144 H1136 0.950 . S
C1144 C1145 1.386 . S
C1144 C1146 1.391 . S
C1145 C1144 1.386 . S
C1145 C1149 1.393 . S
C1146 H1138 0.950 . S
C1146 C1144 1.391 . S
C1146 C1147 1.400 . S
C1147 C1146 1.400 . S
C1147 C1148 1.398 . S
C1147 C1153 1.491 . S
C1148 H1139 0.950 . S
C1148 C1147 1.398 . S
C1148 C1149 1.391 . S
C1149 H1137 0.950 . S
C1149 C1145 1.393 . S
C1149 C1148 1.391 . S
C1150 H1140 0.950 . S
C1150 C1151 1.386 . S
C1150 C1152 1.391 . S
C1151 C1150 1.386 . S
C1151 C1155 1.393 . S
C1152 H1141 0.950 . S
C1152 C1150 1.391 . S
C1152 C1153 1.400 . S
C1153 C1147 1.491 . S
C1153 C1152 1.400 . S
C1153 C1154 1.398 . S
C1154 H1142 0.950 . S
C1154 C1153 1.398 . S
C1154 C1155 1.391 . S
C1155 H1143 0.950 . S
C1155 C1151 1.393 . S
C1155 C1154 1.391 . S
H1156 C1164 0.950 . S
H1157 C1169 0.950 . S
H1158 C1166 0.950 . S
H1159 C1168 0.950 . S
H1160 C1170 0.950 . S
H1161 C1172 0.950 . S
H1162 C1174 0.950 . S
H1163 C1175 0.950 . S
C1164 H1156 0.950 . S
C1164 C1165 1.386 . S
C1164 C1166 1.391 . S
C1165 C1164 1.386 . S
C1165 C1169 1.393 . S
C1166 H1158 0.950 . S
C1166 C1164 1.391 . S
C1166 C1167 1.400 . S
C1167 C1166 1.400 . S
C1167 C1168 1.398 . S
C1167 C1173 1.491 . S
C1168 H1159 0.950 . S
C1168 C1167 1.398 . S
C1168 C1169 1.391 . S
C1169 H1157 0.950 . S
C1169 C1165 1.393 . S
C1169 C1168 1.391 . S
C1170 H1160 0.950 . S
C1170 C1171 1.386 . S
C1170 C1172 1.391 . S
C1171 C1170 1.386 . S
C1171 C1175 1.393 . S
C1172 H1161 0.950 . S
C1172 C1170 1.391 . S
C1172 C1173 1.400 . S
C1173 C1167 1.491 . S
C1173 C1172 1.400 . S
C1173 C1174 1.398 . S
C1174 H1162 0.950 . S
C1174 C1173 1.398 . S
C1174 C1175 1.391 . S
C1175 H1163 0.950 . S
C1175 C1171 1.393 . S
C1175 C1174 1.391 . S
H1176 C1184 0.950 . S
H1177 C1189 0.950 . S
H1178 C1186 0.950 . S
H1179 C1188 0.950 . S
H1180 C1190 0.950 . S
H1181 C1192 0.950 . S
H1182 C1194 0.950 . S
H1183 C1195 0.950 . S
C1184 H1176 0.950 . S
C1184 C1185 1.386 . S
C1184 C1186 1.391 . S
C1185 C1184 1.386 . S
C1185 C1189 1.393 . S
C1186 H1178 0.950 . S
C1186 C1184 1.391 . S
C1186 C1187 1.400 . S
C1187 C1186 1.400 . S
C1187 C1188 1.398 . S
C1187 C1193 1.491 . S
C1188 H1179 0.950 . S
C1188 C1187 1.398 . S
C1188 C1189 1.391 . S
C1189 H1177 0.950 . S
C1189 C1185 1.393 . S
C1189 C1188 1.391 . S
C1190 H1180 0.950 . S
C1190 C1191 1.386 . S
C1190 C1192 1.391 . S
C1191 C1190 1.386 . S
C1191 C1195 1.393 . S
C1192 H1181 0.950 . S
C1192 C1190 1.391 . S
C1192 C1193 1.400 . S
C1193 C1187 1.491 . S
C1193 C1192 1.400 . S
C1193 C1194 1.398 . S
C1194 H1182 0.950 . S
C1194 C1193 1.398 . S
C1194 C1195 1.391 . S
C1195 H1183 0.950 . S
C1195 C1191 1.393 . S
C1195 C1194 1.391 . S
H1196 C1204 0.950 . S
H1197 C1209 0.950 . S
H1198 C1206 0.950 . S
H1199 C1208 0.950 . S
H1200 C1210 0.950 . S
H1201 C1212 0.950 . S
H1202 C1214 0.950 . S
H1203 C1215 0.950 . S
C1204 H1196 0.950 . S
C1204 C1205 1.386 . S
C1204 C1206 1.391 . S
C1205 C1204 1.386 . S
C1205 C1209 1.393 . S
C1206 H1198 0.950 . S
C1206 C1204 1.391 . S
C1206 C1207 1.400 . S
C1207 C1206 1.400 . S
C1207 C1208 1.398 . S
C1207 C1213 1.491 . S
C1208 H1199 0.950 . S
C1208 C1207 1.398 . S
C1208 C1209 1.391 . S
C1209 H1197 0.950 . S
C1209 C1205 1.393 . S
C1209 C1208 1.391 . S
C1210 H1200 0.950 . S
C1210 C1211 1.386 . S
C1210 C1212 1.391 . S
C1211 C1210 1.386 . S
C1211 C1215 1.393 . S
C1212 H1201 0.950 . S
C1212 C1210 1.391 . S
C1212 C1213 1.400 . S
C1213 C1207 1.491 . S
C1213 C1212 1.400 . S
C1213 C1214 1.398 . S
C1214 H1202 0.950 . S
C1214 C1213 1.398 . S
C1214 C1215 1.391 . S
C1215 H1203 0.950 . S
C1215 C1211 1.393 . S
C1215 C1214 1.391 . S
H1216 C1224 0.950 . S
H1217 C1229 0.950 . S
H1218 C1226 0.950 . S
H1219 C1228 0.950 . S
H1220 C1230 0.950 . S
H1221 C1232 0.950 . S
H1222 C1234 0.950 . S
H1223 C1235 0.950 . S
C1224 H1216 0.950 . S
C1224 C1225 1.386 . S
C1224 C1226 1.391 . S
C1225 C1224 1.386 . S
C1225 C1229 1.393 . S
C1226 H1218 0.950 . S
C1226 C1224 1.391 . S
C1226 C1227 1.400 . S
C1227 C1226 1.400 . S
C1227 C1228 1.398 . S
C1227 C1233 1.491 . S
C1228 H1219 0.950 . S
C1228 C1227 1.398 . S
C1228 C1229 1.391 . S
C1229 H1217 0.950 . S
C1229 C1225 1.393 . S
C1229 C1228 1.391 . S
C1230 H1220 0.950 . S
C1230 C1231 1.386 . S
C1230 C1232 1.391 . S
C1231 C1230 1.386 . S
C1231 C1235 1.393 . S
C1232 H1221 0.950 . S
C1232 C1230 1.391 . S
C1232 C1233 1.400 . S
C1233 C1227 1.491 . S
C1233 C1232 1.400 . S
C1233 C1234 1.398 . S
C1234 H1222 0.950 . S
C1234 C1233 1.398 . S
C1234 C1235 1.391 . S
C1235 H1223 0.950 . S
C1235 C1231 1.393 . S
C1235 C1234 1.391 . S
H1236 C1244 0.950 . S
H1237 C1249 0.950 . S
H1238 C1246 0.950 . S
H1239 C1248 0.950 . S
H1240 C1250 0.950 . S
H1241 C1252 0.950 . S
H1242 C1254 0.950 . S
H1243 C1255 0.950 . S
C1244 H1236 0.950 . S
C1244 C1245 1.386 . S
C1244 C1246 1.391 . S
C1245 C1244 1.386 . S
C1245 C1249 1.393 . S
C1246 H1238 0.950 . S
C1246 C1244 1.391 . S
C1246 C1247 1.400 . S
C1247 C1246 1.400 . S
C1247 C1248 1.398 . S
C1247 C1253 1.491 . S
C1248 H1239 0.950 . S
C1248 C1247 1.398 . S
C1248 C1249 1.391 . S
C1249 H1237 0.950 . S
C1249 C1245 1.393 . S
C1249 C1248 1.391 . S
C1250 H1240 0.950 . S
C1250 C1251 1.386 . S
C1250 C1252 1.391 . S
C1251 C1250 1.386 . S
C1251 C1255 1.393 . S
C1252 H1241 0.950 . S
C1252 C1250 1.391 . S
C1252 C1253 1.400 . S
C1253 C1247 1.491 . S
C1253 C1252 1.400 . S
C1253 C1254 1.398 . S
C1254 H1242 0.950 . S
C1254 C1253 1.398 . S
C1254 C1255 1.391 . S
C1255 H1243 0.950 . S
C1255 C1251 1.393 . S
C1255 C1254 1.391 . S
H1256 C1264 0.950 . S
H1257 C1269 0.950 . S
H1258 C1266 0.950 . S
H1259 C1268 0.950 . S
H1260 C1270 0.950 . S
H1261 C1272 0.950 . S
H1262 C1274 0.950 . S
H1263 C1275 0.950 . S
C1264 H1256 0.950 . S
C1264 C1265 1.386 . S
C1264 C1266 1.391 . S
C1265 C1264 1.386 . S
C1265 C1269 1.393 . S
C1266 H1258 0.950 . S
C1266 C1264 1.391 . S
C1266 C1267 1.400 . S
C1267 C1266 1.400 . S
C1267 C1268 1.398 . S
C1267 C1273 1.491 . S
C1268 H1259 0.950 . S
C1268 C1267 1.398 . S
C1268 C1269 1.391 . S
C1269 H1257 0.950 . S
C1269 C1265 1.393 . S
C1269 C1268 1.391 . S
C1270 H1260 0.950 . S
C1270 C1271 1.386 . S
C1270 C1272 1.391 . S
C1271 C1270 1.386 . S
C1271 C1275 1.393 . S
C1272 H1261 0.950 . S
C1272 C1270 1.391 . S
C1272 C1273 1.400 . S
C1273 C1267 1.491 . S
C1273 C1272 1.400 . S
C1273 C1274 1.398 . S
C1274 H1262 0.950 . S
C1274 C1273 1.398 . S
C1274 C1275 1.391 . S
C1275 H1263 0.950 . S
C1275 C1271 1.393 . S
C1275 C1274 1.391 . S
H1276 C1284 0.950 . S
H1277 C1289 0.950 . S
H1278 C1286 0.950 . S
H1279 C1288 0.950 . S
H1280 C1290 0.950 . S
H1281 C1292 0.950 . S
H1282 C1294 0.950 . S
H1283 C1295 0.950 . S
C1284 H1276 0.950 . S
C1284 C1285 1.386 . S
C1284 C1286 1.391 . S
C1285 C1284 1.386 . S
C1285 C1289 1.393 . S
C1286 H1278 0.950 . S
C1286 C1284 1.391 . S
C1286 C1287 1.400 . S
C1287 C1286 1.400 . S
C1287 C1288 1.398 . S
C1287 C1293 1.491 . S
C1288 H1279 0.950 . S
C1288 C1287 1.398 . S
C1288 C1289 1.391 . S
C1289 H1277 0.950 . S
C1289 C1285 1.393 . S
C1289 C1288 1.391 . S
C1290 H1280 0.950 . S
C1290 C1291 1.386 . S
C1290 C1292 1.391 . S
C1291 C1290 1.386 . S
C1291 C1295 1.393 . S
C1292 H1281 0.950 . S
C1292 C1290 1.391 . S
C1292 C1293 1.400 . S
C1293 C1287 1.491 . S
C1293 C1292 1.400 . S
C1293 C1294 1.398 . S
C1294 H1282 0.950 . S
C1294 C1293 1.398 . S
C1294 C1295 1.391 . S
C1295 H1283 0.950 . S
C1295 C1291 1.393 . S
C1295 C1294 1.391 . S
H1296 C1304 0.950 . S
H1297 C1309 0.950 1_556 S
H1298 C1306 0.950 . S
H1299 C1308 0.950 . S
H1300 C1310 0.950 . S
H1301 C1312 0.950 . S
H1302 C1314 0.950 . S
H1303 C1315 0.950 . S
C1304 H1296 0.950 . S
C1304 C1305 1.386 . S
C1304 C1306 1.391 . S
C1305 C1304 1.386 . S
C1305 C1309 1.393 . S
C1306 H1298 0.950 . S
C1306 C1304 1.391 . S
C1306 C1307 1.400 . S
C1307 C1306 1.400 . S
C1307 C1308 1.398 . S
C1307 C1313 1.491 . S
C1308 H1299 0.950 . S
C1308 C1307 1.398 . S
C1308 C1309 1.391 . S
C1309 H1297 0.950 1_554 S
C1309 C1305 1.393 . S
C1309 C1308 1.391 . S
C1310 H1300 0.950 . S
C1310 C1311 1.386 . S
C1310 C1312 1.391 . S
C1311 C1310 1.386 . S
C1311 C1315 1.393 . S
C1312 H1301 0.950 . S
C1312 C1310 1.391 . S
C1312 C1313 1.400 . S
C1313 C1307 1.491 . S
C1313 C1312 1.400 . S
C1313 C1314 1.398 . S
C1314 H1302 0.950 . S
C1314 C1313 1.398 . S
C1314 C1315 1.391 . S
C1315 H1303 0.950 . S
C1315 C1311 1.393 . S
C1315 C1314 1.391 . S
H1316 C1324 0.950 . S
H1317 C1329 0.950 1_556 S
H1318 C1326 0.950 . S
H1319 C1328 0.950 . S
H1320 C1330 0.950 . S
H1321 C1332 0.950 . S
H1322 C1334 0.950 . S
H1323 C1335 0.950 . S
C1324 H1316 0.950 . S
C1324 C1325 1.386 . S
C1324 C1326 1.391 . S
C1325 C1324 1.386 . S
C1325 C1329 1.393 . S
C1326 H1318 0.950 . S
C1326 C1324 1.391 . S
C1326 C1327 1.400 . S
C1327 C1326 1.400 . S
C1327 C1328 1.398 . S
C1327 C1333 1.491 . S
C1328 H1319 0.950 . S
C1328 C1327 1.398 . S
C1328 C1329 1.391 . S
C1329 H1317 0.950 1_554 S
C1329 C1325 1.393 . S
C1329 C1328 1.391 . S
C1330 H1320 0.950 . S
C1330 C1331 1.386 . S
C1330 C1332 1.391 . S
C1331 C1330 1.386 . S
C1331 C1335 1.393 . S
C1332 H1321 0.950 . S
C1332 C1330 1.391 . S
C1332 C1333 1.400 . S
C1333 C1327 1.491 . S
C1333 C1332 1.400 . S
C1333 C1334 1.398 . S
C1334 H1322 0.950 . S
C1334 C1333 1.398 . S
C1334 C1335 1.391 . S
C1335 H1323 0.950 . S
C1335 C1331 1.393 . S
C1335 C1334 1.391 . S
H1336 C1344 0.950 1_554 S
H1337 C1349 0.950 . S
H1338 C1346 0.950 . S
H1339 C1348 0.950 . S
H1340 C1350 0.950 . S
H1341 C1352 0.950 . S
H1342 C1354 0.950 . S
H1343 C1355 0.950 . S
C1344 H1336 0.950 1_556 S
C1344 C1345 1.386 . S
C1344 C1346 1.391 . S
C1345 C1344 1.386 . S
C1345 C1349 1.393 . S
C1346 H1338 0.950 . S
C1346 C1344 1.391 . S
C1346 C1347 1.400 . S
C1347 C1346 1.400 . S
C1347 C1348 1.398 . S
C1347 C1353 1.491 . S
C1348 H1339 0.950 . S
C1348 C1347 1.398 . S
C1348 C1349 1.391 . S
C1349 H1337 0.950 . S
C1349 C1345 1.393 . S
C1349 C1348 1.391 . S
C1350 H1340 0.950 . S
C1350 C1351 1.386 . S
C1350 C1352 1.391 . S
C1351 C1350 1.386 . S
C1351 C1355 1.393 . S
C1352 H1341 0.950 . S
C1352 C1350 1.391 . S
C1352 C1353 1.400 . S
C1353 C1347 1.491 . S
C1353 C1352 1.400 . S
C1353 C1354 1.398 . S
C1354 H1342 0.950 . S
C1354 C1353 1.398 . S
C1354 C1355 1.391 . S
C1355 H1343 0.950 . S
C1355 C1351 1.393 . S
C1355 C1354 1.391 . S
H1356 C1364 0.950 . S
H1357 C1369 0.950 1_554 S
H1358 C1366 0.950 . S
H1359 C1368 0.950 . S
H1360 C1370 0.950 . S
H1361 C1372 0.950 . S
H1362 C1374 0.950 . S
H1363 C1375 0.950 . S
C1364 H1356 0.950 . S
C1364 C1365 1.386 . S
C1364 C1366 1.391 . S
C1365 C1364 1.386 . S
C1365 C1369 1.393 . S
C1366 H1358 0.950 . S
C1366 C1364 1.391 . S
C1366 C1367 1.400 . S
C1367 C1366 1.400 . S
C1367 C1368 1.398 . S
C1367 C1373 1.491 . S
C1368 H1359 0.950 . S
C1368 C1367 1.398 . S
C1368 C1369 1.391 . S
C1369 H1357 0.950 1_556 S
C1369 C1365 1.393 . S
C1369 C1368 1.391 . S
C1370 H1360 0.950 . S
C1370 C1371 1.386 . S
C1370 C1372 1.391 . S
C1371 C1370 1.386 . S
C1371 C1375 1.393 . S
C1372 H1361 0.950 . S
C1372 C1370 1.391 . S
C1372 C1373 1.400 . S
C1373 C1367 1.491 . S
C1373 C1372 1.400 . S
C1373 C1374 1.398 . S
C1374 H1362 0.950 . S
C1374 C1373 1.398 . S
C1374 C1375 1.391 . S
C1375 H1363 0.950 . S
C1375 C1371 1.393 . S
C1375 C1374 1.391 . S
H1376 C1384 0.950 . S
H1377 C1389 0.950 . S
H1378 C1386 0.950 . S
H1379 C1388 0.950 . S
H1380 C1390 0.950 . S
H1381 C1392 0.950 . S
H1382 C1394 0.950 . S
H1383 C1395 0.950 . S
C1384 H1376 0.950 . S
C1384 C1385 1.386 . S
C1384 C1386 1.391 . S
C1385 C1384 1.386 . S
C1385 C1389 1.393 . S
C1386 H1378 0.950 . S
C1386 C1384 1.391 . S
C1386 C1387 1.400 . S
C1387 C1386 1.400 . S
C1387 C1388 1.398 . S
C1387 C1393 1.491 . S
C1388 H1379 0.950 . S
C1388 C1387 1.398 . S
C1388 C1389 1.391 . S
C1389 H1377 0.950 . S
C1389 C1385 1.393 . S
C1389 C1388 1.391 . S
C1390 H1380 0.950 . S
C1390 C1391 1.386 . S
C1390 C1392 1.391 . S
C1391 C1390 1.386 . S
C1391 C1395 1.393 . S
C1392 H1381 0.950 . S
C1392 C1390 1.391 . S
C1392 C1393 1.400 . S
C1393 C1387 1.491 . S
C1393 C1392 1.400 . S
C1393 C1394 1.398 . S
C1394 H1382 0.950 . S
C1394 C1393 1.398 . S
C1394 C1395 1.391 . S
C1395 H1383 0.950 . S
C1395 C1391 1.393 . S
C1395 C1394 1.391 . S
H1396 C1404 0.950 . S
H1397 C1409 0.950 . S
H1398 C1406 0.950 . S
H1399 C1408 0.950 . S
H1400 C1410 0.950 . S
H1401 C1412 0.950 . S
H1402 C1414 0.950 . S
H1403 C1415 0.950 . S
C1404 H1396 0.950 . S
C1404 C1405 1.386 . S
C1404 C1406 1.391 . S
C1405 C1404 1.386 . S
C1405 C1409 1.393 . S
C1406 H1398 0.950 . S
C1406 C1404 1.391 . S
C1406 C1407 1.400 . S
C1407 C1406 1.400 . S
C1407 C1408 1.398 . S
C1407 C1413 1.491 . S
C1408 H1399 0.950 . S
C1408 C1407 1.398 . S
C1408 C1409 1.391 . S
C1409 H1397 0.950 . S
C1409 C1405 1.393 . S
C1409 C1408 1.391 . S
C1410 H1400 0.950 . S
C1410 C1411 1.386 . S
C1410 C1412 1.391 . S
C1411 C1410 1.386 . S
C1411 C1415 1.393 . S
C1412 H1401 0.950 . S
C1412 C1410 1.391 . S
C1412 C1413 1.400 . S
C1413 C1407 1.491 . S
C1413 C1412 1.400 . S
C1413 C1414 1.398 . S
C1414 H1402 0.950 . S
C1414 C1413 1.398 . S
C1414 C1415 1.391 . S
C1415 H1403 0.950 . S
C1415 C1411 1.393 . S
C1415 C1414 1.391 . S
H1416 C1424 0.950 . S
H1417 C1429 0.950 . S
H1418 C1426 0.950 . S
H1419 C1428 0.950 . S
H1420 C1430 0.950 . S
H1421 C1432 0.950 . S
H1422 C1434 0.950 . S
H1423 C1435 0.950 . S
C1424 H1416 0.950 . S
C1424 C1425 1.386 . S
C1424 C1426 1.391 . S
C1425 C1424 1.386 . S
C1425 C1429 1.393 . S
C1426 H1418 0.950 . S
C1426 C1424 1.391 . S
C1426 C1427 1.400 . S
C1427 C1426 1.400 . S
C1427 C1428 1.398 . S
C1427 C1433 1.491 . S
C1428 H1419 0.950 . S
C1428 C1427 1.398 . S
C1428 C1429 1.391 . S
C1429 H1417 0.950 . S
C1429 C1425 1.393 . S
C1429 C1428 1.391 . S
C1430 H1420 0.950 . S
C1430 C1431 1.386 . S
C1430 C1432 1.391 . S
C1431 C1430 1.386 . S
C1431 C1435 1.393 . S
C1432 H1421 0.950 . S
C1432 C1430 1.391 . S
C1432 C1433 1.400 . S
C1433 C1427 1.491 . S
C1433 C1432 1.400 . S
C1433 C1434 1.398 . S
C1434 H1422 0.950 . S
C1434 C1433 1.398 . S
C1434 C1435 1.391 . S
C1435 H1423 0.950 . S
C1435 C1431 1.393 . S
C1435 C1434 1.391 . S
H1436 C1444 0.950 . S
H1437 C1449 0.950 . S
H1438 C1446 0.950 . S
H1439 C1448 0.950 . S
H1440 C1450 0.950 . S
H1441 C1452 0.950 . S
H1442 C1454 0.950 . S
H1443 C1455 0.950 . S
C1444 H1436 0.950 . S
C1444 C1445 1.386 . S
C1444 C1446 1.391 . S
C1445 C1444 1.386 . S
C1445 C1449 1.393 . S
C1446 H1438 0.950 . S
C1446 C1444 1.391 . S
C1446 C1447 1.400 . S
C1447 C1446 1.400 . S
C1447 C1448 1.398 . S
C1447 C1453 1.491 . S
C1448 H1439 0.950 . S
C1448 C1447 1.398 . S
C1448 C1449 1.391 . S
C1449 H1437 0.950 . S
C1449 C1445 1.393 . S
C1449 C1448 1.391 . S
C1450 H1440 0.950 . S
C1450 C1451 1.386 . S
C1450 C1452 1.391 . S
C1451 C1450 1.386 . S
C1451 C1455 1.393 . S
C1452 H1441 0.950 . S
C1452 C1450 1.391 . S
C1452 C1453 1.400 . S
C1453 C1447 1.491 . S
C1453 C1452 1.400 . S
C1453 C1454 1.398 . S
C1454 H1442 0.950 . S
C1454 C1453 1.398 . S
C1454 C1455 1.391 . S
C1455 H1443 0.950 . S
C1455 C1451 1.393 . S
C1455 C1454 1.391 . S
H1456 C1464 0.950 . S
H1457 C1469 0.950 . S
H1458 C1466 0.950 . S
H1459 C1468 0.950 . S
H1460 C1470 0.950 . S
H1461 C1472 0.950 . S
H1462 C1474 0.950 . S
H1463 C1475 0.950 . S
C1464 H1456 0.950 . S
C1464 C1465 1.386 . S
C1464 C1466 1.391 . S
C1465 C1464 1.386 . S
C1465 C1469 1.393 . S
C1466 H1458 0.950 . S
C1466 C1464 1.391 . S
C1466 C1467 1.400 . S
C1467 C1466 1.400 . S
C1467 C1468 1.398 . S
C1467 C1473 1.491 . S
C1468 H1459 0.950 . S
C1468 C1467 1.398 . S
C1468 C1469 1.391 . S
C1469 H1457 0.950 . S
C1469 C1465 1.393 . S
C1469 C1468 1.391 . S
C1470 H1460 0.950 . S
C1470 C1471 1.386 . S
C1470 C1472 1.391 . S
C1471 C1470 1.386 . S
C1471 C1475 1.393 . S
C1472 H1461 0.950 . S
C1472 C1470 1.391 . S
C1472 C1473 1.400 . S
C1473 C1467 1.491 . S
C1473 C1472 1.400 . S
C1473 C1474 1.398 . S
C1474 H1462 0.950 . S
C1474 C1473 1.398 . S
C1474 C1475 1.391 . S
C1475 H1463 0.950 . S
C1475 C1471 1.393 . S
C1475 C1474 1.391 . S
H1476 C1484 0.950 . S
H1477 C1489 0.950 . S
H1478 C1486 0.950 . S
H1479 C1488 0.950 . S
H1480 C1490 0.950 . S
H1481 C1492 0.950 . S
H1482 C1494 0.950 . S
H1483 C1495 0.950 . S
C1484 H1476 0.950 . S
C1484 C1485 1.386 . S
C1484 C1486 1.391 . S
C1485 C1484 1.386 . S
C1485 C1489 1.393 . S
C1486 H1478 0.950 . S
C1486 C1484 1.391 . S
C1486 C1487 1.400 . S
C1487 C1486 1.400 . S
C1487 C1488 1.398 . S
C1487 C1493 1.491 . S
C1488 H1479 0.950 . S
C1488 C1487 1.398 . S
C1488 C1489 1.391 . S
C1489 H1477 0.950 . S
C1489 C1485 1.393 . S
C1489 C1488 1.391 . S
C1490 H1480 0.950 . S
C1490 C1491 1.386 . S
C1490 C1492 1.391 . S
C1491 C1490 1.386 . S
C1491 C1495 1.393 . S
C1492 H1481 0.950 . S
C1492 C1490 1.391 . S
C1492 C1493 1.400 . S
C1493 C1487 1.491 . S
C1493 C1492 1.400 . S
C1493 C1494 1.398 . S
C1494 H1482 0.950 . S
C1494 C1493 1.398 . S
C1494 C1495 1.391 . S
C1495 H1483 0.950 . S
C1495 C1491 1.393 . S
C1495 C1494 1.391 . S
H1496 C1504 0.950 . S
H1497 C1509 0.950 . S
H1498 C1506 0.950 . S
H1499 C1508 0.950 . S
H1500 C1510 0.950 . S
H1501 C1512 0.950 . S
H1502 C1514 0.950 . S
H1503 C1515 0.950 . S
C1504 H1496 0.950 . S
C1504 C1505 1.386 . S
C1504 C1506 1.391 . S
C1505 C1504 1.386 . S
C1505 C1509 1.393 . S
C1506 H1498 0.950 . S
C1506 C1504 1.391 . S
C1506 C1507 1.400 . S
C1507 C1506 1.400 . S
C1507 C1508 1.398 . S
C1507 C1513 1.491 . S
C1508 H1499 0.950 . S
C1508 C1507 1.398 . S
C1508 C1509 1.391 . S
C1509 H1497 0.950 . S
C1509 C1505 1.393 . S
C1509 C1508 1.391 . S
C1510 H1500 0.950 . S
C1510 C1511 1.386 . S
C1510 C1512 1.391 . S
C1511 C1510 1.386 . S
C1511 C1515 1.393 . S
C1512 H1501 0.950 . S
C1512 C1510 1.391 . S
C1512 C1513 1.400 . S
C1513 C1507 1.491 . S
C1513 C1512 1.400 . S
C1513 C1514 1.398 . S
C1514 H1502 0.950 . S
C1514 C1513 1.398 . S
C1514 C1515 1.391 . S
C1515 H1503 0.950 . S
C1515 C1511 1.393 . S
C1515 C1514 1.391 . S
H1516 C1524 0.950 . S
H1517 C1529 0.950 . S
H1518 C1526 0.950 . S
H1519 C1528 0.950 . S
H1520 C1530 0.950 . S
H1521 C1532 0.950 . S
H1522 C1534 0.950 . S
H1523 C1535 0.950 . S
C1524 H1516 0.950 . S
C1524 C1525 1.386 . S
C1524 C1526 1.391 . S
C1525 C1524 1.386 . S
C1525 C1529 1.393 . S
C1526 H1518 0.950 . S
C1526 C1524 1.391 . S
C1526 C1527 1.400 . S
C1527 C1526 1.400 . S
C1527 C1528 1.398 . S
C1527 C1533 1.491 . S
C1528 H1519 0.950 . S
C1528 C1527 1.398 . S
C1528 C1529 1.391 . S
C1529 H1517 0.950 . S
C1529 C1525 1.393 . S
C1529 C1528 1.391 . S
C1530 H1520 0.950 . S
C1530 C1531 1.386 . S
C1530 C1532 1.391 . S
C1531 C1530 1.386 . S
C1531 C1535 1.393 . S
C1532 H1521 0.950 . S
C1532 C1530 1.391 . S
C1532 C1533 1.400 . S
C1533 C1527 1.491 . S
C1533 C1532 1.400 . S
C1533 C1534 1.398 . S
C1534 H1522 0.950 . S
C1534 C1533 1.398 . S
C1534 C1535 1.391 . S
C1535 H1523 0.950 . S
C1535 C1531 1.393 . S
C1535 C1534 1.391 . S
H1536 C1544 0.950 . S
H1537 C1549 0.950 . S
H1538 C1546 0.950 . S
H1539 C1548 0.950 . S
H1540 C1550 0.950 . S
H1541 C1552 0.950 . S
H1542 C1554 0.950 . S
H1543 C1555 0.950 . S
C1544 H1536 0.950 . S
C1544 C1545 1.386 . S
C1544 C1546 1.391 . S
C1545 C1544 1.386 . S
C1545 C1549 1.393 . S
C1546 H1538 0.950 . S
C1546 C1544 1.391 . S
C1546 C1547 1.400 . S
C1547 C1546 1.400 . S
C1547 C1548 1.398 . S
C1547 C1553 1.491 . S
C1548 H1539 0.950 . S
C1548 C1547 1.398 . S
C1548 C1549 1.391 . S
C1549 H1537 0.950 . S
C1549 C1545 1.393 . S
C1549 C1548 1.391 . S
C1550 H1540 0.950 . S
C1550 C1551 1.386 . S
C1550 C1552 1.391 . S
C1551 C1550 1.386 . S
C1551 C1555 1.393 . S
C1552 H1541 0.950 . S
C1552 C1550 1.391 . S
C1552 C1553 1.400 . S
C1553 C1547 1.491 . S
C1553 C1552 1.400 . S
C1553 C1554 1.398 . S
C1554 H1542 0.950 . S
C1554 C1553 1.398 . S
C1554 C1555 1.391 . S
C1555 H1543 0.950 . S
C1555 C1551 1.393 . S
C1555 C1554 1.391 . S
H1556 C1564 0.950 . S
H1557 C1569 0.950 . S
H1558 C1566 0.950 . S
H1559 C1568 0.950 . S
H1560 C1570 0.950 . S
H1561 C1572 0.950 . S
H1562 C1574 0.950 . S
H1563 C1575 0.950 . S
C1564 H1556 0.950 . S
C1564 C1565 1.386 . S
C1564 C1566 1.391 . S
C1565 C1564 1.386 . S
C1565 C1569 1.393 . S
C1566 H1558 0.950 . S
C1566 C1564 1.391 . S
C1566 C1567 1.400 . S
C1567 C1566 1.400 . S
C1567 C1568 1.398 . S
C1567 C1573 1.491 . S
C1568 H1559 0.950 . S
C1568 C1567 1.398 . S
C1568 C1569 1.391 . S
C1569 H1557 0.950 . S
C1569 C1565 1.393 . S
C1569 C1568 1.391 . S
C1570 H1560 0.950 . S
C1570 C1571 1.386 . S
C1570 C1572 1.391 . S
C1571 C1570 1.386 . S
C1571 C1575 1.393 . S
C1572 H1561 0.950 . S
C1572 C1570 1.391 . S
C1572 C1573 1.400 . S
C1573 C1567 1.491 . S
C1573 C1572 1.400 . S
C1573 C1574 1.398 . S
C1574 H1562 0.950 . S
C1574 C1573 1.398 . S
C1574 C1575 1.391 . S
C1575 H1563 0.950 . S
C1575 C1571 1.393 . S
C1575 C1574 1.391 . S
H1576 C1584 0.950 . S
H1577 C1589 0.950 . S
H1578 C1586 0.950 . S
H1579 C1588 0.950 . S
H1580 C1590 0.950 . S
H1581 C1592 0.950 . S
H1582 C1594 0.950 . S
H1583 C1595 0.950 . S
C1584 H1576 0.950 . S
C1584 C1585 1.386 . S
C1584 C1586 1.391 . S
C1585 C1584 1.386 . S
C1585 C1589 1.393 . S
C1586 H1578 0.950 . S
C1586 C1584 1.391 . S
C1586 C1587 1.400 . S
C1587 C1586 1.400 . S
C1587 C1588 1.398 . S
C1587 C1593 1.491 . S
C1588 H1579 0.950 . S
C1588 C1587 1.398 . S
C1588 C1589 1.391 . S
C1589 H1577 0.950 . S
C1589 C1585 1.393 . S
C1589 C1588 1.391 . S
C1590 H1580 0.950 . S
C1590 C1591 1.386 . S
C1590 C1592 1.391 . S
C1591 C1590 1.386 . S
C1591 C1595 1.393 . S
C1592 H1581 0.950 . S
C1592 C1590 1.391 . S
C1592 C1593 1.400 . S
C1593 C1587 1.491 . S
C1593 C1592 1.400 . S
C1593 C1594 1.398 . S
C1594 H1582 0.950 . S
C1594 C1593 1.398 . S
C1594 C1595 1.391 . S
C1595 H1583 0.950 . S
C1595 C1591 1.393 . S
C1595 C1594 1.391 . S
H1596 C1604 0.950 . S
H1597 C1609 0.950 . S
H1598 C1606 0.950 . S
H1599 C1608 0.950 . S
H1600 C1610 0.950 . S
H1601 C1612 0.950 . S
H1602 C1614 0.950 . S
H1603 C1615 0.950 . S
C1604 H1596 0.950 . S
C1604 C1605 1.386 . S
C1604 C1606 1.391 . S
C1605 C1604 1.386 . S
C1605 C1609 1.393 . S
C1606 H1598 0.950 . S
C1606 C1604 1.391 . S
C1606 C1607 1.400 . S
C1607 C1606 1.400 . S
C1607 C1608 1.398 . S
C1607 C1613 1.491 . S
C1608 H1599 0.950 . S
C1608 C1607 1.398 . S
C1608 C1609 1.391 . S
C1609 H1597 0.950 . S
C1609 C1605 1.393 . S
C1609 C1608 1.391 . S
C1610 H1600 0.950 . S
C1610 C1611 1.386 . S
C1610 C1612 1.391 . S
C1611 C1610 1.386 . S
C1611 C1615 1.393 . S
C1612 H1601 0.950 . S
C1612 C1610 1.391 . S
C1612 C1613 1.400 . S
C1613 C1607 1.491 . S
C1613 C1612 1.400 . S
C1613 C1614 1.398 . S
C1614 H1602 0.950 . S
C1614 C1613 1.398 . S
C1614 C1615 1.391 . S
C1615 H1603 0.950 . S
C1615 C1611 1.393 . S
C1615 C1614 1.391 . S
H1616 C1624 0.950 . S
H1617 C1629 0.950 . S
H1618 C1626 0.950 . S
H1619 C1628 0.950 . S
H1620 C1630 0.950 . S
H1621 C1632 0.950 . S
H1622 C1634 0.950 . S
H1623 C1635 0.950 . S
C1624 H1616 0.950 . S
C1624 C1625 1.386 . S
C1624 C1626 1.391 . S
C1625 C1624 1.386 . S
C1625 C1629 1.393 . S
C1626 H1618 0.950 . S
C1626 C1624 1.391 . S
C1626 C1627 1.400 . S
C1627 C1626 1.400 . S
C1627 C1628 1.398 . S
C1627 C1633 1.491 . S
C1628 H1619 0.950 . S
C1628 C1627 1.398 . S
C1628 C1629 1.391 . S
C1629 H1617 0.950 . S
C1629 C1625 1.393 . S
C1629 C1628 1.391 . S
C1630 H1620 0.950 . S
C1630 C1631 1.386 . S
C1630 C1632 1.391 . S
C1631 C1630 1.386 . S
C1631 C1635 1.393 . S
C1632 H1621 0.950 . S
C1632 C1630 1.391 . S
C1632 C1633 1.400 . S
C1633 C1627 1.491 . S
C1633 C1632 1.400 . S
C1633 C1634 1.398 . S
C1634 H1622 0.950 . S
C1634 C1633 1.398 . S
C1634 C1635 1.391 . S
C1635 H1623 0.950 . S
C1635 C1631 1.393 . S
C1635 C1634 1.391 . S
H1636 C1644 0.950 . S
H1637 C1649 0.950 . S
H1638 C1646 0.950 . S
H1639 C1648 0.950 . S
H1640 C1650 0.950 . S
H1641 C1652 0.950 . S
H1642 C1654 0.950 . S
H1643 C1655 0.950 . S
C1644 H1636 0.950 . S
C1644 C1645 1.386 . S
C1644 C1646 1.391 . S
C1645 C1644 1.386 . S
C1645 C1649 1.393 . S
C1646 H1638 0.950 . S
C1646 C1644 1.391 . S
C1646 C1647 1.400 . S
C1647 C1646 1.400 . S
C1647 C1648 1.398 . S
C1647 C1653 1.491 . S
C1648 H1639 0.950 . S
C1648 C1647 1.398 . S
C1648 C1649 1.391 . S
C1649 H1637 0.950 . S
C1649 C1645 1.393 . S
C1649 C1648 1.391 . S
C1650 H1640 0.950 . S
C1650 C1651 1.386 . S
C1650 C1652 1.391 . S
C1651 C1650 1.386 . S
C1651 C1655 1.393 . S
C1652 H1641 0.950 . S
C1652 C1650 1.391 . S
C1652 C1653 1.400 . S
C1653 C1647 1.491 . S
C1653 C1652 1.400 . S
C1653 C1654 1.398 . S
C1654 H1642 0.950 . S
C1654 C1653 1.398 . S
C1654 C1655 1.391 . S
C1655 H1643 0.950 . S
C1655 C1651 1.393 . S
C1655 C1654 1.391 . S
H1656 C1664 0.950 . S
H1657 C1669 0.950 . S
H1658 C1666 0.950 . S
H1659 C1668 0.950 . S
H1660 C1670 0.950 . S
H1661 C1672 0.950 . S
H1662 C1674 0.950 . S
H1663 C1675 0.950 . S
C1664 H1656 0.950 . S
C1664 C1665 1.386 . S
C1664 C1666 1.391 . S
C1665 C1664 1.386 . S
C1665 C1669 1.393 . S
C1666 H1658 0.950 . S
C1666 C1664 1.391 . S
C1666 C1667 1.400 . S
C1667 C1666 1.400 . S
C1667 C1668 1.398 . S
C1667 C1673 1.491 . S
C1668 H1659 0.950 . S
C1668 C1667 1.398 . S
C1668 C1669 1.391 . S
C1669 H1657 0.950 . S
C1669 C1665 1.393 . S
C1669 C1668 1.391 . S
C1670 H1660 0.950 . S
C1670 C1671 1.386 . S
C1670 C1672 1.391 . S
C1671 C1670 1.386 . S
C1671 C1675 1.393 . S
C1672 H1661 0.950 . S
C1672 C1670 1.391 . S
C1672 C1673 1.400 . S
C1673 C1667 1.491 . S
C1673 C1672 1.400 . S
C1673 C1674 1.398 . S
C1674 H1662 0.950 . S
C1674 C1673 1.398 . S
C1674 C1675 1.391 . S
C1675 H1663 0.950 . S
C1675 C1671 1.393 . S
C1675 C1674 1.391 . S
H1676 C1684 0.950 . S
H1677 C1689 0.950 . S
H1678 C1686 0.950 . S
H1679 C1688 0.950 . S
H1680 C1690 0.950 . S
H1681 C1692 0.950 . S
H1682 C1694 0.950 . S
H1683 C1695 0.950 . S
C1684 H1676 0.950 . S
C1684 C1685 1.386 . S
C1684 C1686 1.391 . S
C1685 C1684 1.386 . S
C1685 C1689 1.393 . S
C1686 H1678 0.950 . S
C1686 C1684 1.391 . S
C1686 C1687 1.400 . S
C1687 C1686 1.400 . S
C1687 C1688 1.398 . S
C1687 C1693 1.491 . S
C1688 H1679 0.950 . S
C1688 C1687 1.398 . S
C1688 C1689 1.391 . S
C1689 H1677 0.950 . S
C1689 C1685 1.393 . S
C1689 C1688 1.391 . S
C1690 H1680 0.950 . S
C1690 C1691 1.386 . S
C1690 C1692 1.391 . S
C1691 C1690 1.386 . S
C1691 C1695 1.393 . S
C1692 H1681 0.950 . S
C1692 C1690 1.391 . S
C1692 C1693 1.400 . S
C1693 C1687 1.491 . S
C1693 C1692 1.400 . S
C1693 C1694 1.398 . S
C1694 H1682 0.950 . S
C1694 C1693 1.398 . S
C1694 C1695 1.391 . S
C1695 H1683 0.950 . S
C1695 C1691 1.393 . S
C1695 C1694 1.391 . S
H1696 C1704 0.950 . S
H1697 C1709 0.950 . S
H1698 C1706 0.950 . S
H1699 C1708 0.950 . S
H1700 C1710 0.950 . S
H1701 C1712 0.950 . S
H1702 C1714 0.950 . S
H1703 C1715 0.950 . S
C1704 H1696 0.950 . S
C1704 C1705 1.386 . S
C1704 C1706 1.391 . S
C1705 C1704 1.386 . S
C1705 C1709 1.393 . S
C1706 H1698 0.950 . S
C1706 C1704 1.391 . S
C1706 C1707 1.400 . S
C1707 C1706 1.400 . S
C1707 C1708 1.398 . S
C1707 C1713 1.491 . S
C1708 H1699 0.950 . S
C1708 C1707 1.398 . S
C1708 C1709 1.391 . S
C1709 H1697 0.950 . S
C1709 C1705 1.393 . S
C1709 C1708 1.391 . S
C1710 H1700 0.950 . S
C1710 C1711 1.386 . S
C1710 C1712 1.391 . S
C1711 C1710 1.386 . S
C1711 C1715 1.393 . S
C1712 H1701 0.950 . S
C1712 C1710 1.391 . S
C1712 C1713 1.400 . S
C1713 C1707 1.491 . S
C1713 C1712 1.400 . S
C1713 C1714 1.398 . S
C1714 H1702 0.950 . S
C1714 C1713 1.398 . S
C1714 C1715 1.391 . S
C1715 H1703 0.950 . S
C1715 C1711 1.393 . S
C1715 C1714 1.391 . S
H1716 C1724 0.950 . S
H1717 C1729 0.950 . S
H1718 C1726 0.950 . S
H1719 C1728 0.950 . S
H1720 C1730 0.950 . S
H1721 C1732 0.950 . S
H1722 C1734 0.950 . S
H1723 C1735 0.950 . S
C1724 H1716 0.950 . S
C1724 C1725 1.386 . S
C1724 C1726 1.391 . S
C1725 C1724 1.386 . S
C1725 C1729 1.393 . S
C1726 H1718 0.950 . S
C1726 C1724 1.391 . S
C1726 C1727 1.400 . S
C1727 C1726 1.400 . S
C1727 C1728 1.398 . S
C1727 C1733 1.491 . S
C1728 H1719 0.950 . S
C1728 C1727 1.398 . S
C1728 C1729 1.391 . S
C1729 H1717 0.950 . S
C1729 C1725 1.393 . S
C1729 C1728 1.391 . S
C1730 H1720 0.950 . S
C1730 C1731 1.386 . S
C1730 C1732 1.391 . S
C1731 C1730 1.386 . S
C1731 C1735 1.393 . S
C1732 H1721 0.950 . S
C1732 C1730 1.391 . S
C1732 C1733 1.400 . S
C1733 C1727 1.491 . S
C1733 C1732 1.400 . S
C1733 C1734 1.398 . S
C1734 H1722 0.950 . S
C1734 C1733 1.398 . S
C1734 C1735 1.391 . S
C1735 H1723 0.950 . S
C1735 C1731 1.393 . S
C1735 C1734 1.391 . S
H1736 C1744 0.950 . S
H1737 C1749 0.950 . S
H1738 C1746 0.950 . S
H1739 C1748 0.950 . S
H1740 C1750 0.950 . S
H1741 C1752 0.950 . S
H1742 C1754 0.950 . S
H1743 C1755 0.950 . S
C1744 H1736 0.950 . S
C1744 C1745 1.386 . S
C1744 C1746 1.391 . S
C1745 C1744 1.386 . S
C1745 C1749 1.393 . S
C1746 H1738 0.950 . S
C1746 C1744 1.391 . S
C1746 C1747 1.400 . S
C1747 C1746 1.400 . S
C1747 C1748 1.398 . S
C1747 C1753 1.491 . S
C1748 H1739 0.950 . S
C1748 C1747 1.398 . S
C1748 C1749 1.391 . S
C1749 H1737 0.950 . S
C1749 C1745 1.393 . S
C1749 C1748 1.391 . S
C1750 H1740 0.950 . S
C1750 C1751 1.386 . S
C1750 C1752 1.391 . S
C1751 C1750 1.386 . S
C1751 C1755 1.393 . S
C1752 H1741 0.950 . S
C1752 C1750 1.391 . S
C1752 C1753 1.400 . S
C1753 C1747 1.491 . S
C1753 C1752 1.400 . S
C1753 C1754 1.398 . S
C1754 H1742 0.950 . S
C1754 C1753 1.398 . S
C1754 C1755 1.391 . S
C1755 H1743 0.950 . S
C1755 C1751 1.393 . S
C1755 C1754 1.391 . S
H1756 C1764 0.950 . S
H1757 C1769 0.950 . S
H1758 C1766 0.950 . S
H1759 C1768 0.950 . S
H1760 C1770 0.950 . S
H1761 C1772 0.950 . S
H1762 C1774 0.950 . S
H1763 C1775 0.950 . S
C1764 H1756 0.950 . S
C1764 C1765 1.386 . S
C1764 C1766 1.391 . S
C1765 C1764 1.386 . S
C1765 C1769 1.393 . S
C1766 H1758 0.950 . S
C1766 C1764 1.391 . S
C1766 C1767 1.400 . S
C1767 C1766 1.400 . S
C1767 C1768 1.398 . S
C1767 C1773 1.491 . S
C1768 H1759 0.950 . S
C1768 C1767 1.398 . S
C1768 C1769 1.391 . S
C1769 H1757 0.950 . S
C1769 C1765 1.393 . S
C1769 C1768 1.391 . S
C1770 H1760 0.950 . S
C1770 C1771 1.386 . S
C1770 C1772 1.391 . S
C1771 C1770 1.386 . S
C1771 C1775 1.393 . S
C1772 H1761 0.950 . S
C1772 C1770 1.391 . S
C1772 C1773 1.400 . S
C1773 C1767 1.491 . S
C1773 C1772 1.400 . S
C1773 C1774 1.398 . S
C1774 H1762 0.950 . S
C1774 C1773 1.398 . S
C1774 C1775 1.391 . S
C1775 H1763 0.950 . S
C1775 C1771 1.393 . S
C1775 C1774 1.391 . S
H1776 C1784 0.950 . S
H1777 C1789 0.950 . S
H1778 C1786 0.950 . S
H1779 C1788 0.950 . S
H1780 C1790 0.950 . S
H1781 C1792 0.950 . S
H1782 C1794 0.950 . S
H1783 C1795 0.950 . S
C1784 H1776 0.950 . S
C1784 C1785 1.386 . S
C1784 C1786 1.391 . S
C1785 C1784 1.386 . S
C1785 C1789 1.393 . S
C1786 H1778 0.950 . S
C1786 C1784 1.391 . S
C1786 C1787 1.400 . S
C1787 C1786 1.400 . S
C1787 C1788 1.398 . S
C1787 C1793 1.491 . S
C1788 H1779 0.950 . S
C1788 C1787 1.398 . S
C1788 C1789 1.391 . S
C1789 H1777 0.950 . S
C1789 C1785 1.393 . S
C1789 C1788 1.391 . S
C1790 H1780 0.950 . S
C1790 C1791 1.386 . S
C1790 C1792 1.391 . S
C1791 C1790 1.386 . S
C1791 C1795 1.393 . S
C1792 H1781 0.950 . S
C1792 C1790 1.391 . S
C1792 C1793 1.400 . S
C1793 C1787 1.491 . S
C1793 C1792 1.400 . S
C1793 C1794 1.398 . S
C1794 H1782 0.950 . S
C1794 C1793 1.398 . S
C1794 C1795 1.391 . S
C1795 H1783 0.950 . S
C1795 C1791 1.393 . S
C1795 C1794 1.391 . S
H1796 C1804 0.950 . S
H1797 C1809 0.950 . S
H1798 C1806 0.950 . S
H1799 C1808 0.950 . S
H1800 C1810 0.950 . S
H1801 C1812 0.950 . S
H1802 C1814 0.950 . S
H1803 C1815 0.950 . S
C1804 H1796 0.950 . S
C1804 C1805 1.386 . S
C1804 C1806 1.391 . S
C1805 C1804 1.386 . S
C1805 C1809 1.393 . S
C1806 H1798 0.950 . S
C1806 C1804 1.391 . S
C1806 C1807 1.400 . S
C1807 C1806 1.400 . S
C1807 C1808 1.398 . S
C1807 C1813 1.491 . S
C1808 H1799 0.950 . S
C1808 C1807 1.398 . S
C1808 C1809 1.391 . S
C1809 H1797 0.950 . S
C1809 C1805 1.393 . S
C1809 C1808 1.391 . S
C1810 H1800 0.950 . S
C1810 C1811 1.386 . S
C1810 C1812 1.391 . S
C1811 C1810 1.386 . S
C1811 C1815 1.393 . S
C1812 H1801 0.950 . S
C1812 C1810 1.391 . S
C1812 C1813 1.400 . S
C1813 C1807 1.491 . S
C1813 C1812 1.400 . S
C1813 C1814 1.398 . S
C1814 H1802 0.950 . S
C1814 C1813 1.398 . S
C1814 C1815 1.391 . S
C1815 H1803 0.950 . S
C1815 C1811 1.393 . S
C1815 C1814 1.391 . S
H1816 C1824 0.950 . S
H1817 C1829 0.950 . S
H1818 C1826 0.950 . S
H1819 C1828 0.950 . S
H1820 C1830 0.950 . S
H1821 C1832 0.950 . S
H1822 C1834 0.950 . S
H1823 C1835 0.950 . S
C1824 H1816 0.950 . S
C1824 C1825 1.386 . S
C1824 C1826 1.391 . S
C1825 C1824 1.386 . S
C1825 C1829 1.393 . S
C1826 H1818 0.950 . S
C1826 C1824 1.391 . S
C1826 C1827 1.400 . S
C1827 C1826 1.400 . S
C1827 C1828 1.398 . S
C1827 C1833 1.491 . S
C1828 H1819 0.950 . S
C1828 C1827 1.398 . S
C1828 C1829 1.391 . S
C1829 H1817 0.950 . S
C1829 C1825 1.393 . S
C1829 C1828 1.391 . S
C1830 H1820 0.950 . S
C1830 C1831 1.386 . S
C1830 C1832 1.391 . S
C1831 C1830 1.386 . S
C1831 C1835 1.393 . S
C1832 H1821 0.950 . S
C1832 C1830 1.391 . S
C1832 C1833 1.400 . S
C1833 C1827 1.491 . S
C1833 C1832 1.400 . S
C1833 C1834 1.398 . S
C1834 H1822 0.950 . S
C1834 C1833 1.398 . S
C1834 C1835 1.391 . S
C1835 H1823 0.950 . S
C1835 C1831 1.393 . S
C1835 C1834 1.391 . S
H1836 C1844 0.950 . S
H1837 C1849 0.950 . S
H1838 C1846 0.950 . S
H1839 C1848 0.950 . S
H1840 C1850 0.950 . S
H1841 C1852 0.950 . S
H1842 C1854 0.950 . S
H1843 C1855 0.950 . S
C1844 H1836 0.950 . S
C1844 C1845 1.386 . S
C1844 C1846 1.391 . S
C1845 C1844 1.386 . S
C1845 C1849 1.393 . S
C1846 H1838 0.950 . S
C1846 C1844 1.391 . S
C1846 C1847 1.400 . S
C1847 C1846 1.400 . S
C1847 C1848 1.398 . S
C1847 C1853 1.491 . S
C1848 H1839 0.950 . S
C1848 C1847 1.398 . S
C1848 C1849 1.391 . S
C1849 H1837 0.950 . S
C1849 C1845 1.393 . S
C1849 C1848 1.391 . S
C1850 H1840 0.950 . S
C1850 C1851 1.386 . S
C1850 C1852 1.391 . S
C1851 C1850 1.386 . S
C1851 C1855 1.393 . S
C1852 H1841 0.950 . S
C1852 C1850 1.391 . S
C1852 C1853 1.400 . S
C1853 C1847 1.491 . S
C1853 C1852 1.400 . S
C1853 C1854 1.398 . S
C1854 H1842 0.950 . S
C1854 C1853 1.398 . S
C1854 C1855 1.391 . S
C1855 H1843 0.950 . S
C1855 C1851 1.393 . S
C1855 C1854 1.391 . S
H1856 C1864 0.950 . S
H1857 C1869 0.950 . S
H1858 C1866 0.950 . S
H1859 C1868 0.950 . S
H1860 C1870 0.950 . S
H1861 C1872 0.950 . S
H1862 C1874 0.950 . S
H1863 C1875 0.950 . S
C1864 H1856 0.950 . S
C1864 C1865 1.386 . S
C1864 C1866 1.391 . S
C1865 C1864 1.386 . S
C1865 C1869 1.393 . S
C1866 H1858 0.950 . S
C1866 C1864 1.391 . S
C1866 C1867 1.400 . S
C1867 C1866 1.400 . S
C1867 C1868 1.398 . S
C1867 C1873 1.491 . S
C1868 H1859 0.950 . S
C1868 C1867 1.398 . S
C1868 C1869 1.391 . S
C1869 H1857 0.950 . S
C1869 C1865 1.393 . S
C1869 C1868 1.391 . S
C1870 H1860 0.950 . S
C1870 C1871 1.386 . S
C1870 C1872 1.391 . S
C1871 C1870 1.386 . S
C1871 C1875 1.393 . S
C1872 H1861 0.950 . S
C1872 C1870 1.391 . S
C1872 C1873 1.400 . S
C1873 C1867 1.491 . S
C1873 C1872 1.400 . S
C1873 C1874 1.398 . S
C1874 H1862 0.950 . S
C1874 C1873 1.398 . S
C1874 C1875 1.391 . S
C1875 H1863 0.950 . S
C1875 C1871 1.393 . S
C1875 C1874 1.391 . S
H1876 C1884 0.950 . S
H1877 C1889 0.950 . S
H1878 C1886 0.950 . S
H1879 C1888 0.950 . S
H1880 C1890 0.950 . S
H1881 C1892 0.950 . S
H1882 C1894 0.950 . S
H1883 C1895 0.950 . S
C1884 H1876 0.950 . S
C1884 C1885 1.386 . S
C1884 C1886 1.391 . S
C1885 C1884 1.386 . S
C1885 C1889 1.393 . S
C1886 H1878 0.950 . S
C1886 C1884 1.391 . S
C1886 C1887 1.400 . S
C1887 C1886 1.400 . S
C1887 C1888 1.398 . S
C1887 C1893 1.491 . S
C1888 H1879 0.950 . S
C1888 C1887 1.398 . S
C1888 C1889 1.391 . S
C1889 H1877 0.950 . S
C1889 C1885 1.393 . S
C1889 C1888 1.391 . S
C1890 H1880 0.950 . S
C1890 C1891 1.386 . S
C1890 C1892 1.391 . S
C1891 C1890 1.386 . S
C1891 C1895 1.393 . S
C1892 H1881 0.950 . S
C1892 C1890 1.391 . S
C1892 C1893 1.400 . S
C1893 C1887 1.491 . S
C1893 C1892 1.400 . S
C1893 C1894 1.398 . S
C1894 H1882 0.950 . S
C1894 C1893 1.398 . S
C1894 C1895 1.391 . S
C1895 H1883 0.950 . S
C1895 C1891 1.393 . S
C1895 C1894 1.391 . S
H1896 C1904 0.950 . S
H1897 C1909 0.950 . S
H1898 C1906 0.950 . S
H1899 C1908 0.950 . S
H1900 C1910 0.950 . S
H1901 C1912 0.950 . S
H1902 C1914 0.950 . S
H1903 C1915 0.950 . S
C1904 H1896 0.950 . S
C1904 C1905 1.386 . S
C1904 C1906 1.391 . S
C1905 C1904 1.386 . S
C1905 C1909 1.393 . S
C1906 H1898 0.950 . S
C1906 C1904 1.391 . S
C1906 C1907 1.400 . S
C1907 C1906 1.400 . S
C1907 C1908 1.398 . S
C1907 C1913 1.491 . S
C1908 H1899 0.950 . S
C1908 C1907 1.398 . S
C1908 C1909 1.391 . S
C1909 H1897 0.950 . S
C1909 C1905 1.393 . S
C1909 C1908 1.391 . S
C1910 H1900 0.950 . S
C1910 C1911 1.386 . S
C1910 C1912 1.391 . S
C1911 C1910 1.386 . S
C1911 C1915 1.393 . S
C1912 H1901 0.950 . S
C1912 C1910 1.391 . S
C1912 C1913 1.400 . S
C1913 C1907 1.491 . S
C1913 C1912 1.400 . S
C1913 C1914 1.398 . S
C1914 H1902 0.950 . S
C1914 C1913 1.398 . S
C1914 C1915 1.391 . S
C1915 H1903 0.950 . S
C1915 C1911 1.393 . S
C1915 C1914 1.391 . S
H1916 C1924 0.950 . S
H1917 C1929 0.950 . S
H1918 C1926 0.950 . S
H1919 C1928 0.950 . S
H1920 C1930 0.950 . S
H1921 C1932 0.950 . S
H1922 C1934 0.950 . S
H1923 C1935 0.950 . S
C1924 H1916 0.950 . S
C1924 C1925 1.386 . S
C1924 C1926 1.391 . S
C1925 C1924 1.386 . S
C1925 C1929 1.393 . S
C1926 H1918 0.950 . S
C1926 C1924 1.391 . S
C1926 C1927 1.400 . S
C1927 C1926 1.400 . S
C1927 C1928 1.398 . S
C1927 C1933 1.491 . S
C1928 H1919 0.950 . S
C1928 C1927 1.398 . S
C1928 C1929 1.391 . S
C1929 H1917 0.950 . S
C1929 C1925 1.393 . S
C1929 C1928 1.391 . S
C1930 H1920 0.950 . S
C1930 C1931 1.386 . S
C1930 C1932 1.391 . S
C1931 C1930 1.386 . S
C1931 C1935 1.393 . S
C1932 H1921 0.950 . S
C1932 C1930 1.391 . S
C1932 C1933 1.400 . S
C1933 C1927 1.491 . S
C1933 C1932 1.400 . S
C1933 C1934 1.398 . S
C1934 H1922 0.950 . S
C1934 C1933 1.398 . S
C1934 C1935 1.391 . S
C1935 H1923 0.950 . S
C1935 C1931 1.393 . S
C1935 C1934 1.391 . S
H1936 C1944 0.950 . S
H1937 C1949 0.950 . S
H1938 C1946 0.950 . S
H1939 C1948 0.950 . S
H1940 C1950 0.950 . S
H1941 C1952 0.950 . S
H1942 C1954 0.950 . S
H1943 C1955 0.950 . S
C1944 H1936 0.950 . S
C1944 C1945 1.386 . S
C1944 C1946 1.391 . S
C1945 C1944 1.386 . S
C1945 C1949 1.393 . S
C1946 H1938 0.950 . S
C1946 C1944 1.391 . S
C1946 C1947 1.400 . S
C1947 C1946 1.400 . S
C1947 C1948 1.398 . S
C1947 C1953 1.491 . S
C1948 H1939 0.950 . S
C1948 C1947 1.398 . S
C1948 C1949 1.391 . S
C1949 H1937 0.950 . S
C1949 C1945 1.393 . S
C1949 C1948 1.391 . S
C1950 H1940 0.950 . S
C1950 C1951 1.386 . S
C1950 C1952 1.391 . S
C1951 C1950 1.386 . S
C1951 C1955 1.393 . S
C1952 H1941 0.950 . S
C1952 C1950 1.391 . S
C1952 C1953 1.400 . S
C1953 C1947 1.491 . S
C1953 C1952 1.400 . S
C1953 C1954 1.398 . S
C1954 H1942 0.950 . S
C1954 C1953 1.398 . S
C1954 C1955 1.391 . S
C1955 H1943 0.950 . S
C1955 C1951 1.393 . S
C1955 C1954 1.391 . S
H1956 C1964 0.950 . S
H1957 C1969 0.950 . S
H1958 C1966 0.950 . S
H1959 C1968 0.950 . S
H1960 C1970 0.950 . S
H1961 C1972 0.950 . S
H1962 C1974 0.950 . S
H1963 C1975 0.950 . S
C1964 H1956 0.950 . S
C1964 C1965 1.386 . S
C1964 C1966 1.391 . S
C1965 C1964 1.386 . S
C1965 C1969 1.393 . S
C1966 H1958 0.950 . S
C1966 C1964 1.391 . S
C1966 C1967 1.400 . S
C1967 C1966 1.400 . S
C1967 C1968 1.398 . S
C1967 C1973 1.491 . S
C1968 H1959 0.950 . S
C1968 C1967 1.398 . S
C1968 C1969 1.391 . S
C1969 H1957 0.950 . S
C1969 C1965 1.393 . S
C1969 C1968 1.391 . S
C1970 H1960 0.950 . S
C1970 C1971 1.386 . S
C1970 C1972 1.391 . S
C1971 C1970 1.386 . S
C1971 C1975 1.393 . S
C1972 H1961 0.950 . S
C1972 C1970 1.391 . S
C1972 C1973 1.400 . S
C1973 C1967 1.491 . S
C1973 C1972 1.400 . S
C1973 C1974 1.398 . S
C1974 H1962 0.950 . S
C1974 C1973 1.398 . S
C1974 C1975 1.391 . S
C1975 H1963 0.950 . S
C1975 C1971 1.393 . S
C1975 C1974 1.391 . S
H1976 C1984 0.950 . S
H1977 C1989 0.950 . S
H1978 C1986 0.950 . S
H1979 C1988 0.950 . S
H1980 C1990 0.950 . S
H1981 C1992 0.950 . S
H1982 C1994 0.950 . S
H1983 C1995 0.950 . S
C1984 H1976 0.950 . S
C1984 C1985 1.386 . S
C1984 C1986 1.391 . S
C1985 C1984 1.386 . S
C1985 C1989 1.393 . S
C1986 H1978 0.950 . S
C1986 C1984 1.391 . S
C1986 C1987 1.400 . S
C1987 C1986 1.400 . S
C1987 C1988 1.398 . S
C1987 C1993 1.491 . S
C1988 H1979 0.950 . S
C1988 C1987 1.398 . S
C1988 C1989 1.391 . S
C1989 H1977 0.950 . S
C1989 C1985 1.393 . S
C1989 C1988 1.391 . S
C1990 H1980 0.950 . S
C1990 C1991 1.386 . S
C1990 C1992 1.391 . S
C1991 C1990 1.386 . S
C1991 C1995 1.393 . S
C1992 H1981 0.950 . S
C1992 C1990 1.391 . S
C1992 C1993 1.400 . S
C1993 C1987 1.491 . S
C1993 C1992 1.400 . S
C1993 C1994 1.398 . S
C1994 H1982 0.950 . S
C1994 C1993 1.398 . S
C1994 C1995 1.391 . S
C1995 H1983 0.950 . S
C1995 C1991 1.393 . S
C1995 C1994 1.391 . S
H1996 C2004 0.950 . S
H1997 C2009 0.950 . S
H1998 C2006 0.950 . S
H1999 C2008 0.950 . S
H2000 C2010 0.950 . S
H2001 C2012 0.950 . S
H2002 C2014 0.950 . S
H2003 C2015 0.950 . S
C2004 H1996 0.950 . S
C2004 C2005 1.386 . S
C2004 C2006 1.391 . S
C2005 C2004 1.386 . S
C2005 C2009 1.393 . S
C2006 H1998 0.950 . S
C2006 C2004 1.391 . S
C2006 C2007 1.400 . S
C2007 C2006 1.400 . S
C2007 C2008 1.398 . S
C2007 C2013 1.491 . S
C2008 H1999 0.950 . S
C2008 C2007 1.398 . S
C2008 C2009 1.391 . S
C2009 H1997 0.950 . S
C2009 C2005 1.393 . S
C2009 C2008 1.391 . S
C2010 H2000 0.950 . S
C2010 C2011 1.386 . S
C2010 C2012 1.391 . S
C2011 C2010 1.386 . S
C2011 C2015 1.393 . S
C2012 H2001 0.950 . S
C2012 C2010 1.391 . S
C2012 C2013 1.400 . S
C2013 C2007 1.491 . S
C2013 C2012 1.400 . S
C2013 C2014 1.398 . S
C2014 H2002 0.950 . S
C2014 C2013 1.398 . S
C2014 C2015 1.391 . S
C2015 H2003 0.950 . S
C2015 C2011 1.393 . S
C2015 C2014 1.391 . S
H2016 C2024 0.950 . S
H2017 C2029 0.950 . S
H2018 C2026 0.950 1_455 S
H2019 C2028 0.950 . S
H2020 C2030 0.950 . S
H2021 C2032 0.950 1_655 S
H2022 C2034 0.950 . S
H2023 C2035 0.950 . S
C2024 H2016 0.950 . S
C2024 C2025 1.386 . S
C2024 C2026 1.391 . S
C2025 C2024 1.386 . S
C2025 C2029 1.393 . S
C2026 H2018 0.950 1_655 S
C2026 C2024 1.391 . S
C2026 C2027 1.400 . S
C2027 C2026 1.400 . S
C2027 C2028 1.398 . S
C2027 C2033 1.491 1_655 S
C2028 H2019 0.950 . S
C2028 C2027 1.398 . S
C2028 C2029 1.391 . S
C2029 H2017 0.950 . S
C2029 C2025 1.393 . S
C2029 C2028 1.391 . S
C2030 H2020 0.950 . S
C2030 C2031 1.386 . S
C2030 C2032 1.391 . S
C2031 C2030 1.386 . S
C2031 C2035 1.393 . S
C2032 H2021 0.950 1_455 S
C2032 C2030 1.391 . S
C2032 C2033 1.400 . S
C2033 C2027 1.491 1_455 S
C2033 C2032 1.400 . S
C2033 C2034 1.398 . S
C2034 H2022 0.950 . S
C2034 C2033 1.398 . S
C2034 C2035 1.391 . S
C2035 H2023 0.950 . S
C2035 C2031 1.393 . S
C2035 C2034 1.391 . S
H2036 C2044 0.950 . S
H2037 C2049 0.950 . S
H2038 C2046 0.950 . S
H2039 C2048 0.950 1_545 S
H2040 C2050 0.950 . S
H2041 C2052 0.950 . S
H2042 C2054 0.950 1_565 S
H2043 C2055 0.950 . S
C2044 H2036 0.950 . S
C2044 C2045 1.386 . S
C2044 C2046 1.391 . S
C2045 C2044 1.386 . S
C2045 C2049 1.393 . S
C2046 H2038 0.950 . S
C2046 C2044 1.391 . S
C2046 C2047 1.400 . S
C2047 C2046 1.400 . S
C2047 C2048 1.398 . S
C2047 C2053 1.491 1_565 S
C2048 H2039 0.950 1_565 S
C2048 C2047 1.398 . S
C2048 C2049 1.391 . S
C2049 H2037 0.950 . S
C2049 C2045 1.393 . S
C2049 C2048 1.391 . S
C2050 H2040 0.950 . S
C2050 C2051 1.386 . S
C2050 C2052 1.391 . S
C2051 C2050 1.386 . S
C2051 C2055 1.393 . S
C2052 H2041 0.950 . S
C2052 C2050 1.391 . S
C2052 C2053 1.400 . S
C2053 C2047 1.491 1_545 S
C2053 C2052 1.400 . S
C2053 C2054 1.398 . S
C2054 H2042 0.950 1_545 S
C2054 C2053 1.398 . S
C2054 C2055 1.391 . S
C2055 H2043 0.950 . S
C2055 C2051 1.393 . S
C2055 C2054 1.391 . S
H2056 C2064 0.950 . S
H2057 C2069 0.950 1_655 S
H2058 C2066 0.950 1_554 S
H2059 C2068 0.950 . S
H2060 C2070 0.950 . S
H2061 C2072 0.950 1_556 S
H2062 C2074 0.950 . S
H2063 C2075 0.950 1_455 S
C2064 H2056 0.950 . S
C2064 C2065 1.386 . S
C2064 C2066 1.391 . S
C2065 C2064 1.386 . S
C2065 C2069 1.393 . S
C2066 H2058 0.950 1_556 S
C2066 C2064 1.391 . S
C2066 C2067 1.400 . S
C2067 C2066 1.400 . S
C2067 C2068 1.398 1_455 S
C2067 C2073 1.491 1_446 S
C2068 H2059 0.950 . S
C2068 C2067 1.398 1_655 S
C2068 C2069 1.391 1_655 S
C2069 H2057 0.950 1_455 S
C2069 C2065 1.393 . S
C2069 C2068 1.391 1_455 S
C2070 H2060 0.950 . S
C2070 C2071 1.386 . S
C2070 C2072 1.391 . S
C2071 C2070 1.386 . S
C2071 C2075 1.393 . S
C2072 H2061 0.950 1_554 S
C2072 C2070 1.391 . S
C2072 C2073 1.400 . S
C2073 C2067 1.491 1_664 S
C2073 C2072 1.400 . S
C2073 C2074 1.398 1_655 S
C2074 H2062 0.950 . S
C2074 C2073 1.398 1_455 S
C2074 C2075 1.391 1_455 S
C2075 H2063 0.950 1_655 S
C2075 C2071 1.393 . S
C2075 C2074 1.391 1_655 S
H2076 C2084 0.950 . S
H2077 C2089 0.950 1_556 S
H2078 C2086 0.950 . S
H2079 C2088 0.950 . S
H2080 C2090 0.950 . S
H2081 C2092 0.950 . S
H2082 C2094 0.950 . S
H2083 C2095 0.950 1_554 S
C2084 H2076 0.950 . S
C2084 C2085 1.386 . S
C2084 C2086 1.391 . S
C2085 C2084 1.386 . S
C2085 C2089 1.393 . S
C2086 H2078 0.950 . S
C2086 C2084 1.391 . S
C2086 C2087 1.400 . S
C2087 C2086 1.400 . S
C2087 C2088 1.398 1_554 S
C2087 C2093 1.491 1_554 S
C2088 H2079 0.950 . S
C2088 C2087 1.398 1_556 S
C2088 C2089 1.391 1_556 S
C2089 H2077 0.950 1_554 S
C2089 C2085 1.393 . S
C2089 C2088 1.391 1_554 S
C2090 H2080 0.950 . S
C2090 C2091 1.386 . S
C2090 C2092 1.391 . S
C2091 C2090 1.386 . S
C2091 C2095 1.393 . S
C2092 H2081 0.950 . S
C2092 C2090 1.391 . S
C2092 C2093 1.400 . S
C2093 C2087 1.491 1_556 S
C2093 C2092 1.400 . S
C2093 C2094 1.398 1_556 S
C2094 H2082 0.950 . S
C2094 C2093 1.398 1_554 S
C2094 C2095 1.391 1_554 S
C2095 H2083 0.950 1_556 S
C2095 C2091 1.393 . S
C2095 C2094 1.391 1_556 S
H2096 C2104 0.950 1_655 S
H2097 C2109 0.950 . S
H2098 C2106 0.950 . S
H2099 C2108 0.950 . S
H2100 C2110 0.950 1_455 S
H2101 C2112 0.950 . S
H2102 C2114 0.950 . S
H2103 C2115 0.950 . S
C2104 H2096 0.950 1_455 S
C2104 C2105 1.386 . S
C2104 C2106 1.391 1_455 S
C2105 C2104 1.386 . S
C2105 C2109 1.393 . S
C2106 H2098 0.950 . S
C2106 C2104 1.391 1_655 S
C2106 C2107 1.400 1_655 S
C2107 C2106 1.400 1_455 S
C2107 C2108 1.398 . S
C2107 C2113 1.491 1_455 S
C2108 H2099 0.950 . S
C2108 C2107 1.398 . S
C2108 C2109 1.391 . S
C2109 H2097 0.950 . S
C2109 C2105 1.393 . S
C2109 C2108 1.391 . S
C2110 H2100 0.950 1_655 S
C2110 C2111 1.386 . S
C2110 C2112 1.391 1_655 S
C2111 C2110 1.386 . S
C2111 C2115 1.393 . S
C2112 H2101 0.950 . S
C2112 C2110 1.391 1_455 S
C2112 C2113 1.400 1_455 S
C2113 C2107 1.491 1_655 S
C2113 C2112 1.400 1_655 S
C2113 C2114 1.398 . S
C2114 H2102 0.950 . S
C2114 C2113 1.398 . S
C2114 C2115 1.391 . S
C2115 H2103 0.950 . S
C2115 C2111 1.393 . S
C2115 C2114 1.391 . S
H2116 C2124 0.950 . S
H2117 C2129 0.950 . S
H2118 C2126 0.950 . S
H2119 C2128 0.950 1_565 S
H2120 C2130 0.950 . S
H2121 C2132 0.950 . S
H2122 C2134 0.950 1_545 S
H2123 C2135 0.950 . S
C2124 H2116 0.950 . S
C2124 C2125 1.386 . S
C2124 C2126 1.391 . S
C2125 C2124 1.386 . S
C2125 C2129 1.393 . S
C2126 H2118 0.950 . S
C2126 C2124 1.391 . S
C2126 C2127 1.400 . S
C2127 C2126 1.400 . S
C2127 C2128 1.398 . S
C2127 C2133 1.491 1_545 S
C2128 H2119 0.950 1_545 S
C2128 C2127 1.398 . S
C2128 C2129 1.391 . S
C2129 H2117 0.950 . S
C2129 C2125 1.393 . S
C2129 C2128 1.391 . S
C2130 H2120 0.950 . S
C2130 C2131 1.386 . S
C2130 C2132 1.391 . S
C2131 C2130 1.386 . S
C2131 C2135 1.393 . S
C2132 H2121 0.950 . S
C2132 C2130 1.391 . S
C2132 C2133 1.400 . S
C2133 C2127 1.491 1_565 S
C2133 C2132 1.400 . S
C2133 C2134 1.398 . S
C2134 H2122 0.950 1_565 S
C2134 C2133 1.398 . S
C2134 C2135 1.391 . S
C2135 H2123 0.950 . S
C2135 C2131 1.393 . S
C2135 C2134 1.391 . S
H2136 C2144 0.950 . S
H2137 C2149 0.950 . S
H2138 C2146 0.950 1_554 S
H2139 C2148 0.950 . S
H2140 C2150 0.950 . S
H2141 C2152 0.950 1_556 S
H2142 C2154 0.950 . S
H2143 C2155 0.950 . S
C2144 H2136 0.950 . S
C2144 C2145 1.386 . S
C2144 C2146 1.391 . S
C2145 C2144 1.386 . S
C2145 C2149 1.393 . S
C2146 H2138 0.950 1_556 S
C2146 C2144 1.391 . S
C2146 C2147 1.400 . S
C2147 C2146 1.400 . S
C2147 C2148 1.398 . S
C2147 C2153 1.491 1_556 S
C2148 H2139 0.950 . S
C2148 C2147 1.398 . S
C2148 C2149 1.391 . S
C2149 H2137 0.950 . S
C2149 C2145 1.393 . S
C2149 C2148 1.391 . S
C2150 H2140 0.950 . S
C2150 C2151 1.386 . S
C2150 C2152 1.391 . S
C2151 C2150 1.386 . S
C2151 C2155 1.393 . S
C2152 H2141 0.950 1_554 S
C2152 C2150 1.391 . S
C2152 C2153 1.400 . S
C2153 C2147 1.491 1_554 S
C2153 C2152 1.400 . S
C2153 C2154 1.398 . S
C2154 H2142 0.950 . S
C2154 C2153 1.398 . S
C2154 C2155 1.391 . S
C2155 H2143 0.950 . S
C2155 C2151 1.393 . S
C2155 C2154 1.391 . S
H2156 C2164 0.950 . S
H2157 C2169 0.950 . S
H2158 C2166 0.950 . S
H2159 C2168 0.950 . S
H2160 C2170 0.950 . S
H2161 C2172 0.950 . S
H2162 C2174 0.950 . S
H2163 C2175 0.950 . S
C2164 H2156 0.950 . S
C2164 C2165 1.386 . S
C2164 C2166 1.391 . S
C2165 C2164 1.386 . S
C2165 C2169 1.393 . S
C2166 H2158 0.950 . S
C2166 C2164 1.391 . S
C2166 C2167 1.400 . S
C2167 C2166 1.400 . S
C2167 C2168 1.398 . S
C2167 C2173 1.491 . S
C2168 H2159 0.950 . S
C2168 C2167 1.398 . S
C2168 C2169 1.391 . S
C2169 H2157 0.950 . S
C2169 C2165 1.393 . S
C2169 C2168 1.391 . S
C2170 H2160 0.950 . S
C2170 C2171 1.386 . S
C2170 C2172 1.391 . S
C2171 C2170 1.386 . S
C2171 C2175 1.393 . S
C2172 H2161 0.950 . S
C2172 C2170 1.391 . S
C2172 C2173 1.400 . S
C2173 C2167 1.491 . S
C2173 C2172 1.400 . S
C2173 C2174 1.398 . S
C2174 H2162 0.950 . S
C2174 C2173 1.398 . S
C2174 C2175 1.391 . S
C2175 H2163 0.950 . S
C2175 C2171 1.393 . S
C2175 C2174 1.391 . S
H2176 C2184 0.950 1_455 S
H2177 C2189 0.950 . S
H2178 C2186 0.950 . S
H2179 C2188 0.950 . S
H2180 C2190 0.950 1_655 S
H2181 C2192 0.950 . S
H2182 C2194 0.950 . S
H2183 C2195 0.950 . S
C2184 H2176 0.950 1_655 S
C2184 C2185 1.386 . S
C2184 C2186 1.391 1_655 S
C2185 C2184 1.386 . S
C2185 C2189 1.393 . S
C2186 H2178 0.950 . S
C2186 C2184 1.391 1_455 S
C2186 C2187 1.400 1_455 S
C2187 C2186 1.400 1_655 S
C2187 C2188 1.398 . S
C2187 C2193 1.491 1_655 S
C2188 H2179 0.950 . S
C2188 C2187 1.398 . S
C2188 C2189 1.391 . S
C2189 H2177 0.950 . S
C2189 C2185 1.393 . S
C2189 C2188 1.391 . S
C2190 H2180 0.950 1_455 S
C2190 C2191 1.386 . S
C2190 C2192 1.391 1_455 S
C2191 C2190 1.386 . S
C2191 C2195 1.393 . S
C2192 H2181 0.950 . S
C2192 C2190 1.391 1_655 S
C2192 C2193 1.400 1_655 S
C2193 C2187 1.491 1_455 S
C2193 C2192 1.400 1_455 S
C2193 C2194 1.398 . S
C2194 H2182 0.950 . S
C2194 C2193 1.398 . S
C2194 C2195 1.391 . S
C2195 H2183 0.950 . S
C2195 C2191 1.393 . S
C2195 C2194 1.391 . S
H2196 C2204 0.950 . S
H2197 C2209 0.950 . S
H2198 C2206 0.950 . S
H2199 C2208 0.950 . S
H2200 C2210 0.950 . S
H2201 C2212 0.950 . S
H2202 C2214 0.950 . S
H2203 C2215 0.950 . S
C2204 H2196 0.950 . S
C2204 C2205 1.386 . S
C2204 C2206 1.391 . S
C2205 C2204 1.386 . S
C2205 C2209 1.393 . S
C2206 H2198 0.950 . S
C2206 C2204 1.391 . S
C2206 C2207 1.400 . S
C2207 C2206 1.400 . S
C2207 C2208 1.398 . S
C2207 C2213 1.491 . S
C2208 H2199 0.950 . S
C2208 C2207 1.398 . S
C2208 C2209 1.391 . S
C2209 H2197 0.950 . S
C2209 C2205 1.393 . S
C2209 C2208 1.391 . S
C2210 H2200 0.950 . S
C2210 C2211 1.386 . S
C2210 C2212 1.391 . S
C2211 C2210 1.386 . S
C2211 C2215 1.393 . S
C2212 H2201 0.950 . S
C2212 C2210 1.391 . S
C2212 C2213 1.400 . S
C2213 C2207 1.491 . S
C2213 C2212 1.400 . S
C2213 C2214 1.398 . S
C2214 H2202 0.950 . S
C2214 C2213 1.398 . S
C2214 C2215 1.391 . S
C2215 H2203 0.950 . S
C2215 C2211 1.393 . S
C2215 C2214 1.391 . S
H2216 C2224 0.950 . S
H2217 C2229 0.950 . S
H2218 C2226 0.950 . S
H2219 C2228 0.950 . S
H2220 C2230 0.950 . S
H2221 C2232 0.950 . S
H2222 C2234 0.950 . S
H2223 C2235 0.950 . S
C2224 H2216 0.950 . S
C2224 C2225 1.386 . S
C2224 C2226 1.391 . S
C2225 C2224 1.386 . S
C2225 C2229 1.393 . S
C2226 H2218 0.950 . S
C2226 C2224 1.391 . S
C2226 C2227 1.400 . S
C2227 C2226 1.400 . S
C2227 C2228 1.398 . S
C2227 C2233 1.491 . S
C2228 H2219 0.950 . S
C2228 C2227 1.398 . S
C2228 C2229 1.391 . S
C2229 H2217 0.950 . S
C2229 C2225 1.393 . S
C2229 C2228 1.391 . S
C2230 H2220 0.950 . S
C2230 C2231 1.386 . S
C2230 C2232 1.391 . S
C2231 C2230 1.386 . S
C2231 C2235 1.393 . S
C2232 H2221 0.950 . S
C2232 C2230 1.391 . S
C2232 C2233 1.400 . S
C2233 C2227 1.491 . S
C2233 C2232 1.400 . S
C2233 C2234 1.398 . S
C2234 H2222 0.950 . S
C2234 C2233 1.398 . S
C2234 C2235 1.391 . S
C2235 H2223 0.950 . S
C2235 C2231 1.393 . S
C2235 C2234 1.391 . S
H2236 C2244 0.950 . S
H2237 C2249 0.950 . S
H2238 C2246 0.950 . S
H2239 C2248 0.950 . S
H2240 C2250 0.950 . S
H2241 C2252 0.950 . S
H2242 C2254 0.950 . S
H2243 C2255 0.950 . S
C2244 H2236 0.950 . S
C2244 C2245 1.386 . S
C2244 C2246 1.391 . S
C2245 C2244 1.386 . S
C2245 C2249 1.393 . S
C2246 H2238 0.950 . S
C2246 C2244 1.391 . S
C2246 C2247 1.400 . S
C2247 C2246 1.400 . S
C2247 C2248 1.398 . S
C2247 C2253 1.491 . S
C2248 H2239 0.950 . S
C2248 C2247 1.398 . S
C2248 C2249 1.391 . S
C2249 H2237 0.950 . S
C2249 C2245 1.393 . S
C2249 C2248 1.391 . S
C2250 H2240 0.950 . S
C2250 C2251 1.386 . S
C2250 C2252 1.391 . S
C2251 C2250 1.386 . S
C2251 C2255 1.393 . S
C2252 H2241 0.950 . S
C2252 C2250 1.391 . S
C2252 C2253 1.400 . S
C2253 C2247 1.491 . S
C2253 C2252 1.400 . S
C2253 C2254 1.398 . S
C2254 H2242 0.950 . S
C2254 C2253 1.398 . S
C2254 C2255 1.391 . S
C2255 H2243 0.950 . S
C2255 C2251 1.393 . S
C2255 C2254 1.391 . S
H2256 C2264 0.950 . S
H2257 C2269 0.950 . S
H2258 C2266 0.950 . S
H2259 C2268 0.950 . S
H2260 C2270 0.950 . S
H2261 C2272 0.950 . S
H2262 C2274 0.950 . S
H2263 C2275 0.950 . S
C2264 H2256 0.950 . S
C2264 C2265 1.386 . S
C2264 C2266 1.391 . S
C2265 C2264 1.386 . S
C2265 C2269 1.393 . S
C2266 H2258 0.950 . S
C2266 C2264 1.391 . S
C2266 C2267 1.400 . S
C2267 C2266 1.400 . S
C2267 C2268 1.398 . S
C2267 C2273 1.491 . S
C2268 H2259 0.950 . S
C2268 C2267 1.398 . S
C2268 C2269 1.391 . S
C2269 H2257 0.950 . S
C2269 C2265 1.393 . S
C2269 C2268 1.391 . S
C2270 H2260 0.950 . S
C2270 C2271 1.386 . S
C2270 C2272 1.391 . S
C2271 C2270 1.386 . S
C2271 C2275 1.393 . S
C2272 H2261 0.950 . S
C2272 C2270 1.391 . S
C2272 C2273 1.400 . S
C2273 C2267 1.491 . S
C2273 C2272 1.400 . S
C2273 C2274 1.398 . S
C2274 H2262 0.950 . S
C2274 C2273 1.398 . S
C2274 C2275 1.391 . S
C2275 H2263 0.950 . S
C2275 C2271 1.393 . S
C2275 C2274 1.391 . S
H2276 C2284 0.950 . S
H2277 C2289 0.950 . S
H2278 C2286 0.950 . S
H2279 C2288 0.950 . S
H2280 C2290 0.950 . S
H2281 C2292 0.950 . S
H2282 C2294 0.950 . S
H2283 C2295 0.950 . S
C2284 H2276 0.950 . S
C2284 C2285 1.386 . S
C2284 C2286 1.391 . S
C2285 C2284 1.386 . S
C2285 C2289 1.393 . S
C2286 H2278 0.950 . S
C2286 C2284 1.391 . S
C2286 C2287 1.400 . S
C2287 C2286 1.400 . S
C2287 C2288 1.398 . S
C2287 C2293 1.491 1_545 S
C2288 H2279 0.950 . S
C2288 C2287 1.398 . S
C2288 C2289 1.391 . S
C2289 H2277 0.950 . S
C2289 C2285 1.393 . S
C2289 C2288 1.391 . S
C2290 H2280 0.950 . S
C2290 C2291 1.386 . S
C2290 C2292 1.391 . S
C2291 C2290 1.386 . S
C2291 C2295 1.393 . S
C2292 H2281 0.950 . S
C2292 C2290 1.391 . S
C2292 C2293 1.400 . S
C2293 C2287 1.491 1_565 S
C2293 C2292 1.400 . S
C2293 C2294 1.398 . S
C2294 H2282 0.950 . S
C2294 C2293 1.398 . S
C2294 C2295 1.391 . S
C2295 H2283 0.950 . S
C2295 C2291 1.393 . S
C2295 C2294 1.391 . S
H2296 C2304 0.950 . S
H2297 C2309 0.950 . S
H2298 C2306 0.950 . S
H2299 C2308 0.950 . S
H2300 C2310 0.950 . S
H2301 C2312 0.950 . S
H2302 C2314 0.950 . S
H2303 C2315 0.950 . S
C2304 H2296 0.950 . S
C2304 C2305 1.386 . S
C2304 C2306 1.391 . S
C2305 C2304 1.386 . S
C2305 C2309 1.393 . S
C2306 H2298 0.950 . S
C2306 C2304 1.391 . S
C2306 C2307 1.400 . S
C2307 C2306 1.400 . S
C2307 C2308 1.398 . S
C2307 C2313 1.491 . S
C2308 H2299 0.950 . S
C2308 C2307 1.398 . S
C2308 C2309 1.391 . S
C2309 H2297 0.950 . S
C2309 C2305 1.393 . S
C2309 C2308 1.391 . S
C2310 H2300 0.950 . S
C2310 C2311 1.386 . S
C2310 C2312 1.391 . S
C2311 C2310 1.386 . S
C2311 C2315 1.393 . S
C2312 H2301 0.950 . S
C2312 C2310 1.391 . S
C2312 C2313 1.400 . S
C2313 C2307 1.491 . S
C2313 C2312 1.400 . S
C2313 C2314 1.398 . S
C2314 H2302 0.950 . S
C2314 C2313 1.398 . S
C2314 C2315 1.391 . S
C2315 H2303 0.950 . S
C2315 C2311 1.393 . S
C2315 C2314 1.391 . S
H2316 C2324 0.950 1_556 S
H2317 C2329 0.950 . S
H2318 C2326 0.950 . S
H2319 C2328 0.950 . S
H2320 C2330 0.950 1_554 S
H2321 C2332 0.950 . S
H2322 C2334 0.950 . S
H2323 C2335 0.950 . S
C2324 H2316 0.950 1_554 S
C2324 C2325 1.386 . S
C2324 C2326 1.391 1_554 S
C2325 C2324 1.386 . S
C2325 C2329 1.393 . S
C2326 H2318 0.950 . S
C2326 C2324 1.391 1_556 S
C2326 C2327 1.400 1_556 S
C2327 C2326 1.400 1_554 S
C2327 C2328 1.398 . S
C2327 C2333 1.491 1_554 S
C2328 H2319 0.950 . S
C2328 C2327 1.398 . S
C2328 C2329 1.391 . S
C2329 H2317 0.950 . S
C2329 C2325 1.393 . S
C2329 C2328 1.391 . S
C2330 H2320 0.950 1_556 S
C2330 C2331 1.386 . S
C2330 C2332 1.391 1_556 S
C2331 C2330 1.386 . S
C2331 C2335 1.393 . S
C2332 H2321 0.950 . S
C2332 C2330 1.391 1_554 S
C2332 C2333 1.400 1_554 S
C2333 C2327 1.491 1_556 S
C2333 C2332 1.400 1_556 S
C2333 C2334 1.398 . S
C2334 H2322 0.950 . S
C2334 C2333 1.398 . S
C2334 C2335 1.391 . S
C2335 H2323 0.950 . S
C2335 C2331 1.393 . S
C2335 C2334 1.391 . S
H2336 C2344 0.950 . S
H2337 C2349 0.950 . S
H2338 C2346 0.950 . S
H2339 C2348 0.950 . S
H2340 C2350 0.950 . S
H2341 C2352 0.950 . S
H2342 C2354 0.950 . S
H2343 C2355 0.950 . S
C2344 H2336 0.950 . S
C2344 C2345 1.386 . S
C2344 C2346 1.391 . S
C2345 C2344 1.386 . S
C2345 C2349 1.393 . S
C2346 H2338 0.950 . S
C2346 C2344 1.391 . S
C2346 C2347 1.400 . S
C2347 C2346 1.400 . S
C2347 C2348 1.398 . S
C2347 C2353 1.491 . S
C2348 H2339 0.950 . S
C2348 C2347 1.398 . S
C2348 C2349 1.391 . S
C2349 H2337 0.950 . S
C2349 C2345 1.393 . S
C2349 C2348 1.391 . S
C2350 H2340 0.950 . S
C2350 C2351 1.386 . S
C2350 C2352 1.391 . S
C2351 C2350 1.386 . S
C2351 C2355 1.393 . S
C2352 H2341 0.950 . S
C2352 C2350 1.391 . S
C2352 C2353 1.400 . S
C2353 C2347 1.491 . S
C2353 C2352 1.400 . S
C2353 C2354 1.398 . S
C2354 H2342 0.950 . S
C2354 C2353 1.398 . S
C2354 C2355 1.391 . S
C2355 H2343 0.950 . S
C2355 C2351 1.393 . S
C2355 C2354 1.391 . S
H2356 C2364 0.950 . S
H2357 C2369 0.950 . S
H2358 C2366 0.950 . S
H2359 C2368 0.950 . S
H2360 C2370 0.950 . S
H2361 C2372 0.950 . S
H2362 C2374 0.950 . S
H2363 C2375 0.950 . S
C2364 H2356 0.950 . S
C2364 C2365 1.386 . S
C2364 C2366 1.391 . S
C2365 C2364 1.386 . S
C2365 C2369 1.393 . S
C2366 H2358 0.950 . S
C2366 C2364 1.391 . S
C2366 C2367 1.400 . S
C2367 C2366 1.400 . S
C2367 C2368 1.398 . S
C2367 C2373 1.491 . S
C2368 H2359 0.950 . S
C2368 C2367 1.398 . S
C2368 C2369 1.391 . S
C2369 H2357 0.950 . S
C2369 C2365 1.393 . S
C2369 C2368 1.391 . S
C2370 H2360 0.950 . S
C2370 C2371 1.386 . S
C2370 C2372 1.391 . S
C2371 C2370 1.386 . S
C2371 C2375 1.393 . S
C2372 H2361 0.950 . S
C2372 C2370 1.391 . S
C2372 C2373 1.400 . S
C2373 C2367 1.491 . S
C2373 C2372 1.400 . S
C2373 C2374 1.398 . S
C2374 H2362 0.950 . S
C2374 C2373 1.398 . S
C2374 C2375 1.391 . S
C2375 H2363 0.950 . S
C2375 C2371 1.393 . S
C2375 C2374 1.391 . S
H2376 C2384 0.950 . S
H2377 C2389 0.950 . S
H2378 C2386 0.950 . S
H2379 C2388 0.950 . S
H2380 C2390 0.950 . S
H2381 C2392 0.950 . S
H2382 C2394 0.950 . S
H2383 C2395 0.950 . S
C2384 H2376 0.950 . S
C2384 C2385 1.386 . S
C2384 C2386 1.391 . S
C2385 C2384 1.386 . S
C2385 C2389 1.393 . S
C2386 H2378 0.950 . S
C2386 C2384 1.391 . S
C2386 C2387 1.400 . S
C2387 C2386 1.400 . S
C2387 C2388 1.398 . S
C2387 C2393 1.491 . S
C2388 H2379 0.950 . S
C2388 C2387 1.398 . S
C2388 C2389 1.391 . S
C2389 H2377 0.950 . S
C2389 C2385 1.393 . S
C2389 C2388 1.391 . S
C2390 H2380 0.950 . S
C2390 C2391 1.386 . S
C2390 C2392 1.391 . S
C2391 C2390 1.386 . S
C2391 C2395 1.393 . S
C2392 H2381 0.950 . S
C2392 C2390 1.391 . S
C2392 C2393 1.400 . S
C2393 C2387 1.491 . S
C2393 C2392 1.400 . S
C2393 C2394 1.398 . S
C2394 H2382 0.950 . S
C2394 C2393 1.398 . S
C2394 C2395 1.391 . S
C2395 H2383 0.950 . S
C2395 C2391 1.393 . S
C2395 C2394 1.391 . S
H2396 C2404 0.950 . S
H2397 C2409 0.950 . S
H2398 C2406 0.950 . S
H2399 C2408 0.950 . S
H2400 C2410 0.950 . S
H2401 C2412 0.950 . S
H2402 C2414 0.950 . S
H2403 C2415 0.950 . S
C2404 H2396 0.950 . S
C2404 C2405 1.386 . S
C2404 C2406 1.391 . S
C2405 C2404 1.386 . S
C2405 C2409 1.393 . S
C2406 H2398 0.950 . S
C2406 C2404 1.391 . S
C2406 C2407 1.400 . S
C2407 C2406 1.400 . S
C2407 C2408 1.398 . S
C2407 C2413 1.491 . S
C2408 H2399 0.950 . S
C2408 C2407 1.398 . S
C2408 C2409 1.391 . S
C2409 H2397 0.950 . S
C2409 C2405 1.393 . S
C2409 C2408 1.391 . S
C2410 H2400 0.950 . S
C2410 C2411 1.386 . S
C2410 C2412 1.391 . S
C2411 C2410 1.386 . S
C2411 C2415 1.393 . S
C2412 H2401 0.950 . S
C2412 C2410 1.391 . S
C2412 C2413 1.400 . S
C2413 C2407 1.491 . S
C2413 C2412 1.400 . S
C2413 C2414 1.398 . S
C2414 H2402 0.950 . S
C2414 C2413 1.398 . S
C2414 C2415 1.391 . S
C2415 H2403 0.950 . S
C2415 C2411 1.393 . S
C2415 C2414 1.391 . S
H2416 C2424 0.950 . S
H2417 C2429 0.958 . S
H2418 C2426 0.950 . S
H2419 C2428 0.950 . S
H2420 C2430 0.950 . S
H2421 C2432 0.950 . S
H2422 C2434 0.950 . S
H2423 C2435 0.950 . S
C2424 H2416 0.950 . S
C2424 C2425 1.386 . S
C2424 C2426 1.391 . S
C2425 C2424 1.386 . S
C2425 C2429 1.393 . S
C2426 H2418 0.950 . S
C2426 C2424 1.391 . S
C2426 C2427 1.400 . S
C2427 C2426 1.400 . S
C2427 C2428 1.398 . S
C2427 C2433 1.491 . S
C2428 H2419 0.950 . S
C2428 C2427 1.398 . S
C2428 C2429 1.391 . S
C2429 H2417 0.958 . S
C2429 C2425 1.393 . S
C2429 C2428 1.391 . S
C2430 H2420 0.950 . S
C2430 C2431 1.386 . S
C2430 C2432 1.391 . S
C2431 C2430 1.386 . S
C2431 C2435 1.393 . S
C2432 H2421 0.950 . S
C2432 C2430 1.391 . S
C2432 C2433 1.400 . S
C2433 C2427 1.491 . S
C2433 C2432 1.400 . S
C2433 C2434 1.398 . S
C2434 H2422 0.950 . S
C2434 C2433 1.398 . S
C2434 C2435 1.391 . S
C2435 H2423 0.950 . S
C2435 C2431 1.393 . S
C2435 C2434 1.391 . S
H2436 C2444 0.950 . S
H2437 C2449 0.950 . S
H2438 C2446 0.950 . S
H2439 C2448 0.950 . S
H2440 C2450 0.950 . S
H2441 C2452 0.950 . S
H2442 C2454 0.950 . S
H2443 C2455 0.950 1_556 S
C2444 H2436 0.950 . S
C2444 C2445 1.386 . S
C2444 C2446 1.391 . S
C2445 C2444 1.386 . S
C2445 C2449 1.393 . S
C2446 H2438 0.950 . S
C2446 C2444 1.391 . S
C2446 C2447 1.400 . S
C2447 C2446 1.400 . S
C2447 C2448 1.398 . S
C2447 C2453 1.491 . S
C2448 H2439 0.950 . S
C2448 C2447 1.398 . S
C2448 C2449 1.391 . S
C2449 H2437 0.950 . S
C2449 C2445 1.393 . S
C2449 C2448 1.391 . S
C2450 H2440 0.950 . S
C2450 C2451 1.386 . S
C2450 C2452 1.391 . S
C2451 C2450 1.386 . S
C2451 C2455 1.393 . S
C2452 H2441 0.950 . S
C2452 C2450 1.391 . S
C2452 C2453 1.400 . S
C2453 C2447 1.491 . S
C2453 C2452 1.400 . S
C2453 C2454 1.398 . S
C2454 H2442 0.950 . S
C2454 C2453 1.398 . S
C2454 C2455 1.391 . S
C2455 H2443 0.950 1_554 S
C2455 C2451 1.393 . S
C2455 C2454 1.391 . S
H2456 C2464 0.950 1_554 S
H2457 C2469 0.950 . S
H2458 C2466 0.950 . S
H2459 C2468 0.950 . S
H2460 C2470 0.950 . S
H2461 C2472 0.950 . S
H2462 C2474 0.950 . S
H2463 C2475 0.950 . S
C2464 H2456 0.950 1_556 S
C2464 C2465 1.386 . S
C2464 C2466 1.391 . S
C2465 C2464 1.386 . S
C2465 C2469 1.393 . S
C2466 H2458 0.950 . S
C2466 C2464 1.391 . S
C2466 C2467 1.400 . S
C2467 C2466 1.400 . S
C2467 C2468 1.398 . S
C2467 C2473 1.491 . S
C2468 H2459 0.950 . S
C2468 C2467 1.398 . S
C2468 C2469 1.391 . S
C2469 H2457 0.950 . S
C2469 C2465 1.393 . S
C2469 C2468 1.391 . S
C2470 H2460 0.950 . S
C2470 C2471 1.386 . S
C2470 C2472 1.391 . S
C2471 C2470 1.386 . S
C2471 C2475 1.393 . S
C2472 H2461 0.950 . S
C2472 C2470 1.391 . S
C2472 C2473 1.400 . S
C2473 C2467 1.491 . S
C2473 C2472 1.400 . S
C2473 C2474 1.398 . S
C2474 H2462 0.950 . S
C2474 C2473 1.398 . S
C2474 C2475 1.391 . S
C2475 H2463 0.950 . S
C2475 C2471 1.393 . S
C2475 C2474 1.391 . S
H2476 C2484 0.950 1_554 S
H2477 C2489 0.950 . S
H2478 C2486 0.950 . S
H2479 C2488 0.950 . S
H2480 C2490 0.950 . S
H2481 C2492 0.950 . S
H2482 C2494 0.950 . S
H2483 C2495 0.950 . S
C2484 H2476 0.950 1_556 S
C2484 C2485 1.386 . S
C2484 C2486 1.391 . S
C2485 C2484 1.386 . S
C2485 C2489 1.393 . S
C2486 H2478 0.950 . S
C2486 C2484 1.391 . S
C2486 C2487 1.400 . S
C2487 C2486 1.400 . S
C2487 C2488 1.398 . S
C2487 C2493 1.491 . S
C2488 H2479 0.950 . S
C2488 C2487 1.398 . S
C2488 C2489 1.391 . S
C2489 H2477 0.950 . S
C2489 C2485 1.393 . S
C2489 C2488 1.391 . S
C2490 H2480 0.950 . S
C2490 C2491 1.386 . S
C2490 C2492 1.391 . S
C2491 C2490 1.386 . S
C2491 C2495 1.393 . S
C2492 H2481 0.950 . S
C2492 C2490 1.391 . S
C2492 C2493 1.400 . S
C2493 C2487 1.491 . S
C2493 C2492 1.400 . S
C2493 C2494 1.398 . S
C2494 H2482 0.950 . S
C2494 C2493 1.398 . S
C2494 C2495 1.391 . S
C2495 H2483 0.950 . S
C2495 C2491 1.393 . S
C2495 C2494 1.391 . S
H2496 C2504 0.950 . S
H2497 C2509 0.950 1_556 S
H2498 C2506 0.950 . S
H2499 C2508 0.950 . S
H2500 C2510 0.950 . S
H2501 C2512 0.950 . S
H2502 C2514 0.950 . S
H2503 C2515 0.950 . S
C2504 H2496 0.950 . S
C2504 C2505 1.386 . S
C2504 C2506 1.391 . S
C2505 C2504 1.386 . S
C2505 C2509 1.393 . S
C2506 H2498 0.950 . S
C2506 C2504 1.391 . S
C2506 C2507 1.400 . S
C2507 C2506 1.400 . S
C2507 C2508 1.398 . S
C2507 C2513 1.491 . S
C2508 H2499 0.950 . S
C2508 C2507 1.398 . S
C2508 C2509 1.391 . S
C2509 H2497 0.950 1_554 S
C2509 C2505 1.393 . S
C2509 C2508 1.391 . S
C2510 H2500 0.950 . S
C2510 C2511 1.386 . S
C2510 C2512 1.391 . S
C2511 C2510 1.386 . S
C2511 C2515 1.393 . S
C2512 H2501 0.950 . S
C2512 C2510 1.391 . S
C2512 C2513 1.400 . S
C2513 C2507 1.491 . S
C2513 C2512 1.400 . S
C2513 C2514 1.398 . S
C2514 H2502 0.950 . S
C2514 C2513 1.398 . S
C2514 C2515 1.391 . S
C2515 H2503 0.950 . S
C2515 C2511 1.393 . S
C2515 C2514 1.391 . S
H2516 C2524 0.950 1_556 S
H2517 C2529 0.950 . S
H2518 C2526 0.950 . S
H2519 C2528 0.950 . S
H2520 C2530 0.950 . S
H2521 C2532 0.950 . S
H2522 C2534 0.950 . S
H2523 C2535 0.950 . S
C2524 H2516 0.950 1_554 S
C2524 C2525 1.386 . S
C2524 C2526 1.391 . S
C2525 C2524 1.386 . S
C2525 C2529 1.393 . S
C2526 H2518 0.950 . S
C2526 C2524 1.391 . S
C2526 C2527 1.400 . S
C2527 C2526 1.400 . S
C2527 C2528 1.398 . S
C2527 C2533 1.491 . S
C2528 H2519 0.950 . S
C2528 C2527 1.398 . S
C2528 C2529 1.391 . S
C2529 H2517 0.950 . S
C2529 C2525 1.393 . S
C2529 C2528 1.391 . S
C2530 H2520 0.950 . S
C2530 C2531 1.386 . S
C2530 C2532 1.391 . S
C2531 C2530 1.386 . S
C2531 C2535 1.393 . S
C2532 H2521 0.950 . S
C2532 C2530 1.391 . S
C2532 C2533 1.400 . S
C2533 C2527 1.491 . S
C2533 C2532 1.400 . S
C2533 C2534 1.398 . S
C2534 H2522 0.950 . S
C2534 C2533 1.398 . S
C2534 C2535 1.391 . S
C2535 H2523 0.950 . S
C2535 C2531 1.393 . S
C2535 C2534 1.391 . S
H2536 C2544 0.950 1_554 S
H2537 C2549 0.950 . S
H2538 C2546 0.950 . S
H2539 C2548 0.950 . S
H2540 C2550 0.950 . S
H2541 C2552 0.950 . S
H2542 C2554 0.950 . S
H2543 C2555 0.950 . S
C2544 H2536 0.950 1_556 S
C2544 C2545 1.386 . S
C2544 C2546 1.391 . S
C2545 C2544 1.386 . S
C2545 C2549 1.393 . S
C2546 H2538 0.950 . S
C2546 C2544 1.391 . S
C2546 C2547 1.400 . S
C2547 C2546 1.400 . S
C2547 C2548 1.398 . S
C2547 C2553 1.491 . S
C2548 H2539 0.950 . S
C2548 C2547 1.398 . S
C2548 C2549 1.391 . S
C2549 H2537 0.950 . S
C2549 C2545 1.393 . S
C2549 C2548 1.391 . S
C2550 H2540 0.950 . S
C2550 C2551 1.386 . S
C2550 C2552 1.391 . S
C2551 C2550 1.386 . S
C2551 C2555 1.393 . S
C2552 H2541 0.950 . S
C2552 C2550 1.391 . S
C2552 C2553 1.400 . S
C2553 C2547 1.491 . S
C2553 C2552 1.400 . S
C2553 C2554 1.398 . S
C2554 H2542 0.950 . S
C2554 C2553 1.398 . S
C2554 C2555 1.391 . S
C2555 H2543 0.950 . S
C2555 C2551 1.393 . S
C2555 C2554 1.391 . S
H2556 C2564 0.950 . S
H2557 C2569 0.950 . S
H2558 C2566 0.950 . S
H2559 C2568 0.950 . S
H2560 C2570 0.950 . S
H2561 C2572 0.950 . S
H2562 C2574 0.950 . S
H2563 C2575 0.950 . S
C2564 H2556 0.950 . S
C2564 C2565 1.386 . S
C2564 C2566 1.391 . S
C2565 C2564 1.386 . S
C2565 C2569 1.393 . S
C2566 H2558 0.950 . S
C2566 C2564 1.391 . S
C2566 C2567 1.400 . S
C2567 C2566 1.400 . S
C2567 C2568 1.398 . S
C2567 C2573 1.491 . S
C2568 H2559 0.950 . S
C2568 C2567 1.398 . S
C2568 C2569 1.391 . S
C2569 H2557 0.950 . S
C2569 C2565 1.393 . S
C2569 C2568 1.391 . S
C2570 H2560 0.950 . S
C2570 C2571 1.386 . S
C2570 C2572 1.391 . S
C2571 C2570 1.386 . S
C2571 C2575 1.393 . S
C2572 H2561 0.950 . S
C2572 C2570 1.391 . S
C2572 C2573 1.400 . S
C2573 C2567 1.491 . S
C2573 C2572 1.400 . S
C2573 C2574 1.398 . S
C2574 H2562 0.950 . S
C2574 C2573 1.398 . S
C2574 C2575 1.391 . S
C2575 H2563 0.950 . S
C2575 C2571 1.393 . S
C2575 C2574 1.391 . S
H2576 C2584 0.950 . S
H2577 C2589 0.950 . S
H2578 C2586 0.950 . S
H2579 C2588 0.950 . S
H2580 C2590 0.950 . S
H2581 C2592 0.950 . S
H2582 C2594 0.950 . S
H2583 C2595 0.950 . S
C2584 H2576 0.950 . S
C2584 C2585 1.386 . S
C2584 C2586 1.391 . S
C2585 C2584 1.386 . S
C2585 C2589 1.393 . S
C2586 H2578 0.950 . S
C2586 C2584 1.391 . S
C2586 C2587 1.400 . S
C2587 C2586 1.400 . S
C2587 C2588 1.398 . S
C2587 C2593 1.491 . S
C2588 H2579 0.950 . S
C2588 C2587 1.398 . S
C2588 C2589 1.391 . S
C2589 H2577 0.950 . S
C2589 C2585 1.393 . S
C2589 C2588 1.391 . S
C2590 H2580 0.950 . S
C2590 C2591 1.386 . S
C2590 C2592 1.391 . S
C2591 C2590 1.386 . S
C2591 C2595 1.393 . S
C2592 H2581 0.950 . S
C2592 C2590 1.391 . S
C2592 C2593 1.400 . S
C2593 C2587 1.491 . S
C2593 C2592 1.400 . S
C2593 C2594 1.398 . S
C2594 H2582 0.950 . S
C2594 C2593 1.398 . S
C2594 C2595 1.391 . S
C2595 H2583 0.950 . S
C2595 C2591 1.393 . S
C2595 C2594 1.391 . S
H2596 C2604 0.950 . S
H2597 C2609 0.950 . S
H2598 C2606 0.950 . S
H2599 C2608 0.950 . S
H2600 C2610 0.950 . S
H2601 C2612 0.950 . S
H2602 C2614 0.950 . S
H2603 C2615 0.950 . S
C2604 H2596 0.950 . S
C2604 C2605 1.386 . S
C2604 C2606 1.391 . S
C2605 C2604 1.386 . S
C2605 C2609 1.393 . S
C2606 H2598 0.950 . S
C2606 C2604 1.391 . S
C2606 C2607 1.400 . S
C2607 C2606 1.400 . S
C2607 C2608 1.398 . S
C2607 C2613 1.491 . S
C2608 H2599 0.950 . S
C2608 C2607 1.398 . S
C2608 C2609 1.391 . S
C2609 H2597 0.950 . S
C2609 C2605 1.393 . S
C2609 C2608 1.391 . S
C2610 H2600 0.950 . S
C2610 C2611 1.386 . S
C2610 C2612 1.391 . S
C2611 C2610 1.386 . S
C2611 C2615 1.393 . S
C2612 H2601 0.950 . S
C2612 C2610 1.391 . S
C2612 C2613 1.400 . S
C2613 C2607 1.491 . S
C2613 C2612 1.400 . S
C2613 C2614 1.398 . S
C2614 H2602 0.950 . S
C2614 C2613 1.398 . S
C2614 C2615 1.391 . S
C2615 H2603 0.950 . S
C2615 C2611 1.393 . S
C2615 C2614 1.391 . S
H2616 C2624 0.950 . S
H2617 C2629 0.950 . S
H2618 C2626 0.950 . S
H2619 C2628 0.950 . S
H2620 C2630 0.950 . S
H2621 C2632 0.950 . S
H2622 C2634 0.950 . S
H2623 C2635 0.950 . S
C2624 H2616 0.950 . S
C2624 C2625 1.386 . S
C2624 C2626 1.391 . S
C2625 C2624 1.386 . S
C2625 C2629 1.393 . S
C2626 H2618 0.950 . S
C2626 C2624 1.391 . S
C2626 C2627 1.400 . S
C2627 C2626 1.400 . S
C2627 C2628 1.398 . S
C2627 C2633 1.491 . S
C2628 H2619 0.950 . S
C2628 C2627 1.398 . S
C2628 C2629 1.391 . S
C2629 H2617 0.950 . S
C2629 C2625 1.393 . S
C2629 C2628 1.391 . S
C2630 H2620 0.950 . S
C2630 C2631 1.386 . S
C2630 C2632 1.391 . S
C2631 C2630 1.386 . S
C2631 C2635 1.393 . S
C2632 H2621 0.950 . S
C2632 C2630 1.391 . S
C2632 C2633 1.400 . S
C2633 C2627 1.491 . S
C2633 C2632 1.400 . S
C2633 C2634 1.398 . S
C2634 H2622 0.950 . S
C2634 C2633 1.398 . S
C2634 C2635 1.391 . S
C2635 H2623 0.950 . S
C2635 C2631 1.393 . S
C2635 C2634 1.391 . S
H2636 C2644 0.950 . S
H2637 C2649 0.950 . S
H2638 C2646 0.950 . S
H2639 C2648 0.950 . S
H2640 C2650 0.950 . S
H2641 C2652 0.950 . S
H2642 C2654 0.950 . S
H2643 C2655 0.950 . S
C2644 H2636 0.950 . S
C2644 C2645 1.386 . S
C2644 C2646 1.391 . S
C2645 C2644 1.386 . S
C2645 C2649 1.393 . S
C2646 H2638 0.950 . S
C2646 C2644 1.391 . S
C2646 C2647 1.400 . S
C2647 C2646 1.400 . S
C2647 C2648 1.398 . S
C2647 C2653 1.491 . S
C2648 H2639 0.950 . S
C2648 C2647 1.398 . S
C2648 C2649 1.391 . S
C2649 H2637 0.950 . S
C2649 C2645 1.393 . S
C2649 C2648 1.391 . S
C2650 H2640 0.950 . S
C2650 C2651 1.386 . S
C2650 C2652 1.391 . S
C2651 C2650 1.386 . S
C2651 C2655 1.393 . S
C2652 H2641 0.950 . S
C2652 C2650 1.391 . S
C2652 C2653 1.400 . S
C2653 C2647 1.491 . S
C2653 C2652 1.400 . S
C2653 C2654 1.398 . S
C2654 H2642 0.950 . S
C2654 C2653 1.398 . S
C2654 C2655 1.391 . S
C2655 H2643 0.950 . S
C2655 C2651 1.393 . S
C2655 C2654 1.391 . S
C1065 C106 0.994 1_554 S
C1071 C7 0.992 . S
C1085 C40 0.991 . S
C1091 C73 0.995 1_554 S
C1105 C139 0.995 . S
C1111 C238 0.990 1_556 S
C1125 C172 0.990 . S
C1131 C205 0.995 1_556 S
C1145 C370 0.993 . S
C1151 C271 0.993 . S
C1165 C304 0.991 . S
C1171 C337 0.995 . S
C1185 C502 0.991 . S
C1191 C403 0.995 . S
C1205 C436 0.995 . S
C1211 C469 0.990 . S
C1225 C535 0.994 . S
C1231 C634 0.991 . S
C1245 C601 0.994 . S
C1251 C568 0.992 . S
C1265 C766 0.993 . S
C1271 C667 0.993 . S
C1285 C733 0.994 . S
C1291 C700 0.991 . S
C1305 C898 0.991 1_554 S
C1311 C799 0.995 . S
C1325 C865 0.990 1_554 S
C1331 C832 0.995 . S
C1345 C1030 0.991 1_556 S
C1351 C931 0.995 . S
C1365 C997 0.995 1_556 S
C1371 C964 0.990 . S
C1385 C648 0.745 . S
C1391 C21 0.740 . S
C1405 C615 0.746 . S
C1411 C54 0.757 . S
C1425 C582 0.757 . S
C1431 C87 0.747 . S
C1445 C549 0.740 . S
C1451 C120 0.757 . S
C1465 C780 0.738 . S
C1471 C153 0.755 . S
C1485 C747 0.738 . S
C1491 C186 0.752 . S
C1505 C219 0.740 . S
C1511 C714 0.746 . S
C1525 C681 0.738 . S
C1531 C252 0.751 . S
C1545 C912 0.744 . S
C1551 C285 0.757 . S
C1565 C879 0.745 . S
C1571 C318 0.757 . S
C1585 C351 0.746 . S
C1591 C846 0.740 . S
C1605 C384 0.742 . S
C1611 C813 0.743 . S
C1625 C1044 0.742 . S
C1631 C417 0.758 . S
C1645 C1011 0.758 . S
C1651 C450 0.743 . S
C1665 C483 0.748 . S
C1671 C978 0.756 . S
C1685 C945 0.739 . S
C1691 C516 0.748 . S
C1705 N13 1.587 . S
C1711 N46 1.564 . S
C1725 N79 1.576 . S
C1731 N112 1.571 . S
C1745 N145 1.566 . S
C1751 N178 1.590 . S
C1765 N211 1.575 . S
C1771 N244 1.584 . S
C1785 N277 1.564 . S
C1791 N310 1.585 . S
C1805 N376 1.573 . S
C1811 N343 1.586 . S
C1825 N442 1.581 . S
C1831 N409 1.567 . S
C1845 N475 1.576 . S
C1851 N508 1.583 . S
C1865 N574 1.590 . S
C1871 N541 1.566 . S
C1885 N640 1.578 . S
C1891 N607 1.569 . S
C1905 N673 1.563 . S
C1911 N706 1.589 . S
C1925 N772 1.568 . S
C1931 N739 1.579 . S
C1945 N805 1.589 . S
C1951 N838 1.563 . S
C1965 N904 1.585 . S
C1971 N871 1.574 . S
C1985 N937 1.564 . S
C1991 N970 1.590 . S
C2005 N1003 1.575 . S
C2011 N1036 1.584 . S
C2025 N398 1.885 . S
C2031 N2 1.885 . S
C2045 N695 1.890 . S
C2051 N35 1.890 . S
C2065 N68 1.887 . S
C2071 N200 1.887 . S
C2085 N1025 1.886 . S
C2091 N101 1.886 . S
C2105 N266 1.889 . S
C2111 N134 1.889 . S
C2125 N563 1.884 . S
C2131 N167 1.884 . S
C2145 N893 1.885 . S
C2151 N233 1.885 . S
C2165 N299 1.891 . S
C2171 N959 1.891 . S
C2185 N464 1.890 . S
C2191 N332 1.890 . S
C2205 N761 1.889 . S
C2211 N365 1.889 . S
C2225 N431 1.884 . S
C2231 N827 1.884 . S
C2245 N497 1.892 . S
C2251 N629 1.892 . S
C2265 N926 1.884 . S
C2271 N530 1.884 . S
C2285 N596 1.888 . S
C2291 N728 1.888 . S
C2305 N662 1.887 . S
C2311 N794 1.887 . S
C2325 N992 1.891 . S
C2331 N860 1.891 . S
C2345 C18 1.427 . S
C2351 C117 1.433 . S
C2365 C51 1.426 . S
C2371 C84 1.425 . S
C2385 C249 1.427 . S
C2391 C150 1.424 . S
C2405 C183 1.424 . S
C2411 C216 1.430 . S
C2425 C282 1.431 1_554 S
C2431 C381 1.433 . S
C2445 C348 1.425 . S
C2451 C315 1.432 1_554 S
C2465 C414 1.424 1_556 S
C2471 C513 1.428 . S
C2485 C447 1.425 1_556 S
C2491 C480 1.431 . S
C2505 C546 1.425 1_554 S
C2511 C645 1.432 . S
C2525 C579 1.433 1_554 S
C2531 C612 1.427 . S
C2545 C678 1.425 1_556 S
C2551 C777 1.432 . S
C2565 C711 1.432 1_556 S
C2571 C744 1.432 . S
C2585 C810 1.426 . S
C2591 C909 1.433 . S
C2605 C876 1.427 . S
C2611 C843 1.425 . S
C2625 C942 1.428 . S
C2631 C1041 1.424 . S
C2645 C975 1.426 . S
C2651 C1008 1.433 . S
