# Generated by pormake.
# Topology wir, (6)-cn, num edge types: 1
# Building blocks:
#     Node 0, Type 0, BuildingBlock: CUWYAW_clean_sbu_0, # of connection points: 6
#     Node 1, Type 0, BuildingBlock: CUWYAW_clean_sbu_0, # of connection points: 6
#     Node 2, Type 0, BuildingBlock: CUWYAW_clean_sbu_0, # of connection points: 6
#     Node 3, Type 0, BuildingBlock: CUWYAW_clean_sbu_0, # of connection points: 6
#     Node 4, Type 0, BuildingBlock: CUWYAW_clean_sbu_0, # of connection points: 6
#     Node 5, Type 0, BuildingBlock: CUWYAW_clean_sbu_0, # of connection points: 6
#     Node 6, Type 0, BuildingBlock: CUWYAW_clean_sbu_0, # of connection points: 6
#     Node 7, Type 0, BuildingBlock: CUWYAW_clean_sbu_0, # of connection points: 6
#     Node 8, Type 0, BuildingBlock: CUWYAW_clean_sbu_0, # of connection points: 6
#     Node 9, Type 0, BuildingBlock: CUWYAW_clean_sbu_0, # of connection points: 6
#     Node 10, Type 0, BuildingBlock: CUWYAW_clean_sbu_0, # of connection points: 6
#     Node 11, Type 0, BuildingBlock: CUWYAW_clean_sbu_0, # of connection points: 6
#     Node 12, Type 0, BuildingBlock: CUWYAW_clean_sbu_0, # of connection points: 6
#     Node 13, Type 0, BuildingBlock: CUWYAW_clean_sbu_0, # of connection points: 6
#     Node 14, Type 0, BuildingBlock: CUWYAW_clean_sbu_0, # of connection points: 6
#     Node 15, Type 0, BuildingBlock: CUWYAW_clean_sbu_0, # of connection points: 6
#     Node 16, Type 0, BuildingBlock: CUWYAW_clean_sbu_0, # of connection points: 6
#     Node 17, Type 0, BuildingBlock: CUWYAW_clean_sbu_0, # of connection points: 6
#     Node 18, Type 0, BuildingBlock: CUWYAW_clean_sbu_0, # of connection points: 6
#     Node 19, Type 0, BuildingBlock: CUWYAW_clean_sbu_0, # of connection points: 6
#     Node 20, Type 0, BuildingBlock: CUWYAW_clean_sbu_0, # of connection points: 6
#     Node 21, Type 0, BuildingBlock: CUWYAW_clean_sbu_0, # of connection points: 6
#     Node 22, Type 0, BuildingBlock: CUWYAW_clean_sbu_0, # of connection points: 6
#     Node 23, Type 0, BuildingBlock: CUWYAW_clean_sbu_0, # of connection points: 6
#     Node 24, Type 0, BuildingBlock: CUWYAW_clean_sbu_0, # of connection points: 6
#     Node 25, Type 0, BuildingBlock: CUWYAW_clean_sbu_0, # of connection points: 6
#     Node 26, Type 0, BuildingBlock: CUWYAW_clean_sbu_0, # of connection points: 6
#     Node 27, Type 0, BuildingBlock: CUWYAW_clean_sbu_0, # of connection points: 6
#     Node 28, Type 0, BuildingBlock: CUWYAW_clean_sbu_0, # of connection points: 6
#     Node 29, Type 0, BuildingBlock: CUWYAW_clean_sbu_0, # of connection points: 6
#     Node 30, Type 0, BuildingBlock: CUWYAW_clean_sbu_0, # of connection points: 6
#     Node 31, Type 0, BuildingBlock: CUWYAW_clean_sbu_0, # of connection points: 6
#     Edge 32, Type (0, 0), BuildingBlock: CIFDUS_clean_linker_0, # of connection points: 2
#     Edge 33, Type (0, 0), BuildingBlock: CIFDUS_clean_linker_0, # of connection points: 2
#     Edge 34, Type (0, 0), BuildingBlock: CIFDUS_clean_linker_0, # of connection points: 2
#     Edge 35, Type (0, 0), BuildingBlock: CIFDUS_clean_linker_0, # of connection points: 2
#     Edge 36, Type (0, 0), BuildingBlock: CIFDUS_clean_linker_0, # of connection points: 2
#     Edge 37, Type (0, 0), BuildingBlock: CIFDUS_clean_linker_0, # of connection points: 2
#     Edge 38, Type (0, 0), BuildingBlock: CIFDUS_clean_linker_0, # of connection points: 2
#     Edge 39, Type (0, 0), BuildingBlock: CIFDUS_clean_linker_0, # of connection points: 2
#     Edge 40, Type (0, 0), BuildingBlock: CIFDUS_clean_linker_0, # of connection points: 2
#     Edge 41, Type (0, 0), BuildingBlock: CIFDUS_clean_linker_0, # of connection points: 2
#     Edge 42, Type (0, 0), BuildingBlock: CIFDUS_clean_linker_0, # of connection points: 2
#     Edge 43, Type (0, 0), BuildingBlock: CIFDUS_clean_linker_0, # of connection points: 2
#     Edge 44, Type (0, 0), BuildingBlock: CIFDUS_clean_linker_0, # of connection points: 2
#     Edge 45, Type (0, 0), BuildingBlock: CIFDUS_clean_linker_0, # of connection points: 2
#     Edge 46, Type (0, 0), BuildingBlock: CIFDUS_clean_linker_0, # of connection points: 2
#     Edge 47, Type (0, 0), BuildingBlock: CIFDUS_clean_linker_0, # of connection points: 2
#     Edge 48, Type (0, 0), BuildingBlock: CIFDUS_clean_linker_0, # of connection points: 2
#     Edge 49, Type (0, 0), BuildingBlock: CIFDUS_clean_linker_0, # of connection points: 2
#     Edge 50, Type (0, 0), BuildingBlock: CIFDUS_clean_linker_0, # of connection points: 2
#     Edge 51, Type (0, 0), BuildingBlock: CIFDUS_clean_linker_0, # of connection points: 2
#     Edge 52, Type (0, 0), BuildingBlock: CIFDUS_clean_linker_0, # of connection points: 2
#     Edge 53, Type (0, 0), BuildingBlock: CIFDUS_clean_linker_0, # of connection points: 2
#     Edge 54, Type (0, 0), BuildingBlock: CIFDUS_clean_linker_0, # of connection points: 2
#     Edge 55, Type (0, 0), BuildingBlock: CIFDUS_clean_linker_0, # of connection points: 2
#     Edge 56, Type (0, 0), BuildingBlock: CIFDUS_clean_linker_0, # of connection points: 2
#     Edge 57, Type (0, 0), BuildingBlock: CIFDUS_clean_linker_0, # of connection points: 2
#     Edge 58, Type (0, 0), BuildingBlock: CIFDUS_clean_linker_0, # of connection points: 2
#     Edge 59, Type (0, 0), BuildingBlock: CIFDUS_clean_linker_0, # of connection points: 2
#     Edge 60, Type (0, 0), BuildingBlock: CIFDUS_clean_linker_0, # of connection points: 2
#     Edge 61, Type (0, 0), BuildingBlock: CIFDUS_clean_linker_0, # of connection points: 2
#     Edge 62, Type (0, 0), BuildingBlock: CIFDUS_clean_linker_0, # of connection points: 2
#     Edge 63, Type (0, 0), BuildingBlock: CIFDUS_clean_linker_0, # of connection points: 2
#     Edge 64, Type (0, 0), BuildingBlock: CIFDUS_clean_linker_0, # of connection points: 2
#     Edge 65, Type (0, 0), BuildingBlock: CIFDUS_clean_linker_0, # of connection points: 2
#     Edge 66, Type (0, 0), BuildingBlock: CIFDUS_clean_linker_0, # of connection points: 2
#     Edge 67, Type (0, 0), BuildingBlock: CIFDUS_clean_linker_0, # of connection points: 2
#     Edge 68, Type (0, 0), BuildingBlock: CIFDUS_clean_linker_0, # of connection points: 2
#     Edge 69, Type (0, 0), BuildingBlock: CIFDUS_clean_linker_0, # of connection points: 2
#     Edge 70, Type (0, 0), BuildingBlock: CIFDUS_clean_linker_0, # of connection points: 2
#     Edge 71, Type (0, 0), BuildingBlock: CIFDUS_clean_linker_0, # of connection points: 2
#     Edge 72, Type (0, 0), BuildingBlock: CIFDUS_clean_linker_0, # of connection points: 2
#     Edge 73, Type (0, 0), BuildingBlock: CIFDUS_clean_linker_0, # of connection points: 2
#     Edge 74, Type (0, 0), BuildingBlock: CIFDUS_clean_linker_0, # of connection points: 2
#     Edge 75, Type (0, 0), BuildingBlock: CIFDUS_clean_linker_0, # of connection points: 2
#     Edge 76, Type (0, 0), BuildingBlock: CIFDUS_clean_linker_0, # of connection points: 2
#     Edge 77, Type (0, 0), BuildingBlock: CIFDUS_clean_linker_0, # of connection points: 2
#     Edge 78, Type (0, 0), BuildingBlock: CIFDUS_clean_linker_0, # of connection points: 2
#     Edge 79, Type (0, 0), BuildingBlock: CIFDUS_clean_linker_0, # of connection points: 2
#     Edge 80, Type (0, 0), BuildingBlock: CIFDUS_clean_linker_0, # of connection points: 2
#     Edge 81, Type (0, 0), BuildingBlock: CIFDUS_clean_linker_0, # of connection points: 2
#     Edge 82, Type (0, 0), BuildingBlock: CIFDUS_clean_linker_0, # of connection points: 2
#     Edge 83, Type (0, 0), BuildingBlock: CIFDUS_clean_linker_0, # of connection points: 2
#     Edge 84, Type (0, 0), BuildingBlock: CIFDUS_clean_linker_0, # of connection points: 2
#     Edge 85, Type (0, 0), BuildingBlock: CIFDUS_clean_linker_0, # of connection points: 2
#     Edge 86, Type (0, 0), BuildingBlock: CIFDUS_clean_linker_0, # of connection points: 2
#     Edge 87, Type (0, 0), BuildingBlock: CIFDUS_clean_linker_0, # of connection points: 2
#     Edge 88, Type (0, 0), BuildingBlock: CIFDUS_clean_linker_0, # of connection points: 2
#     Edge 89, Type (0, 0), BuildingBlock: CIFDUS_clean_linker_0, # of connection points: 2
#     Edge 90, Type (0, 0), BuildingBlock: CIFDUS_clean_linker_0, # of connection points: 2
#     Edge 91, Type (0, 0), BuildingBlock: CIFDUS_clean_linker_0, # of connection points: 2
#     Edge 92, Type (0, 0), BuildingBlock: CIFDUS_clean_linker_0, # of connection points: 2
#     Edge 93, Type (0, 0), BuildingBlock: CIFDUS_clean_linker_0, # of connection points: 2
#     Edge 94, Type (0, 0), BuildingBlock: CIFDUS_clean_linker_0, # of connection points: 2
#     Edge 95, Type (0, 0), BuildingBlock: CIFDUS_clean_linker_0, # of connection points: 2
#     Edge 96, Type (0, 0), BuildingBlock: CIFDUS_clean_linker_0, # of connection points: 2
#     Edge 97, Type (0, 0), BuildingBlock: CIFDUS_clean_linker_0, # of connection points: 2
#     Edge 98, Type (0, 0), BuildingBlock: CIFDUS_clean_linker_0, # of connection points: 2
#     Edge 99, Type (0, 0), BuildingBlock: CIFDUS_clean_linker_0, # of connection points: 2
#     Edge 100, Type (0, 0), BuildingBlock: CIFDUS_clean_linker_0, # of connection points: 2
#     Edge 101, Type (0, 0), BuildingBlock: CIFDUS_clean_linker_0, # of connection points: 2
#     Edge 102, Type (0, 0), BuildingBlock: CIFDUS_clean_linker_0, # of connection points: 2
#     Edge 103, Type (0, 0), BuildingBlock: CIFDUS_clean_linker_0, # of connection points: 2
#     Edge 104, Type (0, 0), BuildingBlock: CIFDUS_clean_linker_0, # of connection points: 2
#     Edge 105, Type (0, 0), BuildingBlock: CIFDUS_clean_linker_0, # of connection points: 2
#     Edge 106, Type (0, 0), BuildingBlock: CIFDUS_clean_linker_0, # of connection points: 2
#     Edge 107, Type (0, 0), BuildingBlock: CIFDUS_clean_linker_0, # of connection points: 2
#     Edge 108, Type (0, 0), BuildingBlock: CIFDUS_clean_linker_0, # of connection points: 2
#     Edge 109, Type (0, 0), BuildingBlock: CIFDUS_clean_linker_0, # of connection points: 2
#     Edge 110, Type (0, 0), BuildingBlock: CIFDUS_clean_linker_0, # of connection points: 2
#     Edge 111, Type (0, 0), BuildingBlock: CIFDUS_clean_linker_0, # of connection points: 2
#     Edge 112, Type (0, 0), BuildingBlock: CIFDUS_clean_linker_0, # of connection points: 2
#     Edge 113, Type (0, 0), BuildingBlock: CIFDUS_clean_linker_0, # of connection points: 2
#     Edge 114, Type (0, 0), BuildingBlock: CIFDUS_clean_linker_0, # of connection points: 2
#     Edge 115, Type (0, 0), BuildingBlock: CIFDUS_clean_linker_0, # of connection points: 2
#     Edge 116, Type (0, 0), BuildingBlock: CIFDUS_clean_linker_0, # of connection points: 2
#     Edge 117, Type (0, 0), BuildingBlock: CIFDUS_clean_linker_0, # of connection points: 2
#     Edge 118, Type (0, 0), BuildingBlock: CIFDUS_clean_linker_0, # of connection points: 2
#     Edge 119, Type (0, 0), BuildingBlock: CIFDUS_clean_linker_0, # of connection points: 2
#     Edge 120, Type (0, 0), BuildingBlock: CIFDUS_clean_linker_0, # of connection points: 2
#     Edge 121, Type (0, 0), BuildingBlock: CIFDUS_clean_linker_0, # of connection points: 2
#     Edge 122, Type (0, 0), BuildingBlock: CIFDUS_clean_linker_0, # of connection points: 2
#     Edge 123, Type (0, 0), BuildingBlock: CIFDUS_clean_linker_0, # of connection points: 2
#     Edge 124, Type (0, 0), BuildingBlock: CIFDUS_clean_linker_0, # of connection points: 2
#     Edge 125, Type (0, 0), BuildingBlock: CIFDUS_clean_linker_0, # of connection points: 2
#     Edge 126, Type (0, 0), BuildingBlock: CIFDUS_clean_linker_0, # of connection points: 2
#     Edge 127, Type (0, 0), BuildingBlock: CIFDUS_clean_linker_0, # of connection points: 2
# Relax obj value: 0.497
# Max RMSD: 0.192
# Mean RMSD: 0.192
data_MOF--net-wir--node1-CUWYAW_clean_sbu_0--edge1-CIFDUS_clean_linker_0
_symmetry_space_group_name_H-M    P1
_symmetry_Int_Tables_number       1
_symmetry_cell_setting            triclinic
loop_
_symmetry_equiv_pos_as_xyz
'x, y, z'
_cell_length_a     34.535561
_cell_length_b     34.544265
_cell_length_c     95.954624
_cell_angle_alpha  90.015007
_cell_angle_beta   90.124246
_cell_angle_gamma 89.928925
loop_
_atom_site_label
_atom_site_type_symbol
_atom_site_fract_x
_atom_site_fract_y
_atom_site_fract_z
_atom_type_partial_charge
C0 C 0.24906 0.14753 0.38853 0.0
Eu1 Eu 0.23841 0.20435 0.40604 0.0
C2 C 0.25314 0.1454 0.37333 0.0
C3 C 0.23464 0.1722 0.36462 0.0
C4 C 0.24785 0.17813 0.35104 0.0
C5 C 0.27936 0.15673 0.34571 0.0
C6 C 0.29488 0.12701 0.35419 0.0
C7 C 0.28235 0.12192 0.36787 0.0
C8 C 0.16482 0.24172 0.4079 0.0
C9 C 0.27357 0.25333 0.38097 0.0
C10 C 0.29365 0.30564 0.42243 0.0
Eu11 Eu 0.26189 0.24136 0.41385 0.0
C12 C 0.27681 0.34439 0.42198 0.0
C13 C 0.28915 0.37251 0.43146 0.0
C14 C 0.26539 0.40421 0.4343 0.0
C15 C 0.22885 0.40746 0.42787 0.0
C16 C 0.21866 0.38155 0.41725 0.0
C17 C 0.24269 0.35026 0.41425 0.0
C18 C 0.2953 0.18024 0.43589 0.0
C19 C 0.20992 0.20252 0.43525 0.0
O20 O 0.27702 0.16684 0.39445 0.0
O21 O 0.21518 0.15605 0.39375 0.0
O22 O 0.17198 0.20463 0.40888 0.0
O23 O 0.19867 0.25842 0.40628 0.0
O24 O 0.23954 0.24006 0.38457 0.0
O25 O 0.29522 0.25135 0.39222 0.0
O26 O 0.30108 0.29006 0.4104 0.0
O27 O 0.27528 0.28193 0.43056 0.0
O28 O 0.29381 0.18693 0.42224 0.0
O29 O 0.29257 0.18833 0.42213 0.0
O30 O 0.22215 0.23761 0.43269 0.0
O31 O 0.21518 0.17759 0.42527 0.0
H32 H 0.21126 0.19004 0.36851 0.0
H33 H 0.23367 0.20036 0.34502 0.0
H34 H 0.31703 0.10747 0.3505 0.0
H35 H 0.2968 0.10073 0.3744 0.0
H36 H 0.31527 0.36819 0.43754 0.0
H37 H 0.27369 0.42367 0.44265 0.0
H38 H 0.19062 0.38352 0.4122 0.0
H39 H 0.23282 0.32871 0.40686 0.0
C40 C 0.17352 1.00806 0.63898 0.0
Eu41 Eu 0.12466 0.98739 0.6581 0.0
C42 C 0.16841 1.01535 0.62388 0.0
C43 C 0.17413 0.98598 0.61403 0.0
C44 C 0.16853 0.9935 0.59986 0.0
C45 C 0.15678 1.03049 0.59524 0.0
C46 C 0.14941 0.05929 0.60518 0.0
C47 C 0.15575 0.05203 0.61928 0.0
C48 C 0.09138 0.91219 0.65984 0.0
C49 C 0.07384 1.01563 0.63264 0.0
C50 C 1.02377 1.03968 0.67413 0.0
Eu51 Eu 0.08871 1.00908 0.66566 0.0
C52 C 0.98503 1.02415 0.67174 0.0
C53 C 0.9553 1.03269 0.6811 0.0
C54 C 0.9244 1.007 0.68251 0.0
C55 C 0.92397 0.97228 0.67485 0.0
C56 C 0.95061 0.96692 0.66404 0.0
C57 C 0.98096 0.99302 0.66242 0.0
C58 C 0.14869 1.04333 0.68798 0.0
C59 C 0.13378 0.95884 0.68667 0.0
O60 O 0.15491 1.03239 0.64692 0.0
O61 O 0.17152 0.97237 0.6436 0.0
O62 O 0.12833 0.92092 0.66028 0.0
O63 O 0.07267 0.94525 0.65883 0.0
O64 O 0.08879 0.98297 0.637 0.0
O65 O 0.07521 1.03928 0.64337 0.0
O66 O 1.04197 0.05123 0.66306 0.0
O67 O 1.04542 1.01759 0.68187 0.0
O68 O 0.14192 1.04234 0.67433 0.0
O69 O 0.14054 1.04103 0.67424 0.0
O70 O 0.09784 0.96998 0.68464 0.0
O71 O 0.15686 0.96377 0.67612 0.0
H72 H 0.18362 0.95744 0.61723 0.0
H73 H 0.17539 0.97073 0.59251 0.0
H74 H 0.13992 0.08788 0.60204 0.0
H75 H 0.15062 0.0754 0.62657 0.0
H76 H 0.95813 0.05654 0.68837 0.0
H77 H 0.90422 1.01144 0.691 0.0
H78 H 0.95091 0.94018 0.65813 0.0
H79 H 1.00375 0.98614 0.65508 0.0
C80 C 0.34711 0.93607 0.88832 0.0
Eu81 Eu 0.36029 0.88277 0.90693 0.0
C82 C 0.34406 0.93415 0.87304 0.0
C83 C 0.3703 0.91259 0.86504 0.0
C84 C 0.36179 0.90355 0.85114 0.0
C85 C 0.32688 0.91599 0.84489 0.0
C86 C 0.30167 0.9391 0.85295 0.0
C87 C 0.31007 0.9478 0.8668 0.0
C88 C 0.43509 0.8486 0.90911 0.0
C89 C 0.33205 0.83428 0.88076 0.0
C90 C 0.30381 0.7809 0.91997 0.0
Eu91 Eu 0.33696 0.84638 0.91341 0.0
C92 C 0.31884 0.74178 0.91796 0.0
C93 C 0.30688 0.71195 0.92679 0.0
C94 C 0.33093 0.67995 0.92883 0.0
C95 C 0.36739 0.67854 0.92236 0.0
C96 C 0.37614 0.70516 0.91182 0.0
C97 C 0.35183 0.73676 0.90961 0.0
C98 C 0.29945 0.90373 0.93591 0.0
C99 C 0.38562 0.88493 0.93625 0.0
O100 O 0.31993 0.91658 0.89456 0.0
O101 O 0.38102 0.93123 0.89418 0.0
O102 O 0.42643 0.88538 0.91035 0.0
O103 O 0.40194 0.83054 0.90719 0.0
O104 O 0.36524 0.84513 0.8861 0.0
O105 O 0.30696 0.83837 0.89086 0.0
O106 O 0.29617 0.79991 0.90863 0.0
O107 O 0.32375 0.80163 0.92872 0.0
O108 O 0.30301 0.89896 0.92222 0.0
O109 O 0.30428 0.89759 0.92213 0.0
O110 O 0.37471 0.84972 0.93302 0.0
O111 O 0.38056 0.9106 0.92651 0.0
H112 H 0.39657 0.90119 0.86966 0.0
H113 H 0.38241 0.88594 0.84555 0.0
H114 H 0.27541 0.9513 0.84866 0.0
H115 H 0.28922 0.96424 0.87282 0.0
H116 H 0.28145 0.71544 0.93327 0.0
H117 H 0.32385 0.65975 0.93708 0.0
H118 H 0.40425 0.70468 0.90682 0.0
H119 H 0.36134 0.75957 0.90266 0.0
C120 C 0.40412 0.09118 0.13969 0.0
Eu121 Eu 0.45667 0.10948 0.15783 0.0
C122 C 0.40897 0.08427 0.12464 0.0
C123 C 0.41195 0.11528 0.11537 0.0
C124 C 0.42356 0.1089 0.1017 0.0
C125 C 0.43326 0.07133 0.09693 0.0
C126 C 0.42989 1.04027 0.10628 0.0
C127 C 0.4172 1.04657 0.11986 0.0
C128 C 0.49077 0.18458 0.15923 0.0
C129 C 0.50485 0.07673 0.13213 0.0
C130 C 0.5578 0.05582 0.1728 0.0
Eu131 Eu 0.49264 0.08742 0.16503 0.0
C132 C 0.59655 0.0718 0.17118 0.0
C133 C 0.62634 0.05949 0.17998 0.0
C134 C 0.65886 0.08279 0.18179 0.0
C135 C 0.66127 0.11891 0.17501 0.0
C136 C 0.63365 0.12863 0.16488 0.0
C137 C 0.60144 0.10503 0.16293 0.0
C138 C 0.43546 0.05123 0.18774 0.0
C139 C 0.45337 0.13844 0.18672 0.0
O140 O 0.42245 0.06594 0.14733 0.0
O141 O 0.40812 0.12663 0.1444 0.0
O142 O 0.45384 0.17613 0.16008 0.0
O143 O 0.5089 0.15126 0.15795 0.0
O144 O 0.49163 0.11063 0.13606 0.0
O145 O 0.50249 0.05467 0.14324 0.0
O146 O 0.54019 1.04707 0.16125 0.0
O147 O 0.53573 0.07568 0.18111 0.0
O148 O 0.43977 0.05457 0.17404 0.0
O149 O 0.44106 0.05571 0.17391 0.0
O150 O 0.48879 0.12784 0.18375 0.0
O151 O 0.42794 0.13198 0.17698 0.0
H152 H 0.40595 0.14463 0.11871 0.0
H153 H 0.42383 0.13379 0.09487 0.0
H154 H 0.43716 1.01103 0.10321 0.0
H155 H 0.41545 1.02194 0.12682 0.0
H156 H 0.62284 1.03394 0.1864 0.0
H157 H 0.67962 0.07473 0.18976 0.0
H158 H 0.63496 0.15626 0.15956 0.0
H159 H 0.57859 0.11473 0.15601 0.0
C160 C 0.24052 0.95651 0.28824 0.0
Eu161 Eu 0.23244 0.89266 0.2744 0.0
C162 C 0.26145 0.99272 0.28546 0.0
C163 C 0.24308 1.0278 0.28823 0.0
C164 C 0.26368 0.06229 0.28749 0.0
C165 C 0.3035 0.06252 0.28405 0.0
C166 C 0.32081 1.02747 0.27993 0.0
C167 C 0.29996 0.9928 0.28066 0.0
C168 C 0.15846 0.85498 0.27261 0.0
C169 C 0.26564 0.84185 0.29989 0.0
C170 C 0.28737 0.78894 0.25748 0.0
Eu171 Eu 0.25529 0.85251 0.26643 0.0
C172 C 0.27342 0.74934 0.25864 0.0
C173 C 0.2881 0.72103 0.24974 0.0
C174 C 0.26702 0.6873 0.24746 0.0
C175 C 0.23073 0.682 0.25392 0.0
C176 C 0.21882 0.70824 0.26422 0.0
C177 C 0.2401 0.74188 0.26655 0.0
C178 C 0.29132 0.91464 0.24555 0.0
C179 C 0.20693 0.89308 0.24439 0.0
O180 O 0.26194 0.92586 0.29042 0.0
O181 O 0.21042 0.94953 0.28038 0.0
O182 O 0.16592 0.89181 0.27167 0.0
O183 O 0.1922 0.83826 0.27445 0.0
O184 O 0.23544 0.86379 0.29713 0.0
O185 O 0.28433 0.83567 0.28817 0.0
O186 O 0.29688 0.80549 0.26915 0.0
O187 O 0.2656 0.81105 0.24977 0.0
O188 O 0.2895 0.90664 0.25912 0.0
O189 O 0.28828 0.90536 0.25918 0.0
O190 O 0.21752 0.85751 0.24705 0.0
O191 O 0.2118 0.91752 0.25451 0.0
H192 H 0.21327 1.02839 0.29174 0.0
H193 H 0.24884 0.08821 0.2909 0.0
H194 H 0.3511 1.02645 0.27705 0.0
H195 H 0.31458 0.96596 0.27813 0.0
H196 H 0.31377 0.72653 0.24358 0.0
H197 H 0.27702 0.66781 0.23939 0.0
H198 H 0.19123 0.70469 0.26941 0.0
H199 H 0.22857 0.76367 0.27353 0.0
C200 C 0.39564 0.97255 0.53618 0.0
Eu201 Eu 0.46022 0.97945 0.52249 0.0
C202 C 0.3541 0.98 0.53501 0.0
C203 C 0.32893 0.95425 0.54158 0.0
C204 C 0.28931 0.96128 0.54159 0.0
C205 C 0.274 0.99441 0.53505 0.0
C206 C 0.29925 1.01959 0.528 0.0
C207 C 0.33917 1.01229 0.5279 0.0
C208 C 0.50517 0.9106 0.52061 0.0
C209 C 0.50945 1.01267 0.54907 0.0
C210 C 0.56016 0.04971 0.50813 0.0
Eu211 Eu 0.50053 1.00865 0.51564 0.0
C212 C 0.60136 1.04143 0.50961 0.0
C213 C 0.62728 0.05897 0.50048 0.0
C214 C 0.66235 1.0409 0.49756 0.0
C215 C 0.67132 1.00465 0.50358 0.0
C216 C 0.6484 0.99126 0.51466 0.0
C217 C 0.61321 1.00938 0.51756 0.0
C218 C 0.43695 1.04045 0.49431 0.0
C219 C 0.47164 0.9575 0.49235 0.0
O220 O 0.41864 1.00242 0.53741 0.0
O221 O 0.40946 0.94574 0.52805 0.0
O222 O 0.46809 0.91383 0.51869 0.0
O223 O 0.5183 0.94567 0.52307 0.0
O224 O 0.48779 0.98309 0.5453 0.0
O225 O 0.51688 1.03379 0.53805 0.0
O226 O 0.54133 0.05558 0.51966 0.0
O227 O 0.54205 1.02599 0.49982 0.0
O228 O 0.44309 1.03703 0.50798 0.0
O229 O 0.44437 1.03607 0.50807 0.0
O230 O 0.50502 0.97176 0.49614 0.0
O231 O 0.4436 0.9604 0.50132 0.0
H232 H 0.34008 0.92926 0.54714 0.0
H233 H 0.27098 0.94194 0.54752 0.0
H234 H 0.28829 1.04555 0.52303 0.0
H235 H 0.35836 1.03235 0.52267 0.0
H236 H 0.61858 0.08394 0.49439 0.0
H237 H 0.67931 0.05273 0.48911 0.0
H238 H 0.65516 0.96421 0.51983 0.0
H239 H 0.59347 0.99579 0.52483 0.0
C240 C 0.3574 0.1391 0.78813 0.0
Eu241 Eu 0.35212 0.20359 0.77421 0.0
C242 C 0.35353 0.09729 0.78613 0.0
C243 C 0.38053 0.07359 0.79279 0.0
C244 C 0.37816 1.03367 0.79155 0.0
C245 C 0.34852 1.01629 0.78362 0.0
C246 C 0.32173 1.04019 0.77664 0.0
C247 C 0.32445 0.08063 0.77778 0.0
C248 C 0.42386 0.24347 0.77099 0.0
C249 C 0.31591 0.25197 0.80022 0.0
C250 C 0.28886 0.30599 0.75969 0.0
Eu251 Eu 0.32589 0.24334 0.76712 0.0
C252 C 0.30172 0.34612 0.75931 0.0
C253 C 0.27623 0.3758 0.75558 0.0
C254 C 0.29103 0.41134 0.75115 0.0
C255 C 0.3314 0.41621 0.74958 0.0
C256 C 0.35609 0.3887 0.75588 0.0
C257 C 0.34124 0.3539 0.76072 0.0
C258 C 0.28976 0.18207 0.74606 0.0
C259 C 0.37162 0.21 0.74347 0.0
O260 O 0.32606 0.16033 0.7879 0.0
O261 O 0.3863 0.1551 0.78168 0.0
O262 O 0.41691 0.20695 0.76897 0.0
O263 O 0.39021 0.25891 0.77424 0.0
O264 O 0.3478 0.23306 0.797 0.0
O265 O 0.29562 0.25618 0.78877 0.0
O266 O 0.28632 0.2908 0.77203 0.0
O267 O 0.30674 0.28327 0.75099 0.0
O268 O 0.29399 0.18776 0.7597 0.0
O269 O 0.29502 0.18899 0.75979 0.0
O270 O 0.36152 0.24477 0.74734 0.0
O271 O 0.36843 0.18322 0.75294 0.0
H272 H 0.40311 0.086 0.79926 0.0
H273 H 0.39848 1.01642 0.79752 0.0
H274 H 0.29826 1.02761 0.77067 0.0
H275 H 0.30353 0.09871 0.77243 0.0
H276 H 0.24535 0.37055 0.755 0.0
H277 H 0.27086 0.43299 0.74742 0.0
H278 H 0.38726 0.39107 0.75546 0.0
H279 H 0.36115 0.33146 0.76407 0.0
C280 C 0.20291 0.12232 1.02997 0.0
Eu281 Eu 0.13505 0.10826 1.02008 0.0
C282 C 0.24127 0.13021 1.0356 0.0
C283 C 0.2687 0.15087 1.02777 0.0
C284 C 0.30744 0.15114 1.03194 0.0
C285 C 0.31848 0.13066 1.04387 0.0
C286 C 0.29017 0.11426 1.05254 0.0
C287 C 0.25176 0.11382 1.04837 0.0
C288 C 0.09124 0.17745 1.01935 0.0
C289 C 0.09094 0.07223 1.04812 0.0
C290 C 1.03382 1.03491 1.0096 0.0
Eu291 Eu 0.09385 0.07802 1.01493 0.0
C292 C 0.99301 1.04562 1.00988 0.0
C293 C 0.96538 1.02131 1.00385 0.0
C294 C 0.93152 1.0374 0.99839 0.0
C295 C 0.92725 0.078 0.99806 0.0
C296 C 0.95047 0.10049 1.00696 0.0
C297 C 0.98352 0.08423 1.01285 0.0
C298 C 0.15524 1.04313 0.99313 0.0
C299 C 0.10861 0.12633 0.99022 0.0
O300 O 0.18185 0.09331 1.03431 0.0
O301 O 0.18771 0.14302 1.02004 0.0
O302 O 0.12768 0.1737 1.0166 0.0
O303 O 0.0779 0.14252 1.02204 0.0
O304 O 0.113 0.10176 1.04419 0.0
O305 O 0.08137 0.05245 1.03707 0.0
O306 O 0.05128 1.03528 1.02163 0.0
O307 O 0.05368 0.05274 0.99999 0.0
O308 O 0.15068 0.04911 1.00676 0.0
O309 O 0.14953 0.04994 1.00683 0.0
O310 O 0.07748 0.11496 0.99651 0.0
O311 O 0.1408 0.12168 0.99711 0.0
H312 H 0.26078 0.16446 1.01799 0.0
H313 H 0.32897 0.16471 1.02537 0.0
H314 H 0.29819 0.09943 1.06208 0.0
H315 H 0.23073 0.09876 1.05474 0.0
H316 H 0.97194 0.99114 1.00184 0.0
H317 H 0.91272 1.01911 0.99219 0.0
H318 H 0.9474 0.13167 1.0074 0.0
H319 H 1.00436 0.10312 1.01787 0.0
C320 C 0.79469 0.79366 0.76135 0.0
Eu321 Eu 0.83803 0.8539 0.76628 0.0
C322 C 0.80341 0.7524 0.76148 0.0
C323 C 0.78344 0.72821 0.75232 0.0
C324 C 0.80026 0.69356 0.74806 0.0
C325 C 0.83745 0.68314 0.75288 0.0
C326 C 0.85409 0.70439 0.76384 0.0
C327 C 0.83735 0.73923 0.76802 0.0
C328 C 0.80356 0.91245 0.74325 0.0
C329 C 0.88694 0.86677 0.74131 0.0
C330 C 0.86666 0.96184 0.78183 0.0
Eu331 Eu 0.86684 0.89342 0.77064 0.0
C332 C 0.8418 0.99644 0.78027 0.0
C333 C 0.80981 1.00107 0.7891 0.0
C334 C 0.7884 1.03512 0.78895 0.0
C335 C 0.79875 0.06592 0.78011 0.0
C336 C 0.82869 0.06009 0.77041 0.0
C337 C 0.85014 1.02562 0.77051 0.0
C338 C 0.93839 0.85363 0.76964 0.0
C339 C 0.83648 0.85002 0.79927 0.0
O340 O 0.79593 0.81117 0.77336 0.0
O341 O 0.81284 0.81284 0.75168 0.0
O342 O 0.80869 0.90916 0.75698 0.0
O343 O 0.80955 0.90799 0.75703 0.0
O344 O 0.87387 0.83646 0.74774 0.0
O345 O 0.88381 0.89941 0.74802 0.0
O346 O 0.88951 0.95255 0.77152 0.0
O347 O 0.84984 0.93172 0.78737 0.0
O348 O 0.93223 0.89024 0.76733 0.0
O349 O 0.90422 0.83814 0.77223 0.0
O350 O 0.86761 0.86713 0.79409 0.0
O351 O 0.81228 0.84487 0.78898 0.0
H352 H 0.75715 0.73806 0.74724 0.0
H353 H 0.78635 0.67795 0.73965 0.0
H354 H 0.88221 0.69654 0.768 0.0
H355 H 0.85303 0.75769 0.77521 0.0
H356 H 0.80237 0.97915 0.79671 0.0
H357 H 0.76607 1.03844 0.79677 0.0
H358 H 0.83726 0.08317 0.76344 0.0
H359 H 0.87429 1.02263 0.76341 0.0
C360 C 0.05356 1.04175 0.5125 0.0
Eu361 Eu 0.99161 0.08289 0.51725 0.0
C362 C 0.09419 0.05267 0.51373 0.0
C363 C 0.12314 1.02703 0.50947 0.0
C364 C 0.15817 1.04181 0.50457 0.0
C365 C 0.16242 0.08216 0.50289 0.0
C366 C 0.13727 0.10669 0.51032 0.0
C367 C 0.10307 0.09184 0.51574 0.0
C368 C 0.93424 0.05043 0.49436 0.0
C369 C 0.96856 0.13112 0.49225 0.0
C370 C 0.88052 0.11684 0.53268 0.0
Eu371 Eu 0.95001 0.11258 0.52239 0.0
C372 C 0.84306 0.09862 0.52954 0.0
C373 C 0.80899 0.11812 0.53304 0.0
C374 C 0.77405 0.098 0.53368 0.0
C375 C 0.77298 0.05781 0.53111 0.0
C376 C 0.80595 1.04002 0.52537 0.0
C377 C 0.84095 0.06025 0.52471 0.0
C378 C 0.99519 0.18172 0.52157 0.0
C379 C 0.99322 0.0804 0.55063 0.0
O380 O 1.03435 1.04018 0.52412 0.0
O381 O 1.03479 0.06065 0.50287 0.0
O382 O 0.93656 0.05316 0.50817 0.0
O383 O 0.93801 0.05433 0.50827 0.0
O384 O 1.00097 0.11781 0.49744 0.0
O385 O 0.93898 0.13058 0.50058 0.0
O386 O 0.89372 0.14144 0.52357 0.0
O387 O 0.90741 0.0938 0.53755 0.0
O388 O 0.95828 0.17864 0.51918 0.0
O389 O 1.00783 0.14661 0.52419 0.0
O390 O 0.97358 0.11067 0.54599 0.0
O391 O 1.00112 0.0578 0.54007 0.0
H392 H 0.11712 0.99641 0.50835 0.0
H393 H 0.17855 1.02196 0.49982 0.0
H394 H 0.14009 0.13786 0.5099 0.0
H395 H 0.08125 0.11181 0.51951 0.0
H396 H 0.80994 0.14797 0.53651 0.0
H397 H 0.74928 0.11292 0.53804 0.0
H398 H 0.8059 1.0093 0.52308 0.0
H399 H 0.86685 1.04485 0.52162 0.0
C400 C 0.7994 0.31356 0.26028 0.0
Eu401 Eu 0.76016 0.25075 0.26533 0.0
C402 C 0.78766 0.35396 0.26138 0.0
C403 C 0.81308 0.38365 0.2577 0.0
C404 C 0.79807 0.41949 0.25364 0.0
C405 C 0.75763 0.42411 0.2522 0.0
C406 C 0.73344 0.39746 0.25909 0.0
C407 C 0.7485 0.3623 0.26359 0.0
C408 C 0.79792 0.1906 0.24374 0.0
C409 C 0.71359 0.22881 0.24015 0.0
C410 C 0.7253 0.13875 0.28255 0.0
Eu411 Eu 0.73194 0.20624 0.27043 0.0
C412 C 0.73457 0.1291 0.29706 0.0
C413 C 0.72608 0.15556 0.30769 0.0
C414 C 0.74883 0.15683 0.31969 0.0
C415 C 0.77914 0.13 0.32177 0.0
C416 C 0.78299 0.09974 0.31191 0.0
C417 C 0.76154 0.0998 0.2996 0.0
C418 C 0.66116 0.24738 0.26796 0.0
C419 C 0.766 0.25287 0.29835 0.0
O420 O 0.80128 0.29493 0.27203 0.0
O421 O 0.78102 0.29399 0.25068 0.0
O422 O 0.79255 0.19582 0.25734 0.0
O423 O 0.7916 0.19695 0.25741 0.0
O424 O 0.72461 0.2611 0.24592 0.0
O425 O 0.71682 0.19761 0.24775 0.0
O426 O 0.75545 0.14937 0.27549 0.0
O427 O 0.69606 0.16162 0.2803 0.0
O428 O 0.66838 0.21205 0.26395 0.0
O429 O 0.69448 0.26155 0.27241 0.0
O430 O 0.73794 0.22993 0.29396 0.0
O431 O 0.78585 0.26453 0.28763 0.0
H432 H 0.84378 0.37802 0.25657 0.0
H433 H 0.81781 0.44088 0.24948 0.0
H434 H 0.70225 0.40027 0.25895 0.0
H435 H 0.72874 0.33988 0.26701 0.0
H436 H 0.70389 0.17736 0.30629 0.0
H437 H 0.74286 0.17981 0.32696 0.0
H438 H 0.80308 0.0761 0.3133 0.0
H439 H 0.76801 0.07852 0.29163 0.0
C440 C 0.52358 0.0599 1.00772 0.0
Eu441 Eu 0.585 1.01981 1.01428 0.0
C442 C 0.48292 0.04919 1.00861 0.0
C443 C 0.4567 0.06578 0.99931 0.0
C444 C 0.42268 1.04626 0.99605 0.0
C445 C 0.41506 1.0096 1.00194 0.0
C446 C 0.43822 0.99669 1.01306 0.0
C447 C 0.47235 1.01626 1.01629 0.0
C448 C 0.64427 0.05486 0.99242 0.0
C449 C 0.61597 0.96979 0.9907 0.0
C450 C 0.67655 0.9906 1.03783 0.0
Eu451 Eu 0.62013 0.99267 1.02053 0.0
C452 C 0.67832 0.97446 1.05191 0.0
C453 C 0.68213 0.93436 1.05395 0.0
C454 C 0.69685 0.92073 1.06651 0.0
C455 C 0.71073 0.94776 1.07618 0.0
C456 C 0.69455 0.98509 1.07607 0.0
C457 C 0.68005 0.99924 1.0635 0.0
C458 C 0.57901 0.9217 1.0187 0.0
C459 C 0.57596 1.02698 1.04738 0.0
O460 O 0.54154 0.06325 1.01956 0.0
O461 O 0.5433 1.03962 0.99877 0.0
O462 O 0.64058 0.0495 1.00607 0.0
O463 O 0.6393 0.04853 1.00617 0.0
O464 O 0.58203 0.98273 0.99454 0.0
O465 O 0.64315 0.97329 0.99998 0.0
O466 O 0.65498 1.02145 1.03633 0.0
O467 O 0.67329 0.96581 1.0276 0.0
O468 O 0.61623 0.92618 1.01739 0.0
O469 O 0.56436 0.95647 1.02047 0.0
O470 O 0.58812 0.99296 1.04301 0.0
O471 O 0.57747 0.0499 1.03651 0.0
H472 H 0.46449 0.09133 0.9934 0.0
H473 H 0.40551 0.0575 0.98751 0.0
H474 H 0.43257 0.96914 1.01803 0.0
H475 H 0.49236 1.00332 1.02366 0.0
H476 H 0.67812 0.91404 1.04547 0.0
H477 H 0.70592 0.89072 1.06702 0.0
H478 H 0.70222 1.00573 1.08411 0.0
H479 H 0.67471 1.03002 1.06244 0.0
C480 C 0.78733 0.31197 0.92054 0.0
Eu481 Eu 0.82232 0.24883 0.91237 0.0
C482 C 0.80324 0.35105 0.92101 0.0
C483 C 0.79448 0.37407 0.93257 0.0
C484 C 0.82277 0.39857 0.938 0.0
C485 C 0.85968 0.39957 0.93187 0.0
C486 C 0.86533 0.38284 0.91876 0.0
C487 C 0.83697 0.35853 0.91328 0.0
C488 C 0.79015 0.1877 0.93434 0.0
C489 C 0.87614 0.20948 0.93371 0.0
C490 C 0.83306 0.16086 0.88608 0.0
Eu491 Eu 0.84752 0.21241 0.90511 0.0
C492 C 0.82825 0.16492 0.87079 0.0
C493 C 0.85943 0.15941 0.86168 0.0
C494 C 0.85481 0.16595 0.84739 0.0
C495 C 0.81904 0.1787 0.84188 0.0
C496 C 0.78807 0.18459 0.85109 0.0
C497 C 0.7924 0.17713 0.86527 0.0
C498 C 0.91999 0.25106 0.90737 0.0
C499 C 0.81808 0.26116 0.87938 0.0
O500 O 0.78262 0.297 0.90823 0.0
O501 O 0.8049 0.28819 0.92891 0.0
O502 O 0.79122 0.19432 0.92069 0.0
O503 O 0.79255 0.19581 0.92062 0.0
O504 O 0.86264 0.24439 0.93128 0.0
O505 O 0.87139 0.18437 0.92375 0.0
O506 O 0.80637 0.17832 0.89334 0.0
O507 O 0.86767 0.16537 0.89148 0.0
O508 O 0.9146 0.21351 0.90768 0.0
O509 O 0.88563 0.26717 0.90619 0.0
O510 O 0.85119 0.24837 0.88414 0.0
O511 O 0.79338 0.25873 0.88974 0.0
H512 H 0.76858 0.36867 0.93862 0.0
H513 H 0.81802 0.41152 0.94814 0.0
H514 H 0.8936 0.38355 0.9139 0.0
H515 H 0.84415 0.34107 0.90426 0.0
H516 H 0.88733 0.14994 0.86557 0.0
H517 H 0.87914 0.15985 0.84064 0.0
H518 H 0.7603 0.19492 0.84738 0.0
H519 H 0.7676 0.18185 0.87195 0.0
C520 C 0.54037 0.05701 0.67173 0.0
Eu521 Eu 0.60418 0.08934 0.66329 0.0
C522 C 0.50072 0.07144 0.67074 0.0
C523 C 0.46912 1.04665 0.67221 0.0
C524 C 0.43226 0.06215 0.67449 0.0
C525 C 0.42734 0.10255 0.67625 0.0
C526 C 0.45825 0.12679 0.67219 0.0
C527 C 0.49453 0.11129 0.66944 0.0
C528 C 0.66834 0.05511 0.68406 0.0
C529 C 0.64212 0.13869 0.68602 0.0
C530 C 0.71193 0.11087 0.64116 0.0
Eu531 Eu 0.64832 0.11407 0.65578 0.0
C532 C 0.71809 0.08712 0.62864 0.0
C533 C 0.74428 0.09878 0.61837 0.0
C534 C 0.74706 0.07788 0.60593 0.0
C535 C 0.72333 1.04547 0.60359 0.0
C536 C 0.69748 1.03347 0.61389 0.0
C537 C 0.6952 0.05393 0.62641 0.0
C538 C 0.60815 0.1865 0.65831 0.0
C539 C 0.59769 0.07877 0.62974 0.0
O540 O 0.55675 0.04851 0.65994 0.0
O541 O 0.56293 0.07735 0.67979 0.0
O542 O 0.65872 0.0553 0.6706 0.0
O543 O 0.65739 0.05663 0.67054 0.0
O544 O 0.60744 0.12622 0.68283 0.0
O545 O 0.66795 0.13735 0.67615 0.0
O546 O 0.70689 0.09155 0.65261 0.0
O547 O 0.68664 0.1385 0.63988 0.0
O548 O 0.6448 0.17957 0.66061 0.0
O549 O 0.59274 0.15284 0.65523 0.0
O550 O 0.62378 0.105 0.63284 0.0
O551 O 0.58509 0.06274 0.64127 0.0
H552 H 0.47325 1.01556 0.67247 0.0
H553 H 0.40874 1.0421 0.67618 0.0
H554 H 0.45653 0.15795 0.67262 0.0
H555 H 0.51856 0.13079 0.66762 0.0
H556 H 0.76196 0.12434 0.61985 0.0
H557 H 0.76714 0.08746 0.59799 0.0
H558 H 0.67899 1.00859 0.61221 0.0
H559 H 0.67484 1.04432 0.63425 0.0
C560 C 0.79573 0.78236 0.42312 0.0
Eu561 Eu 0.75776 0.84446 0.41595 0.0
C562 C 0.78576 0.74199 0.42049 0.0
C563 C 0.80482 0.71264 0.42782 0.0
C564 C 0.78467 0.67879 0.43104 0.0
C565 C 0.74482 0.67684 0.42796 0.0
C566 C 0.73017 0.70055 0.41733 0.0
C567 C 0.75046 0.73397 0.4138 0.0
C568 C 0.79053 0.90488 0.4373 0.0
C569 C 0.7051 0.87752 0.43872 0.0
C570 C 0.72806 0.95328 0.39574 0.0
Eu571 Eu 0.73128 0.88711 0.40869 0.0
C572 C 0.7584 0.97873 0.39055 0.0
C573 C 0.74895 1.00605 0.38043 0.0
C574 C 0.77773 1.02925 0.37481 0.0
C575 C 0.81642 1.02574 0.37934 0.0
C576 C 0.82624 0.99748 0.38917 0.0
C577 C 0.79719 0.97398 0.39479 0.0
C578 C 0.66021 0.84462 0.41033 0.0
C579 C 0.76846 0.83853 0.38237 0.0
O580 O 0.80389 0.80262 0.41211 0.0
O581 O 0.77166 0.80033 0.43137 0.0
O582 O 0.78954 0.89977 0.42359 0.0
O583 O 0.78842 0.89847 0.42344 0.0
O584 O 0.72047 0.844 0.43552 0.0
O585 O 0.7063 0.90407 0.42913 0.0
O586 O 0.7254 0.95002 0.4092 0.0
O587 O 0.72606 0.92006 0.38947 0.0
O588 O 0.6648 0.8816 0.41198 0.0
O589 O 0.69476 0.8304 0.40806 0.0
O590 O 0.74277 0.86567 0.38514 0.0
O591 O 0.78291 0.82544 0.39409 0.0
H592 H 0.83261 0.71801 0.43271 0.0
H593 H 0.79709 0.65948 0.43875 0.0
H594 H 0.70001 0.69851 0.41427 0.0
H595 H 0.73588 0.75606 0.40771 0.0
H596 H 0.71939 1.00918 0.37676 0.0
H597 H 0.76975 0.05003 0.36684 0.0
H598 H 0.85599 0.99378 0.39251 0.0
H599 H 0.80497 0.95202 0.40233 0.0
C600 C 0.06624 0.06078 0.17037 0.0
Eu601 Eu 1.00511 1.0191 0.16513 0.0
C602 C 0.10662 0.049 0.16927 0.0
C603 C 0.13657 0.07406 0.17299 0.0
C604 C 0.17278 0.05871 0.17646 0.0
C605 C 0.1776 1.01814 0.17743 0.0
C606 C 0.15024 0.99458 0.17056 0.0
C607 C 0.11478 1.01004 0.16657 0.0
C608 C 0.94245 0.05004 0.1874 0.0
C609 C 0.98578 0.96748 0.18906 0.0
C610 C 0.90743 0.98598 0.14397 0.0
Eu611 Eu 0.9678 0.99074 0.15946 0.0
C612 C 0.90563 0.96833 0.1302 0.0
C613 C 0.92454 0.93304 0.12745 0.0
C614 C 0.92281 0.91669 0.11419 0.0
C615 C 0.90224 0.93546 0.10354 0.0
C616 C 0.88715 0.97294 0.10612 0.0
C617 C 0.88857 0.98894 0.11935 0.0
C618 C 1.00914 0.92016 0.16034 0.0
C619 C 1.01286 1.02566 0.13228 0.0
O620 O 1.04763 0.06206 0.1586 0.0
O621 O 1.0468 1.04247 0.17996 0.0
O622 O 0.94892 0.04764 0.17374 0.0
O623 O 0.95024 1.04662 0.17371 0.0
O624 O 1.01742 0.98212 0.18401 0.0
O625 O 0.95504 0.97056 0.18125 0.0
O626 O 0.92864 1.01727 0.14451 0.0
O627 O 0.91347 0.96238 0.15439 0.0
O628 O 0.97218 0.92451 0.1624 0.0
O629 O 1.02357 0.95499 0.1583 0.0
O630 O 0.99828 0.9924 0.13657 0.0
O631 O 1.01349 0.04852 0.14311 0.0
H632 H 0.13111 0.10469 0.17444 0.0
H633 H 0.19471 0.07831 0.18035 0.0
H634 H 0.15297 0.96344 0.17015 0.0
H635 H 0.09219 0.99061 0.16304 0.0
H636 H 0.93976 0.91756 0.1356 0.0
H637 H 0.93521 0.88825 0.11251 0.0
H638 H 0.87114 0.98894 0.0983 0.0
H639 H 0.87543 1.017 0.12118 0.0
C640 C 0.76347 0.67219 0.88726 0.0
Eu641 Eu 0.74511 0.71897 0.90705 0.0
C642 C 0.76427 0.67899 0.8722 0.0
C643 C 0.73061 0.68925 0.86485 0.0
C644 C 0.73144 0.6906 0.85035 0.0
C645 C 0.76445 0.67685 0.84342 0.0
C646 C 0.79999 0.67814 0.85052 0.0
C647 C 0.79973 0.67735 0.86506 0.0
C648 C 0.6695 0.7518 0.90886 0.0
C649 C 0.77278 0.77068 0.88171 0.0
C650 C 0.79955 0.81586 0.92359 0.0
Eu651 Eu 0.76694 0.75263 0.91451 0.0
C652 C 0.78563 0.85552 0.92253 0.0
C653 C 0.79948 0.88321 0.93184 0.0
C654 C 0.77788 0.91654 0.9343 0.0
C655 C 0.7419 0.92209 0.92758 0.0
C656 C 0.73096 0.89668 0.91686 0.0
C657 C 0.75275 0.86343 0.91436 0.0
C658 C 0.80181 0.69089 0.93626 0.0
C659 C 0.71656 0.70833 0.93534 0.0
O660 O 0.78922 0.69215 0.89414 0.0
O661 O 0.72961 0.67089 0.89343 0.0
O662 O 0.67847 0.71493 0.90874 0.0
O663 O 0.70262 0.77056 0.90839 0.0
O664 O 0.73986 0.75692 0.88633 0.0
O665 O 0.79697 0.76748 0.89225 0.0
O666 O 0.80872 0.79943 0.91188 0.0
O667 O 0.77792 0.79373 0.93125 0.0
O668 O 0.80023 0.6986 0.92266 0.0
O669 O 0.79892 0.7 0.92262 0.0
O670 O 0.72786 0.7442 0.93349 0.0
O671 O 0.72197 0.68555 0.92476 0.0
H672 H 0.70336 0.69391 0.87016 0.0
H673 H 0.70409 0.6931 0.84485 0.0
H674 H 0.82647 0.67035 0.84517 0.0
H675 H 0.82661 0.67225 0.87061 0.0
H676 H 0.8248 0.87737 0.9382 0.0
H677 H 0.78722 0.93536 0.94268 0.0
H678 H 0.70372 0.9005 0.91141 0.0
H679 H 0.74189 0.84215 0.90704 0.0
C680 C 0.67189 0.51645 0.13868 0.0
Eu681 Eu 0.62343 0.49281 0.15741 0.0
C682 C 0.6668 0.53011 0.12428 0.0
C683 C 0.66175 0.5045 0.11312 0.0
C684 C 0.66242 0.5187 0.09952 0.0
C685 C 0.67116 0.55798 0.09713 0.0
C686 C 0.66699 0.58426 0.10812 0.0
C687 C 0.66629 0.5703 0.1217 0.0
C688 C 0.59053 0.41756 0.15899 0.0
C689 C 0.57556 0.52038 0.13128 0.0
C690 C 0.52749 0.55142 0.17126 0.0
Eu691 Eu 0.59095 0.51516 0.16426 0.0
C692 C 0.48719 0.54018 0.16931 0.0
C693 C 0.45718 0.56522 0.17299 0.0
C694 C 0.42056 0.55001 0.17579 0.0
C695 C 0.41538 0.50942 0.17624 0.0
C696 C 0.44282 0.48643 0.16914 0.0
C697 C 0.47879 0.50179 0.16582 0.0
C698 C 0.64975 0.54844 0.18754 0.0
C699 C 0.63158 0.46289 0.18555 0.0
O700 O 0.65544 0.53906 0.14771 0.0
O701 O 0.66767 0.47962 0.14164 0.0
O702 O 0.62761 0.42615 0.15894 0.0
O703 O 0.57184 0.45083 0.1586 0.0
O704 O 0.58647 0.48707 0.13645 0.0
O705 O 0.58077 0.54506 0.14154 0.0
O706 O 0.54648 0.55859 0.15992 0.0
O707 O 0.54698 0.52917 0.17968 0.0
O708 O 0.64434 0.54657 0.17383 0.0
O709 O 0.64287 0.54529 0.17369 0.0
O710 O 0.59639 0.47617 0.18345 0.0
O711 O 0.65509 0.46697 0.17508 0.0
H712 H 0.65985 0.47357 0.11482 0.0
H713 H 0.66383 0.49789 0.09108 0.0
H714 H 0.67249 0.61479 0.10646 0.0
H715 H 0.66841 0.59097 0.13016 0.0
H716 H 0.46278 0.59561 0.17493 0.0
H717 H 0.3985 0.5696 0.17957 0.0
H718 H 0.43969 0.4555 0.16801 0.0
H719 H 0.50137 0.48254 0.16217 0.0
C720 C 0.84214 0.43275 0.38726 0.0
Eu721 Eu 0.85982 0.38162 0.40611 0.0
C722 C 0.83334 0.42753 0.37224 0.0
C723 C 0.86182 0.43225 0.36201 0.0
C724 C 0.85291 0.42582 0.34796 0.0
C725 C 0.81542 0.41406 0.34386 0.0
C726 C 0.78751 0.40789 0.3542 0.0
C727 C 0.79608 0.41522 0.36813 0.0
C728 C 0.93477 0.34718 0.40796 0.0
C729 C 0.83029 0.33218 0.38033 0.0
C730 C 0.80955 0.2775 0.4204 0.0
Eu731 Eu 0.83767 0.3443 0.4131 0.0
C732 C 0.82998 0.24051 0.41926 0.0
C733 C 0.81021 0.20534 0.41829 0.0
C734 C 0.83079 0.17055 0.41947 0.0
C735 C 0.87095 0.17094 0.42248 0.0
C736 C 0.89087 0.2062 0.42076 0.0
C737 C 0.8705 0.24056 0.4193 0.0
C738 C 0.8003 0.40261 0.43539 0.0
C739 C 0.88733 0.38572 0.43506 0.0
O740 O 0.81704 0.41653 0.39548 0.0
O741 O 0.87776 0.42776 0.39164 0.0
O742 O 0.92639 0.38411 0.40914 0.0
O743 O 0.90161 0.32934 0.40617 0.0
O744 O 0.86323 0.34591 0.38492 0.0
O745 O 0.80637 0.33388 0.39092 0.0
O746 O 0.80141 0.29392 0.40859 0.0
O747 O 0.82471 0.30182 0.42922 0.0
O748 O 0.8029 0.3966 0.42174 0.0
O749 O 0.80421 0.39526 0.42164 0.0
O750 O 0.87749 0.35003 0.43206 0.0
O751 O 0.88095 0.41105 0.42528 0.0
H752 H 0.89078 0.44144 0.36482 0.0
H753 H 0.87505 0.43176 0.34028 0.0
H754 H 0.7586 0.3983 0.35152 0.0
H755 H 0.77328 0.41083 0.3757 0.0
H756 H 0.77894 0.20479 0.4174 0.0
H757 H 0.81452 0.14382 0.41948 0.0
H758 H 0.92177 0.2087 0.42229 0.0
H759 H 0.88649 0.26745 0.41941 0.0
C760 C 0.90913 0.58544 0.63965 0.0
Eu761 Eu 0.96038 0.60375 0.6582 0.0
C762 C 0.9129 0.58507 0.62435 0.0
C763 C 0.90763 0.61907 0.61669 0.0
C764 C 0.91773 0.62033 0.60269 0.0
C765 C 0.93404 0.58775 0.59598 0.0
C766 C 0.9383 0.55335 0.60361 0.0
C767 C 0.92731 0.55186 0.61757 0.0
C768 C 0.99385 0.67905 0.65949 0.0
C769 C 1.01127 0.5771 0.63225 0.0
C770 C 0.06068 0.54844 0.67344 0.0
Eu771 Eu 0.99683 0.58183 0.66517 0.0
C772 C 0.1009 0.5602 0.67196 0.0
C773 C 0.12885 0.54354 0.68058 0.0
C774 C 0.16376 0.56265 0.68278 0.0
C775 C 0.17061 0.59898 0.67653 0.0
C776 C 0.14489 0.6123 0.66623 0.0
C777 C 0.10992 0.5931 0.66403 0.0
C778 C 0.93936 0.54812 0.68795 0.0
C779 C 0.95683 0.63403 0.68663 0.0
O780 O 0.93108 0.56002 0.64595 0.0
O781 O 0.90922 0.61921 0.64594 0.0
O782 O 0.95695 0.67033 0.66008 0.0
O783 O 1.01252 0.64595 0.65848 0.0
O784 O 0.99523 0.60911 0.6368 0.0
O785 O 1.01079 0.55296 0.6428 0.0
O786 O 1.04294 0.53955 0.66194 0.0
O787 O 1.04007 0.57124 0.68126 0.0
O788 O 0.94406 0.54852 0.67419 0.0
O789 O 0.94549 0.54989 0.67414 0.0
O790 O 0.99236 0.62335 0.68372 0.0
O791 O 0.93125 0.62661 0.67704 0.0
H792 H 0.89632 0.64502 0.62156 0.0
H793 H 0.91186 0.64696 0.59714 0.0
H794 H 0.95062 0.52765 0.59892 0.0
H795 H 0.93175 0.52505 0.62321 0.0
H796 H 0.12222 0.51799 0.68667 0.0
H797 H 0.18282 0.5513 0.69077 0.0
H798 H 0.14974 0.63974 0.66106 0.0
H799 H 0.08848 0.60602 0.6572 0.0
C800 C 0.7258 0.4394 0.78487 0.0
Eu801 Eu 0.72842 0.37982 0.76896 0.0
C802 C 0.7104 0.44324 0.79903 0.0
C803 C 0.67267 0.45709 0.80125 0.0
C804 C 0.66184 0.46945 0.8145 0.0
C805 C 0.69002 0.47092 0.82506 0.0
C806 C 0.72319 0.44769 0.82372 0.0
C807 C 0.73406 0.43497 0.81058 0.0
C808 C 0.65583 0.34211 0.76752 0.0
C809 C 0.75671 0.3368 0.79696 0.0
C810 C 0.79415 0.27929 0.76018 0.0
Eu811 Eu 0.75471 0.34282 0.76427 0.0
C812 C 0.78327 0.23894 0.76221 0.0
C813 C 0.80956 0.20921 0.75946 0.0
C814 C 0.79569 0.17209 0.75662 0.0
C815 C 0.75538 0.16574 0.75538 0.0
C816 C 0.73058 0.19329 0.7616 0.0
C817 C 0.74448 0.22998 0.76481 0.0
C818 C 0.79396 0.39624 0.74157 0.0
C819 C 0.70881 0.369 0.73896 0.0
O820 O 0.75692 0.41806 0.78363 0.0
O821 O 0.70055 0.43374 0.77493 0.0
O822 O 0.66317 0.37808 0.76447 0.0
O823 O 0.68949 0.3262 0.77054 0.0
O824 O 0.7243 0.34966 0.79144 0.0
O825 O 0.78222 0.3365 0.78697 0.0
O826 O 0.79652 0.29976 0.77149 0.0
O827 O 0.77488 0.29715 0.75042 0.0
O828 O 0.78724 0.39615 0.7552 0.0
O829 O 0.78622 0.39488 0.75527 0.0
O830 O 0.72046 0.33579 0.744 0.0
O831 O 0.71182 0.39804 0.74748 0.0
H832 H 0.65295 0.46181 0.79262 0.0
H833 H 0.63499 0.4854 0.8156 0.0
H834 H 0.74459 0.44615 0.83198 0.0
H835 H 0.76249 0.42216 0.80934 0.0
H836 H 0.84013 0.21534 0.75825 0.0
H837 H 0.81641 0.15024 0.75354 0.0
H838 H 0.69959 0.18945 0.76205 0.0
H839 H 0.7241 0.25247 0.76768 0.0
C840 C 0.90284 0.47369 1.03348 0.0
Eu841 Eu 0.9669 0.4831 1.02012 0.0
C842 C 0.89431 0.4629 1.04788 0.0
C843 C 0.91075 0.48388 1.05897 0.0
C844 C 0.89227 0.48479 1.07178 0.0
C845 C 0.85661 0.46605 1.07318 0.0
C846 C 0.84643 0.43713 1.06352 0.0
C847 C 0.86464 0.43646 1.05058 0.0
C848 C 1.01048 0.41449 1.01886 0.0
C849 C 1.01032 0.51599 1.04829 0.0
C850 C 0.06505 0.55885 1.01131 0.0
Eu851 Eu 1.00548 0.51406 1.01537 0.0
C852 C 0.10597 0.54957 1.01295 0.0
C853 C 0.13418 0.57432 1.00758 0.0
C854 C 0.16949 0.55881 1.0032 0.0
C855 C 0.17427 0.51824 1.00295 0.0
C856 C 0.15042 0.49583 1.01165 0.0
C857 C 0.11595 0.51153 1.01656 0.0
C858 C 0.94439 0.54625 0.99269 0.0
C859 C 0.99029 0.4651 0.99042 0.0
O860 O 0.91945 0.50736 1.03187 0.0
O861 O 0.9172 0.4469 1.02546 0.0
O862 O 0.97407 0.41817 1.01564 0.0
O863 O 1.02361 0.44935 1.02201 0.0
O864 O 0.99431 0.48421 1.04326 0.0
O865 O 1.01405 0.54035 1.03802 0.0
O866 O 1.04502 0.55888 1.02276 0.0
O867 O 0.04791 0.53951 1.00138 0.0
O868 O 0.94882 0.54128 1.00639 0.0
O869 O 0.95013 0.54036 1.00643 0.0
O870 O 1.02089 0.48051 0.99603 0.0
O871 O 0.95878 0.46568 0.99785 0.0
H872 H 0.93437 0.50379 1.05733 0.0
H873 H 0.9017 0.50613 1.07934 0.0
H874 H 0.81977 0.42101 1.06478 0.0
H875 H 0.85252 0.41895 1.04228 0.0
H876 H 0.12732 0.60421 1.00519 0.0
H877 H 0.18906 0.57735 0.99746 0.0
H878 H 0.15401 0.46478 1.01247 0.0
H879 H 0.09473 0.49238 1.0212 0.0
C880 C 0.86007 0.64486 0.28746 0.0
Eu881 Eu 0.85594 0.70962 0.27366 0.0
C882 C 0.85417 0.60344 0.28492 0.0
C883 C 0.88115 0.57754 0.29049 0.0
C884 C 0.87556 0.53786 0.2892 0.0
C885 C 0.84258 0.52313 0.28237 0.0
C886 C 0.81654 0.54924 0.2761 0.0
C887 C 0.82242 0.58924 0.27729 0.0
C888 C 0.92792 0.751 0.27127 0.0
C889 C 0.82006 0.76155 0.29882 0.0
C890 C 0.80028 0.81463 0.25577 0.0
Eu891 Eu 0.83147 0.75128 0.26538 0.0
C892 C 0.81634 0.85356 0.25706 0.0
C893 C 0.80805 0.88132 0.24687 0.0
C894 C 0.83391 0.91172 0.24465 0.0
C895 C 0.8684 0.91381 0.25242 0.0
C896 C 0.87396 0.88901 0.26377 0.0
C897 C 0.84777 0.85914 0.26617 0.0
C898 C 0.79466 0.68787 0.24512 0.0
C899 C 0.87885 0.71038 0.24328 0.0
O900 O 0.82955 0.6673 0.28759 0.0
O901 O 0.8893 0.66028 0.28101 0.0
O902 O 0.92141 0.71451 0.26905 0.0
O903 O 0.89384 0.76561 0.27427 0.0
O904 O 0.84856 0.73713 0.29645 0.0
O905 O 0.80328 0.77033 0.28691 0.0
O906 O 0.78956 0.79844 0.26738 0.0
O907 O 0.82155 0.79156 0.24827 0.0
O908 O 0.79786 0.69583 0.25866 0.0
O909 O 0.79896 0.69706 0.25876 0.0
O910 O 0.86945 0.74615 0.24613 0.0
O911 O 0.87341 0.68556 0.25324 0.0
H912 H 0.90592 0.58804 0.29633 0.0
H913 H 0.89571 0.51884 0.29452 0.0
H914 H 0.79075 0.53874 0.27089 0.0
H915 H 0.80156 0.60893 0.27269 0.0
H916 H 0.78414 0.87718 0.2397 0.0
H917 H 0.82957 0.93035 0.2357 0.0
H918 H 0.90069 0.88987 0.2697 0.0
H919 H 0.85468 0.83776 0.27406 0.0
C920 C 0.70877 0.61679 0.52739 0.0
Eu921 Eu 0.63753 0.60647 0.51963 0.0
C922 C 0.7415 0.63554 0.53439 0.0
C923 C 0.76559 0.66032 0.5266 0.0
C924 C 0.80368 0.66698 0.53081 0.0
C925 C 0.81768 0.64898 0.54283 0.0
C926 C 0.79221 0.62844 0.55151 0.0
C927 C 0.75431 0.62155 0.54728 0.0
C928 C 0.59289 0.67591 0.51952 0.0
C929 C 0.59183 0.57149 0.5471 0.0
C930 C 0.53249 0.53557 0.50847 0.0
Eu931 Eu 0.59359 0.57722 0.5136 0.0
C932 C 0.49205 0.54658 0.51059 0.0
C933 C 0.46213 0.52318 0.50556 0.0
C934 C 0.42671 0.54018 0.50202 0.0
C935 C 0.42322 0.58088 0.50227 0.0
C936 C 0.4492 0.6019 0.51062 0.0
C937 C 0.48394 0.58474 0.51467 0.0
C938 C 0.65706 0.54444 0.49212 0.0
C939 C 0.61236 0.6275 0.48967 0.0
O940 O 0.6853 0.59354 0.53404 0.0
O941 O 0.69273 0.63452 0.51693 0.0
O942 O 0.62979 0.67263 0.51754 0.0
O943 O 0.57963 0.64076 0.52156 0.0
O944 O 0.61794 0.59794 0.54367 0.0
O945 O 0.57851 0.55468 0.53588 0.0
O946 O 0.55298 0.53203 0.5198 0.0
O947 O 0.55025 0.55598 0.49898 0.0
O948 O 0.65028 0.54768 0.50575 0.0
O949 O 0.64906 0.54863 0.5058 0.0
O950 O 0.5806 0.61317 0.49465 0.0
O951 O 0.64322 0.62425 0.49736 0.0
H952 H 0.75633 0.6715 0.51659 0.0
H953 H 0.82296 0.6832 0.52411 0.0
H954 H 0.80264 0.61492 0.561 0.0
H955 H 0.7364 0.60246 0.55348 0.0
H956 H 0.46751 0.49322 0.50283 0.0
H957 H 0.40574 0.52284 0.49639 0.0
H958 H 0.44665 0.63302 0.51168 0.0
H959 H 0.50649 0.60283 0.51907 0.0
C960 C 0.294 0.28038 0.25575 0.0
Eu961 Eu 0.3303 0.34288 0.26379 0.0
C962 C 0.30188 0.23935 0.25776 0.0
C963 C 0.28292 0.21251 0.24934 0.0
C964 C 0.2992 0.17609 0.24735 0.0
C965 C 0.33524 0.1669 0.25349 0.0
C966 C 0.34958 0.19109 0.26409 0.0
C967 C 0.33327 0.22764 0.26607 0.0
C968 C 0.29957 0.40204 0.24084 0.0
C969 C 0.38326 0.38377 0.243 0.0
C970 C 0.33213 0.42362 0.29049 0.0
Eu971 Eu 0.35214 0.37577 0.27121 0.0
C972 C 0.32585 0.41607 0.30541 0.0
C973 C 0.35692 0.41419 0.31482 0.0
C974 C 0.34957 0.41151 0.32906 0.0
C975 C 0.31117 0.41409 0.33387 0.0
C976 C 0.28123 0.40507 0.32455 0.0
C977 C 0.28818 0.40835 0.3103 0.0
C978 C 0.42744 0.34327 0.26985 0.0
C979 C 0.32176 0.32649 0.29658 0.0
O980 O 0.28531 0.29955 0.26694 0.0
O981 O 0.31921 0.29856 0.24813 0.0
O982 O 0.29873 0.39657 0.25455 0.0
O983 O 0.30014 0.39502 0.25465 0.0
O984 O 0.37035 0.34849 0.24497 0.0
O985 O 0.37803 0.40722 0.25345 0.0
O986 O 0.30714 0.40656 0.28236 0.0
O987 O 0.36762 0.42221 0.28567 0.0
O988 O 0.41858 0.38018 0.27003 0.0
O989 O 0.39439 0.3243 0.27002 0.0
O990 O 0.35573 0.33855 0.29241 0.0
O991 O 0.29892 0.33113 0.28576 0.0
H992 H 0.25814 0.22106 0.2431 0.0
H993 H 0.28654 0.15803 0.23933 0.0
H994 H 0.37644 0.18416 0.26939 0.0
H995 H 0.34763 0.24806 0.27291 0.0
H996 H 0.38653 0.41738 0.31131 0.0
H997 H 0.37367 0.41572 0.33615 0.0
H998 H 0.25148 0.40468 0.32811 0.0
H999 H 0.26372 0.40718 0.30323 0.0
C1000 C 0.55179 0.5437 1.00954 0.0
Eu1001 Eu 0.49115 0.58578 1.01529 0.0
C1002 C 0.59248 0.55465 1.00962 0.0
C1003 C 0.62115 0.52829 1.00571 0.0
C1004 C 0.65727 0.54203 1.00145 0.0
C1005 C 0.66362 0.58227 1.00018 0.0
C1006 C 0.63715 0.60755 1.0067 0.0
C1007 C 0.60181 0.59371 1.0114 0.0
C1008 C 0.42873 0.55284 0.99348 0.0
C1009 C 0.47005 0.6377 0.99095 0.0
C1010 C 0.39218 0.61678 1.03662 0.0
Eu1011 Eu 0.45168 0.6166 1.02068 0.0
C1012 C 0.39578 0.59337 1.04939 0.0
C1013 C 0.39787 0.61165 1.06239 0.0
C1014 C 0.4093 0.59085 1.07416 0.0
C1015 C 0.41892 0.55114 1.07319 0.0
C1016 C 0.41883 0.53352 1.06005 0.0
C1017 C 0.4069 0.55414 1.04834 0.0
C1018 C 0.49429 0.68559 1.01827 0.0
C1019 C 0.49777 0.58214 1.04831 0.0
O1020 O 0.53508 0.5438 1.02166 0.0
O1021 O 0.53114 0.5615 1.00013 0.0
O1022 O 0.43465 0.55708 1.0071 0.0
O1023 O 0.43601 0.55811 1.0072 0.0
O1024 O 0.50105 0.62083 0.99581 0.0
O1025 O 0.43981 0.63864 0.99909 0.0
O1026 O 0.39223 0.59747 1.02501 0.0
O1027 O 0.4152 0.64642 1.03599 0.0
O1028 O 0.45731 0.68164 1.01565 0.0
O1029 O 0.50828 0.65091 1.02121 0.0
O1030 O 0.48087 0.61365 1.04352 0.0
O1031 O 0.5017 0.55838 1.03783 0.0
H1032 H 0.61465 0.49772 1.0048 0.0
H1033 H 0.67813 0.52132 0.99754 0.0
H1034 H 0.6407 0.63862 1.00652 0.0
H1035 H 0.5801 0.61424 1.01486 0.0
H1036 H 0.3911 0.64216 1.0634 0.0
H1037 H 0.4083 0.60548 1.08413 0.0
H1038 H 0.42574 0.50306 1.05899 0.0
H1039 H 0.40735 0.53936 1.03839 0.0
C1040 C 0.30524 0.8143 0.75936 0.0
Eu1041 Eu 0.2676 0.75053 0.76496 0.0
C1042 C 0.29261 0.85445 0.76064 0.0
C1043 C 0.31728 0.88499 0.7572 0.0
C1044 C 0.30147 0.92114 0.75392 0.0
C1045 C 0.26084 0.92557 0.75297 0.0
C1046 C 0.23763 0.89739 0.75954 0.0
C1047 C 0.25351 0.86193 0.76328 0.0
C1048 C 0.30346 0.69305 0.74206 0.0
C1049 C 0.21745 0.7174 0.74171 0.0
C1050 C 0.25747 0.66626 0.78996 0.0
Eu1051 Eu 0.24327 0.71667 0.77081 0.0
C1052 C 0.26167 0.67285 0.80505 0.0
C1053 C 0.22939 0.67412 0.81386 0.0
C1054 C 0.23482 0.67594 0.82825 0.0
C1055 C 0.27255 0.67328 0.83377 0.0
C1056 C 0.30369 0.68272 0.82511 0.0
C1057 C 0.29866 0.68019 0.81074 0.0
C1058 C 0.16913 0.7508 0.76912 0.0
C1059 C 0.271 0.76347 0.79742 0.0
O1060 O 0.3086 0.79568 0.77103 0.0
O1061 O 0.28645 0.79423 0.75008 0.0
O1062 O 0.29922 0.69692 0.75576 0.0
O1063 O 0.29812 0.69826 0.75584 0.0
O1064 O 0.22957 0.7518 0.74544 0.0
O1065 O 0.22193 0.69044 0.75104 0.0
O1066 O 0.28451 0.68246 0.78258 0.0
O1067 O 0.22304 0.66976 0.78433 0.0
O1068 O 0.17714 0.71377 0.76811 0.0
O1069 O 0.20251 0.76889 0.77041 0.0
O1070 O 0.23778 0.75501 0.79156 0.0
O1071 O 0.29671 0.75688 0.78773 0.0
H1072 H 0.34803 0.88009 0.75586 0.0
H1073 H 0.32086 0.94356 0.75031 0.0
H1074 H 0.20646 0.89965 0.75996 0.0
H1075 H 0.23438 0.83893 0.76661 0.0
H1076 H 0.20031 0.67109 0.80977 0.0
H1077 H 0.20982 0.67123 0.83484 0.0
H1078 H 0.33292 0.68296 0.82923 0.0
H1079 H 0.3241 0.68172 0.80417 0.0
C1080 C 1.03617 0.55494 0.51001 0.0
Eu1081 Eu 0.09575 0.51258 0.51688 0.0
C1082 C 0.99501 0.5455 0.50995 0.0
C1083 C 0.97087 0.56368 0.50027 0.0
C1084 C 0.93699 0.54542 0.49594 0.0
C1085 C 0.92734 0.50854 0.50117 0.0
C1086 C 0.9484 0.49366 0.51251 0.0
C1087 C 0.98236 0.51194 0.51681 0.0
C1088 C 0.15707 0.54818 0.49558 0.0
C1089 C 0.11557 0.46402 0.49207 0.0
C1090 C 0.20799 0.4679 0.53177 0.0
Eu1091 Eu 0.13867 0.48102 0.52207 0.0
C1092 C 0.24824 0.47734 0.52829 0.0
C1093 C 0.27714 0.45068 0.53174 0.0
C1094 C 0.31599 0.46111 0.53088 0.0
C1095 C 0.32671 0.49867 0.52664 0.0
C1096 C 0.29764 0.52379 0.52165 0.0
C1097 C 0.25858 0.51324 0.52253 0.0
C1098 C 0.09056 0.41394 0.52114 0.0
C1099 C 0.09386 0.515 0.55027 0.0
O1100 O 0.05282 0.55668 0.52218 0.0
O1101 O 0.0563 0.53484 0.50111 0.0
O1102 O 0.15298 0.54126 0.50916 0.0
O1103 O 0.15184 0.54045 0.50924 0.0
O1104 O 0.08362 0.47442 0.49818 0.0
O1105 O 0.14713 0.46865 0.49929 0.0
O1106 O 0.186 0.49633 0.53605 0.0
O1107 O 0.19016 0.44457 0.52328 0.0
O1108 O 0.12687 0.4161 0.51783 0.0
O1109 O 0.07975 0.44924 0.5245 0.0
O1110 O 0.1168 0.48669 0.54586 0.0
O1111 O 0.08225 0.5356 0.5396 0.0
H1112 H 0.98033 0.58959 0.4949 0.0
H1113 H 0.92146 0.55787 0.48721 0.0
H1114 H 0.94121 0.46571 0.51691 0.0
H1115 H 1.00079 0.49757 0.52437 0.0
H1116 H 0.26963 0.42262 0.53599 0.0
H1117 H 0.33718 0.44087 0.53492 0.0
H1118 H 0.30486 0.55267 0.51812 0.0
H1119 H 0.23651 0.53389 0.5195 0.0
C1120 C 0.28755 0.81583 0.42339 0.0
Eu1121 Eu 0.32738 0.75437 0.41668 0.0
C1122 C 0.29707 0.85645 0.42106 0.0
C1123 C 0.27515 0.8855 0.42744 0.0
C1124 C 0.2931 0.92041 0.43095 0.0
C1125 C 0.33357 0.92343 0.42941 0.0
C1126 C 0.35164 0.89978 0.41947 0.0
C1127 C 0.33352 0.86548 0.41551 0.0
C1128 C 0.29747 0.69035 0.43824 0.0
C1129 C 0.37975 0.71914 0.43894 0.0
C1130 C 0.35225 0.66174 0.392 0.0
Eu1131 Eu 0.35393 0.71853 0.40929 0.0
C1132 C 0.35897 0.65853 0.37698 0.0
C1133 C 0.39296 0.64115 0.37202 0.0
C1134 C 0.39334 0.62528 0.35869 0.0
C1135 C 0.3586 0.62414 0.35105 0.0
C1136 C 0.3292 0.65053 0.35438 0.0
C1137 C 0.32893 0.66712 0.36755 0.0
C1138 C 0.42456 0.76 0.41099 0.0
C1139 C 0.31821 0.765 0.38346 0.0
O1140 O 0.28124 0.79579 0.41218 0.0
O1141 O 0.31078 0.79796 0.43197 0.0
O1142 O 0.29824 0.69811 0.42465 0.0
O1143 O 0.29945 0.69959 0.42459 0.0
O1144 O 0.36409 0.75308 0.43656 0.0
O1145 O 0.37744 0.69446 0.42877 0.0
O1146 O 0.32124 0.68092 0.3957 0.0
O1147 O 0.38226 0.66855 0.39994 0.0
O1148 O 0.42041 0.72269 0.41218 0.0
O1149 O 0.38969 0.77461 0.40945 0.0
O1150 O 0.35188 0.75041 0.38702 0.0
O1151 O 0.29664 0.76485 0.3947 0.0
H1152 H 0.2464 0.87943 0.43136 0.0
H1153 H 0.27795 0.93985 0.43794 0.0
H1154 H 0.38232 0.90273 0.41736 0.0
H1155 H 0.35022 0.84375 0.41002 0.0
H1156 H 0.41728 0.63575 0.37891 0.0
H1157 H 0.41733 0.60667 0.35583 0.0
H1158 H 0.30287 0.65199 0.34824 0.0
H1159 H 0.30309 0.68238 0.37083 0.0
C1160 C 1.03007 0.54534 0.16928 0.0
Eu1161 Eu 0.09254 0.58448 0.16379 0.0
C1162 C 0.98992 0.55773 0.16788 0.0
C1163 C 0.95956 0.53268 0.17112 0.0
C1164 C 0.92348 0.54811 0.17462 0.0
C1165 C 0.91913 0.58859 0.17608 0.0
C1166 C 0.94702 0.61256 0.16976 0.0
C1167 C 0.98237 0.59707 0.16569 0.0
C1168 C 0.15023 0.54863 0.1859 0.0
C1169 C 0.11734 0.63259 0.18867 0.0
C1170 C 0.20139 0.62214 0.14625 0.0
Eu1171 Eu 0.13487 0.61365 0.15844 0.0
C1172 C 0.21441 0.61683 0.13195 0.0
C1173 C 0.24664 0.63744 0.12735 0.0
C1174 C 0.26901 0.62235 0.1166 0.0
C1175 C 0.2598 0.58589 0.11092 0.0
C1176 C 0.22346 0.56961 0.11368 0.0
C1177 C 0.20062 0.58527 0.12414 0.0
C1178 C 0.0911 0.68299 0.16042 0.0
C1179 C 0.09028 0.5788 0.13051 0.0
O1180 O 0.04894 0.54205 0.15763 0.0
O1181 O 0.04965 0.56438 0.17867 0.0
O1182 O 0.14775 0.55337 0.17219 0.0
O1183 O 0.14642 0.55446 0.17207 0.0
O1184 O 0.08458 0.62041 0.18345 0.0
O1185 O 0.14732 0.63023 0.18052 0.0
O1186 O 0.19061 0.59052 0.15246 0.0
O1187 O 0.17846 0.65106 0.14877 0.0
O1188 O 0.12715 0.67836 0.16405 0.0
O1189 O 0.0782 0.64871 0.15664 0.0
O1190 O 0.11244 0.60758 0.13479 0.0
O1191 O 0.07964 0.55855 0.14133 0.0
H1192 H 0.96464 0.50187 0.17222 0.0
H1193 H 0.90125 0.52846 0.17823 0.0
H1194 H 0.94471 0.64377 0.16988 0.0
H1195 H 1.00536 0.61657 0.1626 0.0
H1196 H 0.25686 0.6626 0.13301 0.0
H1197 H 0.29588 0.63673 0.11398 0.0
H1198 H 0.21487 0.54217 0.10918 0.0
H1199 H 0.17506 0.5695 0.12732 0.0
C1200 C 0.28794 0.28102 0.92541 0.0
Eu1201 Eu 0.25283 0.34309 0.91659 0.0
C1202 C 0.27359 0.24164 0.92363 0.0
C1203 C 0.28283 0.21334 0.93349 0.0
C1204 C 0.25834 0.18162 0.9352 0.0
C1205 C 0.22418 0.17874 0.92725 0.0
C1206 C 0.21782 0.20439 0.91621 0.0
C1207 C 0.24271 0.23558 0.91431 0.0
C1208 C 0.28494 0.40795 0.9374 0.0
C1209 C 0.20086 0.38182 0.93817 0.0
C1210 C 0.22769 0.43409 0.89065 0.0
Eu1211 Eu 0.22659 0.37916 0.90867 0.0
C1212 C 0.22138 0.4344 0.87553 0.0
C1213 C 0.18705 0.44964 0.86993 0.0
C1214 C 0.18661 0.46223 0.85613 0.0
C1215 C 0.22177 0.46313 0.84878 0.0
C1216 C 0.25118 0.43748 0.85281 0.0
C1217 C 0.25169 0.42419 0.86647 0.0
C1218 C 0.15597 0.33702 0.91028 0.0
C1219 C 0.26354 0.3305 0.88354 0.0
O1220 O 0.29738 0.29875 0.91397 0.0
O1221 O 0.26596 0.30236 0.93329 0.0
O1222 O 0.28301 0.39963 0.92387 0.0
O1223 O 0.28183 0.39819 0.92379 0.0
O1224 O 0.2149 0.34718 0.93596 0.0
O1225 O 0.20389 0.40583 0.92784 0.0
O1226 O 0.25902 0.41633 0.8949 0.0
O1227 O 0.19763 0.42775 0.89856 0.0
O1228 O 0.16 0.37431 0.91167 0.0
O1229 O 0.19101 0.32289 0.90872 0.0
O1230 O 0.2301 0.34624 0.88667 0.0
O1231 O 0.28446 0.33012 0.89498 0.0
H1232 H 0.30636 0.21781 0.9408 0.0
H1233 H 0.26345 0.16223 0.94389 0.0
H1234 H 0.1915 0.20271 0.91007 0.0
H1235 H 0.23521 0.25728 0.90661 0.0
H1236 H 0.16241 0.45594 0.87653 0.0
H1237 H 0.16236 0.47971 0.85267 0.0
H1238 H 0.27762 0.43507 0.84682 0.0
H1239 H 0.27776 0.4102 0.87025 0.0
C1240 C 0.56447 0.5435 0.67254 0.0
Eu1241 Eu 0.50091 0.51203 0.66334 0.0
C1242 C 0.60394 0.52974 0.67068 0.0
C1243 C 0.63302 0.54326 0.67948 0.0
C1244 C 0.66683 0.5218 0.68105 0.0
C1245 C 0.6714 0.48614 0.67401 0.0
C1246 C 0.64448 0.47586 0.66369 0.0
C1247 C 0.61076 0.4976 0.66205 0.0
C1248 C 0.43934 0.54638 0.68479 0.0
C1249 C 0.45596 0.46114 0.68384 0.0
C1250 C 0.41363 0.50675 0.63603 0.0
Eu1251 Eu 0.46456 0.48977 0.65506 0.0
C1252 C 0.41763 0.51504 0.62094 0.0
C1253 C 0.41293 0.48603 0.61085 0.0
C1254 C 0.41685 0.49484 0.59668 0.0
C1255 C 0.42566 0.53282 0.59234 0.0
C1256 C 0.43194 0.56133 0.60248 0.0
C1257 C 0.42758 0.5527 0.61655 0.0
C1258 C 0.50096 0.41564 0.65705 0.0
C1259 C 0.51552 0.52283 0.6305 0.0
O1260 O 0.5471 0.55459 0.66121 0.0
O1261 O 0.54293 0.52068 0.68 0.0
O1262 O 0.44698 0.54519 0.67124 0.0
O1263 O 0.44837 0.5439 0.67112 0.0
O1264 O 0.4918 0.47252 0.68205 0.0
O1265 O 0.433 0.46612 0.67321 0.0
O1266 O 0.43016 0.53224 0.64409 0.0
O1267 O 0.41888 0.47124 0.64048 0.0
O1268 O 0.46376 0.42312 0.6575 0.0
O1269 O 0.51825 0.44931 0.6559 0.0
O1270 O 0.49946 0.48973 0.63362 0.0
O1271 O 0.5152 0.54393 0.64188 0.0
H1272 H 0.62809 0.56815 0.68613 0.0
H1273 H 0.68684 0.53082 0.68912 0.0
H1274 H 0.64749 0.44896 0.65798 0.0
H1275 H 0.58844 0.48717 0.65505 0.0
H1276 H 0.40549 0.45676 0.61387 0.0
H1277 H 0.41109 0.47231 0.58911 0.0
H1278 H 0.43902 0.59072 0.5995 0.0
H1279 H 0.43178 0.57589 0.624 0.0
H1280 H 0.16069 0.38159 0.43754 0.0
H1281 H 0.23132 0.48412 0.43447 0.0
H1282 H 0.19364 0.51485 0.45292 0.0
H1283 H 0.15243 0.50552 0.47313 0.0
H1284 H 0.08665 0.40101 0.4782 0.0
H1285 H 0.10994 0.37769 0.45549 0.0
C1286 C 0.16661 0.41132 0.4405 0.0
C1287 C 0.19878 0.43067 0.43481 0.0
C1288 C 0.14619 0.42782 0.45162 0.0
C1289 C 0.2067 0.46889 0.43879 0.0
C1290 C 0.18539 0.48622 0.4494 0.0
C1291 C 0.14208 0.4784 0.46902 0.0
C1292 C 0.11822 0.45491 0.47721 0.0
C1293 C 0.15682 0.46497 0.45641 0.0
C1294 C 0.10494 0.41954 0.47193 0.0
C1295 C 0.11856 0.40618 0.45905 0.0
H1296 H 0.96391 0.91545 0.68665 0.0
H1297 H 0.84753 0.95555 0.67921 0.0
H1298 H 0.82381 0.91386 0.69789 0.0
H1299 H 0.83934 0.88163 0.72011 0.0
H1300 H 0.95761 0.85344 0.73001 0.0
H1301 H 0.97793 0.87427 0.70672 0.0
C1302 C 0.9331 0.91368 0.68879 0.0
C1303 C 0.90728 0.9382 0.68167 0.0
C1304 C 0.92047 0.89271 0.70037 0.0
C1305 C 0.86764 0.93661 0.68458 0.0
C1306 C 0.8543 0.91332 0.69543 0.0
C1307 C 0.8693 0.87909 0.71694 0.0
C1308 C 0.89714 0.86648 0.72658 0.0
C1309 C 0.88083 0.8936 0.70399 0.0
C1310 C 0.93591 0.86295 0.72259 0.0
C1311 C 0.94744 0.87518 0.70936 0.0
H1312 H 0.41648 0.71978 0.93725 0.0
H1313 H 0.38673 0.60232 0.9267 0.0
H1314 H 0.4267 0.57856 0.94606 0.0
H1315 H 0.45689 0.59276 0.96887 0.0
H1316 H 0.47414 0.71113 0.98144 0.0
H1317 H 0.45242 0.73363 0.9585 0.0
C1318 C 0.42002 0.68889 0.93894 0.0
C1319 C 0.39937 0.66259 0.93062 0.0
C1320 C 0.43991 0.676 0.95072 0.0
C1321 C 0.40291 0.62277 0.93298 0.0
C1322 C 0.42521 0.60938 0.94415 0.0
C1323 C 0.45684 0.62334 0.96633 0.0
C1324 C 0.46708 0.65048 0.97655 0.0
C1325 C 0.44191 0.63586 0.95353 0.0
C1326 C 0.46664 0.69006 0.97351 0.0
C1327 C 0.45402 0.70278 0.96049 0.0
H1328 H 0.75443 0.18877 0.2219 0.0
H1329 H 0.65269 0.25963 0.22547 0.0
H1330 H 0.63168 0.23856 0.20213 0.0
H1331 H 0.63637 0.18859 0.18387 0.0
H1332 H 0.73798 0.11606 0.18156 0.0
H1333 H 0.76673 0.1509 0.20105 0.0
C1334 C 0.72871 0.20097 0.21733 0.0
C1335 C 0.70512 0.22542 0.22526 0.0
C1336 C 0.71712 0.18844 0.20419 0.0
C1337 C 0.6712 0.24069 0.21942 0.0
C1338 C 0.65926 0.22852 0.20616 0.0
C1339 C 0.66567 0.18181 0.18717 0.0
C1340 C 0.68491 0.14937 0.18154 0.0
C1341 C 0.68113 0.20083 0.1988 0.0
C1342 C 0.7227 0.14071 0.18588 0.0
C1343 C 0.73888 0.16035 0.19711 0.0
H1344 H 0.15623 0.69931 0.24712 0.0
H1345 H 0.24166 0.60807 0.24476 0.0
H1346 H 0.20983 0.58224 0.22413 0.0
H1347 H 0.17084 0.59817 0.20402 0.0
H1348 H 0.08007 0.68326 0.20641 0.0
H1349 H 0.10241 0.701 0.23001 0.0
C1350 C 0.16671 0.67253 0.24258 0.0
C1351 C 0.20225 0.65644 0.24705 0.0
C1352 C 0.14849 0.65818 0.23058 0.0
C1353 C 0.21502 0.62147 0.24121 0.0
C1354 C 0.19707 0.60699 0.22934 0.0
C1355 C 0.15397 0.61858 0.20995 0.0
C1356 C 0.12358 0.63893 0.20361 0.0
C1357 C 0.1657 0.62693 0.22346 0.0
C1358 C 0.10354 0.66718 0.21119 0.0
C1359 C 0.1163 0.67717 0.22462 0.0
H1360 H 0.73275 0.94236 0.44939 0.0
H1361 H 0.66541 0.84193 0.46033 0.0
H1362 H 0.65458 0.86964 0.48376 0.0
H1363 H 0.6582 0.92723 0.49919 0.0
H1364 H 0.738 1.01946 0.48912 0.0
H1365 H 0.75298 0.98787 0.46715 0.0
C1366 C 0.71692 0.92551 0.457 0.0
C1367 C 0.69975 0.89027 0.45319 0.0
C1368 C 0.71383 0.93977 0.47049 0.0
C1369 C 0.67868 0.86928 0.46309 0.0
C1370 C 0.67284 0.88498 0.47644 0.0
C1371 C 0.68043 0.93963 0.49261 0.0
C1372 C 0.69516 0.9771 0.49538 0.0
C1373 C 0.68972 0.92074 0.48011 0.0
C1374 C 0.7248 0.9917 0.48688 0.0
C1375 C 0.73313 0.97384 0.47427 0.0
H1376 H 0.38066 0.45542 0.68981 0.0
H1377 H 0.49379 0.45586 0.709 0.0
H1378 H 0.46364 0.45313 0.73213 0.0
H1379 H 0.40506 0.44675 0.74647 0.0
H1380 H 0.2932 0.44145 0.72599 0.0
H1381 H 0.32312 0.45493 0.70398 0.0
C1382 C 0.39894 0.45457 0.69901 0.0
C1383 C 0.43939 0.45469 0.69772 0.0
C1384 C 0.3816 0.45396 0.71209 0.0
C1385 C 0.46253 0.45467 0.70977 0.0
C1386 C 0.44531 0.45377 0.72295 0.0
C1387 C 0.38706 0.44835 0.73723 0.0
C1388 C 0.34697 0.44068 0.73806 0.0
C1389 C 0.40478 0.45292 0.7242 0.0
C1390 C 0.32411 0.44629 0.72602 0.0
C1391 C 0.3413 0.4532 0.71319 0.0
H1392 H 0.8896 0.14793 0.99498 0.0
H1393 H 0.93626 0.05096 0.9718 0.0
H1394 H 0.93052 0.0867 0.95043 0.0
H1395 H 0.91541 0.1451 0.93822 0.0
H1396 H 0.86357 0.24181 0.95961 0.0
H1397 H 0.87112 0.20766 0.98199 0.0
C1398 C 0.89775 0.13446 0.9852 0.0
C1399 C 0.9129 0.09652 0.98513 0.0
C1400 C 0.89522 0.15564 0.97274 0.0
C1401 C 0.9234 0.07952 0.97233 0.0
C1402 C 0.92107 0.10028 0.96004 0.0
C1403 C 0.906 0.15898 0.94779 0.0
C1404 C 0.889 0.19569 0.94737 0.0
C1405 C 0.9078 0.13839 0.96019 0.0
C1406 C 0.87731 0.21361 0.9598 0.0
C1407 C 0.88088 0.19378 0.97249 0.0
H1408 H 0.9126 0.69598 0.74578 0.0
H1409 H 0.81761 0.61668 0.73902 0.0
H1410 H 0.84702 0.59551 0.71725 0.0
H1411 H 0.89281 0.60837 0.69864 0.0
H1412 H 0.99269 0.68019 0.70613 0.0
H1413 H 0.96728 0.69682 0.72936 0.0
C1414 C 0.89902 0.6728 0.73993 0.0
C1415 C 0.8621 0.65892 0.74376 0.0
C1416 C 0.91605 0.66083 0.72743 0.0
C1417 C 0.84538 0.62864 0.73606 0.0
C1418 C 0.86196 0.61684 0.72357 0.0
C1419 C 0.90943 0.62721 0.70543 0.0
C1420 C 0.9441 0.64371 0.70073 0.0
C1421 C 0.896 0.63445 0.71884 0.0
C1422 C 0.96565 0.66763 0.7096 0.0
C1423 C 0.95128 0.6768 0.72284 0.0
H1424 H 0.1958 0.15361 0.49818 0.0
H1425 H 0.16615 1.04576 0.47771 0.0
H1426 H 0.17465 0.07542 0.45533 0.0
H1427 H 0.18432 0.13205 0.44134 0.0
H1428 H 0.21518 0.24086 0.46039 0.0
H1429 H 0.20936 0.21125 0.4836 0.0
C1430 C 0.19171 0.13645 0.48884 0.0
C1431 C 0.18008 0.09739 0.48988 0.0
C1432 C 0.19502 0.15417 0.47572 0.0
C1433 C 0.17579 0.07555 0.47755 0.0
C1434 C 0.17973 0.09271 0.46459 0.0
C1435 C 0.18958 0.14955 0.45055 0.0
C1436 C 0.19978 0.18857 0.44921 0.0
C1437 C 0.18804 0.13211 0.46359 0.0
C1438 C 0.20654 0.21081 0.46122 0.0
C1439 C 0.20389 0.19374 0.47443 0.0
H1440 H 0.70543 0.44737 0.19137 0.0
H1441 H 0.59433 0.46478 0.2109 0.0
H1442 H 0.62549 0.46321 0.23395 0.0
H1443 H 0.6846 0.45533 0.24823 0.0
H1444 H 0.7944 0.43755 0.22737 0.0
H1445 H 0.76352 0.44521 0.20514 0.0
C1446 C 0.68775 0.45054 0.20064 0.0
C1447 C 0.64757 0.45543 0.19948 0.0
C1448 C 0.70584 0.45139 0.2136 0.0
C1449 C 0.62528 0.46003 0.21158 0.0
C1450 C 0.64316 0.45986 0.2247 0.0
C1451 C 0.70192 0.45343 0.23885 0.0
C1452 C 0.74176 0.44448 0.23974 0.0
C1453 C 0.68355 0.45559 0.22581 0.0
C1454 C 0.76381 0.44426 0.22737 0.0
C1455 C 0.74601 0.44772 0.21447 0.0
H1456 H 0.35358 0.94718 0.94758 0.0
H1457 H 0.42932 0.85151 0.95715 0.0
H1458 H 0.43942 0.87806 0.98076 0.0
H1459 H 0.4326 0.93378 0.99675 0.0
H1460 H 0.34711 1.02204 0.9879 0.0
H1461 H 0.33224 0.99077 0.96584 0.0
C1462 C 0.3712 0.93114 0.95493 0.0
C1463 C 0.391 0.89771 0.95069 0.0
C1464 C 0.37434 0.94476 0.96852 0.0
C1465 C 0.41421 0.87762 0.96025 0.0
C1466 C 0.41962 0.89259 0.9737 0.0
C1467 C 0.40921 0.94522 0.99042 0.0
C1468 C 0.3924 0.98151 0.99359 0.0
C1469 C 0.4004 0.92674 0.9778 0.0
C1470 C 0.36155 0.99507 0.98538 0.0
C1471 C 0.3533 0.97741 0.97272 0.0
H1472 H 0.91317 0.45773 0.93369 0.0
H1473 H 0.88074 0.34676 0.95054 0.0
H1474 H 0.92985 0.3524 0.96867 0.0
H1475 H 0.97131 0.39458 0.98231 0.0
H1476 H 1.0009 0.50773 0.96705 0.0
H1477 H 0.9654 0.49524 0.94536 0.0
C1478 C 0.91763 0.43473 0.94121 0.0
C1479 C 0.89307 0.40253 0.94121 0.0
C1480 C 0.94563 0.43845 0.95177 0.0
C1481 C 0.89905 0.37224 0.95073 0.0
C1482 C 0.92716 0.3753 0.961 0.0
C1483 C 0.97157 0.41556 0.97388 0.0
C1484 C 0.98825 0.45182 0.97608 0.0
C1485 C 0.9493 0.40901 0.96198 0.0
C1486 C 0.98844 0.47934 0.96534 0.0
C1487 C 0.96745 0.4725 0.95311 0.0
H1488 H 0.40197 0.17878 0.68 0.0
H1489 H 0.3802 0.06216 0.69474 0.0
H1490 H 0.35787 0.08743 0.71651 0.0
H1491 H 0.36054 0.13908 0.73335 0.0
H1492 H 0.38862 0.25549 0.72063 0.0
H1493 H 0.39597 0.23306 0.69642 0.0
C1494 C 0.39308 0.15851 0.68796 0.0
C1495 C 0.3968 0.11811 0.68585 0.0
C1496 C 0.38339 0.17295 0.70116 0.0
C1497 C 0.3801 0.09324 0.69586 0.0
C1498 C 0.36767 0.10761 0.70861 0.0
C1499 C 0.36845 0.15976 0.72534 0.0
C1500 C 0.37572 0.19857 0.7288 0.0
C1501 C 0.37235 0.14683 0.71169 0.0
C1502 C 0.38412 0.2252 0.71821 0.0
C1503 C 0.38789 0.21244 0.70441 0.0
H1504 H 0.68153 0.62901 0.43079 0.0
H1505 H 0.7482 0.71809 0.45139 0.0
H1506 H 0.70351 0.71874 0.47069 0.0
H1507 H 0.65029 0.69016 0.48292 0.0
H1508 H 0.58835 0.59402 0.46522 0.0
H1509 H 0.62403 0.60157 0.44322 0.0
C1510 C 0.68624 0.64801 0.43963 0.0
C1511 C 0.71885 0.67225 0.43996 0.0
C1512 C 0.66043 0.64797 0.45096 0.0
C1513 C 0.72421 0.69789 0.4512 0.0
C1514 C 0.69828 0.69893 0.46213 0.0
C1515 C 0.64363 0.67187 0.47401 0.0
C1516 C 0.6171 0.64178 0.47551 0.0
C1517 C 0.66677 0.67378 0.46221 0.0
C1518 C 0.60844 0.61787 0.4641 0.0
C1519 C 0.6296 0.62152 0.45171 0.0
H1520 H 0.20146 0.96765 0.23782 0.0
H1521 H 0.20563 0.85397 0.21918 0.0
H1522 H 0.20721 0.88386 0.19588 0.0
H1523 H 0.20463 0.9428 0.18125 0.0
H1524 H 0.20066 0.05492 0.20159 0.0
H1525 H 0.20703 1.02448 0.22382 0.0
C1526 C 0.20255 0.94901 0.22873 0.0
C1527 C 0.20243 0.90859 0.2302 0.0
C1528 C 0.20541 0.96611 0.21568 0.0
C1529 C 0.20459 0.8852 0.21826 0.0
C1530 C 0.20623 0.90229 0.20501 0.0
C1531 C 0.20511 0.96077 0.19049 0.0
C1532 C 0.19953 1.00127 0.18944 0.0
C1533 C 0.20639 0.94287 0.20363 0.0
C1534 C 0.20377 1.0238 0.20163 0.0
C1535 C 0.2066 1.00635 0.21459 0.0
H1536 H 0.67487 1.0021 0.97745 0.0
H1537 H 0.58251 0.92007 0.97163 0.0
H1538 H 0.60959 0.90283 0.94866 0.0
H1539 H 0.66639 0.90475 0.9329 0.0
H1540 H 0.7521 0.99468 0.93813 0.0
H1541 H 0.71787 1.01852 0.95851 0.0
C1542 C 0.65891 0.98235 0.9709 0.0
C1543 C 0.62654 0.96274 0.97612 0.0
C1544 C 0.67308 0.97464 0.95765 0.0
C1545 C 0.60754 0.93549 0.96774 0.0
C1546 C 0.62295 0.92584 0.95465 0.0
C1547 C 0.67652 0.93086 0.93801 0.0
C1548 C 0.71276 0.94697 0.93443 0.0
C1549 C 0.6566 0.94443 0.94976 0.0
C1550 C 0.72499 0.98112 0.94101 0.0
C1551 C 0.70562 0.99452 0.95272 0.0
H1552 H 0.38566 0.45877 0.23657 0.0
H1553 H 0.39251 0.34501 0.21813 0.0
H1554 H 0.39307 0.37433 0.19478 0.0
H1555 H 0.39251 0.43259 0.18007 0.0
H1556 H 0.38585 0.54536 0.19987 0.0
H1557 H 0.37889 0.51514 0.2221 0.0
C1558 C 0.38782 0.44015 0.22749 0.0
C1559 C 0.39007 0.39983 0.22905 0.0
C1560 C 0.38623 0.45686 0.21432 0.0
C1561 C 0.39174 0.37623 0.21716 0.0
C1562 C 0.39136 0.39295 0.20385 0.0
C1563 C 0.39012 0.4509 0.18917 0.0
C1564 C 0.39306 0.49163 0.18799 0.0
C1565 C 0.38863 0.43337 0.20235 0.0
C1566 C 0.38545 0.51412 0.19999 0.0
C1567 C 0.38218 0.49687 0.21299 0.0
H1568 H 0.90118 0.11598 0.48022 0.0
H1569 H 1.01851 0.14902 0.47046 0.0
H1570 H 1.00082 0.15259 0.44552 0.0
H1571 H 0.94903 0.15324 0.42747 0.0
H1572 H 0.8334 0.11706 0.43902 0.0
H1573 H 0.85559 0.10214 0.46205 0.0
C1574 C 0.92329 0.12394 0.47273 0.0
C1575 C 0.96081 0.13358 0.47719 0.0
C1576 C 0.91361 0.12378 0.4587 0.0
C1577 C 0.98918 0.14237 0.46725 0.0
C1578 C 0.97915 0.14389 0.45304 0.0
C1579 C 0.92853 0.14208 0.43499 0.0
C1580 C 0.88847 0.14078 0.43177 0.0
C1581 C 0.94099 0.13559 0.44874 0.0
C1582 C 0.86382 0.12134 0.44114 0.0
C1583 C 0.87625 0.11336 0.45458 0.0
H1584 H 0.15576 0.67452 0.68261 0.0
H1585 H 0.24264 0.58535 0.68749 0.0
H1586 H 0.26545 0.61628 0.70878 0.0
H1587 H 0.24875 0.65789 0.72829 0.0
H1588 H 0.16931 0.75293 0.72277 0.0
H1589 H 0.15352 0.72891 0.69924 0.0
C1590 C 0.18101 0.6628 0.68787 0.0
C1591 C 0.19631 0.62652 0.68389 0.0
C1592 C 0.19373 0.6806 0.70016 0.0
C1593 C 0.22953 0.61246 0.69067 0.0
C1594 C 0.24227 0.62987 0.70291 0.0
C1595 C 0.22941 0.6746 0.72176 0.0
C1596 C 0.21003 0.70694 0.72717 0.0
C1597 C 0.22262 0.6622 0.70819 0.0
C1598 C 0.18417 0.72767 0.71874 0.0
C1599 C 0.17546 0.7141 0.70533 0.0
H1600 H 0.71578 0.13736 0.69441 0.0
H1601 H 0.59892 0.14284 0.71016 0.0
H1602 H 0.6241 0.14007 0.73415 0.0
H1603 H 0.67994 0.13997 0.75021 0.0
H1604 H 0.7958 0.13465 0.73296 0.0
H1605 H 0.76943 0.12833 0.71004 0.0
C1606 C 0.69552 0.13845 0.70303 0.0
C1607 C 0.65557 0.14175 0.70054 0.0
C1608 C 0.70989 0.13521 0.71653 0.0
C1609 C 0.62991 0.14156 0.71186 0.0
C1610 C 0.64426 0.1393 0.72552 0.0
C1611 C 0.6997 0.13784 0.7415 0.0
C1612 C 0.74011 0.1417 0.74357 0.0
C1613 C 0.68437 0.13661 0.72795 0.0
C1614 C 0.76464 0.13404 0.73212 0.0
C1615 C 0.74962 0.13107 0.71874 0.0
H1616 H 0.17246 0.45156 0.94331 0.0
H1617 H 0.21473 0.34899 0.96399 0.0
H1618 H 0.21639 0.38439 0.98626 0.0
H1619 H 0.20716 0.44586 0.99939 0.0
H1620 H 0.1703 0.54798 0.97667 0.0
H1621 H 0.16937 0.51192 0.95537 0.0
C1622 C 0.18188 0.43663 0.95268 0.0
C1623 C 0.1932 0.39774 0.95207 0.0
C1624 C 0.1857 0.45761 0.96494 0.0
C1625 C 0.20513 0.37883 0.9643 0.0
C1626 C 0.20691 0.39929 0.97692 0.0
C1627 C 0.19962 0.46037 0.98974 0.0
C1628 C 0.18829 0.49968 0.98992 0.0
C1629 C 0.19789 0.43902 0.97729 0.0
C1630 C 0.17959 0.51809 0.97716 0.0
C1631 C 0.17805 0.49723 0.96487 0.0
H1632 H 0.97041 1.00812 0.21206 0.0
H1633 H 0.99165 0.89277 0.19694 0.0
H1634 H 0.96417 0.86549 0.21829 0.0
H1635 H 0.92088 0.87496 0.2381 0.0
H1636 H 0.88964 0.99013 0.25109 0.0
H1637 H 0.93583 1.01745 0.23442 0.0
C1638 C 0.97012 0.97711 0.21377 0.0
C1639 C 0.98279 0.95224 0.20317 0.0
C1640 C 0.95201 0.9619 0.22561 0.0
C1641 C 0.98229 0.91213 0.20516 0.0
C1642 C 0.96621 0.89667 0.21726 0.0
C1643 C 0.92517 0.90605 0.23747 0.0
C1644 C 0.90229 0.93077 0.24564 0.0
C1645 C 0.94898 0.92128 0.2271 0.0
C1646 C 0.90718 0.97088 0.2448 0.0
C1647 C 0.93303 0.98636 0.23512 0.0
H1648 H 0.38709 0.65225 0.49996 0.0
H1649 H 0.42955 0.55524 0.47574 0.0
H1650 H 0.4266 0.59321 0.45489 0.0
H1651 H 0.41678 0.65354 0.4435 0.0
H1652 H 0.36484 0.74971 0.46521 0.0
H1653 H 0.36983 0.71352 0.48732 0.0
C1654 C 0.39469 0.63924 0.49005 0.0
C1655 C 0.40843 0.60071 0.48961 0.0
C1656 C 0.3932 0.66157 0.47777 0.0
C1657 C 0.41807 0.58432 0.47661 0.0
C1658 C 0.41733 0.60633 0.4646 0.0
C1659 C 0.40652 0.66693 0.45305 0.0
C1660 C 0.39058 0.7042 0.45275 0.0
C1661 C 0.40602 0.64502 0.46515 0.0
C1662 C 0.37789 0.72119 0.46524 0.0
C1663 C 0.37995 0.70018 0.47778 0.0
H1664 H 0.41129 0.18169 0.24809 0.0
H1665 H 0.32072 0.09849 0.2398 0.0
H1666 H 0.34947 0.08443 0.21719 0.0
H1667 H 0.39093 0.10706 0.19836 0.0
H1668 H 0.48795 0.18151 0.20732 0.0
H1669 H 0.46438 0.18979 0.23135 0.0
C1670 C 0.39869 0.15899 0.24174 0.0
C1671 C 0.36242 0.14283 0.24525 0.0
C1672 C 0.41527 0.15125 0.22874 0.0
C1673 C 0.34767 0.11255 0.23704 0.0
C1674 C 0.36376 0.10493 0.22404 0.0
C1675 C 0.4077 0.12423 0.20564 0.0
C1676 C 0.44071 0.14424 0.20112 0.0
C1677 C 0.39587 0.12619 0.21948 0.0
C1678 C 0.46201 0.16652 0.21061 0.0
C1679 C 0.44883 0.17077 0.22432 0.0
H1680 H 0.69696 0.65488 0.99756 0.0
H1681 H 0.68642 0.54473 0.97623 0.0
H1682 H 0.70186 0.57524 0.95451 0.0
H1683 H 0.70628 0.63337 0.9408 0.0
H1684 H 0.71257 0.74517 0.96075 0.0
H1685 H 0.70702 0.71391 0.98367 0.0
C1686 C 0.69788 0.63738 0.9882 0.0
C1687 C 0.68841 0.59763 0.98873 0.0
C1688 C 0.70381 0.65562 0.97533 0.0
C1689 C 0.69288 0.57532 0.97651 0.0
C1690 C 0.70091 0.59291 0.96384 0.0
C1691 C 0.7062 0.65116 0.95013 0.0
C1692 C 0.70882 0.69157 0.94911 0.0
C1693 C 0.70401 0.63314 0.96306 0.0
C1694 C 0.70953 0.71401 0.9613 0.0
C1695 C 0.707 0.69611 0.97437 0.0
H1696 H 0.18494 0.9514 0.74959 0.0
H1697 H 0.29708 0.95387 0.72937 0.0
H1698 H 0.26632 0.96333 0.70725 0.0
H1699 H 0.20916 0.95816 0.69296 0.0
H1700 H 0.09599 0.95254 0.71183 0.0
H1701 H 0.12608 0.953 0.73507 0.0
C1702 C 0.2029 0.95369 0.7404 0.0
C1703 C 0.24351 0.94901 0.74139 0.0
C1704 C 0.18492 0.95624 0.7273 0.0
C1705 C 0.26587 0.956 0.72934 0.0
C1706 C 0.24826 0.96067 0.71643 0.0
C1707 C 0.19083 0.95661 0.70211 0.0
C1708 C 0.15045 0.95403 0.70069 0.0
C1709 C 0.20804 0.95817 0.71523 0.0
C1710 C 0.12725 0.95333 0.71269 0.0
C1711 C 0.14442 0.95428 0.72593 0.0
H1712 H 0.94403 0.43397 0.4945 0.0
H1713 H 0.85988 0.52448 0.48722 0.0
H1714 H 0.83958 0.49255 0.46574 0.0
H1715 H 0.85571 0.44732 0.44719 0.0
H1716 H 0.93444 0.35277 0.45489 0.0
H1717 H 0.94837 0.37906 0.47823 0.0
C1718 C 0.92005 0.44596 0.48859 0.0
C1719 C 0.90428 0.48231 0.49221 0.0
C1720 C 0.90899 0.42777 0.47616 0.0
C1721 C 0.87309 0.49709 0.48445 0.0
C1722 C 0.8618 0.47909 0.47211 0.0
C1723 C 0.87518 0.4318 0.45408 0.0
C1724 C 0.89467 0.39866 0.44936 0.0
C1725 C 0.8813 0.44587 0.46751 0.0
C1726 C 0.9197 0.37873 0.45834 0.0
C1727 C 0.92736 0.39361 0.47165 0.0
H1728 H 0.41925 0.90561 0.48605 0.0
H1729 H 0.49948 0.98531 0.46734 0.0
H1730 H 0.46254 0.98293 0.44535 0.0
H1731 H 0.40193 0.96361 0.43267 0.0
H1732 H 0.31808 0.89347 0.45461 0.0
H1733 H 0.3604 0.88904 0.47444 0.0
C1734 C 0.42915 0.92183 0.47703 0.0
C1735 C 0.46167 0.94555 0.47819 0.0
C1736 C 0.40578 0.92378 0.46528 0.0
C1737 C 0.47466 0.96631 0.46653 0.0
C1738 C 0.45296 0.96576 0.45414 0.0
C1739 C 0.39277 0.94828 0.44196 0.0
C1740 C 0.35638 0.92993 0.44222 0.0
C1741 C 0.41739 0.94595 0.45364 0.0
C1742 C 0.34516 0.90922 0.4542 0.0
C1743 C 0.36974 0.90577 0.4655 0.0
H1744 H 0.88754 0.63634 0.23651 0.0
H1745 H 0.88099 0.75038 0.21827 0.0
H1746 H 0.88348 0.72128 0.19484 0.0
H1747 H 0.89037 0.66298 0.18001 0.0
H1748 H 0.89742 0.55049 0.19997 0.0
H1749 H 0.88717 0.57982 0.22222 0.0
C1750 C 0.88671 0.65521 0.22747 0.0
C1751 C 0.88493 0.69552 0.2291 0.0
C1752 C 0.88648 0.63847 0.21433 0.0
C1753 C 0.88335 0.71924 0.21724 0.0
C1754 C 0.88411 0.70257 0.2039 0.0
C1755 C 0.88954 0.64473 0.18918 0.0
C1756 C 0.89661 0.6045 0.18805 0.0
C1757 C 0.88593 0.66207 0.20236 0.0
C1758 C 0.89265 0.58142 0.2001 0.0
C1759 C 0.88761 0.59826 0.21307 0.0
H1760 H 0.15995 0.21095 0.9374 0.0
H1761 H 0.21721 0.10122 0.93164 0.0
H1762 H 0.17516 0.07185 0.94902 0.0
H1763 H 0.13498 0.08214 0.96975 0.0
H1764 H 0.08679 0.19442 0.97822 0.0
H1765 H 0.11116 0.21832 0.95579 0.0
C1766 C 0.16188 0.18016 0.93957 0.0
C1767 C 0.19134 0.15799 0.93335 0.0
C1768 C 0.13964 0.1644 0.95034 0.0
C1769 C 0.19446 0.11848 0.93632 0.0
C1770 C 0.17072 0.10191 0.94639 0.0
C1771 C 0.12889 0.11138 0.96642 0.0
C1772 C 0.10969 0.13669 0.97548 0.0
C1773 C 0.14514 0.12521 0.95407 0.0
C1774 C 0.10142 0.17457 0.97124 0.0
C1775 C 0.11574 0.18822 0.95853 0.0
H1776 H 0.65392 0.41018 0.67894 0.0
H1777 H 0.74479 0.49491 0.6841 0.0
H1778 H 0.76459 0.46395 0.70565 0.0
H1779 H 0.74316 0.42552 0.72522 0.0
H1780 H 0.66251 0.33198 0.7195 0.0
H1781 H 0.6495 0.35522 0.69559 0.0
C1782 C 0.67963 0.42054 0.68426 0.0
C1783 C 0.69643 0.45634 0.68047 0.0
C1784 C 0.69126 0.40211 0.6966 0.0
C1785 C 0.73045 0.46839 0.68719 0.0
C1786 C 0.74155 0.45089 0.69959 0.0
C1787 C 0.72497 0.40816 0.71855 0.0
C1788 C 0.70438 0.37675 0.72401 0.0
C1789 C 0.72021 0.41966 0.7048 0.0
C1790 C 0.67873 0.35626 0.71542 0.0
C1791 C 0.67154 0.36943 0.7018 0.0
H1792 H 0.12779 0.32138 0.40787 0.0
H1793 H 0.09614 0.20081 0.40726 0.0
H1794 H 1.02781 0.21854 0.40706 0.0
H1795 H 0.97218 0.26826 0.40715 0.0
H1796 H 1.00344 0.38884 0.40827 0.0
H1797 H 0.07195 0.37125 0.40816 0.0
C1798 C 0.10646 0.29845 0.40761 0.0
C1799 C 0.12053 0.25851 0.40746 0.0
C1800 C 0.06463 0.30915 0.40759 0.0
C1801 C 0.0893 0.2314 0.4073 0.0
C1802 C 0.04886 0.24176 0.4072 0.0
C1803 C 0.99347 0.29124 0.40731 0.0
C1804 C 0.9793 0.33109 0.40762 0.0
C1805 C 1.03527 0.2806 0.40734 0.0
C1806 C 1.01043 0.3583 0.40796 0.0
C1807 C 0.05094 0.34801 0.4079 0.0
H1808 H 0.07187 0.7188 0.65915 0.0
H1809 H 0.95021 0.74632 0.65954 0.0
H1810 H 0.96546 0.81524 0.6596 0.0
H1811 H 1.01329 0.87255 0.65962 0.0
H1812 H 0.13495 0.84496 0.65948 0.0
H1813 H 0.11967 0.77606 0.65925 0.0
C1814 C 0.04816 0.73934 0.65919 0.0
C1815 C 1.00879 0.72393 0.65926 0.0
C1816 C 0.05735 0.78146 0.65927 0.0
C1817 C 0.98054 0.75422 0.65942 0.0
C1818 C 0.98942 0.79499 0.65947 0.0
C1819 C 1.03698 0.85199 0.65948 0.0
C1820 C 0.07638 0.86736 0.65949 0.0
C1821 C 1.02778 0.80987 0.65939 0.0
C1822 C 0.10462 0.83708 0.65942 0.0
C1823 C 0.09571 0.79632 0.6593 0.0
H1824 H 0.47554 0.77061 0.90729 0.0
H1825 H 0.50219 0.89202 0.9107 0.0
H1826 H 0.57118 0.87706 0.91085 0.0
H1827 H 0.62893 0.82965 0.91012 0.0
H1828 H 0.60243 0.70817 0.90704 0.0
H1829 H 0.53338 0.72311 0.90669 0.0
C1830 C 0.49589 0.79434 0.90802 0.0
C1831 C 0.48012 0.83359 0.9089 0.0
C1832 C 0.53816 0.78531 0.90818 0.0
C1833 C 0.51027 0.8618 0.90993 0.0
C1834 C 0.55113 0.85308 0.91003 0.0
C1835 C 0.60861 0.80591 0.90931 0.0
C1836 C 0.62443 0.76668 0.90853 0.0
C1837 C 0.56636 0.81491 0.90916 0.0
C1838 C 0.59431 0.7384 0.90762 0.0
C1839 C 0.55342 0.74711 0.90742 0.0
H1840 H 0.56934 0.22385 0.15854 0.0
H1841 H 0.44794 0.25242 0.15931 0.0
H1842 H 0.46381 0.32119 0.15924 0.0
H1843 H 0.51209 0.37818 0.1591 0.0
H1844 H 0.63351 0.34972 0.15852 0.0
H1845 H 0.61767 0.2809 0.15839 0.0
C1846 C 0.5458 0.24458 0.15864 0.0
C1847 C 0.50625 0.22942 0.15887 0.0
C1848 C 0.55539 0.28669 0.15866 0.0
C1849 C 0.47833 0.26002 0.15909 0.0
C1850 C 0.4876 0.30075 0.15906 0.0
C1851 C 0.53564 0.35748 0.15891 0.0
C1852 C 0.57516 0.37267 0.15878 0.0
C1853 C 0.52608 0.31537 0.15886 0.0
C1854 C 0.60312 0.34209 0.1586 0.0
C1855 C 0.59387 0.30134 0.15853 0.0
H1856 H 0.96538 0.83052 0.27333 0.0
H1857 H 0.99631 0.70989 0.27067 0.0
H1858 H 0.06467 0.7269 0.27105 0.0
H1859 H 0.12068 0.77595 0.27192 0.0
H1860 H 0.09014 0.89672 0.27392 0.0
H1861 H 1.02161 0.87977 0.27401 0.0
C1862 C 0.98654 0.8074 0.27293 0.0
C1863 C 0.97219 0.76767 0.2721 0.0
C1864 C 1.02848 0.81767 0.27303 0.0
C1865 C 1.0033 0.74036 0.27141 0.0
C1866 C 1.0438 0.75028 0.27161 0.0
C1867 C 0.09957 0.79909 0.27249 0.0
C1868 C 0.11401 0.83877 0.27307 0.0
C1869 C 0.05767 0.7889 0.27241 0.0
C1870 C 0.083 0.86623 0.27356 0.0
C1871 C 1.04244 0.85634 0.2736 0.0
H1872 H 0.47687 0.83122 0.52093 0.0
H1873 H 0.58554 0.89221 0.52071 0.0
H1874 H 0.62001 0.82983 0.52026 0.0
H1875 H 0.62143 0.75531 0.51973 0.0
H1876 H 0.51277 0.69439 0.52093 0.0
H1877 H 0.47835 0.75678 0.52123 0.0
C1878 C 0.50822 0.83152 0.52086 0.0
C1879 C 0.52741 0.86922 0.52091 0.0
C1880 C 0.5288 0.79397 0.52078 0.0
C1881 C 0.56847 0.86594 0.52078 0.0
C1882 C 0.58866 0.82928 0.52049 0.0
C1883 C 0.59011 0.75503 0.52014 0.0
C1884 C 0.57087 0.71734 0.52034 0.0
C1885 C 0.56956 0.7926 0.52047 0.0
C1886 C 0.52986 0.72065 0.52083 0.0
C1887 C 0.50969 0.75731 0.52097 0.0
H1888 H 0.6168 0.26418 0.77067 0.0
H1889 H 0.58859 0.38522 0.76695 0.0
H1890 H 0.51983 0.36995 0.76802 0.0
H1891 H 0.46275 0.32214 0.76969 0.0
H1892 H 0.49114 0.20094 0.77258 0.0
H1893 H 0.55985 0.21645 0.77218 0.0
C1894 C 0.59615 0.28774 0.77016 0.0
C1895 C 0.61128 0.32693 0.76877 0.0
C1896 C 0.55409 0.27853 0.77064 0.0
C1897 C 0.58087 0.35501 0.76804 0.0
C1898 C 0.54018 0.34613 0.76866 0.0
C1899 C 0.48343 0.29864 0.77038 0.0
C1900 C 0.46834 0.2593 0.77136 0.0
C1901 C 0.52551 0.30792 0.76994 0.0
C1902 C 0.4988 0.23126 0.77192 0.0
C1903 C 0.53947 0.24026 0.77167 0.0
H1904 H 0.12196 0.25577 1.02022 0.0
H1905 H 1.01147 0.19818 1.01962 0.0
H1906 H 0.97898 0.26163 1.01925 0.0
H1907 H 0.9799 0.33608 1.01872 0.0
H1908 H 0.09026 0.39374 1.02071 0.0
H1909 H 0.1228 0.33029 1.02092 0.0
C1910 C 0.09062 0.25646 1.0201 0.0
C1911 C 0.07022 0.21938 1.01999 0.0
C1912 C 0.07125 0.29465 1.02011 0.0
C1913 C 1.02932 0.22391 1.01982 0.0
C1914 C 1.01032 0.26119 1.01955 0.0
C1915 C 1.01121 0.33543 1.01928 0.0
C1916 C 1.03153 0.37254 1.01969 0.0
C1917 C 1.03058 0.29725 1.01965 0.0
C1918 C 0.07241 0.368 1.02043 0.0
C1919 C 0.09146 0.33072 1.02052 0.0
H1920 H 0.13092 0.82932 0.76944 0.0
H1921 H 0.10124 0.70831 0.76987 0.0
H1922 H 1.03257 0.72492 0.7704 0.0
H1923 H 0.97608 0.77403 0.77055 0.0
H1924 H 1.00639 0.89496 0.76956 0.0
H1925 H 0.07477 0.87816 0.76946 0.0
C1926 C 0.10995 0.80606 0.76969 0.0
C1927 C 0.12459 0.76646 0.76966 0.0
C1928 C 0.06806 0.81606 0.76991 0.0
C1929 C 0.09386 0.73877 0.76991 0.0
C1930 C 0.05325 0.74846 0.77022 0.0
C1931 C 0.99712 0.79723 0.77042 0.0
C1932 C 0.98263 0.83696 0.77019 0.0
C1933 C 1.03907 0.78711 0.77022 0.0
C1934 C 1.01353 0.86445 0.76982 0.0
C1935 C 0.05404 0.85467 0.76974 0.0
H1936 H 0.96902 0.26255 0.52238 0.0
H1937 H 0.07568 0.19787 0.52164 0.0
H1938 H 0.11211 0.25896 0.52128 0.0
H1939 H 0.11611 0.33333 0.52087 0.0
H1940 H 1.00977 0.39823 0.52301 0.0
H1941 H 0.97317 0.33714 0.52314 0.0
C1942 C 1.00033 0.26114 0.52222 0.0
C1943 C 1.01828 0.22272 0.52206 0.0
C1944 C 1.02221 0.29803 0.52225 0.0
C1945 C 0.05943 0.2247 0.52185 0.0
C1946 C 0.08081 0.26063 0.5216 0.0
C1947 C 0.08484 0.3348 0.52145 0.0
C1948 C 0.06704 0.37324 0.52196 0.0
C1949 C 0.06298 0.29797 0.52177 0.0
C1950 C 1.02593 0.37136 0.52269 0.0
C1951 C 1.00446 0.33543 0.52272 0.0
H1952 H 0.62087 0.32459 0.27299 0.0
H1953 H 0.59453 0.20509 0.26428 0.0
H1954 H 0.52572 0.2199 0.26422 0.0
H1955 H 0.46807 0.26655 0.26629 0.0
H1956 H 0.49378 0.38646 0.27428 0.0
H1957 H 0.56285 0.37162 0.27488 0.0
C1958 C 0.60062 0.30124 0.27114 0.0
C1959 C 0.6164 0.26258 0.26874 0.0
C1960 C 0.55839 0.31021 0.27094 0.0
C1961 C 0.58642 0.23486 0.26626 0.0
C1962 C 0.54566 0.24346 0.2662 0.0
C1963 C 0.48823 0.28991 0.26826 0.0
C1964 C 0.47234 0.3286 0.27034 0.0
C1965 C 0.53039 0.28106 0.26849 0.0
C1966 C 0.50213 0.35658 0.27266 0.0
C1967 C 0.54298 0.34795 0.27301 0.0
H1968 H 0.60858 0.8423 1.01974 0.0
H1969 H 0.49923 0.90213 1.01784 0.0
H1970 H 0.46558 0.83946 1.01736 0.0
H1971 H 0.46494 0.76493 1.01733 0.0
H1972 H 0.57408 0.70506 1.02021 0.0
H1973 H 0.60783 0.76773 1.02044 0.0
C1974 C 0.57726 0.8423 1.01927 0.0
C1975 C 0.55762 0.87983 1.01886 0.0
C1976 C 0.55708 0.8045 1.01916 0.0
C1977 C 0.51663 0.87606 1.01825 0.0
C1978 C 0.49689 0.83921 1.01794 0.0
C1979 C 0.49622 0.76492 1.01806 0.0
C1980 C 0.51578 0.72739 1.01876 0.0
C1981 C 0.51638 0.80271 1.01838 0.0
C1982 C 0.55673 0.73114 1.01969 0.0
C1983 C 0.57652 0.76799 1.01981 0.0
H1984 H 0.07625 0.36579 0.90992 0.0
H1985 H 0.13715 0.25703 0.9088 0.0
H1986 H 0.07481 0.22276 0.90793 0.0
H1987 H 1.00002 0.2214 0.90751 0.0
H1988 H 0.93952 0.33041 0.90814 0.0
H1989 H 1.00181 0.36451 0.90912 0.0
C1990 C 0.07657 0.33447 0.90945 0.0
C1991 C 0.11431 0.31522 0.90944 0.0
C1992 C 1.03897 0.31397 0.90884 0.0
C1993 C 0.11091 0.27419 0.90881 0.0
C1994 C 0.07423 0.25408 0.90831 0.0
C1995 C 0.9998 0.25273 0.90782 0.0
C1996 C 0.9621 0.27215 0.9077 0.0
C1997 C 1.0375 0.27322 0.90831 0.0
C1998 C 0.96569 0.31317 0.90815 0.0
C1999 C 1.00234 0.33318 0.90874 0.0
H2000 H 0.58035 0.37895 0.6586 0.0
H2001 H 0.46033 0.34677 0.65494 0.0
H2002 H 0.47853 0.2785 0.65468 0.0
H2003 H 0.52867 0.22308 0.65563 0.0
H2004 H 0.64852 0.25541 0.65993 0.0
H2005 H 0.63037 0.32362 0.65976 0.0
C2006 C 0.55764 0.35752 0.65765 0.0
C2007 C 0.51775 0.37138 0.65667 0.0
C2008 C 0.5686 0.3158 0.65762 0.0
C2009 C 0.49089 0.34004 0.65566 0.0
C2010 C 0.50153 0.29966 0.65551 0.0
C2011 C 0.55138 0.24453 0.65646 0.0
C2012 C 0.59124 0.2307 0.65769 0.0
C2013 C 0.54039 0.28627 0.65649 0.0
C2014 C 0.61801 0.26208 0.65888 0.0
C2015 C 0.60741 0.30245 0.6588 0.0
H2016 H 0.58096 0.87423 0.41092 0.0
H2017 H 0.64084 0.76493 0.4091 0.0
H2018 H 0.5782 0.73117 0.40923 0.0
H2019 H 0.50374 0.73047 0.41004 0.0
H2020 H 0.4438 0.83981 0.41106 0.0
H2021 H 0.50645 0.87357 0.41104 0.0
C2022 C 0.58095 0.84291 0.41048 0.0
C2023 C 0.61843 0.82328 0.40996 0.0
C2024 C 0.5432 0.82273 0.41043 0.0
C2025 C 0.61473 0.7823 0.40944 0.0
C2026 C 0.57793 0.7625 0.40955 0.0
C2027 C 0.50374 0.76181 0.41021 0.0
C2028 C 0.46626 0.78145 0.41054 0.0
C2029 C 0.54147 0.78199 0.41005 0.0
C2030 C 0.46992 0.82245 0.41075 0.0
C2031 C 0.50672 0.84223 0.41076 0.0
H2032 H 0.97878 0.84134 0.15907 0.0
H2033 H 0.08886 0.89959 0.16068 0.0
H2034 H 0.12177 0.8364 0.16099 0.0
H2035 H 0.12144 0.76185 0.16116 0.0
H2036 H 1.01158 0.70361 0.15818 0.0
H2037 H 0.97861 0.76679 0.15806 0.0
C2038 C 1.01012 0.84087 0.15942 0.0
C2039 C 1.03021 0.87812 0.15985 0.0
C2040 C 1.02982 0.80279 0.15939 0.0
C2041 C 0.07116 0.87377 0.16028 0.0
C2042 C 0.09044 0.83661 0.1605 0.0
C2043 C 0.09016 0.76231 0.16041 0.0
C2044 C 0.07013 0.72507 0.15969 0.0
C2045 C 0.0705 0.8004 0.1601 0.0
C2046 C 1.02925 0.72943 0.1587 0.0
C2047 C 1.00992 0.76658 0.15867 0.0
H2048 H 0.23273 0.26663 0.35434 0.0
H2049 H 0.34725 0.27519 0.37182 0.0
H2050 H 0.372 0.29717 0.34924 0.0
H2051 H 0.36314 0.31481 0.32336 0.0
H2052 H 0.2488 0.30418 0.30582 0.0
H2053 H 0.22412 0.28281 0.32844 0.0
C2054 C 0.26332 0.27287 0.3534 0.0
C2055 C 0.28738 0.26803 0.36575 0.0
C2056 C 0.27829 0.28562 0.33973 0.0
C2057 C 0.32685 0.27768 0.36328 0.0
C2058 C 0.34145 0.29053 0.35001 0.0
C2059 C 0.33271 0.30778 0.32426 0.0
C2060 C 0.3086 0.31188 0.31187 0.0
C2061 C 0.31782 0.29474 0.33793 0.0
C2062 C 0.26921 0.30203 0.31437 0.0
C2063 C 0.25465 0.28955 0.32766 0.0
H2064 H 1.0307 1.0151 0.56492 0.0
H2065 H 0.98704 0.12915 0.57392 0.0
H2066 H 1.00666 0.12164 0.59835 0.0
H2067 H 1.03682 0.08267 0.61854 0.0
H2068 H 0.07847 0.96787 0.60945 0.0
H2069 H 0.05983 0.97601 0.58503 0.0
C2070 C 1.02511 1.03867 0.57209 0.0
C2071 C 1.0064 0.07322 0.5666 0.0
C2072 C 1.03657 1.03394 0.58682 0.0
C2073 C 1.00064 0.10218 0.57695 0.0
C2074 C 1.01218 0.09779 0.5913 0.0
C2075 C 1.04193 0.05902 0.61137 0.0
C2076 C 0.05984 1.02398 0.61685 0.0
C2077 C 1.03026 0.06379 0.59662 0.0
C2078 C 0.06515 0.99503 0.60647 0.0
C2079 C 0.05426 0.99978 0.59211 0.0
H2080 H 0.26203 0.81915 0.86387 0.0
H2081 H 0.38625 0.81538 0.86048 0.0
H2082 H 0.38044 0.79554 0.83607 0.0
H2083 H 0.3406 0.77836 0.81438 0.0
H2084 H 0.21639 0.77991 0.81793 0.0
H2085 H 0.22211 0.80035 0.8423 0.0
C2086 C 0.2882 0.81396 0.85797 0.0
C2087 C 0.32512 0.81979 0.86497 0.0
C2088 C 0.28467 0.80172 0.84327 0.0
C2089 C 0.35739 0.81196 0.85622 0.0
C2090 C 0.35403 0.80036 0.84188 0.0
C2091 C 0.3144 0.78318 0.82032 0.0
C2092 C 0.27754 0.77713 0.81332 0.0
C2093 C 0.31789 0.79506 0.83504 0.0
C2094 C 0.2452 0.78389 0.82215 0.0
C2095 C 0.24854 0.79582 0.83647 0.0
H2096 H 0.52097 0.11787 0.10561 0.0
H2097 H 0.52222 1.00248 0.12252 0.0
H2098 H 0.54267 0.97702 0.09987 0.0
H2099 H 0.56138 0.98537 1.07407 0.0
H2100 H 0.56004 0.10093 1.05726 0.0
H2101 H 0.54059 0.12632 1.07998 0.0
C2102 C 0.52577 0.08702 0.10459 0.0
C2103 C 0.51918 0.06293 0.11682 0.0
C2104 C 0.53837 0.07165 0.09091 0.0
C2105 C 0.52635 1.02299 0.11413 0.0
C2106 C 0.53832 1.00796 0.1008 0.0
C2107 C 0.55688 1.01625 1.07515 0.0
C2108 C 0.56302 1.04041 1.06289 0.0
C2109 C 0.54461 1.03162 0.08888 0.0
C2110 C 0.55625 0.08036 1.06566 0.0
C2111 C 0.5448 0.09536 1.07903 0.0
H2112 H 0.35369 0.76508 0.3554 0.0
H2113 H 0.24955 0.80197 0.37614 0.0
H2114 H 0.22463 0.82782 0.35413 0.0
H2115 H 0.23052 0.84193 0.32798 0.0
H2116 H 0.33384 0.80352 0.30707 0.0
H2117 H 0.35901 0.77803 0.32911 0.0
C2118 C 0.32548 0.77878 0.35532 0.0
C2119 C 0.30439 0.78082 0.36842 0.0
C2120 C 0.31031 0.79416 0.342 0.0
C2121 C 0.26762 0.79909 0.36699 0.0
C2122 C 0.25294 0.8143 0.35407 0.0
C2123 C 0.25866 0.82809 0.32803 0.0
C2124 C 0.27954 0.82577 0.3149 0.0
C2125 C 0.27369 0.81239 0.34131 0.0
C2126 C 0.31599 0.8068 0.31626 0.0
C2127 C 0.33082 0.7918 0.3292 0.0
H2128 H 0.54934 1.01751 0.61707 0.0
H2129 H 0.61382 0.11899 0.60534 0.0
H2130 H 0.59432 0.10975 0.58104 0.0
H2131 H 0.558 0.07326 0.56179 0.0
H2132 H 0.49531 0.97053 0.57332 0.0
H2133 H 0.51473 0.9798 0.59766 0.0
C2134 C 0.55938 1.03797 0.60934 0.0
C2135 C 0.58373 0.06974 0.61403 0.0
C2136 C 0.54798 1.03213 0.59464 0.0
C2137 C 0.59548 0.09446 0.60295 0.0
C2138 C 0.58406 0.08908 0.58867 0.0
C2139 C 0.54822 0.0526 0.56949 0.0
C2140 C 0.52396 1.02078 0.56478 0.0
C2141 C 0.5601 0.05809 0.58415 0.0
C2142 C 0.51317 0.99535 0.57577 0.0
C2143 C 0.52457 1.00076 0.59006 0.0
H2144 H 0.35315 0.25602 0.82808 0.0
H2145 H 0.246 0.2859 0.80769 0.0
H2146 H 0.22075 0.31131 0.82967 0.0
H2147 H 0.22694 0.32657 0.85573 0.0
H2148 H 0.33423 0.29745 0.87613 0.0
H2149 H 0.35962 0.27207 0.85413 0.0
C2150 C 0.32414 0.26792 0.82824 0.0
C2151 C 0.30223 0.26786 0.81527 0.0
C2152 C 0.30893 0.28348 0.84151 0.0
C2153 C 0.26468 0.28446 0.81675 0.0
C2154 C 0.24979 0.29942 0.82966 0.0
C2155 C 0.25595 0.31466 0.85558 0.0
C2156 C 0.27778 0.31466 0.86856 0.0
C2157 C 0.27126 0.29935 0.84231 0.0
C2158 C 0.31553 0.29862 0.86707 0.0
C2159 C 0.33049 0.2837 0.85415 0.0
H2160 H 0.08973 0.11057 1.07615 0.0
H2161 H 0.05652 1.0037 1.05634 0.0
H2162 H 1.03115 0.97979 1.07844 0.0
H2163 H 1.01614 0.98707 0.1045 0.0
H2164 H 0.04772 0.09445 0.12425 0.0
H2165 H 0.074 0.11816 0.10222 0.0
C2166 C 0.07722 0.08187 1.07645 0.0
C2167 C 0.07635 0.05968 1.06353 0.0
C2168 C 0.06136 0.06744 0.08983 0.0
C2169 C 0.0588 1.02264 1.0653 0.0
C2170 C 1.04378 1.00847 1.0783 0.0
C2171 C 1.02871 1.01576 0.10422 0.0
C2172 C 1.02899 1.03812 0.11708 0.0
C2173 C 1.04449 1.03025 0.09085 0.0
C2174 C 1.04608 0.07535 0.11532 0.0
C2175 C 0.0616 0.08938 0.10236 0.0
H2176 H 0.84209 0.80049 0.86676 0.0
H2177 H 0.72169 0.77545 0.85933 0.0
H2178 H 0.72904 0.79478 0.83498 0.0
H2179 H 0.76898 0.82 0.81443 0.0
H2180 H 0.88865 0.84807 0.82183 0.0
H2181 H 0.88187 0.82747 0.84619 0.0
C2182 C 0.81703 0.79917 0.85998 0.0
C2183 C 0.78074 0.78533 0.86592 0.0
C2184 C 0.82135 0.8115 0.84527 0.0
C2185 C 0.75002 0.78503 0.856 0.0
C2186 C 0.75428 0.79646 0.84167 0.0
C2187 C 0.79399 0.82192 0.82122 0.0
C2188 C 0.82991 0.83653 0.81527 0.0
C2189 C 0.78972 0.80995 0.83593 0.0
C2190 C 0.86061 0.83774 0.82519 0.0
C2191 C 0.85664 0.8256 0.83951 0.0
H2192 H 0.76274 0.29746 0.366 0.0
H2193 H 0.87916 0.33495 0.35745 0.0
H2194 H 0.87127 0.31633 0.33302 0.0
H2195 H 0.83185 0.28852 0.31278 0.0
H2196 H 0.71616 0.24894 0.32128 0.0
H2197 H 0.72351 0.26846 0.34572 0.0
C2198 C 0.78678 0.30166 0.35894 0.0
C2199 C 0.82217 0.31841 0.36454 0.0
C2200 C 0.78215 0.29002 0.34422 0.0
C2201 C 0.85168 0.32259 0.35433 0.0
C2202 C 0.84708 0.31172 0.33998 0.0
C2203 C 0.80789 0.28385 0.31984 0.0
C2204 C 0.77299 0.26616 0.31426 0.0
C2205 C 0.81252 0.29523 0.33456 0.0
C2206 C 0.74349 0.26155 0.32444 0.0
C2207 C 0.74775 0.27307 0.33878 0.0
H2208 H 0.82335 0.30535 0.81206 0.0
H2209 H 0.70474 0.33809 0.8192 0.0
H2210 H 0.71105 0.31904 0.84372 0.0
H2211 H 0.75011 0.29235 0.86441 0.0
H2212 H 0.86902 0.26073 0.85712 0.0
H2213 H 0.86232 0.27914 0.83264 0.0
C2214 C 0.79854 0.30857 0.81884 0.0
C2215 C 0.76307 0.32391 0.81287 0.0
C2216 C 0.80244 0.29729 0.83357 0.0
C2217 C 0.7324 0.32686 0.82268 0.0
C2218 C 0.73609 0.31573 0.83705 0.0
C2219 C 0.77493 0.28944 0.85761 0.0
C2220 C 0.81066 0.27456 0.86357 0.0
C2221 C 0.77095 0.30078 0.84286 0.0
C2222 C 0.84124 0.27181 0.85371 0.0
C2223 C 0.83735 0.28254 0.83934 0.0
H2224 H 0.73644 0.84562 0.35375 0.0
H2225 H 0.83278 0.79423 0.37554 0.0
H2226 H 0.85691 0.76755 0.3536 0.0
H2227 H 0.85219 0.75618 0.32728 0.0
H2228 H 0.75565 0.8068 0.30541 0.0
H2229 H 0.73171 0.83418 0.32731 0.0
C2230 C 0.76285 0.82871 0.35391 0.0
C2231 C 0.78205 0.82299 0.36727 0.0
C2232 C 0.77722 0.81218 0.34067 0.0
C2233 C 0.81624 0.80013 0.36618 0.0
C2234 C 0.83046 0.7844 0.3533 0.0
C2235 C 0.82581 0.77313 0.32709 0.0
C2236 C 0.80651 0.77839 0.31374 0.0
C2237 C 0.81144 0.78973 0.34029 0.0
C2238 C 0.77227 0.80123 0.31478 0.0
C2239 C 0.75817 0.81734 0.32764 0.0
H2240 H 0.54813 0.58961 0.11565 0.0
H2241 H 0.57051 0.46828 0.10924 0.0
H2242 H 0.55087 0.47459 1.08484 0.0
H2243 H 0.52626 0.51396 1.06393 0.0
H2244 H 0.50166 0.63479 1.07041 0.0
H2245 H 0.5223 0.62885 0.09477 0.0
C2246 C 0.54888 0.56414 0.10908 0.0
C2247 C 0.56168 0.52786 0.11535 0.0
C2248 C 0.53671 0.5679 0.09432 0.0
C2249 C 0.56138 0.49658 0.10567 0.0
C2250 C 0.54989 0.50026 0.09131 0.0
C2251 C 0.52529 0.53942 1.0705 0.0
C2252 C 0.51173 0.57545 1.06427 0.0
C2253 C 0.53729 0.53569 1.08525 0.0
C2254 C 0.5114 0.60667 1.07396 0.0
C2255 C 0.52352 0.60321 0.08829 0.0
H2256 H 1.04635 0.50993 0.61776 0.0
H2257 H 1.01188 0.62764 0.60965 0.0
H2258 H 1.03175 0.62053 0.58532 0.0
H2259 H 0.05874 0.58105 0.56491 0.0
H2260 H 0.09724 0.46472 0.5732 0.0
H2261 H 0.07643 0.47134 0.59752 0.0
C2262 C 1.04303 0.53443 0.61082 0.0
C2263 C 1.02647 0.56984 0.61653 0.0
C2264 C 0.05547 0.53027 0.59615 0.0
C2265 C 1.02382 0.60003 0.60648 0.0
C2266 C 1.0354 0.59586 0.59216 0.0
C2267 C 0.06296 0.55678 0.5719 0.0
C2268 C 0.08045 0.5218 0.56622 0.0
C2269 C 0.05123 0.56112 0.58661 0.0
C2270 C 0.08463 0.49204 0.57637 0.0
C2271 C 0.07237 0.4959 0.59065 0.0
H2272 H 0.05072 0.51421 0.11635 0.0
H2273 H 0.09915 0.62606 0.1071 0.0
H2274 H 0.07996 0.61863 1.08264 0.0
H2275 H 0.04907 0.58054 1.06255 0.0
H2276 H 1.00213 0.46795 1.07162 0.0
H2277 H 1.0207 0.47562 0.09615 0.0
C2278 C 0.05741 0.5373 0.10913 0.0
C2279 C 0.07728 0.57128 0.11455 0.0
C2280 C 1.04621 0.53258 0.09435 0.0
C2281 C 0.08459 0.59958 0.10412 0.0
C2282 C 0.0733 0.59525 0.08976 0.0
C2283 C 1.04262 0.55732 1.06975 0.0
C2284 C 1.02326 0.52313 1.06427 0.0
C2285 C 0.05401 0.5619 1.0845 0.0
C2286 C 1.01638 0.49457 1.07465 0.0
C2287 C 1.02726 0.49906 0.08905 0.0
H2288 H 0.51178 0.48918 0.60252 0.0
H2289 H 0.55826 0.58861 0.62376 0.0
H2290 H 0.58565 0.61205 0.60178 0.0
H2291 H 0.59815 0.60586 0.57546 0.0
H2292 H 0.54888 0.50736 0.55435 0.0
H2293 H 0.52279 0.48379 0.57635 0.0
C2294 C 0.528 0.51599 0.60255 0.0
C2295 C 0.53236 0.53624 0.6157 0.0
C2296 C 0.54406 0.53027 0.58932 0.0
C2297 C 0.55362 0.57131 0.61449 0.0
C2298 C 0.5697 0.58509 0.60161 0.0
C2299 C 0.58192 0.57907 0.57548 0.0
C2300 C 0.57686 0.55892 0.56231 0.0
C2301 C 0.5655 0.56507 0.58875 0.0
C2302 C 0.55456 0.52444 0.56359 0.0
C2303 C 0.5391 0.51054 0.57649 0.0
H2304 H 0.30552 0.16571 0.46574 0.0
H2305 H 0.35583 0.12457 0.42747 0.0
H2306 H 0.3988 0.08198 0.44121 0.0
H2307 H 0.42523 0.05387 0.46462 0.0
H2308 H 0.37618 0.09604 0.50295 0.0
H2309 H 0.33251 0.13802 0.48921 0.0
C2310 C 0.32576 0.14767 0.46007 0.0
C2311 C 0.32502 0.15073 0.44463 0.0
C2312 C 0.35207 0.12208 0.4685 0.0
C2313 C 0.35321 0.1253 0.4387 0.0
C2314 C 0.37866 0.1001 0.44688 0.0
C2315 C 0.40518 0.07207 0.4703 0.0
C2316 C 0.40642 0.06943 0.48574 0.0
C2317 C 0.37895 0.09774 0.46189 0.0
C2318 C 0.37845 0.09504 0.49171 0.0
C2319 C 0.35261 0.11989 0.48353 0.0
H2320 H 0.27524 0.17181 0.71658 0.0
H2321 H 0.23524 0.12088 0.75487 0.0
H2322 H 0.19295 0.07754 0.74114 0.0
H2323 H 0.16436 0.05175 0.71769 0.0
H2324 H 0.20346 0.104 0.6795 0.0
H2325 H 0.24645 0.14646 0.69323 0.0
C2326 C 0.25737 0.15146 0.72223 0.0
C2327 C 0.26055 0.15198 0.73762 0.0
C2328 C 0.23159 0.12556 0.71386 0.0
C2329 C 0.23559 0.12364 0.74364 0.0
C2330 C 0.21061 0.09805 0.73547 0.0
C2331 C 0.18201 0.07236 0.71207 0.0
C2332 C 0.17832 0.0725 0.69668 0.0
C2333 C 0.20778 0.09829 0.72048 0.0
C2334 C 0.20329 0.10091 0.69072 0.0
C2335 C 0.22868 0.12601 0.69888 0.0
H2336 H 0.1627 1.02257 0.9639 0.0
H2337 H 0.22082 0.99354 1.00217 0.0
H2338 H 0.2654 0.95178 0.98875 0.0
H2339 H 0.29035 0.92075 0.96559 0.0
H2340 H 0.2355 0.95478 0.92716 0.0
H2341 H 0.19033 0.99548 0.94065 0.0
C2342 C 0.18563 1.00837 0.96958 0.0
C2343 C 0.1864 1.0143 0.98488 0.0
C2344 C 0.21306 0.98385 0.96134 0.0
C2345 C 0.21698 0.99207 0.99099 0.0
C2346 C 0.24336 0.96739 0.983 0.0
C2347 C 0.26906 0.93728 0.95982 0.0
C2348 C 0.26907 0.93275 0.94444 0.0
C2349 C 0.24225 0.96259 0.96806 0.0
C2350 C 0.23896 0.9556 0.93836 0.0
C2351 C 0.21223 0.97964 0.9464 0.0
H2352 H 0.30026 0.93123 0.21605 0.0
H2353 H 0.35495 0.96638 0.25438 0.0
H2354 H 0.39936 1.00761 0.24079 0.0
H2355 H 0.42607 1.03565 0.21745 0.0
H2356 H 0.37183 0.99979 0.17914 0.0
H2357 H 0.32689 0.95926 0.19276 0.0
C2358 C 0.32181 0.94762 0.22175 0.0
C2359 C 0.32194 0.94337 0.23712 0.0
C2360 C 0.3489 0.97229 0.21343 0.0
C2361 C 0.35168 0.96671 0.24316 0.0
C2362 C 0.37798 0.99105 0.23507 0.0
C2363 C 0.40468 1.01905 0.21176 0.0
C2364 C 0.40486 1.02286 0.19637 0.0
C2365 C 0.37755 0.99442 0.2201 0.0
C2366 C 0.37504 0.99956 0.19036 0.0
C2367 C 0.34845 0.97563 0.19846 0.0
H2368 H 0.77688 0.91316 0.71447 0.0
H2369 H 0.76416 0.98577 0.75059 0.0
H2370 H 0.72563 1.03143 0.73637 0.0
H2371 H 0.69309 0.05351 0.71309 0.0
H2372 H 0.70832 0.98215 0.67672 0.0
H2373 H 0.74665 0.93649 0.69098 0.0
C2374 C 0.76659 0.9392 0.71947 0.0
C2375 C 0.77592 0.94367 0.73447 0.0
C2376 C 0.74366 0.96698 0.71073 0.0
C2377 C 0.75934 0.97867 0.73974 0.0
C2378 C 0.73666 1.00575 0.73126 0.0
C2379 C 0.70487 1.02831 0.70792 0.0
C2380 C 0.69597 1.02396 0.69286 0.0
C2381 C 0.72823 1.00079 0.71664 0.0
C2382 C 0.71282 0.98912 0.6876 0.0
C2383 C 0.7354 0.96207 0.6961 0.0
H2384 H 0.86777 0.98608 0.49545 0.0
H2385 H 0.93966 0.04797 0.46652 0.0
H2386 H 0.90686 1.01746 0.44705 0.0
H2387 H 0.85631 0.97011 0.4361 0.0
H2388 H 0.79102 0.90149 0.46513 0.0
H2389 H 0.82086 0.93514 0.48455 0.0
C2390 C 0.87691 0.99366 0.48502 0.0
C2391 C 0.90757 1.02312 0.48364 0.0
C2392 C 0.8579 0.97326 0.47282 0.0
C2393 C 0.91635 1.02841 0.46912 0.0
C2394 C 0.89729 1.00979 0.45743 0.0
C2395 C 0.84794 0.96178 0.44654 0.0
C2396 C 0.81808 0.93152 0.44794 0.0
C2397 C 0.86748 0.98167 0.45875 0.0
C2398 C 0.81152 0.92399 0.46249 0.0
C2399 C 0.8295 0.94374 0.47416 0.0
H2400 H 0.92428 0.05905 0.21679 0.0
H2401 H 0.8893 0.11172 0.1782 0.0
H2402 H 0.84655 0.1556 0.19144 0.0
H2403 H 0.81787 0.18256 0.21445 0.0
H2404 H 0.85009 0.12781 0.25309 0.0
H2405 H 0.8932 0.0841 0.23988 0.0
C2406 C 0.90721 0.07959 0.21099 0.0
C2407 C 0.9121 0.07944 0.19567 0.0
C2408 C 0.8812 0.1059 0.21909 0.0
C2409 C 0.88838 0.10854 0.18941 0.0
C2410 C 0.86318 0.13452 0.19728 0.0
C2411 C 0.8334 0.16077 0.22031 0.0
C2412 C 0.82789 0.1605 0.23561 0.0
C2413 C 0.85893 0.13403 0.21222 0.0
C2414 C 0.85129 0.13114 0.24188 0.0
C2415 C 0.87671 0.10528 0.23402 0.0
H2416 H 0.65312 0.07109 0.96294 0.0
H2417 H 0.7107 0.10308 1.00107 0.0
H2418 H 0.75648 0.14246 0.98734 0.0
H2419 H 0.7828 0.17054 0.96396 0.0
H2420 H 0.72501 0.13826 0.92588 0.0
H2421 H 0.67977 0.0984 0.93962 0.0
C2422 C 0.6755 0.08651 0.96856 0.0
C2423 C 0.67599 0.08208 0.98391 0.0
C2424 C 0.70318 0.11021 0.96018 0.0
C2425 C 0.70699 0.10387 0.98987 0.0
C2426 C 0.73406 0.12711 0.98171 0.0
C2427 C 0.76047 0.15496 0.95836 0.0
C2428 C 0.75969 0.1595 0.94301 0.0
C2429 C 0.73296 0.13101 0.96676 0.0
C2430 C 0.72885 0.13743 0.93708 0.0
C2431 C 0.70208 0.11395 0.94524 0.0
H2432 H 0.81108 0.67207 0.9658 0.0
H2433 H 0.86337 0.63762 0.92704 0.0
H2434 H 0.90688 0.59402 0.94012 0.0
H2435 H 0.93342 0.56332 0.9631 0.0
H2436 H 0.882 0.59867 1.00191 0.0
H2437 H 0.83776 0.64148 0.9888 0.0
C2438 C 0.83186 0.6553 0.9599 0.0
C2439 C 0.83158 0.66059 0.94456 0.0
C2440 C 0.85843 0.62906 0.96793 0.0
C2441 C 0.86041 0.63662 0.93826 0.0
C2442 C 0.88618 0.61083 0.94605 0.0
C2443 C 0.9127 0.58014 0.96901 0.0
C2444 C 0.91345 0.57532 0.98437 0.0
C2445 C 0.88609 0.60634 0.96099 0.0
C2446 C 0.88464 0.59932 0.99068 0.0
C2447 C 0.85848 0.62469 0.98287 0.0
H2448 H 0.66339 0.5607 0.21749 0.0
H2449 H 0.70897 0.60473 0.17889 0.0
H2450 H 0.75322 0.64653 0.19235 0.0
H2451 H 0.78174 0.67368 0.21557 0.0
H2452 H 0.73525 0.63127 0.25424 0.0
H2453 H 0.69158 0.58856 0.24082 0.0
C2454 C 0.68272 0.57933 0.2117 0.0
C2455 C 0.68029 0.57723 0.19625 0.0
C2456 C 0.70937 0.60503 0.21996 0.0
C2457 C 0.70755 0.6033 0.19015 0.0
C2458 C 0.73376 0.62807 0.19816 0.0
C2459 C 0.76215 0.6554 0.2214 0.0
C2460 C 0.76416 0.65822 0.23682 0.0
C2461 C 0.73544 0.6298 0.21317 0.0
C2462 C 0.73682 0.63234 0.24299 0.0
C2463 C 0.71097 0.60704 0.23498 0.0
H2464 H 0.78752 0.41643 0.46509 0.0
H2465 H 0.74205 0.45959 0.42627 0.0
H2466 H 0.69883 0.50297 0.43951 0.0
H2467 H 0.67097 0.53128 0.46259 0.0
H2468 H 0.71543 0.48736 0.50145 0.0
H2469 H 0.7593 0.4445 0.48822 0.0
C2470 C 0.76828 0.43506 0.45921 0.0
C2471 C 0.77035 0.43231 0.4438 0.0
C2472 C 0.74195 0.46121 0.46732 0.0
C2473 C 0.74349 0.45856 0.43753 0.0
C2474 C 0.71794 0.48423 0.44541 0.0
C2475 C 0.69003 0.5125 0.46849 0.0
C2476 C 0.68752 0.51492 0.48388 0.0
C2477 C 0.71634 0.48632 0.46039 0.0
C2478 C 0.71425 0.48856 0.49019 0.0
C2479 C 0.74017 0.46319 0.48232 0.0
H2480 H 0.84736 0.47106 0.74385 0.0
H2481 H 0.80702 0.38657 0.71425 0.0
H2482 H 0.84098 0.41978 0.69562 0.0
H2483 H 0.88466 0.47468 0.68575 0.0
H2484 H 0.93038 0.55523 0.71572 0.0
H2485 H 0.89405 0.52394 0.73418 0.0
C2486 C 0.84547 0.4591 0.73345 0.0
C2487 C 0.82175 0.42405 0.73152 0.0
C2488 C 0.86717 0.47916 0.72184 0.0
C2489 C 0.82302 0.41229 0.71716 0.0
C2490 C 0.84325 0.43192 0.706 0.0
C2491 C 0.88706 0.48631 0.69619 0.0
C2492 C 0.9116 0.52076 0.69816 0.0
C2493 C 0.86583 0.46595 0.70783 0.0
C2494 C 0.91223 0.53118 0.71265 0.0
C2495 C 0.89102 0.5123 0.72375 0.0
H2496 H 0.22372 0.45415 0.2421 0.0
H2497 H 0.31154 0.41593 0.21355 0.0
H2498 H 0.2811 0.45223 0.1948 0.0
H2499 H 0.22697 0.49687 0.18441 0.0
H2500 H 0.13761 0.53263 0.21285 0.0
H2501 H 0.1692 0.49774 0.23167 0.0
C2502 C 0.23717 0.45342 0.23193 0.0
C2503 C 0.27309 0.43058 0.23046 0.0
C2504 C 0.21769 0.4751 0.22011 0.0
C2505 C 0.28596 0.43233 0.21624 0.0
C2506 C 0.26762 0.45359 0.20496 0.0
C2507 C 0.2134 0.49732 0.19457 0.0
C2508 C 0.17721 0.51979 0.19603 0.0
C2509 C 0.23288 0.47553 0.20637 0.0
C2510 C 0.16398 0.51732 0.21021 0.0
C2511 C 0.18273 0.4966 0.22151 0.0
H2512 H 0.41853 0.5336 0.96405 0.0
H2513 H 0.36573 0.50111 1.00287 0.0
H2514 H 0.32104 0.45858 0.98984 0.0
H2515 H 0.29413 0.42773 0.96688 0.0
H2516 H 0.3474 0.46016 0.92807 0.0
H2517 H 0.39146 0.50328 0.9411 0.0
C2518 C 0.39723 0.51776 0.96997 0.0
C2519 C 0.39786 0.52327 0.98531 0.0
C2520 C 0.37024 0.49191 0.96197 0.0
C2521 C 0.36859 0.49996 0.99165 0.0
C2522 C 0.34212 0.47478 0.98388 0.0
C2523 C 0.3152 0.44399 0.96094 0.0
C2524 C 0.31494 0.43829 0.9456 0.0
C2525 C 0.34211 0.46996 0.96894 0.0
C2526 C 0.34427 0.46154 0.93928 0.0
C2527 C 0.37041 0.48702 0.94704 0.0
H2528 H 0.42182 0.55515 0.71434 0.0
H2529 H 0.38908 0.61068 0.6759 0.0
H2530 H 0.34813 0.65587 0.6893 0.0
H2531 H 0.31972 0.68307 0.71245 0.0
H2532 H 0.35312 0.6282 0.75093 0.0
H2533 H 0.39332 0.58237 0.73751 0.0
C2534 C 0.40599 0.57703 0.70858 0.0
C2535 C 0.41078 0.57715 0.69324 0.0
C2536 C 0.38148 0.6046 0.71679 0.0
C2537 C 0.38822 0.60738 0.68711 0.0
C2538 C 0.36406 0.63412 0.69508 0.0
C2539 C 0.33568 0.66134 0.71822 0.0
C2540 C 0.33133 0.66164 0.73357 0.0
C2541 C 0.36011 0.63369 0.71002 0.0
C2542 C 0.35381 0.63134 0.73971 0.0
C2543 C 0.37756 0.60423 0.73173 0.0
H2544 H 0.16255 0.57047 0.46646 0.0
H2545 H 0.225 0.59491 0.50434 0.0
H2546 H 0.26955 0.63622 0.4908 0.0
H2547 H 0.29346 0.66814 0.46761 0.0
H2548 H 0.23107 0.64237 0.42982 0.0
H2549 H 0.18705 0.60079 0.44339 0.0
C2550 C 0.186 0.58415 0.47209 0.0
C2551 C 0.18815 0.57691 0.4873 0.0
C2552 C 0.21298 0.60896 0.4638 0.0
C2553 C 0.22001 0.59755 0.49324 0.0
C2554 C 0.24637 0.62198 0.48518 0.0
C2555 C 0.27042 0.65357 0.46202 0.0
C2556 C 0.26801 0.66058 0.44678 0.0
C2557 C 0.2437 0.6284 0.47034 0.0
C2558 C 0.23628 0.63968 0.4409 0.0
C2559 C 0.21019 0.61518 0.44898 0.0
H2560 H 0.35057 0.13651 0.33465 0.0
H2561 H 0.24388 0.19456 0.32318 0.0
H2562 H 0.25897 0.18591 0.29896 0.0
H2563 H 0.28613 0.13995 0.28238 0.0
H2564 H 0.37679 0.06297 0.29583 0.0
H2565 H 0.3863 0.10125 0.31673 0.0
C2566 C 0.32996 0.1468 0.32698 0.0
C2567 C 0.29416 0.16288 0.33114 0.0
C2568 C 0.33632 0.1378 0.31294 0.0
C2569 C 0.27074 0.18011 0.32076 0.0
C2570 C 0.27929 0.17513 0.30666 0.0
C2571 C 0.30886 0.1324 0.28972 0.0
C2572 C 0.32748 0.09638 0.28838 0.0
C2573 C 0.30958 0.15052 0.30277 0.0
C2574 C 0.35973 0.08907 0.29702 0.0
C2575 C 0.36464 0.11054 0.30925 0.0
H2576 H 0.13658 0.98636 0.57268 0.0
H2577 H 0.18364 0.09791 0.58382 0.0
H2578 H 0.21522 0.10252 0.5614 0.0
H2579 H 0.24873 0.0643 0.54377 0.0
H2580 H 0.20877 0.9493 0.53403 0.0
H2581 H 0.15534 0.95665 0.55042 0.0
C2582 C 0.15283 1.01216 0.57001 0.0
C2583 C 0.15962 1.04055 0.58022 0.0
C2584 C 0.17332 1.01348 0.55742 0.0
C2585 C 0.17873 0.0749 0.57636 0.0
C2586 C 0.19734 0.07745 0.56353 0.0
C2587 C 0.22712 1.04166 0.54464 0.0
C2588 C 0.23359 1.00565 0.53826 0.0
C2589 C 0.19793 1.04527 0.55466 0.0
C2590 C 0.20494 0.97687 0.53924 0.0
C2591 C 0.17461 0.98093 0.54871 0.0
H2592 H 0.28119 0.97882 0.78964 0.0
H2593 H 0.40196 0.95771 0.78162 0.0
H2594 H 0.40386 0.90959 0.80012 0.0
H2595 H 0.37815 0.89869 0.82349 0.0
H2596 H 0.25587 0.91483 0.83104 0.0
H2597 H 0.24758 0.93931 0.80747 0.0
C2598 C 0.30729 0.96193 0.79129 0.0
C2599 C 0.34233 0.97405 0.78528 0.0
C2600 C 0.3084 0.93511 0.80227 0.0
C2601 C 0.37514 0.95023 0.7868 0.0
C2602 C 0.37642 0.92312 0.79756 0.0
C2603 C 0.3492 0.90589 0.82005 0.0
C2604 C 0.31863 0.90971 0.82969 0.0
C2605 C 0.34435 0.91912 0.80635 0.0
C2606 C 0.28102 0.916 0.82434 0.0
C2607 C 0.27598 0.92943 0.81074 0.0
H2608 H 0.34833 0.06004 1.04598 0.0
H2609 H 0.37878 0.18079 1.0479 0.0
H2610 H 0.4386 0.16454 1.06038 0.0
H2611 H 0.46539 0.12033 1.0776 0.0
H2612 H 0.41829 1.00527 1.08109 0.0
H2613 H 0.3864 1.01252 1.05886 0.0
C2614 C 0.36898 0.08251 1.0487 0.0
C2615 C 0.35915 0.12146 1.04661 0.0
C2616 C 0.4009 0.07329 1.05692 0.0
C2617 C 0.38586 0.15066 1.04975 0.0
C2618 C 0.41984 0.1413 1.0569 0.0
C2619 C 0.44876 0.09652 1.07332 0.0
C2620 C 0.44006 0.0645 1.08179 0.0
C2621 C 0.42538 0.10328 1.0617 0.0
C2622 C 0.42298 1.03192 1.07544 0.0
C2623 C 0.40399 1.03622 1.06272 0.0
H2624 H 0.84306 0.13044 0.78201 0.0
H2625 H 0.72571 0.0911 0.78747 0.0
H2626 H 0.71785 0.1348 0.80722 0.0
H2627 H 0.7531 0.16213 0.8271 0.0
H2628 H 0.87083 0.2015 0.82171 0.0
H2629 H 0.86948 0.17998 0.79753 0.0
C2630 C 0.81498 0.13288 0.78697 0.0
C2631 C 0.78597 0.10549 0.78405 0.0
C2632 C 0.81135 0.15679 0.79868 0.0
C2633 C 0.7492 0.1106 0.79007 0.0
C2634 C 0.74487 0.13522 0.8015 0.0
C2635 C 0.77802 0.16783 0.82058 0.0
C2636 C 0.81304 0.18092 0.82652 0.0
C2637 C 0.77719 0.15511 0.80671 0.0
C2638 C 0.84435 0.18907 0.81764 0.0
C2639 C 0.84351 0.17708 0.80376 0.0
H2640 H 0.67548 0.05449 0.58158 0.0
H2641 H 0.77681 0.99296 0.59562 0.0
H2642 H 0.79301 0.97608 0.5716 0.0
H2643 H 0.78919 0.99678 0.54757 0.0
H2644 H 0.69359 0.067 0.53351 0.0
H2645 H 0.66244 0.06004 0.55624 0.0
C2646 C 0.70015 1.03608 0.57931 0.0
C2647 C 0.72542 1.02533 0.59013 0.0
C2648 C 0.71027 1.02828 0.56543 0.0
C2649 C 0.75735 1.0016 0.58731 0.0
C2650 C 0.7666 0.99211 0.5736 0.0
C2651 C 0.76059 1.00899 0.54917 0.0
C2652 C 0.74483 1.03445 0.53921 0.0
C2653 C 0.74488 1.00782 0.56259 0.0
C2654 C 0.70705 0.04857 0.54128 0.0
C2655 C 0.68962 1.04521 0.55437 0.0
H2656 H 0.82004 0.10233 0.38231 0.0
H2657 H 0.8758 1.00713 0.36168 0.0
H2658 H 0.88341 1.04605 0.34063 0.0
H2659 H 0.84974 0.09376 0.32639 0.0
H2660 H 0.77019 0.17315 0.34649 0.0
H2661 H 0.79733 0.15697 0.36872 0.0
C2662 C 0.83586 0.09117 0.3734 0.0
C2663 C 0.84529 0.0517 0.3731 0.0
C2664 C 0.83364 0.111 0.36074 0.0
C2665 C 0.86715 1.03729 0.36192 0.0
C2666 C 0.87049 0.05928 0.34976 0.0
C2667 C 0.83727 0.10703 0.33556 0.0
C2668 C 0.80443 0.13129 0.33453 0.0
C2669 C 0.84941 0.09394 0.34864 0.0
C2670 C 0.79329 0.15214 0.34655 0.0
C2671 C 0.809 0.14295 0.35952 0.0
H2672 H 0.89085 0.95848 1.07655 0.0
H2673 H 0.87689 0.85949 0.10301 0.0
H2674 H 0.8095 0.85348 0.09599 0.0
H2675 H 0.75072 0.88975 0.08884 0.0
H2676 H 0.76481 0.99825 1.06702 0.0
H2677 H 0.8343 0.99034 1.06705 0.0
C2678 C 0.87324 0.93465 1.0803 0.0
C2679 C 0.88664 0.91297 0.09164 0.0
C2680 C 0.83325 0.93587 1.07818 0.0
C2681 C 0.8659 0.87932 0.09522 0.0
C2682 C 0.82681 0.87661 0.09161 0.0
C2683 C 0.76918 0.91172 1.08428 0.0
C2684 C 0.75271 0.9452 1.07855 0.0
C2685 C 0.80945 0.90731 1.0844 0.0
C2686 C 0.77677 0.97302 1.07217 0.0
C2687 C 0.81656 0.96806 1.07178 0.0
H2688 H 0.77282 0.60663 0.85403 0.0
H2689 H 0.73372 0.66726 0.81726 0.0
H2690 H 0.70079 0.6082 0.80926 0.0
H2691 H 0.68176 0.54152 0.81354 0.0
H2692 H 0.71617 0.48369 0.85159 0.0
H2693 H 0.75056 0.54201 0.859 0.0
C2694 C 0.75812 0.60674 0.84402 0.0
C2695 C 0.75647 0.64077 0.83597 0.0
C2696 C 0.7368 0.57441 0.84026 0.0
C2697 C 0.73622 0.64093 0.82333 0.0
C2698 C 0.71669 0.60764 0.81901 0.0
C2699 C 0.6954 0.54187 0.82373 0.0
C2700 C 0.69631 0.50824 0.83208 0.0
C2701 C 0.71594 0.57475 0.82764 0.0
C2702 C 0.71479 0.50933 0.84511 0.0
C2703 C 0.73511 0.54223 0.84915 0.0
H2704 H 0.79147 0.4887 1.0604 0.0
H2705 H 0.85441 0.49865 0.0992 0.0
H2706 H 0.80604 0.54483 0.10775 0.0
H2707 H 0.74274 0.57401 0.10525 0.0
H2708 H 0.67381 0.55187 1.06857 0.0
H2709 H 0.7299 0.52184 1.05731 0.0
C2710 C 0.79419 0.50009 1.0709 0.0
C2711 C 0.8254 0.48895 1.07948 0.0
C2712 C 0.76635 0.52588 1.0757 0.0
C2713 C 0.82978 0.50582 0.09268 0.0
C2714 C 0.80262 0.53261 0.09742 0.0
C2715 C 0.74037 0.5641 0.09454 0.0
C2716 C 0.7041 0.5641 0.0878 0.0
C2717 C 0.77049 0.54211 0.08909 0.0
C2718 C 0.70148 0.55188 1.07391 0.0
C2719 C 0.7331 0.53365 1.06771 0.0
H2720 H 0.85771 0.3918 0.32106 0.0
H2721 H 0.74645 0.43865 0.33282 0.0
H2722 H 0.73804 0.46552 0.30977 0.0
H2723 H 0.77312 0.49656 0.29089 0.0
H2724 H 0.8879 0.45774 0.28033 0.0
H2725 H 0.88366 0.40649 0.29776 0.0
C2726 C 0.83118 0.407 0.31844 0.0
C2727 C 0.80392 0.41507 0.32892 0.0
C2728 C 0.82751 0.42475 0.30535 0.0
C2729 C 0.76863 0.43274 0.32515 0.0
C2730 C 0.76383 0.4486 0.31192 0.0
C2731 C 0.79636 0.47556 0.29182 0.0
C2732 C 0.83171 0.48228 0.28504 0.0
C2733 C 0.79473 0.44807 0.30252 0.0
C2734 C 0.86095 0.45398 0.28593 0.0
C2735 C 0.85875 0.42501 0.29605 0.0
H2736 H 0.85885 0.58421 0.54176 0.0
H2737 H 0.86856 0.70624 0.55006 0.0
H2738 H 0.92738 0.69479 0.56378 0.0
H2739 H 0.95713 0.64908 0.57996 0.0
H2740 H 0.92818 0.52795 0.57679 0.0
H2741 H 0.90076 0.53857 0.55393 0.0
C2742 C 0.87507 0.6083 0.5461 0.0
C2743 C 0.85933 0.64568 0.54546 0.0
C2744 C 0.90597 0.60099 0.55507 0.0
C2745 C 0.88021 0.67716 0.55074 0.0
C2746 C 0.91357 0.67048 0.55865 0.0
C2747 C 0.9453 0.62492 0.57412 0.0
C2748 C 0.94086 0.58878 0.58068 0.0
C2749 C 0.92399 0.63229 0.56202 0.0
C2750 C 0.92984 0.55682 0.57248 0.0
C2751 C 0.91343 0.56296 0.55939 0.0
H2752 H 0.36798 0.55598 0.36406 0.0
H2753 H 0.31592 0.60848 0.32767 0.0
H2754 H 0.2831 0.54739 0.32238 0.0
H2755 H 0.27451 0.47944 0.32701 0.0
H2756 H 0.33594 0.42433 0.36088 0.0
H2757 H 0.35709 0.48793 0.36924 0.0
C2758 C 0.35041 0.55394 0.35471 0.0
C2759 C 0.34547 0.58628 0.34591 0.0
C2760 C 0.33186 0.51914 0.35182 0.0
C2761 C 0.321 0.58357 0.33429 0.0
C2762 C 0.30176 0.54902 0.33146 0.0
C2763 C 0.29135 0.48117 0.33655 0.0
C2764 C 0.30445 0.44718 0.34319 0.0
C2765 C 0.30728 0.51673 0.34012 0.0
C2766 C 0.32562 0.45014 0.35563 0.0
C2767 C 0.33867 0.48628 0.3601 0.0
H2768 H 0.37503 0.48729 1.07622 0.0
H2769 H 0.45379 0.55738 0.09975 0.0
H2770 H 0.40375 0.56957 0.11715 0.0
H2771 H 0.33421 0.58231 0.11952 0.0
H2772 H 0.25419 0.53247 0.08978 0.0
H2773 H 0.30628 0.4932 1.08011 0.0
C2774 C 0.38154 0.50433 1.08543 0.0
C2775 C 0.41549 0.52655 1.08576 0.0
C2776 C 0.35067 0.5177 0.09344 0.0
C2777 C 0.42611 0.54306 0.09861 0.0
C2778 C 0.397 0.55135 0.10827 0.0
C2779 C 0.32808 0.56321 0.11082 0.0
C2780 C 0.29068 0.5615 0.10499 0.0
C2781 C 0.35843 0.54289 0.10471 0.0
C2782 C 0.28288 0.53489 0.09427 0.0
C2783 C 0.31256 0.51219 0.08882 0.0
H2784 H 0.31023 0.60822 0.82735 0.0
H2785 H 0.24457 0.66229 0.8603 0.0
H2786 H 0.22187 0.59851 0.86785 0.0
H2787 H 0.21092 0.53103 0.86197 0.0
H2788 H 0.2674 0.47963 0.82629 0.0
H2789 H 0.30158 0.54059 0.82207 0.0
C2790 C 0.29206 0.60618 0.83653 0.0
C2791 C 0.27819 0.63998 0.84309 0.0
C2792 C 0.2753 0.57063 0.83953 0.0
C2793 C 0.25542 0.63664 0.8551 0.0
C2794 C 0.24151 0.60041 0.85908 0.0
C2795 C 0.22975 0.53324 0.85297 0.0
C2796 C 0.23554 0.50122 0.84407 0.0
C2797 C 0.24909 0.56792 0.85071 0.0
C2798 C 0.26161 0.50428 0.83295 0.0
C2799 C 0.28164 0.53872 0.83076 0.0
H2800 H 0.34157 0.56878 0.5382 0.0
H2801 H 0.3985 0.46303 0.52593 0.0
H2802 H 0.44452 0.47021 0.54511 0.0
H2803 H 0.45155 0.49378 0.56934 0.0
H2804 H 0.38997 0.59684 0.58188 0.0
H2805 H 0.36368 0.60391 0.55859 0.0
C2806 C 0.36514 0.5482 0.5392 0.0
C2807 C 0.36491 0.51391 0.5313 0.0
C2808 C 0.38997 0.55138 0.5507 0.0
C2809 C 0.39681 0.48866 0.53241 0.0
C2810 C 0.42289 0.49252 0.54348 0.0
C2811 C 0.43339 0.51844 0.56682 0.0
C2812 C 0.4216 0.54383 0.57746 0.0
C2813 C 0.41703 0.5216 0.55346 0.0
C2814 C 0.39913 0.57645 0.57397 0.0
C2815 C 0.38376 0.58043 0.56062 0.0
loop_
_geom_bond_atom_site_label_1
_geom_bond_atom_site_label_2
_geom_bond_distance
_geom_bond_site_symmetry_2
_ccdc_geom_bond_type
C0 Eu1 2.835 . S
C0 C2 1.500 . S
C0 O20 1.257 . S
C0 O21 1.260 . S
Eu1 C0 2.835 . S
Eu1 O20 2.473 . S
Eu1 O21 2.480 . S
Eu1 O22 2.430 . S
Eu1 O23 2.670 . S
Eu1 O24 2.394 . S
Eu1 O29 2.355 . S
Eu1 O31 2.374 . S
C2 C0 1.500 . S
C2 C3 1.377 . S
C2 C7 1.377 . S
C3 C2 1.377 . S
C3 C4 1.395 . S
C3 H32 0.931 . S
C4 C3 1.395 . S
C4 C5 1.383 . S
C4 H33 0.931 . S
C5 C4 1.383 . S
C5 C6 1.394 . S
C6 C5 1.394 . S
C6 C7 1.378 . S
C6 H34 0.931 . S
C7 C2 1.377 . S
C7 C6 1.378 . S
C7 H35 0.931 . S
C8 O22 1.259 . S
C8 O23 1.270 . S
C9 O24 1.251 . S
C9 O25 1.251 . S
C10 Eu11 2.835 . S
C10 C12 1.500 . S
C10 O26 1.257 . S
C10 O27 1.260 . S
Eu11 C10 2.835 . S
Eu11 O23 2.355 . S
Eu11 O25 2.374 . S
Eu11 O26 2.473 . S
Eu11 O27 2.480 . S
Eu11 O28 2.430 . S
Eu11 O29 2.670 . S
Eu11 O30 2.394 . S
C12 C10 1.500 . S
C12 C13 1.377 . S
C12 C17 1.377 . S
C13 C12 1.377 . S
C13 C14 1.395 . S
C13 H36 0.931 . S
C14 C13 1.395 . S
C14 C15 1.383 . S
C14 H37 0.931 . S
C15 C14 1.383 . S
C15 C16 1.394 . S
C16 C15 1.394 . S
C16 C17 1.378 . S
C16 H38 0.931 . S
C17 C12 1.377 . S
C17 C16 1.378 . S
C17 H39 0.931 . S
C18 O28 1.259 . S
C18 O29 1.270 . S
C19 O30 1.251 . S
C19 O31 1.251 . S
O20 C0 1.257 . S
O20 Eu1 2.473 . S
O21 C0 1.260 . S
O21 Eu1 2.480 . S
O22 Eu1 2.430 . S
O22 C8 1.259 . S
O23 Eu1 2.670 . S
O23 C8 1.270 . S
O23 Eu11 2.355 . S
O24 Eu1 2.394 . S
O24 C9 1.251 . S
O25 C9 1.251 . S
O25 Eu11 2.374 . S
O26 C10 1.257 . S
O26 Eu11 2.473 . S
O27 C10 1.260 . S
O27 Eu11 2.480 . S
O28 Eu11 2.430 . S
O28 C18 1.259 . S
O29 Eu1 2.355 . S
O29 Eu11 2.670 . S
O29 C18 1.270 . S
O30 Eu11 2.394 . S
O30 C19 1.251 . S
O31 Eu1 2.374 . S
O31 C19 1.251 . S
H32 C3 0.931 . S
H33 C4 0.931 . S
H34 C6 0.931 . S
H35 C7 0.931 . S
H36 C13 0.931 . S
H37 C14 0.931 . S
H38 C16 0.931 . S
H39 C17 0.931 . S
C40 Eu41 2.835 . S
C40 C42 1.500 . S
C40 O60 1.257 . S
C40 O61 1.260 . S
Eu41 C40 2.835 . S
Eu41 O60 2.473 . S
Eu41 O61 2.480 . S
Eu41 O62 2.430 . S
Eu41 O63 2.670 . S
Eu41 O64 2.394 . S
Eu41 O69 2.355 . S
Eu41 O71 2.374 . S
C42 C40 1.500 . S
C42 C43 1.377 . S
C42 C47 1.377 1_565 S
C43 C42 1.377 . S
C43 C44 1.395 . S
C43 H72 0.931 . S
C44 C43 1.395 . S
C44 C45 1.383 . S
C44 H73 0.931 . S
C45 C44 1.383 . S
C45 C46 1.394 1_565 S
C46 C45 1.394 1_545 S
C46 C47 1.378 . S
C46 H74 0.931 . S
C47 C42 1.377 1_545 S
C47 C46 1.378 . S
C47 H75 0.931 . S
C48 O62 1.259 . S
C48 O63 1.270 . S
C49 O64 1.251 . S
C49 O65 1.251 1_455 S
C50 Eu51 2.835 . S
C50 C52 1.500 . S
C50 O66 1.257 . S
C50 O67 1.260 . S
Eu51 C50 2.835 . S
Eu51 O63 2.355 1_655 S
Eu51 O65 2.374 . S
Eu51 O66 2.473 . S
Eu51 O67 2.480 . S
Eu51 O68 2.430 1_665 S
Eu51 O69 2.670 1_655 S
Eu51 O70 2.394 1_655 S
C52 C50 1.500 . S
C52 C53 1.377 . S
C52 C57 1.377 . S
C53 C52 1.377 . S
C53 C54 1.395 . S
C53 H76 0.931 . S
C54 C53 1.395 . S
C54 C55 1.383 . S
C54 H77 0.931 . S
C55 C54 1.383 . S
C55 C56 1.394 . S
C56 C55 1.394 . S
C56 C57 1.378 . S
C56 H78 0.931 . S
C57 C52 1.377 . S
C57 C56 1.378 . S
C57 H79 0.931 . S
C58 O68 1.259 . S
C58 O69 1.270 1_545 S
C59 O70 1.251 . S
C59 O71 1.251 . S
O60 C40 1.257 . S
O60 Eu41 2.473 . S
O61 C40 1.260 . S
O61 Eu41 2.480 . S
O62 Eu41 2.430 . S
O62 C48 1.259 . S
O63 Eu41 2.670 . S
O63 C48 1.270 . S
O63 Eu51 2.355 1_455 S
O64 Eu41 2.394 . S
O64 C49 1.251 . S
O65 C49 1.251 1_655 S
O65 Eu51 2.374 . S
O66 C50 1.257 . S
O66 Eu51 2.473 . S
O67 C50 1.260 . S
O67 Eu51 2.480 . S
O68 Eu51 2.430 1_445 S
O68 C58 1.259 . S
O69 Eu41 2.355 . S
O69 Eu51 2.670 1_455 S
O69 C58 1.270 1_565 S
O70 Eu51 2.394 1_455 S
O70 C59 1.251 . S
O71 Eu41 2.374 . S
O71 C59 1.251 . S
H72 C43 0.931 . S
H73 C44 0.931 . S
H74 C46 0.931 . S
H75 C47 0.931 . S
H76 C53 0.931 . S
H77 C54 0.931 . S
H78 C56 0.931 . S
H79 C57 0.931 . S
C80 Eu81 2.835 . S
C80 C82 1.500 . S
C80 O100 1.257 . S
C80 O101 1.260 . S
Eu81 C80 2.835 . S
Eu81 O100 2.473 . S
Eu81 O101 2.480 . S
Eu81 O102 2.430 . S
Eu81 O103 2.670 . S
Eu81 O104 2.394 . S
Eu81 O109 2.355 . S
Eu81 O111 2.374 . S
C82 C80 1.500 . S
C82 C83 1.377 . S
C82 C87 1.377 . S
C83 C82 1.377 . S
C83 C84 1.395 . S
C83 H112 0.931 . S
C84 C83 1.395 . S
C84 C85 1.383 . S
C84 H113 0.931 . S
C85 C84 1.383 . S
C85 C86 1.394 . S
C86 C85 1.394 . S
C86 C87 1.378 . S
C86 H114 0.931 . S
C87 C82 1.377 . S
C87 C86 1.378 . S
C87 H115 0.931 . S
C88 O102 1.259 . S
C88 O103 1.270 . S
C89 O104 1.251 . S
C89 O105 1.251 . S
C90 Eu91 2.835 . S
C90 C92 1.500 . S
C90 O106 1.257 . S
C90 O107 1.260 . S
Eu91 C90 2.835 . S
Eu91 O103 2.355 . S
Eu91 O105 2.374 . S
Eu91 O106 2.473 . S
Eu91 O107 2.480 . S
Eu91 O108 2.430 . S
Eu91 O109 2.670 . S
Eu91 O110 2.394 . S
C92 C90 1.500 . S
C92 C93 1.377 . S
C92 C97 1.377 . S
C93 C92 1.377 . S
C93 C94 1.395 . S
C93 H116 0.931 . S
C94 C93 1.395 . S
C94 C95 1.383 . S
C94 H117 0.931 . S
C95 C94 1.383 . S
C95 C96 1.394 . S
C96 C95 1.394 . S
C96 C97 1.378 . S
C96 H118 0.931 . S
C97 C92 1.377 . S
C97 C96 1.378 . S
C97 H119 0.931 . S
C98 O108 1.259 . S
C98 O109 1.270 . S
C99 O110 1.251 . S
C99 O111 1.251 . S
O100 C80 1.257 . S
O100 Eu81 2.473 . S
O101 C80 1.260 . S
O101 Eu81 2.480 . S
O102 Eu81 2.430 . S
O102 C88 1.259 . S
O103 Eu81 2.670 . S
O103 C88 1.270 . S
O103 Eu91 2.355 . S
O104 Eu81 2.394 . S
O104 C89 1.251 . S
O105 C89 1.251 . S
O105 Eu91 2.374 . S
O106 C90 1.257 . S
O106 Eu91 2.473 . S
O107 C90 1.260 . S
O107 Eu91 2.480 . S
O108 Eu91 2.430 . S
O108 C98 1.259 . S
O109 Eu81 2.355 . S
O109 Eu91 2.670 . S
O109 C98 1.270 . S
O110 Eu91 2.394 . S
O110 C99 1.251 . S
O111 Eu81 2.374 . S
O111 C99 1.251 . S
H112 C83 0.931 . S
H113 C84 0.931 . S
H114 C86 0.931 . S
H115 C87 0.931 . S
H116 C93 0.931 . S
H117 C94 0.931 . S
H118 C96 0.931 . S
H119 C97 0.931 . S
C120 Eu121 2.835 . S
C120 C122 1.500 . S
C120 O140 1.257 . S
C120 O141 1.260 . S
Eu121 C120 2.835 . S
Eu121 O140 2.473 . S
Eu121 O141 2.480 . S
Eu121 O142 2.430 . S
Eu121 O143 2.670 . S
Eu121 O144 2.394 . S
Eu121 O149 2.355 . S
Eu121 O151 2.374 . S
C122 C120 1.500 . S
C122 C123 1.377 . S
C122 C127 1.377 1_545 S
C123 C122 1.377 . S
C123 C124 1.395 . S
C123 H152 0.931 . S
C124 C123 1.395 . S
C124 C125 1.383 . S
C124 H153 0.931 . S
C125 C124 1.383 . S
C125 C126 1.394 1_545 S
C126 C125 1.394 1_565 S
C126 C127 1.378 . S
C126 H154 0.931 . S
C127 C122 1.377 1_565 S
C127 C126 1.378 . S
C127 H155 0.931 . S
C128 O142 1.259 . S
C128 O143 1.270 . S
C129 O144 1.251 . S
C129 O145 1.251 . S
C130 Eu131 2.835 . S
C130 C132 1.500 . S
C130 O146 1.257 . S
C130 O147 1.260 . S
Eu131 C130 2.835 . S
Eu131 O143 2.355 . S
Eu131 O145 2.374 . S
Eu131 O146 2.473 . S
Eu131 O147 2.480 . S
Eu131 O148 2.430 1_545 S
Eu131 O149 2.670 . S
Eu131 O150 2.394 . S
C132 C130 1.500 . S
C132 C133 1.377 . S
C132 C137 1.377 . S
C133 C132 1.377 . S
C133 C134 1.395 . S
C133 H156 0.931 . S
C134 C133 1.395 . S
C134 C135 1.383 . S
C134 H157 0.931 . S
C135 C134 1.383 . S
C135 C136 1.394 . S
C136 C135 1.394 . S
C136 C137 1.378 . S
C136 H158 0.931 . S
C137 C132 1.377 . S
C137 C136 1.378 . S
C137 H159 0.931 . S
C138 O148 1.259 . S
C138 O149 1.270 1_565 S
C139 O150 1.251 . S
C139 O151 1.251 . S
O140 C120 1.257 . S
O140 Eu121 2.473 . S
O141 C120 1.260 . S
O141 Eu121 2.480 . S
O142 Eu121 2.430 . S
O142 C128 1.259 . S
O143 Eu121 2.670 . S
O143 C128 1.270 . S
O143 Eu131 2.355 . S
O144 Eu121 2.394 . S
O144 C129 1.251 . S
O145 C129 1.251 . S
O145 Eu131 2.374 . S
O146 C130 1.257 . S
O146 Eu131 2.473 . S
O147 C130 1.260 . S
O147 Eu131 2.480 . S
O148 Eu131 2.430 1_565 S
O148 C138 1.259 . S
O149 Eu121 2.355 . S
O149 Eu131 2.670 . S
O149 C138 1.270 1_545 S
O150 Eu131 2.394 . S
O150 C139 1.251 . S
O151 Eu121 2.374 . S
O151 C139 1.251 . S
H152 C123 0.931 . S
H153 C124 0.931 . S
H154 C126 0.931 . S
H155 C127 0.931 . S
H156 C133 0.931 . S
H157 C134 0.931 . S
H158 C136 0.931 . S
H159 C137 0.931 . S
C160 Eu161 2.835 . S
C160 C162 1.500 . S
C160 O180 1.257 . S
C160 O181 1.260 . S
Eu161 C160 2.835 . S
Eu161 O180 2.473 . S
Eu161 O181 2.480 . S
Eu161 O182 2.430 . S
Eu161 O183 2.670 . S
Eu161 O184 2.394 . S
Eu161 O189 2.355 . S
Eu161 O191 2.374 . S
C162 C160 1.500 . S
C162 C163 1.377 . S
C162 C167 1.377 . S
C163 C162 1.377 . S
C163 C164 1.395 . S
C163 H192 0.931 . S
C164 C163 1.395 . S
C164 C165 1.383 . S
C164 H193 0.931 . S
C165 C164 1.383 . S
C165 C166 1.394 . S
C166 C165 1.394 . S
C166 C167 1.378 . S
C166 H194 0.931 . S
C167 C162 1.377 . S
C167 C166 1.378 . S
C167 H195 0.931 . S
C168 O182 1.259 . S
C168 O183 1.270 . S
C169 O184 1.251 . S
C169 O185 1.251 . S
C170 Eu171 2.835 . S
C170 C172 1.500 . S
C170 O186 1.257 . S
C170 O187 1.260 . S
Eu171 C170 2.835 . S
Eu171 O183 2.355 . S
Eu171 O185 2.374 . S
Eu171 O186 2.473 . S
Eu171 O187 2.480 . S
Eu171 O188 2.430 . S
Eu171 O189 2.670 . S
Eu171 O190 2.394 . S
C172 C170 1.500 . S
C172 C173 1.377 . S
C172 C177 1.377 . S
C173 C172 1.377 . S
C173 C174 1.395 . S
C173 H196 0.931 . S
C174 C173 1.395 . S
C174 C175 1.383 . S
C174 H197 0.931 . S
C175 C174 1.383 . S
C175 C176 1.394 . S
C176 C175 1.394 . S
C176 C177 1.378 . S
C176 H198 0.931 . S
C177 C172 1.377 . S
C177 C176 1.378 . S
C177 H199 0.931 . S
C178 O188 1.259 . S
C178 O189 1.270 . S
C179 O190 1.251 . S
C179 O191 1.251 . S
O180 C160 1.257 . S
O180 Eu161 2.473 . S
O181 C160 1.260 . S
O181 Eu161 2.480 . S
O182 Eu161 2.430 . S
O182 C168 1.259 . S
O183 Eu161 2.670 . S
O183 C168 1.270 . S
O183 Eu171 2.355 . S
O184 Eu161 2.394 . S
O184 C169 1.251 . S
O185 C169 1.251 . S
O185 Eu171 2.374 . S
O186 C170 1.257 . S
O186 Eu171 2.473 . S
O187 C170 1.260 . S
O187 Eu171 2.480 . S
O188 Eu171 2.430 . S
O188 C178 1.259 . S
O189 Eu161 2.355 . S
O189 Eu171 2.670 . S
O189 C178 1.270 . S
O190 Eu171 2.394 . S
O190 C179 1.251 . S
O191 Eu161 2.374 . S
O191 C179 1.251 . S
H192 C163 0.931 . S
H193 C164 0.931 . S
H194 C166 0.931 . S
H195 C167 0.931 . S
H196 C173 0.931 . S
H197 C174 0.931 . S
H198 C176 0.931 . S
H199 C177 0.931 . S
C200 Eu201 2.835 . S
C200 C202 1.500 . S
C200 O220 1.257 . S
C200 O221 1.260 . S
Eu201 C200 2.835 . S
Eu201 O220 2.473 . S
Eu201 O221 2.480 . S
Eu201 O222 2.430 . S
Eu201 O223 2.670 . S
Eu201 O224 2.394 . S
Eu201 O229 2.355 . S
Eu201 O231 2.374 . S
C202 C200 1.500 . S
C202 C203 1.377 . S
C202 C207 1.377 1_565 S
C203 C202 1.377 . S
C203 C204 1.395 . S
C203 H232 0.931 . S
C204 C203 1.395 . S
C204 C205 1.383 . S
C204 H233 0.931 . S
C205 C204 1.383 . S
C205 C206 1.394 1_565 S
C206 C205 1.394 1_545 S
C206 C207 1.378 . S
C206 H234 0.931 . S
C207 C202 1.377 1_545 S
C207 C206 1.378 . S
C207 H235 0.931 . S
C208 O222 1.259 . S
C208 O223 1.270 . S
C209 O224 1.251 . S
C209 O225 1.251 . S
C210 Eu211 2.835 . S
C210 C212 1.500 . S
C210 O226 1.257 . S
C210 O227 1.260 . S
Eu211 C210 2.835 . S
Eu211 O223 2.355 . S
Eu211 O225 2.374 . S
Eu211 O226 2.473 . S
Eu211 O227 2.480 . S
Eu211 O228 2.430 1_565 S
Eu211 O229 2.670 . S
Eu211 O230 2.394 . S
C212 C210 1.500 . S
C212 C213 1.377 . S
C212 C217 1.377 . S
C213 C212 1.377 . S
C213 C214 1.395 . S
C213 H236 0.931 . S
C214 C213 1.395 . S
C214 C215 1.383 . S
C214 H237 0.931 . S
C215 C214 1.383 . S
C215 C216 1.394 . S
C216 C215 1.394 . S
C216 C217 1.378 . S
C216 H238 0.931 . S
C217 C212 1.377 . S
C217 C216 1.378 . S
C217 H239 0.931 . S
C218 O228 1.259 . S
C218 O229 1.270 1_545 S
C219 O230 1.251 . S
C219 O231 1.251 . S
O220 C200 1.257 . S
O220 Eu201 2.473 . S
O221 C200 1.260 . S
O221 Eu201 2.480 . S
O222 Eu201 2.430 . S
O222 C208 1.259 . S
O223 Eu201 2.670 . S
O223 C208 1.270 . S
O223 Eu211 2.355 . S
O224 Eu201 2.394 . S
O224 C209 1.251 . S
O225 C209 1.251 . S
O225 Eu211 2.374 . S
O226 C210 1.257 . S
O226 Eu211 2.473 . S
O227 C210 1.260 . S
O227 Eu211 2.480 . S
O228 Eu211 2.430 1_545 S
O228 C218 1.259 . S
O229 Eu201 2.355 . S
O229 Eu211 2.670 . S
O229 C218 1.270 1_565 S
O230 Eu211 2.394 . S
O230 C219 1.251 . S
O231 Eu201 2.374 . S
O231 C219 1.251 . S
H232 C203 0.931 . S
H233 C204 0.931 . S
H234 C206 0.931 . S
H235 C207 0.931 . S
H236 C213 0.931 . S
H237 C214 0.931 . S
H238 C216 0.931 . S
H239 C217 0.931 . S
C240 Eu241 2.835 . S
C240 C242 1.500 . S
C240 O260 1.257 . S
C240 O261 1.260 . S
Eu241 C240 2.835 . S
Eu241 O260 2.473 . S
Eu241 O261 2.480 . S
Eu241 O262 2.430 . S
Eu241 O263 2.670 . S
Eu241 O264 2.394 . S
Eu241 O269 2.355 . S
Eu241 O271 2.374 . S
C242 C240 1.500 . S
C242 C243 1.377 . S
C242 C247 1.377 . S
C243 C242 1.377 . S
C243 C244 1.395 . S
C243 H272 0.931 . S
C244 C243 1.395 . S
C244 C245 1.383 . S
C244 H273 0.931 . S
C245 C244 1.383 . S
C245 C246 1.394 . S
C246 C245 1.394 . S
C246 C247 1.378 . S
C246 H274 0.931 . S
C247 C242 1.377 . S
C247 C246 1.378 . S
C247 H275 0.931 . S
C248 O262 1.259 . S
C248 O263 1.270 . S
C249 O264 1.251 . S
C249 O265 1.251 . S
C250 Eu251 2.835 . S
C250 C252 1.500 . S
C250 O266 1.257 . S
C250 O267 1.260 . S
Eu251 C250 2.835 . S
Eu251 O263 2.355 . S
Eu251 O265 2.374 . S
Eu251 O266 2.473 . S
Eu251 O267 2.480 . S
Eu251 O268 2.430 . S
Eu251 O269 2.670 . S
Eu251 O270 2.394 . S
C252 C250 1.500 . S
C252 C253 1.377 . S
C252 C257 1.377 . S
C253 C252 1.377 . S
C253 C254 1.395 . S
C253 H276 0.931 . S
C254 C253 1.395 . S
C254 C255 1.383 . S
C254 H277 0.931 . S
C255 C254 1.383 . S
C255 C256 1.394 . S
C256 C255 1.394 . S
C256 C257 1.378 . S
C256 H278 0.931 . S
C257 C252 1.377 . S
C257 C256 1.378 . S
C257 H279 0.931 . S
C258 O268 1.259 . S
C258 O269 1.270 . S
C259 O270 1.251 . S
C259 O271 1.251 . S
O260 C240 1.257 . S
O260 Eu241 2.473 . S
O261 C240 1.260 . S
O261 Eu241 2.480 . S
O262 Eu241 2.430 . S
O262 C248 1.259 . S
O263 Eu241 2.670 . S
O263 C248 1.270 . S
O263 Eu251 2.355 . S
O264 Eu241 2.394 . S
O264 C249 1.251 . S
O265 C249 1.251 . S
O265 Eu251 2.374 . S
O266 C250 1.257 . S
O266 Eu251 2.473 . S
O267 C250 1.260 . S
O267 Eu251 2.480 . S
O268 Eu251 2.430 . S
O268 C258 1.259 . S
O269 Eu241 2.355 . S
O269 Eu251 2.670 . S
O269 C258 1.270 . S
O270 Eu251 2.394 . S
O270 C259 1.251 . S
O271 Eu241 2.374 . S
O271 C259 1.251 . S
H272 C243 0.931 . S
H273 C244 0.931 . S
H274 C246 0.931 . S
H275 C247 0.931 . S
H276 C253 0.931 . S
H277 C254 0.931 . S
H278 C256 0.931 . S
H279 C257 0.931 . S
C280 Eu281 2.835 . S
C280 C282 1.500 . S
C280 O300 1.257 . S
C280 O301 1.260 . S
Eu281 C280 2.835 . S
Eu281 O300 2.473 . S
Eu281 O301 2.480 . S
Eu281 O302 2.430 . S
Eu281 O303 2.670 . S
Eu281 O304 2.394 . S
Eu281 O309 2.355 . S
Eu281 O311 2.374 . S
C282 C280 1.500 . S
C282 C283 1.377 . S
C282 C287 1.377 1_545 S
C283 C282 1.377 . S
C283 C284 1.395 . S
C283 H312 0.931 . S
C284 C283 1.395 . S
C284 C285 1.383 . S
C284 H313 0.931 . S
C285 C284 1.383 . S
C285 C286 1.394 1_545 S
C286 C285 1.394 1_565 S
C286 C287 1.378 . S
C286 H314 0.931 . S
C287 C282 1.377 1_565 S
C287 C286 1.378 . S
C287 H315 0.931 . S
C288 O302 1.259 . S
C288 O303 1.270 . S
C289 O304 1.251 . S
C289 O305 1.251 1_455 S
C290 Eu291 2.835 . S
C290 C292 1.500 . S
C290 O306 1.257 . S
C290 O307 1.260 . S
Eu291 C290 2.835 . S
Eu291 O303 2.355 1_655 S
Eu291 O305 2.374 . S
Eu291 O306 2.473 . S
Eu291 O307 2.480 . S
Eu291 O308 2.430 1_645 S
Eu291 O309 2.670 1_655 S
Eu291 O310 2.394 1_655 S
C292 C290 1.500 . S
C292 C293 1.377 . S
C292 C297 1.377 . S
C293 C292 1.377 . S
C293 C294 1.395 . S
C293 H316 0.931 . S
C294 C293 1.395 . S
C294 C295 1.383 . S
C294 H317 0.931 . S
C295 C294 1.383 . S
C295 C296 1.394 . S
C296 C295 1.394 . S
C296 C297 1.378 . S
C296 H318 0.931 . S
C297 C292 1.377 . S
C297 C296 1.378 . S
C297 H319 0.931 . S
C298 O308 1.259 . S
C298 O309 1.270 1_565 S
C299 O310 1.251 . S
C299 O311 1.251 . S
O300 C280 1.257 . S
O300 Eu281 2.473 . S
O301 C280 1.260 . S
O301 Eu281 2.480 . S
O302 Eu281 2.430 . S
O302 C288 1.259 . S
O303 Eu281 2.670 . S
O303 C288 1.270 . S
O303 Eu291 2.355 1_455 S
O304 Eu281 2.394 . S
O304 C289 1.251 . S
O305 C289 1.251 1_655 S
O305 Eu291 2.374 . S
O306 C290 1.257 . S
O306 Eu291 2.473 . S
O307 C290 1.260 . S
O307 Eu291 2.480 . S
O308 Eu291 2.430 1_465 S
O308 C298 1.259 . S
O309 Eu281 2.355 . S
O309 Eu291 2.670 1_455 S
O309 C298 1.270 1_545 S
O310 Eu291 2.394 1_455 S
O310 C299 1.251 . S
O311 Eu281 2.374 . S
O311 C299 1.251 . S
H312 C283 0.931 . S
H313 C284 0.931 . S
H314 C286 0.931 . S
H315 C287 0.931 . S
H316 C293 0.931 . S
H317 C294 0.931 . S
H318 C296 0.931 . S
H319 C297 0.931 . S
C320 Eu321 2.835 . S
C320 C322 1.500 . S
C320 O340 1.257 . S
C320 O341 1.260 . S
Eu321 C320 2.835 . S
Eu321 O340 2.473 . S
Eu321 O341 2.480 . S
Eu321 O342 2.430 . S
Eu321 O343 2.670 . S
Eu321 O344 2.394 . S
Eu321 O349 2.355 . S
Eu321 O351 2.374 . S
C322 C320 1.500 . S
C322 C323 1.377 . S
C322 C327 1.377 . S
C323 C322 1.377 . S
C323 C324 1.395 . S
C323 H352 0.931 . S
C324 C323 1.395 . S
C324 C325 1.383 . S
C324 H353 0.931 . S
C325 C324 1.383 . S
C325 C326 1.394 . S
C326 C325 1.394 . S
C326 C327 1.378 . S
C326 H354 0.931 . S
C327 C322 1.377 . S
C327 C326 1.378 . S
C327 H355 0.931 . S
C328 O342 1.259 . S
C328 O343 1.270 . S
C329 O344 1.251 . S
C329 O345 1.251 . S
C330 Eu331 2.835 . S
C330 C332 1.500 . S
C330 O346 1.257 . S
C330 O347 1.260 . S
Eu331 C330 2.835 . S
Eu331 O343 2.355 . S
Eu331 O345 2.374 . S
Eu331 O346 2.473 . S
Eu331 O347 2.480 . S
Eu331 O348 2.430 . S
Eu331 O349 2.670 . S
Eu331 O350 2.394 . S
C332 C330 1.500 . S
C332 C333 1.377 . S
C332 C337 1.377 . S
C333 C332 1.377 . S
C333 C334 1.395 . S
C333 H356 0.931 . S
C334 C333 1.395 . S
C334 C335 1.383 . S
C334 H357 0.931 . S
C335 C334 1.383 . S
C335 C336 1.394 . S
C336 C335 1.394 . S
C336 C337 1.378 . S
C336 H358 0.931 . S
C337 C332 1.377 . S
C337 C336 1.378 . S
C337 H359 0.931 . S
C338 O348 1.259 . S
C338 O349 1.270 . S
C339 O350 1.251 . S
C339 O351 1.251 . S
O340 C320 1.257 . S
O340 Eu321 2.473 . S
O341 C320 1.260 . S
O341 Eu321 2.480 . S
O342 Eu321 2.430 . S
O342 C328 1.259 . S
O343 Eu321 2.670 . S
O343 C328 1.270 . S
O343 Eu331 2.355 . S
O344 Eu321 2.394 . S
O344 C329 1.251 . S
O345 C329 1.251 . S
O345 Eu331 2.374 . S
O346 C330 1.257 . S
O346 Eu331 2.473 . S
O347 C330 1.260 . S
O347 Eu331 2.480 . S
O348 Eu331 2.430 . S
O348 C338 1.259 . S
O349 Eu321 2.355 . S
O349 Eu331 2.670 . S
O349 C338 1.270 . S
O350 Eu331 2.394 . S
O350 C339 1.251 . S
O351 Eu321 2.374 . S
O351 C339 1.251 . S
H352 C323 0.931 . S
H353 C324 0.931 . S
H354 C326 0.931 . S
H355 C327 0.931 . S
H356 C333 0.931 . S
H357 C334 0.931 . S
H358 C336 0.931 . S
H359 C337 0.931 . S
C360 Eu361 2.835 . S
C360 C362 1.500 . S
C360 O380 1.257 . S
C360 O381 1.260 . S
Eu361 C360 2.835 . S
Eu361 O380 2.473 . S
Eu361 O381 2.480 . S
Eu361 O382 2.430 1_445 S
Eu361 O383 2.670 1_455 S
Eu361 O384 2.394 1_455 S
Eu361 O389 2.355 1_455 S
Eu361 O391 2.374 . S
C362 C360 1.500 . S
C362 C363 1.377 . S
C362 C367 1.377 . S
C363 C362 1.377 . S
C363 C364 1.395 . S
C363 H392 0.931 . S
C364 C363 1.395 . S
C364 C365 1.383 . S
C364 H393 0.931 . S
C365 C364 1.383 . S
C365 C366 1.394 . S
C366 C365 1.394 . S
C366 C367 1.378 . S
C366 H394 0.931 . S
C367 C362 1.377 . S
C367 C366 1.378 . S
C367 H395 0.931 . S
C368 O382 1.259 . S
C368 O383 1.270 1_565 S
C369 O384 1.251 . S
C369 O385 1.251 . S
C370 Eu371 2.835 . S
C370 C372 1.500 . S
C370 O386 1.257 . S
C370 O387 1.260 . S
Eu371 C370 2.835 . S
Eu371 O383 2.355 . S
Eu371 O385 2.374 . S
Eu371 O386 2.473 . S
Eu371 O387 2.480 . S
Eu371 O388 2.430 . S
Eu371 O389 2.670 . S
Eu371 O390 2.394 . S
C372 C370 1.500 . S
C372 C373 1.377 . S
C372 C377 1.377 1_545 S
C373 C372 1.377 . S
C373 C374 1.395 . S
C373 H396 0.931 . S
C374 C373 1.395 . S
C374 C375 1.383 . S
C374 H397 0.931 . S
C375 C374 1.383 . S
C375 C376 1.394 1_545 S
C376 C375 1.394 1_565 S
C376 C377 1.378 . S
C376 H398 0.931 . S
C377 C372 1.377 1_565 S
C377 C376 1.378 . S
C377 H399 0.931 . S
C378 O388 1.259 . S
C378 O389 1.270 . S
C379 O390 1.251 . S
C379 O391 1.251 1_655 S
O380 C360 1.257 . S
O380 Eu361 2.473 . S
O381 C360 1.260 . S
O381 Eu361 2.480 . S
O382 Eu361 2.430 1_665 S
O382 C368 1.259 . S
O383 Eu361 2.670 1_655 S
O383 C368 1.270 1_545 S
O383 Eu371 2.355 . S
O384 Eu361 2.394 1_655 S
O384 C369 1.251 . S
O385 C369 1.251 . S
O385 Eu371 2.374 . S
O386 C370 1.257 . S
O386 Eu371 2.473 . S
O387 C370 1.260 . S
O387 Eu371 2.480 . S
O388 Eu371 2.430 . S
O388 C378 1.259 . S
O389 Eu361 2.355 1_655 S
O389 Eu371 2.670 . S
O389 C378 1.270 . S
O390 Eu371 2.394 . S
O390 C379 1.251 . S
O391 Eu361 2.374 . S
O391 C379 1.251 1_455 S
H392 C363 0.931 . S
H393 C364 0.931 . S
H394 C366 0.931 . S
H395 C367 0.931 . S
H396 C373 0.931 . S
H397 C374 0.931 . S
H398 C376 0.931 . S
H399 C377 0.931 . S
C400 Eu401 2.835 . S
C400 C402 1.500 . S
C400 O420 1.257 . S
C400 O421 1.260 . S
Eu401 C400 2.835 . S
Eu401 O420 2.473 . S
Eu401 O421 2.480 . S
Eu401 O422 2.430 . S
Eu401 O423 2.670 . S
Eu401 O424 2.394 . S
Eu401 O429 2.355 . S
Eu401 O431 2.374 . S
C402 C400 1.500 . S
C402 C403 1.377 . S
C402 C407 1.377 . S
C403 C402 1.377 . S
C403 C404 1.395 . S
C403 H432 0.931 . S
C404 C403 1.395 . S
C404 C405 1.383 . S
C404 H433 0.931 . S
C405 C404 1.383 . S
C405 C406 1.394 . S
C406 C405 1.394 . S
C406 C407 1.378 . S
C406 H434 0.931 . S
C407 C402 1.377 . S
C407 C406 1.378 . S
C407 H435 0.931 . S
C408 O422 1.259 . S
C408 O423 1.270 . S
C409 O424 1.251 . S
C409 O425 1.251 . S
C410 Eu411 2.835 . S
C410 C412 1.500 . S
C410 O426 1.257 . S
C410 O427 1.260 . S
Eu411 C410 2.835 . S
Eu411 O423 2.355 . S
Eu411 O425 2.374 . S
Eu411 O426 2.473 . S
Eu411 O427 2.480 . S
Eu411 O428 2.430 . S
Eu411 O429 2.670 . S
Eu411 O430 2.394 . S
C412 C410 1.500 . S
C412 C413 1.377 . S
C412 C417 1.377 . S
C413 C412 1.377 . S
C413 C414 1.395 . S
C413 H436 0.931 . S
C414 C413 1.395 . S
C414 C415 1.383 . S
C414 H437 0.931 . S
C415 C414 1.383 . S
C415 C416 1.394 . S
C416 C415 1.394 . S
C416 C417 1.378 . S
C416 H438 0.931 . S
C417 C412 1.377 . S
C417 C416 1.378 . S
C417 H439 0.931 . S
C418 O428 1.259 . S
C418 O429 1.270 . S
C419 O430 1.251 . S
C419 O431 1.251 . S
O420 C400 1.257 . S
O420 Eu401 2.473 . S
O421 C400 1.260 . S
O421 Eu401 2.480 . S
O422 Eu401 2.430 . S
O422 C408 1.259 . S
O423 Eu401 2.670 . S
O423 C408 1.270 . S
O423 Eu411 2.355 . S
O424 Eu401 2.394 . S
O424 C409 1.251 . S
O425 C409 1.251 . S
O425 Eu411 2.374 . S
O426 C410 1.257 . S
O426 Eu411 2.473 . S
O427 C410 1.260 . S
O427 Eu411 2.480 . S
O428 Eu411 2.430 . S
O428 C418 1.259 . S
O429 Eu401 2.355 . S
O429 Eu411 2.670 . S
O429 C418 1.270 . S
O430 Eu411 2.394 . S
O430 C419 1.251 . S
O431 Eu401 2.374 . S
O431 C419 1.251 . S
H432 C403 0.931 . S
H433 C404 0.931 . S
H434 C406 0.931 . S
H435 C407 0.931 . S
H436 C413 0.931 . S
H437 C414 0.931 . S
H438 C416 0.931 . S
H439 C417 0.931 . S
C440 Eu441 2.835 . S
C440 C442 1.500 . S
C440 O460 1.257 . S
C440 O461 1.260 . S
Eu441 C440 2.835 . S
Eu441 O460 2.473 . S
Eu441 O461 2.480 . S
Eu441 O462 2.430 1_565 S
Eu441 O463 2.670 . S
Eu441 O464 2.394 . S
Eu441 O469 2.355 . S
Eu441 O471 2.374 . S
C442 C440 1.500 . S
C442 C443 1.377 . S
C442 C447 1.377 . S
C443 C442 1.377 . S
C443 C444 1.395 . S
C443 H472 0.931 . S
C444 C443 1.395 . S
C444 C445 1.383 . S
C444 H473 0.931 . S
C445 C444 1.383 . S
C445 C446 1.394 . S
C446 C445 1.394 . S
C446 C447 1.378 . S
C446 H474 0.931 . S
C447 C442 1.377 . S
C447 C446 1.378 . S
C447 H475 0.931 . S
C448 O462 1.259 . S
C448 O463 1.270 1_545 S
C449 O464 1.251 . S
C449 O465 1.251 . S
C450 Eu451 2.835 . S
C450 C452 1.500 . S
C450 O466 1.257 . S
C450 O467 1.260 . S
Eu451 C450 2.835 . S
Eu451 O463 2.355 . S
Eu451 O465 2.374 . S
Eu451 O466 2.473 . S
Eu451 O467 2.480 . S
Eu451 O468 2.430 . S
Eu451 O469 2.670 . S
Eu451 O470 2.394 . S
C452 C450 1.500 . S
C452 C453 1.377 . S
C452 C457 1.377 1_565 S
C453 C452 1.377 . S
C453 C454 1.395 . S
C453 H476 0.931 . S
C454 C453 1.395 . S
C454 C455 1.383 . S
C454 H477 0.931 . S
C455 C454 1.383 . S
C455 C456 1.394 1_565 S
C456 C455 1.394 1_545 S
C456 C457 1.378 . S
C456 H478 0.931 . S
C457 C452 1.377 1_545 S
C457 C456 1.378 . S
C457 H479 0.931 . S
C458 O468 1.259 . S
C458 O469 1.270 . S
C459 O470 1.251 . S
C459 O471 1.251 . S
O460 C440 1.257 . S
O460 Eu441 2.473 . S
O461 C440 1.260 . S
O461 Eu441 2.480 . S
O462 Eu441 2.430 1_545 S
O462 C448 1.259 . S
O463 Eu441 2.670 . S
O463 C448 1.270 1_565 S
O463 Eu451 2.355 . S
O464 Eu441 2.394 . S
O464 C449 1.251 . S
O465 C449 1.251 . S
O465 Eu451 2.374 . S
O466 C450 1.257 . S
O466 Eu451 2.473 . S
O467 C450 1.260 . S
O467 Eu451 2.480 . S
O468 Eu451 2.430 . S
O468 C458 1.259 . S
O469 Eu441 2.355 . S
O469 Eu451 2.670 . S
O469 C458 1.270 . S
O470 Eu451 2.394 . S
O470 C459 1.251 . S
O471 Eu441 2.374 . S
O471 C459 1.251 . S
H472 C443 0.931 . S
H473 C444 0.931 . S
H474 C446 0.931 . S
H475 C447 0.931 . S
H476 C453 0.931 . S
H477 C454 0.931 . S
H478 C456 0.931 . S
H479 C457 0.931 . S
C480 Eu481 2.835 . S
C480 C482 1.500 . S
C480 O500 1.257 . S
C480 O501 1.260 . S
Eu481 C480 2.835 . S
Eu481 O500 2.473 . S
Eu481 O501 2.480 . S
Eu481 O502 2.430 . S
Eu481 O503 2.670 . S
Eu481 O504 2.394 . S
Eu481 O509 2.355 . S
Eu481 O511 2.374 . S
C482 C480 1.500 . S
C482 C483 1.377 . S
C482 C487 1.377 . S
C483 C482 1.377 . S
C483 C484 1.395 . S
C483 H512 0.931 . S
C484 C483 1.395 . S
C484 C485 1.383 . S
C484 H513 0.931 . S
C485 C484 1.383 . S
C485 C486 1.394 . S
C486 C485 1.394 . S
C486 C487 1.378 . S
C486 H514 0.931 . S
C487 C482 1.377 . S
C487 C486 1.378 . S
C487 H515 0.931 . S
C488 O502 1.259 . S
C488 O503 1.270 . S
C489 O504 1.251 . S
C489 O505 1.251 . S
C490 Eu491 2.835 . S
C490 C492 1.500 . S
C490 O506 1.257 . S
C490 O507 1.260 . S
Eu491 C490 2.835 . S
Eu491 O503 2.355 . S
Eu491 O505 2.374 . S
Eu491 O506 2.473 . S
Eu491 O507 2.480 . S
Eu491 O508 2.430 . S
Eu491 O509 2.670 . S
Eu491 O510 2.394 . S
C492 C490 1.500 . S
C492 C493 1.377 . S
C492 C497 1.377 . S
C493 C492 1.377 . S
C493 C494 1.395 . S
C493 H516 0.931 . S
C494 C493 1.395 . S
C494 C495 1.383 . S
C494 H517 0.931 . S
C495 C494 1.383 . S
C495 C496 1.394 . S
C496 C495 1.394 . S
C496 C497 1.378 . S
C496 H518 0.931 . S
C497 C492 1.377 . S
C497 C496 1.378 . S
C497 H519 0.931 . S
C498 O508 1.259 . S
C498 O509 1.270 . S
C499 O510 1.251 . S
C499 O511 1.251 . S
O500 C480 1.257 . S
O500 Eu481 2.473 . S
O501 C480 1.260 . S
O501 Eu481 2.480 . S
O502 Eu481 2.430 . S
O502 C488 1.259 . S
O503 Eu481 2.670 . S
O503 C488 1.270 . S
O503 Eu491 2.355 . S
O504 Eu481 2.394 . S
O504 C489 1.251 . S
O505 C489 1.251 . S
O505 Eu491 2.374 . S
O506 C490 1.257 . S
O506 Eu491 2.473 . S
O507 C490 1.260 . S
O507 Eu491 2.480 . S
O508 Eu491 2.430 . S
O508 C498 1.259 . S
O509 Eu481 2.355 . S
O509 Eu491 2.670 . S
O509 C498 1.270 . S
O510 Eu491 2.394 . S
O510 C499 1.251 . S
O511 Eu481 2.374 . S
O511 C499 1.251 . S
H512 C483 0.931 . S
H513 C484 0.931 . S
H514 C486 0.931 . S
H515 C487 0.931 . S
H516 C493 0.931 . S
H517 C494 0.931 . S
H518 C496 0.931 . S
H519 C497 0.931 . S
C520 Eu521 2.835 . S
C520 C522 1.500 . S
C520 O540 1.257 . S
C520 O541 1.260 . S
Eu521 C520 2.835 . S
Eu521 O540 2.473 . S
Eu521 O541 2.480 . S
Eu521 O542 2.430 1_545 S
Eu521 O543 2.670 . S
Eu521 O544 2.394 . S
Eu521 O549 2.355 . S
Eu521 O551 2.374 . S
C522 C520 1.500 . S
C522 C523 1.377 . S
C522 C527 1.377 . S
C523 C522 1.377 . S
C523 C524 1.395 . S
C523 H552 0.931 . S
C524 C523 1.395 . S
C524 C525 1.383 . S
C524 H553 0.931 . S
C525 C524 1.383 . S
C525 C526 1.394 . S
C526 C525 1.394 . S
C526 C527 1.378 . S
C526 H554 0.931 . S
C527 C522 1.377 . S
C527 C526 1.378 . S
C527 H555 0.931 . S
C528 O542 1.259 . S
C528 O543 1.270 1_565 S
C529 O544 1.251 . S
C529 O545 1.251 . S
C530 Eu531 2.835 . S
C530 C532 1.500 . S
C530 O546 1.257 . S
C530 O547 1.260 . S
Eu531 C530 2.835 . S
Eu531 O543 2.355 . S
Eu531 O545 2.374 . S
Eu531 O546 2.473 . S
Eu531 O547 2.480 . S
Eu531 O548 2.430 . S
Eu531 O549 2.670 . S
Eu531 O550 2.394 . S
C532 C530 1.500 . S
C532 C533 1.377 . S
C532 C537 1.377 1_545 S
C533 C532 1.377 . S
C533 C534 1.395 . S
C533 H556 0.931 . S
C534 C533 1.395 . S
C534 C535 1.383 . S
C534 H557 0.931 . S
C535 C534 1.383 . S
C535 C536 1.394 1_545 S
C536 C535 1.394 1_565 S
C536 C537 1.378 . S
C536 H558 0.931 . S
C537 C532 1.377 1_565 S
C537 C536 1.378 . S
C537 H559 0.931 . S
C538 O548 1.259 . S
C538 O549 1.270 . S
C539 O550 1.251 . S
C539 O551 1.251 . S
O540 C520 1.257 . S
O540 Eu521 2.473 . S
O541 C520 1.260 . S
O541 Eu521 2.480 . S
O542 Eu521 2.430 1_565 S
O542 C528 1.259 . S
O543 Eu521 2.670 . S
O543 C528 1.270 1_545 S
O543 Eu531 2.355 . S
O544 Eu521 2.394 . S
O544 C529 1.251 . S
O545 C529 1.251 . S
O545 Eu531 2.374 . S
O546 C530 1.257 . S
O546 Eu531 2.473 . S
O547 C530 1.260 . S
O547 Eu531 2.480 . S
O548 Eu531 2.430 . S
O548 C538 1.259 . S
O549 Eu521 2.355 . S
O549 Eu531 2.670 . S
O549 C538 1.270 . S
O550 Eu531 2.394 . S
O550 C539 1.251 . S
O551 Eu521 2.374 . S
O551 C539 1.251 . S
H552 C523 0.931 . S
H553 C524 0.931 . S
H554 C526 0.931 . S
H555 C527 0.931 . S
H556 C533 0.931 . S
H557 C534 0.931 . S
H558 C536 0.931 . S
H559 C537 0.931 . S
C560 Eu561 2.835 . S
C560 C562 1.500 . S
C560 O580 1.257 . S
C560 O581 1.260 . S
Eu561 C560 2.835 . S
Eu561 O580 2.473 . S
Eu561 O581 2.480 . S
Eu561 O582 2.430 . S
Eu561 O583 2.670 . S
Eu561 O584 2.394 . S
Eu561 O589 2.355 . S
Eu561 O591 2.374 . S
C562 C560 1.500 . S
C562 C563 1.377 . S
C562 C567 1.377 . S
C563 C562 1.377 . S
C563 C564 1.395 . S
C563 H592 0.931 . S
C564 C563 1.395 . S
C564 C565 1.383 . S
C564 H593 0.931 . S
C565 C564 1.383 . S
C565 C566 1.394 . S
C566 C565 1.394 . S
C566 C567 1.378 . S
C566 H594 0.931 . S
C567 C562 1.377 . S
C567 C566 1.378 . S
C567 H595 0.931 . S
C568 O582 1.259 . S
C568 O583 1.270 . S
C569 O584 1.251 . S
C569 O585 1.251 . S
C570 Eu571 2.835 . S
C570 C572 1.500 . S
C570 O586 1.257 . S
C570 O587 1.260 . S
Eu571 C570 2.835 . S
Eu571 O583 2.355 . S
Eu571 O585 2.374 . S
Eu571 O586 2.473 . S
Eu571 O587 2.480 . S
Eu571 O588 2.430 . S
Eu571 O589 2.670 . S
Eu571 O590 2.394 . S
C572 C570 1.500 . S
C572 C573 1.377 . S
C572 C577 1.377 . S
C573 C572 1.377 . S
C573 C574 1.395 . S
C573 H596 0.931 . S
C574 C573 1.395 . S
C574 C575 1.383 . S
C574 H597 0.931 . S
C575 C574 1.383 . S
C575 C576 1.394 . S
C576 C575 1.394 . S
C576 C577 1.378 . S
C576 H598 0.931 . S
C577 C572 1.377 . S
C577 C576 1.378 . S
C577 H599 0.931 . S
C578 O588 1.259 . S
C578 O589 1.270 . S
C579 O590 1.251 . S
C579 O591 1.251 . S
O580 C560 1.257 . S
O580 Eu561 2.473 . S
O581 C560 1.260 . S
O581 Eu561 2.480 . S
O582 Eu561 2.430 . S
O582 C568 1.259 . S
O583 Eu561 2.670 . S
O583 C568 1.270 . S
O583 Eu571 2.355 . S
O584 Eu561 2.394 . S
O584 C569 1.251 . S
O585 C569 1.251 . S
O585 Eu571 2.374 . S
O586 C570 1.257 . S
O586 Eu571 2.473 . S
O587 C570 1.260 . S
O587 Eu571 2.480 . S
O588 Eu571 2.430 . S
O588 C578 1.259 . S
O589 Eu561 2.355 . S
O589 Eu571 2.670 . S
O589 C578 1.270 . S
O590 Eu571 2.394 . S
O590 C579 1.251 . S
O591 Eu561 2.374 . S
O591 C579 1.251 . S
H592 C563 0.931 . S
H593 C564 0.931 . S
H594 C566 0.931 . S
H595 C567 0.931 . S
H596 C573 0.931 . S
H597 C574 0.931 . S
H598 C576 0.931 . S
H599 C577 0.931 . S
C600 Eu601 2.835 . S
C600 C602 1.500 . S
C600 O620 1.257 . S
C600 O621 1.260 . S
Eu601 C600 2.835 . S
Eu601 O620 2.473 . S
Eu601 O621 2.480 . S
Eu601 O622 2.430 1_465 S
Eu601 O623 2.670 1_455 S
Eu601 O624 2.394 1_455 S
Eu601 O629 2.355 1_455 S
Eu601 O631 2.374 . S
C602 C600 1.500 . S
C602 C603 1.377 . S
C602 C607 1.377 . S
C603 C602 1.377 . S
C603 C604 1.395 . S
C603 H632 0.931 . S
C604 C603 1.395 . S
C604 C605 1.383 . S
C604 H633 0.931 . S
C605 C604 1.383 . S
C605 C606 1.394 . S
C606 C605 1.394 . S
C606 C607 1.378 . S
C606 H634 0.931 . S
C607 C602 1.377 . S
C607 C606 1.378 . S
C607 H635 0.931 . S
C608 O622 1.259 . S
C608 O623 1.270 1_545 S
C609 O624 1.251 . S
C609 O625 1.251 . S
C610 Eu611 2.835 . S
C610 C612 1.500 . S
C610 O626 1.257 . S
C610 O627 1.260 . S
Eu611 C610 2.835 . S
Eu611 O623 2.355 . S
Eu611 O625 2.374 . S
Eu611 O626 2.473 . S
Eu611 O627 2.480 . S
Eu611 O628 2.430 . S
Eu611 O629 2.670 . S
Eu611 O630 2.394 . S
C612 C610 1.500 . S
C612 C613 1.377 . S
C612 C617 1.377 1_565 S
C613 C612 1.377 . S
C613 C614 1.395 . S
C613 H636 0.931 . S
C614 C613 1.395 . S
C614 C615 1.383 . S
C614 H637 0.931 . S
C615 C614 1.383 . S
C615 C616 1.394 1_565 S
C616 C615 1.394 1_545 S
C616 C617 1.378 . S
C616 H638 0.931 . S
C617 C612 1.377 1_545 S
C617 C616 1.378 . S
C617 H639 0.931 . S
C618 O628 1.259 . S
C618 O629 1.270 . S
C619 O630 1.251 . S
C619 O631 1.251 1_655 S
O620 C600 1.257 . S
O620 Eu601 2.473 . S
O621 C600 1.260 . S
O621 Eu601 2.480 . S
O622 Eu601 2.430 1_645 S
O622 C608 1.259 . S
O623 Eu601 2.670 1_655 S
O623 C608 1.270 1_565 S
O623 Eu611 2.355 . S
O624 Eu601 2.394 1_655 S
O624 C609 1.251 . S
O625 C609 1.251 . S
O625 Eu611 2.374 . S
O626 C610 1.257 . S
O626 Eu611 2.473 . S
O627 C610 1.260 . S
O627 Eu611 2.480 . S
O628 Eu611 2.430 . S
O628 C618 1.259 . S
O629 Eu601 2.355 1_655 S
O629 Eu611 2.670 . S
O629 C618 1.270 . S
O630 Eu611 2.394 . S
O630 C619 1.251 . S
O631 Eu601 2.374 . S
O631 C619 1.251 1_455 S
H632 C603 0.931 . S
H633 C604 0.931 . S
H634 C606 0.931 . S
H635 C607 0.931 . S
H636 C613 0.931 . S
H637 C614 0.931 . S
H638 C616 0.931 . S
H639 C617 0.931 . S
C640 Eu641 2.835 . S
C640 C642 1.500 . S
C640 O660 1.257 . S
C640 O661 1.260 . S
Eu641 C640 2.835 . S
Eu641 O660 2.473 . S
Eu641 O661 2.480 . S
Eu641 O662 2.430 . S
Eu641 O663 2.670 . S
Eu641 O664 2.394 . S
Eu641 O669 2.355 . S
Eu641 O671 2.374 . S
C642 C640 1.500 . S
C642 C643 1.377 . S
C642 C647 1.377 . S
C643 C642 1.377 . S
C643 C644 1.395 . S
C643 H672 0.931 . S
C644 C643 1.395 . S
C644 C645 1.383 . S
C644 H673 0.931 . S
C645 C644 1.383 . S
C645 C646 1.394 . S
C646 C645 1.394 . S
C646 C647 1.378 . S
C646 H674 0.931 . S
C647 C642 1.377 . S
C647 C646 1.378 . S
C647 H675 0.931 . S
C648 O662 1.259 . S
C648 O663 1.270 . S
C649 O664 1.251 . S
C649 O665 1.251 . S
C650 Eu651 2.835 . S
C650 C652 1.500 . S
C650 O666 1.257 . S
C650 O667 1.260 . S
Eu651 C650 2.835 . S
Eu651 O663 2.355 . S
Eu651 O665 2.374 . S
Eu651 O666 2.473 . S
Eu651 O667 2.480 . S
Eu651 O668 2.430 . S
Eu651 O669 2.670 . S
Eu651 O670 2.394 . S
C652 C650 1.500 . S
C652 C653 1.377 . S
C652 C657 1.377 . S
C653 C652 1.377 . S
C653 C654 1.395 . S
C653 H676 0.931 . S
C654 C653 1.395 . S
C654 C655 1.383 . S
C654 H677 0.931 . S
C655 C654 1.383 . S
C655 C656 1.394 . S
C656 C655 1.394 . S
C656 C657 1.378 . S
C656 H678 0.931 . S
C657 C652 1.377 . S
C657 C656 1.378 . S
C657 H679 0.931 . S
C658 O668 1.259 . S
C658 O669 1.270 . S
C659 O670 1.251 . S
C659 O671 1.251 . S
O660 C640 1.257 . S
O660 Eu641 2.473 . S
O661 C640 1.260 . S
O661 Eu641 2.480 . S
O662 Eu641 2.430 . S
O662 C648 1.259 . S
O663 Eu641 2.670 . S
O663 C648 1.270 . S
O663 Eu651 2.355 . S
O664 Eu641 2.394 . S
O664 C649 1.251 . S
O665 C649 1.251 . S
O665 Eu651 2.374 . S
O666 C650 1.257 . S
O666 Eu651 2.473 . S
O667 C650 1.260 . S
O667 Eu651 2.480 . S
O668 Eu651 2.430 . S
O668 C658 1.259 . S
O669 Eu641 2.355 . S
O669 Eu651 2.670 . S
O669 C658 1.270 . S
O670 Eu651 2.394 . S
O670 C659 1.251 . S
O671 Eu641 2.374 . S
O671 C659 1.251 . S
H672 C643 0.931 . S
H673 C644 0.931 . S
H674 C646 0.931 . S
H675 C647 0.931 . S
H676 C653 0.931 . S
H677 C654 0.931 . S
H678 C656 0.931 . S
H679 C657 0.931 . S
C680 Eu681 2.835 . S
C680 C682 1.500 . S
C680 O700 1.257 . S
C680 O701 1.260 . S
Eu681 C680 2.835 . S
Eu681 O700 2.473 . S
Eu681 O701 2.480 . S
Eu681 O702 2.430 . S
Eu681 O703 2.670 . S
Eu681 O704 2.394 . S
Eu681 O709 2.355 . S
Eu681 O711 2.374 . S
C682 C680 1.500 . S
C682 C683 1.377 . S
C682 C687 1.377 . S
C683 C682 1.377 . S
C683 C684 1.395 . S
C683 H712 0.931 . S
C684 C683 1.395 . S
C684 C685 1.383 . S
C684 H713 0.931 . S
C685 C684 1.383 . S
C685 C686 1.394 . S
C686 C685 1.394 . S
C686 C687 1.378 . S
C686 H714 0.931 . S
C687 C682 1.377 . S
C687 C686 1.378 . S
C687 H715 0.931 . S
C688 O702 1.259 . S
C688 O703 1.270 . S
C689 O704 1.251 . S
C689 O705 1.251 . S
C690 Eu691 2.835 . S
C690 C692 1.500 . S
C690 O706 1.257 . S
C690 O707 1.260 . S
Eu691 C690 2.835 . S
Eu691 O703 2.355 . S
Eu691 O705 2.374 . S
Eu691 O706 2.473 . S
Eu691 O707 2.480 . S
Eu691 O708 2.430 . S
Eu691 O709 2.670 . S
Eu691 O710 2.394 . S
C692 C690 1.500 . S
C692 C693 1.377 . S
C692 C697 1.377 . S
C693 C692 1.377 . S
C693 C694 1.395 . S
C693 H716 0.931 . S
C694 C693 1.395 . S
C694 C695 1.383 . S
C694 H717 0.931 . S
C695 C694 1.383 . S
C695 C696 1.394 . S
C696 C695 1.394 . S
C696 C697 1.378 . S
C696 H718 0.931 . S
C697 C692 1.377 . S
C697 C696 1.378 . S
C697 H719 0.931 . S
C698 O708 1.259 . S
C698 O709 1.270 . S
C699 O710 1.251 . S
C699 O711 1.251 . S
O700 C680 1.257 . S
O700 Eu681 2.473 . S
O701 C680 1.260 . S
O701 Eu681 2.480 . S
O702 Eu681 2.430 . S
O702 C688 1.259 . S
O703 Eu681 2.670 . S
O703 C688 1.270 . S
O703 Eu691 2.355 . S
O704 Eu681 2.394 . S
O704 C689 1.251 . S
O705 C689 1.251 . S
O705 Eu691 2.374 . S
O706 C690 1.257 . S
O706 Eu691 2.473 . S
O707 C690 1.260 . S
O707 Eu691 2.480 . S
O708 Eu691 2.430 . S
O708 C698 1.259 . S
O709 Eu681 2.355 . S
O709 Eu691 2.670 . S
O709 C698 1.270 . S
O710 Eu691 2.394 . S
O710 C699 1.251 . S
O711 Eu681 2.374 . S
O711 C699 1.251 . S
H712 C683 0.931 . S
H713 C684 0.931 . S
H714 C686 0.931 . S
H715 C687 0.931 . S
H716 C693 0.931 . S
H717 C694 0.931 . S
H718 C696 0.931 . S
H719 C697 0.931 . S
C720 Eu721 2.835 . S
C720 C722 1.500 . S
C720 O740 1.257 . S
C720 O741 1.260 . S
Eu721 C720 2.835 . S
Eu721 O740 2.473 . S
Eu721 O741 2.480 . S
Eu721 O742 2.430 . S
Eu721 O743 2.670 . S
Eu721 O744 2.394 . S
Eu721 O749 2.355 . S
Eu721 O751 2.374 . S
C722 C720 1.500 . S
C722 C723 1.377 . S
C722 C727 1.377 . S
C723 C722 1.377 . S
C723 C724 1.395 . S
C723 H752 0.931 . S
C724 C723 1.395 . S
C724 C725 1.383 . S
C724 H753 0.931 . S
C725 C724 1.383 . S
C725 C726 1.394 . S
C726 C725 1.394 . S
C726 C727 1.378 . S
C726 H754 0.931 . S
C727 C722 1.377 . S
C727 C726 1.378 . S
C727 H755 0.931 . S
C728 O742 1.259 . S
C728 O743 1.270 . S
C729 O744 1.251 . S
C729 O745 1.251 . S
C730 Eu731 2.835 . S
C730 C732 1.500 . S
C730 O746 1.257 . S
C730 O747 1.260 . S
Eu731 C730 2.835 . S
Eu731 O743 2.355 . S
Eu731 O745 2.374 . S
Eu731 O746 2.473 . S
Eu731 O747 2.480 . S
Eu731 O748 2.430 . S
Eu731 O749 2.670 . S
Eu731 O750 2.394 . S
C732 C730 1.500 . S
C732 C733 1.377 . S
C732 C737 1.377 . S
C733 C732 1.377 . S
C733 C734 1.395 . S
C733 H756 0.931 . S
C734 C733 1.395 . S
C734 C735 1.383 . S
C734 H757 0.931 . S
C735 C734 1.383 . S
C735 C736 1.394 . S
C736 C735 1.394 . S
C736 C737 1.378 . S
C736 H758 0.931 . S
C737 C732 1.377 . S
C737 C736 1.378 . S
C737 H759 0.931 . S
C738 O748 1.259 . S
C738 O749 1.270 . S
C739 O750 1.251 . S
C739 O751 1.251 . S
O740 C720 1.257 . S
O740 Eu721 2.473 . S
O741 C720 1.260 . S
O741 Eu721 2.480 . S
O742 Eu721 2.430 . S
O742 C728 1.259 . S
O743 Eu721 2.670 . S
O743 C728 1.270 . S
O743 Eu731 2.355 . S
O744 Eu721 2.394 . S
O744 C729 1.251 . S
O745 C729 1.251 . S
O745 Eu731 2.374 . S
O746 C730 1.257 . S
O746 Eu731 2.473 . S
O747 C730 1.260 . S
O747 Eu731 2.480 . S
O748 Eu731 2.430 . S
O748 C738 1.259 . S
O749 Eu721 2.355 . S
O749 Eu731 2.670 . S
O749 C738 1.270 . S
O750 Eu731 2.394 . S
O750 C739 1.251 . S
O751 Eu721 2.374 . S
O751 C739 1.251 . S
H752 C723 0.931 . S
H753 C724 0.931 . S
H754 C726 0.931 . S
H755 C727 0.931 . S
H756 C733 0.931 . S
H757 C734 0.931 . S
H758 C736 0.931 . S
H759 C737 0.931 . S
C760 Eu761 2.835 . S
C760 C762 1.500 . S
C760 O780 1.257 . S
C760 O781 1.260 . S
Eu761 C760 2.835 . S
Eu761 O780 2.473 . S
Eu761 O781 2.480 . S
Eu761 O782 2.430 . S
Eu761 O783 2.670 . S
Eu761 O784 2.394 . S
Eu761 O789 2.355 . S
Eu761 O791 2.374 . S
C762 C760 1.500 . S
C762 C763 1.377 . S
C762 C767 1.377 . S
C763 C762 1.377 . S
C763 C764 1.395 . S
C763 H792 0.931 . S
C764 C763 1.395 . S
C764 C765 1.383 . S
C764 H793 0.931 . S
C765 C764 1.383 . S
C765 C766 1.394 . S
C766 C765 1.394 . S
C766 C767 1.378 . S
C766 H794 0.931 . S
C767 C762 1.377 . S
C767 C766 1.378 . S
C767 H795 0.931 . S
C768 O782 1.259 . S
C768 O783 1.270 . S
C769 O784 1.251 . S
C769 O785 1.251 1_655 S
C770 Eu771 2.835 . S
C770 C772 1.500 . S
C770 O786 1.257 . S
C770 O787 1.260 . S
Eu771 C770 2.835 . S
Eu771 O783 2.355 1_455 S
Eu771 O785 2.374 . S
Eu771 O786 2.473 . S
Eu771 O787 2.480 . S
Eu771 O788 2.430 1_455 S
Eu771 O789 2.670 1_455 S
Eu771 O790 2.394 1_455 S
C772 C770 1.500 . S
C772 C773 1.377 . S
C772 C777 1.377 . S
C773 C772 1.377 . S
C773 C774 1.395 . S
C773 H796 0.931 . S
C774 C773 1.395 . S
C774 C775 1.383 . S
C774 H797 0.931 . S
C775 C774 1.383 . S
C775 C776 1.394 . S
C776 C775 1.394 . S
C776 C777 1.378 . S
C776 H798 0.931 . S
C777 C772 1.377 . S
C777 C776 1.378 . S
C777 H799 0.931 . S
C778 O788 1.259 . S
C778 O789 1.270 . S
C779 O790 1.251 . S
C779 O791 1.251 . S
O780 C760 1.257 . S
O780 Eu761 2.473 . S
O781 C760 1.260 . S
O781 Eu761 2.480 . S
O782 Eu761 2.430 . S
O782 C768 1.259 . S
O783 Eu761 2.670 . S
O783 C768 1.270 . S
O783 Eu771 2.355 1_655 S
O784 Eu761 2.394 . S
O784 C769 1.251 . S
O785 C769 1.251 1_455 S
O785 Eu771 2.374 . S
O786 C770 1.257 . S
O786 Eu771 2.473 . S
O787 C770 1.260 . S
O787 Eu771 2.480 . S
O788 Eu771 2.430 1_655 S
O788 C778 1.259 . S
O789 Eu761 2.355 . S
O789 Eu771 2.670 1_655 S
O789 C778 1.270 . S
O790 Eu771 2.394 1_655 S
O790 C779 1.251 . S
O791 Eu761 2.374 . S
O791 C779 1.251 . S
H792 C763 0.931 . S
H793 C764 0.931 . S
H794 C766 0.931 . S
H795 C767 0.931 . S
H796 C773 0.931 . S
H797 C774 0.931 . S
H798 C776 0.931 . S
H799 C777 0.931 . S
C800 Eu801 2.835 . S
C800 C802 1.500 . S
C800 O820 1.257 . S
C800 O821 1.260 . S
Eu801 C800 2.835 . S
Eu801 O820 2.473 . S
Eu801 O821 2.480 . S
Eu801 O822 2.430 . S
Eu801 O823 2.670 . S
Eu801 O824 2.394 . S
Eu801 O829 2.355 . S
Eu801 O831 2.374 . S
C802 C800 1.500 . S
C802 C803 1.377 . S
C802 C807 1.377 . S
C803 C802 1.377 . S
C803 C804 1.395 . S
C803 H832 0.931 . S
C804 C803 1.395 . S
C804 C805 1.383 . S
C804 H833 0.931 . S
C805 C804 1.383 . S
C805 C806 1.394 . S
C806 C805 1.394 . S
C806 C807 1.378 . S
C806 H834 0.931 . S
C807 C802 1.377 . S
C807 C806 1.378 . S
C807 H835 0.931 . S
C808 O822 1.259 . S
C808 O823 1.270 . S
C809 O824 1.251 . S
C809 O825 1.251 . S
C810 Eu811 2.835 . S
C810 C812 1.500 . S
C810 O826 1.257 . S
C810 O827 1.260 . S
Eu811 C810 2.835 . S
Eu811 O823 2.355 . S
Eu811 O825 2.374 . S
Eu811 O826 2.473 . S
Eu811 O827 2.480 . S
Eu811 O828 2.430 . S
Eu811 O829 2.670 . S
Eu811 O830 2.394 . S
C812 C810 1.500 . S
C812 C813 1.377 . S
C812 C817 1.377 . S
C813 C812 1.377 . S
C813 C814 1.395 . S
C813 H836 0.931 . S
C814 C813 1.395 . S
C814 C815 1.383 . S
C814 H837 0.931 . S
C815 C814 1.383 . S
C815 C816 1.394 . S
C816 C815 1.394 . S
C816 C817 1.378 . S
C816 H838 0.931 . S
C817 C812 1.377 . S
C817 C816 1.378 . S
C817 H839 0.931 . S
C818 O828 1.259 . S
C818 O829 1.270 . S
C819 O830 1.251 . S
C819 O831 1.251 . S
O820 C800 1.257 . S
O820 Eu801 2.473 . S
O821 C800 1.260 . S
O821 Eu801 2.480 . S
O822 Eu801 2.430 . S
O822 C808 1.259 . S
O823 Eu801 2.670 . S
O823 C808 1.270 . S
O823 Eu811 2.355 . S
O824 Eu801 2.394 . S
O824 C809 1.251 . S
O825 C809 1.251 . S
O825 Eu811 2.374 . S
O826 C810 1.257 . S
O826 Eu811 2.473 . S
O827 C810 1.260 . S
O827 Eu811 2.480 . S
O828 Eu811 2.430 . S
O828 C818 1.259 . S
O829 Eu801 2.355 . S
O829 Eu811 2.670 . S
O829 C818 1.270 . S
O830 Eu811 2.394 . S
O830 C819 1.251 . S
O831 Eu801 2.374 . S
O831 C819 1.251 . S
H832 C803 0.931 . S
H833 C804 0.931 . S
H834 C806 0.931 . S
H835 C807 0.931 . S
H836 C813 0.931 . S
H837 C814 0.931 . S
H838 C816 0.931 . S
H839 C817 0.931 . S
C840 Eu841 2.835 . S
C840 C842 1.500 . S
C840 O860 1.257 . S
C840 O861 1.260 . S
Eu841 C840 2.835 . S
Eu841 O860 2.473 . S
Eu841 O861 2.480 . S
Eu841 O862 2.430 . S
Eu841 O863 2.670 . S
Eu841 O864 2.394 . S
Eu841 O869 2.355 . S
Eu841 O871 2.374 . S
C842 C840 1.500 . S
C842 C843 1.377 . S
C842 C847 1.377 . S
C843 C842 1.377 . S
C843 C844 1.395 . S
C843 H872 0.931 . S
C844 C843 1.395 . S
C844 C845 1.383 . S
C844 H873 0.931 . S
C845 C844 1.383 . S
C845 C846 1.394 . S
C846 C845 1.394 . S
C846 C847 1.378 . S
C846 H874 0.931 . S
C847 C842 1.377 . S
C847 C846 1.378 . S
C847 H875 0.931 . S
C848 O862 1.259 . S
C848 O863 1.270 . S
C849 O864 1.251 . S
C849 O865 1.251 1_655 S
C850 Eu851 2.835 . S
C850 C852 1.500 . S
C850 O866 1.257 . S
C850 O867 1.260 . S
Eu851 C850 2.835 . S
Eu851 O863 2.355 1_455 S
Eu851 O865 2.374 . S
Eu851 O866 2.473 . S
Eu851 O867 2.480 . S
Eu851 O868 2.430 1_455 S
Eu851 O869 2.670 1_455 S
Eu851 O870 2.394 1_455 S
C852 C850 1.500 . S
C852 C853 1.377 . S
C852 C857 1.377 . S
C853 C852 1.377 . S
C853 C854 1.395 . S
C853 H876 0.931 . S
C854 C853 1.395 . S
C854 C855 1.383 . S
C854 H877 0.931 . S
C855 C854 1.383 . S
C855 C856 1.394 . S
C856 C855 1.394 . S
C856 C857 1.378 . S
C856 H878 0.931 . S
C857 C852 1.377 . S
C857 C856 1.378 . S
C857 H879 0.931 . S
C858 O868 1.259 . S
C858 O869 1.270 . S
C859 O870 1.251 . S
C859 O871 1.251 . S
O860 C840 1.257 . S
O860 Eu841 2.473 . S
O861 C840 1.260 . S
O861 Eu841 2.480 . S
O862 Eu841 2.430 . S
O862 C848 1.259 . S
O863 Eu841 2.670 . S
O863 C848 1.270 . S
O863 Eu851 2.355 1_655 S
O864 Eu841 2.394 . S
O864 C849 1.251 . S
O865 C849 1.251 1_455 S
O865 Eu851 2.374 . S
O866 C850 1.257 . S
O866 Eu851 2.473 . S
O867 C850 1.260 . S
O867 Eu851 2.480 . S
O868 Eu851 2.430 1_655 S
O868 C858 1.259 . S
O869 Eu841 2.355 . S
O869 Eu851 2.670 1_655 S
O869 C858 1.270 . S
O870 Eu851 2.394 1_655 S
O870 C859 1.251 . S
O871 Eu841 2.374 . S
O871 C859 1.251 . S
H872 C843 0.931 . S
H873 C844 0.931 . S
H874 C846 0.931 . S
H875 C847 0.931 . S
H876 C853 0.931 . S
H877 C854 0.931 . S
H878 C856 0.931 . S
H879 C857 0.931 . S
C880 Eu881 2.835 . S
C880 C882 1.500 . S
C880 O900 1.257 . S
C880 O901 1.260 . S
Eu881 C880 2.835 . S
Eu881 O900 2.473 . S
Eu881 O901 2.480 . S
Eu881 O902 2.430 . S
Eu881 O903 2.670 . S
Eu881 O904 2.394 . S
Eu881 O909 2.355 . S
Eu881 O911 2.374 . S
C882 C880 1.500 . S
C882 C883 1.377 . S
C882 C887 1.377 . S
C883 C882 1.377 . S
C883 C884 1.395 . S
C883 H912 0.931 . S
C884 C883 1.395 . S
C884 C885 1.383 . S
C884 H913 0.931 . S
C885 C884 1.383 . S
C885 C886 1.394 . S
C886 C885 1.394 . S
C886 C887 1.378 . S
C886 H914 0.931 . S
C887 C882 1.377 . S
C887 C886 1.378 . S
C887 H915 0.931 . S
C888 O902 1.259 . S
C888 O903 1.270 . S
C889 O904 1.251 . S
C889 O905 1.251 . S
C890 Eu891 2.835 . S
C890 C892 1.500 . S
C890 O906 1.257 . S
C890 O907 1.260 . S
Eu891 C890 2.835 . S
Eu891 O903 2.355 . S
Eu891 O905 2.374 . S
Eu891 O906 2.473 . S
Eu891 O907 2.480 . S
Eu891 O908 2.430 . S
Eu891 O909 2.670 . S
Eu891 O910 2.394 . S
C892 C890 1.500 . S
C892 C893 1.377 . S
C892 C897 1.377 . S
C893 C892 1.377 . S
C893 C894 1.395 . S
C893 H916 0.931 . S
C894 C893 1.395 . S
C894 C895 1.383 . S
C894 H917 0.931 . S
C895 C894 1.383 . S
C895 C896 1.394 . S
C896 C895 1.394 . S
C896 C897 1.378 . S
C896 H918 0.931 . S
C897 C892 1.377 . S
C897 C896 1.378 . S
C897 H919 0.931 . S
C898 O908 1.259 . S
C898 O909 1.270 . S
C899 O910 1.251 . S
C899 O911 1.251 . S
O900 C880 1.257 . S
O900 Eu881 2.473 . S
O901 C880 1.260 . S
O901 Eu881 2.480 . S
O902 Eu881 2.430 . S
O902 C888 1.259 . S
O903 Eu881 2.670 . S
O903 C888 1.270 . S
O903 Eu891 2.355 . S
O904 Eu881 2.394 . S
O904 C889 1.251 . S
O905 C889 1.251 . S
O905 Eu891 2.374 . S
O906 C890 1.257 . S
O906 Eu891 2.473 . S
O907 C890 1.260 . S
O907 Eu891 2.480 . S
O908 Eu891 2.430 . S
O908 C898 1.259 . S
O909 Eu881 2.355 . S
O909 Eu891 2.670 . S
O909 C898 1.270 . S
O910 Eu891 2.394 . S
O910 C899 1.251 . S
O911 Eu881 2.374 . S
O911 C899 1.251 . S
H912 C883 0.931 . S
H913 C884 0.931 . S
H914 C886 0.931 . S
H915 C887 0.931 . S
H916 C893 0.931 . S
H917 C894 0.931 . S
H918 C896 0.931 . S
H919 C897 0.931 . S
C920 Eu921 2.835 . S
C920 C922 1.500 . S
C920 O940 1.257 . S
C920 O941 1.260 . S
Eu921 C920 2.835 . S
Eu921 O940 2.473 . S
Eu921 O941 2.480 . S
Eu921 O942 2.430 . S
Eu921 O943 2.670 . S
Eu921 O944 2.394 . S
Eu921 O949 2.355 . S
Eu921 O951 2.374 . S
C922 C920 1.500 . S
C922 C923 1.377 . S
C922 C927 1.377 . S
C923 C922 1.377 . S
C923 C924 1.395 . S
C923 H952 0.931 . S
C924 C923 1.395 . S
C924 C925 1.383 . S
C924 H953 0.931 . S
C925 C924 1.383 . S
C925 C926 1.394 . S
C926 C925 1.394 . S
C926 C927 1.378 . S
C926 H954 0.931 . S
C927 C922 1.377 . S
C927 C926 1.378 . S
C927 H955 0.931 . S
C928 O942 1.259 . S
C928 O943 1.270 . S
C929 O944 1.251 . S
C929 O945 1.251 . S
C930 Eu931 2.835 . S
C930 C932 1.500 . S
C930 O946 1.257 . S
C930 O947 1.260 . S
Eu931 C930 2.835 . S
Eu931 O943 2.355 . S
Eu931 O945 2.374 . S
Eu931 O946 2.473 . S
Eu931 O947 2.480 . S
Eu931 O948 2.430 . S
Eu931 O949 2.670 . S
Eu931 O950 2.394 . S
C932 C930 1.500 . S
C932 C933 1.377 . S
C932 C937 1.377 . S
C933 C932 1.377 . S
C933 C934 1.395 . S
C933 H956 0.931 . S
C934 C933 1.395 . S
C934 C935 1.383 . S
C934 H957 0.931 . S
C935 C934 1.383 . S
C935 C936 1.394 . S
C936 C935 1.394 . S
C936 C937 1.378 . S
C936 H958 0.931 . S
C937 C932 1.377 . S
C937 C936 1.378 . S
C937 H959 0.931 . S
C938 O948 1.259 . S
C938 O949 1.270 . S
C939 O950 1.251 . S
C939 O951 1.251 . S
O940 C920 1.257 . S
O940 Eu921 2.473 . S
O941 C920 1.260 . S
O941 Eu921 2.480 . S
O942 Eu921 2.430 . S
O942 C928 1.259 . S
O943 Eu921 2.670 . S
O943 C928 1.270 . S
O943 Eu931 2.355 . S
O944 Eu921 2.394 . S
O944 C929 1.251 . S
O945 C929 1.251 . S
O945 Eu931 2.374 . S
O946 C930 1.257 . S
O946 Eu931 2.473 . S
O947 C930 1.260 . S
O947 Eu931 2.480 . S
O948 Eu931 2.430 . S
O948 C938 1.259 . S
O949 Eu921 2.355 . S
O949 Eu931 2.670 . S
O949 C938 1.270 . S
O950 Eu931 2.394 . S
O950 C939 1.251 . S
O951 Eu921 2.374 . S
O951 C939 1.251 . S
H952 C923 0.931 . S
H953 C924 0.931 . S
H954 C926 0.931 . S
H955 C927 0.931 . S
H956 C933 0.931 . S
H957 C934 0.931 . S
H958 C936 0.931 . S
H959 C937 0.931 . S
C960 Eu961 2.835 . S
C960 C962 1.500 . S
C960 O980 1.257 . S
C960 O981 1.260 . S
Eu961 C960 2.835 . S
Eu961 O980 2.473 . S
Eu961 O981 2.480 . S
Eu961 O982 2.430 . S
Eu961 O983 2.670 . S
Eu961 O984 2.394 . S
Eu961 O989 2.355 . S
Eu961 O991 2.374 . S
C962 C960 1.500 . S
C962 C963 1.377 . S
C962 C967 1.377 . S
C963 C962 1.377 . S
C963 C964 1.395 . S
C963 H992 0.931 . S
C964 C963 1.395 . S
C964 C965 1.383 . S
C964 H993 0.931 . S
C965 C964 1.383 . S
C965 C966 1.394 . S
C966 C965 1.394 . S
C966 C967 1.378 . S
C966 H994 0.931 . S
C967 C962 1.377 . S
C967 C966 1.378 . S
C967 H995 0.931 . S
C968 O982 1.259 . S
C968 O983 1.270 . S
C969 O984 1.251 . S
C969 O985 1.251 . S
C970 Eu971 2.835 . S
C970 C972 1.500 . S
C970 O986 1.257 . S
C970 O987 1.260 . S
Eu971 C970 2.835 . S
Eu971 O983 2.355 . S
Eu971 O985 2.374 . S
Eu971 O986 2.473 . S
Eu971 O987 2.480 . S
Eu971 O988 2.430 . S
Eu971 O989 2.670 . S
Eu971 O990 2.394 . S
C972 C970 1.500 . S
C972 C973 1.377 . S
C972 C977 1.377 . S
C973 C972 1.377 . S
C973 C974 1.395 . S
C973 H996 0.931 . S
C974 C973 1.395 . S
C974 C975 1.383 . S
C974 H997 0.931 . S
C975 C974 1.383 . S
C975 C976 1.394 . S
C976 C975 1.394 . S
C976 C977 1.378 . S
C976 H998 0.931 . S
C977 C972 1.377 . S
C977 C976 1.378 . S
C977 H999 0.931 . S
C978 O988 1.259 . S
C978 O989 1.270 . S
C979 O990 1.251 . S
C979 O991 1.251 . S
O980 C960 1.257 . S
O980 Eu961 2.473 . S
O981 C960 1.260 . S
O981 Eu961 2.480 . S
O982 Eu961 2.430 . S
O982 C968 1.259 . S
O983 Eu961 2.670 . S
O983 C968 1.270 . S
O983 Eu971 2.355 . S
O984 Eu961 2.394 . S
O984 C969 1.251 . S
O985 C969 1.251 . S
O985 Eu971 2.374 . S
O986 C970 1.257 . S
O986 Eu971 2.473 . S
O987 C970 1.260 . S
O987 Eu971 2.480 . S
O988 Eu971 2.430 . S
O988 C978 1.259 . S
O989 Eu961 2.355 . S
O989 Eu971 2.670 . S
O989 C978 1.270 . S
O990 Eu971 2.394 . S
O990 C979 1.251 . S
O991 Eu961 2.374 . S
O991 C979 1.251 . S
H992 C963 0.931 . S
H993 C964 0.931 . S
H994 C966 0.931 . S
H995 C967 0.931 . S
H996 C973 0.931 . S
H997 C974 0.931 . S
H998 C976 0.931 . S
H999 C977 0.931 . S
C1000 Eu1001 2.835 . S
C1000 C1002 1.500 . S
C1000 O1020 1.257 . S
C1000 O1021 1.260 . S
Eu1001 C1000 2.835 . S
Eu1001 O1020 2.473 . S
Eu1001 O1021 2.480 . S
Eu1001 O1022 2.430 . S
Eu1001 O1023 2.670 . S
Eu1001 O1024 2.394 . S
Eu1001 O1029 2.355 . S
Eu1001 O1031 2.374 . S
C1002 C1000 1.500 . S
C1002 C1003 1.377 . S
C1002 C1007 1.377 . S
C1003 C1002 1.377 . S
C1003 C1004 1.395 . S
C1003 H1032 0.931 . S
C1004 C1003 1.395 . S
C1004 C1005 1.383 . S
C1004 H1033 0.931 . S
C1005 C1004 1.383 . S
C1005 C1006 1.394 . S
C1006 C1005 1.394 . S
C1006 C1007 1.378 . S
C1006 H1034 0.931 . S
C1007 C1002 1.377 . S
C1007 C1006 1.378 . S
C1007 H1035 0.931 . S
C1008 O1022 1.259 . S
C1008 O1023 1.270 . S
C1009 O1024 1.251 . S
C1009 O1025 1.251 . S
C1010 Eu1011 2.835 . S
C1010 C1012 1.500 . S
C1010 O1026 1.257 . S
C1010 O1027 1.260 . S
Eu1011 C1010 2.835 . S
Eu1011 O1023 2.355 . S
Eu1011 O1025 2.374 . S
Eu1011 O1026 2.473 . S
Eu1011 O1027 2.480 . S
Eu1011 O1028 2.430 . S
Eu1011 O1029 2.670 . S
Eu1011 O1030 2.394 . S
C1012 C1010 1.500 . S
C1012 C1013 1.377 . S
C1012 C1017 1.377 . S
C1013 C1012 1.377 . S
C1013 C1014 1.395 . S
C1013 H1036 0.931 . S
C1014 C1013 1.395 . S
C1014 C1015 1.383 . S
C1014 H1037 0.931 . S
C1015 C1014 1.383 . S
C1015 C1016 1.394 . S
C1016 C1015 1.394 . S
C1016 C1017 1.378 . S
C1016 H1038 0.931 . S
C1017 C1012 1.377 . S
C1017 C1016 1.378 . S
C1017 H1039 0.931 . S
C1018 O1028 1.259 . S
C1018 O1029 1.270 . S
C1019 O1030 1.251 . S
C1019 O1031 1.251 . S
O1020 C1000 1.257 . S
O1020 Eu1001 2.473 . S
O1021 C1000 1.260 . S
O1021 Eu1001 2.480 . S
O1022 Eu1001 2.430 . S
O1022 C1008 1.259 . S
O1023 Eu1001 2.670 . S
O1023 C1008 1.270 . S
O1023 Eu1011 2.355 . S
O1024 Eu1001 2.394 . S
O1024 C1009 1.251 . S
O1025 C1009 1.251 . S
O1025 Eu1011 2.374 . S
O1026 C1010 1.257 . S
O1026 Eu1011 2.473 . S
O1027 C1010 1.260 . S
O1027 Eu1011 2.480 . S
O1028 Eu1011 2.430 . S
O1028 C1018 1.259 . S
O1029 Eu1001 2.355 . S
O1029 Eu1011 2.670 . S
O1029 C1018 1.270 . S
O1030 Eu1011 2.394 . S
O1030 C1019 1.251 . S
O1031 Eu1001 2.374 . S
O1031 C1019 1.251 . S
H1032 C1003 0.931 . S
H1033 C1004 0.931 . S
H1034 C1006 0.931 . S
H1035 C1007 0.931 . S
H1036 C1013 0.931 . S
H1037 C1014 0.931 . S
H1038 C1016 0.931 . S
H1039 C1017 0.931 . S
C1040 Eu1041 2.835 . S
C1040 C1042 1.500 . S
C1040 O1060 1.257 . S
C1040 O1061 1.260 . S
Eu1041 C1040 2.835 . S
Eu1041 O1060 2.473 . S
Eu1041 O1061 2.480 . S
Eu1041 O1062 2.430 . S
Eu1041 O1063 2.670 . S
Eu1041 O1064 2.394 . S
Eu1041 O1069 2.355 . S
Eu1041 O1071 2.374 . S
C1042 C1040 1.500 . S
C1042 C1043 1.377 . S
C1042 C1047 1.377 . S
C1043 C1042 1.377 . S
C1043 C1044 1.395 . S
C1043 H1072 0.931 . S
C1044 C1043 1.395 . S
C1044 C1045 1.383 . S
C1044 H1073 0.931 . S
C1045 C1044 1.383 . S
C1045 C1046 1.394 . S
C1046 C1045 1.394 . S
C1046 C1047 1.378 . S
C1046 H1074 0.931 . S
C1047 C1042 1.377 . S
C1047 C1046 1.378 . S
C1047 H1075 0.931 . S
C1048 O1062 1.259 . S
C1048 O1063 1.270 . S
C1049 O1064 1.251 . S
C1049 O1065 1.251 . S
C1050 Eu1051 2.835 . S
C1050 C1052 1.500 . S
C1050 O1066 1.257 . S
C1050 O1067 1.260 . S
Eu1051 C1050 2.835 . S
Eu1051 O1063 2.355 . S
Eu1051 O1065 2.374 . S
Eu1051 O1066 2.473 . S
Eu1051 O1067 2.480 . S
Eu1051 O1068 2.430 . S
Eu1051 O1069 2.670 . S
Eu1051 O1070 2.394 . S
C1052 C1050 1.500 . S
C1052 C1053 1.377 . S
C1052 C1057 1.377 . S
C1053 C1052 1.377 . S
C1053 C1054 1.395 . S
C1053 H1076 0.931 . S
C1054 C1053 1.395 . S
C1054 C1055 1.383 . S
C1054 H1077 0.931 . S
C1055 C1054 1.383 . S
C1055 C1056 1.394 . S
C1056 C1055 1.394 . S
C1056 C1057 1.378 . S
C1056 H1078 0.931 . S
C1057 C1052 1.377 . S
C1057 C1056 1.378 . S
C1057 H1079 0.931 . S
C1058 O1068 1.259 . S
C1058 O1069 1.270 . S
C1059 O1070 1.251 . S
C1059 O1071 1.251 . S
O1060 C1040 1.257 . S
O1060 Eu1041 2.473 . S
O1061 C1040 1.260 . S
O1061 Eu1041 2.480 . S
O1062 Eu1041 2.430 . S
O1062 C1048 1.259 . S
O1063 Eu1041 2.670 . S
O1063 C1048 1.270 . S
O1063 Eu1051 2.355 . S
O1064 Eu1041 2.394 . S
O1064 C1049 1.251 . S
O1065 C1049 1.251 . S
O1065 Eu1051 2.374 . S
O1066 C1050 1.257 . S
O1066 Eu1051 2.473 . S
O1067 C1050 1.260 . S
O1067 Eu1051 2.480 . S
O1068 Eu1051 2.430 . S
O1068 C1058 1.259 . S
O1069 Eu1041 2.355 . S
O1069 Eu1051 2.670 . S
O1069 C1058 1.270 . S
O1070 Eu1051 2.394 . S
O1070 C1059 1.251 . S
O1071 Eu1041 2.374 . S
O1071 C1059 1.251 . S
H1072 C1043 0.931 . S
H1073 C1044 0.931 . S
H1074 C1046 0.931 . S
H1075 C1047 0.931 . S
H1076 C1053 0.931 . S
H1077 C1054 0.931 . S
H1078 C1056 0.931 . S
H1079 C1057 0.931 . S
C1080 Eu1081 2.835 . S
C1080 C1082 1.500 . S
C1080 O1100 1.257 . S
C1080 O1101 1.260 . S
Eu1081 C1080 2.835 . S
Eu1081 O1100 2.473 . S
Eu1081 O1101 2.480 . S
Eu1081 O1102 2.430 1_655 S
Eu1081 O1103 2.670 1_655 S
Eu1081 O1104 2.394 1_655 S
Eu1081 O1109 2.355 1_655 S
Eu1081 O1111 2.374 . S
C1082 C1080 1.500 . S
C1082 C1083 1.377 . S
C1082 C1087 1.377 . S
C1083 C1082 1.377 . S
C1083 C1084 1.395 . S
C1083 H1112 0.931 . S
C1084 C1083 1.395 . S
C1084 C1085 1.383 . S
C1084 H1113 0.931 . S
C1085 C1084 1.383 . S
C1085 C1086 1.394 . S
C1086 C1085 1.394 . S
C1086 C1087 1.378 . S
C1086 H1114 0.931 . S
C1087 C1082 1.377 . S
C1087 C1086 1.378 . S
C1087 H1115 0.931 . S
C1088 O1102 1.259 . S
C1088 O1103 1.270 . S
C1089 O1104 1.251 . S
C1089 O1105 1.251 . S
C1090 Eu1091 2.835 . S
C1090 C1092 1.500 . S
C1090 O1106 1.257 . S
C1090 O1107 1.260 . S
Eu1091 C1090 2.835 . S
Eu1091 O1103 2.355 . S
Eu1091 O1105 2.374 . S
Eu1091 O1106 2.473 . S
Eu1091 O1107 2.480 . S
Eu1091 O1108 2.430 . S
Eu1091 O1109 2.670 . S
Eu1091 O1110 2.394 . S
C1092 C1090 1.500 . S
C1092 C1093 1.377 . S
C1092 C1097 1.377 . S
C1093 C1092 1.377 . S
C1093 C1094 1.395 . S
C1093 H1116 0.931 . S
C1094 C1093 1.395 . S
C1094 C1095 1.383 . S
C1094 H1117 0.931 . S
C1095 C1094 1.383 . S
C1095 C1096 1.394 . S
C1096 C1095 1.394 . S
C1096 C1097 1.378 . S
C1096 H1118 0.931 . S
C1097 C1092 1.377 . S
C1097 C1096 1.378 . S
C1097 H1119 0.931 . S
C1098 O1108 1.259 . S
C1098 O1109 1.270 . S
C1099 O1110 1.251 . S
C1099 O1111 1.251 1_455 S
O1100 C1080 1.257 . S
O1100 Eu1081 2.473 . S
O1101 C1080 1.260 . S
O1101 Eu1081 2.480 . S
O1102 Eu1081 2.430 1_455 S
O1102 C1088 1.259 . S
O1103 Eu1081 2.670 1_455 S
O1103 C1088 1.270 . S
O1103 Eu1091 2.355 . S
O1104 Eu1081 2.394 1_455 S
O1104 C1089 1.251 . S
O1105 C1089 1.251 . S
O1105 Eu1091 2.374 . S
O1106 C1090 1.257 . S
O1106 Eu1091 2.473 . S
O1107 C1090 1.260 . S
O1107 Eu1091 2.480 . S
O1108 Eu1091 2.430 . S
O1108 C1098 1.259 . S
O1109 Eu1081 2.355 1_455 S
O1109 Eu1091 2.670 . S
O1109 C1098 1.270 . S
O1110 Eu1091 2.394 . S
O1110 C1099 1.251 . S
O1111 Eu1081 2.374 . S
O1111 C1099 1.251 1_655 S
H1112 C1083 0.931 . S
H1113 C1084 0.931 . S
H1114 C1086 0.931 . S
H1115 C1087 0.931 . S
H1116 C1093 0.931 . S
H1117 C1094 0.931 . S
H1118 C1096 0.931 . S
H1119 C1097 0.931 . S
C1120 Eu1121 2.835 . S
C1120 C1122 1.500 . S
C1120 O1140 1.257 . S
C1120 O1141 1.260 . S
Eu1121 C1120 2.835 . S
Eu1121 O1140 2.473 . S
Eu1121 O1141 2.480 . S
Eu1121 O1142 2.430 . S
Eu1121 O1143 2.670 . S
Eu1121 O1144 2.394 . S
Eu1121 O1149 2.355 . S
Eu1121 O1151 2.374 . S
C1122 C1120 1.500 . S
C1122 C1123 1.377 . S
C1122 C1127 1.377 . S
C1123 C1122 1.377 . S
C1123 C1124 1.395 . S
C1123 H1152 0.931 . S
C1124 C1123 1.395 . S
C1124 C1125 1.383 . S
C1124 H1153 0.931 . S
C1125 C1124 1.383 . S
C1125 C1126 1.394 . S
C1126 C1125 1.394 . S
C1126 C1127 1.378 . S
C1126 H1154 0.931 . S
C1127 C1122 1.377 . S
C1127 C1126 1.378 . S
C1127 H1155 0.931 . S
C1128 O1142 1.259 . S
C1128 O1143 1.270 . S
C1129 O1144 1.251 . S
C1129 O1145 1.251 . S
C1130 Eu1131 2.835 . S
C1130 C1132 1.500 . S
C1130 O1146 1.257 . S
C1130 O1147 1.260 . S
Eu1131 C1130 2.835 . S
Eu1131 O1143 2.355 . S
Eu1131 O1145 2.374 . S
Eu1131 O1146 2.473 . S
Eu1131 O1147 2.480 . S
Eu1131 O1148 2.430 . S
Eu1131 O1149 2.670 . S
Eu1131 O1150 2.394 . S
C1132 C1130 1.500 . S
C1132 C1133 1.377 . S
C1132 C1137 1.377 . S
C1133 C1132 1.377 . S
C1133 C1134 1.395 . S
C1133 H1156 0.931 . S
C1134 C1133 1.395 . S
C1134 C1135 1.383 . S
C1134 H1157 0.931 . S
C1135 C1134 1.383 . S
C1135 C1136 1.394 . S
C1136 C1135 1.394 . S
C1136 C1137 1.378 . S
C1136 H1158 0.931 . S
C1137 C1132 1.377 . S
C1137 C1136 1.378 . S
C1137 H1159 0.931 . S
C1138 O1148 1.259 . S
C1138 O1149 1.270 . S
C1139 O1150 1.251 . S
C1139 O1151 1.251 . S
O1140 C1120 1.257 . S
O1140 Eu1121 2.473 . S
O1141 C1120 1.260 . S
O1141 Eu1121 2.480 . S
O1142 Eu1121 2.430 . S
O1142 C1128 1.259 . S
O1143 Eu1121 2.670 . S
O1143 C1128 1.270 . S
O1143 Eu1131 2.355 . S
O1144 Eu1121 2.394 . S
O1144 C1129 1.251 . S
O1145 C1129 1.251 . S
O1145 Eu1131 2.374 . S
O1146 C1130 1.257 . S
O1146 Eu1131 2.473 . S
O1147 C1130 1.260 . S
O1147 Eu1131 2.480 . S
O1148 Eu1131 2.430 . S
O1148 C1138 1.259 . S
O1149 Eu1121 2.355 . S
O1149 Eu1131 2.670 . S
O1149 C1138 1.270 . S
O1150 Eu1131 2.394 . S
O1150 C1139 1.251 . S
O1151 Eu1121 2.374 . S
O1151 C1139 1.251 . S
H1152 C1123 0.931 . S
H1153 C1124 0.931 . S
H1154 C1126 0.931 . S
H1155 C1127 0.931 . S
H1156 C1133 0.931 . S
H1157 C1134 0.931 . S
H1158 C1136 0.931 . S
H1159 C1137 0.931 . S
C1160 Eu1161 2.835 . S
C1160 C1162 1.500 . S
C1160 O1180 1.257 . S
C1160 O1181 1.260 . S
Eu1161 C1160 2.835 . S
Eu1161 O1180 2.473 . S
Eu1161 O1181 2.480 . S
Eu1161 O1182 2.430 1_655 S
Eu1161 O1183 2.670 1_655 S
Eu1161 O1184 2.394 1_655 S
Eu1161 O1189 2.355 1_655 S
Eu1161 O1191 2.374 . S
C1162 C1160 1.500 . S
C1162 C1163 1.377 . S
C1162 C1167 1.377 . S
C1163 C1162 1.377 . S
C1163 C1164 1.395 . S
C1163 H1192 0.931 . S
C1164 C1163 1.395 . S
C1164 C1165 1.383 . S
C1164 H1193 0.931 . S
C1165 C1164 1.383 . S
C1165 C1166 1.394 . S
C1166 C1165 1.394 . S
C1166 C1167 1.378 . S
C1166 H1194 0.931 . S
C1167 C1162 1.377 . S
C1167 C1166 1.378 . S
C1167 H1195 0.931 . S
C1168 O1182 1.259 . S
C1168 O1183 1.270 . S
C1169 O1184 1.251 . S
C1169 O1185 1.251 . S
C1170 Eu1171 2.835 . S
C1170 C1172 1.500 . S
C1170 O1186 1.257 . S
C1170 O1187 1.260 . S
Eu1171 C1170 2.835 . S
Eu1171 O1183 2.355 . S
Eu1171 O1185 2.374 . S
Eu1171 O1186 2.473 . S
Eu1171 O1187 2.480 . S
Eu1171 O1188 2.430 . S
Eu1171 O1189 2.670 . S
Eu1171 O1190 2.394 . S
C1172 C1170 1.500 . S
C1172 C1173 1.377 . S
C1172 C1177 1.377 . S
C1173 C1172 1.377 . S
C1173 C1174 1.395 . S
C1173 H1196 0.931 . S
C1174 C1173 1.395 . S
C1174 C1175 1.383 . S
C1174 H1197 0.931 . S
C1175 C1174 1.383 . S
C1175 C1176 1.394 . S
C1176 C1175 1.394 . S
C1176 C1177 1.378 . S
C1176 H1198 0.931 . S
C1177 C1172 1.377 . S
C1177 C1176 1.378 . S
C1177 H1199 0.931 . S
C1178 O1188 1.259 . S
C1178 O1189 1.270 . S
C1179 O1190 1.251 . S
C1179 O1191 1.251 1_455 S
O1180 C1160 1.257 . S
O1180 Eu1161 2.473 . S
O1181 C1160 1.260 . S
O1181 Eu1161 2.480 . S
O1182 Eu1161 2.430 1_455 S
O1182 C1168 1.259 . S
O1183 Eu1161 2.670 1_455 S
O1183 C1168 1.270 . S
O1183 Eu1171 2.355 . S
O1184 Eu1161 2.394 1_455 S
O1184 C1169 1.251 . S
O1185 C1169 1.251 . S
O1185 Eu1171 2.374 . S
O1186 C1170 1.257 . S
O1186 Eu1171 2.473 . S
O1187 C1170 1.260 . S
O1187 Eu1171 2.480 . S
O1188 Eu1171 2.430 . S
O1188 C1178 1.259 . S
O1189 Eu1161 2.355 1_455 S
O1189 Eu1171 2.670 . S
O1189 C1178 1.270 . S
O1190 Eu1171 2.394 . S
O1190 C1179 1.251 . S
O1191 Eu1161 2.374 . S
O1191 C1179 1.251 1_655 S
H1192 C1163 0.931 . S
H1193 C1164 0.931 . S
H1194 C1166 0.931 . S
H1195 C1167 0.931 . S
H1196 C1173 0.931 . S
H1197 C1174 0.931 . S
H1198 C1176 0.931 . S
H1199 C1177 0.931 . S
C1200 Eu1201 2.835 . S
C1200 C1202 1.500 . S
C1200 O1220 1.257 . S
C1200 O1221 1.260 . S
Eu1201 C1200 2.835 . S
Eu1201 O1220 2.473 . S
Eu1201 O1221 2.480 . S
Eu1201 O1222 2.430 . S
Eu1201 O1223 2.670 . S
Eu1201 O1224 2.394 . S
Eu1201 O1229 2.355 . S
Eu1201 O1231 2.374 . S
C1202 C1200 1.500 . S
C1202 C1203 1.377 . S
C1202 C1207 1.377 . S
C1203 C1202 1.377 . S
C1203 C1204 1.395 . S
C1203 H1232 0.931 . S
C1204 C1203 1.395 . S
C1204 C1205 1.383 . S
C1204 H1233 0.931 . S
C1205 C1204 1.383 . S
C1205 C1206 1.394 . S
C1206 C1205 1.394 . S
C1206 C1207 1.378 . S
C1206 H1234 0.931 . S
C1207 C1202 1.377 . S
C1207 C1206 1.378 . S
C1207 H1235 0.931 . S
C1208 O1222 1.259 . S
C1208 O1223 1.270 . S
C1209 O1224 1.251 . S
C1209 O1225 1.251 . S
C1210 Eu1211 2.835 . S
C1210 C1212 1.500 . S
C1210 O1226 1.257 . S
C1210 O1227 1.260 . S
Eu1211 C1210 2.835 . S
Eu1211 O1223 2.355 . S
Eu1211 O1225 2.374 . S
Eu1211 O1226 2.473 . S
Eu1211 O1227 2.480 . S
Eu1211 O1228 2.430 . S
Eu1211 O1229 2.670 . S
Eu1211 O1230 2.394 . S
C1212 C1210 1.500 . S
C1212 C1213 1.377 . S
C1212 C1217 1.377 . S
C1213 C1212 1.377 . S
C1213 C1214 1.395 . S
C1213 H1236 0.931 . S
C1214 C1213 1.395 . S
C1214 C1215 1.383 . S
C1214 H1237 0.931 . S
C1215 C1214 1.383 . S
C1215 C1216 1.394 . S
C1216 C1215 1.394 . S
C1216 C1217 1.378 . S
C1216 H1238 0.931 . S
C1217 C1212 1.377 . S
C1217 C1216 1.378 . S
C1217 H1239 0.931 . S
C1218 O1228 1.259 . S
C1218 O1229 1.270 . S
C1219 O1230 1.251 . S
C1219 O1231 1.251 . S
O1220 C1200 1.257 . S
O1220 Eu1201 2.473 . S
O1221 C1200 1.260 . S
O1221 Eu1201 2.480 . S
O1222 Eu1201 2.430 . S
O1222 C1208 1.259 . S
O1223 Eu1201 2.670 . S
O1223 C1208 1.270 . S
O1223 Eu1211 2.355 . S
O1224 Eu1201 2.394 . S
O1224 C1209 1.251 . S
O1225 C1209 1.251 . S
O1225 Eu1211 2.374 . S
O1226 C1210 1.257 . S
O1226 Eu1211 2.473 . S
O1227 C1210 1.260 . S
O1227 Eu1211 2.480 . S
O1228 Eu1211 2.430 . S
O1228 C1218 1.259 . S
O1229 Eu1201 2.355 . S
O1229 Eu1211 2.670 . S
O1229 C1218 1.270 . S
O1230 Eu1211 2.394 . S
O1230 C1219 1.251 . S
O1231 Eu1201 2.374 . S
O1231 C1219 1.251 . S
H1232 C1203 0.931 . S
H1233 C1204 0.931 . S
H1234 C1206 0.931 . S
H1235 C1207 0.931 . S
H1236 C1213 0.931 . S
H1237 C1214 0.931 . S
H1238 C1216 0.931 . S
H1239 C1217 0.931 . S
C1240 Eu1241 2.835 . S
C1240 C1242 1.500 . S
C1240 O1260 1.257 . S
C1240 O1261 1.260 . S
Eu1241 C1240 2.835 . S
Eu1241 O1260 2.473 . S
Eu1241 O1261 2.480 . S
Eu1241 O1262 2.430 . S
Eu1241 O1263 2.670 . S
Eu1241 O1264 2.394 . S
Eu1241 O1269 2.355 . S
Eu1241 O1271 2.374 . S
C1242 C1240 1.500 . S
C1242 C1243 1.377 . S
C1242 C1247 1.377 . S
C1243 C1242 1.377 . S
C1243 C1244 1.395 . S
C1243 H1272 0.931 . S
C1244 C1243 1.395 . S
C1244 C1245 1.383 . S
C1244 H1273 0.931 . S
C1245 C1244 1.383 . S
C1245 C1246 1.394 . S
C1246 C1245 1.394 . S
C1246 C1247 1.378 . S
C1246 H1274 0.931 . S
C1247 C1242 1.377 . S
C1247 C1246 1.378 . S
C1247 H1275 0.931 . S
C1248 O1262 1.259 . S
C1248 O1263 1.270 . S
C1249 O1264 1.251 . S
C1249 O1265 1.251 . S
C1250 Eu1251 2.835 . S
C1250 C1252 1.500 . S
C1250 O1266 1.257 . S
C1250 O1267 1.260 . S
Eu1251 C1250 2.835 . S
Eu1251 O1263 2.355 . S
Eu1251 O1265 2.374 . S
Eu1251 O1266 2.473 . S
Eu1251 O1267 2.480 . S
Eu1251 O1268 2.430 . S
Eu1251 O1269 2.670 . S
Eu1251 O1270 2.394 . S
C1252 C1250 1.500 . S
C1252 C1253 1.377 . S
C1252 C1257 1.377 . S
C1253 C1252 1.377 . S
C1253 C1254 1.395 . S
C1253 H1276 0.931 . S
C1254 C1253 1.395 . S
C1254 C1255 1.383 . S
C1254 H1277 0.931 . S
C1255 C1254 1.383 . S
C1255 C1256 1.394 . S
C1256 C1255 1.394 . S
C1256 C1257 1.378 . S
C1256 H1278 0.931 . S
C1257 C1252 1.377 . S
C1257 C1256 1.378 . S
C1257 H1279 0.931 . S
C1258 O1268 1.259 . S
C1258 O1269 1.270 . S
C1259 O1270 1.251 . S
C1259 O1271 1.251 . S
O1260 C1240 1.257 . S
O1260 Eu1241 2.473 . S
O1261 C1240 1.260 . S
O1261 Eu1241 2.480 . S
O1262 Eu1241 2.430 . S
O1262 C1248 1.259 . S
O1263 Eu1241 2.670 . S
O1263 C1248 1.270 . S
O1263 Eu1251 2.355 . S
O1264 Eu1241 2.394 . S
O1264 C1249 1.251 . S
O1265 C1249 1.251 . S
O1265 Eu1251 2.374 . S
O1266 C1250 1.257 . S
O1266 Eu1251 2.473 . S
O1267 C1250 1.260 . S
O1267 Eu1251 2.480 . S
O1268 Eu1251 2.430 . S
O1268 C1258 1.259 . S
O1269 Eu1241 2.355 . S
O1269 Eu1251 2.670 . S
O1269 C1258 1.270 . S
O1270 Eu1251 2.394 . S
O1270 C1259 1.251 . S
O1271 Eu1241 2.374 . S
O1271 C1259 1.251 . S
H1272 C1243 0.931 . S
H1273 C1244 0.931 . S
H1274 C1246 0.931 . S
H1275 C1247 0.931 . S
H1276 C1253 0.931 . S
H1277 C1254 0.931 . S
H1278 C1256 0.931 . S
H1279 C1257 0.931 . S
H1280 C1286 0.930 . S
H1281 C1289 0.930 . S
H1282 C1290 0.930 . S
H1283 C1291 0.930 . S
H1284 C1294 0.930 . S
H1285 C1295 0.930 . S
C1286 H1280 0.930 . S
C1286 C1287 1.355 . S
C1286 C1288 1.415 . S
C1287 C1286 1.355 . S
C1287 C1289 1.419 . S
C1288 C1286 1.415 . S
C1288 C1293 1.425 . S
C1288 C1295 1.409 . S
C1289 H1281 0.930 . S
C1289 C1287 1.419 . S
C1289 C1290 1.362 . S
C1290 H1282 0.930 . S
C1290 C1289 1.362 . S
C1290 C1293 1.409 . S
C1291 H1283 0.930 . S
C1291 C1292 1.355 . S
C1291 C1293 1.415 . S
C1292 C1291 1.355 . S
C1292 C1294 1.419 . S
C1293 C1288 1.425 . S
C1293 C1290 1.409 . S
C1293 C1291 1.415 . S
C1294 H1284 0.930 . S
C1294 C1292 1.419 . S
C1294 C1295 1.362 . S
C1295 H1285 0.930 . S
C1295 C1288 1.409 . S
C1295 C1294 1.362 . S
H1296 C1302 0.930 . S
H1297 C1305 0.930 . S
H1298 C1306 0.930 . S
H1299 C1307 0.930 . S
H1300 C1310 0.930 . S
H1301 C1311 0.930 . S
C1302 H1296 0.930 . S
C1302 C1303 1.355 . S
C1302 C1304 1.415 . S
C1303 C1302 1.355 . S
C1303 C1305 1.419 . S
C1304 C1302 1.415 . S
C1304 C1309 1.425 . S
C1304 C1311 1.409 . S
C1305 H1297 0.930 . S
C1305 C1303 1.419 . S
C1305 C1306 1.362 . S
C1306 H1298 0.930 . S
C1306 C1305 1.362 . S
C1306 C1309 1.409 . S
C1307 H1299 0.930 . S
C1307 C1308 1.355 . S
C1307 C1309 1.415 . S
C1308 C1307 1.355 . S
C1308 C1310 1.419 . S
C1309 C1304 1.425 . S
C1309 C1306 1.409 . S
C1309 C1307 1.415 . S
C1310 H1300 0.930 . S
C1310 C1308 1.419 . S
C1310 C1311 1.362 . S
C1311 H1301 0.930 . S
C1311 C1304 1.409 . S
C1311 C1310 1.362 . S
H1312 C1318 0.930 . S
H1313 C1321 0.930 . S
H1314 C1322 0.930 . S
H1315 C1323 0.930 . S
H1316 C1326 0.930 . S
H1317 C1327 0.930 . S
C1318 H1312 0.930 . S
C1318 C1319 1.355 . S
C1318 C1320 1.415 . S
C1319 C1318 1.355 . S
C1319 C1321 1.419 . S
C1320 C1318 1.415 . S
C1320 C1325 1.425 . S
C1320 C1327 1.409 . S
C1321 H1313 0.930 . S
C1321 C1319 1.419 . S
C1321 C1322 1.362 . S
C1322 H1314 0.930 . S
C1322 C1321 1.362 . S
C1322 C1325 1.409 . S
C1323 H1315 0.930 . S
C1323 C1324 1.355 . S
C1323 C1325 1.415 . S
C1324 C1323 1.355 . S
C1324 C1326 1.419 . S
C1325 C1320 1.425 . S
C1325 C1322 1.409 . S
C1325 C1323 1.415 . S
C1326 H1316 0.930 . S
C1326 C1324 1.419 . S
C1326 C1327 1.362 . S
C1327 H1317 0.930 . S
C1327 C1320 1.409 . S
C1327 C1326 1.362 . S
H1328 C1334 0.930 . S
H1329 C1337 0.930 . S
H1330 C1338 0.930 . S
H1331 C1339 0.930 . S
H1332 C1342 0.930 . S
H1333 C1343 0.930 . S
C1334 H1328 0.930 . S
C1334 C1335 1.355 . S
C1334 C1336 1.415 . S
C1335 C1334 1.355 . S
C1335 C1337 1.419 . S
C1336 C1334 1.415 . S
C1336 C1341 1.425 . S
C1336 C1343 1.409 . S
C1337 H1329 0.930 . S
C1337 C1335 1.419 . S
C1337 C1338 1.362 . S
C1338 H1330 0.930 . S
C1338 C1337 1.362 . S
C1338 C1341 1.409 . S
C1339 H1331 0.930 . S
C1339 C1340 1.355 . S
C1339 C1341 1.415 . S
C1340 C1339 1.355 . S
C1340 C1342 1.419 . S
C1341 C1336 1.425 . S
C1341 C1338 1.409 . S
C1341 C1339 1.415 . S
C1342 H1332 0.930 . S
C1342 C1340 1.419 . S
C1342 C1343 1.362 . S
C1343 H1333 0.930 . S
C1343 C1336 1.409 . S
C1343 C1342 1.362 . S
H1344 C1350 0.930 . S
H1345 C1353 0.930 . S
H1346 C1354 0.930 . S
H1347 C1355 0.930 . S
H1348 C1358 0.930 . S
H1349 C1359 0.930 . S
C1350 H1344 0.930 . S
C1350 C1351 1.355 . S
C1350 C1352 1.415 . S
C1351 C1350 1.355 . S
C1351 C1353 1.419 . S
C1352 C1350 1.415 . S
C1352 C1357 1.425 . S
C1352 C1359 1.409 . S
C1353 H1345 0.930 . S
C1353 C1351 1.419 . S
C1353 C1354 1.362 . S
C1354 H1346 0.930 . S
C1354 C1353 1.362 . S
C1354 C1357 1.409 . S
C1355 H1347 0.930 . S
C1355 C1356 1.355 . S
C1355 C1357 1.415 . S
C1356 C1355 1.355 . S
C1356 C1358 1.419 . S
C1357 C1352 1.425 . S
C1357 C1354 1.409 . S
C1357 C1355 1.415 . S
C1358 H1348 0.930 . S
C1358 C1356 1.419 . S
C1358 C1359 1.362 . S
C1359 H1349 0.930 . S
C1359 C1352 1.409 . S
C1359 C1358 1.362 . S
H1360 C1366 0.930 . S
H1361 C1369 0.930 . S
H1362 C1370 0.930 . S
H1363 C1371 0.930 . S
H1364 C1374 0.930 . S
H1365 C1375 0.930 . S
C1366 H1360 0.930 . S
C1366 C1367 1.355 . S
C1366 C1368 1.415 . S
C1367 C1366 1.355 . S
C1367 C1369 1.419 . S
C1368 C1366 1.415 . S
C1368 C1373 1.425 . S
C1368 C1375 1.409 . S
C1369 H1361 0.930 . S
C1369 C1367 1.419 . S
C1369 C1370 1.362 . S
C1370 H1362 0.930 . S
C1370 C1369 1.362 . S
C1370 C1373 1.409 . S
C1371 H1363 0.930 . S
C1371 C1372 1.355 . S
C1371 C1373 1.415 . S
C1372 C1371 1.355 . S
C1372 C1374 1.419 . S
C1373 C1368 1.425 . S
C1373 C1370 1.409 . S
C1373 C1371 1.415 . S
C1374 H1364 0.930 . S
C1374 C1372 1.419 . S
C1374 C1375 1.362 . S
C1375 H1365 0.930 . S
C1375 C1368 1.409 . S
C1375 C1374 1.362 . S
H1376 C1382 0.930 . S
H1377 C1385 0.930 . S
H1378 C1386 0.930 . S
H1379 C1387 0.930 . S
H1380 C1390 0.930 . S
H1381 C1391 0.930 . S
C1382 H1376 0.930 . S
C1382 C1383 1.355 . S
C1382 C1384 1.415 . S
C1383 C1382 1.355 . S
C1383 C1385 1.419 . S
C1384 C1382 1.415 . S
C1384 C1389 1.425 . S
C1384 C1391 1.409 . S
C1385 H1377 0.930 . S
C1385 C1383 1.419 . S
C1385 C1386 1.362 . S
C1386 H1378 0.930 . S
C1386 C1385 1.362 . S
C1386 C1389 1.409 . S
C1387 H1379 0.930 . S
C1387 C1388 1.355 . S
C1387 C1389 1.415 . S
C1388 C1387 1.355 . S
C1388 C1390 1.419 . S
C1389 C1384 1.425 . S
C1389 C1386 1.409 . S
C1389 C1387 1.415 . S
C1390 H1380 0.930 . S
C1390 C1388 1.419 . S
C1390 C1391 1.362 . S
C1391 H1381 0.930 . S
C1391 C1384 1.409 . S
C1391 C1390 1.362 . S
H1392 C1398 0.930 . S
H1393 C1401 0.930 . S
H1394 C1402 0.930 . S
H1395 C1403 0.930 . S
H1396 C1406 0.930 . S
H1397 C1407 0.930 . S
C1398 H1392 0.930 . S
C1398 C1399 1.355 . S
C1398 C1400 1.415 . S
C1399 C1398 1.355 . S
C1399 C1401 1.419 . S
C1400 C1398 1.415 . S
C1400 C1405 1.425 . S
C1400 C1407 1.409 . S
C1401 H1393 0.930 . S
C1401 C1399 1.419 . S
C1401 C1402 1.362 . S
C1402 H1394 0.930 . S
C1402 C1401 1.362 . S
C1402 C1405 1.409 . S
C1403 H1395 0.930 . S
C1403 C1404 1.355 . S
C1403 C1405 1.415 . S
C1404 C1403 1.355 . S
C1404 C1406 1.419 . S
C1405 C1400 1.425 . S
C1405 C1402 1.409 . S
C1405 C1403 1.415 . S
C1406 H1396 0.930 . S
C1406 C1404 1.419 . S
C1406 C1407 1.362 . S
C1407 H1397 0.930 . S
C1407 C1400 1.409 . S
C1407 C1406 1.362 . S
H1408 C1414 0.930 . S
H1409 C1417 0.930 . S
H1410 C1418 0.930 . S
H1411 C1419 0.930 . S
H1412 C1422 0.930 . S
H1413 C1423 0.930 . S
C1414 H1408 0.930 . S
C1414 C1415 1.355 . S
C1414 C1416 1.415 . S
C1415 C1414 1.355 . S
C1415 C1417 1.419 . S
C1416 C1414 1.415 . S
C1416 C1421 1.425 . S
C1416 C1423 1.409 . S
C1417 H1409 0.930 . S
C1417 C1415 1.419 . S
C1417 C1418 1.362 . S
C1418 H1410 0.930 . S
C1418 C1417 1.362 . S
C1418 C1421 1.409 . S
C1419 H1411 0.930 . S
C1419 C1420 1.355 . S
C1419 C1421 1.415 . S
C1420 C1419 1.355 . S
C1420 C1422 1.419 . S
C1421 C1416 1.425 . S
C1421 C1418 1.409 . S
C1421 C1419 1.415 . S
C1422 H1412 0.930 . S
C1422 C1420 1.419 . S
C1422 C1423 1.362 . S
C1423 H1413 0.930 . S
C1423 C1416 1.409 . S
C1423 C1422 1.362 . S
H1424 C1430 0.930 . S
H1425 C1433 0.930 . S
H1426 C1434 0.930 . S
H1427 C1435 0.930 . S
H1428 C1438 0.930 . S
H1429 C1439 0.930 . S
C1430 H1424 0.930 . S
C1430 C1431 1.355 . S
C1430 C1432 1.415 . S
C1431 C1430 1.355 . S
C1431 C1433 1.419 . S
C1432 C1430 1.415 . S
C1432 C1437 1.425 . S
C1432 C1439 1.409 . S
C1433 H1425 0.930 . S
C1433 C1431 1.419 . S
C1433 C1434 1.362 . S
C1434 H1426 0.930 . S
C1434 C1433 1.362 . S
C1434 C1437 1.409 . S
C1435 H1427 0.930 . S
C1435 C1436 1.355 . S
C1435 C1437 1.415 . S
C1436 C1435 1.355 . S
C1436 C1438 1.419 . S
C1437 C1432 1.425 . S
C1437 C1434 1.409 . S
C1437 C1435 1.415 . S
C1438 H1428 0.930 . S
C1438 C1436 1.419 . S
C1438 C1439 1.362 . S
C1439 H1429 0.930 . S
C1439 C1432 1.409 . S
C1439 C1438 1.362 . S
H1440 C1446 0.930 . S
H1441 C1449 0.930 . S
H1442 C1450 0.930 . S
H1443 C1451 0.930 . S
H1444 C1454 0.930 . S
H1445 C1455 0.930 . S
C1446 H1440 0.930 . S
C1446 C1447 1.355 . S
C1446 C1448 1.415 . S
C1447 C1446 1.355 . S
C1447 C1449 1.419 . S
C1448 C1446 1.415 . S
C1448 C1453 1.425 . S
C1448 C1455 1.409 . S
C1449 H1441 0.930 . S
C1449 C1447 1.419 . S
C1449 C1450 1.362 . S
C1450 H1442 0.930 . S
C1450 C1449 1.362 . S
C1450 C1453 1.409 . S
C1451 H1443 0.930 . S
C1451 C1452 1.355 . S
C1451 C1453 1.415 . S
C1452 C1451 1.355 . S
C1452 C1454 1.419 . S
C1453 C1448 1.425 . S
C1453 C1450 1.409 . S
C1453 C1451 1.415 . S
C1454 H1444 0.930 . S
C1454 C1452 1.419 . S
C1454 C1455 1.362 . S
C1455 H1445 0.930 . S
C1455 C1448 1.409 . S
C1455 C1454 1.362 . S
H1456 C1462 0.930 . S
H1457 C1465 0.930 . S
H1458 C1466 0.930 . S
H1459 C1467 0.930 . S
H1460 C1470 0.930 . S
H1461 C1471 0.930 . S
C1462 H1456 0.930 . S
C1462 C1463 1.355 . S
C1462 C1464 1.415 . S
C1463 C1462 1.355 . S
C1463 C1465 1.419 . S
C1464 C1462 1.415 . S
C1464 C1469 1.425 . S
C1464 C1471 1.409 . S
C1465 H1457 0.930 . S
C1465 C1463 1.419 . S
C1465 C1466 1.362 . S
C1466 H1458 0.930 . S
C1466 C1465 1.362 . S
C1466 C1469 1.409 . S
C1467 H1459 0.930 . S
C1467 C1468 1.355 . S
C1467 C1469 1.415 . S
C1468 C1467 1.355 . S
C1468 C1470 1.419 . S
C1469 C1464 1.425 . S
C1469 C1466 1.409 . S
C1469 C1467 1.415 . S
C1470 H1460 0.930 . S
C1470 C1468 1.419 . S
C1470 C1471 1.362 . S
C1471 H1461 0.930 . S
C1471 C1464 1.409 . S
C1471 C1470 1.362 . S
H1472 C1478 0.930 . S
H1473 C1481 0.930 . S
H1474 C1482 0.930 . S
H1475 C1483 0.930 . S
H1476 C1486 0.930 . S
H1477 C1487 0.930 . S
C1478 H1472 0.930 . S
C1478 C1479 1.355 . S
C1478 C1480 1.415 . S
C1479 C1478 1.355 . S
C1479 C1481 1.419 . S
C1480 C1478 1.415 . S
C1480 C1485 1.425 . S
C1480 C1487 1.409 . S
C1481 H1473 0.930 . S
C1481 C1479 1.419 . S
C1481 C1482 1.362 . S
C1482 H1474 0.930 . S
C1482 C1481 1.362 . S
C1482 C1485 1.409 . S
C1483 H1475 0.930 . S
C1483 C1484 1.355 . S
C1483 C1485 1.415 . S
C1484 C1483 1.355 . S
C1484 C1486 1.419 . S
C1485 C1480 1.425 . S
C1485 C1482 1.409 . S
C1485 C1483 1.415 . S
C1486 H1476 0.930 . S
C1486 C1484 1.419 . S
C1486 C1487 1.362 . S
C1487 H1477 0.930 . S
C1487 C1480 1.409 . S
C1487 C1486 1.362 . S
H1488 C1494 0.930 . S
H1489 C1497 0.930 . S
H1490 C1498 0.930 . S
H1491 C1499 0.930 . S
H1492 C1502 0.930 . S
H1493 C1503 0.930 . S
C1494 H1488 0.930 . S
C1494 C1495 1.355 . S
C1494 C1496 1.415 . S
C1495 C1494 1.355 . S
C1495 C1497 1.419 . S
C1496 C1494 1.415 . S
C1496 C1501 1.425 . S
C1496 C1503 1.409 . S
C1497 H1489 0.930 . S
C1497 C1495 1.419 . S
C1497 C1498 1.362 . S
C1498 H1490 0.930 . S
C1498 C1497 1.362 . S
C1498 C1501 1.409 . S
C1499 H1491 0.930 . S
C1499 C1500 1.355 . S
C1499 C1501 1.415 . S
C1500 C1499 1.355 . S
C1500 C1502 1.419 . S
C1501 C1496 1.425 . S
C1501 C1498 1.409 . S
C1501 C1499 1.415 . S
C1502 H1492 0.930 . S
C1502 C1500 1.419 . S
C1502 C1503 1.362 . S
C1503 H1493 0.930 . S
C1503 C1496 1.409 . S
C1503 C1502 1.362 . S
H1504 C1510 0.930 . S
H1505 C1513 0.930 . S
H1506 C1514 0.930 . S
H1507 C1515 0.930 . S
H1508 C1518 0.930 . S
H1509 C1519 0.930 . S
C1510 H1504 0.930 . S
C1510 C1511 1.355 . S
C1510 C1512 1.415 . S
C1511 C1510 1.355 . S
C1511 C1513 1.419 . S
C1512 C1510 1.415 . S
C1512 C1517 1.425 . S
C1512 C1519 1.409 . S
C1513 H1505 0.930 . S
C1513 C1511 1.419 . S
C1513 C1514 1.362 . S
C1514 H1506 0.930 . S
C1514 C1513 1.362 . S
C1514 C1517 1.409 . S
C1515 H1507 0.930 . S
C1515 C1516 1.355 . S
C1515 C1517 1.415 . S
C1516 C1515 1.355 . S
C1516 C1518 1.419 . S
C1517 C1512 1.425 . S
C1517 C1514 1.409 . S
C1517 C1515 1.415 . S
C1518 H1508 0.930 . S
C1518 C1516 1.419 . S
C1518 C1519 1.362 . S
C1519 H1509 0.930 . S
C1519 C1512 1.409 . S
C1519 C1518 1.362 . S
H1520 C1526 0.930 . S
H1521 C1529 0.930 . S
H1522 C1530 0.930 . S
H1523 C1531 0.930 . S
H1524 C1534 0.930 . S
H1525 C1535 0.930 . S
C1526 H1520 0.930 . S
C1526 C1527 1.355 . S
C1526 C1528 1.415 . S
C1527 C1526 1.355 . S
C1527 C1529 1.419 . S
C1528 C1526 1.415 . S
C1528 C1533 1.425 . S
C1528 C1535 1.409 . S
C1529 H1521 0.930 . S
C1529 C1527 1.419 . S
C1529 C1530 1.362 . S
C1530 H1522 0.930 . S
C1530 C1529 1.362 . S
C1530 C1533 1.409 . S
C1531 H1523 0.930 . S
C1531 C1532 1.355 . S
C1531 C1533 1.415 . S
C1532 C1531 1.355 . S
C1532 C1534 1.419 . S
C1533 C1528 1.425 . S
C1533 C1530 1.409 . S
C1533 C1531 1.415 . S
C1534 H1524 0.930 . S
C1534 C1532 1.419 . S
C1534 C1535 1.362 . S
C1535 H1525 0.930 . S
C1535 C1528 1.409 . S
C1535 C1534 1.362 . S
H1536 C1542 0.930 . S
H1537 C1545 0.930 . S
H1538 C1546 0.930 . S
H1539 C1547 0.930 . S
H1540 C1550 0.930 . S
H1541 C1551 0.930 . S
C1542 H1536 0.930 . S
C1542 C1543 1.355 . S
C1542 C1544 1.415 . S
C1543 C1542 1.355 . S
C1543 C1545 1.419 . S
C1544 C1542 1.415 . S
C1544 C1549 1.425 . S
C1544 C1551 1.409 . S
C1545 H1537 0.930 . S
C1545 C1543 1.419 . S
C1545 C1546 1.362 . S
C1546 H1538 0.930 . S
C1546 C1545 1.362 . S
C1546 C1549 1.409 . S
C1547 H1539 0.930 . S
C1547 C1548 1.355 . S
C1547 C1549 1.415 . S
C1548 C1547 1.355 . S
C1548 C1550 1.419 . S
C1549 C1544 1.425 . S
C1549 C1546 1.409 . S
C1549 C1547 1.415 . S
C1550 H1540 0.930 . S
C1550 C1548 1.419 . S
C1550 C1551 1.362 . S
C1551 H1541 0.930 . S
C1551 C1544 1.409 . S
C1551 C1550 1.362 . S
H1552 C1558 0.930 . S
H1553 C1561 0.930 . S
H1554 C1562 0.930 . S
H1555 C1563 0.930 . S
H1556 C1566 0.930 . S
H1557 C1567 0.930 . S
C1558 H1552 0.930 . S
C1558 C1559 1.355 . S
C1558 C1560 1.415 . S
C1559 C1558 1.355 . S
C1559 C1561 1.419 . S
C1560 C1558 1.415 . S
C1560 C1565 1.425 . S
C1560 C1567 1.409 . S
C1561 H1553 0.930 . S
C1561 C1559 1.419 . S
C1561 C1562 1.362 . S
C1562 H1554 0.930 . S
C1562 C1561 1.362 . S
C1562 C1565 1.409 . S
C1563 H1555 0.930 . S
C1563 C1564 1.355 . S
C1563 C1565 1.415 . S
C1564 C1563 1.355 . S
C1564 C1566 1.419 . S
C1565 C1560 1.425 . S
C1565 C1562 1.409 . S
C1565 C1563 1.415 . S
C1566 H1556 0.930 . S
C1566 C1564 1.419 . S
C1566 C1567 1.362 . S
C1567 H1557 0.930 . S
C1567 C1560 1.409 . S
C1567 C1566 1.362 . S
H1568 C1574 0.930 . S
H1569 C1577 0.930 . S
H1570 C1578 0.930 . S
H1571 C1579 0.930 . S
H1572 C1582 0.930 . S
H1573 C1583 0.930 . S
C1574 H1568 0.930 . S
C1574 C1575 1.355 . S
C1574 C1576 1.415 . S
C1575 C1574 1.355 . S
C1575 C1577 1.419 . S
C1576 C1574 1.415 . S
C1576 C1581 1.425 . S
C1576 C1583 1.409 . S
C1577 H1569 0.930 . S
C1577 C1575 1.419 . S
C1577 C1578 1.362 . S
C1578 H1570 0.930 . S
C1578 C1577 1.362 . S
C1578 C1581 1.409 . S
C1579 H1571 0.930 . S
C1579 C1580 1.355 . S
C1579 C1581 1.415 . S
C1580 C1579 1.355 . S
C1580 C1582 1.419 . S
C1581 C1576 1.425 . S
C1581 C1578 1.409 . S
C1581 C1579 1.415 . S
C1582 H1572 0.930 . S
C1582 C1580 1.419 . S
C1582 C1583 1.362 . S
C1583 H1573 0.930 . S
C1583 C1576 1.409 . S
C1583 C1582 1.362 . S
H1584 C1590 0.930 . S
H1585 C1593 0.930 . S
H1586 C1594 0.930 . S
H1587 C1595 0.930 . S
H1588 C1598 0.930 . S
H1589 C1599 0.930 . S
C1590 H1584 0.930 . S
C1590 C1591 1.355 . S
C1590 C1592 1.415 . S
C1591 C1590 1.355 . S
C1591 C1593 1.419 . S
C1592 C1590 1.415 . S
C1592 C1597 1.425 . S
C1592 C1599 1.409 . S
C1593 H1585 0.930 . S
C1593 C1591 1.419 . S
C1593 C1594 1.362 . S
C1594 H1586 0.930 . S
C1594 C1593 1.362 . S
C1594 C1597 1.409 . S
C1595 H1587 0.930 . S
C1595 C1596 1.355 . S
C1595 C1597 1.415 . S
C1596 C1595 1.355 . S
C1596 C1598 1.419 . S
C1597 C1592 1.425 . S
C1597 C1594 1.409 . S
C1597 C1595 1.415 . S
C1598 H1588 0.930 . S
C1598 C1596 1.419 . S
C1598 C1599 1.362 . S
C1599 H1589 0.930 . S
C1599 C1592 1.409 . S
C1599 C1598 1.362 . S
H1600 C1606 0.930 . S
H1601 C1609 0.930 . S
H1602 C1610 0.930 . S
H1603 C1611 0.930 . S
H1604 C1614 0.930 . S
H1605 C1615 0.930 . S
C1606 H1600 0.930 . S
C1606 C1607 1.355 . S
C1606 C1608 1.415 . S
C1607 C1606 1.355 . S
C1607 C1609 1.419 . S
C1608 C1606 1.415 . S
C1608 C1613 1.425 . S
C1608 C1615 1.409 . S
C1609 H1601 0.930 . S
C1609 C1607 1.419 . S
C1609 C1610 1.362 . S
C1610 H1602 0.930 . S
C1610 C1609 1.362 . S
C1610 C1613 1.409 . S
C1611 H1603 0.930 . S
C1611 C1612 1.355 . S
C1611 C1613 1.415 . S
C1612 C1611 1.355 . S
C1612 C1614 1.419 . S
C1613 C1608 1.425 . S
C1613 C1610 1.409 . S
C1613 C1611 1.415 . S
C1614 H1604 0.930 . S
C1614 C1612 1.419 . S
C1614 C1615 1.362 . S
C1615 H1605 0.930 . S
C1615 C1608 1.409 . S
C1615 C1614 1.362 . S
H1616 C1622 0.930 . S
H1617 C1625 0.930 . S
H1618 C1626 0.930 . S
H1619 C1627 0.930 . S
H1620 C1630 0.930 . S
H1621 C1631 0.930 . S
C1622 H1616 0.930 . S
C1622 C1623 1.355 . S
C1622 C1624 1.415 . S
C1623 C1622 1.355 . S
C1623 C1625 1.419 . S
C1624 C1622 1.415 . S
C1624 C1629 1.425 . S
C1624 C1631 1.409 . S
C1625 H1617 0.930 . S
C1625 C1623 1.419 . S
C1625 C1626 1.362 . S
C1626 H1618 0.930 . S
C1626 C1625 1.362 . S
C1626 C1629 1.409 . S
C1627 H1619 0.930 . S
C1627 C1628 1.355 . S
C1627 C1629 1.415 . S
C1628 C1627 1.355 . S
C1628 C1630 1.419 . S
C1629 C1624 1.425 . S
C1629 C1626 1.409 . S
C1629 C1627 1.415 . S
C1630 H1620 0.930 . S
C1630 C1628 1.419 . S
C1630 C1631 1.362 . S
C1631 H1621 0.930 . S
C1631 C1624 1.409 . S
C1631 C1630 1.362 . S
H1632 C1638 0.930 . S
H1633 C1641 0.930 . S
H1634 C1642 0.930 . S
H1635 C1643 0.930 . S
H1636 C1646 0.930 . S
H1637 C1647 0.930 . S
C1638 H1632 0.930 . S
C1638 C1639 1.355 . S
C1638 C1640 1.415 . S
C1639 C1638 1.355 . S
C1639 C1641 1.419 . S
C1640 C1638 1.415 . S
C1640 C1645 1.425 . S
C1640 C1647 1.409 . S
C1641 H1633 0.930 . S
C1641 C1639 1.419 . S
C1641 C1642 1.362 . S
C1642 H1634 0.930 . S
C1642 C1641 1.362 . S
C1642 C1645 1.409 . S
C1643 H1635 0.930 . S
C1643 C1644 1.355 . S
C1643 C1645 1.415 . S
C1644 C1643 1.355 . S
C1644 C1646 1.419 . S
C1645 C1640 1.425 . S
C1645 C1642 1.409 . S
C1645 C1643 1.415 . S
C1646 H1636 0.930 . S
C1646 C1644 1.419 . S
C1646 C1647 1.362 . S
C1647 H1637 0.930 . S
C1647 C1640 1.409 . S
C1647 C1646 1.362 . S
H1648 C1654 0.930 . S
H1649 C1657 0.930 . S
H1650 C1658 0.930 . S
H1651 C1659 0.930 . S
H1652 C1662 0.930 . S
H1653 C1663 0.930 . S
C1654 H1648 0.930 . S
C1654 C1655 1.355 . S
C1654 C1656 1.415 . S
C1655 C1654 1.355 . S
C1655 C1657 1.419 . S
C1656 C1654 1.415 . S
C1656 C1661 1.425 . S
C1656 C1663 1.409 . S
C1657 H1649 0.930 . S
C1657 C1655 1.419 . S
C1657 C1658 1.362 . S
C1658 H1650 0.930 . S
C1658 C1657 1.362 . S
C1658 C1661 1.409 . S
C1659 H1651 0.930 . S
C1659 C1660 1.355 . S
C1659 C1661 1.415 . S
C1660 C1659 1.355 . S
C1660 C1662 1.419 . S
C1661 C1656 1.425 . S
C1661 C1658 1.409 . S
C1661 C1659 1.415 . S
C1662 H1652 0.930 . S
C1662 C1660 1.419 . S
C1662 C1663 1.362 . S
C1663 H1653 0.930 . S
C1663 C1656 1.409 . S
C1663 C1662 1.362 . S
H1664 C1670 0.930 . S
H1665 C1673 0.930 . S
H1666 C1674 0.930 . S
H1667 C1675 0.930 . S
H1668 C1678 0.930 . S
H1669 C1679 0.930 . S
C1670 H1664 0.930 . S
C1670 C1671 1.355 . S
C1670 C1672 1.415 . S
C1671 C1670 1.355 . S
C1671 C1673 1.419 . S
C1672 C1670 1.415 . S
C1672 C1677 1.425 . S
C1672 C1679 1.409 . S
C1673 H1665 0.930 . S
C1673 C1671 1.419 . S
C1673 C1674 1.362 . S
C1674 H1666 0.930 . S
C1674 C1673 1.362 . S
C1674 C1677 1.409 . S
C1675 H1667 0.930 . S
C1675 C1676 1.355 . S
C1675 C1677 1.415 . S
C1676 C1675 1.355 . S
C1676 C1678 1.419 . S
C1677 C1672 1.425 . S
C1677 C1674 1.409 . S
C1677 C1675 1.415 . S
C1678 H1668 0.930 . S
C1678 C1676 1.419 . S
C1678 C1679 1.362 . S
C1679 H1669 0.930 . S
C1679 C1672 1.409 . S
C1679 C1678 1.362 . S
H1680 C1686 0.930 . S
H1681 C1689 0.930 . S
H1682 C1690 0.930 . S
H1683 C1691 0.930 . S
H1684 C1694 0.930 . S
H1685 C1695 0.930 . S
C1686 H1680 0.930 . S
C1686 C1687 1.355 . S
C1686 C1688 1.415 . S
C1687 C1686 1.355 . S
C1687 C1689 1.419 . S
C1688 C1686 1.415 . S
C1688 C1693 1.425 . S
C1688 C1695 1.409 . S
C1689 H1681 0.930 . S
C1689 C1687 1.419 . S
C1689 C1690 1.362 . S
C1690 H1682 0.930 . S
C1690 C1689 1.362 . S
C1690 C1693 1.409 . S
C1691 H1683 0.930 . S
C1691 C1692 1.355 . S
C1691 C1693 1.415 . S
C1692 C1691 1.355 . S
C1692 C1694 1.419 . S
C1693 C1688 1.425 . S
C1693 C1690 1.409 . S
C1693 C1691 1.415 . S
C1694 H1684 0.930 . S
C1694 C1692 1.419 . S
C1694 C1695 1.362 . S
C1695 H1685 0.930 . S
C1695 C1688 1.409 . S
C1695 C1694 1.362 . S
H1696 C1702 0.930 . S
H1697 C1705 0.930 . S
H1698 C1706 0.930 . S
H1699 C1707 0.930 . S
H1700 C1710 0.930 . S
H1701 C1711 0.930 . S
C1702 H1696 0.930 . S
C1702 C1703 1.355 . S
C1702 C1704 1.415 . S
C1703 C1702 1.355 . S
C1703 C1705 1.419 . S
C1704 C1702 1.415 . S
C1704 C1709 1.425 . S
C1704 C1711 1.409 . S
C1705 H1697 0.930 . S
C1705 C1703 1.419 . S
C1705 C1706 1.362 . S
C1706 H1698 0.930 . S
C1706 C1705 1.362 . S
C1706 C1709 1.409 . S
C1707 H1699 0.930 . S
C1707 C1708 1.355 . S
C1707 C1709 1.415 . S
C1708 C1707 1.355 . S
C1708 C1710 1.419 . S
C1709 C1704 1.425 . S
C1709 C1706 1.409 . S
C1709 C1707 1.415 . S
C1710 H1700 0.930 . S
C1710 C1708 1.419 . S
C1710 C1711 1.362 . S
C1711 H1701 0.930 . S
C1711 C1704 1.409 . S
C1711 C1710 1.362 . S
H1712 C1718 0.930 . S
H1713 C1721 0.930 . S
H1714 C1722 0.930 . S
H1715 C1723 0.930 . S
H1716 C1726 0.930 . S
H1717 C1727 0.930 . S
C1718 H1712 0.930 . S
C1718 C1719 1.355 . S
C1718 C1720 1.415 . S
C1719 C1718 1.355 . S
C1719 C1721 1.419 . S
C1720 C1718 1.415 . S
C1720 C1725 1.425 . S
C1720 C1727 1.409 . S
C1721 H1713 0.930 . S
C1721 C1719 1.419 . S
C1721 C1722 1.362 . S
C1722 H1714 0.930 . S
C1722 C1721 1.362 . S
C1722 C1725 1.409 . S
C1723 H1715 0.930 . S
C1723 C1724 1.355 . S
C1723 C1725 1.415 . S
C1724 C1723 1.355 . S
C1724 C1726 1.419 . S
C1725 C1720 1.425 . S
C1725 C1722 1.409 . S
C1725 C1723 1.415 . S
C1726 H1716 0.930 . S
C1726 C1724 1.419 . S
C1726 C1727 1.362 . S
C1727 H1717 0.930 . S
C1727 C1720 1.409 . S
C1727 C1726 1.362 . S
H1728 C1734 0.930 . S
H1729 C1737 0.930 . S
H1730 C1738 0.930 . S
H1731 C1739 0.930 . S
H1732 C1742 0.930 . S
H1733 C1743 0.930 . S
C1734 H1728 0.930 . S
C1734 C1735 1.355 . S
C1734 C1736 1.415 . S
C1735 C1734 1.355 . S
C1735 C1737 1.419 . S
C1736 C1734 1.415 . S
C1736 C1741 1.425 . S
C1736 C1743 1.409 . S
C1737 H1729 0.930 . S
C1737 C1735 1.419 . S
C1737 C1738 1.362 . S
C1738 H1730 0.930 . S
C1738 C1737 1.362 . S
C1738 C1741 1.409 . S
C1739 H1731 0.930 . S
C1739 C1740 1.355 . S
C1739 C1741 1.415 . S
C1740 C1739 1.355 . S
C1740 C1742 1.419 . S
C1741 C1736 1.425 . S
C1741 C1738 1.409 . S
C1741 C1739 1.415 . S
C1742 H1732 0.930 . S
C1742 C1740 1.419 . S
C1742 C1743 1.362 . S
C1743 H1733 0.930 . S
C1743 C1736 1.409 . S
C1743 C1742 1.362 . S
H1744 C1750 0.930 . S
H1745 C1753 0.930 . S
H1746 C1754 0.930 . S
H1747 C1755 0.930 . S
H1748 C1758 0.930 . S
H1749 C1759 0.930 . S
C1750 H1744 0.930 . S
C1750 C1751 1.355 . S
C1750 C1752 1.415 . S
C1751 C1750 1.355 . S
C1751 C1753 1.419 . S
C1752 C1750 1.415 . S
C1752 C1757 1.425 . S
C1752 C1759 1.409 . S
C1753 H1745 0.930 . S
C1753 C1751 1.419 . S
C1753 C1754 1.362 . S
C1754 H1746 0.930 . S
C1754 C1753 1.362 . S
C1754 C1757 1.409 . S
C1755 H1747 0.930 . S
C1755 C1756 1.355 . S
C1755 C1757 1.415 . S
C1756 C1755 1.355 . S
C1756 C1758 1.419 . S
C1757 C1752 1.425 . S
C1757 C1754 1.409 . S
C1757 C1755 1.415 . S
C1758 H1748 0.930 . S
C1758 C1756 1.419 . S
C1758 C1759 1.362 . S
C1759 H1749 0.930 . S
C1759 C1752 1.409 . S
C1759 C1758 1.362 . S
H1760 C1766 0.930 . S
H1761 C1769 0.930 . S
H1762 C1770 0.930 . S
H1763 C1771 0.930 . S
H1764 C1774 0.930 . S
H1765 C1775 0.930 . S
C1766 H1760 0.930 . S
C1766 C1767 1.355 . S
C1766 C1768 1.415 . S
C1767 C1766 1.355 . S
C1767 C1769 1.419 . S
C1768 C1766 1.415 . S
C1768 C1773 1.425 . S
C1768 C1775 1.409 . S
C1769 H1761 0.930 . S
C1769 C1767 1.419 . S
C1769 C1770 1.362 . S
C1770 H1762 0.930 . S
C1770 C1769 1.362 . S
C1770 C1773 1.409 . S
C1771 H1763 0.930 . S
C1771 C1772 1.355 . S
C1771 C1773 1.415 . S
C1772 C1771 1.355 . S
C1772 C1774 1.419 . S
C1773 C1768 1.425 . S
C1773 C1770 1.409 . S
C1773 C1771 1.415 . S
C1774 H1764 0.930 . S
C1774 C1772 1.419 . S
C1774 C1775 1.362 . S
C1775 H1765 0.930 . S
C1775 C1768 1.409 . S
C1775 C1774 1.362 . S
H1776 C1782 0.930 . S
H1777 C1785 0.930 . S
H1778 C1786 0.930 . S
H1779 C1787 0.930 . S
H1780 C1790 0.930 . S
H1781 C1791 0.930 . S
C1782 H1776 0.930 . S
C1782 C1783 1.355 . S
C1782 C1784 1.415 . S
C1783 C1782 1.355 . S
C1783 C1785 1.419 . S
C1784 C1782 1.415 . S
C1784 C1789 1.425 . S
C1784 C1791 1.409 . S
C1785 H1777 0.930 . S
C1785 C1783 1.419 . S
C1785 C1786 1.362 . S
C1786 H1778 0.930 . S
C1786 C1785 1.362 . S
C1786 C1789 1.409 . S
C1787 H1779 0.930 . S
C1787 C1788 1.355 . S
C1787 C1789 1.415 . S
C1788 C1787 1.355 . S
C1788 C1790 1.419 . S
C1789 C1784 1.425 . S
C1789 C1786 1.409 . S
C1789 C1787 1.415 . S
C1790 H1780 0.930 . S
C1790 C1788 1.419 . S
C1790 C1791 1.362 . S
C1791 H1781 0.930 . S
C1791 C1784 1.409 . S
C1791 C1790 1.362 . S
H1792 C1798 0.930 . S
H1793 C1801 0.930 . S
H1794 C1802 0.930 . S
H1795 C1803 0.930 . S
H1796 C1806 0.930 . S
H1797 C1807 0.930 . S
C1798 H1792 0.930 . S
C1798 C1799 1.355 . S
C1798 C1800 1.415 . S
C1799 C1798 1.355 . S
C1799 C1801 1.419 . S
C1800 C1798 1.415 . S
C1800 C1805 1.425 1_455 S
C1800 C1807 1.409 1_455 S
C1801 H1793 0.930 . S
C1801 C1799 1.419 . S
C1801 C1802 1.362 . S
C1802 H1794 0.930 . S
C1802 C1801 1.362 . S
C1802 C1805 1.409 1_455 S
C1803 H1795 0.930 . S
C1803 C1804 1.355 . S
C1803 C1805 1.415 . S
C1804 C1803 1.355 . S
C1804 C1806 1.419 . S
C1805 C1800 1.425 1_655 S
C1805 C1802 1.409 1_655 S
C1805 C1803 1.415 . S
C1806 H1796 0.930 . S
C1806 C1804 1.419 . S
C1806 C1807 1.362 . S
C1807 H1797 0.930 . S
C1807 C1800 1.409 1_655 S
C1807 C1806 1.362 . S
H1808 C1814 0.930 . S
H1809 C1817 0.930 . S
H1810 C1818 0.930 . S
H1811 C1819 0.930 . S
H1812 C1822 0.930 . S
H1813 C1823 0.930 . S
C1814 H1808 0.930 . S
C1814 C1815 1.355 1_455 S
C1814 C1816 1.415 . S
C1815 C1814 1.355 1_655 S
C1815 C1817 1.419 . S
C1816 C1814 1.415 . S
C1816 C1821 1.425 1_455 S
C1816 C1823 1.409 . S
C1817 H1809 0.930 . S
C1817 C1815 1.419 . S
C1817 C1818 1.362 . S
C1818 H1810 0.930 . S
C1818 C1817 1.362 . S
C1818 C1821 1.409 . S
C1819 H1811 0.930 . S
C1819 C1820 1.355 1_655 S
C1819 C1821 1.415 . S
C1820 C1819 1.355 1_455 S
C1820 C1822 1.419 . S
C1821 C1816 1.425 1_655 S
C1821 C1818 1.409 . S
C1821 C1819 1.415 . S
C1822 H1812 0.930 . S
C1822 C1820 1.419 . S
C1822 C1823 1.362 . S
C1823 H1813 0.930 . S
C1823 C1816 1.409 . S
C1823 C1822 1.362 . S
H1824 C1830 0.930 . S
H1825 C1833 0.930 . S
H1826 C1834 0.930 . S
H1827 C1835 0.930 . S
H1828 C1838 0.930 . S
H1829 C1839 0.930 . S
C1830 H1824 0.930 . S
C1830 C1831 1.355 . S
C1830 C1832 1.415 . S
C1831 C1830 1.355 . S
C1831 C1833 1.419 . S
C1832 C1830 1.415 . S
C1832 C1837 1.425 . S
C1832 C1839 1.409 . S
C1833 H1825 0.930 . S
C1833 C1831 1.419 . S
C1833 C1834 1.362 . S
C1834 H1826 0.930 . S
C1834 C1833 1.362 . S
C1834 C1837 1.409 . S
C1835 H1827 0.930 . S
C1835 C1836 1.355 . S
C1835 C1837 1.415 . S
C1836 C1835 1.355 . S
C1836 C1838 1.419 . S
C1837 C1832 1.425 . S
C1837 C1834 1.409 . S
C1837 C1835 1.415 . S
C1838 H1828 0.930 . S
C1838 C1836 1.419 . S
C1838 C1839 1.362 . S
C1839 H1829 0.930 . S
C1839 C1832 1.409 . S
C1839 C1838 1.362 . S
H1840 C1846 0.930 . S
H1841 C1849 0.930 . S
H1842 C1850 0.930 . S
H1843 C1851 0.930 . S
H1844 C1854 0.930 . S
H1845 C1855 0.930 . S
C1846 H1840 0.930 . S
C1846 C1847 1.355 . S
C1846 C1848 1.415 . S
C1847 C1846 1.355 . S
C1847 C1849 1.419 . S
C1848 C1846 1.415 . S
C1848 C1853 1.425 . S
C1848 C1855 1.409 . S
C1849 H1841 0.930 . S
C1849 C1847 1.419 . S
C1849 C1850 1.362 . S
C1850 H1842 0.930 . S
C1850 C1849 1.362 . S
C1850 C1853 1.409 . S
C1851 H1843 0.930 . S
C1851 C1852 1.355 . S
C1851 C1853 1.415 . S
C1852 C1851 1.355 . S
C1852 C1854 1.419 . S
C1853 C1848 1.425 . S
C1853 C1850 1.409 . S
C1853 C1851 1.415 . S
C1854 H1844 0.930 . S
C1854 C1852 1.419 . S
C1854 C1855 1.362 . S
C1855 H1845 0.930 . S
C1855 C1848 1.409 . S
C1855 C1854 1.362 . S
H1856 C1862 0.930 . S
H1857 C1865 0.930 . S
H1858 C1866 0.930 . S
H1859 C1867 0.930 . S
H1860 C1870 0.930 . S
H1861 C1871 0.930 . S
C1862 H1856 0.930 . S
C1862 C1863 1.355 . S
C1862 C1864 1.415 . S
C1863 C1862 1.355 . S
C1863 C1865 1.419 . S
C1864 C1862 1.415 . S
C1864 C1869 1.425 1_655 S
C1864 C1871 1.409 1_655 S
C1865 H1857 0.930 . S
C1865 C1863 1.419 . S
C1865 C1866 1.362 . S
C1866 H1858 0.930 . S
C1866 C1865 1.362 . S
C1866 C1869 1.409 1_655 S
C1867 H1859 0.930 . S
C1867 C1868 1.355 . S
C1867 C1869 1.415 . S
C1868 C1867 1.355 . S
C1868 C1870 1.419 . S
C1869 C1864 1.425 1_455 S
C1869 C1866 1.409 1_455 S
C1869 C1867 1.415 . S
C1870 H1860 0.930 . S
C1870 C1868 1.419 . S
C1870 C1871 1.362 . S
C1871 H1861 0.930 . S
C1871 C1864 1.409 1_455 S
C1871 C1870 1.362 . S
H1872 C1878 0.930 . S
H1873 C1881 0.930 . S
H1874 C1882 0.930 . S
H1875 C1883 0.930 . S
H1876 C1886 0.930 . S
H1877 C1887 0.930 . S
C1878 H1872 0.930 . S
C1878 C1879 1.355 . S
C1878 C1880 1.415 . S
C1879 C1878 1.355 . S
C1879 C1881 1.419 . S
C1880 C1878 1.415 . S
C1880 C1885 1.425 . S
C1880 C1887 1.409 . S
C1881 H1873 0.930 . S
C1881 C1879 1.419 . S
C1881 C1882 1.362 . S
C1882 H1874 0.930 . S
C1882 C1881 1.362 . S
C1882 C1885 1.409 . S
C1883 H1875 0.930 . S
C1883 C1884 1.355 . S
C1883 C1885 1.415 . S
C1884 C1883 1.355 . S
C1884 C1886 1.419 . S
C1885 C1880 1.425 . S
C1885 C1882 1.409 . S
C1885 C1883 1.415 . S
C1886 H1876 0.930 . S
C1886 C1884 1.419 . S
C1886 C1887 1.362 . S
C1887 H1877 0.930 . S
C1887 C1880 1.409 . S
C1887 C1886 1.362 . S
H1888 C1894 0.930 . S
H1889 C1897 0.930 . S
H1890 C1898 0.930 . S
H1891 C1899 0.930 . S
H1892 C1902 0.930 . S
H1893 C1903 0.930 . S
C1894 H1888 0.930 . S
C1894 C1895 1.355 . S
C1894 C1896 1.415 . S
C1895 C1894 1.355 . S
C1895 C1897 1.419 . S
C1896 C1894 1.415 . S
C1896 C1901 1.425 . S
C1896 C1903 1.409 . S
C1897 H1889 0.930 . S
C1897 C1895 1.419 . S
C1897 C1898 1.362 . S
C1898 H1890 0.930 . S
C1898 C1897 1.362 . S
C1898 C1901 1.409 . S
C1899 H1891 0.930 . S
C1899 C1900 1.355 . S
C1899 C1901 1.415 . S
C1900 C1899 1.355 . S
C1900 C1902 1.419 . S
C1901 C1896 1.425 . S
C1901 C1898 1.409 . S
C1901 C1899 1.415 . S
C1902 H1892 0.930 . S
C1902 C1900 1.419 . S
C1902 C1903 1.362 . S
C1903 H1893 0.930 . S
C1903 C1896 1.409 . S
C1903 C1902 1.362 . S
H1904 C1910 0.930 . S
H1905 C1913 0.930 . S
H1906 C1914 0.930 . S
H1907 C1915 0.930 . S
H1908 C1918 0.930 . S
H1909 C1919 0.930 . S
C1910 H1904 0.930 . S
C1910 C1911 1.355 1_455 S
C1910 C1912 1.415 . S
C1911 C1910 1.355 1_655 S
C1911 C1913 1.419 . S
C1912 C1910 1.415 . S
C1912 C1917 1.425 1_455 S
C1912 C1919 1.409 . S
C1913 H1905 0.930 . S
C1913 C1911 1.419 . S
C1913 C1914 1.362 . S
C1914 H1906 0.930 . S
C1914 C1913 1.362 . S
C1914 C1917 1.409 . S
C1915 H1907 0.930 . S
C1915 C1916 1.355 1_655 S
C1915 C1917 1.415 . S
C1916 C1915 1.355 1_455 S
C1916 C1918 1.419 . S
C1917 C1912 1.425 1_655 S
C1917 C1914 1.409 . S
C1917 C1915 1.415 . S
C1918 H1908 0.930 . S
C1918 C1916 1.419 . S
C1918 C1919 1.362 . S
C1919 H1909 0.930 . S
C1919 C1912 1.409 . S
C1919 C1918 1.362 . S
H1920 C1926 0.930 . S
H1921 C1929 0.930 . S
H1922 C1930 0.930 . S
H1923 C1931 0.930 . S
H1924 C1934 0.930 . S
H1925 C1935 0.930 . S
C1926 H1920 0.930 . S
C1926 C1927 1.355 . S
C1926 C1928 1.415 . S
C1927 C1926 1.355 . S
C1927 C1929 1.419 . S
C1928 C1926 1.415 . S
C1928 C1933 1.425 1_455 S
C1928 C1935 1.409 1_455 S
C1929 H1921 0.930 . S
C1929 C1927 1.419 . S
C1929 C1930 1.362 . S
C1930 H1922 0.930 . S
C1930 C1929 1.362 . S
C1930 C1933 1.409 1_455 S
C1931 H1923 0.930 . S
C1931 C1932 1.355 . S
C1931 C1933 1.415 . S
C1932 C1931 1.355 . S
C1932 C1934 1.419 . S
C1933 C1928 1.425 1_655 S
C1933 C1930 1.409 1_655 S
C1933 C1931 1.415 . S
C1934 H1924 0.930 . S
C1934 C1932 1.419 . S
C1934 C1935 1.362 . S
C1935 H1925 0.930 . S
C1935 C1928 1.409 1_655 S
C1935 C1934 1.362 . S
H1936 C1942 0.930 . S
H1937 C1945 0.930 . S
H1938 C1946 0.930 . S
H1939 C1947 0.930 . S
H1940 C1950 0.930 . S
H1941 C1951 0.930 . S
C1942 H1936 0.930 . S
C1942 C1943 1.355 1_655 S
C1942 C1944 1.415 . S
C1943 C1942 1.355 1_455 S
C1943 C1945 1.419 . S
C1944 C1942 1.415 . S
C1944 C1949 1.425 1_655 S
C1944 C1951 1.409 . S
C1945 H1937 0.930 . S
C1945 C1943 1.419 . S
C1945 C1946 1.362 . S
C1946 H1938 0.930 . S
C1946 C1945 1.362 . S
C1946 C1949 1.409 . S
C1947 H1939 0.930 . S
C1947 C1948 1.355 1_455 S
C1947 C1949 1.415 . S
C1948 C1947 1.355 1_655 S
C1948 C1950 1.419 . S
C1949 C1944 1.425 1_455 S
C1949 C1946 1.409 . S
C1949 C1947 1.415 . S
C1950 H1940 0.930 . S
C1950 C1948 1.419 . S
C1950 C1951 1.362 . S
C1951 H1941 0.930 . S
C1951 C1944 1.409 . S
C1951 C1950 1.362 . S
H1952 C1958 0.930 . S
H1953 C1961 0.930 . S
H1954 C1962 0.930 . S
H1955 C1963 0.930 . S
H1956 C1966 0.930 . S
H1957 C1967 0.930 . S
C1958 H1952 0.930 . S
C1958 C1959 1.355 . S
C1958 C1960 1.415 . S
C1959 C1958 1.355 . S
C1959 C1961 1.419 . S
C1960 C1958 1.415 . S
C1960 C1965 1.425 . S
C1960 C1967 1.409 . S
C1961 H1953 0.930 . S
C1961 C1959 1.419 . S
C1961 C1962 1.362 . S
C1962 H1954 0.930 . S
C1962 C1961 1.362 . S
C1962 C1965 1.409 . S
C1963 H1955 0.930 . S
C1963 C1964 1.355 . S
C1963 C1965 1.415 . S
C1964 C1963 1.355 . S
C1964 C1966 1.419 . S
C1965 C1960 1.425 . S
C1965 C1962 1.409 . S
C1965 C1963 1.415 . S
C1966 H1956 0.930 . S
C1966 C1964 1.419 . S
C1966 C1967 1.362 . S
C1967 H1957 0.930 . S
C1967 C1960 1.409 . S
C1967 C1966 1.362 . S
H1968 C1974 0.930 . S
H1969 C1977 0.930 . S
H1970 C1978 0.930 . S
H1971 C1979 0.930 . S
H1972 C1982 0.930 . S
H1973 C1983 0.930 . S
C1974 H1968 0.930 . S
C1974 C1975 1.355 . S
C1974 C1976 1.415 . S
C1975 C1974 1.355 . S
C1975 C1977 1.419 . S
C1976 C1974 1.415 . S
C1976 C1981 1.425 . S
C1976 C1983 1.409 . S
C1977 H1969 0.930 . S
C1977 C1975 1.419 . S
C1977 C1978 1.362 . S
C1978 H1970 0.930 . S
C1978 C1977 1.362 . S
C1978 C1981 1.409 . S
C1979 H1971 0.930 . S
C1979 C1980 1.355 . S
C1979 C1981 1.415 . S
C1980 C1979 1.355 . S
C1980 C1982 1.419 . S
C1981 C1976 1.425 . S
C1981 C1978 1.409 . S
C1981 C1979 1.415 . S
C1982 H1972 0.930 . S
C1982 C1980 1.419 . S
C1982 C1983 1.362 . S
C1983 H1973 0.930 . S
C1983 C1976 1.409 . S
C1983 C1982 1.362 . S
H1984 C1990 0.930 . S
H1985 C1993 0.930 . S
H1986 C1994 0.930 . S
H1987 C1995 0.930 . S
H1988 C1998 0.930 . S
H1989 C1999 0.930 . S
C1990 H1984 0.930 . S
C1990 C1991 1.355 . S
C1990 C1992 1.415 . S
C1991 C1990 1.355 . S
C1991 C1993 1.419 . S
C1992 C1990 1.415 . S
C1992 C1997 1.425 1_455 S
C1992 C1999 1.409 1_455 S
C1993 H1985 0.930 . S
C1993 C1991 1.419 . S
C1993 C1994 1.362 . S
C1994 H1986 0.930 . S
C1994 C1993 1.362 . S
C1994 C1997 1.409 1_455 S
C1995 H1987 0.930 . S
C1995 C1996 1.355 . S
C1995 C1997 1.415 . S
C1996 C1995 1.355 . S
C1996 C1998 1.419 . S
C1997 C1992 1.425 1_655 S
C1997 C1994 1.409 1_655 S
C1997 C1995 1.415 . S
C1998 H1988 0.930 . S
C1998 C1996 1.419 . S
C1998 C1999 1.362 . S
C1999 H1989 0.930 . S
C1999 C1992 1.409 1_655 S
C1999 C1998 1.362 . S
H2000 C2006 0.930 . S
H2001 C2009 0.930 . S
H2002 C2010 0.930 . S
H2003 C2011 0.930 . S
H2004 C2014 0.930 . S
H2005 C2015 0.930 . S
C2006 H2000 0.930 . S
C2006 C2007 1.355 . S
C2006 C2008 1.415 . S
C2007 C2006 1.355 . S
C2007 C2009 1.419 . S
C2008 C2006 1.415 . S
C2008 C2013 1.425 . S
C2008 C2015 1.409 . S
C2009 H2001 0.930 . S
C2009 C2007 1.419 . S
C2009 C2010 1.362 . S
C2010 H2002 0.930 . S
C2010 C2009 1.362 . S
C2010 C2013 1.409 . S
C2011 H2003 0.930 . S
C2011 C2012 1.355 . S
C2011 C2013 1.415 . S
C2012 C2011 1.355 . S
C2012 C2014 1.419 . S
C2013 C2008 1.425 . S
C2013 C2010 1.409 . S
C2013 C2011 1.415 . S
C2014 H2004 0.930 . S
C2014 C2012 1.419 . S
C2014 C2015 1.362 . S
C2015 H2005 0.930 . S
C2015 C2008 1.409 . S
C2015 C2014 1.362 . S
H2016 C2022 0.930 . S
H2017 C2025 0.930 . S
H2018 C2026 0.930 . S
H2019 C2027 0.930 . S
H2020 C2030 0.930 . S
H2021 C2031 0.930 . S
C2022 H2016 0.930 . S
C2022 C2023 1.355 . S
C2022 C2024 1.415 . S
C2023 C2022 1.355 . S
C2023 C2025 1.419 . S
C2024 C2022 1.415 . S
C2024 C2029 1.425 . S
C2024 C2031 1.409 . S
C2025 H2017 0.930 . S
C2025 C2023 1.419 . S
C2025 C2026 1.362 . S
C2026 H2018 0.930 . S
C2026 C2025 1.362 . S
C2026 C2029 1.409 . S
C2027 H2019 0.930 . S
C2027 C2028 1.355 . S
C2027 C2029 1.415 . S
C2028 C2027 1.355 . S
C2028 C2030 1.419 . S
C2029 C2024 1.425 . S
C2029 C2026 1.409 . S
C2029 C2027 1.415 . S
C2030 H2020 0.930 . S
C2030 C2028 1.419 . S
C2030 C2031 1.362 . S
C2031 H2021 0.930 . S
C2031 C2024 1.409 . S
C2031 C2030 1.362 . S
H2032 C2038 0.930 . S
H2033 C2041 0.930 . S
H2034 C2042 0.930 . S
H2035 C2043 0.930 . S
H2036 C2046 0.930 . S
H2037 C2047 0.930 . S
C2038 H2032 0.930 . S
C2038 C2039 1.355 1_655 S
C2038 C2040 1.415 . S
C2039 C2038 1.355 1_455 S
C2039 C2041 1.419 . S
C2040 C2038 1.415 . S
C2040 C2045 1.425 1_655 S
C2040 C2047 1.409 . S
C2041 H2033 0.930 . S
C2041 C2039 1.419 . S
C2041 C2042 1.362 . S
C2042 H2034 0.930 . S
C2042 C2041 1.362 . S
C2042 C2045 1.409 . S
C2043 H2035 0.930 . S
C2043 C2044 1.355 1_455 S
C2043 C2045 1.415 . S
C2044 C2043 1.355 1_655 S
C2044 C2046 1.419 . S
C2045 C2040 1.425 1_455 S
C2045 C2042 1.409 . S
C2045 C2043 1.415 . S
C2046 H2036 0.930 . S
C2046 C2044 1.419 . S
C2046 C2047 1.362 . S
C2047 H2037 0.930 . S
C2047 C2040 1.409 . S
C2047 C2046 1.362 . S
H2048 C2054 0.930 . S
H2049 C2057 0.930 . S
H2050 C2058 0.930 . S
H2051 C2059 0.930 . S
H2052 C2062 0.930 . S
H2053 C2063 0.930 . S
C2054 H2048 0.930 . S
C2054 C2055 1.355 . S
C2054 C2056 1.415 . S
C2055 C2054 1.355 . S
C2055 C2057 1.419 . S
C2056 C2054 1.415 . S
C2056 C2061 1.425 . S
C2056 C2063 1.409 . S
C2057 H2049 0.930 . S
C2057 C2055 1.419 . S
C2057 C2058 1.362 . S
C2058 H2050 0.930 . S
C2058 C2057 1.362 . S
C2058 C2061 1.409 . S
C2059 H2051 0.930 . S
C2059 C2060 1.355 . S
C2059 C2061 1.415 . S
C2060 C2059 1.355 . S
C2060 C2062 1.419 . S
C2061 C2056 1.425 . S
C2061 C2058 1.409 . S
C2061 C2059 1.415 . S
C2062 H2052 0.930 . S
C2062 C2060 1.419 . S
C2062 C2063 1.362 . S
C2063 H2053 0.930 . S
C2063 C2056 1.409 . S
C2063 C2062 1.362 . S
H2064 C2070 0.930 . S
H2065 C2073 0.930 . S
H2066 C2074 0.930 . S
H2067 C2075 0.930 . S
H2068 C2078 0.930 . S
H2069 C2079 0.930 . S
C2070 H2064 0.930 . S
C2070 C2071 1.355 1_455 S
C2070 C2072 1.415 . S
C2071 C2070 1.355 1_655 S
C2071 C2073 1.419 1_545 S
C2072 C2070 1.415 . S
C2072 C2077 1.425 1_445 S
C2072 C2079 1.409 . S
C2073 H2065 0.930 . S
C2073 C2071 1.419 1_565 S
C2073 C2074 1.362 . S
C2074 H2066 0.930 . S
C2074 C2073 1.362 . S
C2074 C2077 1.409 . S
C2075 H2067 0.930 . S
C2075 C2076 1.355 1_655 S
C2075 C2077 1.415 . S
C2076 C2075 1.355 1_455 S
C2076 C2078 1.419 1_565 S
C2077 C2072 1.425 1_665 S
C2077 C2074 1.409 . S
C2077 C2075 1.415 . S
C2078 H2068 0.930 . S
C2078 C2076 1.419 1_545 S
C2078 C2079 1.362 . S
C2079 H2069 0.930 . S
C2079 C2072 1.409 . S
C2079 C2078 1.362 . S
H2080 C2086 0.930 . S
H2081 C2089 0.930 . S
H2082 C2090 0.930 . S
H2083 C2091 0.930 . S
H2084 C2094 0.930 . S
H2085 C2095 0.930 . S
C2086 H2080 0.930 . S
C2086 C2087 1.355 . S
C2086 C2088 1.415 . S
C2087 C2086 1.355 . S
C2087 C2089 1.419 . S
C2088 C2086 1.415 . S
C2088 C2093 1.425 . S
C2088 C2095 1.409 . S
C2089 H2081 0.930 . S
C2089 C2087 1.419 . S
C2089 C2090 1.362 . S
C2090 H2082 0.930 . S
C2090 C2089 1.362 . S
C2090 C2093 1.409 . S
C2091 H2083 0.930 . S
C2091 C2092 1.355 . S
C2091 C2093 1.415 . S
C2092 C2091 1.355 . S
C2092 C2094 1.419 . S
C2093 C2088 1.425 . S
C2093 C2090 1.409 . S
C2093 C2091 1.415 . S
C2094 H2084 0.930 . S
C2094 C2092 1.419 . S
C2094 C2095 1.362 . S
C2095 H2085 0.930 . S
C2095 C2088 1.409 . S
C2095 C2094 1.362 . S
H2096 C2102 0.930 . S
H2097 C2105 0.930 . S
H2098 C2106 0.930 . S
H2099 C2107 0.930 . S
H2100 C2110 0.930 . S
H2101 C2111 0.930 . S
C2102 H2096 0.930 . S
C2102 C2103 1.355 . S
C2102 C2104 1.415 . S
C2103 C2102 1.355 . S
C2103 C2105 1.419 1_545 S
C2104 C2102 1.415 . S
C2104 C2109 1.425 1_544 S
C2104 C2111 1.409 1_554 S
C2105 H2097 0.930 . S
C2105 C2103 1.419 1_565 S
C2105 C2106 1.362 . S
C2106 H2098 0.930 . S
C2106 C2105 1.362 . S
C2106 C2109 1.409 1_554 S
C2107 H2099 0.930 . S
C2107 C2108 1.355 . S
C2107 C2109 1.415 . S
C2108 C2107 1.355 . S
C2108 C2110 1.419 1_565 S
C2109 C2104 1.425 1_566 S
C2109 C2106 1.409 1_556 S
C2109 C2107 1.415 . S
C2110 H2100 0.930 . S
C2110 C2108 1.419 1_545 S
C2110 C2111 1.362 . S
C2111 H2101 0.930 . S
C2111 C2104 1.409 1_556 S
C2111 C2110 1.362 . S
H2112 C2118 0.930 . S
H2113 C2121 0.930 . S
H2114 C2122 0.930 . S
H2115 C2123 0.930 . S
H2116 C2126 0.930 . S
H2117 C2127 0.930 . S
C2118 H2112 0.930 . S
C2118 C2119 1.355 . S
C2118 C2120 1.415 . S
C2119 C2118 1.355 . S
C2119 C2121 1.419 . S
C2120 C2118 1.415 . S
C2120 C2125 1.425 . S
C2120 C2127 1.409 . S
C2121 H2113 0.930 . S
C2121 C2119 1.419 . S
C2121 C2122 1.362 . S
C2122 H2114 0.930 . S
C2122 C2121 1.362 . S
C2122 C2125 1.409 . S
C2123 H2115 0.930 . S
C2123 C2124 1.355 . S
C2123 C2125 1.415 . S
C2124 C2123 1.355 . S
C2124 C2126 1.419 . S
C2125 C2120 1.425 . S
C2125 C2122 1.409 . S
C2125 C2123 1.415 . S
C2126 H2116 0.930 . S
C2126 C2124 1.419 . S
C2126 C2127 1.362 . S
C2127 H2117 0.930 . S
C2127 C2120 1.409 . S
C2127 C2126 1.362 . S
H2128 C2134 0.930 . S
H2129 C2137 0.930 . S
H2130 C2138 0.930 . S
H2131 C2139 0.930 . S
H2132 C2142 0.930 . S
H2133 C2143 0.930 . S
C2134 H2128 0.930 . S
C2134 C2135 1.355 1_565 S
C2134 C2136 1.415 . S
C2135 C2134 1.355 1_545 S
C2135 C2137 1.419 . S
C2136 C2134 1.415 . S
C2136 C2141 1.425 1_565 S
C2136 C2143 1.409 . S
C2137 H2129 0.930 . S
C2137 C2135 1.419 . S
C2137 C2138 1.362 . S
C2138 H2130 0.930 . S
C2138 C2137 1.362 . S
C2138 C2141 1.409 . S
C2139 H2131 0.930 . S
C2139 C2140 1.355 1_545 S
C2139 C2141 1.415 . S
C2140 C2139 1.355 1_565 S
C2140 C2142 1.419 . S
C2141 C2136 1.425 1_545 S
C2141 C2138 1.409 . S
C2141 C2139 1.415 . S
C2142 H2132 0.930 . S
C2142 C2140 1.419 . S
C2142 C2143 1.362 . S
C2143 H2133 0.930 . S
C2143 C2136 1.409 . S
C2143 C2142 1.362 . S
H2144 C2150 0.930 . S
H2145 C2153 0.930 . S
H2146 C2154 0.930 . S
H2147 C2155 0.930 . S
H2148 C2158 0.930 . S
H2149 C2159 0.930 . S
C2150 H2144 0.930 . S
C2150 C2151 1.355 . S
C2150 C2152 1.415 . S
C2151 C2150 1.355 . S
C2151 C2153 1.419 . S
C2152 C2150 1.415 . S
C2152 C2157 1.425 . S
C2152 C2159 1.409 . S
C2153 H2145 0.930 . S
C2153 C2151 1.419 . S
C2153 C2154 1.362 . S
C2154 H2146 0.930 . S
C2154 C2153 1.362 . S
C2154 C2157 1.409 . S
C2155 H2147 0.930 . S
C2155 C2156 1.355 . S
C2155 C2157 1.415 . S
C2156 C2155 1.355 . S
C2156 C2158 1.419 . S
C2157 C2152 1.425 . S
C2157 C2154 1.409 . S
C2157 C2155 1.415 . S
C2158 H2148 0.930 . S
C2158 C2156 1.419 . S
C2158 C2159 1.362 . S
C2159 H2149 0.930 . S
C2159 C2152 1.409 . S
C2159 C2158 1.362 . S
H2160 C2166 0.930 . S
H2161 C2169 0.930 . S
H2162 C2170 0.930 . S
H2163 C2171 0.930 . S
H2164 C2174 0.930 . S
H2165 C2175 0.930 . S
C2166 H2160 0.930 . S
C2166 C2167 1.378 . S
C2166 C2168 1.412 1_455 S
C2167 C2166 1.378 . S
C2167 C2169 1.389 1_545 S
C2168 C2166 1.412 1_655 S
C2168 C2173 1.424 1_646 S
C2168 C2175 1.414 1_556 S
C2169 H2161 0.930 . S
C2169 C2167 1.389 1_565 S
C2169 C2170 1.362 . S
C2170 H2162 0.930 . S
C2170 C2169 1.362 . S
C2170 C2173 1.414 1_556 S
C2171 H2163 0.930 . S
C2171 C2172 1.378 . S
C2171 C2173 1.412 1_655 S
C2172 C2171 1.378 . S
C2172 C2174 1.389 1_565 S
C2173 C2168 1.424 1_464 S
C2173 C2170 1.414 1_554 S
C2173 C2171 1.412 1_455 S
C2174 H2164 0.930 . S
C2174 C2172 1.389 1_545 S
C2174 C2175 1.362 . S
C2175 H2165 0.930 . S
C2175 C2168 1.414 1_554 S
C2175 C2174 1.362 . S
H2176 C2182 0.930 . S
H2177 C2185 0.930 . S
H2178 C2186 0.930 . S
H2179 C2187 0.930 . S
H2180 C2190 0.930 . S
H2181 C2191 0.930 . S
C2182 H2176 0.930 . S
C2182 C2183 1.355 . S
C2182 C2184 1.415 . S
C2183 C2182 1.355 . S
C2183 C2185 1.419 . S
C2184 C2182 1.415 . S
C2184 C2189 1.425 . S
C2184 C2191 1.409 . S
C2185 H2177 0.930 . S
C2185 C2183 1.419 . S
C2185 C2186 1.362 . S
C2186 H2178 0.930 . S
C2186 C2185 1.362 . S
C2186 C2189 1.409 . S
C2187 H2179 0.930 . S
C2187 C2188 1.355 . S
C2187 C2189 1.415 . S
C2188 C2187 1.355 . S
C2188 C2190 1.419 . S
C2189 C2184 1.425 . S
C2189 C2186 1.409 . S
C2189 C2187 1.415 . S
C2190 H2180 0.930 . S
C2190 C2188 1.419 . S
C2190 C2191 1.362 . S
C2191 H2181 0.930 . S
C2191 C2184 1.409 . S
C2191 C2190 1.362 . S
H2192 C2198 0.930 . S
H2193 C2201 0.930 . S
H2194 C2202 0.930 . S
H2195 C2203 0.930 . S
H2196 C2206 0.930 . S
H2197 C2207 0.930 . S
C2198 H2192 0.930 . S
C2198 C2199 1.355 . S
C2198 C2200 1.415 . S
C2199 C2198 1.355 . S
C2199 C2201 1.419 . S
C2200 C2198 1.415 . S
C2200 C2205 1.425 . S
C2200 C2207 1.409 . S
C2201 H2193 0.930 . S
C2201 C2199 1.419 . S
C2201 C2202 1.362 . S
C2202 H2194 0.930 . S
C2202 C2201 1.362 . S
C2202 C2205 1.409 . S
C2203 H2195 0.930 . S
C2203 C2204 1.355 . S
C2203 C2205 1.415 . S
C2204 C2203 1.355 . S
C2204 C2206 1.419 . S
C2205 C2200 1.425 . S
C2205 C2202 1.409 . S
C2205 C2203 1.415 . S
C2206 H2196 0.930 . S
C2206 C2204 1.419 . S
C2206 C2207 1.362 . S
C2207 H2197 0.930 . S
C2207 C2200 1.409 . S
C2207 C2206 1.362 . S
H2208 C2214 0.930 . S
H2209 C2217 0.930 . S
H2210 C2218 0.930 . S
H2211 C2219 0.930 . S
H2212 C2222 0.930 . S
H2213 C2223 0.930 . S
C2214 H2208 0.930 . S
C2214 C2215 1.355 . S
C2214 C2216 1.415 . S
C2215 C2214 1.355 . S
C2215 C2217 1.419 . S
C2216 C2214 1.415 . S
C2216 C2221 1.425 . S
C2216 C2223 1.409 . S
C2217 H2209 0.930 . S
C2217 C2215 1.419 . S
C2217 C2218 1.362 . S
C2218 H2210 0.930 . S
C2218 C2217 1.362 . S
C2218 C2221 1.409 . S
C2219 H2211 0.930 . S
C2219 C2220 1.355 . S
C2219 C2221 1.415 . S
C2220 C2219 1.355 . S
C2220 C2222 1.419 . S
C2221 C2216 1.425 . S
C2221 C2218 1.409 . S
C2221 C2219 1.415 . S
C2222 H2212 0.930 . S
C2222 C2220 1.419 . S
C2222 C2223 1.362 . S
C2223 H2213 0.930 . S
C2223 C2216 1.409 . S
C2223 C2222 1.362 . S
H2224 C2230 0.930 . S
H2225 C2233 0.930 . S
H2226 C2234 0.930 . S
H2227 C2235 0.930 . S
H2228 C2238 0.930 . S
H2229 C2239 0.930 . S
C2230 H2224 0.930 . S
C2230 C2231 1.355 . S
C2230 C2232 1.415 . S
C2231 C2230 1.355 . S
C2231 C2233 1.419 . S
C2232 C2230 1.415 . S
C2232 C2237 1.425 . S
C2232 C2239 1.409 . S
C2233 H2225 0.930 . S
C2233 C2231 1.419 . S
C2233 C2234 1.362 . S
C2234 H2226 0.930 . S
C2234 C2233 1.362 . S
C2234 C2237 1.409 . S
C2235 H2227 0.930 . S
C2235 C2236 1.355 . S
C2235 C2237 1.415 . S
C2236 C2235 1.355 . S
C2236 C2238 1.419 . S
C2237 C2232 1.425 . S
C2237 C2234 1.409 . S
C2237 C2235 1.415 . S
C2238 H2228 0.930 . S
C2238 C2236 1.419 . S
C2238 C2239 1.362 . S
C2239 H2229 0.930 . S
C2239 C2232 1.409 . S
C2239 C2238 1.362 . S
H2240 C2246 0.930 . S
H2241 C2249 0.930 . S
H2242 C2250 0.930 . S
H2243 C2251 0.930 . S
H2244 C2254 0.930 . S
H2245 C2255 0.930 . S
C2246 H2240 0.930 . S
C2246 C2247 1.355 . S
C2246 C2248 1.415 . S
C2247 C2246 1.355 . S
C2247 C2249 1.419 . S
C2248 C2246 1.415 . S
C2248 C2253 1.425 1_554 S
C2248 C2255 1.409 1_554 S
C2249 H2241 0.930 . S
C2249 C2247 1.419 . S
C2249 C2250 1.362 . S
C2250 H2242 0.930 . S
C2250 C2249 1.362 . S
C2250 C2253 1.409 1_554 S
C2251 H2243 0.930 . S
C2251 C2252 1.355 . S
C2251 C2253 1.415 . S
C2252 C2251 1.355 . S
C2252 C2254 1.419 . S
C2253 C2248 1.425 1_556 S
C2253 C2250 1.409 1_556 S
C2253 C2251 1.415 . S
C2254 H2244 0.930 . S
C2254 C2252 1.419 . S
C2254 C2255 1.362 . S
C2255 H2245 0.930 . S
C2255 C2248 1.409 1_556 S
C2255 C2254 1.362 . S
H2256 C2262 0.930 . S
H2257 C2265 0.930 . S
H2258 C2266 0.930 . S
H2259 C2267 0.930 . S
H2260 C2270 0.930 . S
H2261 C2271 0.930 . S
C2262 H2256 0.930 . S
C2262 C2263 1.355 1_455 S
C2262 C2264 1.415 . S
C2263 C2262 1.355 1_655 S
C2263 C2265 1.419 . S
C2264 C2262 1.415 . S
C2264 C2269 1.425 1_455 S
C2264 C2271 1.409 . S
C2265 H2257 0.930 . S
C2265 C2263 1.419 . S
C2265 C2266 1.362 . S
C2266 H2258 0.930 . S
C2266 C2265 1.362 . S
C2266 C2269 1.409 . S
C2267 H2259 0.930 . S
C2267 C2268 1.355 1_655 S
C2267 C2269 1.415 . S
C2268 C2267 1.355 1_455 S
C2268 C2270 1.419 . S
C2269 C2264 1.425 1_655 S
C2269 C2266 1.409 . S
C2269 C2267 1.415 . S
C2270 H2260 0.930 . S
C2270 C2268 1.419 . S
C2270 C2271 1.362 . S
C2271 H2261 0.930 . S
C2271 C2264 1.409 . S
C2271 C2270 1.362 . S
H2272 C2278 0.930 . S
H2273 C2281 0.930 . S
H2274 C2282 0.972 . S
H2275 C2283 0.930 . S
H2276 C2286 0.930 . S
H2277 C2287 0.972 . S
C2278 H2272 0.930 . S
C2278 C2279 1.355 1_655 S
C2278 C2280 1.415 . S
C2279 C2278 1.355 1_455 S
C2279 C2281 1.419 . S
C2280 C2278 1.415 . S
C2280 C2285 1.425 1_654 S
C2280 C2287 1.409 1_554 S
C2281 H2273 0.930 . S
C2281 C2279 1.419 . S
C2281 C2282 1.362 . S
C2282 H2274 0.972 . S
C2282 C2281 1.362 . S
C2282 C2285 1.409 1_554 S
C2283 H2275 0.930 . S
C2283 C2284 1.355 1_455 S
C2283 C2285 1.415 . S
C2284 C2283 1.355 1_655 S
C2284 C2286 1.419 . S
C2285 C2280 1.425 1_456 S
C2285 C2282 1.409 1_556 S
C2285 C2283 1.415 . S
C2286 H2276 0.930 . S
C2286 C2284 1.419 . S
C2286 C2287 1.362 . S
C2287 H2277 0.972 . S
C2287 C2280 1.409 1_556 S
C2287 C2286 1.362 . S
H2288 C2294 0.930 . S
H2289 C2297 0.930 . S
H2290 C2298 0.930 . S
H2291 C2299 0.930 . S
H2292 C2302 0.930 . S
H2293 C2303 0.930 . S
C2294 H2288 0.930 . S
C2294 C2295 1.355 . S
C2294 C2296 1.415 . S
C2295 C2294 1.355 . S
C2295 C2297 1.419 . S
C2296 C2294 1.415 . S
C2296 C2301 1.425 . S
C2296 C2303 1.409 . S
C2297 H2289 0.930 . S
C2297 C2295 1.419 . S
C2297 C2298 1.362 . S
C2298 H2290 0.930 . S
C2298 C2297 1.362 . S
C2298 C2301 1.409 . S
C2299 H2291 0.930 . S
C2299 C2300 1.355 . S
C2299 C2301 1.415 . S
C2300 C2299 1.355 . S
C2300 C2302 1.419 . S
C2301 C2296 1.425 . S
C2301 C2298 1.409 . S
C2301 C2299 1.415 . S
C2302 H2292 0.930 . S
C2302 C2300 1.419 . S
C2302 C2303 1.362 . S
C2303 H2293 0.930 . S
C2303 C2296 1.409 . S
C2303 C2302 1.362 . S
H2304 C2310 0.930 . S
H2305 C2313 0.930 . S
H2306 C2314 0.930 . S
H2307 C2315 0.930 . S
H2308 C2318 0.930 . S
H2309 C2319 0.930 . S
C2310 H2304 0.930 . S
C2310 C2311 1.355 . S
C2310 C2312 1.415 . S
C2311 C2310 1.355 . S
C2311 C2313 1.419 . S
C2312 C2310 1.415 . S
C2312 C2317 1.425 . S
C2312 C2319 1.409 . S
C2313 H2305 0.930 . S
C2313 C2311 1.419 . S
C2313 C2314 1.362 . S
C2314 H2306 0.930 . S
C2314 C2313 1.362 . S
C2314 C2317 1.409 . S
C2315 H2307 0.930 . S
C2315 C2316 1.355 . S
C2315 C2317 1.415 . S
C2316 C2315 1.355 . S
C2316 C2318 1.419 . S
C2317 C2312 1.425 . S
C2317 C2314 1.409 . S
C2317 C2315 1.415 . S
C2318 H2308 0.930 . S
C2318 C2316 1.419 . S
C2318 C2319 1.362 . S
C2319 H2309 0.930 . S
C2319 C2312 1.409 . S
C2319 C2318 1.362 . S
H2320 C2326 0.930 . S
H2321 C2329 0.930 . S
H2322 C2330 0.930 . S
H2323 C2331 0.930 . S
H2324 C2334 0.930 . S
H2325 C2335 0.930 . S
C2326 H2320 0.930 . S
C2326 C2327 1.355 . S
C2326 C2328 1.415 . S
C2327 C2326 1.355 . S
C2327 C2329 1.419 . S
C2328 C2326 1.415 . S
C2328 C2333 1.425 . S
C2328 C2335 1.409 . S
C2329 H2321 0.930 . S
C2329 C2327 1.419 . S
C2329 C2330 1.362 . S
C2330 H2322 0.930 . S
C2330 C2329 1.362 . S
C2330 C2333 1.409 . S
C2331 H2323 0.930 . S
C2331 C2332 1.355 . S
C2331 C2333 1.415 . S
C2332 C2331 1.355 . S
C2332 C2334 1.419 . S
C2333 C2328 1.425 . S
C2333 C2330 1.409 . S
C2333 C2331 1.415 . S
C2334 H2324 0.930 . S
C2334 C2332 1.419 . S
C2334 C2335 1.362 . S
C2335 H2325 0.930 . S
C2335 C2328 1.409 . S
C2335 C2334 1.362 . S
H2336 C2342 0.930 . S
H2337 C2345 0.930 . S
H2338 C2346 0.930 . S
H2339 C2347 0.930 . S
H2340 C2350 0.930 . S
H2341 C2351 0.930 . S
C2342 H2336 0.930 . S
C2342 C2343 1.355 . S
C2342 C2344 1.415 . S
C2343 C2342 1.355 . S
C2343 C2345 1.419 . S
C2344 C2342 1.415 . S
C2344 C2349 1.425 . S
C2344 C2351 1.409 . S
C2345 H2337 0.930 . S
C2345 C2343 1.419 . S
C2345 C2346 1.362 . S
C2346 H2338 0.930 . S
C2346 C2345 1.362 . S
C2346 C2349 1.409 . S
C2347 H2339 0.930 . S
C2347 C2348 1.355 . S
C2347 C2349 1.415 . S
C2348 C2347 1.355 . S
C2348 C2350 1.419 . S
C2349 C2344 1.425 . S
C2349 C2346 1.409 . S
C2349 C2347 1.415 . S
C2350 H2340 0.930 . S
C2350 C2348 1.419 . S
C2350 C2351 1.362 . S
C2351 H2341 0.930 . S
C2351 C2344 1.409 . S
C2351 C2350 1.362 . S
H2352 C2358 0.930 . S
H2353 C2361 0.930 . S
H2354 C2362 0.930 . S
H2355 C2363 0.930 . S
H2356 C2366 0.930 . S
H2357 C2367 0.930 . S
C2358 H2352 0.930 . S
C2358 C2359 1.355 . S
C2358 C2360 1.415 . S
C2359 C2358 1.355 . S
C2359 C2361 1.419 . S
C2360 C2358 1.415 . S
C2360 C2365 1.425 . S
C2360 C2367 1.409 . S
C2361 H2353 0.930 . S
C2361 C2359 1.419 . S
C2361 C2362 1.362 . S
C2362 H2354 0.930 . S
C2362 C2361 1.362 . S
C2362 C2365 1.409 . S
C2363 H2355 0.930 . S
C2363 C2364 1.355 . S
C2363 C2365 1.415 . S
C2364 C2363 1.355 . S
C2364 C2366 1.419 . S
C2365 C2360 1.425 . S
C2365 C2362 1.409 . S
C2365 C2363 1.415 . S
C2366 H2356 0.930 . S
C2366 C2364 1.419 . S
C2366 C2367 1.362 . S
C2367 H2357 0.930 . S
C2367 C2360 1.409 . S
C2367 C2366 1.362 . S
H2368 C2374 0.930 . S
H2369 C2377 0.930 . S
H2370 C2378 0.930 . S
H2371 C2379 0.930 . S
H2372 C2382 0.930 . S
H2373 C2383 0.930 . S
C2374 H2368 0.930 . S
C2374 C2375 1.355 . S
C2374 C2376 1.415 . S
C2375 C2374 1.355 . S
C2375 C2377 1.419 . S
C2376 C2374 1.415 . S
C2376 C2381 1.425 . S
C2376 C2383 1.409 . S
C2377 H2369 0.930 . S
C2377 C2375 1.419 . S
C2377 C2378 1.362 . S
C2378 H2370 0.930 . S
C2378 C2377 1.362 . S
C2378 C2381 1.409 . S
C2379 H2371 0.930 . S
C2379 C2380 1.355 . S
C2379 C2381 1.415 . S
C2380 C2379 1.355 . S
C2380 C2382 1.419 . S
C2381 C2376 1.425 . S
C2381 C2378 1.409 . S
C2381 C2379 1.415 . S
C2382 H2372 0.930 . S
C2382 C2380 1.419 . S
C2382 C2383 1.362 . S
C2383 H2373 0.930 . S
C2383 C2376 1.409 . S
C2383 C2382 1.362 . S
H2384 C2390 0.930 . S
H2385 C2393 0.930 . S
H2386 C2394 0.930 . S
H2387 C2395 0.930 . S
H2388 C2398 0.930 . S
H2389 C2399 0.930 . S
C2390 H2384 0.930 . S
C2390 C2391 1.355 . S
C2390 C2392 1.415 . S
C2391 C2390 1.355 . S
C2391 C2393 1.419 . S
C2392 C2390 1.415 . S
C2392 C2397 1.425 . S
C2392 C2399 1.409 . S
C2393 H2385 0.930 . S
C2393 C2391 1.419 . S
C2393 C2394 1.362 . S
C2394 H2386 0.930 . S
C2394 C2393 1.362 . S
C2394 C2397 1.409 . S
C2395 H2387 0.930 . S
C2395 C2396 1.355 . S
C2395 C2397 1.415 . S
C2396 C2395 1.355 . S
C2396 C2398 1.419 . S
C2397 C2392 1.425 . S
C2397 C2394 1.409 . S
C2397 C2395 1.415 . S
C2398 H2388 0.930 . S
C2398 C2396 1.419 . S
C2398 C2399 1.362 . S
C2399 H2389 0.930 . S
C2399 C2392 1.409 . S
C2399 C2398 1.362 . S
H2400 C2406 0.930 . S
H2401 C2409 0.930 . S
H2402 C2410 0.930 . S
H2403 C2411 0.930 . S
H2404 C2414 0.930 . S
H2405 C2415 0.930 . S
C2406 H2400 0.930 . S
C2406 C2407 1.355 . S
C2406 C2408 1.415 . S
C2407 C2406 1.355 . S
C2407 C2409 1.419 . S
C2408 C2406 1.415 . S
C2408 C2413 1.425 . S
C2408 C2415 1.409 . S
C2409 H2401 0.930 . S
C2409 C2407 1.419 . S
C2409 C2410 1.362 . S
C2410 H2402 0.930 . S
C2410 C2409 1.362 . S
C2410 C2413 1.409 . S
C2411 H2403 0.930 . S
C2411 C2412 1.355 . S
C2411 C2413 1.415 . S
C2412 C2411 1.355 . S
C2412 C2414 1.419 . S
C2413 C2408 1.425 . S
C2413 C2410 1.409 . S
C2413 C2411 1.415 . S
C2414 H2404 0.930 . S
C2414 C2412 1.419 . S
C2414 C2415 1.362 . S
C2415 H2405 0.930 . S
C2415 C2408 1.409 . S
C2415 C2414 1.362 . S
H2416 C2422 0.930 . S
H2417 C2425 0.930 . S
H2418 C2426 0.930 . S
H2419 C2427 0.930 . S
H2420 C2430 0.930 . S
H2421 C2431 0.930 . S
C2422 H2416 0.930 . S
C2422 C2423 1.355 . S
C2422 C2424 1.415 . S
C2423 C2422 1.355 . S
C2423 C2425 1.419 . S
C2424 C2422 1.415 . S
C2424 C2429 1.425 . S
C2424 C2431 1.409 . S
C2425 H2417 0.930 . S
C2425 C2423 1.419 . S
C2425 C2426 1.362 . S
C2426 H2418 0.930 . S
C2426 C2425 1.362 . S
C2426 C2429 1.409 . S
C2427 H2419 0.930 . S
C2427 C2428 1.355 . S
C2427 C2429 1.415 . S
C2428 C2427 1.355 . S
C2428 C2430 1.419 . S
C2429 C2424 1.425 . S
C2429 C2426 1.409 . S
C2429 C2427 1.415 . S
C2430 H2420 0.930 . S
C2430 C2428 1.419 . S
C2430 C2431 1.362 . S
C2431 H2421 0.930 . S
C2431 C2424 1.409 . S
C2431 C2430 1.362 . S
H2432 C2438 0.930 . S
H2433 C2441 0.930 . S
H2434 C2442 0.930 . S
H2435 C2443 0.930 . S
H2436 C2446 0.930 . S
H2437 C2447 0.930 . S
C2438 H2432 0.930 . S
C2438 C2439 1.355 . S
C2438 C2440 1.415 . S
C2439 C2438 1.355 . S
C2439 C2441 1.419 . S
C2440 C2438 1.415 . S
C2440 C2445 1.425 . S
C2440 C2447 1.409 . S
C2441 H2433 0.930 . S
C2441 C2439 1.419 . S
C2441 C2442 1.362 . S
C2442 H2434 0.930 . S
C2442 C2441 1.362 . S
C2442 C2445 1.409 . S
C2443 H2435 0.930 . S
C2443 C2444 1.355 . S
C2443 C2445 1.415 . S
C2444 C2443 1.355 . S
C2444 C2446 1.419 . S
C2445 C2440 1.425 . S
C2445 C2442 1.409 . S
C2445 C2443 1.415 . S
C2446 H2436 0.930 . S
C2446 C2444 1.419 . S
C2446 C2447 1.362 . S
C2447 H2437 0.930 . S
C2447 C2440 1.409 . S
C2447 C2446 1.362 . S
H2448 C2454 0.930 . S
H2449 C2457 0.930 . S
H2450 C2458 0.930 . S
H2451 C2459 0.930 . S
H2452 C2462 0.930 . S
H2453 C2463 0.930 . S
C2454 H2448 0.930 . S
C2454 C2455 1.355 . S
C2454 C2456 1.415 . S
C2455 C2454 1.355 . S
C2455 C2457 1.419 . S
C2456 C2454 1.415 . S
C2456 C2461 1.425 . S
C2456 C2463 1.409 . S
C2457 H2449 0.930 . S
C2457 C2455 1.419 . S
C2457 C2458 1.362 . S
C2458 H2450 0.930 . S
C2458 C2457 1.362 . S
C2458 C2461 1.409 . S
C2459 H2451 0.930 . S
C2459 C2460 1.355 . S
C2459 C2461 1.415 . S
C2460 C2459 1.355 . S
C2460 C2462 1.419 . S
C2461 C2456 1.425 . S
C2461 C2458 1.409 . S
C2461 C2459 1.415 . S
C2462 H2452 0.930 . S
C2462 C2460 1.419 . S
C2462 C2463 1.362 . S
C2463 H2453 0.930 . S
C2463 C2456 1.409 . S
C2463 C2462 1.362 . S
H2464 C2470 0.930 . S
H2465 C2473 0.930 . S
H2466 C2474 0.930 . S
H2467 C2475 0.930 . S
H2468 C2478 0.930 . S
H2469 C2479 0.930 . S
C2470 H2464 0.930 . S
C2470 C2471 1.355 . S
C2470 C2472 1.415 . S
C2471 C2470 1.355 . S
C2471 C2473 1.419 . S
C2472 C2470 1.415 . S
C2472 C2477 1.425 . S
C2472 C2479 1.409 . S
C2473 H2465 0.930 . S
C2473 C2471 1.419 . S
C2473 C2474 1.362 . S
C2474 H2466 0.930 . S
C2474 C2473 1.362 . S
C2474 C2477 1.409 . S
C2475 H2467 0.930 . S
C2475 C2476 1.355 . S
C2475 C2477 1.415 . S
C2476 C2475 1.355 . S
C2476 C2478 1.419 . S
C2477 C2472 1.425 . S
C2477 C2474 1.409 . S
C2477 C2475 1.415 . S
C2478 H2468 0.930 . S
C2478 C2476 1.419 . S
C2478 C2479 1.362 . S
C2479 H2469 0.930 . S
C2479 C2472 1.409 . S
C2479 C2478 1.362 . S
H2480 C2486 0.930 . S
H2481 C2489 0.930 . S
H2482 C2490 0.930 . S
H2483 C2491 0.930 . S
H2484 C2494 0.930 . S
H2485 C2495 0.930 . S
C2486 H2480 0.930 . S
C2486 C2487 1.355 . S
C2486 C2488 1.415 . S
C2487 C2486 1.355 . S
C2487 C2489 1.419 . S
C2488 C2486 1.415 . S
C2488 C2493 1.425 . S
C2488 C2495 1.409 . S
C2489 H2481 0.930 . S
C2489 C2487 1.419 . S
C2489 C2490 1.362 . S
C2490 H2482 0.930 . S
C2490 C2489 1.362 . S
C2490 C2493 1.409 . S
C2491 H2483 0.930 . S
C2491 C2492 1.355 . S
C2491 C2493 1.415 . S
C2492 C2491 1.355 . S
C2492 C2494 1.419 . S
C2493 C2488 1.425 . S
C2493 C2490 1.409 . S
C2493 C2491 1.415 . S
C2494 H2484 0.930 . S
C2494 C2492 1.419 . S
C2494 C2495 1.362 . S
C2495 H2485 0.930 . S
C2495 C2488 1.409 . S
C2495 C2494 1.362 . S
H2496 C2502 0.930 . S
H2497 C2505 0.930 . S
H2498 C2506 0.930 . S
H2499 C2507 0.930 . S
H2500 C2510 0.930 . S
H2501 C2511 0.930 . S
C2502 H2496 0.930 . S
C2502 C2503 1.355 . S
C2502 C2504 1.415 . S
C2503 C2502 1.355 . S
C2503 C2505 1.419 . S
C2504 C2502 1.415 . S
C2504 C2509 1.425 . S
C2504 C2511 1.409 . S
C2505 H2497 0.930 . S
C2505 C2503 1.419 . S
C2505 C2506 1.362 . S
C2506 H2498 0.930 . S
C2506 C2505 1.362 . S
C2506 C2509 1.409 . S
C2507 H2499 0.930 . S
C2507 C2508 1.355 . S
C2507 C2509 1.415 . S
C2508 C2507 1.355 . S
C2508 C2510 1.419 . S
C2509 C2504 1.425 . S
C2509 C2506 1.409 . S
C2509 C2507 1.415 . S
C2510 H2500 0.930 . S
C2510 C2508 1.419 . S
C2510 C2511 1.362 . S
C2511 H2501 0.930 . S
C2511 C2504 1.409 . S
C2511 C2510 1.362 . S
H2512 C2518 0.930 . S
H2513 C2521 0.930 . S
H2514 C2522 0.930 . S
H2515 C2523 0.930 . S
H2516 C2526 0.930 . S
H2517 C2527 0.930 . S
C2518 H2512 0.930 . S
C2518 C2519 1.355 . S
C2518 C2520 1.415 . S
C2519 C2518 1.355 . S
C2519 C2521 1.419 . S
C2520 C2518 1.415 . S
C2520 C2525 1.425 . S
C2520 C2527 1.409 . S
C2521 H2513 0.930 . S
C2521 C2519 1.419 . S
C2521 C2522 1.362 . S
C2522 H2514 0.930 . S
C2522 C2521 1.362 . S
C2522 C2525 1.409 . S
C2523 H2515 0.930 . S
C2523 C2524 1.355 . S
C2523 C2525 1.415 . S
C2524 C2523 1.355 . S
C2524 C2526 1.419 . S
C2525 C2520 1.425 . S
C2525 C2522 1.409 . S
C2525 C2523 1.415 . S
C2526 H2516 0.930 . S
C2526 C2524 1.419 . S
C2526 C2527 1.362 . S
C2527 H2517 0.930 . S
C2527 C2520 1.409 . S
C2527 C2526 1.362 . S
H2528 C2534 0.930 . S
H2529 C2537 0.930 . S
H2530 C2538 0.930 . S
H2531 C2539 0.930 . S
H2532 C2542 0.930 . S
H2533 C2543 0.930 . S
C2534 H2528 0.930 . S
C2534 C2535 1.355 . S
C2534 C2536 1.415 . S
C2535 C2534 1.355 . S
C2535 C2537 1.419 . S
C2536 C2534 1.415 . S
C2536 C2541 1.425 . S
C2536 C2543 1.409 . S
C2537 H2529 0.930 . S
C2537 C2535 1.419 . S
C2537 C2538 1.362 . S
C2538 H2530 0.930 . S
C2538 C2537 1.362 . S
C2538 C2541 1.409 . S
C2539 H2531 0.930 . S
C2539 C2540 1.355 . S
C2539 C2541 1.415 . S
C2540 C2539 1.355 . S
C2540 C2542 1.419 . S
C2541 C2536 1.425 . S
C2541 C2538 1.409 . S
C2541 C2539 1.415 . S
C2542 H2532 0.930 . S
C2542 C2540 1.419 . S
C2542 C2543 1.362 . S
C2543 H2533 0.930 . S
C2543 C2536 1.409 . S
C2543 C2542 1.362 . S
H2544 C2550 0.930 . S
H2545 C2553 0.930 . S
H2546 C2554 0.930 . S
H2547 C2555 0.930 . S
H2548 C2558 0.930 . S
H2549 C2559 0.930 . S
C2550 H2544 0.930 . S
C2550 C2551 1.355 . S
C2550 C2552 1.415 . S
C2551 C2550 1.355 . S
C2551 C2553 1.419 . S
C2552 C2550 1.415 . S
C2552 C2557 1.425 . S
C2552 C2559 1.409 . S
C2553 H2545 0.930 . S
C2553 C2551 1.419 . S
C2553 C2554 1.362 . S
C2554 H2546 0.930 . S
C2554 C2553 1.362 . S
C2554 C2557 1.409 . S
C2555 H2547 0.930 . S
C2555 C2556 1.355 . S
C2555 C2557 1.415 . S
C2556 C2555 1.355 . S
C2556 C2558 1.419 . S
C2557 C2552 1.425 . S
C2557 C2554 1.409 . S
C2557 C2555 1.415 . S
C2558 H2548 0.930 . S
C2558 C2556 1.419 . S
C2558 C2559 1.362 . S
C2559 H2549 0.930 . S
C2559 C2552 1.409 . S
C2559 C2558 1.362 . S
H2560 C2566 0.930 . S
H2561 C2569 0.930 . S
H2562 C2570 0.930 . S
H2563 C2571 0.930 . S
H2564 C2574 0.930 . S
H2565 C2575 0.930 . S
C2566 H2560 0.930 . S
C2566 C2567 1.355 . S
C2566 C2568 1.415 . S
C2567 C2566 1.355 . S
C2567 C2569 1.419 . S
C2568 C2566 1.415 . S
C2568 C2573 1.425 1_545 S
C2568 C2575 1.409 1_545 S
C2569 H2561 0.930 . S
C2569 C2567 1.419 . S
C2569 C2570 1.362 . S
C2570 H2562 0.930 . S
C2570 C2569 1.362 . S
C2570 C2573 1.409 1_545 S
C2571 H2563 0.930 . S
C2571 C2572 1.355 . S
C2571 C2573 1.415 . S
C2572 C2571 1.355 . S
C2572 C2574 1.419 . S
C2573 C2568 1.425 1_565 S
C2573 C2570 1.409 1_565 S
C2573 C2571 1.415 . S
C2574 H2564 0.930 . S
C2574 C2572 1.419 . S
C2574 C2575 1.362 . S
C2575 H2565 0.930 . S
C2575 C2568 1.409 1_565 S
C2575 C2574 1.362 . S
H2576 C2582 0.930 . S
H2577 C2585 0.930 . S
H2578 C2586 0.930 . S
H2579 C2587 0.930 . S
H2580 C2590 0.930 . S
H2581 C2591 0.930 . S
C2582 H2576 0.930 . S
C2582 C2583 1.355 . S
C2582 C2584 1.415 . S
C2583 C2582 1.355 . S
C2583 C2585 1.419 1_565 S
C2584 C2582 1.415 . S
C2584 C2589 1.425 1_565 S
C2584 C2591 1.409 . S
C2585 H2577 0.930 . S
C2585 C2583 1.419 1_545 S
C2585 C2586 1.362 . S
C2586 H2578 0.930 . S
C2586 C2585 1.362 . S
C2586 C2589 1.409 . S
C2587 H2579 0.930 . S
C2587 C2588 1.355 1_545 S
C2587 C2589 1.415 . S
C2588 C2587 1.355 1_565 S
C2588 C2590 1.419 . S
C2589 C2584 1.425 1_545 S
C2589 C2586 1.409 . S
C2589 C2587 1.415 . S
C2590 H2580 0.930 . S
C2590 C2588 1.419 . S
C2590 C2591 1.362 . S
C2591 H2581 0.930 . S
C2591 C2584 1.409 . S
C2591 C2590 1.362 . S
H2592 C2598 0.930 . S
H2593 C2601 0.930 . S
H2594 C2602 0.930 1_565 S
H2595 C2603 0.930 . S
H2596 C2606 0.930 . S
H2597 C2607 0.930 1_545 S
C2598 H2592 0.930 . S
C2598 C2599 1.355 . S
C2598 C2600 1.415 . S
C2599 C2598 1.355 . S
C2599 C2601 1.419 . S
C2600 C2598 1.415 . S
C2600 C2605 1.425 1_545 S
C2600 C2607 1.409 1_545 S
C2601 H2593 0.930 . S
C2601 C2599 1.419 . S
C2601 C2602 1.362 . S
C2602 H2594 0.930 1_545 S
C2602 C2601 1.362 . S
C2602 C2605 1.409 1_545 S
C2603 H2595 0.930 . S
C2603 C2604 1.355 . S
C2603 C2605 1.415 . S
C2604 C2603 1.355 . S
C2604 C2606 1.419 . S
C2605 C2600 1.425 1_565 S
C2605 C2602 1.409 1_565 S
C2605 C2603 1.415 . S
C2606 H2596 0.930 . S
C2606 C2604 1.419 . S
C2606 C2607 1.362 . S
C2607 H2597 0.930 1_565 S
C2607 C2600 1.409 1_565 S
C2607 C2606 1.362 . S
H2608 C2614 0.937 1_564 S
H2609 C2617 0.930 . S
H2610 C2618 0.930 . S
H2611 C2619 0.937 1_556 S
H2612 C2622 0.930 . S
H2613 C2623 0.930 . S
C2614 H2608 0.937 1_546 S
C2614 C2615 1.344 . S
C2614 C2616 1.418 1_556 S
C2615 C2614 1.344 . S
C2615 C2617 1.419 . S
C2616 C2614 1.418 1_554 S
C2616 C2621 1.425 1_554 S
C2616 C2623 1.409 1_545 S
C2617 H2609 0.930 . S
C2617 C2615 1.419 . S
C2617 C2618 1.362 . S
C2618 H2610 0.930 . S
C2618 C2617 1.362 . S
C2618 C2621 1.409 . S
C2619 H2611 0.937 1_554 S
C2619 C2620 1.344 . S
C2619 C2621 1.418 1_554 S
C2620 C2619 1.344 . S
C2620 C2622 1.419 1_545 S
C2621 C2616 1.425 1_556 S
C2621 C2618 1.409 . S
C2621 C2619 1.418 1_556 S
C2622 H2612 0.930 . S
C2622 C2620 1.419 1_565 S
C2622 C2623 1.362 . S
C2623 H2613 0.930 . S
C2623 C2616 1.409 1_565 S
C2623 C2622 1.362 . S
H2624 C2630 0.930 . S
H2625 C2633 0.930 . S
H2626 C2634 0.930 . S
H2627 C2635 0.930 . S
H2628 C2638 0.930 . S
H2629 C2639 0.930 . S
C2630 H2624 0.930 . S
C2630 C2631 1.355 . S
C2630 C2632 1.415 1_565 S
C2631 C2630 1.355 . S
C2631 C2633 1.419 . S
C2632 C2630 1.415 1_545 S
C2632 C2637 1.425 1_545 S
C2632 C2639 1.409 . S
C2633 H2625 0.930 . S
C2633 C2631 1.419 . S
C2633 C2634 1.362 . S
C2634 H2626 0.930 . S
C2634 C2633 1.362 . S
C2634 C2637 1.409 . S
C2635 H2627 0.930 . S
C2635 C2636 1.355 . S
C2635 C2637 1.415 1_545 S
C2636 C2635 1.355 . S
C2636 C2638 1.419 . S
C2637 C2632 1.425 1_565 S
C2637 C2634 1.409 . S
C2637 C2635 1.415 1_565 S
C2638 H2628 0.930 . S
C2638 C2636 1.419 . S
C2638 C2639 1.362 . S
C2639 H2629 0.930 . S
C2639 C2632 1.409 . S
C2639 C2638 1.362 . S
H2640 C2646 0.930 . S
H2641 C2649 0.930 . S
H2642 C2650 0.930 . S
H2643 C2651 0.930 . S
H2644 C2654 0.930 . S
H2645 C2655 0.930 . S
C2646 H2640 0.930 . S
C2646 C2647 1.355 1_565 S
C2646 C2648 1.415 . S
C2647 C2646 1.355 1_545 S
C2647 C2649 1.419 . S
C2648 C2646 1.415 . S
C2648 C2653 1.425 1_565 S
C2648 C2655 1.409 . S
C2649 H2641 0.930 . S
C2649 C2647 1.419 . S
C2649 C2650 1.362 . S
C2650 H2642 0.930 . S
C2650 C2649 1.362 . S
C2650 C2653 1.409 . S
C2651 H2643 0.930 . S
C2651 C2652 1.355 . S
C2651 C2653 1.415 . S
C2652 C2651 1.355 . S
C2652 C2654 1.419 1_545 S
C2653 C2648 1.425 1_545 S
C2653 C2650 1.409 . S
C2653 C2651 1.415 . S
C2654 H2644 0.930 . S
C2654 C2652 1.419 1_565 S
C2654 C2655 1.362 . S
C2655 H2645 0.930 . S
C2655 C2648 1.409 . S
C2655 C2654 1.362 . S
H2656 C2662 0.930 . S
H2657 C2665 0.930 . S
H2658 C2666 0.930 . S
H2659 C2667 0.930 . S
H2660 C2670 0.930 . S
H2661 C2671 0.930 . S
C2662 H2656 0.930 . S
C2662 C2663 1.355 . S
C2662 C2664 1.415 . S
C2663 C2662 1.355 . S
C2663 C2665 1.419 . S
C2664 C2662 1.415 . S
C2664 C2669 1.425 1_565 S
C2664 C2671 1.409 1_565 S
C2665 H2657 0.930 . S
C2665 C2663 1.419 . S
C2665 C2666 1.362 . S
C2666 H2658 0.930 . S
C2666 C2665 1.362 . S
C2666 C2669 1.409 1_565 S
C2667 H2659 0.930 . S
C2667 C2668 1.355 . S
C2667 C2669 1.415 . S
C2668 C2667 1.355 . S
C2668 C2670 1.419 . S
C2669 C2664 1.425 1_545 S
C2669 C2666 1.409 1_545 S
C2669 C2667 1.415 . S
C2670 H2660 0.930 . S
C2670 C2668 1.419 . S
C2670 C2671 1.362 . S
C2671 H2661 0.930 . S
C2671 C2664 1.409 1_545 S
C2671 C2670 1.362 . S
H2672 C2678 0.930 . S
H2673 C2681 0.930 . S
H2674 C2682 0.930 . S
H2675 C2683 0.930 . S
H2676 C2686 0.930 . S
H2677 C2687 0.930 . S
C2678 H2672 0.930 . S
C2678 C2679 1.355 1_545 S
C2678 C2680 1.382 1_554 S
C2679 C2678 1.355 1_565 S
C2679 C2681 1.419 . S
C2680 C2678 1.382 1_556 S
C2680 C2685 1.414 1_546 S
C2680 C2687 1.455 . S
C2681 H2673 0.930 . S
C2681 C2679 1.419 . S
C2681 C2682 1.362 . S
C2682 H2674 0.930 . S
C2682 C2681 1.362 . S
C2682 C2685 1.455 . S
C2683 H2675 0.930 . S
C2683 C2684 1.355 . S
C2683 C2685 1.382 1_556 S
C2684 C2683 1.355 . S
C2684 C2686 1.419 1_565 S
C2685 C2680 1.414 1_564 S
C2685 C2682 1.455 . S
C2685 C2683 1.382 1_554 S
C2686 H2676 0.930 . S
C2686 C2684 1.419 1_545 S
C2686 C2687 1.362 . S
C2687 H2677 0.930 . S
C2687 C2680 1.455 . S
C2687 C2686 1.362 . S
H2688 C2694 0.930 . S
H2689 C2697 0.930 . S
H2690 C2698 0.930 . S
H2691 C2699 0.930 . S
H2692 C2702 0.930 . S
H2693 C2703 0.930 . S
C2694 H2688 0.930 . S
C2694 C2695 1.355 . S
C2694 C2696 1.415 . S
C2695 C2694 1.355 . S
C2695 C2697 1.419 . S
C2696 C2694 1.415 . S
C2696 C2701 1.425 . S
C2696 C2703 1.409 . S
C2697 H2689 0.930 . S
C2697 C2695 1.419 . S
C2697 C2698 1.362 . S
C2698 H2690 0.930 . S
C2698 C2697 1.362 . S
C2698 C2701 1.409 . S
C2699 H2691 0.930 . S
C2699 C2700 1.355 . S
C2699 C2701 1.415 . S
C2700 C2699 1.355 . S
C2700 C2702 1.419 . S
C2701 C2696 1.425 . S
C2701 C2698 1.409 . S
C2701 C2699 1.415 . S
C2702 H2692 0.930 . S
C2702 C2700 1.419 . S
C2702 C2703 1.362 . S
C2703 H2693 0.930 . S
C2703 C2696 1.409 . S
C2703 C2702 1.362 . S
H2704 C2710 0.930 . S
H2705 C2713 0.930 . S
H2706 C2714 0.930 . S
H2707 C2715 0.930 . S
H2708 C2718 0.930 . S
H2709 C2719 0.930 . S
C2710 H2704 0.930 . S
C2710 C2711 1.355 . S
C2710 C2712 1.454 . S
C2711 C2710 1.355 . S
C2711 C2713 1.419 . S
C2712 C2710 1.454 . S
C2712 C2717 1.412 1_556 S
C2712 C2719 1.386 1_556 S
C2713 H2705 0.930 . S
C2713 C2711 1.419 . S
C2713 C2714 1.362 . S
C2714 H2706 0.930 . S
C2714 C2713 1.362 . S
C2714 C2717 1.386 1_556 S
C2715 H2707 0.930 . S
C2715 C2716 1.355 . S
C2715 C2717 1.454 . S
C2716 C2715 1.355 . S
C2716 C2718 1.419 . S
C2717 C2712 1.412 1_554 S
C2717 C2714 1.386 1_554 S
C2717 C2715 1.454 . S
C2718 H2708 0.930 . S
C2718 C2716 1.419 . S
C2718 C2719 1.362 . S
C2719 H2709 0.930 . S
C2719 C2712 1.386 1_554 S
C2719 C2718 1.362 . S
H2720 C2726 0.930 . S
H2721 C2729 0.930 . S
H2722 C2730 0.930 . S
H2723 C2731 0.930 . S
H2724 C2734 0.930 . S
H2725 C2735 0.930 . S
C2726 H2720 0.930 . S
C2726 C2727 1.355 . S
C2726 C2728 1.415 . S
C2727 C2726 1.355 . S
C2727 C2729 1.419 . S
C2728 C2726 1.415 . S
C2728 C2733 1.425 . S
C2728 C2735 1.409 . S
C2729 H2721 0.930 . S
C2729 C2727 1.419 . S
C2729 C2730 1.362 . S
C2730 H2722 0.930 . S
C2730 C2729 1.362 . S
C2730 C2733 1.409 . S
C2731 H2723 0.930 . S
C2731 C2732 1.355 . S
C2731 C2733 1.415 . S
C2732 C2731 1.355 . S
C2732 C2734 1.419 . S
C2733 C2728 1.425 . S
C2733 C2730 1.409 . S
C2733 C2731 1.415 . S
C2734 H2724 0.930 . S
C2734 C2732 1.419 . S
C2734 C2735 1.362 . S
C2735 H2725 0.930 . S
C2735 C2728 1.409 . S
C2735 C2734 1.362 . S
H2736 C2742 0.930 . S
H2737 C2745 0.930 . S
H2738 C2746 0.930 . S
H2739 C2747 0.930 . S
H2740 C2750 0.930 . S
H2741 C2751 0.930 . S
C2742 H2736 0.930 . S
C2742 C2743 1.355 . S
C2742 C2744 1.415 . S
C2743 C2742 1.355 . S
C2743 C2745 1.419 . S
C2744 C2742 1.415 . S
C2744 C2749 1.425 . S
C2744 C2751 1.409 . S
C2745 H2737 0.930 . S
C2745 C2743 1.419 . S
C2745 C2746 1.362 . S
C2746 H2738 0.930 . S
C2746 C2745 1.362 . S
C2746 C2749 1.409 . S
C2747 H2739 0.930 . S
C2747 C2748 1.355 . S
C2747 C2749 1.415 . S
C2748 C2747 1.355 . S
C2748 C2750 1.419 . S
C2749 C2744 1.425 . S
C2749 C2746 1.409 . S
C2749 C2747 1.415 . S
C2750 H2740 0.930 . S
C2750 C2748 1.419 . S
C2750 C2751 1.362 . S
C2751 H2741 0.930 . S
C2751 C2744 1.409 . S
C2751 C2750 1.362 . S
H2752 C2758 0.930 . S
H2753 C2761 0.930 . S
H2754 C2762 0.930 . S
H2755 C2763 0.930 . S
H2756 C2766 0.930 . S
H2757 C2767 0.930 . S
C2758 H2752 0.930 . S
C2758 C2759 1.355 . S
C2758 C2760 1.415 . S
C2759 C2758 1.355 . S
C2759 C2761 1.419 . S
C2760 C2758 1.415 . S
C2760 C2765 1.425 . S
C2760 C2767 1.409 . S
C2761 H2753 0.930 . S
C2761 C2759 1.419 . S
C2761 C2762 1.362 . S
C2762 H2754 0.930 . S
C2762 C2761 1.362 . S
C2762 C2765 1.409 . S
C2763 H2755 0.930 . S
C2763 C2764 1.355 . S
C2763 C2765 1.415 . S
C2764 C2763 1.355 . S
C2764 C2766 1.419 . S
C2765 C2760 1.425 . S
C2765 C2762 1.409 . S
C2765 C2763 1.415 . S
C2766 H2756 0.930 . S
C2766 C2764 1.419 . S
C2766 C2767 1.362 . S
C2767 H2757 0.930 . S
C2767 C2760 1.409 . S
C2767 C2766 1.362 . S
H2768 C2774 0.930 . S
H2769 C2777 0.930 . S
H2770 C2778 0.930 . S
H2771 C2779 0.930 . S
H2772 C2782 0.930 . S
H2773 C2783 0.930 . S
C2774 H2768 0.930 . S
C2774 C2775 1.355 . S
C2774 C2776 1.415 . S
C2775 C2774 1.355 . S
C2775 C2777 1.419 1_556 S
C2776 C2774 1.415 . S
C2776 C2781 1.425 1_556 S
C2776 C2783 1.409 . S
C2777 H2769 0.930 . S
C2777 C2775 1.419 1_554 S
C2777 C2778 1.362 . S
C2778 H2770 0.930 . S
C2778 C2777 1.362 . S
C2778 C2781 1.409 . S
C2779 H2771 0.930 . S
C2779 C2780 1.355 . S
C2779 C2781 1.415 . S
C2780 C2779 1.355 . S
C2780 C2782 1.419 1_554 S
C2781 C2776 1.425 1_554 S
C2781 C2778 1.409 . S
C2781 C2779 1.415 . S
C2782 H2772 0.930 . S
C2782 C2780 1.419 1_556 S
C2782 C2783 1.362 . S
C2783 H2773 0.930 . S
C2783 C2776 1.409 . S
C2783 C2782 1.362 . S
H2784 C2790 0.930 . S
H2785 C2793 0.930 . S
H2786 C2794 0.930 . S
H2787 C2795 0.930 . S
H2788 C2798 0.930 . S
H2789 C2799 0.930 . S
C2790 H2784 0.930 . S
C2790 C2791 1.355 . S
C2790 C2792 1.415 . S
C2791 C2790 1.355 . S
C2791 C2793 1.419 . S
C2792 C2790 1.415 . S
C2792 C2797 1.425 . S
C2792 C2799 1.409 . S
C2793 H2785 0.930 . S
C2793 C2791 1.419 . S
C2793 C2794 1.362 . S
C2794 H2786 0.930 . S
C2794 C2793 1.362 . S
C2794 C2797 1.409 . S
C2795 H2787 0.930 . S
C2795 C2796 1.355 . S
C2795 C2797 1.415 . S
C2796 C2795 1.355 . S
C2796 C2798 1.419 . S
C2797 C2792 1.425 . S
C2797 C2794 1.409 . S
C2797 C2795 1.415 . S
C2798 H2788 0.930 . S
C2798 C2796 1.419 . S
C2798 C2799 1.362 . S
C2799 H2789 0.930 . S
C2799 C2792 1.409 . S
C2799 C2798 1.362 . S
H2800 C2806 0.930 . S
H2801 C2809 0.930 . S
H2802 C2810 0.930 . S
H2803 C2811 0.930 . S
H2804 C2814 0.930 . S
H2805 C2815 0.930 . S
C2806 H2800 0.930 . S
C2806 C2807 1.355 . S
C2806 C2808 1.415 . S
C2807 C2806 1.355 . S
C2807 C2809 1.419 . S
C2808 C2806 1.415 . S
C2808 C2813 1.425 . S
C2808 C2815 1.409 . S
C2809 H2801 0.930 . S
C2809 C2807 1.419 . S
C2809 C2810 1.362 . S
C2810 H2802 0.930 . S
C2810 C2809 1.362 . S
C2810 C2813 1.409 . S
C2811 H2803 0.930 . S
C2811 C2812 1.355 . S
C2811 C2813 1.415 . S
C2812 C2811 1.355 . S
C2812 C2814 1.419 . S
C2813 C2808 1.425 . S
C2813 C2810 1.409 . S
C2813 C2811 1.415 . S
C2814 H2804 0.930 . S
C2814 C2812 1.419 . S
C2814 C2815 1.362 . S
C2815 H2805 0.930 . S
C2815 C2808 1.409 . S
C2815 C2814 1.362 . S
C1287 C15 0.738 . S
C1292 C1089 0.758 . S
C1303 C55 0.525 . S
C1308 C329 0.533 . S
C1319 C95 0.522 . S
C1324 C1009 0.533 . S
C1335 C409 0.597 . S
C1340 C135 0.594 . S
C1351 C175 0.749 . S
C1356 C1169 0.772 . S
C1367 C569 0.773 . S
C1372 C215 0.750 . S
C1383 C1249 0.756 . S
C1388 C255 0.721 . S
C1399 C295 0.551 . S
C1404 C489 0.575 . S
C1415 C325 0.632 . S
C1420 C779 0.637 . S
C1431 C365 0.615 . S
C1436 C19 0.647 . S
C1447 C699 0.729 . S
C1452 C405 0.694 . S
C1463 C99 0.726 . S
C1468 C445 0.711 . S
C1479 C485 0.679 . S
C1484 C859 0.715 . S
C1495 C525 0.534 . S
C1500 C259 0.554 . S
C1511 C565 0.528 . S
C1516 C939 0.546 . S
C1527 C179 0.782 . S
C1532 C605 0.752 . S
C1543 C449 0.686 . S
C1548 C655 0.677 . S
C1559 C969 0.711 . S
C1564 C695 0.675 . S
C1575 C369 0.751 . S
C1580 C735 0.716 . S
C1591 C775 0.700 . S
C1596 C1049 0.713 . S
C1607 C529 0.727 . S
C1612 C815 0.691 . S
C1623 C1209 0.535 . S
C1628 C855 0.522 . S
C1639 C609 0.550 . S
C1644 C895 0.546 . S
C1655 C935 0.740 . S
C1660 C1129 0.773 . S
C1671 C965 0.743 . S
C1676 C139 0.764 . S
C1687 C1005 0.709 . S
C1692 C659 0.745 . S
C1703 C1045 0.733 . S
C1708 C59 0.766 . S
C1719 C1085 0.749 . S
C1724 C739 0.772 . S
C1735 C219 0.781 . S
C1740 C1125 0.751 . S
C1751 C899 0.653 . S
C1756 C1165 0.620 . S
C1767 C1205 0.552 . S
C1772 C299 0.556 . S
C1783 C1245 0.591 . S
C1788 C819 0.594 . S
C1799 C8 2.887 . S
C1804 C728 2.898 . S
C1815 C768 2.889 . S
C1820 C48 2.901 . S
C1831 C88 2.879 . S
C1836 C648 2.884 . S
C1847 C128 2.885 . S
C1852 C688 2.880 . S
C1863 C888 2.879 . S
C1868 C168 2.882 . S
C1879 C208 2.909 . S
C1884 C928 2.896 . S
C1895 C808 2.879 . S
C1900 C248 2.882 . S
C1911 C288 2.926 1_655 S
C1916 C848 2.933 1_455 S
C1927 C1058 2.882 . S
C1932 C338 2.891 . S
C1943 C378 2.924 1_455 S
C1948 C1098 2.932 1_655 S
C1959 C418 2.894 . S
C1964 C978 2.884 . S
C1975 C458 2.932 . S
C1980 C1018 2.934 . S
C1991 C1218 2.930 . S
C1996 C498 2.934 . S
C2007 C1258 2.906 . S
C2012 C538 2.894 . S
C2023 C578 2.931 . S
C2028 C1138 2.934 . S
C2039 C618 2.930 1_455 S
C2044 C1178 2.921 1_655 S
C2055 C9 3.262 . S
C2060 C979 3.262 . S
C2071 C379 3.269 . S
C2076 C49 3.269 . S
C2087 C89 3.248 . S
C2092 C1059 3.248 . S
C2103 C129 3.277 . S
C2108 C459 3.277 . S
C2119 C1139 3.255 . S
C2124 C169 3.255 . S
C2135 C539 3.259 . S
C2140 C209 3.259 . S
C2151 C249 3.278 . S
C2156 C1219 3.278 . S
C2167 C289 3.285 . S
C2172 C619 3.285 . S
C2183 C649 3.258 . S
C2188 C339 3.258 . S
C2199 C729 3.246 . S
C2204 C419 3.246 . S
C2215 C809 3.253 . S
C2220 C499 3.253 . S
C2231 C579 3.279 . S
C2236 C889 3.279 . S
C2247 C689 3.254 . S
C2252 C1019 3.254 . S
C2263 C769 3.254 . S
C2268 C1099 3.254 . S
C2279 C1179 3.259 . S
C2284 C849 3.259 . S
C2295 C1259 3.279 . S
C2300 C929 3.279 . S
C2311 C18 4.539 . S
C2316 C218 4.535 . S
C2327 C258 4.552 . S
C2332 C58 4.557 . S
C2343 C298 4.539 . S
C2348 C98 4.545 . S
C2359 C178 4.534 . S
C2364 C138 4.533 . S
C2375 C328 4.558 . S
C2380 C528 4.561 . S
C2391 C368 4.537 . S
C2396 C568 4.543 . S
C2407 C608 4.552 . S
C2412 C408 4.546 . S
C2423 C448 4.559 . S
C2428 C488 4.561 . S
C2439 C658 4.540 . S
C2444 C858 4.546 . S
C2455 C698 4.535 . S
C2460 C898 4.540 . S
C2471 C738 4.539 . S
C2476 C938 4.545 . S
C2487 C818 4.534 . S
C2492 C778 4.533 . S
C2503 C968 4.537 . S
C2508 C1168 4.542 . S
C2519 C1008 4.533 . S
C2524 C1208 4.535 . S
C2535 C1248 4.540 . S
C2540 C1048 4.546 . S
C2551 C1088 4.558 . S
C2556 C1128 4.553 . S
C2567 C5 0.538 . S
C2572 C165 0.609 . S
C2583 C45 0.546 . S
C2588 C205 0.487 . S
C2599 C245 0.503 . S
C2604 C85 0.576 . S
C2615 C285 0.485 . S
C2620 C125 0.538 . S
C2631 C335 0.615 . S
C2636 C495 0.625 . S
C2647 C535 0.485 . S
C2652 C375 0.516 . S
C2663 C575 0.617 . S
C2668 C415 0.550 . S
C2679 C615 0.489 . S
C2684 C455 0.551 . S
C2695 C645 0.616 . S
C2700 C805 0.624 . S
C2711 C845 0.546 . S
C2716 C685 0.614 . S
C2727 C725 0.508 . S
C2732 C885 0.488 . S
C2743 C925 0.490 . S
C2748 C765 0.553 . S
C2759 C1135 0.626 . S
C2764 C975 0.612 . S
C2775 C1015 0.592 . S
C2780 C1175 0.630 . S
C2791 C1055 0.569 . S
C2796 C1215 0.625 . S
C2807 C1095 0.491 . S
C2812 C1255 0.502 . S
