# Generated by pormake.
# Topology umc, (4)-cn, num edge types: 1
# Building blocks:
#     Node 0, Type 0, BuildingBlock: ESEHIV_clean_sbu_0, # of connection points: 4
#     Node 1, Type 0, BuildingBlock: ESEHIV_clean_sbu_0, # of connection points: 4
#     Node 2, Type 0, BuildingBlock: ESEHIV_clean_sbu_0, # of connection points: 4
#     Node 3, Type 0, BuildingBlock: ESEHIV_clean_sbu_0, # of connection points: 4
#     Node 4, Type 0, BuildingBlock: ESEHIV_clean_sbu_0, # of connection points: 4
#     Node 5, Type 0, BuildingBlock: ESEHIV_clean_sbu_0, # of connection points: 4
#     Node 6, Type 0, BuildingBlock: ESEHIV_clean_sbu_0, # of connection points: 4
#     Node 7, Type 0, BuildingBlock: ESEHIV_clean_sbu_0, # of connection points: 4
#     Node 8, Type 0, BuildingBlock: ESEHIV_clean_sbu_0, # of connection points: 4
#     Node 9, Type 0, BuildingBlock: ESEHIV_clean_sbu_0, # of connection points: 4
#     Node 10, Type 0, BuildingBlock: ESEHIV_clean_sbu_0, # of connection points: 4
#     Node 11, Type 0, BuildingBlock: ESEHIV_clean_sbu_0, # of connection points: 4
#     Node 12, Type 0, BuildingBlock: ESEHIV_clean_sbu_0, # of connection points: 4
#     Node 13, Type 0, BuildingBlock: ESEHIV_clean_sbu_0, # of connection points: 4
#     Node 14, Type 0, BuildingBlock: ESEHIV_clean_sbu_0, # of connection points: 4
#     Node 15, Type 0, BuildingBlock: ESEHIV_clean_sbu_0, # of connection points: 4
#     Edge 16, Type (0, 0), BuildingBlock: CIFDUS_clean_linker_0, # of connection points: 2
#     Edge 17, Type (0, 0), BuildingBlock: CIFDUS_clean_linker_0, # of connection points: 2
#     Edge 18, Type (0, 0), BuildingBlock: CIFDUS_clean_linker_0, # of connection points: 2
#     Edge 19, Type (0, 0), BuildingBlock: CIFDUS_clean_linker_0, # of connection points: 2
#     Edge 20, Type (0, 0), BuildingBlock: CIFDUS_clean_linker_0, # of connection points: 2
#     Edge 21, Type (0, 0), BuildingBlock: CIFDUS_clean_linker_0, # of connection points: 2
#     Edge 22, Type (0, 0), BuildingBlock: CIFDUS_clean_linker_0, # of connection points: 2
#     Edge 23, Type (0, 0), BuildingBlock: CIFDUS_clean_linker_0, # of connection points: 2
#     Edge 24, Type (0, 0), BuildingBlock: CIFDUS_clean_linker_0, # of connection points: 2
#     Edge 25, Type (0, 0), BuildingBlock: CIFDUS_clean_linker_0, # of connection points: 2
#     Edge 26, Type (0, 0), BuildingBlock: CIFDUS_clean_linker_0, # of connection points: 2
#     Edge 27, Type (0, 0), BuildingBlock: CIFDUS_clean_linker_0, # of connection points: 2
#     Edge 28, Type (0, 0), BuildingBlock: CIFDUS_clean_linker_0, # of connection points: 2
#     Edge 29, Type (0, 0), BuildingBlock: CIFDUS_clean_linker_0, # of connection points: 2
#     Edge 30, Type (0, 0), BuildingBlock: CIFDUS_clean_linker_0, # of connection points: 2
#     Edge 31, Type (0, 0), BuildingBlock: CIFDUS_clean_linker_0, # of connection points: 2
#     Edge 32, Type (0, 0), BuildingBlock: CIFDUS_clean_linker_0, # of connection points: 2
#     Edge 33, Type (0, 0), BuildingBlock: CIFDUS_clean_linker_0, # of connection points: 2
#     Edge 34, Type (0, 0), BuildingBlock: CIFDUS_clean_linker_0, # of connection points: 2
#     Edge 35, Type (0, 0), BuildingBlock: CIFDUS_clean_linker_0, # of connection points: 2
#     Edge 36, Type (0, 0), BuildingBlock: CIFDUS_clean_linker_0, # of connection points: 2
#     Edge 37, Type (0, 0), BuildingBlock: CIFDUS_clean_linker_0, # of connection points: 2
#     Edge 38, Type (0, 0), BuildingBlock: CIFDUS_clean_linker_0, # of connection points: 2
#     Edge 39, Type (0, 0), BuildingBlock: CIFDUS_clean_linker_0, # of connection points: 2
#     Edge 40, Type (0, 0), BuildingBlock: CIFDUS_clean_linker_0, # of connection points: 2
#     Edge 41, Type (0, 0), BuildingBlock: CIFDUS_clean_linker_0, # of connection points: 2
#     Edge 42, Type (0, 0), BuildingBlock: CIFDUS_clean_linker_0, # of connection points: 2
#     Edge 43, Type (0, 0), BuildingBlock: CIFDUS_clean_linker_0, # of connection points: 2
#     Edge 44, Type (0, 0), BuildingBlock: CIFDUS_clean_linker_0, # of connection points: 2
#     Edge 45, Type (0, 0), BuildingBlock: CIFDUS_clean_linker_0, # of connection points: 2
#     Edge 46, Type (0, 0), BuildingBlock: CIFDUS_clean_linker_0, # of connection points: 2
#     Edge 47, Type (0, 0), BuildingBlock: CIFDUS_clean_linker_0, # of connection points: 2
# Relax obj value: 0.039
# Max RMSD: 0.093
# Mean RMSD: 0.093
data_MOF--net-umc--node1-ESEHIV_clean_sbu_0--edge1-CIFDUS_clean_linker_0
_symmetry_space_group_name_H-M    P1
_symmetry_Int_Tables_number       1
_symmetry_cell_setting            triclinic
loop_
_symmetry_equiv_pos_as_xyz
'x, y, z'
_cell_length_a     52.986312
_cell_length_b     30.928386
_cell_length_c     49.663848
_cell_angle_alpha  90.031549
_cell_angle_beta   89.914097
_cell_angle_gamma 90.122007
loop_
_atom_site_label
_atom_site_type_symbol
_atom_site_fract_x
_atom_site_fract_y
_atom_site_fract_z
_atom_type_partial_charge
Cu0 Cu 0.38448 0.07481 0.38651 0.0
N1 N 0.41927 0.07963 0.38065 0.0
N2 N 0.45968 0.05893 0.37755 0.0
C3 C 0.43631 0.0488 0.38653 0.0
C4 C 0.45722 0.09812 0.36583 0.0
C5 C 0.43226 0.11071 0.36768 0.0
O6 O 0.36961 0.04969 0.3543 0.0
C7 C 0.36303 0.04635 0.43667 0.0
O8 O 0.34412 0.07207 0.4309 0.0
H9 H 0.43141 0.019 0.39671 0.0
H10 H 0.42401 0.13973 0.35936 0.0
N11 N 0.36946 0.12895 0.39119 0.0
N12 N 0.33893 0.17873 0.39354 0.0
C13 C 0.34497 0.1378 0.38659 0.0
C14 C 0.37944 0.16564 0.40115 0.0
C15 C 0.36065 0.19649 0.40255 0.0
C16 C 0.3793 0.01763 0.34204 0.0
O17 O 0.39805 0.99674 0.35335 0.0
H18 H 0.33176 0.11422 0.37878 0.0
H19 H 0.39882 0.16932 0.40759 0.0
O20 O 0.38049 0.0408 0.41935 0.0
H21 H 0.47212 0.11565 0.35562 0.0
H22 H 0.36263 0.22887 0.41056 0.0
Cu23 Cu 0.66885 0.92509 0.37465 0.0
N24 N 0.63378 0.92164 0.37878 0.0
N25 N 0.59342 0.94303 0.38077 0.0
C26 C 0.61715 0.95314 0.37287 0.0
C27 C 0.59529 0.9033 0.39191 0.0
C28 C 0.62018 0.8903 0.39073 0.0
O29 O 0.67651 0.96293 0.34497 0.0
C30 C 0.67361 0.96534 0.42628 0.0
O31 O 0.65147 0.98277 0.4216 0.0
H32 H 0.62252 0.98328 0.36344 0.0
H33 H 0.62798 0.86078 0.39886 0.0
N34 N 0.68362 0.87184 0.36711 0.0
N35 N 0.71463 0.82313 0.36385 0.0
C36 C 0.70839 0.86412 0.37036 0.0
C37 C 0.6736 0.8345 0.3582 0.0
C38 C 0.69273 0.80427 0.35623 0.0
C39 C 0.67522 1.00388 0.34589 0.0
O40 O 0.66956 0.02303 0.36872 0.0
H41 H 0.72148 0.88815 0.37787 0.0
H42 H 0.65387 0.82961 0.35352 0.0
O43 O 0.68429 0.94326 0.40797 0.0
H44 H 0.58001 0.88555 0.40128 0.0
H45 H 0.69067 0.77119 0.34945 0.0
Cu46 Cu 0.39008 0.91205 0.13652 0.0
N47 N 0.42465 0.91543 0.12888 0.0
N48 N 0.4637 0.94326 0.12776 0.0
C49 C 0.44036 0.94595 0.13864 0.0
C50 C 0.46264 0.9093 0.11068 0.0
C51 C 0.4385 0.89234 0.11131 0.0
O52 O 0.38639 0.92885 0.17393 0.0
C53 C 0.38158 0.97025 0.09283 0.0
O54 O 0.40454 0.98428 0.09766 0.0
H55 H 0.43447 0.97045 0.15288 0.0
H56 H 0.43132 0.86614 0.09909 0.0
N57 N 0.37787 0.85552 0.13414 0.0
N58 N 0.34961 0.80156 0.13293 0.0
C59 C 0.35321 0.84481 0.13394 0.0
C60 C 0.39045 0.81785 0.13325 0.0
C61 C 0.37309 0.78451 0.13247 0.0
C62 C 0.37263 0.95674 0.18565 0.0
O63 O 0.35738 0.98118 0.17147 0.0
H64 H 0.33826 0.8685 0.13525 0.0
H65 H 0.41078 0.81477 0.13349 0.0
O66 O 0.37122 0.94434 0.10948 0.0
H67 H 0.47786 0.89872 0.0977 0.0
H68 H 0.37751 0.7504 0.13159 0.0
Cu69 Cu 0.66521 0.10439 0.14112 0.0
N70 N 0.62996 0.10585 0.13926 0.0
N71 N 0.59069 0.07914 0.13665 0.0
C72 C 0.61512 0.07078 0.1424 0.0
C73 C 0.59018 0.12134 0.12969 0.0
C74 C 0.61444 0.13762 0.13108 0.0
O75 O 0.67421 0.07485 0.17393 0.0
C76 C 0.68275 0.08987 0.0883 0.0
O77 O 0.68445 0.1322 0.08755 0.0
H78 H 0.62235 0.03935 0.14801 0.0
H79 H 0.62043 0.16965 0.12517 0.0
N80 N 0.68036 0.15938 0.14197 0.0
N81 N 0.71043 0.21066 0.14161 0.0
C82 C 0.70501 0.16826 0.13784 0.0
C83 C 0.66983 0.19721 0.14906 0.0
C84 C 0.6882 0.22878 0.14878 0.0
C85 C 0.66968 0.09379 0.19614 0.0
O86 O 0.6592 0.13225 0.19578 0.0
H87 H 0.71858 0.14384 0.13215 0.0
H88 H 0.65035 0.20139 0.15496 0.0
O89 O 0.67587 0.07134 0.10994 0.0
H90 H 0.57371 0.13862 0.12266 0.0
H91 H 0.68534 0.26225 0.15426 0.0
Cu92 Cu 0.6655 0.91233 0.63562 0.0
N93 N 0.63024 0.91064 0.63569 0.0
N94 N 0.59086 0.9369 0.63528 0.0
C95 C 0.61542 0.94513 0.64057 0.0
C96 C 0.59027 0.89538 0.62682 0.0
C97 C 0.61458 0.87942 0.62688 0.0
O98 O 0.67576 0.94757 0.66573 0.0
C99 C 0.68252 0.92077 0.58157 0.0
O100 O 0.6863 0.87889 0.58279 0.0
H101 H 0.62277 0.97614 0.64696 0.0
H102 H 0.62053 0.84813 0.61955 0.0
N103 N 0.68024 0.8574 0.63887 0.0
N104 N 0.70937 0.8049 0.63999 0.0
C105 C 0.70476 0.84722 0.63513 0.0
C106 C 0.66903 0.82053 0.64686 0.0
C107 C 0.68684 0.78818 0.64749 0.0
C108 C 0.67516 0.93205 0.68942 0.0
O109 O 0.66845 0.89152 0.69288 0.0
H110 H 0.71878 0.87045 0.62863 0.0
H111 H 0.6494 0.81753 0.65247 0.0
O112 O 0.67478 0.94087 0.60231 0.0
H113 H 0.5737 0.87849 0.61959 0.0
H114 H 0.68344 0.7551 0.65358 0.0
Cu115 Cu 0.38908 0.09802 0.63877 0.0
N116 N 0.42391 0.09708 0.63257 0.0
N117 N 0.46328 0.07095 0.63153 0.0
C118 C 0.4396 0.06581 0.64117 0.0
C119 C 0.46246 0.10741 0.61657 0.0
C120 C 0.43812 0.12337 0.61719 0.0
O121 O 0.384 0.08048 0.67583 0.0
C122 C 0.3827 0.03999 0.59426 0.0
O123 O 0.40607 0.02829 0.59899 0.0
H124 H 0.43346 0.03905 0.65361 0.0
H125 H 0.43109 0.15121 0.6064 0.0
N126 N 0.37573 0.15368 0.63668 0.0
N127 N 0.34559 0.2044 0.63603 0.0
C128 C 0.35101 0.16193 0.63328 0.0
C129 C 0.38656 0.1922 0.64167 0.0
C130 C 0.36803 0.2236 0.64116 0.0
C131 C 0.37667 0.04495 0.68604 0.0
O132 O 0.37014 0.01268 0.67029 0.0
H133 H 0.33726 0.13677 0.62952 0.0
H134 H 0.40629 0.19687 0.64645 0.0
O135 O 0.37159 0.06497 0.6109 0.0
H136 H 0.47799 0.12052 0.60497 0.0
H137 H 0.37081 0.25757 0.64546 0.0
Cu138 Cu 0.67201 0.07998 0.88294 0.0
N139 N 0.63694 0.08282 0.88643 0.0
N140 N 0.5967 0.06049 0.88738 0.0
C141 C 0.62078 0.05032 0.88096 0.0
C142 C 0.59786 0.10126 0.89712 0.0
C143 C 0.6227 0.11487 0.89659 0.0
O144 O 0.67988 0.04043 0.85402 0.0
C145 C 0.67685 0.03842 0.93434 0.0
O146 O 0.6554 0.01881 0.92908 0.0
H147 H 0.62675 0.01957 0.87277 0.0
H148 H 0.62997 0.14548 0.90377 0.0
N149 N 0.68679 0.13357 0.87568 0.0
N150 N 0.71768 0.18291 0.87294 0.0
C151 C 0.71137 0.14207 0.8799 0.0
C152 C 0.67694 0.17031 0.86579 0.0
C153 C 0.69597 0.20083 0.86405 0.0
C154 C 0.6773 0.05416 0.83006 0.0
O155 O 0.66997 0.0942 0.82618 0.0
H156 H 0.72421 0.11858 0.88833 0.0
H157 H 0.65741 0.17447 0.86006 0.0
O158 O 0.68694 0.06235 0.91655 0.0
H159 H 0.58208 0.11948 0.90499 0.0
H160 H 0.69394 0.23342 0.85648 0.0
Cu161 Cu 0.38872 0.92261 0.88632 0.0
N162 N 0.42368 0.91917 0.88175 0.0
N163 N 0.46395 0.94111 0.87971 0.0
C164 C 0.44009 0.95143 0.88688 0.0
C165 C 0.46243 0.90043 0.8699 0.0
C166 C 0.43755 0.88705 0.8711 0.0
O167 O 0.37458 0.94524 0.85316 0.0
C168 C 0.36551 0.95196 0.9353 0.0
O169 O 0.34761 0.92392 0.92977 0.0
H170 H 0.43447 0.98212 0.89543 0.0
H171 H 0.43001 0.85655 0.86406 0.0
N172 N 0.37433 0.86802 0.89145 0.0
N173 N 0.34447 0.81674 0.89266 0.0
C174 C 0.35054 0.85722 0.8847 0.0
C175 C 0.38387 0.83311 0.9039 0.0
C176 C 0.3655 0.80133 0.90462 0.0
C177 C 0.38269 0.97917 0.84156 0.0
O178 O 0.39936 1.00357 0.85395 0.0
H179 H 0.3378 0.8792 0.87463 0.0
H180 H 0.40258 0.83136 0.91252 0.0
O181 O 0.38313 0.95818 0.91823 0.0
H182 H 0.47798 0.88215 0.86156 0.0
H183 H 0.36721 0.77005 0.91419 0.0
Cu184 Cu 0.88499 0.58159 0.37914 0.0
N185 N 0.92037 0.58265 0.37631 0.0
N186 N 0.96047 0.5594 0.37565 0.0
C187 C 0.93595 0.5486 0.3794 0.0
C188 C 0.96014 0.60208 0.36978 0.0
C189 C 0.93546 0.61621 0.3701 0.0
O190 O 0.87171 0.55722 0.34599 0.0
C191 C 0.88801 0.55297 0.433 0.0
O192 O 0.91109 0.56815 0.43107 0.0
H193 H 0.92927 0.51649 0.38425 0.0
H194 H 0.929 0.64865 0.36595 0.0
N195 N 0.87096 0.63676 0.38085 0.0
N196 N 0.84017 0.6861 0.37973 0.0
C197 C 0.84687 0.645 0.37411 0.0
C198 C 0.87997 0.67388 0.39124 0.0
C199 C 0.86103 0.70456 0.39037 0.0
C200 C 0.87881 0.52199 0.33524 0.0
O201 O 0.89388 0.49616 0.34866 0.0
H202 H 0.83435 0.62081 0.36574 0.0
H203 H 0.89858 0.67791 0.3998 0.0
O204 O 0.8739 0.55295 0.41222 0.0
H205 H 0.97651 0.62204 0.36579 0.0
H206 H 0.8622 0.73724 0.39808 0.0
Cu207 Cu 0.16669 0.41971 0.38282 0.0
N208 N 0.1317 0.41418 0.37919 0.0
N209 N 0.09137 0.43455 0.37525 0.0
C210 C 0.11558 0.44768 0.37756 0.0
C211 C 0.09227 0.39093 0.37554 0.0
C212 C 0.11721 0.37844 0.37785 0.0
O213 O 0.17988 0.43978 0.34859 0.0
C214 C 0.19248 0.45966 0.42676 0.0
O215 O 0.21249 0.43925 0.41773 0.0
H216 H 0.1215 0.48115 0.37848 0.0
H217 H 0.12424 0.34566 0.37837 0.0
N218 N 0.18235 0.36697 0.39032 0.0
N219 N 0.21344 0.31841 0.3939 0.0
C220 C 0.20611 0.35652 0.3832 0.0
C221 C 0.17426 0.33436 0.40605 0.0
C222 C 0.19334 0.30421 0.40816 0.0
C223 C 0.17577 0.47692 0.33861 0.0
O224 O 0.16408 0.50616 0.35319 0.0
H225 H 0.21799 0.37721 0.37099 0.0
H226 H 0.15616 0.3334 0.41613 0.0
O227 O 0.17214 0.45821 0.4132 0.0
H228 H 0.07613 0.36962 0.37374 0.0
H229 H 0.19285 0.27516 0.42029 0.0
Cu230 Cu 0.89319 0.40446 0.13259 0.0
N231 N 0.92809 0.40743 0.1268 0.0
N232 N 0.96725 0.43482 0.12593 0.0
C233 C 0.94315 0.44062 0.13408 0.0
C234 C 0.96739 0.39611 0.11333 0.0
C235 C 0.9432 0.37937 0.11382 0.0
O236 O 0.88722 0.42236 0.16941 0.0
C237 C 0.88556 0.46184 0.08791 0.0
O238 O 0.90853 0.47566 0.09285 0.0
H239 H 0.93636 0.46891 0.14466 0.0
H240 H 0.93694 0.34941 0.10477 0.0
N241 N 0.88119 0.34771 0.13122 0.0
N242 N 0.85235 0.29452 0.1321 0.0
C243 C 0.8568 0.337 0.12749 0.0
C244 C 0.8928 0.31089 0.13836 0.0
C245 C 0.87513 0.27802 0.13878 0.0
C246 C 0.87865 0.45719 0.17941 0.0
O247 O 0.8716 0.48881 0.16348 0.0
H248 H 0.84253 0.36059 0.1225 0.0
H249 H 0.91238 0.30857 0.14428 0.0
O250 O 0.87516 0.43551 0.10428 0.0
H251 H 0.98357 0.38173 0.10351 0.0
H252 H 0.87868 0.24509 0.14501 0.0
Cu253 Cu 0.16814 0.6014 0.13733 0.0
N254 N 0.1333 0.59857 0.13099 0.0
N255 N 0.09415 0.57126 0.12894 0.0
C256 C 0.11778 0.56623 0.13869 0.0
C257 C 0.09481 0.60856 0.11485 0.0
C258 C 0.11899 0.6252 0.11604 0.0
O259 O 0.17415 0.58462 0.17431 0.0
C260 C 0.17604 0.54126 0.09419 0.0
O261 O 0.15313 0.5274 0.09947 0.0
H262 H 0.12397 0.53882 0.15048 0.0
H263 H 0.12586 0.65378 0.10585 0.0
N264 N 0.18055 0.65777 0.13444 0.0
N265 N 0.20918 0.71092 0.13148 0.0
C266 C 0.20508 0.6678 0.1309 0.0
C267 C 0.16859 0.69577 0.13747 0.0
C268 C 0.18618 0.72866 0.1355 0.0
C269 C 0.17851 0.54728 0.18385 0.0
O270 O 0.18043 0.51402 0.16753 0.0
H271 H 0.21964 0.6437 0.1282 0.0
H272 H 0.14865 0.69931 0.14157 0.0
O273 O 0.18629 0.56868 0.10991 0.0
H274 H 0.07929 0.62177 0.10336 0.0
H275 H 0.18242 0.76284 0.1378 0.0
Cu276 Cu 0.17438 0.44925 0.62972 0.0
N277 N 0.13937 0.44546 0.6341 0.0
N278 N 0.09924 0.46759 0.6376 0.0
C279 C 0.12302 0.47811 0.63005 0.0
C280 C 0.10083 0.4265 0.6467 0.0
C281 C 0.12559 0.41307 0.64465 0.0
O282 O 0.18692 0.48201 0.66032 0.0
C283 C 0.20308 0.47927 0.58525 0.0
O284 O 0.22248 0.46966 0.60053 0.0
H285 H 0.12869 0.50926 0.62218 0.0
H286 H 0.13315 0.38247 0.65136 0.0
N287 N 0.18976 0.39476 0.62911 0.0
N288 N 0.22046 0.34511 0.62931 0.0
C289 C 0.21423 0.38665 0.63445 0.0
C290 C 0.1801 0.35706 0.62033 0.0
C291 C 0.19894 0.32631 0.62058 0.0
C292 C 0.18675 0.46307 0.68311 0.0
O293 O 0.17967 0.42236 0.68425 0.0
H294 H 0.2273 0.41109 0.64147 0.0
H295 H 0.16099 0.35265 0.61323 0.0
O296 O 0.18093 0.47603 0.595 0.0
H297 H 0.08548 0.40801 0.65535 0.0
H298 H 0.19719 0.29325 0.61366 0.0
Cu299 Cu 0.89131 0.6057 0.63764 0.0
N300 N 0.92631 0.60899 0.6417 0.0
N301 N 0.96652 0.58679 0.64312 0.0
C302 C 0.9425 0.57654 0.63645 0.0
C303 C 0.96526 0.62756 0.65286 0.0
C304 C 0.94044 0.64108 0.65204 0.0
O305 O 0.87771 0.58683 0.67194 0.0
C306 C 0.86876 0.57137 0.58944 0.0
O307 O 0.85052 0.59936 0.5934 0.0
H308 H 0.93659 0.54582 0.62813 0.0
H309 H 0.93312 0.67168 0.65911 0.0
N310 N 0.87739 0.65993 0.63038 0.0
N311 N 0.84887 0.71309 0.62824 0.0
C312 C 0.85359 0.6721 0.63614 0.0
C313 C 0.88821 0.69436 0.61849 0.0
C314 C 0.87068 0.72728 0.61721 0.0
C315 C 0.88255 0.55063 0.68285 0.0
O316 O 0.89499 0.52126 0.66911 0.0
H317 H 0.84004 0.65121 0.64604 0.0
H318 H 0.90742 0.69533 0.61111 0.0
O319 O 0.88579 0.56695 0.60729 0.0
H320 H 0.98097 0.64588 0.66088 0.0
H321 H 0.87363 0.75887 0.60836 0.0
Cu322 Cu 0.17458 0.56713 0.88626 0.0
N323 N 0.13981 0.57294 0.88139 0.0
N324 N 0.09902 0.55368 0.88014 0.0
C325 C 0.12293 0.541 0.8854 0.0
C326 C 0.10114 0.59545 0.87239 0.0
C327 C 0.1263 0.60717 0.87311 0.0
O328 O 0.18727 0.53642 0.85496 0.0
C329 C 0.19606 0.54152 0.93679 0.0
O330 O 0.21501 0.56695 0.93036 0.0
H331 H 0.12834 0.50885 0.89165 0.0
H332 H 0.13416 0.63835 0.86788 0.0
N333 N 0.19047 0.62102 0.88938 0.0
N334 N 0.22099 0.67118 0.89057 0.0
C335 C 0.21472 0.63033 0.88345 0.0
C336 C 0.18103 0.65713 0.90058 0.0
C337 C 0.19974 0.68815 0.90124 0.0
C338 C 0.18734 0.55615 0.83244 0.0
O339 O 0.18049 0.59695 0.8318 0.0
H340 H 0.2276 0.60712 0.8747 0.0
H341 H 0.16214 0.66014 0.90864 0.0
O342 O 0.17844 0.53529 0.91981 0.0
H343 H 0.08569 0.61639 0.86679 0.0
H344 H 0.19808 0.72003 0.91005 0.0
Cu345 Cu 0.88946 0.42571 0.8829 0.0
N346 N 0.92444 0.41907 0.88045 0.0
N347 N 0.96516 0.43768 0.87745 0.0
C348 C 0.9411 0.45186 0.87836 0.0
C349 C 0.96358 0.39419 0.879 0.0
C350 C 0.93841 0.38278 0.8807 0.0
O351 O 0.87813 0.44577 0.84798 0.0
C352 C 0.86573 0.45809 0.93054 0.0
O353 O 0.84752 0.43078 0.92476 0.0
H354 H 0.93564 0.48556 0.87797 0.0
H355 H 0.93091 0.35032 0.88192 0.0
N356 N 0.87314 0.37295 0.88883 0.0
N357 N 0.84196 0.32414 0.88881 0.0
C358 C 0.85 0.36284 0.87958 0.0
C359 C 0.88005 0.33954 0.90451 0.0
C360 C 0.86089 0.30919 0.90437 0.0
C361 C 0.88081 0.48322 0.83786 0.0
O362 O 0.8897 0.51486 0.85276 0.0
H363 H 0.83904 0.38404 0.86683 0.0
H364 H 0.89736 0.33803 0.91597 0.0
O365 O 0.88353 0.46378 0.91361 0.0
H366 H 0.97944 0.37219 0.87854 0.0
H367 H 0.86047 0.27937 0.91577 0.0
H368 H 0.33313 0.06225 0.48035 0.0
H369 H 0.40156 0.99694 0.4565 0.0
H370 H 0.41185 0.9837 0.50363 0.0
H371 H 0.40435 0.99916 0.55144 0.0
H372 H 0.33682 0.06712 0.57532 0.0
H373 H 0.32312 0.07005 0.52845 0.0
C374 C 0.35007 0.0444 0.48539 0.0
C375 C 0.3667 0.03118 0.4648 0.0
C376 C 0.35618 0.03763 0.51263 0.0
C377 C 0.38848 0.00785 0.47183 0.0
C378 C 0.39445 1.00036 0.49885 0.0
C379 C 0.38637 0.01387 0.54653 0.0
C380 C 0.37184 0.03341 0.56696 0.0
C381 C 0.37888 0.0164 0.51942 0.0
C382 C 0.34852 0.05205 0.56009 0.0
C383 C 0.34071 0.05396 0.53321 0.0
H384 H 0.71095 0.89981 0.53831 0.0
H385 H 0.65463 0.99019 0.56573 0.0
H386 H 0.64909 0.01669 0.51976 0.0
H387 H 0.656 0.00651 0.47111 0.0
H388 H 0.71304 0.91669 0.44416 0.0
H389 H 0.72288 0.89841 0.49059 0.0
C390 C 0.69782 0.92586 0.53424 0.0
C391 C 0.68294 0.94253 0.55518 0.0
C392 C 0.69472 0.94086 0.50782 0.0
C393 C 0.66626 0.97675 0.54985 0.0
C394 C 0.66297 0.99174 0.52355 0.0
C395 C 0.67093 0.98361 0.4754 0.0
C396 C 0.68331 0.96232 0.45415 0.0
C397 C 0.67645 0.97292 0.50225 0.0
C398 C 0.70293 0.93325 0.46009 0.0
C399 C 0.70854 0.92254 0.48667 0.0
H400 H 0.40268 0.01094 0.04962 0.0
H401 H 0.33682 0.93807 0.07368 0.0
H402 H 0.32421 0.93087 0.02665 0.0
H403 H 0.33509 0.93625 0.97862 0.0
H404 H 0.40197 0.00649 0.95468 0.0
H405 H 0.41072 0.02401 1.00165 0.0
C406 C 0.38527 0.99426 0.04469 0.0
C407 C 0.37094 0.97457 0.06526 0.0
C408 C 0.37844 0.98923 0.0175 0.0
C409 C 0.34835 0.95333 0.05835 0.0
C410 C 0.34118 0.94895 0.03138 0.0
C411 C 0.35134 0.95609 0.98358 0.0
C412 C 0.36803 0.96945 0.96306 0.0
C413 C 0.35658 0.96535 0.01075 0.0
C414 C 0.38888 0.99539 0.96998 0.0
C415 C 0.39397 1.00534 0.9969 0.0
H416 H 0.65811 0.99864 0.97931 0.0
H417 H 0.7169 0.08557 0.95239 0.0
H418 H 0.72623 0.10503 0.99872 0.0
H419 H 0.71307 0.10654 0.04601 0.0
H420 H 0.655 0.01938 0.07365 0.0
H421 H 0.65029 0.9904 0.02804 0.0
C422 C 0.67334 0.02108 0.98361 0.0
C423 C 0.68628 0.04143 0.96233 0.0
C424 C 0.67858 0.03252 0.01043 0.0
C425 C 0.70628 0.06989 0.9683 0.0
C426 C 0.71163 0.08125 0.99484 0.0
C427 C 0.69981 0.08049 0.0421 0.0
C428 C 0.68416 0.06551 0.06288 0.0
C429 C 0.69716 0.06422 0.01592 0.0
C430 C 0.66726 0.03139 0.05784 0.0
C431 C 0.66443 0.01507 0.03175 0.0
H432 H 0.83702 0.57362 0.54601 0.0
H433 H 0.91035 0.52836 0.57117 0.0
H434 H 0.92151 0.51295 0.5246 0.0
H435 H 0.913 0.52283 0.47644 0.0
H436 H 0.83983 0.56713 0.45071 0.0
H437 H 0.82594 0.57166 0.49768 0.0
C438 C 0.85524 0.55953 0.54137 0.0
C439 C 0.87296 0.55304 0.56212 0.0
C440 C 0.86168 0.5509 0.51437 0.0
C441 C 0.89636 0.53416 0.55571 0.0
C442 C 0.90286 0.52548 0.52899 0.0
C443 C 0.8938 0.53245 0.48112 0.0
C444 C 0.87756 0.54508 0.46021 0.0
C445 C 0.88605 0.53532 0.50812 0.0
C446 C 0.85267 0.55711 0.46646 0.0
C447 C 0.8448 0.5601 0.49335 0.0
H448 H 0.16743 0.50019 0.54788 0.0
H449 H 0.24664 0.47074 0.55623 0.0
H450 H 0.25105 0.46713 0.5074 0.0
H451 H 0.23134 0.46335 0.46268 0.0
H452 H 0.15203 0.49212 0.45439 0.0
H453 H 0.14893 0.50555 0.50266 0.0
C454 C 0.18576 0.4937 0.53903 0.0
C455 C 0.20657 0.48513 0.5558 0.0
C456 C 0.18815 0.49118 0.51086 0.0
C457 C 0.23023 0.47722 0.54391 0.0
C458 C 0.23278 0.47495 0.51592 0.0
C459 C 0.21347 0.47331 0.47132 0.0
C460 C 0.19189 0.47602 0.45489 0.0
C461 C 0.2117 0.4805 0.49923 0.0
C462 C 0.16894 0.48941 0.46649 0.0
C463 C 0.1671 0.49694 0.49418 0.0
H464 H 0.83603 0.43966 0.97397 0.0
H465 H 0.90276 0.51084 0.95068 0.0
H466 H 0.91283 0.52366 0.99795 0.0
H467 H 0.90599 0.50584 0.04558 0.0
H468 H 0.84032 0.43177 0.06878 0.0
H469 H 0.82642 0.42957 0.02197 0.0
C470 C 0.85251 0.45876 0.97916 0.0
C471 C 0.86879 0.4737 0.95868 0.0
C472 C 0.85856 0.46513 1.00646 0.0
C473 C 0.88997 0.4986 0.96593 0.0
C474 C 0.89583 0.5058 0.99302 0.0
C475 C 0.88837 0.48993 0.04054 0.0
C476 C 0.87445 0.46847 0.06074 0.0
C477 C 0.88077 0.48786 0.01344 0.0
C478 C 0.85156 0.4483 0.05372 0.0
C479 C 0.84363 0.44684 0.02687 0.0
H480 H 0.15519 0.49715 0.05223 0.0
H481 H 0.2216 0.5696 0.07487 0.0
H482 H 0.23546 0.57097 0.028 0.0
H483 H 0.22569 0.56062 0.98008 0.0
H484 H 0.15826 0.49102 0.95741 0.0
H485 H 0.14808 0.47918 1.00474 0.0
C486 C 0.17297 0.51249 0.04706 0.0
C487 C 0.18712 0.53377 0.06709 0.0
C488 C 0.18053 0.51416 0.01993 0.0
C489 C 0.21019 0.55323 0.05991 0.0
C490 C 0.21809 0.55423 0.03304 0.0
C491 C 0.20901 0.54214 0.98543 0.0
C492 C 0.1926 0.52731 0.96512 0.0
C493 C 0.20294 0.53622 0.01277 0.0
C494 C 0.17114 0.5032 0.97255 0.0
C495 C 0.16524 0.49649 0.99967 0.0
H496 H 0.54459 0.91719 0.38119 0.0
H497 H 0.59193 0.03078 0.37758 0.0
H498 H 0.55468 0.07671 0.37589 0.0
H499 H 0.50847 0.08505 0.37636 0.0
H500 H 0.46127 0.97134 0.38023 0.0
H501 H 0.49853 0.92546 0.38159 0.0
C502 C 0.54683 0.95197 0.38024 0.0
C503 C 0.57122 0.9702 0.37945 0.0
C504 C 0.52525 0.97841 0.37954 0.0
C505 C 0.57355 0.0155 0.3778 0.0
C506 C 0.55219 0.04196 0.37703 0.0
C507 C 0.50631 0.05025 0.37732 0.0
C508 C 0.48195 0.03193 0.37837 0.0
C509 C 0.52792 0.02381 0.37793 0.0
C510 C 0.47965 0.98663 0.3799 0.0
C511 C 0.50101 0.96021 0.38047 0.0
H512 H 0.51344 0.92577 0.12325 0.0
H513 H 0.46083 0.02833 0.14055 0.0
H514 H 0.49563 0.0794 0.14555 0.0
H515 H 0.54113 0.0956 0.14395 0.0
H516 H 0.59373 0.99322 0.12619 0.0
H517 H 0.55901 0.94169 0.12253 0.0
C518 C 0.5096 0.95931 0.12801 0.0
C519 C 0.48448 0.97303 0.1315 0.0
C520 C 0.52977 0.98868 0.13081 0.0
C521 C 0.47991 0.01659 0.13808 0.0
C522 C 0.49984 0.04598 0.14077 0.0
C523 C 0.54498 0.06206 0.13918 0.0
C524 C 0.57008 0.04848 0.13536 0.0
C525 C 0.52485 0.03247 0.13702 0.0
C526 C 0.57471 1.00464 0.12959 0.0
C527 C 0.5548 0.97511 0.1273 0.0
H528 H 0.5413 0.91879 0.64159 0.0
H529 H 0.59358 0.02409 0.62924 0.0
H530 H 0.55867 0.0752 0.62788 0.0
H531 H 0.51304 0.09005 0.62884 0.0
H532 H 0.46077 0.98442 0.6401 0.0
H533 H 0.49577 0.93375 0.64326 0.0
C534 C 0.54507 0.95287 0.63849 0.0
C535 C 0.57014 0.96732 0.63551 0.0
C536 C 0.52483 0.98222 0.63752 0.0
C537 C 0.57461 0.01186 0.63195 0.0
C538 C 0.55458 0.0412 0.63097 0.0
C539 C 0.5093 0.05594 0.63189 0.0
C540 C 0.4842 0.04129 0.63424 0.0
C541 C 0.52959 0.02674 0.63352 0.0
C542 C 0.4798 0.99693 0.63859 0.0
C543 C 0.49985 0.96775 0.6402 0.0
H544 H 0.54789 0.08516 0.8835 0.0
H545 H 0.59574 0.97265 0.88776 0.0
H546 H 0.55885 0.92568 0.88534 0.0
H547 H 0.51279 0.91624 0.88292 0.0
H548 H 0.465 0.02883 0.8788 0.0
H549 H 0.50192 0.07576 0.88092 0.0
C550 C 0.55029 0.05041 0.8841 0.0
C551 C 0.57472 0.03272 0.88574 0.0
C552 C 0.5289 0.0234 0.88294 0.0
C553 C 0.57733 0.98742 0.88609 0.0
C554 C 0.55616 0.9604 0.8849 0.0
C555 C 0.51043 0.95101 0.88228 0.0
C556 C 0.486 0.96875 0.88086 0.0
C557 C 0.53184 0.978 0.88335 0.0
C558 C 0.48342 0.01405 0.88037 0.0
C559 C 0.50459 0.04104 0.88139 0.0
H560 H 1.00738 0.57375 0.35546 0.0
H561 H 0.96324 0.48094 0.40043 0.0
H562 H 0.9996 0.43335 0.4033 0.0
H563 H 0.04444 0.41826 0.39393 0.0
H564 H 0.08886 0.51233 0.35069 0.0
H565 H 0.0521 0.5594 0.34678 0.0
C566 C 1.00562 0.54339 0.36614 0.0
C567 C 0.98228 0.53129 0.37757 0.0
C568 C 1.02682 0.51626 0.36816 0.0
C569 C 0.98063 0.49123 0.39098 0.0
C570 C 1.00156 0.46391 0.39283 0.0
C571 C 0.04598 0.44891 0.38349 0.0
C572 C 0.06939 0.46174 0.37266 0.0
C573 C 1.02476 0.47606 0.38151 0.0
C574 C 0.07117 0.50188 0.35949 0.0
C575 C 0.05011 0.52874 0.35714 0.0
H576 H 0.04441 0.58962 0.12854 0.0
H577 H 0.09725 0.48401 0.1325 0.0
H578 H 0.06246 0.43214 0.13262 0.0
H579 H 1.01687 0.4165 0.13004 0.0
H580 H 0.96406 0.52215 0.12616 0.0
H581 H 0.9988 0.57407 0.12762 0.0
C582 C 0.04828 0.55526 0.12939 0.0
C583 C 0.07345 0.54084 0.13045 0.0
C584 C 1.02813 0.52552 0.12944 0.0
C585 C 0.07812 0.49614 0.13197 0.0
C586 C 0.0582 0.46638 0.13185 0.0
C587 C 1.013 0.45088 0.12946 0.0
C588 C 0.98786 0.46531 0.12793 0.0
C589 C 0.03313 0.48065 0.13034 0.0
C590 C 0.98316 0.51006 0.12763 0.0
C591 C 1.00305 0.53983 0.12829 0.0
H592 H 1.01552 0.61167 0.64071 0.0
H593 H 0.96738 0.49892 0.64206 0.0
H594 H 1.00419 0.45217 0.63961 0.0
H595 H 0.05017 0.44288 0.63767 0.0
H596 H 0.09841 0.55553 0.63823 0.0
H597 H 0.06155 0.60234 0.63929 0.0
C598 C 1.01302 0.57691 0.64069 0.0
C599 C 0.98851 0.55915 0.64151 0.0
C600 C 0.03439 0.54996 0.63955 0.0
C601 C 0.98583 0.51383 0.64103 0.0
C602 C 1.00696 0.4869 0.63982 0.0
C603 C 0.05271 0.47762 0.63822 0.0
C604 C 0.07724 0.49534 0.63782 0.0
C605 C 0.03134 0.50458 0.63915 0.0
C606 C 0.07993 0.54066 0.63811 0.0
C607 C 0.05878 0.56762 0.63892 0.0
H608 H 0.05333 0.56992 0.85754 0.0
H609 H 0.09279 0.47846 0.90788 0.0
H610 H 0.05509 0.43388 0.91064 0.0
H611 H 1.01056 0.42075 0.89935 0.0
H612 H 0.97049 0.51339 0.85084 0.0
H613 H 1.00856 0.55787 0.84728 0.0
C614 C 0.05376 0.54054 0.86936 0.0
C615 C 0.07625 0.52779 0.88226 0.0
C616 C 0.03175 0.51514 0.87131 0.0
C617 C 0.07615 0.48908 0.89722 0.0
C618 C 0.05444 0.46351 0.89901 0.0
C619 C 1.01024 0.45052 0.88785 0.0
C620 C 0.98773 0.46367 0.87534 0.0
C621 C 0.03215 0.47613 0.8861 0.0
C622 C 0.9875 0.50273 0.86087 0.0
C623 C 1.0093 0.52808 0.85874 0.0
H624 H 0.22474 0.23357 0.39747 0.0
H625 H 0.25823 0.35974 0.38731 0.0
H626 H 0.30018 0.32751 0.38585 0.0
H627 H 0.32761 0.26342 0.38815 0.0
H628 H 0.29407 0.13741 0.39893 0.0
H629 H 0.25209 0.16951 0.39944 0.0
C630 C 0.24121 0.25402 0.39507 0.0
C631 C 0.23821 0.29903 0.39247 0.0
C632 C 0.26538 0.23526 0.39433 0.0
C633 C 0.25983 0.32498 0.38898 0.0
C634 C 0.28391 0.30658 0.38833 0.0
C635 C 0.31113 0.24303 0.39075 0.0
C636 C 0.3141 0.19801 0.39343 0.0
C637 C 0.28694 0.26176 0.39109 0.0
C638 C 0.29243 0.17203 0.39641 0.0
C639 C 0.26837 0.19042 0.39689 0.0
H640 H 0.72593 0.73865 0.37081 0.0
H641 H 0.75964 0.86457 0.36006 0.0
H642 H 0.80161 0.83334 0.3644 0.0
H643 H 0.829 0.77015 0.37138 0.0
H644 H 0.79523 0.64425 0.38183 0.0
H645 H 0.75328 0.67537 0.37698 0.0
C646 C 0.74243 0.75921 0.36912 0.0
C647 C 0.73947 0.804 0.36529 0.0
C648 C 0.76663 0.74099 0.37152 0.0
C649 C 0.7612 0.83014 0.36347 0.0
C650 C 0.78529 0.81226 0.36581 0.0
C651 C 0.81245 0.7496 0.37274 0.0
C652 C 0.81538 0.70489 0.37686 0.0
C653 C 0.78826 0.76776 0.37 0.0
C654 C 0.79367 0.67864 0.37825 0.0
C655 C 0.76959 0.69646 0.37564 0.0
H656 H 0.25514 0.67946 0.14462 0.0
H657 H 0.21749 0.79282 0.11411 0.0
H658 H 0.25784 0.83095 0.11157 0.0
H659 H 0.30382 0.83208 0.11791 0.0
H660 H 0.34125 0.71882 0.14905 0.0
H661 H 0.30109 0.68041 0.15066 0.0
C662 C 0.25572 0.71231 0.13711 0.0
C663 C 0.23317 0.73313 0.12956 0.0
C664 C 0.27903 0.73408 0.13566 0.0
C665 C 0.23441 0.77609 0.12036 0.0
C666 C 0.25754 0.79788 0.11876 0.0
C667 C 0.30326 0.79914 0.12527 0.0
C668 C 0.32575 0.77861 0.13337 0.0
C669 C 0.27997 0.77725 0.12646 0.0
C670 C 0.32447 0.7355 0.14236 0.0
C671 C 0.30141 0.71349 0.14347 0.0
H672 H 0.75693 0.17332 0.13892 0.0
H673 H 0.71933 0.29722 0.13811 0.0
H674 H 0.7598 0.33371 0.1352 0.0
H675 H 0.80574 0.33113 0.13366 0.0
H676 H 0.84363 0.20761 0.13174 0.0
H677 H 0.80309 0.1707 0.13484 0.0
C678 C 0.75738 0.20825 0.13784 0.0
C679 C 0.7347 0.23211 0.13904 0.0
C680 C 0.78088 0.22937 0.13573 0.0
C681 C 0.73617 0.27757 0.1378 0.0
C682 C 0.75943 0.29869 0.13593 0.0
C683 C 0.80538 0.29617 0.13353 0.0
C684 C 0.82812 0.27254 0.1326 0.0
C685 C 0.78191 0.27496 0.135 0.0
C686 C 0.82672 0.22703 0.13285 0.0
C687 C 0.80343 0.20574 0.13449 0.0
H688 H 0.75661 0.83924 0.64034 0.0
H689 H 0.71604 0.71845 0.6337 0.0
H690 H 0.75568 0.67944 0.63005 0.0
H691 H 0.80193 0.67922 0.6281 0.0
H692 H 0.84274 0.79964 0.63357 0.0
H693 H 0.80298 0.83913 0.63764 0.0
C694 C 0.75632 0.80447 0.63786 0.0
C695 C 0.73311 0.78207 0.63749 0.0
C696 C 0.77932 0.78204 0.6354 0.0
C697 C 0.73342 0.73677 0.63456 0.0
C698 C 0.75617 0.7143 0.63227 0.0
C699 C 0.80216 0.71405 0.63044 0.0
C700 C 0.82535 0.73635 0.63062 0.0
C701 C 0.77923 0.73655 0.63272 0.0
C702 C 0.8252 0.78166 0.63312 0.0
C703 C 0.80245 0.80425 0.63558 0.0
H704 H 0.23154 0.26113 0.63779 0.0
H705 H 0.26553 0.38579 0.62327 0.0
H706 H 0.30744 0.35327 0.62421 0.0
H707 H 0.3345 0.28906 0.6281 0.0
H708 H 0.30023 0.16464 0.6435 0.0
H709 H 0.25861 0.19725 0.64255 0.0
C710 C 0.2481 0.28115 0.63469 0.0
C711 C 0.24528 0.32588 0.63051 0.0
C712 C 0.27221 0.2622 0.63515 0.0
C713 C 0.26705 0.35141 0.62692 0.0
C714 C 0.29108 0.33276 0.62725 0.0
C715 C 0.31801 0.26903 0.63148 0.0
C716 C 0.32082 0.2242 0.63564 0.0
C717 C 0.2939 0.28814 0.6313 0.0
C718 C 0.29896 0.19897 0.63969 0.0
C719 C 0.27499 0.21769 0.63938 0.0
H720 H 0.72876 0.2686 0.87403 0.0
H721 H 0.76297 0.142 0.87608 0.0
H722 H 0.80438 0.17464 0.88157 0.0
H723 H 0.83124 0.23916 0.88613 0.0
H724 H 0.79746 0.36565 0.88249 0.0
H725 H 0.75577 0.3331 0.87669 0.0
C726 C 0.74522 0.24803 0.87537 0.0
C727 C 0.74241 0.20271 0.87494 0.0
C728 C 0.76923 0.26705 0.87816 0.0
C729 C 0.7642 0.17687 0.87693 0.0
C730 C 0.78806 0.19553 0.8799 0.0
C731 C 0.81472 0.25952 0.88416 0.0
C732 C 0.81748 0.30472 0.88476 0.0
C733 C 0.7908 0.24056 0.88073 0.0
C734 C 0.79593 0.33077 0.88179 0.0
C735 C 0.77205 0.31216 0.87863 0.0
H736 H 0.23122 0.75655 0.88791 0.0
H737 H 0.2666 0.63115 0.8908 0.0
H738 H 0.30818 0.6652 0.89089 0.0
H739 H 0.33463 0.73087 0.89151 0.0
H740 H 0.29886 0.85608 0.89005 0.0
H741 H 0.25751 0.82187 0.88806 0.0
C742 C 0.24799 0.73662 0.8887 0.0
C743 C 0.24563 0.69129 0.88942 0.0
C744 C 0.27189 0.75643 0.88902 0.0
C745 C 0.26771 0.66605 0.88992 0.0
C746 C 0.29156 0.68554 0.89017 0.0
C747 C 0.3178 0.75067 0.89089 0.0
C748 C 0.32002 0.79607 0.89089 0.0
C749 C 0.2939 0.73073 0.88995 0.0
C750 C 0.29791 0.82115 0.88967 0.0
C751 C 0.27415 0.80159 0.88872 0.0
H752 H 0.39757 0.95395 0.30985 0.0
H753 H 0.34581 0.06149 0.31002 0.0
H754 H 0.33846 0.05167 0.26181 0.0
H755 H 0.34865 0.01489 0.21886 0.0
H756 H 0.40101 0.90798 0.21961 0.0
H757 H 0.40609 0.91539 0.26796 0.0
C758 C 0.38446 0.97501 0.29947 0.0
C759 C 0.37236 0.00847 0.31362 0.0
C760 C 0.38055 0.96957 0.2717 0.0
C761 C 0.35539 0.03536 0.29971 0.0
C762 C 0.35125 0.02992 0.27206 0.0
C763 C 0.36107 0.99311 0.22962 0.0
C764 C 0.37453 0.96116 0.2154 0.0
C765 C 0.36405 0.99754 0.25772 0.0
C766 C 0.39049 0.93313 0.22982 0.0
C767 C 0.39343 0.93723 0.25759 0.0
H768 H 0.66508 0.12811 0.24621 0.0
H769 H 0.68593 0.01105 0.20435 0.0
H770 H 0.69148 0.97401 0.24732 0.0
H771 H 0.68767 0.97354 0.2964 0.0
H772 H 0.66614 0.09012 0.33838 0.0
H773 H 0.66393 0.12888 0.29559 0.0
C774 C 0.67097 0.09455 0.24646 0.0
C775 C 0.67483 0.07225 0.22209 0.0
C776 C 0.67399 0.07339 0.27121 0.0
C777 C 0.68271 0.02892 0.2228 0.0
C778 C 0.68586 0.00769 0.24736 0.0
C779 C 0.6827 0.00754 0.29627 0.0
C780 C 0.67684 0.02879 0.32055 0.0
C781 C 0.68115 0.02943 0.27164 0.0
C782 C 0.67067 0.07294 0.31999 0.0
C783 C 0.6693 0.09509 0.29552 0.0
H784 H 0.68176 0.07718 0.77779 0.0
H785 H 0.68 0.96582 0.8301 0.0
H786 H 0.68089 0.91788 0.79093 0.0
H787 H 0.67897 0.90798 0.74186 0.0
H788 H 0.68076 0.01977 0.68982 0.0
H789 H 0.68325 0.06721 0.72896 0.0
C790 C 0.68173 0.04241 0.78065 0.0
C791 C 0.68052 0.02505 0.80676 0.0
C792 C 0.68216 0.01516 0.75811 0.0
C793 C 0.68087 0.97996 0.81017 0.0
C794 C 0.68128 0.95256 0.78779 0.0
C795 C 0.68011 0.9427 0.73907 0.0
C796 C 0.67939 0.96032 0.71297 0.0
C797 C 0.68143 0.96985 0.76167 0.0
C798 C 0.68117 1.00535 0.70968 0.0
C799 C 0.68253 0.03254 0.73205 0.0
H800 H 0.39427 0.05013 0.81169 0.0
H801 H 0.35727 0.92596 0.80675 0.0
H802 H 0.35144 0.93549 0.75833 0.0
H803 H 0.35912 0.9774 0.71673 0.0
H804 H 0.39571 0.10199 0.72251 0.0
H805 H 0.39933 0.09384 0.771 0.0
C806 C 0.3847 0.02531 0.8001 0.0
C807 C 0.37639 0.98732 0.81289 0.0
C808 C 0.38148 0.03087 0.77224 0.0
C809 C 0.36388 0.95561 0.7975 0.0
C810 C 0.36063 0.96091 0.76973 0.0
C811 C 0.36776 1.00283 0.72861 0.0
C812 C 0.37728 0.04006 0.7158 0.0
C813 C 0.36974 0.99812 0.75677 0.0
C814 C 0.38825 0.07285 0.73166 0.0
C815 C 0.39038 0.06828 0.7595 0.0
H816 H 0.86036 0.52478 0.20948 0.0
H817 H 0.8956 0.39948 0.21657 0.0
H818 H 0.89709 0.40712 0.26522 0.0
H819 H 0.89068 0.45063 0.30579 0.0
H820 H 0.85528 0.57575 0.29942 0.0
H821 H 0.85135 0.56656 0.25079 0.0
C822 C 0.86824 0.49908 0.22168 0.0
C823 C 0.87803 0.46183 0.20919 0.0
C824 C 0.86904 0.50353 0.24991 0.0
C825 C 0.88801 0.4287 0.22544 0.0
C826 C 0.8889 0.43296 0.25338 0.0
C827 C 0.88185 0.47572 0.29385 0.0
C828 C 0.87346 0.51388 0.30633 0.0
C829 C 0.87978 0.47042 0.26583 0.0
C830 C 0.86194 0.54596 0.29044 0.0
C831 C 0.85978 0.54086 0.26254 0.0
H832 H 0.16986 0.55192 0.31062 0.0
H833 H 0.19294 0.419 0.30121 0.0
H834 H 0.19669 0.42916 0.25266 0.0
H835 H 0.1909 0.47462 0.21237 0.0
H836 H 0.16826 0.60775 0.22225 0.0
H837 H 0.16696 0.59855 0.27088 0.0
C838 C 0.17595 0.52527 0.29801 0.0
C839 C 0.18091 0.48472 0.30962 0.0
C840 C 0.17799 0.53122 0.27003 0.0
C841 C 0.18894 0.45062 0.2929 0.0
C842 C 0.19101 0.45632 0.26505 0.0
C843 C 0.18583 0.50167 0.22516 0.0
C844 C 0.1795 0.54166 0.21353 0.0
C845 C 0.18516 0.49628 0.25332 0.0
C846 C 0.17316 0.57648 0.23052 0.0
C847 C 0.17237 0.5713 0.25842 0.0
H848 H 0.1916 0.59025 0.78216 0.0
H849 H 0.19299 0.46898 0.82515 0.0
H850 H 0.19502 0.42971 0.78252 0.0
H851 H 0.1927 0.42961 0.73318 0.0
H852 H 0.19093 0.5507 0.69007 0.0
H853 H 0.19301 0.59024 0.73267 0.0
C854 C 0.19261 0.55523 0.78225 0.0
C855 C 0.19186 0.53261 0.80686 0.0
C856 C 0.19357 0.53282 0.75764 0.0
C857 C 0.19345 0.48725 0.80655 0.0
C858 C 0.19452 0.46474 0.78216 0.0
C859 C 0.19302 0.46468 0.73305 0.0
C860 C 0.19138 0.48715 0.70845 0.0
C861 C 0.19402 0.48716 0.7576 0.0
C862 C 0.19211 0.53257 0.70868 0.0
C863 C 0.1932 0.55521 0.73305 0.0
H864 H 0.88061 0.47505 0.71091 0.0
H865 H 0.87436 0.61326 0.72056 0.0
H866 H 0.87218 0.60484 0.76936 0.0
H867 H 0.87522 0.5585 0.80966 0.0
H868 H 0.87942 0.42006 0.79968 0.0
H869 H 0.87904 0.42834 0.75093 0.0
C870 C 0.87849 0.50327 0.72368 0.0
C871 C 0.87789 0.54468 0.71207 0.0
C872 C 0.87702 0.49822 0.75179 0.0
C873 C 0.87486 0.58093 0.72892 0.0
C874 C 0.87374 0.5762 0.75689 0.0
C875 C 0.87579 0.53017 0.7968 0.0
C876 C 0.87759 0.48881 0.80839 0.0
C877 C 0.87529 0.53506 0.76861 0.0
C878 C 0.87804 0.45235 0.7914 0.0
C879 C 0.87792 0.45701 0.76343 0.0
loop_
_geom_bond_atom_site_label_1
_geom_bond_atom_site_label_2
_geom_bond_distance
_geom_bond_site_symmetry_2
_ccdc_geom_bond_type
Cu0 N1 1.999 . S
Cu0 O6 1.974 . S
Cu0 N11 1.985 . S
Cu0 O20 1.959 . S
N1 Cu0 1.999 . S
N1 C3 1.263 . S
N1 C5 1.389 . S
N2 C3 1.358 . S
N2 C4 1.400 . S
C3 N1 1.263 . S
C3 N2 1.358 . S
C3 H9 0.930 . S
C4 N2 1.400 . S
C4 C5 1.351 . S
C4 H21 0.930 . S
C5 N1 1.389 . S
C5 C4 1.351 . S
C5 H10 0.930 . S
O6 Cu0 1.974 . S
O6 C16 1.282 . S
C7 O8 1.261 . S
C7 O20 1.251 . S
O8 C7 1.261 . S
H9 C3 0.930 . S
H10 C5 0.930 . S
N11 Cu0 1.985 . S
N11 C13 1.335 . S
N11 C14 1.390 . S
N12 C13 1.345 . S
N12 C15 1.336 . S
C13 N11 1.335 . S
C13 N12 1.345 . S
C13 H18 0.930 . S
C14 N11 1.390 . S
C14 C15 1.346 . S
C14 H19 0.930 . S
C15 N12 1.336 . S
C15 C14 1.346 . S
C15 H22 0.929 . S
C16 O6 1.282 . S
C16 O17 1.216 . S
O17 C16 1.216 . S
H18 C13 0.930 . S
H19 C14 0.930 . S
O20 Cu0 1.959 . S
O20 C7 1.251 . S
H21 C4 0.930 . S
H22 C15 0.929 . S
Cu23 N24 1.999 . S
Cu23 O29 1.974 . S
Cu23 N34 1.985 . S
Cu23 O43 1.959 . S
N24 Cu23 1.999 . S
N24 C26 1.263 . S
N24 C28 1.389 . S
N25 C26 1.358 . S
N25 C27 1.400 . S
C26 N24 1.263 . S
C26 N25 1.358 . S
C26 H32 0.930 . S
C27 N25 1.400 . S
C27 C28 1.351 . S
C27 H44 0.930 . S
C28 N24 1.389 . S
C28 C27 1.351 . S
C28 H33 0.930 . S
O29 Cu23 1.974 . S
O29 C39 1.282 . S
C30 O31 1.261 . S
C30 O43 1.251 . S
O31 C30 1.261 . S
H32 C26 0.930 . S
H33 C28 0.930 . S
N34 Cu23 1.985 . S
N34 C36 1.335 . S
N34 C37 1.390 . S
N35 C36 1.345 . S
N35 C38 1.336 . S
C36 N34 1.335 . S
C36 N35 1.345 . S
C36 H41 0.930 . S
C37 N34 1.390 . S
C37 C38 1.346 . S
C37 H42 0.930 . S
C38 N35 1.336 . S
C38 C37 1.346 . S
C38 H45 0.929 . S
C39 O29 1.282 . S
C39 O40 1.216 . S
O40 C39 1.216 . S
H41 C36 0.930 . S
H42 C37 0.930 . S
O43 Cu23 1.959 . S
O43 C30 1.251 . S
H44 C27 0.930 . S
H45 C38 0.929 . S
Cu46 N47 1.999 . S
Cu46 O52 1.974 . S
Cu46 N57 1.985 . S
Cu46 O66 1.959 . S
N47 Cu46 1.999 . S
N47 C49 1.263 . S
N47 C51 1.389 . S
N48 C49 1.358 . S
N48 C50 1.400 . S
C49 N47 1.263 . S
C49 N48 1.358 . S
C49 H55 0.930 . S
C50 N48 1.400 . S
C50 C51 1.351 . S
C50 H67 0.930 . S
C51 N47 1.389 . S
C51 C50 1.351 . S
C51 H56 0.930 . S
O52 Cu46 1.974 . S
O52 C62 1.282 . S
C53 O54 1.261 . S
C53 O66 1.251 . S
O54 C53 1.261 . S
H55 C49 0.930 . S
H56 C51 0.930 . S
N57 Cu46 1.985 . S
N57 C59 1.335 . S
N57 C60 1.390 . S
N58 C59 1.345 . S
N58 C61 1.336 . S
C59 N57 1.335 . S
C59 N58 1.345 . S
C59 H64 0.930 . S
C60 N57 1.390 . S
C60 C61 1.346 . S
C60 H65 0.930 . S
C61 N58 1.336 . S
C61 C60 1.346 . S
C61 H68 0.929 . S
C62 O52 1.282 . S
C62 O63 1.216 . S
O63 C62 1.216 . S
H64 C59 0.930 . S
H65 C60 0.930 . S
O66 Cu46 1.959 . S
O66 C53 1.251 . S
H67 C50 0.930 . S
H68 C61 0.929 . S
Cu69 N70 1.999 . S
Cu69 O75 1.974 . S
Cu69 N80 1.985 . S
Cu69 O89 1.959 . S
N70 Cu69 1.999 . S
N70 C72 1.263 . S
N70 C74 1.389 . S
N71 C72 1.358 . S
N71 C73 1.400 . S
C72 N70 1.263 . S
C72 N71 1.358 . S
C72 H78 0.930 . S
C73 N71 1.400 . S
C73 C74 1.351 . S
C73 H90 0.930 . S
C74 N70 1.389 . S
C74 C73 1.351 . S
C74 H79 0.930 . S
O75 Cu69 1.974 . S
O75 C85 1.282 . S
C76 O77 1.261 . S
C76 O89 1.251 . S
O77 C76 1.261 . S
H78 C72 0.930 . S
H79 C74 0.930 . S
N80 Cu69 1.985 . S
N80 C82 1.335 . S
N80 C83 1.390 . S
N81 C82 1.345 . S
N81 C84 1.336 . S
C82 N80 1.335 . S
C82 N81 1.345 . S
C82 H87 0.930 . S
C83 N80 1.390 . S
C83 C84 1.346 . S
C83 H88 0.930 . S
C84 N81 1.336 . S
C84 C83 1.346 . S
C84 H91 0.929 . S
C85 O75 1.282 . S
C85 O86 1.216 . S
O86 C85 1.216 . S
H87 C82 0.930 . S
H88 C83 0.930 . S
O89 Cu69 1.959 . S
O89 C76 1.251 . S
H90 C73 0.930 . S
H91 C84 0.929 . S
Cu92 N93 1.999 . S
Cu92 O98 1.974 . S
Cu92 N103 1.985 . S
Cu92 O112 1.959 . S
N93 Cu92 1.999 . S
N93 C95 1.263 . S
N93 C97 1.389 . S
N94 C95 1.358 . S
N94 C96 1.400 . S
C95 N93 1.263 . S
C95 N94 1.358 . S
C95 H101 0.930 . S
C96 N94 1.400 . S
C96 C97 1.351 . S
C96 H113 0.930 . S
C97 N93 1.389 . S
C97 C96 1.351 . S
C97 H102 0.930 . S
O98 Cu92 1.974 . S
O98 C108 1.282 . S
C99 O100 1.261 . S
C99 O112 1.251 . S
O100 C99 1.261 . S
H101 C95 0.930 . S
H102 C97 0.930 . S
N103 Cu92 1.985 . S
N103 C105 1.335 . S
N103 C106 1.390 . S
N104 C105 1.345 . S
N104 C107 1.336 . S
C105 N103 1.335 . S
C105 N104 1.345 . S
C105 H110 0.930 . S
C106 N103 1.390 . S
C106 C107 1.346 . S
C106 H111 0.930 . S
C107 N104 1.336 . S
C107 C106 1.346 . S
C107 H114 0.929 . S
C108 O98 1.282 . S
C108 O109 1.216 . S
O109 C108 1.216 . S
H110 C105 0.930 . S
H111 C106 0.930 . S
O112 Cu92 1.959 . S
O112 C99 1.251 . S
H113 C96 0.930 . S
H114 C107 0.929 . S
Cu115 N116 1.999 . S
Cu115 O121 1.974 . S
Cu115 N126 1.985 . S
Cu115 O135 1.959 . S
N116 Cu115 1.999 . S
N116 C118 1.263 . S
N116 C120 1.389 . S
N117 C118 1.358 . S
N117 C119 1.400 . S
C118 N116 1.263 . S
C118 N117 1.358 . S
C118 H124 0.930 . S
C119 N117 1.400 . S
C119 C120 1.351 . S
C119 H136 0.930 . S
C120 N116 1.389 . S
C120 C119 1.351 . S
C120 H125 0.930 . S
O121 Cu115 1.974 . S
O121 C131 1.282 . S
C122 O123 1.261 . S
C122 O135 1.251 . S
O123 C122 1.261 . S
H124 C118 0.930 . S
H125 C120 0.930 . S
N126 Cu115 1.985 . S
N126 C128 1.335 . S
N126 C129 1.390 . S
N127 C128 1.345 . S
N127 C130 1.336 . S
C128 N126 1.335 . S
C128 N127 1.345 . S
C128 H133 0.930 . S
C129 N126 1.390 . S
C129 C130 1.346 . S
C129 H134 0.930 . S
C130 N127 1.336 . S
C130 C129 1.346 . S
C130 H137 0.929 . S
C131 O121 1.282 . S
C131 O132 1.216 . S
O132 C131 1.216 . S
H133 C128 0.930 . S
H134 C129 0.930 . S
O135 Cu115 1.959 . S
O135 C122 1.251 . S
H136 C119 0.930 . S
H137 C130 0.929 . S
Cu138 N139 1.999 . S
Cu138 O144 1.974 . S
Cu138 N149 1.985 . S
Cu138 O158 1.959 . S
N139 Cu138 1.999 . S
N139 C141 1.263 . S
N139 C143 1.389 . S
N140 C141 1.358 . S
N140 C142 1.400 . S
C141 N139 1.263 . S
C141 N140 1.358 . S
C141 H147 0.930 . S
C142 N140 1.400 . S
C142 C143 1.351 . S
C142 H159 0.930 . S
C143 N139 1.389 . S
C143 C142 1.351 . S
C143 H148 0.930 . S
O144 Cu138 1.974 . S
O144 C154 1.282 . S
C145 O146 1.261 . S
C145 O158 1.251 . S
O146 C145 1.261 . S
H147 C141 0.930 . S
H148 C143 0.930 . S
N149 Cu138 1.985 . S
N149 C151 1.335 . S
N149 C152 1.390 . S
N150 C151 1.345 . S
N150 C153 1.336 . S
C151 N149 1.335 . S
C151 N150 1.345 . S
C151 H156 0.930 . S
C152 N149 1.390 . S
C152 C153 1.346 . S
C152 H157 0.930 . S
C153 N150 1.336 . S
C153 C152 1.346 . S
C153 H160 0.929 . S
C154 O144 1.282 . S
C154 O155 1.216 . S
O155 C154 1.216 . S
H156 C151 0.930 . S
H157 C152 0.930 . S
O158 Cu138 1.959 . S
O158 C145 1.251 . S
H159 C142 0.930 . S
H160 C153 0.929 . S
Cu161 N162 1.999 . S
Cu161 O167 1.974 . S
Cu161 N172 1.985 . S
Cu161 O181 1.959 . S
N162 Cu161 1.999 . S
N162 C164 1.263 . S
N162 C166 1.389 . S
N163 C164 1.358 . S
N163 C165 1.400 . S
C164 N162 1.263 . S
C164 N163 1.358 . S
C164 H170 0.930 . S
C165 N163 1.400 . S
C165 C166 1.351 . S
C165 H182 0.930 . S
C166 N162 1.389 . S
C166 C165 1.351 . S
C166 H171 0.930 . S
O167 Cu161 1.974 . S
O167 C177 1.282 . S
C168 O169 1.261 . S
C168 O181 1.251 . S
O169 C168 1.261 . S
H170 C164 0.930 . S
H171 C166 0.930 . S
N172 Cu161 1.985 . S
N172 C174 1.335 . S
N172 C175 1.390 . S
N173 C174 1.345 . S
N173 C176 1.336 . S
C174 N172 1.335 . S
C174 N173 1.345 . S
C174 H179 0.930 . S
C175 N172 1.390 . S
C175 C176 1.346 . S
C175 H180 0.930 . S
C176 N173 1.336 . S
C176 C175 1.346 . S
C176 H183 0.929 . S
C177 O167 1.282 . S
C177 O178 1.216 . S
O178 C177 1.216 . S
H179 C174 0.930 . S
H180 C175 0.930 . S
O181 Cu161 1.959 . S
O181 C168 1.251 . S
H182 C165 0.930 . S
H183 C176 0.929 . S
Cu184 N185 1.999 . S
Cu184 O190 1.974 . S
Cu184 N195 1.985 . S
Cu184 O204 1.959 . S
N185 Cu184 1.999 . S
N185 C187 1.263 . S
N185 C189 1.389 . S
N186 C187 1.358 . S
N186 C188 1.400 . S
C187 N185 1.263 . S
C187 N186 1.358 . S
C187 H193 0.930 . S
C188 N186 1.400 . S
C188 C189 1.351 . S
C188 H205 0.930 . S
C189 N185 1.389 . S
C189 C188 1.351 . S
C189 H194 0.930 . S
O190 Cu184 1.974 . S
O190 C200 1.282 . S
C191 O192 1.261 . S
C191 O204 1.251 . S
O192 C191 1.261 . S
H193 C187 0.930 . S
H194 C189 0.930 . S
N195 Cu184 1.985 . S
N195 C197 1.335 . S
N195 C198 1.390 . S
N196 C197 1.345 . S
N196 C199 1.336 . S
C197 N195 1.335 . S
C197 N196 1.345 . S
C197 H202 0.930 . S
C198 N195 1.390 . S
C198 C199 1.346 . S
C198 H203 0.930 . S
C199 N196 1.336 . S
C199 C198 1.346 . S
C199 H206 0.929 . S
C200 O190 1.282 . S
C200 O201 1.216 . S
O201 C200 1.216 . S
H202 C197 0.930 . S
H203 C198 0.930 . S
O204 Cu184 1.959 . S
O204 C191 1.251 . S
H205 C188 0.930 . S
H206 C199 0.929 . S
Cu207 N208 1.999 . S
Cu207 O213 1.974 . S
Cu207 N218 1.985 . S
Cu207 O227 1.959 . S
N208 Cu207 1.999 . S
N208 C210 1.263 . S
N208 C212 1.389 . S
N209 C210 1.358 . S
N209 C211 1.400 . S
C210 N208 1.263 . S
C210 N209 1.358 . S
C210 H216 0.930 . S
C211 N209 1.400 . S
C211 C212 1.351 . S
C211 H228 0.930 . S
C212 N208 1.389 . S
C212 C211 1.351 . S
C212 H217 0.930 . S
O213 Cu207 1.974 . S
O213 C223 1.282 . S
C214 O215 1.261 . S
C214 O227 1.251 . S
O215 C214 1.261 . S
H216 C210 0.930 . S
H217 C212 0.930 . S
N218 Cu207 1.985 . S
N218 C220 1.335 . S
N218 C221 1.390 . S
N219 C220 1.345 . S
N219 C222 1.336 . S
C220 N218 1.335 . S
C220 N219 1.345 . S
C220 H225 0.930 . S
C221 N218 1.390 . S
C221 C222 1.346 . S
C221 H226 0.930 . S
C222 N219 1.336 . S
C222 C221 1.346 . S
C222 H229 0.929 . S
C223 O213 1.282 . S
C223 O224 1.216 . S
O224 C223 1.216 . S
H225 C220 0.930 . S
H226 C221 0.930 . S
O227 Cu207 1.959 . S
O227 C214 1.251 . S
H228 C211 0.930 . S
H229 C222 0.929 . S
Cu230 N231 1.999 . S
Cu230 O236 1.974 . S
Cu230 N241 1.985 . S
Cu230 O250 1.959 . S
N231 Cu230 1.999 . S
N231 C233 1.263 . S
N231 C235 1.389 . S
N232 C233 1.358 . S
N232 C234 1.400 . S
C233 N231 1.263 . S
C233 N232 1.358 . S
C233 H239 0.930 . S
C234 N232 1.400 . S
C234 C235 1.351 . S
C234 H251 0.930 . S
C235 N231 1.389 . S
C235 C234 1.351 . S
C235 H240 0.930 . S
O236 Cu230 1.974 . S
O236 C246 1.282 . S
C237 O238 1.261 . S
C237 O250 1.251 . S
O238 C237 1.261 . S
H239 C233 0.930 . S
H240 C235 0.930 . S
N241 Cu230 1.985 . S
N241 C243 1.335 . S
N241 C244 1.390 . S
N242 C243 1.345 . S
N242 C245 1.336 . S
C243 N241 1.335 . S
C243 N242 1.345 . S
C243 H248 0.930 . S
C244 N241 1.390 . S
C244 C245 1.346 . S
C244 H249 0.930 . S
C245 N242 1.336 . S
C245 C244 1.346 . S
C245 H252 0.929 . S
C246 O236 1.282 . S
C246 O247 1.216 . S
O247 C246 1.216 . S
H248 C243 0.930 . S
H249 C244 0.930 . S
O250 Cu230 1.959 . S
O250 C237 1.251 . S
H251 C234 0.930 . S
H252 C245 0.929 . S
Cu253 N254 1.999 . S
Cu253 O259 1.974 . S
Cu253 N264 1.985 . S
Cu253 O273 1.959 . S
N254 Cu253 1.999 . S
N254 C256 1.263 . S
N254 C258 1.389 . S
N255 C256 1.358 . S
N255 C257 1.400 . S
C256 N254 1.263 . S
C256 N255 1.358 . S
C256 H262 0.930 . S
C257 N255 1.400 . S
C257 C258 1.351 . S
C257 H274 0.930 . S
C258 N254 1.389 . S
C258 C257 1.351 . S
C258 H263 0.930 . S
O259 Cu253 1.974 . S
O259 C269 1.282 . S
C260 O261 1.261 . S
C260 O273 1.251 . S
O261 C260 1.261 . S
H262 C256 0.930 . S
H263 C258 0.930 . S
N264 Cu253 1.985 . S
N264 C266 1.335 . S
N264 C267 1.390 . S
N265 C266 1.345 . S
N265 C268 1.336 . S
C266 N264 1.335 . S
C266 N265 1.345 . S
C266 H271 0.930 . S
C267 N264 1.390 . S
C267 C268 1.346 . S
C267 H272 0.930 . S
C268 N265 1.336 . S
C268 C267 1.346 . S
C268 H275 0.929 . S
C269 O259 1.282 . S
C269 O270 1.216 . S
O270 C269 1.216 . S
H271 C266 0.930 . S
H272 C267 0.930 . S
O273 Cu253 1.959 . S
O273 C260 1.251 . S
H274 C257 0.930 . S
H275 C268 0.929 . S
Cu276 N277 1.999 . S
Cu276 O282 1.974 . S
Cu276 N287 1.985 . S
Cu276 O296 1.959 . S
N277 Cu276 1.999 . S
N277 C279 1.263 . S
N277 C281 1.389 . S
N278 C279 1.358 . S
N278 C280 1.400 . S
C279 N277 1.263 . S
C279 N278 1.358 . S
C279 H285 0.930 . S
C280 N278 1.400 . S
C280 C281 1.351 . S
C280 H297 0.930 . S
C281 N277 1.389 . S
C281 C280 1.351 . S
C281 H286 0.930 . S
O282 Cu276 1.974 . S
O282 C292 1.282 . S
C283 O284 1.261 . S
C283 O296 1.251 . S
O284 C283 1.261 . S
H285 C279 0.930 . S
H286 C281 0.930 . S
N287 Cu276 1.985 . S
N287 C289 1.335 . S
N287 C290 1.390 . S
N288 C289 1.345 . S
N288 C291 1.336 . S
C289 N287 1.335 . S
C289 N288 1.345 . S
C289 H294 0.930 . S
C290 N287 1.390 . S
C290 C291 1.346 . S
C290 H295 0.930 . S
C291 N288 1.336 . S
C291 C290 1.346 . S
C291 H298 0.929 . S
C292 O282 1.282 . S
C292 O293 1.216 . S
O293 C292 1.216 . S
H294 C289 0.930 . S
H295 C290 0.930 . S
O296 Cu276 1.959 . S
O296 C283 1.251 . S
H297 C280 0.930 . S
H298 C291 0.929 . S
Cu299 N300 1.999 . S
Cu299 O305 1.974 . S
Cu299 N310 1.985 . S
Cu299 O319 1.959 . S
N300 Cu299 1.999 . S
N300 C302 1.263 . S
N300 C304 1.389 . S
N301 C302 1.358 . S
N301 C303 1.400 . S
C302 N300 1.263 . S
C302 N301 1.358 . S
C302 H308 0.930 . S
C303 N301 1.400 . S
C303 C304 1.351 . S
C303 H320 0.930 . S
C304 N300 1.389 . S
C304 C303 1.351 . S
C304 H309 0.930 . S
O305 Cu299 1.974 . S
O305 C315 1.282 . S
C306 O307 1.261 . S
C306 O319 1.251 . S
O307 C306 1.261 . S
H308 C302 0.930 . S
H309 C304 0.930 . S
N310 Cu299 1.985 . S
N310 C312 1.335 . S
N310 C313 1.390 . S
N311 C312 1.345 . S
N311 C314 1.336 . S
C312 N310 1.335 . S
C312 N311 1.345 . S
C312 H317 0.930 . S
C313 N310 1.390 . S
C313 C314 1.346 . S
C313 H318 0.930 . S
C314 N311 1.336 . S
C314 C313 1.346 . S
C314 H321 0.929 . S
C315 O305 1.282 . S
C315 O316 1.216 . S
O316 C315 1.216 . S
H317 C312 0.930 . S
H318 C313 0.930 . S
O319 Cu299 1.959 . S
O319 C306 1.251 . S
H320 C303 0.930 . S
H321 C314 0.929 . S
Cu322 N323 1.999 . S
Cu322 O328 1.974 . S
Cu322 N333 1.985 . S
Cu322 O342 1.959 . S
N323 Cu322 1.999 . S
N323 C325 1.263 . S
N323 C327 1.389 . S
N324 C325 1.358 . S
N324 C326 1.400 . S
C325 N323 1.263 . S
C325 N324 1.358 . S
C325 H331 0.930 . S
C326 N324 1.400 . S
C326 C327 1.351 . S
C326 H343 0.930 . S
C327 N323 1.389 . S
C327 C326 1.351 . S
C327 H332 0.930 . S
O328 Cu322 1.974 . S
O328 C338 1.282 . S
C329 O330 1.261 . S
C329 O342 1.251 . S
O330 C329 1.261 . S
H331 C325 0.930 . S
H332 C327 0.930 . S
N333 Cu322 1.985 . S
N333 C335 1.335 . S
N333 C336 1.390 . S
N334 C335 1.345 . S
N334 C337 1.336 . S
C335 N333 1.335 . S
C335 N334 1.345 . S
C335 H340 0.930 . S
C336 N333 1.390 . S
C336 C337 1.346 . S
C336 H341 0.930 . S
C337 N334 1.336 . S
C337 C336 1.346 . S
C337 H344 0.929 . S
C338 O328 1.282 . S
C338 O339 1.216 . S
O339 C338 1.216 . S
H340 C335 0.930 . S
H341 C336 0.930 . S
O342 Cu322 1.959 . S
O342 C329 1.251 . S
H343 C326 0.930 . S
H344 C337 0.929 . S
Cu345 N346 1.999 . S
Cu345 O351 1.974 . S
Cu345 N356 1.985 . S
Cu345 O365 1.959 . S
N346 Cu345 1.999 . S
N346 C348 1.263 . S
N346 C350 1.389 . S
N347 C348 1.358 . S
N347 C349 1.400 . S
C348 N346 1.263 . S
C348 N347 1.358 . S
C348 H354 0.930 . S
C349 N347 1.400 . S
C349 C350 1.351 . S
C349 H366 0.930 . S
C350 N346 1.389 . S
C350 C349 1.351 . S
C350 H355 0.930 . S
O351 Cu345 1.974 . S
O351 C361 1.282 . S
C352 O353 1.261 . S
C352 O365 1.251 . S
O353 C352 1.261 . S
H354 C348 0.930 . S
H355 C350 0.930 . S
N356 Cu345 1.985 . S
N356 C358 1.335 . S
N356 C359 1.390 . S
N357 C358 1.345 . S
N357 C360 1.336 . S
C358 N356 1.335 . S
C358 N357 1.345 . S
C358 H363 0.930 . S
C359 N356 1.390 . S
C359 C360 1.346 . S
C359 H364 0.930 . S
C360 N357 1.336 . S
C360 C359 1.346 . S
C360 H367 0.929 . S
C361 O351 1.282 . S
C361 O362 1.216 . S
O362 C361 1.216 . S
H363 C358 0.930 . S
H364 C359 0.930 . S
O365 Cu345 1.959 . S
O365 C352 1.251 . S
H366 C349 0.930 . S
H367 C360 0.929 . S
H368 C374 0.930 . S
H369 C377 0.930 . S
H370 C378 0.930 . S
H371 C379 0.930 . S
H372 C382 0.930 . S
H373 C383 0.930 . S
C374 H368 0.930 . S
C374 C375 1.355 . S
C374 C376 1.415 . S
C375 C374 1.355 . S
C375 C377 1.419 . S
C376 C374 1.415 . S
C376 C381 1.425 . S
C376 C383 1.409 . S
C377 H369 0.930 . S
C377 C375 1.419 . S
C377 C378 1.362 . S
C378 H370 0.930 . S
C378 C377 1.362 . S
C378 C381 1.409 . S
C379 H371 0.930 . S
C379 C380 1.355 . S
C379 C381 1.415 . S
C380 C379 1.355 . S
C380 C382 1.419 . S
C381 C376 1.425 . S
C381 C378 1.409 . S
C381 C379 1.415 . S
C382 H372 0.930 . S
C382 C380 1.419 . S
C382 C383 1.362 . S
C383 H373 0.930 . S
C383 C376 1.409 . S
C383 C382 1.362 . S
H384 C390 0.930 . S
H385 C393 0.930 . S
H386 C394 0.930 . S
H387 C395 0.930 . S
H388 C398 0.930 . S
H389 C399 0.930 . S
C390 H384 0.930 . S
C390 C391 1.355 . S
C390 C392 1.415 . S
C391 C390 1.355 . S
C391 C393 1.419 . S
C392 C390 1.415 . S
C392 C397 1.425 . S
C392 C399 1.409 . S
C393 H385 0.930 . S
C393 C391 1.419 . S
C393 C394 1.362 . S
C394 H386 0.930 . S
C394 C393 1.362 . S
C394 C397 1.409 . S
C395 H387 0.930 . S
C395 C396 1.355 . S
C395 C397 1.415 . S
C396 C395 1.355 . S
C396 C398 1.419 . S
C397 C392 1.425 . S
C397 C394 1.409 . S
C397 C395 1.415 . S
C398 H388 0.930 . S
C398 C396 1.419 . S
C398 C399 1.362 . S
C399 H389 0.930 . S
C399 C392 1.409 . S
C399 C398 1.362 . S
H400 C406 0.930 . S
H401 C409 0.930 . S
H402 C410 0.930 . S
H403 C411 0.930 . S
H404 C414 0.930 . S
H405 C415 0.930 . S
C406 H400 0.930 . S
C406 C407 1.355 . S
C406 C408 1.415 . S
C407 C406 1.355 . S
C407 C409 1.419 . S
C408 C406 1.415 . S
C408 C413 1.425 1_554 S
C408 C415 1.409 1_554 S
C409 H401 0.930 . S
C409 C407 1.419 . S
C409 C410 1.362 . S
C410 H402 0.930 . S
C410 C409 1.362 . S
C410 C413 1.409 1_554 S
C411 H403 0.930 . S
C411 C412 1.355 . S
C411 C413 1.415 . S
C412 C411 1.355 . S
C412 C414 1.419 . S
C413 C408 1.425 1_556 S
C413 C410 1.409 1_556 S
C413 C411 1.415 . S
C414 H404 0.930 . S
C414 C412 1.419 . S
C414 C415 1.362 . S
C415 H405 0.930 . S
C415 C408 1.409 1_556 S
C415 C414 1.362 . S
H416 C422 0.930 . S
H417 C425 0.930 . S
H418 C426 0.930 . S
H419 C427 0.930 . S
H420 C430 0.930 . S
H421 C431 0.930 . S
C422 H416 0.930 . S
C422 C423 1.355 . S
C422 C424 1.415 . S
C423 C422 1.355 . S
C423 C425 1.419 . S
C424 C422 1.415 . S
C424 C429 1.425 1_556 S
C424 C431 1.409 1_556 S
C425 H417 0.930 . S
C425 C423 1.419 . S
C425 C426 1.362 . S
C426 H418 0.930 . S
C426 C425 1.362 . S
C426 C429 1.409 1_556 S
C427 H419 0.930 . S
C427 C428 1.355 . S
C427 C429 1.415 . S
C428 C427 1.355 . S
C428 C430 1.419 . S
C429 C424 1.425 1_554 S
C429 C426 1.409 1_554 S
C429 C427 1.415 . S
C430 H420 0.930 . S
C430 C428 1.419 . S
C430 C431 1.362 . S
C431 H421 0.930 . S
C431 C424 1.409 1_554 S
C431 C430 1.362 . S
H432 C438 0.930 . S
H433 C441 0.930 . S
H434 C442 0.930 . S
H435 C443 0.930 . S
H436 C446 0.930 . S
H437 C447 0.930 . S
C438 H432 0.930 . S
C438 C439 1.355 . S
C438 C440 1.415 . S
C439 C438 1.355 . S
C439 C441 1.419 . S
C440 C438 1.415 . S
C440 C445 1.425 . S
C440 C447 1.409 . S
C441 H433 0.930 . S
C441 C439 1.419 . S
C441 C442 1.362 . S
C442 H434 0.930 . S
C442 C441 1.362 . S
C442 C445 1.409 . S
C443 H435 0.930 . S
C443 C444 1.355 . S
C443 C445 1.415 . S
C444 C443 1.355 . S
C444 C446 1.419 . S
C445 C440 1.425 . S
C445 C442 1.409 . S
C445 C443 1.415 . S
C446 H436 0.930 . S
C446 C444 1.419 . S
C446 C447 1.362 . S
C447 H437 0.930 . S
C447 C440 1.409 . S
C447 C446 1.362 . S
H448 C454 0.930 . S
H449 C457 0.930 . S
H450 C458 0.930 . S
H451 C459 0.930 . S
H452 C462 0.930 . S
H453 C463 0.930 . S
C454 H448 0.930 . S
C454 C455 1.355 . S
C454 C456 1.415 . S
C455 C454 1.355 . S
C455 C457 1.419 . S
C456 C454 1.415 . S
C456 C461 1.425 . S
C456 C463 1.409 . S
C457 H449 0.930 . S
C457 C455 1.419 . S
C457 C458 1.362 . S
C458 H450 0.930 . S
C458 C457 1.362 . S
C458 C461 1.409 . S
C459 H451 0.930 . S
C459 C460 1.355 . S
C459 C461 1.415 . S
C460 C459 1.355 . S
C460 C462 1.419 . S
C461 C456 1.425 . S
C461 C458 1.409 . S
C461 C459 1.415 . S
C462 H452 0.930 . S
C462 C460 1.419 . S
C462 C463 1.362 . S
C463 H453 0.930 . S
C463 C456 1.409 . S
C463 C462 1.362 . S
H464 C470 0.930 . S
H465 C473 0.930 . S
H466 C474 0.930 . S
H467 C475 0.930 . S
H468 C478 0.930 . S
H469 C479 0.930 . S
C470 H464 0.930 . S
C470 C471 1.355 . S
C470 C472 1.415 . S
C471 C470 1.355 . S
C471 C473 1.419 . S
C472 C470 1.415 . S
C472 C477 1.425 1_556 S
C472 C479 1.409 1_556 S
C473 H465 0.930 . S
C473 C471 1.419 . S
C473 C474 1.362 . S
C474 H466 0.930 . S
C474 C473 1.362 . S
C474 C477 1.409 1_556 S
C475 H467 0.930 . S
C475 C476 1.355 . S
C475 C477 1.415 . S
C476 C475 1.355 . S
C476 C478 1.419 . S
C477 C472 1.425 1_554 S
C477 C474 1.409 1_554 S
C477 C475 1.415 . S
C478 H468 0.930 . S
C478 C476 1.419 . S
C478 C479 1.362 . S
C479 H469 0.930 . S
C479 C472 1.409 1_554 S
C479 C478 1.362 . S
H480 C486 0.930 . S
H481 C489 0.930 . S
H482 C490 0.930 . S
H483 C491 0.930 . S
H484 C494 0.930 . S
H485 C495 0.930 . S
C486 H480 0.930 . S
C486 C487 1.355 . S
C486 C488 1.415 . S
C487 C486 1.355 . S
C487 C489 1.419 . S
C488 C486 1.415 . S
C488 C493 1.425 1_554 S
C488 C495 1.409 1_554 S
C489 H481 0.930 . S
C489 C487 1.419 . S
C489 C490 1.362 . S
C490 H482 0.930 . S
C490 C489 1.362 . S
C490 C493 1.409 1_554 S
C491 H483 0.930 . S
C491 C492 1.355 . S
C491 C493 1.415 . S
C492 C491 1.355 . S
C492 C494 1.419 . S
C493 C488 1.425 1_556 S
C493 C490 1.409 1_556 S
C493 C491 1.415 . S
C494 H484 0.930 . S
C494 C492 1.419 . S
C494 C495 1.362 . S
C495 H485 0.930 . S
C495 C488 1.409 1_556 S
C495 C494 1.362 . S
H496 C502 0.930 . S
H497 C505 0.930 . S
H498 C506 0.930 . S
H499 C507 0.930 . S
H500 C510 0.930 . S
H501 C511 0.930 . S
C502 H496 0.930 . S
C502 C503 1.355 . S
C502 C504 1.415 . S
C503 C502 1.355 . S
C503 C505 1.419 1_565 S
C504 C502 1.415 . S
C504 C509 1.425 1_565 S
C504 C511 1.409 . S
C505 H497 0.930 . S
C505 C503 1.419 1_545 S
C505 C506 1.362 . S
C506 H498 0.930 . S
C506 C505 1.362 . S
C506 C509 1.409 . S
C507 H499 0.930 . S
C507 C508 1.355 . S
C507 C509 1.415 . S
C508 C507 1.355 . S
C508 C510 1.419 1_545 S
C509 C504 1.425 1_545 S
C509 C506 1.409 . S
C509 C507 1.415 . S
C510 H500 0.930 . S
C510 C508 1.419 1_565 S
C510 C511 1.362 . S
C511 H501 0.930 . S
C511 C504 1.409 . S
C511 C510 1.362 . S
H512 C518 0.930 . S
H513 C521 0.930 . S
H514 C522 0.930 . S
H515 C523 0.930 . S
H516 C526 0.930 . S
H517 C527 0.930 . S
C518 H512 0.930 . S
C518 C519 1.355 . S
C518 C520 1.415 . S
C519 C518 1.355 . S
C519 C521 1.419 1_565 S
C520 C518 1.415 . S
C520 C525 1.425 1_565 S
C520 C527 1.409 . S
C521 H513 0.930 . S
C521 C519 1.419 1_545 S
C521 C522 1.362 . S
C522 H514 0.930 . S
C522 C521 1.362 . S
C522 C525 1.409 . S
C523 H515 0.930 . S
C523 C524 1.355 . S
C523 C525 1.415 . S
C524 C523 1.355 . S
C524 C526 1.419 1_545 S
C525 C520 1.425 1_545 S
C525 C522 1.409 . S
C525 C523 1.415 . S
C526 H516 0.930 . S
C526 C524 1.419 1_565 S
C526 C527 1.362 . S
C527 H517 0.930 . S
C527 C520 1.409 . S
C527 C526 1.362 . S
H528 C534 0.930 . S
H529 C537 0.930 . S
H530 C538 0.930 . S
H531 C539 0.930 . S
H532 C542 0.930 . S
H533 C543 0.930 . S
C534 H528 0.930 . S
C534 C535 1.355 . S
C534 C536 1.415 . S
C535 C534 1.355 . S
C535 C537 1.419 1_565 S
C536 C534 1.415 . S
C536 C541 1.425 1_565 S
C536 C543 1.409 . S
C537 H529 0.930 . S
C537 C535 1.419 1_545 S
C537 C538 1.362 . S
C538 H530 0.930 . S
C538 C537 1.362 . S
C538 C541 1.409 . S
C539 H531 0.930 . S
C539 C540 1.355 . S
C539 C541 1.415 . S
C540 C539 1.355 . S
C540 C542 1.419 1_545 S
C541 C536 1.425 1_545 S
C541 C538 1.409 . S
C541 C539 1.415 . S
C542 H532 0.930 . S
C542 C540 1.419 1_565 S
C542 C543 1.362 . S
C543 H533 0.930 . S
C543 C536 1.409 . S
C543 C542 1.362 . S
H544 C550 0.930 . S
H545 C553 0.930 . S
H546 C554 0.930 . S
H547 C555 0.930 . S
H548 C558 0.930 . S
H549 C559 0.930 . S
C550 H544 0.930 . S
C550 C551 1.355 . S
C550 C552 1.415 . S
C551 C550 1.355 . S
C551 C553 1.419 1_545 S
C552 C550 1.415 . S
C552 C557 1.425 1_545 S
C552 C559 1.409 . S
C553 H545 0.930 . S
C553 C551 1.419 1_565 S
C553 C554 1.362 . S
C554 H546 0.930 . S
C554 C553 1.362 . S
C554 C557 1.409 . S
C555 H547 0.930 . S
C555 C556 1.355 . S
C555 C557 1.415 . S
C556 C555 1.355 . S
C556 C558 1.419 1_565 S
C557 C552 1.425 1_565 S
C557 C554 1.409 . S
C557 C555 1.415 . S
C558 H548 0.930 . S
C558 C556 1.419 1_545 S
C558 C559 1.362 . S
C559 H549 0.930 . S
C559 C552 1.409 . S
C559 C558 1.362 . S
H560 C566 0.930 . S
H561 C569 0.930 . S
H562 C570 0.930 1_455 S
H563 C571 0.930 . S
H564 C574 0.930 . S
H565 C575 0.930 1_655 S
C566 H560 0.930 . S
C566 C567 1.355 . S
C566 C568 1.415 . S
C567 C566 1.355 . S
C567 C569 1.419 . S
C568 C566 1.415 . S
C568 C573 1.425 1_655 S
C568 C575 1.409 1_655 S
C569 H561 0.930 . S
C569 C567 1.419 . S
C569 C570 1.362 . S
C570 H562 0.930 1_655 S
C570 C569 1.362 . S
C570 C573 1.409 1_655 S
C571 H563 0.930 . S
C571 C572 1.355 . S
C571 C573 1.415 . S
C572 C571 1.355 . S
C572 C574 1.419 . S
C573 C568 1.425 1_455 S
C573 C570 1.409 1_455 S
C573 C571 1.415 . S
C574 H564 0.930 . S
C574 C572 1.419 . S
C574 C575 1.362 . S
C575 H565 0.930 1_455 S
C575 C568 1.409 1_455 S
C575 C574 1.362 . S
H576 C582 0.930 . S
H577 C585 0.930 . S
H578 C586 0.930 1_655 S
H579 C587 0.930 . S
H580 C590 0.930 . S
H581 C591 0.930 1_455 S
C582 H576 0.930 . S
C582 C583 1.355 . S
C582 C584 1.415 . S
C583 C582 1.355 . S
C583 C585 1.419 . S
C584 C582 1.415 . S
C584 C589 1.425 1_455 S
C584 C591 1.409 1_455 S
C585 H577 0.930 . S
C585 C583 1.419 . S
C585 C586 1.362 . S
C586 H578 0.930 1_455 S
C586 C585 1.362 . S
C586 C589 1.409 1_455 S
C587 H579 0.930 . S
C587 C588 1.355 . S
C587 C589 1.415 . S
C588 C587 1.355 . S
C588 C590 1.419 . S
C589 C584 1.425 1_655 S
C589 C586 1.409 1_655 S
C589 C587 1.415 . S
C590 H580 0.930 . S
C590 C588 1.419 . S
C590 C591 1.362 . S
C591 H581 0.930 1_655 S
C591 C584 1.409 1_655 S
C591 C590 1.362 . S
H592 C598 0.930 . S
H593 C601 0.930 . S
H594 C602 0.930 . S
H595 C603 0.930 . S
H596 C606 0.930 . S
H597 C607 0.930 . S
C598 H592 0.930 . S
C598 C599 1.355 . S
C598 C600 1.415 1_655 S
C599 C598 1.355 . S
C599 C601 1.419 . S
C600 C598 1.415 1_455 S
C600 C605 1.425 1_455 S
C600 C607 1.409 . S
C601 H593 0.930 . S
C601 C599 1.419 . S
C601 C602 1.362 . S
C602 H594 0.930 . S
C602 C601 1.362 . S
C602 C605 1.409 . S
C603 H595 0.930 . S
C603 C604 1.355 . S
C603 C605 1.415 1_455 S
C604 C603 1.355 . S
C604 C606 1.419 . S
C605 C600 1.425 1_655 S
C605 C602 1.409 . S
C605 C603 1.415 1_655 S
C606 H596 0.930 . S
C606 C604 1.419 . S
C606 C607 1.362 . S
C607 H597 0.930 . S
C607 C600 1.409 . S
C607 C606 1.362 . S
H608 C614 0.930 . S
H609 C617 0.930 . S
H610 C618 0.930 1_655 S
H611 C619 0.930 . S
H612 C622 0.930 . S
H613 C623 0.930 1_455 S
C614 H608 0.930 . S
C614 C615 1.355 . S
C614 C616 1.415 . S
C615 C614 1.355 . S
C615 C617 1.419 . S
C616 C614 1.415 . S
C616 C621 1.425 1_455 S
C616 C623 1.409 1_455 S
C617 H609 0.930 . S
C617 C615 1.419 . S
C617 C618 1.362 . S
C618 H610 0.930 1_455 S
C618 C617 1.362 . S
C618 C621 1.409 1_455 S
C619 H611 0.930 . S
C619 C620 1.355 . S
C619 C621 1.415 . S
C620 C619 1.355 . S
C620 C622 1.419 . S
C621 C616 1.425 1_655 S
C621 C618 1.409 1_655 S
C621 C619 1.415 . S
C622 H612 0.930 . S
C622 C620 1.419 . S
C622 C623 1.362 . S
C623 H613 0.930 1_655 S
C623 C616 1.409 1_655 S
C623 C622 1.362 . S
H624 C630 0.930 . S
H625 C633 0.930 . S
H626 C634 0.930 . S
H627 C635 0.930 . S
H628 C638 0.930 . S
H629 C639 0.930 . S
C630 H624 0.930 . S
C630 C631 1.355 . S
C630 C632 1.415 . S
C631 C630 1.355 . S
C631 C633 1.419 . S
C632 C630 1.415 . S
C632 C637 1.425 . S
C632 C639 1.409 . S
C633 H625 0.930 . S
C633 C631 1.419 . S
C633 C634 1.362 . S
C634 H626 0.930 . S
C634 C633 1.362 . S
C634 C637 1.409 . S
C635 H627 0.930 . S
C635 C636 1.355 . S
C635 C637 1.415 . S
C636 C635 1.355 . S
C636 C638 1.419 . S
C637 C632 1.425 . S
C637 C634 1.409 . S
C637 C635 1.415 . S
C638 H628 0.930 . S
C638 C636 1.419 . S
C638 C639 1.362 . S
C639 H629 0.930 . S
C639 C632 1.409 . S
C639 C638 1.362 . S
H640 C646 0.930 . S
H641 C649 0.930 . S
H642 C650 0.930 . S
H643 C651 0.930 . S
H644 C654 0.930 . S
H645 C655 0.930 . S
C646 H640 0.930 . S
C646 C647 1.355 . S
C646 C648 1.415 . S
C647 C646 1.355 . S
C647 C649 1.419 . S
C648 C646 1.415 . S
C648 C653 1.425 . S
C648 C655 1.409 . S
C649 H641 0.930 . S
C649 C647 1.419 . S
C649 C650 1.362 . S
C650 H642 0.930 . S
C650 C649 1.362 . S
C650 C653 1.409 . S
C651 H643 0.930 . S
C651 C652 1.355 . S
C651 C653 1.415 . S
C652 C651 1.355 . S
C652 C654 1.419 . S
C653 C648 1.425 . S
C653 C650 1.409 . S
C653 C651 1.415 . S
C654 H644 0.930 . S
C654 C652 1.419 . S
C654 C655 1.362 . S
C655 H645 0.930 . S
C655 C648 1.409 . S
C655 C654 1.362 . S
H656 C662 0.930 . S
H657 C665 0.930 . S
H658 C666 0.930 . S
H659 C667 0.930 . S
H660 C670 0.930 . S
H661 C671 0.930 . S
C662 H656 0.930 . S
C662 C663 1.355 . S
C662 C664 1.415 . S
C663 C662 1.355 . S
C663 C665 1.419 . S
C664 C662 1.415 . S
C664 C669 1.425 . S
C664 C671 1.409 . S
C665 H657 0.930 . S
C665 C663 1.419 . S
C665 C666 1.362 . S
C666 H658 0.930 . S
C666 C665 1.362 . S
C666 C669 1.409 . S
C667 H659 0.930 . S
C667 C668 1.355 . S
C667 C669 1.415 . S
C668 C667 1.355 . S
C668 C670 1.419 . S
C669 C664 1.425 . S
C669 C666 1.409 . S
C669 C667 1.415 . S
C670 H660 0.930 . S
C670 C668 1.419 . S
C670 C671 1.362 . S
C671 H661 0.930 . S
C671 C664 1.409 . S
C671 C670 1.362 . S
H672 C678 0.930 . S
H673 C681 0.930 . S
H674 C682 0.930 . S
H675 C683 0.930 . S
H676 C686 0.930 . S
H677 C687 0.930 . S
C678 H672 0.930 . S
C678 C679 1.355 . S
C678 C680 1.415 . S
C679 C678 1.355 . S
C679 C681 1.419 . S
C680 C678 1.415 . S
C680 C685 1.425 . S
C680 C687 1.409 . S
C681 H673 0.930 . S
C681 C679 1.419 . S
C681 C682 1.362 . S
C682 H674 0.930 . S
C682 C681 1.362 . S
C682 C685 1.409 . S
C683 H675 0.930 . S
C683 C684 1.355 . S
C683 C685 1.415 . S
C684 C683 1.355 . S
C684 C686 1.419 . S
C685 C680 1.425 . S
C685 C682 1.409 . S
C685 C683 1.415 . S
C686 H676 0.930 . S
C686 C684 1.419 . S
C686 C687 1.362 . S
C687 H677 0.930 . S
C687 C680 1.409 . S
C687 C686 1.362 . S
H688 C694 0.930 . S
H689 C697 0.930 . S
H690 C698 0.930 . S
H691 C699 0.930 . S
H692 C702 0.930 . S
H693 C703 0.930 . S
C694 H688 0.930 . S
C694 C695 1.355 . S
C694 C696 1.415 . S
C695 C694 1.355 . S
C695 C697 1.419 . S
C696 C694 1.415 . S
C696 C701 1.425 . S
C696 C703 1.409 . S
C697 H689 0.930 . S
C697 C695 1.419 . S
C697 C698 1.362 . S
C698 H690 0.930 . S
C698 C697 1.362 . S
C698 C701 1.409 . S
C699 H691 0.930 . S
C699 C700 1.355 . S
C699 C701 1.415 . S
C700 C699 1.355 . S
C700 C702 1.419 . S
C701 C696 1.425 . S
C701 C698 1.409 . S
C701 C699 1.415 . S
C702 H692 0.930 . S
C702 C700 1.419 . S
C702 C703 1.362 . S
C703 H693 0.930 . S
C703 C696 1.409 . S
C703 C702 1.362 . S
H704 C710 0.930 . S
H705 C713 0.930 . S
H706 C714 0.930 . S
H707 C715 0.930 . S
H708 C718 0.930 . S
H709 C719 0.930 . S
C710 H704 0.930 . S
C710 C711 1.355 . S
C710 C712 1.415 . S
C711 C710 1.355 . S
C711 C713 1.419 . S
C712 C710 1.415 . S
C712 C717 1.425 . S
C712 C719 1.409 . S
C713 H705 0.930 . S
C713 C711 1.419 . S
C713 C714 1.362 . S
C714 H706 0.930 . S
C714 C713 1.362 . S
C714 C717 1.409 . S
C715 H707 0.930 . S
C715 C716 1.355 . S
C715 C717 1.415 . S
C716 C715 1.355 . S
C716 C718 1.419 . S
C717 C712 1.425 . S
C717 C714 1.409 . S
C717 C715 1.415 . S
C718 H708 0.930 . S
C718 C716 1.419 . S
C718 C719 1.362 . S
C719 H709 0.930 . S
C719 C712 1.409 . S
C719 C718 1.362 . S
H720 C726 0.930 . S
H721 C729 0.930 . S
H722 C730 0.930 . S
H723 C731 0.930 . S
H724 C734 0.930 . S
H725 C735 0.930 . S
C726 H720 0.930 . S
C726 C727 1.355 . S
C726 C728 1.415 . S
C727 C726 1.355 . S
C727 C729 1.419 . S
C728 C726 1.415 . S
C728 C733 1.425 . S
C728 C735 1.409 . S
C729 H721 0.930 . S
C729 C727 1.419 . S
C729 C730 1.362 . S
C730 H722 0.930 . S
C730 C729 1.362 . S
C730 C733 1.409 . S
C731 H723 0.930 . S
C731 C732 1.355 . S
C731 C733 1.415 . S
C732 C731 1.355 . S
C732 C734 1.419 . S
C733 C728 1.425 . S
C733 C730 1.409 . S
C733 C731 1.415 . S
C734 H724 0.930 . S
C734 C732 1.419 . S
C734 C735 1.362 . S
C735 H725 0.930 . S
C735 C728 1.409 . S
C735 C734 1.362 . S
H736 C742 0.930 . S
H737 C745 0.930 . S
H738 C746 0.930 . S
H739 C747 0.930 . S
H740 C750 0.930 . S
H741 C751 0.930 . S
C742 H736 0.930 . S
C742 C743 1.355 . S
C742 C744 1.415 . S
C743 C742 1.355 . S
C743 C745 1.419 . S
C744 C742 1.415 . S
C744 C749 1.425 . S
C744 C751 1.409 . S
C745 H737 0.930 . S
C745 C743 1.419 . S
C745 C746 1.362 . S
C746 H738 0.930 . S
C746 C745 1.362 . S
C746 C749 1.409 . S
C747 H739 0.930 . S
C747 C748 1.355 . S
C747 C749 1.415 . S
C748 C747 1.355 . S
C748 C750 1.419 . S
C749 C744 1.425 . S
C749 C746 1.409 . S
C749 C747 1.415 . S
C750 H740 0.930 . S
C750 C748 1.419 . S
C750 C751 1.362 . S
C751 H741 0.930 . S
C751 C744 1.409 . S
C751 C750 1.362 . S
H752 C758 0.930 1_565 S
H753 C761 0.930 . S
H754 C762 0.930 . S
H755 C763 0.930 1_545 S
H756 C766 0.930 . S
H757 C767 0.930 . S
C758 H752 0.930 1_545 S
C758 C759 1.355 . S
C758 C760 1.415 1_545 S
C759 C758 1.355 . S
C759 C761 1.419 . S
C760 C758 1.415 1_565 S
C760 C765 1.425 1_565 S
C760 C767 1.409 . S
C761 H753 0.930 . S
C761 C759 1.419 . S
C761 C762 1.362 . S
C762 H754 0.930 . S
C762 C761 1.362 . S
C762 C765 1.409 . S
C763 H755 0.930 1_565 S
C763 C764 1.355 . S
C763 C765 1.415 1_565 S
C764 C763 1.355 . S
C764 C766 1.419 . S
C765 C760 1.425 1_545 S
C765 C762 1.409 . S
C765 C763 1.415 1_545 S
C766 H756 0.930 . S
C766 C764 1.419 . S
C766 C767 1.362 . S
C767 H757 0.930 . S
C767 C760 1.409 . S
C767 C766 1.362 . S
H768 C774 0.930 . S
H769 C777 0.930 . S
H770 C778 0.930 . S
H771 C779 0.930 . S
H772 C782 0.930 . S
H773 C783 0.930 . S
C774 H768 0.930 . S
C774 C775 1.355 . S
C774 C776 1.415 . S
C775 C774 1.355 . S
C775 C777 1.419 . S
C776 C774 1.415 . S
C776 C781 1.425 1_545 S
C776 C783 1.409 . S
C777 H769 0.930 . S
C777 C775 1.419 . S
C777 C778 1.362 1_545 S
C778 H770 0.930 . S
C778 C777 1.362 1_565 S
C778 C781 1.409 . S
C779 H771 0.930 . S
C779 C780 1.355 . S
C779 C781 1.415 . S
C780 C779 1.355 . S
C780 C782 1.419 . S
C781 C776 1.425 1_565 S
C781 C778 1.409 . S
C781 C779 1.415 . S
C782 H772 0.930 . S
C782 C780 1.419 . S
C782 C783 1.362 1_565 S
C783 H773 0.930 . S
C783 C776 1.409 . S
C783 C782 1.362 1_545 S
H784 C790 0.930 . S
H785 C793 0.930 . S
H786 C794 0.930 . S
H787 C795 0.930 . S
H788 C798 0.930 . S
H789 C799 0.930 . S
C790 H784 0.930 . S
C790 C791 1.355 . S
C790 C792 1.415 1_545 S
C791 C790 1.355 . S
C791 C793 1.419 . S
C792 C790 1.415 1_565 S
C792 C797 1.425 1_565 S
C792 C799 1.409 . S
C793 H785 0.930 . S
C793 C791 1.419 . S
C793 C794 1.362 . S
C794 H786 0.930 . S
C794 C793 1.362 . S
C794 C797 1.409 . S
C795 H787 0.930 . S
C795 C796 1.355 . S
C795 C797 1.415 1_565 S
C796 C795 1.355 . S
C796 C798 1.419 . S
C797 C792 1.425 1_545 S
C797 C794 1.409 . S
C797 C795 1.415 1_545 S
C798 H788 0.930 . S
C798 C796 1.419 . S
C798 C799 1.362 . S
C799 H789 0.930 . S
C799 C792 1.409 . S
C799 C798 1.362 . S
H800 C806 0.930 1_545 S
H801 C809 0.930 . S
H802 C810 0.930 . S
H803 C811 0.930 1_565 S
H804 C814 0.930 . S
H805 C815 0.930 . S
C806 H800 0.930 1_565 S
C806 C807 1.355 . S
C806 C808 1.415 1_565 S
C807 C806 1.355 . S
C807 C809 1.419 . S
C808 C806 1.415 1_545 S
C808 C813 1.425 1_545 S
C808 C815 1.409 . S
C809 H801 0.930 . S
C809 C807 1.419 . S
C809 C810 1.362 . S
C810 H802 0.930 . S
C810 C809 1.362 . S
C810 C813 1.409 . S
C811 H803 0.930 1_545 S
C811 C812 1.355 . S
C811 C813 1.415 1_545 S
C812 C811 1.355 . S
C812 C814 1.419 . S
C813 C808 1.425 1_565 S
C813 C810 1.409 . S
C813 C811 1.415 1_565 S
C814 H804 0.930 . S
C814 C812 1.419 . S
C814 C815 1.362 . S
C815 H805 0.930 . S
C815 C808 1.409 . S
C815 C814 1.362 . S
H816 C822 0.930 . S
H817 C825 0.930 . S
H818 C826 0.930 . S
H819 C827 0.930 . S
H820 C830 0.930 . S
H821 C831 0.930 . S
C822 H816 0.930 . S
C822 C823 1.355 . S
C822 C824 1.415 . S
C823 C822 1.355 . S
C823 C825 1.419 . S
C824 C822 1.415 . S
C824 C829 1.425 . S
C824 C831 1.409 . S
C825 H817 0.930 . S
C825 C823 1.419 . S
C825 C826 1.362 . S
C826 H818 0.930 . S
C826 C825 1.362 . S
C826 C829 1.409 . S
C827 H819 0.930 . S
C827 C828 1.355 . S
C827 C829 1.415 . S
C828 C827 1.355 . S
C828 C830 1.419 . S
C829 C824 1.425 . S
C829 C826 1.409 . S
C829 C827 1.415 . S
C830 H820 0.930 . S
C830 C828 1.419 . S
C830 C831 1.362 . S
C831 H821 0.930 . S
C831 C824 1.409 . S
C831 C830 1.362 . S
H832 C838 0.930 . S
H833 C841 0.930 . S
H834 C842 0.930 . S
H835 C843 0.930 . S
H836 C846 0.930 . S
H837 C847 0.930 . S
C838 H832 0.930 . S
C838 C839 1.355 . S
C838 C840 1.415 . S
C839 C838 1.355 . S
C839 C841 1.419 . S
C840 C838 1.415 . S
C840 C845 1.425 . S
C840 C847 1.409 . S
C841 H833 0.930 . S
C841 C839 1.419 . S
C841 C842 1.362 . S
C842 H834 0.930 . S
C842 C841 1.362 . S
C842 C845 1.409 . S
C843 H835 0.930 . S
C843 C844 1.355 . S
C843 C845 1.415 . S
C844 C843 1.355 . S
C844 C846 1.419 . S
C845 C840 1.425 . S
C845 C842 1.409 . S
C845 C843 1.415 . S
C846 H836 0.930 . S
C846 C844 1.419 . S
C846 C847 1.362 . S
C847 H837 0.930 . S
C847 C840 1.409 . S
C847 C846 1.362 . S
H848 C854 0.930 . S
H849 C857 0.930 . S
H850 C858 0.930 . S
H851 C859 0.930 . S
H852 C862 0.930 . S
H853 C863 0.930 . S
C854 H848 0.930 . S
C854 C855 1.355 . S
C854 C856 1.415 . S
C855 C854 1.355 . S
C855 C857 1.419 . S
C856 C854 1.415 . S
C856 C861 1.425 . S
C856 C863 1.409 . S
C857 H849 0.930 . S
C857 C855 1.419 . S
C857 C858 1.362 . S
C858 H850 0.930 . S
C858 C857 1.362 . S
C858 C861 1.409 . S
C859 H851 0.930 . S
C859 C860 1.355 . S
C859 C861 1.415 . S
C860 C859 1.355 . S
C860 C862 1.419 . S
C861 C856 1.425 . S
C861 C858 1.409 . S
C861 C859 1.415 . S
C862 H852 0.930 . S
C862 C860 1.419 . S
C862 C863 1.362 . S
C863 H853 0.930 . S
C863 C856 1.409 . S
C863 C862 1.362 . S
H864 C870 0.930 . S
H865 C873 0.930 . S
H866 C874 0.930 . S
H867 C875 0.930 . S
H868 C878 0.930 . S
H869 C879 0.930 . S
C870 H864 0.930 . S
C870 C871 1.355 . S
C870 C872 1.415 . S
C871 C870 1.355 . S
C871 C873 1.419 . S
C872 C870 1.415 . S
C872 C877 1.425 . S
C872 C879 1.409 . S
C873 H865 0.930 . S
C873 C871 1.419 . S
C873 C874 1.362 . S
C874 H866 0.930 . S
C874 C873 1.362 . S
C874 C877 1.409 . S
C875 H867 0.930 . S
C875 C876 1.355 . S
C875 C877 1.415 . S
C876 C875 1.355 . S
C876 C878 1.419 . S
C877 C872 1.425 . S
C877 C874 1.409 . S
C877 C875 1.415 . S
C878 H868 0.930 . S
C878 C876 1.419 . S
C878 C879 1.362 . S
C879 H869 0.930 . S
C879 C872 1.409 . S
C879 C878 1.362 . S
C375 C7 1.631 . S
C380 C122 1.672 . S
C391 C99 1.636 . S
C396 C30 1.668 . S
C407 C53 1.668 . S
C412 C168 1.636 . S
C423 C145 1.668 . S
C428 C76 1.636 . S
C439 C306 1.632 . S
C444 C191 1.672 . S
C455 C283 1.652 . S
C460 C214 1.652 . S
C471 C352 1.636 . S
C476 C237 1.668 . S
C487 C260 1.672 . S
C492 C329 1.631 . S
C503 N25 1.487 . S
C508 N2 1.466 . S
C519 N48 1.482 . S
C524 N71 1.447 . S
C535 N94 1.476 . S
C540 N117 1.484 . S
C551 N140 1.460 . S
C556 N163 1.486 . S
C567 N186 1.425 . S
C572 N209 1.464 . S
C583 N255 1.435 . S
C588 N232 1.412 . S
C599 N301 1.472 . S
C604 N278 1.486 . S
C615 N324 1.413 . S
C620 N347 1.439 . S
C631 N219 1.439 . S
C636 N12 1.467 . S
C647 N35 1.455 . S
C652 N196 1.449 . S
C663 N265 1.480 . S
C668 N58 1.466 . S
C679 N81 1.467 . S
C684 N242 1.479 . S
C695 N104 1.480 . S
C700 N311 1.467 . S
C711 N288 1.456 . S
C716 N127 1.448 . S
C727 N150 1.452 . S
C732 N357 1.451 . S
C743 N334 1.453 . S
C748 N173 1.450 . S
C759 C16 1.656 . S
C764 C62 1.645 . S
C775 C85 1.619 . S
C780 C39 1.597 . S
C791 C154 1.624 . S
C796 C108 1.650 . S
C807 C177 1.648 . S
C812 C131 1.655 . S
C823 C246 1.654 . S
C828 C200 1.633 . S
C839 C223 1.653 . S
C844 C269 1.651 . S
C855 C338 1.618 . S
C860 C292 1.646 . S
C871 C315 1.650 . S
C876 C361 1.654 . S
