# Generated by pormake.
# Topology ukg, (4)-cn, num edge types: 1
# Building blocks:
#     Node 0, Type 0, BuildingBlock: KUFVIS_clean_sbu_0, # of connection points: 4
#     Node 1, Type 0, BuildingBlock: KUFVIS_clean_sbu_0, # of connection points: 4
#     Node 2, Type 0, BuildingBlock: KUFVIS_clean_sbu_0, # of connection points: 4
#     Node 3, Type 0, BuildingBlock: KUFVIS_clean_sbu_0, # of connection points: 4
#     Node 4, Type 0, BuildingBlock: KUFVIS_clean_sbu_0, # of connection points: 4
#     Node 5, Type 0, BuildingBlock: KUFVIS_clean_sbu_0, # of connection points: 4
#     Node 6, Type 0, BuildingBlock: KUFVIS_clean_sbu_0, # of connection points: 4
#     Node 7, Type 0, BuildingBlock: KUFVIS_clean_sbu_0, # of connection points: 4
#     Edge 8, Type (0, 0), BuildingBlock: CIFDUS_clean_linker_0, # of connection points: 2
#     Edge 9, Type (0, 0), BuildingBlock: CIFDUS_clean_linker_0, # of connection points: 2
#     Edge 10, Type (0, 0), BuildingBlock: CIFDUS_clean_linker_0, # of connection points: 2
#     Edge 11, Type (0, 0), BuildingBlock: CIFDUS_clean_linker_0, # of connection points: 2
#     Edge 12, Type (0, 0), BuildingBlock: CIFDUS_clean_linker_0, # of connection points: 2
#     Edge 13, Type (0, 0), BuildingBlock: CIFDUS_clean_linker_0, # of connection points: 2
#     Edge 14, Type (0, 0), BuildingBlock: CIFDUS_clean_linker_0, # of connection points: 2
#     Edge 15, Type (0, 0), BuildingBlock: CIFDUS_clean_linker_0, # of connection points: 2
#     Edge 16, Type (0, 0), BuildingBlock: CIFDUS_clean_linker_0, # of connection points: 2
#     Edge 17, Type (0, 0), BuildingBlock: CIFDUS_clean_linker_0, # of connection points: 2
#     Edge 18, Type (0, 0), BuildingBlock: CIFDUS_clean_linker_0, # of connection points: 2
#     Edge 19, Type (0, 0), BuildingBlock: CIFDUS_clean_linker_0, # of connection points: 2
#     Edge 20, Type (0, 0), BuildingBlock: CIFDUS_clean_linker_0, # of connection points: 2
#     Edge 21, Type (0, 0), BuildingBlock: CIFDUS_clean_linker_0, # of connection points: 2
#     Edge 22, Type (0, 0), BuildingBlock: CIFDUS_clean_linker_0, # of connection points: 2
#     Edge 23, Type (0, 0), BuildingBlock: CIFDUS_clean_linker_0, # of connection points: 2
# Relax obj value: 0.155
# Max RMSD: 0.246
# Mean RMSD: 0.246
data_MOF--net-ukg--node1-KUFVIS_clean_sbu_0--edge1-CIFDUS_clean_linker_0
_symmetry_space_group_name_H-M    P1
_symmetry_Int_Tables_number       1
_symmetry_cell_setting            triclinic
loop_
_symmetry_equiv_pos_as_xyz
'x, y, z'
_cell_length_a     26.709182
_cell_length_b     26.787485
_cell_length_c     31.234784
_cell_angle_alpha  89.694188
_cell_angle_beta   89.991922
_cell_angle_gamma 90.143007
loop_
_atom_site_label
_atom_site_type_symbol
_atom_site_fract_x
_atom_site_fract_y
_atom_site_fract_z
_atom_type_partial_charge
Mn0 Mn 0.00664 0.67389 0.15176 0.0
Mn1 Mn 0.00595 0.74529 0.06264 0.0
C2 C 0.99402 0.75864 0.15653 0.0
C3 C 0.96111 0.62719 0.20161 0.0
C4 C 0.10115 0.7091 0.10527 0.0
O5 O 0.99952 0.62239 0.10423 0.0
O6 O 0.99686 0.67385 0.04695 0.0
C7 C 0.90002 0.72953 0.03821 0.0
N8 N 0.93802 0.76106 0.04899 0.0
C9 C 0.88343 0.83227 0.04493 0.0
C10 C 0.84382 0.8006 0.03346 0.0
C11 C 0.85216 0.74901 0.03011 0.0
C12 C 0.93043 0.81078 0.0522 0.0
H13 H 0.90614 0.6898 0.03601 0.0
C14 C 0.99574 0.63014 0.06393 0.0
O15 O 0.0092 0.6209 0.19784 0.0
O16 O 0.93989 0.65745 0.17495 0.0
N17 N 0.01379 0.81512 0.0736 0.0
C18 C 0.05528 0.84019 0.08716 0.0
C19 C 0.05283 0.89201 0.09332 0.0
C20 C 0.00785 0.91751 0.08539 0.0
C21 C 0.9658 0.89098 0.07107 0.0
C22 C 0.97062 0.83945 0.06504 0.0
H23 H 0.08981 0.82071 0.09368 0.0
O24 O 0.00895 0.7333 0.18956 0.0
O25 O 0.98615 0.73327 0.12181 0.0
O26 O 0.08065 0.68523 0.13627 0.0
O27 O 0.07686 0.73173 0.07575 0.0
C28 C 0.91901 0.91349 0.06338 0.0
C29 C 0.87786 0.88416 0.05032 0.0
H30 H 0.80673 0.81541 0.02756 0.0
H31 H 0.8217 0.72429 0.02154 0.0
H32 H 0.08541 0.9122 0.10448 0.0
H33 H 0.00595 0.95739 0.09067 0.0
H34 H 0.91412 0.95324 0.06789 0.0
H35 H 0.84194 0.90181 0.045 0.0
Mn36 Mn 0.34194 0.51827 0.67078 0.0
Mn37 Mn 0.27731 0.50277 0.57941 0.0
C38 C 0.25841 0.4973 0.67389 0.0
C39 C 0.39268 0.48229 0.72282 0.0
C40 C 0.30072 0.60429 0.61666 0.0
O41 O 0.39664 0.51336 0.62594 0.0
O42 O 0.35081 0.50077 0.56655 0.0
C43 C 0.30582 0.39789 0.56293 0.0
N44 N 0.26971 0.43268 0.57003 0.0
C45 C 0.2049 0.37019 0.56748 0.0
C46 C 0.24137 0.33375 0.5598 0.0
C47 C 0.29205 0.34768 0.55753 0.0
C48 C 0.22082 0.41971 0.57218 0.0
H49 H 0.34487 0.40834 0.56159 0.0
C50 C 0.39298 0.50601 0.58579 0.0
O51 O 0.39321 0.5304 0.71683 0.0
O52 O 0.36427 0.45594 0.69822 0.0
N53 N 0.20623 0.50342 0.58722 0.0
C54 C 0.17599 0.5427 0.59685 0.0
C55 C 0.12426 0.53483 0.60142 0.0
C56 C 0.10418 0.48677 0.59595 0.0
C57 C 0.136 0.44703 0.58566 0.0
C58 C 0.18718 0.45721 0.58109 0.0
H59 H 0.19128 0.57963 0.60147 0.0
O60 O 0.28056 0.51706 0.70665 0.0
O61 O 0.28653 0.48937 0.6405 0.0
O62 O 0.32416 0.58887 0.64991 0.0
O63 O 0.28257 0.57556 0.58797 0.0
C64 C 0.11907 0.39756 0.58058 0.0
C65 C 0.15348 0.35917 0.57149 0.0
H66 H 0.23095 0.29491 0.55597 0.0
H67 H 0.32044 0.31972 0.55187 0.0
H68 H 0.09996 0.56566 0.60946 0.0
H69 H 0.06433 0.48075 0.59998 0.0
H70 H 0.07971 0.38853 0.58405 0.0
H71 H 0.14008 0.3212 0.5681 0.0
Mn72 Mn 0.47981 0.83188 0.17525 0.0
Mn73 Mn 0.48215 0.76969 0.0818 0.0
C74 C 0.50041 0.74853 0.17458 0.0
C75 C 0.522 0.88187 0.22411 0.0
C76 C 0.38635 0.79114 0.13051 0.0
O77 O 0.47923 0.88754 0.13098 0.0
O78 O 0.48334 0.84326 0.07014 0.0
C79 C 0.58447 0.79872 0.05472 0.0
N80 N 0.55047 0.76247 0.06465 0.0
C81 C 0.61147 0.69791 0.05327 0.0
C82 C 0.64702 0.73454 0.04262 0.0
C83 C 0.63344 0.78516 0.04338 0.0
C84 C 0.56313 0.71365 0.064 0.0
H85 H 0.57438 0.83771 0.05563 0.0
C86 C 0.48161 0.88483 0.09031 0.0
O87 O 0.47334 0.88181 0.22266 0.0
O88 O 0.54551 0.85409 0.19706 0.0
N89 N 0.48195 0.69854 0.08799 0.0
C90 C 0.44377 0.66793 0.10052 0.0
C91 C 0.45156 0.61614 0.10239 0.0
C92 C 0.49837 0.59635 0.09113 0.0
C93 C 0.53685 0.62852 0.07771 0.0
C94 C 0.52675 0.67978 0.07608 0.0
H95 H 0.40779 0.68292 0.10947 0.0
O96 O 0.48561 0.76954 0.20968 0.0
O97 O 0.50413 0.77751 0.14112 0.0
O98 O 0.40658 0.81463 0.16162 0.0
O99 O 0.41103 0.77416 0.09864 0.0
C100 C 0.58508 0.61181 0.06658 0.0
C101 C 0.62237 0.64648 0.0544 0.0
H102 H 0.68494 0.72426 0.03415 0.0
H103 H 0.66075 0.81366 0.03543 0.0
H104 H 0.42167 0.59156 0.11276 0.0
H105 H 0.5044 0.55643 0.09307 0.0
H106 H 0.59403 0.57241 0.06769 0.0
H107 H 0.65945 0.63321 0.04633 0.0
Mn108 Mn 0.16858 0.97977 0.67249 0.0
Mn109 Mn 0.2342 0.98343 0.58059 0.0
C110 C 0.25212 0.00094 0.67387 0.0
C111 C 0.11669 0.01993 0.72051 0.0
C112 C 0.21081 0.88735 0.62853 0.0
O113 O 0.11439 0.97973 0.62711 0.0
O114 O 0.16073 0.98494 0.56716 0.0
C115 C 0.20653 0.08582 0.55341 0.0
N116 N 0.24235 0.05185 0.56411 0.0
C117 C 0.3076 0.11327 0.55576 0.0
C118 C 0.27143 0.14879 0.54435 0.0
C119 C 0.22069 0.13498 0.54318 0.0
C120 C 0.29131 0.06473 0.56529 0.0
H121 H 0.16742 0.07559 0.55289 0.0
C122 C 0.11836 0.98308 0.58656 0.0
O123 O 0.11708 0.97148 0.71857 0.0
O124 O 0.1453 0.04447 0.69438 0.0
N125 N 0.30527 0.98331 0.58872 0.0
C126 C 0.33531 0.94516 0.60193 0.0
C127 C 0.3871 0.95317 0.60566 0.0
C128 C 0.40748 0.00018 0.59565 0.0
C129 C 0.37591 0.03868 0.58161 0.0
C130 C 0.32465 0.02836 0.57805 0.0
H131 H 0.31986 0.90904 0.60999 0.0
O132 O 0.22978 0.98531 0.70832 0.0
O133 O 0.22427 0.00491 0.63978 0.0
O134 O 0.18629 0.90746 0.65897 0.0
O135 O 0.22895 0.91198 0.59686 0.0
C136 C 0.39319 0.08711 0.57171 0.0
C137 C 0.35906 0.12439 0.55883 0.0
H138 H 0.28215 0.18686 0.53678 0.0
H139 H 0.19252 0.16226 0.53466 0.0
H140 H 0.41122 0.92328 0.61653 0.0
H141 H 0.44737 0.00637 0.59904 0.0
H142 H 0.43261 0.09623 0.57431 0.0
H143 H 0.37274 0.16162 0.55173 0.0
Mn144 Mn 0.98714 0.33261 0.84428 0.0
Mn145 Mn 0.98663 0.25724 0.93109 0.0
C146 C 0.00597 0.2493 0.83742 0.0
C147 C 0.03079 0.38662 0.799 0.0
C148 C 0.89215 0.28784 0.88411 0.0
O149 O 0.98755 0.38186 0.89359 0.0
O150 O 0.9887 0.32849 0.9495 0.0
C151 C 0.08903 0.2805 0.96154 0.0
N152 N 0.05457 0.24647 0.94804 0.0
C153 C 0.11448 0.17976 0.9534 0.0
C154 C 0.15048 0.21404 0.96766 0.0
C155 C 0.13769 0.26463 0.97171 0.0
C156 C 0.06649 0.1977 0.94401 0.0
H157 H 0.07954 0.31951 0.96432 0.0
C158 C 0.98852 0.37282 0.93375 0.0
O159 O 0.9822 0.38815 0.801 0.0
O160 O 0.05351 0.35576 0.82431 0.0
N161 N 0.9854 0.18745 0.91819 0.0
C162 C 0.9468 0.15942 0.90278 0.0
C163 C 0.95376 0.1081 0.89615 0.0
C164 C 1.00016 0.08609 0.90564 0.0
C165 C 0.03904 0.11553 0.92213 0.0
C166 C 0.02975 0.16638 0.92853 0.0
H167 H 0.91115 0.17617 0.89518 0.0
O168 O 0.9917 0.27516 0.80443 0.0
O169 O 0.00985 0.27336 0.87333 0.0
O170 O 0.91343 0.31548 0.85593 0.0
O171 O 0.91586 0.26534 0.91411 0.0
C172 C 0.08688 0.09657 0.93183 0.0
C173 C 0.12459 0.12867 0.9474 0.0
H174 H 0.18817 0.20203 0.97523 0.0
H175 H 0.16536 0.29137 0.98244 0.0
H176 H 0.92355 0.08562 0.88345 0.0
H177 H 0.00556 0.0466 0.9 0.0
H178 H 0.09523 0.05744 0.92705 0.0
H179 H 0.16139 0.11374 0.95433 0.0
Mn180 Mn 0.66564 0.47619 0.33086 0.0
Mn181 Mn 0.73465 0.49096 0.42 0.0
C182 C 0.75052 0.48733 0.3246 0.0
C183 C 0.61536 0.51392 0.27942 0.0
C184 C 0.70132 0.39005 0.38781 0.0
O185 O 0.6137 0.48872 0.37657 0.0
O186 O 0.66195 0.49951 0.43463 0.0
C187 C 0.71497 0.59876 0.43149 0.0
N188 N 0.74802 0.56077 0.42562 0.0
C189 C 0.81749 0.61809 0.42311 0.0
C190 C 0.78424 0.6578 0.42949 0.0
C191 C 0.73276 0.64807 0.4337 0.0
C192 C 0.79763 0.5697 0.42159 0.0
H193 H 0.6753 0.59152 0.43424 0.0
C194 C 0.61899 0.49713 0.41634 0.0
O195 O 0.61086 0.46641 0.28752 0.0
O196 O 0.64802 0.53871 0.30126 0.0
N197 N 0.80518 0.4841 0.41111 0.0
C198 C 0.83206 0.4418 0.40384 0.0
C199 C 0.88412 0.44517 0.39817 0.0
C200 C 0.90799 0.49188 0.40023 0.0
C201 C 0.87964 0.53478 0.40837 0.0
C202 C 0.82795 0.52906 0.41423 0.0
H203 H 0.81383 0.40586 0.40187 0.0
O204 O 0.72475 0.4689 0.29322 0.0
O205 O 0.72504 0.50089 0.3583 0.0
O206 O 0.67772 0.40562 0.35466 0.0
O207 O 0.72329 0.41847 0.41474 0.0
C208 C 0.90049 0.58309 0.41015 0.0
C209 C 0.86944 0.62472 0.41747 0.0
H210 H 0.79776 0.69592 0.43089 0.0
H211 H 0.70683 0.67854 0.43838 0.0
H212 H 0.90574 0.41188 0.39191 0.0
H213 H 0.94807 0.49439 0.39535 0.0
H214 H 0.94031 0.5887 0.40552 0.0
H215 H 0.88585 0.66172 0.41837 0.0
Mn216 Mn 0.51726 0.16813 0.84148 0.0
Mn217 Mn 0.50533 0.23018 0.93442 0.0
C218 C 0.4985 0.25192 0.84037 0.0
C219 C 0.47948 0.11861 0.78966 0.0
C220 C 0.60566 0.20471 0.89491 0.0
O221 O 0.51167 0.11269 0.8858 0.0
O222 O 0.49909 0.15686 0.94589 0.0
C223 C 0.39887 0.20676 0.95188 0.0
N224 N 0.43575 0.24111 0.94511 0.0
C225 C 0.37721 0.30889 0.95093 0.0
C226 C 0.33867 0.27424 0.95831 0.0
C227 C 0.34956 0.22296 0.95876 0.0
C228 C 0.42572 0.29055 0.94472 0.0
H229 H 0.40698 0.16728 0.95185 0.0
C230 C 0.50326 0.11533 0.92591 0.0
O231 O 0.52776 0.11765 0.79499 0.0
O232 O 0.45379 0.14727 0.81451 0.0
N233 N 0.50999 0.30114 0.92793 0.0
C234 C 0.55086 0.32951 0.91802 0.0
C235 C 0.54598 0.38159 0.91496 0.0
C236 C 0.49926 0.40395 0.92224 0.0
C237 C 0.45786 0.37403 0.93277 0.0
C238 C 0.46508 0.32236 0.9358 0.0
H239 H 0.58678 0.31251 0.91205 0.0
O240 O 0.51667 0.23047 0.80664 0.0
O241 O 0.49057 0.22306 0.87338 0.0
O242 O 0.58891 0.18389 0.86105 0.0
O243 O 0.5779 0.22164 0.92484 0.0
C244 C 0.4095 0.39335 0.93952 0.0
C245 C 0.36921 0.36081 0.94859 0.0
H246 H 0.30051 0.28656 0.96325 0.0
H247 H 0.31996 0.19599 0.96415 0.0
H248 H 0.57808 0.40442 0.9067 0.0
H249 H 0.49553 0.44409 0.91936 0.0
H250 H 0.40276 0.43314 0.93728 0.0
H251 H 0.33209 0.37607 0.95319 0.0
Mn252 Mn 0.8397 0.01824 0.33494 0.0
Mn253 Mn 0.77473 0.01216 0.42718 0.0
C254 C 0.75636 0.99626 0.33384 0.0
C255 C 0.89122 0.98081 0.28518 0.0
C256 C 0.79633 0.10916 0.38034 0.0
O257 O 0.89441 0.01754 0.37989 0.0
O258 O 0.84836 0.01187 0.44 0.0
C259 C 0.80466 0.90994 0.45304 0.0
N260 N 0.76808 0.94337 0.443 0.0
C261 C 0.70409 0.88064 0.45134 0.0
C262 C 0.74105 0.84566 0.46206 0.0
C263 C 0.79155 0.86039 0.4629 0.0
C264 C 0.71936 0.92959 0.44213 0.0
H265 H 0.84358 0.92088 0.45331 0.0
C266 C 0.89063 0.01403 0.42045 0.0
O267 O 0.89024 0.0291 0.28861 0.0
O268 O 0.8636 0.95472 0.31105 0.0
N269 N 0.70356 0.01104 0.41971 0.0
C270 C 0.6726 0.04887 0.40742 0.0
C271 C 0.6209 0.03999 0.40422 0.0
C272 C 0.60155 0.99245 0.41387 0.0
C273 C 0.63404 0.95432 0.42706 0.0
C274 C 0.68517 0.9655 0.4301 0.0
H275 H 0.68724 0.08541 0.39964 0.0
O276 O 0.77814 0.01308 0.29954 0.0
O277 O 0.78457 0.99164 0.36766 0.0
O278 O 0.82149 0.08978 0.35 0.0
O279 O 0.77826 0.08393 0.41166 0.0
C280 C 0.61779 0.90545 0.43663 0.0
C281 C 0.65279 0.86863 0.44872 0.0
H282 H 0.73114 0.80731 0.46937 0.0
H283 H 0.82032 0.83354 0.47089 0.0
H284 H 0.59607 0.06962 0.39403 0.0
H285 H 0.56172 0.9856 0.4109 0.0
H286 H 0.57851 0.89566 0.4344 0.0
H287 H 0.63989 0.83106 0.4556 0.0
H288 H 0.97943 0.47206 0.91492 0.0
H289 H 1.00049 0.37005 0.02091 0.0
H290 H 0.00322 0.44001 0.07049 0.0
H291 H 0.00102 0.53046 0.08391 0.0
H292 H 0.97985 0.63196 0.9775 0.0
H293 H 0.97567 0.56193 0.92839 0.0
C294 C 0.98463 0.46497 0.94884 0.0
C295 C 0.9898 0.41562 0.96392 0.0
C296 C 0.98613 0.50541 0.97734 0.0
C297 C 0.9963 0.40749 0.00816 0.0
C298 C 0.99792 0.44755 0.03667 0.0
C299 C 0.99525 0.53734 0.05003 0.0
C300 C 0.99098 0.5867 0.03467 0.0
C301 C 0.99299 0.49672 0.02163 0.0
C302 C 0.98353 0.59458 0.99049 0.0
C303 C 0.98112 0.55447 0.96221 0.0
H304 H 0.40271 0.50654 0.49866 0.0
H305 H 0.48961 0.50224 0.61519 0.0
H306 H 0.56685 0.50109 0.57354 0.0
H307 H 0.61021 0.50022 0.50387 0.0
H308 H 0.52266 0.50491 0.38763 0.0
H309 H 0.44583 0.50737 0.42937 0.0
C310 C 0.43847 0.5052 0.51505 0.0
C311 C 0.43998 0.50434 0.56012 0.0
C312 C 0.48299 0.50485 0.49092 0.0
C313 C 0.48698 0.50297 0.58058 0.0
C314 C 0.53136 0.50234 0.55677 0.0
C315 C 0.57439 0.50216 0.48762 0.0
C316 C 0.57263 0.50222 0.44252 0.0
C317 C 0.52988 0.50327 0.51188 0.0
C318 C 0.52556 0.50459 0.42222 0.0
C319 C 0.48136 0.50593 0.44609 0.0
H320 H 0.49224 0.89676 0.00369 0.0
H321 H 0.47506 0.98038 0.12065 0.0
H322 H 0.47937 0.05838 0.08034 0.0
H323 H 0.48911 0.10334 0.01214 0.0
H324 H 0.50683 0.01975 0.89523 0.0
H325 H 0.50104 0.94172 0.93537 0.0
C326 C 0.48926 0.93197 0.02046 0.0
C327 C 0.4833 0.93231 0.06529 0.0
C328 C 0.49192 0.97698 0.99709 0.0
C329 C 0.47968 0.97861 0.08624 0.0
C330 C 0.48214 0.02343 0.06319 0.0
C331 C 0.49162 0.06813 0.99532 0.0
C332 C 0.49855 0.0678 0.95059 0.0
C333 C 0.48842 0.02311 0.01863 0.0
C334 C 0.50164 0.02151 0.92958 0.0
C335 C 0.49833 0.97667 0.95254 0.0
H336 H 0.90081 0.99585 0.50639 0.0
H337 H 0.98709 0.02411 0.39178 0.0
H338 H 0.0645 0.01628 0.43247 0.0
H339 H 0.10831 0.00131 0.50055 0.0
H340 H 0.02191 0.97306 0.61511 0.0
H341 H 0.94456 0.98091 0.57441 0.0
C342 C 0.93648 0.00055 0.49025 0.0
C343 C 0.93771 0.01071 0.44595 0.0
C344 C 0.98118 0.99579 0.51383 0.0
C345 C 0.9846 0.01632 0.42578 0.0
C346 C 0.02911 0.01179 0.44904 0.0
C347 C 0.07263 0.99662 0.51667 0.0
C348 C 0.07135 0.98646 0.56097 0.0
C349 C 0.02792 0.00139 0.49307 0.0
C350 C 0.02444 0.98086 0.58112 0.0
C351 C 0.97996 0.9854 0.55785 0.0
H352 H 0.15932 0.74077 0.17041 0.0
H353 H 0.164 0.69518 0.0384 0.0
H354 H 0.25297 0.71695 0.03445 0.0
H355 H 0.32807 0.75187 0.06766 0.0
H356 H 0.32258 0.8026 0.19861 0.0
H357 H 0.23499 0.77685 0.20362 0.0
C358 C 0.18029 0.73473 0.14114 0.0
C359 C 0.15582 0.71551 0.10497 0.0
C360 C 0.23082 0.74925 0.13867 0.0
C361 C 0.18257 0.70928 0.06673 0.0
C362 C 0.23319 0.72207 0.06441 0.0
C363 C 0.30781 0.75752 0.09733 0.0
C364 C 0.33208 0.77931 0.13266 0.0
C365 C 0.25748 0.74275 0.09999 0.0
C366 C 0.30492 0.78633 0.17075 0.0
C367 C 0.25486 0.77127 0.17378 0.0
H368 H 0.26727 0.66574 0.67834 0.0
H369 H 0.30742 0.66155 0.54481 0.0
H370 H 0.28242 0.74899 0.53621 0.0
H371 H 0.24791 0.82606 0.56667 0.0
H372 H 0.20232 0.82778 0.69936 0.0
H373 H 0.22979 0.74172 0.70806 0.0
C374 C 0.27117 0.68436 0.64757 0.0
C375 C 0.28995 0.65792 0.61243 0.0
C376 C 0.25495 0.73385 0.64256 0.0
C377 C 0.29351 0.68164 0.57235 0.0
C378 C 0.279 0.73142 0.56742 0.0
C379 C 0.24368 0.80755 0.59743 0.0
C380 C 0.22301 0.83354 0.63224 0.0
C381 C 0.25929 0.75779 0.60224 0.0
C382 C 0.2177 0.80875 0.67184 0.0
C383 C 0.23377 0.75955 0.67701 0.0
H384 H 0.66757 0.24139 0.83396 0.0
H385 H 0.66382 0.1909 0.96516 0.0
H386 H 0.75225 0.21304 0.97374 0.0
H387 H 0.8299 0.24797 0.94423 0.0
H388 H 0.83232 0.30362 0.81423 0.0
H389 H 0.74486 0.27918 0.80513 0.0
C390 C 0.6865 0.23462 0.86416 0.0
C391 C 0.65985 0.21375 0.89868 0.0
C392 C 0.73671 0.24917 0.86928 0.0
C393 C 0.68403 0.20645 0.93809 0.0
C394 C 0.73438 0.21933 0.94304 0.0
C395 C 0.8113 0.25503 0.91394 0.0
C396 C 0.83779 0.27763 0.87999 0.0
C397 C 0.76096 0.24109 0.90895 0.0
C398 C 0.81285 0.28668 0.84106 0.0
C399 C 0.7629 0.27234 0.83568 0.0
H400 H 0.74002 0.32983 0.32851 0.0
H401 H 0.68621 0.33191 0.45844 0.0
H402 H 0.71141 0.24449 0.46818 0.0
H403 H 0.751 0.16848 0.43985 0.0
H404 H 0.81079 0.17016 0.31123 0.0
H405 H 0.78195 0.25537 0.30119 0.0
C406 C 0.733 0.31064 0.35863 0.0
C407 C 0.71028 0.3363 0.39239 0.0
C408 C 0.74962 0.26151 0.36448 0.0
C409 C 0.70291 0.31215 0.43186 0.0
C410 C 0.71766 0.26249 0.43748 0.0
C411 C 0.75804 0.18756 0.40973 0.0
C412 C 0.78311 0.1627 0.37644 0.0
C413 C 0.7416 0.23696 0.40411 0.0
C414 C 0.79192 0.18823 0.33762 0.0
C415 C 0.7751 0.23696 0.33163 0.0
H416 H 0.78739 0.58054 0.32834 0.0
H417 H 0.82642 0.42973 0.2958 0.0
H418 H 0.90255 0.45926 0.25982 0.0
H419 H 0.9494 0.52969 0.22674 0.0
H420 H 0.90497 0.68033 0.25553 0.0
H421 H 0.84094 0.64962 0.30484 0.0
C422 C 0.81385 0.55412 0.31506 0.0
C423 C 0.80222 0.5031 0.31547 0.0
C424 C 0.85634 0.57159 0.29312 0.0
C425 C 0.8354 0.4692 0.29645 0.0
C426 C 0.87864 0.48611 0.27559 0.0
C427 C 0.92658 0.55551 0.24485 0.0
C428 C 0.93142 0.60704 0.23751 0.0
C429 C 0.88834 0.53747 0.27204 0.0
C430 C 0.90143 0.64042 0.26063 0.0
C431 C 0.86473 0.62293 0.28868 0.0
H432 H 0.35597 0.42192 0.78313 0.0
H433 H 0.49401 0.48307 0.7345 0.0
H434 H 0.54158 0.41925 0.77387 0.0
H435 H 0.54139 0.33672 0.81026 0.0
H436 H 0.40189 0.27458 0.85509 0.0
H437 H 0.35713 0.34848 0.83003 0.0
C438 C 0.39661 0.42224 0.78254 0.0
C439 C 0.42173 0.45668 0.75616 0.0
C440 C 0.42318 0.38488 0.8042 0.0
C441 C 0.47419 0.45703 0.7551 0.0
C442 C 0.5012 0.42019 0.77713 0.0
C443 C 0.50145 0.34039 0.81564 0.0
C444 C 0.4749 0.30103 0.83517 0.0
C445 C 0.47584 0.3825 0.80002 0.0
C446 C 0.42309 0.3052 0.84125 0.0
C447 C 0.39747 0.34715 0.82647 0.0
H448 H 0.58832 0.84774 0.28132 0.0
H449 H 0.52201 0.98293 0.2327 0.0
H450 H 0.58696 0.03267 0.26838 0.0
H451 H 0.67049 0.03548 0.30278 0.0
H452 H 0.7358 0.89967 0.35136 0.0
H453 H 0.66295 0.85209 0.32721 0.0
C454 C 0.58732 0.88822 0.27982 0.0
C455 C 0.55094 0.91194 0.25455 0.0
C456 C 0.62482 0.91618 0.30006 0.0
C457 C 0.54964 0.9642 0.25241 0.0
C458 C 0.58701 0.99246 0.2724 0.0
C459 C 0.66779 0.9957 0.30914 0.0
C460 C 0.7078 0.97098 0.32922 0.0
C461 C 0.62597 0.96864 0.29475 0.0
C462 C 0.70477 0.91942 0.33677 0.0
C463 C 0.66341 0.89222 0.32259 0.0
H464 H 0.96499 0.16839 0.79987 0.0
H465 H 0.10112 0.22447 0.85604 0.0
H466 H 0.14692 0.15164 0.83037 0.0
H467 H 0.15044 0.07996 0.78192 0.0
H468 H 0.01512 0.02327 0.72505 0.0
H469 H 0.96607 0.08763 0.76172 0.0
C470 C 0.00437 0.16365 0.80736 0.0
C471 C 0.02977 0.20089 0.83019 0.0
C472 C 0.03039 0.12189 0.79217 0.0
C473 C 0.08086 0.19543 0.83927 0.0
C474 C 0.10704 0.1541 0.82432 0.0
C475 C 0.10997 0.08086 0.77885 0.0
C476 C 0.08606 0.04749 0.75111 0.0
C477 C 0.08254 0.11814 0.79944 0.0
C478 C 0.03387 0.0486 0.74675 0.0
C479 C 0.00607 0.08565 0.76728 0.0
H480 H 0.09717 0.35037 0.74328 0.0
H481 H 0.03053 0.48764 0.78583 0.0
H482 H 0.09238 0.53574 0.74426 0.0
H483 H 0.17319 0.53749 0.70509 0.0
H484 H 0.23881 0.39935 0.66327 0.0
H485 H 0.16884 0.35251 0.69409 0.0
C486 C 0.09562 0.39085 0.74256 0.0
C487 C 0.06009 0.41573 0.76773 0.0
C488 C 0.13104 0.41785 0.71868 0.0
C489 C 0.05775 0.46798 0.76655 0.0
C490 C 0.09323 0.49533 0.74303 0.0
C491 C 0.17105 0.49727 0.70161 0.0
C492 C 0.21036 0.47179 0.68133 0.0
C493 C 0.13114 0.47059 0.72025 0.0
C494 C 0.20815 0.41968 0.67766 0.0
C495 C 0.16854 0.39291 0.69582 0.0
H496 H 0.64747 0.57702 0.21888 0.0
H497 H 0.5135 0.51337 0.2733 0.0
H498 H 0.46301 0.57881 0.23904 0.0
H499 H 0.46038 0.6629 0.2056 0.0
H500 H 0.59559 0.72668 0.15341 0.0
H501 H 0.64246 0.65215 0.17407 0.0
C502 C 0.60697 0.57658 0.22186 0.0
C503 C 0.58398 0.54099 0.24854 0.0
C504 C 0.57873 0.61474 0.20296 0.0
C505 C 0.5317 0.54037 0.25251 0.0
C506 C 0.50304 0.57812 0.23341 0.0
C507 C 0.49978 0.65951 0.1977 0.0
C508 C 0.52459 0.69951 0.17752 0.0
C509 C 0.52655 0.61685 0.21039 0.0
C510 C 0.57572 0.69566 0.16801 0.0
C511 C 0.60254 0.65331 0.18018 0.0
H512 H 0.4164 0.15142 0.72917 0.0
H513 H 0.48182 0.01755 0.78132 0.0
H514 H 0.41955 0.96665 0.74348 0.0
H515 H 0.33751 0.96257 0.70665 0.0
H516 H 0.27288 0.0971 0.65488 0.0
H517 H 0.34435 0.14565 0.68048 0.0
C518 C 0.41792 0.11097 0.73096 0.0
C519 C 0.45312 0.08798 0.75792 0.0
C520 C 0.38189 0.08233 0.70949 0.0
C521 C 0.4551 0.03576 0.76037 0.0
C522 C 0.41921 0.00681 0.73913 0.0
C523 C 0.34016 0.00225 0.69985 0.0
C524 C 0.30061 0.02635 0.67855 0.0
C525 C 0.3811 0.02992 0.71521 0.0
C526 C 0.30357 0.0778 0.6704 0.0
C527 C 0.34412 0.10558 0.68545 0.0
H528 H 0.03843 0.83812 0.19329 0.0
H529 H 0.89926 0.78631 0.13961 0.0
H530 H 0.85561 0.85836 0.16902 0.0
H531 H 0.85466 0.92604 0.22149 0.0
H532 H 0.99259 0.97714 0.27767 0.0
H533 H 0.03971 0.91597 0.23552 0.0
C534 C 0.9989 0.84381 0.18698 0.0
C535 C 0.97203 0.80785 0.16387 0.0
C536 C 0.97393 0.88465 0.20499 0.0
C537 C 0.92071 0.81447 0.15639 0.0
C538 C 0.8957 0.85526 0.17364 0.0
C539 C 0.89523 0.92469 0.22328 0.0
C540 C 0.92049 0.95534 0.25239 0.0
C541 C 0.92154 0.88919 0.19959 0.0
C542 C 0.97281 0.95376 0.25504 0.0
C543 C 0.99953 0.91859 0.2313 0.0
loop_
_geom_bond_atom_site_label_1
_geom_bond_atom_site_label_2
_geom_bond_distance
_geom_bond_site_symmetry_2
_ccdc_geom_bond_type
Mn0 O5 2.095 . S
Mn0 O15 2.162 . S
Mn0 O16 2.297 1_455 S
Mn0 O24 2.385 1_455 S
Mn0 O25 2.209 1_455 S
Mn0 O26 2.094 . S
Mn1 O6 2.121 . S
Mn1 N8 2.257 1_455 S
Mn1 N17 2.282 . S
Mn1 O25 2.215 1_455 S
Mn1 O27 2.117 . S
C2 O24 1.234 . S
C2 O25 1.283 . S
C3 O15 1.281 1_655 S
C3 O16 1.236 . S
C4 O26 1.240 . S
C4 O27 1.264 . S
O5 Mn0 2.095 . S
O5 C14 1.250 . S
O6 Mn1 2.121 . S
O6 C14 1.258 . S
C7 N8 1.326 . S
C7 C11 1.460 . S
C7 H13 0.929 . S
N8 Mn1 2.257 1_655 S
N8 C7 1.326 . S
N8 C12 1.362 1_655 S
C9 C10 1.258 . S
C9 C12 1.431 1_655 S
C9 C29 1.449 . S
C10 C9 1.258 . S
C10 C11 1.477 . S
C10 H30 0.931 1_554 S
C11 C7 1.460 . S
C11 C10 1.477 . S
C11 H31 0.930 1_554 S
C12 N8 1.362 1_455 S
C12 C9 1.431 1_455 S
C12 C22 1.476 . S
H13 C7 0.929 . S
C14 O5 1.250 . S
C14 O6 1.258 . S
O15 Mn0 2.162 . S
O15 C3 1.281 1_455 S
O16 Mn0 2.297 1_655 S
O16 C3 1.236 . S
N17 Mn1 2.282 . S
N17 C18 1.328 . S
N17 C22 1.318 . S
C18 N17 1.328 . S
C18 C19 1.457 . S
C18 H23 0.929 . S
C19 C18 1.457 . S
C19 C20 1.291 . S
C19 H32 0.931 . S
C20 C19 1.291 . S
C20 C21 1.373 . S
C20 H33 0.929 . S
C21 C20 1.373 . S
C21 C22 1.396 . S
C21 C28 1.403 . S
C22 C12 1.476 . S
C22 N17 1.318 . S
C22 C21 1.396 . S
H23 C18 0.929 . S
O24 Mn0 2.385 1_655 S
O24 C2 1.234 . S
O25 Mn0 2.209 1_655 S
O25 Mn1 2.215 1_655 S
O25 C2 1.283 . S
O26 Mn0 2.094 . S
O26 C4 1.240 . S
O27 Mn1 2.117 . S
O27 C4 1.264 . S
C28 C21 1.403 . S
C28 C29 1.399 1_455 S
C28 H34 0.929 . S
C29 C9 1.449 . S
C29 C28 1.399 1_655 S
C29 H35 0.930 . S
H30 C10 0.931 1_556 S
H31 C11 0.930 1_556 S
H32 C19 0.931 . S
H33 C20 0.929 . S
H34 C28 0.929 . S
H35 C29 0.930 . S
Mn36 O41 2.095 . S
Mn36 O51 2.162 . S
Mn36 O52 2.297 . S
Mn36 O60 2.385 . S
Mn36 O61 2.209 . S
Mn36 O62 2.094 . S
Mn37 O42 2.121 . S
Mn37 N44 2.257 . S
Mn37 N53 2.282 . S
Mn37 O61 2.215 . S
Mn37 O63 2.117 . S
C38 O60 1.234 . S
C38 O61 1.283 . S
C39 O51 1.281 . S
C39 O52 1.236 . S
C40 O62 1.240 . S
C40 O63 1.264 . S
O41 Mn36 2.095 . S
O41 C50 1.250 . S
O42 Mn37 2.121 . S
O42 C50 1.258 . S
C43 N44 1.326 . S
C43 C47 1.460 . S
C43 H49 0.929 . S
N44 Mn37 2.257 . S
N44 C43 1.326 . S
N44 C48 1.362 . S
C45 C46 1.258 . S
C45 C48 1.431 . S
C45 C65 1.449 . S
C46 C45 1.258 . S
C46 C47 1.477 . S
C46 H66 0.931 . S
C47 C43 1.460 . S
C47 C46 1.477 . S
C47 H67 0.930 . S
C48 N44 1.362 . S
C48 C45 1.431 . S
C48 C58 1.476 . S
H49 C43 0.929 . S
C50 O41 1.250 . S
C50 O42 1.258 . S
O51 Mn36 2.162 . S
O51 C39 1.281 . S
O52 Mn36 2.297 . S
O52 C39 1.236 . S
N53 Mn37 2.282 . S
N53 C54 1.328 . S
N53 C58 1.318 . S
C54 N53 1.328 . S
C54 C55 1.457 . S
C54 H59 0.929 . S
C55 C54 1.457 . S
C55 C56 1.291 . S
C55 H68 0.931 . S
C56 C55 1.291 . S
C56 C57 1.373 . S
C56 H69 0.929 . S
C57 C56 1.373 . S
C57 C58 1.396 . S
C57 C64 1.403 . S
C58 C48 1.476 . S
C58 N53 1.318 . S
C58 C57 1.396 . S
H59 C54 0.929 . S
O60 Mn36 2.385 . S
O60 C38 1.234 . S
O61 Mn36 2.209 . S
O61 Mn37 2.215 . S
O61 C38 1.283 . S
O62 Mn36 2.094 . S
O62 C40 1.240 . S
O63 Mn37 2.117 . S
O63 C40 1.264 . S
C64 C57 1.403 . S
C64 C65 1.399 . S
C64 H70 0.929 . S
C65 C45 1.449 . S
C65 C64 1.399 . S
C65 H71 0.930 . S
H66 C46 0.931 . S
H67 C47 0.930 . S
H68 C55 0.931 . S
H69 C56 0.929 . S
H70 C64 0.929 . S
H71 C65 0.930 . S
Mn72 O77 2.095 . S
Mn72 O87 2.162 . S
Mn72 O88 2.297 . S
Mn72 O96 2.385 . S
Mn72 O97 2.209 . S
Mn72 O98 2.094 . S
Mn73 O78 2.121 . S
Mn73 N80 2.257 . S
Mn73 N89 2.282 . S
Mn73 O97 2.215 . S
Mn73 O99 2.117 . S
C74 O96 1.234 . S
C74 O97 1.283 . S
C75 O87 1.281 . S
C75 O88 1.236 . S
C76 O98 1.240 . S
C76 O99 1.264 . S
O77 Mn72 2.095 . S
O77 C86 1.250 . S
O78 Mn73 2.121 . S
O78 C86 1.258 . S
C79 N80 1.326 . S
C79 C83 1.460 . S
C79 H85 0.929 . S
N80 Mn73 2.257 . S
N80 C79 1.326 . S
N80 C84 1.362 . S
C81 C82 1.258 . S
C81 C84 1.431 . S
C81 C101 1.449 . S
C82 C81 1.258 . S
C82 C83 1.477 . S
C82 H102 0.931 1_554 S
C83 C79 1.460 . S
C83 C82 1.477 . S
C83 H103 0.930 1_554 S
C84 N80 1.362 . S
C84 C81 1.431 . S
C84 C94 1.476 . S
H85 C79 0.929 . S
C86 O77 1.250 . S
C86 O78 1.258 . S
O87 Mn72 2.162 . S
O87 C75 1.281 . S
O88 Mn72 2.297 . S
O88 C75 1.236 . S
N89 Mn73 2.282 . S
N89 C90 1.328 . S
N89 C94 1.318 . S
C90 N89 1.328 . S
C90 C91 1.457 . S
C90 H95 0.929 . S
C91 C90 1.457 . S
C91 C92 1.291 . S
C91 H104 0.931 . S
C92 C91 1.291 . S
C92 C93 1.373 . S
C92 H105 0.929 . S
C93 C92 1.373 . S
C93 C94 1.396 . S
C93 C100 1.403 . S
C94 C84 1.476 . S
C94 N89 1.318 . S
C94 C93 1.396 . S
H95 C90 0.929 . S
O96 Mn72 2.385 . S
O96 C74 1.234 . S
O97 Mn72 2.209 . S
O97 Mn73 2.215 . S
O97 C74 1.283 . S
O98 Mn72 2.094 . S
O98 C76 1.240 . S
O99 Mn73 2.117 . S
O99 C76 1.264 . S
C100 C93 1.403 . S
C100 C101 1.399 . S
C100 H106 0.929 . S
C101 C81 1.449 . S
C101 C100 1.399 . S
C101 H107 0.930 . S
H102 C82 0.931 1_556 S
H103 C83 0.930 1_556 S
H104 C91 0.931 . S
H105 C92 0.929 . S
H106 C100 0.929 . S
H107 C101 0.930 . S
Mn108 O113 2.095 . S
Mn108 O123 2.162 . S
Mn108 O124 2.297 1_565 S
Mn108 O132 2.385 1_565 S
Mn108 O133 2.209 1_565 S
Mn108 O134 2.094 . S
Mn109 O114 2.121 . S
Mn109 N116 2.257 1_565 S
Mn109 N125 2.282 . S
Mn109 O133 2.215 1_565 S
Mn109 O135 2.117 . S
C110 O132 1.234 . S
C110 O133 1.283 . S
C111 O123 1.281 1_545 S
C111 O124 1.236 . S
C112 O134 1.240 . S
C112 O135 1.264 . S
O113 Mn108 2.095 . S
O113 C122 1.250 . S
O114 Mn109 2.121 . S
O114 C122 1.258 . S
C115 N116 1.326 . S
C115 C119 1.460 . S
C115 H121 0.929 . S
N116 Mn109 2.257 1_545 S
N116 C115 1.326 . S
N116 C120 1.362 1_545 S
C117 C118 1.258 . S
C117 C120 1.431 1_545 S
C117 C137 1.449 . S
C118 C117 1.258 . S
C118 C119 1.477 . S
C118 H138 0.931 . S
C119 C115 1.460 . S
C119 C118 1.477 . S
C119 H139 0.930 . S
C120 N116 1.362 1_565 S
C120 C117 1.431 1_565 S
C120 C130 1.476 . S
H121 C115 0.929 . S
C122 O113 1.250 . S
C122 O114 1.258 . S
O123 Mn108 2.162 . S
O123 C111 1.281 1_565 S
O124 Mn108 2.297 1_545 S
O124 C111 1.236 . S
N125 Mn109 2.282 . S
N125 C126 1.328 . S
N125 C130 1.318 . S
C126 N125 1.328 . S
C126 C127 1.457 . S
C126 H131 0.929 . S
C127 C126 1.457 . S
C127 C128 1.291 . S
C127 H140 0.931 . S
C128 C127 1.291 . S
C128 C129 1.373 . S
C128 H141 0.929 . S
C129 C128 1.373 . S
C129 C130 1.396 . S
C129 C136 1.403 . S
C130 C120 1.476 . S
C130 N125 1.318 . S
C130 C129 1.396 . S
H131 C126 0.929 . S
O132 Mn108 2.385 1_545 S
O132 C110 1.234 . S
O133 Mn108 2.209 1_545 S
O133 Mn109 2.215 1_545 S
O133 C110 1.283 . S
O134 Mn108 2.094 . S
O134 C112 1.240 . S
O135 Mn109 2.117 . S
O135 C112 1.264 . S
C136 C129 1.403 . S
C136 C137 1.399 1_565 S
C136 H142 0.929 . S
C137 C117 1.449 . S
C137 C136 1.399 1_545 S
C137 H143 0.930 . S
H138 C118 0.931 . S
H139 C119 0.930 . S
H140 C127 0.931 . S
H141 C128 0.929 . S
H142 C136 0.929 . S
H143 C137 0.930 . S
Mn144 O149 2.095 . S
Mn144 O159 2.162 . S
Mn144 O160 2.297 1_655 S
Mn144 O168 2.385 1_655 S
Mn144 O169 2.209 1_655 S
Mn144 O170 2.094 . S
Mn145 O150 2.121 . S
Mn145 N152 2.257 1_655 S
Mn145 N161 2.282 . S
Mn145 O169 2.215 1_655 S
Mn145 O171 2.117 . S
C146 O168 1.234 . S
C146 O169 1.283 . S
C147 O159 1.281 1_455 S
C147 O160 1.236 . S
C148 O170 1.240 . S
C148 O171 1.264 . S
O149 Mn144 2.095 . S
O149 C158 1.250 . S
O150 Mn145 2.121 . S
O150 C158 1.258 . S
C151 N152 1.326 . S
C151 C155 1.460 . S
C151 H157 0.929 . S
N152 Mn145 2.257 1_455 S
N152 C151 1.326 . S
N152 C156 1.362 1_455 S
C153 C154 1.258 . S
C153 C156 1.431 1_455 S
C153 C173 1.449 . S
C154 C153 1.258 . S
C154 C155 1.477 . S
C154 H174 0.931 1_556 S
C155 C151 1.460 . S
C155 C154 1.477 . S
C155 H175 0.930 1_556 S
C156 N152 1.362 1_655 S
C156 C153 1.431 1_655 S
C156 C166 1.476 . S
H157 C151 0.929 . S
C158 O149 1.250 . S
C158 O150 1.258 . S
O159 Mn144 2.162 . S
O159 C147 1.281 1_655 S
O160 Mn144 2.297 1_455 S
O160 C147 1.236 . S
N161 Mn145 2.282 . S
N161 C162 1.328 . S
N161 C166 1.318 . S
C162 N161 1.328 . S
C162 C163 1.457 . S
C162 H167 0.929 . S
C163 C162 1.457 . S
C163 C164 1.291 . S
C163 H176 0.931 . S
C164 C163 1.291 . S
C164 C165 1.373 . S
C164 H177 0.929 . S
C165 C164 1.373 . S
C165 C166 1.396 . S
C165 C172 1.403 . S
C166 C156 1.476 . S
C166 N161 1.318 . S
C166 C165 1.396 . S
H167 C162 0.929 . S
O168 Mn144 2.385 1_455 S
O168 C146 1.234 . S
O169 Mn144 2.209 1_455 S
O169 Mn145 2.215 1_455 S
O169 C146 1.283 . S
O170 Mn144 2.094 . S
O170 C148 1.240 . S
O171 Mn145 2.117 . S
O171 C148 1.264 . S
C172 C165 1.403 . S
C172 C173 1.399 1_655 S
C172 H178 0.929 . S
C173 C153 1.449 . S
C173 C172 1.399 1_455 S
C173 H179 0.930 . S
H174 C154 0.931 1_554 S
H175 C155 0.930 1_554 S
H176 C163 0.931 . S
H177 C164 0.929 . S
H178 C172 0.929 . S
H179 C173 0.930 . S
Mn180 O185 2.095 . S
Mn180 O195 2.162 . S
Mn180 O196 2.297 . S
Mn180 O204 2.385 . S
Mn180 O205 2.209 . S
Mn180 O206 2.094 . S
Mn181 O186 2.121 . S
Mn181 N188 2.257 . S
Mn181 N197 2.282 . S
Mn181 O205 2.215 . S
Mn181 O207 2.117 . S
C182 O204 1.234 . S
C182 O205 1.283 . S
C183 O195 1.281 . S
C183 O196 1.236 . S
C184 O206 1.240 . S
C184 O207 1.264 . S
O185 Mn180 2.095 . S
O185 C194 1.250 . S
O186 Mn181 2.121 . S
O186 C194 1.258 . S
C187 N188 1.326 . S
C187 C191 1.460 . S
C187 H193 0.929 . S
N188 Mn181 2.257 . S
N188 C187 1.326 . S
N188 C192 1.362 . S
C189 C190 1.258 . S
C189 C192 1.431 . S
C189 C209 1.449 . S
C190 C189 1.258 . S
C190 C191 1.477 . S
C190 H210 0.931 . S
C191 C187 1.460 . S
C191 C190 1.477 . S
C191 H211 0.930 . S
C192 N188 1.362 . S
C192 C189 1.431 . S
C192 C202 1.476 . S
H193 C187 0.929 . S
C194 O185 1.250 . S
C194 O186 1.258 . S
O195 Mn180 2.162 . S
O195 C183 1.281 . S
O196 Mn180 2.297 . S
O196 C183 1.236 . S
N197 Mn181 2.282 . S
N197 C198 1.328 . S
N197 C202 1.318 . S
C198 N197 1.328 . S
C198 C199 1.457 . S
C198 H203 0.929 . S
C199 C198 1.457 . S
C199 C200 1.291 . S
C199 H212 0.931 . S
C200 C199 1.291 . S
C200 C201 1.373 . S
C200 H213 0.929 . S
C201 C200 1.373 . S
C201 C202 1.396 . S
C201 C208 1.403 . S
C202 C192 1.476 . S
C202 N197 1.318 . S
C202 C201 1.396 . S
H203 C198 0.929 . S
O204 Mn180 2.385 . S
O204 C182 1.234 . S
O205 Mn180 2.209 . S
O205 Mn181 2.215 . S
O205 C182 1.283 . S
O206 Mn180 2.094 . S
O206 C184 1.240 . S
O207 Mn181 2.117 . S
O207 C184 1.264 . S
C208 C201 1.403 . S
C208 C209 1.399 . S
C208 H214 0.929 . S
C209 C189 1.449 . S
C209 C208 1.399 . S
C209 H215 0.930 . S
H210 C190 0.931 . S
H211 C191 0.930 . S
H212 C199 0.931 . S
H213 C200 0.929 . S
H214 C208 0.929 . S
H215 C209 0.930 . S
Mn216 O221 2.095 . S
Mn216 O231 2.162 . S
Mn216 O232 2.297 . S
Mn216 O240 2.385 . S
Mn216 O241 2.209 . S
Mn216 O242 2.094 . S
Mn217 O222 2.121 . S
Mn217 N224 2.257 . S
Mn217 N233 2.282 . S
Mn217 O241 2.215 . S
Mn217 O243 2.117 . S
C218 O240 1.234 . S
C218 O241 1.283 . S
C219 O231 1.281 . S
C219 O232 1.236 . S
C220 O242 1.240 . S
C220 O243 1.264 . S
O221 Mn216 2.095 . S
O221 C230 1.250 . S
O222 Mn217 2.121 . S
O222 C230 1.258 . S
C223 N224 1.326 . S
C223 C227 1.460 . S
C223 H229 0.929 . S
N224 Mn217 2.257 . S
N224 C223 1.326 . S
N224 C228 1.362 . S
C225 C226 1.258 . S
C225 C228 1.431 . S
C225 C245 1.449 . S
C226 C225 1.258 . S
C226 C227 1.477 . S
C226 H246 0.931 1_556 S
C227 C223 1.460 . S
C227 C226 1.477 . S
C227 H247 0.930 1_556 S
C228 N224 1.362 . S
C228 C225 1.431 . S
C228 C238 1.476 . S
H229 C223 0.929 . S
C230 O221 1.250 . S
C230 O222 1.258 . S
O231 Mn216 2.162 . S
O231 C219 1.281 . S
O232 Mn216 2.297 . S
O232 C219 1.236 . S
N233 Mn217 2.282 . S
N233 C234 1.328 . S
N233 C238 1.318 . S
C234 N233 1.328 . S
C234 C235 1.457 . S
C234 H239 0.929 . S
C235 C234 1.457 . S
C235 C236 1.291 . S
C235 H248 0.931 . S
C236 C235 1.291 . S
C236 C237 1.373 . S
C236 H249 0.929 . S
C237 C236 1.373 . S
C237 C238 1.396 . S
C237 C244 1.403 . S
C238 C228 1.476 . S
C238 N233 1.318 . S
C238 C237 1.396 . S
H239 C234 0.929 . S
O240 Mn216 2.385 . S
O240 C218 1.234 . S
O241 Mn216 2.209 . S
O241 Mn217 2.215 . S
O241 C218 1.283 . S
O242 Mn216 2.094 . S
O242 C220 1.240 . S
O243 Mn217 2.117 . S
O243 C220 1.264 . S
C244 C237 1.403 . S
C244 C245 1.399 . S
C244 H250 0.929 . S
C245 C225 1.449 . S
C245 C244 1.399 . S
C245 H251 0.930 . S
H246 C226 0.931 1_554 S
H247 C227 0.930 1_554 S
H248 C235 0.931 . S
H249 C236 0.929 . S
H250 C244 0.929 . S
H251 C245 0.930 . S
Mn252 O257 2.095 . S
Mn252 O267 2.162 . S
Mn252 O268 2.297 1_545 S
Mn252 O276 2.385 1_545 S
Mn252 O277 2.209 1_545 S
Mn252 O278 2.094 . S
Mn253 O258 2.121 . S
Mn253 N260 2.257 1_545 S
Mn253 N269 2.282 . S
Mn253 O277 2.215 1_545 S
Mn253 O279 2.117 . S
C254 O276 1.234 . S
C254 O277 1.283 . S
C255 O267 1.281 1_565 S
C255 O268 1.236 . S
C256 O278 1.240 . S
C256 O279 1.264 . S
O257 Mn252 2.095 . S
O257 C266 1.250 . S
O258 Mn253 2.121 . S
O258 C266 1.258 . S
C259 N260 1.326 . S
C259 C263 1.460 . S
C259 H265 0.929 . S
N260 Mn253 2.257 1_565 S
N260 C259 1.326 . S
N260 C264 1.362 1_565 S
C261 C262 1.258 . S
C261 C264 1.431 1_565 S
C261 C281 1.449 . S
C262 C261 1.258 . S
C262 C263 1.477 . S
C262 H282 0.931 . S
C263 C259 1.460 . S
C263 C262 1.477 . S
C263 H283 0.930 . S
C264 N260 1.362 1_545 S
C264 C261 1.431 1_545 S
C264 C274 1.476 . S
H265 C259 0.929 . S
C266 O257 1.250 . S
C266 O258 1.258 . S
O267 Mn252 2.162 . S
O267 C255 1.281 1_545 S
O268 Mn252 2.297 1_565 S
O268 C255 1.236 . S
N269 Mn253 2.282 . S
N269 C270 1.328 . S
N269 C274 1.318 . S
C270 N269 1.328 . S
C270 C271 1.457 . S
C270 H275 0.929 . S
C271 C270 1.457 . S
C271 C272 1.291 . S
C271 H284 0.931 . S
C272 C271 1.291 . S
C272 C273 1.373 . S
C272 H285 0.929 . S
C273 C272 1.373 . S
C273 C274 1.396 . S
C273 C280 1.403 . S
C274 C264 1.476 . S
C274 N269 1.318 . S
C274 C273 1.396 . S
H275 C270 0.929 . S
O276 Mn252 2.385 1_565 S
O276 C254 1.234 . S
O277 Mn252 2.209 1_565 S
O277 Mn253 2.215 1_565 S
O277 C254 1.283 . S
O278 Mn252 2.094 . S
O278 C256 1.240 . S
O279 Mn253 2.117 . S
O279 C256 1.264 . S
C280 C273 1.403 . S
C280 C281 1.399 1_545 S
C280 H286 0.929 . S
C281 C261 1.449 . S
C281 C280 1.399 1_565 S
C281 H287 0.930 . S
H282 C262 0.931 . S
H283 C263 0.930 . S
H284 C271 0.931 . S
H285 C272 0.929 . S
H286 C280 0.929 . S
H287 C281 0.930 . S
H288 C294 0.930 . S
H289 C297 0.930 . S
H290 C298 0.930 . S
H291 C299 0.930 . S
H292 C302 0.930 . S
H293 C303 0.930 . S
C294 H288 0.930 . S
C294 C295 1.355 . S
C294 C296 1.415 . S
C295 C294 1.355 . S
C295 C297 1.419 1_655 S
C296 C294 1.415 . S
C296 C301 1.425 1_656 S
C296 C303 1.409 1_556 S
C297 H289 0.930 . S
C297 C295 1.419 1_455 S
C297 C298 1.362 . S
C298 H290 0.930 . S
C298 C297 1.362 . S
C298 C301 1.409 1_556 S
C299 H291 0.930 . S
C299 C300 1.355 . S
C299 C301 1.415 . S
C300 C299 1.355 . S
C300 C302 1.419 1_455 S
C301 C296 1.425 1_454 S
C301 C298 1.409 1_554 S
C301 C299 1.415 . S
C302 H292 0.930 . S
C302 C300 1.419 1_655 S
C302 C303 1.362 . S
C303 H293 0.930 . S
C303 C296 1.409 1_554 S
C303 C302 1.362 . S
H304 C310 0.930 . S
H305 C313 0.930 . S
H306 C314 0.930 . S
H307 C315 0.930 . S
H308 C318 0.930 . S
H309 C319 0.930 . S
C310 H304 0.930 . S
C310 C311 1.355 . S
C310 C312 1.415 . S
C311 C310 1.355 . S
C311 C313 1.419 . S
C312 C310 1.415 . S
C312 C317 1.425 . S
C312 C319 1.409 . S
C313 H305 0.930 . S
C313 C311 1.419 . S
C313 C314 1.362 . S
C314 H306 0.930 . S
C314 C313 1.362 . S
C314 C317 1.409 . S
C315 H307 0.930 . S
C315 C316 1.355 . S
C315 C317 1.415 . S
C316 C315 1.355 . S
C316 C318 1.419 . S
C317 C312 1.425 . S
C317 C314 1.409 . S
C317 C315 1.415 . S
C318 H308 0.930 . S
C318 C316 1.419 . S
C318 C319 1.362 . S
C319 H309 0.930 . S
C319 C312 1.409 . S
C319 C318 1.362 . S
H320 C326 0.930 . S
H321 C329 0.930 . S
H322 C330 0.930 1_545 S
H323 C331 0.930 . S
H324 C334 0.930 . S
H325 C335 0.930 1_565 S
C326 H320 0.930 . S
C326 C327 1.355 . S
C326 C328 1.415 . S
C327 C326 1.355 . S
C327 C329 1.419 . S
C328 C326 1.415 . S
C328 C333 1.425 1_564 S
C328 C335 1.409 1_564 S
C329 H321 0.930 . S
C329 C327 1.419 . S
C329 C330 1.362 . S
C330 H322 0.930 1_565 S
C330 C329 1.362 . S
C330 C333 1.409 1_564 S
C331 H323 0.930 . S
C331 C332 1.355 . S
C331 C333 1.415 . S
C332 C331 1.355 . S
C332 C334 1.419 . S
C333 C328 1.425 1_546 S
C333 C330 1.409 1_546 S
C333 C331 1.415 . S
C334 H324 0.930 . S
C334 C332 1.419 . S
C334 C335 1.362 . S
C335 H325 0.930 1_545 S
C335 C328 1.409 1_546 S
C335 C334 1.362 . S
H336 C342 0.930 . S
H337 C345 0.930 . S
H338 C346 0.930 1_455 S
H339 C347 0.930 . S
H340 C350 0.930 . S
H341 C351 0.930 1_655 S
C342 H336 0.930 . S
C342 C343 1.355 . S
C342 C344 1.415 . S
C343 C342 1.355 . S
C343 C345 1.419 1_545 S
C344 C342 1.415 . S
C344 C349 1.425 1_645 S
C344 C351 1.409 1_655 S
C345 H337 0.930 . S
C345 C343 1.419 1_565 S
C345 C346 1.362 . S
C346 H338 0.930 1_655 S
C346 C345 1.362 . S
C346 C349 1.409 1_655 S
C347 H339 0.930 . S
C347 C348 1.355 . S
C347 C349 1.415 . S
C348 C347 1.355 . S
C348 C350 1.419 1_565 S
C349 C344 1.425 1_465 S
C349 C346 1.409 1_455 S
C349 C347 1.415 . S
C350 H340 0.930 . S
C350 C348 1.419 1_545 S
C350 C351 1.362 . S
C351 H341 0.930 1_455 S
C351 C344 1.409 1_455 S
C351 C350 1.362 . S
H352 C358 0.930 . S
H353 C361 0.930 . S
H354 C362 0.930 . S
H355 C363 0.930 . S
H356 C366 0.930 . S
H357 C367 0.930 . S
C358 H352 0.930 . S
C358 C359 1.355 . S
C358 C360 1.415 . S
C359 C358 1.355 . S
C359 C361 1.419 . S
C360 C358 1.415 . S
C360 C365 1.425 . S
C360 C367 1.409 . S
C361 H353 0.930 . S
C361 C359 1.419 . S
C361 C362 1.362 . S
C362 H354 0.930 . S
C362 C361 1.362 . S
C362 C365 1.409 . S
C363 H355 0.930 . S
C363 C364 1.355 . S
C363 C365 1.415 . S
C364 C363 1.355 . S
C364 C366 1.419 . S
C365 C360 1.425 . S
C365 C362 1.409 . S
C365 C363 1.415 . S
C366 H356 0.930 . S
C366 C364 1.419 . S
C366 C367 1.362 . S
C367 H357 0.930 . S
C367 C360 1.409 . S
C367 C366 1.362 . S
H368 C374 0.930 . S
H369 C377 0.930 . S
H370 C378 0.930 . S
H371 C379 0.930 . S
H372 C382 0.930 . S
H373 C383 0.930 . S
C374 H368 0.930 . S
C374 C375 1.355 . S
C374 C376 1.415 . S
C375 C374 1.355 . S
C375 C377 1.419 . S
C376 C374 1.415 . S
C376 C381 1.425 . S
C376 C383 1.409 . S
C377 H369 0.930 . S
C377 C375 1.419 . S
C377 C378 1.362 . S
C378 H370 0.930 . S
C378 C377 1.362 . S
C378 C381 1.409 . S
C379 H371 0.930 . S
C379 C380 1.355 . S
C379 C381 1.415 . S
C380 C379 1.355 . S
C380 C382 1.419 . S
C381 C376 1.425 . S
C381 C378 1.409 . S
C381 C379 1.415 . S
C382 H372 0.930 . S
C382 C380 1.419 . S
C382 C383 1.362 . S
C383 H373 0.930 . S
C383 C376 1.409 . S
C383 C382 1.362 . S
H384 C390 0.930 . S
H385 C393 0.930 . S
H386 C394 0.930 . S
H387 C395 0.930 . S
H388 C398 0.930 . S
H389 C399 0.930 . S
C390 H384 0.930 . S
C390 C391 1.355 . S
C390 C392 1.415 . S
C391 C390 1.355 . S
C391 C393 1.419 . S
C392 C390 1.415 . S
C392 C397 1.425 . S
C392 C399 1.409 . S
C393 H385 0.930 . S
C393 C391 1.419 . S
C393 C394 1.362 . S
C394 H386 0.930 . S
C394 C393 1.362 . S
C394 C397 1.409 . S
C395 H387 0.930 . S
C395 C396 1.355 . S
C395 C397 1.415 . S
C396 C395 1.355 . S
C396 C398 1.419 . S
C397 C392 1.425 . S
C397 C394 1.409 . S
C397 C395 1.415 . S
C398 H388 0.930 . S
C398 C396 1.419 . S
C398 C399 1.362 . S
C399 H389 0.930 . S
C399 C392 1.409 . S
C399 C398 1.362 . S
H400 C406 0.930 . S
H401 C409 0.930 . S
H402 C410 0.930 . S
H403 C411 0.930 . S
H404 C414 0.930 . S
H405 C415 0.930 . S
C406 H400 0.930 . S
C406 C407 1.355 . S
C406 C408 1.415 . S
C407 C406 1.355 . S
C407 C409 1.419 . S
C408 C406 1.415 . S
C408 C413 1.425 . S
C408 C415 1.409 . S
C409 H401 0.930 . S
C409 C407 1.419 . S
C409 C410 1.362 . S
C410 H402 0.930 . S
C410 C409 1.362 . S
C410 C413 1.409 . S
C411 H403 0.930 . S
C411 C412 1.355 . S
C411 C413 1.415 . S
C412 C411 1.355 . S
C412 C414 1.419 . S
C413 C408 1.425 . S
C413 C410 1.409 . S
C413 C411 1.415 . S
C414 H404 0.930 . S
C414 C412 1.419 . S
C414 C415 1.362 . S
C415 H405 0.930 . S
C415 C408 1.409 . S
C415 C414 1.362 . S
H416 C422 0.930 . S
H417 C425 0.930 . S
H418 C426 0.930 . S
H419 C427 0.930 . S
H420 C430 0.930 . S
H421 C431 0.930 . S
C422 H416 0.930 . S
C422 C423 1.355 . S
C422 C424 1.415 . S
C423 C422 1.355 . S
C423 C425 1.419 . S
C424 C422 1.415 . S
C424 C429 1.425 . S
C424 C431 1.409 . S
C425 H417 0.930 . S
C425 C423 1.419 . S
C425 C426 1.362 . S
C426 H418 0.930 . S
C426 C425 1.362 . S
C426 C429 1.409 . S
C427 H419 0.930 . S
C427 C428 1.355 . S
C427 C429 1.415 . S
C428 C427 1.355 . S
C428 C430 1.419 . S
C429 C424 1.425 . S
C429 C426 1.409 . S
C429 C427 1.415 . S
C430 H420 0.930 . S
C430 C428 1.419 . S
C430 C431 1.362 . S
C431 H421 0.930 . S
C431 C424 1.409 . S
C431 C430 1.362 . S
H432 C438 0.930 . S
H433 C441 0.930 . S
H434 C442 0.930 . S
H435 C443 0.930 . S
H436 C446 0.930 . S
H437 C447 0.930 . S
C438 H432 0.930 . S
C438 C439 1.355 . S
C438 C440 1.415 . S
C439 C438 1.355 . S
C439 C441 1.419 . S
C440 C438 1.415 . S
C440 C445 1.425 . S
C440 C447 1.409 . S
C441 H433 0.930 . S
C441 C439 1.419 . S
C441 C442 1.362 . S
C442 H434 0.930 . S
C442 C441 1.362 . S
C442 C445 1.409 . S
C443 H435 0.930 . S
C443 C444 1.355 . S
C443 C445 1.415 . S
C444 C443 1.355 . S
C444 C446 1.419 . S
C445 C440 1.425 . S
C445 C442 1.409 . S
C445 C443 1.415 . S
C446 H436 0.930 . S
C446 C444 1.419 . S
C446 C447 1.362 . S
C447 H437 0.930 . S
C447 C440 1.409 . S
C447 C446 1.362 . S
H448 C454 0.930 . S
H449 C457 0.930 . S
H450 C458 0.930 . S
H451 C459 0.930 . S
H452 C462 0.930 . S
H453 C463 0.930 . S
C454 H448 0.930 . S
C454 C455 1.355 . S
C454 C456 1.415 . S
C455 C454 1.355 . S
C455 C457 1.419 . S
C456 C454 1.415 . S
C456 C461 1.425 . S
C456 C463 1.409 . S
C457 H449 0.930 . S
C457 C455 1.419 . S
C457 C458 1.362 . S
C458 H450 0.930 . S
C458 C457 1.362 . S
C458 C461 1.409 . S
C459 H451 0.930 . S
C459 C460 1.355 . S
C459 C461 1.415 . S
C460 C459 1.355 . S
C460 C462 1.419 . S
C461 C456 1.425 . S
C461 C458 1.409 . S
C461 C459 1.415 . S
C462 H452 0.930 . S
C462 C460 1.419 . S
C462 C463 1.362 . S
C463 H453 0.930 . S
C463 C456 1.409 . S
C463 C462 1.362 . S
H464 C470 0.930 1_655 S
H465 C473 0.930 . S
H466 C474 0.930 . S
H467 C475 0.930 . S
H468 C478 0.917 1_655 S
H469 C479 0.930 . S
C470 H464 0.930 1_455 S
C470 C471 1.355 . S
C470 C472 1.415 . S
C471 C470 1.355 . S
C471 C473 1.419 . S
C472 C470 1.415 . S
C472 C477 1.425 . S
C472 C479 1.409 1_455 S
C473 H465 0.930 . S
C473 C471 1.419 . S
C473 C474 1.362 . S
C474 H466 0.930 . S
C474 C473 1.362 . S
C474 C477 1.409 . S
C475 H467 0.930 . S
C475 C476 1.355 . S
C475 C477 1.415 . S
C476 C475 1.355 . S
C476 C478 1.419 . S
C477 C472 1.425 . S
C477 C474 1.409 . S
C477 C475 1.415 . S
C478 H468 0.917 1_455 S
C478 C476 1.419 . S
C478 C479 1.362 1_455 S
C479 H469 0.930 . S
C479 C472 1.409 1_655 S
C479 C478 1.362 1_655 S
H480 C486 0.930 . S
H481 C489 0.930 . S
H482 C490 0.930 . S
H483 C491 0.930 . S
H484 C494 0.930 . S
H485 C495 0.930 . S
C486 H480 0.930 . S
C486 C487 1.355 . S
C486 C488 1.415 . S
C487 C486 1.355 . S
C487 C489 1.419 . S
C488 C486 1.415 . S
C488 C493 1.425 . S
C488 C495 1.409 . S
C489 H481 0.930 . S
C489 C487 1.419 . S
C489 C490 1.362 . S
C490 H482 0.930 . S
C490 C489 1.362 . S
C490 C493 1.409 . S
C491 H483 0.930 . S
C491 C492 1.355 . S
C491 C493 1.415 . S
C492 C491 1.355 . S
C492 C494 1.419 . S
C493 C488 1.425 . S
C493 C490 1.409 . S
C493 C491 1.415 . S
C494 H484 0.930 . S
C494 C492 1.419 . S
C494 C495 1.362 . S
C495 H485 0.930 . S
C495 C488 1.409 . S
C495 C494 1.362 . S
H496 C502 0.930 . S
H497 C505 0.930 . S
H498 C506 0.930 . S
H499 C507 0.930 . S
H500 C510 0.930 . S
H501 C511 0.930 . S
C502 H496 0.930 . S
C502 C503 1.355 . S
C502 C504 1.415 . S
C503 C502 1.355 . S
C503 C505 1.419 . S
C504 C502 1.415 . S
C504 C509 1.425 . S
C504 C511 1.409 . S
C505 H497 0.930 . S
C505 C503 1.419 . S
C505 C506 1.362 . S
C506 H498 0.930 . S
C506 C505 1.362 . S
C506 C509 1.409 . S
C507 H499 0.930 . S
C507 C508 1.355 . S
C507 C509 1.415 . S
C508 C507 1.355 . S
C508 C510 1.419 . S
C509 C504 1.425 . S
C509 C506 1.409 . S
C509 C507 1.415 . S
C510 H500 0.930 . S
C510 C508 1.419 . S
C510 C511 1.362 . S
C511 H501 0.930 . S
C511 C504 1.409 . S
C511 C510 1.362 . S
H512 C518 0.930 . S
H513 C521 0.930 . S
H514 C522 0.930 . S
H515 C523 0.930 . S
H516 C526 0.930 . S
H517 C527 0.930 . S
C518 H512 0.930 . S
C518 C519 1.355 . S
C518 C520 1.415 . S
C519 C518 1.355 . S
C519 C521 1.419 . S
C520 C518 1.415 . S
C520 C525 1.425 . S
C520 C527 1.409 . S
C521 H513 0.930 . S
C521 C519 1.419 . S
C521 C522 1.362 . S
C522 H514 0.930 . S
C522 C521 1.362 . S
C522 C525 1.409 . S
C523 H515 0.930 . S
C523 C524 1.355 . S
C523 C525 1.415 . S
C524 C523 1.355 . S
C524 C526 1.419 . S
C525 C520 1.425 . S
C525 C522 1.409 . S
C525 C523 1.415 . S
C526 H516 0.930 . S
C526 C524 1.419 . S
C526 C527 1.362 . S
C527 H517 0.930 . S
C527 C520 1.409 . S
C527 C526 1.362 . S
H528 C534 0.930 . S
H529 C537 0.930 . S
H530 C538 0.930 . S
H531 C539 0.930 . S
H532 C542 0.930 . S
H533 C543 0.930 . S
C534 H528 0.930 . S
C534 C535 1.355 . S
C534 C536 1.415 . S
C535 C534 1.355 . S
C535 C537 1.419 . S
C536 C534 1.415 . S
C536 C541 1.425 . S
C536 C543 1.409 . S
C537 H529 0.930 . S
C537 C535 1.419 . S
C537 C538 1.362 . S
C538 H530 0.930 . S
C538 C537 1.362 . S
C538 C541 1.409 . S
C539 H531 0.930 . S
C539 C540 1.355 . S
C539 C541 1.415 . S
C540 C539 1.355 . S
C540 C542 1.419 . S
C541 C536 1.425 . S
C541 C538 1.409 . S
C541 C539 1.415 . S
C542 H532 0.930 . S
C542 C540 1.419 . S
C542 C543 1.362 . S
C543 H533 0.930 . S
C543 C536 1.409 . S
C543 C542 1.362 . S
C295 C158 1.643 . S
C300 C14 1.643 . S
C311 C50 1.620 . S
C316 C194 1.620 . S
C327 C86 1.615 . S
C332 C230 1.615 . S
C343 C266 1.639 . S
C348 C122 1.639 . S
C359 C4 1.384 . S
C364 C76 1.390 . S
C375 C40 1.456 . S
C380 C112 1.468 . S
C391 C220 1.469 . S
C396 C148 1.461 . S
C407 C184 1.469 . S
C412 C256 1.462 . S
C423 C182 0.975 . S
C428 C3 1.059 . S
C439 C39 1.085 . S
C444 C218 1.016 . S
C455 C75 1.062 . S
C460 C254 1.081 . S
C471 C146 1.062 . S
C476 C111 1.080 . S
C487 C147 1.071 . S
C492 C38 1.075 . S
C503 C183 1.054 . S
C508 C74 1.083 . S
C519 C219 1.083 . S
C524 C110 1.008 . S
C535 C2 1.079 . S
C540 C255 1.039 . S
