# Generated by pormake.
# Topology snk, (6)-cn, num edge types: 1
# Building blocks:
#     Node 0, Type 0, BuildingBlock: BETFAJ_clean_sbu_0, # of connection points: 6
#     Node 1, Type 0, BuildingBlock: BETFAJ_clean_sbu_0, # of connection points: 6
#     Node 2, Type 0, BuildingBlock: BETFAJ_clean_sbu_0, # of connection points: 6
#     Node 3, Type 0, BuildingBlock: BETFAJ_clean_sbu_0, # of connection points: 6
#     Node 4, Type 0, BuildingBlock: BETFAJ_clean_sbu_0, # of connection points: 6
#     Node 5, Type 0, BuildingBlock: BETFAJ_clean_sbu_0, # of connection points: 6
#     Node 6, Type 0, BuildingBlock: BETFAJ_clean_sbu_0, # of connection points: 6
#     Node 7, Type 0, BuildingBlock: BETFAJ_clean_sbu_0, # of connection points: 6
#     Edge 8, Type (0, 0), BuildingBlock: OJICUG_clean_linker_0, # of connection points: 2
#     Edge 9, Type (0, 0), BuildingBlock: OJICUG_clean_linker_0, # of connection points: 2
#     Edge 10, Type (0, 0), BuildingBlock: OJICUG_clean_linker_0, # of connection points: 2
#     Edge 11, Type (0, 0), BuildingBlock: OJICUG_clean_linker_0, # of connection points: 2
#     Edge 12, Type (0, 0), BuildingBlock: OJICUG_clean_linker_0, # of connection points: 2
#     Edge 13, Type (0, 0), BuildingBlock: OJICUG_clean_linker_0, # of connection points: 2
#     Edge 14, Type (0, 0), BuildingBlock: OJICUG_clean_linker_0, # of connection points: 2
#     Edge 15, Type (0, 0), BuildingBlock: OJICUG_clean_linker_0, # of connection points: 2
#     Edge 16, Type (0, 0), BuildingBlock: OJICUG_clean_linker_0, # of connection points: 2
#     Edge 17, Type (0, 0), BuildingBlock: OJICUG_clean_linker_0, # of connection points: 2
#     Edge 18, Type (0, 0), BuildingBlock: OJICUG_clean_linker_0, # of connection points: 2
#     Edge 19, Type (0, 0), BuildingBlock: OJICUG_clean_linker_0, # of connection points: 2
#     Edge 20, Type (0, 0), BuildingBlock: OJICUG_clean_linker_0, # of connection points: 2
#     Edge 21, Type (0, 0), BuildingBlock: OJICUG_clean_linker_0, # of connection points: 2
#     Edge 22, Type (0, 0), BuildingBlock: OJICUG_clean_linker_0, # of connection points: 2
#     Edge 23, Type (0, 0), BuildingBlock: OJICUG_clean_linker_0, # of connection points: 2
#     Edge 24, Type (0, 0), BuildingBlock: OJICUG_clean_linker_0, # of connection points: 2
#     Edge 25, Type (0, 0), BuildingBlock: OJICUG_clean_linker_0, # of connection points: 2
#     Edge 26, Type (0, 0), BuildingBlock: OJICUG_clean_linker_0, # of connection points: 2
#     Edge 27, Type (0, 0), BuildingBlock: OJICUG_clean_linker_0, # of connection points: 2
#     Edge 28, Type (0, 0), BuildingBlock: OJICUG_clean_linker_0, # of connection points: 2
#     Edge 29, Type (0, 0), BuildingBlock: OJICUG_clean_linker_0, # of connection points: 2
#     Edge 30, Type (0, 0), BuildingBlock: OJICUG_clean_linker_0, # of connection points: 2
#     Edge 31, Type (0, 0), BuildingBlock: OJICUG_clean_linker_0, # of connection points: 2
# Relax obj value: 0.122
# Max RMSD: 0.193
# Mean RMSD: 0.151
data_MOF--net-snk--node1-BETFAJ_clean_sbu_0--edge1-OJICUG_clean_linker_0
_symmetry_space_group_name_H-M    P1
_symmetry_Int_Tables_number       1
_symmetry_cell_setting            triclinic
loop_
_symmetry_equiv_pos_as_xyz
'x, y, z'
_cell_length_a     26.706701
_cell_length_b     26.676005
_cell_length_c     20.966447
_cell_angle_alpha  83.402631
_cell_angle_beta   96.71564
_cell_angle_gamma 89.282427
loop_
_atom_site_label
_atom_site_type_symbol
_atom_site_fract_x
_atom_site_fract_y
_atom_site_fract_z
_atom_type_partial_charge
Sm0 Sm 0.97813 0.97581 0.46636 0.0
Sm1 Sm 0.03045 0.02043 0.58637 0.0
C2 C 0.93628 0.9584 0.3501 0.0
C3 C 0.94798 0.96902 0.28314 0.0
C4 C 0.98223 0.00635 0.26636 0.0
C5 C 0.9953 0.01402 0.20337 0.0
C6 C 0.97444 0.98441 0.15601 0.0
C7 C 0.93963 0.94747 0.17303 0.0
C8 C 0.9266 0.93985 0.23606 0.0
C9 C 0.05112 0.91495 0.54194 0.0
C10 C 0.07208 0.05505 0.45273 0.0
C11 C 0.07219 0.03789 0.70267 0.0
C12 C 0.06049 0.02726 0.76963 0.0
C13 C 0.02623 0.98995 0.7864 0.0
C14 C 0.01317 0.98227 0.84941 0.0
C15 C 0.03406 0.01186 0.89677 0.0
C16 C 0.06889 0.04878 0.87976 0.0
C17 C 0.08191 0.05641 0.81673 0.0
C18 C 0.95714 0.08107 0.51091 0.0
C19 C 0.93638 0.94128 0.59974 0.0
O20 O 0.92382 0.99718 0.37843 0.0
O21 O 0.96697 0.92633 0.3879 0.0
O22 O 0.05421 0.96189 0.52678 0.0
O23 O 0.00977 0.89827 0.51388 0.0
O24 O 0.02988 0.03714 0.42568 0.0
O25 O 0.08659 0.04626 0.51548 0.0
O26 O 0.08472 0.99913 0.67436 0.0
O27 O 0.04146 0.0699 0.66485 0.0
O28 O 0.9543 0.03415 0.52623 0.0
O29 O 0.99852 0.09787 0.53878 0.0
O30 O 0.97862 0.95905 0.62691 0.0
O31 O 0.92188 0.95026 0.53703 0.0
H32 H 0.9994 0.02909 0.30211 0.0
H33 H 0.02265 0.04235 0.1922 0.0
H34 H 0.92232 0.9245 0.13758 0.0
H35 H 0.90016 0.91079 0.24822 0.0
H36 H 0.00903 0.96723 0.75065 0.0
H37 H 0.98581 0.95395 0.86058 0.0
H38 H 0.08621 0.07173 0.91522 0.0
H39 H 0.10835 0.08545 0.80458 0.0
Sm40 Sm 0.22987 0.72406 0.83262 0.0
Sm41 Sm 0.2745 0.7766 0.71289 0.0
C42 C 0.21217 0.68239 0.94867 0.0
C43 C 0.22291 0.69398 1.01577 0.0
C44 C 0.26273 0.72522 0.03388 0.0
C45 C 0.27052 0.73838 0.09691 0.0
C46 C 0.23858 0.7206 0.14296 0.0
C47 C 0.19911 0.68879 0.12462 0.0
C48 C 0.19135 0.67569 0.06158 0.0
C49 C 0.169 0.79696 0.75686 0.0
C50 C 0.3091 0.81787 0.84707 0.0
C51 C 0.29187 0.81851 0.5968 0.0
C52 C 0.28118 0.80695 0.52968 0.0
C53 C 0.24144 0.77563 0.51154 0.0
C54 C 0.23371 0.76248 0.4485 0.0
C55 C 0.26564 0.78035 0.40247 0.0
C56 C 0.30502 0.81225 0.42084 0.0
C57 C 0.31272 0.82534 0.4839 0.0
C58 C 0.33531 0.70345 0.78831 0.0
C59 C 0.19588 0.68211 0.69903 0.0
O60 O 0.25072 0.66946 0.92036 0.0
O61 O 0.18036 0.71336 0.9109 0.0
O62 O 0.21587 0.80018 0.77229 0.0
O63 O 0.15241 0.75548 0.78463 0.0
O64 O 0.29113 0.77564 0.87383 0.0
O65 O 0.30038 0.83254 0.78435 0.0
O66 O 0.25326 0.83115 0.62521 0.0
O67 O 0.32387 0.78769 0.63448 0.0
O68 O 0.28842 0.70046 0.77299 0.0
O69 O 0.35196 0.74483 0.76035 0.0
O70 O 0.21346 0.72446 0.67195 0.0
O71 O 0.2048 0.66767 0.76175 0.0
H72 H 0.28752 0.73981 0.99922 0.0
H73 H 0.30166 0.76238 0.1096 0.0
H74 H 0.17343 0.67495 0.15855 0.0
H75 H 0.16017 0.65188 0.04829 0.0
H76 H 0.21667 0.76095 0.54619 0.0
H77 H 0.20263 0.73841 0.43579 0.0
H78 H 0.33069 0.82617 0.38694 0.0
H79 H 0.34384 0.84922 0.49721 0.0
Sm80 Sm 0.52114 0.96667 0.09005 0.0
Sm81 Sm 0.48438 0.03033 0.96007 0.0
C82 C 0.55069 0.93267 0.21304 0.0
C83 C 0.54285 0.94717 0.27703 0.0
C84 C 0.52886 0.99687 0.28447 0.0
C85 C 0.51939 0.00957 0.34502 0.0
C86 C 0.52377 0.97278 0.3994 0.0
C87 C 0.53834 0.92312 0.39164 0.0
C88 C 0.54771 0.91049 0.33105 0.0
C89 C 0.452 0.92079 1.01033 0.0
C90 C 0.43283 0.05591 0.08327 0.0
C91 C 0.45475 0.06437 0.83709 0.0
C92 C 0.46238 0.04988 0.77303 0.0
C93 C 0.47668 0.00027 0.7656 0.0
C94 C 0.48591 0.9876 0.70494 0.0
C95 C 0.48102 0.02433 0.6505 0.0
C96 C 0.46614 0.0739 0.65826 0.0
C97 C 0.45696 0.0865 0.71893 0.0
C98 C 0.55414 0.07578 0.03958 0.0
C99 C 0.57324 0.94152 0.96725 0.0
O100 O 0.57732 0.96294 0.17759 0.0
O101 O 0.51117 0.91623 0.17959 0.0
O102 O 0.45017 0.96684 1.01896 0.0
O103 O 0.48946 0.89688 0.04682 0.0
O104 O 0.47046 0.02906 0.11794 0.0
O105 O 0.42536 0.05816 1.01956 0.0
O106 O 0.4281 0.03419 0.8726 0.0
O107 O 0.4944 0.08064 0.87045 0.0
O108 O 0.55553 0.02981 0.03068 0.0
O109 O 0.51665 0.09994 1.00342 0.0
O110 O 0.53547 0.96807 0.93236 0.0
O111 O 0.58057 0.93941 0.03094 0.0
H112 H 0.52481 0.02578 0.24334 0.0
H113 H 0.5077 0.048 0.34891 0.0
H114 H 0.54285 0.894 0.43252 0.0
H115 H 0.55854 0.87193 0.32632 0.0
H116 H 0.48119 0.97143 0.8068 0.0
H117 H 0.49784 0.94925 0.701 0.0
H118 H 0.46127 0.10296 0.61733 0.0
H119 H 0.44588 0.12499 0.72367 0.0
Sm120 Sm 0.22241 0.26721 0.21239 0.0
Sm121 Sm 0.28594 0.23048 0.34229 0.0
C122 C 0.18837 0.29675 0.08937 0.0
C123 C 0.20282 0.28898 1.02536 0.0
C124 C 0.25244 0.27491 1.01796 0.0
C125 C 0.26508 0.26551 0.95738 0.0
C126 C 0.22832 0.27002 0.90292 0.0
C127 C 0.17874 0.28468 0.91063 0.0
C128 C 0.16616 0.294 0.97125 0.0
C129 C 0.1763 0.19818 0.29179 0.0
C130 C 0.31132 0.17863 0.21917 0.0
C131 C 0.31998 0.20097 0.46532 0.0
C132 C 0.30544 0.20854 0.52935 0.0
C133 C 0.25583 0.22275 0.53666 0.0
C134 C 0.24313 0.232 0.59728 0.0
C135 C 0.27982 0.22723 0.65183 0.0
C136 C 0.32937 0.21241 0.64419 0.0
C137 C 0.342 0.20321 0.58355 0.0
C138 C 0.33149 0.3003 0.26313 0.0
C139 C 0.19709 0.3193 0.33514 0.0
O140 O 0.21857 0.32345 0.12497 0.0
O141 O 0.17207 0.25713 0.12268 0.0
O142 O 0.22233 0.19618 0.28337 0.0
O143 O 0.15258 0.23573 0.25526 0.0
O144 O 0.28463 0.21637 0.18451 0.0
O145 O 0.31358 0.17123 0.28287 0.0
O146 O 0.28999 0.17415 0.42966 0.0
O147 O 0.33606 0.24074 0.43209 0.0
O148 O 0.28555 0.3017 0.2719 0.0
O149 O 0.35556 0.26271 0.29918 0.0
O150 O 0.22364 0.2815 0.36997 0.0
O151 O 0.19508 0.3267 0.27148 0.0
H152 H 0.28132 0.27074 0.05916 0.0
H153 H 0.30346 0.25374 0.95351 0.0
H154 H 0.14964 0.28929 0.8697 0.0
H155 H 0.12765 0.3049 0.97595 0.0
H156 H 0.22703 0.22718 0.49538 0.0
H157 H 0.20479 0.24388 0.60111 0.0
H158 H 0.3584 0.2076 0.68519 0.0
H159 H 0.38049 0.19219 0.57891 0.0
Sm160 Sm 0.73319 0.22254 0.32973 0.0
Sm161 Sm 0.78336 0.26991 0.21216 0.0
C162 C 0.71083 0.18428 0.44516 0.0
C163 C 0.72254 0.19502 0.51246 0.0
C164 C 0.76468 0.22316 0.53121 0.0
C165 C 0.77367 0.23551 0.59453 0.0
C166 C 0.74068 0.21995 0.64023 0.0
C167 C 0.69884 0.19124 0.62123 0.0
C168 C 0.68985 0.17899 0.55788 0.0
C169 C 0.67727 0.2971 0.25033 0.0
C170 C 0.81543 0.31334 0.3458 0.0
C171 C 0.80596 0.30901 0.09724 0.0
C172 C 0.7934 0.29939 0.02964 0.0
C173 C 0.75129 0.27116 1.01109 0.0
C174 C 0.74175 0.25942 0.94755 0.0
C175 C 0.77424 0.27558 0.90144 0.0
C176 C 0.816 0.30447 0.92024 0.0
C177 C 0.82548 0.31618 0.98379 0.0
C178 C 0.84094 0.19819 0.29396 0.0
C179 C 0.7013 0.17815 0.19733 0.0
O180 O 0.748 0.16701 0.4177 0.0
O181 O 0.68261 0.21824 0.40694 0.0
O182 O 0.72404 0.29807 0.26724 0.0
O183 O 0.65775 0.25684 0.27699 0.0
O184 O 0.79528 0.27244 0.3728 0.0
O185 O 0.8093 0.32654 0.28267 0.0
O186 O 0.76959 0.32696 0.12556 0.0
O187 O 0.83338 0.27383 0.13444 0.0
O188 O 0.79429 0.19526 0.27624 0.0
O189 O 0.85909 0.23841 0.26509 0.0
O190 O 0.72178 0.21874 0.16997 0.0
O191 O 0.70721 0.1654 0.26045 0.0
H192 H 0.7904 0.23591 0.49685 0.0
H193 H 0.80659 0.25708 0.60775 0.0
H194 H 0.67235 0.17918 0.65491 0.0
H195 H 0.65693 0.15756 0.54409 0.0
H196 H 0.72613 0.25769 0.04582 0.0
H197 H 0.7089 0.2377 0.93454 0.0
H198 H 0.84214 0.31697 0.88628 0.0
H199 H 0.85841 0.33764 0.99744 0.0
Sm200 Sm 0.72097 0.76617 0.71121 0.0
Sm201 Sm 0.78533 0.73059 0.8408 0.0
C202 C 0.68613 0.79413 0.58812 0.0
C203 C 0.70083 0.7867 0.52411 0.0
C204 C 0.75096 0.77483 0.51639 0.0
C205 C 0.76387 0.76577 0.45578 0.0
C206 C 0.72686 0.76827 0.40171 0.0
C207 C 0.67673 0.78056 0.40981 0.0
C208 C 0.6639 0.78966 0.47039 0.0
C209 C 0.67425 0.69982 0.79323 0.0
C210 C 0.80869 0.67632 0.71883 0.0
C211 C 0.82114 0.70355 0.96381 0.0
C212 C 0.8061 0.70994 0.02794 0.0
C213 C 0.75584 0.7213 0.03561 0.0
C214 C 0.74271 0.72987 0.0963 0.0
C215 C 0.77964 0.72737 0.15048 0.0
C216 C 0.82985 0.71537 0.14246 0.0
C217 C 0.8429 0.70679 0.0818 0.0
C218 C 0.8314 0.79758 0.75857 0.0
C219 C 0.6969 0.81964 0.8333 0.0
O220 O 0.71519 0.82211 0.62331 0.0
O221 O 0.67129 0.75397 0.62185 0.0
O222 O 0.72014 0.69653 0.78445 0.0
O223 O 0.65094 0.73693 0.75543 0.0
O224 O 0.78228 0.71405 0.68375 0.0
O225 O 0.81135 0.66973 0.78258 0.0
O226 O 0.79345 0.67446 0.92866 0.0
O227 O 0.83411 0.74458 0.9301 0.0
O228 O 0.78571 0.80049 0.76811 0.0
O229 O 0.85494 0.76013 0.79547 0.0
O230 O 0.72318 0.78175 0.86827 0.0
O231 O 0.69479 0.82675 0.76962 0.0
H232 H 0.78004 0.77207 0.55734 0.0
H233 H 0.80269 0.75584 0.45159 0.0
H234 H 0.64738 0.78352 0.36917 0.0
H235 H 0.62499 0.79874 0.47538 0.0
H236 H 0.72687 0.72414 0.99454 0.0
H237 H 0.70382 0.73955 0.10045 0.0
H238 H 0.85913 0.71236 0.18318 0.0
H239 H 0.8819 0.69807 0.07685 0.0
Sm240 Sm 0.47754 0.48081 0.97529 0.0
Sm241 Sm 0.52262 0.53327 0.09277 0.0
C242 C 0.44004 0.45736 0.85995 0.0
C243 C 0.45088 0.46901 0.79276 0.0
C244 C 0.4786 0.51144 0.77409 0.0
C245 C 0.49111 0.52039 0.7109 0.0
C246 C 0.47611 0.48704 0.66527 0.0
C247 C 0.44785 0.44487 0.6842 0.0
C248 C 0.43545 0.43594 0.74742 0.0
C249 C 0.55016 0.42533 0.05807 0.0
C250 C 0.56838 0.56327 0.96014 0.0
C251 C 0.55831 0.56003 0.20707 0.0
C252 C 0.55163 0.54508 0.27515 0.0
C253 C 0.52505 0.50176 0.29333 0.0
C254 C 0.51477 0.49059 0.35724 0.0
C255 C 0.53076 0.52267 0.40406 0.0
C256 C 0.55842 0.56544 0.38572 0.0
C257 C 0.56867 0.57654 0.32179 0.0
C258 C 0.45216 0.58938 1.00713 0.0
C259 C 0.43339 0.44902 0.10756 0.0
O260 O 0.42208 0.49444 0.88706 0.0
O261 O 0.47431 0.42976 0.89849 0.0
O262 O 0.55164 0.47213 0.04105 0.0
O263 O 0.5115 0.40541 0.02812 0.0
O264 O 0.52848 0.54183 0.9325 0.0
O265 O 0.58008 0.55905 1.02354 0.0
O266 O 0.58164 0.52759 0.17774 0.0
O267 O 0.5188 0.58159 0.17132 0.0
O268 O 0.44909 0.54297 0.02619 0.0
O269 O 0.49198 0.60809 0.03618 0.0
O270 O 0.47398 0.46953 0.13499 0.0
O271 O 0.42038 0.45527 0.04446 0.0
H272 H 0.49089 0.53745 0.80841 0.0
H273 H 0.51231 0.55356 0.69772 0.0
H274 H 0.43623 0.41813 0.65056 0.0
H275 H 0.41437 0.40278 0.76117 0.0
H276 H 0.5114 0.47709 0.25794 0.0
H277 H 0.49401 0.457 0.36988 0.0
H278 H 0.57079 0.59127 0.42027 0.0
H279 H 0.58885 0.61041 0.30842 0.0
Sm280 Sm 0.02126 0.46604 0.59171 0.0
Sm281 Sm 0.9838 0.5292 0.46159 0.0
C282 C 0.05109 0.43232 0.71471 0.0
C283 C 0.0432 0.44671 0.77871 0.0
C284 C 0.02811 0.49612 0.786 0.0
C285 C 0.01858 0.50865 0.84659 0.0
C286 C 0.02394 0.47199 0.90112 0.0
C287 C 0.03959 0.42263 0.8935 0.0
C288 C 0.04907 0.41016 0.83288 0.0
C289 C 0.95378 0.41864 0.51166 0.0
C290 C 0.93094 0.55335 0.58437 0.0
C291 C 0.95457 0.56346 0.33859 0.0
C292 C 0.96188 0.54879 0.27455 0.0
C293 C 0.97657 0.49924 0.26732 0.0
C294 C 0.98585 0.48652 0.20671 0.0
C295 C 0.98061 0.52312 0.15212 0.0
C296 C 0.96524 0.57258 0.15967 0.0
C297 C 0.95604 0.58524 0.2203 0.0
C298 C 0.05172 0.5762 0.54169 0.0
C299 C 0.07387 0.44165 0.46905 0.0
O300 O 0.07748 0.4628 0.67918 0.0
O301 O 0.01166 0.41564 0.68137 0.0
O302 O 0.9508 0.46466 0.52011 0.0
O303 O 0.99144 0.39551 0.54863 0.0
O304 O 0.96894 0.52721 0.61929 0.0
O305 O 0.92379 0.55556 0.52065 0.0
O306 O 0.92744 0.53382 0.37409 0.0
O307 O 0.99457 0.57905 0.37194 0.0
O308 O 0.05445 0.5303 0.53277 0.0
O309 O 0.01387 0.59947 0.50528 0.0
O310 O 0.03568 0.46754 0.43414 0.0
O311 O 0.08128 0.43983 0.5327 0.0
H312 H 0.02323 0.52489 0.74473 0.0
H313 H 0.00605 0.54684 0.85042 0.0
H314 H 0.04484 0.39364 0.9345 0.0
H315 H 0.06073 0.37183 0.82824 0.0
H316 H 0.9814 0.47054 0.30867 0.0
H317 H 0.99815 0.44824 0.20294 0.0
H318 H 0.96006 0.60153 0.11863 0.0
H319 H 0.94468 0.62368 0.2249 0.0
C320 C 0.07277 0.12521 0.36458 0.0
C321 C 0.09997 0.0905 0.41182 0.0
H322 H 0.07573 0.18708 0.29092 0.0
C323 C 0.15286 0.09055 0.41899 0.0
H324 H 0.0319 0.12599 0.35822 0.0
C325 C 0.17811 0.12459 0.37865 0.0
C326 C 0.15076 0.16029 0.33269 0.0
H327 H 0.17454 0.06376 0.45476 0.0
H328 H 0.21883 0.12307 0.3836 0.0
C329 C 0.09787 0.16022 0.32613 0.0
C330 C 0.06519 0.8389 0.62284 0.0
C331 C 0.08254 0.8852 0.59613 0.0
H332 H 0.07854 0.77541 0.69509 0.0
C333 C 0.12868 0.90294 0.62308 0.0
H334 H 0.02963 0.82437 0.60335 0.0
C335 C 0.15694 0.87465 0.676 0.0
C336 C 0.13927 0.82842 0.7027 0.0
H337 H 0.14285 0.93856 0.60328 0.0
H338 H 0.19248 0.88888 0.696 0.0
C339 C 0.09304 0.81103 0.67578 0.0
C340 C 0.3796 0.81788 0.93488 0.0
C341 C 0.34466 0.84545 0.88831 0.0
H342 H 0.44155 0.82025 1.00866 0.0
C343 C 0.34441 0.89837 0.88239 0.0
H344 H 0.38056 0.77697 0.94031 0.0
C345 C 0.37836 0.92327 0.92339 0.0
C346 C 0.41428 0.89556 0.9687 0.0
H347 H 0.31739 0.92031 0.8472 0.0
H348 H 0.37655 0.96399 0.91953 0.0
C349 C 0.41453 0.84266 0.97396 0.0
C350 C 0.36401 0.12064 0.08349 0.0
C351 C 0.39973 0.08548 0.11772 0.0
H352 H 0.30798 0.17732 0.08861 0.0
C353 C 0.40472 0.07971 0.18582 0.0
H354 H 0.3591 0.12596 0.03111 0.0
C355 C 0.37545 0.10923 0.21895 0.0
C356 C 0.34061 0.14526 0.18471 0.0
H357 H 0.43157 0.05263 0.21382 0.0
H358 H 0.38077 0.10432 0.27133 0.0
C359 C 0.33482 0.15023 0.11662 0.0
C360 C 0.85548 0.90516 0.63191 0.0
C361 C 0.90836 0.90578 0.64033 0.0
H362 H 0.78928 0.87182 0.66552 0.0
C363 C 0.93535 0.87132 0.68806 0.0
H364 H 0.83397 0.93168 0.59562 0.0
C365 C 0.91006 0.83604 0.72587 0.0
C366 C 0.85719 0.83546 0.71809 0.0
H367 H 0.97622 0.8709 0.69527 0.0
H368 H 0.93203 0.8094 0.76157 0.0
C369 C 0.83002 0.87084 0.67154 0.0
C370 C 0.87925 0.09326 0.43012 0.0
C371 C 0.92569 0.11068 0.45667 0.0
H372 H 0.81548 0.10749 0.35703 0.0
C373 C 0.94346 0.15658 0.42946 0.0
H374 H 0.86476 0.05795 0.45039 0.0
C375 C 0.91594 0.18422 0.37616 0.0
C376 C 0.86953 0.16711 0.3494 0.0
H377 H 0.9792 0.1709 0.44867 0.0
H378 H 0.93098 0.21939 0.35628 0.0
C379 C 0.85118 0.12147 0.37689 0.0
C380 C 0.66431 0.09788 0.16387 0.0
C381 C 0.66538 0.15077 0.15634 0.0
H382 H 0.62976 0.03227 0.12972 0.0
C383 C 0.6306 0.1784 0.10968 0.0
H384 H 0.69108 0.07588 0.19935 0.0
C385 C 0.59443 0.15376 0.07221 0.0
C386 C 0.59323 0.10088 0.07927 0.0
H387 H 0.63044 0.21924 0.10327 0.0
H388 H 0.56746 0.17623 0.0375 0.0
C389 C 0.6291 0.07304 0.12448 0.0
C390 C 0.63242 0.88886 0.83253 0.0
C391 C 0.66726 0.85304 0.86724 0.0
H392 H 0.5756 0.94498 0.83685 0.0
C393 C 0.67242 0.84799 0.9353 0.0
H394 H 0.62754 0.89375 0.78015 0.0
C395 C 0.64262 0.87733 0.96793 0.0
C396 C 0.60688 0.91225 0.93322 0.0
H397 H 0.69916 0.82096 0.96366 0.0
H398 H 0.64705 0.87196 1.0203 0.0
C399 C 0.60249 0.91809 0.86517 0.0
C400 C 0.56993 0.62944 0.86753 0.0
C401 C 0.59666 0.59737 0.91821 0.0
H402 H 0.57366 0.68769 0.78945 0.0
C403 C 0.64949 0.59829 0.92731 0.0
H404 H 0.5291 0.62938 0.85959 0.0
C405 C 0.67521 0.6305 0.88539 0.0
C406 C 0.6483 0.66362 0.83583 0.0
H407 H 0.67079 0.57344 0.96577 0.0
H408 H 0.7159 0.62969 0.89199 0.0
C409 C 0.59544 0.66279 0.82743 0.0
C410 C 0.61929 0.37179 0.21914 0.0
C411 C 0.64904 0.33347 0.20088 0.0
H412 H 0.5646 0.43159 0.18732 0.0
C413 C 0.6482 0.32746 0.13519 0.0
H414 H 0.61897 0.37653 0.26973 0.0
C415 C 0.61679 0.35837 0.08836 0.0
C416 C 0.58672 0.39643 0.1066 0.0
H417 H 0.67067 0.29805 0.12009 0.0
H418 H 0.61544 0.35212 0.03803 0.0
C419 C 0.58855 0.40338 0.17214 0.0
C420 C 0.88194 0.41976 0.42268 0.0
C421 C 0.91718 0.39266 0.46948 0.0
H422 H 0.82275 0.41574 0.3446 0.0
C423 C 0.9179 0.33972 0.47558 0.0
H424 H 0.87972 0.46047 0.41819 0.0
C425 C 0.88406 0.31432 0.43579 0.0
C426 C 0.84996 0.34134 0.38767 0.0
H427 H 0.94439 0.31779 0.5115 0.0
H428 H 0.88519 0.27342 0.44189 0.0
C429 C 0.84924 0.39426 0.38096 0.0
C430 C 0.87232 0.60632 0.71934 0.0
C431 C 0.83772 0.64244 0.68477 0.0
H432 H 0.92858 0.5497 0.71478 0.0
C433 C 0.83224 0.6473 0.61668 0.0
H434 H 0.8774 0.6015 0.77172 0.0
C435 C 0.86161 0.61763 0.5839 0.0
C436 C 0.89724 0.58253 0.61847 0.0
H437 H 0.80565 0.67453 0.58841 0.0
H438 H 0.85706 0.62298 0.53152 0.0
C439 C 0.9018 0.57673 0.68654 0.0
C440 C 0.32877 0.37543 0.17874 0.0
C441 C 0.35664 0.33973 0.22412 0.0
H442 H 0.33144 0.43762 0.10429 0.0
C443 C 0.40948 0.34152 0.23198 0.0
H444 H 0.28805 0.37564 0.17288 0.0
C445 C 0.43402 0.37815 0.19509 0.0
C446 C 0.4063 0.4127 0.14821 0.0
H447 H 0.43195 0.31471 0.26688 0.0
H448 H 0.47487 0.37857 0.20203 0.0
C449 C 0.35349 0.41103 0.13994 0.0
C450 C 0.37565 0.59863 0.92378 0.0
C451 C 0.42143 0.61711 0.95074 0.0
H452 H 0.31202 0.61166 0.85033 0.0
C453 C 0.43883 0.66298 0.92284 0.0
H454 H 0.36147 0.56331 0.94451 0.0
C455 C 0.41122 0.68998 0.86914 0.0
C456 C 0.36506 0.67223 0.84263 0.0
H457 H 0.47414 0.67806 0.94226 0.0
H458 H 0.42571 0.7254 0.84916 0.0
C459 C 0.34749 0.62618 0.8701 0.0
C460 C 0.16057 0.60099 0.66631 0.0
C461 C 0.16049 0.65392 0.65845 0.0
H462 H 0.12767 0.53454 0.63253 0.0
C463 C 0.1253 0.68077 0.61153 0.0
H464 H 0.1877 0.5796 0.70195 0.0
C465 C 0.08986 0.65524 0.57412 0.0
C466 C 0.08989 0.6023 0.58148 0.0
H467 H 0.1244 0.72168 0.60475 0.0
H468 H 0.06259 0.67706 0.53913 0.0
C469 C 0.12612 0.57531 0.62702 0.0
C470 C 0.13254 0.38838 0.33443 0.0
C471 C 0.16753 0.35271 0.36915 0.0
H472 H 0.0758 0.44457 0.3387 0.0
C473 C 0.17308 0.34807 0.43721 0.0
H474 H 0.12739 0.39301 0.28205 0.0
C475 C 0.14348 0.37764 0.46983 0.0
C476 C 0.10756 0.41238 0.4351 0.0
H477 H 0.20001 0.32123 0.46554 0.0
H478 H 0.14816 0.37255 0.52221 0.0
C479 C 0.10283 0.41784 0.36704 0.0
C480 C 0.01246 0.95614 0.99441 0.0
C481 C 0.01899 0.00478 0.96331 0.0
H482 H 0.99408 0.91153 0.07963 0.0
C483 C 0.01058 0.0467 0.99608 0.0
H484 H 0.01932 0.92301 0.97097 0.0
C485 C 0.99605 0.04013 0.05839 0.0
C486 C 0.98952 0.99148 0.08948 0.0
H487 H 0.01443 0.08473 0.97317 0.0
H488 H 0.98919 0.07326 0.08182 0.0
C489 C 0.99792 0.94957 0.05671 0.0
C490 C 0.24635 0.71525 0.32588 0.0
C491 C 0.25847 0.76513 0.33592 0.0
H492 H 0.23147 0.6619 0.25758 0.0
C493 C 0.26421 0.80016 0.28196 0.0
H494 H 0.2425 0.68708 0.3664 0.0
C495 C 0.25797 0.78569 0.21955 0.0
C496 C 0.24582 0.73582 0.2095 0.0
H497 H 0.27283 0.83904 0.28784 0.0
H498 H 0.26182 0.81386 0.17902 0.0
C499 C 0.24009 0.70078 0.26346 0.0
C500 C 0.51783 0.04455 0.54544 0.0
C501 C 0.49184 0.01116 0.58607 0.0
H502 H 0.54897 0.05845 0.45564 0.0
C503 C 0.47646 0.96503 0.56472 0.0
H504 H 0.53098 0.08003 0.56068 0.0
C505 C 0.48678 0.95265 0.50439 0.0
C506 C 0.51282 0.98602 0.46376 0.0
H507 H 0.45571 0.93873 0.59425 0.0
H508 H 0.47361 0.91717 0.48915 0.0
C509 C 0.52818 0.03216 0.48511 0.0
C510 C 0.20815 0.23309 0.79772 0.0
C511 C 0.24151 0.25911 0.83852 0.0
H512 H 0.19424 0.20197 0.70775 0.0
C513 C 0.28761 0.27447 0.81733 0.0
H514 H 0.1727 0.21992 0.81283 0.0
C515 C 0.29999 0.26412 0.75702 0.0
C516 C 0.26662 0.2381 0.71622 0.0
H517 H 0.31389 0.29527 0.84695 0.0
H518 H 0.33544 0.27727 0.74191 0.0
C519 C 0.22052 0.22275 0.73739 0.0
C520 C 0.77293 0.29637 0.78108 0.0
C521 C 0.76524 0.2615 0.83443 0.0
H522 H 0.77063 0.3109 0.6782 0.0
C523 C 0.74952 0.2128 0.82334 0.0
H524 H 0.78433 0.33442 0.78778 0.0
C525 C 0.74169 0.19931 0.7605 0.0
C526 C 0.74942 0.23416 0.70717 0.0
H527 H 0.74409 0.18471 0.86336 0.0
H528 H 0.7303 0.16126 0.7538 0.0
C529 C 0.76513 0.28287 0.71824 0.0
C530 C 0.70845 0.72967 0.29744 0.0
C531 C 0.74035 0.75781 0.3373 0.0
H532 H 0.69604 0.69737 0.20813 0.0
C533 C 0.78526 0.77581 0.31511 0.0
H534 H 0.67397 0.7145 0.31335 0.0
C535 C 0.79792 0.76596 0.25473 0.0
C536 C 0.76605 0.73779 0.21487 0.0
H537 H 0.81034 0.79827 0.344 0.0
H538 H 0.83238 0.78117 0.23882 0.0
C539 C 0.72112 0.71981 0.23704 0.0
C540 C 0.53871 0.51226 0.58739 0.0
C541 C 0.49027 0.49588 0.59839 0.0
H542 H 0.58981 0.53258 0.51783 0.0
C543 C 0.45555 0.48777 0.54502 0.0
H544 H 0.56665 0.51806 0.62747 0.0
C545 C 0.46884 0.49604 0.4822 0.0
C546 C 0.51721 0.51259 0.47114 0.0
H547 H 0.4177 0.47585 0.55169 0.0
H548 H 0.44079 0.49044 0.44215 0.0
C549 C 0.55202 0.52051 0.52453 0.0
C550 C 0.98748 0.45127 1.00635 0.0
C551 C 0.01292 0.48505 0.9655 0.0
H552 H 0.95667 0.43696 0.09635 0.0
C553 C 0.02759 0.53145 0.98662 0.0
H554 H 0.97488 0.41556 0.99128 0.0
C555 C 0.01711 0.54373 0.04693 0.0
C556 C 0.99165 0.50998 0.08777 0.0
H557 H 0.04792 0.55805 0.95694 0.0
H558 H 0.02974 0.57944 0.06199 0.0
C559 C 0.977 0.46356 0.06667 0.0
loop_
_geom_bond_atom_site_label_1
_geom_bond_atom_site_label_2
_geom_bond_distance
_geom_bond_site_symmetry_2
_ccdc_geom_bond_type
Sm0 C2 2.846 1_655 S
Sm0 O20 2.543 1_565 S
Sm0 O21 2.450 1_655 S
Sm0 O22 2.681 1_655 S
Sm0 O23 2.464 1_655 S
Sm0 O24 2.396 1_665 S
Sm0 O28 2.386 1_565 S
Sm0 O31 2.408 . S
Sm1 C11 2.846 1_455 S
Sm1 O22 2.386 1_545 S
Sm1 O25 2.408 . S
Sm1 O26 2.543 1_545 S
Sm1 O27 2.450 1_455 S
Sm1 O28 2.681 1_455 S
Sm1 O29 2.464 1_455 S
Sm1 O30 2.396 1_445 S
C2 Sm0 2.846 1_455 S
C2 C3 1.506 . S
C2 O20 1.261 1_465 S
C2 O21 1.242 . S
C3 C2 1.506 . S
C3 C4 1.358 1_565 S
C3 C8 1.382 . S
C4 C3 1.358 1_545 S
C4 C5 1.385 . S
C4 H32 0.930 1_455 S
C5 C4 1.385 . S
C5 C6 1.395 1_545 S
C5 H33 0.929 . S
C6 C5 1.395 1_565 S
C6 C7 1.335 . S
C7 C6 1.335 . S
C7 C8 1.398 . S
C7 H34 0.930 . S
C8 C3 1.382 . S
C8 C7 1.398 . S
C8 H35 0.929 . S
C9 O22 1.271 . S
C9 O23 1.251 . S
C10 O24 1.252 . S
C10 O25 1.272 . S
C11 Sm1 2.846 1_655 S
C11 C12 1.506 . S
C11 O26 1.261 1_645 S
C11 O27 1.242 . S
C12 C11 1.506 . S
C12 C13 1.358 1_545 S
C12 C17 1.382 . S
C13 C12 1.358 1_565 S
C13 C14 1.385 . S
C13 H36 0.930 1_655 S
C14 C13 1.385 . S
C14 C15 1.395 1_565 S
C14 H37 0.929 . S
C15 C14 1.395 1_545 S
C15 C16 1.335 . S
C16 C15 1.335 . S
C16 C17 1.398 . S
C16 H38 0.930 . S
C17 C12 1.382 . S
C17 C16 1.398 . S
C17 H39 0.929 . S
C18 O28 1.271 . S
C18 O29 1.251 . S
C19 O30 1.252 . S
C19 O31 1.272 . S
O20 Sm0 2.543 1_545 S
O20 C2 1.261 1_645 S
O21 Sm0 2.450 1_455 S
O21 C2 1.242 . S
O22 Sm0 2.681 1_455 S
O22 Sm1 2.386 1_565 S
O22 C9 1.271 . S
O23 Sm0 2.464 1_455 S
O23 C9 1.251 . S
O24 Sm0 2.396 1_445 S
O24 C10 1.252 . S
O25 Sm1 2.408 . S
O25 C10 1.272 . S
O26 Sm1 2.543 1_565 S
O26 C11 1.261 1_465 S
O27 Sm1 2.450 1_655 S
O27 C11 1.242 . S
O28 Sm0 2.386 1_545 S
O28 Sm1 2.681 1_655 S
O28 C18 1.271 . S
O29 Sm1 2.464 1_655 S
O29 C18 1.251 . S
O30 Sm1 2.396 1_665 S
O30 C19 1.252 . S
O31 Sm0 2.408 . S
O31 C19 1.272 . S
H32 C4 0.930 1_655 S
H33 C5 0.929 . S
H34 C7 0.930 . S
H35 C8 0.929 . S
H36 C13 0.930 1_455 S
H37 C14 0.929 . S
H38 C16 0.930 . S
H39 C17 0.929 . S
Sm40 C42 2.846 . S
Sm40 O60 2.543 . S
Sm40 O61 2.450 . S
Sm40 O62 2.681 . S
Sm40 O63 2.464 . S
Sm40 O64 2.396 . S
Sm40 O68 2.386 . S
Sm40 O71 2.408 . S
Sm41 C51 2.846 . S
Sm41 O62 2.386 . S
Sm41 O65 2.408 . S
Sm41 O66 2.543 . S
Sm41 O67 2.450 . S
Sm41 O68 2.681 . S
Sm41 O69 2.464 . S
Sm41 O70 2.396 . S
C42 Sm40 2.846 . S
C42 C43 1.506 1_556 S
C42 O60 1.261 . S
C42 O61 1.242 . S
C43 C42 1.506 1_554 S
C43 C44 1.358 . S
C43 C48 1.382 . S
C44 C43 1.358 . S
C44 C45 1.385 . S
C44 H72 0.930 . S
C45 C44 1.385 . S
C45 C46 1.395 . S
C45 H73 0.929 . S
C46 C45 1.395 . S
C46 C47 1.335 . S
C47 C46 1.335 . S
C47 C48 1.398 . S
C47 H74 0.930 . S
C48 C43 1.382 . S
C48 C47 1.398 . S
C48 H75 0.929 1_554 S
C49 O62 1.271 . S
C49 O63 1.251 . S
C50 O64 1.252 . S
C50 O65 1.272 . S
C51 Sm41 2.846 . S
C51 C52 1.506 . S
C51 O66 1.261 . S
C51 O67 1.242 . S
C52 C51 1.506 . S
C52 C53 1.358 . S
C52 C57 1.382 . S
C53 C52 1.358 . S
C53 C54 1.385 . S
C53 H76 0.930 . S
C54 C53 1.385 . S
C54 C55 1.395 . S
C54 H77 0.929 . S
C55 C54 1.395 . S
C55 C56 1.335 . S
C56 C55 1.335 . S
C56 C57 1.398 . S
C56 H78 0.930 . S
C57 C52 1.382 . S
C57 C56 1.398 . S
C57 H79 0.929 . S
C58 O68 1.271 . S
C58 O69 1.251 . S
C59 O70 1.252 . S
C59 O71 1.272 . S
O60 Sm40 2.543 . S
O60 C42 1.261 . S
O61 Sm40 2.450 . S
O61 C42 1.242 . S
O62 Sm40 2.681 . S
O62 Sm41 2.386 . S
O62 C49 1.271 . S
O63 Sm40 2.464 . S
O63 C49 1.251 . S
O64 Sm40 2.396 . S
O64 C50 1.252 . S
O65 Sm41 2.408 . S
O65 C50 1.272 . S
O66 Sm41 2.543 . S
O66 C51 1.261 . S
O67 Sm41 2.450 . S
O67 C51 1.242 . S
O68 Sm40 2.386 . S
O68 Sm41 2.681 . S
O68 C58 1.271 . S
O69 Sm41 2.464 . S
O69 C58 1.251 . S
O70 Sm41 2.396 . S
O70 C59 1.252 . S
O71 Sm40 2.408 . S
O71 C59 1.272 . S
H72 C44 0.930 . S
H73 C45 0.929 . S
H74 C47 0.930 . S
H75 C48 0.929 1_556 S
H76 C53 0.930 . S
H77 C54 0.929 . S
H78 C56 0.930 . S
H79 C57 0.929 . S
Sm80 C82 2.846 . S
Sm80 O100 2.543 . S
Sm80 O101 2.450 . S
Sm80 O102 2.681 1_554 S
Sm80 O103 2.464 . S
Sm80 O104 2.396 1_565 S
Sm80 O108 2.386 1_565 S
Sm80 O111 2.408 . S
Sm81 C91 2.846 . S
Sm81 O102 2.386 1_545 S
Sm81 O105 2.408 . S
Sm81 O106 2.543 . S
Sm81 O107 2.450 . S
Sm81 O108 2.681 1_556 S
Sm81 O109 2.464 . S
Sm81 O110 2.396 1_545 S
C82 Sm80 2.846 . S
C82 C83 1.506 . S
C82 O100 1.261 . S
C82 O101 1.242 . S
C83 C82 1.506 . S
C83 C84 1.358 . S
C83 C88 1.382 . S
C84 C83 1.358 . S
C84 C85 1.385 . S
C84 H112 0.930 1_565 S
C85 C84 1.385 . S
C85 C86 1.395 . S
C85 H113 0.929 1_565 S
C86 C85 1.395 . S
C86 C87 1.335 . S
C87 C86 1.335 . S
C87 C88 1.398 . S
C87 H114 0.930 . S
C88 C83 1.382 . S
C88 C87 1.398 . S
C88 H115 0.929 . S
C89 O102 1.271 . S
C89 O103 1.251 1_556 S
C90 O104 1.252 . S
C90 O105 1.272 1_554 S
C91 Sm81 2.846 . S
C91 C92 1.506 . S
C91 O106 1.261 . S
C91 O107 1.242 . S
C92 C91 1.506 . S
C92 C93 1.358 . S
C92 C97 1.382 . S
C93 C92 1.358 . S
C93 C94 1.385 . S
C93 H116 0.930 1_545 S
C94 C93 1.385 . S
C94 C95 1.395 . S
C94 H117 0.929 1_545 S
C95 C94 1.395 . S
C95 C96 1.335 . S
C96 C95 1.335 . S
C96 C97 1.398 . S
C96 H118 0.930 . S
C97 C92 1.382 . S
C97 C96 1.398 . S
C97 H119 0.929 . S
C98 O108 1.271 . S
C98 O109 1.251 1_554 S
C99 O110 1.252 . S
C99 O111 1.272 1_556 S
O100 Sm80 2.543 . S
O100 C82 1.261 . S
O101 Sm80 2.450 . S
O101 C82 1.242 . S
O102 Sm80 2.681 1_556 S
O102 Sm81 2.386 1_565 S
O102 C89 1.271 . S
O103 Sm80 2.464 . S
O103 C89 1.251 1_554 S
O104 Sm80 2.396 1_545 S
O104 C90 1.252 . S
O105 Sm81 2.408 . S
O105 C90 1.272 1_556 S
O106 Sm81 2.543 . S
O106 C91 1.261 . S
O107 Sm81 2.450 . S
O107 C91 1.242 . S
O108 Sm80 2.386 1_545 S
O108 Sm81 2.681 1_554 S
O108 C98 1.271 . S
O109 Sm81 2.464 . S
O109 C98 1.251 1_556 S
O110 Sm81 2.396 1_565 S
O110 C99 1.252 . S
O111 Sm80 2.408 . S
O111 C99 1.272 1_554 S
H112 C84 0.930 1_545 S
H113 C85 0.929 1_545 S
H114 C87 0.930 . S
H115 C88 0.929 . S
H116 C93 0.930 1_565 S
H117 C94 0.929 1_565 S
H118 C96 0.930 . S
H119 C97 0.929 . S
Sm120 C122 2.846 . S
Sm120 O140 2.543 . S
Sm120 O141 2.450 . S
Sm120 O142 2.681 . S
Sm120 O143 2.464 . S
Sm120 O144 2.396 . S
Sm120 O148 2.386 . S
Sm120 O151 2.408 . S
Sm121 C131 2.846 . S
Sm121 O142 2.386 . S
Sm121 O145 2.408 . S
Sm121 O146 2.543 . S
Sm121 O147 2.450 . S
Sm121 O148 2.681 . S
Sm121 O149 2.464 . S
Sm121 O150 2.396 . S
C122 Sm120 2.846 . S
C122 C123 1.506 1_554 S
C122 O140 1.261 . S
C122 O141 1.242 . S
C123 C122 1.506 1_556 S
C123 C124 1.358 . S
C123 C128 1.382 . S
C124 C123 1.358 . S
C124 C125 1.385 . S
C124 H152 0.930 . S
C125 C124 1.385 . S
C125 C126 1.395 . S
C125 H153 0.929 . S
C126 C125 1.395 . S
C126 C127 1.335 . S
C127 C126 1.335 . S
C127 C128 1.398 . S
C127 H154 0.930 . S
C128 C123 1.382 . S
C128 C127 1.398 . S
C128 H155 0.929 . S
C129 O142 1.271 . S
C129 O143 1.251 . S
C130 O144 1.252 . S
C130 O145 1.272 . S
C131 Sm121 2.846 . S
C131 C132 1.506 . S
C131 O146 1.261 . S
C131 O147 1.242 . S
C132 C131 1.506 . S
C132 C133 1.358 . S
C132 C137 1.382 . S
C133 C132 1.358 . S
C133 C134 1.385 . S
C133 H156 0.930 . S
C134 C133 1.385 . S
C134 C135 1.395 . S
C134 H157 0.929 . S
C135 C134 1.395 . S
C135 C136 1.335 . S
C136 C135 1.335 . S
C136 C137 1.398 . S
C136 H158 0.930 . S
C137 C132 1.382 . S
C137 C136 1.398 . S
C137 H159 0.929 . S
C138 O148 1.271 . S
C138 O149 1.251 . S
C139 O150 1.252 . S
C139 O151 1.272 . S
O140 Sm120 2.543 . S
O140 C122 1.261 . S
O141 Sm120 2.450 . S
O141 C122 1.242 . S
O142 Sm120 2.681 . S
O142 Sm121 2.386 . S
O142 C129 1.271 . S
O143 Sm120 2.464 . S
O143 C129 1.251 . S
O144 Sm120 2.396 . S
O144 C130 1.252 . S
O145 Sm121 2.408 . S
O145 C130 1.272 . S
O146 Sm121 2.543 . S
O146 C131 1.261 . S
O147 Sm121 2.450 . S
O147 C131 1.242 . S
O148 Sm120 2.386 . S
O148 Sm121 2.681 . S
O148 C138 1.271 . S
O149 Sm121 2.464 . S
O149 C138 1.251 . S
O150 Sm121 2.396 . S
O150 C139 1.252 . S
O151 Sm120 2.408 . S
O151 C139 1.272 . S
H152 C124 0.930 . S
H153 C125 0.929 . S
H154 C127 0.930 . S
H155 C128 0.929 . S
H156 C133 0.930 . S
H157 C134 0.929 . S
H158 C136 0.930 . S
H159 C137 0.929 . S
Sm160 C162 2.846 . S
Sm160 O180 2.543 . S
Sm160 O181 2.450 . S
Sm160 O182 2.681 . S
Sm160 O183 2.464 . S
Sm160 O184 2.396 . S
Sm160 O188 2.386 . S
Sm160 O191 2.408 . S
Sm161 C171 2.846 . S
Sm161 O182 2.386 . S
Sm161 O185 2.408 . S
Sm161 O186 2.543 . S
Sm161 O187 2.450 . S
Sm161 O188 2.681 . S
Sm161 O189 2.464 . S
Sm161 O190 2.396 . S
C162 Sm160 2.846 . S
C162 C163 1.506 . S
C162 O180 1.261 . S
C162 O181 1.242 . S
C163 C162 1.506 . S
C163 C164 1.358 . S
C163 C168 1.382 . S
C164 C163 1.358 . S
C164 C165 1.385 . S
C164 H192 0.930 . S
C165 C164 1.385 . S
C165 C166 1.395 . S
C165 H193 0.929 . S
C166 C165 1.395 . S
C166 C167 1.335 . S
C167 C166 1.335 . S
C167 C168 1.398 . S
C167 H194 0.930 . S
C168 C163 1.382 . S
C168 C167 1.398 . S
C168 H195 0.929 . S
C169 O182 1.271 . S
C169 O183 1.251 . S
C170 O184 1.252 . S
C170 O185 1.272 . S
C171 Sm161 2.846 . S
C171 C172 1.506 1_554 S
C171 O186 1.261 . S
C171 O187 1.242 . S
C172 C171 1.506 1_556 S
C172 C173 1.358 . S
C172 C177 1.382 . S
C173 C172 1.358 . S
C173 C174 1.385 . S
C173 H196 0.930 . S
C174 C173 1.385 . S
C174 C175 1.395 . S
C174 H197 0.929 . S
C175 C174 1.395 . S
C175 C176 1.335 . S
C176 C175 1.335 . S
C176 C177 1.398 . S
C176 H198 0.930 . S
C177 C172 1.382 . S
C177 C176 1.398 . S
C177 H199 0.929 1_556 S
C178 O188 1.271 . S
C178 O189 1.251 . S
C179 O190 1.252 . S
C179 O191 1.272 . S
O180 Sm160 2.543 . S
O180 C162 1.261 . S
O181 Sm160 2.450 . S
O181 C162 1.242 . S
O182 Sm160 2.681 . S
O182 Sm161 2.386 . S
O182 C169 1.271 . S
O183 Sm160 2.464 . S
O183 C169 1.251 . S
O184 Sm160 2.396 . S
O184 C170 1.252 . S
O185 Sm161 2.408 . S
O185 C170 1.272 . S
O186 Sm161 2.543 . S
O186 C171 1.261 . S
O187 Sm161 2.450 . S
O187 C171 1.242 . S
O188 Sm160 2.386 . S
O188 Sm161 2.681 . S
O188 C178 1.271 . S
O189 Sm161 2.464 . S
O189 C178 1.251 . S
O190 Sm161 2.396 . S
O190 C179 1.252 . S
O191 Sm160 2.408 . S
O191 C179 1.272 . S
H192 C164 0.930 . S
H193 C165 0.929 . S
H194 C167 0.930 . S
H195 C168 0.929 . S
H196 C173 0.930 . S
H197 C174 0.929 . S
H198 C176 0.930 . S
H199 C177 0.929 1_554 S
Sm200 C202 2.846 . S
Sm200 O220 2.543 . S
Sm200 O221 2.450 . S
Sm200 O222 2.681 . S
Sm200 O223 2.464 . S
Sm200 O224 2.396 . S
Sm200 O228 2.386 . S
Sm200 O231 2.408 . S
Sm201 C211 2.846 . S
Sm201 O222 2.386 . S
Sm201 O225 2.408 . S
Sm201 O226 2.543 . S
Sm201 O227 2.450 . S
Sm201 O228 2.681 . S
Sm201 O229 2.464 . S
Sm201 O230 2.396 . S
C202 Sm200 2.846 . S
C202 C203 1.506 . S
C202 O220 1.261 . S
C202 O221 1.242 . S
C203 C202 1.506 . S
C203 C204 1.358 . S
C203 C208 1.382 . S
C204 C203 1.358 . S
C204 C205 1.385 . S
C204 H232 0.930 . S
C205 C204 1.385 . S
C205 C206 1.395 . S
C205 H233 0.929 . S
C206 C205 1.395 . S
C206 C207 1.335 . S
C207 C206 1.335 . S
C207 C208 1.398 . S
C207 H234 0.930 . S
C208 C203 1.382 . S
C208 C207 1.398 . S
C208 H235 0.929 . S
C209 O222 1.271 . S
C209 O223 1.251 . S
C210 O224 1.252 . S
C210 O225 1.272 . S
C211 Sm201 2.846 . S
C211 C212 1.506 1_556 S
C211 O226 1.261 . S
C211 O227 1.242 . S
C212 C211 1.506 1_554 S
C212 C213 1.358 . S
C212 C217 1.382 . S
C213 C212 1.358 . S
C213 C214 1.385 . S
C213 H236 0.930 . S
C214 C213 1.385 . S
C214 C215 1.395 . S
C214 H237 0.929 . S
C215 C214 1.395 . S
C215 C216 1.335 . S
C216 C215 1.335 . S
C216 C217 1.398 . S
C216 H238 0.930 . S
C217 C212 1.382 . S
C217 C216 1.398 . S
C217 H239 0.929 . S
C218 O228 1.271 . S
C218 O229 1.251 . S
C219 O230 1.252 . S
C219 O231 1.272 . S
O220 Sm200 2.543 . S
O220 C202 1.261 . S
O221 Sm200 2.450 . S
O221 C202 1.242 . S
O222 Sm200 2.681 . S
O222 Sm201 2.386 . S
O222 C209 1.271 . S
O223 Sm200 2.464 . S
O223 C209 1.251 . S
O224 Sm200 2.396 . S
O224 C210 1.252 . S
O225 Sm201 2.408 . S
O225 C210 1.272 . S
O226 Sm201 2.543 . S
O226 C211 1.261 . S
O227 Sm201 2.450 . S
O227 C211 1.242 . S
O228 Sm200 2.386 . S
O228 Sm201 2.681 . S
O228 C218 1.271 . S
O229 Sm201 2.464 . S
O229 C218 1.251 . S
O230 Sm201 2.396 . S
O230 C219 1.252 . S
O231 Sm200 2.408 . S
O231 C219 1.272 . S
H232 C204 0.930 . S
H233 C205 0.929 . S
H234 C207 0.930 . S
H235 C208 0.929 . S
H236 C213 0.930 . S
H237 C214 0.929 . S
H238 C216 0.930 . S
H239 C217 0.929 . S
Sm240 C242 2.846 . S
Sm240 O260 2.543 . S
Sm240 O261 2.450 . S
Sm240 O262 2.681 1_556 S
Sm240 O263 2.464 . S
Sm240 O264 2.396 . S
Sm240 O268 2.386 . S
Sm240 O271 2.408 1_556 S
Sm241 C251 2.846 . S
Sm241 O262 2.386 . S
Sm241 O265 2.408 1_554 S
Sm241 O266 2.543 . S
Sm241 O267 2.450 . S
Sm241 O268 2.681 1_554 S
Sm241 O269 2.464 . S
Sm241 O270 2.396 . S
C242 Sm240 2.846 . S
C242 C243 1.506 . S
C242 O260 1.261 . S
C242 O261 1.242 . S
C243 C242 1.506 . S
C243 C244 1.358 . S
C243 C248 1.382 . S
C244 C243 1.358 . S
C244 C245 1.385 . S
C244 H272 0.930 . S
C245 C244 1.385 . S
C245 C246 1.395 . S
C245 H273 0.929 . S
C246 C245 1.395 . S
C246 C247 1.335 . S
C247 C246 1.335 . S
C247 C248 1.398 . S
C247 H274 0.930 . S
C248 C243 1.382 . S
C248 C247 1.398 . S
C248 H275 0.929 . S
C249 O262 1.271 . S
C249 O263 1.251 1_554 S
C250 O264 1.252 . S
C250 O265 1.272 . S
C251 Sm241 2.846 . S
C251 C252 1.506 . S
C251 O266 1.261 . S
C251 O267 1.242 . S
C252 C251 1.506 . S
C252 C253 1.358 . S
C252 C257 1.382 . S
C253 C252 1.358 . S
C253 C254 1.385 . S
C253 H276 0.930 . S
C254 C253 1.385 . S
C254 C255 1.395 . S
C254 H277 0.929 . S
C255 C254 1.395 . S
C255 C256 1.335 . S
C256 C255 1.335 . S
C256 C257 1.398 . S
C256 H278 0.930 . S
C257 C252 1.382 . S
C257 C256 1.398 . S
C257 H279 0.929 . S
C258 O268 1.271 . S
C258 O269 1.251 1_556 S
C259 O270 1.252 . S
C259 O271 1.272 . S
O260 Sm240 2.543 . S
O260 C242 1.261 . S
O261 Sm240 2.450 . S
O261 C242 1.242 . S
O262 Sm240 2.681 1_554 S
O262 Sm241 2.386 . S
O262 C249 1.271 . S
O263 Sm240 2.464 . S
O263 C249 1.251 1_556 S
O264 Sm240 2.396 . S
O264 C250 1.252 . S
O265 Sm241 2.408 1_556 S
O265 C250 1.272 . S
O266 Sm241 2.543 . S
O266 C251 1.261 . S
O267 Sm241 2.450 . S
O267 C251 1.242 . S
O268 Sm240 2.386 . S
O268 Sm241 2.681 1_556 S
O268 C258 1.271 . S
O269 Sm241 2.464 . S
O269 C258 1.251 1_554 S
O270 Sm241 2.396 . S
O270 C259 1.252 . S
O271 Sm240 2.408 1_554 S
O271 C259 1.272 . S
H272 C244 0.930 . S
H273 C245 0.929 . S
H274 C247 0.930 . S
H275 C248 0.929 . S
H276 C253 0.930 . S
H277 C254 0.929 . S
H278 C256 0.930 . S
H279 C257 0.929 . S
Sm280 C282 2.846 1_455 S
Sm280 O300 2.543 . S
Sm280 O301 2.450 1_455 S
Sm280 O302 2.681 1_455 S
Sm280 O303 2.464 1_455 S
Sm280 O304 2.396 1_455 S
Sm280 O308 2.386 . S
Sm280 O311 2.408 . S
Sm281 C291 2.846 1_655 S
Sm281 O302 2.386 . S
Sm281 O305 2.408 . S
Sm281 O306 2.543 . S
Sm281 O307 2.450 1_655 S
Sm281 O308 2.681 1_655 S
Sm281 O309 2.464 1_655 S
Sm281 O310 2.396 1_655 S
C282 Sm280 2.846 1_655 S
C282 C283 1.506 . S
C282 O300 1.261 1_655 S
C282 O301 1.242 . S
C283 C282 1.506 . S
C283 C284 1.358 . S
C283 C288 1.382 . S
C284 C283 1.358 . S
C284 C285 1.385 . S
C284 H312 0.930 1_655 S
C285 C284 1.385 . S
C285 C286 1.395 . S
C285 H313 0.929 . S
C286 C285 1.395 . S
C286 C287 1.335 . S
C287 C286 1.335 . S
C287 C288 1.398 . S
C287 H314 0.930 . S
C288 C283 1.382 . S
C288 C287 1.398 . S
C288 H315 0.929 . S
C289 O302 1.271 . S
C289 O303 1.251 . S
C290 O304 1.252 . S
C290 O305 1.272 . S
C291 Sm281 2.846 1_455 S
C291 C292 1.506 . S
C291 O306 1.261 1_455 S
C291 O307 1.242 . S
C292 C291 1.506 . S
C292 C293 1.358 . S
C292 C297 1.382 . S
C293 C292 1.358 . S
C293 C294 1.385 . S
C293 H316 0.930 1_455 S
C294 C293 1.385 . S
C294 C295 1.395 . S
C294 H317 0.929 . S
C295 C294 1.395 . S
C295 C296 1.335 . S
C296 C295 1.335 . S
C296 C297 1.398 . S
C296 H318 0.930 . S
C297 C292 1.382 . S
C297 C296 1.398 . S
C297 H319 0.929 . S
C298 O308 1.271 . S
C298 O309 1.251 . S
C299 O310 1.252 . S
C299 O311 1.272 . S
O300 Sm280 2.543 . S
O300 C282 1.261 1_455 S
O301 Sm280 2.450 1_655 S
O301 C282 1.242 . S
O302 Sm280 2.681 1_655 S
O302 Sm281 2.386 . S
O302 C289 1.271 . S
O303 Sm280 2.464 1_655 S
O303 C289 1.251 . S
O304 Sm280 2.396 1_655 S
O304 C290 1.252 . S
O305 Sm281 2.408 . S
O305 C290 1.272 . S
O306 Sm281 2.543 . S
O306 C291 1.261 1_655 S
O307 Sm281 2.450 1_455 S
O307 C291 1.242 . S
O308 Sm280 2.386 . S
O308 Sm281 2.681 1_455 S
O308 C298 1.271 . S
O309 Sm281 2.464 1_455 S
O309 C298 1.251 . S
O310 Sm281 2.396 1_455 S
O310 C299 1.252 . S
O311 Sm280 2.408 . S
O311 C299 1.272 . S
H312 C284 0.930 1_455 S
H313 C285 0.929 . S
H314 C287 0.930 . S
H315 C288 0.929 . S
H316 C293 0.930 1_655 S
H317 C294 0.929 . S
H318 C296 0.930 . S
H319 C297 0.929 . S
C320 C321 1.387 . S
C320 H324 0.950 . S
C320 C329 1.390 . S
C321 C320 1.387 . S
C321 C323 1.387 . S
H322 C329 0.950 . S
C323 C321 1.387 . S
C323 C325 1.390 . S
C323 H327 0.950 . S
H324 C320 0.950 . S
C325 C323 1.390 . S
C325 C326 1.387 . S
C325 H328 0.950 . S
C326 C325 1.387 . S
C326 C329 1.387 . S
H327 C323 0.950 . S
H328 C325 0.950 . S
C329 C320 1.390 . S
C329 H322 0.950 . S
C329 C326 1.387 . S
C330 C331 1.387 . S
C330 H334 0.950 . S
C330 C339 1.390 . S
C331 C330 1.387 . S
C331 C333 1.387 . S
H332 C339 0.950 . S
C333 C331 1.387 . S
C333 C335 1.390 . S
C333 H337 0.950 . S
H334 C330 0.950 . S
C335 C333 1.390 . S
C335 C336 1.387 . S
C335 H338 0.950 . S
C336 C335 1.387 . S
C336 C339 1.387 . S
H337 C333 0.950 . S
H338 C335 0.950 . S
C339 C330 1.390 . S
C339 H332 0.950 . S
C339 C336 1.387 . S
C340 C341 1.387 . S
C340 H344 0.950 . S
C340 C349 1.390 . S
C341 C340 1.387 . S
C341 C343 1.387 . S
H342 C349 0.950 . S
C343 C341 1.387 . S
C343 C345 1.390 . S
C343 H347 0.950 . S
H344 C340 0.950 . S
C345 C343 1.390 . S
C345 C346 1.387 . S
C345 H348 0.950 . S
C346 C345 1.387 . S
C346 C349 1.387 . S
H347 C343 0.950 . S
H348 C345 0.950 . S
C349 C340 1.390 . S
C349 H342 0.950 . S
C349 C346 1.387 . S
C350 C351 1.387 . S
C350 H354 0.950 . S
C350 C359 1.390 . S
C351 C350 1.387 . S
C351 C353 1.387 . S
H352 C359 0.950 . S
C353 C351 1.387 . S
C353 C355 1.390 . S
C353 H357 0.950 . S
H354 C350 0.950 . S
C355 C353 1.390 . S
C355 C356 1.387 . S
C355 H358 0.950 . S
C356 C355 1.387 . S
C356 C359 1.387 . S
H357 C353 0.950 . S
H358 C355 0.950 . S
C359 C350 1.390 . S
C359 H352 0.950 . S
C359 C356 1.387 . S
C360 C361 1.387 . S
C360 H364 0.950 . S
C360 C369 1.390 . S
C361 C360 1.387 . S
C361 C363 1.387 . S
H362 C369 0.950 . S
C363 C361 1.387 . S
C363 C365 1.390 . S
C363 H367 0.950 . S
H364 C360 0.950 . S
C365 C363 1.390 . S
C365 C366 1.387 . S
C365 H368 0.950 . S
C366 C365 1.387 . S
C366 C369 1.387 . S
H367 C363 0.950 . S
H368 C365 0.950 . S
C369 C360 1.390 . S
C369 H362 0.950 . S
C369 C366 1.387 . S
C370 C371 1.387 . S
C370 H374 0.950 . S
C370 C379 1.390 . S
C371 C370 1.387 . S
C371 C373 1.387 . S
H372 C379 0.950 . S
C373 C371 1.387 . S
C373 C375 1.390 . S
C373 H377 0.950 . S
H374 C370 0.950 . S
C375 C373 1.390 . S
C375 C376 1.387 . S
C375 H378 0.950 . S
C376 C375 1.387 . S
C376 C379 1.387 . S
H377 C373 0.950 . S
H378 C375 0.950 . S
C379 C370 1.390 . S
C379 H372 0.950 . S
C379 C376 1.387 . S
C380 C381 1.387 . S
C380 H384 0.950 . S
C380 C389 1.390 . S
C381 C380 1.387 . S
C381 C383 1.387 . S
H382 C389 0.950 . S
C383 C381 1.387 . S
C383 C385 1.390 . S
C383 H387 0.950 . S
H384 C380 0.950 . S
C385 C383 1.390 . S
C385 C386 1.387 . S
C385 H388 0.950 . S
C386 C385 1.387 . S
C386 C389 1.387 . S
H387 C383 0.950 . S
H388 C385 0.950 . S
C389 C380 1.390 . S
C389 H382 0.950 . S
C389 C386 1.387 . S
C390 C391 1.387 . S
C390 H394 0.950 . S
C390 C399 1.390 . S
C391 C390 1.387 . S
C391 C393 1.387 . S
H392 C399 0.950 . S
C393 C391 1.387 . S
C393 C395 1.390 . S
C393 H397 0.950 . S
H394 C390 0.950 . S
C395 C393 1.390 . S
C395 C396 1.387 . S
C395 H398 0.950 . S
C396 C395 1.387 . S
C396 C399 1.387 . S
H397 C393 0.950 . S
H398 C395 0.950 . S
C399 C390 1.390 . S
C399 H392 0.950 . S
C399 C396 1.387 . S
C400 C401 1.387 . S
C400 H404 0.950 . S
C400 C409 1.390 . S
C401 C400 1.387 . S
C401 C403 1.387 . S
H402 C409 0.950 . S
C403 C401 1.387 . S
C403 C405 1.390 . S
C403 H407 0.950 . S
H404 C400 0.950 . S
C405 C403 1.390 . S
C405 C406 1.387 . S
C405 H408 0.950 . S
C406 C405 1.387 . S
C406 C409 1.387 . S
H407 C403 0.950 . S
H408 C405 0.950 . S
C409 C400 1.390 . S
C409 H402 0.950 . S
C409 C406 1.387 . S
C410 C411 1.387 . S
C410 H414 0.950 . S
C410 C419 1.390 . S
C411 C410 1.387 . S
C411 C413 1.387 . S
H412 C419 0.950 . S
C413 C411 1.387 . S
C413 C415 1.390 . S
C413 H417 0.950 . S
H414 C410 0.950 . S
C415 C413 1.390 . S
C415 C416 1.387 . S
C415 H418 0.950 . S
C416 C415 1.387 . S
C416 C419 1.387 . S
H417 C413 0.950 . S
H418 C415 0.950 . S
C419 C410 1.390 . S
C419 H412 0.950 . S
C419 C416 1.387 . S
C420 C421 1.387 . S
C420 H424 0.950 . S
C420 C429 1.390 . S
C421 C420 1.387 . S
C421 C423 1.387 . S
H422 C429 0.950 . S
C423 C421 1.387 . S
C423 C425 1.390 . S
C423 H427 0.950 . S
H424 C420 0.950 . S
C425 C423 1.390 . S
C425 C426 1.387 . S
C425 H428 0.950 . S
C426 C425 1.387 . S
C426 C429 1.387 . S
H427 C423 0.950 . S
H428 C425 0.950 . S
C429 C420 1.390 . S
C429 H422 0.950 . S
C429 C426 1.387 . S
C430 C431 1.387 . S
C430 H434 0.950 . S
C430 C439 1.390 . S
C431 C430 1.387 . S
C431 C433 1.387 . S
H432 C439 0.950 . S
C433 C431 1.387 . S
C433 C435 1.390 . S
C433 H437 0.950 . S
H434 C430 0.950 . S
C435 C433 1.390 . S
C435 C436 1.387 . S
C435 H438 0.950 . S
C436 C435 1.387 . S
C436 C439 1.387 . S
H437 C433 0.950 . S
H438 C435 0.950 . S
C439 C430 1.390 . S
C439 H432 0.950 . S
C439 C436 1.387 . S
C440 C441 1.387 . S
C440 H444 0.950 . S
C440 C449 1.390 . S
C441 C440 1.387 . S
C441 C443 1.387 . S
H442 C449 0.950 . S
C443 C441 1.387 . S
C443 C445 1.390 . S
C443 H447 0.950 . S
H444 C440 0.950 . S
C445 C443 1.390 . S
C445 C446 1.387 . S
C445 H448 0.950 . S
C446 C445 1.387 . S
C446 C449 1.387 . S
H447 C443 0.950 . S
H448 C445 0.950 . S
C449 C440 1.390 . S
C449 H442 0.950 . S
C449 C446 1.387 . S
C450 C451 1.387 . S
C450 H454 0.950 . S
C450 C459 1.390 . S
C451 C450 1.387 . S
C451 C453 1.387 . S
H452 C459 0.950 . S
C453 C451 1.387 . S
C453 C455 1.390 . S
C453 H457 0.950 . S
H454 C450 0.950 . S
C455 C453 1.390 . S
C455 C456 1.387 . S
C455 H458 0.950 . S
C456 C455 1.387 . S
C456 C459 1.387 . S
H457 C453 0.950 . S
H458 C455 0.950 . S
C459 C450 1.390 . S
C459 H452 0.950 . S
C459 C456 1.387 . S
C460 C461 1.387 . S
C460 H464 0.950 . S
C460 C469 1.390 . S
C461 C460 1.387 . S
C461 C463 1.387 . S
H462 C469 0.950 . S
C463 C461 1.387 . S
C463 C465 1.390 . S
C463 H467 0.950 . S
H464 C460 0.950 . S
C465 C463 1.390 . S
C465 C466 1.387 . S
C465 H468 0.950 . S
C466 C465 1.387 . S
C466 C469 1.387 . S
H467 C463 0.950 . S
H468 C465 0.950 . S
C469 C460 1.390 . S
C469 H462 0.950 . S
C469 C466 1.387 . S
C470 C471 1.387 . S
C470 H474 0.950 . S
C470 C479 1.390 . S
C471 C470 1.387 . S
C471 C473 1.387 . S
H472 C479 0.950 . S
C473 C471 1.387 . S
C473 C475 1.390 . S
C473 H477 0.950 . S
H474 C470 0.950 . S
C475 C473 1.390 . S
C475 C476 1.387 . S
C475 H478 0.950 . S
C476 C475 1.387 . S
C476 C479 1.387 . S
H477 C473 0.950 . S
H478 C475 0.950 . S
C479 C470 1.390 . S
C479 H472 0.950 . S
C479 C476 1.387 . S
C480 C481 1.387 1_465 S
C480 H484 0.950 . S
C480 C489 1.390 1_556 S
C481 C480 1.387 1_645 S
C481 C483 1.387 . S
H482 C489 0.950 . S
C483 C481 1.387 . S
C483 C485 1.390 1_556 S
C483 H487 0.950 . S
H484 C480 0.950 . S
C485 C483 1.390 1_554 S
C485 C486 1.387 1_645 S
C485 H488 0.950 . S
C486 C485 1.387 1_465 S
C486 C489 1.387 . S
H487 C483 0.950 . S
H488 C485 0.950 . S
C489 C480 1.390 1_554 S
C489 H482 0.950 . S
C489 C486 1.387 . S
C490 C491 1.387 . S
C490 H494 0.950 . S
C490 C499 1.390 . S
C491 C490 1.387 . S
C491 C493 1.387 . S
H492 C499 0.950 . S
C493 C491 1.387 . S
C493 C495 1.390 . S
C493 H497 0.950 . S
H494 C490 0.950 . S
C495 C493 1.390 . S
C495 C496 1.387 . S
C495 H498 0.950 . S
C496 C495 1.387 . S
C496 C499 1.387 . S
H497 C493 0.950 . S
H498 C495 0.950 . S
C499 C490 1.390 . S
C499 H492 0.950 . S
C499 C496 1.387 . S
C500 C501 1.387 . S
C500 H504 0.950 . S
C500 C509 1.382 1_545 S
C501 C500 1.387 . S
C501 C503 1.397 . S
H502 C509 0.952 . S
C503 C501 1.397 . S
C503 C505 1.378 1_545 S
C503 H507 0.953 . S
H504 C500 0.950 . S
C505 C503 1.378 1_565 S
C505 C506 1.387 . S
C505 H508 0.950 . S
C506 C505 1.387 . S
C506 C509 1.394 . S
H507 C503 0.953 . S
H508 C505 0.950 . S
C509 C500 1.382 1_565 S
C509 H502 0.952 . S
C509 C506 1.394 . S
C510 C511 1.387 . S
C510 H514 0.950 . S
C510 C519 1.390 . S
C511 C510 1.387 . S
C511 C513 1.387 . S
H512 C519 0.950 . S
C513 C511 1.387 . S
C513 C515 1.390 . S
C513 H517 0.950 . S
H514 C510 0.950 . S
C515 C513 1.390 . S
C515 C516 1.387 . S
C515 H518 0.950 . S
C516 C515 1.387 . S
C516 C519 1.387 . S
H517 C513 0.950 . S
H518 C515 0.950 . S
C519 C510 1.390 . S
C519 H512 0.950 . S
C519 C516 1.387 . S
C520 C521 1.387 . S
C520 H524 0.950 . S
C520 C529 1.390 . S
C521 C520 1.387 . S
C521 C523 1.387 . S
H522 C529 0.950 . S
C523 C521 1.387 . S
C523 C525 1.390 . S
C523 H527 0.950 . S
H524 C520 0.950 . S
C525 C523 1.390 . S
C525 C526 1.387 . S
C525 H528 0.950 . S
C526 C525 1.387 . S
C526 C529 1.387 . S
H527 C523 0.950 . S
H528 C525 0.950 . S
C529 C520 1.390 . S
C529 H522 0.950 . S
C529 C526 1.387 . S
C530 C531 1.387 . S
C530 H534 0.950 . S
C530 C539 1.390 . S
C531 C530 1.387 . S
C531 C533 1.387 . S
H532 C539 0.950 . S
C533 C531 1.387 . S
C533 C535 1.390 . S
C533 H537 0.950 . S
H534 C530 0.950 . S
C535 C533 1.390 . S
C535 C536 1.387 . S
C535 H538 0.950 . S
C536 C535 1.387 . S
C536 C539 1.387 . S
H537 C533 0.950 . S
H538 C535 0.950 . S
C539 C530 1.390 . S
C539 H532 0.950 . S
C539 C536 1.387 . S
C540 C541 1.387 . S
C540 H544 0.950 . S
C540 C549 1.390 . S
C541 C540 1.387 . S
C541 C543 1.387 . S
H542 C549 0.950 . S
C543 C541 1.387 . S
C543 C545 1.390 . S
C543 H547 0.950 . S
H544 C540 0.950 . S
C545 C543 1.390 . S
C545 C546 1.387 . S
C545 H548 0.950 . S
C546 C545 1.387 . S
C546 C549 1.387 . S
H547 C543 0.950 . S
H548 C545 0.950 . S
C549 C540 1.390 . S
C549 H542 0.950 . S
C549 C546 1.387 . S
C550 C551 1.387 1_554 S
C550 H554 0.950 . S
C550 C559 1.390 . S
C551 C550 1.387 1_556 S
C551 C553 1.387 1_655 S
H552 C559 0.950 . S
C553 C551 1.387 1_455 S
C553 C555 1.390 . S
C553 H557 0.950 . S
H554 C550 0.950 . S
C555 C553 1.390 . S
C555 C556 1.387 1_556 S
C555 H558 0.950 . S
C556 C555 1.387 1_554 S
C556 C559 1.387 1_455 S
H557 C553 0.950 . S
H558 C555 0.950 . S
C559 C550 1.390 . S
C559 H552 0.950 . S
C559 C556 1.387 1_655 S
C321 C10 1.570 . S
C326 C129 1.550 . S
C331 C9 1.046 . S
C336 C49 1.048 . S
C341 C50 1.570 . S
C346 C89 1.553 . S
C351 C90 1.980 . S
C356 C130 1.977 . S
C361 C19 1.570 . S
C366 C218 1.553 . S
C371 C18 1.047 . S
C376 C178 1.046 . S
C381 C179 1.570 . S
C386 C98 1.550 . S
C391 C219 1.980 . S
C396 C99 1.982 . S
C401 C250 1.570 . S
C406 C209 1.551 . S
C411 C169 1.045 . S
C416 C249 1.047 . S
C421 C289 1.552 . S
C426 C170 1.571 . S
C431 C210 1.980 . S
C436 C290 1.981 . S
C441 C138 1.551 . S
C446 C259 1.569 . S
C451 C258 1.047 . S
C456 C58 1.047 . S
C461 C59 1.570 . S
C466 C298 1.550 . S
C471 C139 1.979 . S
C476 C299 1.979 . S
C481 C15 1.516 . S
C486 C6 1.516 . S
C491 C55 1.517 . S
C496 C46 1.517 . S
C501 C95 1.926 . S
C506 C86 1.926 . S
C511 C126 1.924 . S
C516 C135 1.924 . S
C521 C175 1.514 . S
C526 C166 1.514 . S
C531 C206 1.924 . S
C536 C215 1.924 . S
C541 C246 1.513 . S
C546 C255 1.513 . S
C551 C286 1.926 . S
C556 C295 1.926 . S
