# Generated by pormake.
# Topology unr, (4)-cn, num edge types: 1
# Building blocks:
#     Node 0, Type 0, BuildingBlock: NAHDIM_clean_sbu_0, # of connection points: 4
#     Node 1, Type 0, BuildingBlock: NAHDIM_clean_sbu_0, # of connection points: 4
#     Node 2, Type 0, BuildingBlock: NAHDIM_clean_sbu_0, # of connection points: 4
#     Node 3, Type 0, BuildingBlock: NAHDIM_clean_sbu_0, # of connection points: 4
#     Node 4, Type 0, BuildingBlock: NAHDIM_clean_sbu_0, # of connection points: 4
#     Node 5, Type 0, BuildingBlock: NAHDIM_clean_sbu_0, # of connection points: 4
#     Node 6, Type 0, BuildingBlock: NAHDIM_clean_sbu_0, # of connection points: 4
#     Node 7, Type 0, BuildingBlock: NAHDIM_clean_sbu_0, # of connection points: 4
#     Node 8, Type 0, BuildingBlock: NAHDIM_clean_sbu_0, # of connection points: 4
#     Node 9, Type 0, BuildingBlock: NAHDIM_clean_sbu_0, # of connection points: 4
#     Node 10, Type 0, BuildingBlock: NAHDIM_clean_sbu_0, # of connection points: 4
#     Node 11, Type 0, BuildingBlock: NAHDIM_clean_sbu_0, # of connection points: 4
#     Node 12, Type 0, BuildingBlock: NAHDIM_clean_sbu_0, # of connection points: 4
#     Node 13, Type 0, BuildingBlock: NAHDIM_clean_sbu_0, # of connection points: 4
#     Node 14, Type 0, BuildingBlock: NAHDIM_clean_sbu_0, # of connection points: 4
#     Node 15, Type 0, BuildingBlock: NAHDIM_clean_sbu_0, # of connection points: 4
#     Node 16, Type 0, BuildingBlock: NAHDIM_clean_sbu_0, # of connection points: 4
#     Node 17, Type 0, BuildingBlock: NAHDIM_clean_sbu_0, # of connection points: 4
#     Node 18, Type 0, BuildingBlock: NAHDIM_clean_sbu_0, # of connection points: 4
#     Node 19, Type 0, BuildingBlock: NAHDIM_clean_sbu_0, # of connection points: 4
#     Node 20, Type 0, BuildingBlock: NAHDIM_clean_sbu_0, # of connection points: 4
#     Node 21, Type 0, BuildingBlock: NAHDIM_clean_sbu_0, # of connection points: 4
#     Node 22, Type 0, BuildingBlock: NAHDIM_clean_sbu_0, # of connection points: 4
#     Node 23, Type 0, BuildingBlock: NAHDIM_clean_sbu_0, # of connection points: 4
#     Node 24, Type 0, BuildingBlock: NAHDIM_clean_sbu_0, # of connection points: 4
#     Node 25, Type 0, BuildingBlock: NAHDIM_clean_sbu_0, # of connection points: 4
#     Node 26, Type 0, BuildingBlock: NAHDIM_clean_sbu_0, # of connection points: 4
#     Node 27, Type 0, BuildingBlock: NAHDIM_clean_sbu_0, # of connection points: 4
#     Node 28, Type 0, BuildingBlock: NAHDIM_clean_sbu_0, # of connection points: 4
#     Node 29, Type 0, BuildingBlock: NAHDIM_clean_sbu_0, # of connection points: 4
#     Node 30, Type 0, BuildingBlock: NAHDIM_clean_sbu_0, # of connection points: 4
#     Node 31, Type 0, BuildingBlock: NAHDIM_clean_sbu_0, # of connection points: 4
#     Node 32, Type 0, BuildingBlock: NAHDIM_clean_sbu_0, # of connection points: 4
#     Node 33, Type 0, BuildingBlock: NAHDIM_clean_sbu_0, # of connection points: 4
#     Node 34, Type 0, BuildingBlock: NAHDIM_clean_sbu_0, # of connection points: 4
#     Node 35, Type 0, BuildingBlock: NAHDIM_clean_sbu_0, # of connection points: 4
#     Edge 36, Type (0, 0), BuildingBlock: OJICUG_clean_linker_0, # of connection points: 2
#     Edge 37, Type (0, 0), BuildingBlock: OJICUG_clean_linker_0, # of connection points: 2
#     Edge 38, Type (0, 0), BuildingBlock: OJICUG_clean_linker_0, # of connection points: 2
#     Edge 39, Type (0, 0), BuildingBlock: OJICUG_clean_linker_0, # of connection points: 2
#     Edge 40, Type (0, 0), BuildingBlock: OJICUG_clean_linker_0, # of connection points: 2
#     Edge 41, Type (0, 0), BuildingBlock: OJICUG_clean_linker_0, # of connection points: 2
#     Edge 42, Type (0, 0), BuildingBlock: OJICUG_clean_linker_0, # of connection points: 2
#     Edge 43, Type (0, 0), BuildingBlock: OJICUG_clean_linker_0, # of connection points: 2
#     Edge 44, Type (0, 0), BuildingBlock: OJICUG_clean_linker_0, # of connection points: 2
#     Edge 45, Type (0, 0), BuildingBlock: OJICUG_clean_linker_0, # of connection points: 2
#     Edge 46, Type (0, 0), BuildingBlock: OJICUG_clean_linker_0, # of connection points: 2
#     Edge 47, Type (0, 0), BuildingBlock: OJICUG_clean_linker_0, # of connection points: 2
#     Edge 48, Type (0, 0), BuildingBlock: OJICUG_clean_linker_0, # of connection points: 2
#     Edge 49, Type (0, 0), BuildingBlock: OJICUG_clean_linker_0, # of connection points: 2
#     Edge 50, Type (0, 0), BuildingBlock: OJICUG_clean_linker_0, # of connection points: 2
#     Edge 51, Type (0, 0), BuildingBlock: OJICUG_clean_linker_0, # of connection points: 2
#     Edge 52, Type (0, 0), BuildingBlock: OJICUG_clean_linker_0, # of connection points: 2
#     Edge 53, Type (0, 0), BuildingBlock: OJICUG_clean_linker_0, # of connection points: 2
#     Edge 54, Type (0, 0), BuildingBlock: OJICUG_clean_linker_0, # of connection points: 2
#     Edge 55, Type (0, 0), BuildingBlock: OJICUG_clean_linker_0, # of connection points: 2
#     Edge 56, Type (0, 0), BuildingBlock: OJICUG_clean_linker_0, # of connection points: 2
#     Edge 57, Type (0, 0), BuildingBlock: OJICUG_clean_linker_0, # of connection points: 2
#     Edge 58, Type (0, 0), BuildingBlock: OJICUG_clean_linker_0, # of connection points: 2
#     Edge 59, Type (0, 0), BuildingBlock: OJICUG_clean_linker_0, # of connection points: 2
#     Edge 60, Type (0, 0), BuildingBlock: OJICUG_clean_linker_0, # of connection points: 2
#     Edge 61, Type (0, 0), BuildingBlock: OJICUG_clean_linker_0, # of connection points: 2
#     Edge 62, Type (0, 0), BuildingBlock: OJICUG_clean_linker_0, # of connection points: 2
#     Edge 63, Type (0, 0), BuildingBlock: OJICUG_clean_linker_0, # of connection points: 2
#     Edge 64, Type (0, 0), BuildingBlock: OJICUG_clean_linker_0, # of connection points: 2
#     Edge 65, Type (0, 0), BuildingBlock: OJICUG_clean_linker_0, # of connection points: 2
#     Edge 66, Type (0, 0), BuildingBlock: OJICUG_clean_linker_0, # of connection points: 2
#     Edge 67, Type (0, 0), BuildingBlock: OJICUG_clean_linker_0, # of connection points: 2
#     Edge 68, Type (0, 0), BuildingBlock: OJICUG_clean_linker_0, # of connection points: 2
#     Edge 69, Type (0, 0), BuildingBlock: OJICUG_clean_linker_0, # of connection points: 2
#     Edge 70, Type (0, 0), BuildingBlock: OJICUG_clean_linker_0, # of connection points: 2
#     Edge 71, Type (0, 0), BuildingBlock: OJICUG_clean_linker_0, # of connection points: 2
#     Edge 72, Type (0, 0), BuildingBlock: OJICUG_clean_linker_0, # of connection points: 2
#     Edge 73, Type (0, 0), BuildingBlock: OJICUG_clean_linker_0, # of connection points: 2
#     Edge 74, Type (0, 0), BuildingBlock: OJICUG_clean_linker_0, # of connection points: 2
#     Edge 75, Type (0, 0), BuildingBlock: OJICUG_clean_linker_0, # of connection points: 2
#     Edge 76, Type (0, 0), BuildingBlock: OJICUG_clean_linker_0, # of connection points: 2
#     Edge 77, Type (0, 0), BuildingBlock: OJICUG_clean_linker_0, # of connection points: 2
#     Edge 78, Type (0, 0), BuildingBlock: OJICUG_clean_linker_0, # of connection points: 2
#     Edge 79, Type (0, 0), BuildingBlock: OJICUG_clean_linker_0, # of connection points: 2
#     Edge 80, Type (0, 0), BuildingBlock: OJICUG_clean_linker_0, # of connection points: 2
#     Edge 81, Type (0, 0), BuildingBlock: OJICUG_clean_linker_0, # of connection points: 2
#     Edge 82, Type (0, 0), BuildingBlock: OJICUG_clean_linker_0, # of connection points: 2
#     Edge 83, Type (0, 0), BuildingBlock: OJICUG_clean_linker_0, # of connection points: 2
#     Edge 84, Type (0, 0), BuildingBlock: OJICUG_clean_linker_0, # of connection points: 2
#     Edge 85, Type (0, 0), BuildingBlock: OJICUG_clean_linker_0, # of connection points: 2
#     Edge 86, Type (0, 0), BuildingBlock: OJICUG_clean_linker_0, # of connection points: 2
#     Edge 87, Type (0, 0), BuildingBlock: OJICUG_clean_linker_0, # of connection points: 2
#     Edge 88, Type (0, 0), BuildingBlock: OJICUG_clean_linker_0, # of connection points: 2
#     Edge 89, Type (0, 0), BuildingBlock: OJICUG_clean_linker_0, # of connection points: 2
#     Edge 90, Type (0, 0), BuildingBlock: OJICUG_clean_linker_0, # of connection points: 2
#     Edge 91, Type (0, 0), BuildingBlock: OJICUG_clean_linker_0, # of connection points: 2
#     Edge 92, Type (0, 0), BuildingBlock: OJICUG_clean_linker_0, # of connection points: 2
#     Edge 93, Type (0, 0), BuildingBlock: OJICUG_clean_linker_0, # of connection points: 2
#     Edge 94, Type (0, 0), BuildingBlock: OJICUG_clean_linker_0, # of connection points: 2
#     Edge 95, Type (0, 0), BuildingBlock: OJICUG_clean_linker_0, # of connection points: 2
#     Edge 96, Type (0, 0), BuildingBlock: OJICUG_clean_linker_0, # of connection points: 2
#     Edge 97, Type (0, 0), BuildingBlock: OJICUG_clean_linker_0, # of connection points: 2
#     Edge 98, Type (0, 0), BuildingBlock: OJICUG_clean_linker_0, # of connection points: 2
#     Edge 99, Type (0, 0), BuildingBlock: OJICUG_clean_linker_0, # of connection points: 2
#     Edge 100, Type (0, 0), BuildingBlock: OJICUG_clean_linker_0, # of connection points: 2
#     Edge 101, Type (0, 0), BuildingBlock: OJICUG_clean_linker_0, # of connection points: 2
#     Edge 102, Type (0, 0), BuildingBlock: OJICUG_clean_linker_0, # of connection points: 2
#     Edge 103, Type (0, 0), BuildingBlock: OJICUG_clean_linker_0, # of connection points: 2
#     Edge 104, Type (0, 0), BuildingBlock: OJICUG_clean_linker_0, # of connection points: 2
#     Edge 105, Type (0, 0), BuildingBlock: OJICUG_clean_linker_0, # of connection points: 2
#     Edge 106, Type (0, 0), BuildingBlock: OJICUG_clean_linker_0, # of connection points: 2
#     Edge 107, Type (0, 0), BuildingBlock: OJICUG_clean_linker_0, # of connection points: 2
# Relax obj value: 0.414
# Max RMSD: 0.254
# Mean RMSD: 0.249
data_MOF--net-unr--node1-NAHDIM_clean_sbu_0--edge1-OJICUG_clean_linker_0
_symmetry_space_group_name_H-M    P1
_symmetry_Int_Tables_number       1
_symmetry_cell_setting            triclinic
loop_
_symmetry_equiv_pos_as_xyz
'x, y, z'
_cell_length_a     35.253003
_cell_length_b     35.270764
_cell_length_c     85.482524
_cell_angle_alpha  89.275612
_cell_angle_beta   90.472024
_cell_angle_gamma 120.10833
loop_
_atom_site_label
_atom_site_type_symbol
_atom_site_fract_x
_atom_site_fract_y
_atom_site_fract_z
_atom_type_partial_charge
C0 C 0.30393 0.21022 0.19504 0.0
O1 O 0.29765 0.18604 0.20763 0.0
O2 O 0.18695 0.11663 0.18894 0.0
Zn3 Zn 0.21346 0.17548 0.19912 0.0
O4 O 0.21664 0.16774 0.22221 0.0
C5 C 0.14947 0.18834 0.18323 0.0
O6 O 0.15991 0.17123 0.17162 0.0
O7 O 0.27221 0.21371 0.18959 0.0
C8 C 0.22187 0.19853 0.23111 0.0
O9 O 0.22805 0.23541 0.22483 0.0
C10 C 0.19607 0.08717 0.19274 0.0
O11 O 0.22463 0.09481 0.20396 0.0
O12 O 0.17159 0.19741 0.19579 0.0
C13 C 0.86913 0.13121 0.16418 0.0
O14 O 0.90218 0.1579 0.17307 0.0
O15 O 0.94297 0.10982 0.18147 0.0
Zn16 Zn 0.87781 0.07339 0.1844 0.0
O17 O 0.86171 0.08307 0.20596 0.0
C18 C 0.88596 0.00153 0.17379 0.0
O19 O 0.90958 0.03052 0.16299 0.0
O20 O 0.8498 0.09028 0.16712 0.0
C21 C 0.83015 0.05132 0.21318 0.0
O22 O 0.80615 0.01423 0.2058 0.0
C23 C 0.96995 0.14058 0.19019 0.0
O24 O 0.9556 0.15123 0.20257 0.0
O25 O 0.86509 0.0111 0.18352 0.0
C26 C 0.93344 0.7651 0.17338 0.0
O27 O 0.90949 0.77332 0.18292 0.0
O28 O 0.96396 0.87209 0.18318 0.0
Zn29 Zn -0.00307 0.84041 0.18823 0.0
O30 O -0.00922 0.82262 0.21099 0.0
C31 C 0.0702 0.91362 0.17413 0.0
O32 O 0.0401 0.90856 0.16386 0.0
O33 O 0.97488 0.7893 0.17384 0.0
C34 C 0.01095 0.85406 0.22049 0.0
O35 O 0.03164 0.89438 0.21494 0.0
C36 C 0.93313 0.87208 0.19077 0.0
O37 O 0.91898 0.84895 0.20376 0.0
O38 O 0.06031 0.88457 0.18471 0.0
C39 C 0.24188 0.28049 0.33255 0.0
O40 O 0.25212 0.27638 0.31819 0.0
O41 O 0.12052 0.16336 0.33284 0.0
Zn42 Zn 0.18507 0.1888 0.3294 0.0
O43 O 0.1959 0.19808 0.3063 0.0
C44 C 0.17528 0.11487 0.34604 0.0
O45 O 0.1509 0.124 0.35503 0.0
O46 O 0.21661 0.2463 0.34044 0.0
C47 C 0.19066 0.16723 0.29742 0.0
O48 O 0.17677 0.12797 0.30341 0.0
C49 C 0.09825 0.17792 0.32598 0.0
O50 O 0.118 0.21156 0.31635 0.0
O51 O 0.20028 0.1435 0.33614 0.0
C52 C 0.75335 0.96322 0.32519 0.0
O53 O 0.75434 0.93655 0.31483 0.0
O54 O 0.8465 0.9665 0.31287 0.0
Zn55 Zn 0.83267 0.01525 0.31024 0.0
O56 O 0.81604 0.01793 0.28779 0.0
C57 C 0.9106 0.06885 0.32718 0.0
O58 O 0.89281 0.0341 0.33639 0.0
O59 O 0.78415 0.00289 0.32526 0.0
C60 C 0.83112 0.05426 0.28048 0.0
O61 O 0.85584 0.0909 0.28801 0.0
C62 C 0.83676 0.93533 0.30344 0.0
O63 O 0.81545 0.93297 0.29047 0.0
O64 O 0.88889 0.07012 0.31546 0.0
C65 C 0.0609 0.81711 0.32845 0.0
O66 O 0.08432 0.84443 0.31721 0.0
O67 O 0.05501 0.91265 0.32883 0.0
Zn68 Zn 0.01243 0.85466 0.31928 0.0
O69 O 0.02417 0.85768 0.2961 0.0
C70 C 0.92442 0.83662 0.31164 0.0
O71 O 0.92871 0.81717 0.29935 0.0
O72 O 0.02261 0.81065 0.33094 0.0
C73 C 0.01157 0.82491 0.28718 0.0
O74 O -0.00851 0.78518 0.29326 0.0
C75 C 0.09296 0.93971 0.32365 0.0
O76 O 0.1067 0.93102 0.31068 0.0
O77 O 0.95341 0.84962 0.32236 0.0
C78 C 0.73439 0.8269 0.82395 0.0
O79 O 0.75265 0.84617 0.81063 0.0
O80 O 0.80364 0.79317 0.80431 0.0
Zn81 Zn 0.81229 0.82592 0.82432 0.0
O82 O 0.84669 0.88928 0.8184 0.0
C83 C 0.86532 0.79119 0.83687 0.0
O84 O 0.84207 0.75794 0.82758 0.0
O85 O 0.75445 0.81358 0.83287 0.0
C86 C 0.86368 0.91822 0.82892 0.0
O87 O 0.85552 0.90621 0.84369 0.0
C88 C 0.83743 0.80013 0.79672 0.0
O89 O 0.87649 0.82643 0.80258 0.0
O90 O 0.85223 0.81819 0.83937 0.0
C91 C 0.13894 0.84202 0.80704 0.0
O92 O 0.10626 0.83737 0.79817 0.0
O93 O 0.1328 0.93518 0.79222 0.0
Zn94 Zn 0.13118 0.91377 0.81435 0.0
O95 O 0.06811 0.87667 0.82102 0.0
C96 C 0.19301 0.00125 0.81909 0.0
O97 O 0.2132 -0.00824 0.80829 0.0
O98 O 0.15856 0.8758 0.81557 0.0
C99 C 0.05245 0.88031 0.83389 0.0
O100 O 0.07805 0.91086 0.84378 0.0
C101 C 0.11608 0.95952 0.79007 0.0
O102 O 0.09498 0.96485 0.80166 0.0
O103 O 0.16187 0.9697 0.82656 0.0
C104 C 0.14416 0.24519 0.83304 0.0
O105 O 0.17547 0.24349 0.82543 0.0
O106 O 0.07713 0.18304 0.79412 0.0
Zn107 Zn 0.08805 0.1671 0.8158 0.0
O108 O 0.13163 0.14606 0.81761 0.0
C109 C 0.0092 0.08715 0.81234 0.0
O110 O 0.02499 0.093 0.79809 0.0
O111 O 0.10446 0.21627 0.83057 0.0
C112 C 0.14166 0.12806 0.80689 0.0
O113 O 0.12545 0.1249 0.79277 0.0
C114 C 0.10168 0.19846 0.7822 0.0
O115 O 0.14299 0.20885 0.78312 0.0
O116 O 0.03074 0.11586 0.82262 0.0
C117 C 0.78331 0.71257 0.69166 0.0
O118 O 0.76937 0.70775 0.70615 0.0
O119 O 0.81826 0.78359 0.72329 0.0
Zn120 Zn 0.83497 0.80243 0.70078 0.0
O121 O 0.90051 0.83214 0.69851 0.0
C122 C 0.82609 0.87607 0.70593 0.0
O123 O 0.83211 0.86622 0.72025 0.0
O124 O 0.80903 0.75084 0.68636 0.0
C125 C 0.92659 0.8522 0.70971 0.0
O126 O 0.91084 0.85252 0.72354 0.0
C127 C 0.83512 0.76548 0.73148 0.0
O128 O 0.86245 0.75542 0.72491 0.0
O129 O 0.82162 0.85014 0.69494 0.0
C130 C 0.24517 0.12212 0.6835 0.0
O131 O 0.24389 0.15492 0.69008 0.0
O132 O 0.17683 0.06545 0.72339 0.0
Zn133 Zn 0.16597 0.07227 0.70063 0.0
O134 O 0.15053 0.11934 0.69719 0.0
C135 C 0.10737 0.98031 0.70183 0.0
O136 O 0.13871 0.98195 0.71072 0.0
O137 O 0.21575 0.08311 0.6868 0.0
C138 C 0.1361 0.12187 0.68376 0.0
O139 O 0.13359 0.09502 0.67276 0.0
C140 C 0.14595 0.05866 0.73267 0.0
O141 O 0.11363 0.06368 0.72738 0.0
O142 O 0.11294 0.01506 0.6951 0.0
C143 C 0.86668 0.15443 0.70477 0.0
O144 O 0.86424 0.13009 0.71691 0.0
O145 O 0.97686 0.17456 0.72159 0.0
Zn146 Zn 0.94302 0.14992 0.70145 0.0
O147 O 0.90789 0.08467 0.70447 0.0
C148 C 0.02519 0.19445 0.68543 0.0
O149 O 0.03228 0.22635 0.69494 0.0
O150 O 0.90058 0.17034 0.69616 0.0
C151 C 0.8886 0.0583 0.6933 0.0
O152 O 0.89148 0.07387 0.67905 0.0
C153 C 0.00588 0.16397 0.72446 0.0
O154 O 0.0106 0.13816 0.71469 0.0
O155 O -0.01339 0.16175 0.6844 0.0
C156 C 0.91313 0.39455 0.52991 0.0
O157 O 0.90798 0.36017 0.53786 0.0
O158 O 0.82308 0.31659 0.54855 0.0
Zn159 Zn 0.84335 0.38074 0.54963 0.0
O160 O 0.8604 0.40402 0.57151 0.0
C161 C 0.75756 0.36282 0.55313 0.0
O162 O 0.76314 0.34409 0.56564 0.0
O163 O 0.89032 0.41186 0.53351 0.0
C164 C 0.86149 0.43974 0.57457 0.0
O165 O 0.8571 0.46218 0.56301 0.0
C166 C 0.82288 0.29138 0.55931 0.0
O167 O 0.83845 0.3074 0.5732 0.0
O168 O 0.78965 0.38379 0.54386 0.0
C169 C 0.51944 0.37244 0.50132 0.0
O170 O 0.54027 0.38321 0.51479 0.0
O171 O 0.57564 0.32924 0.52092 0.0
Zn172 Zn 0.51735 0.29426 0.50989 0.0
O173 O 0.47115 0.26574 0.52667 0.0
C174 C 0.56238 0.25589 0.49748 0.0
O175 O 0.59255 0.29617 0.49379 0.0
O176 O 0.50567 0.33407 0.49612 0.0
C177 C 0.45317 0.22496 0.5298 0.0
O178 O 0.46054 0.19974 0.52066 0.0
C179 C 0.58261 0.31312 0.53325 0.0
O180 O 0.55063 0.2764 0.53907 0.0
O181 O 0.52302 0.24758 0.49867 0.0
C182 C 0.52063 0.00827 0.54999 0.0
O183 O 0.50266 0.02924 0.55632 0.0
O184 O 0.57892 0.12255 0.54674 0.0
Zn185 Zn 0.59254 0.08381 0.56057 0.0
O186 O 0.5724 0.0796 0.58272 0.0
C187 C 0.6831 0.11978 0.55038 0.0
O188 O 0.66615 0.10726 0.53635 0.0
O189 O 0.56196 0.02489 0.55081 0.0
C190 C 0.58937 0.11459 0.59064 0.0
O191 O 0.61487 0.15212 0.5835 0.0
C192 C 0.60695 0.16158 0.54272 0.0
O193 O 0.64632 0.18039 0.54896 0.0
O194 O 0.65753 0.1095 0.562 0.0
C195 C 0.76956 0.56517 0.65843 0.0
O196 O 0.76498 0.56195 0.64316 0.0
O197 O 0.69715 0.45264 0.64682 0.0
Zn198 Zn 0.75785 0.47948 0.65573 0.0
O199 O 0.8003 0.48915 0.63826 0.0
C200 C 0.71974 0.41436 0.67953 0.0
O201 O 0.68979 0.42602 0.67838 0.0
O202 O 0.76988 0.53449 0.66625 0.0
C203 C 0.8149 0.46303 0.63644 0.0
O204 O 0.80536 0.43201 0.64693 0.0
C205 C 0.68608 0.43448 0.63355 0.0
O206 O 0.71639 0.43634 0.62422 0.0
O207 O 0.7547 0.43507 0.67152 0.0
C208 C 0.37684 0.15351 0.63753 0.0
O209 O 0.37483 0.12066 0.62975 0.0
O210 O 0.48756 0.16798 0.63674 0.0
Zn211 Zn 0.4605 0.19596 0.62362 0.0
O212 O 0.44111 0.17316 0.60193 0.0
C213 C 0.51155 0.29013 0.62902 0.0
O214 O 0.48202 0.28298 0.63969 0.0
O215 O 0.41064 0.1912 0.63615 0.0
C216 C 0.42236 0.1917 0.59513 0.0
O217 O 0.41358 0.21757 0.60337 0.0
C218 C 0.47502 0.1278 0.63916 0.0
O219 O 0.44213 0.09767 0.63104 0.0
O220 O 0.50757 0.2584 0.62095 0.0
C221 C 0.71311 0.16247 0.68584 0.0
O222 O 0.71338 0.18376 0.67308 0.0
O223 O 0.63887 0.21115 0.69384 0.0
Zn224 Zn 0.62627 0.14998 0.6888 0.0
O225 O 0.61742 0.14421 0.66548 0.0
C226 C 0.53358 0.08178 0.69575 0.0
O227 O 0.50432 0.04888 0.70422 0.0
O228 O 0.67894 0.14462 0.69434 0.0
C229 C 0.60134 0.10882 0.65783 0.0
O230 O 0.59016 0.07184 0.66524 0.0
C231 C 0.67545 0.24116 0.69911 0.0
O232 O 0.70548 0.23147 0.70336 0.0
O233 O 0.57324 0.10255 0.70044 0.0
C234 C 0.44417 0.24415 0.15325 0.0
O235 O 0.45121 0.26773 0.14044 0.0
O236 O 0.47614 0.18956 0.12024 0.0
Zn237 Zn 0.50632 0.22754 0.1389 0.0
O238 O 0.53957 0.2892 0.13087 0.0
C239 C 0.55177 0.1792 0.14601 0.0
O240 O 0.51684 0.14506 0.14025 0.0
O241 O 0.46403 0.22275 0.15519 0.0
C242 C 0.5621 0.32112 0.13992 0.0
O243 O 0.56193 0.3137 0.15503 0.0
C244 C 0.50031 0.18534 0.11027 0.0
O245 O 0.5428 0.20477 0.11271 0.0
O246 O 0.55175 0.21491 0.14769 0.0
C247 C 0.81072 0.20571 0.1159 0.0
O248 O 0.77134 0.18185 0.10989 0.0
O249 O 0.79125 0.2816 0.08391 0.0
Zn250 Zn 0.79374 0.27346 0.10723 0.0
O251 O 0.7329 0.235 0.11554 0.0
C252 C 0.84124 0.36759 0.10881 0.0
O253 O 0.85816 0.36401 0.09565 0.0
O254 O 0.82962 0.24723 0.11468 0.0
C255 C 0.727 0.233 0.13024 0.0
O256 O 0.76075 0.25579 0.13948 0.0
C257 C 0.76522 0.29561 0.08044 0.0
O258 O 0.74171 0.29882 0.09165 0.0
O259 O 0.81553 0.33308 0.11648 0.0
C260 C 0.84866 0.63337 0.12592 0.0
O261 O 0.8714 0.62202 0.11699 0.0
O262 O 0.75678 0.57659 0.09009 0.0
Zn263 Zn 0.77518 0.5617 0.11065 0.0
O264 O 0.81031 0.53164 0.10769 0.0
C265 C 0.69371 0.48435 0.11289 0.0
O266 O 0.70271 0.48441 0.09801 0.0
O267 O 0.80714 0.61317 0.12473 0.0
C268 C 0.81497 0.51258 0.11965 0.0
O269 O 0.80006 0.51669 0.13319 0.0
C270 C 0.76591 0.5653 0.07724 0.0
O271 O 0.7924 0.54921 0.0774 0.0
O272 O 0.72015 0.51637 0.1213 0.0
C273 C 0.43411 0.08785 0.00132 0.0
O274 O 0.47083 0.09954 0.00888 0.0
O275 O 0.44414 0.1518 0.03956 0.0
Zn276 Zn 0.44999 0.16391 0.01622 0.0
O277 O 0.5129 0.1912 0.00907 0.0
C278 C 0.44938 0.2415 0.0217 0.0
O279 O 0.46624 0.23647 0.03478 0.0
O280 O 0.41526 0.11019 0.00307 0.0
C281 C 0.54515 0.19092 0.0157 0.0
O282 O 0.53981 0.17172 0.02941 0.0
C283 C 0.45048 0.12505 0.04769 0.0
O284 O 0.46003 0.09791 0.04076 0.0
O285 O 0.43559 0.21137 0.01154 0.0
C286 C 0.85804 0.44164 0.97467 0.0
O287 O 0.85328 0.46547 0.98533 0.0
O288 O 0.79266 0.37742 0.00958 0.0
Zn289 Zn 0.7772 0.38471 0.98741 0.0
O290 O 0.76006 0.43122 0.98641 0.0
C291 C 0.71747 0.29308 0.9895 0.0
O292 O 0.75112 0.29338 0.99635 0.0
O293 O 0.82793 0.40201 0.97304 0.0
C294 C 0.73564 0.43094 0.97532 0.0
O295 O 0.72245 0.40048 0.96461 0.0
C296 C 0.76233 0.36723 0.01953 0.0
O297 O 0.72658 0.36725 0.01506 0.0
O298 O 0.72336 0.3275 0.9824 0.0
C299 C 0.51522 0.53496 0.01112 0.0
O300 O 0.51776 0.52027 0.02507 0.0
O301 O 0.62158 0.53974 0.02329 0.0
Zn302 Zn 0.57776 0.50984 0.00583 0.0
O303 O 0.53695 0.44846 0.01318 0.0
C304 C 0.65085 0.53011 0.98579 0.0
O305 O 0.66984 0.56674 0.99374 0.0
O306 O 0.54093 0.53668 0.00045 0.0
C307 C 0.50972 0.41956 0.00391 0.0
O308 O 0.50721 0.43067 0.98938 0.0
C309 C 0.6443 0.52157 0.02618 0.0
O310 O 0.63632 0.48668 0.01822 0.0
O311 O 0.6099 0.50422 0.98745 0.0
C312 C 0.5622 0.7967 0.83938 0.0
O313 O 0.54215 0.77389 0.85197 0.0
O314 O 0.45216 0.73127 0.84632 0.0
Zn315 Zn 0.47896 0.78945 0.83498 0.0
O316 O 0.47209 0.83235 0.84835 0.0
C317 C 0.42625 0.74071 0.80922 0.0
O318 O 0.44146 0.71493 0.81352 0.0
O319 O 0.54177 0.80868 0.83006 0.0
C320 C 0.49415 0.84935 0.8607 0.0
O321 O 0.52641 0.8424 0.8644 0.0
C322 C 0.42374 0.72119 0.85699 0.0
O323 O 0.41323 0.7503 0.86138 0.0
O324 O 0.44149 0.77774 0.81576 0.0
C325 C 0.17359 0.69865 0.81232 0.0
O326 O 0.20283 0.70016 0.82231 0.0
O327 O 0.22336 0.63204 0.79854 0.0
Zn328 Zn 0.16281 0.61405 0.80649 0.0
O329 O 0.164 0.60278 0.82963 0.0
C330 C 0.09973 0.52115 0.80037 0.0
O331 O 0.0648 0.48906 0.79375 0.0
O332 O 0.15193 0.66457 0.80406 0.0
C333 C 0.13014 0.58663 0.83822 0.0
O334 O 0.09216 0.57677 0.83195 0.0
C335 C 0.24773 0.66768 0.7912 0.0
O336 O 0.23141 0.69225 0.7866 0.0
O337 O 0.11407 0.5604 0.79566 0.0
C338 C 0.17973 0.39005 0.87277 0.0
O339 O 0.14645 0.39096 0.87919 0.0
O340 O 0.17188 0.48268 0.86587 0.0
Zn341 Zn 0.21343 0.47609 0.88052 0.0
O342 O 0.19609 0.46697 0.90313 0.0
C343 C 0.30624 0.54061 0.87277 0.0
O344 O 0.30926 0.50858 0.86634 0.0
O345 O 0.21689 0.42491 0.87261 0.0
C346 C 0.20313 0.50097 0.91047 0.0
O347 O 0.21456 0.53715 0.90245 0.0
C348 C 0.18772 0.49191 0.85211 0.0
O349 O 0.22623 0.49578 0.84961 0.0
O350 O 0.27057 0.53264 0.87914 0.0
C351 C 0.38222 0.95386 0.95474 0.0
O352 O 0.35115 0.94551 0.94446 0.0
O353 O 0.32075 0.84553 0.93614 0.0
Zn354 Zn 0.38453 0.87808 0.94214 0.0
O355 O 0.42354 0.89148 0.92339 0.0
C356 C 0.38184 0.82726 0.96969 0.0
O357 O 0.36774 0.85044 0.97692 0.0
O358 O 0.40048 0.93066 0.95506 0.0
C359 C 0.41086 0.8915 0.90944 0.0
O360 O 0.37168 0.88628 0.90702 0.0
C361 C 0.29124 0.83796 0.94616 0.0
O362 O 0.3029 0.85732 0.95979 0.0
O363 O 0.39243 0.83502 0.95533 0.0
C364 C 0.01864 0.51666 0.93927 0.0
O365 O 0.02642 0.49273 0.92959 0.0
O366 O 0.14466 0.56609 0.95116 0.0
Zn367 Zn 0.11048 0.57833 0.9348 0.0
O368 O 0.10936 0.5556 0.91329 0.0
C369 C 0.14022 0.66783 0.94345 0.0
O370 O 0.11739 0.64962 0.95621 0.0
O371 O 0.04942 0.55478 0.94273 0.0
C372 C 0.14386 0.57439 0.90501 0.0
O373 O 0.18081 0.60353 0.91157 0.0
C374 C 0.12751 0.53136 0.95949 0.0
O375 O 0.08787 0.49954 0.95611 0.0
O376 O 0.14024 0.64348 0.93266 0.0
C377 C 0.36679 0.5563 0.99649 0.0
O378 O 0.35405 0.55438 0.98189 0.0
O379 O 0.31896 0.63842 0.00266 0.0
Zn380 Zn 0.29571 0.57325 0.0029 0.0
O381 O 0.27186 0.55352 0.98123 0.0
C382 C 0.2076 0.5246 0.01784 0.0
O383 O 0.18205 0.50253 0.02963 0.0
O384 O 0.34615 0.56286 0.00727 0.0
C385 C 0.24959 0.51519 0.97571 0.0
O386 O 0.24054 0.48102 0.9846 0.0
C387 C 0.34878 0.65972 0.99259 0.0
O388 O 0.36339 0.63864 0.9843 0.0
O389 O 0.24898 0.54261 0.01952 0.0
C390 C 0.03521 0.4619 0.47858 0.0
O391 O 0.04446 0.49941 0.47198 0.0
O392 O 0.12036 0.49228 0.44373 0.0
Zn393 Zn 0.11948 0.48896 0.46729 0.0
O394 O 0.13763 0.54766 0.47647 0.0
C395 C 0.18218 0.45905 0.46472 0.0
O396 O 0.16722 0.44983 0.45033 0.0
O397 O 0.06139 0.44742 0.47672 0.0
C398 C 0.14119 0.55201 0.49123 0.0
O399 O 0.13274 0.51794 0.50008 0.0
C400 C 0.14446 0.5292 0.43711 0.0
O401 O 0.16316 0.56467 0.44569 0.0
O402 O 0.16509 0.47379 0.47415 0.0
C403 C 0.46852 0.48987 0.47329 0.0
O404 O 0.43874 0.476 0.46216 0.0
O405 O 0.47298 0.60278 0.45743 0.0
Zn406 Zn 0.44708 0.55802 0.47498 0.0
O407 O 0.38424 0.51558 0.4694 0.0
C408 C 0.47023 0.63144 0.49507 0.0
O409 O 0.50508 0.65073 0.48608 0.0
O410 O 0.4791 0.52576 0.48004 0.0
C411 C 0.35617 0.49793 0.48028 0.0
O412 O 0.36973 0.50403 0.49488 0.0
C413 C 0.44998 0.62079 0.45478 0.0
O414 O 0.41357 0.60704 0.46274 0.0
O415 O 0.44401 0.59059 0.49361 0.0
C416 C 0.41462 0.85369 0.51349 0.0
O417 O 0.43341 0.83966 0.50375 0.0
O418 O 0.32544 0.7794 0.48204 0.0
Zn419 Zn 0.34243 0.77411 0.50426 0.0
O420 O 0.3826 0.74904 0.50364 0.0
C421 C 0.25136 0.72745 0.50998 0.0
O422 O 0.25339 0.76042 0.50194 0.0
O423 O 0.37335 0.83132 0.51541 0.0
C424 C 0.38094 0.72105 0.51353 0.0
O425 O 0.35161 0.70705 0.52476 0.0
C426 C 0.30805 0.7436 0.47452 0.0
O427 O 0.30532 0.70866 0.48131 0.0
O428 O 0.28684 0.73021 0.51477 0.0
C429 C 0.2516 0.44023 0.35195 0.0
O430 O 0.25952 0.45353 0.36652 0.0
O431 O 0.21728 0.50749 0.37018 0.0
Zn432 Zn 0.24758 0.51703 0.34946 0.0
O433 O 0.31114 0.56044 0.35286 0.0
C434 C 0.18324 0.53583 0.33863 0.0
O435 O 0.15699 0.49922 0.34616 0.0
O436 O 0.24343 0.46201 0.34189 0.0
C437 C 0.33215 0.59461 0.34443 0.0
O438 O 0.3121 0.60188 0.33276 0.0
C439 C 0.22031 0.54125 0.37658 0.0
O440 O 0.24416 0.57969 0.36978 0.0
O441 O 0.22142 0.54345 0.33515 0.0
C442 C 0.61551 0.89139 0.37127 0.0
O443 O 0.59902 0.91476 0.37667 0.0
O444 O 0.53711 0.78321 0.40391 0.0
Zn445 Zn 0.5375 0.81534 0.38415 0.0
O446 O 0.50613 0.84902 0.38742 0.0
C447 C 0.49462 0.73034 0.36934 0.0
O448 O 0.51861 0.72179 0.379 0.0
O449 O 0.59607 0.85042 0.37402 0.0
C450 C 0.48881 0.85537 0.3753 0.0
O451 O 0.49966 0.84777 0.36151 0.0
C452 C 0.49907 0.76163 0.40991 0.0
O453 O 0.46718 0.76604 0.40377 0.0
O454 O 0.49902 0.76833 0.36913 0.0
C455 C 0.14805 0.76139 0.3727 0.0
O456 O 0.12768 0.72132 0.37846 0.0
O457 O 0.22602 0.75527 0.40673 0.0
Zn458 Zn 0.22427 0.75931 0.38318 0.0
O459 O 0.19961 0.69982 0.37359 0.0
C460 C 0.31584 0.82494 0.38501 0.0
O461 O 0.30363 0.83401 0.39826 0.0
O462 O 0.18926 0.78517 0.37459 0.0
C463 C 0.20294 0.69745 0.35888 0.0
O464 O 0.22225 0.73375 0.3505 0.0
C465 C 0.24066 0.73099 0.41181 0.0
O466 O 0.24839 0.70777 0.40178 0.0
O467 O 0.28709 0.79552 0.37624 0.0
C468 C 0.07594 0.16377 0.17136 0.0
C469 C 0.10621 0.18551 0.18342 0.0
H470 H 0.00897 0.13253 0.16406 0.0
C471 C 0.09236 0.19819 0.19676 0.0
H472 H 0.08558 0.15384 0.16087 0.0
C473 C 0.0483 0.18591 0.1986 0.0
C474 C 0.01738 0.16064 0.18716 0.0
H475 H 0.115 0.21534 0.20622 0.0
H476 H 0.03815 0.19403 0.20938 0.0
C477 C 0.03192 0.15131 0.17323 0.0
C478 C 0.87416 0.93717 0.19033 0.0
C479 C 0.89166 0.96323 0.17678 0.0
H480 H 0.87352 0.88785 0.20541 0.0
C481 C 0.91924 0.95574 0.16713 0.0
H482 H 0.85273 0.94204 0.19802 0.0
C483 C 0.93127 0.92488 0.17141 0.0
C484 C 0.91595 0.90072 0.18543 0.0
H485 H 0.93312 0.97503 0.15658 0.0
H486 H 0.95383 0.92111 0.16395 0.0
C487 C 0.8862 0.90621 0.19461 0.0
C488 C 0.14292 0.03623 0.17298 0.0
C489 C 0.17033 0.04303 0.18594 0.0
H490 H 0.09046 -0.01027 0.15874 0.0
C491 C 0.16968 0.00674 0.19317 0.0
H492 H 0.14318 0.06363 0.16699 0.0
C493 C 0.13931 0.96425 0.18846 0.0
C494 C 0.10929 0.95737 0.17636 0.0
H495 H 0.19072 0.01095 0.20309 0.0
H496 H 0.13762 0.93682 0.19492 0.0
C497 C 0.11286 -0.00618 0.16818 0.0
C498 C 0.12441 0.03494 0.35068 0.0
C499 C 0.1616 0.06847 0.34312 0.0
H500 H 0.07344 0.96784 0.35042 0.0
C501 C 0.18002 0.0575 0.33065 0.0
H502 H 0.10961 0.04209 0.36041 0.0
C503 C 0.159 0.0149 0.32481 0.0
C504 C 0.11935 0.98246 0.3314 0.0
H505 H 0.20897 0.08245 0.32467 0.0
H506 H 0.17256 0.00811 0.31462 0.0
C507 C 0.10345 -0.00764 0.34486 0.0
C508 C -0.01594 0.09442 0.33937 0.0
C509 C 0.95786 0.10136 0.32856 0.0
H510 H 0.04896 0.11315 0.34702 0.0
C511 C 0.9781 0.13678 0.31796 0.0
H512 H 0.96955 0.06755 0.34773 0.0
C513 C 0.02377 0.16309 0.31758 0.0
C514 C 0.05004 0.15428 0.32773 0.0
H515 H 0.9588 0.14313 0.30952 0.0
H516 H 0.03849 0.18908 0.30889 0.0
C517 C 0.02966 0.12048 0.33891 0.0
C518 C 0.84871 0.87408 0.29524 0.0
C519 C 0.85261 0.90428 0.3066 0.0
H520 H 0.86773 0.82812 0.28805 0.0
C521 C 0.87456 0.90666 0.32068 0.0
H522 H 0.83157 0.87109 0.28434 0.0
C523 C 0.89502 0.88185 0.32287 0.0
C524 C 0.89415 0.85424 0.31098 0.0
H525 H 0.87758 0.92909 0.32979 0.0
H526 H 0.91357 0.88622 0.33352 0.0
C527 C 0.86929 0.84928 0.29741 0.0
C528 C 0.93817 0.84315 0.84876 0.0
C529 C 0.9126 0.80696 0.83912 0.0
H530 H 0.00264 0.89467 0.85475 0.0
C531 C 0.93388 0.79169 0.82937 0.0
H532 H 0.92274 0.85568 0.85642 0.0
C533 C 0.97956 0.81452 0.82819 0.0
C534 C 0.00493 0.85263 0.83694 0.0
H535 H 0.91529 0.764 0.82176 0.0
H536 H -0.00511 0.8033 0.81994 0.0
C537 C -0.01606 0.86562 0.84775 0.0
C538 C 0.18523 0.09298 0.79943 0.0
C539 C 0.16418 0.10353 0.81101 0.0
H540 H 0.21309 0.05373 0.79319 0.0
C541 C 0.16029 0.08605 0.82618 0.0
H542 H 0.18884 0.10615 0.78767 0.0
C543 C 0.17328 0.0552 0.82929 0.0
C544 C 0.19139 0.04218 0.81738 0.0
H545 H 0.1442 0.09364 0.83535 0.0
H546 H 0.16667 0.03956 0.84071 0.0
C547 C 0.1994 0.06314 0.80266 0.0
C548 C 0.92001 -0.00516 0.83621 0.0
C549 C 0.89717 0.96349 0.82461 0.0
H550 H 0.9734 0.05882 0.84143 0.0
C551 C 0.90918 0.97467 0.80887 0.0
H552 H 0.91143 0.98726 0.84844 0.0
C553 C 0.9447 0.01548 0.80487 0.0
C554 C 0.96888 0.04606 0.81652 0.0
H555 H 0.89211 0.95136 0.79963 0.0
H556 H 0.95389 0.02254 0.79267 0.0
C557 C 0.95553 0.03581 0.8322 0.0
C558 C 0.8591 -0.00556 0.71174 0.0
C559 C 0.86629 0.01053 0.69629 0.0
H560 H 0.83966 0.93915 0.72685 0.0
C561 C 0.85452 0.98081 0.68391 0.0
H562 H 0.86721 0.01638 0.72155 0.0
C563 C 0.83868 0.93626 0.68696 0.0
C564 C 0.83419 0.92072 0.70245 0.0
H565 H 0.8594 -0.0078 0.67187 0.0
H566 H 0.83202 0.91449 0.6772 0.0
C567 C 0.8431 0.95005 0.71478 0.0
C568 C 0.03316 0.93266 0.69039 0.0
C569 C 0.06291 0.94211 0.70275 0.0
H570 H 0.96632 0.89546 0.68281 0.0
C571 C 0.04828 0.91841 0.71687 0.0
H572 H 0.04377 0.95069 0.67943 0.0
C573 C 0.00394 0.88781 0.71895 0.0
C574 C 0.97387 0.87961 0.7068 0.0
H575 H 0.07053 0.92548 0.72664 0.0
H576 H -0.00703 0.87151 0.7302 0.0
C577 C -0.011 0.90111 0.69232 0.0
C578 C 0.09745 0.20175 0.69197 0.0
C579 C 0.06155 0.18677 0.68168 0.0
H580 H 0.14906 0.19224 0.70086 0.0
C581 C 0.05575 0.15615 0.67021 0.0
H582 H 0.10266 0.22515 0.70101 0.0
C583 C 0.08271 0.13766 0.67002 0.0
C584 C 0.11529 0.14889 0.68151 0.0
H585 H 0.02835 0.14408 0.66214 0.0
H586 H 0.07563 0.11203 0.66169 0.0
C587 C 0.12378 0.18256 0.69201 0.0
C588 C 0.66394 0.36213 0.53084 0.0
C589 C 0.62755 0.33094 0.53945 0.0
H590 H 0.73383 0.39674 0.5284 0.0
C591 C 0.63459 0.31355 0.55331 0.0
H592 H 0.65955 0.37603 0.52008 0.0
C593 C 0.67703 0.3255 0.55809 0.0
C594 C 0.71335 0.35487 0.54906 0.0
H595 H 0.60725 0.28955 0.56023 0.0
H596 H 0.68116 0.31038 0.56858 0.0
C597 C 0.70648 0.37387 0.53557 0.0
C598 C 0.61811 0.24815 0.51344 0.0
C599 C 0.57546 0.22918 0.50719 0.0
H600 H 0.66113 0.2423 0.52982 0.0
C601 C 0.54393 0.18677 0.51213 0.0
H602 H 0.64324 0.28083 0.50998 0.0
C603 C 0.55416 0.16472 0.52362 0.0
C604 C 0.59621 0.18457 0.53039 0.0
H605 H 0.51093 0.17108 0.50744 0.0
H606 H 0.52886 0.13239 0.52736 0.0
C607 C 0.62827 0.22622 0.52498 0.0
C608 C 0.74965 0.18448 0.53933 0.0
C609 C 0.72798 0.1574 0.55224 0.0
H610 H 0.79742 0.2487 0.5315 0.0
C611 C 0.74497 0.17189 0.56734 0.0
H612 H 0.7377 0.17421 0.52754 0.0
C613 C 0.77925 0.2147 0.56962 0.0
C614 C 0.79689 0.24362 0.55684 0.0
H615 H 0.7293 0.15148 0.57752 0.0
H616 H 0.78912 0.22612 0.58147 0.0
C617 C 0.78372 0.22734 0.54162 0.0
C618 C 0.66526 0.34078 0.69027 0.0
C619 C 0.70922 0.37273 0.68743 0.0
H620 H 0.62001 0.27377 0.69619 0.0
C621 C 0.74225 0.36251 0.69059 0.0
H622 H 0.63902 0.34764 0.68795 0.0
C623 C 0.73134 0.32035 0.69558 0.0
C624 C 0.68716 0.28745 0.6972 0.0
H625 H 0.7764 0.38657 0.68859 0.0
H626 H 0.75742 0.3129 0.6972 0.0
C627 C 0.65431 0.29841 0.69496 0.0
C628 C 0.56439 0.3634 0.64011 0.0
C629 C 0.5531 0.33237 0.62824 0.0
H630 H 0.61556 0.42068 0.651 0.0
C631 C 0.58413 0.33964 0.61662 0.0
H632 H 0.5411 0.35894 0.64914 0.0
C633 C 0.6268 0.37507 0.61765 0.0
C634 C 0.63924 0.40376 0.63036 0.0
H635 H 0.57619 0.31664 0.60717 0.0
H636 H 0.65061 0.37829 0.60903 0.0
C637 C 0.60713 0.39877 0.64117 0.0
C638 C 0.49029 0.06042 0.67089 0.0
C639 C 0.5202 0.09334 0.6809 0.0
H640 H 0.45336 0.04541 0.64955 0.0
C641 C 0.53615 0.13736 0.67685 0.0
H642 H 0.47739 0.02616 0.67385 0.0
C643 C 0.52293 0.14844 0.66293 0.0
C644 C 0.4927 0.11563 0.6529 0.0
H645 H 0.55835 0.16321 0.68456 0.0
H646 H 0.53559 0.18282 0.66027 0.0
C647 C 0.47683 0.07146 0.65696 0.0
C648 C 0.64728 0.17816 0.12787 0.0
C649 C 0.68207 0.21097 0.13652 0.0
H650 H 0.57779 0.14068 0.12462 0.0
C651 C 0.67291 0.22616 0.15029 0.0
H652 H 0.65355 0.16558 0.11731 0.0
C653 C 0.62959 0.21232 0.15437 0.0
C654 C 0.59487 0.18234 0.14495 0.0
H655 H 0.69913 0.25132 0.15721 0.0
H656 H 0.62333 0.22736 0.16424 0.0
C657 C 0.60393 0.16354 0.13217 0.0
C658 C 0.85434 0.4418 0.10111 0.0
C659 C 0.84329 0.40927 0.11269 0.0
H660 H 0.85392 0.50018 0.09422 0.0
C661 C 0.82852 0.4144 0.12728 0.0
H662 H 0.86579 0.43878 0.08973 0.0
C663 C 0.8221 0.44979 0.1299 0.0
C664 C 0.82976 0.48038 0.11788 0.0
H665 H 0.81999 0.38999 0.13646 0.0
H666 H 0.80875 0.45167 0.14104 0.0
C667 C 0.84736 0.4769 0.10365 0.0
C668 C 0.59452 0.37144 0.11693 0.0
C669 C 0.59202 0.36497 0.13323 0.0
H670 H 0.6284 0.41438 0.09776 0.0
C671 C 0.62056 0.39981 0.14289 0.0
H672 H 0.5728 0.34539 0.10915 0.0
C673 C 0.65248 0.43957 0.13632 0.0
C674 C 0.65646 0.44507 0.11999 0.0
H675 H 0.61929 0.39591 0.15549 0.0
H676 H 0.6751 0.46529 0.14402 0.0
C677 C 0.62645 0.41102 0.11038 0.0
C678 C 0.46557 0.33944 -0.00214 0.0
C679 C 0.48622 0.37306 0.0089 0.0
H680 H 0.43706 0.27088 0.99328 0.0
C681 C 0.48807 0.36187 0.0246 0.0
H682 H 0.46332 0.34701 0.98569 0.0
C683 C 0.47285 0.31837 0.02895 0.0
C684 C 0.45563 0.28514 0.01769 0.0
H685 H 0.50316 0.38694 0.03344 0.0
H686 H 0.47682 0.31119 0.04101 0.0
C687 C 0.45041 0.2958 0.00222 0.0
C688 C 0.66571 0.23443 0.00786 0.0
C689 C 0.67249 0.26041 0.9944 0.0
H690 H 0.62021 0.19249 0.02529 0.0
C691 C 0.63632 0.26009 0.98725 0.0
H692 H 0.69294 0.23418 0.01372 0.0
C693 C 0.59471 0.23633 0.99392 0.0
C694 C 0.58842 0.21259 0.00793 0.0
H695 H 0.64049 0.27976 0.97688 0.0
H696 H 0.56781 0.23794 0.98837 0.0
C697 C 0.62409 0.21089 0.0146 0.0
C698 C 0.67916 0.45077 0.96761 0.0
C699 C 0.7182 0.46125 0.97557 0.0
H700 H 0.6271 0.46491 0.96452 0.0
C701 C 0.73836 0.49902 0.98482 0.0
H702 H 0.66296 0.42195 0.96034 0.0
C703 C 0.71835 0.52418 0.98691 0.0
C704 C 0.67738 0.51151 0.98003 0.0
H705 H 0.7687 0.50813 0.99097 0.0
H706 H 0.73343 0.55157 0.99487 0.0
C707 C 0.6587 0.47545 0.96994 0.0
C708 C 0.32414 0.73162 0.79109 0.0
C709 C 0.29574 0.686 0.79161 0.0
H710 H 0.38831 0.78501 0.79623 0.0
C711 C 0.31311 0.65869 0.79509 0.0
H712 H 0.31178 0.75356 0.78839 0.0
C713 C 0.35711 0.67672 0.79938 0.0
C714 C 0.38434 0.7224 0.80052 0.0
H715 H 0.29209 0.62339 0.79545 0.0
H716 H 0.3687 0.65473 0.80298 0.0
C717 C 0.368 0.74968 0.79562 0.0
C718 C 0.09712 0.48673 0.82637 0.0
C719 C 0.12129 0.51178 0.81339 0.0
H720 H 0.09954 0.462 0.84924 0.0
C721 C 0.1667 0.5289 0.81304 0.0
H722 H 0.06193 0.47312 0.8268 0.0
C723 C 0.188 0.52226 0.82567 0.0
C724 C 0.16429 0.49857 0.83895 0.0
H725 H 0.18568 0.54739 0.80297 0.0
H726 H 0.22322 0.53621 0.82509 0.0
C727 C 0.1186 0.48071 0.8392 0.0
C728 C 0.37537 0.59828 0.85997 0.0
C729 C 0.34095 0.58679 0.87056 0.0
H730 H 0.4289 0.65009 0.84738 0.0
C731 C 0.33735 0.62022 0.87797 0.0
H732 H 0.37908 0.57329 0.85411 0.0
C733 C 0.36575 0.66409 0.87412 0.0
C734 C 0.39839 0.67551 0.86278 0.0
H735 H 0.31145 0.6125 0.88633 0.0
H736 H 0.36096 0.68889 0.87961 0.0
C737 C 0.40386 0.6423 0.8561 0.0
C738 C 0.3914 0.72641 0.97597 0.0
C739 C 0.36243 0.70565 0.9885 0.0
H740 H 0.42047 0.78129 0.96027 0.0
C741 C 0.34399 0.72781 0.99602 0.0
H742 H 0.40651 0.71046 0.96999 0.0
C743 C 0.35239 0.76881 0.99049 0.0
C744 C 0.37901 0.78808 0.97727 0.0
H745 H 0.32172 0.71275 0.00576 0.0
H746 H 0.33621 0.78428 0.99606 0.0
C747 C 0.39944 0.76706 0.97037 0.0
C748 C 0.18077 0.74125 0.95619 0.0
C749 C 0.1724 0.71528 0.94287 0.0
H750 H 0.22489 0.80121 0.9676 0.0
C751 C 0.19905 0.73369 0.9296 0.0
H752 H 0.16054 0.7282 0.96653 0.0
C753 C 0.23592 0.77553 0.9302 0.0
C754 C 0.24683 0.79974 0.94407 0.0
H755 H 0.19307 0.71479 0.91905 0.0
H756 H 0.25737 0.78761 0.92012 0.0
C757 C 0.21767 0.78317 0.95678 0.0
C758 C 0.18507 0.56747 0.98023 0.0
C759 C 0.14939 0.52928 0.97407 0.0
H760 H 0.23102 0.59593 -0.00088 0.0
C761 C 0.13302 0.48971 0.98251 0.0
H762 H 0.19806 0.59863 0.97414 0.0
C763 C 0.15197 0.48833 -0.00322 0.0
C764 C 0.1879 0.52635 0.00279 0.0
H765 H 0.10539 0.45982 0.97815 0.0
H766 H 0.13883 0.45741 0.00306 0.0
C767 C 0.20396 0.56603 0.99452 0.0
C768 C 0.25149 0.46067 0.45739 0.0
C769 C 0.22341 0.46024 0.46906 0.0
H770 H 0.31578 0.4729 0.45181 0.0
C771 C 0.23743 0.46605 0.48472 0.0
H772 H 0.2416 0.45617 0.44521 0.0
C773 C 0.27977 0.47512 0.48852 0.0
C774 C 0.30907 0.47916 0.47669 0.0
H775 H 0.21638 0.46552 0.49399 0.0
H776 H 0.29028 0.48158 0.50061 0.0
C777 C 0.29404 0.47035 0.46116 0.0
C778 C 0.41832 0.63778 0.51313 0.0
C779 C 0.45402 0.6578 0.50278 0.0
H780 H 0.36737 0.64246 0.52484 0.0
C781 C 0.46897 0.70109 0.49774 0.0
H782 H 0.40612 0.60444 0.51721 0.0
C783 C 0.4463 0.72248 0.50186 0.0
C784 C 0.40875 0.70127 0.51131 0.0
H785 H 0.49629 0.71741 0.48972 0.0
H786 H 0.45713 0.75495 0.49712 0.0
C787 C 0.39607 0.65949 0.51746 0.0
C788 C 0.18777 0.67382 0.49424 0.0
C789 C 0.21352 0.6831 0.50783 0.0
H790 H 0.14484 0.62459 0.4782 0.0
C791 C 0.20909 0.64826 0.51729 0.0
H792 H 0.1906 0.69995 0.48665 0.0
C793 C 0.18253 0.60499 0.51249 0.0
C794 C 0.16068 0.59608 0.49802 0.0
H795 H 0.22857 0.65457 0.52783 0.0
H796 H 0.18188 0.5789 0.51951 0.0
C797 C 0.1619 0.63066 0.48929 0.0
C798 C 0.20991 0.65316 0.33771 0.0
C799 C 0.19014 0.65489 0.35168 0.0
H800 H 0.22269 0.61324 0.3224 0.0
C801 C 0.16116 0.61564 0.35945 0.0
H802 H 0.23221 0.68291 0.33142 0.0
C803 C 0.15473 0.57567 0.35403 0.0
C804 C 0.17812 0.57442 0.34098 0.0
H805 H 0.14507 0.61601 0.37014 0.0
H806 H 0.13451 0.54639 0.36091 0.0
C807 C 0.20427 0.61327 0.33248 0.0
C808 C 0.39517 0.67135 0.34337 0.0
C809 C 0.37703 0.62811 0.34895 0.0
H810 H 0.447 0.73783 0.34546 0.0
C811 C 0.40071 0.61795 0.35987 0.0
H812 H 0.37774 0.68014 0.33492 0.0
C813 C 0.44065 0.65089 0.36576 0.0
C814 C 0.45726 0.69464 0.361 0.0
H815 H 0.38769 0.58478 0.36426 0.0
H816 H 0.45721 0.64238 0.37467 0.0
C817 C 0.43481 0.70439 0.34942 0.0
C818 C 0.39363 0.85808 0.39399 0.0
C819 C 0.36281 0.84229 0.38174 0.0
H820 H 0.45827 0.87496 0.40154 0.0
C821 C 0.37638 0.83826 0.36677 0.0
H822 H 0.38417 0.86168 0.40566 0.0
C823 C 0.41901 0.84655 0.36436 0.0
C824 C 0.44862 0.85825 0.37695 0.0
H825 H 0.35344 0.8266 0.35708 0.0
H826 H 0.42762 0.84069 0.35286 0.0
C827 C 0.4361 0.86569 0.39164 0.0
C828 C 0.21306 0.21716 0.27406 0.0
C829 C 0.20022 0.17563 0.28054 0.0
H830 H 0.23025 0.25705 0.25338 0.0
C831 C 0.1965 0.14227 0.27074 0.0
H832 H 0.21641 0.24364 0.28132 0.0
C833 C 0.20468 0.15005 0.25473 0.0
C834 C 0.2166 0.19131 0.24819 0.0
H835 H 0.18691 0.10999 0.27539 0.0
H836 H 0.2009 0.12345 0.24744 0.0
C837 C 0.22111 0.2249 0.25805 0.0
C838 C 0.85107 0.09303 0.23829 0.0
C839 C 0.82529 0.05362 0.23027 0.0
H840 H 0.8727 0.12427 0.26048 0.0
C841 C 0.79789 0.0154 0.23891 0.0
H842 H 0.87235 0.1231 0.23197 0.0
C843 C 0.79835 0.01598 0.25526 0.0
C844 C 0.82592 0.05489 0.2633 0.0
H845 H 0.77749 0.9845 0.2331 0.0
H846 H 0.77819 0.98559 0.26158 0.0
C847 C 0.85123 0.09369 0.25464 0.0
C848 C 0.03541 0.8744 0.26372 0.0
C849 C 0.01387 0.83168 0.27001 0.0
H850 H 0.0512 0.91485 0.24327 0.0
C851 C -0.00778 0.79603 0.25981 0.0
H852 H 0.05246 0.90262 0.27123 0.0
C853 C -0.00871 0.80309 0.24368 0.0
C854 C 0.01211 0.84593 0.23747 0.0
H855 H 0.97518 0.76271 0.26429 0.0
H856 H 0.97393 0.77504 0.23613 0.0
C857 C 0.03455 0.88142 0.24766 0.0
C858 C 0.79593 0.76583 0.75559 0.0
C859 C 0.83176 0.76555 0.74865 0.0
H860 H 0.76921 0.77605 0.77645 0.0
C861 C 0.86709 0.77143 0.75808 0.0
H862 H 0.76827 0.76131 0.74856 0.0
C863 C 0.86806 0.78079 0.77395 0.0
C864 C 0.8333 0.78345 0.78071 0.0
H865 H 0.89526 0.77164 0.75301 0.0
H866 H 0.8967 0.78749 0.78081 0.0
C867 C 0.79646 0.77421 0.77153 0.0
C868 C 0.10263 0.00911 0.77262 0.0
C869 C 0.12439 0.98547 0.77547 0.0
H870 H 0.09278 0.0512 0.75692 0.0
C871 C 0.15557 0.9886 0.76461 0.0
H872 H 0.07885 0.00788 0.78086 0.0
C873 C 0.1642 0.01417 0.75104 0.0
C874 C 0.14144 0.0367 0.74796 0.0
H875 H 0.17338 0.97132 0.76659 0.0
H876 H 0.18772 0.01514 0.74273 0.0
C877 C 0.11085 0.0342 0.75896 0.0
C878 C 0.01819 0.18939 0.75221 0.0
C879 C 0.0332 0.17879 0.73873 0.0
H880 H 0.02832 0.20388 0.77667 0.0
C881 C 0.0735 0.17961 0.73925 0.0
H882 H -0.01271 0.18905 0.75212 0.0
C883 C 0.09745 0.18902 0.75319 0.0
C884 C 0.08105 0.19685 0.76692 0.0
H885 H 0.08604 0.17192 0.72897 0.0
H886 H 0.12752 0.18775 0.75339 0.0
C887 C 0.04167 0.19786 0.76623 0.0
C888 C 0.8518 0.48622 0.59424 0.0
C889 C 0.85826 0.45088 0.59098 0.0
H890 H 0.83337 0.51809 0.61121 0.0
C891 C 0.85626 0.42331 0.60335 0.0
H892 H 0.8534 0.50829 0.585 0.0
C893 C 0.84483 0.429 0.6184 0.0
C894 C 0.83508 0.46231 0.62139 0.0
H895 H 0.86134 0.39595 0.60127 0.0
H896 H 0.84151 0.40587 0.6275 0.0
C897 C 0.84028 0.49185 0.60928 0.0
C898 C 0.43785 0.17468 0.55267 0.0
C899 C 0.43483 0.20925 0.54555 0.0
H900 H 0.43627 0.14188 0.57413 0.0
C901 C 0.42057 0.23285 0.55444 0.0
H902 H 0.44883 0.15592 0.5461 0.0
C903 C 0.41283 0.22441 0.57043 0.0
C904 C 0.42005 0.19278 0.57788 0.0
H905 H 0.41767 0.25943 0.54921 0.0
H906 H 0.40414 0.24484 0.57711 0.0
C907 C 0.43083 0.16672 0.56874 0.0
C908 C 0.60559 0.15122 0.61662 0.0
C909 C 0.58707 0.11246 0.60792 0.0
H910 H 0.62449 0.18045 0.63917 0.0
C911 C 0.57039 0.07208 0.61588 0.0
H912 H 0.61847 0.18282 0.61086 0.0
C913 C 0.57425 0.07071 0.63214 0.0
C914 C 0.59463 0.10967 0.64076 0.0
H915 H 0.55584 0.04158 0.60951 0.0
H916 H 0.5621 0.03921 0.63791 0.0
C917 C 0.60919 0.14983 0.63286 0.0
C918 C 0.48981 0.12752 0.07233 0.0
C919 C 0.45694 0.13212 0.06467 0.0
H920 H 0.52976 0.14154 0.09286 0.0
C921 C 0.43485 0.14956 0.07286 0.0
H922 H 0.50759 0.11452 0.06625 0.0
C923 C 0.44692 0.16417 0.0882 0.0
C924 C 0.48209 0.16269 0.09539 0.0
H925 H 0.40942 0.15348 0.06718 0.0
H926 H 0.43062 0.17914 0.09403 0.0
C927 C 0.50269 0.14324 0.0875 0.0
C928 C 0.79687 0.33944 0.03895 0.0
C929 C 0.76433 0.35004 0.0352 0.0
H930 H 0.82237 0.31315 0.05613 0.0
C931 C 0.73181 0.34161 0.0463 0.0
H932 H 0.82215 0.34515 0.03058 0.0
C933 C 0.73189 0.32327 0.06084 0.0
C934 C 0.76429 0.31257 0.06462 0.0
H935 H 0.70613 0.34914 0.04377 0.0
H936 H 0.70644 0.31752 0.06914 0.0
C937 C 0.79675 0.3207 0.05351 0.0
C938 C 0.74144 0.53763 0.05017 0.0
C939 C 0.73956 0.56088 0.06308 0.0
H940 H 0.71268 0.507 0.02845 0.0
C941 C 0.7087 0.5751 0.06299 0.0
H942 H 0.76486 0.52632 0.0498 0.0
C943 C 0.67878 0.56415 0.05062 0.0
C944 C 0.67893 0.53837 0.03827 0.0
H945 H 0.70652 0.59321 0.07274 0.0
H946 H 0.65432 0.57411 0.0511 0.0
C947 C 0.7113 0.52628 0.03796 0.0
C948 C 0.47665 0.89059 0.89903 0.0
C949 C 0.4366 0.88923 0.89624 0.0
H950 H 0.52664 0.87961 0.88992 0.0
C951 C 0.41917 0.88083 0.88101 0.0
H952 H 0.49124 0.8974 0.9106 0.0
C953 C 0.43952 0.87064 0.86914 0.0
C954 C 0.47774 0.86866 0.87225 0.0
H955 H 0.38858 0.87989 0.87842 0.0
H956 H 0.42399 0.86213 0.85774 0.0
C957 C 0.49701 0.88043 0.88716 0.0
C958 C 0.09911 0.55185 0.88043 0.0
C959 C 0.14042 0.5711 0.88776 0.0
H960 H 0.06346 0.54204 0.85905 0.0
C961 C 0.1783 0.59191 0.87845 0.0
H962 H 0.06924 0.53542 0.88725 0.0
C963 C 0.17493 0.59558 0.86226 0.0
C964 C 0.13362 0.57895 0.85509 0.0
H965 H 0.21061 0.60679 0.88372 0.0
H966 H 0.20476 0.61288 0.85547 0.0
C967 C 0.09575 0.55595 0.86427 0.0
C968 C 0.2264 0.54314 0.93526 0.0
C969 C 0.20844 0.50269 0.92766 0.0
H970 H 0.25405 0.57886 0.95622 0.0
C971 C 0.20083 0.46535 0.93635 0.0
H972 H 0.23256 0.57254 0.92897 0.0
C973 C 0.21302 0.46894 0.95213 0.0
C974 C 0.23338 0.50997 0.95943 0.0
H975 H 0.18691 0.43365 0.93082 0.0
H976 H 0.2078 0.43989 0.95843 0.0
C977 C 0.23903 0.5468 0.95091 0.0
C978 C 0.18314 0.5723 0.41319 0.0
C979 C 0.15844 0.53146 0.42071 0.0
H980 H 0.22191 0.60741 0.39333 0.0
C981 C 0.15155 0.49346 0.41307 0.0
H982 H 0.18869 0.60212 0.41873 0.0
C983 C 0.17096 0.49651 0.39857 0.0
C984 C 0.19738 0.53757 0.3914 0.0
H985 H 0.13272 0.4615 0.41856 0.0
H986 H 0.1661 0.46676 0.39317 0.0
C987 C 0.20231 0.57532 0.39866 0.0
C988 C 0.5175 0.71207 0.42558 0.0
C989 C 0.48886 0.72801 0.4222 0.0
H990 H 0.52753 0.66509 0.43844 0.0
C991 C 0.44823 0.70908 0.42985 0.0
H992 H 0.54893 0.72584 0.41978 0.0
C993 C 0.43604 0.67453 0.44043 0.0
C994 C 0.46404 0.65775 0.44358 0.0
H995 H 0.42542 0.72061 0.42754 0.0
H996 H 0.40428 0.66066 0.446 0.0
C997 C 0.50511 0.67709 0.43615 0.0
C998 C 0.27937 0.70374 0.44939 0.0
C999 C 0.28961 0.74028 0.45866 0.0
H1000 H 0.25595 0.67227 0.42735 0.0
C1001 C 0.28129 0.77276 0.45272 0.0
H1002 H 0.28522 0.67804 0.45364 0.0
C1003 C 0.26358 0.76896 0.4377 0.0
C1004 C 0.25453 0.73295 0.42829 0.0
H1005 H 0.28845 0.80108 0.45966 0.0
H1006 H 0.25821 0.79483 0.4333 0.0
C1007 C 0.26241 0.70031 0.43433 0.0
C1008 C 0.34974 0.24907 0.17165 0.0
C1009 C 0.34386 0.22523 0.1856 0.0
H1010 H 0.38632 0.27393 0.15047 0.0
C1011 C 0.37386 0.21144 0.1895 0.0
H1012 H 0.32727 0.26034 0.16837 0.0
C1013 C 0.40737 0.21882 0.17918 0.0
C1014 C 0.41173 0.24047 0.16483 0.0
H1015 H 0.37033 0.19313 0.20018 0.0
H1016 H 0.42905 0.20644 0.18226 0.0
C1017 C 0.38349 0.25675 0.16138 0.0
C1018 C 0.88057 0.19391 0.14709 0.0
C1019 C 0.85562 0.1491 0.15093 0.0
H1020 H 0.88656 0.24675 0.13281 0.0
C1021 C 0.81793 0.1222 0.1421 0.0
H1022 H 0.91014 0.21548 0.15353 0.0
C1023 C 0.80444 0.14022 0.13012 0.0
C1024 C 0.82847 0.18542 0.12674 0.0
H1025 H 0.79825 0.08748 0.14469 0.0
H1026 H 0.7744 0.11894 0.12388 0.0
C1027 C 0.86722 0.21184 0.13512 0.0
C1028 C 0.93717 0.72184 0.15099 0.0
C1029 C 0.91212 0.73062 0.16148 0.0
H1030 H 0.93677 0.68428 0.13144 0.0
C1031 C 0.86621 0.70731 0.16013 0.0
H1032 H 0.97263 0.73937 0.15171 0.0
C1033 C 0.84574 0.6761 0.14849 0.0
C1034 C 0.8707 0.66733 0.13796 0.0
H1035 H 0.84594 0.71338 0.168 0.0
H1036 H 0.81027 0.65874 0.14779 0.0
C1037 C 0.91663 0.69041 0.13934 0.0
C1038 C 0.24632 0.36852 0.35843 0.0
C1039 C 0.25279 0.40084 0.3473 0.0
H1040 H 0.23783 0.30464 0.36246 0.0
C1041 C 0.25998 0.39507 0.33162 0.0
H1042 H 0.24094 0.37236 0.37063 0.0
C1043 C 0.25929 0.35696 0.32703 0.0
C1044 C 0.25046 0.32353 0.33799 0.0
H1045 H 0.26566 0.4198 0.32285 0.0
H1046 H 0.26363 0.35291 0.31475 0.0
C1047 C 0.24471 0.32992 0.35378 0.0
C1048 C 0.66168 0.88315 0.35126 0.0
C1049 C 0.65265 0.9108 0.36022 0.0
H1050 H 0.69993 0.87804 0.33311 0.0
C1051 C 0.67761 0.95637 0.35776 0.0
H1052 H 0.643 0.84788 0.35279 0.0
C1053 C 0.71079 0.97382 0.34645 0.0
C1054 C 0.7189 0.94587 0.33727 0.0
H1055 H 0.67133 0.97847 0.36448 0.0
H1056 H 0.72955 0.00901 0.34472 0.0
C1057 C 0.69416 0.90044 0.33986 0.0
C1058 C 0.05765 0.76741 0.35041 0.0
C1059 C 0.08215 0.80128 0.33962 0.0
H1060 H 0.0594 0.72796 0.36943 0.0
C1061 C 0.12815 0.8224 0.34012 0.0
H1062 H 0.02216 0.75077 0.35033 0.0
C1063 C 0.1493 0.81024 0.35121 0.0
C1064 C 0.125 0.77609 0.3619 0.0
H1065 H 0.14806 0.84897 0.3321 0.0
H1066 H 0.18481 0.82716 0.35118 0.0
C1067 C 0.07894 0.75458 0.36137 0.0
C1068 C 0.66944 0.83543 0.81817 0.0
C1069 C 0.691 0.82043 0.82822 0.0
H1070 H 0.61197 0.83991 0.81382 0.0
C1071 C 0.67047 0.79886 0.84221 0.0
H1072 H 0.68444 0.85232 0.80732 0.0
C1073 C 0.6289 0.7918 0.84594 0.0
C1074 C 0.60704 0.80618 0.83576 0.0
H1075 H 0.68629 0.78704 0.85022 0.0
H1076 H 0.61374 0.77463 0.85674 0.0
C1077 C 0.6279 0.82839 0.8219 0.0
C1078 C 0.13498 0.73451 0.79987 0.0
C1079 C 0.16614 0.7362 0.81061 0.0
H1080 H 0.10229 0.76665 0.79025 0.0
C1081 C 0.18973 0.77389 0.81977 0.0
H1082 H 0.11638 0.70607 0.79258 0.0
C1083 C 0.18169 0.80882 0.81841 0.0
C1084 C 0.1499 0.80669 0.80787 0.0
H1085 H 0.21409 0.77628 0.82812 0.0
H1086 H 0.1999 0.83714 0.82578 0.0
C1087 C 0.12697 0.76934 0.79851 0.0
C1088 C 0.20613 0.35158 0.85526 0.0
C1089 C 0.17222 0.35122 0.86392 0.0
H1090 H 0.22389 0.31818 0.83866 0.0
C1091 C 0.12981 0.31461 0.86304 0.0
H1092 H 0.23917 0.37936 0.8557 0.0
C1093 C 0.12104 0.27988 0.85324 0.0
C1094 C 0.15451 0.28086 0.84414 0.0
H1095 H 0.10297 0.31322 0.8696 0.0
H1096 H 0.08775 0.25259 0.85261 0.0
C1097 C 0.19736 0.31662 0.84547 0.0
C1098 C 0.76088 0.59883 0.68259 0.0
C1099 C 0.77139 0.60257 0.66663 0.0
H1100 H 0.75525 0.63029 0.7029 0.0
C1101 C 0.78304 0.64195 0.65864 0.0
H1102 H 0.75123 0.56866 0.68901 0.0
C1103 C 0.78571 0.67754 0.66666 0.0
C1104 C 0.77594 0.67398 0.68271 0.0
H1105 H 0.79108 0.64561 0.64631 0.0
H1106 H 0.79601 0.70799 0.66035 0.0
C1107 C 0.76275 0.63402 0.69051 0.0
C1108 C 0.30834 0.10303 0.65206 0.0
C1109 C 0.34228 0.14586 0.64884 0.0
H1110 H 0.25134 0.0619 0.66565 0.0
C1111 C 0.34402 0.18095 0.65706 0.0
H1112 H 0.3062 0.07527 0.64597 0.0
C1113 C 0.31253 0.17327 0.66837 0.0
C1114 C 0.27887 0.13037 0.67172 0.0
H1115 H 0.36986 0.21434 0.65485 0.0
H1116 H 0.31472 0.20096 0.67453 0.0
C1117 C 0.27703 0.09534 0.66342 0.0
C1118 C 0.75298 0.14021 0.7048 0.0
C1119 C 0.75287 0.16141 0.69079 0.0
H1120 H 0.78908 0.12185 0.72026 0.0
C1121 C 0.79121 0.18199 0.6817 0.0
H1122 H 0.72408 0.12425 0.71213 0.0
C1123 C 0.82867 0.18075 0.68641 0.0
C1124 C 0.82849 0.15891 0.7003 0.0
H1125 H 0.79226 0.1988 0.67088 0.0
H1126 H 0.85749 0.19633 0.67904 0.0
C1127 C 0.79036 0.13899 0.7095 0.0
C1128 C -0.0053 0.40528 0.49926 0.0
C1129 C 0.00063 0.44198 0.49061 0.0
H1130 H 0.96286 0.3619 0.51854 0.0
C1131 C 0.97644 0.46218 0.49467 0.0
H1132 H 0.01291 0.38902 0.49645 0.0
C1133 C 0.94793 0.4468 0.50744 0.0
C1134 C 0.94303 0.41091 0.51636 0.0
H1135 H 0.98036 0.49062 0.48827 0.0
H1136 H 0.93015 0.46339 0.5104 0.0
C1137 C 0.96625 0.38994 0.512 0.0
C1138 C 0.52627 0.44625 0.4989 0.0
C1139 C 0.50974 0.40372 0.49307 0.0
H1140 H 0.52667 0.50693 0.49714 0.0
C1141 C 0.48234 0.39101 0.47983 0.0
H1142 H 0.54775 0.45724 0.50901 0.0
C1143 C 0.47022 0.41964 0.473 0.0
C1144 C 0.48533 0.46152 0.47926 0.0
H1145 H 0.46923 0.35852 0.47502 0.0
H1146 H 0.448 0.40842 0.4631 0.0
C1147 C 0.51425 0.47483 0.49207 0.0
C1148 C 0.44755 0.94796 0.5412 0.0
C1149 C 0.49349 0.96798 0.54103 0.0
H1150 H 0.38649 0.89609 0.5326 0.0
C1151 C 0.51324 0.9502 0.53172 0.0
H1152 H 0.43138 0.96096 0.54826 0.0
C1153 C 0.48754 0.91335 0.52264 0.0
C1154 C 0.4416 0.89334 0.52279 0.0
H1155 H 0.54857 0.96504 0.53129 0.0
H1156 H 0.50376 0.90044 0.51557 0.0
C1157 C 0.42182 0.91087 0.53221 0.0
C1158 C 0.43885 0.02688 0.98914 0.0
C1159 C 0.41825 0.05206 0.9899 0.0
H1160 H 0.44393 0.97669 0.97745 0.0
C1161 C 0.38492 0.04439 0.9791 0.0
H1162 H 0.46458 0.03186 -0.0027 0.0
C1163 C 0.37308 0.01256 0.96755 0.0
C1164 C 0.39435 0.98794 0.96668 0.0
H1165 H 0.36861 0.06348 0.97938 0.0
H1166 H 0.3475 0.0074 0.95929 0.0
C1167 C 0.42707 -0.00474 0.97768 0.0
C1168 C 0.93032 0.50509 0.96688 0.0
C1169 C 0.89802 0.46093 0.96498 0.0
H1170 H -0.00659 0.55736 0.96017 0.0
C1171 C 0.90469 0.43568 0.95393 0.0
H1172 H 0.92611 0.52554 0.97523 0.0
C1173 C 0.94344 0.45405 0.94523 0.0
C1174 C 0.97615 0.49797 0.94743 0.0
H1175 H 0.88029 0.40159 0.95216 0.0
H1176 H 0.94806 0.4336 0.93701 0.0
C1177 C 0.96892 0.5234 0.95821 0.0
C1178 C 0.43278 0.55252 0.98829 0.0
C1179 C 0.4057 0.55243 0.00027 0.0
H1180 H 0.48911 0.54784 0.98231 0.0
C1181 C 0.41632 0.54888 0.0159 0.0
H1182 H 0.42569 0.55556 0.97613 0.0
C1183 C 0.45262 0.54438 0.01944 0.0
C1184 C 0.47928 0.54372 0.00744 0.0
H1185 H 0.3962 0.54889 0.02541 0.0
H1186 H 0.45944 0.54084 0.03158 0.0
C1187 C 0.46932 0.54841 0.99183 0.0
loop_
_geom_bond_atom_site_label_1
_geom_bond_atom_site_label_2
_geom_bond_distance
_geom_bond_site_symmetry_2
_ccdc_geom_bond_type
C0 O1 1.160 . S
C0 O7 1.185 . S
O1 C0 1.160 . S
O2 Zn3 1.899 . S
O2 C10 1.284 . S
Zn3 O2 1.899 . S
Zn3 O4 2.032 . S
Zn3 O7 2.086 . S
Zn3 O12 1.977 . S
O4 Zn3 2.032 . S
O4 C8 1.278 . S
C5 O6 1.203 . S
C5 O12 1.267 . S
O6 C5 1.203 . S
O7 C0 1.185 . S
O7 Zn3 2.086 . S
C8 O4 1.278 . S
C8 O9 1.211 . S
O9 C8 1.211 . S
C10 O2 1.284 . S
C10 O11 1.273 . S
O11 C10 1.273 . S
O12 Zn3 1.977 . S
O12 C5 1.267 . S
C13 O14 1.160 . S
C13 O20 1.185 . S
O14 C13 1.160 . S
O15 Zn16 1.899 . S
O15 C23 1.284 . S
Zn16 O15 1.899 . S
Zn16 O17 2.032 . S
Zn16 O20 2.086 . S
Zn16 O25 1.977 1_545 S
O17 Zn16 2.032 . S
O17 C21 1.278 1_545 S
C18 O19 1.203 . S
C18 O25 1.267 . S
O19 C18 1.203 . S
O20 C13 1.185 . S
O20 Zn16 2.086 . S
C21 O17 1.278 1_565 S
C21 O22 1.211 . S
O22 C21 1.211 . S
C23 O15 1.284 . S
C23 O24 1.273 . S
O24 C23 1.273 . S
O25 Zn16 1.977 1_565 S
O25 C18 1.267 . S
C26 O27 1.160 . S
C26 O33 1.185 . S
O27 C26 1.160 . S
O28 Zn29 1.899 . S
O28 C36 1.284 . S
Zn29 O28 1.899 . S
Zn29 O30 2.032 . S
Zn29 O33 2.086 . S
Zn29 O38 1.977 1_655 S
O30 Zn29 2.032 . S
O30 C34 1.269 1_655 S
C31 O32 1.203 . S
C31 O38 1.267 . S
O32 C31 1.203 . S
O33 C26 1.185 . S
O33 Zn29 2.086 . S
C34 O30 1.269 1_455 S
C34 O35 1.218 . S
O35 C34 1.218 . S
C36 O28 1.284 . S
C36 O37 1.273 . S
O37 C36 1.273 . S
O38 Zn29 1.977 1_455 S
O38 C31 1.267 . S
C39 O40 1.160 . S
C39 O46 1.185 . S
O40 C39 1.160 . S
O41 Zn42 1.899 . S
O41 C49 1.284 . S
Zn42 O41 1.899 . S
Zn42 O43 2.032 . S
Zn42 O46 2.086 . S
Zn42 O51 1.977 . S
O43 Zn42 2.032 . S
O43 C47 1.278 . S
C44 O45 1.203 . S
C44 O51 1.267 . S
O45 C44 1.203 . S
O46 C39 1.185 . S
O46 Zn42 2.086 . S
C47 O43 1.278 . S
C47 O48 1.211 . S
O48 C47 1.211 . S
C49 O41 1.284 . S
C49 O50 1.273 . S
O50 C49 1.273 . S
O51 Zn42 1.977 . S
O51 C44 1.267 . S
C52 O53 1.160 . S
C52 O59 1.185 . S
O53 C52 1.160 . S
O54 Zn55 1.899 . S
O54 C62 1.284 . S
Zn55 O54 1.899 . S
Zn55 O56 2.032 . S
Zn55 O59 2.086 . S
Zn55 O64 1.977 1_565 S
O56 Zn55 2.032 . S
O56 C60 1.278 1_565 S
C57 O58 1.203 . S
C57 O64 1.267 . S
O58 C57 1.203 . S
O59 C52 1.185 . S
O59 Zn55 2.086 . S
C60 O56 1.278 1_545 S
C60 O61 1.211 . S
O61 C60 1.211 . S
C62 O54 1.284 . S
C62 O63 1.273 . S
O63 C62 1.273 . S
O64 Zn55 1.977 1_545 S
O64 C57 1.267 . S
C65 O66 1.160 . S
C65 O72 1.185 . S
O66 C65 1.160 . S
O67 Zn68 1.899 . S
O67 C75 1.284 . S
Zn68 O67 1.899 . S
Zn68 O69 2.032 . S
Zn68 O72 2.086 . S
Zn68 O77 1.977 1_455 S
O69 Zn68 2.032 . S
O69 C73 1.278 1_455 S
C70 O71 1.203 . S
C70 O77 1.267 . S
O71 C70 1.203 . S
O72 C65 1.185 . S
O72 Zn68 2.086 . S
C73 O69 1.278 1_655 S
C73 O74 1.211 . S
O74 C73 1.211 . S
C75 O67 1.284 . S
C75 O76 1.273 . S
O76 C75 1.273 . S
O77 Zn68 1.977 1_655 S
O77 C70 1.267 . S
C78 O79 1.160 . S
C78 O85 1.185 . S
O79 C78 1.160 . S
O80 Zn81 1.899 . S
O80 C88 1.284 . S
Zn81 O80 1.899 . S
Zn81 O82 2.032 . S
Zn81 O85 2.086 . S
Zn81 O90 1.977 . S
O82 Zn81 2.032 . S
O82 C86 1.278 . S
C83 O84 1.203 . S
C83 O90 1.267 . S
O84 C83 1.203 . S
O85 C78 1.185 . S
O85 Zn81 2.086 . S
C86 O82 1.278 . S
C86 O87 1.211 . S
O87 C86 1.211 . S
C88 O80 1.284 . S
C88 O89 1.273 . S
O89 C88 1.273 . S
O90 Zn81 1.977 . S
O90 C83 1.267 . S
C91 O92 1.160 . S
C91 O98 1.185 . S
O92 C91 1.160 . S
O93 Zn94 1.899 . S
O93 C101 1.284 . S
Zn94 O93 1.899 . S
Zn94 O95 2.032 . S
Zn94 O98 2.086 . S
Zn94 O103 1.977 1_565 S
O95 Zn94 2.032 . S
O95 C99 1.278 . S
C96 O97 1.203 . S
C96 O103 1.267 . S
O97 C96 1.203 . S
O98 C91 1.185 . S
O98 Zn94 2.086 . S
C99 O95 1.278 . S
C99 O100 1.211 . S
O100 C99 1.211 . S
C101 O93 1.284 . S
C101 O102 1.273 . S
O102 C101 1.273 . S
O103 Zn94 1.977 1_545 S
O103 C96 1.267 . S
C104 O105 1.160 . S
C104 O111 1.185 . S
O105 C104 1.160 . S
O106 Zn107 1.899 . S
O106 C114 1.284 . S
Zn107 O106 1.899 . S
Zn107 O108 2.032 . S
Zn107 O111 2.086 . S
Zn107 O116 1.977 1_455 S
O108 Zn107 2.032 . S
O108 C112 1.278 . S
C109 O110 1.203 . S
C109 O116 1.267 . S
O110 C109 1.203 . S
O111 C104 1.185 . S
O111 Zn107 2.086 . S
C112 O108 1.278 . S
C112 O113 1.211 . S
O113 C112 1.211 . S
C114 O106 1.284 . S
C114 O115 1.273 . S
O115 C114 1.273 . S
O116 Zn107 1.977 1_655 S
O116 C109 1.267 . S
C117 O118 1.160 . S
C117 O124 1.185 . S
O118 C117 1.160 . S
O119 Zn120 1.899 . S
O119 C127 1.284 . S
Zn120 O119 1.899 . S
Zn120 O121 2.032 . S
Zn120 O124 2.086 . S
Zn120 O129 1.977 . S
O121 Zn120 2.032 . S
O121 C125 1.278 . S
C122 O123 1.203 . S
C122 O129 1.267 . S
O123 C122 1.203 . S
O124 C117 1.185 . S
O124 Zn120 2.086 . S
C125 O121 1.278 . S
C125 O126 1.211 . S
O126 C125 1.211 . S
C127 O119 1.284 . S
C127 O128 1.273 . S
O128 C127 1.273 . S
O129 Zn120 1.977 . S
O129 C122 1.267 . S
C130 O131 1.160 . S
C130 O137 1.185 . S
O131 C130 1.160 . S
O132 Zn133 1.899 . S
O132 C140 1.284 . S
Zn133 O132 1.899 . S
Zn133 O134 2.032 . S
Zn133 O137 2.086 . S
Zn133 O142 1.977 1_545 S
O134 Zn133 2.032 . S
O134 C138 1.278 . S
C135 O136 1.203 . S
C135 O142 1.267 . S
O136 C135 1.203 . S
O137 C130 1.185 . S
O137 Zn133 2.086 . S
C138 O134 1.278 . S
C138 O139 1.211 . S
O139 C138 1.211 . S
C140 O132 1.284 . S
C140 O141 1.273 . S
O141 C140 1.273 . S
O142 Zn133 1.977 1_565 S
O142 C135 1.267 . S
C143 O144 1.160 . S
C143 O150 1.185 . S
O144 C143 1.160 . S
O145 Zn146 1.899 . S
O145 C153 1.284 . S
Zn146 O145 1.899 . S
Zn146 O147 2.032 . S
Zn146 O150 2.086 . S
Zn146 O155 1.977 1_655 S
O147 Zn146 2.032 . S
O147 C151 1.278 . S
C148 O149 1.203 . S
C148 O155 1.267 . S
O149 C148 1.203 . S
O150 C143 1.185 . S
O150 Zn146 2.086 . S
C151 O147 1.278 . S
C151 O152 1.211 . S
O152 C151 1.211 . S
C153 O145 1.284 . S
C153 O154 1.273 . S
O154 C153 1.273 . S
O155 Zn146 1.977 1_455 S
O155 C148 1.267 . S
C156 O157 1.160 . S
C156 O163 1.185 . S
O157 C156 1.160 . S
O158 Zn159 1.899 . S
O158 C166 1.284 . S
Zn159 O158 1.899 . S
Zn159 O160 2.032 . S
Zn159 O163 2.086 . S
Zn159 O168 1.977 . S
O160 Zn159 2.032 . S
O160 C164 1.278 . S
C161 O162 1.203 . S
C161 O168 1.267 . S
O162 C161 1.203 . S
O163 C156 1.185 . S
O163 Zn159 2.086 . S
C164 O160 1.278 . S
C164 O165 1.211 . S
O165 C164 1.211 . S
C166 O158 1.284 . S
C166 O167 1.273 . S
O167 C166 1.273 . S
O168 Zn159 1.977 . S
O168 C161 1.267 . S
C169 O170 1.160 . S
C169 O176 1.185 . S
O170 C169 1.160 . S
O171 Zn172 1.899 . S
O171 C179 1.284 . S
Zn172 O171 1.899 . S
Zn172 O173 2.032 . S
Zn172 O176 2.086 . S
Zn172 O181 1.977 . S
O173 Zn172 2.032 . S
O173 C177 1.278 . S
C174 O175 1.203 . S
C174 O181 1.267 . S
O175 C174 1.203 . S
O176 C169 1.185 . S
O176 Zn172 2.086 . S
C177 O173 1.278 . S
C177 O178 1.211 . S
O178 C177 1.211 . S
C179 O171 1.284 . S
C179 O180 1.273 . S
O180 C179 1.273 . S
O181 Zn172 1.977 . S
O181 C174 1.267 . S
C182 O183 1.160 . S
C182 O189 1.185 . S
O183 C182 1.160 . S
O184 Zn185 1.899 . S
O184 C192 1.284 . S
Zn185 O184 1.899 . S
Zn185 O186 2.032 . S
Zn185 O189 2.086 . S
Zn185 O194 1.977 . S
O186 Zn185 2.032 . S
O186 C190 1.278 . S
C187 O188 1.203 . S
C187 O194 1.267 . S
O188 C187 1.203 . S
O189 C182 1.185 . S
O189 Zn185 2.086 . S
C190 O186 1.278 . S
C190 O191 1.211 . S
O191 C190 1.211 . S
C192 O184 1.284 . S
C192 O193 1.273 . S
O193 C192 1.273 . S
O194 Zn185 1.977 . S
O194 C187 1.267 . S
C195 O196 1.160 . S
C195 O202 1.185 . S
O196 C195 1.160 . S
O197 Zn198 1.899 . S
O197 C205 1.284 . S
Zn198 O197 1.899 . S
Zn198 O199 2.032 . S
Zn198 O202 2.086 . S
Zn198 O207 1.977 . S
O199 Zn198 2.032 . S
O199 C203 1.278 . S
C200 O201 1.203 . S
C200 O207 1.267 . S
O201 C200 1.203 . S
O202 C195 1.185 . S
O202 Zn198 2.086 . S
C203 O199 1.278 . S
C203 O204 1.211 . S
O204 C203 1.211 . S
C205 O197 1.284 . S
C205 O206 1.273 . S
O206 C205 1.273 . S
O207 Zn198 1.977 . S
O207 C200 1.267 . S
C208 O209 1.160 . S
C208 O215 1.185 . S
O209 C208 1.160 . S
O210 Zn211 1.899 . S
O210 C218 1.284 . S
Zn211 O210 1.899 . S
Zn211 O212 2.032 . S
Zn211 O215 2.086 . S
Zn211 O220 1.977 . S
O212 Zn211 2.032 . S
O212 C216 1.278 . S
C213 O214 1.203 . S
C213 O220 1.267 . S
O214 C213 1.203 . S
O215 C208 1.185 . S
O215 Zn211 2.086 . S
C216 O212 1.278 . S
C216 O217 1.211 . S
O217 C216 1.211 . S
C218 O210 1.284 . S
C218 O219 1.273 . S
O219 C218 1.273 . S
O220 Zn211 1.977 . S
O220 C213 1.267 . S
C221 O222 1.160 . S
C221 O228 1.185 . S
O222 C221 1.160 . S
O223 Zn224 1.899 . S
O223 C231 1.284 . S
Zn224 O223 1.899 . S
Zn224 O225 2.032 . S
Zn224 O228 2.086 . S
Zn224 O233 1.977 . S
O225 Zn224 2.032 . S
O225 C229 1.278 . S
C226 O227 1.203 . S
C226 O233 1.267 . S
O227 C226 1.203 . S
O228 C221 1.185 . S
O228 Zn224 2.086 . S
C229 O225 1.278 . S
C229 O230 1.211 . S
O230 C229 1.211 . S
C231 O223 1.284 . S
C231 O232 1.273 . S
O232 C231 1.273 . S
O233 Zn224 1.977 . S
O233 C226 1.267 . S
C234 O235 1.160 . S
C234 O241 1.185 . S
O235 C234 1.160 . S
O236 Zn237 1.899 . S
O236 C244 1.284 . S
Zn237 O236 1.899 . S
Zn237 O238 2.032 . S
Zn237 O241 2.086 . S
Zn237 O246 1.977 . S
O238 Zn237 2.032 . S
O238 C242 1.278 . S
C239 O240 1.203 . S
C239 O246 1.267 . S
O240 C239 1.203 . S
O241 C234 1.185 . S
O241 Zn237 2.086 . S
C242 O238 1.278 . S
C242 O243 1.211 . S
O243 C242 1.211 . S
C244 O236 1.284 . S
C244 O245 1.273 . S
O245 C244 1.273 . S
O246 Zn237 1.977 . S
O246 C239 1.267 . S
C247 O248 1.160 . S
C247 O254 1.185 . S
O248 C247 1.160 . S
O249 Zn250 1.899 . S
O249 C257 1.284 . S
Zn250 O249 1.899 . S
Zn250 O251 2.032 . S
Zn250 O254 2.086 . S
Zn250 O259 1.977 . S
O251 Zn250 2.032 . S
O251 C255 1.278 . S
C252 O253 1.203 . S
C252 O259 1.267 . S
O253 C252 1.203 . S
O254 C247 1.185 . S
O254 Zn250 2.086 . S
C255 O251 1.278 . S
C255 O256 1.211 . S
O256 C255 1.211 . S
C257 O249 1.284 . S
C257 O258 1.273 . S
O258 C257 1.273 . S
O259 Zn250 1.977 . S
O259 C252 1.267 . S
C260 O261 1.160 . S
C260 O267 1.185 . S
O261 C260 1.160 . S
O262 Zn263 1.899 . S
O262 C270 1.284 . S
Zn263 O262 1.899 . S
Zn263 O264 2.032 . S
Zn263 O267 2.086 . S
Zn263 O272 1.977 . S
O264 Zn263 2.032 . S
O264 C268 1.278 . S
C265 O266 1.203 . S
C265 O272 1.267 . S
O266 C265 1.203 . S
O267 C260 1.185 . S
O267 Zn263 2.086 . S
C268 O264 1.278 . S
C268 O269 1.211 . S
O269 C268 1.211 . S
C270 O262 1.284 . S
C270 O271 1.273 . S
O271 C270 1.273 . S
O272 Zn263 1.977 . S
O272 C265 1.267 . S
C273 O274 1.160 . S
C273 O280 1.185 . S
O274 C273 1.160 . S
O275 Zn276 1.899 . S
O275 C283 1.284 . S
Zn276 O275 1.899 . S
Zn276 O277 2.032 . S
Zn276 O280 2.086 . S
Zn276 O285 1.977 . S
O277 Zn276 2.032 . S
O277 C281 1.278 . S
C278 O279 1.203 . S
C278 O285 1.267 . S
O279 C278 1.203 . S
O280 C273 1.185 . S
O280 Zn276 2.086 . S
C281 O277 1.278 . S
C281 O282 1.211 . S
O282 C281 1.211 . S
C283 O275 1.284 . S
C283 O284 1.273 . S
O284 C283 1.273 . S
O285 Zn276 1.977 . S
O285 C278 1.267 . S
C286 O287 1.160 . S
C286 O293 1.185 . S
O287 C286 1.160 . S
O288 Zn289 1.899 . S
O288 C296 1.284 . S
Zn289 O288 1.899 . S
Zn289 O290 2.032 . S
Zn289 O293 2.086 . S
Zn289 O298 1.977 . S
O290 Zn289 2.032 . S
O290 C294 1.278 . S
C291 O292 1.203 . S
C291 O298 1.267 . S
O292 C291 1.203 . S
O293 C286 1.185 . S
O293 Zn289 2.086 . S
C294 O290 1.278 . S
C294 O295 1.211 . S
O295 C294 1.211 . S
C296 O288 1.284 . S
C296 O297 1.273 . S
O297 C296 1.273 . S
O298 Zn289 1.977 . S
O298 C291 1.267 . S
C299 O300 1.160 . S
C299 O306 1.185 . S
O300 C299 1.160 . S
O301 Zn302 1.899 . S
O301 C309 1.284 . S
Zn302 O301 1.899 . S
Zn302 O303 2.032 . S
Zn302 O306 2.086 . S
Zn302 O311 1.977 . S
O303 Zn302 2.032 . S
O303 C307 1.278 . S
C304 O305 1.203 . S
C304 O311 1.267 . S
O305 C304 1.203 . S
O306 C299 1.185 . S
O306 Zn302 2.086 . S
C307 O303 1.278 . S
C307 O308 1.211 . S
O308 C307 1.211 . S
C309 O301 1.284 . S
C309 O310 1.273 . S
O310 C309 1.273 . S
O311 Zn302 1.977 . S
O311 C304 1.267 . S
C312 O313 1.160 . S
C312 O319 1.185 . S
O313 C312 1.160 . S
O314 Zn315 1.899 . S
O314 C322 1.284 . S
Zn315 O314 1.899 . S
Zn315 O316 2.032 . S
Zn315 O319 2.086 . S
Zn315 O324 1.977 . S
O316 Zn315 2.032 . S
O316 C320 1.278 . S
C317 O318 1.203 . S
C317 O324 1.267 . S
O318 C317 1.203 . S
O319 C312 1.185 . S
O319 Zn315 2.086 . S
C320 O316 1.278 . S
C320 O321 1.211 . S
O321 C320 1.211 . S
C322 O314 1.284 . S
C322 O323 1.273 . S
O323 C322 1.273 . S
O324 Zn315 1.977 . S
O324 C317 1.267 . S
C325 O326 1.160 . S
C325 O332 1.185 . S
O326 C325 1.160 . S
O327 Zn328 1.899 . S
O327 C335 1.284 . S
Zn328 O327 1.899 . S
Zn328 O329 2.032 . S
Zn328 O332 2.086 . S
Zn328 O337 1.977 . S
O329 Zn328 2.032 . S
O329 C333 1.278 . S
C330 O331 1.203 . S
C330 O337 1.267 . S
O331 C330 1.203 . S
O332 C325 1.185 . S
O332 Zn328 2.086 . S
C333 O329 1.278 . S
C333 O334 1.211 . S
O334 C333 1.211 . S
C335 O327 1.284 . S
C335 O336 1.273 . S
O336 C335 1.273 . S
O337 Zn328 1.977 . S
O337 C330 1.267 . S
C338 O339 1.160 . S
C338 O345 1.185 . S
O339 C338 1.160 . S
O340 Zn341 1.899 . S
O340 C348 1.284 . S
Zn341 O340 1.899 . S
Zn341 O342 2.032 . S
Zn341 O345 2.086 . S
Zn341 O350 1.977 . S
O342 Zn341 2.032 . S
O342 C346 1.278 . S
C343 O344 1.203 . S
C343 O350 1.267 . S
O344 C343 1.203 . S
O345 C338 1.185 . S
O345 Zn341 2.086 . S
C346 O342 1.278 . S
C346 O347 1.211 . S
O347 C346 1.211 . S
C348 O340 1.284 . S
C348 O349 1.273 . S
O349 C348 1.273 . S
O350 Zn341 1.977 . S
O350 C343 1.267 . S
C351 O352 1.171 . S
C351 O358 1.185 . S
O352 C351 1.171 . S
O353 Zn354 1.899 . S
O353 C361 1.284 . S
Zn354 O353 1.899 . S
Zn354 O355 2.032 . S
Zn354 O358 2.117 . S
Zn354 O363 1.977 . S
O355 Zn354 2.032 . S
O355 C359 1.278 . S
C356 O357 1.203 . S
C356 O363 1.267 . S
O357 C356 1.203 . S
O358 C351 1.185 . S
O358 Zn354 2.117 . S
C359 O355 1.278 . S
C359 O360 1.211 . S
O360 C359 1.211 . S
C361 O353 1.284 . S
C361 O362 1.273 . S
O362 C361 1.273 . S
O363 Zn354 1.977 . S
O363 C356 1.267 . S
C364 O365 1.170 . S
C364 O371 1.185 . S
O365 C364 1.170 . S
O366 Zn367 1.899 . S
O366 C374 1.284 . S
Zn367 O366 1.899 . S
Zn367 O368 2.032 . S
Zn367 O371 2.116 . S
Zn367 O376 1.977 . S
O368 Zn367 2.032 . S
O368 C372 1.278 . S
C369 O370 1.203 . S
C369 O376 1.267 . S
O370 C369 1.203 . S
O371 C364 1.185 . S
O371 Zn367 2.116 . S
C372 O368 1.278 . S
C372 O373 1.211 . S
O373 C372 1.211 . S
C374 O366 1.284 . S
C374 O375 1.273 . S
O375 C374 1.273 . S
O376 Zn367 1.977 . S
O376 C369 1.267 . S
C377 O378 1.171 . S
C377 O384 1.185 . S
O378 C377 1.171 . S
O379 Zn380 1.899 . S
O379 C387 1.284 . S
Zn380 O379 1.899 . S
Zn380 O381 2.032 . S
Zn380 O384 2.116 . S
Zn380 O389 1.977 . S
O381 Zn380 2.032 . S
O381 C385 1.278 . S
C382 O383 1.203 . S
C382 O389 1.267 . S
O383 C382 1.203 . S
O384 C377 1.185 . S
O384 Zn380 2.116 . S
C385 O381 1.278 . S
C385 O386 1.211 . S
O386 C385 1.211 . S
C387 O379 1.284 . S
C387 O388 1.273 . S
O388 C387 1.273 . S
O389 Zn380 1.977 . S
O389 C382 1.267 . S
C390 O391 1.160 . S
C390 O397 1.185 . S
O391 C390 1.160 . S
O392 Zn393 1.899 . S
O392 C400 1.284 . S
Zn393 O392 1.899 . S
Zn393 O394 2.032 . S
Zn393 O397 2.086 . S
Zn393 O402 1.977 . S
O394 Zn393 2.032 . S
O394 C398 1.278 . S
C395 O396 1.203 . S
C395 O402 1.267 . S
O396 C395 1.203 . S
O397 C390 1.185 . S
O397 Zn393 2.086 . S
C398 O394 1.278 . S
C398 O399 1.211 . S
O399 C398 1.211 . S
C400 O392 1.284 . S
C400 O401 1.273 . S
O401 C400 1.273 . S
O402 Zn393 1.977 . S
O402 C395 1.267 . S
C403 O404 1.160 . S
C403 O410 1.185 . S
O404 C403 1.160 . S
O405 Zn406 1.899 . S
O405 C413 1.284 . S
Zn406 O405 1.899 . S
Zn406 O407 2.032 . S
Zn406 O410 2.086 . S
Zn406 O415 1.977 . S
O407 Zn406 2.032 . S
O407 C411 1.278 . S
C408 O409 1.203 . S
C408 O415 1.267 . S
O409 C408 1.203 . S
O410 C403 1.185 . S
O410 Zn406 2.086 . S
C411 O407 1.278 . S
C411 O412 1.211 . S
O412 C411 1.211 . S
C413 O405 1.284 . S
C413 O414 1.273 . S
O414 C413 1.273 . S
O415 Zn406 1.977 . S
O415 C408 1.267 . S
C416 O417 1.160 . S
C416 O423 1.185 . S
O417 C416 1.160 . S
O418 Zn419 1.899 . S
O418 C426 1.284 . S
Zn419 O418 1.899 . S
Zn419 O420 2.032 . S
Zn419 O423 2.086 . S
Zn419 O428 1.977 . S
O420 Zn419 2.032 . S
O420 C424 1.278 . S
C421 O422 1.203 . S
C421 O428 1.267 . S
O422 C421 1.203 . S
O423 C416 1.185 . S
O423 Zn419 2.086 . S
C424 O420 1.278 . S
C424 O425 1.211 . S
O425 C424 1.211 . S
C426 O418 1.284 . S
C426 O427 1.273 . S
O427 C426 1.273 . S
O428 Zn419 1.977 . S
O428 C421 1.267 . S
C429 O430 1.160 . S
C429 O436 1.185 . S
O430 C429 1.160 . S
O431 Zn432 1.899 . S
O431 C439 1.284 . S
Zn432 O431 1.899 . S
Zn432 O433 2.032 . S
Zn432 O436 2.086 . S
Zn432 O441 1.977 . S
O433 Zn432 2.032 . S
O433 C437 1.278 . S
C434 O435 1.203 . S
C434 O441 1.267 . S
O435 C434 1.203 . S
O436 C429 1.185 . S
O436 Zn432 2.086 . S
C437 O433 1.278 . S
C437 O438 1.211 . S
O438 C437 1.211 . S
C439 O431 1.284 . S
C439 O440 1.273 . S
O440 C439 1.273 . S
O441 Zn432 1.977 . S
O441 C434 1.267 . S
C442 O443 1.160 . S
C442 O449 1.185 . S
O443 C442 1.160 . S
O444 Zn445 1.899 . S
O444 C452 1.284 . S
Zn445 O444 1.899 . S
Zn445 O446 2.032 . S
Zn445 O449 2.086 . S
Zn445 O454 1.977 . S
O446 Zn445 2.032 . S
O446 C450 1.278 . S
C447 O448 1.203 . S
C447 O454 1.267 . S
O448 C447 1.203 . S
O449 C442 1.185 . S
O449 Zn445 2.086 . S
C450 O446 1.278 . S
C450 O451 1.211 . S
O451 C450 1.211 . S
C452 O444 1.284 . S
C452 O453 1.273 . S
O453 C452 1.273 . S
O454 Zn445 1.977 . S
O454 C447 1.267 . S
C455 O456 1.160 . S
C455 O462 1.185 . S
O456 C455 1.160 . S
O457 Zn458 1.899 . S
O457 C465 1.284 . S
Zn458 O457 1.899 . S
Zn458 O459 2.032 . S
Zn458 O462 2.086 . S
Zn458 O467 1.977 . S
O459 Zn458 2.032 . S
O459 C463 1.278 . S
C460 O461 1.203 . S
C460 O467 1.267 . S
O461 C460 1.203 . S
O462 C455 1.185 . S
O462 Zn458 2.086 . S
C463 O459 1.278 . S
C463 O464 1.211 . S
O464 C463 1.211 . S
C465 O457 1.284 . S
C465 O466 1.273 . S
O466 C465 1.273 . S
O467 Zn458 1.977 . S
O467 C460 1.267 . S
C468 C469 1.387 . S
C468 H472 0.950 . S
C468 C477 1.390 1_455 S
C469 C468 1.387 . S
C469 C471 1.387 . S
H470 C477 0.950 . S
C471 C469 1.387 . S
C471 C473 1.390 . S
C471 H475 0.950 . S
H472 C468 0.950 . S
C473 C471 1.390 . S
C473 C474 1.387 1_455 S
C473 H476 0.950 1_455 S
C474 C473 1.387 1_655 S
C474 C477 1.387 . S
H475 C471 0.950 . S
H476 C473 0.950 1_655 S
C477 C468 1.390 1_655 S
C477 H470 0.950 . S
C477 C474 1.387 . S
C478 C479 1.387 . S
C478 H482 0.950 . S
C478 C487 1.390 . S
C479 C478 1.387 . S
C479 C481 1.387 . S
H480 C487 0.950 . S
C481 C479 1.387 . S
C481 C483 1.390 . S
C481 H485 0.950 . S
H482 C478 0.950 . S
C483 C481 1.390 . S
C483 C484 1.387 . S
C483 H486 0.950 . S
C484 C483 1.387 . S
C484 C487 1.387 . S
H485 C481 0.950 . S
H486 C483 0.950 . S
C487 C478 1.390 . S
C487 H480 0.950 . S
C487 C484 1.387 . S
C488 C489 1.387 . S
C488 H492 0.950 . S
C488 C497 1.390 1_545 S
C489 C488 1.387 . S
C489 C491 1.387 1_545 S
H490 C497 0.950 . S
C491 C489 1.387 1_565 S
C491 C493 1.390 . S
C491 H495 0.950 . S
H492 C488 0.950 . S
C493 C491 1.390 . S
C493 C494 1.387 . S
C493 H496 0.950 . S
C494 C493 1.387 . S
C494 C497 1.387 . S
H495 C491 0.950 . S
H496 C493 0.950 . S
C497 C488 1.390 1_565 S
C497 H490 0.950 . S
C497 C494 1.387 . S
C498 C499 1.387 . S
C498 H502 0.950 . S
C498 C507 1.390 1_545 S
C499 C498 1.387 . S
C499 C501 1.387 . S
H500 C507 0.950 . S
C501 C499 1.387 . S
C501 C503 1.390 . S
C501 H505 0.950 . S
H502 C498 0.950 . S
C503 C501 1.390 . S
C503 C504 1.387 1_545 S
C503 H506 0.948 1_545 S
C504 C503 1.387 1_565 S
C504 C507 1.387 . S
H505 C501 0.950 . S
H506 C503 0.948 1_565 S
C507 C498 1.390 1_565 S
C507 H500 0.950 . S
C507 C504 1.387 . S
C508 C509 1.387 . S
C508 H512 0.950 . S
C508 C517 1.390 1_655 S
C509 C508 1.387 . S
C509 C511 1.387 . S
H510 C517 0.950 . S
C511 C509 1.387 . S
C511 C513 1.390 . S
C511 H515 0.950 . S
H512 C508 0.950 . S
C513 C511 1.390 . S
C513 C514 1.387 1_655 S
C513 H516 0.950 . S
C514 C513 1.387 1_455 S
C514 C517 1.387 . S
H515 C511 0.950 . S
H516 C513 0.950 . S
C517 C508 1.390 1_455 S
C517 H510 0.950 . S
C517 C514 1.387 . S
C518 C519 1.387 . S
C518 H522 0.950 . S
C518 C527 1.390 . S
C519 C518 1.387 . S
C519 C521 1.387 . S
H520 C527 0.950 . S
C521 C519 1.387 . S
C521 C523 1.390 . S
C521 H525 0.950 . S
H522 C518 0.950 . S
C523 C521 1.390 . S
C523 C524 1.387 . S
C523 H526 0.950 . S
C524 C523 1.387 . S
C524 C527 1.387 . S
H525 C521 0.950 . S
H526 C523 0.950 . S
C527 C518 1.390 . S
C527 H520 0.950 . S
C527 C524 1.387 . S
C528 C529 1.387 . S
C528 H532 0.950 . S
C528 C537 1.390 . S
C529 C528 1.387 . S
C529 C531 1.387 . S
H530 C537 0.950 1_455 S
C531 C529 1.387 . S
C531 C533 1.383 1_655 S
C531 H535 0.950 . S
H532 C528 0.950 . S
C533 C531 1.383 1_455 S
C533 C534 1.387 . S
C533 H536 0.957 . S
C534 C533 1.387 . S
C534 C537 1.387 1_455 S
H535 C531 0.950 . S
H536 C533 0.957 . S
C537 C528 1.390 . S
C537 H530 0.950 1_655 S
C537 C534 1.387 1_655 S
C538 C539 1.387 . S
C538 H542 0.950 . S
C538 C547 1.390 . S
C539 C538 1.387 . S
C539 C541 1.387 . S
H540 C547 0.950 . S
C541 C539 1.387 . S
C541 C543 1.390 . S
C541 H545 0.950 . S
H542 C538 0.950 . S
C543 C541 1.390 . S
C543 C544 1.387 . S
C543 H546 0.950 . S
C544 C543 1.387 . S
C544 C547 1.387 . S
H545 C541 0.950 . S
H546 C543 0.950 . S
C547 C538 1.390 . S
C547 H540 0.950 . S
C547 C544 1.387 . S
C548 C549 1.387 . S
C548 H552 0.950 . S
C548 C557 1.390 1_565 S
C549 C548 1.387 . S
C549 C551 1.387 1_565 S
H550 C557 0.950 . S
C551 C549 1.387 1_545 S
C551 C553 1.390 . S
C551 H555 0.950 1_545 S
H552 C548 0.950 . S
C553 C551 1.390 . S
C553 C554 1.387 . S
C553 H556 0.950 . S
C554 C553 1.387 . S
C554 C557 1.387 . S
H555 C551 0.950 1_565 S
H556 C553 0.950 . S
C557 C548 1.390 1_545 S
C557 H550 0.950 . S
C557 C554 1.387 . S
C558 C559 1.387 1_565 S
C558 H562 0.950 1_565 S
C558 C567 1.390 . S
C559 C558 1.387 1_545 S
C559 C561 1.387 . S
H560 C567 0.950 . S
C561 C559 1.387 . S
C561 C563 1.390 1_545 S
C561 H565 0.950 . S
H562 C558 0.950 1_545 S
C563 C561 1.390 1_565 S
C563 C564 1.387 . S
C563 H566 0.950 . S
C564 C563 1.387 . S
C564 C567 1.387 . S
H565 C561 0.950 . S
H566 C563 0.950 . S
C567 C558 1.390 . S
C567 H560 0.950 . S
C567 C564 1.387 . S
C568 C569 1.387 . S
C568 H572 0.950 . S
C568 C577 1.390 1_455 S
C569 C568 1.387 . S
C569 C571 1.387 . S
H570 C577 0.950 . S
C571 C569 1.387 . S
C571 C573 1.390 . S
C571 H575 0.950 . S
H572 C568 0.950 . S
C573 C571 1.390 . S
C573 C574 1.387 1_455 S
C573 H576 0.950 . S
C574 C573 1.387 1_655 S
C574 C577 1.387 . S
H575 C571 0.950 . S
H576 C573 0.950 . S
C577 C568 1.390 1_655 S
C577 H570 0.950 . S
C577 C574 1.387 . S
C578 C579 1.387 . S
C578 H582 0.950 . S
C578 C587 1.390 . S
C579 C578 1.387 . S
C579 C581 1.387 . S
H580 C587 0.950 . S
C581 C579 1.387 . S
C581 C583 1.390 . S
C581 H585 0.950 . S
H582 C578 0.950 . S
C583 C581 1.390 . S
C583 C584 1.387 . S
C583 H586 0.950 . S
C584 C583 1.387 . S
C584 C587 1.387 . S
H585 C581 0.950 . S
H586 C583 0.950 . S
C587 C578 1.390 . S
C587 H580 0.950 . S
C587 C584 1.387 . S
C588 C589 1.387 . S
C588 H592 0.950 . S
C588 C597 1.390 . S
C589 C588 1.387 . S
C589 C591 1.387 . S
H590 C597 0.950 . S
C591 C589 1.387 . S
C591 C593 1.390 . S
C591 H595 0.950 . S
H592 C588 0.950 . S
C593 C591 1.390 . S
C593 C594 1.387 . S
C593 H596 0.950 . S
C594 C593 1.387 . S
C594 C597 1.387 . S
H595 C591 0.950 . S
H596 C593 0.950 . S
C597 C588 1.390 . S
C597 H590 0.950 . S
C597 C594 1.387 . S
C598 C599 1.387 . S
C598 H602 0.950 . S
C598 C607 1.390 . S
C599 C598 1.387 . S
C599 C601 1.387 . S
H600 C607 0.950 . S
C601 C599 1.387 . S
C601 C603 1.390 . S
C601 H605 0.950 . S
H602 C598 0.950 . S
C603 C601 1.390 . S
C603 C604 1.387 . S
C603 H606 0.950 . S
C604 C603 1.387 . S
C604 C607 1.387 . S
H605 C601 0.950 . S
H606 C603 0.950 . S
C607 C598 1.390 . S
C607 H600 0.950 . S
C607 C604 1.387 . S
C608 C609 1.387 . S
C608 H612 0.950 . S
C608 C617 1.390 . S
C609 C608 1.387 . S
C609 C611 1.387 . S
H610 C617 0.950 . S
C611 C609 1.387 . S
C611 C613 1.390 . S
C611 H615 0.950 . S
H612 C608 0.950 . S
C613 C611 1.390 . S
C613 C614 1.387 . S
C613 H616 0.950 . S
C614 C613 1.387 . S
C614 C617 1.387 . S
H615 C611 0.950 . S
H616 C613 0.950 . S
C617 C608 1.390 . S
C617 H610 0.950 . S
C617 C614 1.387 . S
C618 C619 1.387 . S
C618 H622 0.950 . S
C618 C627 1.390 . S
C619 C618 1.387 . S
C619 C621 1.387 . S
H620 C627 0.950 . S
C621 C619 1.387 . S
C621 C623 1.390 . S
C621 H625 0.950 . S
H622 C618 0.950 . S
C623 C621 1.390 . S
C623 C624 1.387 . S
C623 H626 0.950 . S
C624 C623 1.387 . S
C624 C627 1.387 . S
H625 C621 0.950 . S
H626 C623 0.950 . S
C627 C618 1.390 . S
C627 H620 0.950 . S
C627 C624 1.387 . S
C628 C629 1.387 . S
C628 H632 0.950 . S
C628 C637 1.390 . S
C629 C628 1.387 . S
C629 C631 1.387 . S
H630 C637 0.950 . S
C631 C629 1.387 . S
C631 C633 1.390 . S
C631 H635 0.950 . S
H632 C628 0.950 . S
C633 C631 1.390 . S
C633 C634 1.387 . S
C633 H636 0.950 . S
C634 C633 1.387 . S
C634 C637 1.387 . S
H635 C631 0.950 . S
H636 C633 0.950 . S
C637 C628 1.390 . S
C637 H630 0.950 . S
C637 C634 1.387 . S
C638 C639 1.387 . S
C638 H642 0.950 . S
C638 C647 1.390 . S
C639 C638 1.387 . S
C639 C641 1.387 . S
H640 C647 0.950 . S
C641 C639 1.387 . S
C641 C643 1.390 . S
C641 H645 0.950 . S
H642 C638 0.950 . S
C643 C641 1.390 . S
C643 C644 1.387 . S
C643 H646 0.950 . S
C644 C643 1.387 . S
C644 C647 1.387 . S
H645 C641 0.950 . S
H646 C643 0.950 . S
C647 C638 1.390 . S
C647 H640 0.950 . S
C647 C644 1.387 . S
C648 C649 1.387 . S
C648 H652 0.950 . S
C648 C657 1.390 . S
C649 C648 1.387 . S
C649 C651 1.387 . S
H650 C657 0.950 . S
C651 C649 1.387 . S
C651 C653 1.390 . S
C651 H655 0.950 . S
H652 C648 0.950 . S
C653 C651 1.390 . S
C653 C654 1.387 . S
C653 H656 0.950 . S
C654 C653 1.387 . S
C654 C657 1.387 . S
H655 C651 0.950 . S
H656 C653 0.950 . S
C657 C648 1.390 . S
C657 H650 0.950 . S
C657 C654 1.387 . S
C658 C659 1.387 . S
C658 H662 0.950 . S
C658 C667 1.390 . S
C659 C658 1.387 . S
C659 C661 1.387 . S
H660 C667 0.950 . S
C661 C659 1.387 . S
C661 C663 1.390 . S
C661 H665 0.950 . S
H662 C658 0.950 . S
C663 C661 1.390 . S
C663 C664 1.387 . S
C663 H666 0.950 . S
C664 C663 1.387 . S
C664 C667 1.387 . S
H665 C661 0.950 . S
H666 C663 0.950 . S
C667 C658 1.390 . S
C667 H660 0.950 . S
C667 C664 1.387 . S
C668 C669 1.387 . S
C668 H672 0.950 . S
C668 C677 1.390 . S
C669 C668 1.387 . S
C669 C671 1.387 . S
H670 C677 0.950 . S
C671 C669 1.387 . S
C671 C673 1.390 . S
C671 H675 0.950 . S
H672 C668 0.950 . S
C673 C671 1.390 . S
C673 C674 1.387 . S
C673 H676 0.950 . S
C674 C673 1.387 . S
C674 C677 1.387 . S
H675 C671 0.950 . S
H676 C673 0.950 . S
C677 C668 1.390 . S
C677 H670 0.950 . S
C677 C674 1.387 . S
C678 C679 1.387 . S
C678 H682 0.950 1_554 S
C678 C687 1.397 . S
C679 C678 1.387 . S
C679 C681 1.387 . S
H680 C687 0.922 1_556 S
C681 C679 1.387 . S
C681 C683 1.390 . S
C681 H685 0.950 . S
H682 C678 0.950 1_556 S
C683 C681 1.390 . S
C683 C684 1.387 . S
C683 H686 0.950 . S
C684 C683 1.387 . S
C684 C687 1.409 . S
H685 C681 0.950 . S
H686 C683 0.950 . S
C687 C678 1.397 . S
C687 H680 0.922 1_554 S
C687 C684 1.409 . S
C688 C689 1.387 . S
C688 H692 0.950 . S
C688 C697 1.390 . S
C689 C688 1.387 . S
C689 C691 1.422 . S
H690 C697 0.950 . S
C691 C689 1.422 . S
C691 C693 1.402 . S
C691 H695 0.905 1_554 S
H692 C688 0.950 . S
C693 C691 1.402 . S
C693 C694 1.387 . S
C693 H696 0.950 1_554 S
C694 C693 1.387 . S
C694 C697 1.387 . S
H695 C691 0.905 1_556 S
H696 C693 0.950 1_556 S
C697 C688 1.390 . S
C697 H690 0.950 . S
C697 C694 1.387 . S
C698 C699 1.387 . S
C698 H702 0.950 1_554 S
C698 C707 1.384 1_554 S
C699 C698 1.387 . S
C699 C701 1.387 . S
H700 C707 0.981 . S
C701 C699 1.387 . S
C701 C703 1.390 . S
C701 H705 0.950 . S
H702 C698 0.950 1_556 S
C703 C701 1.390 . S
C703 C704 1.387 . S
C703 H706 0.950 . S
C704 C703 1.387 . S
C704 C707 1.364 1_554 S
H705 C701 0.950 . S
H706 C703 0.950 . S
C707 C698 1.384 1_556 S
C707 H700 0.981 . S
C707 C704 1.364 1_556 S
C708 C709 1.387 . S
C708 H712 0.950 . S
C708 C717 1.390 . S
C709 C708 1.387 . S
C709 C711 1.387 . S
H710 C717 0.950 . S
C711 C709 1.387 . S
C711 C713 1.390 . S
C711 H715 0.950 . S
H712 C708 0.950 . S
C713 C711 1.390 . S
C713 C714 1.387 . S
C713 H716 0.950 . S
C714 C713 1.387 . S
C714 C717 1.387 . S
H715 C711 0.950 . S
H716 C713 0.950 . S
C717 C708 1.390 . S
C717 H710 0.950 . S
C717 C714 1.387 . S
C718 C719 1.387 . S
C718 H722 0.950 . S
C718 C727 1.390 . S
C719 C718 1.387 . S
C719 C721 1.387 . S
H720 C727 0.950 . S
C721 C719 1.387 . S
C721 C723 1.390 . S
C721 H725 0.950 . S
H722 C718 0.950 . S
C723 C721 1.390 . S
C723 C724 1.387 . S
C723 H726 0.950 . S
C724 C723 1.387 . S
C724 C727 1.387 . S
H725 C721 0.950 . S
H726 C723 0.950 . S
C727 C718 1.390 . S
C727 H720 0.950 . S
C727 C724 1.387 . S
C728 C729 1.387 . S
C728 H732 0.950 . S
C728 C737 1.390 . S
C729 C728 1.387 . S
C729 C731 1.387 . S
H730 C737 0.950 . S
C731 C729 1.387 . S
C731 C733 1.390 . S
C731 H735 0.950 . S
H732 C728 0.950 . S
C733 C731 1.390 . S
C733 C734 1.387 . S
C733 H736 0.950 . S
C734 C733 1.387 . S
C734 C737 1.387 . S
H735 C731 0.950 . S
H736 C733 0.950 . S
C737 C728 1.390 . S
C737 H730 0.950 . S
C737 C734 1.387 . S
C738 C739 1.387 . S
C738 H742 0.950 . S
C738 C747 1.390 . S
C739 C738 1.387 . S
C739 C741 1.387 1_556 S
H740 C747 0.950 . S
C741 C739 1.387 1_554 S
C741 C743 1.390 . S
C741 H745 0.950 . S
H742 C738 0.950 . S
C743 C741 1.390 . S
C743 C744 1.387 1_554 S
C743 H746 0.950 . S
C744 C743 1.387 1_556 S
C744 C747 1.387 . S
H745 C741 0.950 . S
H746 C743 0.950 . S
C747 C738 1.390 . S
C747 H740 0.950 . S
C747 C744 1.387 . S
C748 C749 1.387 . S
C748 H752 0.950 . S
C748 C757 1.390 . S
C749 C748 1.387 . S
C749 C751 1.390 1_556 S
H750 C757 0.950 . S
C751 C749 1.390 1_554 S
C751 C753 1.392 1_554 S
C751 H755 0.946 . S
H752 C748 0.950 . S
C753 C751 1.392 1_556 S
C753 C754 1.387 . S
C753 H756 0.967 . S
C754 C753 1.387 . S
C754 C757 1.387 . S
H755 C751 0.946 . S
H756 C753 0.967 . S
C757 C748 1.390 . S
C757 H750 0.950 . S
C757 C754 1.387 . S
C758 C759 1.387 1_554 S
C758 H762 0.950 . S
C758 C767 1.390 . S
C759 C758 1.387 1_556 S
C759 C761 1.387 . S
H760 C767 0.950 . S
C761 C759 1.387 . S
C761 C763 1.390 . S
C761 H765 0.950 . S
H762 C758 0.950 . S
C763 C761 1.390 . S
C763 C764 1.387 . S
C763 H766 0.950 . S
C764 C763 1.387 . S
C764 C767 1.387 1_556 S
H765 C761 0.950 . S
H766 C763 0.950 . S
C767 C758 1.390 . S
C767 H760 0.950 . S
C767 C764 1.387 1_554 S
C768 C769 1.387 . S
C768 H772 0.950 . S
C768 C777 1.390 . S
C769 C768 1.387 . S
C769 C771 1.387 . S
H770 C777 0.950 . S
C771 C769 1.387 . S
C771 C773 1.390 . S
C771 H775 0.950 . S
H772 C768 0.950 . S
C773 C771 1.390 . S
C773 C774 1.387 . S
C773 H776 0.950 . S
C774 C773 1.387 . S
C774 C777 1.387 . S
H775 C771 0.950 . S
H776 C773 0.950 . S
C777 C768 1.390 . S
C777 H770 0.950 . S
C777 C774 1.387 . S
C778 C779 1.387 . S
C778 H782 0.950 . S
C778 C787 1.390 . S
C779 C778 1.387 . S
C779 C781 1.387 . S
H780 C787 0.950 . S
C781 C779 1.387 . S
C781 C783 1.390 . S
C781 H785 0.950 . S
H782 C778 0.950 . S
C783 C781 1.390 . S
C783 C784 1.387 . S
C783 H786 0.950 . S
C784 C783 1.387 . S
C784 C787 1.387 . S
H785 C781 0.950 . S
H786 C783 0.950 . S
C787 C778 1.390 . S
C787 H780 0.950 . S
C787 C784 1.387 . S
C788 C789 1.387 . S
C788 H792 0.950 . S
C788 C797 1.390 . S
C789 C788 1.387 . S
C789 C791 1.387 . S
H790 C797 0.950 . S
C791 C789 1.387 . S
C791 C793 1.390 . S
C791 H795 0.950 . S
H792 C788 0.950 . S
C793 C791 1.390 . S
C793 C794 1.387 . S
C793 H796 0.950 . S
C794 C793 1.387 . S
C794 C797 1.387 . S
H795 C791 0.950 . S
H796 C793 0.950 . S
C797 C788 1.390 . S
C797 H790 0.950 . S
C797 C794 1.387 . S
C798 C799 1.387 . S
C798 H802 0.950 . S
C798 C807 1.390 . S
C799 C798 1.387 . S
C799 C801 1.387 . S
H800 C807 0.950 . S
C801 C799 1.387 . S
C801 C803 1.390 . S
C801 H805 0.950 . S
H802 C798 0.950 . S
C803 C801 1.390 . S
C803 C804 1.387 . S
C803 H806 0.950 . S
C804 C803 1.387 . S
C804 C807 1.387 . S
H805 C801 0.950 . S
H806 C803 0.950 . S
C807 C798 1.390 . S
C807 H800 0.950 . S
C807 C804 1.387 . S
C808 C809 1.387 . S
C808 H812 0.950 . S
C808 C817 1.390 . S
C809 C808 1.387 . S
C809 C811 1.387 . S
H810 C817 0.950 . S
C811 C809 1.387 . S
C811 C813 1.390 . S
C811 H815 0.950 . S
H812 C808 0.950 . S
C813 C811 1.390 . S
C813 C814 1.387 . S
C813 H816 0.950 . S
C814 C813 1.387 . S
C814 C817 1.387 . S
H815 C811 0.950 . S
H816 C813 0.950 . S
C817 C808 1.390 . S
C817 H810 0.950 . S
C817 C814 1.387 . S
C818 C819 1.387 . S
C818 H822 0.950 . S
C818 C827 1.390 . S
C819 C818 1.387 . S
C819 C821 1.387 . S
H820 C827 0.950 . S
C821 C819 1.387 . S
C821 C823 1.390 . S
C821 H825 0.950 . S
H822 C818 0.950 . S
C823 C821 1.390 . S
C823 C824 1.387 . S
C823 H826 0.950 . S
C824 C823 1.387 . S
C824 C827 1.387 . S
H825 C821 0.950 . S
H826 C823 0.950 . S
C827 C818 1.390 . S
C827 H820 0.950 . S
C827 C824 1.387 . S
C828 C829 1.387 . S
C828 H832 0.950 . S
C828 C837 1.390 . S
C829 C828 1.387 . S
C829 C831 1.387 . S
H830 C837 0.950 . S
C831 C829 1.387 . S
C831 C833 1.390 . S
C831 H835 0.950 . S
H832 C828 0.950 . S
C833 C831 1.390 . S
C833 C834 1.387 . S
C833 H836 0.950 . S
C834 C833 1.387 . S
C834 C837 1.387 . S
H835 C831 0.950 . S
H836 C833 0.950 . S
C837 C828 1.390 . S
C837 H830 0.950 . S
C837 C834 1.387 . S
C838 C839 1.387 . S
C838 H842 0.950 . S
C838 C847 1.390 1_545 S
C839 C838 1.387 . S
C839 C841 1.391 . S
H840 C847 0.950 . S
C841 C839 1.391 . S
C841 C843 1.390 1_545 S
C841 H845 0.947 . S
H842 C838 0.950 . S
C843 C841 1.390 1_565 S
C843 C844 1.387 . S
C843 H846 0.950 . S
C844 C843 1.387 . S
C844 C847 1.387 . S
H845 C841 0.947 . S
H846 C843 0.950 . S
C847 C838 1.390 1_565 S
C847 H840 0.950 . S
C847 C844 1.387 . S
C848 C849 1.387 . S
C848 H852 0.950 . S
C848 C857 1.390 . S
C849 C848 1.387 . S
C849 C851 1.387 1_455 S
H850 C857 0.950 . S
C851 C849 1.387 1_655 S
C851 C853 1.390 . S
C851 H855 0.950 . S
H852 C848 0.950 . S
C853 C851 1.390 . S
C853 C854 1.387 . S
C853 H856 0.950 . S
C854 C853 1.387 . S
C854 C857 1.387 1_655 S
H855 C851 0.950 . S
H856 C853 0.950 . S
C857 C848 1.390 . S
C857 H850 0.950 . S
C857 C854 1.387 1_455 S
C858 C859 1.387 . S
C858 H862 0.950 . S
C858 C867 1.390 . S
C859 C858 1.387 . S
C859 C861 1.387 . S
H860 C867 0.950 . S
C861 C859 1.387 . S
C861 C863 1.390 . S
C861 H865 0.950 . S
H862 C858 0.950 . S
C863 C861 1.390 . S
C863 C864 1.387 . S
C863 H866 0.950 . S
C864 C863 1.387 . S
C864 C867 1.387 . S
H865 C861 0.950 . S
H866 C863 0.950 . S
C867 C858 1.390 . S
C867 H860 0.950 . S
C867 C864 1.387 . S
C868 C869 1.387 1_545 S
C868 H872 0.950 . S
C868 C877 1.390 . S
C869 C868 1.387 1_565 S
C869 C871 1.387 . S
H870 C877 0.950 . S
C871 C869 1.387 . S
C871 C873 1.390 . S
C871 H875 0.950 . S
H872 C868 0.950 . S
C873 C871 1.390 . S
C873 C874 1.387 1_565 S
C873 H876 0.950 . S
C874 C873 1.387 1_545 S
C874 C877 1.387 . S
H875 C871 0.950 . S
H876 C873 0.950 . S
C877 C868 1.390 . S
C877 H870 0.950 . S
C877 C874 1.387 . S
C878 C879 1.395 1_455 S
C878 H882 0.941 . S
C878 C887 1.391 . S
C879 C878 1.395 1_655 S
C879 C881 1.387 . S
H880 C887 0.950 . S
C881 C879 1.387 . S
C881 C883 1.390 . S
C881 H885 0.950 . S
H882 C878 0.941 . S
C883 C881 1.390 . S
C883 C884 1.398 1_655 S
C883 H886 0.950 . S
C884 C883 1.398 1_455 S
C884 C887 1.377 . S
H885 C881 0.950 . S
H886 C883 0.950 . S
C887 C878 1.391 . S
C887 H880 0.950 . S
C887 C884 1.377 . S
C888 C889 1.387 . S
C888 H892 0.950 . S
C888 C897 1.390 . S
C889 C888 1.387 . S
C889 C891 1.387 . S
H890 C897 0.950 . S
C891 C889 1.387 . S
C891 C893 1.390 . S
C891 H895 0.950 . S
H892 C888 0.950 . S
C893 C891 1.390 . S
C893 C894 1.387 . S
C893 H896 0.950 . S
C894 C893 1.387 . S
C894 C897 1.387 . S
H895 C891 0.950 . S
H896 C893 0.950 . S
C897 C888 1.390 . S
C897 H890 0.950 . S
C897 C894 1.387 . S
C898 C899 1.387 . S
C898 H902 0.950 . S
C898 C907 1.390 . S
C899 C898 1.387 . S
C899 C901 1.387 . S
H900 C907 0.950 . S
C901 C899 1.387 . S
C901 C903 1.390 . S
C901 H905 0.950 . S
H902 C898 0.950 . S
C903 C901 1.390 . S
C903 C904 1.387 . S
C903 H906 0.950 . S
C904 C903 1.387 . S
C904 C907 1.387 . S
H905 C901 0.950 . S
H906 C903 0.950 . S
C907 C898 1.390 . S
C907 H900 0.950 . S
C907 C904 1.387 . S
C908 C909 1.387 . S
C908 H912 0.950 . S
C908 C917 1.390 . S
C909 C908 1.387 . S
C909 C911 1.387 . S
H910 C917 0.950 . S
C911 C909 1.387 . S
C911 C913 1.390 . S
C911 H915 0.950 . S
H912 C908 0.950 . S
C913 C911 1.390 . S
C913 C914 1.387 . S
C913 H916 0.950 . S
C914 C913 1.387 . S
C914 C917 1.387 . S
H915 C911 0.950 . S
H916 C913 0.950 . S
C917 C908 1.390 . S
C917 H910 0.950 . S
C917 C914 1.387 . S
C918 C919 1.387 . S
C918 H922 0.950 . S
C918 C927 1.390 . S
C919 C918 1.387 . S
C919 C921 1.387 . S
H920 C927 0.950 . S
C921 C919 1.387 . S
C921 C923 1.390 . S
C921 H925 0.950 . S
H922 C918 0.950 . S
C923 C921 1.390 . S
C923 C924 1.387 . S
C923 H926 0.950 . S
C924 C923 1.387 . S
C924 C927 1.387 . S
H925 C921 0.950 . S
H926 C923 0.950 . S
C927 C918 1.390 . S
C927 H920 0.950 . S
C927 C924 1.387 . S
C928 C929 1.387 . S
C928 H932 0.950 . S
C928 C937 1.390 . S
C929 C928 1.387 . S
C929 C931 1.387 . S
H930 C937 0.950 . S
C931 C929 1.387 . S
C931 C933 1.390 . S
C931 H935 0.950 . S
H932 C928 0.950 . S
C933 C931 1.390 . S
C933 C934 1.387 . S
C933 H936 0.950 . S
C934 C933 1.387 . S
C934 C937 1.387 . S
H935 C931 0.950 . S
H936 C933 0.950 . S
C937 C928 1.390 . S
C937 H930 0.950 . S
C937 C934 1.387 . S
C938 C939 1.387 . S
C938 H942 0.950 . S
C938 C947 1.390 . S
C939 C938 1.387 . S
C939 C941 1.387 . S
H940 C947 0.950 . S
C941 C939 1.387 . S
C941 C943 1.390 . S
C941 H945 0.950 . S
H942 C938 0.950 . S
C943 C941 1.390 . S
C943 C944 1.387 . S
C943 H946 0.950 . S
C944 C943 1.387 . S
C944 C947 1.387 . S
H945 C941 0.950 . S
H946 C943 0.950 . S
C947 C938 1.390 . S
C947 H940 0.950 . S
C947 C944 1.387 . S
C948 C949 1.387 . S
C948 H952 0.950 . S
C948 C957 1.390 . S
C949 C948 1.387 . S
C949 C951 1.387 . S
H950 C957 0.950 . S
C951 C949 1.387 . S
C951 C953 1.390 . S
C951 H955 0.950 . S
H952 C948 0.950 . S
C953 C951 1.390 . S
C953 C954 1.387 . S
C953 H956 0.950 . S
C954 C953 1.387 . S
C954 C957 1.387 . S
H955 C951 0.950 . S
H956 C953 0.950 . S
C957 C948 1.390 . S
C957 H950 0.950 . S
C957 C954 1.387 . S
C958 C959 1.387 . S
C958 H962 0.950 . S
C958 C967 1.390 . S
C959 C958 1.387 . S
C959 C961 1.387 . S
H960 C967 0.950 . S
C961 C959 1.387 . S
C961 C963 1.390 . S
C961 H965 0.950 . S
H962 C958 0.950 . S
C963 C961 1.390 . S
C963 C964 1.387 . S
C963 H966 0.950 . S
C964 C963 1.387 . S
C964 C967 1.387 . S
H965 C961 0.950 . S
H966 C963 0.950 . S
C967 C958 1.390 . S
C967 H960 0.950 . S
C967 C964 1.387 . S
C968 C969 1.387 . S
C968 H972 0.950 . S
C968 C977 1.390 . S
C969 C968 1.387 . S
C969 C971 1.387 . S
H970 C977 0.950 . S
C971 C969 1.387 . S
C971 C973 1.390 . S
C971 H975 0.950 . S
H972 C968 0.950 . S
C973 C971 1.390 . S
C973 C974 1.387 . S
C973 H976 0.950 . S
C974 C973 1.387 . S
C974 C977 1.387 . S
H975 C971 0.950 . S
H976 C973 0.950 . S
C977 C968 1.390 . S
C977 H970 0.950 . S
C977 C974 1.387 . S
C978 C979 1.387 . S
C978 H982 0.950 . S
C978 C987 1.390 . S
C979 C978 1.387 . S
C979 C981 1.387 . S
H980 C987 0.950 . S
C981 C979 1.387 . S
C981 C983 1.390 . S
C981 H985 0.950 . S
H982 C978 0.950 . S
C983 C981 1.390 . S
C983 C984 1.387 . S
C983 H986 0.950 . S
C984 C983 1.387 . S
C984 C987 1.387 . S
H985 C981 0.950 . S
H986 C983 0.950 . S
C987 C978 1.390 . S
C987 H980 0.950 . S
C987 C984 1.387 . S
C988 C989 1.387 . S
C988 H992 0.950 . S
C988 C997 1.390 . S
C989 C988 1.387 . S
C989 C991 1.387 . S
H990 C997 0.950 . S
C991 C989 1.387 . S
C991 C993 1.390 . S
C991 H995 0.950 . S
H992 C988 0.950 . S
C993 C991 1.390 . S
C993 C994 1.387 . S
C993 H996 0.950 . S
C994 C993 1.387 . S
C994 C997 1.387 . S
H995 C991 0.950 . S
H996 C993 0.950 . S
C997 C988 1.390 . S
C997 H990 0.950 . S
C997 C994 1.387 . S
C998 C999 1.387 . S
C998 H1002 0.950 . S
C998 C1007 1.390 . S
C999 C998 1.387 . S
C999 C1001 1.387 . S
H1000 C1007 0.950 . S
C1001 C999 1.387 . S
C1001 C1003 1.390 . S
C1001 H1005 0.950 . S
H1002 C998 0.950 . S
C1003 C1001 1.390 . S
C1003 C1004 1.387 . S
C1003 H1006 0.950 . S
C1004 C1003 1.387 . S
C1004 C1007 1.387 . S
H1005 C1001 0.950 . S
H1006 C1003 0.950 . S
C1007 C998 1.390 . S
C1007 H1000 0.950 . S
C1007 C1004 1.387 . S
C1008 C1009 1.387 . S
C1008 H1012 0.950 . S
C1008 C1017 1.390 . S
C1009 C1008 1.387 . S
C1009 C1011 1.387 . S
H1010 C1017 0.950 . S
C1011 C1009 1.387 . S
C1011 C1013 1.390 . S
C1011 H1015 0.950 . S
H1012 C1008 0.950 . S
C1013 C1011 1.390 . S
C1013 C1014 1.387 . S
C1013 H1016 0.950 . S
C1014 C1013 1.387 . S
C1014 C1017 1.387 . S
H1015 C1011 0.950 . S
H1016 C1013 0.950 . S
C1017 C1008 1.390 . S
C1017 H1010 0.950 . S
C1017 C1014 1.387 . S
C1018 C1019 1.387 . S
C1018 H1022 0.950 . S
C1018 C1027 1.390 . S
C1019 C1018 1.387 . S
C1019 C1021 1.387 . S
H1020 C1027 0.950 . S
C1021 C1019 1.387 . S
C1021 C1023 1.390 . S
C1021 H1025 0.950 . S
H1022 C1018 0.950 . S
C1023 C1021 1.390 . S
C1023 C1024 1.387 . S
C1023 H1026 0.950 . S
C1024 C1023 1.387 . S
C1024 C1027 1.387 . S
H1025 C1021 0.950 . S
H1026 C1023 0.950 . S
C1027 C1018 1.390 . S
C1027 H1020 0.950 . S
C1027 C1024 1.387 . S
C1028 C1029 1.387 . S
C1028 H1032 0.950 . S
C1028 C1037 1.390 . S
C1029 C1028 1.387 . S
C1029 C1031 1.387 . S
H1030 C1037 0.950 . S
C1031 C1029 1.387 . S
C1031 C1033 1.390 . S
C1031 H1035 0.950 . S
H1032 C1028 0.950 . S
C1033 C1031 1.390 . S
C1033 C1034 1.387 . S
C1033 H1036 0.950 . S
C1034 C1033 1.387 . S
C1034 C1037 1.387 . S
H1035 C1031 0.950 . S
H1036 C1033 0.950 . S
C1037 C1028 1.390 . S
C1037 H1030 0.950 . S
C1037 C1034 1.387 . S
C1038 C1039 1.387 . S
C1038 H1042 0.950 . S
C1038 C1047 1.390 . S
C1039 C1038 1.387 . S
C1039 C1041 1.387 . S
H1040 C1047 0.950 . S
C1041 C1039 1.387 . S
C1041 C1043 1.390 . S
C1041 H1045 0.950 . S
H1042 C1038 0.950 . S
C1043 C1041 1.390 . S
C1043 C1044 1.387 . S
C1043 H1046 0.950 . S
C1044 C1043 1.387 . S
C1044 C1047 1.387 . S
H1045 C1041 0.950 . S
H1046 C1043 0.950 . S
C1047 C1038 1.390 . S
C1047 H1040 0.950 . S
C1047 C1044 1.387 . S
C1048 C1049 1.387 . S
C1048 H1052 0.950 . S
C1048 C1057 1.390 . S
C1049 C1048 1.387 . S
C1049 C1051 1.387 . S
H1050 C1057 0.950 . S
C1051 C1049 1.387 . S
C1051 C1053 1.390 . S
C1051 H1055 0.950 . S
H1052 C1048 0.950 . S
C1053 C1051 1.390 . S
C1053 C1054 1.387 . S
C1053 H1056 0.950 . S
C1054 C1053 1.387 . S
C1054 C1057 1.387 . S
H1055 C1051 0.950 . S
H1056 C1053 0.950 . S
C1057 C1048 1.390 . S
C1057 H1050 0.950 . S
C1057 C1054 1.387 . S
C1058 C1059 1.387 . S
C1058 H1062 0.950 . S
C1058 C1067 1.390 . S
C1059 C1058 1.387 . S
C1059 C1061 1.387 . S
H1060 C1067 0.950 . S
C1061 C1059 1.387 . S
C1061 C1063 1.390 . S
C1061 H1065 0.950 . S
H1062 C1058 0.950 . S
C1063 C1061 1.390 . S
C1063 C1064 1.387 . S
C1063 H1066 0.950 . S
C1064 C1063 1.387 . S
C1064 C1067 1.387 . S
H1065 C1061 0.950 . S
H1066 C1063 0.950 . S
C1067 C1058 1.390 . S
C1067 H1060 0.950 . S
C1067 C1064 1.387 . S
C1068 C1069 1.387 . S
C1068 H1072 0.950 . S
C1068 C1077 1.390 . S
C1069 C1068 1.387 . S
C1069 C1071 1.387 . S
H1070 C1077 0.950 . S
C1071 C1069 1.387 . S
C1071 C1073 1.390 . S
C1071 H1075 0.950 . S
H1072 C1068 0.950 . S
C1073 C1071 1.390 . S
C1073 C1074 1.387 . S
C1073 H1076 0.950 . S
C1074 C1073 1.387 . S
C1074 C1077 1.387 . S
H1075 C1071 0.950 . S
H1076 C1073 0.950 . S
C1077 C1068 1.390 . S
C1077 H1070 0.950 . S
C1077 C1074 1.387 . S
C1078 C1079 1.387 . S
C1078 H1082 0.950 . S
C1078 C1087 1.390 . S
C1079 C1078 1.387 . S
C1079 C1081 1.387 . S
H1080 C1087 0.950 . S
C1081 C1079 1.387 . S
C1081 C1083 1.390 . S
C1081 H1085 0.950 . S
H1082 C1078 0.950 . S
C1083 C1081 1.390 . S
C1083 C1084 1.387 . S
C1083 H1086 0.950 . S
C1084 C1083 1.387 . S
C1084 C1087 1.387 . S
H1085 C1081 0.950 . S
H1086 C1083 0.950 . S
C1087 C1078 1.390 . S
C1087 H1080 0.950 . S
C1087 C1084 1.387 . S
C1088 C1089 1.387 . S
C1088 H1092 0.950 . S
C1088 C1097 1.390 . S
C1089 C1088 1.387 . S
C1089 C1091 1.387 . S
H1090 C1097 0.950 . S
C1091 C1089 1.387 . S
C1091 C1093 1.390 . S
C1091 H1095 0.950 . S
H1092 C1088 0.950 . S
C1093 C1091 1.390 . S
C1093 C1094 1.387 . S
C1093 H1096 0.950 . S
C1094 C1093 1.387 . S
C1094 C1097 1.387 . S
H1095 C1091 0.950 . S
H1096 C1093 0.950 . S
C1097 C1088 1.390 . S
C1097 H1090 0.950 . S
C1097 C1094 1.387 . S
C1098 C1099 1.387 . S
C1098 H1102 0.950 . S
C1098 C1107 1.390 . S
C1099 C1098 1.387 . S
C1099 C1101 1.387 . S
H1100 C1107 0.950 . S
C1101 C1099 1.387 . S
C1101 C1103 1.390 . S
C1101 H1105 0.950 . S
H1102 C1098 0.950 . S
C1103 C1101 1.390 . S
C1103 C1104 1.387 . S
C1103 H1106 0.950 . S
C1104 C1103 1.387 . S
C1104 C1107 1.387 . S
H1105 C1101 0.950 . S
H1106 C1103 0.950 . S
C1107 C1098 1.390 . S
C1107 H1100 0.950 . S
C1107 C1104 1.387 . S
C1108 C1109 1.387 . S
C1108 H1112 0.950 . S
C1108 C1117 1.390 . S
C1109 C1108 1.387 . S
C1109 C1111 1.387 . S
H1110 C1117 0.950 . S
C1111 C1109 1.387 . S
C1111 C1113 1.390 . S
C1111 H1115 0.950 . S
H1112 C1108 0.950 . S
C1113 C1111 1.390 . S
C1113 C1114 1.387 . S
C1113 H1116 0.950 . S
C1114 C1113 1.387 . S
C1114 C1117 1.387 . S
H1115 C1111 0.950 . S
H1116 C1113 0.950 . S
C1117 C1108 1.390 . S
C1117 H1110 0.950 . S
C1117 C1114 1.387 . S
C1118 C1119 1.387 . S
C1118 H1122 0.950 . S
C1118 C1127 1.390 . S
C1119 C1118 1.387 . S
C1119 C1121 1.387 . S
H1120 C1127 0.950 . S
C1121 C1119 1.387 . S
C1121 C1123 1.390 . S
C1121 H1125 0.950 . S
H1122 C1118 0.950 . S
C1123 C1121 1.390 . S
C1123 C1124 1.387 . S
C1123 H1126 0.950 . S
C1124 C1123 1.387 . S
C1124 C1127 1.387 . S
H1125 C1121 0.950 . S
H1126 C1123 0.950 . S
C1127 C1118 1.390 . S
C1127 H1120 0.950 . S
C1127 C1124 1.387 . S
C1128 C1129 1.387 . S
C1128 H1132 0.950 . S
C1128 C1137 1.390 1_455 S
C1129 C1128 1.387 . S
C1129 C1131 1.387 . S
H1130 C1137 0.950 . S
C1131 C1129 1.387 . S
C1131 C1133 1.390 1_455 S
C1131 H1135 0.950 . S
H1132 C1128 0.950 . S
C1133 C1131 1.390 1_655 S
C1133 C1134 1.387 . S
C1133 H1136 0.950 . S
C1134 C1133 1.387 . S
C1134 C1137 1.387 . S
H1135 C1131 0.950 . S
H1136 C1133 0.950 . S
C1137 C1128 1.390 1_655 S
C1137 H1130 0.950 . S
C1137 C1134 1.387 . S
C1138 C1139 1.387 . S
C1138 H1142 0.950 . S
C1138 C1147 1.390 . S
C1139 C1138 1.387 . S
C1139 C1141 1.387 . S
H1140 C1147 0.950 . S
C1141 C1139 1.387 . S
C1141 C1143 1.390 . S
C1141 H1145 0.950 . S
H1142 C1138 0.950 . S
C1143 C1141 1.390 . S
C1143 C1144 1.387 . S
C1143 H1146 0.950 . S
C1144 C1143 1.387 . S
C1144 C1147 1.387 . S
H1145 C1141 0.950 . S
H1146 C1143 0.950 . S
C1147 C1138 1.390 . S
C1147 H1140 0.950 . S
C1147 C1144 1.387 . S
C1148 C1149 1.387 . S
C1148 H1152 0.950 . S
C1148 C1157 1.390 1_545 S
C1149 C1148 1.387 . S
C1149 C1151 1.387 . S
H1150 C1157 0.950 . S
C1151 C1149 1.387 . S
C1151 C1153 1.390 1_545 S
C1151 H1155 0.950 . S
H1152 C1148 0.950 . S
C1153 C1151 1.390 1_565 S
C1153 C1154 1.387 . S
C1153 H1156 0.950 . S
C1154 C1153 1.387 . S
C1154 C1157 1.387 . S
H1155 C1151 0.950 . S
H1156 C1153 0.950 . S
C1157 C1148 1.390 1_565 S
C1157 H1150 0.950 . S
C1157 C1154 1.387 . S
C1158 C1159 1.387 . S
C1158 H1162 0.950 . S
C1158 C1167 1.390 1_545 S
C1159 C1158 1.387 . S
C1159 C1161 1.387 1_554 S
H1160 C1167 0.950 . S
C1161 C1159 1.387 1_556 S
C1161 C1163 1.390 1_545 S
C1161 H1165 0.950 . S
H1162 C1158 0.950 . S
C1163 C1161 1.390 1_565 S
C1163 C1164 1.387 1_556 S
C1163 H1166 0.950 . S
C1164 C1163 1.387 1_554 S
C1164 C1167 1.387 . S
H1165 C1161 0.950 . S
H1166 C1163 0.950 . S
C1167 C1158 1.390 1_565 S
C1167 H1160 0.950 . S
C1167 C1164 1.387 . S
C1168 C1169 1.387 . S
C1168 H1172 0.950 . S
C1168 C1177 1.390 1_655 S
C1169 C1168 1.387 . S
C1169 C1171 1.387 1_554 S
H1170 C1177 0.950 . S
C1171 C1169 1.387 1_556 S
C1171 C1173 1.390 1_655 S
C1171 H1175 0.950 . S
H1172 C1168 0.950 . S
C1173 C1171 1.390 1_455 S
C1173 C1174 1.387 1_556 S
C1173 H1176 0.950 . S
C1174 C1173 1.387 1_554 S
C1174 C1177 1.387 . S
H1175 C1171 0.950 . S
H1176 C1173 0.950 . S
C1177 C1168 1.390 1_455 S
C1177 H1170 0.950 . S
C1177 C1174 1.387 . S
C1178 C1179 1.387 1_556 S
C1178 H1182 0.950 . S
C1178 C1187 1.390 . S
C1179 C1178 1.387 1_554 S
C1179 C1181 1.387 . S
H1180 C1187 0.950 . S
C1181 C1179 1.387 . S
C1181 C1183 1.390 . S
C1181 H1185 0.950 . S
H1182 C1178 0.950 . S
C1183 C1181 1.390 . S
C1183 C1184 1.387 . S
C1183 H1186 0.950 . S
C1184 C1183 1.387 . S
C1184 C1187 1.387 1_554 S
H1185 C1181 0.950 . S
H1186 C1183 0.950 . S
C1187 C1178 1.390 . S
C1187 H1180 0.950 . S
C1187 C1184 1.387 1_556 S
C469 C5 1.065 . S
C474 C23 1.452 . S
C479 C18 1.059 . S
C484 C36 1.450 . S
C489 C10 1.451 . S
C494 C31 1.064 . S
C499 C44 1.065 . S
C504 C75 1.452 . S
C509 C57 1.063 . S
C514 C49 1.451 . S
C519 C62 1.451 . S
C524 C70 1.057 . S
C529 C83 1.088 . S
C534 C99 1.390 . S
C539 C112 1.389 . S
C544 C96 1.094 . S
C549 C86 1.390 . S
C554 C109 1.089 . S
C559 C151 1.390 . S
C564 C122 1.096 . S
C569 C135 1.091 . S
C574 C125 1.391 . S
C579 C148 1.095 . S
C584 C138 1.389 . S
C589 C179 1.452 . S
C594 C161 1.065 . S
C599 C174 1.061 . S
C604 C192 1.451 . S
C609 C187 1.064 . S
C614 C166 1.451 . S
C619 C200 1.064 . S
C624 C231 1.452 . S
C629 C213 1.064 . S
C634 C205 1.451 . S
C639 C226 1.061 . S
C644 C218 1.451 . S
C649 C255 1.391 . S
C654 C239 1.096 . S
C659 C252 1.093 . S
C664 C268 1.391 . S
C669 C242 1.389 . S
C674 C265 1.095 . S
C679 C307 1.391 . S
C684 C278 1.089 . S
C689 C291 1.094 . S
C694 C281 1.389 . S
C699 C294 1.391 . S
C704 C304 1.089 . S
C709 C335 1.451 . S
C714 C317 1.058 . S
C719 C330 1.059 . S
C724 C348 1.451 . S
C729 C343 1.064 . S
C734 C322 1.452 . S
C739 C387 1.451 . S
C744 C356 1.057 . S
C749 C369 1.061 . S
C754 C361 1.450 . S
C759 C374 1.452 . S
C764 C382 1.065 . S
C769 C395 1.095 . S
C774 C411 1.390 . S
C779 C408 1.091 . S
C784 C424 1.391 . S
C789 C421 1.094 . S
C794 C398 1.389 . S
C799 C463 1.389 . S
C804 C434 1.091 . S
C809 C437 1.391 . S
C814 C447 1.091 . S
C819 C460 1.096 . S
C824 C450 1.389 . S
C829 C47 1.533 . S
C834 C8 1.534 . S
C839 C21 1.534 1_545 S
C844 C60 1.534 1_565 S
C849 C73 1.531 1_455 S
C854 C34 1.533 1_655 S
C859 C127 1.543 . S
C864 C88 1.542 . S
C869 C101 1.541 . S
C874 C140 1.541 . S
C879 C153 1.543 . S
C884 C114 1.550 . S
C889 C164 1.534 . S
C894 C203 1.533 . S
C899 C177 1.532 . S
C904 C216 1.532 . S
C909 C190 1.532 . S
C914 C229 1.531 . S
C919 C283 1.541 . S
C924 C244 1.542 . S
C929 C296 1.543 . S
C934 C257 1.542 . S
C939 C270 1.541 . S
C944 C309 1.542 . S
C949 C359 1.533 . S
C954 C320 1.534 . S
C959 C372 1.534 . S
C964 C333 1.534 . S
C969 C346 1.532 . S
C974 C385 1.532 . S
C979 C400 1.543 . S
C984 C439 1.541 . S
C989 C452 1.542 . S
C994 C413 1.543 . S
C999 C426 1.541 . S
C1004 C465 1.542 . S
C1009 C0 1.611 . S
C1014 C234 1.765 . S
C1019 C13 1.616 . S
C1024 C247 1.767 . S
C1029 C26 1.610 . S
C1034 C260 1.764 . S
C1039 C429 1.765 . S
C1044 C39 1.611 . S
C1049 C442 1.766 . S
C1054 C52 1.615 . S
C1059 C65 1.610 . S
C1064 C455 1.764 . S
C1069 C78 1.765 . S
C1074 C312 1.611 . S
C1079 C325 1.610 . S
C1084 C91 1.764 . S
C1089 C338 1.610 . S
C1094 C104 1.764 . S
C1099 C195 1.611 . S
C1104 C117 1.765 . S
C1109 C208 1.615 . S
C1114 C130 1.766 . S
C1119 C221 1.610 . S
C1124 C143 1.764 . S
C1129 C390 1.767 . S
C1134 C156 1.616 . S
C1139 C169 1.615 . S
C1144 C403 1.768 . S
C1149 C182 1.615 . S
C1154 C416 1.766 . S
C1159 C273 1.765 . S
C1164 C351 1.607 1_554 S
C1169 C286 1.764 . S
C1174 C364 1.606 1_554 S
C1179 C377 1.612 1_554 S
C1184 C299 1.767 . S
