# Generated by pormake.
# Topology uke, (4)-cn, num edge types: 1
# Building blocks:
#     Node 0, Type 0, BuildingBlock: AZAVOO_clean_sbu_0, # of connection points: 4
#     Node 1, Type 0, BuildingBlock: AZAVOO_clean_sbu_0, # of connection points: 4
#     Node 2, Type 0, BuildingBlock: AZAVOO_clean_sbu_0, # of connection points: 4
#     Node 3, Type 0, BuildingBlock: AZAVOO_clean_sbu_0, # of connection points: 4
#     Node 4, Type 0, BuildingBlock: AZAVOO_clean_sbu_0, # of connection points: 4
#     Node 5, Type 0, BuildingBlock: AZAVOO_clean_sbu_0, # of connection points: 4
#     Node 6, Type 0, BuildingBlock: AZAVOO_clean_sbu_0, # of connection points: 4
#     Node 7, Type 0, BuildingBlock: AZAVOO_clean_sbu_0, # of connection points: 4
#     Node 8, Type 0, BuildingBlock: AZAVOO_clean_sbu_0, # of connection points: 4
#     Node 9, Type 0, BuildingBlock: AZAVOO_clean_sbu_0, # of connection points: 4
#     Node 10, Type 0, BuildingBlock: AZAVOO_clean_sbu_0, # of connection points: 4
#     Node 11, Type 0, BuildingBlock: AZAVOO_clean_sbu_0, # of connection points: 4
#     Node 12, Type 0, BuildingBlock: AZAVOO_clean_sbu_0, # of connection points: 4
#     Node 13, Type 0, BuildingBlock: AZAVOO_clean_sbu_0, # of connection points: 4
#     Node 14, Type 0, BuildingBlock: AZAVOO_clean_sbu_0, # of connection points: 4
#     Node 15, Type 0, BuildingBlock: AZAVOO_clean_sbu_0, # of connection points: 4
#     Node 16, Type 0, BuildingBlock: AZAVOO_clean_sbu_0, # of connection points: 4
#     Node 17, Type 0, BuildingBlock: AZAVOO_clean_sbu_0, # of connection points: 4
#     Node 18, Type 0, BuildingBlock: AZAVOO_clean_sbu_0, # of connection points: 4
#     Node 19, Type 0, BuildingBlock: AZAVOO_clean_sbu_0, # of connection points: 4
#     Node 20, Type 0, BuildingBlock: AZAVOO_clean_sbu_0, # of connection points: 4
#     Node 21, Type 0, BuildingBlock: AZAVOO_clean_sbu_0, # of connection points: 4
#     Node 22, Type 0, BuildingBlock: AZAVOO_clean_sbu_0, # of connection points: 4
#     Node 23, Type 0, BuildingBlock: AZAVOO_clean_sbu_0, # of connection points: 4
#     Node 24, Type 0, BuildingBlock: AZAVOO_clean_sbu_0, # of connection points: 4
#     Node 25, Type 0, BuildingBlock: AZAVOO_clean_sbu_0, # of connection points: 4
#     Node 26, Type 0, BuildingBlock: AZAVOO_clean_sbu_0, # of connection points: 4
#     Node 27, Type 0, BuildingBlock: AZAVOO_clean_sbu_0, # of connection points: 4
#     Node 28, Type 0, BuildingBlock: AZAVOO_clean_sbu_0, # of connection points: 4
#     Node 29, Type 0, BuildingBlock: AZAVOO_clean_sbu_0, # of connection points: 4
#     Node 30, Type 0, BuildingBlock: AZAVOO_clean_sbu_0, # of connection points: 4
#     Node 31, Type 0, BuildingBlock: AZAVOO_clean_sbu_0, # of connection points: 4
#     Edge 32, Type (0, 0), BuildingBlock: XIVTED_clean_linker_0, # of connection points: 2
#     Edge 33, Type (0, 0), BuildingBlock: XIVTED_clean_linker_0, # of connection points: 2
#     Edge 34, Type (0, 0), BuildingBlock: XIVTED_clean_linker_0, # of connection points: 2
#     Edge 35, Type (0, 0), BuildingBlock: XIVTED_clean_linker_0, # of connection points: 2
#     Edge 36, Type (0, 0), BuildingBlock: XIVTED_clean_linker_0, # of connection points: 2
#     Edge 37, Type (0, 0), BuildingBlock: XIVTED_clean_linker_0, # of connection points: 2
#     Edge 38, Type (0, 0), BuildingBlock: XIVTED_clean_linker_0, # of connection points: 2
#     Edge 39, Type (0, 0), BuildingBlock: XIVTED_clean_linker_0, # of connection points: 2
#     Edge 40, Type (0, 0), BuildingBlock: XIVTED_clean_linker_0, # of connection points: 2
#     Edge 41, Type (0, 0), BuildingBlock: XIVTED_clean_linker_0, # of connection points: 2
#     Edge 42, Type (0, 0), BuildingBlock: XIVTED_clean_linker_0, # of connection points: 2
#     Edge 43, Type (0, 0), BuildingBlock: XIVTED_clean_linker_0, # of connection points: 2
#     Edge 44, Type (0, 0), BuildingBlock: XIVTED_clean_linker_0, # of connection points: 2
#     Edge 45, Type (0, 0), BuildingBlock: XIVTED_clean_linker_0, # of connection points: 2
#     Edge 46, Type (0, 0), BuildingBlock: XIVTED_clean_linker_0, # of connection points: 2
#     Edge 47, Type (0, 0), BuildingBlock: XIVTED_clean_linker_0, # of connection points: 2
#     Edge 48, Type (0, 0), BuildingBlock: XIVTED_clean_linker_0, # of connection points: 2
#     Edge 49, Type (0, 0), BuildingBlock: XIVTED_clean_linker_0, # of connection points: 2
#     Edge 50, Type (0, 0), BuildingBlock: XIVTED_clean_linker_0, # of connection points: 2
#     Edge 51, Type (0, 0), BuildingBlock: XIVTED_clean_linker_0, # of connection points: 2
#     Edge 52, Type (0, 0), BuildingBlock: XIVTED_clean_linker_0, # of connection points: 2
#     Edge 53, Type (0, 0), BuildingBlock: XIVTED_clean_linker_0, # of connection points: 2
#     Edge 54, Type (0, 0), BuildingBlock: XIVTED_clean_linker_0, # of connection points: 2
#     Edge 55, Type (0, 0), BuildingBlock: XIVTED_clean_linker_0, # of connection points: 2
#     Edge 56, Type (0, 0), BuildingBlock: XIVTED_clean_linker_0, # of connection points: 2
#     Edge 57, Type (0, 0), BuildingBlock: XIVTED_clean_linker_0, # of connection points: 2
#     Edge 58, Type (0, 0), BuildingBlock: XIVTED_clean_linker_0, # of connection points: 2
#     Edge 59, Type (0, 0), BuildingBlock: XIVTED_clean_linker_0, # of connection points: 2
#     Edge 60, Type (0, 0), BuildingBlock: XIVTED_clean_linker_0, # of connection points: 2
#     Edge 61, Type (0, 0), BuildingBlock: XIVTED_clean_linker_0, # of connection points: 2
#     Edge 62, Type (0, 0), BuildingBlock: XIVTED_clean_linker_0, # of connection points: 2
#     Edge 63, Type (0, 0), BuildingBlock: XIVTED_clean_linker_0, # of connection points: 2
#     Edge 64, Type (0, 0), BuildingBlock: XIVTED_clean_linker_0, # of connection points: 2
#     Edge 65, Type (0, 0), BuildingBlock: XIVTED_clean_linker_0, # of connection points: 2
#     Edge 66, Type (0, 0), BuildingBlock: XIVTED_clean_linker_0, # of connection points: 2
#     Edge 67, Type (0, 0), BuildingBlock: XIVTED_clean_linker_0, # of connection points: 2
#     Edge 68, Type (0, 0), BuildingBlock: XIVTED_clean_linker_0, # of connection points: 2
#     Edge 69, Type (0, 0), BuildingBlock: XIVTED_clean_linker_0, # of connection points: 2
#     Edge 70, Type (0, 0), BuildingBlock: XIVTED_clean_linker_0, # of connection points: 2
#     Edge 71, Type (0, 0), BuildingBlock: XIVTED_clean_linker_0, # of connection points: 2
#     Edge 72, Type (0, 0), BuildingBlock: XIVTED_clean_linker_0, # of connection points: 2
#     Edge 73, Type (0, 0), BuildingBlock: XIVTED_clean_linker_0, # of connection points: 2
#     Edge 74, Type (0, 0), BuildingBlock: XIVTED_clean_linker_0, # of connection points: 2
#     Edge 75, Type (0, 0), BuildingBlock: XIVTED_clean_linker_0, # of connection points: 2
#     Edge 76, Type (0, 0), BuildingBlock: XIVTED_clean_linker_0, # of connection points: 2
#     Edge 77, Type (0, 0), BuildingBlock: XIVTED_clean_linker_0, # of connection points: 2
#     Edge 78, Type (0, 0), BuildingBlock: XIVTED_clean_linker_0, # of connection points: 2
#     Edge 79, Type (0, 0), BuildingBlock: XIVTED_clean_linker_0, # of connection points: 2
#     Edge 80, Type (0, 0), BuildingBlock: XIVTED_clean_linker_0, # of connection points: 2
#     Edge 81, Type (0, 0), BuildingBlock: XIVTED_clean_linker_0, # of connection points: 2
#     Edge 82, Type (0, 0), BuildingBlock: XIVTED_clean_linker_0, # of connection points: 2
#     Edge 83, Type (0, 0), BuildingBlock: XIVTED_clean_linker_0, # of connection points: 2
#     Edge 84, Type (0, 0), BuildingBlock: XIVTED_clean_linker_0, # of connection points: 2
#     Edge 85, Type (0, 0), BuildingBlock: XIVTED_clean_linker_0, # of connection points: 2
#     Edge 86, Type (0, 0), BuildingBlock: XIVTED_clean_linker_0, # of connection points: 2
#     Edge 87, Type (0, 0), BuildingBlock: XIVTED_clean_linker_0, # of connection points: 2
#     Edge 88, Type (0, 0), BuildingBlock: XIVTED_clean_linker_0, # of connection points: 2
#     Edge 89, Type (0, 0), BuildingBlock: XIVTED_clean_linker_0, # of connection points: 2
#     Edge 90, Type (0, 0), BuildingBlock: XIVTED_clean_linker_0, # of connection points: 2
#     Edge 91, Type (0, 0), BuildingBlock: XIVTED_clean_linker_0, # of connection points: 2
#     Edge 92, Type (0, 0), BuildingBlock: XIVTED_clean_linker_0, # of connection points: 2
#     Edge 93, Type (0, 0), BuildingBlock: XIVTED_clean_linker_0, # of connection points: 2
#     Edge 94, Type (0, 0), BuildingBlock: XIVTED_clean_linker_0, # of connection points: 2
#     Edge 95, Type (0, 0), BuildingBlock: XIVTED_clean_linker_0, # of connection points: 2
# Relax obj value: 0.246
# Max RMSD: 0.250
# Mean RMSD: 0.250
data_MOF--net-uke--node1-AZAVOO_clean_sbu_0--edge1-XIVTED_clean_linker_0
_symmetry_space_group_name_H-M    P1
_symmetry_Int_Tables_number       1
_symmetry_cell_setting            triclinic
loop_
_symmetry_equiv_pos_as_xyz
'x, y, z'
_cell_length_a     29.731248
_cell_length_b     106.94233
_cell_length_c     40.970871
_cell_angle_alpha  90.189996
_cell_angle_beta   89.976487
_cell_angle_gamma 90.009887
loop_
_atom_site_label
_atom_site_type_symbol
_atom_site_fract_x
_atom_site_fract_y
_atom_site_fract_z
_atom_type_partial_charge
Mg0 Mg 0.06928 0.04659 0.28219 0.0
O1 O 0.06625 0.04741 0.22627 0.0
O2 O 0.0126 0.06095 0.21216 0.0
Mg3 Mg 0.97897 0.06794 0.25892 0.0
C4 C 0.04405 0.05335 0.20468 0.0
C5 C 0.1496 0.03021 0.26131 0.0
O6 O 0.16025 0.04084 0.24726 0.0
O7 O 0.00688 0.03448 0.28482 0.0
O8 O 0.95314 0.04832 0.27278 0.0
O9 O 0.11583 0.06292 0.28309 0.0
O10 O 0.04178 0.06441 0.286 0.0
C11 C 0.96555 0.03735 0.28124 0.0
C12 C 0.08027 0.0699 0.28467 0.0
O13 O 0.11379 0.02955 0.27809 0.0
Mg14 Mg 0.10061 0.18444 0.34089 0.0
O15 O 0.11431 0.18526 0.28597 0.0
O16 O 0.17181 0.1729 0.27254 0.0
Mg17 Mg 0.19642 0.16444 0.32042 0.0
C18 C 0.14058 0.18049 0.26473 0.0
C19 C 0.02643 0.20084 0.31248 0.0
O20 O 0.01765 0.18992 0.29919 0.0
O21 O 0.16109 0.19661 0.35254 0.0
O22 O 0.2178 0.18379 0.3396 0.0
O23 O 0.05574 0.16829 0.3316 0.0
O24 O 0.12847 0.16651 0.34223 0.0
C25 C 0.20299 0.19428 0.35005 0.0
C26 C 0.09119 0.16131 0.33362 0.0
O27 O 0.05731 0.20161 0.33382 0.0
Mg28 Mg 0.08978 0.18188 0.95001 0.0
O29 O 0.08734 0.18203 0.00585 0.0
O30 O 0.02668 0.17159 0.0226 0.0
Mg31 Mg -0.00811 0.16402 0.97691 0.0
C32 C 0.06201 0.17796 0.02855 0.0
C33 C 0.17311 0.19727 0.9716 0.0
O34 O 0.1811 0.18692 0.98776 0.0
O35 O 0.03242 0.19576 0.94669 0.0
O36 O 0.97358 0.18403 0.96134 0.0
O37 O 0.12967 0.16436 0.95059 0.0
O38 O 0.05534 0.16499 0.94866 0.0
C39 C -0.0096 0.19438 0.95163 0.0
C40 C 0.09162 0.15845 0.95005 0.0
O41 O 0.13953 0.19776 0.95252 0.0
Mg42 Mg 0.09866 0.04403 0.89723 0.0
O43 O 0.11544 0.04561 0.95181 0.0
O44 O 0.16713 0.0604 0.95995 0.0
Mg45 Mg 0.19053 0.06628 0.90927 0.0
C46 C 0.13952 0.05229 0.97079 0.0
C47 C 0.03246 0.02728 0.93391 0.0
O48 O 0.02387 0.03826 0.94698 0.0
O49 O 0.16091 0.03233 0.88742 0.0
O50 O 0.21491 0.04642 0.89711 0.0
O51 O 0.0515 0.06007 0.90377 0.0
O52 O 0.123 0.06203 0.88962 0.0
C53 C 0.20224 0.03535 0.88968 0.0
C54 C 0.08582 0.06723 0.89827 0.0
O55 O 0.05957 0.02661 0.91001 0.0
Mg56 Mg 0.88144 0.93263 0.69244 0.0
O57 O 0.88558 0.93368 0.74826 0.0
O58 O 0.94166 0.92156 0.76571 0.0
Mg59 Mg 0.97288 0.91251 0.72055 0.0
C60 C 0.90927 0.92909 0.77123 0.0
C61 C 0.80228 0.94929 0.71212 0.0
O62 O 0.7917 0.93868 0.72625 0.0
O63 O 0.9437 0.9447 0.68638 0.0
O64 O -0.00211 0.93167 0.70284 0.0
O65 O 0.83501 0.91651 0.69695 0.0
O66 O 0.90902 0.91473 0.69335 0.0
C67 C 0.98499 0.94223 0.69169 0.0
C68 C 0.87046 0.90948 0.69762 0.0
O69 O 0.83721 0.94979 0.69433 0.0
Mg70 Mg 0.8309 0.79345 0.71213 0.0
O71 O 0.8165 0.7941 0.76715 0.0
O72 O 0.7606 0.8076 0.77615 0.0
Mg73 Mg 0.73622 0.81449 0.72656 0.0
C74 C 0.79042 0.80001 0.7865 0.0
C75 C 0.9046 0.77665 0.74187 0.0
O76 O 0.91197 0.78706 0.75811 0.0
O77 O 0.77022 0.78129 0.70218 0.0
O78 O 0.7139 0.7948 0.70992 0.0
O79 O 0.87686 0.80967 0.71775 0.0
O80 O 0.8043 0.81131 0.70652 0.0
C81 C 0.72845 0.78394 0.70216 0.0
C82 C 0.84197 0.81671 0.71315 0.0
O83 O 0.87381 0.77636 0.72043 0.0
Mg84 Mg 0.87314 0.79583 0.0966 0.0
O85 O 0.87435 0.79658 0.04055 0.0
O86 O 0.92438 0.8108 0.02423 0.0
Mg87 Mg 0.9612 0.81738 0.06991 0.0
C88 C 0.89375 0.80279 0.01809 0.0
C89 C 0.79613 0.779 0.07293 0.0
O90 O 0.78482 0.78974 0.05978 0.0
O91 O 0.93613 0.78382 0.09756 0.0
O92 O 0.98738 0.79757 0.08013 0.0
O93 O 0.82644 0.81224 0.09696 0.0
O94 O 0.90057 0.81364 0.09936 0.0
C95 C 0.97636 0.78663 0.08969 0.0
C96 C 0.86225 0.81914 0.09723 0.0
O97 O 0.82982 0.77858 0.09191 0.0
Mg98 Mg 0.86462 0.93559 0.08358 0.0
O99 O 0.85416 0.93606 0.02836 0.0
O100 O 0.79277 0.92541 0.01427 0.0
Mg101 Mg 0.76366 0.91791 0.0621 0.0
C102 C 0.82705 0.93197 0.00677 0.0
C103 C 0.94366 0.95035 0.05518 0.0
O104 O 0.94979 0.93937 0.0414 0.0
O105 O 0.80818 0.94939 0.09233 0.0
O106 O 0.74779 0.93783 0.08023 0.0
O107 O 0.9041 0.91817 0.07788 0.0
O108 O 0.83052 0.9186 0.08615 0.0
C109 C 0.76573 0.94806 0.08992 0.0
C110 C 0.86636 0.91219 0.08048 0.0
O111 O 0.91344 0.95152 0.07687 0.0
Mg112 Mg 0.1118 0.54404 0.82395 0.0
O113 O 0.10103 0.54655 0.76901 0.0
O114 O 0.05027 0.56144 0.75956 0.0
Mg115 Mg 0.02255 0.56685 0.80965 0.0
C116 C 0.07885 0.55343 0.74946 0.0
C117 C 0.18076 0.52738 0.78905 0.0
O118 O 0.19112 0.5384 0.77709 0.0
O119 O 0.04826 0.53254 0.82834 0.0
O120 O -0.00455 0.54693 0.81856 0.0
O121 O 0.16054 0.55983 0.8231 0.0
O122 O 0.08765 0.56201 0.83258 0.0
C123 C 0.00722 0.53571 0.825 0.0
C124 C 0.12632 0.56711 0.82782 0.0
O125 O 0.15128 0.52666 0.8114 0.0
Mg126 Mg 0.16296 0.68356 0.81393 0.0
O127 O 0.16388 0.68236 0.75801 0.0
O128 O 0.21727 0.66887 0.74281 0.0
Mg129 Mg 0.25353 0.66251 0.78895 0.0
C130 C 0.18521 0.67634 0.736 0.0
C131 C 0.08241 0.69972 0.7927 0.0
O132 O 0.0724 0.68909 0.77826 0.0
O133 O 0.22435 0.69599 0.81434 0.0
O134 O 0.27848 0.68247 0.80066 0.0
O135 O 0.11729 0.66717 0.81578 0.0
O136 O 0.19152 0.66582 0.81733 0.0
C137 C 0.26558 0.69343 0.80908 0.0
C138 C 0.1531 0.66027 0.81628 0.0
O139 O 0.11759 0.7004 0.81016 0.0
Mg140 Mg 0.08039 0.68473 0.43176 0.0
O141 O 0.07991 0.68351 0.4877 0.0
O142 O 0.02856 0.66946 0.50296 0.0
Mg143 Mg -0.00797 0.66302 0.45695 0.0
C144 C 0.05978 0.67723 0.5097 0.0
C145 C 0.15986 0.7012 0.4533 0.0
O146 O 0.1707 0.69045 0.4666 0.0
O147 O 0.01772 0.69674 0.43177 0.0
O148 O 0.96538 0.68286 0.44644 0.0
O149 O 0.12747 0.66861 0.42988 0.0
O150 O 0.05339 0.66677 0.42827 0.0
C151 C 0.97697 0.69389 0.43792 0.0
C152 C 0.09225 0.66148 0.42966 0.0
O153 O 0.12444 0.7019 0.43611 0.0
Mg154 Mg 0.12931 0.545 0.43951 0.0
O155 O 0.14199 0.54724 0.49438 0.0
O156 O 0.19449 0.56178 0.50296 0.0
Mg157 Mg 0.22012 0.5675 0.45262 0.0
C158 C 0.16572 0.55393 0.51355 0.0
C159 C 0.05927 0.52825 0.47352 0.0
O160 O 0.04993 0.53912 0.48694 0.0
O161 O 0.19226 0.53335 0.43302 0.0
O162 O 0.24607 0.54763 0.44115 0.0
O163 O 0.0812 0.56094 0.44163 0.0
O164 O 0.15384 0.56295 0.43112 0.0
C165 C 0.23359 0.53645 0.43465 0.0
C166 C 0.11544 0.56815 0.43635 0.0
O167 O 0.08912 0.52766 0.45139 0.0
Mg168 Mg 0.89546 0.43486 0.20752 0.0
O169 O 0.91055 0.43294 0.26192 0.0
O170 O 0.96853 0.42004 0.26936 0.0
Mg171 Mg -0.00603 0.41484 0.21842 0.0
C172 C 0.9374 0.42705 0.28055 0.0
C173 C 0.81839 0.4487 0.24199 0.0
O174 O 0.81461 0.43745 0.25444 0.0
O175 O 0.95367 0.44821 0.20038 0.0
O176 O 0.01216 0.43525 0.20582 0.0
O177 O 0.85312 0.41783 0.2093 0.0
O178 O 0.92588 0.41761 0.19797 0.0
C179 C -0.00414 0.4461 0.20013 0.0
C180 C 0.88923 0.41149 0.20299 0.0
O181 O 0.84842 0.45074 0.22056 0.0
Mg182 Mg 0.85655 0.2962 0.16883 0.0
O183 O 0.84909 0.29849 0.22417 0.0
O184 O 0.80208 0.3141 0.23599 0.0
Mg185 Mg 0.77242 0.32017 0.18719 0.0
C186 C 0.8295 0.30559 0.24476 0.0
C187 C 0.92584 0.27892 0.20046 0.0
O188 O 0.93843 0.28992 0.21148 0.0
O189 O 0.79049 0.28557 0.16556 0.0
O190 O 0.74165 0.30074 0.17825 0.0
O191 O 0.90774 0.3115 0.16944 0.0
O192 O 0.83488 0.31449 0.16187 0.0
C193 C 0.75049 0.2894 0.17073 0.0
C194 C 0.87433 0.31916 0.16615 0.0
O195 O 0.89424 0.2783 0.17966 0.0
Mg196 Mg 0.905 0.29447 0.55242 0.0
O197 O 0.91039 0.29703 0.49703 0.0
O198 O 0.9641 0.31102 0.48641 0.0
Mg199 Mg -0.00386 0.31641 0.53512 0.0
C200 C 0.93304 0.30361 0.47701 0.0
C201 C 0.82675 0.27849 0.52505 0.0
O202 O 0.81685 0.28938 0.51214 0.0
O203 O 0.9672 0.2823 0.55363 0.0
O204 O 0.02146 0.29633 0.54453 0.0
O205 O 0.85846 0.31071 0.55539 0.0
O206 O 0.93235 0.31215 0.56038 0.0
C207 C 0.00861 0.28517 0.55062 0.0
C208 C 0.89387 0.31764 0.55896 0.0
O209 O 0.86087 0.27758 0.54352 0.0
Mg210 Mg 0.85091 0.43317 0.59023 0.0
O211 O 0.85236 0.4313 0.53441 0.0
O212 O 0.80401 0.41651 0.51853 0.0
Mg213 Mg 0.76546 0.41069 0.56411 0.0
C214 C 0.83443 0.42456 0.51225 0.0
C215 C 0.92832 0.45 0.56704 0.0
O216 O 0.94075 0.43913 0.55501 0.0
O217 O 0.78745 0.44482 0.58779 0.0
O218 O 0.73735 0.43063 0.57086 0.0
O219 O 0.89902 0.4173 0.59344 0.0
O220 O 0.82499 0.41515 0.59418 0.0
C221 C 0.74769 0.44179 0.57926 0.0
C222 C 0.86416 0.41003 0.59314 0.0
O223 O 0.89337 0.45058 0.58481 0.0
Mg224 Mg 0.5782 0.04579 0.80843 0.0
O225 O 0.58062 0.04871 0.75309 0.0
O226 O 0.53251 0.06375 0.73889 0.0
Mg227 Mg 0.49461 0.06919 0.7853 0.0
C228 C 0.56282 0.05577 0.73168 0.0
C229 C 0.65477 0.02888 0.78335 0.0
O230 O 0.66789 0.03975 0.77192 0.0
O231 O 0.51394 0.03457 0.80401 0.0
O232 O 0.46451 0.04938 0.79013 0.0
O233 O 0.62709 0.06136 0.81533 0.0
O234 O 0.55318 0.06376 0.81524 0.0
C235 C 0.47416 0.03802 0.79674 0.0
C236 C 0.59256 0.06874 0.81655 0.0
O237 O 0.61969 0.02833 0.80098 0.0
Mg238 Mg 0.64041 0.1847 0.8369 0.0
O239 O 0.64516 0.18311 0.78119 0.0
O240 O 0.69684 0.16886 0.76774 0.0
Mg241 Mg 0.7298 0.16272 0.81535 0.0
C242 C 0.66642 0.1767 0.7599 0.0
C243 C 0.56473 0.20126 0.81031 0.0
O244 O 0.55452 0.19041 0.79714 0.0
O245 O 0.70312 0.19659 0.83872 0.0
O246 O 0.7562 0.18264 0.82586 0.0
O247 O 0.59275 0.16875 0.83714 0.0
O248 O 0.66656 0.16671 0.84179 0.0
C249 C 0.74414 0.19373 0.83372 0.0
C250 C 0.62765 0.16153 0.83873 0.0
O251 O 0.59778 0.20195 0.82984 0.0
Mg252 Mg 0.56479 0.18559 0.45452 0.0
O253 O 0.56652 0.1833 0.5102 0.0
O254 O 0.51622 0.16881 0.52447 0.0
Mg255 Mg 0.47875 0.16294 0.47835 0.0
C256 C 0.54729 0.17656 0.5317 0.0
C257 C 0.64504 0.20186 0.47568 0.0
O258 O 0.65688 0.1909 0.48726 0.0
O259 O 0.50127 0.19725 0.45728 0.0
O260 O 0.45032 0.18277 0.47066 0.0
O261 O 0.61263 0.16973 0.44913 0.0
O262 O 0.53865 0.16761 0.44902 0.0
C263 C 0.46088 0.19403 0.4635 0.0
C264 C 0.57778 0.16246 0.44837 0.0
O265 O 0.60836 0.20283 0.46002 0.0
Mg266 Mg 0.62024 0.04645 0.42602 0.0
O267 O 0.6375 0.0483 0.48034 0.0
O268 O 0.68928 0.06315 0.48745 0.0
Mg269 Mg 0.71041 0.06937 0.43646 0.0
C270 C 0.6621 0.05504 0.49883 0.0
C271 C 0.55389 0.02921 0.46193 0.0
O272 O 0.54516 0.04001 0.47593 0.0
O273 O 0.68333 0.03524 0.41573 0.0
O274 O 0.73664 0.04975 0.42274 0.0
O275 O 0.57128 0.062 0.43189 0.0
O276 O 0.64255 0.06468 0.41793 0.0
C277 C 0.72448 0.03857 0.41594 0.0
C278 C 0.60441 0.06953 0.42591 0.0
O279 O 0.5822 0.02879 0.43872 0.0
Mg280 Mg 0.42252 0.93833 0.20324 0.0
O281 O 0.4206 0.93551 0.25868 0.0
O282 O 0.4719 0.92117 0.27212 0.0
Mg283 Mg 0.50973 0.91589 0.22561 0.0
C284 C 0.44031 0.9287 0.27978 0.0
C285 C 0.3422 0.95462 0.22549 0.0
O286 O 0.33041 0.94382 0.23808 0.0
O287 O 0.48496 0.95023 0.20727 0.0
O288 O 0.53715 0.93597 0.21945 0.0
O289 O 0.37548 0.92242 0.19648 0.0
O290 O 0.44958 0.92055 0.19656 0.0
C291 C 0.52559 0.94724 0.21323 0.0
C292 C 0.41065 0.91529 0.19521 0.0
O293 O 0.37845 0.95537 0.20925 0.0
Mg294 Mg 0.35925 0.80004 0.16323 0.0
O295 O 0.3585 0.80183 0.21912 0.0
O296 O 0.31086 0.81693 0.23412 0.0
Mg297 Mg 0.27494 0.82309 0.18772 0.0
C298 C 0.34022 0.80866 0.24099 0.0
C299 C 0.43347 0.78256 0.18821 0.0
O300 O 0.44663 0.79332 0.20052 0.0
O301 O 0.29463 0.78887 0.16418 0.0
O302 O 0.24518 0.80336 0.18038 0.0
O303 O 0.40901 0.81556 0.16119 0.0
O304 O 0.33526 0.81823 0.15886 0.0
C305 C 0.25488 0.79215 0.17204 0.0
C306 C 0.37485 0.82307 0.16073 0.0
O307 O 0.3995 0.78231 0.16945 0.0
Mg308 Mg 0.40558 0.79465 0.54707 0.0
O309 O 0.41707 0.79671 0.49206 0.0
O310 O 0.47225 0.81047 0.48368 0.0
Mg311 Mg 0.49902 0.81624 0.53378 0.0
C312 C 0.442 0.80306 0.47298 0.0
C313 C 0.33131 0.77824 0.51552 0.0
O314 O 0.32302 0.78893 0.50096 0.0
O315 O 0.46705 0.78242 0.55282 0.0
O316 O 0.52263 0.79625 0.54627 0.0
O317 O 0.35924 0.81095 0.54629 0.0
O318 O 0.43238 0.81237 0.55547 0.0
C319 C 0.50873 0.78518 0.55233 0.0
C320 C 0.39429 0.81789 0.55145 0.0
O321 O 0.36257 0.77768 0.53657 0.0
Mg322 Mg 0.35558 0.93338 0.58597 0.0
O323 O 0.34834 0.93188 0.53034 0.0
O324 O 0.29848 0.91702 0.51781 0.0
Mg325 Mg 0.26809 0.91055 0.56595 0.0
C326 C 0.32732 0.92524 0.50944 0.0
C327 C 0.42836 0.9506 0.55767 0.0
O328 O 0.43938 0.93979 0.54459 0.0
O329 O 0.29117 0.94463 0.58989 0.0
O330 O 0.23985 0.93019 0.57679 0.0
O331 O 0.40504 0.91778 0.58424 0.0
O332 O 0.33182 0.91514 0.59103 0.0
C333 C 0.25052 0.94134 0.58496 0.0
C334 C 0.37096 0.91028 0.58644 0.0
O335 O 0.39593 0.95105 0.57783 0.0
Mg336 Mg 0.58305 0.54656 0.31225 0.0
O337 O 0.57863 0.54752 0.25652 0.0
O338 O 0.52318 0.56053 0.24265 0.0
Mg339 Mg 0.48897 0.56681 0.28983 0.0
C340 C 0.55553 0.55325 0.23505 0.0
C341 C 0.6272 0.51982 0.31996 0.0
O342 O 0.59465 0.51804 0.34113 0.0
O343 O 0.52273 0.53368 0.31505 0.0
O344 O 0.46671 0.54675 0.3026 0.0
O345 O 0.62676 0.56337 0.31233 0.0
O346 O 0.55261 0.56407 0.31667 0.0
C347 C 0.48104 0.53595 0.31094 0.0
C348 C 0.59026 0.56995 0.31417 0.0
O349 O 0.63083 0.53032 0.30581 0.0
Mg350 Mg 0.61305 0.68644 0.32424 0.0
O351 O 0.62652 0.68395 0.26939 0.0
O352 O 0.67818 0.66909 0.26178 0.0
Mg353 Mg 0.70357 0.66376 0.31233 0.0
C354 C 0.65002 0.67699 0.25067 0.0
C355 C 0.54452 0.70334 0.28893 0.0
O356 O 0.53508 0.69253 0.27525 0.0
O357 O 0.67614 0.69809 0.33069 0.0
O358 O 0.72944 0.6837 0.32214 0.0
O359 O 0.56486 0.67047 0.32185 0.0
O360 O 0.63726 0.66855 0.33324 0.0
C361 C 0.71733 0.69492 0.32836 0.0
C362 C 0.59913 0.66331 0.32739 0.0
O363 O 0.57348 0.70379 0.31167 0.0
Mg364 Mg 0.61168 0.68334 0.93844 0.0
O365 O 0.59828 0.68191 0.99339 0.0
O366 O 0.54364 0.6681 0.00287 0.0
Mg367 Mg 0.51742 0.66214 0.95282 0.0
C368 C 0.57346 0.67576 0.01296 0.0
C369 C 0.68269 0.69982 0.97239 0.0
O370 O 0.6904 0.68907 0.98677 0.0
O371 O 0.55078 0.69567 0.93131 0.0
O372 O 0.49474 0.6822 0.94054 0.0
O373 O 0.65725 0.66689 0.94149 0.0
O374 O 0.58435 0.66565 0.93106 0.0
C375 C 0.50903 0.69314 0.93341 0.0
C376 C 0.62192 0.66005 0.93652 0.0
O377 O 0.6541 0.70032 0.94943 0.0
Mg378 Mg 0.64261 0.54335 0.92862 0.0
O379 O 0.64768 0.54482 0.98437 0.0
O380 O 0.7005 0.55874 0.99772 0.0
Mg381 Mg 0.73424 0.56463 0.95022 0.0
C382 C 0.66944 0.55111 0.0056 0.0
C383 C 0.56429 0.52769 0.95487 0.0
O384 O 0.55558 0.53868 0.96784 0.0
O385 O 0.70426 0.53097 0.92595 0.0
O386 O 0.75833 0.54458 0.93929 0.0
O387 O 0.59684 0.55978 0.92867 0.0
O388 O 0.67081 0.5611 0.92372 0.0
C389 C 0.74546 0.5336 0.93106 0.0
C390 C 0.63262 0.56665 0.92684 0.0
O391 O 0.59769 0.52654 0.93577 0.0
Mg392 Mg 0.37075 0.43429 0.65804 0.0
O393 O 0.37023 0.43505 0.71402 0.0
O394 O 0.42618 0.42344 0.73377 0.0
Mg395 Mg 0.46271 0.41515 0.68977 0.0
C396 C 0.39234 0.43059 0.73795 0.0
C397 C 0.28933 0.45013 0.6769 0.0
O398 O 0.2788 0.43925 0.68956 0.0
O399 O 0.43143 0.44716 0.65513 0.0
O400 O 0.48576 0.43474 0.67428 0.0
O401 O 0.32684 0.41753 0.66026 0.0
O402 O 0.40124 0.41679 0.65954 0.0
C403 C 0.47236 0.44518 0.66276 0.0
C404 C 0.36343 0.411 0.66223 0.0
O405 O 0.32428 0.45097 0.65922 0.0
Mg406 Mg 0.35062 0.29475 0.68741 0.0
O407 O 0.33571 0.29638 0.7422 0.0
O408 O 0.27931 0.30981 0.74998 0.0
Mg409 Mg 0.25429 0.31547 0.6995 0.0
C410 C 0.30955 0.3025 0.76102 0.0
C411 C 0.42348 0.2789 0.72148 0.0
O412 O 0.42986 0.28969 0.73618 0.0
O413 O 0.2908 0.28203 0.67897 0.0
O414 O 0.23361 0.29532 0.68621 0.0
O415 O 0.39485 0.3115 0.69098 0.0
O416 O 0.32225 0.31223 0.67929 0.0
C417 C 0.24883 0.28443 0.67953 0.0
C418 C 0.35917 0.31809 0.68525 0.0
O419 O 0.39444 0.2781 0.69886 0.0
Mg420 Mg 0.36753 0.29794 0.07285 0.0
O421 O 0.37634 0.29917 0.01725 0.0
O422 O 0.42326 0.31477 0.00519 0.0
Mg423 Mg 0.45087 0.32193 0.05368 0.0
C424 C 0.39651 0.30605 0.99654 0.0
C425 C 0.30055 0.27924 0.04349 0.0
O426 O 0.28834 0.28965 0.02903 0.0
O427 O 0.43394 0.28774 0.07822 0.0
O428 O 0.48275 0.30284 0.06536 0.0
O429 O 0.31496 0.31278 0.06976 0.0
O430 O 0.38735 0.31649 0.07779 0.0
C431 C 0.47403 0.29159 0.07377 0.0
C432 C 0.34753 0.32076 0.07244 0.0
O433 O 0.33145 0.2796 0.06484 0.0
Mg434 Mg 0.31259 0.43628 0.04571 0.0
O435 O 0.30691 0.4368 0.99025 0.0
O436 O 0.24801 0.42557 0.97378 0.0
Mg437 Mg 0.21683 0.41731 0.02019 0.0
C438 C 0.28191 0.43248 0.96764 0.0
C439 C 0.39428 0.4515 0.02395 0.0
O440 O 0.40224 0.44062 0.01015 0.0
O441 O 0.25322 0.44922 0.05228 0.0
O442 O 0.1955 0.43678 0.03938 0.0
O443 O 0.35593 0.41964 0.0417 0.0
O444 O 0.28185 0.4187 0.04669 0.0
C445 C 0.21113 0.44723 0.04957 0.0
C446 C 0.31962 0.41296 0.0427 0.0
O447 O 0.35993 0.45273 0.04211 0.0
H448 H 0.15204 0.0707 0.01605 0.0
H449 H 0.08157 0.03312 0.1735 0.0
H450 H 0.10636 0.03255 0.00612 0.0
H451 H 0.03877 0.07117 0.1576 0.0
H452 H 0.10757 0.03214 0.11643 0.0
H453 H 0.12918 0.07042 0.07344 0.0
C454 C 0.138 0.06219 0.02608 0.0
C455 C 0.13109 0.05162 0.0063 0.0
C456 C 0.09229 0.04065 0.12559 0.0
C457 C 0.10522 0.05127 0.07183 0.0
C458 C 0.07753 0.04123 0.15799 0.0
C459 C 0.05772 0.05222 0.17013 0.0
C460 C 0.0885 0.05126 0.10575 0.0
C461 C 0.05341 0.06248 0.14911 0.0
C462 C 0.12464 0.06209 0.05869 0.0
C463 C 0.11219 0.04089 0.02054 0.0
N464 N 0.06919 0.06181 0.11806 0.0
N465 N 0.10004 0.04096 0.05258 0.0
H466 H 0.14572 0.1832 0.05289 0.0
H467 H 0.06364 0.18981 0.23744 0.0
H468 H 0.0075 0.17815 0.08235 0.0
H469 H 0.19608 0.17626 0.21225 0.0
H470 H 0.04527 0.19094 0.1794 0.0
H471 H 0.16676 0.18581 0.11037 0.0
C472 C 0.11974 0.18277 0.07139 0.0
C473 C 0.07481 0.18035 0.06288 0.0
C474 C 0.07846 0.18784 0.18665 0.0
C475 C 0.09863 0.1835 0.12837 0.0
C476 C 0.08913 0.18725 0.21975 0.0
C477 C 0.13138 0.1828 0.22976 0.0
C478 C 0.11045 0.18416 0.16337 0.0
C479 C 0.16298 0.17962 0.20563 0.0
C480 C 0.13184 0.18421 0.10412 0.0
C481 C 0.04257 0.17986 0.08787 0.0
N482 N 0.15184 0.18034 0.1735 0.0
N483 N 0.0551 0.18145 0.1195 0.0
H484 H 0.90722 0.93953 0.98062 0.0
H485 H 0.82736 0.93647 0.79501 0.0
H486 H 0.77197 0.92908 0.9534 0.0
H487 H 0.96302 0.92803 0.8253 0.0
H488 H 0.80607 0.93912 0.85247 0.0
H489 H 0.92711 0.94078 0.92288 0.0
C490 C 0.88151 0.93764 0.96256 0.0
C491 C 0.83792 0.93405 0.97192 0.0
C492 C 0.84054 0.93679 0.8464 0.0
C493 C 0.86057 0.93559 0.90582 0.0
C494 C 0.8528 0.93534 0.81369 0.0
C495 C 0.89699 0.93193 0.80542 0.0
C496 C 0.8729 0.93507 0.87088 0.0
C497 C 0.92852 0.93055 0.83063 0.0
C498 C 0.89301 0.93831 0.92962 0.0
C499 C 0.80607 0.93175 0.94731 0.0
N500 N 0.91587 0.93214 0.86224 0.0
N501 N 0.81805 0.93254 0.91533 0.0
H502 H 0.85836 0.78191 0.98858 0.0
H503 H 0.7717 0.81766 0.83264 0.0
H504 H 0.89172 0.82058 0.97082 0.0
H505 H 0.82978 0.78091 0.82097 0.0
H506 H 0.7954 0.81769 0.88981 0.0
H507 H 0.82945 0.7803 0.93233 0.0
C508 C 0.85967 0.79003 0.97284 0.0
C509 C 0.87781 0.80137 0.98416 0.0
C510 C 0.8024 0.80958 0.87474 0.0
C511 C 0.84369 0.79968 0.92082 0.0
C512 C 0.78862 0.80949 0.84224 0.0
C513 C 0.79892 0.79927 0.822 0.0
C514 C 0.82568 0.79928 0.88731 0.0
C515 C 0.82136 0.78899 0.83575 0.0
C516 C 0.84327 0.78909 0.94092 0.0
C517 C 0.87853 0.81163 0.96292 0.0
N518 N 0.83396 0.78923 0.86769 0.0
N519 N 0.86123 0.81058 0.93238 0.0
H520 H 0.11115 0.53339 0.71489 0.0
H521 H 0.17707 0.57244 0.55881 0.0
H522 H 0.07222 0.57205 0.70433 0.0
H523 H 0.13229 0.53423 0.54862 0.0
H524 H 0.15484 0.572 0.61639 0.0
H525 H 0.13365 0.53305 0.65716 0.0
C526 C 0.1071 0.54177 0.70038 0.0
C527 C 0.08949 0.55275 0.71428 0.0
C528 C 0.15019 0.5637 0.6015 0.0
C529 C 0.11632 0.55248 0.64894 0.0
C530 C 0.16319 0.5639 0.56879 0.0
C531 C 0.15652 0.55334 0.54895 0.0
C532 C 0.1314 0.55279 0.61462 0.0
C533 C 0.1379 0.54257 0.5631 0.0
C534 C 0.11991 0.54155 0.66757 0.0
C535 C 0.08517 0.56336 0.69448 0.0
N536 N 0.12622 0.54253 0.59521 0.0
N537 N 0.09903 0.56301 0.66288 0.0
H538 H 0.19071 0.65842 0.68882 0.0
H539 H 0.09893 0.6973 0.54047 0.0
H540 H 0.14336 0.69604 0.7058 0.0
H541 H 0.05889 0.65897 0.55578 0.0
H542 H 0.13039 0.69776 0.59609 0.0
H543 H 0.15896 0.65917 0.63373 0.0
C544 C 0.17421 0.6669 0.68079 0.0
C545 C 0.16962 0.67719 0.70186 0.0
C546 C 0.11439 0.68932 0.58716 0.0
C547 C 0.13376 0.6781 0.63896 0.0
C548 C 0.09655 0.68903 0.55559 0.0
C549 C 0.07604 0.6781 0.54368 0.0
C550 C 0.11295 0.67848 0.60632 0.0
C551 C 0.07398 0.66762 0.56414 0.0
C552 C 0.15585 0.66727 0.64952 0.0
C553 C 0.14747 0.6879 0.69029 0.0
N554 N 0.09277 0.66801 0.59431 0.0
N555 N 0.13056 0.68813 0.65943 0.0
H556 H 0.86895 0.44523 0.48192 0.0
H557 H 0.95504 0.40884 0.32526 0.0
H558 H 0.83934 0.40616 0.46625 0.0
H559 H 0.89951 0.44596 0.31633 0.0
H560 H 0.93204 0.40858 0.38274 0.0
H561 H 0.89831 0.44644 0.42584 0.0
C562 C 0.86866 0.43693 0.46669 0.0
C563 C 0.85132 0.4256 0.47851 0.0
C564 C 0.92541 0.41681 0.36817 0.0
C565 C 0.88589 0.42686 0.41526 0.0
C566 C 0.9388 0.41702 0.33555 0.0
C567 C 0.92905 0.42743 0.31606 0.0
C568 C 0.90314 0.42719 0.38153 0.0
C569 C 0.90747 0.43773 0.33054 0.0
C570 C 0.88533 0.43764 0.43485 0.0
C571 C 0.85188 0.4151 0.4579 0.0
N572 N 0.89532 0.43738 0.36253 0.0
N573 N 0.86929 0.41595 0.42734 0.0
H574 H 0.86061 0.28497 0.27717 0.0
H575 H 0.94287 0.32231 0.43247 0.0
H576 H 0.82846 0.32398 0.29106 0.0
H577 H 0.89347 0.28456 0.44247 0.0
H578 H 0.91616 0.32247 0.37593 0.0
H579 H 0.88652 0.28401 0.33407 0.0
C580 C 0.85873 0.29329 0.29225 0.0
C581 C 0.84207 0.30456 0.27952 0.0
C582 C 0.91141 0.31415 0.39054 0.0
C583 C 0.87274 0.30358 0.34388 0.0
C584 C 0.92693 0.314 0.42264 0.0
C585 C 0.92035 0.3034 0.44215 0.0
C586 C 0.89015 0.30353 0.37762 0.0
C587 C 0.89907 0.29293 0.42825 0.0
C588 C 0.87347 0.29273 0.32459 0.0
C589 C 0.8406 0.31509 0.30001 0.0
N590 N 0.88496 0.29322 0.39667 0.0
N591 N 0.85629 0.31439 0.33109 0.0
H592 H 0.59868 0.03551 0.69996 0.0
H593 H 0.67653 0.07345 0.54389 0.0
H594 H 0.5654 0.07443 0.6865 0.0
H595 H 0.62945 0.03541 0.53467 0.0
H596 H 0.65447 0.07331 0.60148 0.0
H597 H 0.62723 0.03475 0.64364 0.0
C598 C 0.59742 0.04388 0.68517 0.0
C599 C 0.57933 0.05503 0.69773 0.0
C600 C 0.64948 0.06497 0.58684 0.0
C601 C 0.61291 0.05429 0.63408 0.0
C602 C 0.66238 0.06499 0.55412 0.0
C603 C 0.65473 0.05443 0.53447 0.0
C604 C 0.62972 0.05423 0.60018 0.0
C605 C 0.63578 0.04376 0.54896 0.0
C606 C 0.61363 0.04343 0.65317 0.0
C607 C 0.5786 0.06562 0.67762 0.0
N608 N 0.62399 0.04391 0.58105 0.0
N609 N 0.59554 0.06502 0.64685 0.0
H610 H 0.62801 0.19667 0.72871 0.0
H611 H 0.54662 0.15783 0.57654 0.0
H612 H 0.67179 0.15865 0.71297 0.0
H613 H 0.58622 0.19634 0.56385 0.0
H614 H 0.57816 0.15831 0.63172 0.0
H615 H 0.59955 0.19718 0.67236 0.0
C616 C 0.63192 0.18848 0.71334 0.0
C617 C 0.65247 0.17762 0.7254 0.0
C618 C 0.57976 0.16665 0.61682 0.0
C619 C 0.61901 0.17805 0.66175 0.0
C620 C 0.5615 0.16642 0.5855 0.0
C621 C 0.56378 0.17707 0.56567 0.0
C622 C 0.59943 0.17767 0.62867 0.0
C623 C 0.58389 0.18793 0.5784 0.0
C624 C 0.61577 0.1888 0.68132 0.0
C625 C 0.65654 0.16724 0.70454 0.0
N626 N 0.60065 0.188 0.60931 0.0
N627 N 0.63936 0.16765 0.67386 0.0
H628 H 0.32155 0.90725 0.46234 0.0
H629 H 0.40108 0.94817 0.31287 0.0
H630 H 0.36269 0.94553 0.47771 0.0
H631 H 0.44173 0.90967 0.32378 0.0
H632 H 0.37161 0.94786 0.36901 0.0
H633 H 0.34903 0.90847 0.40611 0.0
C634 C 0.33573 0.91597 0.45374 0.0
C635 C 0.33986 0.92631 0.47468 0.0
C636 C 0.38717 0.93954 0.35899 0.0
C637 C 0.37094 0.92776 0.4105 0.0
C638 C 0.40386 0.93968 0.32709 0.0
C639 C 0.42408 0.92895 0.31383 0.0
C640 C 0.38954 0.92847 0.37718 0.0
C641 C 0.42679 0.91818 0.33321 0.0
C642 C 0.35169 0.91661 0.4218 0.0
C643 C 0.35899 0.93734 0.46234 0.0
N644 N 0.40924 0.91817 0.3638 0.0
N645 N 0.37365 0.93781 0.4309 0.0
H646 H 0.40388 0.78414 0.43709 0.0
H647 H 0.34216 0.82675 0.28794 0.0
H648 H 0.45627 0.82164 0.42876 0.0
H649 H 0.37379 0.78785 0.27142 0.0
H650 H 0.37075 0.82489 0.34377 0.0
H651 H 0.3808 0.785 0.3795 0.0
C652 C 0.4109 0.79248 0.42307 0.0
C653 C 0.43217 0.80282 0.43763 0.0
C654 C 0.37133 0.81678 0.32786 0.0
C655 C 0.40478 0.80396 0.3725 0.0
C656 C 0.35473 0.81779 0.29617 0.0
C657 C 0.35553 0.80743 0.27512 0.0
C658 C 0.38778 0.80524 0.33884 0.0
C659 C 0.37265 0.79607 0.28693 0.0
C660 C 0.39779 0.79295 0.39034 0.0
C661 C 0.44032 0.81343 0.41843 0.0
N662 N 0.38772 0.79523 0.31821 0.0
N663 N 0.42597 0.8138 0.38698 0.0
H664 H 0.63123 0.53131 0.03772 0.0
H665 H 0.54843 0.57107 0.18803 0.0
H666 H 0.67365 0.56957 0.05139 0.0
H667 H 0.59472 0.53333 0.20382 0.0
H668 H 0.57749 0.57005 0.13211 0.0
H669 H 0.60247 0.5312 0.09409 0.0
C670 C 0.63474 0.53963 0.05264 0.0
C671 C 0.65511 0.55044 0.04005 0.0
C672 C 0.58096 0.56199 0.14784 0.0
C673 C 0.6212 0.55047 0.10359 0.0
C674 C 0.56412 0.56251 0.17957 0.0
C675 C 0.56926 0.55227 0.20051 0.0
C676 C 0.60202 0.55104 0.13675 0.0
C677 C 0.59029 0.54144 0.18841 0.0
C678 C 0.6184 0.53955 0.08465 0.0
C679 C 0.65862 0.561 0.06028 0.0
N680 N 0.60569 0.54106 0.15714 0.0
N681 N 0.64126 0.56081 0.09093 0.0
H682 H 0.66011 0.658 0.20679 0.0
H683 H 0.6078 0.69579 0.0466 0.0
H684 H 0.61925 0.69664 0.21402 0.0
H685 H 0.56028 0.65799 0.05958 0.0
H686 H 0.62691 0.69663 0.10498 0.0
H687 H 0.63986 0.65812 0.14886 0.0
C688 C 0.64747 0.66656 0.19609 0.0
C689 C 0.6414 0.67734 0.21518 0.0
C690 C 0.61201 0.68822 0.09493 0.0
C691 C 0.61859 0.67752 0.14908 0.0
C692 C 0.60116 0.68771 0.06176 0.0
C693 C 0.58218 0.67682 0.04835 0.0
C694 C 0.60512 0.67763 0.11442 0.0
C695 C 0.57444 0.6666 0.069 0.0
C696 C 0.6356 0.66657 0.16318 0.0
C697 C 0.62437 0.68813 0.20012 0.0
N698 N 0.5865 0.66719 0.10094 0.0
N699 N 0.61384 0.68799 0.16779 0.0
H700 H 0.44122 0.42977 0.79439 0.0
H701 H 0.23152 0.42916 0.91199 0.0
H702 H 0.30752 0.43701 0.75804 0.0
H703 H 0.36337 0.4405 0.94494 0.0
H704 H 0.25788 0.43067 0.8554 0.0
H705 H 0.41311 0.43226 0.85017 0.0
C706 C 0.40602 0.43196 0.79815 0.0
C707 C 0.37663 0.43314 0.77156 0.0
C708 C 0.28076 0.43297 0.87509 0.0
C709 C 0.34417 0.4358 0.83525 0.0
C710 C 0.26582 0.43207 0.90736 0.0
C711 C 0.29533 0.43463 0.93329 0.0
C712 C 0.32574 0.43617 0.8688 0.0
C713 C 0.33941 0.43842 0.9258 0.0
C714 C 0.39005 0.43343 0.82995 0.0
C715 C 0.33134 0.43605 0.77784 0.0
N716 N 0.35344 0.43889 0.89429 0.0
N717 N 0.31632 0.4371 0.80909 0.0
H718 H 0.29025 0.32058 0.80594 0.0
H719 H 0.36903 0.28487 0.9642 0.0
H720 H 0.34884 0.2838 0.79684 0.0
H721 H 0.39704 0.32407 0.94976 0.0
H722 H 0.34588 0.28328 0.90663 0.0
H723 H 0.31176 0.32094 0.86359 0.0
C724 C 0.30695 0.3125 0.81618 0.0
C725 C 0.31782 0.30214 0.79658 0.0
C726 C 0.35737 0.29218 0.9162 0.0
C727 C 0.34217 0.30251 0.8624 0.0
C728 C 0.37052 0.29311 0.94889 0.0
C729 C 0.3853 0.30461 0.96161 0.0
C730 C 0.35767 0.30291 0.8966 0.0
C731 C 0.38637 0.315 0.94083 0.0
C732 C 0.31952 0.31277 0.84894 0.0
C733 C 0.33996 0.29197 0.81111 0.0
N734 N 0.37219 0.31394 0.90945 0.0
N735 N 0.35127 0.29238 0.84329 0.0
H736 H 0.35682 0.97823 0.20244 0.0
H737 H 0.13646 0.0068 0.28623 0.0
H738 H 0.26396 0.95656 0.26036 0.0
H739 H 0.22773 0.02822 0.22638 0.0
H740 H 0.18345 0.98837 0.27781 0.0
H741 H 0.31044 -0.00328 0.2116 0.0
C742 C 0.32663 0.97735 0.21707 0.0
C743 C 0.31418 0.96583 0.23062 0.0
C744 C 0.19323 -0.0029 0.26655 0.0
C745 C 0.26099 0.98697 0.24125 0.0
C746 C 0.16644 0.00764 0.27136 0.0
C747 C 0.1782 0.01907 0.25696 0.0
C748 C 0.23205 -0.002 0.24719 0.0
C749 C 0.21739 0.0196 0.23794 0.0
C750 C 0.30018 0.98792 0.2223 0.0
C751 C 0.27477 0.96525 0.2494 0.0
N752 N 0.24291 0.0092 0.23359 0.0
N753 N 0.24956 0.97569 0.25416 0.0
H754 H 0.98591 0.27703 0.25069 0.0
H755 H 0.96543 0.20263 0.26283 0.0
H756 H 0.90396 0.25464 0.18602 0.0
H757 H 0.04396 0.22517 0.32936 0.0
H758 H 0.94119 0.22162 0.23512 0.0
H759 H 0.00808 0.25809 0.2795 0.0
C760 C 0.9729 0.26812 0.24233 0.0
C761 C 0.94303 0.26742 0.21588 0.0
C762 C 0.96349 0.22242 0.25591 0.0
C763 C 0.96786 0.24571 0.24904 0.0
C764 C 0.97716 0.21158 0.27188 0.0
C765 C 0.00689 0.2123 0.2984 0.0
C766 C 0.97976 0.23407 0.26648 0.0
C767 C 0.02106 0.22416 0.30898 0.0
C768 C 0.98536 0.25731 0.25894 0.0
C769 C 0.92709 0.25562 0.20626 0.0
N770 N 0.00757 0.23458 0.29286 0.0
N771 N 0.93962 0.24523 0.2229 0.0
H772 H 0.2377 0.20083 0.01844 0.0
H773 H 0.24057 0.27498 0.99424 0.0
H774 H 0.16426 0.22014 0.94292 0.0
H775 H 0.319 0.25594 0.06755 0.0
H776 H 0.21343 0.25482 0.97458 0.0
H777 H 0.27067 0.22075 0.03541 0.0
C778 C 0.22895 0.20922 0.00516 0.0
C779 C 0.19794 0.20884 0.97938 0.0
C780 C 0.23657 0.25504 0.99498 0.0
C781 C 0.23503 0.23164 0.99891 0.0
C782 C 0.25189 0.26656 0.00633 0.0
C783 C 0.28197 0.26714 0.03264 0.0
C784 C 0.25134 0.244 0.01007 0.0
C785 C 0.29573 0.25592 0.04723 0.0
C786 C 0.24761 0.2206 0.01497 0.0
C787 C 0.18779 0.22001 0.96308 0.0
N788 N 0.28026 0.2448 0.03576 0.0
N789 N 0.20604 0.23096 0.97327 0.0
H790 H 0.04737 0.00303 0.91521 0.0
H791 H 0.93651 0.97452 0.07652 0.0
H792 H 0.98514 0.02532 0.99084 0.0
H793 H -0.00543 0.95195 0.9997 0.0
H794 H 0.95839 -0.0067 0.0469 0.0
H795 H 0.02998 0.9842 0.94631 0.0
C796 C 0.02966 0.00396 0.9382 0.0
C797 C 0.01765 0.01577 0.95044 0.0
C798 C 0.96666 0.98424 0.03663 0.0
C799 C -0.00173 -0.00572 0.98635 0.0
C800 C 0.95443 0.97351 0.05364 0.0
C801 C 0.96348 0.96165 0.04047 0.0
C802 C 0.98797 0.98311 0.00618 0.0
C803 C 0.98687 0.96091 0.01077 0.0
C804 C 0.01999 -0.00679 0.95603 0.0
C805 C -0.00509 0.01641 0.98041 0.0
N806 N -0.00202 0.9715 0.99447 0.0
N807 N 0.98611 0.00582 0.99739 0.0
H808 H 0.72611 0.02642 0.74161 0.0
H809 H 0.72916 0.95174 0.75206 0.0
H810 H 0.63512 0.0049 0.80145 0.0
H811 H 0.81922 0.97311 0.69113 0.0
H812 H 0.69294 0.97113 0.76927 0.0
H813 H 0.76047 0.00699 0.72254 0.0
C814 C 0.71353 0.01762 0.75089 0.0
C815 C 0.67773 0.01728 0.77318 0.0
C816 C 0.72049 0.97158 0.75201 0.0
C817 C 0.71662 -0.00498 0.75126 0.0
C818 C 0.74108 0.9605 0.74208 0.0
C819 C 0.77737 0.96081 0.72022 0.0
C820 C 0.73636 0.98306 0.74006 0.0
C821 C 0.7914 0.97244 0.70808 0.0
C822 C 0.73304 0.00652 0.73988 0.0
C823 C 0.66268 0.0056 0.78428 0.0
N824 N 0.77099 0.98311 0.7183 0.0
N825 N 0.68218 -0.00506 0.77316 0.0
H826 H 0.0929 0.72295 0.81973 0.0
H827 H 0.89508 0.75344 0.7146 0.0
H828 H 0.00949 0.70211 0.75255 0.0
H829 H 0.9727 0.77386 0.78618 0.0
H830 H 0.93713 0.73457 0.72796 0.0
H831 H 0.04921 0.7417 0.80788 0.0
C832 C 0.06526 0.72231 0.80259 0.0
C833 C 0.05485 0.71096 0.78704 0.0
C834 C 0.94497 0.74317 0.74076 0.0
C835 C 0.0049 0.7324 0.77326 0.0
C836 C 0.92105 0.75396 0.73309 0.0
C837 C 0.93047 0.76525 0.74928 0.0
C838 C 0.97863 0.74366 0.76474 0.0
C839 C 0.96438 0.76536 0.77307 0.0
C840 C 0.04036 0.73302 0.79582 0.0
C841 C 0.01869 0.71066 0.76509 0.0
N842 N 0.98729 0.75472 0.78007 0.0
N843 N -0.0049 0.72125 0.75876 0.0
H844 H 0.66943 0.72369 0.95075 0.0
H845 H 0.8119 0.75521 0.09448 0.0
H846 H 0.73778 0.70256 0.02545 0.0
H847 H 0.73429 0.77608 0.02417 0.0
H848 H 0.78479 0.73579 0.06993 0.0
H849 H 0.69457 0.74299 0.97674 0.0
C850 C 0.69005 0.7231 0.97248 0.0
C851 C 0.70151 0.71149 0.98597 0.0
C852 C 0.77346 0.74462 0.06002 0.0
C853 C 0.72999 0.73356 0.01605 0.0
C854 C 0.78876 0.75571 0.0741 0.0
C855 C 0.77547 0.76729 0.06125 0.0
C856 C 0.74486 0.74512 0.0328 0.0
C857 C 0.74543 0.76738 0.03487 0.0
C858 C 0.70417 0.73413 0.98742 0.0
C859 C 0.72822 0.7113 0.01419 0.0
N860 N 0.73139 0.75645 0.02136 0.0
N861 N 0.74148 0.72219 0.02835 0.0
H862 H 0.16157 0.50314 0.80495 0.0
H863 H 0.30493 0.47427 0.65789 0.0
H864 H 0.23684 0.52548 0.73633 0.0
H865 H 0.22468 0.45217 0.72404 0.0
H866 H 0.27756 0.49322 0.68463 0.0
H867 H 0.18376 0.48436 0.7751 0.0
C868 C 0.18308 0.50409 0.78375 0.0
C869 C 0.19748 0.5159 0.77316 0.0
C870 C 0.26563 0.48423 0.69311 0.0
C871 C 0.22253 0.49445 0.73864 0.0
C872 C 0.28105 0.4734 0.67774 0.0
C873 C 0.26734 0.46161 0.68893 0.0
C874 C 0.23647 0.48325 0.71994 0.0
C875 C 0.23627 0.46106 0.71467 0.0
C876 C 0.1955 0.49337 0.76659 0.0
C877 C 0.22512 0.51657 0.74545 0.0
N878 N 0.22221 0.47173 0.72951 0.0
N879 N 0.2367 0.50598 0.72911 0.0
H880 H 0.34293 0.75456 0.53895 0.0
H881 H 0.14702 0.72487 0.42976 0.0
H882 H 0.26287 0.77594 0.47117 0.0
H883 H 0.23315 0.70335 0.49318 0.0
H884 H 0.18908 0.74369 0.44434 0.0
H885 H 0.30249 0.73573 0.52263 0.0
C886 C 0.31674 0.75531 0.52068 0.0
C887 C 0.30619 0.76685 0.50643 0.0
C888 C 0.19888 0.73484 0.45496 0.0
C889 C 0.25985 0.7453 0.48755 0.0
C890 C 0.17492 0.72409 0.44662 0.0
C891 C 0.18654 0.71252 0.46034 0.0
C892 C 0.2346 0.73403 0.47725 0.0
C893 C 0.22299 0.71206 0.48202 0.0
C894 C 0.29374 0.74454 0.51131 0.0
C895 C 0.27204 0.76724 0.48283 0.0
N896 N 0.24561 0.72268 0.4899 0.0
N897 N 0.25005 0.75661 0.47414 0.0
H898 H 0.91055 0.47402 0.58643 0.0
H899 H 0.07576 0.50417 0.45427 0.0
H900 H -0.00382 0.4524 0.52247 0.0
H901 H -0.00236 0.52595 0.52277 0.0
H902 H 0.04601 0.48509 0.47856 0.0
H903 H 0.94247 0.49317 0.56387 0.0
C904 C 0.93636 0.47329 0.56785 0.0
C905 C 0.95062 0.46159 0.55623 0.0
C906 C 0.03531 0.49404 0.48827 0.0
C907 C 0.9869 0.48346 0.53007 0.0
C908 C 0.05212 0.50495 0.47429 0.0
C909 C 0.03912 0.51668 0.48649 0.0
C910 C 0.00522 0.49486 0.5146 0.0
C911 C 0.00852 0.51711 0.51255 0.0
C912 C 0.95446 0.48423 0.55491 0.0
C913 C 0.98416 0.46121 0.53215 0.0
N914 N -0.00738 0.50635 0.52577 0.0
N915 N 0.00097 0.472 0.51973 0.0
H916 H 0.69768 0.52072 0.27738 0.0
H917 H 0.75255 0.44768 0.28863 0.0
H918 H 0.62564 0.49542 0.34058 0.0
H919 H 0.8194 0.47319 0.22308 0.0
H920 H 0.70709 0.46502 0.30929 0.0
H921 H 0.74457 0.50344 0.25909 0.0
C922 C 0.69182 0.51153 0.28757 0.0
C923 C 0.65752 0.5095 0.31048 0.0
C924 C 0.73168 0.46681 0.29037 0.0
C925 C 0.71113 0.48961 0.28942 0.0
C926 C 0.75759 0.45692 0.27851 0.0
C927 C 0.78976 0.45899 0.25403 0.0
C928 C 0.73806 0.47886 0.27769 0.0
C929 C 0.79494 0.47115 0.2419 0.0
C930 C 0.71861 0.50165 0.27703 0.0
C931 C 0.65165 0.49739 0.32285 0.0
N932 N 0.76937 0.48062 0.25387 0.0
N933 N 0.67813 0.48787 0.31206 0.0
H934 H 0.75175 0.27703 0.48646 0.0
H935 H 0.72314 0.20322 0.51069 0.0
H936 H 0.83984 0.25452 0.54599 0.0
H937 H 0.63058 0.22588 0.45525 0.0
H938 H 0.76769 0.22186 0.52238 0.0
H939 H 0.70793 0.25833 0.47351 0.0
C940 C 0.76184 0.26816 0.49686 0.0
C941 C 0.79946 0.26733 0.51739 0.0
C942 C 0.73766 0.22276 0.50762 0.0
C943 C 0.7496 0.24591 0.50259 0.0
C944 C 0.71224 0.21211 0.50088 0.0
C945 C 0.67304 0.213 0.48201 0.0
C946 C 0.72382 0.23439 0.49537 0.0
C947 C 0.66054 0.22477 0.46995 0.0
C948 C 0.73683 0.25749 0.48943 0.0
C949 C 0.81104 0.2556 0.5301 0.0
N950 N 0.68584 0.23501 0.47688 0.0
N951 N 0.7862 0.24535 0.52247 0.0
H952 H 0.41445 0.25502 0.69843 0.0
H953 H 0.57774 0.22521 0.83219 0.0
H954 H 0.48316 0.2768 0.77206 0.0
H955 H 0.50031 0.20349 0.76316 0.0
H956 H 0.54411 0.24426 0.81038 0.0
H957 H 0.4476 0.23609 0.72098 0.0
C958 C 0.43675 0.25584 0.71923 0.0
C959 C 0.44602 0.26752 0.73342 0.0
C960 C 0.53433 0.23532 0.80012 0.0
C961 C 0.48383 0.24585 0.75952 0.0
C962 C 0.55341 0.22443 0.81262 0.0
C963 C 0.54185 0.21274 0.79943 0.0
C964 C 0.50363 0.2345 0.77418 0.0
C965 C 0.51018 0.2123 0.77409 0.0
C966 C 0.45552 0.24501 0.73219 0.0
C967 C 0.47511 0.268 0.76035 0.0
N968 N 0.49233 0.22303 0.76219 0.0
N969 N 0.49294 0.2573 0.77258 0.0
H970 H 0.56897 0.0052 0.44133 0.0
H971 H 0.41252 0.97457 0.57843 0.0
H972 H 0.49548 0.02669 0.51309 0.0
H973 H 0.49176 0.95315 0.50982 0.0
H974 H 0.44304 -0.00622 0.55521 0.0
H975 H 0.54027 0.98602 0.46581 0.0
C976 C 0.54658 0.0059 0.46212 0.0
C977 C 0.53456 0.01757 0.47516 0.0
C978 C 0.45392 0.98488 0.54535 0.0
C979 C 0.50186 -0.00436 0.50347 0.0
C980 C 0.43661 0.9739 0.55865 0.0
C981 C 0.44953 0.96223 0.54598 0.0
C982 C 0.48423 0.98419 0.51911 0.0
C983 C 0.48084 0.96193 0.52035 0.0
C984 C 0.53036 -0.00507 0.47618 0.0
C985 C 0.50557 0.0179 0.50219 0.0
N986 N 0.49694 0.97275 0.50766 0.0
N987 N 0.49024 0.00709 0.51547 0.0
H988 H 0.56169 0.72729 0.3089 0.0
H989 H 0.41337 0.7587 0.16868 0.0
H990 H 0.48698 0.70606 0.23728 0.0
H991 H 0.49734 0.77955 0.23547 0.0
H992 H 0.4399 0.73929 0.19325 0.0
H993 H 0.5367 0.74655 0.28299 0.0
C994 C 0.53974 0.72667 0.28786 0.0
C995 C 0.52641 0.71504 0.27522 0.0
C996 C 0.45272 0.74811 0.20239 0.0
C997 C 0.49804 0.73708 0.24524 0.0
C998 C 0.43773 0.7592 0.18829 0.0
C999 C 0.45307 0.77077 0.20013 0.0
C1000 C 0.48309 0.74861 0.22859 0.0
C1001 C 0.4846 0.77084 0.22558 0.0
C1002 C 0.52569 0.73769 0.27296 0.0
C1003 C 0.49804 0.71483 0.24786 0.0
N1004 N 0.49835 0.75993 0.2391 0.0
N1005 N 0.48485 0.72569 0.23373 0.0
H1006 H 0.46635 0.45244 0.98261 0.0
H1007 H 0.49425 0.52662 0.99803 0.0
H1008 H 0.38475 0.47557 0.04576 0.0
H1009 H 0.57517 0.5035 0.93441 0.0
H1010 H 0.45409 0.508 0.01616 0.0
H1011 H 0.50794 0.47099 0.96572 0.0
C1012 C 0.45739 0.46141 0.99311 0.0
C1013 C 0.42196 0.46247 0.01557 0.0
C1014 C 0.48057 0.507 0.99819 0.0
C1015 C 0.46916 0.48375 0.99614 0.0
C1016 C 0.50342 0.51764 0.98773 0.0
C1017 C 0.53808 0.51661 0.96465 0.0
C1018 C 0.4925 0.49525 0.98547 0.0
C1019 C 0.54863 0.50472 0.95223 0.0
C1020 C 0.48105 0.47201 0.98337 0.0
C1021 C 0.41178 0.47433 0.02834 0.0
N1022 N 0.52595 0.4945 0.96284 0.0
N1023 N 0.43519 0.48452 0.01835 0.0
H1024 H 0.01952 0.14827 0.30929 0.0
H1025 H 0.15631 0.0843 0.28838 0.0
H1026 H 0.1595 0.14413 0.33513 0.0
H1027 H 0.01143 0.08682 0.2855 0.0
H1028 H 0.16 0.10693 0.29723 0.0
H1029 H 0.01779 0.1263 0.29287 0.0
C1030 C 0.04993 0.14275 0.31144 0.0
C1031 C 0.08974 0.14805 0.32358 0.0
C1032 C 0.12746 0.10251 0.29437 0.0
C1033 C 0.08804 0.12294 0.30465 0.0
C1034 C 0.12533 0.08962 0.28917 0.0
C1035 C 0.08349 0.08365 0.28628 0.0
C1036 C 0.08747 0.10946 0.29652 0.0
C1037 C 0.04442 0.091 0.28756 0.0
C1038 C 0.04893 0.13022 0.30202 0.0
C1039 C 0.12816 0.14047 0.32572 0.0
N1040 N 0.04736 0.10351 0.29271 0.0
N1041 N 0.12635 0.12829 0.31636 0.0
H1042 H 0.0173 0.14328 0.95242 0.0
H1043 H 0.15061 0.08449 0.88525 0.0
H1044 H 0.16186 0.14228 0.94256 0.0
H1045 H 0.01903 0.08072 0.92876 0.0
H1046 H 0.15237 0.10629 0.90211 0.0
H1047 H 0.01474 0.12079 0.94153 0.0
C1048 C 0.04856 0.13832 0.94845 0.0
C1049 C 0.08988 0.14468 0.94825 0.0
C1050 C 0.12318 0.10069 0.90816 0.0
C1051 C 0.08697 0.11907 0.93513 0.0
C1052 C 0.12211 0.08823 0.89852 0.0
C1053 C 0.0849 0.08071 0.90607 0.0
C1054 C 0.08648 0.10579 0.92506 0.0
C1055 C 0.04844 0.08619 0.92254 0.0
C1056 C 0.047 0.12549 0.94217 0.0
C1057 C 0.12926 0.13777 0.94287 0.0
N1058 N 0.05009 0.09844 0.93148 0.0
N1059 N 0.12678 0.12536 0.93613 0.0
H1060 H 0.93863 0.89233 0.70161 0.0
H1061 H 0.77414 0.83382 0.70693 0.0
H1062 H 0.79415 0.89575 0.70764 0.0
H1063 H 0.91705 0.83093 0.72404 0.0
H1064 H 0.78078 0.8565 0.7072 0.0
H1065 H 0.93162 0.86985 0.70973 0.0
C1066 C 0.90545 0.88839 0.70496 0.0
C1067 C 0.86691 0.89595 0.70399 0.0
C1068 C 0.81063 0.85092 0.71122 0.0
C1069 C 0.85864 0.87017 0.71284 0.0
C1070 C 0.80686 0.83794 0.71112 0.0
C1071 C 0.8451 0.83045 0.7155 0.0
C1072 C 0.85304 0.85646 0.7153 0.0
C1073 C 0.88669 0.83635 0.72053 0.0
C1074 C 0.90149 0.87553 0.70958 0.0
C1075 C 0.82476 0.89027 0.70817 0.0
N1076 N 0.88962 0.84902 0.72002 0.0
N1077 N 0.82173 0.87771 0.71218 0.0
H1078 H 0.93629 0.89612 0.07037 0.0
H1079 H 0.78841 0.83386 0.08421 0.0
H1080 H 0.79244 0.89695 0.08481 0.0
H1081 H 0.93184 0.83561 0.10019 0.0
H1082 H 0.78792 0.85662 0.07602 0.0
H1083 H 0.93387 0.87333 0.07136 0.0
C1084 C 0.90413 0.89151 0.07344 0.0
C1085 C 0.86457 0.89844 0.07774 0.0
C1086 C 0.81943 0.85195 0.08115 0.0
C1087 C 0.86158 0.87237 0.07907 0.0
C1088 C 0.81973 0.839 0.08587 0.0
C1089 C 0.86029 0.83281 0.09256 0.0
C1090 C 0.86002 0.85865 0.08293 0.0
C1091 C 0.89989 0.83991 0.09451 0.0
C1092 C 0.90278 0.87851 0.07413 0.0
C1093 C 0.82378 0.89197 0.08148 0.0
N1094 N 0.89875 0.85242 0.08963 0.0
N1095 N 0.82333 0.87927 0.08222 0.0
H1096 H 0.06076 0.58458 0.83785 0.0
H1097 H 0.22212 0.6433 0.8156 0.0
H1098 H 0.20118 0.58093 0.81259 0.0
H1099 H 0.07718 0.64587 0.81551 0.0
H1100 H 0.21612 0.62055 0.81685 0.0
H1101 H 0.06718 0.60715 0.83267 0.0
C1102 C 0.09292 0.5885 0.83096 0.0
C1103 C 0.13039 0.58083 0.82529 0.0
C1104 C 0.18566 0.6261 0.8163 0.0
C1105 C 0.1381 0.60676 0.81982 0.0
C1106 C 0.18902 0.63909 0.81552 0.0
C1107 C 0.15007 0.64651 0.81533 0.0
C1108 C 0.14304 0.62048 0.81731 0.0
C1109 C 0.1081 0.64052 0.81561 0.0
C1110 C 0.09655 0.60142 0.82806 0.0
C1111 C 0.1714 0.5865 0.81709 0.0
N1112 N 0.10571 0.62785 0.81678 0.0
N1113 N 0.17422 0.59915 0.81468 0.0
H1114 H 0.16909 0.64758 0.4353 0.0
H1115 H 0.03992 0.58215 0.44829 0.0
H1116 H 0.02456 0.64412 0.43027 0.0
H1117 H 0.18155 0.5855 0.4266 0.0
H1118 H 0.03412 0.60499 0.4486 0.0
H1119 H 0.17484 0.62483 0.43899 0.0
C1120 C 0.13856 0.64205 0.43512 0.0
C1121 C 0.09627 0.64777 0.4326 0.0
C1122 C 0.06647 0.60069 0.44391 0.0
C1123 C 0.1026 0.62177 0.4369 0.0
C1124 C 0.06982 0.58767 0.44379 0.0
C1125 C 0.11133 0.5819 0.43758 0.0
C1126 C 0.10496 0.60796 0.43797 0.0
C1127 C 0.14896 0.58951 0.43183 0.0
C1128 C 0.14187 0.62907 0.43719 0.0
C1129 C 0.05784 0.64014 0.43247 0.0
N1130 N 0.14488 0.60215 0.4322 0.0
N1131 N 0.06191 0.62753 0.43462 0.0
H1132 H 0.94971 0.33214 0.18565 0.0
H1133 H 0.81579 0.39627 0.20607 0.0
H1134 H 0.81093 0.33721 0.15759 0.0
H1135 H 0.96014 0.39536 0.19455 0.0
H1136 H 0.8137 0.37366 0.19787 0.0
H1137 H 0.95481 0.35469 0.19687 0.0
C1138 C 0.9204 0.33796 0.18182 0.0
C1139 C 0.87963 0.33275 0.17114 0.0
C1140 C 0.84585 0.37842 0.19729 0.0
C1141 C 0.88507 0.35834 0.18434 0.0
C1142 C 0.84711 0.39131 0.20215 0.0
C1143 C 0.88819 0.39772 0.20091 0.0
C1144 C 0.88599 0.37188 0.19145 0.0
C1145 C 0.92773 0.3908 0.19571 0.0
C1146 C 0.92332 0.35079 0.18828 0.0
C1147 C 0.84275 0.34073 0.16648 0.0
N1148 N 0.92568 0.37822 0.19114 0.0
N1149 N 0.84626 0.35309 0.17334 0.0
H1150 H 0.96225 0.3346 0.56582 0.0
H1151 H 0.79759 0.39243 0.59435 0.0
H1152 H 0.81766 0.33198 0.5587 0.0
H1153 H 0.94091 0.39655 0.58116 0.0
H1154 H 0.80479 0.37009 0.58396 0.0
H1155 H 0.95557 0.35714 0.57334 0.0
C1156 C 0.9291 0.33876 0.5655 0.0
C1157 C 0.89043 0.33138 0.56149 0.0
C1158 C 0.83466 0.37588 0.5832 0.0
C1159 C 0.88257 0.35719 0.57067 0.0
C1160 C 0.83059 0.38866 0.5891 0.0
C1161 C 0.86866 0.3964 0.58828 0.0
C1162 C 0.87719 0.37075 0.57673 0.0
C1163 C 0.91066 0.39093 0.58198 0.0
C1164 C 0.92533 0.35165 0.56991 0.0
C1165 C 0.84836 0.33731 0.56166 0.0
N1166 N 0.91382 0.37842 0.57646 0.0
N1167 N 0.84554 0.34986 0.56636 0.0
H1168 H 0.52615 0.08631 0.82056 0.0
H1169 H 0.69428 0.14389 0.84182 0.0
H1170 H 0.67064 0.08241 0.81742 0.0
H1171 H 0.55124 0.14799 0.82717 0.0
H1172 H 0.68644 0.12132 0.83496 0.0
H1173 H 0.53485 0.10887 0.82484 0.0
C1174 C 0.55976 0.09019 0.82046 0.0
C1175 C 0.59775 0.08245 0.81835 0.0
C1176 C 0.65681 0.12717 0.8331 0.0
C1177 C 0.60793 0.10834 0.8238 0.0
C1178 C 0.66125 0.14006 0.83696 0.0
C1179 C 0.62338 0.14785 0.83484 0.0
C1180 C 0.61414 0.12201 0.82736 0.0
C1181 C 0.58135 0.14234 0.82896 0.0
C1182 C 0.56469 0.1031 0.82302 0.0
C1183 C 0.64044 0.08803 0.8189 0.0
N1184 N 0.57785 0.12975 0.82549 0.0
N1185 N 0.6444 0.10066 0.82167 0.0
H1186 H 0.65546 0.14876 0.44597 0.0
H1187 H 0.53029 0.08258 0.44647 0.0
H1188 H 0.51094 0.14486 0.44818 0.0
H1189 H 0.66794 0.08758 0.41549 0.0
H1190 H 0.52396 0.10523 0.45405 0.0
H1191 H 0.66223 0.12601 0.44201 0.0
C1192 C 0.62517 0.14313 0.44586 0.0
C1193 C 0.58257 0.14873 0.44751 0.0
C1194 C 0.55556 0.10133 0.44568 0.0
C1195 C 0.59008 0.12274 0.44302 0.0
C1196 C 0.5592 0.08842 0.44135 0.0
C1197 C 0.5998 0.08316 0.43053 0.0
C1198 C 0.59287 0.10901 0.43934 0.0
C1199 C 0.63616 0.09118 0.42425 0.0
C1200 C 0.62906 0.13016 0.44351 0.0
C1201 C 0.54447 0.14097 0.44721 0.0
N1202 N 0.63187 0.1037 0.42883 0.0
N1203 N 0.54912 0.12837 0.44502 0.0
H1204 H 0.47805 0.89787 0.19175 0.0
H1205 H 0.31009 0.84111 0.15749 0.0
H1206 H 0.33341 0.9015 0.19138 0.0
H1207 H 0.4522 0.83604 0.17457 0.0
H1208 H 0.31879 0.86342 0.16761 0.0
H1209 H 0.46997 0.87534 0.18394 0.0
C1210 C 0.44457 0.89393 0.19033 0.0
C1211 C 0.40632 0.90158 0.19233 0.0
C1212 C 0.34808 0.85744 0.16927 0.0
C1213 C 0.3969 0.87583 0.18289 0.0
C1214 C 0.34314 0.84467 0.16353 0.0
C1215 C 0.38041 0.83667 0.16552 0.0
C1216 C 0.39069 0.86229 0.17681 0.0
C1217 C 0.42255 0.84187 0.17284 0.0
C1218 C 0.44002 0.88106 0.18576 0.0
C1219 C 0.36382 0.89596 0.19 0.0
N1220 N 0.42657 0.85438 0.17823 0.0
N1221 N 0.36027 0.88343 0.18526 0.0
H1222 H 0.44712 0.89732 0.56948 0.0
H1223 H 0.31818 0.8322 0.54859 0.0
H1224 H 0.30589 0.89229 0.59028 0.0
H1225 H 0.4624 0.8349 0.55884 0.0
H1226 H 0.3128 0.85486 0.55571 0.0
H1227 H 0.45325 0.87487 0.55835 0.0
C1228 C 0.41742 0.89152 0.57167 0.0
C1229 C 0.37583 0.89672 0.58053 0.0
C1230 C 0.34563 0.85047 0.55622 0.0
C1231 C 0.38253 0.87113 0.56754 0.0
C1232 C 0.34875 0.83756 0.55202 0.0
C1233 C 0.3908 0.83164 0.55312 0.0
C1234 C 0.38487 0.85752 0.56133 0.0
C1235 C 0.42929 0.83905 0.5577 0.0
C1236 C 0.42094 0.87873 0.56527 0.0
C1237 C 0.33847 0.88875 0.58302 0.0
N1238 N 0.4254 0.85162 0.56166 0.0
N1239 N 0.34267 0.87637 0.57644 0.0
H1240 H 0.52624 0.64911 0.30916 0.0
H1241 H 0.66433 0.58503 0.31147 0.0
H1242 H 0.66503 0.64619 0.33922 0.0
H1243 H 0.51923 0.58628 0.31497 0.0
H1244 H 0.66594 0.60786 0.31302 0.0
H1245 H 0.52353 0.62627 0.3035 0.0
C1246 C 0.55611 0.64369 0.31448 0.0
C1247 C 0.59606 0.64958 0.32434 0.0
C1248 C 0.63375 0.60312 0.3133 0.0
C1249 C 0.5933 0.6236 0.31763 0.0
C1250 C 0.6328 0.59009 0.3123 0.0
C1251 C 0.59159 0.58373 0.31308 0.0
C1252 C 0.5932 0.60982 0.31486 0.0
C1253 C 0.55177 0.59079 0.31417 0.0
C1254 C 0.55455 0.63069 0.31122 0.0
C1255 C 0.63374 0.64211 0.33099 0.0
N1256 N 0.55355 0.60347 0.31503 0.0
N1257 N 0.63148 0.62952 0.32739 0.0
H1258 H 0.69574 0.64526 0.94704 0.0
H1259 H 0.55794 0.58116 0.93681 0.0
H1260 H 0.55289 0.64343 0.9286 0.0
H1261 H 0.70193 0.58344 0.92429 0.0
H1262 H 0.55516 0.60395 0.94175 0.0
H1263 H 0.69837 0.62238 0.94688 0.0
C1264 C 0.6649 0.64007 0.94321 0.0
C1265 C 0.624 0.64628 0.93795 0.0
C1266 C 0.58735 0.59943 0.93805 0.0
C1267 C 0.62677 0.62018 0.93782 0.0
C1268 C 0.58897 0.58643 0.93525 0.0
C1269 C 0.63026 0.58037 0.9303 0.0
C1270 C 0.62733 0.60638 0.93609 0.0
C1271 C 0.66942 0.58768 0.92845 0.0
C1272 C 0.66645 0.62703 0.94305 0.0
C1273 C 0.58509 0.63907 0.93305 0.0
N1274 N 0.667 0.6003 0.9314 0.0
N1275 N 0.58743 0.6264 0.93312 0.0
H1276 H 0.2894 0.39629 0.67198 0.0
H1277 H 0.43139 0.33346 0.69662 0.0
H1278 H 0.43442 0.39486 0.66751 0.0
H1279 H 0.28929 0.33417 0.67491 0.0
H1280 H 0.43242 0.35634 0.69438 0.0
H1281 H 0.28809 0.37373 0.68137 0.0
C1282 C 0.32096 0.39125 0.67315 0.0
C1283 C 0.36208 0.39747 0.66898 0.0
C1284 C 0.401 0.35145 0.69034 0.0
C1285 C 0.36084 0.37171 0.67979 0.0
C1286 C 0.40036 0.33841 0.69168 0.0
C1287 C 0.36018 0.33188 0.686 0.0
C1288 C 0.36112 0.35797 0.68345 0.0
C1289 C 0.32098 0.33878 0.67968 0.0
C1290 C 0.3202 0.37839 0.67849 0.0
C1291 C 0.40196 0.39048 0.67079 0.0
N1292 N 0.32246 0.35144 0.67853 0.0
N1293 N 0.40035 0.37796 0.67603 0.0
H1294 H 0.39466 0.39861 0.03615 0.0
H1295 H 0.2701 0.33281 0.05333 0.0
H1296 H 0.25039 0.39596 0.04632 0.0
H1297 H 0.40921 0.33946 0.07818 0.0
H1298 H 0.26147 0.35523 0.04189 0.0
H1299 H 0.39987 0.37597 0.04068 0.0
C1300 C 0.36398 0.39326 0.039 0.0
C1301 C 0.32206 0.39919 0.04121 0.0
C1302 C 0.29384 0.3517 0.04972 0.0
C1303 C 0.32788 0.37325 0.04664 0.0
C1304 C 0.29879 0.33895 0.0563 0.0
C1305 C 0.34061 0.33422 0.06635 0.0
C1306 C 0.3311 0.35968 0.05293 0.0
C1307 C 0.3766 0.3426 0.06991 0.0
C1308 C 0.36702 0.38033 0.04174 0.0
C1309 C 0.28342 0.39175 0.04468 0.0
N1310 N 0.37105 0.35488 0.06306 0.0
N1311 N 0.28725 0.37912 0.04749 0.0
H1312 H 0.97552 0.02006 0.32967 0.0
H1313 H 0.81171 0.03548 0.43472 0.0
H1314 H 0.8764 0.03594 0.26505 0.0
H1315 H 0.71481 0.02344 0.36298 0.0
H1316 H 0.87199 0.02738 0.40015 0.0
H1317 H 0.91494 0.01297 0.36557 0.0
C1318 C 0.941 0.02161 0.32228 0.0
C1319 C 0.93091 0.02895 0.29487 0.0
C1320 C 0.83747 0.02598 0.39255 0.0
C1321 C 0.86198 0.021 0.3359 0.0
C1322 C 0.8031 0.03067 0.41226 0.0
C1323 C 0.75845 0.03021 0.40148 0.0
C1324 C 0.82704 0.02123 0.36142 0.0
C1325 C 0.74894 0.02397 0.37209 0.0
C1326 C 0.90654 0.01765 0.34297 0.0
C1327 C 0.88559 0.03059 0.28641 0.0
N1328 N 0.78314 0.02015 0.35242 0.0
N1329 N 0.85272 0.02687 0.30725 0.0
H1330 H 0.19502 0.2065 0.40807 0.0
H1331 H 0.46039 0.21182 0.41602 0.0
H1332 H 0.28583 0.20082 0.32733 0.0
H1333 H 0.37683 0.19533 0.49044 0.0
H1334 H 0.39276 0.21957 0.38876 0.0
H1335 H 0.25823 0.21411 0.44111 0.0
C1336 C 0.22785 0.20742 0.39683 0.0
C1337 C 0.23565 0.20284 0.36521 0.0
C1338 C 0.38948 0.21472 0.41181 0.0
C1339 C 0.30737 0.21156 0.40255 0.0
C1340 C 0.428 0.21033 0.42749 0.0
C1341 C 0.42396 0.20263 0.45503 0.0
C1342 C 0.34701 0.21152 0.42412 0.0
C1343 C 0.3812 0.201 0.46883 0.0
C1344 C 0.26381 0.2117 0.41573 0.0
C1345 C 0.27875 0.20411 0.35182 0.0
N1346 N 0.34418 0.20519 0.45284 0.0
N1347 N 0.31326 0.20818 0.37076 0.0
H1348 H 0.73774 0.2128 0.87816 0.0
H1349 H 0.90872 0.20104 0.97642 0.0
H1350 H 0.83132 0.19477 0.81269 0.0
H1351 H -0.00012 0.20854 0.89704 0.0
H1352 H 0.84734 0.20966 0.94428 0.0
H1353 H 0.80118 0.2218 0.90818 0.0
C1354 C 0.77155 0.21111 0.86933 0.0
C1355 C 0.7795 0.20264 0.84368 0.0
C1356 C 0.88106 0.21003 0.93435 0.0
C1357 C 0.85167 0.21274 0.87803 0.0
C1358 C 0.9161 0.20503 0.95274 0.0
C1359 C 0.95903 0.20384 0.93902 0.0
C1360 C 0.88895 0.21339 0.90168 0.0
C1361 C 0.96701 0.20917 0.90831 0.0
C1362 C 0.80767 0.21618 0.88664 0.0
C1363 C 0.82387 0.20093 0.83302 0.0
N1364 N 0.93184 0.21323 0.89004 0.0
N1365 N 0.85842 0.20572 0.8507 0.0
H1366 H 0.20294 0.02304 0.83173 0.0
H1367 H 0.4685 0.01983 0.84295 0.0
H1368 H 0.28113 0.02907 0.9189 0.0
H1369 H 0.39366 0.0369 0.76472 0.0
H1370 H 0.39824 0.01125 0.86465 0.0
H1371 H 0.27127 0.01605 0.8034 0.0
C1372 C 0.23405 0.02226 0.84535 0.0
C1373 C 0.23691 0.02677 0.87745 0.0
C1374 C 0.39761 0.01643 0.84196 0.0
C1375 C 0.31436 0.01881 0.84549 0.0
C1376 C 0.4376 0.0213 0.82948 0.0
C1377 C 0.43651 0.02934 0.80249 0.0
C1378 C 0.3567 0.01949 0.82695 0.0
C1379 C 0.39564 0.03095 0.78601 0.0
C1380 C 0.27293 0.01835 0.82915 0.0
C1381 C 0.27792 0.02577 0.894 0.0
N1382 N 0.35709 0.02626 0.79886 0.0
N1383 N 0.31535 0.02207 0.87764 0.0
H1384 H 0.24945 0.95754 0.6364 0.0
H1385 H 0.98307 0.95551 0.63515 0.0
H1386 H 0.16774 0.94382 0.55705 0.0
H1387 H 0.06686 0.9475 0.71837 0.0
H1388 H 0.04966 0.96284 0.60553 0.0
H1389 H 0.1814 0.9654 0.6633 0.0
C1390 C 0.21745 0.95669 0.62394 0.0
C1391 C 0.21385 0.94979 0.59486 0.0
C1392 C 0.05302 0.95996 0.63075 0.0
C1393 C 0.13655 0.95879 0.62526 0.0
C1394 C 0.01511 0.95584 0.64772 0.0
C1395 C 0.01989 0.95066 0.67894 0.0
C1396 C 0.09551 0.95905 0.64543 0.0
C1397 C 0.06209 0.95123 0.69407 0.0
C1398 C 0.17872 0.96113 0.63937 0.0
C1399 C 0.17166 0.9489 0.57979 0.0
N1400 N 0.09855 0.95513 0.67695 0.0
N1401 N 0.13442 0.95315 0.59546 0.0
H1402 H 0.63891 0.78051 0.71427 0.0
H1403 H 0.59849 0.78273 0.53914 0.0
H1404 H 0.74632 0.76862 0.65057 0.0
H1405 H 0.49275 0.76816 0.60028 0.0
H1406 H 0.65404 0.77439 0.57719 0.0
H1407 H 0.58436 0.77278 0.67445 0.0
C1408 C 0.65096 0.77584 0.69245 0.0
C1409 C 0.69704 0.77542 0.68536 0.0
C1410 C 0.61873 0.77258 0.58166 0.0
C1411 C 0.6351 0.76703 0.63928 0.0
C1412 C 0.58704 0.77735 0.55992 0.0
C1413 C 0.54106 0.77637 0.56699 0.0
C1414 C 0.60413 0.76725 0.61112 0.0
C1415 C 0.52795 0.76926 0.59415 0.0
C1416 C 0.61987 0.77141 0.66971 0.0
C1417 C 0.71099 0.76924 0.6568 0.0
N1418 N 0.55933 0.76538 0.61598 0.0
N1419 N 0.68009 0.76571 0.63414 0.0
H1420 H 0.17722 0.79002 0.20692 0.0
H1421 H 0.05181 0.78152 0.0545 0.0
H1422 H 0.24686 0.77482 0.12344 0.0
H1423 H 0.98581 0.77329 0.14558 0.0
H1424 H 0.12328 0.77499 0.07822 0.0
H1425 H 0.10773 0.78035 0.18762 0.0
C1426 C 0.17808 0.78431 0.18504 0.0
C1427 C 0.2174 0.78341 0.16635 0.0
C1428 C 0.09295 0.7741 0.09269 0.0
C1429 C 0.13803 0.77267 0.14359 0.0
C1430 C 0.05216 0.77782 0.07908 0.0
C1431 C 0.01328 0.77814 0.09836 0.0
C1432 C 0.09487 0.77123 0.1261 0.0
C1433 C 0.0153 0.77327 0.13005 0.0
C1434 C 0.13849 0.77873 0.17407 0.0
C1435 C 0.21699 0.77583 0.13834 0.0
N1436 N 0.05585 0.77046 0.14344 0.0
N1437 N 0.17746 0.77109 0.12713 0.0
H1438 H 0.7835 0.96257 0.14329 0.0
H1439 H 0.61096 0.94823 0.23792 0.0
H1440 H 0.67992 0.95428 0.0728 0.0
H1441 H 0.52247 0.96634 0.16937 0.0
H1442 H 0.67524 0.95725 0.20967 0.0
H1443 H 0.72604 0.97086 0.18034 0.0
C1444 C 0.74894 0.963 0.13501 0.0
C1445 C 0.73604 0.95736 0.10544 0.0
C1446 C 0.64177 0.95978 0.20165 0.0
C1447 C 0.67066 0.96662 0.14765 0.0
C1448 C 0.60501 0.95454 0.21774 0.0
C1449 C 0.56152 0.95625 0.20538 0.0
C1450 C 0.63481 0.9664 0.17248 0.0
C1451 C 0.5556 0.9646 0.17934 0.0
C1452 C 0.71619 0.96763 0.1563 0.0
C1453 C 0.69096 0.95824 0.09581 0.0
N1454 N 0.59199 0.96894 0.16285 0.0
N1455 N 0.65966 0.96252 0.11719 0.0
H1456 H 0.00954 0.5193 0.87555 0.0
H1457 H 0.74344 0.51862 0.87738 0.0
H1458 H 0.92386 0.53268 0.79831 0.0
H1459 H 0.82756 0.52925 0.95856 0.0
H1460 H 0.81031 0.5113 0.8481 0.0
H1461 H 0.94328 0.51069 0.90315 0.0
C1462 C 0.97709 0.51991 0.86365 0.0
C1463 C 0.97176 0.52692 0.83502 0.0
C1464 C 0.81373 0.5147 0.87292 0.0
C1465 C 0.89659 0.51702 0.86611 0.0
C1466 C 0.77565 0.51882 0.88973 0.0
C1467 C 0.78037 0.5248 0.92008 0.0
C1468 C 0.85632 0.51641 0.88693 0.0
C1469 C 0.82282 0.52489 0.93491 0.0
C1470 C 0.9394 0.51503 0.87946 0.0
C1471 C 0.92906 0.52752 0.82068 0.0
N1472 N 0.85944 0.52099 0.91791 0.0
N1473 N 0.89287 0.52281 0.83667 0.0
H1474 H 0.25699 0.71182 0.85519 0.0
H1475 H 0.42415 0.6977 0.95557 0.0
H1476 H 0.35341 0.69507 0.78956 0.0
H1477 H 0.51857 0.70828 0.88073 0.0
H1478 H 0.36329 0.70636 0.92282 0.0
H1479 H 0.31904 0.72007 0.888 0.0
C1480 C 0.29115 0.7103 0.84688 0.0
C1481 C 0.30022 0.70234 0.82032 0.0
C1482 C 0.3975 0.70736 0.91414 0.0
C1483 C 0.37079 0.71162 0.85782 0.0
C1484 C 0.43221 0.70234 0.93283 0.0
C1485 C 0.47613 0.70212 0.92054 0.0
C1486 C 0.4068 0.71172 0.88251 0.0
C1487 C 0.48496 0.70821 0.89092 0.0
C1488 C 0.32648 0.71494 0.8658 0.0
C1489 C 0.34506 0.70084 0.81047 0.0
N1490 N 0.45027 0.71231 0.87222 0.0
N1491 N 0.37881 0.70519 0.82968 0.0
H1492 H 0.98013 0.71194 0.39087 0.0
H1493 H 0.7992 0.69912 0.30085 0.0
H1494 H 0.89146 0.69542 0.46211 0.0
H1495 H 0.71585 0.7096 0.38253 0.0
H1496 H 0.86484 0.70709 0.32989 0.0
H1497 H 0.91454 0.72027 0.36212 0.0
C1498 C 0.94702 0.71048 0.40121 0.0
C1499 C 0.94097 0.70262 0.42828 0.0
C1500 C 0.832 0.70823 0.34095 0.0
C1501 C 0.86635 0.71198 0.39542 0.0
C1502 C 0.79457 0.70362 0.32435 0.0
C1503 C 0.75239 0.70362 0.33954 0.0
C1504 C 0.82724 0.71238 0.37336 0.0
C1505 C 0.74799 0.70943 0.3701 0.0
C1506 C 0.90966 0.71516 0.38462 0.0
C1507 C 0.8974 0.70114 0.44077 0.0
N1508 N 0.78533 0.71314 0.38664 0.0
N1509 N 0.86158 0.70556 0.42383 0.0
H1510 H 0.49013 0.52052 0.36321 0.0
H1511 H 0.22536 0.52036 0.38345 0.0
H1512 H 0.39556 0.53166 0.28899 0.0
H1513 H 0.32009 0.53342 0.45557 0.0
H1514 H 0.28809 0.51232 0.35074 0.0
H1515 H 0.42752 0.5129 0.39645 0.0
C1516 C 0.45644 0.52079 0.35316 0.0
C1517 C 0.44771 0.52701 0.3237 0.0
C1518 C 0.29485 0.51645 0.37442 0.0
C1519 C 0.37655 0.51823 0.36138 0.0
C1520 C 0.25917 0.521 0.39316 0.0
C1521 C 0.26785 0.52778 0.42187 0.0
C1522 C 0.33911 0.51852 0.38491 0.0
C1523 C 0.31221 0.52842 0.43326 0.0
C1524 C 0.4208 0.51649 0.37225 0.0
C1525 C 0.40348 0.52714 0.31189 0.0
N1526 N 0.34639 0.52404 0.41445 0.0
N1527 N 0.36931 0.52305 0.33109 0.0
H1528 H 0.08464 0.45036 0.21329 0.0
H1529 H 0.12147 0.45067 0.03723 0.0
H1530 H 0.976 0.46227 0.15103 0.0
H1531 H 0.22896 0.46323 0.1 0.0
H1532 H 0.06702 0.45877 0.07655 0.0
H1533 H 0.13832 0.45899 0.17432 0.0
C1534 C 0.07208 0.45525 0.19203 0.0
C1535 C 0.02599 0.45535 0.18495 0.0
C1536 C 0.10252 0.46019 0.0812 0.0
C1537 C 0.08701 0.46476 0.1397 0.0
C1538 C 0.13361 0.45554 0.05873 0.0
C1539 C 0.1797 0.45596 0.06581 0.0
C1540 C 0.11776 0.46485 0.11133 0.0
C1541 C 0.19364 0.4625 0.09385 0.0
C1542 C 0.10271 0.46018 0.16973 0.0
C1543 C 0.01138 0.46185 0.15717 0.0
N1544 N 0.16276 0.46627 0.11625 0.0
N1545 N 0.04189 0.46587 0.13483 0.0
H1546 H 0.67146 0.28651 0.20331 0.0
H1547 H 0.47676 0.27478 0.12376 0.0
H1548 H 0.74189 0.27507 0.11626 0.0
H1549 H 0.55804 0.29073 0.04725 0.0
H1550 H 0.54535 0.26693 0.14995 0.0
H1551 H 0.60079 0.27977 0.17855 0.0
C1552 C 0.67216 0.28206 0.17951 0.0
C1553 C 0.71225 0.28141 0.16164 0.0
C1554 C 0.5479 0.27184 0.12694 0.0
C1555 C 0.63171 0.27404 0.13278 0.0
C1556 C 0.50887 0.27623 0.11186 0.0
C1557 C 0.51206 0.28366 0.08376 0.0
C1558 C 0.58998 0.27482 0.1135 0.0
C1559 C 0.55437 0.28526 0.0693 0.0
C1560 C 0.63185 0.27817 0.16538 0.0
C1561 C 0.71153 0.27571 0.13078 0.0
N1562 N 0.59184 0.28103 0.0846 0.0
N1563 N 0.67154 0.27268 0.11675 0.0
H1564 H -0.00035 0.26771 0.59841 0.0
H1565 H 0.26285 0.26996 0.62588 0.0
H1566 H 0.09596 0.28286 0.53042 0.0
H1567 H 0.16262 0.27924 0.69807 0.0
H1568 H 0.20322 0.26225 0.5898 0.0
H1569 H 0.06172 0.25951 0.63118 0.0
C1570 C 0.03373 0.26879 0.58948 0.0
C1571 C 0.04289 0.27625 0.56213 0.0
C1572 C 0.19464 0.26543 0.61415 0.0
C1573 C 0.11348 0.26681 0.59925 0.0
C1574 C 0.22856 0.26977 0.63483 0.0
C1575 C 0.21732 0.27546 0.66467 0.0
C1576 C 0.14959 0.26659 0.62382 0.0
C1577 C 0.17243 0.27509 0.675 0.0
C1578 C 0.06905 0.26414 0.6083 0.0
C1579 C 0.08763 0.27737 0.55174 0.0
N1580 N 0.13997 0.27094 0.65432 0.0
N1581 N 0.12145 0.27291 0.5707 0.0
H1582 H 0.47691 0.45758 0.60504 0.0
H1583 H 0.74076 0.45944 0.62719 0.0
H1584 H 0.54798 0.45218 0.69557 0.0
H1585 H 0.66988 0.44405 0.54448 0.0
H1586 H 0.67016 0.46861 0.64673 0.0
H1587 H 0.54703 0.46471 0.57973 0.0
C1588 C 0.50675 0.45851 0.62003 0.0
C1589 C 0.50721 0.45403 0.65216 0.0
C1590 C 0.67056 0.46366 0.62362 0.0
C1591 C 0.58683 0.46215 0.62354 0.0
C1592 C 0.71076 0.45845 0.6124 0.0
C1593 C 0.71066 0.45071 0.58468 0.0
C1594 C 0.63049 0.46122 0.60669 0.0
C1595 C 0.67098 0.44973 0.5664 0.0
C1596 C 0.54672 0.46251 0.60552 0.0
C1597 C 0.54667 0.45535 0.67051 0.0
N1598 N 0.63219 0.45473 0.57806 0.0
N1599 N 0.58527 0.45907 0.65575 0.0
loop_
_geom_bond_atom_site_label_1
_geom_bond_atom_site_label_2
_geom_bond_distance
_geom_bond_site_symmetry_2
_ccdc_geom_bond_type
Mg0 O1 2.028 . S
Mg0 O7 1.986 . S
Mg0 O9 2.114 . S
Mg0 O10 2.251 . S
Mg0 O13 2.010 . S
O1 Mg0 2.028 . S
O1 C4 1.250 . S
O2 Mg3 2.028 . S
O2 C4 1.248 . S
Mg3 O2 2.028 . S
Mg3 O8 2.032 1_455 S
Mg3 O10 2.079 . S
C4 O1 1.250 . S
C4 O2 1.248 . S
C5 O6 1.264 . S
C5 O13 1.249 . S
O6 C5 1.264 . S
O7 Mg0 1.986 . S
O7 C11 1.246 . S
O8 Mg3 2.032 1_655 S
O8 C11 1.259 1_655 S
O9 Mg0 2.114 . S
O9 C12 1.252 . S
O10 Mg0 2.251 . S
O10 Mg3 2.079 . S
O10 C12 1.273 . S
C11 O7 1.246 . S
C11 O8 1.259 1_455 S
C12 O9 1.252 . S
C12 O10 1.273 . S
O13 Mg0 2.010 . S
O13 C5 1.249 . S
Mg14 O15 2.028 . S
Mg14 O21 1.986 . S
Mg14 O23 2.114 . S
Mg14 O24 2.251 . S
Mg14 O27 2.010 . S
O15 Mg14 2.028 . S
O15 C18 1.250 . S
O16 Mg17 2.028 . S
O16 C18 1.248 . S
Mg17 O16 2.028 . S
Mg17 O22 2.032 . S
Mg17 O24 2.079 . S
C18 O15 1.250 . S
C18 O16 1.248 . S
C19 O20 1.264 . S
C19 O27 1.249 . S
O20 C19 1.264 . S
O21 Mg14 1.986 . S
O21 C25 1.246 . S
O22 Mg17 2.032 . S
O22 C25 1.259 . S
O23 Mg14 2.114 . S
O23 C26 1.252 . S
O24 Mg14 2.251 . S
O24 Mg17 2.079 . S
O24 C26 1.273 . S
C25 O21 1.246 . S
C25 O22 1.259 . S
C26 O23 1.252 . S
C26 O24 1.273 . S
O27 Mg14 2.010 . S
O27 C19 1.249 . S
Mg28 O29 2.028 1_556 S
Mg28 O35 1.986 . S
Mg28 O37 2.114 . S
Mg28 O38 2.251 . S
Mg28 O41 2.010 . S
O29 Mg28 2.028 1_554 S
O29 C32 1.250 . S
O30 Mg31 2.028 1_554 S
O30 C32 1.248 . S
Mg31 O30 2.028 1_556 S
Mg31 O36 2.032 1_455 S
Mg31 O38 2.079 . S
C32 O29 1.250 . S
C32 O30 1.248 . S
C33 O34 1.264 . S
C33 O41 1.249 . S
O34 C33 1.264 . S
O35 Mg28 1.986 . S
O35 C39 1.246 . S
O36 Mg31 2.032 1_655 S
O36 C39 1.259 1_655 S
O37 Mg28 2.114 . S
O37 C40 1.252 . S
O38 Mg28 2.251 . S
O38 Mg31 2.079 . S
O38 C40 1.273 . S
C39 O35 1.246 . S
C39 O36 1.259 1_455 S
C40 O37 1.252 . S
C40 O38 1.273 . S
O41 Mg28 2.010 . S
O41 C33 1.249 . S
Mg42 O43 2.028 1_556 S
Mg42 O49 1.986 . S
Mg42 O51 2.114 . S
Mg42 O52 2.251 . S
Mg42 O55 2.010 . S
O43 Mg42 2.028 1_554 S
O43 C46 1.250 . S
O44 Mg45 2.028 1_554 S
O44 C46 1.248 . S
Mg45 O44 2.028 1_556 S
Mg45 O50 2.032 . S
Mg45 O52 2.079 . S
C46 O43 1.250 . S
C46 O44 1.248 . S
C47 O48 1.264 . S
C47 O55 1.249 . S
O48 C47 1.264 . S
O49 Mg42 1.986 . S
O49 C53 1.246 . S
O50 Mg45 2.032 . S
O50 C53 1.259 . S
O51 Mg42 2.114 . S
O51 C54 1.252 . S
O52 Mg42 2.251 . S
O52 Mg45 2.079 . S
O52 C54 1.273 . S
C53 O49 1.246 . S
C53 O50 1.259 . S
C54 O51 1.252 . S
C54 O52 1.273 . S
O55 Mg42 2.010 . S
O55 C47 1.249 . S
Mg56 O57 2.028 . S
Mg56 O63 1.986 . S
Mg56 O65 2.114 . S
Mg56 O66 2.251 . S
Mg56 O69 2.010 . S
O57 Mg56 2.028 . S
O57 C60 1.250 . S
O58 Mg59 2.028 . S
O58 C60 1.248 . S
Mg59 O58 2.028 . S
Mg59 O64 2.032 1_655 S
Mg59 O66 2.079 . S
C60 O57 1.250 . S
C60 O58 1.248 . S
C61 O62 1.264 . S
C61 O69 1.249 . S
O62 C61 1.264 . S
O63 Mg56 1.986 . S
O63 C67 1.246 . S
O64 Mg59 2.032 1_455 S
O64 C67 1.259 1_455 S
O65 Mg56 2.114 . S
O65 C68 1.252 . S
O66 Mg56 2.251 . S
O66 Mg59 2.079 . S
O66 C68 1.273 . S
C67 O63 1.246 . S
C67 O64 1.259 1_655 S
C68 O65 1.252 . S
C68 O66 1.273 . S
O69 Mg56 2.010 . S
O69 C61 1.249 . S
Mg70 O71 2.028 . S
Mg70 O77 1.986 . S
Mg70 O79 2.114 . S
Mg70 O80 2.251 . S
Mg70 O83 2.010 . S
O71 Mg70 2.028 . S
O71 C74 1.250 . S
O72 Mg73 2.028 . S
O72 C74 1.248 . S
Mg73 O72 2.028 . S
Mg73 O78 2.032 . S
Mg73 O80 2.079 . S
C74 O71 1.250 . S
C74 O72 1.248 . S
C75 O76 1.264 . S
C75 O83 1.249 . S
O76 C75 1.264 . S
O77 Mg70 1.986 . S
O77 C81 1.246 . S
O78 Mg73 2.032 . S
O78 C81 1.259 . S
O79 Mg70 2.114 . S
O79 C82 1.252 . S
O80 Mg70 2.251 . S
O80 Mg73 2.079 . S
O80 C82 1.273 . S
C81 O77 1.246 . S
C81 O78 1.259 . S
C82 O79 1.252 . S
C82 O80 1.273 . S
O83 Mg70 2.010 . S
O83 C75 1.249 . S
Mg84 O85 2.028 1_554 S
Mg84 O91 1.986 . S
Mg84 O93 2.114 . S
Mg84 O94 2.251 . S
Mg84 O97 2.010 . S
O85 Mg84 2.028 1_556 S
O85 C88 1.250 . S
O86 Mg87 2.028 1_556 S
O86 C88 1.248 . S
Mg87 O86 2.028 1_554 S
Mg87 O92 2.032 1_655 S
Mg87 O94 2.079 . S
C88 O85 1.250 . S
C88 O86 1.248 . S
C89 O90 1.264 . S
C89 O97 1.249 . S
O90 C89 1.264 . S
O91 Mg84 1.986 . S
O91 C95 1.246 . S
O92 Mg87 2.032 1_455 S
O92 C95 1.259 1_455 S
O93 Mg84 2.114 . S
O93 C96 1.252 . S
O94 Mg84 2.251 . S
O94 Mg87 2.079 . S
O94 C96 1.273 . S
C95 O91 1.246 . S
C95 O92 1.259 1_655 S
C96 O93 1.252 . S
C96 O94 1.273 . S
O97 Mg84 2.010 . S
O97 C89 1.249 . S
Mg98 O99 2.028 1_554 S
Mg98 O105 1.986 . S
Mg98 O107 2.114 . S
Mg98 O108 2.251 . S
Mg98 O111 2.010 . S
O99 Mg98 2.028 1_556 S
O99 C102 1.250 . S
O100 Mg101 2.028 1_556 S
O100 C102 1.248 . S
Mg101 O100 2.028 1_554 S
Mg101 O106 2.032 . S
Mg101 O108 2.079 . S
C102 O99 1.250 . S
C102 O100 1.248 . S
C103 O104 1.264 . S
C103 O111 1.249 . S
O104 C103 1.264 . S
O105 Mg98 1.986 . S
O105 C109 1.246 . S
O106 Mg101 2.032 . S
O106 C109 1.259 . S
O107 Mg98 2.114 . S
O107 C110 1.252 . S
O108 Mg98 2.251 . S
O108 Mg101 2.079 . S
O108 C110 1.273 . S
C109 O105 1.246 . S
C109 O106 1.259 . S
C110 O107 1.252 . S
C110 O108 1.273 . S
O111 Mg98 2.010 . S
O111 C103 1.249 . S
Mg112 O113 2.028 . S
Mg112 O119 1.986 . S
Mg112 O121 2.114 . S
Mg112 O122 2.251 . S
Mg112 O125 2.010 . S
O113 Mg112 2.028 . S
O113 C116 1.250 . S
O114 Mg115 2.028 . S
O114 C116 1.248 . S
Mg115 O114 2.028 . S
Mg115 O120 2.032 1_455 S
Mg115 O122 2.079 . S
C116 O113 1.250 . S
C116 O114 1.248 . S
C117 O118 1.264 . S
C117 O125 1.249 . S
O118 C117 1.264 . S
O119 Mg112 1.986 . S
O119 C123 1.246 . S
O120 Mg115 2.032 1_655 S
O120 C123 1.259 1_655 S
O121 Mg112 2.114 . S
O121 C124 1.252 . S
O122 Mg112 2.251 . S
O122 Mg115 2.079 . S
O122 C124 1.273 . S
C123 O119 1.246 . S
C123 O120 1.259 1_455 S
C124 O121 1.252 . S
C124 O122 1.273 . S
O125 Mg112 2.010 . S
O125 C117 1.249 . S
Mg126 O127 2.028 . S
Mg126 O133 1.986 . S
Mg126 O135 2.114 . S
Mg126 O136 2.251 . S
Mg126 O139 2.010 . S
O127 Mg126 2.028 . S
O127 C130 1.250 . S
O128 Mg129 2.028 . S
O128 C130 1.248 . S
Mg129 O128 2.028 . S
Mg129 O134 2.032 . S
Mg129 O136 2.079 . S
C130 O127 1.250 . S
C130 O128 1.248 . S
C131 O132 1.264 . S
C131 O139 1.249 . S
O132 C131 1.264 . S
O133 Mg126 1.986 . S
O133 C137 1.246 . S
O134 Mg129 2.032 . S
O134 C137 1.259 . S
O135 Mg126 2.114 . S
O135 C138 1.252 . S
O136 Mg126 2.251 . S
O136 Mg129 2.079 . S
O136 C138 1.273 . S
C137 O133 1.246 . S
C137 O134 1.259 . S
C138 O135 1.252 . S
C138 O136 1.273 . S
O139 Mg126 2.010 . S
O139 C131 1.249 . S
Mg140 O141 2.028 . S
Mg140 O147 1.986 . S
Mg140 O149 2.114 . S
Mg140 O150 2.251 . S
Mg140 O153 2.010 . S
O141 Mg140 2.028 . S
O141 C144 1.250 . S
O142 Mg143 2.028 . S
O142 C144 1.248 . S
Mg143 O142 2.028 . S
Mg143 O148 2.032 1_455 S
Mg143 O150 2.079 . S
C144 O141 1.250 . S
C144 O142 1.248 . S
C145 O146 1.264 . S
C145 O153 1.249 . S
O146 C145 1.264 . S
O147 Mg140 1.986 . S
O147 C151 1.246 . S
O148 Mg143 2.032 1_655 S
O148 C151 1.259 1_655 S
O149 Mg140 2.114 . S
O149 C152 1.252 . S
O150 Mg140 2.251 . S
O150 Mg143 2.079 . S
O150 C152 1.273 . S
C151 O147 1.246 . S
C151 O148 1.259 1_455 S
C152 O149 1.252 . S
C152 O150 1.273 . S
O153 Mg140 2.010 . S
O153 C145 1.249 . S
Mg154 O155 2.028 . S
Mg154 O161 1.986 . S
Mg154 O163 2.114 . S
Mg154 O164 2.251 . S
Mg154 O167 2.010 . S
O155 Mg154 2.028 . S
O155 C158 1.250 . S
O156 Mg157 2.028 . S
O156 C158 1.248 . S
Mg157 O156 2.028 . S
Mg157 O162 2.032 . S
Mg157 O164 2.079 . S
C158 O155 1.250 . S
C158 O156 1.248 . S
C159 O160 1.264 . S
C159 O167 1.249 . S
O160 C159 1.264 . S
O161 Mg154 1.986 . S
O161 C165 1.246 . S
O162 Mg157 2.032 . S
O162 C165 1.259 . S
O163 Mg154 2.114 . S
O163 C166 1.252 . S
O164 Mg154 2.251 . S
O164 Mg157 2.079 . S
O164 C166 1.273 . S
C165 O161 1.246 . S
C165 O162 1.259 . S
C166 O163 1.252 . S
C166 O164 1.273 . S
O167 Mg154 2.010 . S
O167 C159 1.249 . S
Mg168 O169 2.028 . S
Mg168 O175 1.986 . S
Mg168 O177 2.114 . S
Mg168 O178 2.251 . S
Mg168 O181 2.010 . S
O169 Mg168 2.028 . S
O169 C172 1.250 . S
O170 Mg171 2.028 . S
O170 C172 1.248 . S
Mg171 O170 2.028 . S
Mg171 O176 2.032 1_655 S
Mg171 O178 2.079 . S
C172 O169 1.250 . S
C172 O170 1.248 . S
C173 O174 1.264 . S
C173 O181 1.249 . S
O174 C173 1.264 . S
O175 Mg168 1.986 . S
O175 C179 1.246 . S
O176 Mg171 2.032 1_455 S
O176 C179 1.259 1_455 S
O177 Mg168 2.114 . S
O177 C180 1.252 . S
O178 Mg168 2.251 . S
O178 Mg171 2.079 . S
O178 C180 1.273 . S
C179 O175 1.246 . S
C179 O176 1.259 1_655 S
C180 O177 1.252 . S
C180 O178 1.273 . S
O181 Mg168 2.010 . S
O181 C173 1.249 . S
Mg182 O183 2.028 . S
Mg182 O189 1.986 . S
Mg182 O191 2.114 . S
Mg182 O192 2.251 . S
Mg182 O195 2.010 . S
O183 Mg182 2.028 . S
O183 C186 1.250 . S
O184 Mg185 2.028 . S
O184 C186 1.248 . S
Mg185 O184 2.028 . S
Mg185 O190 2.032 . S
Mg185 O192 2.079 . S
C186 O183 1.250 . S
C186 O184 1.248 . S
C187 O188 1.264 . S
C187 O195 1.249 . S
O188 C187 1.264 . S
O189 Mg182 1.986 . S
O189 C193 1.246 . S
O190 Mg185 2.032 . S
O190 C193 1.259 . S
O191 Mg182 2.114 . S
O191 C194 1.252 . S
O192 Mg182 2.251 . S
O192 Mg185 2.079 . S
O192 C194 1.273 . S
C193 O189 1.246 . S
C193 O190 1.259 . S
C194 O191 1.252 . S
C194 O192 1.273 . S
O195 Mg182 2.010 . S
O195 C187 1.249 . S
Mg196 O197 2.028 . S
Mg196 O203 1.986 . S
Mg196 O205 2.114 . S
Mg196 O206 2.251 . S
Mg196 O209 2.010 . S
O197 Mg196 2.028 . S
O197 C200 1.250 . S
O198 Mg199 2.028 . S
O198 C200 1.248 . S
Mg199 O198 2.028 . S
Mg199 O204 2.032 1_655 S
Mg199 O206 2.079 . S
C200 O197 1.250 . S
C200 O198 1.248 . S
C201 O202 1.264 . S
C201 O209 1.249 . S
O202 C201 1.264 . S
O203 Mg196 1.986 . S
O203 C207 1.246 . S
O204 Mg199 2.032 1_455 S
O204 C207 1.259 1_455 S
O205 Mg196 2.114 . S
O205 C208 1.252 . S
O206 Mg196 2.251 . S
O206 Mg199 2.079 . S
O206 C208 1.273 . S
C207 O203 1.246 . S
C207 O204 1.259 1_655 S
C208 O205 1.252 . S
C208 O206 1.273 . S
O209 Mg196 2.010 . S
O209 C201 1.249 . S
Mg210 O211 2.028 . S
Mg210 O217 1.986 . S
Mg210 O219 2.114 . S
Mg210 O220 2.251 . S
Mg210 O223 2.010 . S
O211 Mg210 2.028 . S
O211 C214 1.250 . S
O212 Mg213 2.028 . S
O212 C214 1.248 . S
Mg213 O212 2.028 . S
Mg213 O218 2.032 . S
Mg213 O220 2.079 . S
C214 O211 1.250 . S
C214 O212 1.248 . S
C215 O216 1.264 . S
C215 O223 1.249 . S
O216 C215 1.264 . S
O217 Mg210 1.986 . S
O217 C221 1.246 . S
O218 Mg213 2.032 . S
O218 C221 1.259 . S
O219 Mg210 2.114 . S
O219 C222 1.252 . S
O220 Mg210 2.251 . S
O220 Mg213 2.079 . S
O220 C222 1.273 . S
C221 O217 1.246 . S
C221 O218 1.259 . S
C222 O219 1.252 . S
C222 O220 1.273 . S
O223 Mg210 2.010 . S
O223 C215 1.249 . S
Mg224 O225 2.028 . S
Mg224 O231 1.986 . S
Mg224 O233 2.114 . S
Mg224 O234 2.251 . S
Mg224 O237 2.010 . S
O225 Mg224 2.028 . S
O225 C228 1.250 . S
O226 Mg227 2.028 . S
O226 C228 1.248 . S
Mg227 O226 2.028 . S
Mg227 O232 2.032 . S
Mg227 O234 2.079 . S
C228 O225 1.250 . S
C228 O226 1.248 . S
C229 O230 1.264 . S
C229 O237 1.249 . S
O230 C229 1.264 . S
O231 Mg224 1.986 . S
O231 C235 1.246 . S
O232 Mg227 2.032 . S
O232 C235 1.259 . S
O233 Mg224 2.114 . S
O233 C236 1.252 . S
O234 Mg224 2.251 . S
O234 Mg227 2.079 . S
O234 C236 1.273 . S
C235 O231 1.246 . S
C235 O232 1.259 . S
C236 O233 1.252 . S
C236 O234 1.273 . S
O237 Mg224 2.010 . S
O237 C229 1.249 . S
Mg238 O239 2.028 . S
Mg238 O245 1.986 . S
Mg238 O247 2.114 . S
Mg238 O248 2.251 . S
Mg238 O251 2.010 . S
O239 Mg238 2.028 . S
O239 C242 1.250 . S
O240 Mg241 2.028 . S
O240 C242 1.248 . S
Mg241 O240 2.028 . S
Mg241 O246 2.032 . S
Mg241 O248 2.079 . S
C242 O239 1.250 . S
C242 O240 1.248 . S
C243 O244 1.264 . S
C243 O251 1.249 . S
O244 C243 1.264 . S
O245 Mg238 1.986 . S
O245 C249 1.246 . S
O246 Mg241 2.032 . S
O246 C249 1.259 . S
O247 Mg238 2.114 . S
O247 C250 1.252 . S
O248 Mg238 2.251 . S
O248 Mg241 2.079 . S
O248 C250 1.273 . S
C249 O245 1.246 . S
C249 O246 1.259 . S
C250 O247 1.252 . S
C250 O248 1.273 . S
O251 Mg238 2.010 . S
O251 C243 1.249 . S
Mg252 O253 2.028 . S
Mg252 O259 1.986 . S
Mg252 O261 2.114 . S
Mg252 O262 2.251 . S
Mg252 O265 2.010 . S
O253 Mg252 2.028 . S
O253 C256 1.250 . S
O254 Mg255 2.028 . S
O254 C256 1.248 . S
Mg255 O254 2.028 . S
Mg255 O260 2.032 . S
Mg255 O262 2.079 . S
C256 O253 1.250 . S
C256 O254 1.248 . S
C257 O258 1.264 . S
C257 O265 1.249 . S
O258 C257 1.264 . S
O259 Mg252 1.986 . S
O259 C263 1.246 . S
O260 Mg255 2.032 . S
O260 C263 1.259 . S
O261 Mg252 2.114 . S
O261 C264 1.252 . S
O262 Mg252 2.251 . S
O262 Mg255 2.079 . S
O262 C264 1.273 . S
C263 O259 1.246 . S
C263 O260 1.259 . S
C264 O261 1.252 . S
C264 O262 1.273 . S
O265 Mg252 2.010 . S
O265 C257 1.249 . S
Mg266 O267 2.028 . S
Mg266 O273 1.986 . S
Mg266 O275 2.114 . S
Mg266 O276 2.251 . S
Mg266 O279 2.010 . S
O267 Mg266 2.028 . S
O267 C270 1.250 . S
O268 Mg269 2.028 . S
O268 C270 1.248 . S
Mg269 O268 2.028 . S
Mg269 O274 2.032 . S
Mg269 O276 2.079 . S
C270 O267 1.250 . S
C270 O268 1.248 . S
C271 O272 1.264 . S
C271 O279 1.249 . S
O272 C271 1.264 . S
O273 Mg266 1.986 . S
O273 C277 1.246 . S
O274 Mg269 2.032 . S
O274 C277 1.259 . S
O275 Mg266 2.114 . S
O275 C278 1.252 . S
O276 Mg266 2.251 . S
O276 Mg269 2.079 . S
O276 C278 1.273 . S
C277 O273 1.246 . S
C277 O274 1.259 . S
C278 O275 1.252 . S
C278 O276 1.273 . S
O279 Mg266 2.010 . S
O279 C271 1.249 . S
Mg280 O281 2.028 . S
Mg280 O287 1.986 . S
Mg280 O289 2.114 . S
Mg280 O290 2.251 . S
Mg280 O293 2.010 . S
O281 Mg280 2.028 . S
O281 C284 1.250 . S
O282 Mg283 2.028 . S
O282 C284 1.248 . S
Mg283 O282 2.028 . S
Mg283 O288 2.032 . S
Mg283 O290 2.079 . S
C284 O281 1.250 . S
C284 O282 1.248 . S
C285 O286 1.264 . S
C285 O293 1.249 . S
O286 C285 1.264 . S
O287 Mg280 1.986 . S
O287 C291 1.246 . S
O288 Mg283 2.032 . S
O288 C291 1.259 . S
O289 Mg280 2.114 . S
O289 C292 1.252 . S
O290 Mg280 2.251 . S
O290 Mg283 2.079 . S
O290 C292 1.273 . S
C291 O287 1.246 . S
C291 O288 1.259 . S
C292 O289 1.252 . S
C292 O290 1.273 . S
O293 Mg280 2.010 . S
O293 C285 1.249 . S
Mg294 O295 2.028 . S
Mg294 O301 1.986 . S
Mg294 O303 2.114 . S
Mg294 O304 2.251 . S
Mg294 O307 2.010 . S
O295 Mg294 2.028 . S
O295 C298 1.250 . S
O296 Mg297 2.028 . S
O296 C298 1.248 . S
Mg297 O296 2.028 . S
Mg297 O302 2.032 . S
Mg297 O304 2.079 . S
C298 O295 1.250 . S
C298 O296 1.248 . S
C299 O300 1.264 . S
C299 O307 1.249 . S
O300 C299 1.264 . S
O301 Mg294 1.986 . S
O301 C305 1.246 . S
O302 Mg297 2.032 . S
O302 C305 1.259 . S
O303 Mg294 2.114 . S
O303 C306 1.252 . S
O304 Mg294 2.251 . S
O304 Mg297 2.079 . S
O304 C306 1.273 . S
C305 O301 1.246 . S
C305 O302 1.259 . S
C306 O303 1.252 . S
C306 O304 1.273 . S
O307 Mg294 2.010 . S
O307 C299 1.249 . S
Mg308 O309 2.028 . S
Mg308 O315 1.986 . S
Mg308 O317 2.114 . S
Mg308 O318 2.251 . S
Mg308 O321 2.010 . S
O309 Mg308 2.028 . S
O309 C312 1.250 . S
O310 Mg311 2.028 . S
O310 C312 1.248 . S
Mg311 O310 2.028 . S
Mg311 O316 2.032 . S
Mg311 O318 2.079 . S
C312 O309 1.250 . S
C312 O310 1.248 . S
C313 O314 1.264 . S
C313 O321 1.249 . S
O314 C313 1.264 . S
O315 Mg308 1.986 . S
O315 C319 1.246 . S
O316 Mg311 2.032 . S
O316 C319 1.259 . S
O317 Mg308 2.114 . S
O317 C320 1.252 . S
O318 Mg308 2.251 . S
O318 Mg311 2.079 . S
O318 C320 1.273 . S
C319 O315 1.246 . S
C319 O316 1.259 . S
C320 O317 1.252 . S
C320 O318 1.273 . S
O321 Mg308 2.010 . S
O321 C313 1.249 . S
Mg322 O323 2.028 . S
Mg322 O329 1.986 . S
Mg322 O331 2.114 . S
Mg322 O332 2.251 . S
Mg322 O335 2.010 . S
O323 Mg322 2.028 . S
O323 C326 1.250 . S
O324 Mg325 2.028 . S
O324 C326 1.248 . S
Mg325 O324 2.028 . S
Mg325 O330 2.032 . S
Mg325 O332 2.079 . S
C326 O323 1.250 . S
C326 O324 1.248 . S
C327 O328 1.264 . S
C327 O335 1.249 . S
O328 C327 1.264 . S
O329 Mg322 1.986 . S
O329 C333 1.246 . S
O330 Mg325 2.032 . S
O330 C333 1.259 . S
O331 Mg322 2.114 . S
O331 C334 1.252 . S
O332 Mg322 2.251 . S
O332 Mg325 2.079 . S
O332 C334 1.273 . S
C333 O329 1.246 . S
C333 O330 1.259 . S
C334 O331 1.252 . S
C334 O332 1.273 . S
O335 Mg322 2.010 . S
O335 C327 1.249 . S
Mg336 O337 2.028 . S
Mg336 O343 1.986 . S
Mg336 O345 2.114 . S
Mg336 O346 2.251 . S
Mg336 O349 2.010 . S
O337 Mg336 2.028 . S
O337 C340 1.250 . S
O338 Mg339 2.028 . S
O338 C340 1.248 . S
Mg339 O338 2.028 . S
Mg339 O344 2.032 . S
Mg339 O346 2.079 . S
C340 O337 1.250 . S
C340 O338 1.248 . S
C341 O342 1.264 . S
C341 O349 1.249 . S
O342 C341 1.264 . S
O343 Mg336 1.986 . S
O343 C347 1.246 . S
O344 Mg339 2.032 . S
O344 C347 1.259 . S
O345 Mg336 2.114 . S
O345 C348 1.252 . S
O346 Mg336 2.251 . S
O346 Mg339 2.079 . S
O346 C348 1.273 . S
C347 O343 1.246 . S
C347 O344 1.259 . S
C348 O345 1.252 . S
C348 O346 1.273 . S
O349 Mg336 2.010 . S
O349 C341 1.249 . S
Mg350 O351 2.028 . S
Mg350 O357 1.986 . S
Mg350 O359 2.114 . S
Mg350 O360 2.251 . S
Mg350 O363 2.010 . S
O351 Mg350 2.028 . S
O351 C354 1.250 . S
O352 Mg353 2.028 . S
O352 C354 1.248 . S
Mg353 O352 2.028 . S
Mg353 O358 2.032 . S
Mg353 O360 2.079 . S
C354 O351 1.250 . S
C354 O352 1.248 . S
C355 O356 1.264 . S
C355 O363 1.249 . S
O356 C355 1.264 . S
O357 Mg350 1.986 . S
O357 C361 1.246 . S
O358 Mg353 2.032 . S
O358 C361 1.259 . S
O359 Mg350 2.114 . S
O359 C362 1.252 . S
O360 Mg350 2.251 . S
O360 Mg353 2.079 . S
O360 C362 1.273 . S
C361 O357 1.246 . S
C361 O358 1.259 . S
C362 O359 1.252 . S
C362 O360 1.273 . S
O363 Mg350 2.010 . S
O363 C355 1.249 . S
Mg364 O365 2.028 1_556 S
Mg364 O371 1.986 . S
Mg364 O373 2.114 . S
Mg364 O374 2.251 . S
Mg364 O377 2.010 . S
O365 Mg364 2.028 1_554 S
O365 C368 1.250 . S
O366 Mg367 2.028 1_554 S
O366 C368 1.248 . S
Mg367 O366 2.028 1_556 S
Mg367 O372 2.032 . S
Mg367 O374 2.079 . S
C368 O365 1.250 . S
C368 O366 1.248 . S
C369 O370 1.264 . S
C369 O377 1.249 . S
O370 C369 1.264 . S
O371 Mg364 1.986 . S
O371 C375 1.246 . S
O372 Mg367 2.032 . S
O372 C375 1.259 . S
O373 Mg364 2.114 . S
O373 C376 1.252 . S
O374 Mg364 2.251 . S
O374 Mg367 2.079 . S
O374 C376 1.273 . S
C375 O371 1.246 . S
C375 O372 1.259 . S
C376 O373 1.252 . S
C376 O374 1.273 . S
O377 Mg364 2.010 . S
O377 C369 1.249 . S
Mg378 O379 2.028 1_556 S
Mg378 O385 1.986 . S
Mg378 O387 2.114 . S
Mg378 O388 2.251 . S
Mg378 O391 2.010 . S
O379 Mg378 2.028 1_554 S
O379 C382 1.250 . S
O380 Mg381 2.028 1_554 S
O380 C382 1.248 . S
Mg381 O380 2.028 1_556 S
Mg381 O386 2.032 . S
Mg381 O388 2.079 . S
C382 O379 1.250 . S
C382 O380 1.248 . S
C383 O384 1.264 . S
C383 O391 1.249 . S
O384 C383 1.264 . S
O385 Mg378 1.986 . S
O385 C389 1.246 . S
O386 Mg381 2.032 . S
O386 C389 1.259 . S
O387 Mg378 2.114 . S
O387 C390 1.252 . S
O388 Mg378 2.251 . S
O388 Mg381 2.079 . S
O388 C390 1.273 . S
C389 O385 1.246 . S
C389 O386 1.259 . S
C390 O387 1.252 . S
C390 O388 1.273 . S
O391 Mg378 2.010 . S
O391 C383 1.249 . S
Mg392 O393 2.028 . S
Mg392 O399 1.986 . S
Mg392 O401 2.114 . S
Mg392 O402 2.251 . S
Mg392 O405 2.010 . S
O393 Mg392 2.028 . S
O393 C396 1.250 . S
O394 Mg395 2.028 . S
O394 C396 1.248 . S
Mg395 O394 2.028 . S
Mg395 O400 2.032 . S
Mg395 O402 2.079 . S
C396 O393 1.250 . S
C396 O394 1.248 . S
C397 O398 1.264 . S
C397 O405 1.249 . S
O398 C397 1.264 . S
O399 Mg392 1.986 . S
O399 C403 1.246 . S
O400 Mg395 2.032 . S
O400 C403 1.259 . S
O401 Mg392 2.114 . S
O401 C404 1.252 . S
O402 Mg392 2.251 . S
O402 Mg395 2.079 . S
O402 C404 1.273 . S
C403 O399 1.246 . S
C403 O400 1.259 . S
C404 O401 1.252 . S
C404 O402 1.273 . S
O405 Mg392 2.010 . S
O405 C397 1.249 . S
Mg406 O407 2.028 . S
Mg406 O413 1.986 . S
Mg406 O415 2.114 . S
Mg406 O416 2.251 . S
Mg406 O419 2.010 . S
O407 Mg406 2.028 . S
O407 C410 1.250 . S
O408 Mg409 2.028 . S
O408 C410 1.248 . S
Mg409 O408 2.028 . S
Mg409 O414 2.032 . S
Mg409 O416 2.079 . S
C410 O407 1.250 . S
C410 O408 1.248 . S
C411 O412 1.264 . S
C411 O419 1.249 . S
O412 C411 1.264 . S
O413 Mg406 1.986 . S
O413 C417 1.246 . S
O414 Mg409 2.032 . S
O414 C417 1.259 . S
O415 Mg406 2.114 . S
O415 C418 1.252 . S
O416 Mg406 2.251 . S
O416 Mg409 2.079 . S
O416 C418 1.273 . S
C417 O413 1.246 . S
C417 O414 1.259 . S
C418 O415 1.252 . S
C418 O416 1.273 . S
O419 Mg406 2.010 . S
O419 C411 1.249 . S
Mg420 O421 2.028 1_554 S
Mg420 O427 1.986 . S
Mg420 O429 2.114 . S
Mg420 O430 2.251 . S
Mg420 O433 2.010 . S
O421 Mg420 2.028 1_556 S
O421 C424 1.250 . S
O422 Mg423 2.028 1_556 S
O422 C424 1.248 . S
Mg423 O422 2.028 1_554 S
Mg423 O428 2.032 . S
Mg423 O430 2.079 . S
C424 O421 1.250 . S
C424 O422 1.248 . S
C425 O426 1.264 . S
C425 O433 1.249 . S
O426 C425 1.264 . S
O427 Mg420 1.986 . S
O427 C431 1.246 . S
O428 Mg423 2.032 . S
O428 C431 1.259 . S
O429 Mg420 2.114 . S
O429 C432 1.252 . S
O430 Mg420 2.251 . S
O430 Mg423 2.079 . S
O430 C432 1.273 . S
C431 O427 1.246 . S
C431 O428 1.259 . S
C432 O429 1.252 . S
C432 O430 1.273 . S
O433 Mg420 2.010 . S
O433 C425 1.249 . S
Mg434 O435 2.028 1_554 S
Mg434 O441 1.986 . S
Mg434 O443 2.114 . S
Mg434 O444 2.251 . S
Mg434 O447 2.010 . S
O435 Mg434 2.028 1_556 S
O435 C438 1.250 . S
O436 Mg437 2.028 1_556 S
O436 C438 1.248 . S
Mg437 O436 2.028 1_554 S
Mg437 O442 2.032 . S
Mg437 O444 2.079 . S
C438 O435 1.250 . S
C438 O436 1.248 . S
C439 O440 1.264 . S
C439 O447 1.249 . S
O440 C439 1.264 . S
O441 Mg434 1.986 . S
O441 C445 1.246 . S
O442 Mg437 2.032 . S
O442 C445 1.259 . S
O443 Mg434 2.114 . S
O443 C446 1.252 . S
O444 Mg434 2.251 . S
O444 Mg437 2.079 . S
O444 C446 1.273 . S
C445 O441 1.246 . S
C445 O442 1.259 . S
C446 O443 1.252 . S
C446 O444 1.273 . S
O447 Mg434 2.010 . S
O447 C439 1.249 . S
H448 C454 0.930 . S
H449 C458 0.930 . S
H450 C463 0.929 . S
H451 C461 0.929 . S
H452 C456 0.929 . S
H453 C462 0.929 . S
C454 H448 0.930 . S
C454 C455 1.367 . S
C454 C462 1.378 . S
C455 C454 1.367 . S
C455 C463 1.433 . S
C456 H452 0.929 . S
C456 C458 1.378 . S
C456 C460 1.350 . S
C457 C460 1.463 . S
C457 C462 1.350 . S
C457 N465 1.427 . S
C458 H449 0.930 . S
C458 C456 1.378 . S
C458 C459 1.367 . S
C459 C458 1.367 . S
C459 C461 1.433 . S
C460 C456 1.350 . S
C460 C457 1.463 . S
C460 N464 1.427 . S
C461 H451 0.929 . S
C461 C459 1.433 . S
C461 N464 1.384 . S
C462 H453 0.929 . S
C462 C454 1.378 . S
C462 C457 1.350 . S
C463 H450 0.929 . S
C463 C455 1.433 . S
C463 N465 1.384 . S
N464 C460 1.427 . S
N464 C461 1.384 . S
N465 C457 1.427 . S
N465 C463 1.384 . S
H466 C472 0.930 . S
H467 C476 0.930 . S
H468 C481 0.929 . S
H469 C479 0.929 . S
H470 C474 0.929 . S
H471 C480 0.929 . S
C472 H466 0.930 . S
C472 C473 1.367 . S
C472 C480 1.378 . S
C473 C472 1.367 . S
C473 C481 1.433 . S
C474 H470 0.929 . S
C474 C476 1.378 . S
C474 C478 1.350 . S
C475 C478 1.463 . S
C475 C480 1.350 . S
C475 N483 1.427 . S
C476 H467 0.930 . S
C476 C474 1.378 . S
C476 C477 1.367 . S
C477 C476 1.367 . S
C477 C479 1.433 . S
C478 C474 1.350 . S
C478 C475 1.463 . S
C478 N482 1.427 . S
C479 H469 0.929 . S
C479 C477 1.433 . S
C479 N482 1.384 . S
C480 H471 0.929 . S
C480 C472 1.378 . S
C480 C475 1.350 . S
C481 H468 0.929 . S
C481 C473 1.433 . S
C481 N483 1.384 . S
N482 C478 1.427 . S
N482 C479 1.384 . S
N483 C475 1.427 . S
N483 C481 1.384 . S
H484 C490 0.930 . S
H485 C494 0.930 . S
H486 C499 0.929 . S
H487 C497 0.929 . S
H488 C492 0.929 . S
H489 C498 0.929 . S
C490 H484 0.930 . S
C490 C491 1.367 . S
C490 C498 1.378 . S
C491 C490 1.367 . S
C491 C499 1.433 . S
C492 H488 0.929 . S
C492 C494 1.378 . S
C492 C496 1.350 . S
C493 C496 1.463 . S
C493 C498 1.350 . S
C493 N501 1.427 . S
C494 H485 0.930 . S
C494 C492 1.378 . S
C494 C495 1.367 . S
C495 C494 1.367 . S
C495 C497 1.433 . S
C496 C492 1.350 . S
C496 C493 1.463 . S
C496 N500 1.427 . S
C497 H487 0.929 . S
C497 C495 1.433 . S
C497 N500 1.384 . S
C498 H489 0.929 . S
C498 C490 1.378 . S
C498 C493 1.350 . S
C499 H486 0.929 . S
C499 C491 1.433 . S
C499 N501 1.384 . S
N500 C496 1.427 . S
N500 C497 1.384 . S
N501 C493 1.427 . S
N501 C499 1.384 . S
H502 C508 0.930 . S
H503 C512 0.930 . S
H504 C517 0.929 . S
H505 C515 0.929 . S
H506 C510 0.929 . S
H507 C516 0.929 . S
C508 H502 0.930 . S
C508 C509 1.367 . S
C508 C516 1.378 . S
C509 C508 1.367 . S
C509 C517 1.433 . S
C510 H506 0.929 . S
C510 C512 1.378 . S
C510 C514 1.350 . S
C511 C514 1.463 . S
C511 C516 1.350 . S
C511 N519 1.427 . S
C512 H503 0.930 . S
C512 C510 1.378 . S
C512 C513 1.367 . S
C513 C512 1.367 . S
C513 C515 1.433 . S
C514 C510 1.350 . S
C514 C511 1.463 . S
C514 N518 1.427 . S
C515 H505 0.929 . S
C515 C513 1.433 . S
C515 N518 1.384 . S
C516 H507 0.929 . S
C516 C508 1.378 . S
C516 C511 1.350 . S
C517 H504 0.929 . S
C517 C509 1.433 . S
C517 N519 1.384 . S
N518 C514 1.427 . S
N518 C515 1.384 . S
N519 C511 1.427 . S
N519 C517 1.384 . S
H520 C526 0.930 . S
H521 C530 0.930 . S
H522 C535 0.929 . S
H523 C533 0.929 . S
H524 C528 0.929 . S
H525 C534 0.929 . S
C526 H520 0.930 . S
C526 C527 1.367 . S
C526 C534 1.378 . S
C527 C526 1.367 . S
C527 C535 1.433 . S
C528 H524 0.929 . S
C528 C530 1.378 . S
C528 C532 1.350 . S
C529 C532 1.463 . S
C529 C534 1.350 . S
C529 N537 1.427 . S
C530 H521 0.930 . S
C530 C528 1.378 . S
C530 C531 1.367 . S
C531 C530 1.367 . S
C531 C533 1.433 . S
C532 C528 1.350 . S
C532 C529 1.463 . S
C532 N536 1.427 . S
C533 H523 0.929 . S
C533 C531 1.433 . S
C533 N536 1.384 . S
C534 H525 0.929 . S
C534 C526 1.378 . S
C534 C529 1.350 . S
C535 H522 0.929 . S
C535 C527 1.433 . S
C535 N537 1.384 . S
N536 C532 1.427 . S
N536 C533 1.384 . S
N537 C529 1.427 . S
N537 C535 1.384 . S
H538 C544 0.930 . S
H539 C548 0.930 . S
H540 C553 0.929 . S
H541 C551 0.929 . S
H542 C546 0.929 . S
H543 C552 0.929 . S
C544 H538 0.930 . S
C544 C545 1.367 . S
C544 C552 1.378 . S
C545 C544 1.367 . S
C545 C553 1.433 . S
C546 H542 0.929 . S
C546 C548 1.378 . S
C546 C550 1.350 . S
C547 C550 1.463 . S
C547 C552 1.350 . S
C547 N555 1.427 . S
C548 H539 0.930 . S
C548 C546 1.378 . S
C548 C549 1.367 . S
C549 C548 1.367 . S
C549 C551 1.433 . S
C550 C546 1.350 . S
C550 C547 1.463 . S
C550 N554 1.427 . S
C551 H541 0.929 . S
C551 C549 1.433 . S
C551 N554 1.384 . S
C552 H543 0.929 . S
C552 C544 1.378 . S
C552 C547 1.350 . S
C553 H540 0.929 . S
C553 C545 1.433 . S
C553 N555 1.384 . S
N554 C550 1.427 . S
N554 C551 1.384 . S
N555 C547 1.427 . S
N555 C553 1.384 . S
H556 C562 0.930 . S
H557 C566 0.930 . S
H558 C571 0.929 . S
H559 C569 0.929 . S
H560 C564 0.929 . S
H561 C570 0.929 . S
C562 H556 0.930 . S
C562 C563 1.367 . S
C562 C570 1.378 . S
C563 C562 1.367 . S
C563 C571 1.433 . S
C564 H560 0.929 . S
C564 C566 1.378 . S
C564 C568 1.350 . S
C565 C568 1.463 . S
C565 C570 1.350 . S
C565 N573 1.427 . S
C566 H557 0.930 . S
C566 C564 1.378 . S
C566 C567 1.367 . S
C567 C566 1.367 . S
C567 C569 1.433 . S
C568 C564 1.350 . S
C568 C565 1.463 . S
C568 N572 1.427 . S
C569 H559 0.929 . S
C569 C567 1.433 . S
C569 N572 1.384 . S
C570 H561 0.929 . S
C570 C562 1.378 . S
C570 C565 1.350 . S
C571 H558 0.929 . S
C571 C563 1.433 . S
C571 N573 1.384 . S
N572 C568 1.427 . S
N572 C569 1.384 . S
N573 C565 1.427 . S
N573 C571 1.384 . S
H574 C580 0.930 . S
H575 C584 0.930 . S
H576 C589 0.929 . S
H577 C587 0.929 . S
H578 C582 0.929 . S
H579 C588 0.929 . S
C580 H574 0.930 . S
C580 C581 1.367 . S
C580 C588 1.378 . S
C581 C580 1.367 . S
C581 C589 1.433 . S
C582 H578 0.929 . S
C582 C584 1.378 . S
C582 C586 1.350 . S
C583 C586 1.463 . S
C583 C588 1.350 . S
C583 N591 1.427 . S
C584 H575 0.930 . S
C584 C582 1.378 . S
C584 C585 1.367 . S
C585 C584 1.367 . S
C585 C587 1.433 . S
C586 C582 1.350 . S
C586 C583 1.463 . S
C586 N590 1.427 . S
C587 H577 0.929 . S
C587 C585 1.433 . S
C587 N590 1.384 . S
C588 H579 0.929 . S
C588 C580 1.378 . S
C588 C583 1.350 . S
C589 H576 0.929 . S
C589 C581 1.433 . S
C589 N591 1.384 . S
N590 C586 1.427 . S
N590 C587 1.384 . S
N591 C583 1.427 . S
N591 C589 1.384 . S
H592 C598 0.930 . S
H593 C602 0.930 . S
H594 C607 0.929 . S
H595 C605 0.929 . S
H596 C600 0.929 . S
H597 C606 0.929 . S
C598 H592 0.930 . S
C598 C599 1.367 . S
C598 C606 1.378 . S
C599 C598 1.367 . S
C599 C607 1.433 . S
C600 H596 0.929 . S
C600 C602 1.378 . S
C600 C604 1.350 . S
C601 C604 1.463 . S
C601 C606 1.350 . S
C601 N609 1.427 . S
C602 H593 0.930 . S
C602 C600 1.378 . S
C602 C603 1.367 . S
C603 C602 1.367 . S
C603 C605 1.433 . S
C604 C600 1.350 . S
C604 C601 1.463 . S
C604 N608 1.427 . S
C605 H595 0.929 . S
C605 C603 1.433 . S
C605 N608 1.384 . S
C606 H597 0.929 . S
C606 C598 1.378 . S
C606 C601 1.350 . S
C607 H594 0.929 . S
C607 C599 1.433 . S
C607 N609 1.384 . S
N608 C604 1.427 . S
N608 C605 1.384 . S
N609 C601 1.427 . S
N609 C607 1.384 . S
H610 C616 0.930 . S
H611 C620 0.930 . S
H612 C625 0.929 . S
H613 C623 0.929 . S
H614 C618 0.929 . S
H615 C624 0.929 . S
C616 H610 0.930 . S
C616 C617 1.367 . S
C616 C624 1.378 . S
C617 C616 1.367 . S
C617 C625 1.433 . S
C618 H614 0.929 . S
C618 C620 1.378 . S
C618 C622 1.350 . S
C619 C622 1.463 . S
C619 C624 1.350 . S
C619 N627 1.427 . S
C620 H611 0.930 . S
C620 C618 1.378 . S
C620 C621 1.367 . S
C621 C620 1.367 . S
C621 C623 1.433 . S
C622 C618 1.350 . S
C622 C619 1.463 . S
C622 N626 1.427 . S
C623 H613 0.929 . S
C623 C621 1.433 . S
C623 N626 1.384 . S
C624 H615 0.929 . S
C624 C616 1.378 . S
C624 C619 1.350 . S
C625 H612 0.929 . S
C625 C617 1.433 . S
C625 N627 1.384 . S
N626 C622 1.427 . S
N626 C623 1.384 . S
N627 C619 1.427 . S
N627 C625 1.384 . S
H628 C634 0.930 . S
H629 C638 0.930 . S
H630 C643 0.929 . S
H631 C641 0.929 . S
H632 C636 0.929 . S
H633 C642 0.929 . S
C634 H628 0.930 . S
C634 C635 1.367 . S
C634 C642 1.378 . S
C635 C634 1.367 . S
C635 C643 1.433 . S
C636 H632 0.929 . S
C636 C638 1.378 . S
C636 C640 1.350 . S
C637 C640 1.463 . S
C637 C642 1.350 . S
C637 N645 1.427 . S
C638 H629 0.930 . S
C638 C636 1.378 . S
C638 C639 1.367 . S
C639 C638 1.367 . S
C639 C641 1.433 . S
C640 C636 1.350 . S
C640 C637 1.463 . S
C640 N644 1.427 . S
C641 H631 0.929 . S
C641 C639 1.433 . S
C641 N644 1.384 . S
C642 H633 0.929 . S
C642 C634 1.378 . S
C642 C637 1.350 . S
C643 H630 0.929 . S
C643 C635 1.433 . S
C643 N645 1.384 . S
N644 C640 1.427 . S
N644 C641 1.384 . S
N645 C637 1.427 . S
N645 C643 1.384 . S
H646 C652 0.930 . S
H647 C656 0.930 . S
H648 C661 0.929 . S
H649 C659 0.929 . S
H650 C654 0.929 . S
H651 C660 0.929 . S
C652 H646 0.930 . S
C652 C653 1.367 . S
C652 C660 1.378 . S
C653 C652 1.367 . S
C653 C661 1.433 . S
C654 H650 0.929 . S
C654 C656 1.378 . S
C654 C658 1.350 . S
C655 C658 1.463 . S
C655 C660 1.350 . S
C655 N663 1.427 . S
C656 H647 0.930 . S
C656 C654 1.378 . S
C656 C657 1.367 . S
C657 C656 1.367 . S
C657 C659 1.433 . S
C658 C654 1.350 . S
C658 C655 1.463 . S
C658 N662 1.427 . S
C659 H649 0.929 . S
C659 C657 1.433 . S
C659 N662 1.384 . S
C660 H651 0.929 . S
C660 C652 1.378 . S
C660 C655 1.350 . S
C661 H648 0.929 . S
C661 C653 1.433 . S
C661 N663 1.384 . S
N662 C658 1.427 . S
N662 C659 1.384 . S
N663 C655 1.427 . S
N663 C661 1.384 . S
H664 C670 0.930 . S
H665 C674 0.930 . S
H666 C679 0.929 . S
H667 C677 0.929 . S
H668 C672 0.929 . S
H669 C678 0.929 . S
C670 H664 0.930 . S
C670 C671 1.367 . S
C670 C678 1.378 . S
C671 C670 1.367 . S
C671 C679 1.433 . S
C672 H668 0.929 . S
C672 C674 1.378 . S
C672 C676 1.350 . S
C673 C676 1.463 . S
C673 C678 1.350 . S
C673 N681 1.427 . S
C674 H665 0.930 . S
C674 C672 1.378 . S
C674 C675 1.367 . S
C675 C674 1.367 . S
C675 C677 1.433 . S
C676 C672 1.350 . S
C676 C673 1.463 . S
C676 N680 1.427 . S
C677 H667 0.929 . S
C677 C675 1.433 . S
C677 N680 1.384 . S
C678 H669 0.929 . S
C678 C670 1.378 . S
C678 C673 1.350 . S
C679 H666 0.929 . S
C679 C671 1.433 . S
C679 N681 1.384 . S
N680 C676 1.427 . S
N680 C677 1.384 . S
N681 C673 1.427 . S
N681 C679 1.384 . S
H682 C688 0.930 . S
H683 C692 0.930 . S
H684 C697 0.929 . S
H685 C695 0.929 . S
H686 C690 0.929 . S
H687 C696 0.929 . S
C688 H682 0.930 . S
C688 C689 1.367 . S
C688 C696 1.378 . S
C689 C688 1.367 . S
C689 C697 1.433 . S
C690 H686 0.929 . S
C690 C692 1.378 . S
C690 C694 1.350 . S
C691 C694 1.463 . S
C691 C696 1.350 . S
C691 N699 1.427 . S
C692 H683 0.930 . S
C692 C690 1.378 . S
C692 C693 1.367 . S
C693 C692 1.367 . S
C693 C695 1.433 . S
C694 C690 1.350 . S
C694 C691 1.463 . S
C694 N698 1.427 . S
C695 H685 0.929 . S
C695 C693 1.433 . S
C695 N698 1.384 . S
C696 H687 0.929 . S
C696 C688 1.378 . S
C696 C691 1.350 . S
C697 H684 0.929 . S
C697 C689 1.433 . S
C697 N699 1.384 . S
N698 C694 1.427 . S
N698 C695 1.384 . S
N699 C691 1.427 . S
N699 C697 1.384 . S
H700 C706 0.930 . S
H701 C710 0.930 . S
H702 C715 0.929 . S
H703 C713 0.929 . S
H704 C708 0.929 . S
H705 C714 0.929 . S
C706 H700 0.930 . S
C706 C707 1.367 . S
C706 C714 1.378 . S
C707 C706 1.367 . S
C707 C715 1.433 . S
C708 H704 0.929 . S
C708 C710 1.378 . S
C708 C712 1.350 . S
C709 C712 1.463 . S
C709 C714 1.350 . S
C709 N717 1.427 . S
C710 H701 0.930 . S
C710 C708 1.378 . S
C710 C711 1.367 . S
C711 C710 1.367 . S
C711 C713 1.433 . S
C712 C708 1.350 . S
C712 C709 1.463 . S
C712 N716 1.427 . S
C713 H703 0.929 . S
C713 C711 1.433 . S
C713 N716 1.384 . S
C714 H705 0.929 . S
C714 C706 1.378 . S
C714 C709 1.350 . S
C715 H702 0.929 . S
C715 C707 1.433 . S
C715 N717 1.384 . S
N716 C712 1.427 . S
N716 C713 1.384 . S
N717 C709 1.427 . S
N717 C715 1.384 . S
H718 C724 0.930 . S
H719 C728 0.930 . S
H720 C733 0.929 . S
H721 C731 0.929 . S
H722 C726 0.929 . S
H723 C732 0.929 . S
C724 H718 0.930 . S
C724 C725 1.367 . S
C724 C732 1.378 . S
C725 C724 1.367 . S
C725 C733 1.433 . S
C726 H722 0.929 . S
C726 C728 1.378 . S
C726 C730 1.350 . S
C727 C730 1.463 . S
C727 C732 1.350 . S
C727 N735 1.427 . S
C728 H719 0.930 . S
C728 C726 1.378 . S
C728 C729 1.367 . S
C729 C728 1.367 . S
C729 C731 1.433 . S
C730 C726 1.350 . S
C730 C727 1.463 . S
C730 N734 1.427 . S
C731 H721 0.929 . S
C731 C729 1.433 . S
C731 N734 1.384 . S
C732 H723 0.929 . S
C732 C724 1.378 . S
C732 C727 1.350 . S
C733 H720 0.929 . S
C733 C725 1.433 . S
C733 N735 1.384 . S
N734 C730 1.427 . S
N734 C731 1.384 . S
N735 C727 1.427 . S
N735 C733 1.384 . S
H736 C742 0.930 . S
H737 C746 0.930 . S
H738 C751 0.929 . S
H739 C749 0.929 . S
H740 C744 0.929 . S
H741 C750 0.929 . S
C742 H736 0.930 . S
C742 C743 1.367 . S
C742 C750 1.378 . S
C743 C742 1.367 . S
C743 C751 1.433 . S
C744 H740 0.929 . S
C744 C746 1.378 . S
C744 C748 1.350 . S
C745 C748 1.463 1_565 S
C745 C750 1.350 . S
C745 N753 1.427 . S
C746 H737 0.930 . S
C746 C744 1.378 . S
C746 C747 1.367 . S
C747 C746 1.367 . S
C747 C749 1.433 . S
C748 C744 1.350 . S
C748 C745 1.463 1_545 S
C748 N752 1.427 . S
C749 H739 0.929 . S
C749 C747 1.433 . S
C749 N752 1.384 . S
C750 H741 0.929 . S
C750 C742 1.378 . S
C750 C745 1.350 . S
C751 H738 0.929 . S
C751 C743 1.433 . S
C751 N753 1.384 . S
N752 C748 1.427 . S
N752 C749 1.384 . S
N753 C745 1.427 . S
N753 C751 1.384 . S
H754 C760 0.930 1_455 S
H755 C764 0.930 1_655 S
H756 C769 0.929 . S
H757 C767 0.929 . S
H758 C762 0.929 . S
H759 C768 0.929 . S
C760 H754 0.930 1_655 S
C760 C761 1.367 . S
C760 C768 1.378 1_655 S
C761 C760 1.367 . S
C761 C769 1.433 . S
C762 H758 0.929 . S
C762 C764 1.378 1_655 S
C762 C766 1.350 1_655 S
C763 C766 1.463 1_655 S
C763 C768 1.350 1_655 S
C763 N771 1.427 . S
C764 H755 0.930 1_455 S
C764 C762 1.378 1_455 S
C764 C765 1.367 . S
C765 C764 1.367 . S
C765 C767 1.433 . S
C766 C762 1.350 1_455 S
C766 C763 1.463 1_455 S
C766 N770 1.427 . S
C767 H757 0.929 . S
C767 C765 1.433 . S
C767 N770 1.384 . S
C768 H759 0.929 . S
C768 C760 1.378 1_455 S
C768 C763 1.350 1_455 S
C769 H756 0.929 . S
C769 C761 1.433 . S
C769 N771 1.384 . S
N770 C766 1.427 . S
N770 C767 1.384 . S
N771 C763 1.427 . S
N771 C769 1.384 . S
H772 C778 0.930 1_554 S
H773 C782 0.930 1_556 S
H774 C787 0.929 . S
H775 C785 0.929 . S
H776 C780 0.929 . S
H777 C786 0.929 . S
C778 H772 0.930 1_556 S
C778 C779 1.367 . S
C778 C786 1.378 1_556 S
C779 C778 1.367 . S
C779 C787 1.433 . S
C780 H776 0.929 . S
C780 C782 1.378 1_556 S
C780 C784 1.350 1_556 S
C781 C784 1.463 1_556 S
C781 C786 1.350 1_556 S
C781 N789 1.427 . S
C782 H773 0.930 1_554 S
C782 C780 1.378 1_554 S
C782 C783 1.367 . S
C783 C782 1.367 . S
C783 C785 1.433 . S
C784 C780 1.350 1_554 S
C784 C781 1.463 1_554 S
C784 N788 1.427 . S
C785 H775 0.929 . S
C785 C783 1.433 . S
C785 N788 1.384 . S
C786 H777 0.929 . S
C786 C778 1.378 1_554 S
C786 C781 1.350 1_554 S
C787 H774 0.929 . S
C787 C779 1.433 . S
C787 N789 1.384 . S
N788 C784 1.427 . S
N788 C785 1.384 . S
N789 C781 1.427 . S
N789 C787 1.384 . S
H790 C796 0.930 . S
H791 C800 0.930 . S
H792 C805 0.929 1_554 S
H793 C803 0.929 1_556 S
H794 C798 0.929 1_545 S
H795 C804 0.929 1_565 S
C796 H790 0.930 . S
C796 C797 1.367 . S
C796 C804 1.378 . S
C797 C796 1.367 . S
C797 C805 1.433 . S
C798 H794 0.929 1_565 S
C798 C800 1.378 . S
C798 C802 1.350 . S
C799 C802 1.463 1_446 S
C799 C804 1.350 . S
C799 N807 1.427 1_556 S
C800 H791 0.930 . S
C800 C798 1.378 . S
C800 C801 1.367 . S
C801 C800 1.367 . S
C801 C803 1.433 . S
C802 C798 1.350 . S
C802 C799 1.463 1_664 S
C802 N806 1.427 1_554 S
C803 H793 0.929 1_554 S
C803 C801 1.433 . S
C803 N806 1.384 1_554 S
C804 H795 0.929 1_545 S
C804 C796 1.378 . S
C804 C799 1.350 . S
C805 H792 0.929 1_556 S
C805 C797 1.433 . S
C805 N807 1.384 1_556 S
N806 C802 1.427 1_556 S
N806 C803 1.384 1_556 S
N807 C799 1.427 1_554 S
N807 C805 1.384 1_554 S
H808 C814 0.930 . S
H809 C818 0.930 . S
H810 C823 0.929 . S
H811 C821 0.929 . S
H812 C816 0.929 . S
H813 C822 0.929 . S
C814 H808 0.930 . S
C814 C815 1.367 . S
C814 C822 1.378 . S
C815 C814 1.367 . S
C815 C823 1.433 . S
C816 H812 0.929 . S
C816 C818 1.378 . S
C816 C820 1.350 . S
C817 C820 1.463 1_545 S
C817 C822 1.350 . S
C817 N825 1.427 . S
C818 H809 0.930 . S
C818 C816 1.378 . S
C818 C819 1.367 . S
C819 C818 1.367 . S
C819 C821 1.433 . S
C820 C816 1.350 . S
C820 C817 1.463 1_565 S
C820 N824 1.427 . S
C821 H811 0.929 . S
C821 C819 1.433 . S
C821 N824 1.384 . S
C822 H813 0.929 . S
C822 C814 1.378 . S
C822 C817 1.350 . S
C823 H810 0.929 . S
C823 C815 1.433 . S
C823 N825 1.384 . S
N824 C820 1.427 . S
N824 C821 1.384 . S
N825 C817 1.427 . S
N825 C823 1.384 . S
H826 C832 0.930 . S
H827 C836 0.930 . S
H828 C841 0.929 . S
H829 C839 0.929 . S
H830 C834 0.929 . S
H831 C840 0.929 . S
C832 H826 0.930 . S
C832 C833 1.367 . S
C832 C840 1.378 . S
C833 C832 1.367 . S
C833 C841 1.433 . S
C834 H830 0.929 . S
C834 C836 1.378 . S
C834 C838 1.350 . S
C835 C838 1.463 1_455 S
C835 C840 1.350 . S
C835 N843 1.427 1_455 S
C836 H827 0.930 . S
C836 C834 1.378 . S
C836 C837 1.367 . S
C837 C836 1.367 . S
C837 C839 1.433 . S
C838 C834 1.350 . S
C838 C835 1.463 1_655 S
C838 N842 1.427 1_655 S
C839 H829 0.929 . S
C839 C837 1.433 . S
C839 N842 1.384 1_655 S
C840 H831 0.929 . S
C840 C832 1.378 . S
C840 C835 1.350 . S
C841 H828 0.929 . S
C841 C833 1.433 . S
C841 N843 1.384 1_455 S
N842 C838 1.427 1_455 S
N842 C839 1.384 1_455 S
N843 C835 1.427 1_655 S
N843 C841 1.384 1_655 S
H844 C850 0.930 . S
H845 C854 0.930 . S
H846 C859 0.929 . S
H847 C857 0.929 . S
H848 C852 0.929 . S
H849 C858 0.929 . S
C850 H844 0.930 . S
C850 C851 1.367 . S
C850 C858 1.378 . S
C851 C850 1.367 . S
C851 C859 1.433 . S
C852 H848 0.929 . S
C852 C854 1.378 . S
C852 C856 1.350 . S
C853 C856 1.463 1_556 S
C853 C858 1.350 . S
C853 N861 1.435 . S
C854 H845 0.930 . S
C854 C852 1.378 . S
C854 C855 1.367 . S
C855 C854 1.367 . S
C855 C857 1.433 . S
C856 C852 1.350 . S
C856 C853 1.463 1_554 S
C856 N860 1.435 . S
C857 H847 0.929 . S
C857 C855 1.433 . S
C857 N860 1.398 . S
C858 H849 0.929 . S
C858 C850 1.378 . S
C858 C853 1.350 . S
C859 H846 0.929 . S
C859 C851 1.433 . S
C859 N861 1.398 . S
N860 C856 1.435 . S
N860 C857 1.398 . S
N861 C853 1.435 . S
N861 C859 1.398 . S
H862 C868 0.930 . S
H863 C872 0.930 . S
H864 C877 0.929 . S
H865 C875 0.929 . S
H866 C870 0.929 . S
H867 C876 0.929 . S
C868 H862 0.930 . S
C868 C869 1.367 . S
C868 C876 1.378 . S
C869 C868 1.367 . S
C869 C877 1.433 . S
C870 H866 0.929 . S
C870 C872 1.378 . S
C870 C874 1.350 . S
C871 C874 1.463 . S
C871 C876 1.350 . S
C871 N879 1.427 . S
C872 H863 0.930 . S
C872 C870 1.378 . S
C872 C873 1.367 . S
C873 C872 1.367 . S
C873 C875 1.433 . S
C874 C870 1.350 . S
C874 C871 1.463 . S
C874 N878 1.427 . S
C875 H865 0.929 . S
C875 C873 1.433 . S
C875 N878 1.384 . S
C876 H867 0.929 . S
C876 C868 1.378 . S
C876 C871 1.350 . S
C877 H864 0.929 . S
C877 C869 1.433 . S
C877 N879 1.384 . S
N878 C874 1.427 . S
N878 C875 1.384 . S
N879 C871 1.427 . S
N879 C877 1.384 . S
H880 C886 0.930 . S
H881 C890 0.930 . S
H882 C895 0.929 . S
H883 C893 0.929 . S
H884 C888 0.929 . S
H885 C894 0.929 . S
C886 H880 0.930 . S
C886 C887 1.367 . S
C886 C894 1.378 . S
C887 C886 1.367 . S
C887 C895 1.433 . S
C888 H884 0.929 . S
C888 C890 1.378 . S
C888 C892 1.350 . S
C889 C892 1.463 . S
C889 C894 1.350 . S
C889 N897 1.427 . S
C890 H881 0.930 . S
C890 C888 1.378 . S
C890 C891 1.367 . S
C891 C890 1.367 . S
C891 C893 1.433 . S
C892 C888 1.350 . S
C892 C889 1.463 . S
C892 N896 1.427 . S
C893 H883 0.929 . S
C893 C891 1.433 . S
C893 N896 1.384 . S
C894 H885 0.929 . S
C894 C886 1.378 . S
C894 C889 1.350 . S
C895 H882 0.929 . S
C895 C887 1.433 . S
C895 N897 1.384 . S
N896 C892 1.427 . S
N896 C893 1.384 . S
N897 C889 1.427 . S
N897 C895 1.384 . S
H898 C904 0.930 . S
H899 C908 0.930 . S
H900 C913 0.929 . S
H901 C911 0.929 . S
H902 C906 0.929 . S
H903 C912 0.929 . S
C904 H898 0.930 . S
C904 C905 1.367 . S
C904 C912 1.378 . S
C905 C904 1.367 . S
C905 C913 1.433 . S
C906 H902 0.929 . S
C906 C908 1.378 . S
C906 C910 1.350 . S
C907 C910 1.463 1_655 S
C907 C912 1.350 . S
C907 N915 1.427 1_655 S
C908 H899 0.930 . S
C908 C906 1.378 . S
C908 C909 1.367 . S
C909 C908 1.367 . S
C909 C911 1.433 . S
C910 C906 1.350 . S
C910 C907 1.463 1_455 S
C910 N914 1.427 1_455 S
C911 H901 0.929 . S
C911 C909 1.433 . S
C911 N914 1.384 1_455 S
C912 H903 0.929 . S
C912 C904 1.378 . S
C912 C907 1.350 . S
C913 H900 0.929 . S
C913 C905 1.433 . S
C913 N915 1.384 1_655 S
N914 C910 1.427 1_655 S
N914 C911 1.384 1_655 S
N915 C907 1.427 1_455 S
N915 C913 1.384 1_455 S
H916 C922 0.930 . S
H917 C926 0.930 . S
H918 C931 0.929 . S
H919 C929 0.929 . S
H920 C924 0.929 . S
H921 C930 0.929 . S
C922 H916 0.930 . S
C922 C923 1.367 . S
C922 C930 1.378 . S
C923 C922 1.367 . S
C923 C931 1.433 . S
C924 H920 0.929 . S
C924 C926 1.378 . S
C924 C928 1.350 . S
C925 C928 1.463 . S
C925 C930 1.350 . S
C925 N933 1.427 . S
C926 H917 0.930 . S
C926 C924 1.378 . S
C926 C927 1.367 . S
C927 C926 1.367 . S
C927 C929 1.433 . S
C928 C924 1.350 . S
C928 C925 1.463 . S
C928 N932 1.427 . S
C929 H919 0.929 . S
C929 C927 1.433 . S
C929 N932 1.384 . S
C930 H921 0.929 . S
C930 C922 1.378 . S
C930 C925 1.350 . S
C931 H918 0.929 . S
C931 C923 1.433 . S
C931 N933 1.384 . S
N932 C928 1.427 . S
N932 C929 1.384 . S
N933 C925 1.427 . S
N933 C931 1.384 . S
H934 C940 0.930 . S
H935 C944 0.930 . S
H936 C949 0.929 . S
H937 C947 0.929 . S
H938 C942 0.929 . S
H939 C948 0.929 . S
C940 H934 0.930 . S
C940 C941 1.367 . S
C940 C948 1.378 . S
C941 C940 1.367 . S
C941 C949 1.433 . S
C942 H938 0.929 . S
C942 C944 1.378 . S
C942 C946 1.350 . S
C943 C946 1.463 . S
C943 C948 1.350 . S
C943 N951 1.427 . S
C944 H935 0.930 . S
C944 C942 1.378 . S
C944 C945 1.367 . S
C945 C944 1.367 . S
C945 C947 1.433 . S
C946 C942 1.350 . S
C946 C943 1.463 . S
C946 N950 1.427 . S
C947 H937 0.929 . S
C947 C945 1.433 . S
C947 N950 1.384 . S
C948 H939 0.929 . S
C948 C940 1.378 . S
C948 C943 1.350 . S
C949 H936 0.929 . S
C949 C941 1.433 . S
C949 N951 1.384 . S
N950 C946 1.427 . S
N950 C947 1.384 . S
N951 C943 1.427 . S
N951 C949 1.384 . S
H952 C958 0.930 . S
H953 C962 0.930 . S
H954 C967 0.929 . S
H955 C965 0.929 . S
H956 C960 0.929 . S
H957 C966 0.929 . S
C958 H952 0.930 . S
C958 C959 1.367 . S
C958 C966 1.378 . S
C959 C958 1.367 . S
C959 C967 1.433 . S
C960 H956 0.929 . S
C960 C962 1.378 . S
C960 C964 1.350 . S
C961 C964 1.463 . S
C961 C966 1.350 . S
C961 N969 1.427 . S
C962 H953 0.930 . S
C962 C960 1.378 . S
C962 C963 1.367 . S
C963 C962 1.367 . S
C963 C965 1.433 . S
C964 C960 1.350 . S
C964 C961 1.463 . S
C964 N968 1.427 . S
C965 H955 0.929 . S
C965 C963 1.433 . S
C965 N968 1.384 . S
C966 H957 0.929 . S
C966 C958 1.378 . S
C966 C961 1.350 . S
C967 H954 0.929 . S
C967 C959 1.433 . S
C967 N969 1.384 . S
N968 C964 1.427 . S
N968 C965 1.384 . S
N969 C961 1.427 . S
N969 C967 1.384 . S
H970 C976 0.930 . S
H971 C980 0.930 . S
H972 C985 0.929 . S
H973 C983 0.929 . S
H974 C978 0.929 . S
H975 C984 0.929 . S
C976 H970 0.930 . S
C976 C977 1.367 . S
C976 C984 1.378 . S
C977 C976 1.367 . S
C977 C985 1.433 . S
C978 H974 0.929 . S
C978 C980 1.378 . S
C978 C982 1.350 . S
C979 C982 1.463 1_545 S
C979 C984 1.350 . S
C979 N987 1.427 . S
C980 H971 0.930 . S
C980 C978 1.378 . S
C980 C981 1.367 . S
C981 C980 1.367 . S
C981 C983 1.433 . S
C982 C978 1.350 . S
C982 C979 1.463 1_565 S
C982 N986 1.427 . S
C983 H973 0.929 . S
C983 C981 1.433 . S
C983 N986 1.384 . S
C984 H975 0.929 . S
C984 C976 1.378 . S
C984 C979 1.350 . S
C985 H972 0.929 . S
C985 C977 1.433 . S
C985 N987 1.384 . S
N986 C982 1.427 . S
N986 C983 1.384 . S
N987 C979 1.427 . S
N987 C985 1.384 . S
H988 C994 0.930 . S
H989 C998 0.930 . S
H990 C1003 0.929 . S
H991 C1001 0.929 . S
H992 C996 0.929 . S
H993 C1002 0.929 . S
C994 H988 0.930 . S
C994 C995 1.367 . S
C994 C1002 1.378 . S
C995 C994 1.367 . S
C995 C1003 1.433 . S
C996 H992 0.929 . S
C996 C998 1.378 . S
C996 C1000 1.350 . S
C997 C1000 1.463 . S
C997 C1002 1.350 . S
C997 N1005 1.427 . S
C998 H989 0.930 . S
C998 C996 1.378 . S
C998 C999 1.367 . S
C999 C998 1.367 . S
C999 C1001 1.433 . S
C1000 C996 1.350 . S
C1000 C997 1.463 . S
C1000 N1004 1.427 . S
C1001 H991 0.929 . S
C1001 C999 1.433 . S
C1001 N1004 1.384 . S
C1002 H993 0.929 . S
C1002 C994 1.378 . S
C1002 C997 1.350 . S
C1003 H990 0.929 . S
C1003 C995 1.433 . S
C1003 N1005 1.384 . S
N1004 C1000 1.427 . S
N1004 C1001 1.384 . S
N1005 C997 1.427 . S
N1005 C1003 1.384 . S
H1006 C1012 0.930 . S
H1007 C1016 0.930 . S
H1008 C1021 0.913 1_556 S
H1009 C1019 0.913 1_554 S
H1010 C1014 0.929 . S
H1011 C1020 0.929 . S
C1012 H1006 0.930 . S
C1012 C1013 1.367 . S
C1012 C1020 1.378 . S
C1013 C1012 1.367 . S
C1013 C1021 1.462 . S
C1014 H1010 0.929 . S
C1014 C1016 1.378 . S
C1014 C1018 1.350 . S
C1015 C1018 1.463 1_554 S
C1015 C1020 1.350 . S
C1015 N1023 1.427 1_554 S
C1016 H1007 0.930 . S
C1016 C1014 1.378 . S
C1016 C1017 1.367 . S
C1017 C1016 1.367 . S
C1017 C1019 1.462 . S
C1018 C1014 1.350 . S
C1018 C1015 1.463 1_556 S
C1018 N1022 1.427 1_556 S
C1019 H1009 0.913 1_556 S
C1019 C1017 1.462 . S
C1019 N1022 1.372 1_556 S
C1020 H1011 0.929 . S
C1020 C1012 1.378 . S
C1020 C1015 1.350 . S
C1021 H1008 0.913 1_554 S
C1021 C1013 1.462 . S
C1021 N1023 1.372 1_554 S
N1022 C1018 1.427 1_554 S
N1022 C1019 1.372 1_554 S
N1023 C1015 1.427 1_556 S
N1023 C1021 1.372 1_556 S
H1024 C1030 0.930 . S
H1025 C1034 0.930 . S
H1026 C1039 0.929 . S
H1027 C1037 0.929 . S
H1028 C1032 0.929 . S
H1029 C1038 0.929 . S
C1030 H1024 0.930 . S
C1030 C1031 1.367 . S
C1030 C1038 1.378 . S
C1031 C1030 1.367 . S
C1031 C1039 1.433 . S
C1032 H1028 0.929 . S
C1032 C1034 1.378 . S
C1032 C1036 1.350 . S
C1033 C1036 1.463 . S
C1033 C1038 1.350 . S
C1033 N1041 1.427 . S
C1034 H1025 0.930 . S
C1034 C1032 1.378 . S
C1034 C1035 1.367 . S
C1035 C1034 1.367 . S
C1035 C1037 1.433 . S
C1036 C1032 1.350 . S
C1036 C1033 1.463 . S
C1036 N1040 1.427 . S
C1037 H1027 0.929 . S
C1037 C1035 1.433 . S
C1037 N1040 1.384 . S
C1038 H1029 0.929 . S
C1038 C1030 1.378 . S
C1038 C1033 1.350 . S
C1039 H1026 0.929 . S
C1039 C1031 1.433 . S
C1039 N1041 1.384 . S
N1040 C1036 1.427 . S
N1040 C1037 1.384 . S
N1041 C1033 1.427 . S
N1041 C1039 1.384 . S
H1042 C1048 0.930 1_554 S
H1043 C1052 0.930 . S
H1044 C1057 0.929 . S
H1045 C1055 0.929 1_554 S
H1046 C1050 0.929 . S
H1047 C1056 0.929 1_554 S
C1048 H1042 0.930 1_556 S
C1048 C1049 1.367 . S
C1048 C1056 1.378 . S
C1049 C1048 1.367 . S
C1049 C1057 1.433 . S
C1050 H1046 0.929 . S
C1050 C1052 1.378 . S
C1050 C1054 1.350 . S
C1051 C1054 1.463 . S
C1051 C1056 1.350 . S
C1051 N1059 1.427 . S
C1052 H1043 0.930 . S
C1052 C1050 1.378 . S
C1052 C1053 1.367 . S
C1053 C1052 1.367 . S
C1053 C1055 1.433 . S
C1054 C1050 1.350 . S
C1054 C1051 1.463 . S
C1054 N1058 1.427 . S
C1055 H1045 0.929 1_556 S
C1055 C1053 1.433 . S
C1055 N1058 1.384 . S
C1056 H1047 0.929 1_556 S
C1056 C1048 1.378 . S
C1056 C1051 1.350 . S
C1057 H1044 0.929 . S
C1057 C1049 1.433 . S
C1057 N1059 1.384 . S
N1058 C1054 1.427 . S
N1058 C1055 1.384 . S
N1059 C1051 1.427 . S
N1059 C1057 1.384 . S
H1060 C1066 0.930 . S
H1061 C1070 0.930 . S
H1062 C1075 0.929 . S
H1063 C1073 0.929 . S
H1064 C1068 0.929 . S
H1065 C1074 0.929 . S
C1066 H1060 0.930 . S
C1066 C1067 1.367 . S
C1066 C1074 1.378 . S
C1067 C1066 1.367 . S
C1067 C1075 1.433 . S
C1068 H1064 0.929 . S
C1068 C1070 1.378 . S
C1068 C1072 1.350 . S
C1069 C1072 1.463 . S
C1069 C1074 1.350 . S
C1069 N1077 1.427 . S
C1070 H1061 0.930 . S
C1070 C1068 1.378 . S
C1070 C1071 1.367 . S
C1071 C1070 1.367 . S
C1071 C1073 1.433 . S
C1072 C1068 1.350 . S
C1072 C1069 1.463 . S
C1072 N1076 1.427 . S
C1073 H1063 0.929 . S
C1073 C1071 1.433 . S
C1073 N1076 1.384 . S
C1074 H1065 0.929 . S
C1074 C1066 1.378 . S
C1074 C1069 1.350 . S
C1075 H1062 0.929 . S
C1075 C1067 1.433 . S
C1075 N1077 1.384 . S
N1076 C1072 1.427 . S
N1076 C1073 1.384 . S
N1077 C1069 1.427 . S
N1077 C1075 1.384 . S
H1078 C1084 0.930 . S
H1079 C1088 0.930 . S
H1080 C1093 0.929 . S
H1081 C1091 0.947 . S
H1082 C1086 0.929 . S
H1083 C1092 0.929 . S
C1084 H1078 0.930 . S
C1084 C1085 1.367 . S
C1084 C1092 1.378 . S
C1085 C1084 1.367 . S
C1085 C1093 1.433 . S
C1086 H1082 0.929 . S
C1086 C1088 1.378 . S
C1086 C1090 1.350 . S
C1087 C1090 1.463 . S
C1087 C1092 1.350 . S
C1087 N1095 1.427 . S
C1088 H1079 0.930 . S
C1088 C1086 1.378 . S
C1088 C1089 1.367 . S
C1089 C1088 1.367 . S
C1089 C1091 1.433 . S
C1090 C1086 1.350 . S
C1090 C1087 1.463 . S
C1090 N1094 1.427 . S
C1091 H1081 0.947 . S
C1091 C1089 1.433 . S
C1091 N1094 1.384 . S
C1092 H1083 0.929 . S
C1092 C1084 1.378 . S
C1092 C1087 1.350 . S
C1093 H1080 0.929 . S
C1093 C1085 1.433 . S
C1093 N1095 1.384 . S
N1094 C1090 1.427 . S
N1094 C1091 1.384 . S
N1095 C1087 1.427 . S
N1095 C1093 1.384 . S
H1096 C1102 0.930 . S
H1097 C1106 0.930 . S
H1098 C1111 0.929 . S
H1099 C1109 0.929 . S
H1100 C1104 0.929 . S
H1101 C1110 0.929 . S
C1102 H1096 0.930 . S
C1102 C1103 1.367 . S
C1102 C1110 1.378 . S
C1103 C1102 1.367 . S
C1103 C1111 1.433 . S
C1104 H1100 0.929 . S
C1104 C1106 1.378 . S
C1104 C1108 1.350 . S
C1105 C1108 1.463 . S
C1105 C1110 1.350 . S
C1105 N1113 1.427 . S
C1106 H1097 0.930 . S
C1106 C1104 1.378 . S
C1106 C1107 1.367 . S
C1107 C1106 1.367 . S
C1107 C1109 1.433 . S
C1108 C1104 1.350 . S
C1108 C1105 1.463 . S
C1108 N1112 1.427 . S
C1109 H1099 0.929 . S
C1109 C1107 1.433 . S
C1109 N1112 1.384 . S
C1110 H1101 0.929 . S
C1110 C1102 1.378 . S
C1110 C1105 1.350 . S
C1111 H1098 0.929 . S
C1111 C1103 1.433 . S
C1111 N1113 1.384 . S
N1112 C1108 1.427 . S
N1112 C1109 1.384 . S
N1113 C1105 1.427 . S
N1113 C1111 1.384 . S
H1114 C1120 0.930 . S
H1115 C1124 0.930 . S
H1116 C1129 0.929 . S
H1117 C1127 0.929 . S
H1118 C1122 0.929 . S
H1119 C1128 0.929 . S
C1120 H1114 0.930 . S
C1120 C1121 1.367 . S
C1120 C1128 1.378 . S
C1121 C1120 1.367 . S
C1121 C1129 1.433 . S
C1122 H1118 0.929 . S
C1122 C1124 1.378 . S
C1122 C1126 1.350 . S
C1123 C1126 1.463 . S
C1123 C1128 1.350 . S
C1123 N1131 1.427 . S
C1124 H1115 0.930 . S
C1124 C1122 1.378 . S
C1124 C1125 1.367 . S
C1125 C1124 1.367 . S
C1125 C1127 1.433 . S
C1126 C1122 1.350 . S
C1126 C1123 1.463 . S
C1126 N1130 1.427 . S
C1127 H1117 0.929 . S
C1127 C1125 1.433 . S
C1127 N1130 1.384 . S
C1128 H1119 0.929 . S
C1128 C1120 1.378 . S
C1128 C1123 1.350 . S
C1129 H1116 0.929 . S
C1129 C1121 1.433 . S
C1129 N1131 1.384 . S
N1130 C1126 1.427 . S
N1130 C1127 1.384 . S
N1131 C1123 1.427 . S
N1131 C1129 1.384 . S
H1132 C1138 0.930 . S
H1133 C1142 0.930 . S
H1134 C1147 0.929 . S
H1135 C1145 0.929 . S
H1136 C1140 0.929 . S
H1137 C1146 0.929 . S
C1138 H1132 0.930 . S
C1138 C1139 1.367 . S
C1138 C1146 1.378 . S
C1139 C1138 1.367 . S
C1139 C1147 1.433 . S
C1140 H1136 0.929 . S
C1140 C1142 1.378 . S
C1140 C1144 1.350 . S
C1141 C1144 1.463 . S
C1141 C1146 1.350 . S
C1141 N1149 1.427 . S
C1142 H1133 0.930 . S
C1142 C1140 1.378 . S
C1142 C1143 1.367 . S
C1143 C1142 1.367 . S
C1143 C1145 1.433 . S
C1144 C1140 1.350 . S
C1144 C1141 1.463 . S
C1144 N1148 1.427 . S
C1145 H1135 0.929 . S
C1145 C1143 1.433 . S
C1145 N1148 1.384 . S
C1146 H1137 0.929 . S
C1146 C1138 1.378 . S
C1146 C1141 1.350 . S
C1147 H1134 0.929 . S
C1147 C1139 1.433 . S
C1147 N1149 1.384 . S
N1148 C1144 1.427 . S
N1148 C1145 1.384 . S
N1149 C1141 1.427 . S
N1149 C1147 1.384 . S
H1150 C1156 0.930 . S
H1151 C1160 0.930 . S
H1152 C1165 0.929 . S
H1153 C1163 0.929 . S
H1154 C1158 0.929 . S
H1155 C1164 0.929 . S
C1156 H1150 0.930 . S
C1156 C1157 1.367 . S
C1156 C1164 1.378 . S
C1157 C1156 1.367 . S
C1157 C1165 1.433 . S
C1158 H1154 0.929 . S
C1158 C1160 1.378 . S
C1158 C1162 1.350 . S
C1159 C1162 1.463 . S
C1159 C1164 1.350 . S
C1159 N1167 1.427 . S
C1160 H1151 0.930 . S
C1160 C1158 1.378 . S
C1160 C1161 1.367 . S
C1161 C1160 1.367 . S
C1161 C1163 1.433 . S
C1162 C1158 1.350 . S
C1162 C1159 1.463 . S
C1162 N1166 1.427 . S
C1163 H1153 0.929 . S
C1163 C1161 1.433 . S
C1163 N1166 1.384 . S
C1164 H1155 0.929 . S
C1164 C1156 1.378 . S
C1164 C1159 1.350 . S
C1165 H1152 0.929 . S
C1165 C1157 1.433 . S
C1165 N1167 1.384 . S
N1166 C1162 1.427 . S
N1166 C1163 1.384 . S
N1167 C1159 1.427 . S
N1167 C1165 1.384 . S
H1168 C1174 0.930 . S
H1169 C1178 0.930 . S
H1170 C1183 0.929 . S
H1171 C1181 0.929 . S
H1172 C1176 0.929 . S
H1173 C1182 0.929 . S
C1174 H1168 0.930 . S
C1174 C1175 1.367 . S
C1174 C1182 1.378 . S
C1175 C1174 1.367 . S
C1175 C1183 1.433 . S
C1176 H1172 0.929 . S
C1176 C1178 1.378 . S
C1176 C1180 1.350 . S
C1177 C1180 1.463 . S
C1177 C1182 1.350 . S
C1177 N1185 1.427 . S
C1178 H1169 0.930 . S
C1178 C1176 1.378 . S
C1178 C1179 1.367 . S
C1179 C1178 1.367 . S
C1179 C1181 1.433 . S
C1180 C1176 1.350 . S
C1180 C1177 1.463 . S
C1180 N1184 1.427 . S
C1181 H1171 0.929 . S
C1181 C1179 1.433 . S
C1181 N1184 1.384 . S
C1182 H1173 0.929 . S
C1182 C1174 1.378 . S
C1182 C1177 1.350 . S
C1183 H1170 0.929 . S
C1183 C1175 1.433 . S
C1183 N1185 1.384 . S
N1184 C1180 1.427 . S
N1184 C1181 1.384 . S
N1185 C1177 1.427 . S
N1185 C1183 1.384 . S
H1186 C1192 0.930 . S
H1187 C1196 0.930 . S
H1188 C1201 0.929 . S
H1189 C1199 0.929 . S
H1190 C1194 0.929 . S
H1191 C1200 0.929 . S
C1192 H1186 0.930 . S
C1192 C1193 1.367 . S
C1192 C1200 1.378 . S
C1193 C1192 1.367 . S
C1193 C1201 1.433 . S
C1194 H1190 0.929 . S
C1194 C1196 1.378 . S
C1194 C1198 1.350 . S
C1195 C1198 1.463 . S
C1195 C1200 1.350 . S
C1195 N1203 1.427 . S
C1196 H1187 0.930 . S
C1196 C1194 1.378 . S
C1196 C1197 1.367 . S
C1197 C1196 1.367 . S
C1197 C1199 1.433 . S
C1198 C1194 1.350 . S
C1198 C1195 1.463 . S
C1198 N1202 1.427 . S
C1199 H1189 0.929 . S
C1199 C1197 1.433 . S
C1199 N1202 1.384 . S
C1200 H1191 0.929 . S
C1200 C1192 1.378 . S
C1200 C1195 1.350 . S
C1201 H1188 0.929 . S
C1201 C1193 1.433 . S
C1201 N1203 1.384 . S
N1202 C1198 1.427 . S
N1202 C1199 1.384 . S
N1203 C1195 1.427 . S
N1203 C1201 1.384 . S
H1204 C1210 0.930 . S
H1205 C1214 0.930 . S
H1206 C1219 0.929 . S
H1207 C1217 0.929 . S
H1208 C1212 0.929 . S
H1209 C1218 0.929 . S
C1210 H1204 0.930 . S
C1210 C1211 1.367 . S
C1210 C1218 1.378 . S
C1211 C1210 1.367 . S
C1211 C1219 1.433 . S
C1212 H1208 0.929 . S
C1212 C1214 1.378 . S
C1212 C1216 1.350 . S
C1213 C1216 1.463 . S
C1213 C1218 1.350 . S
C1213 N1221 1.427 . S
C1214 H1205 0.930 . S
C1214 C1212 1.378 . S
C1214 C1215 1.367 . S
C1215 C1214 1.367 . S
C1215 C1217 1.433 . S
C1216 C1212 1.350 . S
C1216 C1213 1.463 . S
C1216 N1220 1.427 . S
C1217 H1207 0.929 . S
C1217 C1215 1.433 . S
C1217 N1220 1.384 . S
C1218 H1209 0.929 . S
C1218 C1210 1.378 . S
C1218 C1213 1.350 . S
C1219 H1206 0.929 . S
C1219 C1211 1.433 . S
C1219 N1221 1.384 . S
N1220 C1216 1.427 . S
N1220 C1217 1.384 . S
N1221 C1213 1.427 . S
N1221 C1219 1.384 . S
H1222 C1228 0.930 . S
H1223 C1232 0.930 . S
H1224 C1237 0.929 . S
H1225 C1235 0.929 . S
H1226 C1230 0.929 . S
H1227 C1236 0.929 . S
C1228 H1222 0.930 . S
C1228 C1229 1.367 . S
C1228 C1236 1.378 . S
C1229 C1228 1.367 . S
C1229 C1237 1.433 . S
C1230 H1226 0.929 . S
C1230 C1232 1.378 . S
C1230 C1234 1.350 . S
C1231 C1234 1.463 . S
C1231 C1236 1.350 . S
C1231 N1239 1.427 . S
C1232 H1223 0.930 . S
C1232 C1230 1.378 . S
C1232 C1233 1.367 . S
C1233 C1232 1.367 . S
C1233 C1235 1.433 . S
C1234 C1230 1.350 . S
C1234 C1231 1.463 . S
C1234 N1238 1.427 . S
C1235 H1225 0.929 . S
C1235 C1233 1.433 . S
C1235 N1238 1.384 . S
C1236 H1227 0.929 . S
C1236 C1228 1.378 . S
C1236 C1231 1.350 . S
C1237 H1224 0.929 . S
C1237 C1229 1.433 . S
C1237 N1239 1.384 . S
N1238 C1234 1.427 . S
N1238 C1235 1.384 . S
N1239 C1231 1.427 . S
N1239 C1237 1.384 . S
H1240 C1246 0.930 . S
H1241 C1250 0.930 . S
H1242 C1255 0.929 . S
H1243 C1253 0.929 . S
H1244 C1248 0.929 . S
H1245 C1254 0.929 . S
C1246 H1240 0.930 . S
C1246 C1247 1.367 . S
C1246 C1254 1.378 . S
C1247 C1246 1.367 . S
C1247 C1255 1.433 . S
C1248 H1244 0.929 . S
C1248 C1250 1.378 . S
C1248 C1252 1.350 . S
C1249 C1252 1.463 . S
C1249 C1254 1.350 . S
C1249 N1257 1.427 . S
C1250 H1241 0.930 . S
C1250 C1248 1.378 . S
C1250 C1251 1.367 . S
C1251 C1250 1.367 . S
C1251 C1253 1.433 . S
C1252 C1248 1.350 . S
C1252 C1249 1.463 . S
C1252 N1256 1.427 . S
C1253 H1243 0.929 . S
C1253 C1251 1.433 . S
C1253 N1256 1.384 . S
C1254 H1245 0.929 . S
C1254 C1246 1.378 . S
C1254 C1249 1.350 . S
C1255 H1242 0.929 . S
C1255 C1247 1.433 . S
C1255 N1257 1.384 . S
N1256 C1252 1.427 . S
N1256 C1253 1.384 . S
N1257 C1249 1.427 . S
N1257 C1255 1.384 . S
H1258 C1264 0.930 . S
H1259 C1268 0.930 1_554 S
H1260 C1273 0.929 1_554 S
H1261 C1271 0.929 . S
H1262 C1266 0.929 1_554 S
H1263 C1272 0.929 . S
C1264 H1258 0.930 . S
C1264 C1265 1.367 . S
C1264 C1272 1.378 . S
C1265 C1264 1.367 . S
C1265 C1273 1.433 . S
C1266 H1262 0.929 1_556 S
C1266 C1268 1.378 . S
C1266 C1270 1.350 . S
C1267 C1270 1.463 . S
C1267 C1272 1.350 . S
C1267 N1275 1.427 . S
C1268 H1259 0.930 1_556 S
C1268 C1266 1.378 . S
C1268 C1269 1.367 . S
C1269 C1268 1.367 . S
C1269 C1271 1.433 . S
C1270 C1266 1.350 . S
C1270 C1267 1.463 . S
C1270 N1274 1.427 . S
C1271 H1261 0.929 . S
C1271 C1269 1.433 . S
C1271 N1274 1.384 . S
C1272 H1263 0.929 . S
C1272 C1264 1.378 . S
C1272 C1267 1.350 . S
C1273 H1260 0.929 1_556 S
C1273 C1265 1.433 . S
C1273 N1275 1.384 . S
N1274 C1270 1.427 . S
N1274 C1271 1.384 . S
N1275 C1267 1.427 . S
N1275 C1273 1.384 . S
H1276 C1282 0.930 . S
H1277 C1286 0.930 . S
H1278 C1291 0.929 . S
H1279 C1289 0.929 . S
H1280 C1284 0.929 . S
H1281 C1290 0.929 . S
C1282 H1276 0.930 . S
C1282 C1283 1.367 . S
C1282 C1290 1.378 . S
C1283 C1282 1.367 . S
C1283 C1291 1.433 . S
C1284 H1280 0.929 . S
C1284 C1286 1.378 . S
C1284 C1288 1.350 . S
C1285 C1288 1.463 . S
C1285 C1290 1.350 . S
C1285 N1293 1.427 . S
C1286 H1277 0.930 . S
C1286 C1284 1.378 . S
C1286 C1287 1.367 . S
C1287 C1286 1.367 . S
C1287 C1289 1.433 . S
C1288 C1284 1.350 . S
C1288 C1285 1.463 . S
C1288 N1292 1.427 . S
C1289 H1279 0.929 . S
C1289 C1287 1.433 . S
C1289 N1292 1.384 . S
C1290 H1281 0.929 . S
C1290 C1282 1.378 . S
C1290 C1285 1.350 . S
C1291 H1278 0.929 . S
C1291 C1283 1.433 . S
C1291 N1293 1.384 . S
N1292 C1288 1.427 . S
N1292 C1289 1.384 . S
N1293 C1285 1.427 . S
N1293 C1291 1.384 . S
H1294 C1300 0.930 . S
H1295 C1304 0.930 1_556 S
H1296 C1309 0.929 1_556 S
H1297 C1307 0.929 . S
H1298 C1302 0.929 1_556 S
H1299 C1308 0.929 . S
C1300 H1294 0.930 . S
C1300 C1301 1.367 . S
C1300 C1308 1.378 . S
C1301 C1300 1.367 . S
C1301 C1309 1.433 . S
C1302 H1298 0.929 1_554 S
C1302 C1304 1.378 . S
C1302 C1306 1.350 . S
C1303 C1306 1.463 . S
C1303 C1308 1.350 . S
C1303 N1311 1.427 . S
C1304 H1295 0.930 1_554 S
C1304 C1302 1.378 . S
C1304 C1305 1.367 . S
C1305 C1304 1.367 . S
C1305 C1307 1.433 . S
C1306 C1302 1.350 . S
C1306 C1303 1.463 . S
C1306 N1310 1.427 . S
C1307 H1297 0.929 . S
C1307 C1305 1.433 . S
C1307 N1310 1.384 . S
C1308 H1299 0.929 . S
C1308 C1300 1.378 . S
C1308 C1303 1.350 . S
C1309 H1296 0.929 1_554 S
C1309 C1301 1.433 . S
C1309 N1311 1.384 . S
N1310 C1306 1.427 . S
N1310 C1307 1.384 . S
N1311 C1303 1.427 . S
N1311 C1309 1.384 . S
H1312 C1318 0.930 . S
H1313 C1322 0.930 . S
H1314 C1327 0.929 . S
H1315 C1325 0.929 . S
H1316 C1320 0.929 . S
H1317 C1326 0.929 . S
C1318 H1312 0.930 . S
C1318 C1319 1.367 . S
C1318 C1326 1.378 . S
C1319 C1318 1.367 . S
C1319 C1327 1.433 . S
C1320 H1316 0.929 . S
C1320 C1322 1.378 . S
C1320 C1324 1.350 . S
C1321 C1324 1.463 . S
C1321 C1326 1.350 . S
C1321 N1329 1.427 . S
C1322 H1313 0.930 . S
C1322 C1320 1.378 . S
C1322 C1323 1.367 . S
C1323 C1322 1.367 . S
C1323 C1325 1.433 . S
C1324 C1320 1.350 . S
C1324 C1321 1.463 . S
C1324 N1328 1.427 . S
C1325 H1315 0.929 . S
C1325 C1323 1.433 . S
C1325 N1328 1.384 . S
C1326 H1317 0.929 . S
C1326 C1318 1.378 . S
C1326 C1321 1.350 . S
C1327 H1314 0.929 . S
C1327 C1319 1.433 . S
C1327 N1329 1.384 . S
N1328 C1324 1.427 . S
N1328 C1325 1.384 . S
N1329 C1321 1.427 . S
N1329 C1327 1.384 . S
H1330 C1336 0.930 . S
H1331 C1340 0.930 . S
H1332 C1345 0.929 . S
H1333 C1343 0.929 . S
H1334 C1338 0.929 . S
H1335 C1344 0.929 . S
C1336 H1330 0.930 . S
C1336 C1337 1.367 . S
C1336 C1344 1.378 . S
C1337 C1336 1.367 . S
C1337 C1345 1.433 . S
C1338 H1334 0.929 . S
C1338 C1340 1.378 . S
C1338 C1342 1.350 . S
C1339 C1342 1.463 . S
C1339 C1344 1.350 . S
C1339 N1347 1.427 . S
C1340 H1331 0.930 . S
C1340 C1338 1.378 . S
C1340 C1341 1.367 . S
C1341 C1340 1.367 . S
C1341 C1343 1.433 . S
C1342 C1338 1.350 . S
C1342 C1339 1.463 . S
C1342 N1346 1.427 . S
C1343 H1333 0.929 . S
C1343 C1341 1.433 . S
C1343 N1346 1.384 . S
C1344 H1335 0.929 . S
C1344 C1336 1.378 . S
C1344 C1339 1.350 . S
C1345 H1332 0.929 . S
C1345 C1337 1.433 . S
C1345 N1347 1.384 . S
N1346 C1342 1.427 . S
N1346 C1343 1.384 . S
N1347 C1339 1.427 . S
N1347 C1345 1.384 . S
H1348 C1354 0.930 . S
H1349 C1358 0.930 . S
H1350 C1363 0.929 . S
H1351 C1361 0.929 . S
H1352 C1356 0.929 . S
H1353 C1362 0.929 . S
C1354 H1348 0.930 . S
C1354 C1355 1.367 . S
C1354 C1362 1.378 . S
C1355 C1354 1.367 . S
C1355 C1363 1.433 . S
C1356 H1352 0.929 . S
C1356 C1358 1.378 . S
C1356 C1360 1.350 . S
C1357 C1360 1.463 . S
C1357 C1362 1.350 . S
C1357 N1365 1.427 . S
C1358 H1349 0.930 . S
C1358 C1356 1.378 . S
C1358 C1359 1.367 . S
C1359 C1358 1.367 . S
C1359 C1361 1.433 . S
C1360 C1356 1.350 . S
C1360 C1357 1.463 . S
C1360 N1364 1.427 . S
C1361 H1351 0.929 . S
C1361 C1359 1.433 . S
C1361 N1364 1.384 . S
C1362 H1353 0.929 . S
C1362 C1354 1.378 . S
C1362 C1357 1.350 . S
C1363 H1350 0.929 . S
C1363 C1355 1.433 . S
C1363 N1365 1.384 . S
N1364 C1360 1.427 . S
N1364 C1361 1.384 . S
N1365 C1357 1.427 . S
N1365 C1363 1.384 . S
H1366 C1372 0.930 . S
H1367 C1376 0.930 . S
H1368 C1381 0.929 . S
H1369 C1379 0.929 . S
H1370 C1374 0.929 . S
H1371 C1380 0.929 . S
C1372 H1366 0.930 . S
C1372 C1373 1.367 . S
C1372 C1380 1.378 . S
C1373 C1372 1.367 . S
C1373 C1381 1.433 . S
C1374 H1370 0.929 . S
C1374 C1376 1.378 . S
C1374 C1378 1.350 . S
C1375 C1378 1.463 . S
C1375 C1380 1.350 . S
C1375 N1383 1.427 . S
C1376 H1367 0.930 . S
C1376 C1374 1.378 . S
C1376 C1377 1.367 . S
C1377 C1376 1.367 . S
C1377 C1379 1.433 . S
C1378 C1374 1.350 . S
C1378 C1375 1.463 . S
C1378 N1382 1.427 . S
C1379 H1369 0.929 . S
C1379 C1377 1.433 . S
C1379 N1382 1.384 . S
C1380 H1371 0.929 . S
C1380 C1372 1.378 . S
C1380 C1375 1.350 . S
C1381 H1368 0.929 . S
C1381 C1373 1.433 . S
C1381 N1383 1.384 . S
N1382 C1378 1.427 . S
N1382 C1379 1.384 . S
N1383 C1375 1.427 . S
N1383 C1381 1.384 . S
H1384 C1390 0.930 . S
H1385 C1394 0.930 . S
H1386 C1399 0.929 . S
H1387 C1397 0.929 . S
H1388 C1392 0.929 . S
H1389 C1398 0.929 . S
C1390 H1384 0.930 . S
C1390 C1391 1.367 . S
C1390 C1398 1.378 . S
C1391 C1390 1.367 . S
C1391 C1399 1.433 . S
C1392 H1388 0.929 . S
C1392 C1394 1.378 . S
C1392 C1396 1.350 . S
C1393 C1396 1.463 . S
C1393 C1398 1.350 . S
C1393 N1401 1.427 . S
C1394 H1385 0.930 . S
C1394 C1392 1.378 . S
C1394 C1395 1.367 . S
C1395 C1394 1.367 . S
C1395 C1397 1.433 . S
C1396 C1392 1.350 . S
C1396 C1393 1.463 . S
C1396 N1400 1.427 . S
C1397 H1387 0.929 . S
C1397 C1395 1.433 . S
C1397 N1400 1.384 . S
C1398 H1389 0.929 . S
C1398 C1390 1.378 . S
C1398 C1393 1.350 . S
C1399 H1386 0.929 . S
C1399 C1391 1.433 . S
C1399 N1401 1.384 . S
N1400 C1396 1.427 . S
N1400 C1397 1.384 . S
N1401 C1393 1.427 . S
N1401 C1399 1.384 . S
H1402 C1408 0.930 . S
H1403 C1412 0.930 . S
H1404 C1417 0.929 . S
H1405 C1415 0.929 . S
H1406 C1410 0.929 . S
H1407 C1416 0.929 . S
C1408 H1402 0.930 . S
C1408 C1409 1.367 . S
C1408 C1416 1.378 . S
C1409 C1408 1.367 . S
C1409 C1417 1.433 . S
C1410 H1406 0.929 . S
C1410 C1412 1.378 . S
C1410 C1414 1.350 . S
C1411 C1414 1.463 . S
C1411 C1416 1.350 . S
C1411 N1419 1.427 . S
C1412 H1403 0.930 . S
C1412 C1410 1.378 . S
C1412 C1413 1.367 . S
C1413 C1412 1.367 . S
C1413 C1415 1.433 . S
C1414 C1410 1.350 . S
C1414 C1411 1.463 . S
C1414 N1418 1.427 . S
C1415 H1405 0.929 . S
C1415 C1413 1.433 . S
C1415 N1418 1.384 . S
C1416 H1407 0.929 . S
C1416 C1408 1.378 . S
C1416 C1411 1.350 . S
C1417 H1404 0.929 . S
C1417 C1409 1.433 . S
C1417 N1419 1.384 . S
N1418 C1414 1.427 . S
N1418 C1415 1.384 . S
N1419 C1411 1.427 . S
N1419 C1417 1.384 . S
H1420 C1426 0.930 . S
H1421 C1430 0.930 . S
H1422 C1435 0.929 . S
H1423 C1433 0.929 . S
H1424 C1428 0.929 . S
H1425 C1434 0.929 . S
C1426 H1420 0.930 . S
C1426 C1427 1.367 . S
C1426 C1434 1.378 . S
C1427 C1426 1.367 . S
C1427 C1435 1.433 . S
C1428 H1424 0.929 . S
C1428 C1430 1.378 . S
C1428 C1432 1.350 . S
C1429 C1432 1.463 . S
C1429 C1434 1.350 . S
C1429 N1437 1.427 . S
C1430 H1421 0.930 . S
C1430 C1428 1.378 . S
C1430 C1431 1.367 . S
C1431 C1430 1.367 . S
C1431 C1433 1.433 . S
C1432 C1428 1.350 . S
C1432 C1429 1.463 . S
C1432 N1436 1.427 . S
C1433 H1423 0.929 . S
C1433 C1431 1.433 . S
C1433 N1436 1.384 . S
C1434 H1425 0.929 . S
C1434 C1426 1.378 . S
C1434 C1429 1.350 . S
C1435 H1422 0.929 . S
C1435 C1427 1.433 . S
C1435 N1437 1.384 . S
N1436 C1432 1.427 . S
N1436 C1433 1.384 . S
N1437 C1429 1.427 . S
N1437 C1435 1.384 . S
H1438 C1444 0.930 . S
H1439 C1448 0.930 . S
H1440 C1453 0.929 . S
H1441 C1451 0.929 . S
H1442 C1446 0.929 . S
H1443 C1452 0.929 . S
C1444 H1438 0.930 . S
C1444 C1445 1.367 . S
C1444 C1452 1.378 . S
C1445 C1444 1.367 . S
C1445 C1453 1.433 . S
C1446 H1442 0.929 . S
C1446 C1448 1.378 . S
C1446 C1450 1.350 . S
C1447 C1450 1.463 . S
C1447 C1452 1.350 . S
C1447 N1455 1.427 . S
C1448 H1439 0.930 . S
C1448 C1446 1.378 . S
C1448 C1449 1.367 . S
C1449 C1448 1.367 . S
C1449 C1451 1.433 . S
C1450 C1446 1.350 . S
C1450 C1447 1.463 . S
C1450 N1454 1.427 . S
C1451 H1441 0.929 . S
C1451 C1449 1.433 . S
C1451 N1454 1.384 . S
C1452 H1443 0.929 . S
C1452 C1444 1.378 . S
C1452 C1447 1.350 . S
C1453 H1440 0.929 . S
C1453 C1445 1.433 . S
C1453 N1455 1.384 . S
N1454 C1450 1.427 . S
N1454 C1451 1.384 . S
N1455 C1447 1.427 . S
N1455 C1453 1.384 . S
H1456 C1462 0.930 . S
H1457 C1466 0.930 . S
H1458 C1471 0.929 . S
H1459 C1469 0.929 . S
H1460 C1464 0.929 . S
H1461 C1470 0.929 . S
C1462 H1456 0.930 . S
C1462 C1463 1.367 . S
C1462 C1470 1.378 . S
C1463 C1462 1.367 . S
C1463 C1471 1.433 . S
C1464 H1460 0.929 . S
C1464 C1466 1.378 . S
C1464 C1468 1.350 . S
C1465 C1468 1.463 . S
C1465 C1470 1.350 . S
C1465 N1473 1.427 . S
C1466 H1457 0.930 . S
C1466 C1464 1.378 . S
C1466 C1467 1.367 . S
C1467 C1466 1.367 . S
C1467 C1469 1.433 . S
C1468 C1464 1.350 . S
C1468 C1465 1.463 . S
C1468 N1472 1.427 . S
C1469 H1459 0.929 . S
C1469 C1467 1.433 . S
C1469 N1472 1.384 . S
C1470 H1461 0.929 . S
C1470 C1462 1.378 . S
C1470 C1465 1.350 . S
C1471 H1458 0.929 . S
C1471 C1463 1.433 . S
C1471 N1473 1.384 . S
N1472 C1468 1.427 . S
N1472 C1469 1.384 . S
N1473 C1465 1.427 . S
N1473 C1471 1.384 . S
H1474 C1480 0.930 . S
H1475 C1484 0.930 . S
H1476 C1489 0.929 . S
H1477 C1487 0.929 . S
H1478 C1482 0.929 . S
H1479 C1488 0.929 . S
C1480 H1474 0.930 . S
C1480 C1481 1.367 . S
C1480 C1488 1.378 . S
C1481 C1480 1.367 . S
C1481 C1489 1.433 . S
C1482 H1478 0.929 . S
C1482 C1484 1.378 . S
C1482 C1486 1.350 . S
C1483 C1486 1.463 . S
C1483 C1488 1.350 . S
C1483 N1491 1.427 . S
C1484 H1475 0.930 . S
C1484 C1482 1.378 . S
C1484 C1485 1.367 . S
C1485 C1484 1.367 . S
C1485 C1487 1.433 . S
C1486 C1482 1.350 . S
C1486 C1483 1.463 . S
C1486 N1490 1.427 . S
C1487 H1477 0.929 . S
C1487 C1485 1.433 . S
C1487 N1490 1.384 . S
C1488 H1479 0.929 . S
C1488 C1480 1.378 . S
C1488 C1483 1.350 . S
C1489 H1476 0.929 . S
C1489 C1481 1.433 . S
C1489 N1491 1.384 . S
N1490 C1486 1.427 . S
N1490 C1487 1.384 . S
N1491 C1483 1.427 . S
N1491 C1489 1.384 . S
H1492 C1498 0.930 . S
H1493 C1502 0.930 . S
H1494 C1507 0.929 . S
H1495 C1505 0.929 . S
H1496 C1500 0.929 . S
H1497 C1506 0.929 . S
C1498 H1492 0.930 . S
C1498 C1499 1.367 . S
C1498 C1506 1.378 . S
C1499 C1498 1.367 . S
C1499 C1507 1.433 . S
C1500 H1496 0.929 . S
C1500 C1502 1.378 . S
C1500 C1504 1.350 . S
C1501 C1504 1.463 . S
C1501 C1506 1.350 . S
C1501 N1509 1.427 . S
C1502 H1493 0.930 . S
C1502 C1500 1.378 . S
C1502 C1503 1.367 . S
C1503 C1502 1.367 . S
C1503 C1505 1.433 . S
C1504 C1500 1.350 . S
C1504 C1501 1.463 . S
C1504 N1508 1.427 . S
C1505 H1495 0.929 . S
C1505 C1503 1.433 . S
C1505 N1508 1.384 . S
C1506 H1497 0.929 . S
C1506 C1498 1.378 . S
C1506 C1501 1.350 . S
C1507 H1494 0.929 . S
C1507 C1499 1.433 . S
C1507 N1509 1.384 . S
N1508 C1504 1.427 . S
N1508 C1505 1.384 . S
N1509 C1501 1.427 . S
N1509 C1507 1.384 . S
H1510 C1516 0.930 . S
H1511 C1520 0.930 . S
H1512 C1525 0.929 . S
H1513 C1523 0.929 . S
H1514 C1518 0.929 . S
H1515 C1524 0.929 . S
C1516 H1510 0.930 . S
C1516 C1517 1.367 . S
C1516 C1524 1.378 . S
C1517 C1516 1.367 . S
C1517 C1525 1.433 . S
C1518 H1514 0.929 . S
C1518 C1520 1.378 . S
C1518 C1522 1.350 . S
C1519 C1522 1.463 . S
C1519 C1524 1.350 . S
C1519 N1527 1.427 . S
C1520 H1511 0.930 . S
C1520 C1518 1.378 . S
C1520 C1521 1.367 . S
C1521 C1520 1.367 . S
C1521 C1523 1.433 . S
C1522 C1518 1.350 . S
C1522 C1519 1.463 . S
C1522 N1526 1.427 . S
C1523 H1513 0.929 . S
C1523 C1521 1.433 . S
C1523 N1526 1.384 . S
C1524 H1515 0.929 . S
C1524 C1516 1.378 . S
C1524 C1519 1.350 . S
C1525 H1512 0.929 . S
C1525 C1517 1.433 . S
C1525 N1527 1.384 . S
N1526 C1522 1.427 . S
N1526 C1523 1.384 . S
N1527 C1519 1.427 . S
N1527 C1525 1.384 . S
H1528 C1534 0.930 . S
H1529 C1538 0.930 . S
H1530 C1543 0.929 . S
H1531 C1541 0.929 . S
H1532 C1536 0.929 . S
H1533 C1542 0.929 . S
C1534 H1528 0.930 . S
C1534 C1535 1.367 . S
C1534 C1542 1.378 . S
C1535 C1534 1.367 . S
C1535 C1543 1.433 . S
C1536 H1532 0.929 . S
C1536 C1538 1.378 . S
C1536 C1540 1.350 . S
C1537 C1540 1.463 . S
C1537 C1542 1.350 . S
C1537 N1545 1.427 . S
C1538 H1529 0.930 . S
C1538 C1536 1.378 . S
C1538 C1539 1.367 . S
C1539 C1538 1.367 . S
C1539 C1541 1.433 . S
C1540 C1536 1.350 . S
C1540 C1537 1.463 . S
C1540 N1544 1.427 . S
C1541 H1531 0.929 . S
C1541 C1539 1.433 . S
C1541 N1544 1.384 . S
C1542 H1533 0.929 . S
C1542 C1534 1.378 . S
C1542 C1537 1.350 . S
C1543 H1530 0.929 . S
C1543 C1535 1.433 . S
C1543 N1545 1.384 . S
N1544 C1540 1.427 . S
N1544 C1541 1.384 . S
N1545 C1537 1.427 . S
N1545 C1543 1.384 . S
H1546 C1552 0.930 . S
H1547 C1556 0.930 . S
H1548 C1561 0.929 . S
H1549 C1559 0.929 . S
H1550 C1554 0.929 . S
H1551 C1560 0.929 . S
C1552 H1546 0.930 . S
C1552 C1553 1.367 . S
C1552 C1560 1.378 . S
C1553 C1552 1.367 . S
C1553 C1561 1.433 . S
C1554 H1550 0.929 . S
C1554 C1556 1.378 . S
C1554 C1558 1.350 . S
C1555 C1558 1.463 . S
C1555 C1560 1.350 . S
C1555 N1563 1.427 . S
C1556 H1547 0.930 . S
C1556 C1554 1.378 . S
C1556 C1557 1.367 . S
C1557 C1556 1.367 . S
C1557 C1559 1.433 . S
C1558 C1554 1.350 . S
C1558 C1555 1.463 . S
C1558 N1562 1.427 . S
C1559 H1549 0.929 . S
C1559 C1557 1.433 . S
C1559 N1562 1.384 . S
C1560 H1551 0.929 . S
C1560 C1552 1.378 . S
C1560 C1555 1.350 . S
C1561 H1548 0.929 . S
C1561 C1553 1.433 . S
C1561 N1563 1.384 . S
N1562 C1558 1.427 . S
N1562 C1559 1.384 . S
N1563 C1555 1.427 . S
N1563 C1561 1.384 . S
H1564 C1570 0.930 . S
H1565 C1574 0.930 . S
H1566 C1579 0.929 . S
H1567 C1577 0.929 . S
H1568 C1572 0.929 . S
H1569 C1578 0.929 . S
C1570 H1564 0.930 . S
C1570 C1571 1.367 . S
C1570 C1578 1.378 . S
C1571 C1570 1.367 . S
C1571 C1579 1.433 . S
C1572 H1568 0.929 . S
C1572 C1574 1.378 . S
C1572 C1576 1.350 . S
C1573 C1576 1.463 . S
C1573 C1578 1.350 . S
C1573 N1581 1.427 . S
C1574 H1565 0.930 . S
C1574 C1572 1.378 . S
C1574 C1575 1.367 . S
C1575 C1574 1.367 . S
C1575 C1577 1.433 . S
C1576 C1572 1.350 . S
C1576 C1573 1.463 . S
C1576 N1580 1.427 . S
C1577 H1567 0.929 . S
C1577 C1575 1.433 . S
C1577 N1580 1.384 . S
C1578 H1569 0.929 . S
C1578 C1570 1.378 . S
C1578 C1573 1.350 . S
C1579 H1566 0.929 . S
C1579 C1571 1.433 . S
C1579 N1581 1.384 . S
N1580 C1576 1.427 . S
N1580 C1577 1.384 . S
N1581 C1573 1.427 . S
N1581 C1579 1.384 . S
H1582 C1588 0.930 . S
H1583 C1592 0.930 . S
H1584 C1597 0.929 . S
H1585 C1595 0.929 . S
H1586 C1590 0.929 . S
H1587 C1596 0.929 . S
C1588 H1582 0.930 . S
C1588 C1589 1.367 . S
C1588 C1596 1.378 . S
C1589 C1588 1.367 . S
C1589 C1597 1.433 . S
C1590 H1586 0.929 . S
C1590 C1592 1.378 . S
C1590 C1594 1.350 . S
C1591 C1594 1.463 . S
C1591 C1596 1.350 . S
C1591 N1599 1.427 . S
C1592 H1583 0.930 . S
C1592 C1590 1.378 . S
C1592 C1593 1.367 . S
C1593 C1592 1.367 . S
C1593 C1595 1.433 . S
C1594 C1590 1.350 . S
C1594 C1591 1.463 . S
C1594 N1598 1.427 . S
C1595 H1585 0.929 . S
C1595 C1593 1.433 . S
C1595 N1598 1.384 . S
C1596 H1587 0.929 . S
C1596 C1588 1.378 . S
C1596 C1591 1.350 . S
C1597 H1584 0.929 . S
C1597 C1589 1.433 . S
C1597 N1599 1.384 . S
N1598 C1594 1.427 . S
N1598 C1595 1.384 . S
N1599 C1591 1.427 . S
N1599 C1597 1.384 . S
C455 C46 0.714 . S
C459 C4 0.735 . S
C473 C32 0.716 . S
C477 C18 0.727 . S
C491 C102 0.720 . S
C495 C60 0.721 . S
C509 C88 0.735 . S
C513 C74 0.714 . S
C527 C116 0.738 . S
C531 C158 0.717 . S
C545 C130 0.715 . S
C549 C144 0.736 . S
C563 C214 0.738 . S
C567 C172 0.719 . S
C581 C186 0.736 . S
C585 C200 0.715 . S
C599 C228 0.738 . S
C603 C270 0.717 . S
C617 C242 0.735 . S
C621 C256 0.714 . S
C635 C326 0.721 . S
C639 C284 0.738 . S
C653 C312 0.733 . S
C657 C298 0.714 . S
C671 C382 0.737 . S
C675 C340 0.716 . S
C689 C354 0.714 . S
C693 C368 0.732 . S
C707 C396 0.721 . S
C711 C438 0.738 . S
C725 C410 0.720 . S
C729 C424 0.738 . S
C743 C285 1.333 . S
C747 C5 1.333 . S
C761 C187 1.321 . S
C765 C19 1.321 . S
C779 C33 1.331 . S
C783 C425 1.331 . S
C797 C47 1.319 . S
C801 C103 1.319 . S
C815 C229 1.326 . S
C819 C61 1.326 . S
C833 C131 1.332 . S
C837 C75 1.332 . S
C851 C369 1.322 . S
C855 C89 1.322 . S
C869 C117 1.320 . S
C873 C397 1.320 . S
C887 C313 1.333 . S
C891 C145 1.333 . S
C905 C215 1.321 . S
C909 C159 1.321 . S
C923 C341 1.333 . S
C927 C173 1.333 . S
C941 C201 1.318 . S
C945 C257 1.318 . S
C959 C411 1.328 . S
C963 C243 1.328 . S
C977 C271 1.331 . S
C981 C327 1.331 . S
C995 C355 1.321 . S
C999 C299 1.321 . S
C1013 C439 1.318 . S
C1017 C383 1.318 . S
C1031 C26 1.298 . S
C1035 C12 1.303 . S
C1049 C40 1.292 . S
C1053 C54 1.297 . S
C1067 C68 1.297 . S
C1071 C82 1.292 . S
C1085 C110 1.299 . S
C1089 C96 1.303 . S
C1103 C124 1.295 . S
C1107 C138 1.291 . S
C1121 C152 1.303 . S
C1125 C166 1.299 . S
C1139 C194 1.299 . S
C1143 C180 1.303 . S
C1157 C208 1.299 . S
C1161 C222 1.294 . S
C1175 C236 1.292 . S
C1179 C250 1.296 . S
C1193 C264 1.294 . S
C1197 C278 1.300 . S
C1211 C292 1.298 . S
C1215 C306 1.293 . S
C1229 C334 1.301 . S
C1233 C320 1.304 . S
C1247 C362 1.301 . S
C1251 C348 1.295 . S
C1265 C376 1.302 . S
C1269 C390 1.298 . S
C1283 C404 1.299 . S
C1287 C418 1.303 . S
C1301 C446 1.301 . S
C1305 C432 1.296 . S
C1319 C11 1.467 1_655 S
C1323 C277 1.456 . S
C1337 C25 1.463 . S
C1341 C263 1.461 . S
C1355 C249 1.467 . S
C1359 C39 1.456 1_655 S
C1373 C53 1.467 . S
C1377 C235 1.457 . S
C1391 C333 1.456 . S
C1395 C67 1.467 1_455 S
C1409 C81 1.458 . S
C1413 C319 1.464 . S
C1427 C305 1.456 . S
C1431 C95 1.467 1_455 S
C1445 C109 1.468 . S
C1449 C291 1.456 . S
C1463 C123 1.467 1_655 S
C1467 C389 1.457 . S
C1481 C137 1.467 . S
C1485 C375 1.456 . S
C1499 C151 1.467 1_655 S
C1503 C361 1.456 . S
C1517 C347 1.466 . S
C1521 C165 1.458 . S
C1535 C179 1.467 1_455 S
C1539 C445 1.456 . S
C1553 C193 1.456 . S
C1557 C431 1.468 . S
C1571 C207 1.467 1_455 S
C1575 C417 1.457 . S
C1589 C403 1.459 . S
C1593 C221 1.465 . S
