# Generated by pormake.
# Topology whw, (6)-cn, num edge types: 1
# Building blocks:
#     Node 0, Type 0, BuildingBlock: BETFAJ_clean_sbu_0, # of connection points: 6
#     Node 1, Type 0, BuildingBlock: BETFAJ_clean_sbu_0, # of connection points: 6
#     Node 2, Type 0, BuildingBlock: BETFAJ_clean_sbu_0, # of connection points: 6
#     Node 3, Type 0, BuildingBlock: BETFAJ_clean_sbu_0, # of connection points: 6
#     Node 4, Type 0, BuildingBlock: BETFAJ_clean_sbu_0, # of connection points: 6
#     Node 5, Type 0, BuildingBlock: BETFAJ_clean_sbu_0, # of connection points: 6
#     Node 6, Type 0, BuildingBlock: BETFAJ_clean_sbu_0, # of connection points: 6
#     Node 7, Type 0, BuildingBlock: BETFAJ_clean_sbu_0, # of connection points: 6
#     Node 8, Type 0, BuildingBlock: BETFAJ_clean_sbu_0, # of connection points: 6
#     Node 9, Type 0, BuildingBlock: BETFAJ_clean_sbu_0, # of connection points: 6
#     Node 10, Type 0, BuildingBlock: BETFAJ_clean_sbu_0, # of connection points: 6
#     Node 11, Type 0, BuildingBlock: BETFAJ_clean_sbu_0, # of connection points: 6
#     Node 12, Type 0, BuildingBlock: BETFAJ_clean_sbu_0, # of connection points: 6
#     Node 13, Type 0, BuildingBlock: BETFAJ_clean_sbu_0, # of connection points: 6
#     Node 14, Type 0, BuildingBlock: BETFAJ_clean_sbu_0, # of connection points: 6
#     Node 15, Type 0, BuildingBlock: BETFAJ_clean_sbu_0, # of connection points: 6
#     Edge 16, Type (0, 0), BuildingBlock: EZIPEK_clean_linker_0, # of connection points: 2
#     Edge 17, Type (0, 0), BuildingBlock: EZIPEK_clean_linker_0, # of connection points: 2
#     Edge 18, Type (0, 0), BuildingBlock: EZIPEK_clean_linker_0, # of connection points: 2
#     Edge 19, Type (0, 0), BuildingBlock: EZIPEK_clean_linker_0, # of connection points: 2
#     Edge 20, Type (0, 0), BuildingBlock: EZIPEK_clean_linker_0, # of connection points: 2
#     Edge 21, Type (0, 0), BuildingBlock: EZIPEK_clean_linker_0, # of connection points: 2
#     Edge 22, Type (0, 0), BuildingBlock: EZIPEK_clean_linker_0, # of connection points: 2
#     Edge 23, Type (0, 0), BuildingBlock: EZIPEK_clean_linker_0, # of connection points: 2
#     Edge 24, Type (0, 0), BuildingBlock: EZIPEK_clean_linker_0, # of connection points: 2
#     Edge 25, Type (0, 0), BuildingBlock: EZIPEK_clean_linker_0, # of connection points: 2
#     Edge 26, Type (0, 0), BuildingBlock: EZIPEK_clean_linker_0, # of connection points: 2
#     Edge 27, Type (0, 0), BuildingBlock: EZIPEK_clean_linker_0, # of connection points: 2
#     Edge 28, Type (0, 0), BuildingBlock: EZIPEK_clean_linker_0, # of connection points: 2
#     Edge 29, Type (0, 0), BuildingBlock: EZIPEK_clean_linker_0, # of connection points: 2
#     Edge 30, Type (0, 0), BuildingBlock: EZIPEK_clean_linker_0, # of connection points: 2
#     Edge 31, Type (0, 0), BuildingBlock: EZIPEK_clean_linker_0, # of connection points: 2
#     Edge 32, Type (0, 0), BuildingBlock: EZIPEK_clean_linker_0, # of connection points: 2
#     Edge 33, Type (0, 0), BuildingBlock: EZIPEK_clean_linker_0, # of connection points: 2
#     Edge 34, Type (0, 0), BuildingBlock: EZIPEK_clean_linker_0, # of connection points: 2
#     Edge 35, Type (0, 0), BuildingBlock: EZIPEK_clean_linker_0, # of connection points: 2
#     Edge 36, Type (0, 0), BuildingBlock: EZIPEK_clean_linker_0, # of connection points: 2
#     Edge 37, Type (0, 0), BuildingBlock: EZIPEK_clean_linker_0, # of connection points: 2
#     Edge 38, Type (0, 0), BuildingBlock: EZIPEK_clean_linker_0, # of connection points: 2
#     Edge 39, Type (0, 0), BuildingBlock: EZIPEK_clean_linker_0, # of connection points: 2
#     Edge 40, Type (0, 0), BuildingBlock: EZIPEK_clean_linker_0, # of connection points: 2
#     Edge 41, Type (0, 0), BuildingBlock: EZIPEK_clean_linker_0, # of connection points: 2
#     Edge 42, Type (0, 0), BuildingBlock: EZIPEK_clean_linker_0, # of connection points: 2
#     Edge 43, Type (0, 0), BuildingBlock: EZIPEK_clean_linker_0, # of connection points: 2
#     Edge 44, Type (0, 0), BuildingBlock: EZIPEK_clean_linker_0, # of connection points: 2
#     Edge 45, Type (0, 0), BuildingBlock: EZIPEK_clean_linker_0, # of connection points: 2
#     Edge 46, Type (0, 0), BuildingBlock: EZIPEK_clean_linker_0, # of connection points: 2
#     Edge 47, Type (0, 0), BuildingBlock: EZIPEK_clean_linker_0, # of connection points: 2
#     Edge 48, Type (0, 0), BuildingBlock: EZIPEK_clean_linker_0, # of connection points: 2
#     Edge 49, Type (0, 0), BuildingBlock: EZIPEK_clean_linker_0, # of connection points: 2
#     Edge 50, Type (0, 0), BuildingBlock: EZIPEK_clean_linker_0, # of connection points: 2
#     Edge 51, Type (0, 0), BuildingBlock: EZIPEK_clean_linker_0, # of connection points: 2
#     Edge 52, Type (0, 0), BuildingBlock: EZIPEK_clean_linker_0, # of connection points: 2
#     Edge 53, Type (0, 0), BuildingBlock: EZIPEK_clean_linker_0, # of connection points: 2
#     Edge 54, Type (0, 0), BuildingBlock: EZIPEK_clean_linker_0, # of connection points: 2
#     Edge 55, Type (0, 0), BuildingBlock: EZIPEK_clean_linker_0, # of connection points: 2
#     Edge 56, Type (0, 0), BuildingBlock: EZIPEK_clean_linker_0, # of connection points: 2
#     Edge 57, Type (0, 0), BuildingBlock: EZIPEK_clean_linker_0, # of connection points: 2
#     Edge 58, Type (0, 0), BuildingBlock: EZIPEK_clean_linker_0, # of connection points: 2
#     Edge 59, Type (0, 0), BuildingBlock: EZIPEK_clean_linker_0, # of connection points: 2
#     Edge 60, Type (0, 0), BuildingBlock: EZIPEK_clean_linker_0, # of connection points: 2
#     Edge 61, Type (0, 0), BuildingBlock: EZIPEK_clean_linker_0, # of connection points: 2
#     Edge 62, Type (0, 0), BuildingBlock: EZIPEK_clean_linker_0, # of connection points: 2
#     Edge 63, Type (0, 0), BuildingBlock: EZIPEK_clean_linker_0, # of connection points: 2
# Relax obj value: 0.407
# Max RMSD: 0.271
# Mean RMSD: 0.228
data_MOF--net-whw--node1-BETFAJ_clean_sbu_0--edge1-EZIPEK_clean_linker_0
_symmetry_space_group_name_H-M    P1
_symmetry_Int_Tables_number       1
_symmetry_cell_setting            triclinic
loop_
_symmetry_equiv_pos_as_xyz
'x, y, z'
_cell_length_a     33.68351
_cell_length_b     33.579479
_cell_length_c     27.5444
_cell_angle_alpha  89.551227
_cell_angle_beta   97.989367
_cell_angle_gamma 94.082622
loop_
_atom_site_label
_atom_site_type_symbol
_atom_site_fract_x
_atom_site_fract_y
_atom_site_fract_z
_atom_type_partial_charge
Sm0 Sm 0.05914 0.16752 0.15668 0.0
Sm1 Sm 0.99077 0.11508 0.16823 0.0
C2 C 0.1238 0.20391 0.12768 0.0
C3 C 0.14057 0.20121 0.0815 0.0
C4 C 0.11527 0.20237 1.03656 0.0
C5 C 0.128 0.18909 0.99401 0.0
C6 C 0.16609 0.17452 0.99578 0.0
C7 C 0.19279 0.17647 1.03964 0.0
C8 C 0.17998 0.1897 0.08247 0.0
C9 C 0.00408 0.19966 0.20812 0.0
C10 C 0.98469 0.16493 0.06248 0.0
C11 C 0.93419 0.06865 0.20194 0.0
C12 C 0.92221 0.06651 0.25114 0.0
C13 C 0.93474 0.09792 0.28429 0.0
C14 C 0.9272 0.09491 0.3326 0.0
C15 C 0.90697 0.06046 0.34854 0.0
C16 C 0.89391 0.02904 0.3155 0.0
C17 C 0.90164 0.03204 0.26687 0.0
C18 C 0.03339 0.08409 0.10126 0.0
C19 C 0.06068 0.141 0.27024 0.0
O20 O 0.12454 0.17096 0.15331 0.0
O21 O 0.08973 0.22079 0.12587 0.0
O22 O 0.99579 0.17993 0.16947 0.0
O23 O 0.04245 0.20815 0.21726 0.0
O24 O 0.02349 0.17367 0.07744 0.0
O25 O 0.9627 0.14544 0.09342 0.0
O26 O 0.92685 0.10159 0.17761 0.0
O27 O 0.97027 0.05742 0.19958 0.0
O28 O 0.0501 0.09975 0.14206 0.0
O29 O 0.99487 0.08324 0.0981 0.0
O30 O 0.02304 0.12768 0.25234 0.0
O31 O 0.08456 0.15138 0.23741 0.0
H32 H 0.08471 0.21097 1.03461 0.0
H33 H 0.10729 0.1881 0.96012 0.0
H34 H 0.22251 0.16575 1.04117 0.0
H35 H 0.19986 0.18846 0.11685 0.0
H36 H 0.95104 0.12456 0.27314 0.0
H37 H 0.93758 0.1193 0.35779 0.0
H38 H 0.87836 0.0022 0.32756 0.0
H39 H 0.8923 0.0073 0.2419 0.0
Sm40 Sm 0.18417 0.799 0.47286 0.0
Sm41 Sm 0.17324 0.71815 0.41957 0.0
C42 C 0.18674 0.86251 0.53011 0.0
C43 C 0.17125 0.87515 0.57471 0.0
C44 C 0.13056 0.86775 0.58036 0.0
C45 C 0.11683 0.87879 0.62356 0.0
C46 C 0.14352 0.89716 0.66194 0.0
C47 C 0.184 0.9053 0.65603 0.0
C48 C 0.19771 0.89452 0.61258 0.0
C49 C 0.24817 0.78206 0.42484 0.0
C50 C 0.18351 0.71617 0.53832 0.0
C51 C 0.17995 0.65221 0.37124 0.0
C52 C 0.165 0.64032 0.31994 0.0
C53 C 0.19116 0.64383 0.28428 0.0
C54 C 0.17645 0.63789 0.23474 0.0
C55 C 0.13544 0.62788 0.22009 0.0
C56 C 0.10942 0.62285 0.25556 0.0
C57 C 0.12405 0.62907 0.30513 0.0
C58 C 0.10103 0.74889 0.4296 0.0
C59 C 0.15861 0.79791 0.35474 0.0
O60 O 0.16067 0.85642 0.49047 0.0
O61 O 0.2139 0.83616 0.53596 0.0
O62 O 0.22744 0.75759 0.44787 0.0
O63 O 0.23927 0.81767 0.43408 0.0
O64 O 0.18236 0.75539 0.53768 0.0
O65 O 0.18347 0.69493 0.49828 0.0
O66 O 0.20806 0.68153 0.37664 0.0
O67 O 0.15302 0.65505 0.40094 0.0
O68 O 0.13172 0.75089 0.46225 0.0
O69 O 0.1083 0.73034 0.391 0.0
O70 O 0.16867 0.76087 0.3554 0.0
O71 O 0.15614 0.81746 0.39567 0.0
H72 H 0.1095 0.85275 0.55187 0.0
H73 H 0.0856 0.87178 0.62781 0.0
H74 H 0.20511 0.9189 0.68553 0.0
H75 H 0.22919 0.90056 0.60892 0.0
H76 H 0.22284 0.65236 0.29454 0.0
H77 H 0.19692 0.64162 0.20772 0.0
H78 H 0.0777 0.61487 0.24473 0.0
H79 H 0.10304 0.62608 0.33157 0.0
Sm80 Sm 0.48318 0.91006 0.71253 0.0
Sm81 Sm 0.52287 0.87469 0.61294 0.0
C82 C 0.46615 0.89593 0.80494 0.0
C83 C 0.45421 0.88579 0.85608 0.0
C84 C 0.41971 0.86034 0.86177 0.0
C85 C 0.41118 0.84642 0.90862 0.0
C86 C 0.43736 0.85594 0.95254 0.0
C87 C 0.47197 0.88138 0.94676 0.0
C88 C 0.47997 0.89614 0.89997 0.0
C89 C 0.49793 0.96162 0.63664 0.0
C90 C 0.58333 0.90389 0.71014 0.0
C91 C 0.54595 0.85365 0.52712 0.0
C92 C 0.55865 0.84006 0.47865 0.0
C93 C 0.57596 0.86686 0.44633 0.0
C94 C 0.58818 0.85355 0.40201 0.0
C95 C 0.58192 0.81306 0.38639 0.0
C96 C 0.56444 0.78645 0.4189 0.0
C97 C 0.5546 0.79941 0.46451 0.0
C98 C 0.50975 0.82838 0.69124 0.0
C99 C 0.42229 0.88336 0.61504 0.0
O100 O 0.4545 0.87228 0.76744 0.0
O101 O 0.48417 0.92995 0.79237 0.0
O102 O 0.51734 0.93218 0.65157 0.0
O103 O 0.4721 0.96901 0.66701 0.0
O104 O 0.55185 0.90702 0.7338 0.0
O105 O 0.58079 0.89715 0.66227 0.0
O106 O 0.54549 0.89117 0.54067 0.0
O107 O 0.53309 0.82812 0.55878 0.0
O108 O 0.48831 0.85439 0.67249 0.0
O109 O 0.5385 0.82213 0.66558 0.0
O110 O 0.45344 0.87838 0.59061 0.0
O111 O 0.42529 0.89321 0.66194 0.0
H112 H 0.39917 0.85068 0.82957 0.0
H113 H 0.38406 0.82742 0.91035 0.0
H114 H 0.49336 0.88967 0.97876 0.0
H115 H 0.50743 0.91457 0.89804 0.0
H116 H 0.58071 0.89827 0.45561 0.0
H117 H 0.60227 0.87533 0.37944 0.0
H118 H 0.55903 0.75509 0.40948 0.0
H119 H 0.54345 0.77725 0.48885 0.0
Sm120 Sm 0.35043 0.18752 0.90368 0.0
Sm121 Sm 0.35659 0.27006 0.85828 0.0
C122 C 0.35632 0.12363 0.96095 0.0
C123 C 0.37334 0.11388 1.01156 0.0
C124 C 0.3847 0.14402 0.04687 0.0
C125 C 0.40042 0.13423 0.09489 0.0
C126 C 0.40503 0.09419 0.10832 0.0
C127 C 0.39382 0.06408 0.07297 0.0
C128 C 0.37816 0.07389 1.0249 0.0
C129 C 0.28673 0.19932 0.83068 0.0
C130 C 0.34358 0.26824 0.97112 0.0
C131 C 0.35036 0.33206 0.79814 0.0
C132 C 0.3592 0.34036 0.74789 0.0
C133 C 0.38798 0.37126 0.74016 0.0
C134 C 0.40004 0.37693 0.69395 0.0
C135 C 0.38356 0.35169 0.6549 0.0
C136 C 0.35391 0.32159 0.66197 0.0
C137 C 0.34158 0.31618 0.70809 0.0
C138 C 0.42604 0.25299 0.91703 0.0
C139 C 0.3802 0.19284 0.7972 0.0
O140 O 0.38212 0.13402 0.93091 0.0
O141 O 0.32528 0.14545 0.95599 0.0
O142 O 0.30399 0.22544 0.86153 0.0
O143 O 0.29743 0.16479 0.84619 0.0
O144 O 0.35153 0.23036 0.96965 0.0
O145 O 0.33638 0.28919 0.93047 0.0
O146 O 0.32024 0.30632 0.80333 0.0
O147 O 0.38159 0.3276 0.83095 0.0
O148 O 0.40465 0.22818 0.8882 0.0
O149 O 0.41021 0.2872 0.91608 0.0
O150 O 0.37711 0.23169 0.79918 0.0
O151 O 0.37447 0.16892 0.83425 0.0
H152 H 0.38128 0.17506 1.03738 0.0
H153 H 0.40881 0.15786 0.12169 0.0
H154 H 0.397 0.03304 0.08271 0.0
H155 H 0.36957 0.05023 0.99818 0.0
H156 H 0.4019 0.39035 0.77023 0.0
H157 H 0.42295 0.40032 0.6889 0.0
H158 H 0.34083 0.30198 0.63204 0.0
H159 H 0.31894 0.29259 0.71276 0.0
Sm160 Sm 0.06255 0.90855 0.95174 0.0
Sm161 Sm 0.98555 0.90906 0.8847 0.0
C162 C 0.11877 0.92501 1.02685 0.0
C163 C 0.12022 0.9127 0.07787 0.0
C164 C 0.1451 0.93407 0.1152 0.0
C165 C 0.14772 0.92031 0.16347 0.0
C166 C 0.12552 0.88511 0.1741 0.0
C167 C 0.09873 0.86538 0.13722 0.0
C168 C 0.09603 0.87917 0.08933 0.0
C169 C 0.04202 0.83441 0.9106 0.0
C170 C 0.97586 0.88029 0.99276 0.0
C171 C 0.92453 0.90535 0.8118 0.0
C172 C 0.9128 0.88768 0.76226 0.0
C173 C 0.93865 0.89105 0.72625 0.0
C174 C 0.92666 0.87419 0.67966 0.0
C175 C 0.88877 0.85342 0.66828 0.0
C176 C 0.86295 0.85012 0.70419 0.0
C177 C 0.87481 0.86724 0.75065 0.0
C178 C 0.00774 0.97812 0.94201 0.0
C179 C 0.06992 0.91338 0.83802 0.0
O180 O 0.09089 0.94906 1.01195 0.0
O181 O 0.12059 0.89625 0.99569 0.0
O182 O 0.01715 0.85723 0.92393 0.0
O183 O 0.07856 0.85044 0.9196 0.0
O184 O 0.01404 0.89384 1.00349 0.0
O185 O 0.95858 0.877 0.94699 0.0
O186 O 0.92708 0.88064 0.8488 0.0
O187 O 0.95288 0.93434 0.81701 0.0
O188 O 0.02989 0.95905 0.91854 0.0
O189 O 0.9713 0.96237 0.93186 0.0
O190 O 0.03195 0.89962 0.83247 0.0
O191 O 0.08817 0.92651 0.88099 0.0
H192 H 0.16333 0.96044 0.1068 0.0
H193 H 0.16868 0.93556 0.19185 0.0
H194 H 0.08157 0.83812 0.14506 0.0
H195 H 0.07623 0.86277 0.0609 0.0
H196 H 0.96819 0.90646 0.73413 0.0
H197 H 0.94721 0.87676 0.65265 0.0
H198 H 0.8338 0.8339 0.69639 0.0
H199 H 0.85435 0.86427 0.77775 0.0
Sm200 Sm 0.42446 0.80333 0.27487 0.0
Sm201 Sm 0.42103 0.72002 0.24284 0.0
C202 C 0.41306 0.87175 0.31544 0.0
C203 C 0.39531 0.88191 0.35929 0.0
C204 C 0.35333 0.88305 0.35742 0.0
C205 C 0.33609 0.8841 0.40066 0.0
C206 C 0.36079 0.88479 0.44576 0.0
C207 C 0.40273 0.88733 0.44746 0.0
C208 C 0.4199 0.88609 0.40461 0.0
C209 C 0.49208 0.78451 0.23471 0.0
C210 C 0.45063 0.73317 0.36062 0.0
C211 C 0.41439 0.64892 0.20008 0.0
C212 C 0.41364 0.6342 0.15008 0.0
C213 C 0.42297 0.66058 0.11298 0.0
C214 C 0.41846 0.64767 0.06448 0.0
C215 C 0.40374 0.60842 0.05238 0.0
C216 C 0.39434 0.58187 0.08939 0.0
C217 C 0.39948 0.59472 0.13817 0.0
C218 C 0.35574 0.73798 0.28782 0.0
C219 C 0.41297 0.79282 0.1553 0.0
O220 O 0.38811 0.85511 0.27947 0.0
O221 O 0.44725 0.85478 0.32321 0.0
O222 O 0.47359 0.76338 0.26356 0.0
O223 O 0.477 0.81895 0.23132 0.0
O224 O 0.43316 0.76741 0.35073 0.0
O225 O 0.45606 0.71132 0.32217 0.0
O226 O 0.4485 0.66547 0.22183 0.0
O227 O 0.38376 0.66904 0.2063 0.0
O228 O 0.37101 0.75944 0.2561 0.0
O229 O 0.37651 0.70734 0.29764 0.0
O230 O 0.42179 0.75543 0.16684 0.0
O231 O 0.40503 0.81583 0.19116 0.0
H232 H 0.33375 0.88111 0.32278 0.0
H233 H 0.30375 0.88276 0.39915 0.0
H234 H 0.42221 0.88824 0.48233 0.0
H235 H 0.45231 0.88616 0.40727 0.0
H236 H 0.43327 0.69127 0.12143 0.0
H237 H 0.42576 0.66847 1.03623 0.0
H238 H 0.38275 0.55152 0.08039 0.0
H239 H 0.39146 0.57422 0.16637 0.0
Sm240 Sm 0.47307 0.09008 0.42334 0.0
Sm241 Sm 0.55289 0.0931 0.3919 0.0
C242 C 0.41115 0.07961 0.47249 0.0
C243 C 0.40762 0.09348 0.52171 0.0
C244 C 0.38887 0.06851 0.55408 0.0
C245 C 0.38814 0.08104 0.60218 0.0
C246 C 0.40623 0.11854 0.61782 0.0
C247 C 0.42591 0.14286 0.58592 0.0
C248 C 0.42686 0.13029 0.53827 0.0
C249 C 0.49178 0.1625 0.3801 0.0
C250 C 0.5527 0.12335 0.50021 0.0
C251 C 0.61802 0.09863 0.34736 0.0
C252 C 0.63181 0.11488 0.30215 0.0
C253 C 0.63024 0.1556 0.29036 0.0
C254 C 0.64243 0.17016 0.24675 0.0
C255 C 0.65706 0.14439 0.21467 0.0
C256 C 0.66 0.10399 0.22712 0.0
C257 C 0.64727 0.08932 0.27045 0.0
C258 C 0.5374 0.02697 0.45077 0.0
C259 C 0.47305 0.07466 0.31132 0.0
O260 O 0.43757 0.05347 0.47136 0.0
O261 O 0.4135 0.10713 0.43908 0.0
O262 O 0.51589 0.14369 0.40947 0.0
O263 O 0.45696 0.14286 0.37246 0.0
O264 O 0.51558 0.10675 0.49506 0.0
O265 O 0.57259 0.12824 0.46251 0.0
O266 O 0.6109 0.12429 0.38001 0.0
O267 O 0.59169 0.06785 0.34239 0.0
O268 O 0.51303 0.04055 0.41628 0.0
O269 O 0.57153 0.04701 0.45101 0.0
O270 O 0.50858 0.09439 0.3199 0.0
O271 O 0.45549 0.06024 0.34814 0.0
H272 H 0.37479 0.03957 0.54213 0.0
H273 H 0.37241 0.06228 0.62657 0.0
H274 H 0.43944 0.17208 0.59753 0.0
H275 H 0.44248 0.14945 0.51433 0.0
H276 H 0.61948 0.1762 0.31468 0.0
H277 H 0.64012 0.20146 0.23778 0.0
H278 H 0.67136 0.08374 0.20278 0.0
H279 H 0.64924 0.05792 0.27908 0.0
Sm280 Sm 0.11843 0.16884 0.60941 0.0
Sm281 Sm 0.12457 0.25364 0.57841 0.0
C282 C 0.12738 0.10036 0.65652 0.0
C283 C 0.13979 0.09228 0.70905 0.0
C284 C 0.18075 0.09348 0.7286 0.0
C285 C 0.19246 0.09869 0.77895 0.0
C286 C 0.16326 0.10234 0.80988 0.0
C287 C 0.12253 0.09542 0.79147 0.0
C288 C 0.1108 0.09022 0.74133 0.0
C289 C 0.04471 0.20037 0.58398 0.0
C290 C 0.1109 0.23993 0.69337 0.0
C291 C 0.12594 0.3258 0.53935 0.0
C292 C 0.13149 0.34244 0.49083 0.0
C293 C 0.1006 0.33828 0.45098 0.0
C294 C 0.1078 0.35076 0.40443 0.0
C295 C 0.14587 0.36746 0.39697 0.0
C296 C 0.17648 0.3727 0.43669 0.0
C297 C 0.16922 0.36057 0.48344 0.0
C298 C 0.19337 0.23365 0.63774 0.0
C299 C 0.10825 0.18205 0.48859 0.0
O300 O 0.15479 0.11727 0.63223 0.0
O301 O 0.09291 0.11618 0.64623 0.0
O302 O 0.07618 0.21703 0.60635 0.0
O303 O 0.05184 0.16431 0.57288 0.0
O304 O 0.12363 0.20399 0.68553 0.0
O305 O 0.10168 0.26314 0.65438 0.0
O306 O 0.09238 0.30452 0.54352 0.0
O307 O 0.15751 0.31033 0.56288 0.0
O308 O 0.17387 0.21074 0.60388 0.0
O309 O 0.17748 0.26742 0.63612 0.0
O310 O 0.11072 0.22063 0.50074 0.0
O311 O 0.11464 0.15535 0.52439 0.0
H312 H 0.20373 0.09357 0.70478 0.0
H313 H 0.22405 0.10311 0.79326 0.0
H314 H 0.09972 0.09735 0.81534 0.0
H315 H 0.07898 0.08808 0.7276 0.0
H316 H 0.0712 0.32465 0.45543 0.0
H317 H 0.08381 0.34686 0.37393 0.0
H318 H 0.20593 0.38568 0.43136 0.0
H319 H 0.19347 0.36443 0.51364 0.0
Sm320 Sm 0.91183 0.29116 0.76904 0.0
Sm321 Sm 0.90129 0.20632 0.73529 0.0
C322 C 0.90341 0.36185 0.80661 0.0
C323 C 0.88633 0.3767 0.8489 0.0
C324 C 0.91239 0.38993 0.89062 0.0
C325 C 0.89756 0.39473 0.93465 0.0
C326 C 0.85644 0.38686 0.9375 0.0
C327 C 0.82961 0.37883 0.89463 0.0
C328 C 0.84453 0.37379 0.85035 0.0
C329 C 0.97879 0.2648 0.73345 0.0
C330 C 0.9309 0.21881 0.85414 0.0
C331 C 0.889 0.1357 0.6912 0.0
C332 C 0.89359 0.11909 0.64346 0.0
C333 C 0.90149 0.1446 0.60491 0.0
C334 C 0.90299 0.12917 0.55846 0.0
C335 C 0.89662 0.08797 0.55006 0.0
C336 C 0.88942 0.06221 0.58872 0.0
C337 C 0.88787 0.07778 0.63533 0.0
C338 C 0.83827 0.2299 0.7804 0.0
C339 C 0.90506 0.28015 0.64917 0.0
O340 O 0.87789 0.34503 0.77126 0.0
O341 O 0.93609 0.34261 0.81684 0.0
O342 O 0.9562 0.24558 0.75946 0.0
O343 O 0.9685 0.30131 0.73106 0.0
O344 O 0.91923 0.25576 0.84492 0.0
O345 O 0.9318 0.19439 0.81626 0.0
O346 O 0.92199 0.14666 0.7202 0.0
O347 O 0.86158 0.16147 0.69011 0.0
O348 O 0.85555 0.25061 0.74952 0.0
O349 O 0.85517 0.19678 0.78789 0.0
O350 O 0.9091 0.24175 0.66068 0.0
O351 O 0.8985 0.30452 0.68448 0.0
H352 H 0.9446 0.39331 0.89029 0.0
H353 H 0.91877 0.40042 0.96764 0.0
H354 H 0.79783 0.37265 0.89631 0.0
H355 H 0.82359 0.36493 0.81825 0.0
H356 H 0.90652 0.17641 0.61082 0.0
H357 H 0.90881 0.14936 0.52897 0.0
H358 H 0.88443 0.03031 0.58257 0.0
H359 H 0.88156 0.05773 0.66474 0.0
Sm360 Sm 0.62484 0.67987 0.11029 0.0
Sm361 Sm 0.63983 0.76237 0.07602 0.0
C362 C 0.63054 0.60856 0.15132 0.0
C363 C 0.64947 0.59545 0.19891 0.0
C364 C 0.67224 0.6239 0.22972 0.0
C365 C 0.68432 0.61509 0.27848 0.0
C366 C 0.67277 0.5779 0.29727 0.0
C367 C 0.65261 0.548 0.26577 0.0
C368 C 0.64085 0.55688 0.21635 0.0
C369 C 0.55429 0.71599 0.08213 0.0
C370 C 0.62132 0.75448 0.1917 0.0
C371 C 0.64846 0.83348 1.0349 0.0
C372 C 0.65083 0.85091 0.98578 0.0
C373 C 0.61589 0.85975 0.95474 0.0
C374 C 0.61844 0.87442 0.90765 0.0
C375 C 0.65579 0.88005 0.89048 0.0
C376 C 0.69095 0.87376 0.92234 0.0
C377 C 0.68848 0.8592 0.9696 0.0
C378 C 0.70356 0.73927 0.14241 0.0
C379 C 0.61772 0.68924 0.98879 0.0
O380 O 0.65529 0.62344 0.12211 0.0
O381 O 0.6002 0.63039 0.15333 0.0
O382 O 0.5869 0.73189 0.10272 0.0
O383 O 0.55945 0.67924 0.07172 0.0
O384 O 0.62636 0.7157 0.18532 0.0
O385 O 0.61801 0.77738 0.15156 0.0
O386 O 0.6136 0.81756 0.04432 0.0
O387 O 0.6785 0.81274 0.05286 0.0
O388 O 0.68411 0.71655 0.1083 0.0
O389 O 0.69088 0.77446 0.13695 0.0
O390 O 0.62599 0.72795 0.99897 0.0
O391 O 0.61805 0.66374 1.0259 0.0
H392 H 0.67783 0.6539 0.21679 0.0
H393 H 0.69936 0.63856 0.30258 0.0
H394 H 0.64307 0.51932 0.2802 0.0
H395 H 0.62289 0.53473 0.19281 0.0
H396 H 0.58655 0.85489 0.96651 0.0
H397 H 0.59106 0.88086 0.88427 0.0
H398 H 0.72009 0.87909 0.91017 0.0
H399 H 0.71608 0.85381 0.99319 0.0
Sm400 Sm 0.67758 0.30344 0.97412 0.0
Sm401 Sm 0.66209 0.2255 0.91815 0.0
C402 C 0.68565 0.364 1.03698 0.0
C403 C 0.66894 0.37539 0.08092 0.0
C404 C 0.64366 0.34821 0.10337 0.0
C405 C 0.62773 0.35951 0.14502 0.0
C406 C 0.63674 0.39814 0.16448 0.0
C407 C 0.6619 0.42537 0.14191 0.0
C408 C 0.6779 0.41402 0.10028 0.0
C409 C 0.73765 0.28477 0.92014 0.0
C410 C 0.68355 0.21808 1.03195 0.0
C411 C 0.65941 0.16693 0.85408 0.0
C412 C 0.64501 0.16311 0.80161 0.0
C413 C 0.64522 0.19676 0.77096 0.0
C414 C 0.62993 0.19318 0.7214 0.0
C415 C 0.61417 0.15597 0.70213 0.0
C416 C 0.6137 0.12239 0.73273 0.0
C417 C 0.62902 0.12598 0.78234 0.0
C418 C 0.59686 0.24489 0.96291 0.0
C419 C 0.63975 0.31005 0.86239 0.0
O420 O 0.66078 0.36276 0.99609 0.0
O421 O 0.70859 0.33398 1.04162 0.0
O422 O 0.71841 0.26131 0.9458 0.0
O423 O 0.7288 0.32087 0.92759 0.0
O424 O 0.67096 0.25443 1.03257 0.0
O425 O 0.69215 0.20263 0.99128 0.0
O426 O 0.69129 0.19121 0.86628 0.0
O427 O 0.63155 0.17063 0.88193 0.0
O428 O 0.61947 0.26894 0.94172 0.0
O429 O 0.60836 0.20912 0.95911 0.0
O430 O 0.65114 0.27352 0.8581 0.0
O431 O 0.64071 0.32685 0.90553 0.0
H432 H 0.63633 0.31832 0.08874 0.0
H433 H 0.6085 0.33812 0.16222 0.0
H434 H 0.66927 0.4552 0.1567 0.0
H435 H 0.6973 0.43535 0.08324 0.0
H436 H 0.65727 0.22573 0.78522 0.0
H437 H 0.63069 0.21923 0.69799 0.0
H438 H 0.6018 0.09345 0.71805 0.0
H439 H 0.62836 0.09986 0.80565 0.0
Sm440 Sm 0.852 0.68938 0.4142 0.0
Sm441 Sm 0.85883 0.77521 0.36235 0.0
C442 C 0.85471 0.62873 0.47632 0.0
C443 C 0.87291 0.62056 0.52696 0.0
C444 C 0.9064 0.6441 0.54977 0.0
C445 C 0.92327 0.63583 0.5979 0.0
C446 C 0.90668 0.60415 0.62396 0.0
C447 C 0.87305 0.58085 0.60127 0.0
C448 C 0.85636 0.58896 0.55307 0.0
C449 C 0.79057 0.7017 0.3386 0.0
C450 C 0.85119 0.77461 0.47755 0.0
C451 C 0.84269 0.83055 0.29554 0.0
C452 C 0.85939 0.83954 0.24929 0.0
C453 C 0.84438 0.8178 0.2063 0.0
C454 C 0.86278 0.82288 0.1641 0.0
C455 C 0.89617 0.85017 0.16381 0.0
C456 C 0.91052 0.87298 0.20587 0.0
C457 C 0.89229 0.86768 0.24835 0.0
C458 C 0.93358 0.75976 0.41045 0.0
C459 C 0.88844 0.69581 0.31093 0.0
O460 O 0.87942 0.63439 0.44368 0.0
O461 O 0.82577 0.65323 0.47133 0.0
O462 O 0.80843 0.72801 0.36888 0.0
O463 O 0.79949 0.66697 0.3555 0.0
O464 O 0.85463 0.73558 0.47668 0.0
O465 O 0.84562 0.7963 0.43712 0.0
O466 O 0.82128 0.79657 0.29654 0.0
O467 O 0.86665 0.83803 0.33668 0.0
O468 O 0.90162 0.73703 0.40867 0.0
O469 O 0.92603 0.79194 0.38532 0.0
O470 O 0.88313 0.73432 0.30963 0.0
O471 O 0.88261 0.67258 0.34878 0.0
H472 H 0.9194 0.66888 0.53046 0.0
H473 H 0.94901 0.65432 0.615 0.0
H474 H 0.85974 0.55646 0.62093 0.0
H475 H 0.83044 0.57058 0.5362 0.0
H476 H 0.81888 0.79618 0.20543 0.0
H477 H 0.85106 0.80544 0.13167 0.0
H478 H 0.93599 0.89458 0.20588 0.0
H479 H 0.90441 0.88508 0.28066 0.0
Sm480 Sm 0.58165 0.65087 0.65699 0.0
Sm481 Sm 0.50123 0.62698 0.67184 0.0
C482 C 0.6543 0.65814 0.62968 0.0
C483 C 0.67342 0.64626 0.58751 0.0
C484 C 0.68581 0.60733 0.58434 0.0
C485 C 0.69406 0.59293 0.53975 0.0
C486 C 0.69077 0.6176 0.49842 0.0
C487 C 0.68465 0.65817 0.50345 0.0
C488 C 0.67577 0.67242 0.54779 0.0
C489 C 0.54971 0.70784 0.70746 0.0
C490 C 0.50719 0.6736 0.56722 0.0
C491 C 0.43575 0.59479 0.70468 0.0
C492 C 0.41958 0.59662 0.75138 0.0
C493 C 0.43769 0.62354 0.78792 0.0
C494 C 0.42704 0.62128 0.83485 0.0
C495 C 0.39878 0.59147 0.84647 0.0
C496 C 0.37956 0.56508 0.80991 0.0
C497 C 0.38989 0.56776 0.76237 0.0
C498 C 0.52799 0.57701 0.60621 0.0
C499 C 0.57199 0.6382 0.77373 0.0
O500 O 0.64223 0.62919 0.65741 0.0
O501 O 0.62837 0.68551 0.62159 0.0
O502 O 0.5312 0.68817 0.67165 0.0
O503 O 0.58761 0.70219 0.71276 0.0
O504 O 0.54606 0.66683 0.57875 0.0
O505 O 0.48251 0.66504 0.60055 0.0
O506 O 0.43544 0.62706 0.67769 0.0
O507 O 0.46956 0.57752 0.70756 0.0
O508 O 0.54907 0.58843 0.64668 0.0
O509 O 0.49416 0.59314 0.60059 0.0
O510 O 0.53319 0.63806 0.75525 0.0
O511 O 0.59718 0.63492 0.7412 0.0
H512 H 0.68569 0.58686 0.61492 0.0
H513 H 0.6992 0.56164 0.53644 0.0
H514 H 0.68261 0.67768 0.4718 0.0
H515 H 0.66777 0.70299 0.54975 0.0
H516 H 0.46167 0.64497 0.78145 0.0
H517 H 0.44239 0.64157 0.86289 0.0
H518 H 0.35785 0.5417 0.81863 0.0
H519 H 0.37611 0.54625 0.73489 0.0
Sm520 Sm 0.98735 0.39546 0.21309 0.0
Sm521 Sm 0.02645 0.35908 0.11392 0.0
C522 C 0.95716 0.38886 0.2998 0.0
C523 C 0.9524 0.36978 0.35031 0.0
C524 C 0.98262 0.37225 0.39175 0.0
C525 C 0.97536 0.35698 0.43874 0.0
C526 C 0.93738 0.33885 0.44703 0.0
C527 C 0.90752 0.33613 0.40537 0.0
C528 C 0.91485 0.351 0.35855 0.0
C529 C 0.00185 0.44672 0.13605 0.0
C530 C 0.0859 0.38736 0.2163 0.0
C531 C 0.06372 0.34606 1.03541 0.0
C532 C 0.06886 0.32954 0.98523 0.0
C533 C 0.05217 0.34688 0.94064 0.0
C534 C 0.05901 0.33219 0.89441 0.0
C535 C 0.08372 0.30028 0.8907 0.0
C536 C 0.10131 0.28387 0.93526 0.0
C537 C 0.09395 0.29805 0.98134 0.0
C538 C 0.99015 0.3097 0.17758 0.0
C539 C 0.93041 0.37218 0.10769 0.0
O540 O 0.94222 0.36918 0.25961 0.0
O541 O 0.9878 0.41395 0.29264 0.0
O542 O 0.02011 0.41679 0.15113 0.0
O543 O 0.97706 0.45482 0.16714 0.0
O544 O 0.0549 0.39401 0.23949 0.0
O545 O 0.08306 0.37682 0.16939 0.0
O546 O 0.04131 0.37616 1.03908 0.0
O547 O 0.0661 0.32303 0.07447 0.0
O548 O 0.01135 0.34094 0.18779 0.0
O549 O 0.99115 0.29964 0.13213 0.0
O550 O 0.96196 0.37208 0.08364 0.0
O551 O 0.93265 0.37496 0.15614 0.0
H552 H 0.01195 0.38642 0.38812 0.0
H553 H -0.00045 0.35991 0.46908 0.0
H554 H 0.87786 0.32286 0.40915 0.0
H555 H 0.89034 0.34853 0.32856 0.0
H556 H 0.03341 0.37169 0.94135 0.0
H557 H 0.04504 0.34601 0.86132 0.0
H558 H 0.12114 0.26003 0.93435 0.0
H559 H 0.10872 0.28478 1.01431 0.0
Sm560 Sm 0.54554 0.40048 0.44375 0.0
Sm561 Sm 0.47002 0.41194 0.37283 0.0
C562 C 0.60356 0.40156 0.51906 0.0
C563 C 0.60479 0.39404 0.57156 0.0
C564 C 0.57072 0.39833 0.5948 0.0
C565 C 0.57118 0.38788 0.64398 0.0
C566 C 0.60573 0.37314 0.67016 0.0
C567 C 0.63998 0.36964 0.64726 0.0
C568 C 0.63947 0.37996 0.59808 0.0
C569 C 0.51786 0.33347 0.38655 0.0
C570 C 0.45697 0.3834 0.48094 0.0
C571 C 0.41121 0.41229 0.29738 0.0
C572 C 0.39795 0.3917 0.24976 0.0
C573 C 0.39849 0.35004 0.24536 0.0
C574 C 0.38552 0.33108 0.20024 0.0
C575 C 0.37194 0.35331 0.15849 0.0
C576 C 0.37101 0.39487 0.1629 0.0
C577 C 0.38376 0.41386 0.20819 0.0
C578 C 0.49476 0.47616 0.43704 0.0
C579 C 0.55856 0.41805 0.33463 0.0
O580 O 0.58627 0.43347 0.50234 0.0
O581 O 0.59332 0.37042 0.49084 0.0
O582 O 0.49648 0.35639 0.40607 0.0
O583 O 0.55544 0.34496 0.39937 0.0
O584 O 0.49561 0.39368 0.49329 0.0
O585 O 0.44004 0.38221 0.43482 0.0
O586 O 0.40907 0.3911 0.33706 0.0
O587 O 0.44359 0.43664 0.30077 0.0
O588 O 0.51695 0.45562 0.41527 0.0
O589 O 0.45792 0.465 0.42012 0.0
O590 O 0.52029 0.40525 0.32443 0.0
O591 O 0.57463 0.42717 0.37978 0.0
H592 H 0.54367 0.40921 0.57485 0.0
H593 H 0.54461 0.39075 0.66142 0.0
H594 H 0.66684 0.35832 0.66731 0.0
H595 H 0.66585 0.37632 0.58053 0.0
H596 H 0.40933 0.33213 0.27665 0.0
H597 H 0.38709 0.29907 0.19752 0.0
H598 H 0.36128 0.41267 0.13107 0.0
H599 H 0.38293 0.44596 0.21066 0.0
Sm600 Sm 0.98483 0.58998 0.9386 0.0
Sm601 Sm 0.06298 0.58463 0.90254 0.0
C602 C 0.9234 0.58452 0.98864 0.0
C603 C 0.92143 0.59749 1.03845 0.0
C604 C 0.89944 0.57379 0.06887 0.0
C605 C 0.89941 0.58517 0.11743 0.0
C606 C 0.92119 0.62042 0.13534 0.0
C607 C 0.94477 0.64294 0.10567 0.0
C608 C 0.94514 0.63136 0.05748 0.0
C609 C 0.01403 0.66222 0.90202 0.0
C610 C 0.06859 0.6045 1.01668 0.0
C611 C 0.12572 0.58795 0.8539 0.0
C612 C 0.13652 0.60657 0.80876 0.0
C613 C 0.11431 0.63707 0.78604 0.0
C614 C 0.12458 0.65444 0.74284 0.0
C615 C 0.15701 0.64137 0.72179 0.0
C616 C 0.17925 0.61092 0.74456 0.0
C617 C 0.16908 0.59366 0.78794 0.0
C618 C 0.03877 0.51589 0.95131 0.0
C619 C 0.97986 0.5804 0.82486 0.0
O620 O 0.94721 0.55613 0.98629 0.0
O621 O 0.92809 0.61262 0.95646 0.0
O622 O 0.0344 0.63801 0.9285 0.0
O623 O 0.97661 0.64892 0.89625 0.0
O624 O 0.02936 0.59577 1.01057 0.0
O625 O 0.08914 0.60719 0.9793 0.0
O626 O 0.12216 0.61246 0.88944 0.0
O627 O 0.09724 0.5591 0.84827 0.0
O628 O 0.01617 0.53614 0.92127 0.0
O629 O 0.07538 0.53042 0.9517 0.0
O630 O 0.0175 0.59529 0.83317 0.0
O631 O 0.96165 0.56649 0.86137 0.0
H632 H 0.88201 0.54692 0.05492 0.0
H633 H 0.88076 0.56789 0.14012 0.0
H634 H 0.96146 0.67034 0.11921 0.0
H635 H 0.96346 0.64918 1.03489 0.0
H636 H 0.08897 0.64727 0.80159 0.0
H637 H 0.10696 0.67771 0.72544 0.0
H638 H 0.20414 0.60032 0.72848 0.0
H639 H 0.18641 0.57007 0.80505 0.0
C640 C 0.18282 0.17984 0.91104 0.0
C641 C 0.17625 0.15535 0.95152 0.0
C642 C 0.17407 0.09542 0.90087 0.0
C643 C 0.17414 0.12018 0.85912 0.0
N644 N 0.17605 0.18593 0.82274 0.0
N645 N 0.16335 0.09007 0.9859 0.0
C646 C 0.1785 0.16246 0.86372 0.0
C647 C 0.172 0.11309 0.94702 0.0
N648 N 0.19255 0.2198 0.91817 0.0
N649 N 0.17554 0.05509 0.89604 0.0
H650 H 0.16201 0.1018 1.02051 0.0
H651 H 0.15493 0.05965 0.98323 0.0
H652 H 0.17665 0.04152 0.86233 0.0
H653 H 0.17909 0.03558 0.92563 0.0
H654 H 0.19955 0.23939 0.89074 0.0
H655 H 0.19654 0.23302 0.95284 0.0
H656 H 0.17369 0.21663 0.82342 0.0
H657 H 0.17366 0.17456 0.78726 0.0
C658 C 0.1154 0.8422 0.29965 0.0
C659 C 0.14869 0.81787 0.30655 0.0
C660 C 0.16659 0.83866 0.22623 0.0
C661 C 0.13495 0.86453 0.22118 0.0
N662 N 0.08203 0.89532 0.25374 0.0
N663 N 0.19772 0.78345 0.26753 0.0
C664 C 0.1101 0.86754 0.25808 0.0
C665 C 0.17197 0.81324 0.26748 0.0
N666 N 0.08667 0.83807 0.33025 0.0
N667 N 0.19278 0.83945 0.1923 0.0
H668 H 0.20683 0.76523 0.29682 0.0
H669 H 0.20897 0.77468 0.23622 0.0
H670 H 0.189 0.85579 0.15987 0.0
H671 H 0.22025 0.82651 0.19803 0.0
H672 H 0.05992 0.85222 0.3249 0.0
H673 H 0.087 0.8165 0.35767 0.0
H674 H 0.06596 0.90233 0.28181 0.0
H675 H 0.07711 0.91387 0.22324 0.0
C676 C 0.35203 0.84043 0.51355 0.0
C677 C 0.34462 0.87782 0.49219 0.0
C678 C 0.36 0.90963 0.5719 0.0
C679 C 0.38183 0.87634 0.58723 0.0
N680 N 0.38692 0.80576 0.58344 0.0
N681 N 0.32881 0.94541 0.5011 0.0
C682 C 0.37278 0.83968 0.56201 0.0
C683 C 0.34279 0.91131 0.52204 0.0
N684 N 0.3439 0.80776 0.484 0.0
N685 N 0.35762 0.93963 0.60415 0.0
H686 H 0.31623 0.94601 0.46425 0.0
H687 H 0.33028 0.97252 0.51957 0.0
H688 H 0.37027 0.93796 0.64083 0.0
H689 H 0.34088 0.96425 0.59555 0.0
H690 H 0.34943 0.77867 0.49494 0.0
H691 H 0.34943 0.77867 0.49494 0.0
H692 H 0.38301 0.77767 0.56717 0.0
H693 H 0.4022 0.80622 0.61914 0.0
C694 C 0.42109 0.14997 0.75176 0.0
C695 C 0.38895 0.17539 0.751 0.0
C696 C 0.36679 0.15976 0.66438 0.0
C697 C 0.39948 0.13562 0.6647 0.0
N698 N 0.46117 0.11146 0.70488 0.0
N699 N 0.33707 0.21167 0.70302 0.0
C700 C 0.42763 0.13162 0.7074 0.0
C701 C 0.36374 0.18263 0.70627 0.0
N702 N 0.44574 0.14404 0.79462 0.0
N703 N 0.3378 0.15999 0.62423 0.0
H704 H 0.32956 0.22664 0.73281 0.0
H705 H 0.32336 0.22249 0.66976 0.0
H706 H 0.33905 0.14423 0.59207 0.0
H707 H 0.3107 0.17312 0.62401 0.0
H708 H 0.46635 0.12219 0.79924 0.0
H709 H 0.44505 0.16052 0.82638 0.0
H710 H 0.48526 0.11104 0.73291 0.0
H711 H 0.46607 0.09678 0.67321 0.0
C712 C 0.89766 0.88065 0.08085 0.0
C713 C 0.91517 0.85577 0.11852 0.0
C714 C 0.96856 0.84207 0.07 0.0
C715 C 0.95248 0.86884 1.03344 0.0
N716 N 0.89674 0.90694 0.99881 0.0
N717 N 0.96813 0.81469 0.15184 0.0
C718 C 0.9154 0.88592 1.0371 0.0
C719 C 0.95079 0.83685 0.1138 0.0
N720 N 0.86548 0.90139 0.08842 0.0
N721 N -0.00089 0.81958 0.0611 0.0
H722 H 0.95491 0.80855 0.1834 0.0
H723 H 0.99665 0.80425 0.1537 0.0
H724 H 0.01103 0.82084 1.0281 0.0
H725 H 0.01018 0.79692 0.08395 0.0
H726 H 0.85449 0.92424 0.06581 0.0
H727 H 0.85122 0.89801 0.11963 0.0
H728 H 0.86713 0.91458 0.99629 0.0
H729 H 0.90955 0.91526 0.96773 0.0
C730 C 0.96529 0.23102 0.94452 0.0
C731 C 0.943 0.20473 0.90825 0.0
C732 C 0.94723 0.15146 0.97322 0.0
C733 C 0.96686 0.17865 1.01017 0.0
N734 N 0.98558 0.24743 1.03109 0.0
N735 N 0.904 0.14165 0.89507 0.0
C736 C 0.97303 0.21932 0.99562 0.0
C737 C 0.93168 0.16541 0.92466 0.0
N738 N 0.98137 0.26684 0.93009 0.0
N739 N 0.94452 0.11165 0.9835 0.0
H740 H 0.89013 0.15093 0.86115 0.0
H741 H 0.89132 0.11461 0.90658 0.0
H742 H 0.95448 0.1003 1.01793 0.0
H743 H 0.93547 0.08979 0.95683 0.0
H744 H -0.00071 0.28638 0.95409 0.0
H745 H 0.98073 0.27524 0.89354 0.0
H746 H 0.98626 0.27804 1.02462 0.0
H747 H 0.99098 0.24029 0.06822 0.0
C748 C 0.563 0.16535 0.62841 0.0
C749 C 0.60037 0.15149 0.64912 0.0
C750 C 0.60881 0.1218 0.57087 0.0
C751 C 0.57183 0.13663 0.54956 0.0
N752 N 0.5206 0.18255 0.55398 0.0
N753 N 0.66361 0.12597 0.63794 0.0
C754 C 0.55092 0.16146 0.57716 0.0
C755 C 0.62479 0.13268 0.61963 0.0
N756 N 0.53847 0.18097 0.65783 0.0
N757 N 0.62788 0.09578 0.54578 0.0
H758 H 0.67643 0.13354 0.67365 0.0
H759 H 0.68425 0.11644 0.61646 0.0
H760 H 0.61878 0.08802 0.50936 0.0
H761 H 0.65148 0.07971 0.56221 0.0
H762 H 0.50906 0.18761 0.64536 0.0
H763 H 0.54641 0.18444 0.69562 0.0
H764 H 0.50681 0.20406 0.57148 0.0
H765 H 0.51225 0.18166 0.51605 0.0
C766 C 0.58426 0.81979 0.29247 0.0
C767 C 0.59402 0.7986 0.33714 0.0
C768 C 0.62547 0.74974 0.28829 0.0
C769 C 0.61636 0.7717 0.24344 0.0
N770 N 0.60607 0.83944 0.21524 0.0
N771 N 0.63624 0.74989 0.37767 0.0
C772 C 0.60127 0.81018 0.24902 0.0
C773 C 0.6177 0.7651 0.33491 0.0
N774 N 0.55795 0.84904 0.29073 0.0
N775 N 0.64409 0.71506 0.28777 0.0
H776 H 0.63449 0.76202 0.41194 0.0
H777 H 0.6572 0.72841 0.37914 0.0
H778 H 0.66148 0.70854 0.26096 0.0
H779 H 0.64381 0.6938 0.31553 0.0
H780 H 0.54867 0.86487 0.25906 0.0
H781 H 0.54177 0.85438 0.31934 0.0
H782 H 0.59794 0.86846 0.21942 0.0
H783 H 0.62471 0.83751 0.18844 0.0
C784 C 0.71093 0.56975 0.38016 0.0
C785 C 0.67385 0.5752 0.35074 0.0
C786 C 0.64575 0.59852 0.42152 0.0
C787 C 0.68481 0.59963 0.44896 0.0
N788 N 0.75457 0.58556 0.45641 0.0
N789 N 0.6057 0.59513 0.34167 0.0
C790 C 0.71735 0.58431 0.42918 0.0
C791 C 0.64084 0.58873 0.37119 0.0
N792 N 0.7399 0.55135 0.36046 0.0
N793 N 0.61328 0.60678 0.44361 0.0
H794 H 0.59993 0.58676 0.30488 0.0
H795 H 0.5829 0.6108 0.35272 0.0
H796 H 0.6154 0.61574 0.48004 0.0
H797 H 0.58365 0.60154 0.42713 0.0
H798 H 0.76691 0.54386 0.38028 0.0
H799 H 0.73527 0.54061 0.32449 0.0
H800 H 0.78036 0.57782 0.443 0.0
H801 H 0.76023 0.59637 0.49227 0.0
C802 C 0.59593 0.30881 0.78199 0.0
C803 C 0.62344 0.33086 0.81724 0.0
C804 C 0.62645 0.38627 0.75923 0.0
C805 C 0.60645 0.36065 0.72169 0.0
N806 N 0.57247 0.29704 0.69591 0.0
N807 N 0.66529 0.39157 0.83977 0.0
C808 C 0.59077 0.3219 0.73269 0.0
C809 C 0.63819 0.37029 0.80649 0.0
N810 N 0.57406 0.27592 0.79608 0.0
N811 N 0.63427 0.42581 0.74945 0.0
H812 H 0.67504 0.38167 0.87497 0.0
H813 H 0.68078 0.41808 0.83128 0.0
H814 H 0.62629 0.43816 0.71489 0.0
H815 H 0.64506 0.44698 0.77638 0.0
H816 H 0.55118 0.26049 0.77278 0.0
H817 H 0.57574 0.26677 0.83258 0.0
H818 H 0.56487 0.26686 0.70121 0.0
H819 H 0.56719 0.30593 0.65934 0.0
C820 C 0.88261 0.33412 0.04484 0.0
C821 C 0.89072 0.36729 0.0772 0.0
C822 C 0.84719 0.4069 1.02113 0.0
C823 C 0.84552 0.37619 0.98618 0.0
N824 N 0.84258 0.30573 0.97199 0.0
N825 N 0.86588 0.42696 0.1063 0.0
C826 C 0.85523 0.33764 1.00173 0.0
C827 C 0.86727 0.40073 0.06918 0.0
N828 N 0.90408 0.30116 0.05249 0.0
N829 N 0.83302 0.44273 1.00665 0.0
H830 H 0.88057 0.42255 0.1416 0.0
H831 H 0.84768 0.45091 0.10293 0.0
H832 H 0.81811 0.44666 0.97124 0.0
H833 H 0.83705 0.4681 1.0288 0.0
H834 H 0.90282 0.27817 1.02704 0.0
H835 H 0.92515 0.29808 0.08325 0.0
H836 H 0.8471 0.27633 0.98238 0.0
H837 H 0.82449 0.30909 0.93862 0.0
C838 C 0.93123 0.65256 0.26864 0.0
C839 C 0.89864 0.67764 0.2659 0.0
C840 C 0.88027 0.66255 0.17846 0.0
C841 C 0.9131 0.63832 0.18105 0.0
N842 N 0.9727 0.61283 0.225 0.0
N843 N 0.84753 0.71327 0.21487 0.0
C844 C 0.93942 0.63391 0.22522 0.0
C845 C 0.87489 0.68477 0.21993 0.0
N846 N 0.95488 0.64751 0.31246 0.0
N847 N 0.85324 0.66348 0.13644 0.0
H848 H 0.83698 0.72713 0.24352 0.0
H849 H 0.83578 0.72463 0.181 0.0
H850 H 0.8568 0.64957 0.10379 0.0
H851 H 0.82548 0.67563 0.13471 0.0
H852 H 0.97594 0.62619 0.31874 0.0
H853 H 0.95322 0.66467 0.34331 0.0
H854 H 0.9955 0.61141 0.25444 0.0
H855 H 0.97864 0.59792 0.19397 0.0
C856 C 0.3988 0.3904 0.52835 0.0
C857 C 0.43336 0.37064 0.52061 0.0
C858 C 0.43325 0.33612 0.5993 0.0
C859 C 0.39884 0.35589 0.6071 0.0
N860 N 0.3437 0.39499 0.57587 0.0
N861 N 0.47585 0.31639 0.54099 0.0
C862 C 0.37986 0.38074 0.57042 0.0
C863 C 0.4483 0.34096 0.55384 0.0
N864 N 0.38529 0.41982 0.49705 0.0
N865 N 0.45214 0.31352 0.63581 0.0
H866 H 0.48627 0.31808 0.50702 0.0
H867 H 0.48517 0.29175 0.56156 0.0
H868 H 0.44104 0.3078 0.66889 0.0
H869 H 0.48015 0.30256 0.63465 0.0
H870 H 0.36358 0.43874 0.50404 0.0
H871 H 0.39749 0.42731 0.46524 0.0
H872 H 0.32604 0.40957 0.54822 0.0
H873 H 0.32965 0.38949 0.60695 0.0
C874 C 0.49055 0.66485 0.47235 0.0
C875 C 0.49097 0.68889 0.51498 0.0
C876 C 0.46602 0.74341 0.45785 0.0
C877 C 0.4628 0.7181 0.41497 0.0
N878 N 0.45651 0.64837 0.39096 0.0
N879 N 0.47031 0.7492 0.54717 0.0
C880 C 0.47098 0.67711 0.42493 0.0
C881 C 0.47533 0.72727 0.50719 0.0
N882 N 0.50788 0.62924 0.47677 0.0
N883 N 0.46288 0.78362 0.45243 0.0
H884 H 0.47906 0.73996 0.58305 0.0
H885 H 0.45469 0.77495 0.54492 0.0
H886 H 0.46251 0.79848 0.41927 0.0
H887 H 0.46687 0.80368 0.48158 0.0
H888 H 0.51238 0.61249 0.44654 0.0
H889 H 0.52048 0.61795 0.51028 0.0
H890 H 0.45896 0.61797 0.39754 0.0
H891 H 0.43614 0.6538 0.36004 0.0
C892 C 0.09682 0.65275 0.14252 0.0
C893 C 0.11969 0.62292 0.16728 0.0
C894 C 0.11617 0.58571 0.09049 0.0
C895 C 0.0892 0.61287 0.06705 0.0
N896 N 0.05255 0.67178 0.07024 0.0
N897 N 0.14721 0.55862 0.16729 0.0
C898 C 0.07909 0.64626 0.093 0.0
C899 C 0.12846 0.5888 0.14187 0.0
N900 N 0.0934 0.68793 0.16582 0.0
N901 N 0.13038 0.55718 0.0637 0.0
H902 H 0.15612 0.55952 0.2051 0.0
H903 H 0.15123 0.53128 0.15187 0.0
H904 H 0.12201 0.55369 1.02616 0.0
H905 H 0.15327 0.53929 0.07769 0.0
H906 H 0.08081 0.71258 0.14837 0.0
H907 H 0.10614 0.69381 0.202 0.0
H908 H 0.03978 0.69346 0.08868 0.0
H909 H 0.04174 0.67019 1.03288 0.0
C910 C 0.11819 0.29477 0.76085 0.0
C911 C 0.10608 0.25441 0.7456 0.0
C912 C 0.07909 0.24444 0.82561 0.0
C913 C 0.09171 0.28439 0.84072 0.0
N914 N 0.13158 0.34439 0.82648 0.0
N915 N 0.0825 0.1887 0.77128 0.0
C916 C 0.11326 0.30867 0.80909 0.0
C917 C 0.08909 0.22867 0.78045 0.0
N918 N 0.13571 0.32013 0.72974 0.0
N919 N 0.05542 0.22178 0.85335 0.0
H920 H 0.08311 0.17566 0.73739 0.0
H921 H 0.07733 0.16787 0.79829 0.0
H922 H 0.0465 0.2322 0.88541 0.0
H923 H 0.04171 0.19383 0.84287 0.0
H924 H 0.13866 0.35101 0.73416 0.0
H925 H 0.14687 0.31058 0.6988 0.0
H926 H 0.15185 0.36174 0.80853 0.0
H927 H 0.12952 0.3552 0.86136 0.0
C928 C 0.99194 0.27887 0.25996 0.0
C929 C 0.96943 0.28704 0.2137 0.0
C930 C 0.93808 0.2203 0.21217 0.0
C931 C 0.9743 0.21051 0.23953 0.0
N932 N 0.00836 0.22613 0.31963 0.0
N933 N 0.90492 0.27317 0.16535 0.0
C934 C 0.99088 0.23856 0.27522 0.0
C935 C 0.93642 0.26024 0.19609 0.0
N936 N 0.01593 0.30782 0.28594 0.0
N937 N 0.90753 0.19184 0.20124 0.0
H938 H 0.90292 0.30352 0.15824 0.0
H939 H 0.88097 0.25441 0.14887 0.0
H940 H 0.9099 0.16325 0.21576 0.0
H941 H 0.87991 0.1973 0.18119 0.0
H942 H 0.03577 0.30201 0.31725 0.0
H943 H 0.01507 0.3377 0.27606 0.0
H944 H 0.02087 0.24561 0.3478 0.0
H945 H 0.00737 0.19575 0.32818 0.0
C946 C 0.00093 0.78735 0.44996 0.0
C947 C 0.97504 0.7532 0.43526 0.0
C948 C 0.03337 0.71346 0.43662 0.0
C949 C 0.05894 0.74939 0.44072 0.0
N950 N 0.06763 0.82034 0.45454 0.0
N951 N 0.96642 0.6819 0.43914 0.0
C952 C 0.04301 0.78615 0.44975 0.0
C953 C 0.99114 0.71546 0.43609 0.0
N954 N 0.98498 0.82046 0.46559 0.0
N955 N 0.04933 0.67765 0.43172 0.0
H956 H 0.9365 0.68355 0.44359 0.0
H957 H 0.97613 0.65319 0.44327 0.0
H958 H 0.08018 0.67448 0.4363 0.0
H959 H 0.03221 0.6512 0.42183 0.0
H960 H 0.00217 0.84546 0.48074 0.0
H961 H 0.95442 0.82088 0.46848 0.0
H962 H 0.05742 0.84885 0.4552 0.0
H963 H 0.09848 0.82015 0.45483 0.0
C964 C 0.55442 0.76528 0.76634 0.0
C965 C 0.53077 0.7357 0.7368 0.0
C966 C 0.47423 0.77718 0.72886 0.0
C967 C 0.50325 0.809 0.73718 0.0
N968 N 0.55553 0.83236 0.79959 0.0
N969 N 0.46365 0.70614 0.71484 0.0
C970 C 0.53837 0.80268 0.76882 0.0
C971 C 0.4886 0.73895 0.72703 0.0
N972 N 0.5911 0.75785 0.79053 0.0
N973 N 0.43501 0.78464 0.71536 0.0
H974 H 0.47545 0.67852 0.71734 0.0
H975 H 0.43258 0.70601 0.70622 0.0
H976 H 0.42612 0.81381 0.71379 0.0
H977 H 0.41185 0.76266 0.70639 0.0
H978 H 0.61061 0.77931 0.81004 0.0
H979 H 0.60087 0.72925 0.7925 0.0
H980 H 0.58069 0.82902 0.82534 0.0
H981 H 0.54181 0.85911 0.80135 0.0
C982 C 0.5273 0.21967 0.97983 0.0
C983 C 0.55352 0.25117 0.96506 0.0
C984 C 0.4969 0.2819 0.91881 0.0
C985 C 0.47002 0.25052 0.93228 0.0
N986 N 0.45857 0.19189 0.98082 0.0
N987 N 0.55901 0.32089 0.94449 0.0
C988 C 0.48493 0.21992 0.96439 0.0
C989 C 0.53699 0.28512 0.94221 0.0
N990 N 0.54304 0.19036 1.00965 0.0
N991 N 0.48513 0.30727 0.88139 0.0
H992 H 0.58663 0.32499 0.96684 0.0
H993 H 0.54722 0.3472 0.93056 0.0
H994 H 0.45729 0.30361 0.85949 0.0
H995 H 0.50505 0.3285 0.8681 0.0
H996 H 0.52722 0.16396 1.01768 0.0
H997 H 0.57251 0.19322 1.02754 0.0
H998 H 0.46656 0.17021 1.00678 0.0
H999 H 0.42771 0.1915 0.96988 0.0
C1000 C 0.0576 0.76561 0.93972 0.0
C1001 C 0.03416 0.79021 0.90673 0.0
C1002 C 0.0018 0.72999 0.86331 0.0
C1003 C 0.02625 0.7058 0.89622 0.0
N1004 N 0.0901 0.70394 0.94819 0.0
N1005 N 0.98712 0.79664 0.8333 0.0
C1006 C 0.05805 0.7245 0.92914 0.0
C1007 C 0.00696 0.77262 0.8674 0.0
N1008 N 0.07828 0.78096 0.98246 0.0
N1009 N 0.97447 0.7121 0.82734 0.0
H1010 H 0.9895 0.82768 0.83609 0.0
H1011 H 0.96981 0.78632 0.80105 0.0
H1012 H 0.97472 0.68205 0.8182 0.0
H1013 H 0.95191 0.72678 0.80631 0.0
H1014 H 0.09272 0.76313 1.00961 0.0
H1015 H 0.07686 0.8104 0.99346 0.0
H1016 H 0.11503 0.71724 0.9704 0.0
H1017 H 0.09497 0.67602 0.93498 0.0
C1018 C 0.51732 0.7046 0.15134 0.0
C1019 C 0.52058 0.726 0.10744 0.0
C1020 C 0.51201 0.78831 0.14891 0.0
C1021 C 0.50975 0.76689 0.19348 0.0
N1022 N 0.52755 0.70824 0.2399 0.0
N1023 N 0.51169 0.78531 0.06046 0.0
C1024 C 0.51717 0.72589 0.19554 0.0
C1025 C 0.51361 0.76687 0.10498 0.0
N1026 N 0.51524 0.66388 0.15065 0.0
N1027 N 0.51699 0.82901 0.14945 0.0
H1028 H 0.51351 0.76926 1.02857 0.0
H1029 H 0.50526 0.81493 0.05447 0.0
H1030 H 0.5218 0.84557 0.18168 0.0
H1031 H 0.52169 0.84628 0.11899 0.0
H1032 H 0.51165 0.64628 0.18124 0.0
H1033 H 0.51195 0.64787 0.11787 0.0
H1034 H 0.53702 0.67937 0.24363 0.0
H1035 H 0.5318 0.72431 0.27271 0.0
C1036 C 0.46986 0.23043 0.39767 0.0
C1037 C 0.49581 0.20675 0.37564 0.0
C1038 C 0.53053 0.26797 0.3481 0.0
C1039 C 0.50486 0.29118 0.37138 0.0
N1040 N 0.43784 0.29252 0.39252 0.0
N1041 N 0.54393 0.20262 0.31926 0.0
C1042 C 0.4706 0.27191 0.38814 0.0
C1043 C 0.52418 0.22542 0.34761 0.0
N1044 N 0.44572 0.214 0.42956 0.0
N1045 N 0.56061 0.28666 0.32605 0.0
H1046 H 0.54038 0.1715 0.31877 0.0
H1047 H 0.56118 0.21451 0.29338 0.0
H1048 H 0.56223 0.31735 0.31956 0.0
H1049 H 0.5838 0.27193 0.31443 0.0
H1050 H 0.42929 0.23118 0.44985 0.0
H1051 H 0.44558 0.18414 0.43991 0.0
H1052 H 0.41127 0.27899 0.40229 0.0
H1053 H 0.43497 0.32112 0.37822 0.0
C1054 C -0.00118 0.18578 0.64354 0.0
C1055 C 0.00831 0.21001 0.60411 0.0
C1056 C 0.00469 0.26991 0.65196 0.0
C1057 C 0.99586 0.24609 0.69249 0.0
N1058 N 0.99803 0.18145 0.73109 0.0
N1059 N 0.00638 0.27313 0.56413 0.0
C1060 C 0.99617 0.20385 0.68941 0.0
C1061 C 0.0047 0.25143 0.60591 0.0
N1062 N 0.99347 0.14544 0.637 0.0
N1063 N 0.01784 0.30912 0.6588 0.0
H1064 H 0.00786 0.25915 0.5307 0.0
H1065 H 0.00321 0.30374 0.56211 0.0
H1066 H 0.02479 0.32188 0.69362 0.0
H1067 H 0.02746 0.32721 0.63121 0.0
H1068 H 0.98462 0.12562 0.66337 0.0
H1069 H 0.99335 0.13251 0.60263 0.0
H1070 H 0.00272 0.15112 0.73208 0.0
H1071 H -1e-05 0.19404 0.76581 0.0
C1072 C 0.05679 0.06772 1.02194 0.0
C1073 C 0.0495 0.05516 0.0694 0.0
C1074 C 0.01514 0.99373 1.03427 0.0
C1075 C 0.02291 0.0048 0.98603 0.0
N1076 N 0.05974 0.05015 0.93696 0.0
N1077 N 0.03784 -0.00022 0.1216 0.0
C1078 C 0.04721 0.0408 0.98097 0.0
C1079 C 0.03557 0.0153 0.07551 0.0
N1080 N 0.0704 0.10632 1.01572 0.0
N1081 N 0.98546 0.96558 1.04133 0.0
H1082 H 0.05141 0.01641 0.15214 0.0
H1083 H 0.03013 0.96978 0.12822 0.0
H1084 H 0.96467 0.95429 1.01279 0.0
H1085 H 0.9775 0.95847 0.07578 0.0
H1086 H 0.0715 0.11937 0.98147 0.0
H1087 H 0.07902 0.12531 0.04573 0.0
H1088 H 0.08013 0.07422 0.93229 0.0
H1089 H 0.05164 0.0324 0.90578 0.0
C1090 C 0.29354 0.73519 0.39215 0.0
C1091 C 0.27453 0.77164 0.38737 0.0
C1092 C 0.30339 0.78443 0.3097 0.0
C1093 C 0.32207 0.74774 0.3158 0.0
N1094 N 0.31416 0.68081 0.34768 0.0
N1095 N 0.25835 0.83005 0.33741 0.0
C1096 C 0.31103 0.72087 0.35246 0.0
C1097 C 0.279 0.79638 0.34524 0.0
N1098 N 0.29687 0.71465 0.43539 0.0
N1099 N 0.30569 0.80572 0.26752 0.0
H1100 H 0.23541 0.8373 0.3564 0.0
H1101 H 0.26163 0.85074 0.30984 0.0
H1102 H 0.31456 0.79347 0.2365 0.0
H1103 H 0.29611 0.83418 0.26074 0.0
H1104 H 0.31362 0.68967 0.44124 0.0
H1105 H 0.28775 0.72524 0.46722 0.0
H1106 H 0.30364 0.6599 0.37194 0.0
H1107 H 0.3207 0.66813 0.31554 0.0
C1108 C 0.55683 0.00224 0.5377 0.0
C1109 C 0.527 0.00447 0.49594 0.0
C1110 C 0.47568 0.981 0.54761 0.0
C1111 C 0.50517 0.98296 0.58998 0.0
N1112 N 0.57203 0.00497 0.62611 0.0
N1113 N 0.46178 0.97884 0.45835 0.0
C1114 C 0.5452 -0.00364 0.58505 0.0
C1115 C 0.48732 0.98895 0.50003 0.0
N1116 N 0.59636 0.00145 0.53182 0.0
N1117 N 0.43638 0.9729 0.55311 0.0
H1118 H 0.47102 0.98024 0.42375 0.0
H1119 H 0.43277 0.96599 0.45816 0.0
H1120 H 0.42743 0.96899 0.58756 0.0
H1121 H 0.41272 0.97447 0.52472 0.0
H1122 H 0.61901 -0.00317 0.56072 0.0
H1123 H 0.60564 -0.00116 0.49749 0.0
H1124 H 0.60065 0.01868 0.62498 0.0
H1125 H 0.5637 0.00288 0.66118 0.0
C1126 C 0.25988 0.17801 0.73993 0.0
C1127 C 0.26346 0.20645 0.77991 0.0
C1128 C 0.23362 0.2541 0.71977 0.0
C1129 C 0.22268 0.22394 0.68302 0.0
N1130 N 0.23614 0.15787 0.65771 0.0
N1131 N 0.24053 0.26862 0.80591 0.0
C1132 C 0.23786 0.18606 0.69325 0.0
C1133 C 0.24622 0.24344 0.76925 0.0
N1134 N 0.27905 0.14352 0.74248 0.0
N1135 N 0.23586 0.29355 0.70721 0.0
H1136 H 0.24723 0.26196 0.84293 0.0
H1137 H 0.22469 0.29416 0.79909 0.0
H1138 H 0.2351 0.30301 0.67097 0.0
H1139 H 0.24576 0.31617 0.73272 0.0
H1140 H 0.29946 0.13455 0.77162 0.0
H1141 H 0.29946 0.13455 0.77162 0.0
H1142 H 0.22472 0.16216 0.62104 0.0
H1143 H 0.22472 0.16216 0.62104 0.0
C1144 C 0.76362 0.292 0.83614 0.0
C1145 C 0.76199 0.27159 0.8819 0.0
C1146 C 0.79751 0.2183 0.85048 0.0
C1147 C 0.80674 0.24231 0.81013 0.0
N1148 N 0.78903 0.29885 0.75872 0.0
N1149 N 0.78816 0.21902 0.93535 0.0
C1150 C 0.78756 0.27849 0.80165 0.0
C1151 C 0.78213 0.23589 0.88985 0.0
N1152 N 0.74161 0.32364 0.82254 0.0
N1153 N 0.79993 0.17788 0.8499 0.0
H1154 H 0.78054 0.23214 0.96662 0.0
H1155 H 0.8057 0.19475 0.94292 0.0
H1156 H 0.80326 0.16229 0.81835 0.0
H1157 H 0.79119 0.15935 0.87767 0.0
H1158 H 0.72121 0.33517 0.84272 0.0
H1159 H 0.72121 0.33517 0.84272 0.0
H1160 H 0.77625 0.32611 0.75177 0.0
H1161 H 0.80039 0.28751 0.72884 0.0
C1162 C 0.76657 0.68194 0.24682 0.0
C1163 C 0.76733 0.70862 0.28791 0.0
C1164 C 0.73603 0.75686 0.23002 0.0
C1165 C 0.72952 0.7286 0.19033 0.0
N1166 N 0.74656 0.66404 0.16312 0.0
N1167 N 0.73733 0.76531 0.31712 0.0
C1168 C 0.74635 0.69118 0.19949 0.0
C1169 C 0.74694 0.74387 0.27902 0.0
N1170 N 0.78614 0.6477 0.24961 0.0
N1171 N 0.73626 0.797 0.22145 0.0
H1172 H 0.74256 0.75584 0.35344 0.0
H1173 H 0.7196 0.78963 0.31161 0.0
H1174 H 0.73905 0.80939 0.18723 0.0
H1175 H 0.74225 0.81808 0.24961 0.0
H1176 H 0.80455 0.63792 0.28019 0.0
H1177 H 0.80455 0.63792 0.28019 0.0
H1178 H 0.73547 0.66866 0.12643 0.0
H1179 H 0.73547 0.66866 0.12643 0.0
C1180 C 0.49491 0.51556 0.56735 0.0
C1181 C 0.53062 0.54031 0.57624 0.0
C1182 C 0.54774 0.51811 0.4967 0.0
C1183 C 0.50753 0.50046 0.48389 0.0
N1184 N 0.43951 0.49871 0.50545 0.0
N1185 N 0.59477 0.56025 0.55407 0.0
C1186 C 0.48015 0.50313 0.51885 0.0
C1187 C 0.55852 0.53952 0.5425 0.0
N1188 N 0.47334 0.5068 0.60493 0.0
N1189 N 0.57465 0.51683 0.46404 0.0
H1190 H 0.60254 0.57506 0.58757 0.0
H1191 H 0.61719 0.56179 0.53182 0.0
H1192 H 0.56642 0.50825 0.42761 0.0
H1193 H 0.60527 0.52445 0.47259 0.0
H1194 H 0.44807 0.48662 0.60121 0.0
H1195 H 0.48374 0.51658 0.64066 0.0
H1196 H 0.41919 0.50227 0.53015 0.0
H1197 H 0.42576 0.49955 0.46935 0.0
C1198 C 0.05751 0.47813 1.02983 0.0
C1199 C 0.02688 0.49071 0.99362 0.0
C1200 C 0.97743 0.47423 0.05033 0.0
C1201 C 0.00918 0.46725 0.08875 0.0
N1202 N 0.08047 0.47115 0.11615 0.0
N1203 N 0.95702 0.48077 0.96215 0.0
C1204 C 0.04947 0.47154 0.07858 0.0
C1205 C 0.98643 0.483 1.00166 0.0
N1206 N 0.09344 0.46899 1.01672 0.0
N1207 N 0.93897 0.47382 0.06048 0.0
H1208 H 0.96361 0.48314 0.92629 0.0
H1209 H 0.92682 0.47343 0.96446 0.0
H1210 H 0.93184 0.46932 0.0957 0.0
H1211 H 0.91494 0.48195 1.03535 0.0
H1212 H 0.11572 0.45631 1.04076 0.0
H1213 H 0.0984 0.46832 0.98019 0.0
H1214 H 0.11048 0.47672 0.11134 0.0
H1215 H 0.07578 0.47001 0.15275 0.0
C1216 C 0.0595 0.12604 0.36473 0.0
C1217 C 0.07461 0.14987 0.32683 0.0
C1218 C 0.11673 0.18951 0.39588 0.0
C1219 C 0.09769 0.16919 0.4331 0.0
N1220 N 0.04383 0.12165 0.44862 0.0
N1221 N 0.11246 0.21236 0.3121 0.0
C1222 C 0.06723 0.13835 0.41615 0.0
C1223 C 0.10191 0.18361 0.34414 0.0
N1224 N 0.03891 0.09026 0.35237 0.0
N1225 N 0.1506 0.21391 0.40955 0.0
H1226 H 0.10367 0.21144 0.27461 0.0
H1227 H 0.12669 0.23986 0.32374 0.0
H1228 H 0.16333 0.21817 0.44602 0.0
H1229 H 0.16861 0.22613 0.38454 0.0
H1230 H 0.03072 0.06965 0.37829 0.0
H1231 H 0.03422 0.07906 0.31672 0.0
H1232 H 0.01816 0.1029 0.43791 0.0
H1233 H 0.04759 0.12968 0.48547 0.0
C1234 C 0.12303 0.9412 0.72719 0.0
C1235 C 0.12975 0.90274 0.71029 0.0
C1236 C 0.0984 0.87163 0.77727 0.0
C1237 C 0.09293 0.91004 0.79589 0.0
N1238 N 0.10631 0.98154 0.79334 0.0
N1239 N 0.13468 0.83263 0.727 0.0
C1240 C 0.10757 0.94492 0.77256 0.0
C1241 C 0.12083 0.86839 0.73784 0.0
N1242 N 0.12962 0.97391 0.69879 0.0
N1243 N 0.08131 0.83795 0.79612 0.0
H1244 H 0.15169 0.82912 0.69862 0.0
H1245 H 0.13295 0.80746 0.74918 0.0
H1246 H 0.0657 0.8383 0.82586 0.0
H1247 H 0.07982 0.80992 0.77973 0.0
H1248 H 0.12102 0.00216 0.70614 0.0
H1249 H 0.14131 0.97226 0.66578 0.0
H1250 H 0.12078 0.00741 0.78128 0.0
H1251 H 0.09327 0.98572 0.82493 0.0
C1252 C 0.40885 0.78485 0.05989 0.0
C1253 C 0.41598 0.81007 0.10248 0.0
C1254 C 0.4284 0.86636 0.04418 0.0
C1255 C 0.42863 0.83994 1.00388 0.0
N1256 N 0.42607 0.77092 0.97909 0.0
N1257 N 0.44143 0.8766 0.13189 0.0
C1258 C 0.42059 0.79834 1.01341 0.0
C1259 C 0.42794 0.85133 0.0936 0.0
N1260 N 0.38874 0.74835 0.06253 0.0
N1261 N 0.42714 0.90637 1.03543 0.0
H1262 H 0.44475 0.86813 0.1684 0.0
H1263 H 0.45448 0.90519 0.12709 0.0
H1264 H 0.42582 0.91851 1.00033 0.0
H1265 H 0.42254 0.92677 0.06208 0.0
H1266 H 0.37959 0.7302 1.03191 0.0
H1267 H 0.37652 0.73861 0.09365 0.0
H1268 H 0.4248 0.7403 0.98591 0.0
H1269 H 0.43641 0.77885 0.94616 0.0
C1270 C 0.41264 0.08554 0.24718 0.0
C1271 C 0.45219 0.07256 0.2597 0.0
C1272 C 0.46041 0.07248 0.17233 0.0
C1273 C 0.42055 0.08396 0.15995 0.0
N1274 N 0.35542 0.09116 0.18411 0.0
N1275 N 0.50876 0.04308 0.23311 0.0
C1276 C 0.39562 0.08711 0.19696 0.0
C1277 C 0.47451 0.06273 0.22183 0.0
N1278 N 0.39206 0.09897 0.28248 0.0
N1279 N 0.48539 0.07243 0.13724 0.0
H1280 H 0.51905 0.03406 0.26871 0.0
H1281 H 0.52443 0.03195 0.20673 0.0
H1282 H 0.47613 0.07915 0.10055 0.0
H1283 H 0.51608 0.06888 0.1452 0.0
H1284 H 0.36574 0.11368 0.27444 0.0
H1285 H 0.40236 0.0985 0.31977 0.0
H1286 H 0.3349 0.08918 0.2092 0.0
H1287 H 0.34194 0.09263 0.14772 0.0
C1288 C 0.89374 0.78511 0.56008 0.0
C1289 C 0.85965 0.79497 0.5265 0.0
C1290 C 0.8462 0.84599 0.5847 0.0
C1291 C 0.87749 0.83278 0.61988 0.0
N1292 N 0.924 0.78265 0.64483 0.0
N1293 N 0.79892 0.82982 0.51154 0.0
C1294 C 0.89903 0.80012 0.60871 0.0
C1295 C 0.83459 0.82412 0.54007 0.0
N1296 N 0.92266 0.7634 0.54509 0.0
N1297 N 0.82837 0.88006 0.59318 0.0
H1298 H 0.78879 0.81349 0.47962 0.0
H1299 H 0.77763 0.84781 0.52203 0.0
H1300 H 0.83614 0.89686 0.62522 0.0
H1301 H 0.80842 0.89346 0.56677 0.0
H1302 H 0.94986 0.75908 0.56691 0.0
H1303 H 0.92198 0.7537 0.50924 0.0
H1304 H 0.93702 0.75603 0.63963 0.0
H1305 H 0.92833 0.79229 0.68121 0.0
C1306 C 0.9323 0.05907 0.48602 0.0
C1307 C 0.89652 0.07245 0.49995 0.0
C1308 C 0.86451 0.07068 0.41451 0.0
C1309 C 0.90052 0.05795 0.40053 0.0
N1310 N 0.96455 0.03031 0.42237 0.0
N1311 N 0.82587 0.08201 0.48059 0.0
C1312 C 0.93306 0.04882 0.43627 0.0
C1313 C 0.86163 0.07516 0.4651 0.0
N1314 N 0.966 0.05806 0.51986 0.0
N1315 N 0.83394 0.08035 0.37935 0.0
H1316 H 0.82298 0.08577 0.51747 0.0
H1317 H 0.79852 0.08065 0.45762 0.0
H1318 H 0.83453 0.07612 0.34198 0.0
H1319 H 0.80894 0.09449 0.38682 0.0
H1320 H 0.99432 0.05333 0.51089 0.0
H1321 H 0.96618 0.06429 0.55694 0.0
H1322 H 0.98765 0.01967 0.44703 0.0
H1323 H 0.96575 0.0225 0.38603 0.0
C1324 C 0.70706 0.20682 0.12105 0.0
C1325 C 0.68329 0.19342 0.07681 0.0
C1326 C 0.64318 0.14718 0.12287 0.0
C1327 C 0.66766 0.15956 0.16699 0.0
N1328 N 0.7283 0.19417 0.20734 0.0
N1329 N 0.6371 0.14215 1.0348 0.0
C1330 C 0.70135 0.18728 0.16586 0.0
C1331 C 0.65425 0.16064 0.07738 0.0
N1332 N 0.73476 0.23853 0.12024 0.0
N1333 N 0.60799 0.12448 0.12435 0.0
H1334 H 0.64452 0.15021 1.00052 0.0
H1335 H 0.61866 0.11583 1.03398 0.0
H1336 H 0.59812 0.11455 0.15688 0.0
H1337 H 0.58663 0.11875 0.09359 0.0
H1338 H 0.74942 0.25299 0.1517 0.0
H1339 H 0.74187 0.25151 0.0877 0.0
H1340 H 0.75547 0.21113 0.20788 0.0
H1341 H 0.72514 0.18 0.24057 0.0
C1342 C 0.63965 0.8682 0.75418 0.0
C1343 C 0.62249 0.90488 0.74207 0.0
C1344 C 0.64678 0.93104 0.82403 0.0
C1345 C 0.65681 0.8921 0.83866 0.0
N1346 N 0.6776 0.82845 0.81593 0.0
N1347 N 0.62388 0.97499 0.75676 0.0
C1348 C 0.65879 0.86242 0.80287 0.0
C1349 C 0.63164 0.93782 0.77418 0.0
N1350 N 0.63434 0.83799 0.72051 0.0
N1351 N 0.64966 0.96055 0.85845 0.0
H1352 H 0.61316 0.97934 0.71985 0.0
H1353 H 0.6311 0.00115 0.77706 0.0
H1354 H 0.66232 0.95627 0.89475 0.0
H1355 H 0.6391 0.98869 0.8515 0.0
H1356 H 0.64108 0.8087 0.72851 0.0
H1357 H 0.62254 0.84245 0.68402 0.0
H1358 H 0.68279 0.80697 0.79097 0.0
H1359 H 0.69079 0.82308 0.85164 0.0
C1360 C 0.6257 0.66711 0.84914 0.0
C1361 C 0.58689 0.64736 0.83025 0.0
C1362 C 0.56869 0.65587 0.91537 0.0
C1363 C 0.6074 0.67411 0.93429 0.0
N1364 N 0.67546 0.68789 0.9196 0.0
N1365 N 0.52879 0.61114 0.85541 0.0
C1366 C 0.63648 0.67692 0.90111 0.0
C1367 C 0.56059 0.6386 0.86638 0.0
N1368 N 0.65243 0.67877 0.81783 0.0
N1369 N 0.53855 0.65583 0.94374 0.0
H1370 H 0.52378 0.59493 0.82277 0.0
H1371 H 0.51088 0.60038 0.88123 0.0
H1372 H 0.54282 0.66802 0.97888 0.0
H1373 H 0.50866 0.64724 0.93066 0.0
H1374 H 0.6777 0.69813 0.82804 0.0
H1375 H 0.64823 0.67315 0.78053 0.0
H1376 H 0.69953 0.68537 0.90009 0.0
H1377 H 0.68432 0.69584 0.95624 0.0
C1378 C 0.57022 0.4398 0.2504 0.0
C1379 C 0.58382 0.41954 0.29434 0.0
C1380 C 0.63888 0.39514 0.25554 0.0
C1381 C 0.62079 0.40925 0.20975 0.0
N1382 N 0.56844 0.44395 0.1622 0.0
N1383 N 0.63069 0.37583 0.33833 0.0
C1384 C 0.58646 0.43171 0.20682 0.0
C1385 C 0.61847 0.39718 0.29717 0.0
N1386 N 0.54249 0.46756 0.25079 0.0
N1387 N 0.67587 0.38012 0.25926 0.0
H1388 H 0.61806 0.37707 0.37054 0.0
H1389 H 0.65188 0.35459 0.3396 0.0
H1390 H 0.6915 0.37789 0.22934 0.0
H1391 H 0.69271 0.37342 0.29258 0.0
H1392 H 0.53415 0.48613 0.22123 0.0
H1393 H 0.5309 0.47491 0.28253 0.0
H1394 H 0.54069 0.45634 0.15703 0.0
H1395 H 0.57995 0.43928 0.12962 0.0
C1396 C 0.93244 0.35067 0.53967 0.0
C1397 C 0.92832 0.32411 0.49874 0.0
C1398 C 0.90096 0.27205 0.5537 0.0
C1399 C 0.91126 0.29651 0.59673 0.0
N1400 N 0.94553 0.35938 0.62774 0.0
N1401 N 0.91495 0.25575 0.47197 0.0
C1402 C 0.92916 0.33595 0.58875 0.0
C1403 C 0.91432 0.28378 0.5074 0.0
N1404 N 0.93825 0.39074 0.53182 0.0
N1405 N 0.87603 0.23842 0.55568 0.0
H1406 H 0.92524 0.26252 0.43866 0.0
H1407 H 0.90934 0.22529 0.47785 0.0
H1408 H 0.86245 0.23074 0.58654 0.0
H1409 H 0.86471 0.22117 0.5249 0.0
H1410 H 0.93686 0.41206 0.55872 0.0
H1411 H 0.93997 0.40288 0.49717 0.0
H1412 H 0.96287 0.38589 0.62394 0.0
H1413 H 0.94645 0.3507 0.66403 0.0
C1414 C 0.97283 0.56362 0.73495 0.0
C1415 C 0.95775 0.58239 0.77408 0.0
C1416 C 0.90955 0.61567 0.71449 0.0
C1417 C 0.92385 0.59602 0.67566 0.0
N1418 N 0.96459 0.54703 0.64815 0.0
N1419 N 0.90671 0.62063 0.80152 0.0
C1420 C 0.95419 0.5687 0.68572 0.0
C1421 C 0.92444 0.60651 0.764 0.0
N1422 N 0.00525 0.54109 0.74493 0.0
N1423 N 0.88268 0.64428 0.70394 0.0
H1424 H 0.91709 0.61629 0.83835 0.0
H1425 H 0.87958 0.63414 0.79636 0.0
H1426 H 0.86999 0.65089 0.66831 0.0
H1427 H 0.87507 0.66361 0.72998 0.0
H1428 H 0.02126 0.53104 0.71829 0.0
H1429 H 0.01733 0.53354 0.78047 0.0
H1430 H 0.98318 0.52345 0.65317 0.0
H1431 H 0.95246 0.55087 0.6116 0.0
C1432 C 0.39618 0.31911 0.08899 0.0
C1433 C 0.36361 0.33334 0.10936 0.0
C1434 C 0.31733 0.30743 1.0373 0.0
C1435 C 0.34956 0.28926 1.01987 0.0
N1436 N 0.41854 0.27073 1.0372 0.0
N1437 N 0.29225 0.3376 0.10618 0.0
C1438 C 0.38857 0.29294 0.0481 0.0
C1439 C 0.32384 0.32674 0.08429 0.0
N1440 N 0.43477 0.33161 0.1078 0.0
N1441 N 0.28044 0.30587 1.00929 0.0
H1442 H 0.29608 0.35195 0.14014 0.0
H1443 H 0.2623 0.32999 0.09254 0.0
H1444 H 0.27396 0.28984 0.97651 0.0
H1445 H 0.25689 0.32209 1.01713 0.0
H1446 H 0.45958 0.32595 0.09081 0.0
H1447 H 0.4418 0.35127 0.13738 0.0
H1448 H 0.44579 0.26903 0.05996 0.0
H1449 H 0.41495 0.25052 1.00863 0.0
C1450 C 0.42598 0.5741 0.9813 0.0
C1451 C 0.3972 0.59608 1.00033 0.0
C1452 C 0.36288 0.60665 0.91718 0.0
C1453 C 0.39302 0.58642 0.89843 0.0
N1454 N 0.44986 0.54578 0.91192 0.0
N1455 N 0.33315 0.62504 0.9886 0.0
C1456 C 0.42293 0.56798 0.93035 0.0
C1457 C 0.36385 0.60964 0.96884 0.0
N1458 N 0.45764 0.55962 1.01068 0.0
N1459 N 0.33476 0.62472 0.88553 0.0
H1460 H 0.33315 0.62753 1.02634 0.0
H1461 H 0.30632 0.63236 0.96815 0.0
H1462 H 0.33248 0.62168 0.84755 0.0
H1463 H 0.31484 0.64402 0.89649 0.0
H1464 H 0.46298 0.56309 0.0487 0.0
H1465 H 0.46298 0.56309 0.0487 0.0
H1466 H 0.47279 0.53241 0.93429 0.0
H1467 H 0.44849 0.53989 0.87455 0.0
C1468 C 0.20795 0.7016 0.62659 0.0
C1469 C 0.17869 0.69496 0.58467 0.0
C1470 C 0.13942 0.64811 0.6311 0.0
C1471 C 0.16608 0.65831 0.67432 0.0
N1472 N 0.2233 0.69807 0.71518 0.0
N1473 N 0.11246 0.66824 0.54953 0.0
C1474 C 0.19986 0.68586 0.67264 0.0
C1475 C 0.14339 0.66973 0.58745 0.0
N1476 N 0.2438 0.72209 0.62208 0.0
N1477 N 0.11064 0.6173 0.63155 0.0
H1478 H 0.11337 0.68473 0.5175 0.0
H1479 H 0.08433 0.65387 0.55177 0.0
H1480 H 0.10682 0.60064 0.66291 0.0
H1481 H 0.09314 0.60584 0.59991 0.0
H1482 H 0.26797 0.7245 0.65015 0.0
H1483 H 0.25062 0.73386 0.58881 0.0
H1484 H 0.24565 0.7213 0.71693 0.0
H1485 H 0.21846 0.68696 0.7495 0.0
C1486 C 0.13988 0.35128 0.26361 0.0
C1487 C 0.12501 0.38828 0.24793 0.0
C1488 C 0.14573 0.41711 0.32901 0.0
C1489 C 0.15276 0.37821 0.34663 0.0
N1490 N 0.17326 0.31314 0.33079 0.0
N1491 N 0.13105 0.4592 0.25741 0.0
C1492 C 0.15603 0.34698 0.31362 0.0
C1493 C 0.13484 0.42238 0.27795 0.0
N1494 N 0.13487 0.31963 0.23205 0.0
N1495 N 0.14646 0.44791 0.36124 0.0
H1496 H 0.12307 0.4623 0.21967 0.0
H1497 H 0.13934 0.48585 0.27642 0.0
H1498 H 0.15531 0.44467 0.3988 0.0
H1499 H 0.13736 0.47612 0.35104 0.0
H1500 H 0.14011 0.29045 0.24274 0.0
H1501 H 0.12494 0.32287 0.19476 0.0
H1502 H 0.17958 0.29042 0.30815 0.0
H1503 H 0.18459 0.3098 0.36775 0.0
loop_
_geom_bond_atom_site_label_1
_geom_bond_atom_site_label_2
_geom_bond_distance
_geom_bond_site_symmetry_2
_ccdc_geom_bond_type
Sm0 C2 2.846 1_554 S
Sm0 O20 2.543 . S
Sm0 O21 2.450 . S
Sm0 O22 2.681 1_455 S
Sm0 O23 2.464 . S
Sm0 O24 2.396 1_455 S
Sm0 O28 2.386 . S
Sm0 O31 2.408 . S
Sm1 C11 2.846 . S
Sm1 O22 2.386 . S
Sm1 O25 2.408 . S
Sm1 O26 2.543 . S
Sm1 O27 2.450 . S
Sm1 O28 2.681 1_655 S
Sm1 O29 2.464 . S
Sm1 O30 2.396 1_655 S
C2 Sm0 2.846 1_556 S
C2 C3 1.506 . S
C2 O20 1.261 1_556 S
C2 O21 1.242 1_556 S
C3 C2 1.506 . S
C3 C4 1.358 . S
C3 C8 1.382 . S
C4 C3 1.358 . S
C4 C5 1.385 . S
C4 H32 0.930 . S
C5 C4 1.385 . S
C5 C6 1.395 . S
C5 H33 0.929 . S
C6 C5 1.395 . S
C6 C7 1.335 . S
C7 C6 1.335 . S
C7 C8 1.398 . S
C7 H34 0.930 . S
C8 C3 1.382 . S
C8 C7 1.398 . S
C8 H35 0.929 . S
C9 O22 1.271 1_455 S
C9 O23 1.251 . S
C10 O24 1.252 . S
C10 O25 1.272 . S
C11 Sm1 2.846 . S
C11 C12 1.506 . S
C11 O26 1.261 . S
C11 O27 1.242 . S
C12 C11 1.506 . S
C12 C13 1.358 . S
C12 C17 1.382 . S
C13 C12 1.358 . S
C13 C14 1.385 . S
C13 H36 0.930 . S
C14 C13 1.385 . S
C14 C15 1.395 . S
C14 H37 0.929 . S
C15 C14 1.395 . S
C15 C16 1.335 . S
C16 C15 1.335 . S
C16 C17 1.398 . S
C16 H38 0.930 . S
C17 C12 1.382 . S
C17 C16 1.398 . S
C17 H39 0.929 . S
C18 O28 1.271 1_655 S
C18 O29 1.251 . S
C19 O30 1.252 . S
C19 O31 1.272 . S
O20 Sm0 2.543 . S
O20 C2 1.261 1_554 S
O21 Sm0 2.450 . S
O21 C2 1.242 1_554 S
O22 Sm0 2.681 1_655 S
O22 Sm1 2.386 . S
O22 C9 1.271 1_655 S
O23 Sm0 2.464 . S
O23 C9 1.251 . S
O24 Sm0 2.396 1_655 S
O24 C10 1.252 . S
O25 Sm1 2.408 . S
O25 C10 1.272 . S
O26 Sm1 2.543 . S
O26 C11 1.261 . S
O27 Sm1 2.450 . S
O27 C11 1.242 . S
O28 Sm0 2.386 . S
O28 Sm1 2.681 1_455 S
O28 C18 1.271 1_455 S
O29 Sm1 2.464 . S
O29 C18 1.251 . S
O30 Sm1 2.396 1_455 S
O30 C19 1.252 . S
O31 Sm0 2.408 . S
O31 C19 1.272 . S
H32 C4 0.930 . S
H33 C5 0.929 . S
H34 C7 0.930 . S
H35 C8 0.929 . S
H36 C13 0.930 . S
H37 C14 0.929 . S
H38 C16 0.930 . S
H39 C17 0.929 . S
Sm40 C42 2.846 . S
Sm40 O60 2.543 . S
Sm40 O61 2.450 . S
Sm40 O62 2.681 . S
Sm40 O63 2.464 . S
Sm40 O64 2.396 . S
Sm40 O68 2.386 . S
Sm40 O71 2.408 . S
Sm41 C51 2.846 . S
Sm41 O62 2.386 . S
Sm41 O65 2.408 . S
Sm41 O66 2.543 . S
Sm41 O67 2.450 . S
Sm41 O68 2.681 . S
Sm41 O69 2.464 . S
Sm41 O70 2.396 . S
C42 Sm40 2.846 . S
C42 C43 1.506 . S
C42 O60 1.261 . S
C42 O61 1.242 . S
C43 C42 1.506 . S
C43 C44 1.358 . S
C43 C48 1.382 . S
C44 C43 1.358 . S
C44 C45 1.385 . S
C44 H72 0.930 . S
C45 C44 1.385 . S
C45 C46 1.395 . S
C45 H73 0.929 . S
C46 C45 1.395 . S
C46 C47 1.335 . S
C47 C46 1.335 . S
C47 C48 1.398 . S
C47 H74 0.930 . S
C48 C43 1.382 . S
C48 C47 1.398 . S
C48 H75 0.929 . S
C49 O62 1.271 . S
C49 O63 1.251 . S
C50 O64 1.252 . S
C50 O65 1.272 . S
C51 Sm41 2.846 . S
C51 C52 1.506 . S
C51 O66 1.261 . S
C51 O67 1.242 . S
C52 C51 1.506 . S
C52 C53 1.358 . S
C52 C57 1.382 . S
C53 C52 1.358 . S
C53 C54 1.385 . S
C53 H76 0.930 . S
C54 C53 1.385 . S
C54 C55 1.395 . S
C54 H77 0.929 . S
C55 C54 1.395 . S
C55 C56 1.335 . S
C56 C55 1.335 . S
C56 C57 1.398 . S
C56 H78 0.930 . S
C57 C52 1.382 . S
C57 C56 1.398 . S
C57 H79 0.929 . S
C58 O68 1.271 . S
C58 O69 1.251 . S
C59 O70 1.252 . S
C59 O71 1.272 . S
O60 Sm40 2.543 . S
O60 C42 1.261 . S
O61 Sm40 2.450 . S
O61 C42 1.242 . S
O62 Sm40 2.681 . S
O62 Sm41 2.386 . S
O62 C49 1.271 . S
O63 Sm40 2.464 . S
O63 C49 1.251 . S
O64 Sm40 2.396 . S
O64 C50 1.252 . S
O65 Sm41 2.408 . S
O65 C50 1.272 . S
O66 Sm41 2.543 . S
O66 C51 1.261 . S
O67 Sm41 2.450 . S
O67 C51 1.242 . S
O68 Sm40 2.386 . S
O68 Sm41 2.681 . S
O68 C58 1.271 . S
O69 Sm41 2.464 . S
O69 C58 1.251 . S
O70 Sm41 2.396 . S
O70 C59 1.252 . S
O71 Sm40 2.408 . S
O71 C59 1.272 . S
H72 C44 0.930 . S
H73 C45 0.929 . S
H74 C47 0.930 . S
H75 C48 0.929 . S
H76 C53 0.930 . S
H77 C54 0.929 . S
H78 C56 0.930 . S
H79 C57 0.929 . S
Sm80 C82 2.846 . S
Sm80 O100 2.543 . S
Sm80 O101 2.450 . S
Sm80 O102 2.681 . S
Sm80 O103 2.464 . S
Sm80 O104 2.396 . S
Sm80 O108 2.386 . S
Sm80 O111 2.408 . S
Sm81 C91 2.846 . S
Sm81 O102 2.386 . S
Sm81 O105 2.408 . S
Sm81 O106 2.543 . S
Sm81 O107 2.450 . S
Sm81 O108 2.681 . S
Sm81 O109 2.464 . S
Sm81 O110 2.396 . S
C82 Sm80 2.846 . S
C82 C83 1.506 . S
C82 O100 1.261 . S
C82 O101 1.242 . S
C83 C82 1.506 . S
C83 C84 1.358 . S
C83 C88 1.382 . S
C84 C83 1.358 . S
C84 C85 1.385 . S
C84 H112 0.930 . S
C85 C84 1.385 . S
C85 C86 1.395 . S
C85 H113 0.929 . S
C86 C85 1.395 . S
C86 C87 1.335 . S
C87 C86 1.335 . S
C87 C88 1.398 . S
C87 H114 0.930 . S
C88 C83 1.382 . S
C88 C87 1.398 . S
C88 H115 0.929 . S
C89 O102 1.271 . S
C89 O103 1.251 . S
C90 O104 1.252 . S
C90 O105 1.272 . S
C91 Sm81 2.846 . S
C91 C92 1.506 . S
C91 O106 1.261 . S
C91 O107 1.242 . S
C92 C91 1.506 . S
C92 C93 1.358 . S
C92 C97 1.382 . S
C93 C92 1.358 . S
C93 C94 1.385 . S
C93 H116 0.930 . S
C94 C93 1.385 . S
C94 C95 1.395 . S
C94 H117 0.929 . S
C95 C94 1.395 . S
C95 C96 1.335 . S
C96 C95 1.335 . S
C96 C97 1.398 . S
C96 H118 0.930 . S
C97 C92 1.382 . S
C97 C96 1.398 . S
C97 H119 0.929 . S
C98 O108 1.271 . S
C98 O109 1.251 . S
C99 O110 1.252 . S
C99 O111 1.272 . S
O100 Sm80 2.543 . S
O100 C82 1.261 . S
O101 Sm80 2.450 . S
O101 C82 1.242 . S
O102 Sm80 2.681 . S
O102 Sm81 2.386 . S
O102 C89 1.271 . S
O103 Sm80 2.464 . S
O103 C89 1.251 . S
O104 Sm80 2.396 . S
O104 C90 1.252 . S
O105 Sm81 2.408 . S
O105 C90 1.272 . S
O106 Sm81 2.543 . S
O106 C91 1.261 . S
O107 Sm81 2.450 . S
O107 C91 1.242 . S
O108 Sm80 2.386 . S
O108 Sm81 2.681 . S
O108 C98 1.271 . S
O109 Sm81 2.464 . S
O109 C98 1.251 . S
O110 Sm81 2.396 . S
O110 C99 1.252 . S
O111 Sm80 2.408 . S
O111 C99 1.272 . S
H112 C84 0.930 . S
H113 C85 0.929 . S
H114 C87 0.930 . S
H115 C88 0.929 . S
H116 C93 0.930 . S
H117 C94 0.929 . S
H118 C96 0.930 . S
H119 C97 0.929 . S
Sm120 C122 2.846 . S
Sm120 O140 2.543 . S
Sm120 O141 2.450 . S
Sm120 O142 2.681 . S
Sm120 O143 2.464 . S
Sm120 O144 2.396 . S
Sm120 O148 2.386 . S
Sm120 O151 2.408 . S
Sm121 C131 2.846 . S
Sm121 O142 2.386 . S
Sm121 O145 2.408 . S
Sm121 O146 2.543 . S
Sm121 O147 2.450 . S
Sm121 O148 2.681 . S
Sm121 O149 2.464 . S
Sm121 O150 2.396 . S
C122 Sm120 2.846 . S
C122 C123 1.506 1_556 S
C122 O140 1.261 . S
C122 O141 1.242 . S
C123 C122 1.506 1_554 S
C123 C124 1.358 . S
C123 C128 1.382 . S
C124 C123 1.358 . S
C124 C125 1.385 . S
C124 H152 0.930 . S
C125 C124 1.385 . S
C125 C126 1.395 . S
C125 H153 0.929 . S
C126 C125 1.395 . S
C126 C127 1.335 . S
C127 C126 1.335 . S
C127 C128 1.398 . S
C127 H154 0.930 . S
C128 C123 1.382 . S
C128 C127 1.398 . S
C128 H155 0.929 1_554 S
C129 O142 1.271 . S
C129 O143 1.251 . S
C130 O144 1.252 . S
C130 O145 1.272 . S
C131 Sm121 2.846 . S
C131 C132 1.506 . S
C131 O146 1.261 . S
C131 O147 1.242 . S
C132 C131 1.506 . S
C132 C133 1.358 . S
C132 C137 1.382 . S
C133 C132 1.358 . S
C133 C134 1.385 . S
C133 H156 0.930 . S
C134 C133 1.385 . S
C134 C135 1.395 . S
C134 H157 0.929 . S
C135 C134 1.395 . S
C135 C136 1.335 . S
C136 C135 1.335 . S
C136 C137 1.398 . S
C136 H158 0.930 . S
C137 C132 1.382 . S
C137 C136 1.398 . S
C137 H159 0.929 . S
C138 O148 1.271 . S
C138 O149 1.251 . S
C139 O150 1.252 . S
C139 O151 1.272 . S
O140 Sm120 2.543 . S
O140 C122 1.261 . S
O141 Sm120 2.450 . S
O141 C122 1.242 . S
O142 Sm120 2.681 . S
O142 Sm121 2.386 . S
O142 C129 1.271 . S
O143 Sm120 2.464 . S
O143 C129 1.251 . S
O144 Sm120 2.396 . S
O144 C130 1.252 . S
O145 Sm121 2.408 . S
O145 C130 1.272 . S
O146 Sm121 2.543 . S
O146 C131 1.261 . S
O147 Sm121 2.450 . S
O147 C131 1.242 . S
O148 Sm120 2.386 . S
O148 Sm121 2.681 . S
O148 C138 1.271 . S
O149 Sm121 2.464 . S
O149 C138 1.251 . S
O150 Sm121 2.396 . S
O150 C139 1.252 . S
O151 Sm120 2.408 . S
O151 C139 1.272 . S
H152 C124 0.930 . S
H153 C125 0.929 . S
H154 C127 0.930 . S
H155 C128 0.929 1_556 S
H156 C133 0.930 . S
H157 C134 0.929 . S
H158 C136 0.930 . S
H159 C137 0.929 . S
Sm160 C162 2.846 1_556 S
Sm160 O180 2.543 1_556 S
Sm160 O181 2.450 . S
Sm160 O182 2.681 . S
Sm160 O183 2.464 . S
Sm160 O184 2.396 . S
Sm160 O188 2.386 . S
Sm160 O191 2.408 . S
Sm161 C171 2.846 . S
Sm161 O182 2.386 1_655 S
Sm161 O185 2.408 . S
Sm161 O186 2.543 . S
Sm161 O187 2.450 . S
Sm161 O188 2.681 1_655 S
Sm161 O189 2.464 . S
Sm161 O190 2.396 1_655 S
C162 Sm160 2.846 1_554 S
C162 C163 1.506 . S
C162 O180 1.261 . S
C162 O181 1.242 1_554 S
C163 C162 1.506 . S
C163 C164 1.358 . S
C163 C168 1.382 . S
C164 C163 1.358 . S
C164 C165 1.385 . S
C164 H192 0.930 . S
C165 C164 1.385 . S
C165 C166 1.395 . S
C165 H193 0.929 . S
C166 C165 1.395 . S
C166 C167 1.335 . S
C167 C166 1.335 . S
C167 C168 1.398 . S
C167 H194 0.930 . S
C168 C163 1.382 . S
C168 C167 1.398 . S
C168 H195 0.929 . S
C169 O182 1.271 . S
C169 O183 1.251 . S
C170 O184 1.252 1_655 S
C170 O185 1.272 . S
C171 Sm161 2.846 . S
C171 C172 1.506 . S
C171 O186 1.261 . S
C171 O187 1.242 . S
C172 C171 1.506 . S
C172 C173 1.358 . S
C172 C177 1.382 . S
C173 C172 1.358 . S
C173 C174 1.385 . S
C173 H196 0.930 . S
C174 C173 1.385 . S
C174 C175 1.395 . S
C174 H197 0.929 . S
C175 C174 1.395 . S
C175 C176 1.335 . S
C176 C175 1.335 . S
C176 C177 1.398 . S
C176 H198 0.930 . S
C177 C172 1.382 . S
C177 C176 1.398 . S
C177 H199 0.929 . S
C178 O188 1.271 . S
C178 O189 1.251 1_455 S
C179 O190 1.252 . S
C179 O191 1.272 . S
O180 Sm160 2.543 1_554 S
O180 C162 1.261 . S
O181 Sm160 2.450 . S
O181 C162 1.242 1_556 S
O182 Sm160 2.681 . S
O182 Sm161 2.386 1_455 S
O182 C169 1.271 . S
O183 Sm160 2.464 . S
O183 C169 1.251 . S
O184 Sm160 2.396 . S
O184 C170 1.252 1_455 S
O185 Sm161 2.408 . S
O185 C170 1.272 . S
O186 Sm161 2.543 . S
O186 C171 1.261 . S
O187 Sm161 2.450 . S
O187 C171 1.242 . S
O188 Sm160 2.386 . S
O188 Sm161 2.681 1_455 S
O188 C178 1.271 . S
O189 Sm161 2.464 . S
O189 C178 1.251 1_655 S
O190 Sm161 2.396 1_455 S
O190 C179 1.252 . S
O191 Sm160 2.408 . S
O191 C179 1.272 . S
H192 C164 0.930 . S
H193 C165 0.929 . S
H194 C167 0.930 . S
H195 C168 0.929 . S
H196 C173 0.930 . S
H197 C174 0.929 . S
H198 C176 0.930 . S
H199 C177 0.929 . S
Sm200 C202 2.846 . S
Sm200 O220 2.543 . S
Sm200 O221 2.450 . S
Sm200 O222 2.681 . S
Sm200 O223 2.464 . S
Sm200 O224 2.396 . S
Sm200 O228 2.386 . S
Sm200 O231 2.408 . S
Sm201 C211 2.846 . S
Sm201 O222 2.386 . S
Sm201 O225 2.408 . S
Sm201 O226 2.543 . S
Sm201 O227 2.450 . S
Sm201 O228 2.681 . S
Sm201 O229 2.464 . S
Sm201 O230 2.396 . S
C202 Sm200 2.846 . S
C202 C203 1.506 . S
C202 O220 1.261 . S
C202 O221 1.242 . S
C203 C202 1.506 . S
C203 C204 1.358 . S
C203 C208 1.382 . S
C204 C203 1.358 . S
C204 C205 1.385 . S
C204 H232 0.930 . S
C205 C204 1.385 . S
C205 C206 1.395 . S
C205 H233 0.929 . S
C206 C205 1.395 . S
C206 C207 1.335 . S
C207 C206 1.335 . S
C207 C208 1.398 . S
C207 H234 0.930 . S
C208 C203 1.382 . S
C208 C207 1.398 . S
C208 H235 0.929 . S
C209 O222 1.271 . S
C209 O223 1.251 . S
C210 O224 1.252 . S
C210 O225 1.272 . S
C211 Sm201 2.846 . S
C211 C212 1.506 . S
C211 O226 1.261 . S
C211 O227 1.242 . S
C212 C211 1.506 . S
C212 C213 1.358 1_554 S
C212 C217 1.382 . S
C213 C212 1.358 1_556 S
C213 C214 1.385 . S
C213 H236 0.930 1_556 S
C214 C213 1.385 . S
C214 C215 1.395 . S
C214 H237 0.929 . S
C215 C214 1.395 . S
C215 C216 1.335 . S
C216 C215 1.335 . S
C216 C217 1.398 1_556 S
C216 H238 0.930 . S
C217 C212 1.382 . S
C217 C216 1.398 1_554 S
C217 H239 0.929 . S
C218 O228 1.271 . S
C218 O229 1.251 . S
C219 O230 1.252 . S
C219 O231 1.272 . S
O220 Sm200 2.543 . S
O220 C202 1.261 . S
O221 Sm200 2.450 . S
O221 C202 1.242 . S
O222 Sm200 2.681 . S
O222 Sm201 2.386 . S
O222 C209 1.271 . S
O223 Sm200 2.464 . S
O223 C209 1.251 . S
O224 Sm200 2.396 . S
O224 C210 1.252 . S
O225 Sm201 2.408 . S
O225 C210 1.272 . S
O226 Sm201 2.543 . S
O226 C211 1.261 . S
O227 Sm201 2.450 . S
O227 C211 1.242 . S
O228 Sm200 2.386 . S
O228 Sm201 2.681 . S
O228 C218 1.271 . S
O229 Sm201 2.464 . S
O229 C218 1.251 . S
O230 Sm201 2.396 . S
O230 C219 1.252 . S
O231 Sm200 2.408 . S
O231 C219 1.272 . S
H232 C204 0.930 . S
H233 C205 0.929 . S
H234 C207 0.930 . S
H235 C208 0.929 . S
H236 C213 0.930 1_554 S
H237 C214 0.929 . S
H238 C216 0.930 . S
H239 C217 0.929 . S
Sm240 C242 2.846 . S
Sm240 O260 2.543 . S
Sm240 O261 2.450 . S
Sm240 O262 2.681 . S
Sm240 O263 2.464 . S
Sm240 O264 2.396 . S
Sm240 O268 2.386 . S
Sm240 O271 2.408 . S
Sm241 C251 2.846 . S
Sm241 O262 2.386 . S
Sm241 O265 2.408 . S
Sm241 O266 2.543 . S
Sm241 O267 2.450 . S
Sm241 O268 2.681 . S
Sm241 O269 2.464 . S
Sm241 O270 2.396 . S
C242 Sm240 2.846 . S
C242 C243 1.506 . S
C242 O260 1.261 . S
C242 O261 1.242 . S
C243 C242 1.506 . S
C243 C244 1.358 . S
C243 C248 1.382 . S
C244 C243 1.358 . S
C244 C245 1.385 . S
C244 H272 0.930 . S
C245 C244 1.385 . S
C245 C246 1.395 . S
C245 H273 0.929 . S
C246 C245 1.395 . S
C246 C247 1.335 . S
C247 C246 1.335 . S
C247 C248 1.398 . S
C247 H274 0.930 . S
C248 C243 1.382 . S
C248 C247 1.398 . S
C248 H275 0.929 . S
C249 O262 1.271 . S
C249 O263 1.251 . S
C250 O264 1.252 . S
C250 O265 1.272 . S
C251 Sm241 2.846 . S
C251 C252 1.506 . S
C251 O266 1.261 . S
C251 O267 1.242 . S
C252 C251 1.506 . S
C252 C253 1.358 . S
C252 C257 1.382 . S
C253 C252 1.358 . S
C253 C254 1.385 . S
C253 H276 0.930 . S
C254 C253 1.385 . S
C254 C255 1.395 . S
C254 H277 0.929 . S
C255 C254 1.395 . S
C255 C256 1.335 . S
C256 C255 1.335 . S
C256 C257 1.398 . S
C256 H278 0.930 . S
C257 C252 1.382 . S
C257 C256 1.398 . S
C257 H279 0.929 . S
C258 O268 1.271 . S
C258 O269 1.251 . S
C259 O270 1.252 . S
C259 O271 1.272 . S
O260 Sm240 2.543 . S
O260 C242 1.261 . S
O261 Sm240 2.450 . S
O261 C242 1.242 . S
O262 Sm240 2.681 . S
O262 Sm241 2.386 . S
O262 C249 1.271 . S
O263 Sm240 2.464 . S
O263 C249 1.251 . S
O264 Sm240 2.396 . S
O264 C250 1.252 . S
O265 Sm241 2.408 . S
O265 C250 1.272 . S
O266 Sm241 2.543 . S
O266 C251 1.261 . S
O267 Sm241 2.450 . S
O267 C251 1.242 . S
O268 Sm240 2.386 . S
O268 Sm241 2.681 . S
O268 C258 1.271 . S
O269 Sm241 2.464 . S
O269 C258 1.251 . S
O270 Sm241 2.396 . S
O270 C259 1.252 . S
O271 Sm240 2.408 . S
O271 C259 1.272 . S
H272 C244 0.930 . S
H273 C245 0.929 . S
H274 C247 0.930 . S
H275 C248 0.929 . S
H276 C253 0.930 . S
H277 C254 0.929 . S
H278 C256 0.930 . S
H279 C257 0.929 . S
Sm280 C282 2.846 . S
Sm280 O300 2.543 . S
Sm280 O301 2.450 . S
Sm280 O302 2.681 . S
Sm280 O303 2.464 . S
Sm280 O304 2.396 . S
Sm280 O308 2.386 . S
Sm280 O311 2.408 . S
Sm281 C291 2.846 . S
Sm281 O302 2.386 . S
Sm281 O305 2.408 . S
Sm281 O306 2.543 . S
Sm281 O307 2.450 . S
Sm281 O308 2.681 . S
Sm281 O309 2.464 . S
Sm281 O310 2.396 . S
C282 Sm280 2.846 . S
C282 C283 1.506 . S
C282 O300 1.261 . S
C282 O301 1.242 . S
C283 C282 1.506 . S
C283 C284 1.358 . S
C283 C288 1.382 . S
C284 C283 1.358 . S
C284 C285 1.385 . S
C284 H312 0.930 . S
C285 C284 1.385 . S
C285 C286 1.395 . S
C285 H313 0.929 . S
C286 C285 1.395 . S
C286 C287 1.335 . S
C287 C286 1.335 . S
C287 C288 1.398 . S
C287 H314 0.930 . S
C288 C283 1.382 . S
C288 C287 1.398 . S
C288 H315 0.929 . S
C289 O302 1.271 . S
C289 O303 1.251 . S
C290 O304 1.252 . S
C290 O305 1.272 . S
C291 Sm281 2.846 . S
C291 C292 1.506 . S
C291 O306 1.261 . S
C291 O307 1.242 . S
C292 C291 1.506 . S
C292 C293 1.358 . S
C292 C297 1.382 . S
C293 C292 1.358 . S
C293 C294 1.385 . S
C293 H316 0.930 . S
C294 C293 1.385 . S
C294 C295 1.395 . S
C294 H317 0.929 . S
C295 C294 1.395 . S
C295 C296 1.335 . S
C296 C295 1.335 . S
C296 C297 1.398 . S
C296 H318 0.930 . S
C297 C292 1.382 . S
C297 C296 1.398 . S
C297 H319 0.929 . S
C298 O308 1.271 . S
C298 O309 1.251 . S
C299 O310 1.252 . S
C299 O311 1.272 . S
O300 Sm280 2.543 . S
O300 C282 1.261 . S
O301 Sm280 2.450 . S
O301 C282 1.242 . S
O302 Sm280 2.681 . S
O302 Sm281 2.386 . S
O302 C289 1.271 . S
O303 Sm280 2.464 . S
O303 C289 1.251 . S
O304 Sm280 2.396 . S
O304 C290 1.252 . S
O305 Sm281 2.408 . S
O305 C290 1.272 . S
O306 Sm281 2.543 . S
O306 C291 1.261 . S
O307 Sm281 2.450 . S
O307 C291 1.242 . S
O308 Sm280 2.386 . S
O308 Sm281 2.681 . S
O308 C298 1.271 . S
O309 Sm281 2.464 . S
O309 C298 1.251 . S
O310 Sm281 2.396 . S
O310 C299 1.252 . S
O311 Sm280 2.408 . S
O311 C299 1.272 . S
H312 C284 0.930 . S
H313 C285 0.929 . S
H314 C287 0.930 . S
H315 C288 0.929 . S
H316 C293 0.930 . S
H317 C294 0.929 . S
H318 C296 0.930 . S
H319 C297 0.929 . S
Sm320 C322 2.846 . S
Sm320 O340 2.543 . S
Sm320 O341 2.450 . S
Sm320 O342 2.681 . S
Sm320 O343 2.464 . S
Sm320 O344 2.396 . S
Sm320 O348 2.386 . S
Sm320 O351 2.408 . S
Sm321 C331 2.846 . S
Sm321 O342 2.386 . S
Sm321 O345 2.408 . S
Sm321 O346 2.543 . S
Sm321 O347 2.450 . S
Sm321 O348 2.681 . S
Sm321 O349 2.464 . S
Sm321 O350 2.396 . S
C322 Sm320 2.846 . S
C322 C323 1.506 . S
C322 O340 1.261 . S
C322 O341 1.242 . S
C323 C322 1.506 . S
C323 C324 1.358 . S
C323 C328 1.382 . S
C324 C323 1.358 . S
C324 C325 1.385 . S
C324 H352 0.930 . S
C325 C324 1.385 . S
C325 C326 1.395 . S
C325 H353 0.929 . S
C326 C325 1.395 . S
C326 C327 1.335 . S
C327 C326 1.335 . S
C327 C328 1.398 . S
C327 H354 0.930 . S
C328 C323 1.382 . S
C328 C327 1.398 . S
C328 H355 0.929 . S
C329 O342 1.271 . S
C329 O343 1.251 . S
C330 O344 1.252 . S
C330 O345 1.272 . S
C331 Sm321 2.846 . S
C331 C332 1.506 . S
C331 O346 1.261 . S
C331 O347 1.242 . S
C332 C331 1.506 . S
C332 C333 1.358 . S
C332 C337 1.382 . S
C333 C332 1.358 . S
C333 C334 1.385 . S
C333 H356 0.930 . S
C334 C333 1.385 . S
C334 C335 1.395 . S
C334 H357 0.929 . S
C335 C334 1.395 . S
C335 C336 1.335 . S
C336 C335 1.335 . S
C336 C337 1.398 . S
C336 H358 0.930 . S
C337 C332 1.382 . S
C337 C336 1.398 . S
C337 H359 0.929 . S
C338 O348 1.271 . S
C338 O349 1.251 . S
C339 O350 1.252 . S
C339 O351 1.272 . S
O340 Sm320 2.543 . S
O340 C322 1.261 . S
O341 Sm320 2.450 . S
O341 C322 1.242 . S
O342 Sm320 2.681 . S
O342 Sm321 2.386 . S
O342 C329 1.271 . S
O343 Sm320 2.464 . S
O343 C329 1.251 . S
O344 Sm320 2.396 . S
O344 C330 1.252 . S
O345 Sm321 2.408 . S
O345 C330 1.272 . S
O346 Sm321 2.543 . S
O346 C331 1.261 . S
O347 Sm321 2.450 . S
O347 C331 1.242 . S
O348 Sm320 2.386 . S
O348 Sm321 2.681 . S
O348 C338 1.271 . S
O349 Sm321 2.464 . S
O349 C338 1.251 . S
O350 Sm321 2.396 . S
O350 C339 1.252 . S
O351 Sm320 2.408 . S
O351 C339 1.272 . S
H352 C324 0.930 . S
H353 C325 0.929 . S
H354 C327 0.930 . S
H355 C328 0.929 . S
H356 C333 0.930 . S
H357 C334 0.929 . S
H358 C336 0.930 . S
H359 C337 0.929 . S
Sm360 C362 2.846 . S
Sm360 O380 2.543 . S
Sm360 O381 2.450 . S
Sm360 O382 2.681 . S
Sm360 O383 2.464 . S
Sm360 O384 2.396 . S
Sm360 O388 2.386 . S
Sm360 O391 2.408 . S
Sm361 C371 2.846 1_554 S
Sm361 O382 2.386 . S
Sm361 O385 2.408 . S
Sm361 O386 2.543 1_554 S
Sm361 O387 2.450 1_554 S
Sm361 O388 2.681 . S
Sm361 O389 2.464 . S
Sm361 O390 2.396 . S
C362 Sm360 2.846 . S
C362 C363 1.506 . S
C362 O380 1.261 . S
C362 O381 1.242 . S
C363 C362 1.506 . S
C363 C364 1.358 . S
C363 C368 1.382 . S
C364 C363 1.358 . S
C364 C365 1.385 . S
C364 H392 0.930 . S
C365 C364 1.385 . S
C365 C366 1.395 . S
C365 H393 0.929 . S
C366 C365 1.395 . S
C366 C367 1.335 . S
C367 C366 1.335 . S
C367 C368 1.398 . S
C367 H394 0.930 . S
C368 C363 1.382 . S
C368 C367 1.398 . S
C368 H395 0.929 . S
C369 O382 1.271 . S
C369 O383 1.251 . S
C370 O384 1.252 . S
C370 O385 1.272 . S
C371 Sm361 2.846 1_556 S
C371 C372 1.506 . S
C371 O386 1.261 . S
C371 O387 1.242 . S
C372 C371 1.506 . S
C372 C373 1.358 . S
C372 C377 1.382 . S
C373 C372 1.358 . S
C373 C374 1.385 . S
C373 H396 0.930 . S
C374 C373 1.385 . S
C374 C375 1.395 . S
C374 H397 0.929 . S
C375 C374 1.395 . S
C375 C376 1.335 . S
C376 C375 1.335 . S
C376 C377 1.398 . S
C376 H398 0.930 . S
C377 C372 1.382 . S
C377 C376 1.398 . S
C377 H399 0.929 . S
C378 O388 1.271 . S
C378 O389 1.251 . S
C379 O390 1.253 . S
C379 O391 1.287 . S
O380 Sm360 2.543 . S
O380 C362 1.261 . S
O381 Sm360 2.450 . S
O381 C362 1.242 . S
O382 Sm360 2.681 . S
O382 Sm361 2.386 . S
O382 C369 1.271 . S
O383 Sm360 2.464 . S
O383 C369 1.251 . S
O384 Sm360 2.396 . S
O384 C370 1.252 . S
O385 Sm361 2.408 . S
O385 C370 1.272 . S
O386 Sm361 2.543 1_556 S
O386 C371 1.261 . S
O387 Sm361 2.450 1_556 S
O387 C371 1.242 . S
O388 Sm360 2.386 . S
O388 Sm361 2.681 . S
O388 C378 1.271 . S
O389 Sm361 2.464 . S
O389 C378 1.251 . S
O390 Sm361 2.396 . S
O390 C379 1.253 . S
O391 Sm360 2.408 . S
O391 C379 1.287 . S
H392 C364 0.930 . S
H393 C365 0.929 . S
H394 C367 0.930 . S
H395 C368 0.929 . S
H396 C373 0.930 . S
H397 C374 0.929 . S
H398 C376 0.930 . S
H399 C377 0.929 . S
Sm400 C402 2.846 1_556 S
Sm400 O420 2.543 . S
Sm400 O421 2.450 . S
Sm400 O422 2.681 . S
Sm400 O423 2.464 . S
Sm400 O424 2.396 . S
Sm400 O428 2.386 . S
Sm400 O431 2.408 . S
Sm401 C411 2.846 . S
Sm401 O422 2.386 . S
Sm401 O425 2.408 . S
Sm401 O426 2.543 . S
Sm401 O427 2.450 . S
Sm401 O428 2.681 . S
Sm401 O429 2.464 . S
Sm401 O430 2.396 . S
C402 Sm400 2.846 1_554 S
C402 C403 1.506 . S
C402 O420 1.261 1_554 S
C402 O421 1.242 1_554 S
C403 C402 1.506 . S
C403 C404 1.358 . S
C403 C408 1.382 . S
C404 C403 1.358 . S
C404 C405 1.385 . S
C404 H432 0.930 . S
C405 C404 1.385 . S
C405 C406 1.395 . S
C405 H433 0.929 . S
C406 C405 1.395 . S
C406 C407 1.335 . S
C407 C406 1.335 . S
C407 C408 1.398 . S
C407 H434 0.930 . S
C408 C403 1.382 . S
C408 C407 1.398 . S
C408 H435 0.929 . S
C409 O422 1.271 . S
C409 O423 1.251 . S
C410 O424 1.252 . S
C410 O425 1.272 . S
C411 Sm401 2.846 . S
C411 C412 1.506 . S
C411 O426 1.261 . S
C411 O427 1.242 . S
C412 C411 1.506 . S
C412 C413 1.358 . S
C412 C417 1.382 . S
C413 C412 1.358 . S
C413 C414 1.385 . S
C413 H436 0.930 . S
C414 C413 1.385 . S
C414 C415 1.395 . S
C414 H437 0.929 . S
C415 C414 1.395 . S
C415 C416 1.335 . S
C416 C415 1.335 . S
C416 C417 1.398 . S
C416 H438 0.930 . S
C417 C412 1.382 . S
C417 C416 1.398 . S
C417 H439 0.929 . S
C418 O428 1.271 . S
C418 O429 1.251 . S
C419 O430 1.252 . S
C419 O431 1.272 . S
O420 Sm400 2.543 . S
O420 C402 1.261 1_556 S
O421 Sm400 2.450 . S
O421 C402 1.242 1_556 S
O422 Sm400 2.681 . S
O422 Sm401 2.386 . S
O422 C409 1.271 . S
O423 Sm400 2.464 . S
O423 C409 1.251 . S
O424 Sm400 2.396 . S
O424 C410 1.252 . S
O425 Sm401 2.408 . S
O425 C410 1.272 . S
O426 Sm401 2.543 . S
O426 C411 1.261 . S
O427 Sm401 2.450 . S
O427 C411 1.242 . S
O428 Sm400 2.386 . S
O428 Sm401 2.681 . S
O428 C418 1.271 . S
O429 Sm401 2.464 . S
O429 C418 1.251 . S
O430 Sm401 2.396 . S
O430 C419 1.252 . S
O431 Sm400 2.408 . S
O431 C419 1.272 . S
H432 C404 0.930 . S
H433 C405 0.929 . S
H434 C407 0.930 . S
H435 C408 0.929 . S
H436 C413 0.930 . S
H437 C414 0.929 . S
H438 C416 0.930 . S
H439 C417 0.929 . S
Sm440 C442 2.846 . S
Sm440 O460 2.543 . S
Sm440 O461 2.450 . S
Sm440 O462 2.681 . S
Sm440 O463 2.464 . S
Sm440 O464 2.396 . S
Sm440 O468 2.386 . S
Sm440 O471 2.408 . S
Sm441 C451 2.846 . S
Sm441 O462 2.386 . S
Sm441 O465 2.408 . S
Sm441 O466 2.543 . S
Sm441 O467 2.450 . S
Sm441 O468 2.681 . S
Sm441 O469 2.464 . S
Sm441 O470 2.396 . S
C442 Sm440 2.846 . S
C442 C443 1.506 . S
C442 O460 1.261 . S
C442 O461 1.242 . S
C443 C442 1.506 . S
C443 C444 1.358 . S
C443 C448 1.382 . S
C444 C443 1.358 . S
C444 C445 1.385 . S
C444 H472 0.930 . S
C445 C444 1.385 . S
C445 C446 1.395 . S
C445 H473 0.929 . S
C446 C445 1.395 . S
C446 C447 1.335 . S
C447 C446 1.335 . S
C447 C448 1.398 . S
C447 H474 0.930 . S
C448 C443 1.382 . S
C448 C447 1.398 . S
C448 H475 0.929 . S
C449 O462 1.271 . S
C449 O463 1.251 . S
C450 O464 1.252 . S
C450 O465 1.272 . S
C451 Sm441 2.846 . S
C451 C452 1.506 . S
C451 O466 1.261 . S
C451 O467 1.242 . S
C452 C451 1.506 . S
C452 C453 1.358 . S
C452 C457 1.382 . S
C453 C452 1.358 . S
C453 C454 1.385 . S
C453 H476 0.930 . S
C454 C453 1.385 . S
C454 C455 1.395 . S
C454 H477 0.929 . S
C455 C454 1.395 . S
C455 C456 1.335 . S
C456 C455 1.335 . S
C456 C457 1.398 . S
C456 H478 0.930 . S
C457 C452 1.382 . S
C457 C456 1.398 . S
C457 H479 0.929 . S
C458 O468 1.271 . S
C458 O469 1.251 . S
C459 O470 1.252 . S
C459 O471 1.272 . S
O460 Sm440 2.543 . S
O460 C442 1.261 . S
O461 Sm440 2.450 . S
O461 C442 1.242 . S
O462 Sm440 2.681 . S
O462 Sm441 2.386 . S
O462 C449 1.271 . S
O463 Sm440 2.464 . S
O463 C449 1.251 . S
O464 Sm440 2.396 . S
O464 C450 1.252 . S
O465 Sm441 2.408 . S
O465 C450 1.272 . S
O466 Sm441 2.543 . S
O466 C451 1.261 . S
O467 Sm441 2.450 . S
O467 C451 1.242 . S
O468 Sm440 2.386 . S
O468 Sm441 2.681 . S
O468 C458 1.271 . S
O469 Sm441 2.464 . S
O469 C458 1.251 . S
O470 Sm441 2.396 . S
O470 C459 1.252 . S
O471 Sm440 2.408 . S
O471 C459 1.272 . S
H472 C444 0.930 . S
H473 C445 0.929 . S
H474 C447 0.930 . S
H475 C448 0.929 . S
H476 C453 0.930 . S
H477 C454 0.929 . S
H478 C456 0.930 . S
H479 C457 0.929 . S
Sm480 C482 2.846 . S
Sm480 O500 2.543 . S
Sm480 O501 2.450 . S
Sm480 O502 2.681 . S
Sm480 O503 2.464 . S
Sm480 O504 2.396 . S
Sm480 O508 2.386 . S
Sm480 O511 2.408 . S
Sm481 C491 2.846 . S
Sm481 O502 2.386 . S
Sm481 O505 2.408 . S
Sm481 O506 2.543 . S
Sm481 O507 2.450 . S
Sm481 O508 2.681 . S
Sm481 O509 2.464 . S
Sm481 O510 2.396 . S
C482 Sm480 2.846 . S
C482 C483 1.506 . S
C482 O500 1.261 . S
C482 O501 1.242 . S
C483 C482 1.506 . S
C483 C484 1.358 . S
C483 C488 1.382 . S
C484 C483 1.358 . S
C484 C485 1.385 . S
C484 H512 0.930 . S
C485 C484 1.385 . S
C485 C486 1.395 . S
C485 H513 0.929 . S
C486 C485 1.395 . S
C486 C487 1.335 . S
C487 C486 1.335 . S
C487 C488 1.398 . S
C487 H514 0.930 . S
C488 C483 1.382 . S
C488 C487 1.398 . S
C488 H515 0.929 . S
C489 O502 1.271 . S
C489 O503 1.251 . S
C490 O504 1.252 . S
C490 O505 1.272 . S
C491 Sm481 2.846 . S
C491 C492 1.506 . S
C491 O506 1.261 . S
C491 O507 1.242 . S
C492 C491 1.506 . S
C492 C493 1.358 . S
C492 C497 1.382 . S
C493 C492 1.358 . S
C493 C494 1.385 . S
C493 H516 0.930 . S
C494 C493 1.385 . S
C494 C495 1.395 . S
C494 H517 0.929 . S
C495 C494 1.395 . S
C495 C496 1.335 . S
C496 C495 1.335 . S
C496 C497 1.398 . S
C496 H518 0.930 . S
C497 C492 1.382 . S
C497 C496 1.398 . S
C497 H519 0.929 . S
C498 O508 1.271 . S
C498 O509 1.251 . S
C499 O510 1.252 . S
C499 O511 1.272 . S
O500 Sm480 2.543 . S
O500 C482 1.261 . S
O501 Sm480 2.450 . S
O501 C482 1.242 . S
O502 Sm480 2.681 . S
O502 Sm481 2.386 . S
O502 C489 1.271 . S
O503 Sm480 2.464 . S
O503 C489 1.251 . S
O504 Sm480 2.396 . S
O504 C490 1.252 . S
O505 Sm481 2.408 . S
O505 C490 1.272 . S
O506 Sm481 2.543 . S
O506 C491 1.261 . S
O507 Sm481 2.450 . S
O507 C491 1.242 . S
O508 Sm480 2.386 . S
O508 Sm481 2.681 . S
O508 C498 1.271 . S
O509 Sm481 2.464 . S
O509 C498 1.251 . S
O510 Sm481 2.396 . S
O510 C499 1.252 . S
O511 Sm480 2.408 . S
O511 C499 1.272 . S
H512 C484 0.930 . S
H513 C485 0.929 . S
H514 C487 0.930 . S
H515 C488 0.929 . S
H516 C493 0.930 . S
H517 C494 0.929 . S
H518 C496 0.930 . S
H519 C497 0.929 . S
Sm520 C522 2.846 . S
Sm520 O540 2.543 . S
Sm520 O541 2.450 . S
Sm520 O542 2.681 1_655 S
Sm520 O543 2.464 . S
Sm520 O544 2.396 1_655 S
Sm520 O548 2.386 1_655 S
Sm520 O551 2.408 . S
Sm521 C531 2.825 1_554 S
Sm521 O542 2.386 . S
Sm521 O545 2.408 . S
Sm521 O546 2.543 . S
Sm521 O547 2.450 . S
Sm521 O548 2.681 . S
Sm521 O549 2.464 . S
Sm521 O550 2.396 . S
C522 Sm520 2.846 . S
C522 C523 1.506 . S
C522 O540 1.261 . S
C522 O541 1.242 . S
C523 C522 1.506 . S
C523 C524 1.358 . S
C523 C528 1.382 . S
C524 C523 1.358 . S
C524 C525 1.385 . S
C524 H552 0.930 . S
C525 C524 1.385 . S
C525 C526 1.395 . S
C525 H553 0.929 . S
C526 C525 1.395 . S
C526 C527 1.335 . S
C527 C526 1.335 . S
C527 C528 1.398 . S
C527 H554 0.930 . S
C528 C523 1.382 . S
C528 C527 1.398 . S
C528 H555 0.929 . S
C529 O542 1.271 . S
C529 O543 1.251 1_455 S
C530 O544 1.252 . S
C530 O545 1.272 . S
C531 Sm521 2.825 1_556 S
C531 C532 1.527 . S
C531 O546 1.254 1_556 S
C531 O547 1.229 1_556 S
C532 C531 1.527 . S
C532 C533 1.358 . S
C532 C537 1.382 . S
C533 C532 1.358 . S
C533 C534 1.385 . S
C533 H556 0.930 . S
C534 C533 1.385 . S
C534 C535 1.395 . S
C534 H557 0.929 . S
C535 C534 1.395 . S
C535 C536 1.335 . S
C536 C535 1.335 . S
C536 C537 1.398 . S
C536 H558 0.930 . S
C537 C532 1.382 . S
C537 C536 1.398 . S
C537 H559 0.929 . S
C538 O548 1.271 . S
C538 O549 1.251 . S
C539 O550 1.252 1_655 S
C539 O551 1.272 . S
O540 Sm520 2.543 . S
O540 C522 1.261 . S
O541 Sm520 2.450 . S
O541 C522 1.242 . S
O542 Sm520 2.681 1_455 S
O542 Sm521 2.386 . S
O542 C529 1.271 . S
O543 Sm520 2.464 . S
O543 C529 1.251 1_655 S
O544 Sm520 2.396 1_455 S
O544 C530 1.252 . S
O545 Sm521 2.408 . S
O545 C530 1.272 . S
O546 Sm521 2.543 . S
O546 C531 1.254 1_554 S
O547 Sm521 2.450 . S
O547 C531 1.229 1_554 S
O548 Sm520 2.386 1_455 S
O548 Sm521 2.681 . S
O548 C538 1.271 . S
O549 Sm521 2.464 . S
O549 C538 1.251 . S
O550 Sm521 2.396 . S
O550 C539 1.252 1_455 S
O551 Sm520 2.408 . S
O551 C539 1.272 . S
H552 C524 0.930 . S
H553 C525 0.929 . S
H554 C527 0.930 . S
H555 C528 0.929 . S
H556 C533 0.930 . S
H557 C534 0.929 . S
H558 C536 0.930 . S
H559 C537 0.929 . S
Sm560 C562 2.846 . S
Sm560 O580 2.543 . S
Sm560 O581 2.450 . S
Sm560 O582 2.681 . S
Sm560 O583 2.464 . S
Sm560 O584 2.396 . S
Sm560 O588 2.386 . S
Sm560 O591 2.408 . S
Sm561 C571 2.846 . S
Sm561 O582 2.386 . S
Sm561 O585 2.408 . S
Sm561 O586 2.543 . S
Sm561 O587 2.450 . S
Sm561 O588 2.681 . S
Sm561 O589 2.464 . S
Sm561 O590 2.396 . S
C562 Sm560 2.846 . S
C562 C563 1.506 . S
C562 O580 1.261 . S
C562 O581 1.242 . S
C563 C562 1.506 . S
C563 C564 1.358 . S
C563 C568 1.382 . S
C564 C563 1.358 . S
C564 C565 1.385 . S
C564 H592 0.930 . S
C565 C564 1.385 . S
C565 C566 1.395 . S
C565 H593 0.929 . S
C566 C565 1.395 . S
C566 C567 1.335 . S
C567 C566 1.335 . S
C567 C568 1.398 . S
C567 H594 0.930 . S
C568 C563 1.382 . S
C568 C567 1.398 . S
C568 H595 0.929 . S
C569 O582 1.271 . S
C569 O583 1.251 . S
C570 O584 1.252 . S
C570 O585 1.272 . S
C571 Sm561 2.846 . S
C571 C572 1.506 . S
C571 O586 1.261 . S
C571 O587 1.242 . S
C572 C571 1.506 . S
C572 C573 1.358 . S
C572 C577 1.382 . S
C573 C572 1.358 . S
C573 C574 1.385 . S
C573 H596 0.930 . S
C574 C573 1.385 . S
C574 C575 1.395 . S
C574 H597 0.929 . S
C575 C574 1.395 . S
C575 C576 1.335 . S
C576 C575 1.335 . S
C576 C577 1.398 . S
C576 H598 0.930 . S
C577 C572 1.382 . S
C577 C576 1.398 . S
C577 H599 0.929 . S
C578 O588 1.271 . S
C578 O589 1.251 . S
C579 O590 1.252 . S
C579 O591 1.272 . S
O580 Sm560 2.543 . S
O580 C562 1.261 . S
O581 Sm560 2.450 . S
O581 C562 1.242 . S
O582 Sm560 2.681 . S
O582 Sm561 2.386 . S
O582 C569 1.271 . S
O583 Sm560 2.464 . S
O583 C569 1.251 . S
O584 Sm560 2.396 . S
O584 C570 1.252 . S
O585 Sm561 2.408 . S
O585 C570 1.272 . S
O586 Sm561 2.543 . S
O586 C571 1.261 . S
O587 Sm561 2.450 . S
O587 C571 1.242 . S
O588 Sm560 2.386 . S
O588 Sm561 2.681 . S
O588 C578 1.271 . S
O589 Sm561 2.464 . S
O589 C578 1.251 . S
O590 Sm561 2.396 . S
O590 C579 1.252 . S
O591 Sm560 2.408 . S
O591 C579 1.272 . S
H592 C564 0.930 . S
H593 C565 0.929 . S
H594 C567 0.930 . S
H595 C568 0.929 . S
H596 C573 0.930 . S
H597 C574 0.929 . S
H598 C576 0.930 . S
H599 C577 0.929 . S
Sm600 C602 2.846 . S
Sm600 O620 2.543 . S
Sm600 O621 2.450 . S
Sm600 O622 2.681 1_655 S
Sm600 O623 2.464 . S
Sm600 O624 2.396 1_655 S
Sm600 O628 2.386 1_655 S
Sm600 O631 2.408 . S
Sm601 C611 2.846 . S
Sm601 O622 2.386 . S
Sm601 O625 2.408 . S
Sm601 O626 2.543 . S
Sm601 O627 2.450 . S
Sm601 O628 2.681 . S
Sm601 O629 2.464 . S
Sm601 O630 2.396 . S
C602 Sm600 2.846 . S
C602 C603 1.506 1_556 S
C602 O620 1.261 . S
C602 O621 1.242 . S
C603 C602 1.506 1_554 S
C603 C604 1.358 . S
C603 C608 1.382 . S
C604 C603 1.358 . S
C604 C605 1.385 . S
C604 H632 0.930 . S
C605 C604 1.385 . S
C605 C606 1.395 . S
C605 H633 0.929 . S
C606 C605 1.395 . S
C606 C607 1.335 . S
C607 C606 1.335 . S
C607 C608 1.398 . S
C607 H634 0.930 . S
C608 C603 1.382 . S
C608 C607 1.398 . S
C608 H635 0.929 . S
C609 O622 1.271 . S
C609 O623 1.251 1_455 S
C610 O624 1.252 . S
C610 O625 1.272 . S
C611 Sm601 2.846 . S
C611 C612 1.506 . S
C611 O626 1.261 . S
C611 O627 1.242 . S
C612 C611 1.506 . S
C612 C613 1.358 . S
C612 C617 1.382 . S
C613 C612 1.358 . S
C613 C614 1.385 . S
C613 H636 0.930 . S
C614 C613 1.385 . S
C614 C615 1.395 . S
C614 H637 0.929 . S
C615 C614 1.395 . S
C615 C616 1.335 . S
C616 C615 1.335 . S
C616 C617 1.398 . S
C616 H638 0.930 . S
C617 C612 1.382 . S
C617 C616 1.398 . S
C617 H639 0.929 . S
C618 O628 1.271 . S
C618 O629 1.251 . S
C619 O630 1.252 1_655 S
C619 O631 1.272 . S
O620 Sm600 2.543 . S
O620 C602 1.261 . S
O621 Sm600 2.450 . S
O621 C602 1.242 . S
O622 Sm600 2.681 1_455 S
O622 Sm601 2.386 . S
O622 C609 1.271 . S
O623 Sm600 2.464 . S
O623 C609 1.251 1_655 S
O624 Sm600 2.396 1_455 S
O624 C610 1.252 . S
O625 Sm601 2.408 . S
O625 C610 1.272 . S
O626 Sm601 2.543 . S
O626 C611 1.261 . S
O627 Sm601 2.450 . S
O627 C611 1.242 . S
O628 Sm600 2.386 1_455 S
O628 Sm601 2.681 . S
O628 C618 1.271 . S
O629 Sm601 2.464 . S
O629 C618 1.251 . S
O630 Sm601 2.396 . S
O630 C619 1.252 1_455 S
O631 Sm600 2.408 . S
O631 C619 1.272 . S
H632 C604 0.930 . S
H633 C605 0.929 . S
H634 C607 0.930 . S
H635 C608 0.929 . S
H636 C613 0.930 . S
H637 C614 0.929 . S
H638 C616 0.930 . S
H639 C617 0.929 . S
C640 C641 1.363 . S
C640 C646 1.379 . S
C640 N648 1.356 . S
C641 C640 1.363 . S
C641 C647 1.363 . S
C642 C643 1.363 . S
C642 C647 1.379 . S
C642 N649 1.356 . S
C643 C642 1.363 . S
C643 C646 1.363 . S
N644 C646 1.356 . S
N644 H656 0.984 . S
N644 H657 0.985 . S
N645 C647 1.356 . S
N645 H650 0.984 . S
N645 H651 0.985 . S
C646 C640 1.379 . S
C646 C643 1.363 . S
C646 N644 1.356 . S
C647 C641 1.363 . S
C647 C642 1.379 . S
C647 N645 1.356 . S
N648 C640 1.356 . S
N648 H654 0.984 . S
N648 H655 0.984 . S
N649 C642 1.356 . S
N649 H652 0.984 . S
N649 H653 0.985 . S
H650 N645 0.984 . S
H651 N645 0.985 . S
H652 N649 0.984 . S
H653 N649 0.985 . S
H654 N648 0.984 . S
H655 N648 0.984 . S
H656 N644 0.984 . S
H657 N644 0.985 . S
C658 C659 1.363 . S
C658 C664 1.379 . S
C658 N666 1.356 . S
C659 C658 1.363 . S
C659 C665 1.363 . S
C660 C661 1.363 . S
C660 C665 1.379 . S
C660 N667 1.356 . S
C661 C660 1.363 . S
C661 C664 1.363 . S
N662 C664 1.356 . S
N662 H674 0.984 . S
N662 H675 0.985 . S
N663 C665 1.356 . S
N663 H668 0.984 . S
N663 H669 0.985 . S
C664 C658 1.379 . S
C664 C661 1.363 . S
C664 N662 1.356 . S
C665 C659 1.363 . S
C665 C660 1.379 . S
C665 N663 1.356 . S
N666 C658 1.356 . S
N666 H672 0.984 . S
N666 H673 0.984 . S
N667 C660 1.356 . S
N667 H670 0.984 . S
N667 H671 0.985 . S
H668 N663 0.984 . S
H669 N663 0.985 . S
H670 N667 0.984 . S
H671 N667 0.985 . S
H672 N666 0.984 . S
H673 N666 0.984 . S
H674 N662 0.984 . S
H675 N662 0.985 . S
C676 C677 1.363 . S
C676 C682 1.379 . S
C676 N684 1.356 . S
C677 C676 1.363 . S
C677 C683 1.363 . S
C678 C679 1.363 . S
C678 C683 1.379 . S
C678 N685 1.356 . S
C679 C678 1.363 . S
C679 C682 1.363 . S
N680 C682 1.356 . S
N680 H692 0.984 . S
N680 H693 0.985 . S
N681 C683 1.356 . S
N681 H686 0.984 . S
N681 H687 0.985 . S
C682 C676 1.379 . S
C682 C679 1.363 . S
C682 N680 1.356 . S
C683 C677 1.363 . S
C683 C678 1.379 . S
C683 N681 1.356 . S
N684 C676 1.356 . S
N684 H690 0.984 . S
N684 H691 0.984 . S
N685 C678 1.356 . S
N685 H688 0.984 . S
N685 H689 0.985 . S
H686 N681 0.984 . S
H687 N681 0.985 . S
H688 N685 0.984 . S
H689 N685 0.985 . S
H690 N684 0.984 . S
H691 N684 0.984 . S
H692 N680 0.984 . S
H693 N680 0.985 . S
C694 C695 1.363 . S
C694 C700 1.379 . S
C694 N702 1.356 . S
C695 C694 1.363 . S
C695 C701 1.363 . S
C696 C697 1.363 . S
C696 C701 1.379 . S
C696 N703 1.356 . S
C697 C696 1.363 . S
C697 C700 1.363 . S
N698 C700 1.356 . S
N698 H710 0.984 . S
N698 H711 0.985 . S
N699 C701 1.356 . S
N699 H704 0.984 . S
N699 H705 0.985 . S
C700 C694 1.379 . S
C700 C697 1.363 . S
C700 N698 1.356 . S
C701 C695 1.363 . S
C701 C696 1.379 . S
C701 N699 1.356 . S
N702 C694 1.356 . S
N702 H708 0.984 . S
N702 H709 0.984 . S
N703 C696 1.356 . S
N703 H706 0.984 . S
N703 H707 0.985 . S
H704 N699 0.984 . S
H705 N699 0.985 . S
H706 N703 0.984 . S
H707 N703 0.985 . S
H708 N702 0.984 . S
H709 N702 0.984 . S
H710 N698 0.984 . S
H711 N698 0.985 . S
C712 C713 1.363 . S
C712 C718 1.379 1_554 S
C712 N720 1.356 . S
C713 C712 1.363 . S
C713 C719 1.363 . S
C714 C715 1.363 1_554 S
C714 C719 1.379 . S
C714 N721 1.356 1_554 S
C715 C714 1.363 1_556 S
C715 C718 1.363 . S
N716 C718 1.356 . S
N716 H728 0.984 . S
N716 H729 0.985 . S
N717 C719 1.356 . S
N717 H722 0.984 . S
N717 H723 0.985 . S
C718 C712 1.379 1_556 S
C718 C715 1.363 . S
C718 N716 1.356 . S
C719 C713 1.363 . S
C719 C714 1.379 . S
C719 N717 1.356 . S
N720 C712 1.356 . S
N720 H726 0.984 . S
N720 H727 0.984 . S
N721 C714 1.356 1_556 S
N721 H724 0.984 1_655 S
N721 H725 0.985 1_556 S
H722 N717 0.984 . S
H723 N717 0.985 . S
H724 N721 0.984 1_455 S
H725 N721 0.985 1_554 S
H726 N720 0.984 . S
H727 N720 0.984 . S
H728 N716 0.984 . S
H729 N716 0.985 . S
C730 C731 1.363 . S
C730 C736 1.379 . S
C730 N738 1.356 . S
C731 C730 1.363 . S
C731 C737 1.363 . S
C732 C733 1.363 . S
C732 C737 1.379 . S
C732 N739 1.356 . S
C733 C732 1.363 . S
C733 C736 1.363 . S
N734 C736 1.356 . S
N734 H746 0.984 1_655 S
N734 H747 0.985 . S
N735 C737 1.356 . S
N735 H740 0.984 . S
N735 H741 0.985 . S
C736 C730 1.379 . S
C736 C733 1.363 . S
C736 N734 1.356 . S
C737 C731 1.363 . S
C737 C732 1.379 . S
C737 N735 1.356 . S
N738 C730 1.356 . S
N738 H744 0.984 . S
N738 H745 0.984 . S
N739 C732 1.356 . S
N739 H742 0.984 . S
N739 H743 0.985 . S
H740 N735 0.984 . S
H741 N735 0.985 . S
H742 N739 0.984 . S
H743 N739 0.985 . S
H744 N738 0.984 . S
H745 N738 0.984 . S
H746 N734 0.984 1_455 S
H747 N734 0.985 . S
C748 C749 1.363 . S
C748 C754 1.379 . S
C748 N756 1.356 . S
C749 C748 1.363 . S
C749 C755 1.363 . S
C750 C751 1.363 . S
C750 C755 1.379 . S
C750 N757 1.356 . S
C751 C750 1.363 . S
C751 C754 1.363 . S
N752 C754 1.356 . S
N752 H764 0.984 . S
N752 H765 0.985 . S
N753 C755 1.356 . S
N753 H758 0.984 . S
N753 H759 0.985 . S
C754 C748 1.379 . S
C754 C751 1.363 . S
C754 N752 1.356 . S
C755 C749 1.363 . S
C755 C750 1.379 . S
C755 N753 1.356 . S
N756 C748 1.356 . S
N756 H762 0.984 . S
N756 H763 0.984 . S
N757 C750 1.356 . S
N757 H760 0.984 . S
N757 H761 0.985 . S
H758 N753 0.984 . S
H759 N753 0.985 . S
H760 N757 0.984 . S
H761 N757 0.985 . S
H762 N756 0.984 . S
H763 N756 0.984 . S
H764 N752 0.984 . S
H765 N752 0.985 . S
C766 C767 1.363 . S
C766 C772 1.379 . S
C766 N774 1.356 . S
C767 C766 1.363 . S
C767 C773 1.363 . S
C768 C769 1.363 . S
C768 C773 1.379 . S
C768 N775 1.356 . S
C769 C768 1.363 . S
C769 C772 1.363 . S
N770 C772 1.356 . S
N770 H782 0.984 . S
N770 H783 0.985 . S
N771 C773 1.356 . S
N771 H776 0.984 . S
N771 H777 0.985 . S
C772 C766 1.379 . S
C772 C769 1.363 . S
C772 N770 1.356 . S
C773 C767 1.363 . S
C773 C768 1.379 . S
C773 N771 1.356 . S
N774 C766 1.356 . S
N774 H780 0.984 . S
N774 H781 0.984 . S
N775 C768 1.356 . S
N775 H778 0.984 . S
N775 H779 0.985 . S
H776 N771 0.984 . S
H777 N771 0.985 . S
H778 N775 0.984 . S
H779 N775 0.985 . S
H780 N774 0.984 . S
H781 N774 0.984 . S
H782 N770 0.984 . S
H783 N770 0.985 . S
C784 C785 1.363 . S
C784 C790 1.379 . S
C784 N792 1.356 . S
C785 C784 1.363 . S
C785 C791 1.363 . S
C786 C787 1.363 . S
C786 C791 1.379 . S
C786 N793 1.356 . S
C787 C786 1.363 . S
C787 C790 1.363 . S
N788 C790 1.356 . S
N788 H800 0.984 . S
N788 H801 0.985 . S
N789 C791 1.356 . S
N789 H794 0.984 . S
N789 H795 0.985 . S
C790 C784 1.379 . S
C790 C787 1.363 . S
C790 N788 1.356 . S
C791 C785 1.363 . S
C791 C786 1.379 . S
C791 N789 1.356 . S
N792 C784 1.356 . S
N792 H798 0.984 . S
N792 H799 0.984 . S
N793 C786 1.356 . S
N793 H796 0.984 . S
N793 H797 0.985 . S
H794 N789 0.984 . S
H795 N789 0.985 . S
H796 N793 0.984 . S
H797 N793 0.985 . S
H798 N792 0.984 . S
H799 N792 0.984 . S
H800 N788 0.984 . S
H801 N788 0.985 . S
C802 C803 1.363 . S
C802 C808 1.379 . S
C802 N810 1.356 . S
C803 C802 1.363 . S
C803 C809 1.363 . S
C804 C805 1.363 . S
C804 C809 1.379 . S
C804 N811 1.356 . S
C805 C804 1.363 . S
C805 C808 1.363 . S
N806 C808 1.356 . S
N806 H818 0.984 . S
N806 H819 0.985 . S
N807 C809 1.356 . S
N807 H812 0.984 . S
N807 H813 0.985 . S
C808 C802 1.379 . S
C808 C805 1.363 . S
C808 N806 1.356 . S
C809 C803 1.363 . S
C809 C804 1.379 . S
C809 N807 1.356 . S
N810 C802 1.356 . S
N810 H816 0.984 . S
N810 H817 0.984 . S
N811 C804 1.356 . S
N811 H814 0.984 . S
N811 H815 0.985 . S
H812 N807 0.984 . S
H813 N807 0.985 . S
H814 N811 0.984 . S
H815 N811 0.985 . S
H816 N810 0.984 . S
H817 N810 0.984 . S
H818 N806 0.984 . S
H819 N806 0.985 . S
C820 C821 1.363 1_556 S
C820 C826 1.379 . S
C820 N828 1.356 1_655 S
C821 C820 1.363 1_554 S
C821 C827 1.363 . S
C822 C823 1.363 1_554 S
C822 C827 1.379 . S
C822 N829 1.356 . S
C823 C822 1.363 1_556 S
C823 C826 1.363 . S
N824 C826 1.356 . S
N824 H836 0.984 . S
N824 H837 0.985 . S
N825 C827 1.356 . S
N825 H830 0.984 . S
N825 H831 0.985 . S
C826 C820 1.379 . S
C826 C823 1.363 . S
C826 N824 1.356 . S
C827 C821 1.363 . S
C827 C822 1.379 . S
C827 N825 1.356 . S
N828 C820 1.356 1_455 S
N828 H834 0.984 . S
N828 H835 0.984 1_556 S
N829 C822 1.356 . S
N829 H832 0.984 1_554 S
N829 H833 0.985 . S
H830 N825 0.984 . S
H831 N825 0.985 . S
H832 N829 0.984 1_556 S
H833 N829 0.985 . S
H834 N828 0.984 . S
H835 N828 0.984 1_554 S
H836 N824 0.984 . S
H837 N824 0.985 . S
C838 C839 1.363 . S
C838 C844 1.379 . S
C838 N846 1.356 . S
C839 C838 1.363 . S
C839 C845 1.363 . S
C840 C841 1.363 . S
C840 C845 1.379 . S
C840 N847 1.356 . S
C841 C840 1.363 . S
C841 C844 1.363 . S
N842 C844 1.356 . S
N842 H854 0.984 . S
N842 H855 0.985 . S
N843 C845 1.356 . S
N843 H848 0.984 . S
N843 H849 0.985 . S
C844 C838 1.379 . S
C844 C841 1.363 . S
C844 N842 1.356 . S
C845 C839 1.363 . S
C845 C840 1.379 . S
C845 N843 1.356 . S
N846 C838 1.356 . S
N846 H852 0.984 . S
N846 H853 0.984 . S
N847 C840 1.356 . S
N847 H850 0.984 . S
N847 H851 0.985 . S
H848 N843 0.984 . S
H849 N843 0.985 . S
H850 N847 0.984 . S
H851 N847 0.985 . S
H852 N846 0.984 . S
H853 N846 0.984 . S
H854 N842 0.984 . S
H855 N842 0.985 . S
C856 C857 1.363 . S
C856 C862 1.379 . S
C856 N864 1.356 . S
C857 C856 1.363 . S
C857 C863 1.363 . S
C858 C859 1.363 . S
C858 C863 1.379 . S
C858 N865 1.356 . S
C859 C858 1.363 . S
C859 C862 1.363 . S
N860 C862 1.356 . S
N860 H872 0.984 . S
N860 H873 0.985 . S
N861 C863 1.356 . S
N861 H866 0.984 . S
N861 H867 0.985 . S
C862 C856 1.379 . S
C862 C859 1.363 . S
C862 N860 1.356 . S
C863 C857 1.363 . S
C863 C858 1.379 . S
C863 N861 1.356 . S
N864 C856 1.356 . S
N864 H870 0.984 . S
N864 H871 0.984 . S
N865 C858 1.356 . S
N865 H868 0.984 . S
N865 H869 0.985 . S
H866 N861 0.984 . S
H867 N861 0.985 . S
H868 N865 0.984 . S
H869 N865 0.985 . S
H870 N864 0.984 . S
H871 N864 0.984 . S
H872 N860 0.984 . S
H873 N860 0.985 . S
C874 C875 1.363 . S
C874 C880 1.379 . S
C874 N882 1.356 . S
C875 C874 1.363 . S
C875 C881 1.363 . S
C876 C877 1.363 . S
C876 C881 1.379 . S
C876 N883 1.356 . S
C877 C876 1.363 . S
C877 C880 1.363 . S
N878 C880 1.356 . S
N878 H890 0.984 . S
N878 H891 0.985 . S
N879 C881 1.356 . S
N879 H884 0.984 . S
N879 H885 0.985 . S
C880 C874 1.379 . S
C880 C877 1.363 . S
C880 N878 1.356 . S
C881 C875 1.363 . S
C881 C876 1.379 . S
C881 N879 1.356 . S
N882 C874 1.356 . S
N882 H888 0.984 . S
N882 H889 0.984 . S
N883 C876 1.356 . S
N883 H886 0.984 . S
N883 H887 0.985 . S
H884 N879 0.984 . S
H885 N879 0.985 . S
H886 N883 0.984 . S
H887 N883 0.985 . S
H888 N882 0.984 . S
H889 N882 0.984 . S
H890 N878 0.984 . S
H891 N878 0.985 . S
C892 C893 1.363 . S
C892 C898 1.379 . S
C892 N900 1.356 . S
C893 C892 1.363 . S
C893 C899 1.363 . S
C894 C895 1.363 . S
C894 C899 1.379 . S
C894 N901 1.356 1_554 S
C895 C894 1.363 . S
C895 C898 1.363 . S
N896 C898 1.356 . S
N896 H908 0.984 . S
N896 H909 0.985 1_554 S
N897 C899 1.356 . S
N897 H902 0.984 . S
N897 H903 0.985 . S
C898 C892 1.379 . S
C898 C895 1.363 . S
C898 N896 1.356 . S
C899 C893 1.363 . S
C899 C894 1.379 . S
C899 N897 1.356 . S
N900 C892 1.356 . S
N900 H906 0.984 . S
N900 H907 0.984 . S
N901 C894 1.356 1_556 S
N901 H904 0.984 . S
N901 H905 0.985 . S
H902 N897 0.984 . S
H903 N897 0.985 . S
H904 N901 0.984 . S
H905 N901 0.985 . S
H906 N900 0.984 . S
H907 N900 0.984 . S
H908 N896 0.984 . S
H909 N896 0.985 1_556 S
C910 C911 1.363 . S
C910 C916 1.379 . S
C910 N918 1.356 . S
C911 C910 1.363 . S
C911 C917 1.363 . S
C912 C913 1.363 . S
C912 C917 1.379 . S
C912 N919 1.356 . S
C913 C912 1.363 . S
C913 C916 1.363 . S
N914 C916 1.356 . S
N914 H926 0.984 . S
N914 H927 0.985 . S
N915 C917 1.356 . S
N915 H920 0.984 . S
N915 H921 0.985 . S
C916 C910 1.379 . S
C916 C913 1.363 . S
C916 N914 1.356 . S
C917 C911 1.363 . S
C917 C912 1.379 . S
C917 N915 1.356 . S
N918 C910 1.356 . S
N918 H924 0.984 . S
N918 H925 0.984 . S
N919 C912 1.356 . S
N919 H922 0.984 . S
N919 H923 0.985 . S
H920 N915 0.984 . S
H921 N915 0.985 . S
H922 N919 0.984 . S
H923 N919 0.985 . S
H924 N918 0.984 . S
H925 N918 0.984 . S
H926 N914 0.984 . S
H927 N914 0.985 . S
C928 C929 1.363 . S
C928 C934 1.379 . S
C928 N936 1.356 . S
C929 C928 1.363 . S
C929 C935 1.363 1_455 S
C930 C931 1.357 1_655 S
C930 C935 1.379 . S
C930 N937 1.356 . S
C931 C930 1.357 1_455 S
C931 C934 1.369 . S
N932 C934 1.356 . S
N932 H944 0.984 . S
N932 H945 0.985 . S
N933 C935 1.356 . S
N933 H938 0.984 . S
N933 H939 0.985 . S
C934 C928 1.379 . S
C934 C931 1.369 . S
C934 N932 1.356 . S
C935 C929 1.363 1_655 S
C935 C930 1.379 . S
C935 N933 1.356 . S
N936 C928 1.356 . S
N936 H942 0.984 . S
N936 H943 0.984 . S
N937 C930 1.356 . S
N937 H940 0.984 . S
N937 H941 0.985 . S
H938 N933 0.984 . S
H939 N933 0.985 . S
H940 N937 0.984 . S
H941 N937 0.985 . S
H942 N936 0.984 . S
H943 N936 0.984 . S
H944 N932 0.984 . S
H945 N932 0.985 . S
C946 C947 1.369 . S
C946 C952 1.352 1_655 S
C946 N954 1.382 . S
C947 C946 1.369 . S
C947 C953 1.363 1_655 S
C948 C949 1.363 . S
C948 C953 1.379 . S
C948 N955 1.356 . S
C949 C948 1.363 . S
C949 C952 1.363 . S
N950 C952 1.356 . S
N950 H962 0.984 . S
N950 H963 0.985 . S
N951 C953 1.356 1_655 S
N951 H956 0.984 . S
N951 H957 0.985 1_655 S
C952 C946 1.352 1_455 S
C952 C949 1.363 . S
C952 N950 1.356 . S
C953 C947 1.363 1_455 S
C953 C948 1.379 . S
C953 N951 1.356 1_455 S
N954 C946 1.382 . S
N954 H960 0.984 . S
N954 H961 0.984 . S
N955 C948 1.356 . S
N955 H958 0.984 . S
N955 H959 0.985 . S
H956 N951 0.984 . S
H957 N951 0.985 1_455 S
H958 N955 0.984 . S
H959 N955 0.985 . S
H960 N954 0.984 . S
H961 N954 0.984 . S
H962 N950 0.984 . S
H963 N950 0.985 . S
C964 C965 1.363 . S
C964 C970 1.379 . S
C964 N972 1.356 . S
C965 C964 1.363 . S
C965 C971 1.363 . S
C966 C967 1.363 . S
C966 C971 1.379 . S
C966 N973 1.356 . S
C967 C966 1.363 . S
C967 C970 1.363 . S
N968 C970 1.356 . S
N968 H980 0.984 . S
N968 H981 0.985 . S
N969 C971 1.356 . S
N969 H974 0.984 . S
N969 H975 0.985 . S
C970 C964 1.379 . S
C970 C967 1.363 . S
C970 N968 1.356 . S
C971 C965 1.363 . S
C971 C966 1.379 . S
C971 N969 1.356 . S
N972 C964 1.356 . S
N972 H978 0.984 . S
N972 H979 0.984 . S
N973 C966 1.356 . S
N973 H976 0.984 . S
N973 H977 0.985 . S
H974 N969 0.984 . S
H975 N969 0.985 . S
H976 N973 0.984 . S
H977 N973 0.985 . S
H978 N972 0.984 . S
H979 N972 0.984 . S
H980 N968 0.984 . S
H981 N968 0.985 . S
C982 C983 1.363 . S
C982 C988 1.379 . S
C982 N990 1.356 . S
C983 C982 1.363 . S
C983 C989 1.363 . S
C984 C985 1.363 . S
C984 C989 1.379 . S
C984 N991 1.356 . S
C985 C984 1.363 . S
C985 C988 1.363 . S
N986 C988 1.356 . S
N986 H998 0.984 . S
N986 H999 0.985 . S
N987 C989 1.356 . S
N987 H992 0.984 . S
N987 H993 0.985 . S
C988 C982 1.379 . S
C988 C985 1.363 . S
C988 N986 1.356 . S
C989 C983 1.363 . S
C989 C984 1.379 . S
C989 N987 1.356 . S
N990 C982 1.356 . S
N990 H996 0.984 . S
N990 H997 0.984 . S
N991 C984 1.356 . S
N991 H994 0.984 . S
N991 H995 0.985 . S
H992 N987 0.984 . S
H993 N987 0.985 . S
H994 N991 0.984 . S
H995 N991 0.985 . S
H996 N990 0.984 . S
H997 N990 0.984 . S
H998 N986 0.984 . S
H999 N986 0.985 . S
C1000 C1001 1.363 . S
C1000 C1006 1.379 . S
C1000 N1008 1.356 . S
C1001 C1000 1.363 . S
C1001 C1007 1.363 . S
C1002 C1003 1.363 . S
C1002 C1007 1.379 . S
C1002 N1009 1.356 1_455 S
C1003 C1002 1.363 . S
C1003 C1006 1.363 . S
N1004 C1006 1.356 . S
N1004 H1016 0.984 . S
N1004 H1017 0.985 . S
N1005 C1007 1.356 1_655 S
N1005 H1010 0.984 . S
N1005 H1011 0.985 . S
C1006 C1000 1.379 . S
C1006 C1003 1.363 . S
C1006 N1004 1.356 . S
C1007 C1001 1.363 . S
C1007 C1002 1.379 . S
C1007 N1005 1.356 1_455 S
N1008 C1000 1.356 . S
N1008 H1014 0.984 . S
N1008 H1015 0.984 . S
N1009 C1002 1.356 1_655 S
N1009 H1012 0.981 1_655 S
N1009 H1013 0.985 . S
H1010 N1005 0.984 . S
H1011 N1005 0.985 . S
H1012 N1009 0.981 1_455 S
H1013 N1009 0.985 . S
H1014 N1008 0.984 . S
H1015 N1008 0.984 . S
H1016 N1004 0.984 . S
H1017 N1004 0.985 . S
C1018 C1019 1.363 . S
C1018 C1024 1.379 . S
C1018 N1026 1.356 . S
C1019 C1018 1.363 . S
C1019 C1025 1.363 . S
C1020 C1021 1.363 . S
C1020 C1025 1.379 . S
C1020 N1027 1.356 . S
C1021 C1020 1.363 . S
C1021 C1024 1.363 . S
N1022 C1024 1.356 . S
N1022 H1034 0.984 . S
N1022 H1035 0.985 . S
N1023 C1025 1.356 . S
N1023 H1028 0.984 . S
N1023 H1029 0.985 . S
C1024 C1018 1.379 . S
C1024 C1021 1.363 . S
C1024 N1022 1.356 . S
C1025 C1019 1.363 . S
C1025 C1020 1.379 . S
C1025 N1023 1.356 . S
N1026 C1018 1.356 . S
N1026 H1032 0.984 . S
N1026 H1033 0.984 . S
N1027 C1020 1.356 . S
N1027 H1030 0.984 . S
N1027 H1031 0.985 . S
H1028 N1023 0.984 . S
H1029 N1023 0.985 . S
H1030 N1027 0.984 . S
H1031 N1027 0.985 . S
H1032 N1026 0.984 . S
H1033 N1026 0.984 . S
H1034 N1022 0.984 . S
H1035 N1022 0.985 . S
C1036 C1037 1.363 . S
C1036 C1042 1.379 . S
C1036 N1044 1.356 . S
C1037 C1036 1.363 . S
C1037 C1043 1.363 . S
C1038 C1039 1.363 . S
C1038 C1043 1.379 . S
C1038 N1045 1.356 . S
C1039 C1038 1.363 . S
C1039 C1042 1.363 . S
N1040 C1042 1.356 . S
N1040 H1052 0.984 . S
N1040 H1053 0.985 . S
N1041 C1043 1.356 . S
N1041 H1046 0.984 . S
N1041 H1047 0.985 . S
C1042 C1036 1.379 . S
C1042 C1039 1.363 . S
C1042 N1040 1.356 . S
C1043 C1037 1.363 . S
C1043 C1038 1.379 . S
C1043 N1041 1.356 . S
N1044 C1036 1.356 . S
N1044 H1050 0.984 . S
N1044 H1051 0.984 . S
N1045 C1038 1.356 . S
N1045 H1048 0.984 . S
N1045 H1049 0.985 . S
H1046 N1041 0.984 . S
H1047 N1041 0.985 . S
H1048 N1045 0.984 . S
H1049 N1045 0.985 . S
H1050 N1044 0.984 . S
H1051 N1044 0.984 . S
H1052 N1040 0.984 . S
H1053 N1040 0.985 . S
C1054 C1055 1.363 . S
C1054 C1060 1.379 1_455 S
C1054 N1062 1.356 . S
C1055 C1054 1.363 . S
C1055 C1061 1.363 . S
C1056 C1057 1.363 1_455 S
C1056 C1061 1.379 . S
C1056 N1063 1.356 . S
C1057 C1056 1.363 1_655 S
C1057 C1060 1.363 . S
N1058 C1060 1.356 . S
N1058 H1070 0.984 . S
N1058 H1071 0.985 . S
N1059 C1061 1.356 . S
N1059 H1064 0.984 . S
N1059 H1065 0.985 . S
C1060 C1054 1.379 1_655 S
C1060 C1057 1.363 . S
C1060 N1058 1.356 . S
C1061 C1055 1.363 . S
C1061 C1056 1.379 . S
C1061 N1059 1.356 . S
N1062 C1054 1.356 . S
N1062 H1068 0.984 1_455 S
N1062 H1069 0.984 . S
N1063 C1056 1.356 . S
N1063 H1066 0.984 . S
N1063 H1067 0.985 . S
H1064 N1059 0.984 . S
H1065 N1059 0.985 . S
H1066 N1063 0.984 . S
H1067 N1063 0.985 . S
H1068 N1062 0.984 1_655 S
H1069 N1062 0.984 . S
H1070 N1058 0.984 . S
H1071 N1058 0.985 . S
C1072 C1073 1.363 . S
C1072 C1078 1.379 1_554 S
C1072 N1080 1.356 . S
C1073 C1072 1.363 . S
C1073 C1079 1.363 1_465 S
C1074 C1075 1.363 1_645 S
C1074 C1079 1.379 1_556 S
C1074 N1081 1.356 . S
C1075 C1074 1.363 1_465 S
C1075 C1078 1.363 . S
N1076 C1078 1.356 . S
N1076 H1088 0.984 . S
N1076 H1089 0.985 . S
N1077 C1079 1.356 . S
N1077 H1082 0.984 . S
N1077 H1083 0.985 . S
C1078 C1072 1.379 1_556 S
C1078 C1075 1.363 . S
C1078 N1076 1.356 . S
C1079 C1073 1.363 1_645 S
C1079 C1074 1.379 1_554 S
C1079 N1077 1.356 . S
N1080 C1072 1.356 . S
N1080 H1086 0.984 . S
N1080 H1087 0.984 . S
N1081 C1074 1.356 . S
N1081 H1084 0.984 . S
N1081 H1085 0.985 . S
H1082 N1077 0.984 . S
H1083 N1077 0.985 . S
H1084 N1081 0.984 . S
H1085 N1081 0.985 . S
H1086 N1080 0.984 . S
H1087 N1080 0.984 . S
H1088 N1076 0.984 . S
H1089 N1076 0.985 . S
C1090 C1091 1.363 . S
C1090 C1096 1.379 . S
C1090 N1098 1.356 . S
C1091 C1090 1.363 . S
C1091 C1097 1.363 . S
C1092 C1093 1.363 . S
C1092 C1097 1.379 . S
C1092 N1099 1.356 . S
C1093 C1092 1.363 . S
C1093 C1096 1.363 . S
N1094 C1096 1.356 . S
N1094 H1106 0.984 . S
N1094 H1107 0.985 . S
N1095 C1097 1.356 . S
N1095 H1100 0.984 . S
N1095 H1101 0.985 . S
C1096 C1090 1.379 . S
C1096 C1093 1.363 . S
C1096 N1094 1.356 . S
C1097 C1091 1.363 . S
C1097 C1092 1.379 . S
C1097 N1095 1.356 . S
N1098 C1090 1.356 . S
N1098 H1104 0.984 . S
N1098 H1105 0.984 . S
N1099 C1092 1.356 . S
N1099 H1102 0.984 . S
N1099 H1103 0.985 . S
H1100 N1095 0.984 . S
H1101 N1095 0.985 . S
H1102 N1099 0.984 . S
H1103 N1099 0.985 . S
H1104 N1098 0.984 . S
H1105 N1098 0.984 . S
H1106 N1094 0.984 . S
H1107 N1094 0.985 . S
C1108 C1109 1.363 . S
C1108 C1114 1.379 . S
C1108 N1116 1.356 . S
C1109 C1108 1.363 . S
C1109 C1115 1.363 1_545 S
C1110 C1111 1.363 . S
C1110 C1115 1.379 . S
C1110 N1117 1.356 . S
C1111 C1110 1.363 . S
C1111 C1114 1.363 1_565 S
N1112 C1114 1.356 . S
N1112 H1124 0.984 . S
N1112 H1125 0.985 . S
N1113 C1115 1.356 . S
N1113 H1118 0.984 . S
N1113 H1119 0.985 . S
C1114 C1108 1.379 . S
C1114 C1111 1.363 1_545 S
C1114 N1112 1.356 . S
C1115 C1109 1.363 1_565 S
C1115 C1110 1.379 . S
C1115 N1113 1.356 . S
N1116 C1108 1.356 . S
N1116 H1122 0.984 . S
N1116 H1123 0.984 . S
N1117 C1110 1.356 . S
N1117 H1120 0.984 . S
N1117 H1121 0.985 . S
H1118 N1113 0.984 . S
H1119 N1113 0.985 . S
H1120 N1117 0.984 . S
H1121 N1117 0.985 . S
H1122 N1116 0.984 . S
H1123 N1116 0.984 . S
H1124 N1112 0.984 . S
H1125 N1112 0.985 . S
C1126 C1127 1.363 . S
C1126 C1132 1.379 . S
C1126 N1134 1.356 . S
C1127 C1126 1.363 . S
C1127 C1133 1.363 . S
C1128 C1129 1.363 . S
C1128 C1133 1.379 . S
C1128 N1135 1.356 . S
C1129 C1128 1.363 . S
C1129 C1132 1.363 . S
N1130 C1132 1.356 . S
N1130 H1142 0.984 . S
N1130 H1143 0.985 . S
N1131 C1133 1.356 . S
N1131 H1136 0.984 . S
N1131 H1137 0.985 . S
C1132 C1126 1.379 . S
C1132 C1129 1.363 . S
C1132 N1130 1.356 . S
C1133 C1127 1.363 . S
C1133 C1128 1.379 . S
C1133 N1131 1.356 . S
N1134 C1126 1.356 . S
N1134 H1140 0.984 . S
N1134 H1141 0.984 . S
N1135 C1128 1.356 . S
N1135 H1138 0.984 . S
N1135 H1139 0.985 . S
H1136 N1131 0.984 . S
H1137 N1131 0.985 . S
H1138 N1135 0.984 . S
H1139 N1135 0.985 . S
H1140 N1134 0.984 . S
H1141 N1134 0.984 . S
H1142 N1130 0.984 . S
H1143 N1130 0.985 . S
C1144 C1145 1.363 . S
C1144 C1150 1.379 . S
C1144 N1152 1.356 . S
C1145 C1144 1.363 . S
C1145 C1151 1.363 . S
C1146 C1147 1.363 . S
C1146 C1151 1.379 . S
C1146 N1153 1.356 . S
C1147 C1146 1.363 . S
C1147 C1150 1.363 . S
N1148 C1150 1.356 . S
N1148 H1160 0.984 . S
N1148 H1161 0.985 . S
N1149 C1151 1.356 . S
N1149 H1154 0.984 . S
N1149 H1155 0.985 . S
C1150 C1144 1.379 . S
C1150 C1147 1.363 . S
C1150 N1148 1.356 . S
C1151 C1145 1.363 . S
C1151 C1146 1.379 . S
C1151 N1149 1.356 . S
N1152 C1144 1.356 . S
N1152 H1158 0.984 . S
N1152 H1159 0.984 . S
N1153 C1146 1.356 . S
N1153 H1156 0.984 . S
N1153 H1157 0.985 . S
H1154 N1149 0.984 . S
H1155 N1149 0.985 . S
H1156 N1153 0.984 . S
H1157 N1153 0.985 . S
H1158 N1152 0.984 . S
H1159 N1152 0.984 . S
H1160 N1148 0.984 . S
H1161 N1148 0.985 . S
C1162 C1163 1.363 . S
C1162 C1168 1.379 . S
C1162 N1170 1.356 . S
C1163 C1162 1.363 . S
C1163 C1169 1.363 . S
C1164 C1165 1.363 . S
C1164 C1169 1.379 . S
C1164 N1171 1.356 . S
C1165 C1164 1.363 . S
C1165 C1168 1.363 . S
N1166 C1168 1.356 . S
N1166 H1178 0.984 . S
N1166 H1179 0.985 . S
N1167 C1169 1.356 . S
N1167 H1172 0.984 . S
N1167 H1173 0.985 . S
C1168 C1162 1.379 . S
C1168 C1165 1.363 . S
C1168 N1166 1.356 . S
C1169 C1163 1.363 . S
C1169 C1164 1.379 . S
C1169 N1167 1.356 . S
N1170 C1162 1.356 . S
N1170 H1176 0.984 . S
N1170 H1177 0.984 . S
N1171 C1164 1.356 . S
N1171 H1174 0.984 . S
N1171 H1175 0.985 . S
H1172 N1167 0.984 . S
H1173 N1167 0.985 . S
H1174 N1171 0.984 . S
H1175 N1171 0.985 . S
H1176 N1170 0.984 . S
H1177 N1170 0.984 . S
H1178 N1166 0.984 . S
H1179 N1166 0.985 . S
C1180 C1181 1.363 . S
C1180 C1186 1.379 . S
C1180 N1188 1.356 . S
C1181 C1180 1.363 . S
C1181 C1187 1.363 . S
C1182 C1183 1.363 . S
C1182 C1187 1.379 . S
C1182 N1189 1.356 . S
C1183 C1182 1.363 . S
C1183 C1186 1.363 . S
N1184 C1186 1.356 . S
N1184 H1196 0.984 . S
N1184 H1197 0.985 . S
N1185 C1187 1.356 . S
N1185 H1190 0.984 . S
N1185 H1191 0.985 . S
C1186 C1180 1.379 . S
C1186 C1183 1.363 . S
C1186 N1184 1.356 . S
C1187 C1181 1.363 . S
C1187 C1182 1.379 . S
C1187 N1185 1.356 . S
N1188 C1180 1.356 . S
N1188 H1194 0.984 . S
N1188 H1195 0.984 . S
N1189 C1182 1.356 . S
N1189 H1192 0.984 . S
N1189 H1193 0.985 . S
H1190 N1185 0.984 . S
H1191 N1185 0.985 . S
H1192 N1189 0.984 . S
H1193 N1189 0.985 . S
H1194 N1188 0.984 . S
H1195 N1188 0.984 . S
H1196 N1184 0.984 . S
H1197 N1184 0.985 . S
C1198 C1199 1.363 . S
C1198 C1204 1.379 1_556 S
C1198 N1206 1.356 . S
C1199 C1198 1.363 . S
C1199 C1205 1.363 . S
C1200 C1201 1.363 . S
C1200 C1205 1.379 1_554 S
C1200 N1207 1.356 1_455 S
C1201 C1200 1.363 . S
C1201 C1204 1.363 . S
N1202 C1204 1.356 . S
N1202 H1214 0.984 . S
N1202 H1215 0.985 . S
N1203 C1205 1.356 1_655 S
N1203 H1208 0.984 . S
N1203 H1209 0.985 . S
C1204 C1198 1.379 1_554 S
C1204 C1201 1.363 . S
C1204 N1202 1.356 . S
C1205 C1199 1.363 . S
C1205 C1200 1.379 1_556 S
C1205 N1203 1.356 1_455 S
N1206 C1198 1.356 . S
N1206 H1212 0.984 . S
N1206 H1213 0.984 . S
N1207 C1200 1.356 1_655 S
N1207 H1210 0.984 . S
N1207 H1211 0.985 . S
H1208 N1203 0.984 . S
H1209 N1203 0.985 . S
H1210 N1207 0.984 . S
H1211 N1207 0.985 . S
H1212 N1206 0.984 . S
H1213 N1206 0.984 . S
H1214 N1202 0.984 . S
H1215 N1202 0.985 . S
C1216 C1217 1.363 . S
C1216 C1222 1.379 . S
C1216 N1224 1.356 . S
C1217 C1216 1.363 . S
C1217 C1223 1.363 . S
C1218 C1219 1.363 . S
C1218 C1223 1.379 . S
C1218 N1225 1.356 . S
C1219 C1218 1.363 . S
C1219 C1222 1.363 . S
N1220 C1222 1.356 . S
N1220 H1232 0.984 . S
N1220 H1233 0.985 . S
N1221 C1223 1.356 . S
N1221 H1226 0.984 . S
N1221 H1227 0.985 . S
C1222 C1216 1.379 . S
C1222 C1219 1.363 . S
C1222 N1220 1.356 . S
C1223 C1217 1.363 . S
C1223 C1218 1.379 . S
C1223 N1221 1.356 . S
N1224 C1216 1.356 . S
N1224 H1230 0.984 . S
N1224 H1231 0.984 . S
N1225 C1218 1.356 . S
N1225 H1228 0.984 . S
N1225 H1229 0.985 . S
H1226 N1221 0.984 . S
H1227 N1221 0.985 . S
H1228 N1225 0.984 . S
H1229 N1225 0.985 . S
H1230 N1224 0.984 . S
H1231 N1224 0.984 . S
H1232 N1220 0.984 . S
H1233 N1220 0.985 . S
C1234 C1235 1.363 . S
C1234 C1240 1.379 . S
C1234 N1242 1.356 . S
C1235 C1234 1.363 . S
C1235 C1241 1.363 . S
C1236 C1237 1.363 . S
C1236 C1241 1.379 . S
C1236 N1243 1.356 . S
C1237 C1236 1.363 . S
C1237 C1240 1.363 . S
N1238 C1240 1.356 . S
N1238 H1250 0.984 . S
N1238 H1251 0.985 . S
N1239 C1241 1.356 . S
N1239 H1244 0.984 . S
N1239 H1245 0.985 . S
C1240 C1234 1.379 . S
C1240 C1237 1.363 . S
C1240 N1238 1.356 . S
C1241 C1235 1.363 . S
C1241 C1236 1.379 . S
C1241 N1239 1.356 . S
N1242 C1234 1.356 . S
N1242 H1248 0.984 . S
N1242 H1249 0.984 . S
N1243 C1236 1.356 . S
N1243 H1246 0.984 . S
N1243 H1247 0.985 . S
H1244 N1239 0.984 . S
H1245 N1239 0.985 . S
H1246 N1243 0.984 . S
H1247 N1243 0.985 . S
H1248 N1242 0.984 . S
H1249 N1242 0.984 . S
H1250 N1238 0.984 . S
H1251 N1238 0.985 . S
C1252 C1253 1.363 1_556 S
C1252 C1258 1.379 . S
C1252 N1260 1.356 1_556 S
C1253 C1252 1.363 1_554 S
C1253 C1259 1.363 . S
C1254 C1255 1.363 . S
C1254 C1259 1.379 1_556 S
C1254 N1261 1.356 . S
C1255 C1254 1.363 . S
C1255 C1258 1.363 . S
N1256 C1258 1.356 . S
N1256 H1268 0.984 . S
N1256 H1269 0.985 . S
N1257 C1259 1.356 . S
N1257 H1262 0.984 . S
N1257 H1263 0.985 . S
C1258 C1252 1.379 . S
C1258 C1255 1.363 . S
C1258 N1256 1.356 . S
C1259 C1253 1.363 . S
C1259 C1254 1.379 1_554 S
C1259 N1257 1.356 . S
N1260 C1252 1.356 1_554 S
N1260 H1266 0.984 . S
N1260 H1267 0.984 . S
N1261 C1254 1.356 . S
N1261 H1264 0.984 . S
N1261 H1265 0.985 . S
H1262 N1257 0.984 . S
H1263 N1257 0.985 . S
H1264 N1261 0.984 . S
H1265 N1261 0.985 . S
H1266 N1260 0.984 . S
H1267 N1260 0.984 . S
H1268 N1256 0.984 . S
H1269 N1256 0.985 . S
C1270 C1271 1.363 . S
C1270 C1276 1.379 . S
C1270 N1278 1.356 . S
C1271 C1270 1.363 . S
C1271 C1277 1.363 . S
C1272 C1273 1.363 . S
C1272 C1277 1.379 . S
C1272 N1279 1.356 . S
C1273 C1272 1.363 . S
C1273 C1276 1.363 . S
N1274 C1276 1.356 . S
N1274 H1286 0.984 . S
N1274 H1287 0.985 . S
N1275 C1277 1.356 . S
N1275 H1280 0.984 . S
N1275 H1281 0.985 . S
C1276 C1270 1.379 . S
C1276 C1273 1.363 . S
C1276 N1274 1.356 . S
C1277 C1271 1.363 . S
C1277 C1272 1.379 . S
C1277 N1275 1.356 . S
N1278 C1270 1.356 . S
N1278 H1284 0.984 . S
N1278 H1285 0.984 . S
N1279 C1272 1.356 . S
N1279 H1282 0.984 . S
N1279 H1283 0.985 . S
H1280 N1275 0.984 . S
H1281 N1275 0.985 . S
H1282 N1279 0.984 . S
H1283 N1279 0.985 . S
H1284 N1278 0.984 . S
H1285 N1278 0.984 . S
H1286 N1274 0.984 . S
H1287 N1274 0.985 . S
C1288 C1289 1.363 . S
C1288 C1294 1.379 . S
C1288 N1296 1.356 . S
C1289 C1288 1.363 . S
C1289 C1295 1.363 . S
C1290 C1291 1.363 . S
C1290 C1295 1.379 . S
C1290 N1297 1.356 . S
C1291 C1290 1.363 . S
C1291 C1294 1.363 . S
N1292 C1294 1.356 . S
N1292 H1304 0.984 . S
N1292 H1305 0.985 . S
N1293 C1295 1.356 . S
N1293 H1298 0.984 . S
N1293 H1299 0.985 . S
C1294 C1288 1.379 . S
C1294 C1291 1.363 . S
C1294 N1292 1.356 . S
C1295 C1289 1.363 . S
C1295 C1290 1.379 . S
C1295 N1293 1.356 . S
N1296 C1288 1.356 . S
N1296 H1302 0.984 . S
N1296 H1303 0.984 . S
N1297 C1290 1.356 . S
N1297 H1300 0.984 . S
N1297 H1301 0.985 . S
H1298 N1293 0.984 . S
H1299 N1293 0.985 . S
H1300 N1297 0.984 . S
H1301 N1297 0.985 . S
H1302 N1296 0.984 . S
H1303 N1296 0.984 . S
H1304 N1292 0.984 . S
H1305 N1292 0.985 . S
C1306 C1307 1.363 . S
C1306 C1312 1.379 . S
C1306 N1314 1.356 . S
C1307 C1306 1.363 . S
C1307 C1313 1.363 . S
C1308 C1309 1.363 . S
C1308 C1313 1.379 . S
C1308 N1315 1.356 . S
C1309 C1308 1.363 . S
C1309 C1312 1.363 . S
N1310 C1312 1.356 . S
N1310 H1322 0.984 . S
N1310 H1323 0.985 . S
N1311 C1313 1.356 . S
N1311 H1316 0.984 . S
N1311 H1317 0.985 . S
C1312 C1306 1.379 . S
C1312 C1309 1.363 . S
C1312 N1310 1.356 . S
C1313 C1307 1.363 . S
C1313 C1308 1.379 . S
C1313 N1311 1.356 . S
N1314 C1306 1.356 . S
N1314 H1320 0.984 . S
N1314 H1321 0.984 . S
N1315 C1308 1.356 . S
N1315 H1318 0.984 . S
N1315 H1319 0.985 . S
H1316 N1311 0.984 . S
H1317 N1311 0.985 . S
H1318 N1315 0.984 . S
H1319 N1315 0.985 . S
H1320 N1314 0.984 . S
H1321 N1314 0.984 . S
H1322 N1310 0.984 . S
H1323 N1310 0.985 . S
C1324 C1325 1.363 . S
C1324 C1330 1.379 . S
C1324 N1332 1.356 . S
C1325 C1324 1.363 . S
C1325 C1331 1.363 . S
C1326 C1327 1.363 . S
C1326 C1331 1.379 . S
C1326 N1333 1.356 . S
C1327 C1326 1.363 . S
C1327 C1330 1.363 . S
N1328 C1330 1.356 . S
N1328 H1340 0.984 . S
N1328 H1341 0.985 . S
N1329 C1331 1.356 1_556 S
N1329 H1334 0.984 . S
N1329 H1335 0.985 . S
C1330 C1324 1.379 . S
C1330 C1327 1.363 . S
C1330 N1328 1.356 . S
C1331 C1325 1.363 . S
C1331 C1326 1.379 . S
C1331 N1329 1.356 1_554 S
N1332 C1324 1.356 . S
N1332 H1338 0.984 . S
N1332 H1339 0.984 . S
N1333 C1326 1.356 . S
N1333 H1336 0.984 . S
N1333 H1337 0.985 . S
H1334 N1329 0.984 . S
H1335 N1329 0.985 . S
H1336 N1333 0.984 . S
H1337 N1333 0.985 . S
H1338 N1332 0.984 . S
H1339 N1332 0.984 . S
H1340 N1328 0.984 . S
H1341 N1328 0.985 . S
C1342 C1343 1.363 . S
C1342 C1348 1.379 . S
C1342 N1350 1.356 . S
C1343 C1342 1.363 . S
C1343 C1349 1.363 . S
C1344 C1345 1.363 . S
C1344 C1349 1.379 . S
C1344 N1351 1.356 . S
C1345 C1344 1.363 . S
C1345 C1348 1.363 . S
N1346 C1348 1.356 . S
N1346 H1358 0.984 . S
N1346 H1359 0.985 . S
N1347 C1349 1.356 . S
N1347 H1352 0.984 . S
N1347 H1353 0.985 . S
C1348 C1342 1.379 . S
C1348 C1345 1.363 . S
C1348 N1346 1.356 . S
C1349 C1343 1.363 . S
C1349 C1344 1.379 . S
C1349 N1347 1.356 . S
N1350 C1342 1.356 . S
N1350 H1356 0.984 . S
N1350 H1357 0.984 . S
N1351 C1344 1.356 . S
N1351 H1354 0.984 . S
N1351 H1355 0.985 . S
H1352 N1347 0.984 . S
H1353 N1347 0.985 . S
H1354 N1351 0.984 . S
H1355 N1351 0.985 . S
H1356 N1350 0.984 . S
H1357 N1350 0.984 . S
H1358 N1346 0.984 . S
H1359 N1346 0.985 . S
C1360 C1361 1.363 . S
C1360 C1366 1.379 . S
C1360 N1368 1.356 . S
C1361 C1360 1.363 . S
C1361 C1367 1.363 . S
C1362 C1363 1.363 . S
C1362 C1367 1.379 . S
C1362 N1369 1.356 . S
C1363 C1362 1.363 . S
C1363 C1366 1.363 . S
N1364 C1366 1.356 . S
N1364 H1376 0.984 . S
N1364 H1377 0.985 . S
N1365 C1367 1.356 . S
N1365 H1370 0.984 . S
N1365 H1371 0.985 . S
C1366 C1360 1.379 . S
C1366 C1363 1.363 . S
C1366 N1364 1.356 . S
C1367 C1361 1.363 . S
C1367 C1362 1.379 . S
C1367 N1365 1.356 . S
N1368 C1360 1.356 . S
N1368 H1374 0.984 . S
N1368 H1375 0.984 . S
N1369 C1362 1.356 . S
N1369 H1372 0.984 . S
N1369 H1373 0.985 . S
H1370 N1365 0.984 . S
H1371 N1365 0.985 . S
H1372 N1369 0.984 . S
H1373 N1369 0.985 . S
H1374 N1368 0.984 . S
H1375 N1368 0.984 . S
H1376 N1364 0.984 . S
H1377 N1364 0.985 . S
C1378 C1379 1.363 . S
C1378 C1384 1.379 . S
C1378 N1386 1.356 . S
C1379 C1378 1.363 . S
C1379 C1385 1.363 . S
C1380 C1381 1.363 . S
C1380 C1385 1.379 . S
C1380 N1387 1.356 . S
C1381 C1380 1.363 . S
C1381 C1384 1.363 . S
N1382 C1384 1.356 . S
N1382 H1394 0.984 . S
N1382 H1395 0.985 . S
N1383 C1385 1.356 . S
N1383 H1388 0.984 . S
N1383 H1389 0.985 . S
C1384 C1378 1.379 . S
C1384 C1381 1.363 . S
C1384 N1382 1.356 . S
C1385 C1379 1.363 . S
C1385 C1380 1.379 . S
C1385 N1383 1.356 . S
N1386 C1378 1.356 . S
N1386 H1392 0.984 . S
N1386 H1393 0.984 . S
N1387 C1380 1.356 . S
N1387 H1390 0.984 . S
N1387 H1391 0.985 . S
H1388 N1383 0.984 . S
H1389 N1383 0.985 . S
H1390 N1387 0.984 . S
H1391 N1387 0.985 . S
H1392 N1386 0.984 . S
H1393 N1386 0.984 . S
H1394 N1382 0.984 . S
H1395 N1382 0.985 . S
C1396 C1397 1.363 . S
C1396 C1402 1.379 . S
C1396 N1404 1.356 . S
C1397 C1396 1.363 . S
C1397 C1403 1.363 . S
C1398 C1399 1.363 . S
C1398 C1403 1.379 . S
C1398 N1405 1.356 . S
C1399 C1398 1.363 . S
C1399 C1402 1.363 . S
N1400 C1402 1.356 . S
N1400 H1412 0.984 . S
N1400 H1413 0.985 . S
N1401 C1403 1.356 . S
N1401 H1406 0.984 . S
N1401 H1407 0.985 . S
C1402 C1396 1.379 . S
C1402 C1399 1.363 . S
C1402 N1400 1.356 . S
C1403 C1397 1.363 . S
C1403 C1398 1.379 . S
C1403 N1401 1.356 . S
N1404 C1396 1.356 . S
N1404 H1410 0.984 . S
N1404 H1411 0.984 . S
N1405 C1398 1.356 . S
N1405 H1408 0.984 . S
N1405 H1409 0.985 . S
H1406 N1401 0.984 . S
H1407 N1401 0.985 . S
H1408 N1405 0.984 . S
H1409 N1405 0.985 . S
H1410 N1404 0.984 . S
H1411 N1404 0.984 . S
H1412 N1400 0.984 . S
H1413 N1400 0.985 . S
C1414 C1415 1.363 . S
C1414 C1420 1.379 . S
C1414 N1422 1.356 . S
C1415 C1414 1.363 . S
C1415 C1421 1.363 . S
C1416 C1417 1.363 . S
C1416 C1421 1.379 . S
C1416 N1423 1.356 . S
C1417 C1416 1.363 . S
C1417 C1420 1.363 . S
N1418 C1420 1.356 . S
N1418 H1430 0.984 . S
N1418 H1431 0.985 . S
N1419 C1421 1.356 . S
N1419 H1424 0.984 . S
N1419 H1425 0.985 . S
C1420 C1414 1.379 . S
C1420 C1417 1.363 . S
C1420 N1418 1.356 . S
C1421 C1415 1.363 . S
C1421 C1416 1.379 . S
C1421 N1419 1.356 . S
N1422 C1414 1.356 . S
N1422 H1428 0.984 . S
N1422 H1429 0.984 1_655 S
N1423 C1416 1.356 . S
N1423 H1426 0.984 . S
N1423 H1427 0.985 . S
H1424 N1419 0.984 . S
H1425 N1419 0.985 . S
H1426 N1423 0.984 . S
H1427 N1423 0.985 . S
H1428 N1422 0.984 . S
H1429 N1422 0.984 1_455 S
H1430 N1418 0.984 . S
H1431 N1418 0.985 . S
C1432 C1433 1.363 . S
C1432 C1438 1.379 . S
C1432 N1440 1.356 . S
C1433 C1432 1.363 . S
C1433 C1439 1.363 . S
C1434 C1435 1.363 . S
C1434 C1439 1.379 1_556 S
C1434 N1441 1.356 . S
C1435 C1434 1.363 . S
C1435 C1438 1.363 1_556 S
N1436 C1438 1.366 . S
N1436 H1448 0.996 . S
N1436 H1449 0.964 1_554 S
N1437 C1439 1.356 . S
N1437 H1442 0.984 . S
N1437 H1443 0.985 . S
C1438 C1432 1.379 . S
C1438 C1435 1.363 1_554 S
C1438 N1436 1.366 . S
C1439 C1433 1.363 . S
C1439 C1434 1.379 1_554 S
C1439 N1437 1.356 . S
N1440 C1432 1.356 . S
N1440 H1446 0.984 . S
N1440 H1447 0.984 . S
N1441 C1434 1.356 . S
N1441 H1444 0.984 . S
N1441 H1445 0.985 . S
H1442 N1437 0.984 . S
H1443 N1437 0.985 . S
H1444 N1441 0.984 . S
H1445 N1441 0.985 . S
H1446 N1440 0.984 . S
H1447 N1440 0.984 . S
H1448 N1436 0.996 . S
H1449 N1436 0.964 1_556 S
C1450 C1451 1.363 . S
C1450 C1456 1.379 . S
C1450 N1458 1.356 . S
C1451 C1450 1.363 . S
C1451 C1457 1.363 . S
C1452 C1453 1.363 . S
C1452 C1457 1.379 . S
C1452 N1459 1.356 . S
C1453 C1452 1.363 . S
C1453 C1456 1.363 . S
N1454 C1456 1.356 . S
N1454 H1466 0.984 . S
N1454 H1467 0.985 . S
N1455 C1457 1.356 . S
N1455 H1460 0.984 . S
N1455 H1461 0.985 . S
C1456 C1450 1.379 . S
C1456 C1453 1.363 . S
C1456 N1454 1.356 . S
C1457 C1451 1.363 . S
C1457 C1452 1.379 . S
C1457 N1455 1.356 . S
N1458 C1450 1.356 . S
N1458 H1464 0.984 1_556 S
N1458 H1465 0.984 . S
N1459 C1452 1.356 . S
N1459 H1462 0.984 . S
N1459 H1463 0.985 . S
H1460 N1455 0.984 . S
H1461 N1455 0.985 . S
H1462 N1459 0.984 . S
H1463 N1459 0.985 . S
H1464 N1458 0.984 1_554 S
H1465 N1458 0.984 . S
H1466 N1454 0.984 . S
H1467 N1454 0.985 . S
C1468 C1469 1.363 . S
C1468 C1474 1.379 . S
C1468 N1476 1.356 . S
C1469 C1468 1.363 . S
C1469 C1475 1.363 . S
C1470 C1471 1.363 . S
C1470 C1475 1.379 . S
C1470 N1477 1.356 . S
C1471 C1470 1.363 . S
C1471 C1474 1.363 . S
N1472 C1474 1.356 . S
N1472 H1484 0.984 . S
N1472 H1485 0.985 . S
N1473 C1475 1.356 . S
N1473 H1478 0.984 . S
N1473 H1479 0.985 . S
C1474 C1468 1.379 . S
C1474 C1471 1.363 . S
C1474 N1472 1.356 . S
C1475 C1469 1.363 . S
C1475 C1470 1.379 . S
C1475 N1473 1.356 . S
N1476 C1468 1.356 . S
N1476 H1482 0.984 . S
N1476 H1483 0.984 . S
N1477 C1470 1.356 . S
N1477 H1480 0.984 . S
N1477 H1481 0.985 . S
H1478 N1473 0.984 . S
H1479 N1473 0.985 . S
H1480 N1477 0.984 . S
H1481 N1477 0.985 . S
H1482 N1476 0.984 . S
H1483 N1476 0.984 . S
H1484 N1472 0.984 . S
H1485 N1472 0.985 . S
C1486 C1487 1.363 . S
C1486 C1492 1.379 . S
C1486 N1494 1.356 . S
C1487 C1486 1.363 . S
C1487 C1493 1.363 . S
C1488 C1489 1.363 . S
C1488 C1493 1.379 . S
C1488 N1495 1.356 . S
C1489 C1488 1.363 . S
C1489 C1492 1.363 . S
N1490 C1492 1.356 . S
N1490 H1502 0.984 . S
N1490 H1503 0.985 . S
N1491 C1493 1.356 . S
N1491 H1496 0.984 . S
N1491 H1497 0.985 . S
C1492 C1486 1.379 . S
C1492 C1489 1.363 . S
C1492 N1490 1.356 . S
C1493 C1487 1.363 . S
C1493 C1488 1.379 . S
C1493 N1491 1.356 . S
N1494 C1486 1.356 . S
N1494 H1500 0.984 . S
N1494 H1501 0.984 . S
N1495 C1488 1.356 . S
N1495 H1498 0.984 . S
N1495 H1499 0.985 . S
H1496 N1491 0.984 . S
H1497 N1491 0.985 . S
H1498 N1495 0.984 . S
H1499 N1495 0.985 . S
H1500 N1494 0.984 . S
H1501 N1494 0.984 . S
H1502 N1490 0.984 . S
H1503 N1490 0.985 . S
C641 C6 1.174 . S
C643 C286 1.344 . S
C659 C59 1.171 . S
C661 C166 1.116 . S
C677 C206 0.815 . S
C679 C99 0.452 . S
C695 C139 1.073 . S
C697 C246 1.033 . S
C713 C455 1.028 . S
C715 C170 1.064 . S
C731 C330 2.894 . S
C733 C10 2.801 1_556 S
C749 C415 1.089 . S
C751 C250 1.139 . S
C767 C95 2.041 . S
C769 C370 2.025 . S
C785 C366 1.342 . S
C787 C486 1.172 . S
C803 C419 1.173 . S
C805 C566 1.117 . S
C821 C539 0.451 . S
C823 C326 0.814 . S
C839 C459 1.074 . S
C841 C606 1.034 . S
C857 C570 1.065 . S
C859 C135 1.029 . S
C875 C490 2.800 . S
C877 C210 2.895 . S
C893 C55 1.091 . S
C895 C610 1.142 1_554 S
C911 C290 2.026 . S
C913 C535 2.041 . S
C929 C538 0.939 . S
C931 C9 0.944 . S
C947 C458 0.775 . S
C949 C58 0.775 . S
C965 C489 0.937 . S
C967 C98 0.940 . S
C983 C418 0.775 . S
C985 C138 0.775 . S
C1001 C169 0.761 . S
C1003 C609 0.761 . S
C1019 C369 1.358 . S
C1021 C209 1.648 . S
C1037 C249 0.761 . S
C1039 C569 0.762 . S
C1055 C289 1.358 . S
C1057 C329 1.648 . S
C1073 C18 1.949 1_465 S
C1075 C178 1.913 . S
C1091 C49 1.772 . S
C1093 C218 1.810 . S
C1109 C258 1.973 . S
C1111 C89 1.981 . S
C1127 C129 2.199 . S
C1129 C298 2.155 . S
C1145 C409 1.774 . S
C1147 C338 1.812 . S
C1163 C449 2.199 . S
C1165 C378 2.155 . S
C1181 C498 1.951 . S
C1183 C578 1.912 . S
C1199 C618 1.971 . S
C1201 C529 1.979 . S
C1217 C19 3.688 . S
C1219 C299 3.711 . S
C1235 C46 2.082 . S
C1237 C179 2.209 . S
C1253 C219 2.964 . S
C1255 C86 2.883 . S
C1271 C259 2.182 . S
C1273 C126 2.047 . S
C1289 C450 2.164 . S
C1291 C175 2.039 . S
C1307 C335 0.825 . S
C1309 C15 0.825 . S
C1325 C410 2.171 1_554 S
C1327 C255 2.047 . S
C1343 C90 1.158 . S
C1345 C375 1.074 . S
C1361 C499 3.688 . S
C1363 C379 3.695 1_556 S
C1379 C579 2.211 . S
C1381 C406 2.083 . S
C1397 C526 2.883 . S
C1399 C339 2.964 . S
C1415 C619 2.182 . S
C1417 C446 2.047 . S
C1433 C575 2.037 . S
C1435 C130 2.161 . S
C1451 C215 0.826 . S
C1453 C495 0.823 . S
C1469 C50 2.170 . S
C1471 C615 2.045 . S
C1487 C530 1.158 . S
C1489 C295 1.074 . S
