# Generated by pormake.
# Topology crs, (6)-cn, num edge types: 1
# Building blocks:
#     Node 0, Type 0, BuildingBlock: NUHQIS_clean_sbu_0, # of connection points: 6
#     Node 1, Type 0, BuildingBlock: NUHQIS_clean_sbu_0, # of connection points: 6
#     Node 2, Type 0, BuildingBlock: NUHQIS_clean_sbu_0, # of connection points: 6
#     Node 3, Type 0, BuildingBlock: NUHQIS_clean_sbu_0, # of connection points: 6
#     Node 4, Type 0, BuildingBlock: NUHQIS_clean_sbu_0, # of connection points: 6
#     Node 5, Type 0, BuildingBlock: NUHQIS_clean_sbu_0, # of connection points: 6
#     Node 6, Type 0, BuildingBlock: NUHQIS_clean_sbu_0, # of connection points: 6
#     Node 7, Type 0, BuildingBlock: NUHQIS_clean_sbu_0, # of connection points: 6
#     Node 8, Type 0, BuildingBlock: NUHQIS_clean_sbu_0, # of connection points: 6
#     Node 9, Type 0, BuildingBlock: NUHQIS_clean_sbu_0, # of connection points: 6
#     Node 10, Type 0, BuildingBlock: NUHQIS_clean_sbu_0, # of connection points: 6
#     Node 11, Type 0, BuildingBlock: NUHQIS_clean_sbu_0, # of connection points: 6
#     Node 12, Type 0, BuildingBlock: NUHQIS_clean_sbu_0, # of connection points: 6
#     Node 13, Type 0, BuildingBlock: NUHQIS_clean_sbu_0, # of connection points: 6
#     Node 14, Type 0, BuildingBlock: NUHQIS_clean_sbu_0, # of connection points: 6
#     Node 15, Type 0, BuildingBlock: NUHQIS_clean_sbu_0, # of connection points: 6
#     Edge 16, Type (0, 0), BuildingBlock: XIVTED_clean_linker_0, # of connection points: 2
#     Edge 17, Type (0, 0), BuildingBlock: XIVTED_clean_linker_0, # of connection points: 2
#     Edge 18, Type (0, 0), BuildingBlock: XIVTED_clean_linker_0, # of connection points: 2
#     Edge 19, Type (0, 0), BuildingBlock: XIVTED_clean_linker_0, # of connection points: 2
#     Edge 20, Type (0, 0), BuildingBlock: XIVTED_clean_linker_0, # of connection points: 2
#     Edge 21, Type (0, 0), BuildingBlock: XIVTED_clean_linker_0, # of connection points: 2
#     Edge 22, Type (0, 0), BuildingBlock: XIVTED_clean_linker_0, # of connection points: 2
#     Edge 23, Type (0, 0), BuildingBlock: XIVTED_clean_linker_0, # of connection points: 2
#     Edge 24, Type (0, 0), BuildingBlock: XIVTED_clean_linker_0, # of connection points: 2
#     Edge 25, Type (0, 0), BuildingBlock: XIVTED_clean_linker_0, # of connection points: 2
#     Edge 26, Type (0, 0), BuildingBlock: XIVTED_clean_linker_0, # of connection points: 2
#     Edge 27, Type (0, 0), BuildingBlock: XIVTED_clean_linker_0, # of connection points: 2
#     Edge 28, Type (0, 0), BuildingBlock: XIVTED_clean_linker_0, # of connection points: 2
#     Edge 29, Type (0, 0), BuildingBlock: XIVTED_clean_linker_0, # of connection points: 2
#     Edge 30, Type (0, 0), BuildingBlock: XIVTED_clean_linker_0, # of connection points: 2
#     Edge 31, Type (0, 0), BuildingBlock: XIVTED_clean_linker_0, # of connection points: 2
#     Edge 32, Type (0, 0), BuildingBlock: XIVTED_clean_linker_0, # of connection points: 2
#     Edge 33, Type (0, 0), BuildingBlock: XIVTED_clean_linker_0, # of connection points: 2
#     Edge 34, Type (0, 0), BuildingBlock: XIVTED_clean_linker_0, # of connection points: 2
#     Edge 35, Type (0, 0), BuildingBlock: XIVTED_clean_linker_0, # of connection points: 2
#     Edge 36, Type (0, 0), BuildingBlock: XIVTED_clean_linker_0, # of connection points: 2
#     Edge 37, Type (0, 0), BuildingBlock: XIVTED_clean_linker_0, # of connection points: 2
#     Edge 38, Type (0, 0), BuildingBlock: XIVTED_clean_linker_0, # of connection points: 2
#     Edge 39, Type (0, 0), BuildingBlock: XIVTED_clean_linker_0, # of connection points: 2
#     Edge 40, Type (0, 0), BuildingBlock: XIVTED_clean_linker_0, # of connection points: 2
#     Edge 41, Type (0, 0), BuildingBlock: XIVTED_clean_linker_0, # of connection points: 2
#     Edge 42, Type (0, 0), BuildingBlock: XIVTED_clean_linker_0, # of connection points: 2
#     Edge 43, Type (0, 0), BuildingBlock: XIVTED_clean_linker_0, # of connection points: 2
#     Edge 44, Type (0, 0), BuildingBlock: XIVTED_clean_linker_0, # of connection points: 2
#     Edge 45, Type (0, 0), BuildingBlock: XIVTED_clean_linker_0, # of connection points: 2
#     Edge 46, Type (0, 0), BuildingBlock: XIVTED_clean_linker_0, # of connection points: 2
#     Edge 47, Type (0, 0), BuildingBlock: XIVTED_clean_linker_0, # of connection points: 2
#     Edge 48, Type (0, 0), BuildingBlock: XIVTED_clean_linker_0, # of connection points: 2
#     Edge 49, Type (0, 0), BuildingBlock: XIVTED_clean_linker_0, # of connection points: 2
#     Edge 50, Type (0, 0), BuildingBlock: XIVTED_clean_linker_0, # of connection points: 2
#     Edge 51, Type (0, 0), BuildingBlock: XIVTED_clean_linker_0, # of connection points: 2
#     Edge 52, Type (0, 0), BuildingBlock: XIVTED_clean_linker_0, # of connection points: 2
#     Edge 53, Type (0, 0), BuildingBlock: XIVTED_clean_linker_0, # of connection points: 2
#     Edge 54, Type (0, 0), BuildingBlock: XIVTED_clean_linker_0, # of connection points: 2
#     Edge 55, Type (0, 0), BuildingBlock: XIVTED_clean_linker_0, # of connection points: 2
#     Edge 56, Type (0, 0), BuildingBlock: XIVTED_clean_linker_0, # of connection points: 2
#     Edge 57, Type (0, 0), BuildingBlock: XIVTED_clean_linker_0, # of connection points: 2
#     Edge 58, Type (0, 0), BuildingBlock: XIVTED_clean_linker_0, # of connection points: 2
#     Edge 59, Type (0, 0), BuildingBlock: XIVTED_clean_linker_0, # of connection points: 2
#     Edge 60, Type (0, 0), BuildingBlock: XIVTED_clean_linker_0, # of connection points: 2
#     Edge 61, Type (0, 0), BuildingBlock: XIVTED_clean_linker_0, # of connection points: 2
#     Edge 62, Type (0, 0), BuildingBlock: XIVTED_clean_linker_0, # of connection points: 2
#     Edge 63, Type (0, 0), BuildingBlock: XIVTED_clean_linker_0, # of connection points: 2
# Relax obj value: 0.463
# Max RMSD: 0.364
# Mean RMSD: 0.312
data_MOF--net-crs--node1-NUHQIS_clean_sbu_0--edge1-XIVTED_clean_linker_0
_symmetry_space_group_name_H-M    P1
_symmetry_Int_Tables_number       1
_symmetry_cell_setting            triclinic
loop_
_symmetry_equiv_pos_as_xyz
'x, y, z'
_cell_length_a     52.51151
_cell_length_b     57.345422
_cell_length_c     44.136519
_cell_angle_alpha  73.992733
_cell_angle_beta   76.065702
_cell_angle_gamma 66.370461
loop_
_atom_site_label
_atom_site_type_symbol
_atom_site_fract_x
_atom_site_fract_y
_atom_site_fract_z
_atom_type_partial_charge
Tb0 Tb -0.02198 1.00039 0.03624 0.0
Eu1 Eu -0.01843 0.04113 0.96732 0.0
C2 C 0.03288 1.01303 1.00717 0.0
C3 C -0.03242 0.05813 0.03491 0.0
C4 C 0.95406 0.95213 0.09168 0.0
C5 C 0.93846 0.91683 0.12246 0.0
C6 C 0.95377 0.9328 0.11917 0.0
C7 C 0.93868 0.9556 0.06781 0.0
C8 C 0.92368 0.93965 0.07093 0.0
C9 C 0.92365 0.91991 0.09807 0.0
C10 C -0.02889 0.96823 0.08638 0.0
O11 O 0.93553 0.02233 0.02515 0.0
O12 O 0.94509 0.02927 0.97094 0.0
O13 O 0.00088 1.00105 0.95583 0.0
O14 O -0.02072 0.98039 1.00034 0.0
C15 C 0.92826 0.02564 0.99748 0.0
O16 O 0.96099 0.07663 0.93469 0.0
O17 O 0.0047 0.0533 0.92165 0.0
O18 O 0.01859 0.03472 0.98948 0.0
O19 O 0.02232 0.99487 0.02173 0.0
O20 O -0.0201 0.03378 0.04842 0.0
O21 O 0.9607 0.06446 1.00618 0.0
C22 C -0.00685 0.98124 0.97125 0.0
O23 O -0.00707 0.96296 0.06434 0.0
O24 O 0.95698 0.99315 0.08278 0.0
C25 C -0.00741 0.09843 0.90862 0.0
C26 C 0.01734 0.13534 0.9016 0.0
C27 C -0.00299 0.13214 0.92803 0.0
C28 C -0.01512 0.11373 0.93163 0.0
C29 C 0.01154 0.10271 0.88123 0.0
C30 C 0.02389 0.12101 0.87775 0.0
C31 C -0.01561 0.07562 0.91529 0.0
H32 H 0.93874 0.9017 0.1436 0.0
H33 H 0.96561 0.92985 0.13776 0.0
H34 H 0.93853 0.97052 0.04648 0.0
H35 H 0.91205 0.9428 0.05204 0.0
H36 H -0.00817 0.14263 0.947 0.0
H37 H -0.02938 0.11053 0.95324 0.0
H38 H 0.01789 0.09096 0.86335 0.0
H39 H 0.03937 0.12323 0.85705 0.0
Tb40 Tb -0.02567 0.27404 0.29077 0.0
Eu41 Eu 0.94039 0.2653 0.24254 0.0
C42 C -0.00619 0.21917 0.27213 0.0
C43 C -0.00718 0.28277 0.21711 0.0
C44 C -0.00182 0.30519 0.33728 0.0
C45 C 0.0222 0.32528 0.35695 0.0
C46 C 0.02267 0.30472 0.34528 0.0
C47 C -0.02667 0.32689 0.34018 0.0
C48 C -0.02723 0.34733 0.3521 0.0
C49 C -0.0029 0.34658 0.36107 0.0
C50 C -0.00147 0.28238 0.32764 0.0
O51 O 0.93655 0.3086 0.28694 0.0
O52 O 0.92435 0.30857 0.24013 0.0
O53 O 0.91316 0.27 0.28975 0.0
O54 O 0.94937 0.25073 0.31866 0.0
C55 C 0.92225 0.32033 0.26288 0.0
O56 O 0.92779 0.27284 0.19604 0.0
O57 O 0.91274 0.24759 0.23634 0.0
O58 O -0.02989 0.22536 0.2615 0.0
O59 O 0.00074 0.23616 0.27999 0.0
O60 O -0.01402 0.29311 0.24239 0.0
O61 O -0.01812 0.26638 0.2153 0.0
C62 C 0.92263 0.2581 0.31688 0.0
O63 O -0.0245 0.27723 0.33651 0.0
O64 O 0.00935 0.27984 0.29836 0.0
C65 C 0.92103 0.23755 0.18587 0.0
C66 C 0.93248 0.19962 0.15014 0.0
C67 C 0.90676 0.22077 0.1505 0.0
C68 C 0.9011 0.23953 0.16826 0.0
C69 C 0.94688 0.21676 0.18529 0.0
C70 C 0.95256 0.19795 0.16759 0.0
C71 C 0.91428 0.25669 0.20566 0.0
H72 H 0.04122 0.32404 0.36385 0.0
H73 H 0.04205 0.28816 0.3432 0.0
H74 H 0.9542 0.3278 0.3339 0.0
H75 H 0.95322 0.36364 0.35459 0.0
H76 H 0.8907 0.22249 0.13769 0.0
H77 H 0.88098 0.2554 0.16859 0.0
H78 H 0.96254 0.21497 0.19876 0.0
H79 H -0.02729 0.18213 0.16751 0.0
Tb80 Tb 0.72307 0.27592 0.55371 0.0
Eu81 Eu 0.70923 0.25609 0.49823 0.0
C82 C 0.66111 0.28026 0.55322 0.0
C83 C 0.71897 0.22032 0.56632 0.0
C84 C 0.7508 0.30462 0.59855 0.0
C85 C 0.77496 0.3164 0.62892 0.0
C86 C 0.7589 0.30247 0.62747 0.0
C87 C 0.75843 0.32113 0.5711 0.0
C88 C 0.77442 0.33514 0.57253 0.0
C89 C 0.78315 0.33268 0.60139 0.0
C90 C 0.73566 0.28853 0.59704 0.0
O91 O 0.75788 0.27406 0.51517 0.0
O92 O 0.75614 0.24106 0.49742 0.0
O93 O 0.71582 0.29378 0.47492 0.0
O94 O 0.70775 0.3117 0.51847 0.0
C95 C 0.7697 0.25545 0.49892 0.0
O96 O 0.71654 0.22516 0.47383 0.0
O97 O 0.69106 0.26488 0.45519 0.0
O98 O 0.66667 0.27695 0.52371 0.0
O99 O 0.68078 0.276 0.56979 0.0
O100 O 0.73351 0.23382 0.56826 0.0
O101 O 0.70343 0.22798 0.54371 0.0
C102 C 0.7101 0.31389 0.4875 0.0
O103 O 0.71195 0.30075 0.58569 0.0
O104 O 0.75098 0.26782 0.58532 0.0
C105 C 0.68103 0.23167 0.44497 0.0
C106 C 0.64268 0.21565 0.42912 0.0
C107 C 0.66547 0.21919 0.40652 0.0
C108 C 0.68448 0.22713 0.41442 0.0
C109 C 0.65836 0.22828 0.46769 0.0
C110 C 0.6393 0.22029 0.45982 0.0
C111 C 0.70084 0.2407 0.45224 0.0
H112 H 0.78163 0.31383 0.65139 0.0
H113 H 0.75327 0.28962 0.6488 0.0
H114 H 0.75234 0.32291 0.54855 0.0
H115 H 0.78004 0.34781 0.55102 0.0
H116 H 0.66844 0.21613 0.38257 0.0
H117 H 0.7018 0.2299 0.39657 0.0
H118 H 0.65543 0.23182 0.49139 0.0
H119 H 0.62216 0.21743 0.47787 0.0
Tb120 Tb 0.70696 1.00801 0.75715 0.0
Eu121 Eu 0.7196 0.03283 0.80835 0.0
C122 C 0.76652 0.98857 0.77582 0.0
C123 C 0.70668 0.98021 0.8306 0.0
C124 C 0.68857 0.99178 0.68987 0.0
C125 C 0.6675 0.97743 0.65885 0.0
C126 C 0.67904 0.97341 0.68598 0.0
C127 C 0.68625 1.01448 0.66639 0.0
C128 C 0.67481 1.01847 0.63906 0.0
C129 C 0.66549 0.99987 0.63492 0.0
C130 C 0.70221 0.98596 0.71775 0.0
O131 O 0.66483 0.03341 0.77379 0.0
O132 O 0.67632 0.05804 0.79798 0.0
O133 O 0.72999 0.0548 0.75872 0.0
O134 O 0.7026 0.04733 0.73168 0.0
C135 C 0.65799 0.05326 0.78744 0.0
O136 O 0.70492 0.0513 0.84939 0.0
O137 O 0.74712 0.04592 0.82385 0.0
O138 O 0.75629 0.99569 0.80333 0.0
O139 O 0.75185 0.99943 0.7522 0.0
O140 O 0.7126 0.97805 0.80058 0.0
O141 O 0.7036 1.00158 0.83888 0.0
C142 C 0.71711 0.06071 0.73395 0.0
O143 O 0.72201 0.99514 0.71406 0.0
O144 O 0.68596 0.9881 0.74507 0.0
C145 C 0.73979 0.04424 0.87888 0.0
C146 C 0.76605 0.02677 0.93349 0.0
C147 C 0.75632 0.05337 0.91932 0.0
C148 C 0.74331 0.062 0.8922 0.0
C149 C 0.74775 1.01794 0.89392 0.0
C150 C 0.76076 1.00925 0.92115 0.0
C151 C 0.72897 0.05325 0.84858 0.0
H152 H 0.65985 0.96304 0.65686 0.0
H153 H 0.68068 0.9558 0.7039 0.0
H154 H 0.69355 0.02892 0.66899 0.0
H155 H 0.6736 0.03593 0.62104 0.0
H156 H 0.76045 0.06734 0.9278 0.0
H157 H 0.73709 0.08239 0.88085 0.0
H158 H 0.74483 1.00406 0.88395 0.0
H159 H 0.76783 0.9887 0.93167 0.0
Tb160 Tb 0.4753 0.77553 0.28868 0.0
Eu161 Eu 0.44083 0.76554 0.24184 0.0
C162 C 0.49446 0.71994 0.27145 0.0
C163 C 0.49305 0.78308 0.21517 0.0
C164 C 0.50048 0.80789 0.33236 0.0
C165 C 0.52513 0.82854 0.35008 0.0
C166 C 0.52541 0.80803 0.33849 0.0
C167 C 0.47537 0.82902 0.33695 0.0
C168 C 0.47503 0.8494 0.3488 0.0
C169 C 0.49982 0.84917 0.356 0.0
C170 C 0.50076 0.78491 0.32321 0.0
O171 O 0.4368 0.80935 0.28594 0.0
O172 O 0.42376 0.80882 0.2399 0.0
O173 O 0.4146 0.76755 0.28997 0.0
O174 O 0.45061 0.75287 0.31915 0.0
C175 C 0.42183 0.82071 0.26244 0.0
O176 O 0.42856 0.77238 0.19531 0.0
O177 O 0.41315 0.74772 0.23599 0.0
O178 O 0.47088 0.72593 0.26072 0.0
O179 O 0.50132 0.73709 0.27908 0.0
O180 O 0.48572 0.79432 0.23973 0.0
O181 O 0.4824 0.76622 0.21433 0.0
C182 C 0.42446 0.75737 0.31714 0.0
O183 O 0.47819 0.77912 0.33356 0.0
O184 O 0.5104 0.78261 0.29368 0.0
C185 C 0.42184 0.7367 0.18607 0.0
C186 C 0.43342 0.69758 0.15211 0.0
C187 C 0.40736 0.71831 0.15272 0.0
C188 C 0.40163 0.73766 0.16959 0.0
C189 C 0.44802 0.71633 0.18523 0.0
C190 C 0.45377 0.69694 0.1684 0.0
C191 C 0.41496 0.75631 0.20522 0.0
H192 H 0.54452 0.82771 0.3556 0.0
H193 H 0.54499 0.79191 0.33511 0.0
H194 H 0.45589 0.82946 0.33213 0.0
H195 H 0.45528 0.86521 0.3527 0.0
H196 H 0.39108 0.71925 0.14082 0.0
H197 H 0.38124 0.75317 0.17018 0.0
H198 H 0.46388 0.7153 0.19788 0.0
H199 H 0.47417 0.68147 0.16811 0.0
Tb200 Tb 0.22802 0.78015 0.55426 0.0
Eu201 Eu 0.20718 0.76275 0.50193 0.0
C202 C 0.16427 0.78645 0.56051 0.0
C203 C 0.21983 0.7258 0.569 0.0
C204 C 0.26197 0.80635 0.59598 0.0
C205 C 0.27612 0.82741 0.62619 0.0
C206 C 0.25927 0.81446 0.62411 0.0
C207 C 0.28144 0.81161 0.56966 0.0
C208 C 0.29843 0.82447 0.57176 0.0
C209 C 0.29603 0.83237 0.60014 0.0
C210 C 0.24493 0.79172 0.59507 0.0
O211 O 0.26226 0.77483 0.51458 0.0
O212 O 0.25412 0.74415 0.49865 0.0
O213 O 0.21782 0.79815 0.47689 0.0
O214 O 0.21215 0.81615 0.5195 0.0
C215 C 0.27071 0.75618 0.49863 0.0
O216 O 0.21165 0.7336 0.47614 0.0
O217 O 0.18369 0.77348 0.46259 0.0
O218 O 0.16726 0.78449 0.53078 0.0
O219 O 0.18577 0.7812 0.57475 0.0
O220 O 0.23554 0.73853 0.57008 0.0
O221 O 0.2031 0.73413 0.54743 0.0
C222 C 0.2137 0.81818 0.48872 0.0
O223 O 0.22091 0.80526 0.58476 0.0
O224 O 0.25823 0.77068 0.58348 0.0
C225 C 0.17405 0.74069 0.45018 0.0
C226 C 0.13764 0.722 0.43504 0.0
C227 C 0.15818 0.72882 0.41143 0.0
C228 C 0.17622 0.73806 0.41898 0.0
C229 C 0.15339 0.73432 0.47387 0.0
C230 C 0.13525 0.72504 0.46633 0.0
C231 C 0.19377 0.74996 0.45716 0.0
H232 H 0.27399 0.83301 0.64845 0.0
H233 H 0.24436 0.81046 0.64465 0.0
H234 H 0.28367 0.80555 0.54768 0.0
H235 H 0.31335 0.82832 0.55118 0.0
H236 H 0.16027 0.72709 0.38705 0.0
H237 H 0.19201 0.74307 0.40042 0.0
H238 H 0.15151 0.73629 0.49811 0.0
H239 H 0.11979 0.71971 0.48509 0.0
Tb240 Tb 0.21225 0.51131 0.75518 0.0
Eu241 Eu 0.22341 0.53519 0.80809 0.0
C242 C 0.27104 0.49172 0.77514 0.0
C243 C 0.21114 0.4823 0.82802 0.0
C244 C 0.19214 0.49819 0.68756 0.0
C245 C 0.18913 0.49344 0.63577 0.0
C246 C 0.20515 0.48933 0.65909 0.0
C247 C 0.16317 0.51243 0.69187 0.0
C248 C 0.14711 0.51627 0.66874 0.0
C249 C 0.15991 0.50623 0.64092 0.0
C250 C 0.20895 0.49116 0.71295 0.0
O251 O 0.16946 0.53446 0.77307 0.0
O252 O 0.17976 0.55956 0.79774 0.0
O253 O 0.23377 0.55815 0.75916 0.0
O254 O 0.20547 0.55164 0.73258 0.0
C255 C 0.16181 0.55413 0.78728 0.0
O256 O 0.20753 0.55323 0.84953 0.0
O257 O 0.25013 0.54798 0.82547 0.0
O258 O 0.26053 0.49819 0.80297 0.0
O259 O 0.25675 0.50366 0.75131 0.0
O260 O 0.21798 0.48046 0.79783 0.0
O261 O 0.20743 0.50355 0.83701 0.0
C262 C 0.22013 0.56485 0.73486 0.0
O263 O 0.22564 0.50386 0.70884 0.0
O264 O 0.19601 0.48818 0.74217 0.0
C265 C 0.24142 0.54537 0.88078 0.0
C266 C 0.26629 0.52658 0.93652 0.0
C267 C 0.2572 0.5533 0.9228 0.0
C268 C 0.24488 0.56258 0.89512 0.0
C269 C 0.24868 0.519 0.89535 0.0
C270 C 0.261 0.50965 0.92314 0.0
C271 C 0.23142 0.55499 0.84996 0.0
H272 H 0.19934 0.4854 0.61457 0.0
H273 H 0.22754 0.47844 0.65538 0.0
H274 H 0.15283 0.51978 0.71351 0.0
H275 H 0.12458 0.52634 0.673 0.0
H276 H 0.26136 0.56683 0.93209 0.0
H277 H 0.23918 0.58303 0.88414 0.0
H278 H 0.2458 0.50554 0.88458 0.0
H279 H 0.26758 0.48903 0.93328 0.0
Tb280 Tb -0.03002 0.50214 0.53767 0.0
Eu281 Eu -0.01975 0.54013 0.46841 0.0
C282 C 0.02796 0.50916 0.51277 0.0
C283 C 0.96462 0.55873 0.53525 0.0
C284 C 0.93942 0.45841 0.59359 0.0
C285 C 0.92089 0.425 0.62426 0.0
C286 C 0.93779 0.43947 0.62114 0.0
C287 C 0.92368 0.46317 0.56955 0.0
C288 C 0.90702 0.44874 0.57254 0.0
C289 C 0.90579 0.42925 0.59966 0.0
C290 C 0.95855 0.47244 0.5883 0.0
O291 O 0.92921 0.52708 0.52345 0.0
O292 O 0.94164 0.53209 0.46962 0.0
O293 O -0.00298 0.49933 0.45921 0.0
O294 O -0.03001 0.4827 0.50176 0.0
C295 C 0.92313 0.53036 0.49515 0.0
O296 O 0.96336 0.57489 0.43291 0.0
O297 O 0.00722 0.5501 0.42486 0.0
O298 O 0.01622 0.53121 0.49385 0.0
O299 O 0.01508 0.49253 0.5256 0.0
O300 O -0.02558 0.53431 0.54984 0.0
O301 O 0.95971 0.56517 0.50562 0.0
C302 C -0.01417 0.48158 0.47378 0.0
O303 O -0.01924 0.46507 0.56729 0.0
O304 O 0.94658 0.49767 0.58332 0.0
C305 C -0.00333 0.59499 0.41089 0.0
C306 C 0.01959 0.63314 0.40441 0.0
C307 C 0.02296 0.62192 0.37838 0.0
C308 C 0.01156 0.60294 0.38163 0.0
C309 C -0.00748 0.60674 0.43654 0.0
C310 C 0.00374 0.6257 0.43331 0.0
C311 C -0.01194 0.57266 0.41602 0.0
H312 H 0.9203 0.41 0.64535 0.0
H313 H 0.94994 0.43554 0.63982 0.0
H314 H 0.92468 0.47775 0.5481 0.0
H315 H 0.89525 0.45271 0.55347 0.0
H316 H 0.03497 0.62738 0.35579 0.0
H317 H 0.01514 0.59389 0.36168 0.0
H318 H -0.01849 0.60052 0.4595 0.0
H319 H 0.0012 0.63354 0.454 0.0
Tb320 Tb 0.22592 0.281 0.05686 0.0
Eu321 Eu 0.20577 0.26409 1.00334 0.0
C322 C 0.16226 0.28823 0.06135 0.0
C323 C 0.218 0.22674 0.07013 0.0
C324 C 0.26043 0.30505 0.1005 0.0
C325 C 0.28521 0.3149 0.13222 0.0
C326 C 0.2668 0.30354 0.13017 0.0
C327 C 0.27232 0.31832 0.07281 0.0
C328 C 0.29073 0.32975 0.07482 0.0
C329 C 0.29757 0.32796 0.10456 0.0
C330 C 0.24247 0.29158 0.09888 0.0
O331 O 0.26028 0.27645 1.0175 0.0
O332 O 0.25291 0.24637 0.99931 0.0
O333 O 0.21603 0.29968 0.9787 0.0
O334 O 0.21135 0.31711 0.02163 0.0
C335 C 0.26913 0.25841 1.00056 0.0
O336 O 0.21108 0.23525 0.97676 0.0
O337 O 0.18119 0.27452 0.96497 0.0
O338 O 0.16578 0.28649 0.03146 0.0
O339 O 0.18344 0.28246 0.07633 0.0
O340 O 0.23387 0.23922 0.07145 0.0
O341 O 0.20117 0.23553 0.04865 0.0
C342 C 0.21272 0.31936 0.99078 0.0
O343 O 0.21907 0.30592 0.08747 0.0
O344 O 0.25535 0.27042 0.0875 0.0
C345 C 0.17123 0.24067 0.95508 0.0
C346 C 0.13566 0.22022 0.94128 0.0
C347 C 0.13499 0.24539 0.92606 0.0
C348 C 0.15274 0.25545 0.93278 0.0
C349 C 0.17135 0.21577 0.97101 0.0
C350 C 0.15376 0.20563 0.96409 0.0
C351 C 0.19135 0.25094 0.95969 0.0
H352 H 0.2903 0.31287 0.1554 0.0
H353 H 0.25789 0.29317 0.15173 0.0
H354 H 0.26761 0.31957 0.04969 0.0
H355 H 0.29959 0.33999 0.05312 0.0
H356 H 0.12141 0.25696 0.90819 0.0
H357 H 0.15246 0.27461 0.92003 0.0
H358 H 0.18533 0.20393 0.98839 0.0
H359 H 0.15442 0.18628 0.97645 0.0
Tb360 Tb 0.20836 1.01107 0.25292 0.0
Eu361 Eu 0.2176 0.03587 0.30673 0.0
C362 C 0.26613 0.9919 0.27567 0.0
C363 C 0.20562 0.98273 0.32641 0.0
C364 C 0.19583 0.99463 0.18193 0.0
C365 C 0.19922 0.98268 0.13218 0.0
C366 C 0.2107 0.97922 0.15916 0.0
C367 C 0.16979 1.01433 0.17692 0.0
C368 C 0.1582 1.01777 0.14992 0.0
C369 C 0.17257 1.00159 0.12762 0.0
C370 C 0.20782 0.98911 0.21092 0.0
O371 O 0.16524 0.0354 0.26822 0.0
O372 O 0.17422 0.05974 0.29546 0.0
O373 O 0.22898 0.05827 0.25781 0.0
O374 O 0.20268 0.05102 0.2292 0.0
C375 C 0.15701 0.05472 0.28324 0.0
O376 O 0.20127 0.05349 0.34855 0.0
O377 O 0.24323 0.05019 0.3236 0.0
O378 O 0.25472 0.99878 0.30315 0.0
O379 O 0.25268 1.00346 0.25111 0.0
O380 O 0.21231 0.98086 0.29622 0.0
O381 O 0.20209 1.0039 0.33548 0.0
C382 C 0.21656 0.06454 0.23261 0.0
O383 O 0.22602 0.99977 0.20893 0.0
O384 O 0.19063 0.9901 0.23777 0.0
C385 C 0.2351 0.048 0.37879 0.0
C386 C 0.26171 0.03124 0.43308 0.0
C387 C 0.25143 0.0578 0.41887 0.0
C388 C 0.23825 0.06608 0.39192 0.0
C389 C 0.24355 0.02173 0.39394 0.0
C390 C 0.2567 1.0134 0.42102 0.0
C391 C 0.22455 0.05665 0.34832 0.0
H392 H 0.21094 0.9702 0.1152 0.0
H393 H 0.231 0.96411 0.16259 0.0
H394 H 0.15816 0.02655 0.19422 0.0
H395 H 0.13751 0.03234 0.14721 0.0
H396 H 0.2553 0.07203 0.42712 0.0
H397 H 0.23169 0.08645 0.38046 0.0
H398 H 0.24098 1.00759 0.3841 0.0
H399 H 0.26416 0.99286 0.4316 0.0
Tb400 Tb 0.47833 0.27509 0.78761 0.0
Eu401 Eu 0.44117 0.26285 0.74616 0.0
C402 C 0.49515 0.21911 0.77385 0.0
C403 C 0.49513 0.27792 0.71368 0.0
C404 C 0.50374 0.30454 0.83517 0.0
C405 C 0.51716 0.31595 0.87653 0.0
C406 C 0.51841 0.29727 0.86093 0.0
C407 C 0.48733 0.33081 0.8255 0.0
C408 C 0.48621 0.34956 0.84097 0.0
C409 C 0.50129 0.34237 0.86653 0.0
C410 C 0.50713 0.2847 0.81772 0.0
O411 O 0.44927 0.31313 0.76845 0.0
O412 O 0.41503 0.30244 0.75712 0.0
O413 O 0.42811 0.25003 0.79869 0.0
O414 O 0.43873 0.27759 0.81822 0.0
C415 C 0.42383 0.3194 0.76206 0.0
O416 O 0.42198 0.26982 0.70413 0.0
O417 O 0.41692 0.23996 0.74498 0.0
O418 O 0.48192 0.22896 0.74894 0.0
O419 O 0.49138 0.2329 0.79507 0.0
O420 O 0.50361 0.26959 0.74166 0.0
O421 O 0.46992 0.28075 0.71009 0.0
C422 C 0.42515 0.26203 0.82141 0.0
O423 O 0.49288 0.2694 0.83061 0.0
O424 O 0.50683 0.29237 0.78709 0.0
C425 C 0.41826 0.23231 0.69469 0.0
C426 C 0.42842 0.19571 0.65738 0.0
C427 C 0.40745 0.19807 0.68423 0.0
C428 C 0.40238 0.21622 0.70258 0.0
C429 C 0.43909 0.23023 0.66768 0.0
C430 C 0.44401 0.21218 0.64907 0.0
C431 C 0.41295 0.2505 0.71551 0.0
H432 H 0.52922 0.30979 0.89592 0.0
H433 H 0.53128 0.27713 0.86865 0.0
H434 H 0.47574 0.33688 0.80571 0.0
H435 H 0.47349 0.36968 0.83298 0.0
H436 H 0.39486 0.1859 0.69101 0.0
H437 H 0.38615 0.21754 0.72322 0.0
H438 H 0.45177 0.24231 0.66113 0.0
H439 H 0.46045 0.21066 0.62866 0.0
Tb440 Tb -0.02257 0.77342 0.79334 0.0
Eu441 Eu 0.94393 0.76316 0.74559 0.0
C442 C -0.00309 0.71761 0.7766 0.0
C443 C -0.00386 0.781 0.71976 0.0
C444 C 0.00505 0.80319 0.8385 0.0
C445 C 0.02382 0.81759 0.8721 0.0
C446 C 0.02301 0.79765 0.86045 0.0
C447 C -0.01155 0.8291 0.82746 0.0
C448 C -0.01067 0.84917 0.83904 0.0
C449 C 0.00663 0.84353 0.862 0.0
C450 C 0.00262 0.78146 0.82944 0.0
O451 O 0.93957 0.80768 0.78922 0.0
O452 O 0.92657 0.8065 0.74346 0.0
O453 O 0.91706 0.76561 0.79328 0.0
O454 O 0.95262 0.75057 0.82308 0.0
C455 C 0.92471 0.81874 0.76562 0.0
O456 O 0.93196 0.77 0.6989 0.0
O457 O 0.91623 0.74541 0.73949 0.0
O458 O -0.02613 0.72345 0.76481 0.0
O459 O 0.00336 0.73491 0.78438 0.0
O460 O -0.01098 0.79194 0.74459 0.0
O461 O -0.01448 0.76419 0.71862 0.0
C462 C 0.92657 0.75513 0.8206 0.0
O463 O -0.02185 0.77902 0.83802 0.0
O464 O 0.01339 0.77776 0.80054 0.0
C465 C 0.92376 0.73472 0.68916 0.0
C466 C 0.93317 0.6974 0.65315 0.0
C467 C 0.91232 0.70029 0.68009 0.0
C468 C 0.9076 0.71881 0.69776 0.0
C469 C 0.94451 0.73203 0.66208 0.0
C470 C 0.94909 0.7136 0.64418 0.0
C471 C 0.91832 0.75393 0.70869 0.0
H472 H 0.03765 0.81266 0.88939 0.0
H473 H 0.03596 0.77775 0.86921 0.0
H474 H -0.02566 0.83368 0.81059 0.0
H475 H -0.02428 0.86893 0.83097 0.0
H476 H 0.89943 0.68837 0.68734 0.0
H477 H 0.89128 0.72066 0.71832 0.0
H478 H 0.95731 0.74403 0.65477 0.0
H479 H 0.96543 0.7117 0.62367 0.0
Tb480 Tb 0.70549 0.50867 0.25513 0.0
Eu481 Eu 0.71502 0.53277 0.30922 0.0
C482 C 0.76366 0.48921 0.27746 0.0
C483 C 0.70271 0.47987 0.32831 0.0
C484 C 0.69204 0.49214 0.1847 0.0
C485 C 0.67952 0.47552 0.14791 0.0
C486 C 0.68983 0.47149 0.17589 0.0
C487 C 0.68392 0.51701 0.16522 0.0
C488 C 0.67362 0.52109 0.13704 0.0
C489 C 0.67133 0.50034 0.12811 0.0
C490 C 0.70398 0.48673 0.21365 0.0
O491 O 0.66254 0.53352 0.2704 0.0
O492 O 0.67224 0.5577 0.29709 0.0
O493 O 0.72687 0.55527 0.26055 0.0
O494 O 0.70096 0.54834 0.23107 0.0
C495 C 0.65474 0.55301 0.28501 0.0
O496 O 0.69864 0.54978 0.35152 0.0
O497 O 0.74051 0.54691 0.32654 0.0
O498 O 0.75226 0.49591 0.30504 0.0
O499 O 0.75001 0.50047 0.253 0.0
O500 O 0.70976 0.47819 0.2981 0.0
O501 O 0.69896 0.50101 0.33762 0.0
C502 C 0.71493 0.56162 0.23494 0.0
O503 O 0.72271 0.49683 0.21155 0.0
O504 O 0.68658 0.4884 0.24028 0.0
C505 C 0.73254 0.54384 0.38184 0.0
C506 C 0.76014 0.52647 0.43535 0.0
C507 C 0.74812 0.55323 0.42283 0.0
C508 C 0.73446 0.56181 0.39623 0.0
C509 C 0.74253 0.51727 0.39551 0.0
C510 C 0.75619 0.50863 0.42222 0.0
C511 C 0.72188 0.55296 0.35145 0.0
H512 H 0.67737 0.45927 0.14221 0.0
H513 H 0.69607 0.45218 0.19072 0.0
H514 H 0.68566 0.53315 0.17172 0.0
H515 H 0.66753 0.5404 0.12225 0.0
H516 H 0.75111 0.56751 0.43196 0.0
H517 H 0.72668 0.5824 0.38592 0.0
H518 H 0.74088 0.50321 0.38468 0.0
H519 H 0.76499 0.48794 0.43153 0.0
Tb520 Tb 0.72875 0.77523 0.05542 0.0
Eu521 Eu 0.70748 0.7592 1.00204 0.0
C522 C 0.6646 0.78366 0.0602 0.0
C523 C 0.7186 0.7218 0.06926 0.0
C524 C 0.76426 0.79929 0.09771 0.0
C525 C 0.79106 0.80835 0.12778 0.0
C526 C 0.77324 0.7961 0.12648 0.0
C527 C 0.77312 0.81496 0.07015 0.0
C528 C 0.79091 0.82731 0.07142 0.0
C529 C 0.80017 0.82405 0.10025 0.0
C530 C 0.74636 0.7855 0.09682 0.0
O531 O 0.76322 0.7695 1.01606 0.0
O532 O 0.75441 0.73991 0.99856 0.0
O533 O 0.71928 0.79405 0.97768 0.0
O534 O 0.71403 0.81157 0.02062 0.0
C535 C 0.77138 0.75127 0.99952 0.0
O536 O 0.71045 0.73059 0.97627 0.0
O537 O 0.68426 0.77103 0.96218 0.0
O538 O 0.66785 0.78195 0.03032 0.0
O539 O 0.68596 0.77758 0.07506 0.0
O540 O 0.73479 0.73383 0.07102 0.0
O541 O 0.70217 0.73079 0.04729 0.0
C542 C 0.71564 0.81383 0.98976 0.0
O543 O 0.7225 0.79968 0.08635 0.0
O544 O 0.75906 0.76452 0.08505 0.0
C545 C 0.67191 0.73946 0.95081 0.0
C546 C 0.63304 0.72293 0.93693 0.0
C547 C 0.65198 0.73138 0.91236 0.0
C548 C 0.67124 0.73955 0.91928 0.0
C549 C 0.65279 0.73155 0.97548 0.0
C550 C 0.63345 0.72333 0.96857 0.0
C551 C 0.69295 0.7475 0.95717 0.0
H552 H 0.79811 0.80512 0.15022 0.0
H553 H 0.7667 0.78388 0.14791 0.0
H554 H 0.76638 0.81754 0.04771 0.0
H555 H 0.79724 0.83954 0.04988 0.0
H556 H 0.6519 0.7317 0.88773 0.0
H557 H 0.68578 0.74578 0.89998 0.0
H558 H 0.65307 0.73146 0.99998 0.0
H559 H 0.61931 0.71671 0.98805 0.0
Tb560 Tb 0.47739 1.00127 0.5353 0.0
Eu561 Eu 0.48084 0.04135 0.46594 0.0
C562 C 0.53197 1.01397 0.50569 0.0
C563 C 0.4662 0.05955 0.5327 0.0
C564 C 0.45215 0.95582 0.5976 0.0
C565 C 0.44457 0.91488 0.61825 0.0
C566 C 0.46185 0.92943 0.61214 0.0
C567 C 0.42466 0.96767 0.59012 0.0
C568 C 0.40737 0.95324 0.59644 0.0
C569 C 0.41729 0.9266 0.61003 0.0
C570 C 0.47158 0.97014 0.58692 0.0
O571 O 0.43449 0.02201 0.52485 0.0
O572 O 0.4437 0.03023 0.47037 0.0
O573 O 0.49998 1.00076 0.45582 0.0
O574 O 0.47702 0.98135 0.50014 0.0
C575 C 0.42702 0.02623 0.49697 0.0
O576 O 0.46079 0.07634 0.4323 0.0
O577 O 0.50449 0.05261 0.4202 0.0
O578 O 0.5174 0.03567 0.48833 0.0
O579 O 0.52171 0.99554 0.51975 0.0
O580 O 0.47872 0.03532 0.54636 0.0
O581 O 0.45984 0.06568 0.50377 0.0
C582 C 0.49101 0.98166 0.47112 0.0
O583 O 0.49069 0.96333 0.56273 0.0
O584 O 0.46003 0.99534 0.58358 0.0
C585 C 0.49269 0.09759 0.40675 0.0
C586 C 0.5172 0.13498 0.39795 0.0
C587 C 0.51888 0.12399 0.37234 0.0
C588 C 0.50671 0.10538 0.37675 0.0
C589 C 0.48993 0.10935 0.43193 0.0
C590 C 0.50195 0.12795 0.42754 0.0
C591 C 0.48439 0.07494 0.41317 0.0
H592 H 0.45268 0.89438 0.62887 0.0
H593 H 0.48309 0.91989 0.61777 0.0
H594 H 0.41678 0.9879 0.57835 0.0
H595 H 0.38665 0.96271 0.58932 0.0
H596 H 0.53037 0.12916 0.34922 0.0
H597 H 0.50925 0.0963 0.35716 0.0
H598 H 0.47965 0.10325 0.45545 0.0
H599 H 0.50068 0.13563 0.44792 0.0
Tb600 Tb 0.48011 0.49753 0.0393 0.0
Eu601 Eu 0.48107 0.53902 0.97063 0.0
C602 C 0.53357 0.51195 1.0085 0.0
C603 C 0.4671 0.55566 0.03817 0.0
C604 C 0.45846 0.44831 0.09564 0.0
C605 C 0.44136 0.41452 0.12873 0.0
C606 C 0.45674 0.43062 0.1245 0.0
C607 C 0.44448 0.44999 0.07131 0.0
C608 C 0.42953 0.43385 0.07533 0.0
C609 C 0.42799 0.41581 0.10392 0.0
C610 C 0.47489 0.46504 0.08974 0.0
O611 O 0.43713 0.51758 0.02898 0.0
O612 O 0.44573 0.52558 0.97461 0.0
O613 O 0.50086 0.49926 0.95809 0.0
O614 O 0.48193 0.47708 1.00359 0.0
C615 C 0.42965 0.52087 1.00141 0.0
O616 O 0.45896 0.57452 0.93906 0.0
O617 O 0.50308 0.55299 0.92508 0.0
O618 O 0.51816 0.53364 0.9919 0.0
O619 O 0.52402 0.49316 0.02325 0.0
O620 O 0.48092 0.53155 0.05112 0.0
O621 O 0.45914 0.56149 1.01013 0.0
C622 C 0.49451 0.47875 0.97391 0.0
O623 O 0.49642 0.46026 0.06726 0.0
O624 O 0.46009 0.48982 0.08628 0.0
C625 C 0.48882 0.59818 0.91527 0.0
C626 C 0.51048 0.63708 0.90966 0.0
C627 C 0.51196 0.62775 0.88268 0.0
C628 C 0.50122 0.60838 0.8855 0.0
C629 C 0.48624 0.60824 0.94191 0.0
C630 C 0.49685 0.62756 0.93913 0.0
C631 C 0.48202 0.5749 0.91971 0.0
H632 H 0.44035 0.40078 0.15103 0.0
H633 H 0.46735 0.42918 0.14354 0.0
H634 H 0.44521 0.46377 0.04903 0.0
H635 H 0.41896 0.43562 0.05608 0.0
H636 H 0.52217 0.63486 0.85962 0.0
H637 H 0.50362 0.60065 0.86477 0.0
H638 H 0.47719 0.60029 0.96525 0.0
H639 H 0.49578 0.63393 0.96049 0.0
H640 H -0.02024 0.05267 0.09401 0.0
H641 H 0.91956 0.20557 0.09101 0.0
H642 H 0.94338 0.11101 1.01501 0.0
H643 H 0.95789 0.14684 0.16854 0.0
H644 H 0.92777 0.17138 0.06286 0.0
H645 H -0.02838 0.08702 0.12162 0.0
C646 C -0.03001 0.0727 0.08245 0.0
C647 C 0.96219 0.0789 0.05211 0.0
C648 C 0.93443 0.16597 0.08601 0.0
C649 C 0.95285 0.11847 0.08373 0.0
C650 C 0.92963 0.18549 0.10218 0.0
C651 C 0.93803 0.17912 0.13225 0.0
C652 C 0.94766 0.13982 0.09999 0.0
C653 C 0.95137 0.15274 0.14527 0.0
C654 C 0.96538 0.09234 0.09826 0.0
C655 C 0.94969 0.10526 0.03838 0.0
N656 N 0.95569 0.13411 0.12913 0.0
N657 N 0.9454 0.12406 0.05429 0.0
H658 H 0.79075 0.29411 0.47364 0.0
H659 H 0.92869 0.21808 0.369 0.0
H660 H 0.80854 0.21364 0.47439 0.0
H661 H 0.87123 0.29357 0.33111 0.0
H662 H 0.89381 0.21571 0.41749 0.0
H663 H 0.83072 0.2936 0.43136 0.0
C664 C 0.80345 0.27616 0.46544 0.0
C665 C 0.79628 0.2539 0.47734 0.0
C666 C 0.88908 0.23273 0.39847 0.0
C667 C 0.84195 0.25325 0.42938 0.0
C668 C 0.90882 0.23411 0.37102 0.0
C669 C 0.90253 0.25592 0.34612 0.0
C670 C 0.86356 0.25372 0.4012 0.0
C671 C 0.87663 0.27628 0.34968 0.0
C672 C 0.82606 0.27598 0.44123 0.0
C673 C 0.81332 0.23124 0.46562 0.0
N674 N 0.85816 0.2748 0.37688 0.0
N675 N 0.83548 0.23147 0.44215 0.0
H676 H 0.69238 0.07972 0.67966 0.0
H677 H 0.74789 0.19868 0.61748 0.0
H678 H 0.74473 0.0937 0.72933 0.0
H679 H 0.69276 0.18645 0.56993 0.0
H680 H 0.74841 0.15943 0.6575 0.0
H681 H 0.69372 0.11777 0.63829 0.0
C682 C 0.70424 0.09071 0.68189 0.0
C683 C 0.71844 0.08341 0.70817 0.0
C684 C 0.73626 0.16528 0.63828 0.0
C685 C 0.72001 0.12721 0.66066 0.0
C686 C 0.73597 0.18772 0.61532 0.0
C687 C 0.72025 0.19598 0.59019 0.0
C688 C 0.72072 0.15088 0.6362 0.0
C689 C 0.70519 0.1809 0.58882 0.0
C690 C 0.70496 0.1125 0.6582 0.0
C691 C 0.73343 0.09852 0.7096 0.0
N692 N 0.70578 0.15915 0.61148 0.0
N693 N 0.73379 0.11967 0.68624 0.0
H694 H 0.87804 0.03697 0.03765 0.0
H695 H 0.81459 0.98442 0.93547 0.0
H696 H 0.92211 1.00235 0.95575 0.0
H697 H 0.76346 0.04778 0.98378 0.0
H698 H 0.85371 0.97731 0.96146 0.0
H699 H 0.83613 0.0293 0.03348 0.0
C700 C 0.87886 0.02767 0.01897 0.0
C701 C 0.90306 0.02097 0.99639 0.0
C702 C 0.83369 0.99236 0.96697 0.0
C703 C 0.85626 1.01124 0.99241 0.0
C704 C 0.81119 0.99628 0.95242 0.0
C705 C 0.78593 1.01724 0.95676 0.0
C706 C 0.83094 1.0096 0.98576 0.0
C707 C 0.78292 0.03193 0.97902 0.0
C708 C 0.85516 0.02317 1.01676 0.0
C709 C 0.90349 1.00853 0.973 0.0
N710 N 0.80546 0.02825 0.99218 0.0
N711 N 0.88039 1.00412 0.97157 0.0
H712 H 0.05466 0.0511 0.99699 0.0
H713 H 0.17217 0.96097 0.10719 0.0
H714 H 0.07237 0.96916 0.03487 0.0
H715 H 0.14115 0.04483 0.08874 0.0
H716 H 0.14449 0.96293 0.06888 0.0
H717 H 0.09489 0.04792 0.01862 0.0
C718 C 0.06733 0.03233 1.00929 0.0
C719 C 0.05988 1.01043 1.01467 0.0
C720 C 0.14402 0.98091 0.07289 0.0
C721 C 0.10572 1.00676 0.03947 0.0
C722 C 0.15997 0.97983 0.0946 0.0
C723 C 0.15872 1.0028 0.10142 0.0
C724 C 0.1266 1.00512 0.05795 0.0
C725 C 0.14227 0.02666 0.08463 0.0
C726 C 0.09019 0.03058 0.02173 0.0
C727 C 0.07709 0.98661 0.03065 0.0
N728 N 0.1266 0.02721 0.06386 0.0
N729 N 0.09904 0.98547 0.0428 0.0
H730 H 0.95615 0.44912 0.4907 0.0
H731 H 0.03485 0.37133 0.3496 0.0
H732 H 0.02101 0.46793 0.41897 0.0
H733 H 0.95681 0.36854 0.40752 0.0
H734 H 0.03288 0.40423 0.3767 0.0
H735 H 0.95909 0.4168 0.46277 0.0
C736 C -0.02883 0.44638 0.46914 0.0
C737 C -0.01158 0.4613 0.45722 0.0
C738 C 0.01615 0.39648 0.38333 0.0
C739 C -0.0082 0.42413 0.42494 0.0
C740 C 0.01732 0.37764 0.36799 0.0
C741 C -0.00409 0.36723 0.37624 0.0
C742 C -0.00639 0.40468 0.40739 0.0
C743 C -0.02642 0.37625 0.40009 0.0
C744 C -0.02729 0.42796 0.45308 0.0
C745 C 0.00729 0.4569 0.42901 0.0
N746 N -0.0269 0.39431 0.4149 0.0
N747 N 0.00855 0.43864 0.41386 0.0
H748 H 0.63875 0.30817 0.59961 0.0
H749 H 0.49861 0.27463 0.65155 0.0
H750 H 0.61776 0.2678 0.5456 0.0
H751 H 0.53746 0.29374 0.71237 0.0
H752 H 0.53552 0.28078 0.60694 0.0
H753 H 0.59419 0.31309 0.63454 0.0
C754 C 0.62452 0.30058 0.59492 0.0
C755 C 0.63208 0.28716 0.5701 0.0
C756 C 0.53567 0.28384 0.63003 0.0
C757 C 0.58115 0.2923 0.61041 0.0
C758 C 0.51468 0.28041 0.65537 0.0
C759 C 0.51529 0.28339 0.68568 0.0
C760 C 0.5569 0.29074 0.63515 0.0
C761 C 0.53646 0.29086 0.6895 0.0
C762 C 0.5991 0.30335 0.61491 0.0
C763 C 0.61268 0.27815 0.56467 0.0
N764 N 0.55639 0.29422 0.6646 0.0
N765 N 0.58816 0.28048 0.5851 0.0
H766 H 0.70261 0.97326 0.89591 0.0
H767 H 0.71729 0.82441 0.92536 0.0
H768 H 0.70953 0.93366 0.82242 0.0
H769 H 0.70956 0.86074 1.00245 0.0
H770 H 0.71393 0.86503 0.8881 0.0
H771 H 0.70417 0.93336 0.93579 0.0
C772 C 0.70426 0.95631 0.88813 0.0
C773 C 0.70595 0.95691 0.85564 0.0
C774 C 0.71294 0.86429 0.91313 0.0
C775 C 0.70791 0.91118 0.90117 0.0
C776 C 0.7149 0.84094 0.93459 0.0
C777 C 0.71373 0.83898 0.9673 0.0
C778 C 0.70978 0.88618 0.92413 0.0
C779 C 0.71056 0.8613 0.97749 0.0
C780 C 0.70523 0.93351 0.91094 0.0
C781 C 0.70821 0.93425 0.84707 0.0
N782 N 0.70871 0.88399 0.95597 0.0
N783 N 0.70917 0.91244 0.8696 0.0
H784 H 0.14417 0.30647 0.11648 0.0
H785 H 0.00729 0.27025 0.1582 0.0
H786 H 0.11608 0.28294 0.0495 0.0
H787 H 0.02666 0.30914 0.21575 0.0
H788 H 0.04536 0.27695 0.11674 0.0
H789 H 0.0997 0.31015 0.15156 0.0
C790 C 0.12848 0.30235 0.109 0.0
C791 C 0.13392 0.29412 0.0802 0.0
C792 C 0.04107 0.28429 0.13827 0.0
C793 C 0.08304 0.29799 0.12046 0.0
C794 C 0.01939 0.28039 0.16203 0.0
C795 C 0.01397 0.2889 0.19066 0.0
C796 C 0.05767 0.29652 0.14331 0.0
C797 C 0.03018 0.30212 0.19415 0.0
C798 C 0.10305 0.30451 0.12902 0.0
C799 C 0.11275 0.28931 0.07154 0.0
N800 N 0.05151 0.30526 0.17091 0.0
N801 N 0.08836 0.29094 0.09184 0.0
H802 H 0.70632 0.43373 0.31794 0.0
H803 H 0.70256 0.36061 0.50154 0.0
H804 H 0.6966 0.47194 0.39392 0.0
H805 H 0.71162 0.32537 0.42294 0.0
H806 H 0.69916 0.40186 0.46365 0.0
H807 H 0.70691 0.39433 0.35712 0.0
C808 C 0.70418 0.43392 0.3429 0.0
C809 C 0.70143 0.4563 0.35252 0.0
C810 C 0.70182 0.38506 0.45481 0.0
C811 C 0.70224 0.4108 0.39791 0.0
C812 C 0.70375 0.36151 0.47643 0.0
C813 C 0.70742 0.33937 0.46552 0.0
C814 C 0.70356 0.38648 0.42208 0.0
C815 C 0.70887 0.34176 0.43264 0.0
C816 C 0.70455 0.4113 0.36536 0.0
C817 C 0.6987 0.4552 0.38535 0.0
N818 N 0.70698 0.36476 0.41224 0.0
N819 N 0.69928 0.43281 0.40685 0.0
H820 H 0.55436 0.05199 0.49243 0.0
H821 H 0.62942 0.0453 0.60449 0.0
H822 H 0.57016 0.97137 0.53743 0.0
H823 H 0.67185 0.96397 0.60092 0.0
H824 H 0.60285 0.05027 0.56346 0.0
H825 H 0.59327 0.05051 0.51491 0.0
C826 C 0.56622 0.03387 0.50669 0.0
C827 C 0.55856 1.01192 0.51376 0.0
C828 C 0.61858 0.0315 0.57087 0.0
C829 C 0.60257 1.01034 0.54007 0.0
C830 C 0.63373 0.02863 0.59446 0.0
C831 C 0.65257 1.00409 0.60655 0.0
C832 C 0.62223 1.00962 0.55946 0.0
C833 C 0.65696 0.98311 0.59292 0.0
C834 C 0.58824 0.03315 0.51978 0.0
C835 C 0.57496 0.9889 0.53194 0.0
N836 N 0.64147 0.98624 0.57056 0.0
N837 N 0.59604 0.98879 0.54477 0.0
H838 H -0.01289 0.93452 0.99797 0.0
H839 H 0.00658 0.89271 0.83297 0.0
H840 H 0.00847 0.98043 0.90712 0.0
H841 H 0.00428 0.84152 0.92504 0.0
H842 H 0.00478 0.92627 0.8589 0.0
H843 H -0.00886 0.90127 0.97091 0.0
C844 C -0.00719 0.93758 0.97229 0.0
C845 C -0.0025 0.96034 0.95481 0.0
C846 C 0.00482 0.90763 0.87334 0.0
C847 C 0.00193 0.92221 0.92351 0.0
C848 C 0.00567 0.88855 0.8586 0.0
C849 C 0.00574 0.86422 0.87685 0.0
C850 C 0.00365 0.90242 0.90659 0.0
C851 C 0.0047 0.85982 0.90995 0.0
C852 C -0.00487 0.91852 0.95683 0.0
C853 C 0.00482 0.96313 0.92156 0.0
N854 N 0.00359 0.87872 0.92371 0.0
N855 N 0.00664 0.94435 0.90694 0.0
H856 H -0.00144 0.18385 0.91555 0.0
H857 H 0.15204 0.17193 0.92865 0.0
H858 H 0.07419 0.12194 0.88789 0.0
H859 H 0.08004 0.24272 0.9337 0.0
H860 H 0.12327 0.15311 0.9146 0.0
H861 H 0.02746 0.20612 0.92231 0.0
C862 C 0.02123 0.17514 0.91052 0.0
C863 C 0.03402 0.15102 0.90119 0.0
C864 C 0.11375 0.17281 0.91861 0.0
C865 C 0.06711 0.17613 0.90923 0.0
C866 C 0.13011 0.18346 0.92691 0.0
C867 C 0.11831 0.20883 0.93256 0.0
C868 C 0.08529 0.18754 0.91625 0.0
C869 C 0.08992 0.22311 0.92944 0.0
C870 C 0.03769 0.18784 0.91434 0.0
C871 C 0.06346 0.14063 0.8948 0.0
N872 N 0.07428 0.21218 0.92172 0.0
N873 N 0.079 0.15309 0.89929 0.0
H874 H 0.62559 0.57767 0.33339 0.0
H875 H 0.50091 0.68231 0.2397 0.0
H876 H 0.61842 0.57223 0.24047 0.0
H877 H 0.53342 0.69576 0.3117 0.0
H878 H 0.53615 0.63787 0.24526 0.0
H879 H 0.58279 0.61597 0.33229 0.0
C880 C 0.61465 0.58433 0.31293 0.0
C881 C 0.6257 0.57201 0.2868 0.0
C882 C 0.53533 0.65059 0.2599 0.0
C883 C 0.57687 0.61626 0.28511 0.0
C884 C 0.51526 0.67585 0.25683 0.0
C885 C 0.51442 0.69278 0.27513 0.0
C886 C 0.55414 0.64218 0.28188 0.0
C887 C 0.53349 0.6835 0.29688 0.0
C888 C 0.5903 0.60628 0.31225 0.0
C889 C 0.61052 0.58125 0.26108 0.0
N890 N 0.55247 0.65887 0.29967 0.0
N891 N 0.58697 0.60318 0.26062 0.0
H892 H 0.35255 0.81967 0.57967 0.0
H893 H 0.36116 0.93859 0.63258 0.0
H894 H 0.28153 0.87451 0.62699 0.0
H895 H 0.43361 0.87939 0.59398 0.0
H896 H 0.33175 0.91487 0.63181 0.0
H897 H 0.38268 0.84118 0.58488 0.0
C898 C 0.34328 0.83633 0.59101 0.0
C899 C 0.31449 0.84537 0.60284 0.0
C900 C 0.35412 0.90693 0.62376 0.0
C901 C 0.34886 0.8699 0.6092 0.0
C902 C 0.37088 0.92048 0.62416 0.0
C903 C 0.39983 0.91097 0.61324 0.0
C904 C 0.36635 0.88379 0.61209 0.0
C905 C 0.41142 0.88729 0.60288 0.0
C906 C 0.36052 0.84846 0.59422 0.0
C907 C 0.30367 0.86676 0.61778 0.0
N908 N 0.3946 0.87462 0.60231 0.0
N909 N 0.32084 0.87836 0.62043 0.0
H910 H 0.03197 0.69434 0.82091 0.0
H911 H 0.12335 0.56935 0.74609 0.0
H912 H 0.00738 0.67927 0.74384 0.0
H913 H 0.13412 0.58162 0.83361 0.0
H914 H 0.07877 0.6069 0.74617 0.0
H915 H 0.06769 0.65112 0.82711 0.0
C916 C 0.03407 0.68182 0.8053 0.0
C917 C 0.01691 0.6905 0.7816 0.0
C918 C 0.09068 0.601 0.76562 0.0
C919 C 0.05819 0.6407 0.78836 0.0
C920 C 0.11599 0.57953 0.76568 0.0
C921 C 0.13254 0.57267 0.78966 0.0
C922 C 0.08214 0.61548 0.78973 0.0
C923 C 0.12222 0.58653 0.81438 0.0
C924 C 0.05443 0.65702 0.80894 0.0
C925 C 0.02029 0.67329 0.76237 0.0
N926 N 0.09791 0.60735 0.81357 0.0
N927 N 0.04089 0.64925 0.76584 0.0
H928 H 0.78095 0.35693 0.6482 0.0
H929 H 0.90612 0.40613 0.55338 0.0
H930 H 0.82754 0.33918 0.5573 0.0
H931 H 0.86839 0.41552 0.64962 0.0
H932 H 0.87692 0.3818 0.5546 0.0
H933 H 0.81217 0.37875 0.64948 0.0
C934 C 0.7978 0.35752 0.62858 0.0
C935 C 0.80154 0.34632 0.60251 0.0
C936 C 0.87504 0.38905 0.57555 0.0
C937 C 0.83714 0.37139 0.60374 0.0
C938 C 0.89163 0.40303 0.5748 0.0
C939 C 0.88943 0.41301 0.60135 0.0
C940 C 0.85595 0.38512 0.603 0.0
C941 C 0.87072 0.40806 0.6287 0.0
C942 C 0.81555 0.37003 0.6293 0.0
C943 C 0.82352 0.34795 0.57759 0.0
N944 N 0.85448 0.39459 0.62876 0.0
N945 N 0.84042 0.36028 0.57881 0.0
H946 H 0.29938 0.96081 0.32168 0.0
H947 H 0.38966 0.85347 0.21616 0.0
H948 H 0.29294 0.97106 0.2228 0.0
H949 H 0.407 0.8492 0.30876 0.0
H950 H 0.35443 0.89688 0.21804 0.0
H951 H 0.33958 0.92036 0.31728 0.0
C952 C 0.30663 0.95477 0.29895 0.0
C953 C 0.29267 0.96933 0.27263 0.0
C954 C 0.36608 0.8865 0.23786 0.0
C955 C 0.33835 0.92289 0.26754 0.0
C956 C 0.38617 0.86165 0.23683 0.0
C957 C 0.40127 0.84754 0.26238 0.0
C958 C 0.36085 0.89727 0.26476 0.0
C959 C 0.39587 0.85927 0.28849 0.0
C960 C 0.32953 0.93163 0.29647 0.0
C961 C 0.30296 0.96048 0.24378 0.0
N962 N 0.37599 0.88334 0.28909 0.0
N963 N 0.32496 0.93775 0.24211 0.0
H964 H 0.292 0.46872 0.72356 0.0
H965 H 0.42361 0.35407 0.79422 0.0
H966 H 0.30904 0.4622 0.81713 0.0
H967 H 0.37846 0.34583 0.73042 0.0
H968 H 0.38858 0.39782 0.79631 0.0
H969 H 0.33112 0.42803 0.71894 0.0
C970 C 0.3042 0.45897 0.74301 0.0
C971 C 0.29707 0.46889 0.77091 0.0
C972 C 0.38652 0.38642 0.78177 0.0
C973 C 0.34202 0.42213 0.76557 0.0
C974 C 0.40653 0.36157 0.78037 0.0
C975 C 0.40389 0.34632 0.76209 0.0
C976 C 0.36413 0.39622 0.76421 0.0
C977 C 0.3812 0.35688 0.74491 0.0
C978 C 0.32644 0.43562 0.74036 0.0
C979 C 0.31373 0.45522 0.79527 0.0
N980 N 0.36228 0.38123 0.74626 0.0
N981 N 0.33547 0.43245 0.79206 0.0
H982 H 0.14709 0.80455 0.61575 0.0
H983 H 0.01002 0.76811 0.66114 0.0
H984 H 0.11783 0.78047 0.55037 0.0
H985 H 0.03051 0.80718 0.71745 0.0
H986 H 0.04789 0.77445 0.61912 0.0
H987 H 0.10316 0.80793 0.65188 0.0
C988 C 0.13126 0.80023 0.60884 0.0
C989 C 0.13623 0.79197 0.58014 0.0
C990 C 0.04392 0.78189 0.64051 0.0
C991 C 0.08594 0.79552 0.62163 0.0
C992 C 0.02235 0.7782 0.6646 0.0
C993 C 0.01726 0.7869 0.69303 0.0
C994 C 0.06077 0.79409 0.645 0.0
C995 C 0.03375 0.80005 0.69601 0.0
C996 C 0.10614 0.80221 0.62947 0.0
C997 C 0.11488 0.78688 0.57227 0.0
N998 N 0.05497 0.80298 0.67245 0.0
N999 N 0.09079 0.78838 0.59314 0.0
H1000 H 0.20936 0.93617 0.31706 0.0
H1001 H 0.2069 0.86517 0.50142 0.0
H1002 H 0.19991 0.97552 0.39181 0.0
H1003 H 0.21522 0.82868 0.42426 0.0
H1004 H 0.20346 0.90602 0.46267 0.0
H1005 H 0.21039 0.897 0.35698 0.0
C1006 C 0.20737 0.93666 0.3419 0.0
C1007 C 0.20456 0.95929 0.35097 0.0
C1008 C 0.20599 0.88903 0.45434 0.0
C1009 C 0.2059 0.9141 0.39716 0.0
C1010 C 0.20798 0.8657 0.47644 0.0
C1011 C 0.2114 0.84335 0.46619 0.0
C1012 C 0.20744 0.89 0.42178 0.0
C1013 C 0.21265 0.84527 0.43345 0.0
C1014 C 0.20799 0.91419 0.36477 0.0
C1015 C 0.20204 0.95859 0.38365 0.0
N1016 N 0.2107 0.86806 0.41257 0.0
N1017 N 0.20287 0.93634 0.40555 0.0
H1018 H 0.9415 0.70202 0.58817 0.0
H1019 H 0.96627 0.55314 0.59837 0.0
H1020 H 0.93673 0.64696 0.67653 0.0
H1021 H 0.95202 0.61122 0.51168 0.0
H1022 H 0.95907 0.58683 0.62656 0.0
H1023 H 0.94923 0.6685 0.55888 0.0
C1024 C 0.94222 0.68285 0.60139 0.0
C1025 C 0.93837 0.6773 0.63485 0.0
C1026 C 0.95747 0.59225 0.60138 0.0
C1027 C 0.94714 0.63894 0.60155 0.0
C1028 C 0.96163 0.57298 0.5852 0.0
C1029 C 0.95975 0.5793 0.55253 0.0
C1030 C 0.9516 0.6181 0.58482 0.0
C1031 C 0.95364 0.60542 0.53685 0.0
C1032 C 0.94645 0.6638 0.58468 0.0
C1033 C 0.93924 0.65221 0.65077 0.0
N1034 N 0.94988 0.62385 0.55311 0.0
N1035 N 0.94361 0.63398 0.634 0.0
H1036 H 0.31322 0.77409 0.49364 0.0
H1037 H 0.37825 0.74552 0.32175 0.0
H1038 H 0.28917 0.7269 0.45293 0.0
H1039 H 0.42662 0.75766 0.37837 0.0
H1040 H 0.344 0.74066 0.36924 0.0
H1041 H 0.35417 0.77005 0.45171 0.0
C1042 C 0.31673 0.76261 0.4762 0.0
C1043 C 0.29759 0.75102 0.47664 0.0
C1044 C 0.36228 0.74408 0.37138 0.0
C1045 C 0.34396 0.7467 0.42857 0.0
C1046 C 0.38174 0.74696 0.34428 0.0
C1047 C 0.4052 0.75204 0.34622 0.0
C1048 C 0.36595 0.74692 0.40046 0.0
C1049 C 0.40882 0.75364 0.37599 0.0
C1050 C 0.3401 0.76028 0.45236 0.0
C1051 C 0.30324 0.73629 0.4535 0.0
N1052 N 0.38912 0.75149 0.40194 0.0
N1053 N 0.32565 0.7349 0.43014 0.0
H1054 H 0.19138 0.0851 0.17864 0.0
H1055 H 0.2481 0.20332 0.1203 0.0
H1056 H 0.24429 0.09706 0.22963 0.0
H1057 H 0.19059 0.19401 0.07325 0.0
H1058 H 0.24869 0.16346 0.15918 0.0
H1059 H 0.19259 0.12385 0.13858 0.0
C1060 C 0.20334 0.0958 0.18142 0.0
C1061 C 0.21774 0.08772 0.20767 0.0
C1062 C 0.23599 0.17011 0.14032 0.0
C1063 C 0.21917 0.13232 0.16169 0.0
C1064 C 0.23567 0.19288 0.11803 0.0
C1065 C 0.21925 0.20214 0.09339 0.0
C1066 C 0.21981 0.15636 0.13801 0.0
C1067 C 0.20354 0.18771 0.0918 0.0
C1068 C 0.20398 0.118 0.1585 0.0
C1069 C 0.23283 0.1025 0.20988 0.0
N1070 N 0.20421 0.16561 0.11378 0.0
N1071 N 0.23313 0.12405 0.18724 0.0
H1072 H 0.81469 0.76735 0.99719 0.0
H1073 H 0.88041 0.74377 0.82332 0.0
H1074 H 0.78949 0.72379 0.95192 0.0
H1075 H 0.92823 0.75362 0.88271 0.0
H1076 H 0.84585 0.73794 0.87005 0.0
H1077 H 0.85596 0.76375 0.95586 0.0
C1078 C 0.81802 0.75673 0.97886 0.0
C1079 C 0.79845 0.74607 0.97786 0.0
C1080 C 0.86407 0.74106 0.87296 0.0
C1081 C 0.84525 0.74226 0.93043 0.0
C1082 C 0.88371 0.74452 0.84629 0.0
C1083 C 0.9071 0.74927 0.84921 0.0
C1084 C 0.86749 0.74298 0.90266 0.0
C1085 C 0.91047 0.74991 0.87953 0.0
C1086 C 0.84158 0.75466 0.95535 0.0
C1087 C 0.8039 0.73244 0.95362 0.0
N1088 N 0.89061 0.7472 0.9051 0.0
N1089 N 0.82653 0.73129 0.93061 0.0
H1090 H 0.19298 0.58554 0.68243 0.0
H1091 H 0.25066 0.70298 0.61852 0.0
H1092 H 0.24857 0.59728 0.72982 0.0
H1093 H 0.19181 0.69309 0.57414 0.0
H1094 H 0.25145 0.6636 0.65839 0.0
H1095 H 0.19357 0.62405 0.64169 0.0
C1096 C 0.20538 0.59616 0.6843 0.0
C1097 C 0.22075 0.58807 0.70972 0.0
C1098 C 0.2384 0.67001 0.6399 0.0
C1099 C 0.22148 0.63241 0.6629 0.0
C1100 C 0.23796 0.69252 0.61704 0.0
C1101 C 0.22114 0.70146 0.59282 0.0
C1102 C 0.22192 0.65622 0.63864 0.0
C1103 C 0.20511 0.68701 0.59229 0.0
C1104 C 0.20568 0.61822 0.66097 0.0
C1105 C 0.23638 0.60273 0.71074 0.0
N1106 N 0.20589 0.66516 0.61483 0.0
N1107 N 0.23633 0.62416 0.6877 0.0
H1108 H 0.25943 0.05286 0.48273 0.0
H1109 H 0.42208 1.00166 0.45607 0.0
H1110 H 0.3106 0.98926 0.43486 0.0
H1111 H 0.37559 0.03939 0.53498 0.0
H1112 H 0.38052 0.99486 0.45144 0.0
H1113 H 0.29975 0.04562 0.50741 0.0
C1114 C 0.27887 0.03694 0.4781 0.0
C1115 C 0.28187 0.02213 0.45598 0.0
C1116 C 0.37931 1.00442 0.47002 0.0
C1117 C 0.32785 1.01391 0.48386 0.0
C1118 C 0.40294 1.00862 0.47236 0.0
C1119 C 0.40186 0.02172 0.49536 0.0
C1120 C 0.35413 1.01398 0.49031 0.0
C1121 C 0.37692 0.02961 0.51658 0.0
C1122 C 0.30182 0.03277 0.49227 0.0
C1123 C 0.30728 1.00136 0.45147 0.0
N1124 N 0.35368 0.02614 0.5131 0.0
N1125 N 0.32948 0.99828 0.46466 0.0
H1126 H 0.79951 0.84711 0.14749 0.0
H1127 H 0.92504 0.89563 0.05237 0.0
H1128 H 0.84508 0.8297 0.05612 0.0
H1129 H 0.88724 0.9052 0.14852 0.0
H1130 H 0.89633 0.87068 0.05396 0.0
H1131 H 0.83166 0.86782 0.14899 0.0
C1132 C 0.81638 0.84748 0.12783 0.0
C1133 C 0.81951 0.83671 0.10157 0.0
C1134 C 0.89439 0.87806 0.07483 0.0
C1135 C 0.85621 0.86063 0.10302 0.0
C1136 C 0.91072 0.89236 0.07389 0.0
C1137 C 0.90828 0.90266 0.10026 0.0
C1138 C 0.87527 0.87415 0.10228 0.0
C1139 C 0.88976 0.89752 0.12772 0.0
C1140 C 0.83467 0.85938 0.12868 0.0
C1141 C 0.84153 0.83811 0.0766 0.0
N1142 N 0.87373 0.88381 0.12793 0.0
N1143 N 0.85896 0.84991 0.07791 0.0
H1144 H 0.58526 0.23242 0.44477 0.0
H1145 H 0.57106 0.12792 0.36822 0.0
H1146 H 0.65485 0.1787 0.39434 0.0
H1147 H 0.50155 0.17875 0.42233 0.0
H1148 H 0.60066 0.15053 0.37141 0.0
H1149 H 0.55322 0.21632 0.43209 0.0
C1150 C 0.5938 0.21722 0.43106 0.0
C1151 C 0.6228 0.20678 0.42076 0.0
C1152 C 0.57885 0.15695 0.3823 0.0
C1153 C 0.58625 0.1885 0.40585 0.0
C1154 C 0.56183 0.14421 0.38019 0.0
C1155 C 0.53382 0.15132 0.39524 0.0
C1156 C 0.56784 0.17689 0.3997 0.0
C1157 C 0.52317 0.17235 0.41084 0.0
C1158 C 0.57548 0.20818 0.42363 0.0
C1159 C 0.63264 0.18748 0.40254 0.0
N1160 N 0.54027 0.18423 0.41294 0.0
N1161 N 0.61442 0.17888 0.39583 0.0
H1162 H 0.79748 0.4588 0.32313 0.0
H1163 H 0.89104 0.35343 0.21595 0.0
H1164 H 0.79121 0.46918 0.22416 0.0
H1165 H 0.90661 0.3485 0.30967 0.0
H1166 H 0.85532 0.39658 0.21803 0.0
H1167 H 0.83875 0.41924 0.3182 0.0
C1168 C 0.80498 0.45298 0.30027 0.0
C1169 C 0.79073 0.46728 0.27409 0.0
C1170 C 0.86671 0.38613 0.23804 0.0
C1171 C 0.8377 0.42185 0.26838 0.0
C1172 C 0.88709 0.36144 0.23689 0.0
C1173 C 0.9018 0.34719 0.26273 0.0
C1174 C 0.86077 0.3966 0.26534 0.0
C1175 C 0.89581 0.35869 0.28917 0.0
C1176 C 0.82851 0.43035 0.29748 0.0
C1177 C 0.8014 0.45876 0.24506 0.0
N1178 N 0.87563 0.38259 0.28989 0.0
N1179 N 0.82403 0.4365 0.24309 0.0
H1180 H 0.00028 0.6773 0.42889 0.0
H1181 H 0.1527 0.68644 0.39749 0.0
H1182 H 0.07362 0.62808 0.37708 0.0
H1183 H 0.08104 0.73273 0.4544 0.0
H1184 H 0.12269 0.66821 0.385 0.0
H1185 H 0.02808 0.70138 0.43333 0.0
C1186 C 0.02216 0.67173 0.41817 0.0
C1187 C 0.03472 0.6505 0.40284 0.0
C1188 C 0.11345 0.68245 0.40009 0.0
C1189 C 0.06663 0.6779 0.40788 0.0
C1190 C 0.13057 0.69296 0.40713 0.0
C1191 C 0.11936 0.71113 0.42706 0.0
C1192 C 0.08488 0.69009 0.41311 0.0
C1193 C 0.09062 0.71852 0.43929 0.0
C1194 C 0.038 0.68548 0.4207 0.0
C1195 C 0.06301 0.6444 0.38893 0.0
N1196 N 0.07437 0.70792 0.43217 0.0
N1197 N 0.07807 0.65787 0.39205 0.0
H1198 H 0.63016 0.07952 0.83491 0.0
H1199 H 0.51226 0.18532 0.73297 0.0
H1200 H 0.62086 0.07151 0.74426 0.0
H1201 H 0.52398 0.19078 0.82398 0.0
H1202 H 0.54791 0.14147 0.73892 0.0
H1203 H 0.58687 0.11735 0.83413 0.0
C1204 C 0.61866 0.08555 0.81503 0.0
C1205 C 0.62914 0.07254 0.7895 0.0
C1206 C 0.54247 0.1522 0.75768 0.0
C1207 C 0.57976 0.11635 0.788 0.0
C1208 C 0.52214 0.17727 0.75431 0.0
C1209 C 0.51529 0.19193 0.77787 0.0
C1210 C 0.55602 0.14171 0.78481 0.0
C1211 C 0.52871 0.1804 0.80503 0.0
C1212 C 0.59397 0.10723 0.81452 0.0
C1213 C 0.61337 0.08102 0.76444 0.0
N1214 N 0.5485 0.1561 0.80763 0.0
N1215 N 0.58962 0.10272 0.76404 0.0
H1216 H 0.74314 0.59352 0.23283 0.0
H1217 H 0.69028 0.68995 0.07179 0.0
H1218 H 0.69084 0.58242 0.18016 0.0
H1219 H 0.74749 0.6981 0.12045 0.0
H1220 H 0.69015 0.65065 0.11137 0.0
H1221 H 0.74488 0.63189 0.19213 0.0
C1222 C 0.73206 0.59907 0.21271 0.0
C1223 C 0.71679 0.58463 0.21003 0.0
C1224 C 0.7028 0.66098 0.11336 0.0
C1225 C 0.71866 0.62874 0.16325 0.0
C1226 C 0.70289 0.68348 0.09072 0.0
C1227 C 0.71894 0.69746 0.09269 0.0
C1228 C 0.71877 0.65233 0.13834 0.0
C1229 C 0.73482 0.68802 0.11787 0.0
C1230 C 0.73308 0.62102 0.18943 0.0
C1231 C 0.70289 0.59287 0.18332 0.0
N1232 N 0.73427 0.66613 0.1397 0.0
N1233 N 0.7041 0.61436 0.16108 0.0
H1234 H 0.87318 0.53995 0.53582 0.0
H1235 H 0.81099 0.48694 0.43279 0.0
H1236 H 0.91633 0.5103 0.45022 0.0
H1237 H 0.75785 0.54622 0.48668 0.0
H1238 H 0.85076 0.482 0.45608 0.0
H1239 H 0.83198 0.53125 0.53161 0.0
C1240 C 0.8739 0.5317 0.51617 0.0
C1241 C 0.89774 0.52651 0.4928 0.0
C1242 C 0.83024 0.49567 0.46336 0.0
C1243 C 0.85173 0.51555 0.48875 0.0
C1244 C 0.80737 0.4983 0.4504 0.0
C1245 C 0.78116 0.51757 0.45714 0.0
C1246 C 0.82689 0.51249 0.483 0.0
C1247 C 0.77794 0.5317 0.48012 0.0
C1248 C 0.85061 0.52657 0.51397 0.0
C1249 C 0.89803 0.51532 0.46819 0.0
N1250 N 0.80076 0.52933 0.49175 0.0
N1251 N 0.87535 0.51022 0.46682 0.0
H1252 H 0.11683 0.48872 0.65729 0.0
H1253 H 0.06091 0.53917 0.49389 0.0
H1254 H 0.16408 0.52287 0.57595 0.0
H1255 H 0.05318 0.46998 0.55949 0.0
H1256 H 0.0968 0.53683 0.5225 0.0
H1257 H 0.08916 0.48636 0.62184 0.0
C1258 C 0.12116 0.49592 0.63191 0.0
C1259 C 0.14249 0.50619 0.61939 0.0
C1260 C 0.08755 0.52195 0.53009 0.0
C1261 C 0.11123 0.50334 0.5788 0.0
C1262 C 0.06713 0.52322 0.51384 0.0
C1263 C 0.05367 0.50499 0.52468 0.0
C1264 C 0.094 0.50263 0.55753 0.0
C1265 C 0.06267 0.48466 0.55051 0.0
C1266 C 0.10566 0.49428 0.6117 0.0
C1267 C 0.14767 0.5149 0.58633 0.0
N1268 N 0.08188 0.48433 0.56645 0.0
N1269 N 0.13186 0.51354 0.56702 0.0
H1270 H 0.50789 0.76926 0.157 0.0
H1271 H 0.6471 0.80169 0.11551 0.0
H1272 H 0.52751 0.80901 0.2132 0.0
H1273 H 0.61778 0.77948 0.04836 0.0
H1274 H 0.60233 0.80643 0.15039 0.0
H1275 H 0.54676 0.77452 0.11583 0.0
C1276 C 0.52021 0.7793 0.16058 0.0
C1277 C 0.51461 0.78849 0.18875 0.0
C1278 C 0.6055 0.80084 0.12785 0.0
C1279 C 0.55925 0.79441 0.14177 0.0
C1280 C 0.6311 0.79807 0.10795 0.0
C1281 C 0.63626 0.78995 0.07913 0.0
C1282 C 0.58502 0.79505 0.11915 0.0
C1283 C 0.61468 0.78577 0.07039 0.0
C1284 C 0.54236 0.78237 0.13699 0.0
C1285 C 0.53114 0.80152 0.19194 0.0
N1286 N 0.59012 0.788 0.09057 0.0
N1287 N 0.55293 0.80381 0.16891 0.0
H1288 H 0.68746 0.46866 0.08503 0.0
H1289 H 0.57703 0.46805 0.02835 0.0
H1290 H 0.6261 0.54158 0.10625 0.0
H1291 H 0.55141 0.55166 1.00344 0.0
H1292 H 0.61779 0.46599 0.04772 0.0
H1293 H 0.66025 0.47157 0.04541 0.0
C1294 C 0.6684 0.48538 0.08118 0.0
C1295 C 0.65856 0.50452 0.09967 0.0
C1296 C 0.60381 0.48473 0.03703 0.0
C1297 C 0.62747 0.50787 0.0546 0.0
C1298 C 0.58037 0.48592 0.02628 0.0
C1299 C 0.56073 0.51005 1.01461 0.0
C1300 C 0.60728 0.50789 0.03654 0.0
C1301 C 0.56605 0.53263 1.01235 0.0
C1302 C 0.65292 0.48698 0.05862 0.0
C1303 C 0.63435 0.52625 0.09279 0.0
N1304 N 0.58849 0.53105 0.02401 0.0
N1305 N 0.6194 0.52716 0.07106 0.0
H1306 H 0.43235 0.38677 0.06226 0.0
H1307 H 0.29522 0.35406 0.14944 0.0
H1308 H 0.38747 0.40653 0.15271 0.0
H1309 H 0.34663 0.3271 0.06472 0.0
H1310 H 0.32933 0.37216 0.15233 0.0
H1311 H 0.40209 0.36323 0.06418 0.0
C1312 C 0.4162 0.38592 0.08268 0.0
C1313 C 0.41218 0.39874 0.10725 0.0
C1314 C 0.33318 0.36219 0.1332 0.0
C1315 C 0.37728 0.37203 0.10954 0.0
C1316 C 0.31376 0.35179 0.13156 0.0
C1317 C 0.31798 0.33915 0.10668 0.0
C1318 C 0.35697 0.36 0.10974 0.0
C1319 C 0.34222 0.3371 0.08397 0.0
C1320 C 0.39894 0.37248 0.08379 0.0
C1321 C 0.39124 0.39682 0.13334 0.0
N1322 N 0.36072 0.34748 0.086 0.0
N1323 N 0.3743 0.38395 0.13365 0.0
H1324 H 0.00146 0.18191 0.23904 0.0
H1325 H 0.12727 0.07852 0.3322 0.0
H1326 H 0.03162 0.19468 0.31354 0.0
H1327 H 0.12057 0.07344 0.23893 0.0
H1328 H 0.08349 0.11578 0.33194 0.0
H1329 H 0.03744 0.13776 0.24407 0.0
C1330 C 0.01542 0.17534 0.25664 0.0
C1331 C 0.01378 0.19202 0.27573 0.0
C1332 C 0.09133 0.10641 0.31162 0.0
C1333 C 0.05432 0.14179 0.28187 0.0
C1334 C 0.11626 0.08505 0.31182 0.0
C1335 C 0.12769 0.07315 0.28536 0.0
C1336 C 0.07772 0.11626 0.28461 0.0
C1337 C 0.11239 0.08217 0.25977 0.0
C1338 C 0.03591 0.15025 0.25941 0.0
C1339 C 0.03234 0.18262 0.29807 0.0
N1340 N 0.08828 0.10357 0.25976 0.0
N1341 N 0.05176 0.15821 0.30051 0.0
H1342 H 0.2081 0.36573 1.00349 0.0
H1343 H 0.21476 0.43579 0.81869 0.0
H1344 H 0.21432 0.33009 0.92632 0.0
H1345 H 0.20469 0.47535 0.89346 0.0
H1346 H 0.21435 0.39704 0.85875 0.0
H1347 H 0.20661 0.40616 0.96459 0.0
C1348 C 0.20909 0.36637 0.97849 0.0
C1349 C 0.21137 0.34437 0.96828 0.0
C1350 C 0.21214 0.41417 0.86652 0.0
C1351 C 0.20971 0.39049 0.92372 0.0
C1352 C 0.21237 0.4364 0.84356 0.0
C1353 C 0.20976 0.45897 0.8526 0.0
C1354 C 0.20937 0.41428 0.89897 0.0
C1355 C 0.20669 0.45844 0.88533 0.0
C1356 C 0.20824 0.38945 0.95631 0.0
C1357 C 0.21261 0.3464 0.93552 0.0
N1358 N 0.20667 0.43644 0.90732 0.0
N1359 N 0.2118 0.36892 0.91457 0.0
H1360 H 0.29341 0.22427 0.95996 0.0
H1361 H 0.41132 0.28528 0.87264 0.0
H1362 H 0.30642 0.28299 0.99161 0.0
H1363 H 0.3941 0.23058 0.83766 0.0
H1364 H 0.37687 0.28076 0.91996 0.0
H1365 H 0.33448 0.22203 0.91916 0.0
C1366 C 0.30509 0.23647 0.95863 0.0
C1367 C 0.29623 0.25408 0.97904 0.0
C1368 C 0.38076 0.26963 0.90201 0.0
C1369 C 0.34317 0.25176 0.93211 0.0
C1370 C 0.40042 0.27221 0.87495 0.0
C1371 C 0.40544 0.25847 0.85096 0.0
C1372 C 0.36598 0.2532 0.90514 0.0
C1373 C 0.39077 0.24172 0.85539 0.0
C1374 C 0.32851 0.23523 0.93522 0.0
C1375 C 0.31233 0.26927 0.97626 0.0
N1376 N 0.3716 0.23968 0.88186 0.0
N1377 N 0.33486 0.26795 0.95299 0.0
H1378 H 0.42558 0.49458 0.96193 0.0
H1379 H 0.26331 0.54648 0.98796 0.0
H1380 H 0.37847 0.53356 0.03965 0.0
H1381 H 0.31425 0.48364 0.93878 0.0
H1382 H 0.3033 0.53796 1.01388 0.0
H1383 H 0.38436 0.48678 0.95806 0.0
C1384 C 0.40638 0.50156 0.97814 0.0
C1385 C 0.40496 0.51537 1.0005 0.0
C1386 C 0.3054 0.52552 0.9982 0.0
C1387 C 0.35766 0.50658 0.9963 0.0
C1388 C 0.28262 0.53041 0.98334 0.0
C1389 C 0.28573 0.5163 0.96039 0.0
C1390 C 0.33138 0.50665 0.98965 0.0
C1391 C 0.31091 0.49528 0.95595 0.0
C1392 C 0.38296 0.4968 0.97626 0.0
C1393 C 0.38003 0.52325 0.0217 0.0
N1394 N 0.333 0.49153 0.96979 0.0
N1395 N 0.35699 0.51929 0.0186 0.0
H1396 H 0.64447 0.69143 0.89505 0.0
H1397 H 0.49328 0.67836 0.9393 0.0
H1398 H 0.57754 0.73155 0.96197 0.0
H1399 H 0.5626 0.63486 0.87737 0.0
H1400 H 0.52182 0.70194 0.94318 0.0
H1401 H 0.61286 0.67432 0.88383 0.0
C1402 C 0.62301 0.69687 0.90717 0.0
C1403 C 0.61366 0.71295 0.92952 0.0
C1404 C 0.53066 0.68743 0.92847 0.0
C1405 C 0.57736 0.6931 0.91704 0.0
C1406 C 0.5144 0.67395 0.92626 0.0
C1407 C 0.52563 0.65444 0.90819 0.0
C1408 C 0.55839 0.68132 0.91254 0.0
C1409 C 0.55295 0.64985 0.89138 0.0
C1410 C 0.60499 0.68698 0.90085 0.0
C1411 C 0.58575 0.71895 0.94487 0.0
N1412 N 0.56847 0.66301 0.89421 0.0
N1413 N 0.56859 0.70896 0.93841 0.0
H1414 H 0.91234 0.84881 0.8096 0.0
H1415 H 0.7917 0.96755 0.72277 0.0
H1416 H 0.89032 0.85019 0.72075 0.0
H1417 H 0.80226 0.95884 0.81982 0.0
H1418 H 0.83252 0.92787 0.71842 0.0
H1419 H 0.87671 0.89201 0.81038 0.0
C1420 C 0.90015 0.8582 0.79012 0.0
C1421 C 0.90424 0.84564 0.76516 0.0
C1422 C 0.82606 0.93474 0.74058 0.0
C1423 C 0.86335 0.89534 0.76598 0.0
C1424 C 0.80279 0.95749 0.74309 0.0
C1425 C 0.79338 0.96651 0.77182 0.0
C1426 C 0.84016 0.92084 0.76694 0.0
C1427 C 0.80869 0.9526 0.79726 0.0
C1428 C 0.87975 0.88291 0.79065 0.0
C1429 C 0.88782 0.85898 0.74057 0.0
N1430 N 0.83124 0.93037 0.79428 0.0
N1431 N 0.86804 0.88306 0.74166 0.0
H1432 H 0.43346 0.14492 0.68012 0.0
H1433 H 0.45047 0.11237 0.50971 0.0
H1434 H 0.4368 0.2008 0.59226 0.0
H1435 H 0.46806 0.0541 0.59569 0.0
H1436 H 0.44155 0.14589 0.53949 0.0
H1437 H 0.4422 0.11221 0.64953 0.0
C1438 C 0.43592 0.15033 0.65435 0.0
C1439 C 0.43431 0.17566 0.63872 0.0
C1440 C 0.44739 0.12575 0.55176 0.0
C1441 C 0.44442 0.13821 0.60344 0.0
C1442 C 0.45238 0.10661 0.53482 0.0
C1443 C 0.46007 0.08034 0.55019 0.0
C1444 C 0.44976 0.11859 0.58437 0.0
C1445 C 0.46229 0.07405 0.58276 0.0
C1446 C 0.44108 0.1316 0.63688 0.0
C1447 C 0.43808 0.18146 0.60524 0.0
N1448 N 0.45707 0.09301 0.59873 0.0
N1449 N 0.44281 0.16291 0.58869 0.0
H1450 H 0.49677 0.33972 0.93046 0.0
H1451 H 0.50891 0.47851 0.90961 0.0
H1452 H 0.50501 0.39033 0.83896 0.0
H1453 H 0.48851 0.43187 1.0003 0.0
H1454 H 0.51136 0.44517 0.88303 0.0
H1455 H 0.49717 0.37216 0.9562 0.0
C1456 C 0.49877 0.35763 0.91576 0.0
C1457 C 0.50085 0.36228 0.88248 0.0
C1458 C 0.50647 0.44224 0.90876 0.0
C1459 C 0.50125 0.39967 0.91186 0.0
C1460 C 0.50522 0.4612 0.92397 0.0
C1461 C 0.49847 0.45805 0.95726 0.0
C1462 C 0.50108 0.41993 0.92699 0.0
C1463 C 0.49372 0.43525 0.97459 0.0
C1464 C 0.49888 0.37622 0.93048 0.0
C1465 C 0.50303 0.38604 0.8647 0.0
N1466 N 0.49509 0.41714 0.95927 0.0
N1467 N 0.50324 0.40381 0.87959 0.0
H1468 H 0.53631 0.87551 0.34236 0.0
H1469 H 0.46435 0.94669 0.49001 0.0
H1470 H 0.46161 0.86881 0.40524 0.0
H1471 H 0.52318 0.9709 0.41375 0.0
H1472 H 0.46674 0.91496 0.46146 0.0
H1473 H 0.53512 0.90773 0.3701 0.0
C1474 C 0.51966 0.88084 0.36196 0.0
C1475 C 0.49896 0.86953 0.37143 0.0
C1476 C 0.47918 0.92717 0.45093 0.0
C1477 C 0.49761 0.90614 0.40332 0.0
C1478 C 0.47798 0.94523 0.46733 0.0
C1479 C 0.49365 0.96152 0.45431 0.0
C1480 C 0.49637 0.92506 0.42132 0.0
C1481 C 0.51072 0.95877 0.42468 0.0
C1482 C 0.51894 0.89927 0.37767 0.0
C1483 C 0.47778 0.87726 0.39685 0.0
N1484 N 0.51169 0.94083 0.4092 0.0
N1485 N 0.47775 0.89493 0.41198 0.0
H1486 H 0.44037 0.60813 1.0184 0.0
H1487 H 0.46051 0.6451 0.1713 0.0
H1488 H 0.48106 0.55154 0.09595 0.0
H1489 H 0.41903 0.70177 0.09439 0.0
H1490 H 0.46877 0.61066 0.14365 0.0
H1491 H 0.43248 0.64268 0.04571 0.0
C1492 C 0.44758 0.60292 0.04121 0.0
C1493 C 0.46137 0.57681 0.05489 0.0
C1494 C 0.45788 0.63063 0.13279 0.0
C1495 C 0.45244 0.61641 0.08629 0.0
C1496 C 0.45332 0.65035 0.14847 0.0
C1497 C 0.43905 0.67645 0.13518 0.0
C1498 C 0.44815 0.63695 0.1035 0.0
C1499 C 0.4298 0.68195 0.10577 0.0
C1500 C 0.44309 0.6227 0.05679 0.0
C1501 C 0.47028 0.57134 0.08448 0.0
N1502 N 0.43452 0.6624 0.09094 0.0
N1503 N 0.46568 0.59094 0.09915 0.0
loop_
_geom_bond_atom_site_label_1
_geom_bond_atom_site_label_2
_geom_bond_distance
_geom_bond_site_symmetry_2
_ccdc_geom_bond_type
Tb0 C10 2.825 . S
Tb0 O11 2.347 1_564 S
Tb0 O14 2.366 1_654 S
Tb0 O19 2.418 1_655 S
Tb0 O20 2.384 1_565 S
Tb0 O23 2.479 . S
Tb0 O24 2.471 . S
Eu1 O12 2.418 1_455 S
Eu1 O13 2.384 1_545 S
Eu1 O16 2.479 . S
Eu1 O17 2.471 . S
Eu1 O18 2.347 1_546 S
Eu1 O21 2.366 1_456 S
Eu1 C31 2.825 . S
C2 O18 1.259 . S
C2 O19 1.265 . S
C3 O20 1.255 . S
C3 O21 1.265 . S
C4 C6 1.380 . S
C4 C7 1.374 . S
C4 C10 1.507 . S
C5 C6 1.384 . S
C5 C9 1.387 . S
C5 H32 0.930 . S
C6 C4 1.380 . S
C6 C5 1.384 . S
C6 H33 0.931 . S
C7 C4 1.374 . S
C7 C8 1.390 . S
C7 H34 0.935 . S
C8 C7 1.390 . S
C8 C9 1.391 . S
C8 H35 0.930 . S
C9 C5 1.387 . S
C9 C8 1.391 . S
C10 Tb0 2.825 . S
C10 C4 1.507 . S
C10 O23 1.238 . S
C10 O24 1.247 . S
O11 Tb0 2.347 1_546 S
O11 C15 1.259 . S
O12 Eu1 2.418 1_655 S
O12 C15 1.265 . S
O13 Eu1 2.384 1_565 S
O13 C22 1.255 . S
O14 Tb0 2.366 1_456 S
O14 C22 1.265 . S
C15 O11 1.259 . S
C15 O12 1.265 . S
O16 Eu1 2.479 . S
O16 C31 1.238 . S
O17 Eu1 2.471 . S
O17 C31 1.247 . S
O18 Eu1 2.347 1_564 S
O18 C2 1.259 . S
O19 Tb0 2.418 1_455 S
O19 C2 1.265 . S
O20 Tb0 2.384 1_545 S
O20 C3 1.255 . S
O21 Eu1 2.366 1_654 S
O21 C3 1.265 . S
C22 O13 1.255 . S
C22 O14 1.265 . S
O23 Tb0 2.479 . S
O23 C10 1.238 . S
O24 Tb0 2.471 . S
O24 C10 1.247 . S
C25 C28 1.380 . S
C25 C29 1.374 . S
C25 C31 1.507 . S
C26 C27 1.387 . S
C26 C30 1.391 . S
C27 C26 1.387 . S
C27 C28 1.384 . S
C27 H36 0.930 . S
C28 C25 1.380 . S
C28 C27 1.384 . S
C28 H37 0.931 . S
C29 C25 1.374 . S
C29 C30 1.390 . S
C29 H38 0.929 1_556 S
C30 C26 1.391 . S
C30 C29 1.390 . S
C30 H39 0.930 . S
C31 Eu1 2.825 . S
C31 O16 1.238 . S
C31 O17 1.247 . S
C31 C25 1.507 . S
H32 C5 0.930 . S
H33 C6 0.931 . S
H34 C7 0.935 . S
H35 C8 0.930 . S
H36 C27 0.930 . S
H37 C28 0.931 . S
H38 C29 0.929 1_554 S
H39 C30 0.930 . S
Tb40 C50 2.825 . S
Tb40 O51 2.347 1_455 S
Tb40 O54 2.366 1_455 S
Tb40 O59 2.418 . S
Tb40 O60 2.384 . S
Tb40 O63 2.479 . S
Tb40 O64 2.471 1_455 S
Eu41 O52 2.418 . S
Eu41 O53 2.384 . S
Eu41 O56 2.479 . S
Eu41 O57 2.471 1_655 S
Eu41 O58 2.347 1_655 S
Eu41 O61 2.366 1_655 S
Eu41 C71 2.825 . S
C42 O58 1.259 . S
C42 O59 1.265 . S
C43 O60 1.255 . S
C43 O61 1.265 . S
C44 C46 1.380 . S
C44 C47 1.374 1_455 S
C44 C50 1.507 . S
C45 C46 1.384 . S
C45 C49 1.387 1_455 S
C45 H72 0.930 . S
C46 C44 1.380 . S
C46 C45 1.384 . S
C46 H73 0.931 . S
C47 C44 1.374 1_655 S
C47 C48 1.390 . S
C47 H74 0.930 . S
C48 C47 1.390 . S
C48 C49 1.391 . S
C48 H75 0.930 . S
C49 C45 1.387 1_655 S
C49 C48 1.391 . S
C50 Tb40 2.825 . S
C50 C44 1.507 . S
C50 O63 1.238 . S
C50 O64 1.247 1_455 S
O51 Tb40 2.347 1_655 S
O51 C55 1.259 . S
O52 Eu41 2.418 . S
O52 C55 1.265 . S
O53 Eu41 2.384 . S
O53 C62 1.255 . S
O54 Tb40 2.366 1_655 S
O54 C62 1.265 . S
C55 O51 1.259 . S
C55 O52 1.265 . S
O56 Eu41 2.479 . S
O56 C71 1.238 . S
O57 Eu41 2.471 1_455 S
O57 C71 1.247 1_455 S
O58 Eu41 2.347 1_455 S
O58 C42 1.259 . S
O59 Tb40 2.418 . S
O59 C42 1.265 . S
O60 Tb40 2.384 . S
O60 C43 1.255 . S
O61 Eu41 2.366 1_455 S
O61 C43 1.265 . S
C62 O53 1.255 . S
C62 O54 1.265 . S
O63 Tb40 2.479 . S
O63 C50 1.238 . S
O64 Tb40 2.471 1_655 S
O64 C50 1.247 1_655 S
C65 C68 1.380 . S
C65 C69 1.374 1_655 S
C65 C71 1.507 . S
C66 C67 1.387 1_455 S
C66 C70 1.391 . S
C67 C66 1.387 1_655 S
C67 C68 1.384 . S
C67 H76 0.930 . S
C68 C65 1.380 . S
C68 C67 1.384 . S
C68 H77 0.931 . S
C69 C65 1.374 1_455 S
C69 C70 1.390 . S
C69 H78 0.930 . S
C70 C66 1.391 . S
C70 C69 1.390 . S
C70 H79 0.930 . S
C71 Eu41 2.825 . S
C71 O56 1.238 . S
C71 O57 1.247 1_655 S
C71 C65 1.507 . S
H72 C45 0.930 . S
H73 C46 0.931 . S
H74 C47 0.930 . S
H75 C48 0.930 . S
H76 C67 0.930 . S
H77 C68 0.931 . S
H78 C69 0.930 . S
H79 C70 0.930 . S
Tb80 C90 2.825 . S
Tb80 O91 2.347 . S
Tb80 O94 2.366 . S
Tb80 O99 2.418 . S
Tb80 O100 2.384 . S
Tb80 O103 2.479 . S
Tb80 O104 2.471 . S
Eu81 O92 2.418 . S
Eu81 O93 2.384 . S
Eu81 O96 2.479 . S
Eu81 O97 2.471 . S
Eu81 O98 2.347 . S
Eu81 O101 2.366 . S
Eu81 C111 2.825 . S
C82 O98 1.259 . S
C82 O99 1.265 . S
C83 O100 1.255 . S
C83 O101 1.265 . S
C84 C86 1.380 . S
C84 C87 1.374 . S
C84 C90 1.507 . S
C85 C86 1.384 . S
C85 C89 1.387 . S
C85 H112 0.930 . S
C86 C84 1.380 . S
C86 C85 1.384 . S
C86 H113 0.931 . S
C87 C84 1.374 . S
C87 C88 1.390 . S
C87 H114 0.930 . S
C88 C87 1.390 . S
C88 C89 1.391 . S
C88 H115 0.930 . S
C89 C85 1.387 . S
C89 C88 1.391 . S
C90 Tb80 2.825 . S
C90 C84 1.507 . S
C90 O103 1.238 . S
C90 O104 1.247 . S
O91 Tb80 2.347 . S
O91 C95 1.259 . S
O92 Eu81 2.418 . S
O92 C95 1.265 . S
O93 Eu81 2.384 . S
O93 C102 1.255 . S
O94 Tb80 2.366 . S
O94 C102 1.265 . S
C95 O91 1.259 . S
C95 O92 1.265 . S
O96 Eu81 2.479 . S
O96 C111 1.238 . S
O97 Eu81 2.471 . S
O97 C111 1.247 . S
O98 Eu81 2.347 . S
O98 C82 1.259 . S
O99 Tb80 2.418 . S
O99 C82 1.265 . S
O100 Tb80 2.384 . S
O100 C83 1.255 . S
O101 Eu81 2.366 . S
O101 C83 1.265 . S
C102 O93 1.255 . S
C102 O94 1.265 . S
O103 Tb80 2.479 . S
O103 C90 1.238 . S
O104 Tb80 2.471 . S
O104 C90 1.247 . S
C105 C108 1.380 . S
C105 C109 1.374 . S
C105 C111 1.507 . S
C106 C107 1.387 . S
C106 C110 1.391 . S
C107 C106 1.387 . S
C107 C108 1.384 . S
C107 H116 0.930 . S
C108 C105 1.380 . S
C108 C107 1.384 . S
C108 H117 0.931 . S
C109 C105 1.374 . S
C109 C110 1.390 . S
C109 H118 0.930 . S
C110 C106 1.391 . S
C110 C109 1.390 . S
C110 H119 0.930 . S
C111 Eu81 2.825 . S
C111 O96 1.238 . S
C111 O97 1.247 . S
C111 C105 1.507 . S
H112 C85 0.930 . S
H113 C86 0.931 . S
H114 C87 0.930 . S
H115 C88 0.930 . S
H116 C107 0.930 . S
H117 C108 0.931 . S
H118 C109 0.930 . S
H119 C110 0.930 . S
Tb120 C130 2.825 . S
Tb120 O131 2.347 1_565 S
Tb120 O134 2.366 1_565 S
Tb120 O139 2.418 . S
Tb120 O140 2.384 . S
Tb120 O143 2.479 . S
Tb120 O144 2.471 1_565 S
Eu121 O132 2.418 . S
Eu121 O133 2.384 . S
Eu121 O136 2.479 . S
Eu121 O137 2.471 1_545 S
Eu121 O138 2.347 1_545 S
Eu121 O141 2.366 1_545 S
Eu121 C151 2.825 . S
C122 O138 1.259 . S
C122 O139 1.265 . S
C123 O140 1.255 . S
C123 O141 1.265 . S
C124 C126 1.380 1_545 S
C124 C127 1.374 . S
C124 C130 1.507 1_545 S
C125 C126 1.384 . S
C125 C129 1.387 1_565 S
C125 H152 0.930 . S
C126 C124 1.380 1_565 S
C126 C125 1.384 . S
C126 H153 0.931 . S
C127 C124 1.374 . S
C127 C128 1.390 . S
C127 H154 0.930 . S
C128 C127 1.390 . S
C128 C129 1.391 . S
C128 H155 0.930 . S
C129 C125 1.387 1_545 S
C129 C128 1.391 . S
C130 Tb120 2.825 . S
C130 C124 1.507 1_565 S
C130 O143 1.238 . S
C130 O144 1.247 1_565 S
O131 Tb120 2.347 1_545 S
O131 C135 1.259 . S
O132 Eu121 2.418 . S
O132 C135 1.265 . S
O133 Eu121 2.384 . S
O133 C142 1.255 . S
O134 Tb120 2.366 1_545 S
O134 C142 1.265 . S
C135 O131 1.259 . S
C135 O132 1.265 . S
O136 Eu121 2.479 . S
O136 C151 1.238 . S
O137 Eu121 2.471 1_565 S
O137 C151 1.247 1_565 S
O138 Eu121 2.347 1_565 S
O138 C122 1.259 . S
O139 Tb120 2.418 . S
O139 C122 1.265 . S
O140 Tb120 2.384 . S
O140 C123 1.255 . S
O141 Eu121 2.366 1_565 S
O141 C123 1.265 . S
C142 O133 1.255 . S
C142 O134 1.265 . S
O143 Tb120 2.479 . S
O143 C130 1.238 . S
O144 Tb120 2.471 1_545 S
O144 C130 1.247 1_545 S
C145 C148 1.380 1_565 S
C145 C149 1.374 . S
C145 C151 1.507 1_565 S
C146 C147 1.387 1_565 S
C146 C150 1.391 . S
C147 C146 1.387 1_545 S
C147 C148 1.384 . S
C147 H156 0.930 . S
C148 C145 1.380 1_545 S
C148 C147 1.384 . S
C148 H157 0.931 . S
C149 C145 1.374 . S
C149 C150 1.390 . S
C149 H158 0.930 . S
C150 C146 1.391 . S
C150 C149 1.390 . S
C150 H159 0.930 . S
C151 Eu121 2.825 . S
C151 O136 1.238 . S
C151 O137 1.247 1_545 S
C151 C145 1.507 1_545 S
H152 C125 0.930 . S
H153 C126 0.931 . S
H154 C127 0.930 . S
H155 C128 0.930 . S
H156 C147 0.930 . S
H157 C148 0.931 . S
H158 C149 0.930 . S
H159 C150 0.930 . S
Tb160 C170 2.825 . S
Tb160 O171 2.347 . S
Tb160 O174 2.366 . S
Tb160 O179 2.418 . S
Tb160 O180 2.384 . S
Tb160 O183 2.479 . S
Tb160 O184 2.471 . S
Eu161 O172 2.418 . S
Eu161 O173 2.384 . S
Eu161 O176 2.479 . S
Eu161 O177 2.471 . S
Eu161 O178 2.347 . S
Eu161 O181 2.366 . S
Eu161 C191 2.825 . S
C162 O178 1.259 . S
C162 O179 1.265 . S
C163 O180 1.255 . S
C163 O181 1.265 . S
C164 C166 1.380 . S
C164 C167 1.374 . S
C164 C170 1.507 . S
C165 C166 1.384 . S
C165 C169 1.387 . S
C165 H192 0.930 . S
C166 C164 1.380 . S
C166 C165 1.384 . S
C166 H193 0.931 . S
C167 C164 1.374 . S
C167 C168 1.390 . S
C167 H194 0.930 . S
C168 C167 1.390 . S
C168 C169 1.391 . S
C168 H195 0.930 . S
C169 C165 1.387 . S
C169 C168 1.391 . S
C170 Tb160 2.825 . S
C170 C164 1.507 . S
C170 O183 1.238 . S
C170 O184 1.247 . S
O171 Tb160 2.347 . S
O171 C175 1.259 . S
O172 Eu161 2.418 . S
O172 C175 1.265 . S
O173 Eu161 2.384 . S
O173 C182 1.255 . S
O174 Tb160 2.366 . S
O174 C182 1.265 . S
C175 O171 1.259 . S
C175 O172 1.265 . S
O176 Eu161 2.479 . S
O176 C191 1.238 . S
O177 Eu161 2.471 . S
O177 C191 1.247 . S
O178 Eu161 2.347 . S
O178 C162 1.259 . S
O179 Tb160 2.418 . S
O179 C162 1.265 . S
O180 Tb160 2.384 . S
O180 C163 1.255 . S
O181 Eu161 2.366 . S
O181 C163 1.265 . S
C182 O173 1.255 . S
C182 O174 1.265 . S
O183 Tb160 2.479 . S
O183 C170 1.238 . S
O184 Tb160 2.471 . S
O184 C170 1.247 . S
C185 C188 1.380 . S
C185 C189 1.374 . S
C185 C191 1.507 . S
C186 C187 1.387 . S
C186 C190 1.391 . S
C187 C186 1.387 . S
C187 C188 1.384 . S
C187 H196 0.930 . S
C188 C185 1.380 . S
C188 C187 1.384 . S
C188 H197 0.931 . S
C189 C185 1.374 . S
C189 C190 1.390 . S
C189 H198 0.930 . S
C190 C186 1.391 . S
C190 C189 1.390 . S
C190 H199 0.930 . S
C191 Eu161 2.825 . S
C191 O176 1.238 . S
C191 O177 1.247 . S
C191 C185 1.507 . S
H192 C165 0.930 . S
H193 C166 0.931 . S
H194 C167 0.930 . S
H195 C168 0.930 . S
H196 C187 0.930 . S
H197 C188 0.931 . S
H198 C189 0.930 . S
H199 C190 0.930 . S
Tb200 C210 2.825 . S
Tb200 O211 2.347 . S
Tb200 O214 2.366 . S
Tb200 O219 2.418 . S
Tb200 O220 2.384 . S
Tb200 O223 2.479 . S
Tb200 O224 2.471 . S
Eu201 O212 2.418 . S
Eu201 O213 2.384 . S
Eu201 O216 2.479 . S
Eu201 O217 2.471 . S
Eu201 O218 2.347 . S
Eu201 O221 2.366 . S
Eu201 C231 2.825 . S
C202 O218 1.259 . S
C202 O219 1.265 . S
C203 O220 1.255 . S
C203 O221 1.265 . S
C204 C206 1.380 . S
C204 C207 1.374 . S
C204 C210 1.507 . S
C205 C206 1.384 . S
C205 C209 1.387 . S
C205 H232 0.930 . S
C206 C204 1.380 . S
C206 C205 1.384 . S
C206 H233 0.931 . S
C207 C204 1.374 . S
C207 C208 1.390 . S
C207 H234 0.930 . S
C208 C207 1.390 . S
C208 C209 1.391 . S
C208 H235 0.930 . S
C209 C205 1.387 . S
C209 C208 1.391 . S
C210 Tb200 2.825 . S
C210 C204 1.507 . S
C210 O223 1.238 . S
C210 O224 1.247 . S
O211 Tb200 2.347 . S
O211 C215 1.259 . S
O212 Eu201 2.418 . S
O212 C215 1.265 . S
O213 Eu201 2.384 . S
O213 C222 1.255 . S
O214 Tb200 2.366 . S
O214 C222 1.265 . S
C215 O211 1.259 . S
C215 O212 1.265 . S
O216 Eu201 2.479 . S
O216 C231 1.238 . S
O217 Eu201 2.471 . S
O217 C231 1.247 . S
O218 Eu201 2.347 . S
O218 C202 1.259 . S
O219 Tb200 2.418 . S
O219 C202 1.265 . S
O220 Tb200 2.384 . S
O220 C203 1.255 . S
O221 Eu201 2.366 . S
O221 C203 1.265 . S
C222 O213 1.255 . S
C222 O214 1.265 . S
O223 Tb200 2.479 . S
O223 C210 1.238 . S
O224 Tb200 2.471 . S
O224 C210 1.247 . S
C225 C228 1.380 . S
C225 C229 1.374 . S
C225 C231 1.507 . S
C226 C227 1.387 . S
C226 C230 1.391 . S
C227 C226 1.387 . S
C227 C228 1.384 . S
C227 H236 0.930 . S
C228 C225 1.380 . S
C228 C227 1.384 . S
C228 H237 0.931 . S
C229 C225 1.374 . S
C229 C230 1.390 . S
C229 H238 0.930 . S
C230 C226 1.391 . S
C230 C229 1.390 . S
C230 H239 0.930 . S
C231 Eu201 2.825 . S
C231 O216 1.238 . S
C231 O217 1.247 . S
C231 C225 1.507 . S
H232 C205 0.930 . S
H233 C206 0.931 . S
H234 C207 0.930 . S
H235 C208 0.930 . S
H236 C227 0.930 . S
H237 C228 0.931 . S
H238 C229 0.930 . S
H239 C230 0.930 . S
Tb240 C250 2.825 . S
Tb240 O251 2.347 . S
Tb240 O254 2.366 . S
Tb240 O259 2.418 . S
Tb240 O260 2.384 . S
Tb240 O263 2.479 . S
Tb240 O264 2.471 . S
Eu241 O252 2.418 . S
Eu241 O253 2.384 . S
Eu241 O256 2.479 . S
Eu241 O257 2.471 . S
Eu241 O258 2.347 . S
Eu241 O261 2.366 . S
Eu241 C271 2.825 . S
C242 O258 1.259 . S
C242 O259 1.265 . S
C243 O260 1.255 . S
C243 O261 1.265 . S
C244 C246 1.380 . S
C244 C247 1.374 . S
C244 C250 1.507 . S
C245 C246 1.384 . S
C245 C249 1.387 . S
C245 H272 0.930 . S
C246 C244 1.380 . S
C246 C245 1.384 . S
C246 H273 0.931 . S
C247 C244 1.374 . S
C247 C248 1.390 . S
C247 H274 0.930 . S
C248 C247 1.390 . S
C248 C249 1.391 . S
C248 H275 0.930 . S
C249 C245 1.387 . S
C249 C248 1.391 . S
C250 Tb240 2.825 . S
C250 C244 1.507 . S
C250 O263 1.238 . S
C250 O264 1.247 . S
O251 Tb240 2.347 . S
O251 C255 1.259 . S
O252 Eu241 2.418 . S
O252 C255 1.265 . S
O253 Eu241 2.384 . S
O253 C262 1.255 . S
O254 Tb240 2.366 . S
O254 C262 1.265 . S
C255 O251 1.259 . S
C255 O252 1.265 . S
O256 Eu241 2.479 . S
O256 C271 1.238 . S
O257 Eu241 2.471 . S
O257 C271 1.247 . S
O258 Eu241 2.347 . S
O258 C242 1.259 . S
O259 Tb240 2.418 . S
O259 C242 1.265 . S
O260 Tb240 2.384 . S
O260 C243 1.255 . S
O261 Eu241 2.366 . S
O261 C243 1.265 . S
C262 O253 1.255 . S
C262 O254 1.265 . S
O263 Tb240 2.479 . S
O263 C250 1.238 . S
O264 Tb240 2.471 . S
O264 C250 1.247 . S
C265 C268 1.380 . S
C265 C269 1.374 . S
C265 C271 1.507 . S
C266 C267 1.387 . S
C266 C270 1.391 . S
C267 C266 1.387 . S
C267 C268 1.384 . S
C267 H276 0.930 . S
C268 C265 1.380 . S
C268 C267 1.384 . S
C268 H277 0.931 . S
C269 C265 1.374 . S
C269 C270 1.390 . S
C269 H278 0.930 . S
C270 C266 1.391 . S
C270 C269 1.390 . S
C270 H279 0.930 . S
C271 Eu241 2.825 . S
C271 O256 1.238 . S
C271 O257 1.247 . S
C271 C265 1.507 . S
H272 C245 0.930 . S
H273 C246 0.931 . S
H274 C247 0.930 . S
H275 C248 0.930 . S
H276 C267 0.930 . S
H277 C268 0.931 . S
H278 C269 0.930 . S
H279 C270 0.930 . S
Tb280 C290 2.825 . S
Tb280 O291 2.347 . S
Tb280 O294 2.366 1_655 S
Tb280 O299 2.418 1_655 S
Tb280 O300 2.384 . S
Tb280 O303 2.479 . S
Tb280 O304 2.471 . S
Eu281 O292 2.418 1_455 S
Eu281 O293 2.384 . S
Eu281 O296 2.479 . S
Eu281 O297 2.471 . S
Eu281 O298 2.347 . S
Eu281 O301 2.366 1_455 S
Eu281 C311 2.825 . S
C282 O298 1.259 . S
C282 O299 1.265 . S
C283 O300 1.255 . S
C283 O301 1.265 . S
C284 C286 1.380 . S
C284 C287 1.374 . S
C284 C290 1.507 . S
C285 C286 1.384 . S
C285 C289 1.387 . S
C285 H312 0.930 . S
C286 C284 1.380 . S
C286 C285 1.384 . S
C286 H313 0.931 . S
C287 C284 1.374 . S
C287 C288 1.390 . S
C287 H314 0.930 . S
C288 C287 1.390 . S
C288 C289 1.391 . S
C288 H315 0.930 . S
C289 C285 1.387 . S
C289 C288 1.391 . S
C290 Tb280 2.825 . S
C290 C284 1.507 . S
C290 O303 1.238 . S
C290 O304 1.247 . S
O291 Tb280 2.347 . S
O291 C295 1.259 . S
O292 Eu281 2.418 1_655 S
O292 C295 1.265 . S
O293 Eu281 2.384 . S
O293 C302 1.255 . S
O294 Tb280 2.366 1_455 S
O294 C302 1.265 . S
C295 O291 1.259 . S
C295 O292 1.265 . S
O296 Eu281 2.479 . S
O296 C311 1.238 . S
O297 Eu281 2.471 . S
O297 C311 1.247 . S
O298 Eu281 2.347 . S
O298 C282 1.259 . S
O299 Tb280 2.418 1_455 S
O299 C282 1.265 . S
O300 Tb280 2.384 . S
O300 C283 1.255 . S
O301 Eu281 2.366 1_655 S
O301 C283 1.265 . S
C302 O293 1.255 . S
C302 O294 1.265 . S
O303 Tb280 2.479 . S
O303 C290 1.238 . S
O304 Tb280 2.471 . S
O304 C290 1.247 . S
C305 C308 1.380 . S
C305 C309 1.374 . S
C305 C311 1.507 . S
C306 C307 1.387 . S
C306 C310 1.391 . S
C307 C306 1.387 . S
C307 C308 1.384 . S
C307 H316 0.930 . S
C308 C305 1.380 . S
C308 C307 1.384 . S
C308 H317 0.931 . S
C309 C305 1.374 . S
C309 C310 1.390 . S
C309 H318 0.930 . S
C310 C306 1.391 . S
C310 C309 1.390 . S
C310 H319 0.930 . S
C311 Eu281 2.825 . S
C311 O296 1.238 . S
C311 O297 1.247 . S
C311 C305 1.507 . S
H312 C285 0.930 . S
H313 C286 0.931 . S
H314 C287 0.930 . S
H315 C288 0.930 . S
H316 C307 0.930 . S
H317 C308 0.931 . S
H318 C309 0.930 . S
H319 C310 0.930 . S
Tb320 C330 2.825 . S
Tb320 O331 2.347 1_554 S
Tb320 O334 2.366 1_554 S
Tb320 O339 2.418 . S
Tb320 O340 2.384 . S
Tb320 O343 2.479 . S
Tb320 O344 2.471 . S
Eu321 O332 2.418 . S
Eu321 O333 2.384 . S
Eu321 O336 2.479 . S
Eu321 O337 2.471 . S
Eu321 O338 2.347 1_556 S
Eu321 O341 2.366 1_556 S
Eu321 C351 2.825 . S
C322 O338 1.259 . S
C322 O339 1.265 . S
C323 O340 1.255 . S
C323 O341 1.265 . S
C324 C326 1.380 . S
C324 C327 1.374 1_554 S
C324 C330 1.507 . S
C325 C326 1.384 . S
C325 C329 1.387 . S
C325 H352 0.930 . S
C326 C324 1.380 . S
C326 C325 1.384 . S
C326 H353 0.931 . S
C327 C324 1.374 1_556 S
C327 C328 1.390 . S
C327 H354 0.930 . S
C328 C327 1.390 . S
C328 C329 1.391 1_556 S
C328 H355 0.930 . S
C329 C325 1.387 . S
C329 C328 1.391 1_554 S
C330 Tb320 2.825 . S
C330 C324 1.507 . S
C330 O343 1.238 . S
C330 O344 1.247 . S
O331 Tb320 2.347 1_556 S
O331 C335 1.259 . S
O332 Eu321 2.418 . S
O332 C335 1.265 . S
O333 Eu321 2.384 . S
O333 C342 1.255 . S
O334 Tb320 2.366 1_556 S
O334 C342 1.265 . S
C335 O331 1.259 . S
C335 O332 1.265 . S
O336 Eu321 2.479 . S
O336 C351 1.238 . S
O337 Eu321 2.471 . S
O337 C351 1.247 . S
O338 Eu321 2.347 1_554 S
O338 C322 1.259 . S
O339 Tb320 2.418 . S
O339 C322 1.265 . S
O340 Tb320 2.384 . S
O340 C323 1.255 . S
O341 Eu321 2.366 1_554 S
O341 C323 1.265 . S
C342 O333 1.255 . S
C342 O334 1.265 . S
O343 Tb320 2.479 . S
O343 C330 1.238 . S
O344 Tb320 2.471 . S
O344 C330 1.247 . S
C345 C348 1.380 . S
C345 C349 1.374 1_556 S
C345 C351 1.507 . S
C346 C347 1.387 . S
C346 C350 1.391 1_556 S
C347 C346 1.387 . S
C347 C348 1.384 . S
C347 H356 0.930 . S
C348 C345 1.380 . S
C348 C347 1.384 . S
C348 H357 0.931 . S
C349 C345 1.374 1_554 S
C349 C350 1.390 . S
C349 H358 0.930 . S
C350 C346 1.391 1_554 S
C350 C349 1.390 . S
C350 H359 0.930 . S
C351 Eu321 2.825 . S
C351 O336 1.238 . S
C351 O337 1.247 . S
C351 C345 1.507 . S
H352 C325 0.930 . S
H353 C326 0.931 . S
H354 C327 0.930 . S
H355 C328 0.930 . S
H356 C347 0.930 . S
H357 C348 0.931 . S
H358 C349 0.930 . S
H359 C350 0.930 . S
Tb360 C370 2.825 . S
Tb360 O371 2.347 1_565 S
Tb360 O374 2.366 1_565 S
Tb360 O379 2.418 . S
Tb360 O380 2.384 . S
Tb360 O383 2.479 . S
Tb360 O384 2.471 1_565 S
Eu361 O372 2.418 . S
Eu361 O373 2.384 . S
Eu361 O376 2.479 . S
Eu361 O377 2.471 1_545 S
Eu361 O378 2.347 1_545 S
Eu361 O381 2.366 1_545 S
Eu361 C391 2.825 . S
C362 O378 1.259 . S
C362 O379 1.265 . S
C363 O380 1.255 . S
C363 O381 1.265 . S
C364 C366 1.380 1_545 S
C364 C367 1.374 . S
C364 C370 1.507 1_545 S
C365 C366 1.384 . S
C365 C369 1.387 1_565 S
C365 H392 0.930 . S
C366 C364 1.380 1_565 S
C366 C365 1.384 . S
C366 H393 0.931 . S
C367 C364 1.374 . S
C367 C368 1.390 . S
C367 H394 0.930 . S
C368 C367 1.390 . S
C368 C369 1.391 . S
C368 H395 0.930 . S
C369 C365 1.387 1_545 S
C369 C368 1.391 . S
C370 Tb360 2.825 . S
C370 C364 1.507 1_565 S
C370 O383 1.238 . S
C370 O384 1.247 1_565 S
O371 Tb360 2.347 1_545 S
O371 C375 1.259 . S
O372 Eu361 2.418 . S
O372 C375 1.265 . S
O373 Eu361 2.384 . S
O373 C382 1.255 . S
O374 Tb360 2.366 1_545 S
O374 C382 1.265 . S
C375 O371 1.259 . S
C375 O372 1.265 . S
O376 Eu361 2.479 . S
O376 C391 1.238 . S
O377 Eu361 2.471 1_565 S
O377 C391 1.247 1_565 S
O378 Eu361 2.347 1_565 S
O378 C362 1.259 . S
O379 Tb360 2.418 . S
O379 C362 1.265 . S
O380 Tb360 2.384 . S
O380 C363 1.255 . S
O381 Eu361 2.366 1_565 S
O381 C363 1.265 . S
C382 O373 1.255 . S
C382 O374 1.265 . S
O383 Tb360 2.479 . S
O383 C370 1.238 . S
O384 Tb360 2.471 1_545 S
O384 C370 1.247 1_545 S
C385 C388 1.380 1_565 S
C385 C389 1.374 . S
C385 C391 1.507 1_565 S
C386 C387 1.387 1_565 S
C386 C390 1.391 . S
C387 C386 1.387 1_545 S
C387 C388 1.384 . S
C387 H396 0.930 . S
C388 C385 1.380 1_545 S
C388 C387 1.384 . S
C388 H397 0.931 . S
C389 C385 1.374 . S
C389 C390 1.390 . S
C389 H398 0.930 . S
C390 C386 1.391 . S
C390 C389 1.390 . S
C390 H399 0.930 . S
C391 Eu361 2.825 . S
C391 O376 1.238 . S
C391 O377 1.247 1_545 S
C391 C385 1.507 1_545 S
H392 C365 0.930 . S
H393 C366 0.931 . S
H394 C367 0.930 . S
H395 C368 0.930 . S
H396 C387 0.930 . S
H397 C388 0.931 . S
H398 C389 0.930 . S
H399 C390 0.930 . S
Tb400 C410 2.825 . S
Tb400 O411 2.347 . S
Tb400 O414 2.366 . S
Tb400 O419 2.418 . S
Tb400 O420 2.384 . S
Tb400 O423 2.479 . S
Tb400 O424 2.471 . S
Eu401 O412 2.418 . S
Eu401 O413 2.384 . S
Eu401 O416 2.479 . S
Eu401 O417 2.471 . S
Eu401 O418 2.347 . S
Eu401 O421 2.366 . S
Eu401 C431 2.825 . S
C402 O418 1.259 . S
C402 O419 1.265 . S
C403 O420 1.255 . S
C403 O421 1.265 . S
C404 C406 1.380 . S
C404 C407 1.374 . S
C404 C410 1.507 . S
C405 C406 1.384 . S
C405 C409 1.387 . S
C405 H432 0.930 . S
C406 C404 1.380 . S
C406 C405 1.384 . S
C406 H433 0.931 . S
C407 C404 1.374 . S
C407 C408 1.390 . S
C407 H434 0.930 . S
C408 C407 1.390 . S
C408 C409 1.391 . S
C408 H435 0.930 . S
C409 C405 1.387 . S
C409 C408 1.391 . S
C410 Tb400 2.825 . S
C410 C404 1.507 . S
C410 O423 1.238 . S
C410 O424 1.247 . S
O411 Tb400 2.347 . S
O411 C415 1.259 . S
O412 Eu401 2.418 . S
O412 C415 1.265 . S
O413 Eu401 2.384 . S
O413 C422 1.255 . S
O414 Tb400 2.366 . S
O414 C422 1.265 . S
C415 O411 1.259 . S
C415 O412 1.265 . S
O416 Eu401 2.479 . S
O416 C431 1.238 . S
O417 Eu401 2.471 . S
O417 C431 1.247 . S
O418 Eu401 2.347 . S
O418 C402 1.259 . S
O419 Tb400 2.418 . S
O419 C402 1.265 . S
O420 Tb400 2.384 . S
O420 C403 1.255 . S
O421 Eu401 2.366 . S
O421 C403 1.265 . S
C422 O413 1.255 . S
C422 O414 1.265 . S
O423 Tb400 2.479 . S
O423 C410 1.238 . S
O424 Tb400 2.471 . S
O424 C410 1.247 . S
C425 C428 1.380 . S
C425 C429 1.374 . S
C425 C431 1.507 . S
C426 C427 1.387 . S
C426 C430 1.391 . S
C427 C426 1.387 . S
C427 C428 1.384 . S
C427 H436 0.930 . S
C428 C425 1.380 . S
C428 C427 1.384 . S
C428 H437 0.931 . S
C429 C425 1.374 . S
C429 C430 1.390 . S
C429 H438 0.930 . S
C430 C426 1.391 . S
C430 C429 1.390 . S
C430 H439 0.930 . S
C431 Eu401 2.825 . S
C431 O416 1.238 . S
C431 O417 1.247 . S
C431 C425 1.507 . S
H432 C405 0.930 . S
H433 C406 0.931 . S
H434 C407 0.930 . S
H435 C408 0.930 . S
H436 C427 0.930 . S
H437 C428 0.931 . S
H438 C429 0.930 . S
H439 C430 0.930 . S
Tb440 C450 2.825 . S
Tb440 O451 2.347 1_455 S
Tb440 O454 2.366 1_455 S
Tb440 O459 2.418 . S
Tb440 O460 2.384 . S
Tb440 O463 2.479 . S
Tb440 O464 2.471 1_455 S
Eu441 O452 2.418 . S
Eu441 O453 2.384 . S
Eu441 O456 2.479 . S
Eu441 O457 2.471 1_655 S
Eu441 O458 2.347 1_655 S
Eu441 O461 2.366 1_655 S
Eu441 C471 2.825 . S
C442 O458 1.259 . S
C442 O459 1.265 . S
C443 O460 1.255 . S
C443 O461 1.265 . S
C444 C446 1.380 . S
C444 C447 1.374 1_455 S
C444 C450 1.507 . S
C445 C446 1.384 . S
C445 C449 1.387 1_455 S
C445 H472 0.930 . S
C446 C444 1.380 . S
C446 C445 1.384 . S
C446 H473 0.931 . S
C447 C444 1.374 1_655 S
C447 C448 1.390 . S
C447 H474 0.930 . S
C448 C447 1.390 . S
C448 C449 1.391 . S
C448 H475 0.930 . S
C449 C445 1.387 1_655 S
C449 C448 1.391 . S
C450 Tb440 2.825 . S
C450 C444 1.507 . S
C450 O463 1.238 . S
C450 O464 1.247 1_455 S
O451 Tb440 2.347 1_655 S
O451 C455 1.259 . S
O452 Eu441 2.418 . S
O452 C455 1.265 . S
O453 Eu441 2.384 . S
O453 C462 1.255 . S
O454 Tb440 2.366 1_655 S
O454 C462 1.265 . S
C455 O451 1.259 . S
C455 O452 1.265 . S
O456 Eu441 2.479 . S
O456 C471 1.238 . S
O457 Eu441 2.471 1_455 S
O457 C471 1.247 1_455 S
O458 Eu441 2.347 1_455 S
O458 C442 1.259 . S
O459 Tb440 2.418 . S
O459 C442 1.265 . S
O460 Tb440 2.384 . S
O460 C443 1.255 . S
O461 Eu441 2.366 1_455 S
O461 C443 1.265 . S
C462 O453 1.255 . S
C462 O454 1.265 . S
O463 Tb440 2.479 . S
O463 C450 1.238 . S
O464 Tb440 2.471 1_655 S
O464 C450 1.247 1_655 S
C465 C468 1.380 . S
C465 C469 1.374 1_655 S
C465 C471 1.507 . S
C466 C467 1.387 1_455 S
C466 C470 1.391 . S
C467 C466 1.387 1_655 S
C467 C468 1.384 . S
C467 H476 0.930 . S
C468 C465 1.380 . S
C468 C467 1.384 . S
C468 H477 0.931 . S
C469 C465 1.374 1_455 S
C469 C470 1.390 . S
C469 H478 0.930 . S
C470 C466 1.391 . S
C470 C469 1.390 . S
C470 H479 0.930 . S
C471 Eu441 2.825 . S
C471 O456 1.238 . S
C471 O457 1.247 1_655 S
C471 C465 1.507 . S
H472 C445 0.930 . S
H473 C446 0.931 . S
H474 C447 0.930 . S
H475 C448 0.930 . S
H476 C467 0.930 . S
H477 C468 0.931 . S
H478 C469 0.930 . S
H479 C470 0.930 . S
Tb480 C490 2.825 . S
Tb480 O491 2.347 . S
Tb480 O494 2.366 . S
Tb480 O499 2.418 . S
Tb480 O500 2.384 . S
Tb480 O503 2.479 . S
Tb480 O504 2.471 . S
Eu481 O492 2.418 . S
Eu481 O493 2.384 . S
Eu481 O496 2.479 . S
Eu481 O497 2.471 . S
Eu481 O498 2.347 . S
Eu481 O501 2.366 . S
Eu481 C511 2.825 . S
C482 O498 1.259 . S
C482 O499 1.265 . S
C483 O500 1.255 . S
C483 O501 1.265 . S
C484 C486 1.380 . S
C484 C487 1.374 . S
C484 C490 1.507 . S
C485 C486 1.384 . S
C485 C489 1.387 . S
C485 H512 0.930 . S
C486 C484 1.380 . S
C486 C485 1.384 . S
C486 H513 0.931 . S
C487 C484 1.374 . S
C487 C488 1.390 . S
C487 H514 0.930 . S
C488 C487 1.390 . S
C488 C489 1.391 . S
C488 H515 0.930 . S
C489 C485 1.387 . S
C489 C488 1.391 . S
C490 Tb480 2.825 . S
C490 C484 1.507 . S
C490 O503 1.238 . S
C490 O504 1.247 . S
O491 Tb480 2.347 . S
O491 C495 1.259 . S
O492 Eu481 2.418 . S
O492 C495 1.265 . S
O493 Eu481 2.384 . S
O493 C502 1.255 . S
O494 Tb480 2.366 . S
O494 C502 1.265 . S
C495 O491 1.259 . S
C495 O492 1.265 . S
O496 Eu481 2.479 . S
O496 C511 1.238 . S
O497 Eu481 2.471 . S
O497 C511 1.247 . S
O498 Eu481 2.347 . S
O498 C482 1.259 . S
O499 Tb480 2.418 . S
O499 C482 1.265 . S
O500 Tb480 2.384 . S
O500 C483 1.255 . S
O501 Eu481 2.366 . S
O501 C483 1.265 . S
C502 O493 1.255 . S
C502 O494 1.265 . S
O503 Tb480 2.479 . S
O503 C490 1.238 . S
O504 Tb480 2.471 . S
O504 C490 1.247 . S
C505 C508 1.380 . S
C505 C509 1.374 . S
C505 C511 1.507 . S
C506 C507 1.387 . S
C506 C510 1.391 . S
C507 C506 1.387 . S
C507 C508 1.384 . S
C507 H516 0.930 . S
C508 C505 1.380 . S
C508 C507 1.384 . S
C508 H517 0.931 . S
C509 C505 1.374 . S
C509 C510 1.390 . S
C509 H518 0.930 . S
C510 C506 1.391 . S
C510 C509 1.390 . S
C510 H519 0.930 . S
C511 Eu481 2.825 . S
C511 O496 1.238 . S
C511 O497 1.247 . S
C511 C505 1.507 . S
H512 C485 0.930 . S
H513 C486 0.931 . S
H514 C487 0.930 . S
H515 C488 0.930 . S
H516 C507 0.930 . S
H517 C508 0.931 . S
H518 C509 0.930 . S
H519 C510 0.930 . S
Tb520 C530 2.825 . S
Tb520 O531 2.347 1_554 S
Tb520 O534 2.366 1_554 S
Tb520 O539 2.418 . S
Tb520 O540 2.384 . S
Tb520 O543 2.479 . S
Tb520 O544 2.471 . S
Eu521 O532 2.418 . S
Eu521 O533 2.384 . S
Eu521 O536 2.479 . S
Eu521 O537 2.471 . S
Eu521 O538 2.347 1_556 S
Eu521 O541 2.366 1_556 S
Eu521 C551 2.825 . S
C522 O538 1.259 . S
C522 O539 1.265 . S
C523 O540 1.255 . S
C523 O541 1.265 . S
C524 C526 1.380 . S
C524 C527 1.374 1_554 S
C524 C530 1.507 . S
C525 C526 1.384 . S
C525 C529 1.387 . S
C525 H552 0.930 . S
C526 C524 1.380 . S
C526 C525 1.384 . S
C526 H553 0.931 . S
C527 C524 1.374 1_556 S
C527 C528 1.390 . S
C527 H554 0.930 . S
C528 C527 1.390 . S
C528 C529 1.391 1_556 S
C528 H555 0.930 . S
C529 C525 1.387 . S
C529 C528 1.391 1_554 S
C530 Tb520 2.825 . S
C530 C524 1.507 . S
C530 O543 1.238 . S
C530 O544 1.247 . S
O531 Tb520 2.347 1_556 S
O531 C535 1.259 . S
O532 Eu521 2.418 . S
O532 C535 1.265 . S
O533 Eu521 2.384 . S
O533 C542 1.255 . S
O534 Tb520 2.366 1_556 S
O534 C542 1.265 . S
C535 O531 1.259 . S
C535 O532 1.265 . S
O536 Eu521 2.479 . S
O536 C551 1.238 . S
O537 Eu521 2.471 . S
O537 C551 1.247 . S
O538 Eu521 2.347 1_554 S
O538 C522 1.259 . S
O539 Tb520 2.418 . S
O539 C522 1.265 . S
O540 Tb520 2.384 . S
O540 C523 1.255 . S
O541 Eu521 2.366 1_554 S
O541 C523 1.265 . S
C542 O533 1.255 . S
C542 O534 1.265 . S
O543 Tb520 2.479 . S
O543 C530 1.238 . S
O544 Tb520 2.471 . S
O544 C530 1.247 . S
C545 C548 1.380 . S
C545 C549 1.374 1_556 S
C545 C551 1.507 . S
C546 C547 1.387 . S
C546 C550 1.391 1_556 S
C547 C546 1.387 . S
C547 C548 1.384 . S
C547 H556 0.930 . S
C548 C545 1.380 . S
C548 C547 1.384 . S
C548 H557 0.931 . S
C549 C545 1.374 1_554 S
C549 C550 1.390 . S
C549 H558 0.930 . S
C550 C546 1.391 1_554 S
C550 C549 1.390 . S
C550 H559 0.930 . S
C551 Eu521 2.825 . S
C551 O536 1.238 . S
C551 O537 1.247 . S
C551 C545 1.507 . S
H552 C525 0.930 . S
H553 C526 0.931 . S
H554 C527 0.930 . S
H555 C528 0.930 . S
H556 C547 0.930 . S
H557 C548 0.931 . S
H558 C549 0.930 . S
H559 C550 0.930 . S
Tb560 C570 2.825 . S
Tb560 O571 2.347 1_565 S
Tb560 O574 2.366 . S
Tb560 O579 2.418 . S
Tb560 O580 2.384 1_565 S
Tb560 O583 2.479 . S
Tb560 O584 2.471 . S
Eu561 O572 2.418 . S
Eu561 O573 2.384 1_545 S
Eu561 O576 2.479 . S
Eu561 O577 2.471 . S
Eu561 O578 2.347 1_545 S
Eu561 O581 2.366 . S
Eu561 C591 2.825 . S
C562 O578 1.259 . S
C562 O579 1.265 . S
C563 O580 1.255 . S
C563 O581 1.265 . S
C564 C566 1.380 . S
C564 C567 1.374 . S
C564 C570 1.507 . S
C565 C566 1.384 . S
C565 C569 1.387 . S
C565 H592 0.930 . S
C566 C564 1.380 . S
C566 C565 1.384 . S
C566 H593 0.931 . S
C567 C564 1.374 . S
C567 C568 1.390 . S
C567 H594 0.930 . S
C568 C567 1.390 . S
C568 C569 1.391 . S
C568 H595 0.930 . S
C569 C565 1.387 . S
C569 C568 1.391 . S
C570 Tb560 2.825 . S
C570 C564 1.507 . S
C570 O583 1.238 . S
C570 O584 1.247 . S
O571 Tb560 2.347 1_545 S
O571 C575 1.259 . S
O572 Eu561 2.418 . S
O572 C575 1.265 . S
O573 Eu561 2.384 1_565 S
O573 C582 1.255 . S
O574 Tb560 2.366 . S
O574 C582 1.265 . S
C575 O571 1.259 . S
C575 O572 1.265 . S
O576 Eu561 2.479 . S
O576 C591 1.238 . S
O577 Eu561 2.471 . S
O577 C591 1.247 . S
O578 Eu561 2.347 1_565 S
O578 C562 1.259 . S
O579 Tb560 2.418 . S
O579 C562 1.265 . S
O580 Tb560 2.384 1_545 S
O580 C563 1.255 . S
O581 Eu561 2.366 . S
O581 C563 1.265 . S
C582 O573 1.255 . S
C582 O574 1.265 . S
O583 Tb560 2.479 . S
O583 C570 1.238 . S
O584 Tb560 2.471 . S
O584 C570 1.247 . S
C585 C588 1.380 . S
C585 C589 1.374 . S
C585 C591 1.507 . S
C586 C587 1.387 . S
C586 C590 1.391 . S
C587 C586 1.387 . S
C587 C588 1.384 . S
C587 H596 0.930 . S
C588 C585 1.380 . S
C588 C587 1.384 . S
C588 H597 0.931 . S
C589 C585 1.374 . S
C589 C590 1.390 . S
C589 H598 0.930 . S
C590 C586 1.391 . S
C590 C589 1.390 . S
C590 H599 0.930 . S
C591 Eu561 2.825 . S
C591 O576 1.238 . S
C591 O577 1.247 . S
C591 C585 1.507 . S
H592 C565 0.930 . S
H593 C566 0.931 . S
H594 C567 0.930 . S
H595 C568 0.930 . S
H596 C587 0.930 . S
H597 C588 0.931 . S
H598 C589 0.930 . S
H599 C590 0.930 . S
Tb600 C610 2.825 . S
Tb600 O611 2.347 1_554 S
Tb600 O614 2.366 1_554 S
Tb600 O619 2.418 . S
Tb600 O620 2.384 . S
Tb600 O623 2.479 . S
Tb600 O624 2.471 . S
Eu601 O612 2.418 . S
Eu601 O613 2.384 . S
Eu601 O616 2.479 . S
Eu601 O617 2.471 . S
Eu601 O618 2.347 1_556 S
Eu601 O621 2.366 1_556 S
Eu601 C631 2.825 . S
C602 O618 1.259 . S
C602 O619 1.265 . S
C603 O620 1.255 . S
C603 O621 1.265 . S
C604 C606 1.380 . S
C604 C607 1.374 . S
C604 C610 1.507 . S
C605 C606 1.384 . S
C605 C609 1.387 . S
C605 H632 0.930 . S
C606 C604 1.380 . S
C606 C605 1.384 . S
C606 H633 0.931 . S
C607 C604 1.374 . S
C607 C608 1.390 . S
C607 H634 0.936 . S
C608 C607 1.390 . S
C608 C609 1.391 . S
C608 H635 0.930 . S
C609 C605 1.387 . S
C609 C608 1.391 . S
C610 Tb600 2.825 . S
C610 C604 1.507 . S
C610 O623 1.238 . S
C610 O624 1.247 . S
O611 Tb600 2.347 1_556 S
O611 C615 1.259 . S
O612 Eu601 2.418 . S
O612 C615 1.265 . S
O613 Eu601 2.384 . S
O613 C622 1.255 . S
O614 Tb600 2.366 1_556 S
O614 C622 1.265 . S
C615 O611 1.259 . S
C615 O612 1.265 . S
O616 Eu601 2.479 . S
O616 C631 1.238 . S
O617 Eu601 2.471 . S
O617 C631 1.247 . S
O618 Eu601 2.347 1_554 S
O618 C602 1.259 . S
O619 Tb600 2.418 . S
O619 C602 1.265 . S
O620 Tb600 2.384 . S
O620 C603 1.255 . S
O621 Eu601 2.366 1_554 S
O621 C603 1.265 . S
C622 O613 1.255 . S
C622 O614 1.265 . S
O623 Tb600 2.479 . S
O623 C610 1.238 . S
O624 Tb600 2.471 . S
O624 C610 1.247 . S
C625 C628 1.380 . S
C625 C629 1.374 . S
C625 C631 1.507 . S
C626 C627 1.387 . S
C626 C630 1.391 . S
C627 C626 1.387 . S
C627 C628 1.384 . S
C627 H636 0.930 . S
C628 C625 1.380 . S
C628 C627 1.384 . S
C628 H637 0.931 . S
C629 C625 1.374 . S
C629 C630 1.390 . S
C629 H638 0.929 1_556 S
C630 C626 1.391 . S
C630 C629 1.390 . S
C630 H639 0.930 . S
C631 Eu601 2.825 . S
C631 O616 1.238 . S
C631 O617 1.247 . S
C631 C625 1.507 . S
H632 C605 0.930 . S
H633 C606 0.931 . S
H634 C607 0.936 . S
H635 C608 0.930 . S
H636 C627 0.930 . S
H637 C628 0.931 . S
H638 C629 0.929 1_554 S
H639 C630 0.930 . S
H640 C646 0.930 . S
H641 C650 0.930 . S
H642 C655 0.929 . S
H643 C653 0.929 . S
H644 C648 0.929 . S
H645 C654 0.922 1_455 S
C646 H640 0.930 . S
C646 C647 1.367 . S
C646 C654 1.385 . S
C647 C646 1.367 . S
C647 C655 1.433 . S
C648 H644 0.929 . S
C648 C650 1.378 . S
C648 C652 1.350 . S
C649 C652 1.463 . S
C649 C654 1.350 . S
C649 N657 1.427 . S
C650 H641 0.930 . S
C650 C648 1.378 . S
C650 C651 1.367 1_655 S
C651 C650 1.367 1_455 S
C651 C653 1.433 . S
C652 C648 1.350 . S
C652 C649 1.463 . S
C652 N656 1.427 1_655 S
C653 H643 0.929 . S
C653 C651 1.433 . S
C653 N656 1.384 . S
C654 H645 0.922 1_655 S
C654 C646 1.385 . S
C654 C649 1.350 . S
C655 H642 0.929 . S
C655 C647 1.433 . S
C655 N657 1.384 . S
N656 C652 1.427 1_455 S
N656 C653 1.384 . S
N657 C649 1.427 . S
N657 C655 1.384 . S
H658 C664 0.930 . S
H659 C668 0.930 . S
H660 C673 0.929 . S
H661 C671 0.929 . S
H662 C666 0.929 . S
H663 C672 0.929 . S
C664 H658 0.930 . S
C664 C665 1.367 . S
C664 C672 1.378 . S
C665 C664 1.367 . S
C665 C673 1.433 . S
C666 H662 0.929 . S
C666 C668 1.378 . S
C666 C670 1.350 . S
C667 C670 1.463 . S
C667 C672 1.350 . S
C667 N675 1.427 . S
C668 H659 0.930 . S
C668 C666 1.378 . S
C668 C669 1.367 . S
C669 C668 1.367 . S
C669 C671 1.433 . S
C670 C666 1.350 . S
C670 C667 1.463 . S
C670 N674 1.427 . S
C671 H661 0.929 . S
C671 C669 1.433 . S
C671 N674 1.384 . S
C672 H663 0.929 . S
C672 C664 1.378 . S
C672 C667 1.350 . S
C673 H660 0.929 . S
C673 C665 1.433 . S
C673 N675 1.384 . S
N674 C670 1.427 . S
N674 C671 1.384 . S
N675 C667 1.427 . S
N675 C673 1.384 . S
H676 C682 0.930 . S
H677 C686 0.930 . S
H678 C691 0.929 . S
H679 C689 0.929 . S
H680 C684 0.929 . S
H681 C690 0.929 . S
C682 H676 0.930 . S
C682 C683 1.367 . S
C682 C690 1.378 . S
C683 C682 1.367 . S
C683 C691 1.433 . S
C684 H680 0.929 . S
C684 C686 1.378 . S
C684 C688 1.350 . S
C685 C688 1.463 . S
C685 C690 1.350 . S
C685 N693 1.427 . S
C686 H677 0.930 . S
C686 C684 1.378 . S
C686 C687 1.367 . S
C687 C686 1.367 . S
C687 C689 1.433 . S
C688 C684 1.350 . S
C688 C685 1.463 . S
C688 N692 1.427 . S
C689 H679 0.929 . S
C689 C687 1.433 . S
C689 N692 1.384 . S
C690 H681 0.929 . S
C690 C682 1.378 . S
C690 C685 1.350 . S
C691 H678 0.929 . S
C691 C683 1.433 . S
C691 N693 1.384 . S
N692 C688 1.427 . S
N692 C689 1.384 . S
N693 C685 1.427 . S
N693 C691 1.384 . S
H694 C700 0.930 . S
H695 C704 0.930 . S
H696 C709 0.920 1_565 S
H697 C707 0.929 . S
H698 C702 0.929 . S
H699 C708 0.929 . S
C700 H694 0.930 . S
C700 C701 1.367 . S
C700 C708 1.378 . S
C701 C700 1.367 . S
C701 C709 1.477 . S
C702 H698 0.929 . S
C702 C704 1.378 . S
C702 C706 1.350 . S
C703 C706 1.463 1_545 S
C703 C708 1.350 . S
C703 N711 1.427 1_545 S
C704 H695 0.930 . S
C704 C702 1.378 . S
C704 C705 1.367 . S
C705 C704 1.367 . S
C705 C707 1.433 1_565 S
C706 C702 1.350 . S
C706 C703 1.463 1_565 S
C706 N710 1.427 1_565 S
C707 H697 0.929 . S
C707 C705 1.433 1_545 S
C707 N710 1.384 . S
C708 H699 0.929 . S
C708 C700 1.378 . S
C708 C703 1.350 . S
C709 H696 0.920 1_545 S
C709 C701 1.477 . S
C709 N711 1.351 1_545 S
N710 C706 1.427 1_545 S
N710 C707 1.384 . S
N711 C703 1.427 1_565 S
N711 C709 1.351 1_565 S
H712 C718 0.924 1_545 S
H713 C722 0.930 . S
H714 C727 0.929 . S
H715 C725 0.929 . S
H716 C720 0.929 . S
H717 C726 0.929 . S
C718 H712 0.924 1_565 S
C718 C719 1.395 . S
C718 C726 1.356 1_565 S
C719 C718 1.395 . S
C719 C727 1.433 . S
C720 H716 0.929 . S
C720 C722 1.378 . S
C720 C724 1.350 1_565 S
C721 C724 1.463 1_565 S
C721 C726 1.350 1_565 S
C721 N729 1.427 . S
C722 H713 0.930 . S
C722 C720 1.378 . S
C722 C723 1.367 1_565 S
C723 C722 1.367 1_545 S
C723 C725 1.433 . S
C724 C720 1.350 1_545 S
C724 C721 1.463 1_545 S
C724 N728 1.427 . S
C725 H715 0.929 . S
C725 C723 1.433 . S
C725 N728 1.384 . S
C726 H717 0.929 . S
C726 C718 1.356 1_545 S
C726 C721 1.350 1_545 S
C727 H714 0.929 . S
C727 C719 1.433 . S
C727 N729 1.384 . S
N728 C724 1.427 . S
N728 C725 1.384 . S
N729 C721 1.427 . S
N729 C727 1.384 . S
H730 C736 0.930 . S
H731 C740 0.930 . S
H732 C745 0.929 . S
H733 C743 0.929 . S
H734 C738 0.929 . S
H735 C744 0.929 . S
C736 H730 0.930 . S
C736 C737 1.367 1_655 S
C736 C744 1.378 . S
C737 C736 1.367 1_455 S
C737 C745 1.433 . S
C738 H734 0.929 . S
C738 C740 1.378 . S
C738 C742 1.350 . S
C739 C742 1.463 . S
C739 C744 1.350 1_455 S
C739 N747 1.427 . S
C740 H731 0.930 . S
C740 C738 1.378 . S
C740 C741 1.367 1_455 S
C741 C740 1.367 1_655 S
C741 C743 1.433 . S
C742 C738 1.350 . S
C742 C739 1.463 . S
C742 N746 1.427 1_455 S
C743 H733 0.929 . S
C743 C741 1.433 . S
C743 N746 1.384 . S
C744 H735 0.929 . S
C744 C736 1.378 . S
C744 C739 1.350 1_655 S
C745 H732 0.929 . S
C745 C737 1.433 . S
C745 N747 1.384 . S
N746 C742 1.427 1_655 S
N746 C743 1.384 . S
N747 C739 1.427 . S
N747 C745 1.384 . S
H748 C754 0.930 . S
H749 C758 0.930 . S
H750 C763 0.929 . S
H751 C761 0.929 . S
H752 C756 0.929 . S
H753 C762 0.929 . S
C754 H748 0.930 . S
C754 C755 1.367 . S
C754 C762 1.378 . S
C755 C754 1.367 . S
C755 C763 1.433 . S
C756 H752 0.929 . S
C756 C758 1.378 . S
C756 C760 1.350 . S
C757 C760 1.463 . S
C757 C762 1.350 . S
C757 N765 1.427 . S
C758 H749 0.930 . S
C758 C756 1.378 . S
C758 C759 1.367 . S
C759 C758 1.367 . S
C759 C761 1.433 . S
C760 C756 1.350 . S
C760 C757 1.463 . S
C760 N764 1.427 . S
C761 H751 0.929 . S
C761 C759 1.433 . S
C761 N764 1.384 . S
C762 H753 0.929 . S
C762 C754 1.378 . S
C762 C757 1.350 . S
C763 H750 0.929 . S
C763 C755 1.433 . S
C763 N765 1.384 . S
N764 C760 1.427 . S
N764 C761 1.384 . S
N765 C757 1.427 . S
N765 C763 1.384 . S
H766 C772 0.930 . S
H767 C776 0.930 . S
H768 C781 0.929 . S
H769 C779 0.929 . S
H770 C774 0.929 . S
H771 C780 0.929 . S
C772 H766 0.930 . S
C772 C773 1.367 . S
C772 C780 1.378 . S
C773 C772 1.367 . S
C773 C781 1.433 . S
C774 H770 0.929 . S
C774 C776 1.378 . S
C774 C778 1.350 . S
C775 C778 1.463 . S
C775 C780 1.350 . S
C775 N783 1.427 . S
C776 H767 0.930 . S
C776 C774 1.378 . S
C776 C777 1.367 . S
C777 C776 1.367 . S
C777 C779 1.433 . S
C778 C774 1.350 . S
C778 C775 1.463 . S
C778 N782 1.427 . S
C779 H769 0.929 . S
C779 C777 1.433 . S
C779 N782 1.384 . S
C780 H771 0.929 . S
C780 C772 1.378 . S
C780 C775 1.350 . S
C781 H768 0.929 . S
C781 C773 1.433 . S
C781 N783 1.384 . S
N782 C778 1.427 . S
N782 C779 1.384 . S
N783 C775 1.427 . S
N783 C781 1.384 . S
H784 C790 0.930 . S
H785 C794 0.930 . S
H786 C799 0.929 . S
H787 C797 0.929 . S
H788 C792 0.929 . S
H789 C798 0.929 . S
C790 H784 0.930 . S
C790 C791 1.367 . S
C790 C798 1.378 . S
C791 C790 1.367 . S
C791 C799 1.433 . S
C792 H788 0.929 . S
C792 C794 1.378 . S
C792 C796 1.350 . S
C793 C796 1.463 . S
C793 C798 1.350 . S
C793 N801 1.427 . S
C794 H785 0.930 . S
C794 C792 1.378 . S
C794 C795 1.367 . S
C795 C794 1.367 . S
C795 C797 1.433 . S
C796 C792 1.350 . S
C796 C793 1.463 . S
C796 N800 1.427 . S
C797 H787 0.929 . S
C797 C795 1.433 . S
C797 N800 1.384 . S
C798 H789 0.929 . S
C798 C790 1.378 . S
C798 C793 1.350 . S
C799 H786 0.929 . S
C799 C791 1.433 . S
C799 N801 1.384 . S
N800 C796 1.427 . S
N800 C797 1.384 . S
N801 C793 1.427 . S
N801 C799 1.384 . S
H802 C808 0.930 . S
H803 C812 0.930 . S
H804 C817 0.929 . S
H805 C815 0.929 . S
H806 C810 0.929 . S
H807 C816 0.929 . S
C808 H802 0.930 . S
C808 C809 1.367 . S
C808 C816 1.378 . S
C809 C808 1.367 . S
C809 C817 1.433 . S
C810 H806 0.929 . S
C810 C812 1.378 . S
C810 C814 1.350 . S
C811 C814 1.463 . S
C811 C816 1.350 . S
C811 N819 1.427 . S
C812 H803 0.930 . S
C812 C810 1.378 . S
C812 C813 1.367 . S
C813 C812 1.367 . S
C813 C815 1.433 . S
C814 C810 1.350 . S
C814 C811 1.463 . S
C814 N818 1.427 . S
C815 H805 0.929 . S
C815 C813 1.433 . S
C815 N818 1.384 . S
C816 H807 0.929 . S
C816 C808 1.378 . S
C816 C811 1.350 . S
C817 H804 0.929 . S
C817 C809 1.433 . S
C817 N819 1.384 . S
N818 C814 1.427 . S
N818 C815 1.384 . S
N819 C811 1.427 . S
N819 C817 1.384 . S
H820 C826 0.930 1_545 S
H821 C830 0.933 . S
H822 C835 0.929 . S
H823 C833 0.929 . S
H824 C828 0.929 . S
H825 C834 0.929 . S
C826 H820 0.930 1_565 S
C826 C827 1.367 . S
C826 C834 1.378 1_565 S
C827 C826 1.367 . S
C827 C835 1.433 . S
C828 H824 0.929 . S
C828 C830 1.387 . S
C828 C832 1.350 1_565 S
C829 C832 1.463 1_565 S
C829 C834 1.350 1_565 S
C829 N837 1.427 . S
C830 H821 0.933 . S
C830 C828 1.387 . S
C830 C831 1.355 1_565 S
C831 C830 1.355 1_545 S
C831 C833 1.433 . S
C832 C828 1.350 1_545 S
C832 C829 1.463 1_545 S
C832 N836 1.427 . S
C833 H823 0.929 . S
C833 C831 1.433 . S
C833 N836 1.384 . S
C834 H825 0.929 . S
C834 C826 1.378 1_545 S
C834 C829 1.350 1_545 S
C835 H822 0.929 . S
C835 C827 1.433 . S
C835 N837 1.384 . S
N836 C832 1.427 . S
N836 C833 1.384 . S
N837 C829 1.427 . S
N837 C835 1.384 . S
H838 C844 0.930 1_554 S
H839 C848 0.930 . S
H840 C853 0.929 . S
H841 C851 0.929 . S
H842 C846 0.929 . S
H843 C852 0.929 1_655 S
C844 H838 0.930 1_556 S
C844 C845 1.367 . S
C844 C852 1.378 . S
C845 C844 1.367 . S
C845 C853 1.433 . S
C846 H842 0.929 . S
C846 C848 1.378 . S
C846 C850 1.350 . S
C847 C850 1.463 . S
C847 C852 1.350 . S
C847 N855 1.427 . S
C848 H839 0.930 . S
C848 C846 1.378 . S
C848 C849 1.367 1_455 S
C849 C848 1.367 1_655 S
C849 C851 1.433 . S
C850 C846 1.350 . S
C850 C847 1.463 . S
C850 N854 1.427 1_455 S
C851 H841 0.929 . S
C851 C849 1.433 . S
C851 N854 1.384 . S
C852 H843 0.929 1_455 S
C852 C844 1.378 . S
C852 C847 1.350 . S
C853 H840 0.929 . S
C853 C845 1.433 . S
C853 N855 1.384 . S
N854 C850 1.427 1_655 S
N854 C851 1.384 . S
N855 C847 1.427 . S
N855 C853 1.384 . S
H856 C862 0.930 . S
H857 C866 0.930 . S
H858 C871 0.929 . S
H859 C869 0.929 . S
H860 C864 0.929 . S
H861 C870 0.929 . S
C862 H856 0.930 . S
C862 C863 1.367 . S
C862 C870 1.378 . S
C863 C862 1.367 . S
C863 C871 1.433 . S
C864 H860 0.929 . S
C864 C866 1.378 . S
C864 C868 1.350 1_554 S
C865 C868 1.463 . S
C865 C870 1.350 . S
C865 N873 1.427 . S
C866 H857 0.930 . S
C866 C864 1.378 . S
C866 C867 1.367 1_554 S
C867 C866 1.367 1_556 S
C867 C869 1.433 . S
C868 C864 1.350 1_556 S
C868 C865 1.463 . S
C868 N872 1.427 . S
C869 H859 0.929 . S
C869 C867 1.433 . S
C869 N872 1.384 . S
C870 H861 0.929 . S
C870 C862 1.378 . S
C870 C865 1.350 . S
C871 H858 0.929 . S
C871 C863 1.433 . S
C871 N873 1.384 . S
N872 C868 1.427 . S
N872 C869 1.384 . S
N873 C865 1.427 . S
N873 C871 1.384 . S
H874 C880 0.930 . S
H875 C884 0.930 . S
H876 C889 0.929 . S
H877 C887 0.929 . S
H878 C882 0.929 . S
H879 C888 0.929 . S
C880 H874 0.930 . S
C880 C881 1.367 . S
C880 C888 1.378 . S
C881 C880 1.367 . S
C881 C889 1.433 . S
C882 H878 0.929 . S
C882 C884 1.378 . S
C882 C886 1.350 . S
C883 C886 1.463 . S
C883 C888 1.350 . S
C883 N891 1.427 . S
C884 H875 0.930 . S
C884 C882 1.378 . S
C884 C885 1.367 . S
C885 C884 1.367 . S
C885 C887 1.433 . S
C886 C882 1.350 . S
C886 C883 1.463 . S
C886 N890 1.427 . S
C887 H877 0.929 . S
C887 C885 1.433 . S
C887 N890 1.384 . S
C888 H879 0.929 . S
C888 C880 1.378 . S
C888 C883 1.350 . S
C889 H876 0.929 . S
C889 C881 1.433 . S
C889 N891 1.384 . S
N890 C886 1.427 . S
N890 C887 1.384 . S
N891 C883 1.427 . S
N891 C889 1.384 . S
H892 C898 0.930 . S
H893 C902 0.930 . S
H894 C907 0.929 . S
H895 C905 0.929 . S
H896 C900 0.929 . S
H897 C906 0.929 . S
C898 H892 0.930 . S
C898 C899 1.367 . S
C898 C906 1.378 . S
C899 C898 1.367 . S
C899 C907 1.433 . S
C900 H896 0.929 . S
C900 C902 1.378 . S
C900 C904 1.350 . S
C901 C904 1.463 . S
C901 C906 1.350 . S
C901 N909 1.427 . S
C902 H893 0.930 . S
C902 C900 1.378 . S
C902 C903 1.367 . S
C903 C902 1.367 . S
C903 C905 1.433 . S
C904 C900 1.350 . S
C904 C901 1.463 . S
C904 N908 1.427 . S
C905 H895 0.929 . S
C905 C903 1.433 . S
C905 N908 1.384 . S
C906 H897 0.929 . S
C906 C898 1.378 . S
C906 C901 1.350 . S
C907 H894 0.929 . S
C907 C899 1.433 . S
C907 N909 1.384 . S
N908 C904 1.427 . S
N908 C905 1.384 . S
N909 C901 1.427 . S
N909 C907 1.384 . S
H910 C916 0.930 . S
H911 C920 0.930 . S
H912 C925 0.929 . S
H913 C923 0.929 . S
H914 C918 0.929 . S
H915 C924 0.929 . S
C916 H910 0.930 . S
C916 C917 1.367 . S
C916 C924 1.378 . S
C917 C916 1.367 . S
C917 C925 1.433 . S
C918 H914 0.929 . S
C918 C920 1.378 . S
C918 C922 1.350 . S
C919 C922 1.463 . S
C919 C924 1.350 . S
C919 N927 1.427 . S
C920 H911 0.930 . S
C920 C918 1.378 . S
C920 C921 1.367 . S
C921 C920 1.367 . S
C921 C923 1.433 . S
C922 C918 1.350 . S
C922 C919 1.463 . S
C922 N926 1.427 . S
C923 H913 0.929 . S
C923 C921 1.433 . S
C923 N926 1.384 . S
C924 H915 0.929 . S
C924 C916 1.378 . S
C924 C919 1.350 . S
C925 H912 0.929 . S
C925 C917 1.433 . S
C925 N927 1.384 . S
N926 C922 1.427 . S
N926 C923 1.384 . S
N927 C919 1.427 . S
N927 C925 1.384 . S
H928 C934 0.930 . S
H929 C938 0.930 . S
H930 C943 0.929 . S
H931 C941 0.929 . S
H932 C936 0.929 . S
H933 C942 0.929 . S
C934 H928 0.930 . S
C934 C935 1.367 . S
C934 C942 1.378 . S
C935 C934 1.367 . S
C935 C943 1.433 . S
C936 H932 0.929 . S
C936 C938 1.378 . S
C936 C940 1.350 . S
C937 C940 1.463 . S
C937 C942 1.350 . S
C937 N945 1.427 . S
C938 H929 0.930 . S
C938 C936 1.378 . S
C938 C939 1.367 . S
C939 C938 1.367 . S
C939 C941 1.433 . S
C940 C936 1.350 . S
C940 C937 1.463 . S
C940 N944 1.427 . S
C941 H931 0.929 . S
C941 C939 1.433 . S
C941 N944 1.384 . S
C942 H933 0.929 . S
C942 C934 1.378 . S
C942 C937 1.350 . S
C943 H930 0.929 . S
C943 C935 1.433 . S
C943 N945 1.384 . S
N944 C940 1.427 . S
N944 C941 1.384 . S
N945 C937 1.427 . S
N945 C943 1.384 . S
H946 C952 0.930 . S
H947 C956 0.930 . S
H948 C961 0.929 . S
H949 C959 0.929 . S
H950 C954 0.929 . S
H951 C960 0.929 . S
C952 H946 0.930 . S
C952 C953 1.367 . S
C952 C960 1.378 . S
C953 C952 1.367 . S
C953 C961 1.433 . S
C954 H950 0.929 . S
C954 C956 1.378 . S
C954 C958 1.350 . S
C955 C958 1.463 . S
C955 C960 1.350 . S
C955 N963 1.427 . S
C956 H947 0.930 . S
C956 C954 1.378 . S
C956 C957 1.367 . S
C957 C956 1.367 . S
C957 C959 1.433 . S
C958 C954 1.350 . S
C958 C955 1.463 . S
C958 N962 1.427 . S
C959 H949 0.929 . S
C959 C957 1.433 . S
C959 N962 1.384 . S
C960 H951 0.929 . S
C960 C952 1.378 . S
C960 C955 1.350 . S
C961 H948 0.929 . S
C961 C953 1.433 . S
C961 N963 1.384 . S
N962 C958 1.427 . S
N962 C959 1.384 . S
N963 C955 1.427 . S
N963 C961 1.384 . S
H964 C970 0.930 . S
H965 C974 0.930 . S
H966 C979 0.929 . S
H967 C977 0.929 . S
H968 C972 0.929 . S
H969 C978 0.929 . S
C970 H964 0.930 . S
C970 C971 1.367 . S
C970 C978 1.378 . S
C971 C970 1.367 . S
C971 C979 1.433 . S
C972 H968 0.929 . S
C972 C974 1.378 . S
C972 C976 1.350 . S
C973 C976 1.463 . S
C973 C978 1.350 . S
C973 N981 1.427 . S
C974 H965 0.930 . S
C974 C972 1.378 . S
C974 C975 1.367 . S
C975 C974 1.367 . S
C975 C977 1.433 . S
C976 C972 1.350 . S
C976 C973 1.463 . S
C976 N980 1.427 . S
C977 H967 0.929 . S
C977 C975 1.433 . S
C977 N980 1.384 . S
C978 H969 0.929 . S
C978 C970 1.378 . S
C978 C973 1.350 . S
C979 H966 0.929 . S
C979 C971 1.433 . S
C979 N981 1.384 . S
N980 C976 1.427 . S
N980 C977 1.384 . S
N981 C973 1.427 . S
N981 C979 1.384 . S
H982 C988 0.930 . S
H983 C992 0.930 . S
H984 C997 0.929 . S
H985 C995 0.929 . S
H986 C990 0.929 . S
H987 C996 0.929 . S
C988 H982 0.930 . S
C988 C989 1.367 . S
C988 C996 1.378 . S
C989 C988 1.367 . S
C989 C997 1.433 . S
C990 H986 0.929 . S
C990 C992 1.378 . S
C990 C994 1.350 . S
C991 C994 1.463 . S
C991 C996 1.350 . S
C991 N999 1.427 . S
C992 H983 0.930 . S
C992 C990 1.378 . S
C992 C993 1.367 . S
C993 C992 1.367 . S
C993 C995 1.433 . S
C994 C990 1.350 . S
C994 C991 1.463 . S
C994 N998 1.427 . S
C995 H985 0.929 . S
C995 C993 1.433 . S
C995 N998 1.384 . S
C996 H987 0.929 . S
C996 C988 1.378 . S
C996 C991 1.350 . S
C997 H984 0.929 . S
C997 C989 1.433 . S
C997 N999 1.384 . S
N998 C994 1.427 . S
N998 C995 1.384 . S
N999 C991 1.427 . S
N999 C997 1.384 . S
H1000 C1006 0.930 . S
H1001 C1010 0.930 . S
H1002 C1015 0.929 . S
H1003 C1013 0.929 . S
H1004 C1008 0.929 . S
H1005 C1014 0.929 . S
C1006 H1000 0.930 . S
C1006 C1007 1.367 . S
C1006 C1014 1.378 . S
C1007 C1006 1.367 . S
C1007 C1015 1.433 . S
C1008 H1004 0.929 . S
C1008 C1010 1.378 . S
C1008 C1012 1.350 . S
C1009 C1012 1.463 . S
C1009 C1014 1.350 . S
C1009 N1017 1.427 . S
C1010 H1001 0.930 . S
C1010 C1008 1.378 . S
C1010 C1011 1.367 . S
C1011 C1010 1.367 . S
C1011 C1013 1.433 . S
C1012 C1008 1.350 . S
C1012 C1009 1.463 . S
C1012 N1016 1.427 . S
C1013 H1003 0.929 . S
C1013 C1011 1.433 . S
C1013 N1016 1.384 . S
C1014 H1005 0.929 . S
C1014 C1006 1.378 . S
C1014 C1009 1.350 . S
C1015 H1002 0.929 . S
C1015 C1007 1.433 . S
C1015 N1017 1.384 . S
N1016 C1012 1.427 . S
N1016 C1013 1.384 . S
N1017 C1009 1.427 . S
N1017 C1015 1.384 . S
H1018 C1024 0.930 . S
H1019 C1028 0.930 . S
H1020 C1033 0.929 . S
H1021 C1031 0.929 . S
H1022 C1026 0.929 . S
H1023 C1032 0.929 . S
C1024 H1018 0.930 . S
C1024 C1025 1.367 . S
C1024 C1032 1.378 . S
C1025 C1024 1.367 . S
C1025 C1033 1.433 1_455 S
C1026 H1022 0.929 . S
C1026 C1028 1.378 . S
C1026 C1030 1.350 . S
C1027 C1030 1.482 . S
C1027 C1032 1.326 1_655 S
C1027 N1035 1.434 . S
C1028 H1019 0.930 . S
C1028 C1026 1.378 . S
C1028 C1029 1.367 . S
C1029 C1028 1.367 . S
C1029 C1031 1.433 1_655 S
C1030 C1026 1.350 . S
C1030 C1027 1.482 . S
C1030 N1034 1.427 1_655 S
C1031 H1021 0.929 . S
C1031 C1029 1.433 1_455 S
C1031 N1034 1.384 . S
C1032 H1023 0.929 . S
C1032 C1024 1.378 . S
C1032 C1027 1.326 1_455 S
C1033 H1020 0.929 . S
C1033 C1025 1.433 1_655 S
C1033 N1035 1.384 . S
N1034 C1030 1.427 1_455 S
N1034 C1031 1.384 . S
N1035 C1027 1.434 . S
N1035 C1033 1.384 . S
H1036 C1042 0.930 . S
H1037 C1046 0.930 . S
H1038 C1051 0.929 . S
H1039 C1049 0.929 . S
H1040 C1044 0.929 . S
H1041 C1050 0.929 . S
C1042 H1036 0.930 . S
C1042 C1043 1.367 . S
C1042 C1050 1.378 . S
C1043 C1042 1.367 . S
C1043 C1051 1.433 . S
C1044 H1040 0.929 . S
C1044 C1046 1.378 . S
C1044 C1048 1.350 . S
C1045 C1048 1.463 . S
C1045 C1050 1.350 . S
C1045 N1053 1.427 . S
C1046 H1037 0.930 . S
C1046 C1044 1.378 . S
C1046 C1047 1.367 . S
C1047 C1046 1.367 . S
C1047 C1049 1.433 . S
C1048 C1044 1.350 . S
C1048 C1045 1.463 . S
C1048 N1052 1.427 . S
C1049 H1039 0.929 . S
C1049 C1047 1.433 . S
C1049 N1052 1.384 . S
C1050 H1041 0.929 . S
C1050 C1042 1.378 . S
C1050 C1045 1.350 . S
C1051 H1038 0.929 . S
C1051 C1043 1.433 . S
C1051 N1053 1.384 . S
N1052 C1048 1.427 . S
N1052 C1049 1.384 . S
N1053 C1045 1.427 . S
N1053 C1051 1.384 . S
H1054 C1060 0.930 . S
H1055 C1064 0.930 . S
H1056 C1069 0.929 . S
H1057 C1067 0.929 . S
H1058 C1062 0.929 . S
H1059 C1068 0.929 . S
C1060 H1054 0.930 . S
C1060 C1061 1.367 . S
C1060 C1068 1.378 . S
C1061 C1060 1.367 . S
C1061 C1069 1.433 . S
C1062 H1058 0.929 . S
C1062 C1064 1.378 . S
C1062 C1066 1.350 . S
C1063 C1066 1.463 . S
C1063 C1068 1.350 . S
C1063 N1071 1.427 . S
C1064 H1055 0.930 . S
C1064 C1062 1.378 . S
C1064 C1065 1.367 . S
C1065 C1064 1.367 . S
C1065 C1067 1.433 . S
C1066 C1062 1.350 . S
C1066 C1063 1.463 . S
C1066 N1070 1.427 . S
C1067 H1057 0.929 . S
C1067 C1065 1.433 . S
C1067 N1070 1.384 . S
C1068 H1059 0.929 . S
C1068 C1060 1.378 . S
C1068 C1063 1.350 . S
C1069 H1056 0.929 . S
C1069 C1061 1.433 . S
C1069 N1071 1.384 . S
N1070 C1066 1.427 . S
N1070 C1067 1.384 . S
N1071 C1063 1.427 . S
N1071 C1069 1.384 . S
H1072 C1078 0.930 . S
H1073 C1082 0.930 . S
H1074 C1087 0.929 . S
H1075 C1085 0.929 . S
H1076 C1080 0.929 . S
H1077 C1086 0.929 . S
C1078 H1072 0.930 . S
C1078 C1079 1.367 . S
C1078 C1086 1.378 . S
C1079 C1078 1.367 . S
C1079 C1087 1.433 . S
C1080 H1076 0.929 . S
C1080 C1082 1.378 . S
C1080 C1084 1.350 . S
C1081 C1084 1.463 . S
C1081 C1086 1.350 . S
C1081 N1089 1.427 . S
C1082 H1073 0.930 . S
C1082 C1080 1.378 . S
C1082 C1083 1.367 . S
C1083 C1082 1.367 . S
C1083 C1085 1.433 . S
C1084 C1080 1.350 . S
C1084 C1081 1.463 . S
C1084 N1088 1.427 . S
C1085 H1075 0.929 . S
C1085 C1083 1.433 . S
C1085 N1088 1.384 . S
C1086 H1077 0.929 . S
C1086 C1078 1.378 . S
C1086 C1081 1.350 . S
C1087 H1074 0.929 . S
C1087 C1079 1.433 . S
C1087 N1089 1.384 . S
N1088 C1084 1.427 . S
N1088 C1085 1.384 . S
N1089 C1081 1.427 . S
N1089 C1087 1.384 . S
H1090 C1096 0.930 . S
H1091 C1100 0.930 . S
H1092 C1105 0.929 . S
H1093 C1103 0.929 . S
H1094 C1098 0.929 . S
H1095 C1104 0.929 . S
C1096 H1090 0.930 . S
C1096 C1097 1.367 . S
C1096 C1104 1.378 . S
C1097 C1096 1.367 . S
C1097 C1105 1.433 . S
C1098 H1094 0.929 . S
C1098 C1100 1.378 . S
C1098 C1102 1.350 . S
C1099 C1102 1.463 . S
C1099 C1104 1.350 . S
C1099 N1107 1.427 . S
C1100 H1091 0.930 . S
C1100 C1098 1.378 . S
C1100 C1101 1.367 . S
C1101 C1100 1.367 . S
C1101 C1103 1.433 . S
C1102 C1098 1.350 . S
C1102 C1099 1.463 . S
C1102 N1106 1.427 . S
C1103 H1093 0.929 . S
C1103 C1101 1.433 . S
C1103 N1106 1.384 . S
C1104 H1095 0.929 . S
C1104 C1096 1.378 . S
C1104 C1099 1.350 . S
C1105 H1092 0.929 . S
C1105 C1097 1.433 . S
C1105 N1107 1.384 . S
N1106 C1102 1.427 . S
N1106 C1103 1.384 . S
N1107 C1099 1.427 . S
N1107 C1105 1.384 . S
H1108 C1114 0.930 . S
H1109 C1118 0.930 . S
H1110 C1123 0.935 . S
H1111 C1121 0.929 1_565 S
H1112 C1116 0.929 . S
H1113 C1122 0.929 . S
C1114 H1108 0.930 . S
C1114 C1115 1.367 . S
C1114 C1122 1.378 . S
C1115 C1114 1.367 . S
C1115 C1123 1.403 1_565 S
C1116 H1112 0.929 . S
C1116 C1118 1.378 . S
C1116 C1120 1.350 . S
C1117 C1120 1.463 1_565 S
C1117 C1122 1.350 . S
C1117 N1125 1.427 1_565 S
C1118 H1109 0.930 . S
C1118 C1116 1.378 . S
C1118 C1119 1.367 . S
C1119 C1118 1.367 . S
C1119 C1121 1.433 . S
C1120 C1116 1.350 . S
C1120 C1117 1.463 1_545 S
C1120 N1124 1.427 1_545 S
C1121 H1111 0.929 1_545 S
C1121 C1119 1.433 . S
C1121 N1124 1.384 1_545 S
C1122 H1113 0.929 . S
C1122 C1114 1.378 . S
C1122 C1117 1.350 . S
C1123 H1110 0.935 . S
C1123 C1115 1.403 1_545 S
C1123 N1125 1.409 . S
N1124 C1120 1.427 1_565 S
N1124 C1121 1.384 1_565 S
N1125 C1117 1.427 1_545 S
N1125 C1123 1.409 . S
H1126 C1132 0.911 1_556 S
H1127 C1136 0.930 . S
H1128 C1141 0.929 . S
H1129 C1139 0.929 . S
H1130 C1134 0.929 . S
H1131 C1140 0.929 . S
C1132 H1126 0.911 1_554 S
C1132 C1133 1.371 . S
C1132 C1140 1.394 . S
C1133 C1132 1.371 . S
C1133 C1141 1.433 . S
C1134 H1130 0.929 . S
C1134 C1136 1.378 . S
C1134 C1138 1.350 . S
C1135 C1138 1.463 . S
C1135 C1140 1.350 . S
C1135 N1143 1.427 . S
C1136 H1127 0.930 . S
C1136 C1134 1.378 . S
C1136 C1137 1.367 . S
C1137 C1136 1.367 . S
C1137 C1139 1.433 . S
C1138 C1134 1.350 . S
C1138 C1135 1.463 . S
C1138 N1142 1.427 . S
C1139 H1129 0.929 . S
C1139 C1137 1.433 . S
C1139 N1142 1.384 . S
C1140 H1131 0.929 . S
C1140 C1132 1.394 . S
C1140 C1135 1.350 . S
C1141 H1128 0.929 . S
C1141 C1133 1.433 . S
C1141 N1143 1.384 . S
N1142 C1138 1.427 . S
N1142 C1139 1.384 . S
N1143 C1135 1.427 . S
N1143 C1141 1.384 . S
H1144 C1150 0.930 . S
H1145 C1154 0.930 . S
H1146 C1159 0.929 . S
H1147 C1157 0.929 . S
H1148 C1152 0.929 . S
H1149 C1158 0.929 . S
C1150 H1144 0.930 . S
C1150 C1151 1.367 . S
C1150 C1158 1.378 . S
C1151 C1150 1.367 . S
C1151 C1159 1.433 . S
C1152 H1148 0.929 . S
C1152 C1154 1.378 . S
C1152 C1156 1.350 . S
C1153 C1156 1.463 . S
C1153 C1158 1.350 . S
C1153 N1161 1.427 . S
C1154 H1145 0.930 . S
C1154 C1152 1.378 . S
C1154 C1155 1.367 . S
C1155 C1154 1.367 . S
C1155 C1157 1.433 . S
C1156 C1152 1.350 . S
C1156 C1153 1.463 . S
C1156 N1160 1.427 . S
C1157 H1147 0.929 . S
C1157 C1155 1.433 . S
C1157 N1160 1.384 . S
C1158 H1149 0.929 . S
C1158 C1150 1.378 . S
C1158 C1153 1.350 . S
C1159 H1146 0.929 . S
C1159 C1151 1.433 . S
C1159 N1161 1.384 . S
N1160 C1156 1.427 . S
N1160 C1157 1.384 . S
N1161 C1153 1.427 . S
N1161 C1159 1.384 . S
H1162 C1168 0.930 . S
H1163 C1172 0.930 . S
H1164 C1177 0.929 . S
H1165 C1175 0.929 . S
H1166 C1170 0.929 . S
H1167 C1176 0.929 . S
C1168 H1162 0.930 . S
C1168 C1169 1.367 . S
C1168 C1176 1.378 . S
C1169 C1168 1.367 . S
C1169 C1177 1.433 . S
C1170 H1166 0.929 . S
C1170 C1172 1.378 . S
C1170 C1174 1.350 . S
C1171 C1174 1.463 . S
C1171 C1176 1.350 . S
C1171 N1179 1.427 . S
C1172 H1163 0.930 . S
C1172 C1170 1.378 . S
C1172 C1173 1.367 . S
C1173 C1172 1.367 . S
C1173 C1175 1.433 . S
C1174 C1170 1.350 . S
C1174 C1171 1.463 . S
C1174 N1178 1.427 . S
C1175 H1165 0.929 . S
C1175 C1173 1.433 . S
C1175 N1178 1.384 . S
C1176 H1167 0.929 . S
C1176 C1168 1.378 . S
C1176 C1171 1.350 . S
C1177 H1164 0.929 . S
C1177 C1169 1.433 . S
C1177 N1179 1.384 . S
N1178 C1174 1.427 . S
N1178 C1175 1.384 . S
N1179 C1171 1.427 . S
N1179 C1177 1.384 . S
H1180 C1186 0.930 . S
H1181 C1190 0.930 . S
H1182 C1195 0.929 . S
H1183 C1193 0.929 . S
H1184 C1188 0.929 . S
H1185 C1194 0.929 . S
C1186 H1180 0.930 . S
C1186 C1187 1.367 . S
C1186 C1194 1.378 . S
C1187 C1186 1.367 . S
C1187 C1195 1.433 . S
C1188 H1184 0.929 . S
C1188 C1190 1.378 . S
C1188 C1192 1.350 . S
C1189 C1192 1.463 . S
C1189 C1194 1.350 . S
C1189 N1197 1.427 . S
C1190 H1181 0.930 . S
C1190 C1188 1.378 . S
C1190 C1191 1.367 . S
C1191 C1190 1.367 . S
C1191 C1193 1.433 . S
C1192 C1188 1.350 . S
C1192 C1189 1.463 . S
C1192 N1196 1.427 . S
C1193 H1183 0.929 . S
C1193 C1191 1.433 . S
C1193 N1196 1.384 . S
C1194 H1185 0.929 . S
C1194 C1186 1.378 . S
C1194 C1189 1.350 . S
C1195 H1182 0.929 . S
C1195 C1187 1.433 . S
C1195 N1197 1.384 . S
N1196 C1192 1.427 . S
N1196 C1193 1.384 . S
N1197 C1189 1.427 . S
N1197 C1195 1.384 . S
H1198 C1204 0.930 . S
H1199 C1208 0.930 . S
H1200 C1213 0.929 . S
H1201 C1211 0.929 . S
H1202 C1206 0.929 . S
H1203 C1212 0.929 . S
C1204 H1198 0.930 . S
C1204 C1205 1.367 . S
C1204 C1212 1.378 . S
C1205 C1204 1.367 . S
C1205 C1213 1.433 . S
C1206 H1202 0.929 . S
C1206 C1208 1.378 . S
C1206 C1210 1.350 . S
C1207 C1210 1.463 . S
C1207 C1212 1.350 . S
C1207 N1215 1.427 . S
C1208 H1199 0.930 . S
C1208 C1206 1.378 . S
C1208 C1209 1.367 . S
C1209 C1208 1.367 . S
C1209 C1211 1.433 . S
C1210 C1206 1.350 . S
C1210 C1207 1.463 . S
C1210 N1214 1.427 . S
C1211 H1201 0.929 . S
C1211 C1209 1.433 . S
C1211 N1214 1.384 . S
C1212 H1203 0.929 . S
C1212 C1204 1.378 . S
C1212 C1207 1.350 . S
C1213 H1200 0.929 . S
C1213 C1205 1.433 . S
C1213 N1215 1.384 . S
N1214 C1210 1.427 . S
N1214 C1211 1.384 . S
N1215 C1207 1.427 . S
N1215 C1213 1.384 . S
H1216 C1222 0.930 . S
H1217 C1226 0.930 . S
H1218 C1231 0.929 . S
H1219 C1229 0.929 . S
H1220 C1224 0.929 . S
H1221 C1230 0.929 . S
C1222 H1216 0.930 . S
C1222 C1223 1.367 . S
C1222 C1230 1.378 . S
C1223 C1222 1.367 . S
C1223 C1231 1.433 . S
C1224 H1220 0.929 . S
C1224 C1226 1.378 . S
C1224 C1228 1.350 . S
C1225 C1228 1.463 . S
C1225 C1230 1.350 . S
C1225 N1233 1.427 . S
C1226 H1217 0.930 . S
C1226 C1224 1.378 . S
C1226 C1227 1.367 . S
C1227 C1226 1.367 . S
C1227 C1229 1.433 . S
C1228 C1224 1.350 . S
C1228 C1225 1.463 . S
C1228 N1232 1.427 . S
C1229 H1219 0.929 . S
C1229 C1227 1.433 . S
C1229 N1232 1.384 . S
C1230 H1221 0.929 . S
C1230 C1222 1.378 . S
C1230 C1225 1.350 . S
C1231 H1218 0.929 . S
C1231 C1223 1.433 . S
C1231 N1233 1.384 . S
N1232 C1228 1.427 . S
N1232 C1229 1.384 . S
N1233 C1225 1.427 . S
N1233 C1231 1.384 . S
H1234 C1240 0.930 . S
H1235 C1244 0.930 . S
H1236 C1249 0.929 . S
H1237 C1247 0.929 . S
H1238 C1242 0.929 . S
H1239 C1248 0.929 . S
C1240 H1234 0.930 . S
C1240 C1241 1.367 . S
C1240 C1248 1.378 . S
C1241 C1240 1.367 . S
C1241 C1249 1.433 . S
C1242 H1238 0.929 . S
C1242 C1244 1.378 . S
C1242 C1246 1.350 . S
C1243 C1246 1.463 . S
C1243 C1248 1.350 . S
C1243 N1251 1.427 . S
C1244 H1235 0.930 . S
C1244 C1242 1.378 . S
C1244 C1245 1.367 . S
C1245 C1244 1.367 . S
C1245 C1247 1.433 . S
C1246 C1242 1.350 . S
C1246 C1243 1.463 . S
C1246 N1250 1.427 . S
C1247 H1237 0.929 . S
C1247 C1245 1.433 . S
C1247 N1250 1.384 . S
C1248 H1239 0.929 . S
C1248 C1240 1.378 . S
C1248 C1243 1.350 . S
C1249 H1236 0.929 . S
C1249 C1241 1.433 . S
C1249 N1251 1.384 . S
N1250 C1246 1.427 . S
N1250 C1247 1.384 . S
N1251 C1243 1.427 . S
N1251 C1249 1.384 . S
H1252 C1258 0.930 . S
H1253 C1262 0.930 . S
H1254 C1267 0.929 . S
H1255 C1265 0.929 . S
H1256 C1260 0.929 . S
H1257 C1266 0.929 . S
C1258 H1252 0.930 . S
C1258 C1259 1.367 . S
C1258 C1266 1.378 . S
C1259 C1258 1.367 . S
C1259 C1267 1.433 . S
C1260 H1256 0.929 . S
C1260 C1262 1.378 . S
C1260 C1264 1.350 . S
C1261 C1264 1.463 . S
C1261 C1266 1.350 . S
C1261 N1269 1.427 . S
C1262 H1253 0.930 . S
C1262 C1260 1.378 . S
C1262 C1263 1.367 . S
C1263 C1262 1.367 . S
C1263 C1265 1.433 . S
C1264 C1260 1.350 . S
C1264 C1261 1.463 . S
C1264 N1268 1.427 . S
C1265 H1255 0.929 . S
C1265 C1263 1.433 . S
C1265 N1268 1.384 . S
C1266 H1257 0.929 . S
C1266 C1258 1.378 . S
C1266 C1261 1.350 . S
C1267 H1254 0.929 . S
C1267 C1259 1.433 . S
C1267 N1269 1.384 . S
N1268 C1264 1.427 . S
N1268 C1265 1.384 . S
N1269 C1261 1.427 . S
N1269 C1267 1.384 . S
H1270 C1276 0.930 . S
H1271 C1280 0.930 . S
H1272 C1285 0.929 . S
H1273 C1283 0.929 . S
H1274 C1278 0.929 . S
H1275 C1284 0.929 . S
C1276 H1270 0.930 . S
C1276 C1277 1.367 . S
C1276 C1284 1.378 . S
C1277 C1276 1.367 . S
C1277 C1285 1.433 . S
C1278 H1274 0.929 . S
C1278 C1280 1.378 . S
C1278 C1282 1.350 . S
C1279 C1282 1.463 . S
C1279 C1284 1.350 . S
C1279 N1287 1.427 . S
C1280 H1271 0.930 . S
C1280 C1278 1.378 . S
C1280 C1281 1.367 . S
C1281 C1280 1.367 . S
C1281 C1283 1.433 . S
C1282 C1278 1.350 . S
C1282 C1279 1.463 . S
C1282 N1286 1.427 . S
C1283 H1273 0.929 . S
C1283 C1281 1.433 . S
C1283 N1286 1.384 . S
C1284 H1275 0.929 . S
C1284 C1276 1.378 . S
C1284 C1279 1.350 . S
C1285 H1272 0.929 . S
C1285 C1277 1.433 . S
C1285 N1287 1.384 . S
N1286 C1282 1.427 . S
N1286 C1283 1.384 . S
N1287 C1279 1.427 . S
N1287 C1285 1.384 . S
H1288 C1294 0.930 . S
H1289 C1298 0.930 . S
H1290 C1303 0.929 . S
H1291 C1301 0.929 . S
H1292 C1296 0.929 . S
H1293 C1302 0.929 . S
C1294 H1288 0.930 . S
C1294 C1295 1.367 . S
C1294 C1302 1.378 . S
C1295 C1294 1.367 . S
C1295 C1303 1.433 . S
C1296 H1292 0.929 . S
C1296 C1298 1.378 . S
C1296 C1300 1.350 . S
C1297 C1300 1.463 . S
C1297 C1302 1.350 . S
C1297 N1305 1.427 . S
C1298 H1289 0.930 . S
C1298 C1296 1.378 . S
C1298 C1299 1.367 . S
C1299 C1298 1.367 . S
C1299 C1301 1.433 . S
C1300 C1296 1.350 . S
C1300 C1297 1.463 . S
C1300 N1304 1.427 . S
C1301 H1291 0.929 . S
C1301 C1299 1.433 . S
C1301 N1304 1.384 . S
C1302 H1293 0.929 . S
C1302 C1294 1.378 . S
C1302 C1297 1.350 . S
C1303 H1290 0.929 . S
C1303 C1295 1.433 . S
C1303 N1305 1.384 . S
N1304 C1300 1.427 . S
N1304 C1301 1.384 . S
N1305 C1297 1.427 . S
N1305 C1303 1.384 . S
H1306 C1312 0.930 . S
H1307 C1316 0.930 . S
H1308 C1321 0.929 . S
H1309 C1319 0.929 . S
H1310 C1314 0.929 . S
H1311 C1320 0.929 . S
C1312 H1306 0.930 . S
C1312 C1313 1.367 . S
C1312 C1320 1.378 . S
C1313 C1312 1.367 . S
C1313 C1321 1.433 . S
C1314 H1310 0.929 . S
C1314 C1316 1.378 . S
C1314 C1318 1.350 . S
C1315 C1318 1.463 . S
C1315 C1320 1.350 . S
C1315 N1323 1.427 . S
C1316 H1307 0.930 . S
C1316 C1314 1.378 . S
C1316 C1317 1.367 . S
C1317 C1316 1.367 . S
C1317 C1319 1.433 1_554 S
C1318 C1314 1.350 . S
C1318 C1315 1.463 . S
C1318 N1322 1.427 . S
C1319 H1309 0.929 . S
C1319 C1317 1.433 1_556 S
C1319 N1322 1.384 1_556 S
C1320 H1311 0.929 . S
C1320 C1312 1.378 . S
C1320 C1315 1.350 . S
C1321 H1308 0.929 . S
C1321 C1313 1.433 . S
C1321 N1323 1.384 . S
N1322 C1318 1.427 . S
N1322 C1319 1.384 1_554 S
N1323 C1315 1.427 . S
N1323 C1321 1.384 . S
H1324 C1330 0.930 . S
H1325 C1334 0.930 . S
H1326 C1339 0.929 . S
H1327 C1337 0.929 . S
H1328 C1332 0.929 . S
H1329 C1338 0.929 . S
C1330 H1324 0.930 . S
C1330 C1331 1.367 . S
C1330 C1338 1.378 . S
C1331 C1330 1.367 . S
C1331 C1339 1.433 . S
C1332 H1328 0.929 . S
C1332 C1334 1.378 . S
C1332 C1336 1.350 . S
C1333 C1336 1.463 . S
C1333 C1338 1.350 . S
C1333 N1341 1.427 . S
C1334 H1325 0.930 . S
C1334 C1332 1.378 . S
C1334 C1335 1.367 . S
C1335 C1334 1.367 . S
C1335 C1337 1.433 . S
C1336 C1332 1.350 . S
C1336 C1333 1.463 . S
C1336 N1340 1.427 . S
C1337 H1327 0.929 . S
C1337 C1335 1.433 . S
C1337 N1340 1.384 . S
C1338 H1329 0.929 . S
C1338 C1330 1.378 . S
C1338 C1333 1.350 . S
C1339 H1326 0.929 . S
C1339 C1331 1.433 . S
C1339 N1341 1.384 . S
N1340 C1336 1.427 . S
N1340 C1337 1.384 . S
N1341 C1333 1.427 . S
N1341 C1339 1.384 . S
H1342 C1348 0.930 . S
H1343 C1352 0.930 . S
H1344 C1357 0.929 . S
H1345 C1355 0.929 . S
H1346 C1350 0.929 . S
H1347 C1356 0.929 . S
C1348 H1342 0.930 . S
C1348 C1349 1.367 . S
C1348 C1356 1.378 . S
C1349 C1348 1.367 . S
C1349 C1357 1.433 . S
C1350 H1346 0.929 . S
C1350 C1352 1.378 . S
C1350 C1354 1.350 . S
C1351 C1354 1.463 . S
C1351 C1356 1.350 . S
C1351 N1359 1.427 . S
C1352 H1343 0.930 . S
C1352 C1350 1.378 . S
C1352 C1353 1.367 . S
C1353 C1352 1.367 . S
C1353 C1355 1.433 . S
C1354 C1350 1.350 . S
C1354 C1351 1.463 . S
C1354 N1358 1.427 . S
C1355 H1345 0.929 . S
C1355 C1353 1.433 . S
C1355 N1358 1.384 . S
C1356 H1347 0.929 . S
C1356 C1348 1.378 . S
C1356 C1351 1.350 . S
C1357 H1344 0.929 . S
C1357 C1349 1.433 . S
C1357 N1359 1.384 . S
N1358 C1354 1.427 . S
N1358 C1355 1.384 . S
N1359 C1351 1.427 . S
N1359 C1357 1.384 . S
H1360 C1366 0.930 . S
H1361 C1370 0.930 . S
H1362 C1375 0.929 . S
H1363 C1373 0.929 . S
H1364 C1368 0.929 . S
H1365 C1374 0.929 . S
C1366 H1360 0.930 . S
C1366 C1367 1.367 . S
C1366 C1374 1.378 . S
C1367 C1366 1.367 . S
C1367 C1375 1.433 . S
C1368 H1364 0.929 . S
C1368 C1370 1.378 . S
C1368 C1372 1.350 . S
C1369 C1372 1.463 . S
C1369 C1374 1.350 . S
C1369 N1377 1.427 . S
C1370 H1361 0.930 . S
C1370 C1368 1.378 . S
C1370 C1371 1.367 . S
C1371 C1370 1.367 . S
C1371 C1373 1.433 . S
C1372 C1368 1.350 . S
C1372 C1369 1.463 . S
C1372 N1376 1.427 . S
C1373 H1363 0.929 . S
C1373 C1371 1.433 . S
C1373 N1376 1.384 . S
C1374 H1365 0.929 . S
C1374 C1366 1.378 . S
C1374 C1369 1.350 . S
C1375 H1362 0.929 . S
C1375 C1367 1.433 . S
C1375 N1377 1.384 . S
N1376 C1372 1.427 . S
N1376 C1373 1.384 . S
N1377 C1369 1.427 . S
N1377 C1375 1.384 . S
H1378 C1384 0.930 . S
H1379 C1388 0.930 . S
H1380 C1393 0.962 . S
H1381 C1391 0.929 . S
H1382 C1386 0.929 . S
H1383 C1392 0.929 . S
C1384 H1378 0.930 . S
C1384 C1385 1.367 . S
C1384 C1392 1.378 . S
C1385 C1384 1.367 . S
C1385 C1393 1.433 . S
C1386 H1382 0.929 . S
C1386 C1388 1.378 . S
C1386 C1390 1.350 . S
C1387 C1390 1.463 . S
C1387 C1392 1.350 . S
C1387 N1395 1.427 . S
C1388 H1379 0.930 . S
C1388 C1386 1.378 . S
C1388 C1389 1.367 . S
C1389 C1388 1.367 . S
C1389 C1391 1.433 . S
C1390 C1386 1.350 . S
C1390 C1387 1.463 . S
C1390 N1394 1.427 . S
C1391 H1381 0.929 . S
C1391 C1389 1.433 . S
C1391 N1394 1.384 . S
C1392 H1383 0.929 . S
C1392 C1384 1.378 . S
C1392 C1387 1.350 . S
C1393 H1380 0.962 . S
C1393 C1385 1.433 . S
C1393 N1395 1.384 . S
N1394 C1390 1.427 . S
N1394 C1391 1.384 . S
N1395 C1387 1.427 . S
N1395 C1393 1.384 . S
H1396 C1402 0.930 . S
H1397 C1406 0.930 . S
H1398 C1411 0.929 . S
H1399 C1409 0.929 . S
H1400 C1404 0.929 . S
H1401 C1410 0.929 . S
C1402 H1396 0.930 . S
C1402 C1403 1.367 . S
C1402 C1410 1.378 . S
C1403 C1402 1.367 . S
C1403 C1411 1.433 . S
C1404 H1400 0.929 . S
C1404 C1406 1.378 . S
C1404 C1408 1.350 . S
C1405 C1408 1.463 . S
C1405 C1410 1.350 . S
C1405 N1413 1.427 . S
C1406 H1397 0.930 . S
C1406 C1404 1.378 . S
C1406 C1407 1.367 . S
C1407 C1406 1.367 . S
C1407 C1409 1.433 . S
C1408 C1404 1.350 . S
C1408 C1405 1.463 . S
C1408 N1412 1.427 . S
C1409 H1399 0.929 . S
C1409 C1407 1.433 . S
C1409 N1412 1.384 . S
C1410 H1401 0.929 . S
C1410 C1402 1.378 . S
C1410 C1405 1.350 . S
C1411 H1398 0.929 . S
C1411 C1403 1.433 . S
C1411 N1413 1.384 . S
N1412 C1408 1.427 . S
N1412 C1409 1.384 . S
N1413 C1405 1.427 . S
N1413 C1411 1.384 . S
H1414 C1420 0.930 . S
H1415 C1424 0.930 . S
H1416 C1429 0.929 . S
H1417 C1427 0.929 . S
H1418 C1422 0.929 . S
H1419 C1428 0.929 . S
C1420 H1414 0.930 . S
C1420 C1421 1.367 . S
C1420 C1428 1.378 . S
C1421 C1420 1.367 . S
C1421 C1429 1.433 . S
C1422 H1418 0.929 . S
C1422 C1424 1.378 . S
C1422 C1426 1.350 . S
C1423 C1426 1.463 . S
C1423 C1428 1.350 . S
C1423 N1431 1.427 . S
C1424 H1415 0.930 . S
C1424 C1422 1.378 . S
C1424 C1425 1.367 . S
C1425 C1424 1.367 . S
C1425 C1427 1.433 . S
C1426 C1422 1.350 . S
C1426 C1423 1.463 . S
C1426 N1430 1.427 . S
C1427 H1417 0.929 . S
C1427 C1425 1.433 . S
C1427 N1430 1.384 . S
C1428 H1419 0.929 . S
C1428 C1420 1.378 . S
C1428 C1423 1.350 . S
C1429 H1416 0.929 . S
C1429 C1421 1.433 . S
C1429 N1431 1.384 . S
N1430 C1426 1.427 . S
N1430 C1427 1.384 . S
N1431 C1423 1.427 . S
N1431 C1429 1.384 . S
H1432 C1438 0.930 . S
H1433 C1442 0.930 . S
H1434 C1447 0.929 . S
H1435 C1445 0.929 . S
H1436 C1440 0.929 . S
H1437 C1446 0.929 . S
C1438 H1432 0.930 . S
C1438 C1439 1.367 . S
C1438 C1446 1.378 . S
C1439 C1438 1.367 . S
C1439 C1447 1.433 . S
C1440 H1436 0.929 . S
C1440 C1442 1.378 . S
C1440 C1444 1.350 . S
C1441 C1444 1.463 . S
C1441 C1446 1.350 . S
C1441 N1449 1.427 . S
C1442 H1433 0.930 . S
C1442 C1440 1.378 . S
C1442 C1443 1.367 . S
C1443 C1442 1.367 . S
C1443 C1445 1.433 . S
C1444 C1440 1.350 . S
C1444 C1441 1.463 . S
C1444 N1448 1.427 . S
C1445 H1435 0.929 . S
C1445 C1443 1.433 . S
C1445 N1448 1.384 . S
C1446 H1437 0.929 . S
C1446 C1438 1.378 . S
C1446 C1441 1.350 . S
C1447 H1434 0.929 . S
C1447 C1439 1.433 . S
C1447 N1449 1.384 . S
N1448 C1444 1.427 . S
N1448 C1445 1.384 . S
N1449 C1441 1.427 . S
N1449 C1447 1.384 . S
H1450 C1456 0.930 . S
H1451 C1460 0.930 . S
H1452 C1465 0.929 . S
H1453 C1463 0.929 . S
H1454 C1458 0.929 . S
H1455 C1464 0.929 . S
C1456 H1450 0.930 . S
C1456 C1457 1.367 . S
C1456 C1464 1.378 . S
C1457 C1456 1.367 . S
C1457 C1465 1.433 . S
C1458 H1454 0.929 . S
C1458 C1460 1.378 . S
C1458 C1462 1.350 . S
C1459 C1462 1.463 . S
C1459 C1464 1.350 . S
C1459 N1467 1.427 . S
C1460 H1451 0.930 . S
C1460 C1458 1.378 . S
C1460 C1461 1.367 . S
C1461 C1460 1.367 . S
C1461 C1463 1.433 . S
C1462 C1458 1.350 . S
C1462 C1459 1.463 . S
C1462 N1466 1.427 . S
C1463 H1453 0.929 . S
C1463 C1461 1.433 . S
C1463 N1466 1.384 . S
C1464 H1455 0.929 . S
C1464 C1456 1.378 . S
C1464 C1459 1.350 . S
C1465 H1452 0.929 . S
C1465 C1457 1.433 . S
C1465 N1467 1.384 . S
N1466 C1462 1.427 . S
N1466 C1463 1.384 . S
N1467 C1459 1.427 . S
N1467 C1465 1.384 . S
H1468 C1474 0.930 . S
H1469 C1478 0.930 . S
H1470 C1483 0.929 . S
H1471 C1481 0.929 . S
H1472 C1476 0.929 . S
H1473 C1482 0.929 . S
C1474 H1468 0.930 . S
C1474 C1475 1.367 . S
C1474 C1482 1.378 . S
C1475 C1474 1.367 . S
C1475 C1483 1.433 . S
C1476 H1472 0.929 . S
C1476 C1478 1.378 . S
C1476 C1480 1.350 . S
C1477 C1480 1.463 . S
C1477 C1482 1.350 . S
C1477 N1485 1.427 . S
C1478 H1469 0.930 . S
C1478 C1476 1.378 . S
C1478 C1479 1.367 . S
C1479 C1478 1.367 . S
C1479 C1481 1.433 . S
C1480 C1476 1.350 . S
C1480 C1477 1.463 . S
C1480 N1484 1.427 . S
C1481 H1471 0.929 . S
C1481 C1479 1.433 . S
C1481 N1484 1.384 . S
C1482 H1473 0.929 . S
C1482 C1474 1.378 . S
C1482 C1477 1.350 . S
C1483 H1470 0.929 . S
C1483 C1475 1.433 . S
C1483 N1485 1.384 . S
N1484 C1480 1.427 . S
N1484 C1481 1.384 . S
N1485 C1477 1.427 . S
N1485 C1483 1.384 . S
H1486 C1492 0.930 . S
H1487 C1496 0.930 . S
H1488 C1501 0.929 . S
H1489 C1499 0.929 . S
H1490 C1494 0.929 . S
H1491 C1500 0.929 . S
C1492 H1486 0.930 . S
C1492 C1493 1.367 . S
C1492 C1500 1.378 . S
C1493 C1492 1.367 . S
C1493 C1501 1.433 . S
C1494 H1490 0.929 . S
C1494 C1496 1.378 . S
C1494 C1498 1.350 . S
C1495 C1498 1.463 . S
C1495 C1500 1.350 . S
C1495 N1503 1.427 . S
C1496 H1487 0.930 . S
C1496 C1494 1.378 . S
C1496 C1497 1.367 . S
C1497 C1496 1.367 . S
C1497 C1499 1.433 . S
C1498 C1494 1.350 . S
C1498 C1495 1.463 . S
C1498 N1502 1.427 . S
C1499 H1489 0.929 . S
C1499 C1497 1.433 . S
C1499 N1502 1.384 . S
C1500 H1491 0.929 . S
C1500 C1492 1.378 . S
C1500 C1495 1.350 . S
C1501 H1488 0.929 . S
C1501 C1493 1.433 . S
C1501 N1503 1.384 . S
N1502 C1498 1.427 . S
N1502 C1499 1.384 . S
N1503 C1495 1.427 . S
N1503 C1501 1.384 . S
C647 C3 1.514 . S
C651 C66 1.457 . S
C665 C95 1.546 . S
C669 C62 1.543 . S
C683 C142 2.429 . S
C687 C83 2.470 . S
C701 C15 0.996 . S
C705 C146 0.958 . S
C719 C2 0.969 . S
C723 C369 0.933 . S
C737 C302 1.509 . S
C741 C49 1.442 . S
C755 C82 1.551 . S
C759 C403 1.549 . S
C773 C123 2.426 . S
C777 C542 2.471 . S
C791 C322 1.556 . S
C795 C43 1.543 . S
C809 C483 2.423 . S
C813 C102 2.471 . S
C827 C562 0.972 . S
C831 C129 0.930 . S
C845 C22 1.511 . S
C849 C449 1.442 . S
C863 C26 0.531 . S
C867 C346 0.558 . S
C881 C495 1.767 . S
C885 C162 1.806 . S
C899 C209 0.534 . S
C903 C569 0.505 . S
C917 C442 1.804 . S
C921 C255 1.771 . S
C935 C89 0.553 . S
C939 C289 0.527 . S
C953 C362 1.763 . S
C957 C175 1.809 . S
C971 C242 1.760 . S
C975 C415 1.810 . S
C989 C202 1.552 . S
C993 C443 1.548 . S
C1007 C363 2.422 . S
C1011 C222 2.470 . S
C1025 C466 1.462 . S
C1029 C283 1.521 . S
C1043 C215 1.554 . S
C1047 C182 1.538 . S
C1061 C382 2.428 . S
C1065 C323 2.470 . S
C1079 C535 1.556 . S
C1083 C462 1.542 . S
C1097 C262 2.428 . S
C1101 C203 2.470 . S
C1115 C386 0.965 . S
C1119 C575 0.992 . S
C1133 C529 0.561 . S
C1137 C9 0.534 . S
C1151 C106 0.516 . S
C1155 C586 0.489 . S
C1169 C482 1.761 . S
C1173 C55 1.810 . S
C1187 C306 0.520 . S
C1191 C226 0.545 . S
C1205 C135 1.762 . S
C1209 C402 1.809 . S
C1223 C502 2.423 . S
C1227 C523 2.469 . S
C1241 C295 0.985 . S
C1245 C506 0.937 . S
C1259 C249 0.945 . S
C1263 C282 0.991 . S
C1277 C163 1.548 . S
C1281 C522 1.552 . S
C1295 C489 0.965 . S
C1299 C602 0.990 . S
C1313 C609 0.518 . S
C1317 C329 0.543 . S
C1331 C42 1.810 . S
C1335 C375 1.760 . S
C1349 C342 2.468 . S
C1353 C243 2.424 . S
C1367 C335 1.548 . S
C1371 C422 1.550 . S
C1385 C615 0.984 . S
C1389 C266 0.963 . S
C1403 C546 0.557 . S
C1407 C626 0.531 . S
C1421 C455 1.808 . S
C1425 C122 1.765 . S
C1439 C426 1.442 . S
C1443 C563 1.509 . S
C1457 C409 1.456 . S
C1461 C622 1.513 . S
C1475 C169 1.444 . S
C1479 C582 1.509 . S
C1493 C603 1.519 . S
C1497 C186 1.450 . S
