# Generated by pormake.
# Topology sxg, (6)-cn, num edge types: 1
# Building blocks:
#     Node 0, Type 0, BuildingBlock: OJICUG_clean_sbu_0, # of connection points: 6
#     Node 1, Type 0, BuildingBlock: OJICUG_clean_sbu_0, # of connection points: 6
#     Node 2, Type 0, BuildingBlock: OJICUG_clean_sbu_0, # of connection points: 6
#     Node 3, Type 0, BuildingBlock: OJICUG_clean_sbu_0, # of connection points: 6
#     Node 4, Type 0, BuildingBlock: OJICUG_clean_sbu_0, # of connection points: 6
#     Node 5, Type 0, BuildingBlock: OJICUG_clean_sbu_0, # of connection points: 6
#     Node 6, Type 0, BuildingBlock: OJICUG_clean_sbu_0, # of connection points: 6
#     Node 7, Type 0, BuildingBlock: OJICUG_clean_sbu_0, # of connection points: 6
#     Node 8, Type 0, BuildingBlock: OJICUG_clean_sbu_0, # of connection points: 6
#     Node 9, Type 0, BuildingBlock: OJICUG_clean_sbu_0, # of connection points: 6
#     Node 10, Type 0, BuildingBlock: OJICUG_clean_sbu_0, # of connection points: 6
#     Node 11, Type 0, BuildingBlock: OJICUG_clean_sbu_0, # of connection points: 6
#     Node 12, Type 0, BuildingBlock: OJICUG_clean_sbu_0, # of connection points: 6
#     Node 13, Type 0, BuildingBlock: OJICUG_clean_sbu_0, # of connection points: 6
#     Node 14, Type 0, BuildingBlock: OJICUG_clean_sbu_0, # of connection points: 6
#     Node 15, Type 0, BuildingBlock: OJICUG_clean_sbu_0, # of connection points: 6
#     Node 16, Type 0, BuildingBlock: OJICUG_clean_sbu_0, # of connection points: 6
#     Node 17, Type 0, BuildingBlock: OJICUG_clean_sbu_0, # of connection points: 6
#     Node 18, Type 0, BuildingBlock: OJICUG_clean_sbu_0, # of connection points: 6
#     Node 19, Type 0, BuildingBlock: OJICUG_clean_sbu_0, # of connection points: 6
#     Node 20, Type 0, BuildingBlock: OJICUG_clean_sbu_0, # of connection points: 6
#     Node 21, Type 0, BuildingBlock: OJICUG_clean_sbu_0, # of connection points: 6
#     Node 22, Type 0, BuildingBlock: OJICUG_clean_sbu_0, # of connection points: 6
#     Node 23, Type 0, BuildingBlock: OJICUG_clean_sbu_0, # of connection points: 6
#     Edge 24, Type (0, 0), BuildingBlock: EZIPEK_clean_linker_0, # of connection points: 2
#     Edge 25, Type (0, 0), BuildingBlock: EZIPEK_clean_linker_0, # of connection points: 2
#     Edge 26, Type (0, 0), BuildingBlock: EZIPEK_clean_linker_0, # of connection points: 2
#     Edge 27, Type (0, 0), BuildingBlock: EZIPEK_clean_linker_0, # of connection points: 2
#     Edge 28, Type (0, 0), BuildingBlock: EZIPEK_clean_linker_0, # of connection points: 2
#     Edge 29, Type (0, 0), BuildingBlock: EZIPEK_clean_linker_0, # of connection points: 2
#     Edge 30, Type (0, 0), BuildingBlock: EZIPEK_clean_linker_0, # of connection points: 2
#     Edge 31, Type (0, 0), BuildingBlock: EZIPEK_clean_linker_0, # of connection points: 2
#     Edge 32, Type (0, 0), BuildingBlock: EZIPEK_clean_linker_0, # of connection points: 2
#     Edge 33, Type (0, 0), BuildingBlock: EZIPEK_clean_linker_0, # of connection points: 2
#     Edge 34, Type (0, 0), BuildingBlock: EZIPEK_clean_linker_0, # of connection points: 2
#     Edge 35, Type (0, 0), BuildingBlock: EZIPEK_clean_linker_0, # of connection points: 2
#     Edge 36, Type (0, 0), BuildingBlock: EZIPEK_clean_linker_0, # of connection points: 2
#     Edge 37, Type (0, 0), BuildingBlock: EZIPEK_clean_linker_0, # of connection points: 2
#     Edge 38, Type (0, 0), BuildingBlock: EZIPEK_clean_linker_0, # of connection points: 2
#     Edge 39, Type (0, 0), BuildingBlock: EZIPEK_clean_linker_0, # of connection points: 2
#     Edge 40, Type (0, 0), BuildingBlock: EZIPEK_clean_linker_0, # of connection points: 2
#     Edge 41, Type (0, 0), BuildingBlock: EZIPEK_clean_linker_0, # of connection points: 2
#     Edge 42, Type (0, 0), BuildingBlock: EZIPEK_clean_linker_0, # of connection points: 2
#     Edge 43, Type (0, 0), BuildingBlock: EZIPEK_clean_linker_0, # of connection points: 2
#     Edge 44, Type (0, 0), BuildingBlock: EZIPEK_clean_linker_0, # of connection points: 2
#     Edge 45, Type (0, 0), BuildingBlock: EZIPEK_clean_linker_0, # of connection points: 2
#     Edge 46, Type (0, 0), BuildingBlock: EZIPEK_clean_linker_0, # of connection points: 2
#     Edge 47, Type (0, 0), BuildingBlock: EZIPEK_clean_linker_0, # of connection points: 2
#     Edge 48, Type (0, 0), BuildingBlock: EZIPEK_clean_linker_0, # of connection points: 2
#     Edge 49, Type (0, 0), BuildingBlock: EZIPEK_clean_linker_0, # of connection points: 2
#     Edge 50, Type (0, 0), BuildingBlock: EZIPEK_clean_linker_0, # of connection points: 2
#     Edge 51, Type (0, 0), BuildingBlock: EZIPEK_clean_linker_0, # of connection points: 2
#     Edge 52, Type (0, 0), BuildingBlock: EZIPEK_clean_linker_0, # of connection points: 2
#     Edge 53, Type (0, 0), BuildingBlock: EZIPEK_clean_linker_0, # of connection points: 2
#     Edge 54, Type (0, 0), BuildingBlock: EZIPEK_clean_linker_0, # of connection points: 2
#     Edge 55, Type (0, 0), BuildingBlock: EZIPEK_clean_linker_0, # of connection points: 2
#     Edge 56, Type (0, 0), BuildingBlock: EZIPEK_clean_linker_0, # of connection points: 2
#     Edge 57, Type (0, 0), BuildingBlock: EZIPEK_clean_linker_0, # of connection points: 2
#     Edge 58, Type (0, 0), BuildingBlock: EZIPEK_clean_linker_0, # of connection points: 2
#     Edge 59, Type (0, 0), BuildingBlock: EZIPEK_clean_linker_0, # of connection points: 2
#     Edge 60, Type (0, 0), BuildingBlock: EZIPEK_clean_linker_0, # of connection points: 2
#     Edge 61, Type (0, 0), BuildingBlock: EZIPEK_clean_linker_0, # of connection points: 2
#     Edge 62, Type (0, 0), BuildingBlock: EZIPEK_clean_linker_0, # of connection points: 2
#     Edge 63, Type (0, 0), BuildingBlock: EZIPEK_clean_linker_0, # of connection points: 2
#     Edge 64, Type (0, 0), BuildingBlock: EZIPEK_clean_linker_0, # of connection points: 2
#     Edge 65, Type (0, 0), BuildingBlock: EZIPEK_clean_linker_0, # of connection points: 2
#     Edge 66, Type (0, 0), BuildingBlock: EZIPEK_clean_linker_0, # of connection points: 2
#     Edge 67, Type (0, 0), BuildingBlock: EZIPEK_clean_linker_0, # of connection points: 2
#     Edge 68, Type (0, 0), BuildingBlock: EZIPEK_clean_linker_0, # of connection points: 2
#     Edge 69, Type (0, 0), BuildingBlock: EZIPEK_clean_linker_0, # of connection points: 2
#     Edge 70, Type (0, 0), BuildingBlock: EZIPEK_clean_linker_0, # of connection points: 2
#     Edge 71, Type (0, 0), BuildingBlock: EZIPEK_clean_linker_0, # of connection points: 2
#     Edge 72, Type (0, 0), BuildingBlock: EZIPEK_clean_linker_0, # of connection points: 2
#     Edge 73, Type (0, 0), BuildingBlock: EZIPEK_clean_linker_0, # of connection points: 2
#     Edge 74, Type (0, 0), BuildingBlock: EZIPEK_clean_linker_0, # of connection points: 2
#     Edge 75, Type (0, 0), BuildingBlock: EZIPEK_clean_linker_0, # of connection points: 2
#     Edge 76, Type (0, 0), BuildingBlock: EZIPEK_clean_linker_0, # of connection points: 2
#     Edge 77, Type (0, 0), BuildingBlock: EZIPEK_clean_linker_0, # of connection points: 2
#     Edge 78, Type (0, 0), BuildingBlock: EZIPEK_clean_linker_0, # of connection points: 2
#     Edge 79, Type (0, 0), BuildingBlock: EZIPEK_clean_linker_0, # of connection points: 2
#     Edge 80, Type (0, 0), BuildingBlock: EZIPEK_clean_linker_0, # of connection points: 2
#     Edge 81, Type (0, 0), BuildingBlock: EZIPEK_clean_linker_0, # of connection points: 2
#     Edge 82, Type (0, 0), BuildingBlock: EZIPEK_clean_linker_0, # of connection points: 2
#     Edge 83, Type (0, 0), BuildingBlock: EZIPEK_clean_linker_0, # of connection points: 2
#     Edge 84, Type (0, 0), BuildingBlock: EZIPEK_clean_linker_0, # of connection points: 2
#     Edge 85, Type (0, 0), BuildingBlock: EZIPEK_clean_linker_0, # of connection points: 2
#     Edge 86, Type (0, 0), BuildingBlock: EZIPEK_clean_linker_0, # of connection points: 2
#     Edge 87, Type (0, 0), BuildingBlock: EZIPEK_clean_linker_0, # of connection points: 2
#     Edge 88, Type (0, 0), BuildingBlock: EZIPEK_clean_linker_0, # of connection points: 2
#     Edge 89, Type (0, 0), BuildingBlock: EZIPEK_clean_linker_0, # of connection points: 2
#     Edge 90, Type (0, 0), BuildingBlock: EZIPEK_clean_linker_0, # of connection points: 2
#     Edge 91, Type (0, 0), BuildingBlock: EZIPEK_clean_linker_0, # of connection points: 2
#     Edge 92, Type (0, 0), BuildingBlock: EZIPEK_clean_linker_0, # of connection points: 2
#     Edge 93, Type (0, 0), BuildingBlock: EZIPEK_clean_linker_0, # of connection points: 2
#     Edge 94, Type (0, 0), BuildingBlock: EZIPEK_clean_linker_0, # of connection points: 2
#     Edge 95, Type (0, 0), BuildingBlock: EZIPEK_clean_linker_0, # of connection points: 2
# Relax obj value: 0.142
# Max RMSD: 0.235
# Mean RMSD: 0.235
data_MOF--net-sxg--node1-OJICUG_clean_sbu_0--edge1-EZIPEK_clean_linker_0
_symmetry_space_group_name_H-M    P1
_symmetry_Int_Tables_number       1
_symmetry_cell_setting            triclinic
loop_
_symmetry_equiv_pos_as_xyz
'x, y, z'
_cell_length_a     35.127522
_cell_length_b     35.139712
_cell_length_c     35.09828
_cell_angle_alpha  89.960598
_cell_angle_beta   89.983869
_cell_angle_gamma 89.987564
loop_
_atom_site_label
_atom_site_type_symbol
_atom_site_fract_x
_atom_site_fract_y
_atom_site_fract_z
_atom_type_partial_charge
Sc0 Sc 0.07289 0.38177 0.16375 0.0
Sc1 Sc 0.0546 0.35765 0.25937 0.0
Sc2 Sc 0.05671 0.28645 0.19013 0.0
O3 O 0.06061 0.34194 0.20439 0.0
C4 C 0.01841 0.32353 0.11889 0.0
C5 C 0.00847 0.42189 0.21102 0.0
C6 C 0.99306 0.29164 0.25524 0.0
C7 C 0.12278 0.41148 0.23351 0.0
C8 C 0.12982 0.31596 0.1439 0.0
C9 C 0.10193 0.28048 0.26736 0.0
O10 O 0.03762 0.3542 0.12092 0.0
O11 O 0.01803 0.40599 0.24254 0.0
O12 O 0.00785 0.27571 0.22621 0.0
O13 O 0.10998 0.41597 0.19995 0.0
O14 O 0.10695 0.29019 0.15516 0.0
O15 O 0.08962 0.31147 0.28153 0.0
O16 O 0.12257 0.35129 0.14589 0.0
O17 O 0.10662 0.38931 0.25692 0.0
O18 O 0.09323 0.26908 0.23438 0.0
O19 O 0.02444 0.41462 0.17943 0.0
O20 O 0.01968 0.29762 0.14386 0.0
O21 O 0.0045 0.32335 0.26853 0.0
Sc22 Sc 0.42531 0.62422 0.6584 0.0
Sc23 Sc 0.44605 0.64327 0.75279 0.0
Sc24 Sc 0.44023 0.71663 0.68773 0.0
O25 O 0.43843 0.66087 0.69936 0.0
C26 C 0.48403 0.68505 0.61914 0.0
C27 C 0.48716 0.5781 0.70276 0.0
C28 C 0.50293 0.70656 0.75471 0.0
C29 C 0.37441 0.59579 0.72872 0.0
C30 C 0.37028 0.69023 0.63942 0.0
C31 C 0.39721 0.72016 0.76178 0.0
O32 O 0.46138 0.65626 0.61737 0.0
O33 O 0.4765 0.59164 0.73488 0.0
O34 O 0.48146 0.72769 0.73413 0.0
O35 O 0.3876 0.59074 0.69511 0.0
O36 O 0.39737 0.71408 0.64247 0.0
O37 O 0.41823 0.69437 0.77654 0.0
O38 O 0.37512 0.65552 0.64709 0.0
O39 O 0.39134 0.61595 0.75349 0.0
O40 O 0.39499 0.72507 0.72627 0.0
O41 O 0.47372 0.58963 0.67115 0.0
O42 O 0.48437 0.7081 0.6471 0.0
O43 O 0.50043 0.67067 0.75347 0.0
Sc44 Sc 0.56114 0.20839 0.80422 0.0
Sc45 Sc 0.55431 0.13407 0.74 0.0
Sc46 Sc 0.57429 0.11459 0.83478 0.0
O47 O 0.56243 0.15249 0.7933 0.0
C48 C 0.63351 0.1782 0.85123 0.0
C49 C 0.59779 0.21215 0.72506 0.0
C50 C 0.62418 0.08473 0.76492 0.0
C51 C 0.49194 0.19674 0.74378 0.0
C52 C 0.5219 0.17709 0.87726 0.0
C53 C 0.51088 0.07221 0.79136 0.0
O54 O 0.61085 0.20504 0.84166 0.0
O55 O 0.57996 0.18323 0.71277 0.0
O56 O 0.60884 0.07805 0.79728 0.0
O57 O 0.51292 0.21753 0.76517 0.0
O58 O 0.54188 0.14667 0.87757 0.0
O59 O 0.52394 0.08304 0.75916 0.0
O60 O 0.52229 0.20077 0.85004 0.0
O61 O 0.50075 0.16234 0.73664 0.0
O62 O 0.5236 0.08411 0.8229 0.0
O63 O 0.59978 0.22061 0.75991 0.0
O64 O 0.62546 0.1433 0.84796 0.0
O65 O 0.60954 0.10818 0.74162 0.0
Sc66 Sc 0.94919 0.79386 0.30052 0.0
Sc67 Sc 0.93895 0.86743 0.2357 0.0
Sc68 Sc 0.92731 0.88595 0.33401 0.0
O69 O 0.93917 0.84928 0.29024 0.0
C70 C 0.87278 0.81571 0.34657 0.0
C71 C 0.90287 0.78759 0.22319 0.0
C72 C 0.87189 0.91901 0.2695 0.0
C73 C 0.00741 0.80617 0.23456 0.0
C74 C 0.98399 0.82793 0.3762 0.0
C75 C 0.98735 0.92961 0.28362 0.0
O76 O 0.89513 0.79246 0.32968 0.0
O77 O 0.90264 0.82258 0.21421 0.0
O78 O 0.88571 0.91992 0.30284 0.0
O79 O 0.00184 0.79324 0.26809 0.0
O80 O 0.96639 0.85947 0.37425 0.0
O81 O 0.97719 0.91375 0.25236 0.0
O82 O 0.98106 0.80238 0.35121 0.0
O83 O 0.98702 0.83259 0.22029 0.0
O84 O 0.97264 0.92222 0.31591 0.0
O85 O 0.92005 0.77465 0.25188 0.0
O86 O 0.88115 0.85043 0.35276 0.0
O87 O 0.88775 0.89957 0.24364 0.0
Sc88 Sc 0.16456 0.07223 0.36937 0.0
Sc89 Sc 0.25844 0.04598 0.34989 0.0
Sc90 Sc 0.19467 0.0613 0.27466 0.0
O91 O 0.20575 0.05908 0.33113 0.0
C92 C 0.11818 0.02612 0.30549 0.0
C93 C 0.20354 0.00472 0.4113 0.0
C94 C 0.24959 0.98772 0.2825 0.0
C95 C 0.23682 0.11515 0.40272 0.0
C96 C 0.15432 0.13608 0.30746 0.0
C97 C 0.27824 0.09204 0.27381 0.0
O98 O 0.12047 0.04268 0.33765 0.0
O99 O 0.23645 0.01324 0.39835 0.0
O100 O 0.2271 0.0096 0.26415 0.0
O101 O 0.20243 0.10434 0.40609 0.0
O102 O 0.16363 0.11495 0.27938 0.0
O103 O 0.28805 0.07492 0.30414 0.0
O104 O 0.15466 0.12461 0.34158 0.0
O105 O 0.26066 0.09831 0.38137 0.0
O106 O 0.24416 0.09381 0.26224 0.0
O107 O 0.17322 0.021 0.40054 0.0
O108 O 0.14403 0.0279 0.28036 0.0
O109 O 0.26018 0.9948 0.31654 0.0
Sc110 Sc 0.3033 0.94356 0.78102 0.0
Sc111 Sc 0.24062 0.93919 0.85849 0.0
Sc112 Sc 0.33771 0.91994 0.87126 0.0
O113 O 0.29389 0.93475 0.83699 0.0
C114 C 0.3493 0.86853 0.79888 0.0
C115 C 0.22157 0.90364 0.77948 0.0
C116 C 0.27239 0.86586 0.90256 0.0
C117 C 0.24297 0.00631 0.79526 0.0
C118 C 0.37977 0.97723 0.81719 0.0
C119 C 0.29207 0.98051 0.92083 0.0
O120 O 0.32736 0.88707 0.77676 0.0
O121 O 0.21565 0.90233 0.81533 0.0
O122 O 0.30653 0.8718 0.89249 0.0
O123 O 0.27618 -0.00083 0.78226 0.0
O124 O 0.37385 0.96506 0.85077 0.0
O125 O 0.26153 0.97898 0.90117 0.0
O126 O 0.35836 0.96933 0.78916 0.0
O127 O 0.2276 0.98628 0.82136 0.0
O128 O 0.31992 0.95796 0.91599 0.0
O129 O 0.2502 0.91977 0.76471 0.0
O130 O 0.36029 0.88074 0.831 0.0
O131 O 0.24618 0.89033 0.89677 0.0
Sc132 Sc 0.68298 0.43272 0.71753 0.0
Sc133 Sc 0.75294 0.44025 0.64689 0.0
Sc134 Sc 0.65799 0.41894 0.62094 0.0
O135 O 0.69791 0.43123 0.66187 0.0
C136 C 0.6398 0.35921 0.68499 0.0
C137 C 0.76566 0.3961 0.72392 0.0
C138 C 0.72939 0.36978 0.59367 0.0
C139 C 0.7434 0.50048 0.71467 0.0
C140 C 0.61006 0.47053 0.67868 0.0
C141 C 0.70518 0.48415 0.58212 0.0
O142 O 0.65487 0.37787 0.71225 0.0
O143 O 0.7772 0.40574 0.69113 0.0
O144 O 0.6946 0.37933 0.59069 0.0
O145 O 0.71275 0.48602 0.72783 0.0
O146 O 0.61549 0.456 0.64594 0.0
O147 O 0.7357 0.47812 0.60085 0.0
O148 O 0.63184 0.46443 0.70683 0.0
O149 O 0.75948 0.48861 0.68431 0.0
O150 O 0.67489 0.46529 0.58648 0.0
O151 O 0.73252 0.40304 0.73632 0.0
O152 O 0.63747 0.37122 0.65117 0.0
O153 O 0.75296 0.38938 0.61283 0.0
Sc154 Sc 0.8405 0.57961 0.12119 0.0
Sc155 Sc 0.74383 0.56185 0.14391 0.0
Sc156 Sc 0.81262 0.56828 0.21659 0.0
O157 O 0.79889 0.56949 0.16056 0.0
C158 C 0.88595 0.52806 0.18083 0.0
C159 C 0.79164 0.51488 0.08125 0.0
C160 C 0.75215 0.50172 0.21287 0.0
C161 C 0.77105 0.63043 0.08981 0.0
C162 C 0.8574 0.64076 0.18482 0.0
C163 C 0.7302 0.60658 0.22082 0.0
O164 O 0.88028 0.53943 0.14682 0.0
O165 O 0.76119 0.52114 0.10011 0.0
O166 O 0.78381 0.51434 0.22549 0.0
O167 O 0.80627 0.62227 0.09243 0.0
O168 O 0.83964 0.62361 0.21149 0.0
O169 O 0.71973 0.59941 0.18685 0.0
O170 O 0.86286 0.62655 0.15215 0.0
O171 O 0.74518 0.61004 0.10502 0.0
O172 O 0.76216 0.59674 0.23415 0.0
O173 O 0.82188 0.53409 0.08535 0.0
O174 O 0.86494 0.53774 0.2085 0.0
O175 O 0.73549 0.51553 0.18367 0.0
Sc176 Sc 0.38512 0.16077 0.06679 0.0
Sc177 Sc 0.34943 0.25034 0.04296 0.0
Sc178 Sc 0.28786 0.17685 0.0619 0.0
O179 O 0.34106 0.1953 0.05589 0.0
C180 C 0.32531 0.10819 0.01996 0.0
C181 C 0.41844 0.20757 0.00043 0.0
C182 C 0.28388 0.23524 0.9889 0.0
C183 C 0.40539 0.23834 0.11124 0.0
C184 C 0.32992 0.13656 0.13181 0.0
C185 C 0.27333 0.25413 0.09294 0.0
O186 O 0.35748 0.11324 0.03654 0.0
O187 O 0.40271 0.23835 0.01191 0.0
O188 O 0.26842 0.21361 0.01402 0.0
O189 O 0.41557 0.20566 0.09846 0.0
O190 O 0.30026 0.14148 0.11147 0.0
O191 O 0.2955 0.26972 0.06876 0.0
O192 O 0.36303 0.14423 0.12033 0.0
O193 O 0.37828 0.25734 0.09646 0.0
O194 O 0.27784 0.22008 0.10277 0.0
O195 O 0.41105 0.17531 0.01446 0.0
O196 O 0.29745 0.13108 0.0231 0.0
O197 O 0.31891 0.24426 0.99072 0.0
Sc198 Sc 0.78047 0.31469 0.94142 0.0
Sc199 Sc 0.85067 0.24452 0.95144 0.0
Sc200 Sc 0.87746 0.33897 0.93103 0.0
O201 O 0.83605 0.29948 0.94208 0.0
C202 C 0.81608 0.35635 0.86827 0.0
C203 C 0.77376 0.2322 0.90548 0.0
C204 C 0.9058 0.26742 0.88259 0.0
C205 C 0.78262 0.25518 0.01087 0.0
C206 C 0.81737 0.3878 0.97971 0.0
C207 C 0.91526 0.29219 0.99638 0.0
O208 O 0.78787 0.34362 0.88728 0.0
O209 O 0.80517 0.21989 0.91834 0.0
O210 O 0.91076 0.30125 0.89455 0.0
O211 O 0.76846 0.28403 0.99386 0.0
O212 O 0.85031 0.38263 0.96551 0.0
O213 O 0.8987 0.26106 0.98756 0.0
O214 O 0.78976 0.36534 0.97413 0.0
O215 O 0.81418 0.23987 0.0011 0.0
O216 O 0.90876 0.32355 0.97999 0.0
O217 O 0.7625 0.26612 0.90979 0.0
O218 O 0.84987 0.35697 0.88059 0.0
O219 O 0.88371 0.24435 0.89965 0.0
Sc220 Sc 0.7184 0.67861 0.44398 0.0
Sc221 Sc 0.65248 0.75308 0.44331 0.0
Sc222 Sc 0.62213 0.65852 0.42889 0.0
O223 O 0.66407 0.69667 0.43974 0.0
C224 C 0.68543 0.63731 0.36943 0.0
C225 C 0.73027 0.75543 0.39876 0.0
C226 C 0.59636 0.72832 0.37675 0.0
C227 C 0.71854 0.7416 0.50663 0.0
C228 C 0.67535 0.60905 0.48182 0.0
C229 C 0.58636 0.71279 0.49235 0.0
O230 O 0.71266 0.65297 0.38776 0.0
O231 O 0.6962 0.76785 0.40091 0.0
O232 O 0.59893 0.69319 0.38436 0.0
O233 O 0.7276 0.7074 0.4981 0.0
O234 O 0.64219 0.61793 0.47052 0.0
O235 O 0.60814 0.74137 0.48586 0.0
O236 O 0.70495 0.62729 0.47285 0.0
O237 O 0.69373 0.7607 0.48832 0.0
O238 O 0.58726 0.6823 0.47291 0.0
O239 O 0.74098 0.72663 0.41718 0.0
O240 O 0.65249 0.63268 0.38331 0.0
O241 O 0.61137 0.7537 0.39761 0.0
Sc242 Sc 0.11513 0.83802 0.57102 0.0
Sc243 Sc 0.14704 0.74629 0.54844 0.0
Sc244 Sc 0.21259 0.81793 0.56577 0.0
O245 O 0.15821 0.80101 0.56106 0.0
C246 C 0.17593 0.88685 0.52259 0.0
C247 C 0.08185 0.79253 0.50275 0.0
C248 C 0.21635 0.75714 0.49605 0.0
C249 C 0.08934 0.76239 0.61514 0.0
C250 C 0.17181 0.86067 0.63551 0.0
C251 C 0.22108 0.73842 0.60192 0.0
O252 O 0.14386 0.88344 0.53947 0.0
O253 O 0.09763 0.76127 0.51277 0.0
O254 O 0.2314 0.78129 0.51873 0.0
O255 O 0.08215 0.79616 0.60358 0.0
O256 O 0.20127 0.85316 0.61566 0.0
O257 O 0.19597 0.72409 0.58002 0.0
O258 O 0.13826 0.85515 0.62399 0.0
O259 O 0.11444 0.74158 0.59959 0.0
O260 O 0.22527 0.77406 0.60508 0.0
O261 O 0.08791 0.82385 0.51926 0.0
O262 O 0.20324 0.86357 0.52668 0.0
O263 O 0.18154 0.74756 0.49844 0.0
Sc264 Sc 0.94729 0.70872 0.80175 0.0
Sc265 Sc 0.93765 0.631 0.7425 0.0
Sc266 Sc 0.92112 0.62079 0.84065 0.0
O267 O 0.93594 0.65311 0.79537 0.0
C268 C 0.98021 0.67647 0.87995 0.0
C269 C 0.00504 0.69348 0.73942 0.0
C270 C 0.98351 0.57333 0.79495 0.0
C271 C 0.89874 0.70806 0.72669 0.0
C272 C 0.87037 0.69456 0.84759 0.0
C273 C 0.868 0.58415 0.77694 0.0
O274 O 0.97437 0.70294 0.85617 0.0
O275 O 0.98233 0.66935 0.72478 0.0
O276 O 0.96162 0.57818 0.82352 0.0
O277 O 0.92267 0.7237 0.74856 0.0
O278 O 0.87993 0.66181 0.85979 0.0
O279 O 0.89122 0.5912 0.75013 0.0
O280 O 0.89151 0.71481 0.82613 0.0
O281 O 0.8961 0.67216 0.72262 0.0
O282 O 0.87429 0.59475 0.81084 0.0
O283 O 0.00192 0.70425 0.77392 0.0
O284 O 0.9651 0.64376 0.87709 0.0
O285 O 0.97983 0.59073 0.76309 0.0
Sc286 Sc 0.54774 0.29145 0.29971 0.0
Sc287 Sc 0.55885 0.3684 0.23911 0.0
Sc288 Sc 0.57457 0.37975 0.33745 0.0
O289 O 0.55962 0.34695 0.29249 0.0
C290 C 0.51558 0.32445 0.37809 0.0
C291 C 0.49058 0.3067 0.23587 0.0
C292 C 0.51338 0.42803 0.29006 0.0
C293 C 0.59684 0.29037 0.22481 0.0
C294 C 0.62474 0.30581 0.34633 0.0
C295 C 0.62861 0.41505 0.27334 0.0
O296 O 0.51981 0.29828 0.35368 0.0
O297 O 0.51341 0.33085 0.22142 0.0
O298 O 0.53387 0.42223 0.31955 0.0
O299 O 0.57319 0.27532 0.24738 0.0
O300 O 0.61582 0.33921 0.35701 0.0
O301 O 0.60585 0.40743 0.24636 0.0
O302 O 0.60327 0.2851 0.32556 0.0
O303 O 0.59981 0.32618 0.22006 0.0
O304 O 0.62168 0.40519 0.30735 0.0
O305 O 0.49359 0.29561 0.27037 0.0
O306 O 0.53136 0.35687 0.37517 0.0
O307 O 0.51767 0.4104 0.2584 0.0
Sc308 Sc 0.44116 0.7797 0.19337 0.0
Sc309 Sc 0.44661 0.85578 0.25827 0.0
Sc310 Sc 0.42999 0.87255 0.16057 0.0
O311 O 0.44002 0.83606 0.20421 0.0
C312 C 0.48309 0.81285 0.11977 0.0
C313 C 0.50709 0.78698 0.25348 0.0
C314 C 0.49137 0.91787 0.20961 0.0
C315 C 0.40105 0.78033 0.27471 0.0
C316 C 0.37069 0.80765 0.14502 0.0
C317 C 0.37664 0.90489 0.22667 0.0
O318 O 0.47062 0.78571 0.14005 0.0
O319 O 0.49229 0.81613 0.26927 0.0
O320 O 0.4711 0.91309 0.18015 0.0
O321 O 0.41291 0.76484 0.24451 0.0
O322 O 0.38716 0.83811 0.13521 0.0
O323 O 0.39942 0.89553 0.25338 0.0
O324 O 0.3855 0.78332 0.16739 0.0
O325 O 0.40766 0.81483 0.28336 0.0
O326 O 0.38349 0.8976 0.19187 0.0
O327 O 0.49534 0.77303 0.22203 0.0
O328 O 0.47428 0.84756 0.12553 0.0
O329 O 0.48767 0.89818 0.23986 0.0
Sc330 Sc 0.05597 0.21745 0.68991 0.0
Sc331 Sc 0.04895 0.14601 0.75713 0.0
Sc332 Sc 0.06817 0.1224 0.66331 0.0
O333 O 0.05687 0.16203 0.703 0.0
C334 C 0.01557 0.18347 0.61833 0.0
C335 C 0.98666 0.2076 0.75142 0.0
C336 C 0.00771 0.07899 0.71005 0.0
C337 C 0.09148 0.22563 0.76831 0.0
C338 C 0.12812 0.18523 0.64351 0.0
C339 C 0.11858 0.09648 0.7353 0.0
O340 O 0.01678 0.20858 0.64425 0.0
O341 O 0.99443 0.17274 0.7579 0.0
O342 O 0.01781 0.0915 0.6777 0.0
O343 O 0.09559 0.23065 0.73301 0.0
O344 O 0.11928 0.15052 0.64722 0.0
O345 O 0.1046 0.12159 0.7572 0.0
O346 O 0.10597 0.21263 0.6527 0.0
O347 O 0.0727 0.19784 0.78195 0.0
O348 O 0.10361 0.0886 0.70292 0.0
O349 O 0.00797 0.22793 0.72971 0.0
O350 O 0.03473 0.15249 0.61961 0.0
O351 O 0.02186 0.09172 0.74109 0.0
Sc352 Sc 0.84523 0.9151 0.62929 0.0
Sc353 Sc 0.74731 0.93311 0.64543 0.0
Sc354 Sc 0.81131 0.93177 0.72085 0.0
O355 O 0.80116 0.92778 0.66482 0.0
C356 C 0.85353 0.85621 0.69445 0.0
C357 C 0.77831 0.86287 0.5965 0.0
C358 C 0.72843 0.89564 0.72391 0.0
C359 C 0.79799 0.97634 0.58295 0.0
C360 C 0.88753 0.96871 0.68642 0.0
C361 C 0.75284 0.99783 0.71077 0.0
O362 O 0.87005 0.87419 0.66793 0.0
O363 O 0.75157 0.88461 0.60765 0.0
O364 O 0.75829 0.90946 0.73816 0.0
O365 O 0.8268 0.95512 0.5874 0.0
O366 O 0.86735 0.95685 0.71405 0.0
O367 O 0.73723 0.97979 0.68341 0.0
O368 O 0.88084 0.95959 0.65207 0.0
O369 O 0.76744 0.97314 0.60243 0.0
O370 O 0.78521 0.98821 0.72471 0.0
O371 O 0.81327 0.86954 0.60307 0.0
O372 O 0.83054 0.87322 0.71678 0.0
O373 O 0.72148 0.89612 0.68828 0.0
Sc374 Sc 0.68206 0.06654 0.22382 0.0
Sc375 Sc 0.74673 0.06391 0.14975 0.0
Sc376 Sc 0.65212 0.08634 0.13216 0.0
O377 O 0.69384 0.07132 0.16859 0.0
C378 C 0.6095 0.02911 0.18373 0.0
C379 C 0.74008 0.00085 0.21625 0.0
C380 C 0.69679 0.02432 0.08653 0.0
C381 C 0.7647 0.10282 0.22689 0.0
C382 C 0.63983 0.14086 0.1984 0.0
C383 C 0.71886 0.13748 0.10367 0.0
O384 O 0.62622 0.04243 0.21304 0.0
O385 O 0.75672 0.01908 0.1897 0.0
O386 O 0.67568 0.0536 0.08525 0.0
O387 O 0.73519 0.08827 0.24136 0.0
O388 O 0.62275 0.12093 0.17382 0.0
O389 O 0.74297 0.11075 0.10884 0.0
O390 O 0.66406 0.12525 0.22021 0.0
O391 O 0.77195 0.10243 0.19124 0.0
O392 O 0.68461 0.13533 0.1151 0.0
O393 O 0.70682 0.00973 0.22829 0.0
O394 O 0.61872 0.03804 0.14977 0.0
O395 O 0.72345 0.02183 0.111 0.0
Sc396 Sc 0.31057 0.56327 0.28817 0.0
Sc397 Sc 0.24187 0.56006 0.36142 0.0
Sc398 Sc 0.33856 0.57553 0.38353 0.0
O399 O 0.29694 0.56588 0.3443 0.0
C400 C 0.38442 0.52461 0.32399 0.0
C401 C 0.24864 0.49807 0.29432 0.0
C402 C 0.28957 0.51096 0.4233 0.0
C403 C 0.22889 0.60326 0.2832 0.0
C404 C 0.35536 0.63637 0.31936 0.0
C405 C 0.27047 0.6275 0.41498 0.0
O406 O 0.3626 0.53259 0.29645 0.0
O407 O 0.23305 0.51376 0.32305 0.0
O408 O 0.32048 0.52896 0.41843 0.0
O409 O 0.26059 0.59226 0.27015 0.0
O410 O 0.35884 0.62323 0.35275 0.0
O411 O 0.24392 0.6086 0.39927 0.0
O412 O 0.33928 0.61811 0.29228 0.0
O413 O 0.21828 0.59721 0.31742 0.0
O414 O 0.30516 0.61765 0.41286 0.0
O415 O 0.28029 0.50952 0.28045 0.0
O416 O 0.37894 0.53668 0.35767 0.0
O417 O 0.25872 0.51921 0.40577 0.0
Sc418 Sc 0.1603 0.42285 0.88543 0.0
Sc419 Sc 0.25648 0.4363 0.86024 0.0
Sc420 Sc 0.18485 0.44602 0.79101 0.0
O421 O 0.20061 0.43545 0.84555 0.0
C422 C 0.13522 0.37299 0.81587 0.0
C423 C 0.22783 0.36567 0.9094 0.0
C424 C 0.25919 0.3988 0.77597 0.0
C425 C 0.2135 0.48076 0.92862 0.0
C426 C 0.11576 0.48391 0.83358 0.0
C427 C 0.25584 0.50447 0.80086 0.0
O428 O 0.13757 0.37876 0.85133 0.0
O429 O 0.25352 0.38333 0.89111 0.0
O430 O 0.22622 0.41001 0.76755 0.0
O431 O 0.18109 0.46619 0.92235 0.0
O432 O 0.1394 0.48309 0.80636 0.0
O433 O 0.26776 0.48867 0.83108 0.0
O434 O 0.11946 0.46392 0.86362 0.0
O435 O 0.24374 0.47115 0.91064 0.0
O436 O 0.22473 0.49448 0.78437 0.0
O437 O 0.19388 0.37808 0.91171 0.0
O438 O 0.14794 0.39599 0.79071 0.0
O439 O 0.27425 0.40415 0.80885 0.0
Sc440 Sc 0.6156 0.8437 0.93213 0.0
Sc441 Sc 0.64961 0.74978 0.94146 0.0
Sc442 Sc 0.71316 0.82515 0.94588 0.0
O443 O 0.65912 0.80633 0.94063 0.0
C444 C 0.67832 0.86649 0.87173 0.0
C445 C 0.589 0.77495 0.87882 0.0
C446 C 0.72692 0.75071 0.89797 0.0
C447 C 0.5844 0.7865 0.99447 0.0
C448 C 0.66979 0.89394 0.9856 0.0
C449 C 0.71455 0.7589 0.00563 0.0
O450 O 0.64482 0.86976 0.8851 0.0
O451 O 0.60991 0.75085 0.89552 0.0
O452 O 0.73738 0.77834 0.91816 0.0
O453 O 0.58412 0.81834 0.97731 0.0
O454 O 0.69945 0.87641 0.97531 0.0
O455 O 0.69051 0.74052 0.98587 0.0
O456 O 0.6369 0.88398 0.97425 0.0
O457 O 0.60594 0.75854 0.98523 0.0
O458 O 0.7229 0.79392 0.99925 0.0
O459 O 0.5868 0.80943 0.88945 0.0
O460 O 0.7061 0.85198 0.89034 0.0
O461 O 0.69286 0.73841 0.89835 0.0
Sc462 Sc 0.22049 0.68514 0.0643 0.0
Sc463 Sc 0.15111 0.75263 0.04472 0.0
Sc464 Sc 0.12398 0.6605 0.07025 0.0
O465 O 0.16525 0.69898 0.05904 0.0
C466 C 0.18761 0.61147 0.02516 0.0
C467 C 0.21875 0.74021 0.98924 0.0
C468 C 0.08642 0.70338 0.00262 0.0
C469 C 0.2254 0.76684 0.09507 0.0
C470 C 0.18184 0.64355 0.13633 0.0
C471 C 0.09575 0.73658 0.11273 0.0
O472 O 0.21397 0.63591 0.02895 0.0
O473 O 0.1839 0.74955 0.9933 0.0
O474 O 0.09579 0.67208 0.01781 0.0
O475 O 0.23154 0.73191 0.10071 0.0
O476 O 0.14814 0.64589 0.12391 0.0
O477 O 0.12047 0.75776 0.09701 0.0
O478 O 0.211 0.65299 0.11678 0.0
O479 O 0.19964 0.77879 0.07267 0.0
O480 O 0.08947 0.70243 0.1016 0.0
O481 O 0.23608 0.71939 0.01377 0.0
O482 O 0.1547 0.61504 0.0404 0.0
O483 O 0.10035 0.73526 0.01299 0.0
Sc484 Sc 0.28369 0.30636 0.55654 0.0
Sc485 Sc 0.35665 0.24203 0.55031 0.0
Sc486 Sc 0.37702 0.33491 0.57241 0.0
O487 O 0.33916 0.29466 0.55942 0.0
C488 C 0.31615 0.37842 0.51856 0.0
C489 C 0.29609 0.24199 0.49132 0.0
C490 C 0.41921 0.29374 0.50793 0.0
C491 C 0.27617 0.23006 0.59516 0.0
C492 C 0.31322 0.34869 0.63039 0.0
C493 C 0.40677 0.26305 0.61946 0.0
O494 O 0.29428 0.34982 0.51487 0.0
O495 O 0.33168 0.24368 0.49532 0.0
O496 O 0.40658 0.32501 0.52065 0.0
O497 O 0.27067 0.26536 0.59854 0.0
O498 O 0.34829 0.34381 0.62433 0.0
O499 O 0.3818 0.24096 0.60554 0.0
O500 O 0.28799 0.34658 0.60412 0.0
O501 O 0.30415 0.21668 0.57587 0.0
O502 O 0.414 0.29557 0.60467 0.0
O503 O 0.27374 0.26229 0.51198 0.0
O504 O 0.3439 0.37913 0.54228 0.0
O505 O 0.40928 0.26135 0.52157 0.0
Sc506 Sc 0.87935 0.15544 0.4293 0.0
Sc507 Sc 0.8478 0.24967 0.44206 0.0
Sc508 Sc 0.78363 0.17557 0.45172 0.0
O509 O 0.83736 0.19328 0.44174 0.0
C510 C 0.81218 0.13341 0.3749 0.0
C511 C 0.90304 0.22541 0.37532 0.0
C512 C 0.76737 0.24934 0.40337 0.0
C513 C 0.91566 0.2111 0.49063 0.0
C514 C 0.82903 0.10535 0.48606 0.0
C515 C 0.78781 0.24124 0.51076 0.0
O516 O 0.84651 0.12998 0.38543 0.0
O517 O 0.88637 0.25025 0.39519 0.0
O518 O 0.75749 0.22329 0.42604 0.0
O519 O 0.91475 0.17994 0.47226 0.0
O520 O 0.7993 0.1247 0.48051 0.0
O521 O 0.80935 0.25907 0.48792 0.0
O522 O 0.86105 0.11363 0.47131 0.0
O523 O 0.89362 0.23948 0.48373 0.0
O524 O 0.77963 0.20602 0.50614 0.0
O525 O 0.90292 0.1903 0.38402 0.0
O526 O 0.78599 0.1482 0.39563 0.0
O527 O 0.80188 0.26059 0.40098 0.0
C528 C 0.18768 0.44391 0.22129 0.0
C529 C 0.15805 0.43212 0.24674 0.0
C530 C 0.2008 0.44683 0.29969 0.0
C531 C 0.2253 0.46771 0.27552 0.0
N532 N 0.23827 0.48922 0.21084 0.0
N533 N 0.1346 0.43626 0.31187 0.0
C534 C 0.21807 0.46693 0.23551 0.0
C535 C 0.16412 0.43717 0.28653 0.0
N536 N 0.18819 0.43255 0.18409 0.0
N537 N 0.21169 0.43816 0.33598 0.0
H538 H 0.10615 0.43595 0.30343 0.0
H539 H 0.1383 0.44194 0.3408 0.0
H540 H 0.23896 0.44442 0.34606 0.0
H541 H 0.19508 0.42131 0.35397 0.0
H542 H 0.21126 0.43783 0.16614 0.0
H543 H 0.16848 0.41408 0.17214 0.0
H544 H 0.23023 0.4929 0.18248 0.0
H545 H 0.26129 0.50601 0.2186 0.0
C546 C 0.27701 0.5664 0.76859 0.0
C547 C 0.28482 0.5283 0.77981 0.0
C548 C 0.35022 0.53432 0.75407 0.0
C549 C 0.34222 0.57183 0.74238 0.0
N550 N 0.29756 0.62289 0.73354 0.0
N551 N 0.32819 0.4743 0.77737 0.0
C552 C 0.30537 0.58767 0.74814 0.0
C553 C 0.32128 0.51198 0.77104 0.0
N554 N 0.24328 0.58271 0.77908 0.0
N555 N 0.38636 0.5203 0.75025 0.0
H556 H 0.30967 0.45667 0.79162 0.0
H557 H 0.35095 0.45937 0.76562 0.0
H558 H 0.40726 0.53394 0.73429 0.0
H559 H 0.39638 0.49624 0.76439 0.0
H560 H 0.23679 0.61131 0.77511 0.0
H561 H 0.22237 0.56795 0.79416 0.0
H562 H 0.27067 0.63529 0.73364 0.0
H563 H 0.31781 0.63885 0.71873 0.0
C564 C 0.66749 0.05861 0.71354 0.0
C565 C 0.66021 0.06468 0.75295 0.0
C566 C 0.72038 0.03125 0.76719 0.0
C567 C 0.72871 0.02883 0.7275 0.0
N568 N 0.71632 0.05512 0.66532 0.0
N569 N 0.68851 0.06777 0.81604 0.0
C570 C 0.70455 0.04827 0.70173 0.0
C571 C 0.68926 0.0544 0.77955 0.0
N572 N 0.63873 0.05945 0.68736 0.0
N573 N 0.74036 0.01043 0.79323 0.0
H574 H 0.66842 0.0872 0.82574 0.0
H575 H 0.71081 0.06335 0.83515 0.0
H576 H 0.76371 0.99359 0.78646 0.0
H577 H 0.7319 0.0081 0.82162 0.0
H578 H 0.64305 0.05274 0.65874 0.0
H579 H 0.61008 0.0611 0.69491 0.0
H580 H 0.70027 0.07114 0.6461 0.0
H581 H 0.74376 0.04826 0.65619 0.0
C582 C 0.80763 0.95284 0.28673 0.0
C583 C 0.83531 0.93982 0.25937 0.0
C584 C 0.7877 0.95031 0.20944 0.0
C585 C 0.76408 0.97087 0.23452 0.0
N586 N 0.75445 0.99544 0.29813 0.0
N587 N 0.85332 0.9444 0.19253 0.0
C588 C 0.77454 0.9729 0.27363 0.0
C589 C 0.82578 0.94336 0.22001 0.0
N590 N 0.81169 0.9463 0.3249 0.0
N591 N 0.77485 0.9407 0.17405 0.0
H592 H 0.88216 0.94729 0.19891 0.0
H593 H 0.84705 0.94894 0.16383 0.0
H594 H 0.74685 0.94612 0.16557 0.0
H595 H 0.79096 0.92427 0.15524 0.0
H596 H 0.78987 0.95153 0.34435 0.0
H597 H 0.83442 0.93248 0.33759 0.0
H598 H 0.76393 0.00206 0.32546 0.0
H599 H 0.72936 0.00929 0.29073 0.0
C600 C 0.25208 0.21632 0.4405 0.0
C601 C 0.28096 0.20977 0.46794 0.0
C602 C 0.28127 0.14137 0.45158 0.0
C603 C 0.25068 0.14757 0.42612 0.0
N604 N 0.20499 0.19016 0.39734 0.0
N605 N 0.31971 0.16416 0.5033 0.0
C606 C 0.23531 0.18479 0.42112 0.0
C607 C 0.29514 0.17192 0.47401 0.0
N608 N 0.24239 0.25289 0.43124 0.0
N609 N 0.2971 0.10587 0.45471 0.0
H610 H 0.33155 0.18433 0.52117 0.0
H611 H 0.32597 0.1368 0.51279 0.0
H612 H 0.28457 0.08131 0.44376 0.0
H613 H 0.32373 0.10081 0.46673 0.0
H614 H 0.22452 0.26012 0.40873 0.0
H615 H 0.25488 0.2766 0.44398 0.0
H616 H 0.18916 0.21516 0.39611 0.0
H617 H 0.19435 0.16884 0.37986 0.0
C618 C 0.23015 0.80717 0.90685 0.0
C619 C 0.26266 0.82782 0.91988 0.0
C620 C 0.27746 0.77435 0.9632 0.0
C621 C 0.24012 0.76021 0.95776 0.0
N622 N 0.1915 0.7497 0.91166 0.0
N623 N 0.31936 0.8291 0.95918 0.0
C624 C 0.21951 0.77273 0.92557 0.0
C625 C 0.28746 0.81039 0.94706 0.0
N626 N 0.2097 0.82026 0.87646 0.0
N627 N 0.30348 0.75285 0.98243 0.0
H628 H 0.32456 0.85776 0.95387 0.0
H629 H 0.33943 0.81757 0.9775 0.0
H630 H 0.29778 0.72503 0.99095 0.0
H631 H 0.33215 0.75986 0.98472 0.0
H632 H 0.18313 0.80986 0.86858 0.0
H633 H 0.21951 0.84179 0.85866 0.0
H634 H 0.17662 0.75469 0.88655 0.0
H635 H 0.18607 0.72307 0.92375 0.0
C636 C 0.73296 0.26876 0.55017 0.0
C637 C 0.77252 0.26529 0.54247 0.0
C638 C 0.78227 0.33033 0.56484 0.0
C639 C 0.74339 0.33352 0.57557 0.0
N640 N 0.68565 0.2982 0.59052 0.0
N641 N 0.83545 0.2874 0.55845 0.0
C642 C 0.71973 0.3005 0.57195 0.0
C643 C 0.79727 0.29408 0.55607 0.0
N644 N 0.70763 0.2431 0.5358 0.0
N645 N 0.80445 0.36187 0.5598 0.0
H646 H 0.84705 0.26076 0.55235 0.0
H647 H 0.85438 0.30698 0.57027 0.0
H648 H 0.79361 0.38948 0.56027 0.0
H649 H 0.8323 0.36032 0.54958 0.0
H650 H 0.67826 0.24732 0.53698 0.0
H651 H 0.71574 0.21881 0.52096 0.0
H652 H 0.66938 0.27339 0.59105 0.0
H653 H 0.67596 0.31886 0.60935 0.0
C654 C 0.7361 0.69384 0.08927 0.0
C655 C 0.75992 0.66688 0.0703 0.0
C656 C 0.766 0.71178 0.0168 0.0
C657 C 0.73696 0.73496 0.03258 0.0
N658 N 0.6928 0.74752 0.0832 0.0
N659 N 0.79356 0.64869 0.01308 0.0
C660 C 0.7218 0.72599 0.06885 0.0
C661 C 0.77426 0.67568 0.03343 0.0
N662 N 0.72814 0.68956 0.12713 0.0
N663 N 0.78524 0.72419 0.98534 0.0
H664 H 0.7985 0.62124 0.02322 0.0
H665 H 0.80123 0.65216 0.98462 0.0
H666 H 0.78011 0.75083 0.97328 0.0
H667 H 0.80877 0.71017 0.97396 0.0
H668 H 0.71414 0.71015 0.14323 0.0
H669 H 0.73877 0.66721 0.14347 0.0
H670 H 0.67706 0.73983 0.10716 0.0
H671 H 0.6834 0.77234 0.06979 0.0
C672 C 0.43307 0.29515 0.14613 0.0
C673 C 0.42557 0.25538 0.1449 0.0
C674 C 0.45941 0.24834 0.20584 0.0
C675 C 0.46292 0.28862 0.20898 0.0
N676 N 0.44164 0.35002 0.1868 0.0
N677 N 0.42091 0.19707 0.18142 0.0
C678 C 0.44578 0.31187 0.1807 0.0
C679 C 0.43546 0.23279 0.1771 0.0
N680 N 0.43051 0.31684 0.11392 0.0
N681 N 0.48039 0.22447 0.22828 0.0
H682 H 0.40103 0.18564 0.16276 0.0
H683 H 0.42486 0.181 0.2061 0.0
H684 H 0.49988 0.23368 0.24856 0.0
H685 H 0.48122 0.19514 0.22383 0.0
H686 H 0.43874 0.34534 0.11312 0.0
H687 H 0.42499 0.30541 0.08708 0.0
H688 H 0.42667 0.36769 0.1682 0.0
H689 H 0.4493 0.36291 0.21247 0.0
C690 C 0.93124 0.21477 0.84063 0.0
C691 C 0.92481 0.25425 0.84629 0.0
C692 C 0.95195 0.26551 0.78196 0.0
C693 C 0.95667 0.22552 0.77693 0.0
N694 N 0.92635 0.16619 0.79285 0.0
N695 N 0.91612 0.31492 0.81399 0.0
C696 C 0.93835 0.20141 0.80349 0.0
C697 C 0.93164 0.27928 0.81469 0.0
N698 N 0.93223 0.18979 0.87039 0.0
N699 N 0.96514 0.29047 0.7553 0.0
H700 H 0.89745 0.32489 0.83462 0.0
H701 H 0.91757 0.33277 0.79031 0.0
H702 H 0.97221 0.28235 0.72768 0.0
H703 H 0.96813 0.31949 0.76071 0.0
H704 H 0.93845 0.161 0.86648 0.0
H705 H 0.93225 0.1985 0.89878 0.0
H706 H 0.91134 0.14828 0.81123 0.0
H707 H 0.92663 0.15814 0.76423 0.0
C708 C 0.56968 0.78441 0.2875 0.0
C709 C 0.53566 0.7659 0.27644 0.0
C710 C 0.54249 0.72086 0.3294 0.0
C711 C 0.57624 0.74 0.34111 0.0
N712 N 0.62916 0.77968 0.32174 0.0
N713 N 0.49598 0.7098 0.27942 0.0
C714 C 0.59207 0.76879 0.31735 0.0
C715 C 0.52465 0.73139 0.29448 0.0
N716 N 0.58043 0.8172 0.26962 0.0
N717 N 0.52604 0.69437 0.35273 0.0
H718 H 0.48119 0.71712 0.25483 0.0
H719 H 0.48891 0.6827 0.28902 0.0
H720 H 0.53329 0.69095 0.3813 0.0
H721 H 0.50292 0.67772 0.34518 0.0
H722 H 0.60215 0.83477 0.27955 0.0
H723 H 0.56631 0.82744 0.2456 0.0
H724 H 0.64302 0.79808 0.30305 0.0
H725 H 0.64754 0.76683 0.34114 0.0
C726 C 0.05973 0.76811 0.68127 0.0
C727 C 0.06834 0.74593 0.64841 0.0
C728 C 0.04853 0.68912 0.68363 0.0
C729 C 0.03245 0.71196 0.71274 0.0
N730 N 0.01612 0.77596 0.73364 0.0
N731 N 0.06015 0.68547 0.61617 0.0
C732 C 0.03629 0.75228 0.71029 0.0
C733 C 0.05983 0.70637 0.64898 0.0
N734 N 0.07486 0.80357 0.68592 0.0
N735 N 0.05279 0.65086 0.68891 0.0
H736 H 0.06413 0.69758 0.58934 0.0
H737 H 0.05138 0.65713 0.61525 0.0
H738 H 0.04625 0.63757 0.71472 0.0
H739 H 0.06686 0.63352 0.66933 0.0
H740 H 0.07185 0.81899 0.71112 0.0
H741 H 0.0941 0.81557 0.66691 0.0
H742 H 0.01556 0.80538 0.72969 0.0
H743 H 0.99699 0.76666 0.75421 0.0
C744 C 0.813 0.5377 0.78862 0.0
C745 C 0.83005 0.56727 0.76679 0.0
C746 C 0.77883 0.56223 0.71935 0.0
C747 C 0.76508 0.5291 0.73774 0.0
N748 N 0.76397 0.48915 0.79401 0.0
N749 N 0.81751 0.61899 0.7235 0.0
C750 C 0.77973 0.51888 0.77435 0.0
C751 C 0.80951 0.58291 0.73561 0.0
N752 N 0.82852 0.5275 0.82284 0.0
N753 N 0.76279 0.57355 0.6858 0.0
H754 H 0.8368 0.63637 0.73776 0.0
H755 H 0.80173 0.63343 0.70297 0.0
H756 H 0.73784 0.56129 0.67551 0.0
H757 H 0.77467 0.59403 0.66793 0.0
H758 H 0.81406 0.51221 0.84367 0.0
H759 H 0.85576 0.53522 0.83144 0.0
H760 H 0.77537 0.47726 0.81857 0.0
H761 H 0.73889 0.47566 0.78617 0.0
C762 C 0.68335 0.46168 0.28597 0.0
C763 C 0.66643 0.43251 0.26347 0.0
C764 C 0.71675 0.43996 0.21532 0.0
C765 C 0.73058 0.47235 0.23488 0.0
N766 N 0.73261 0.51001 0.2925 0.0
N767 N 0.67906 0.38248 0.21821 0.0
C768 C 0.71647 0.48107 0.27203 0.0
C769 C 0.68673 0.41821 0.23146 0.0
N770 N 0.66759 0.47134 0.32024 0.0
N771 N 0.7319 0.43049 0.18075 0.0
H772 H 0.66013 0.36428 0.232 0.0
H773 H 0.69487 0.36905 0.19703 0.0
H774 H 0.75604 0.44387 0.16976 0.0
H775 H 0.71974 0.41053 0.1625 0.0
H776 H 0.68167 0.4865 0.34137 0.0
H777 H 0.64012 0.46393 0.32838 0.0
H778 H 0.72259 0.52006 0.31842 0.0
H779 H 0.75692 0.52455 0.28405 0.0
C780 C 0.31804 0.90606 0.26873 0.0
C781 C 0.33858 0.92131 0.23711 0.0
C782 C 0.28384 0.9629 0.22432 0.0
C783 C 0.27045 0.95662 0.26194 0.0
N784 N 0.26937 0.91578 0.31685 0.0
N785 N 0.33944 0.9655 0.18393 0.0
C786 C 0.28584 0.92596 0.2831 0.0
C787 C 0.32078 0.94968 0.2142 0.0
N788 N 0.32774 0.87143 0.28344 0.0
N789 N 0.26114 0.98037 0.19804 0.0
H790 H 0.36793 0.96026 0.17771 0.0
H791 H 0.32797 0.98739 0.16756 0.0
H792 H 0.23249 0.98603 0.20316 0.0
H793 H 0.26869 0.9834 0.1695 0.0
H794 H 0.31205 0.85744 0.30436 0.0
H795 H 0.34868 0.85442 0.27131 0.0
H796 H 0.28203 0.89739 0.33638 0.0
H797 H 0.24309 0.92671 0.32544 0.0
C798 C 0.19255 0.05521 0.80315 0.0
C799 C 0.21827 0.03663 0.77827 0.0
C800 C 0.18333 0.06501 0.7245 0.0
C801 C 0.15296 0.0753 0.74934 0.0
N802 N 0.12637 0.0694 0.81294 0.0
N803 N 0.23329 0.01942 0.71279 0.0
C804 C 0.15697 0.06766 0.78897 0.0
C805 C 0.21271 0.0405 0.73815 0.0
N806 N 0.20172 0.06017 0.84061 0.0
N807 N 0.18522 0.07945 0.68844 0.0
H808 H 0.25443 0.00023 0.7205 0.0
H809 H 0.22674 0.01859 0.68382 0.0
H810 H 0.16598 0.09944 0.67805 0.0
H811 H 0.20862 0.07507 0.67068 0.0
H812 H 0.1847 0.07579 0.85928 0.0
H813 H 0.22828 0.0524 0.85153 0.0
H814 H 0.128 0.06137 0.84151 0.0
H815 H 0.09858 0.07354 0.8034 0.0
C816 C 0.78075 0.82189 0.53769 0.0
C817 C 0.76809 0.82743 0.57569 0.0
C818 C 0.73041 0.76845 0.57202 0.0
C819 C 0.74219 0.76382 0.53378 0.0
N820 N 0.78781 0.77808 0.48479 0.0
N821 N 0.7394 0.80118 0.63237 0.0
C822 C 0.77058 0.78792 0.51824 0.0
C823 C 0.7455 0.79914 0.59396 0.0
N824 N 0.80053 0.84997 0.51935 0.0
N825 N 0.70427 0.74388 0.58692 0.0
H826 H 0.75077 0.82278 0.64927 0.0
H827 H 0.72593 0.77995 0.64806 0.0
H828 H 0.69549 0.71959 0.57223 0.0
H829 H 0.69079 0.74792 0.61302 0.0
H830 H 0.8067 0.84933 0.49034 0.0
H831 H 0.80812 0.87556 0.53231 0.0
H832 H 0.8108 0.79276 0.47317 0.0
H833 H 0.78185 0.75248 0.47106 0.0
C834 C 0.72394 0.21804 0.03035 0.0
C835 C 0.75952 0.23475 0.04041 0.0
C836 C 0.76169 0.19475 0.09792 0.0
C837 C 0.73112 0.17267 0.08331 0.0
N838 N 0.68182 0.16351 0.03633 0.0
N839 N 0.80738 0.24577 0.08755 0.0
C840 C 0.71132 0.18488 0.05018 0.0
C841 C 0.77679 0.22512 0.07557 0.0
N842 N 0.70243 0.23333 0.00169 0.0
N843 N 0.77508 0.18757 0.1338 0.0
H844 H 0.81491 0.27121 0.07418 0.0
H845 H 0.82475 0.23828 0.11034 0.0
H846 H 0.76341 0.16668 0.15135 0.0
H847 H 0.79558 0.20388 0.14755 0.0
H848 H 0.6747 0.22497 0.99559 0.0
H849 H 0.71031 0.25701 0.98586 0.0
H850 H 0.66683 0.16977 0.01165 0.0
H851 H 0.67345 0.13758 0.04801 0.0
C852 C 0.22586 0.72524 0.43299 0.0
C853 C 0.24039 0.73388 0.46962 0.0
C854 C 0.27805 0.67501 0.46875 0.0
C855 C 0.26125 0.66483 0.43337 0.0
N856 N 0.23157 0.6876 0.37555 0.0
N857 N 0.29271 0.7256 0.51354 0.0
C858 C 0.23875 0.69213 0.41353 0.0
C859 C 0.27082 0.71174 0.48453 0.0
N860 N 0.19944 0.74886 0.41702 0.0
N861 N 0.29957 0.64906 0.48815 0.0
H862 H 0.28985 0.75302 0.52424 0.0
H863 H 0.31715 0.71218 0.52353 0.0
H864 H 0.30199 0.6206 0.48019 0.0
H865 H 0.31275 0.65469 0.51392 0.0
H866 H 0.18353 0.74188 0.39298 0.0
H867 H 0.193 0.77535 0.42884 0.0
H868 H 0.21849 0.70829 0.35883 0.0
H869 H 0.24244 0.66503 0.3597 0.0
C870 C 0.27431 0.26808 0.92554 0.0
C871 C 0.25992 0.25838 0.96199 0.0
C872 C 0.223 0.31737 0.9632 0.0
C873 C 0.23746 0.32785 0.92686 0.0
N874 N 0.26558 0.30527 0.86807 0.0
N875 N 0.20469 0.2639 0.00207 0.0
C876 C 0.25984 0.30083 0.90629 0.0
C877 C 0.22922 0.27984 0.97674 0.0
N878 N 0.30154 0.24569 0.90927 0.0
N879 N 0.205 0.34328 0.9859 0.0
H880 H 0.205 0.23474 0.0073 0.0
H881 H 0.1805 0.27802 0.01192 0.0
H882 H 0.20225 0.37193 0.97876 0.0
H883 H 0.19683 0.33698 0.01379 0.0
H884 H 0.31684 0.25357 0.88507 0.0
H885 H 0.3092 0.21945 0.92096 0.0
H886 H 0.27889 0.2849 0.85114 0.0
H887 H 0.25309 0.32718 0.85248 0.0
C888 C 0.55098 0.75456 0.77867 0.0
C889 C 0.52563 0.72398 0.78635 0.0
C890 C 0.54063 0.72871 0.85486 0.0
C891 C 0.56447 0.76044 0.84736 0.0
N892 N 0.58943 0.80666 0.80299 0.0
N893 N 0.49231 0.68518 0.83325 0.0
C894 C 0.56852 0.77449 0.80954 0.0
C895 C 0.51984 0.71149 0.82476 0.0
N896 N 0.56009 0.76301 0.74172 0.0
N897 N 0.53753 0.71507 0.89128 0.0
H898 H 0.47519 0.67178 0.81332 0.0
H899 H 0.48316 0.67904 0.86076 0.0
H900 H 0.54685 0.73013 0.91507 0.0
H901 H 0.52709 0.68816 0.898 0.0
H902 H 0.58127 0.78215 0.73386 0.0
H903 H 0.54887 0.7482 0.71855 0.0
H904 H 0.59005 0.82089 0.77699 0.0
H905 H 0.60438 0.82089 0.82425 0.0
C906 C 0.03931 0.74711 0.20587 0.0
C907 C 0.0353 0.78752 0.20818 0.0
C908 C 0.06467 0.79267 0.14518 0.0
C909 C 0.07374 0.75323 0.14531 0.0
N910 N 0.07986 0.69625 0.18384 0.0
N911 N 0.0569 0.84839 0.18444 0.0
C912 C 0.06428 0.73136 0.17809 0.0
C913 C 0.05238 0.81016 0.17937 0.0
N914 N 0.01779 0.72321 0.22775 0.0
N915 N 0.06543 0.81327 0.11217 0.0
H916 H 0.05006 0.86192 0.20999 0.0
H917 H 0.07159 0.86543 0.16503 0.0
H918 H 0.07 0.80094 0.08554 0.0
H919 H 0.05636 0.8415 0.11081 0.0
H920 H 0.01796 0.69379 0.22385 0.0
H921 H 0.99657 0.73221 0.2463 0.0
H922 H 0.07581 0.68097 0.20902 0.0
H923 H 0.10044 0.68463 0.16599 0.0
C924 C 0.44577 0.19195 0.68952 0.0
C925 C 0.46114 0.2144 0.71929 0.0
C926 C 0.43406 0.27073 0.68678 0.0
C927 C 0.42853 0.24851 0.65317 0.0
N928 N 0.43916 0.18815 0.62162 0.0
N929 N 0.46295 0.27627 0.74938 0.0
C930 C 0.43749 0.2092 0.65427 0.0
C931 C 0.45338 0.25428 0.71885 0.0
N932 N 0.43741 0.15447 0.6952 0.0
N933 N 0.41882 0.30641 0.68925 0.0
H934 H 0.46865 0.26478 0.77615 0.0
H935 H 0.46427 0.30587 0.74822 0.0
H936 H 0.40357 0.3191 0.66728 0.0
H937 H 0.41832 0.32226 0.7143 0.0
H938 H 0.42421 0.13782 0.67444 0.0
H939 H 0.43841 0.14207 0.72219 0.0
H940 H 0.44788 0.15975 0.62156 0.0
H941 H 0.43653 0.2002 0.59457 0.0
C942 C 0.96281 0.22832 0.33622 0.0
C943 C 0.92418 0.23859 0.341 0.0
C944 C 0.92862 0.28057 0.28486 0.0
C945 C 0.96687 0.26906 0.27964 0.0
N946 N 0.01617 0.22298 0.29344 0.0
N947 N 0.86771 0.2681 0.31497 0.0
C948 C 0.98246 0.23984 0.30287 0.0
C949 C 0.90624 0.26287 0.31381 0.0
N950 N 0.98197 0.21036 0.36495 0.0
N951 N 0.91384 0.30852 0.26223 0.0
H952 H 0.85037 0.25528 0.33533 0.0
H953 H 0.85246 0.28238 0.29393 0.0
H954 H 0.92857 0.31934 0.23879 0.0
H955 H 0.88785 0.32179 0.26741 0.0
H956 H 0.01129 0.20681 0.36467 0.0
H957 H 0.96975 0.20311 0.39101 0.0
H958 H 0.02574 0.19824 0.30672 0.0
H959 H 0.03254 0.23091 0.27005 0.0
C960 C 0.16915 0.20032 0.27895 0.0
C961 C 0.14487 0.17688 0.30137 0.0
C962 C 0.10828 0.2336 0.31955 0.0
C963 C 0.12563 0.25368 0.28941 0.0
N964 N 0.17591 0.25928 0.24348 0.0
N965 N 0.09045 0.17141 0.34331 0.0
C966 C 0.15767 0.23811 0.2706 0.0
C967 C 0.11456 0.19374 0.32243 0.0
N968 N 0.20376 0.18721 0.26712 0.0
N969 N 0.08482 0.25238 0.34417 0.0
H970 H 0.09003 0.14181 0.3415 0.0
H971 H 0.06856 0.18192 0.36007 0.0
H972 H 0.08039 0.28165 0.34241 0.0
H973 H 0.07348 0.24006 0.36864 0.0
H974 H 0.2235 0.20405 0.25284 0.0
H975 H 0.21451 0.16078 0.27507 0.0
H976 H 0.19603 0.24826 0.22469 0.0
H977 H 0.16936 0.28794 0.239 0.0
C978 C 0.33201 0.80007 0.78779 0.0
C979 C 0.36021 0.82911 0.78977 0.0
C980 C 0.40935 0.78056 0.79467 0.0
C981 C 0.38262 0.75234 0.7844 0.0
N982 N 0.31801 0.73456 0.77091 0.0
N983 N 0.42651 0.84686 0.78958 0.0
C984 C 0.34363 0.7619 0.78118 0.0
C985 C 0.39918 0.81927 0.79167 0.0
N986 N 0.29455 0.80849 0.79393 0.0
N987 N 0.44434 0.77023 0.80759 0.0
H988 H 0.41989 0.87552 0.78557 0.0
H989 H 0.4555 0.84081 0.78766 0.0
H990 H 0.45056 0.74193 0.81316 0.0
H991 H 0.46446 0.78953 0.81774 0.0
H992 H 0.27369 0.78766 0.79706 0.0
H993 H 0.28478 0.83596 0.79939 0.0
H994 H 0.28978 0.74045 0.764 0.0
H995 H 0.32577 0.70601 0.76801 0.0
C996 C 0.65856 0.29123 0.69198 0.0
C997 C 0.62934 0.31918 0.69058 0.0
C998 C 0.58135 0.26908 0.6886 0.0
C999 C 0.60971 0.2425 0.69905 0.0
N1000 N 0.67533 0.22585 0.70697 0.0
N1001 N 0.56273 0.33545 0.68666 0.0
C1002 C 0.6485 0.25279 0.69889 0.0
C1003 C 0.5906 0.30831 0.68804 0.0
N1004 N 0.6956 0.30128 0.68565 0.0
N1005 N 0.54559 0.25662 0.67988 0.0
H1006 H 0.56865 0.36455 0.68634 0.0
H1007 H 0.53381 0.32933 0.68873 0.0
H1008 H 0.53873 0.22777 0.6792 0.0
H1009 H 0.52419 0.27422 0.66935 0.0
H1010 H 0.71741 0.28154 0.68204 0.0
H1011 H 0.7041 0.32928 0.68061 0.0
H1012 H 0.70396 0.23197 0.7116 0.0
H1013 H 0.6682 0.19716 0.7102 0.0
C1014 C 0.83849 0.70847 0.19687 0.0
C1015 C 0.86757 0.68132 0.18932 0.0
C1016 C 0.91302 0.73335 0.18159 0.0
C1017 C 0.88648 0.75837 0.19849 0.0
N1018 N 0.82354 0.77095 0.22189 0.0
N1019 N 0.93354 0.66799 0.17495 0.0
C1020 C 0.8488 0.7465 0.20532 0.0
C1021 C 0.90511 0.69381 0.18107 0.0
N1022 N 0.80107 0.69849 0.1943 0.0
N1023 N 0.94642 0.74763 0.16775 0.0
H1024 H 0.92905 0.63869 0.17582 0.0
H1025 H 0.96211 0.67546 0.17233 0.0
H1026 H 0.95229 0.77677 0.16839 0.0
H1027 H 0.96617 0.73147 0.15264 0.0
H1028 H 0.7793 0.71862 0.19461 0.0
H1029 H 0.79213 0.67102 0.18759 0.0
H1030 H 0.797 0.7624 0.23208 0.0
H1031 H 0.83018 0.7995 0.22682 0.0
C1032 C 0.32825 0.08084 0.22474 0.0
C1033 C 0.30721 0.10686 0.24727 0.0
C1034 C 0.31265 0.15555 0.19817 0.0
C1035 C 0.32575 0.12705 0.17259 0.0
N1036 N 0.35672 0.06667 0.16294 0.0
N1037 N 0.29397 0.17145 0.26314 0.0
C1038 C 0.33758 0.09103 0.18653 0.0
C1039 C 0.30421 0.14526 0.23633 0.0
N1040 N 0.33818 0.04639 0.2398 0.0
N1041 N 0.30817 0.19214 0.18574 0.0
H1042 H 0.28855 0.1635 0.29133 0.0
H1043 H 0.29362 0.2007 0.25861 0.0
H1044 H 0.31819 0.20128 0.15933 0.0
H1045 H 0.2949 0.2135 0.20137 0.0
H1046 H 0.3545 0.02614 0.22585 0.0
H1047 H 0.33217 0.03888 0.26786 0.0
H1048 H 0.36827 0.04082 0.17138 0.0
H1049 H 0.36242 0.07294 0.13446 0.0
C1050 C 0.17824 0.9182 0.72682 0.0
C1051 C 0.1932 0.89015 0.75163 0.0
C1052 C 0.18126 0.84171 0.70337 0.0
C1053 C 0.1764 0.87103 0.67593 0.0
N1054 N 0.16693 0.93738 0.66135 0.0
N1055 N 0.206 0.82453 0.76548 0.0
C1056 C 0.17322 0.90941 0.68767 0.0
C1057 C 0.19295 0.85149 0.7408 0.0
N1058 N 0.16986 0.95336 0.74101 0.0
N1059 N 0.17404 0.80474 0.69386 0.0
H1060 H 0.21288 0.8311 0.79357 0.0
H1061 H 0.21116 0.79639 0.75769 0.0
H1062 H 0.16605 0.79641 0.66647 0.0
H1063 H 0.17267 0.78293 0.71394 0.0
H1064 H 0.15637 0.97461 0.72533 0.0
H1065 H 0.17316 0.95958 0.76991 0.0
H1066 H 0.16816 0.9663 0.66767 0.0
H1067 H 0.16259 0.93161 0.63251 0.0
C1068 C 0.78793 0.34399 0.76549 0.0
C1069 C 0.79288 0.38132 0.75196 0.0
C1070 C 0.82141 0.40075 0.81232 0.0
C1071 C 0.81092 0.36486 0.82755 0.0
N1072 N 0.80398 0.29802 0.8138 0.0
N1073 N 0.82721 0.44028 0.75549 0.0
C1074 C 0.80011 0.335 0.80273 0.0
C1075 C 0.81453 0.40797 0.77302 0.0
N1076 N 0.77045 0.31762 0.74303 0.0
N1077 N 0.83666 0.42795 0.83557 0.0
H1078 H 0.82219 0.44566 0.72671 0.0
H1079 H 0.84513 0.46012 0.76815 0.0
H1080 H 0.83975 0.42439 0.86489 0.0
H1081 H 0.84557 0.4545 0.82627 0.0
H1082 H 0.76145 0.29115 0.753 0.0
H1083 H 0.76457 0.32317 0.71443 0.0
H1084 H 0.80264 0.27577 0.7943 0.0
H1085 H 0.81354 0.29012 0.84083 0.0
C1086 C 0.68223 0.59241 0.27006 0.0
C1087 C 0.70275 0.62035 0.24957 0.0
C1088 C 0.69892 0.66306 0.30416 0.0
C1089 C 0.68927 0.63145 0.32764 0.0
N1090 N 0.66249 0.56835 0.33203 0.0
N1091 N 0.72411 0.68452 0.24349 0.0
C1092 C 0.67741 0.59689 0.3102 0.0
C1093 C 0.70858 0.65663 0.26548 0.0
N1094 N 0.66937 0.56103 0.25107 0.0
N1095 N 0.69623 0.69927 0.31809 0.0
H1096 H 0.72739 0.68077 0.21419 0.0
H1097 H 0.73393 0.71035 0.25422 0.0
H1098 H 0.68674 0.7052 0.3456 0.0
H1099 H 0.69985 0.7235 0.30138 0.0
H1100 H 0.6534 0.53933 0.26325 0.0
H1101 H 0.67276 0.55809 0.22168 0.0
H1102 H 0.65032 0.54382 0.32108 0.0
H1103 H 0.66255 0.5688 0.36171 0.0
C1104 C 0.20176 0.2547 0.09386 0.0
C1105 C 0.23693 0.2724 0.10392 0.0
C1106 C 0.20171 0.31811 0.14293 0.0
C1107 C 0.16687 0.30356 0.12827 0.0
N1108 N 0.13493 0.26432 0.08187 0.0
N1109 N 0.26991 0.32437 0.13445 0.0
C1110 C 0.16731 0.27386 0.10128 0.0
C1111 C 0.23673 0.30563 0.12681 0.0
N1112 N 0.20048 0.21914 0.07816 0.0
N1113 N 0.20166 0.3411 0.1743 0.0
H1114 H 0.2964 0.31483 0.12502 0.0
H1115 H 0.27067 0.35082 0.14784 0.0
H1116 H 0.17691 0.34827 0.18901 0.0
H1117 H 0.22642 0.34953 0.18828 0.0
H1118 H 0.17526 0.20367 0.07577 0.0
H1119 H 0.22409 0.20391 0.06914 0.0
H1120 H 0.13477 0.24517 0.05919 0.0
H1121 H 0.10913 0.27845 0.08561 0.0
C1122 C 0.73662 0.21026 0.8502 0.0
C1123 C 0.74598 0.20565 0.88876 0.0
C1124 C 0.68455 0.1753 0.90109 0.0
C1125 C 0.67245 0.18716 0.86424 0.0
N1126 N 0.68798 0.21139 0.80164 0.0
N1127 N 0.73588 0.17314 0.94791 0.0
C1128 C 0.6989 0.20305 0.83802 0.0
C1129 C 0.7222 0.1843 0.91323 0.0
N1130 N 0.76488 0.21915 0.82514 0.0
N1131 N 0.65956 0.15691 0.92466 0.0
H1132 H 0.76354 0.17925 0.95675 0.0
H1133 H 0.72126 0.15605 0.96708 0.0
H1134 H 0.631 0.1526 0.91784 0.0
H1135 H 0.66654 0.14571 0.95109 0.0
H1136 H 0.76138 0.21961 0.7957 0.0
H1137 H 0.79309 0.2217 0.83421 0.0
H1138 H 0.70423 0.22788 0.78313 0.0
H1139 H 0.662 0.2028 0.79032 0.0
C1140 C 0.76585 0.81234 0.3688 0.0
C1141 C 0.76107 0.77267 0.3749 0.0
C1142 C 0.82913 0.76306 0.36619 0.0
C1143 C 0.83417 0.80182 0.35709 0.0
N1144 N 0.80234 0.85829 0.33313 0.0
N1145 N 0.78649 0.71069 0.35783 0.0
C1146 C 0.80115 0.82534 0.35357 0.0
C1147 C 0.79213 0.74822 0.36583 0.0
N1148 N 0.73789 0.83781 0.37753 0.0
N1149 N 0.85893 0.74055 0.37701 0.0
H1150 H 0.75935 0.69914 0.35553 0.0
H1151 H 0.8086 0.69275 0.34931 0.0
H1152 H 0.88614 0.75123 0.38219 0.0
H1153 H 0.85509 0.71241 0.38576 0.0
H1154 H 0.74259 0.86712 0.37697 0.0
H1155 H 0.71092 0.83008 0.38685 0.0
H1156 H 0.77798 0.87428 0.32739 0.0
H1157 H 0.82608 0.86637 0.31731 0.0
C1158 C 0.31177 0.73008 0.65121 0.0
C1159 C 0.33081 0.70202 0.62895 0.0
C1160 C 0.26921 0.68467 0.59939 0.0
C1161 C 0.25182 0.71485 0.61962 0.0
N1162 N 0.25128 0.75008 0.67767 0.0
N1163 N 0.32651 0.64861 0.5857 0.0
C1164 C 0.27159 0.73188 0.65005 0.0
C1165 C 0.30902 0.67794 0.60432 0.0
N1166 N 0.33146 0.75582 0.67268 0.0
N1167 N 0.24786 0.66281 0.57539 0.0
H1168 H 0.35598 0.64699 0.58234 0.0
H1169 H 0.31201 0.62564 0.57392 0.0
H1170 H 0.21823 0.66265 0.57629 0.0
H1171 H 0.25901 0.64329 0.55616 0.0
H1172 H 0.31839 0.77833 0.6869 0.0
H1173 H 0.36088 0.75808 0.6729 0.0
H1174 H 0.26333 0.76125 0.70237 0.0
H1175 H 0.2216 0.74955 0.67739 0.0
C1176 C 0.87358 0.79086 0.66728 0.0
C1177 C 0.85997 0.81392 0.69846 0.0
C1178 C 0.84903 0.75476 0.73369 0.0
C1179 C 0.87258 0.73482 0.70827 0.0
N1180 N 0.9083 0.7336 0.65026 0.0
N1181 N 0.84484 0.81439 0.76631 0.0
C1182 C 0.88466 0.75263 0.67453 0.0
C1183 C 0.84967 0.79497 0.73297 0.0
N1184 N 0.87496 0.80397 0.63069 0.0
N1185 N 0.82963 0.73532 0.7611 0.0
H1186 H 0.85228 0.84284 0.7698 0.0
H1187 H 0.83973 0.80058 0.79208 0.0
H1188 H 0.83063 0.70564 0.76265 0.0
H1189 H 0.81001 0.74855 0.77905 0.0
H1190 H 0.88143 0.78641 0.60765 0.0
H1191 H 0.8655 0.8304 0.62198 0.0
H1192 H 0.92234 0.74681 0.62765 0.0
H1193 H 0.91515 0.70495 0.6543 0.0
C1194 C 0.64491 0.20351 0.23385 0.0
C1195 C 0.63333 0.18323 0.20051 0.0
C1196 C 0.60962 0.24396 0.17416 0.0
C1197 C 0.6227 0.26295 0.20687 0.0
N1198 N 0.66613 0.26399 0.25924 0.0
N1199 N 0.6153 0.18979 0.13301 0.0
C1200 C 0.64629 0.2437 0.23278 0.0
C1201 C 0.61912 0.20498 0.16863 0.0
N1202 N 0.65039 0.18534 0.26786 0.0
N1203 N 0.58613 0.26267 0.14946 0.0
H1204 H 0.62162 0.16205 0.12553 0.0
H1205 H 0.60914 0.20639 0.10917 0.0
H1206 H 0.58043 0.29171 0.15225 0.0
H1207 H 0.57108 0.24901 0.12783 0.0
H1208 H 0.65677 0.19987 0.29294 0.0
H1209 H 0.6425 0.15719 0.27267 0.0
H1210 H 0.68553 0.25136 0.27787 0.0
H1211 H 0.66554 0.29373 0.2595 0.0
C1212 C 0.40649 0.73242 0.32517 0.0
C1213 C 0.38234 0.75417 0.30156 0.0
C1214 C 0.33625 0.70236 0.30035 0.0
C1215 C 0.36475 0.67728 0.31434 0.0
N1216 N 0.42368 0.67001 0.34924 0.0
N1217 N 0.32202 0.76324 0.27154 0.0
C1218 C 0.39876 0.6929 0.3301 0.0
C1219 C 0.34617 0.74031 0.2914 0.0
N1220 N 0.43835 0.74923 0.33978 0.0
N1221 N 0.29917 0.69095 0.29833 0.0
H1222 H 0.32791 0.79205 0.26799 0.0
H1223 H 0.29736 0.75358 0.25817 0.0
H1224 H 0.28991 0.66397 0.30643 0.0
H1225 H 0.27705 0.70998 0.29339 0.0
H1226 H 0.45872 0.73541 0.35616 0.0
H1227 H 0.44362 0.77826 0.33625 0.0
H1228 H 0.44401 0.6802 0.36809 0.0
H1229 H 0.42334 0.64043 0.34723 0.0
C1230 C 0.07659 0.28332 0.80589 0.0
C1231 C 0.10443 0.25744 0.79242 0.0
C1232 C 0.15333 0.30682 0.7977 0.0
C1233 C 0.1242 0.33409 0.8047 0.0
N1234 N 0.05789 0.34937 0.81235 0.0
N1235 N 0.16942 0.24267 0.77757 0.0
C1236 C 0.08576 0.32257 0.80831 0.0
C1237 C 0.14301 0.26865 0.7894 0.0
N1238 N 0.04144 0.27039 0.81633 0.0
N1239 N 0.19079 0.31724 0.79993 0.0
H1240 H 0.16282 0.21383 0.77469 0.0
H1241 H 0.19713 0.24959 0.76964 0.0
H1242 H 0.19958 0.345 0.80552 0.0
H1243 H 0.21332 0.29806 0.79866 0.0
H1244 H 0.02105 0.28739 0.82951 0.0
H1245 H 0.0342 0.24167 0.8159 0.0
H1246 H 0.02891 0.34323 0.81139 0.0
H1247 H 0.06387 0.3784 0.81287 0.0
C1248 C 0.67748 0.90901 0.81354 0.0
C1249 C 0.68297 0.8726 0.83009 0.0
C1250 C 0.70288 0.84689 0.76822 0.0
C1251 C 0.69997 0.8837 0.75242 0.0
N1252 N 0.67265 0.94613 0.75517 0.0
N1253 N 0.68498 0.8046 0.81963 0.0
C1254 C 0.68267 0.91339 0.77354 0.0
C1255 C 0.69058 0.8407 0.80627 0.0
N1256 N 0.66933 0.93958 0.83616 0.0
N1257 N 0.71946 0.81846 0.74758 0.0
H1258 H 0.67488 0.79904 0.84702 0.0
H1259 H 0.68695 0.78051 0.80245 0.0
H1260 H 0.72714 0.82218 0.71908 0.0
H1261 H 0.72696 0.79221 0.7592 0.0
H1262 H 0.66851 0.96749 0.82624 0.0
H1263 H 0.66574 0.9373 0.86558 0.0
H1264 H 0.65754 0.96818 0.76796 0.0
H1265 H 0.67647 0.94931 0.72583 0.0
C1266 C 0.78533 0.15251 0.27173 0.0
C1267 C 0.79203 0.11651 0.25531 0.0
C1268 C 0.81402 0.09161 0.31663 0.0
C1269 C 0.80528 0.1272 0.33368 0.0
N1270 N 0.79915 0.1951 0.32377 0.0
N1271 N 0.82386 0.05631 0.25777 0.0
C1272 C 0.796 0.15888 0.31012 0.0
C1273 C 0.81084 0.08781 0.27641 0.0
N1274 N 0.76682 0.17985 0.25121 0.0
N1275 N 0.82366 0.06121 0.33895 0.0
H1276 H 0.8211 0.05348 0.22827 0.0
H1277 H 0.84016 0.03513 0.2706 0.0
H1278 H 0.82487 0.06275 0.36859 0.0
H1279 H 0.82787 0.03384 0.32847 0.0
H1280 H 0.75657 0.20497 0.26322 0.0
H1281 H 0.76024 0.17617 0.22244 0.0
H1282 H 0.79548 0.21916 0.3068 0.0
H1283 H 0.80894 0.20103 0.35115 0.0
C1284 C 0.1813 0.59629 0.19019 0.0
C1285 C 0.18644 0.63418 0.17722 0.0
C1286 C 0.20202 0.65477 0.2422 0.0
C1287 C 0.20165 0.61635 0.2538 0.0
N1288 N 0.17729 0.55342 0.2445 0.0
N1289 N 0.18902 0.70109 0.19239 0.0
C1290 C 0.18648 0.58808 0.22951 0.0
C1291 C 0.19274 0.66407 0.2038 0.0
N1292 N 0.17297 0.56808 0.16474 0.0
N1293 N 0.21198 0.68193 0.26799 0.0
H1294 H 0.18213 0.70877 0.1645 0.0
H1295 H 0.1898 0.72416 0.2109 0.0
H1296 H 0.21604 0.67512 0.29663 0.0
H1297 H 0.21634 0.71045 0.26135 0.0
H1298 H 0.17273 0.53927 0.17162 0.0
H1299 H 0.16794 0.57344 0.13597 0.0
H1300 H 0.16319 0.53217 0.22944 0.0
H1301 H 0.18047 0.54762 0.2735 0.0
C1302 C 0.29336 0.34883 0.73724 0.0
C1303 C 0.28203 0.38718 0.74211 0.0
C1304 C 0.29827 0.40083 0.67515 0.0
C1305 C 0.30293 0.36166 0.66884 0.0
N1306 N 0.30887 0.29771 0.69299 0.0
N1307 N 0.27168 0.44966 0.71423 0.0
C1308 C 0.30203 0.33541 0.69978 0.0
C1309 C 0.28449 0.41322 0.71075 0.0
N1310 N 0.29516 0.32545 0.76828 0.0
N1311 N 0.30812 0.42648 0.64745 0.0
H1312 H 0.26363 0.46108 0.74003 0.0
H1313 H 0.26702 0.46785 0.69124 0.0
H1314 H 0.31822 0.41846 0.62069 0.0
H1315 H 0.30992 0.45569 0.6522 0.0
H1316 H 0.30495 0.29754 0.76769 0.0
H1317 H 0.28926 0.33516 0.79567 0.0
H1318 H 0.30642 0.27641 0.71338 0.0
H1319 H 0.31588 0.28728 0.66606 0.0
C1320 C 0.82473 0.74759 0.86178 0.0
C1321 C 0.83141 0.7084 0.85606 0.0
C1322 C 0.76441 0.695 0.87053 0.0
C1323 C 0.75764 0.73459 0.87389 0.0
N1324 N 0.77844 0.7974 0.85463 0.0
N1325 N 0.80245 0.64859 0.83761 0.0
C1326 C 0.78684 0.7604 0.8628 0.0
C1327 C 0.79977 0.68297 0.85529 0.0
N1328 N 0.85393 0.77239 0.86835 0.0
N1329 N 0.73846 0.66874 0.88257 0.0
H1330 H 0.82589 0.64164 0.82101 0.0
H1331 H 0.77932 0.63027 0.83436 0.0
H1332 H 0.71169 0.67565 0.8931 0.0
H1333 H 0.74483 0.63978 0.88402 0.0
H1334 H 0.84932 0.80089 0.87524 0.0
H1335 H 0.88212 0.76373 0.87164 0.0
H1336 H 0.79868 0.81677 0.84482 0.0
H1337 H 0.75051 0.80719 0.8539 0.0
C1338 C 0.28297 0.8045 0.08246 0.0
C1339 C 0.25527 0.79262 0.10902 0.0
C1340 C 0.3012 0.80234 0.16022 0.0
C1341 C 0.33083 0.80314 0.13271 0.0
N1342 N 0.3498 0.80466 0.06674 0.0
N1343 N 0.23627 0.78351 0.17406 0.0
C1344 C 0.32168 0.8048 0.09353 0.0
C1345 C 0.26378 0.79299 0.14833 0.0
N1346 N 0.27237 0.81569 0.04686 0.0
N1347 N 0.30834 0.8125 0.19702 0.0
H1348 H 0.20805 0.77914 0.1658 0.0
H1349 H 0.24187 0.77891 0.20287 0.0
H1350 H 0.33527 0.82086 0.20633 0.0
H1351 H 0.28677 0.81658 0.217 0.0
H1352 H 0.29121 0.82924 0.02845 0.0
H1353 H 0.24406 0.8164 0.03803 0.0
H1354 H 0.34421 0.80117 0.03794 0.0
H1355 H 0.37867 0.80433 0.07345 0.0
C1356 C 0.23446 0.20657 0.64783 0.0
C1357 C 0.24403 0.20584 0.60865 0.0
C1358 C 0.17758 0.19109 0.59236 0.0
C1359 C 0.16774 0.19325 0.6314 0.0
N1360 N 0.18799 0.1926 0.6971 0.0
N1361 N 0.22785 0.18512 0.54557 0.0
C1362 C 0.1966 0.19774 0.65946 0.0
C1363 C 0.21649 0.19406 0.58154 0.0
N1364 N 0.26158 0.21677 0.67373 0.0
N1365 N 0.14962 0.18707 0.56557 0.0
H1366 H 0.25646 0.18473 0.5384 0.0
H1367 H 0.21007 0.17375 0.52477 0.0
H1368 H 0.12095 0.18392 0.57264 0.0
H1369 H 0.15437 0.18951 0.53639 0.0
H1370 H 0.25577 0.22279 0.70218 0.0
H1371 H 0.29009 0.22019 0.666 0.0
H1372 H 0.20844 0.19129 0.71852 0.0
H1373 H 0.16052 0.18671 0.70672 0.0
C1374 C 0.66814 0.25286 0.36667 0.0
C1375 C 0.6631 0.29139 0.35669 0.0
C1376 C 0.73027 0.30386 0.37202 0.0
C1377 C 0.73566 0.26453 0.37942 0.0
N1378 N 0.71233 0.201 0.36585 0.0
N1379 N 0.69423 0.34887 0.33468 0.0
C1380 C 0.70546 0.23886 0.37055 0.0
C1381 C 0.69561 0.31567 0.35477 0.0
N1382 N 0.63777 0.22984 0.37446 0.0
N1383 N 0.7568 0.33024 0.3824 0.0
H1384 H 0.67095 0.35602 0.31785 0.0
H1385 H 0.71803 0.36608 0.33036 0.0
H1386 H 0.7826 0.32344 0.39519 0.0
H1387 H 0.75159 0.35941 0.38077 0.0
H1388 H 0.64102 0.20214 0.38466 0.0
H1389 H 0.60977 0.23963 0.37534 0.0
H1390 H 0.69151 0.18187 0.35679 0.0
H1391 H 0.73971 0.19001 0.36638 0.0
C1392 C 0.95341 0.31043 0.09441 0.0
C1393 C 0.99243 0.31707 0.08651 0.0
C1394 C 0.98174 0.30244 0.01908 0.0
C1395 C 0.94327 0.29351 0.02765 0.0
N1396 N 0.89438 0.28148 0.07407 0.0
N1397 N 0.04538 0.315 0.04269 0.0
C1398 C 0.92978 0.295 0.06559 0.0
C1399 C 0.00712 0.31198 0.04916 0.0
N1400 N 0.9386 0.32053 0.12903 0.0
N1401 N 0.99373 0.30238 0.982 0.0
H1402 H 0.06465 0.32355 0.06355 0.0
H1403 H 0.05844 0.30703 0.0173 0.0
H1404 H 0.97667 0.29274 0.95965 0.0
H1405 H 0.01982 0.31328 0.97312 0.0
H1406 H 0.90961 0.32011 0.1352 0.0
H1407 H 0.95489 0.33307 0.15049 0.0
H1408 H 0.8843 0.27838 0.10179 0.0
H1409 H 0.87661 0.26971 0.05347 0.0
C1410 C 0.57417 0.70984 0.56289 0.0
C1411 C 0.55954 0.7128 0.5253 0.0
C1412 C 0.49474 0.70147 0.54982 0.0
C1413 C 0.51 0.69386 0.58656 0.0
N1414 N 0.56472 0.68809 0.62778 0.0
N1415 N 0.50629 0.71 0.48212 0.0
C1416 C 0.54982 0.69775 0.59309 0.0
C1417 C 0.51988 0.70825 0.51859 0.0
N1418 N 0.6115 0.71835 0.5698 0.0
N1419 N 0.45618 0.70418 0.5451 0.0
H1420 H 0.52316 0.71811 0.45902 0.0
H1421 H 0.47886 0.70181 0.47446 0.0
H1422 H 0.43679 0.7002 0.56724 0.0
H1423 H 0.44333 0.71366 0.52011 0.0
H1424 H 0.62286 0.72128 0.59701 0.0
H1425 H 0.63071 0.72561 0.54841 0.0
H1426 H 0.59373 0.68537 0.6331 0.0
H1427 H 0.54808 0.6798 0.65088 0.0
C1428 C 0.48518 0.20621 0.97538 0.0
C1429 C 0.44547 0.20765 0.96811 0.0
C1430 C 0.45602 0.18573 0.90268 0.0
C1431 C 0.49588 0.18562 0.90939 0.0
N1432 N 0.54919 0.20184 0.94949 0.0
N1433 N 0.39333 0.20563 0.92382 0.0
C1434 C 0.51075 0.1976 0.94504 0.0
C1435 C 0.43106 0.19971 0.93129 0.0
N1436 N 0.49824 0.212 0.01161 0.0
N1437 N 0.44199 0.17085 0.86952 0.0
H1438 H 0.37449 0.21574 0.94441 0.0
H1439 H 0.38141 0.20386 0.89674 0.0
H1440 H 0.45944 0.15998 0.8481 0.0
H1441 H 0.41317 0.16623 0.86445 0.0
H1442 H 0.52618 0.20682 0.02002 0.0
H1443 H 0.48043 0.22044 0.03388 0.0
H1444 H 0.56166 0.21427 0.97333 0.0
H1445 H 0.56872 0.19531 0.92808 0.0
C1446 C 0.01624 0.79838 0.47563 0.0
C1447 C 0.05596 0.79427 0.4695 0.0
C1448 C 0.04866 0.81661 0.40366 0.0
C1449 C 0.00873 0.81923 0.40926 0.0
N1450 N 0.95341 0.80656 0.44797 0.0
N1451 N 0.10936 0.79285 0.42665 0.0
C1452 C 0.99216 0.80842 0.44456 0.0
C1453 C 0.07191 0.80118 0.43305 0.0
N1454 N 0.00176 0.79357 0.51148 0.0
N1455 N 0.06442 0.83027 0.37073 0.0
H1456 H 0.12698 0.78172 0.4478 0.0
H1457 H 0.12214 0.79384 0.39991 0.0
H1458 H 0.04821 0.84209 0.3488 0.0
H1459 H 0.0936 0.83294 0.36632 0.0
H1460 H 0.97402 0.80075 0.51907 0.0
H1461 H 0.01824 0.78391 0.53427 0.0
H1462 H 0.93956 0.79483 0.47142 0.0
H1463 H 0.93487 0.81444 0.42612 0.0
C1464 C 0.08934 0.96164 0.29653 0.0
C1465 C 0.08472 0.00178 0.29754 0.0
C1466 C 0.01611 0.99488 0.28611 0.0
C1467 C 0.02099 0.95487 0.28386 0.0
N1468 N 0.06203 0.89988 0.28204 0.0
N1469 N 0.04577 0.05735 0.2875 0.0
C1470 C 0.05765 0.93822 0.28733 0.0
C1471 C 0.04863 0.01865 0.29069 0.0
N1472 N 0.12363 0.94588 0.30625 0.0
N1473 N 0.98024 0.00994 0.28481 0.0
H1474 H 0.06897 0.07555 0.29099 0.0
H1475 H 0.0212 0.07138 0.27873 0.0
H1476 H 0.95608 0.99346 0.27959 0.0
H1477 H 0.97406 0.03828 0.29077 0.0
H1478 H 0.12787 0.91689 0.3106 0.0
H1479 H 0.14764 0.96204 0.31275 0.0
H1480 H 0.08833 0.88642 0.27991 0.0
H1481 H 0.03925 0.88152 0.27709 0.0
C1482 C 0.44043 0.06419 0.79548 0.0
C1483 C 0.47707 0.04731 0.79292 0.0
C1484 C 0.45025 0.98493 0.80882 0.0
C1485 C 0.41335 0.00152 0.80982 0.0
N1486 N 0.37205 0.05548 0.79985 0.0
N1487 N 0.51692 0.99173 0.79129 0.0
C1488 C 0.40806 0.04072 0.80165 0.0
C1489 C 0.48197 0.00762 0.79778 0.0
N1490 N 0.43687 0.10292 0.7936 0.0
N1491 N 0.45499 0.94766 0.81905 0.0
H1492 H 0.54061 0.00783 0.78336 0.0
H1493 H 0.52197 0.96256 0.79074 0.0
H1494 H 0.43236 0.92992 0.82639 0.0
H1495 H 0.48139 0.93477 0.82276 0.0
H1496 H 0.41188 0.11754 0.79987 0.0
H1497 H 0.45972 0.12094 0.78784 0.0
H1498 H 0.36588 0.08256 0.78952 0.0
H1499 H 0.34775 0.03989 0.80677 0.0
C1500 C 0.57854 0.53349 0.66683 0.0
C1501 C 0.57773 0.49717 0.68451 0.0
C1502 C 0.51851 0.51453 0.71794 0.0
C1503 C 0.52003 0.55119 0.70087 0.0
N1504 N 0.55717 0.59891 0.66863 0.0
N1505 N 0.54932 0.45357 0.72933 0.0
C1506 C 0.55165 0.56152 0.67792 0.0
C1507 C 0.54842 0.4879 0.71092 0.0
N1508 N 0.60499 0.54135 0.63935 0.0
N1509 N 0.48804 0.50484 0.74004 0.0
H1510 H 0.5688 0.43218 0.72268 0.0
H1511 H 0.53184 0.44659 0.75223 0.0
H1512 H 0.46792 0.52461 0.74889 0.0
H1513 H 0.48208 0.47725 0.749 0.0
H1514 H 0.60397 0.56551 0.62217 0.0
H1515 H 0.62643 0.52246 0.63152 0.0
H1516 H 0.58163 0.6091 0.65533 0.0
H1517 H 0.53921 0.62047 0.67829 0.0
C1518 C 0.93881 0.43832 0.21205 0.0
C1519 C 0.97724 0.45058 0.20969 0.0
C1520 C 0.95578 0.51457 0.19045 0.0
C1521 C 0.91767 0.5012 0.18924 0.0
N1522 N 0.87265 0.44982 0.19538 0.0
N1523 N 0.02312 0.49963 0.19577 0.0
C1524 C 0.90909 0.46297 0.19941 0.0
C1525 C 0.98589 0.4886 0.19876 0.0
N1526 N 0.93077 0.40303 0.22632 0.0
N1527 N 0.96298 0.5524 0.18487 0.0
H1528 H 0.04572 0.48247 0.2046 0.0
H1529 H 0.03186 0.52503 0.18329 0.0
H1530 H 0.94176 0.57191 0.17786 0.0
H1531 H 0.98935 0.56507 0.1895 0.0
H1532 H 0.90339 0.39361 0.23257 0.0
H1533 H 0.95181 0.38397 0.23488 0.0
H1534 H 0.86497 0.42135 0.19802 0.0
H1535 H 0.85015 0.46702 0.18644 0.0
C1536 C 0.31712 0.08053 0.95464 0.0
C1537 C 0.3196 0.07476 0.99464 0.0
C1538 C 0.29957 0.00809 0.98659 0.0
C1539 C 0.29871 0.01348 0.94651 0.0
N1540 N 0.31249 0.05257 0.89162 0.0
N1541 N 0.31725 0.03281 0.04891 0.0
C1542 C 0.30891 0.04916 0.93032 0.0
C1543 C 0.31215 0.03836 0.01067 0.0
N1544 N 0.32227 0.11625 0.93994 0.0
N1545 N 0.28723 0.97431 0.00152 0.0
H1546 H 0.32524 0.05459 0.06743 0.0
H1547 H 0.316 0.00635 0.06214 0.0
H1548 H 0.27789 0.95179 0.98456 0.0
H1549 H 0.28361 0.96928 0.0305 0.0
H1550 H 0.31597 0.12359 0.9119 0.0
H1551 H 0.33112 0.13938 0.95633 0.0
H1552 H 0.32435 0.07617 0.87818 0.0
H1553 H 0.30606 0.03066 0.87266 0.0
C1554 C 0.82131 0.41779 0.04435 0.0
C1555 C 0.81076 0.42067 0.00541 0.0
C1556 C 0.78517 0.4849 0.01653 0.0
C1557 C 0.79415 0.48129 0.05576 0.0
N1558 N 0.81598 0.44323 0.1085 0.0
N1559 N 0.77902 0.45434 0.9547 0.0
C1560 C 0.81081 0.44733 0.07008 0.0
C1561 C 0.79151 0.45347 0.9916 0.0
N1562 N 0.84195 0.38706 0.05653 0.0
N1563 N 0.77179 0.51886 0.00298 0.0
H1564 H 0.7848 0.4327 0.93519 0.0
H1565 H 0.7612 0.47536 0.94382 0.0
H1566 H 0.76552 0.54185 0.02071 0.0
H1567 H 0.7688 0.52513 0.97415 0.0
H1568 H 0.85423 0.38497 0.08343 0.0
H1569 H 0.84911 0.36432 0.03882 0.0
H1570 H 0.82434 0.41797 0.12152 0.0
H1571 H 0.80908 0.46452 0.12801 0.0
C1572 C 0.68557 0.58406 0.54724 0.0
C1573 C 0.68075 0.57678 0.50781 0.0
C1574 C 0.70057 0.51059 0.51664 0.0
C1575 C 0.70244 0.51708 0.55641 0.0
N1576 N 0.69237 0.5579 0.6107 0.0
N1577 N 0.67988 0.53344 0.45467 0.0
C1578 C 0.69405 0.55335 0.57205 0.0
C1579 C 0.68714 0.54006 0.49238 0.0
N1580 N 0.68244 0.62045 0.5608 0.0
N1581 N 0.71238 0.4764 0.50224 0.0
H1582 H 0.67043 0.55465 0.43612 0.0
H1583 H 0.68052 0.5066 0.44219 0.0
H1584 H 0.72265 0.4545 0.51952 0.0
H1585 H 0.71499 0.47065 0.47328 0.0
H1586 H 0.69024 0.62847 0.58825 0.0
H1587 H 0.67393 0.64335 0.54387 0.0
H1588 H 0.68226 0.58236 0.62401 0.0
H1589 H 0.69842 0.53596 0.62977 0.0
C1590 C 0.20115 0.95161 0.50603 0.0
C1591 C 0.18155 0.91809 0.49487 0.0
C1592 C 0.18264 0.93897 0.4282 0.0
C1593 C 0.19947 0.97381 0.4397 0.0
N1594 N 0.22105 0.01576 0.48951 0.0
N1595 N 0.14944 0.88127 0.44667 0.0
C1596 C 0.20791 0.98078 0.47863 0.0
C1597 C 0.17101 0.91222 0.4563 0.0
N1598 N 0.21374 0.95521 0.54272 0.0
N1599 N 0.17899 0.93104 0.39023 0.0
H1600 H 0.14114 0.86064 0.46637 0.0
H1601 H 0.13727 0.8774 0.41991 0.0
H1602 H 0.18783 0.94984 0.36898 0.0
H1603 H 0.17044 0.90474 0.37963 0.0
H1604 H 0.23192 0.97677 0.55177 0.0
H1605 H 0.2077 0.93524 0.5639 0.0
H1606 H 0.22369 0.02425 0.51778 0.0
H1607 H 0.2272 0.03741 0.47011 0.0
C1608 C 0.04479 0.69528 0.90351 0.0
C1609 C 0.00676 0.6844 0.9118 0.0
C1610 C 0.02 0.6893 0.9803 0.0
C1611 C 0.05754 0.70181 0.97182 0.0
N1612 N 0.10289 0.72477 0.92571 0.0
N1613 N 0.95572 0.67839 0.95738 0.0
C1614 C 0.06896 0.70751 0.93352 0.0
C1615 C 0.99363 0.68336 0.95005 0.0
N1616 N 0.05851 0.69201 0.86717 0.0
N1617 N 0.00964 0.68294 0.01731 0.0
H1618 H 0.93552 0.67437 0.93598 0.0
H1619 H 0.94368 0.68138 0.98431 0.0
H1620 H 0.02705 0.68993 0.04036 0.0
H1621 H 0.98458 0.66921 0.02518 0.0
H1622 H 0.08714 0.6952 0.86016 0.0
H1623 H 0.04201 0.68255 0.8444 0.0
H1624 H 0.11058 0.73376 0.89851 0.0
H1625 H 0.12173 0.73345 0.94686 0.0
C1626 C 0.45115 0.31569 0.40726 0.0
C1627 C 0.49125 0.31603 0.41159 0.0
C1628 C 0.4846 0.29792 0.47899 0.0
C1629 C 0.44457 0.29609 0.47418 0.0
N1630 N 0.38986 0.29683 0.4328 0.0
N1631 N 0.54693 0.30176 0.44915 0.0
C1632 C 0.42793 0.303 0.43795 0.0
C1633 C 0.50824 0.30549 0.44681 0.0
N1634 N 0.43523 0.32882 0.3742 0.0
N1635 N 0.49986 0.29363 0.51457 0.0
H1636 H 0.56512 0.30782 0.42644 0.0
H1637 H 0.5609 0.29022 0.47262 0.0
H1638 H 0.48347 0.28648 0.53832 0.0
H1639 H 0.52826 0.29909 0.52101 0.0
H1640 H 0.4062 0.33359 0.37068 0.0
H1641 H 0.45143 0.33786 0.35099 0.0
H1642 H 0.3765 0.29734 0.40634 0.0
H1643 H 0.37192 0.28833 0.45484 0.0
C1644 C 0.52494 0.76917 0.02948 0.0
C1645 C 0.56184 0.78519 0.03 0.0
C1646 C 0.54898 0.81405 0.09235 0.0
C1647 C 0.51031 0.80297 0.08902 0.0
N1648 N 0.46048 0.77091 0.05425 0.0
N1649 N 0.60989 0.82307 0.06109 0.0
C1650 C 0.49808 0.78033 0.05774 0.0
C1651 C 0.57422 0.80742 0.06143 0.0
N1652 N 0.51577 0.74331 0.00194 0.0
N1653 N 0.56185 0.82959 0.12565 0.0
H1654 H 0.63008 0.81666 0.04023 0.0
H1655 H 0.61894 0.84366 0.08039 0.0
H1656 H 0.54421 0.8342 0.14908 0.0
H1657 H 0.59045 0.8348 0.13139 0.0
H1658 H 0.49046 0.72794 0.00151 0.0
H1659 H 0.5353 0.73458 0.98135 0.0
H1660 H 0.44886 0.75815 0.03017 0.0
H1661 H 0.44011 0.77819 0.07455 0.0
C1662 C 0.92558 0.19374 0.55877 0.0
C1663 C 0.94022 0.21074 0.52507 0.0
C1664 C 0.00419 0.21177 0.55338 0.0
C1665 C 0.99017 0.19128 0.58539 0.0
N1666 N 0.93857 0.15968 0.61763 0.0
N1667 N 0.99346 0.23321 0.48834 0.0
C1668 C 0.95106 0.18159 0.58791 0.0
C1669 C 0.97955 0.2192 0.52191 0.0
N1670 N 0.88712 0.18931 0.56282 0.0
N1671 N 0.04087 0.22477 0.55346 0.0
H1672 H 0.97585 0.2406 0.46555 0.0
H1673 H 0.02237 0.23573 0.48231 0.0
H1674 H 0.05987 0.21911 0.57558 0.0
H1675 H 0.05179 0.24323 0.53299 0.0
H1676 H 0.87407 0.18113 0.58816 0.0
H1677 H 0.86776 0.19676 0.54156 0.0
H1678 H 0.9114 0.14797 0.61919 0.0
H1679 H 0.95636 0.15067 0.63968 0.0
C1680 C 0.91155 0.03034 0.71365 0.0
C1681 C 0.91935 0.99542 0.69489 0.0
C1682 C 0.98697 0.01309 0.69053 0.0
C1683 C 0.97917 0.04745 0.7105 0.0
N1684 N 0.9362 0.0826 0.75086 0.0
N1685 N 0.96554 0.94977 0.67275 0.0
C1686 C 0.9422 0.054 0.72534 0.0
C1687 C 0.95743 0.98568 0.68535 0.0
N1688 N 0.87475 0.04217 0.7183 0.0
N1689 N 0.02271 0.00669 0.6765 0.0
H1690 H 0.94475 0.92889 0.66914 0.0
H1691 H 0.9931 0.93955 0.66895 0.0
H1692 H 0.04582 0.02422 0.68287 0.0
H1693 H 0.02919 0.98488 0.65751 0.0
H1694 H 0.86751 0.06925 0.72796 0.0
H1695 H 0.8514 0.02656 0.70875 0.0
H1696 H 0.91066 0.08606 0.76555 0.0
H1697 H 0.95794 0.10014 0.76062 0.0
C1698 C 0.58709 0.96162 0.18552 0.0
C1699 C 0.5789 0.0009 0.19009 0.0
C1700 C 0.51346 0.98571 0.20953 0.0
C1701 C 0.52226 0.94639 0.20679 0.0
N1702 N 0.56798 0.89627 0.1971 0.0
N1703 N 0.53648 0.0509 0.21031 0.0
C1704 C 0.55932 0.93419 0.1963 0.0
C1705 C 0.5427 0.01311 0.20332 0.0
N1706 N 0.62122 0.95062 0.17025 0.0
N1707 N 0.47689 0.99674 0.21715 0.0
H1708 H 0.55652 0.07195 0.2042 0.0
H1709 H 0.51239 0.06136 0.22402 0.0
H1710 H 0.45528 0.97745 0.22372 0.0
H1711 H 0.46734 0.0247 0.21511 0.0
H1712 H 0.6274 0.92286 0.16201 0.0
H1713 H 0.64285 0.96975 0.16332 0.0
H1714 H 0.59538 0.88547 0.19391 0.0
H1715 H 0.54795 0.87544 0.2037 0.0
C1716 C 0.44313 0.4371 0.29835 0.0
C1717 C 0.48004 0.45338 0.29514 0.0
C1718 C 0.45477 0.51565 0.3145 0.0
C1719 C 0.41758 0.49978 0.31583 0.0
N1720 N 0.37509 0.44692 0.30507 0.0
N1721 N 0.52083 0.50833 0.29492 0.0
C1722 C 0.4114 0.46097 0.30639 0.0
C1723 C 0.48582 0.49275 0.30186 0.0
N1724 N 0.43869 0.39848 0.29575 0.0
N1725 N 0.46035 0.55259 0.32543 0.0
H1726 H 0.54393 0.49226 0.28535 0.0
H1727 H 0.52649 0.53737 0.29566 0.0
H1728 H 0.43813 0.57073 0.33305 0.0
H1729 H 0.48705 0.56485 0.32917 0.0
H1730 H 0.41355 0.38431 0.30243 0.0
H1731 H 0.46095 0.37989 0.28948 0.0
H1732 H 0.36812 0.4205 0.29363 0.0
H1733 H 0.3513 0.46254 0.31352 0.0
C1734 C 0.04505 0.48969 0.82371 0.0
C1735 C 0.0812 0.5076 0.82787 0.0
C1736 C 0.05312 0.56891 0.80925 0.0
C1737 C 0.01796 0.55023 0.80204 0.0
N1738 N 0.98115 0.49283 0.79732 0.0
N1739 N 0.12057 0.56363 0.82328 0.0
C1740 C 0.01411 0.5106 0.80799 0.0
C1741 C 0.08546 0.54707 0.82015 0.0
N1742 N 0.04008 0.45277 0.83496 0.0
N1743 N 0.0551 0.60777 0.80741 0.0
H1744 H 0.14405 0.54961 0.83488 0.0
H1745 H 0.12697 0.59072 0.81313 0.0
H1746 H 0.0324 0.62485 0.7988 0.0
H1747 H 0.07842 0.62352 0.81662 0.0
H1748 H 0.01363 0.43953 0.83665 0.0
H1749 H 0.06187 0.43587 0.84569 0.0
H1750 H 0.97765 0.46343 0.79687 0.0
H1751 H 0.95811 0.50746 0.78555 0.0
C1752 C 0.65007 0.95901 0.01164 0.0
C1753 C 0.67482 0.92705 0.01214 0.0
C1754 C 0.71762 0.96322 0.05352 0.0
C1755 C 0.68946 0.99174 0.05946 0.0
N1756 N 0.62161 0.00599 0.05216 0.0
N1757 N 0.72555 0.8956 0.0472 0.0
C1758 C 0.65345 0.98674 0.0409 0.0
C1759 C 0.70659 0.92805 0.0373 0.0
N1760 N 0.62425 0.96421 0.98305 0.0
N1761 N 0.75513 0.96963 0.06137 0.0
H1762 H 0.71586 0.86852 0.0399 0.0
H1763 H 0.74755 0.89564 0.06718 0.0
H1764 H 0.76589 0.9965 0.06774 0.0
H1765 H 0.77613 0.94943 0.05556 0.0
H1766 H 0.60771 0.98881 0.98105 0.0
H1767 H 0.62292 0.94697 0.95898 0.0
H1768 H 0.59496 0.00074 0.04014 0.0
H1769 H 0.62005 0.02223 0.07681 0.0
C1770 C 0.21192 0.50996 0.99377 0.0
C1771 C 0.21368 0.51475 0.95371 0.0
C1772 C 0.20071 0.58321 0.96075 0.0
C1773 C 0.19582 0.57788 0.00062 0.0
N1774 N 0.1961 0.53687 0.05566 0.0
N1775 N 0.20713 0.5546 0.89812 0.0
C1776 C 0.20129 0.54138 0.01731 0.0
C1777 C 0.20786 0.55115 0.93698 0.0
N1778 N 0.22105 0.47533 0.00908 0.0
N1779 N 0.19843 0.61904 0.94558 0.0
H1780 H 0.2137 0.53225 0.87972 0.0
H1781 H 0.19811 0.57891 0.88379 0.0
H1782 H 0.19014 0.64285 0.96125 0.0
H1783 H 0.20657 0.62578 0.91787 0.0
H1784 H 0.22325 0.46992 0.03812 0.0
H1785 H 0.22915 0.45217 0.99231 0.0
H1786 H 0.19589 0.51072 0.06954 0.0
H1787 H 0.19031 0.55958 0.07383 0.0
C1788 C 0.28844 0.44415 0.50949 0.0
C1789 C 0.30845 0.41242 0.49427 0.0
C1790 C 0.30841 0.44271 0.43108 0.0
C1791 C 0.2918 0.47593 0.4471 0.0
N1792 N 0.26929 0.51027 0.50194 0.0
N1793 N 0.34132 0.38284 0.44186 0.0
C1794 C 0.28258 0.47716 0.48644 0.0
C1795 C 0.31934 0.41201 0.45532 0.0
N1796 N 0.27408 0.44225 0.54564 0.0
N1797 N 0.31324 0.44038 0.39247 0.0
H1798 H 0.34964 0.35992 0.45881 0.0
H1799 H 0.35382 0.38265 0.41498 0.0
H1800 H 0.30581 0.46239 0.37393 0.0
H1801 H 0.32158 0.41569 0.37839 0.0
H1802 H 0.25595 0.46264 0.55719 0.0
H1803 H 0.27793 0.41865 0.56325 0.0
H1804 H 0.26623 0.51465 0.53111 0.0
H1805 H 0.26341 0.53439 0.48559 0.0
C1806 C 0.82031 0.03512 0.49487 0.0
C1807 C 0.82491 0.07178 0.51126 0.0
C1808 C 0.81169 0.04562 0.57472 0.0
C1809 C 0.80356 0.00977 0.55792 0.0
N1810 N 0.79637 0.97056 0.50224 0.0
N1811 N 0.82028 0.1134 0.5657 0.0
C1812 C 0.80696 0.00453 0.518 0.0
C1813 C 0.8192 0.07743 0.55089 0.0
N1814 N 0.82877 0.02967 0.45724 0.0
N1815 N 0.81412 0.0489 0.6135 0.0
H1816 H 0.82749 0.13725 0.54956 0.0
H1817 H 0.81167 0.11996 0.59333 0.0
H1818 H 0.80867 0.02644 0.63216 0.0
H1819 H 0.82446 0.07304 0.62722 0.0
H1820 H 0.82952 0.00311 0.44418 0.0
H1821 H 0.83788 0.05163 0.43943 0.0
H1822 H 0.79468 0.96568 0.47306 0.0
H1823 H 0.78627 0.94784 0.51853 0.0
loop_
_geom_bond_atom_site_label_1
_geom_bond_atom_site_label_2
_geom_bond_distance
_geom_bond_site_symmetry_2
_ccdc_geom_bond_type
Sc0 O3 2.025 . S
Sc0 O10 2.105 . S
Sc0 O13 2.105 . S
Sc0 O16 2.105 . S
Sc0 O19 2.105 . S
Sc1 O3 2.025 . S
Sc1 O11 2.105 . S
Sc1 O15 2.105 . S
Sc1 O17 2.105 . S
Sc1 O21 2.105 1_455 S
Sc2 O3 2.025 . S
Sc2 O12 2.105 1_455 S
Sc2 O14 2.105 . S
Sc2 O18 2.105 . S
Sc2 O20 2.105 1_455 S
O3 Sc0 2.025 . S
O3 Sc1 2.025 . S
O3 Sc2 2.025 . S
C4 O10 1.268 1_655 S
C4 O20 1.268 . S
C5 O11 1.268 1_655 S
C5 O19 1.268 1_655 S
C6 O12 1.268 . S
C6 O21 1.268 . S
C7 O13 1.268 . S
C7 O17 1.268 . S
C8 O14 1.268 . S
C8 O16 1.268 . S
C9 O15 1.268 . S
C9 O18 1.268 . S
O10 Sc0 2.105 . S
O10 C4 1.268 1_455 S
O11 Sc1 2.105 . S
O11 C5 1.268 1_455 S
O12 Sc2 2.105 1_655 S
O12 C6 1.268 . S
O13 Sc0 2.105 . S
O13 C7 1.268 . S
O14 Sc2 2.105 . S
O14 C8 1.268 . S
O15 Sc1 2.105 . S
O15 C9 1.268 . S
O16 Sc0 2.105 . S
O16 C8 1.268 . S
O17 Sc1 2.105 . S
O17 C7 1.268 . S
O18 Sc2 2.105 . S
O18 C9 1.268 . S
O19 Sc0 2.105 . S
O19 C5 1.268 1_455 S
O20 Sc2 2.105 1_655 S
O20 C4 1.268 . S
O21 Sc1 2.105 1_655 S
O21 C6 1.268 . S
Sc22 O25 2.025 . S
Sc22 O32 2.105 . S
Sc22 O35 2.105 . S
Sc22 O38 2.105 . S
Sc22 O41 2.105 . S
Sc23 O25 2.025 . S
Sc23 O33 2.105 . S
Sc23 O37 2.105 . S
Sc23 O39 2.105 . S
Sc23 O43 2.105 . S
Sc24 O25 2.025 . S
Sc24 O34 2.105 . S
Sc24 O36 2.105 . S
Sc24 O40 2.105 . S
Sc24 O42 2.105 . S
O25 Sc22 2.025 . S
O25 Sc23 2.025 . S
O25 Sc24 2.025 . S
C26 O32 1.268 . S
C26 O42 1.268 . S
C27 O33 1.268 . S
C27 O41 1.268 . S
C28 O34 1.268 . S
C28 O43 1.268 . S
C29 O35 1.268 . S
C29 O39 1.268 . S
C30 O36 1.268 . S
C30 O38 1.268 . S
C31 O37 1.268 . S
C31 O40 1.268 . S
O32 Sc22 2.105 . S
O32 C26 1.268 . S
O33 Sc23 2.105 . S
O33 C27 1.268 . S
O34 Sc24 2.105 . S
O34 C28 1.268 . S
O35 Sc22 2.105 . S
O35 C29 1.268 . S
O36 Sc24 2.105 . S
O36 C30 1.268 . S
O37 Sc23 2.105 . S
O37 C31 1.268 . S
O38 Sc22 2.105 . S
O38 C30 1.268 . S
O39 Sc23 2.105 . S
O39 C29 1.268 . S
O40 Sc24 2.105 . S
O40 C31 1.268 . S
O41 Sc22 2.105 . S
O41 C27 1.268 . S
O42 Sc24 2.105 . S
O42 C26 1.268 . S
O43 Sc23 2.105 . S
O43 C28 1.268 . S
Sc44 O47 2.025 . S
Sc44 O54 2.105 . S
Sc44 O57 2.105 . S
Sc44 O60 2.105 . S
Sc44 O63 2.105 . S
Sc45 O47 2.025 . S
Sc45 O55 2.105 . S
Sc45 O59 2.105 . S
Sc45 O61 2.105 . S
Sc45 O65 2.105 . S
Sc46 O47 2.025 . S
Sc46 O56 2.105 . S
Sc46 O58 2.105 . S
Sc46 O62 2.105 . S
Sc46 O64 2.105 . S
O47 Sc44 2.025 . S
O47 Sc45 2.025 . S
O47 Sc46 2.025 . S
C48 O54 1.268 . S
C48 O64 1.268 . S
C49 O55 1.268 . S
C49 O63 1.268 . S
C50 O56 1.268 . S
C50 O65 1.268 . S
C51 O57 1.268 . S
C51 O61 1.268 . S
C52 O58 1.268 . S
C52 O60 1.268 . S
C53 O59 1.268 . S
C53 O62 1.268 . S
O54 Sc44 2.105 . S
O54 C48 1.268 . S
O55 Sc45 2.105 . S
O55 C49 1.268 . S
O56 Sc46 2.105 . S
O56 C50 1.268 . S
O57 Sc44 2.105 . S
O57 C51 1.268 . S
O58 Sc46 2.105 . S
O58 C52 1.268 . S
O59 Sc45 2.105 . S
O59 C53 1.268 . S
O60 Sc44 2.105 . S
O60 C52 1.268 . S
O61 Sc45 2.105 . S
O61 C51 1.268 . S
O62 Sc46 2.105 . S
O62 C53 1.268 . S
O63 Sc44 2.105 . S
O63 C49 1.268 . S
O64 Sc46 2.105 . S
O64 C48 1.268 . S
O65 Sc45 2.105 . S
O65 C50 1.268 . S
Sc66 O69 2.025 . S
Sc66 O76 2.105 . S
Sc66 O79 2.105 1_655 S
Sc66 O82 2.105 1_655 S
Sc66 O85 2.105 . S
Sc67 O69 2.025 . S
Sc67 O77 2.105 . S
Sc67 O81 2.105 . S
Sc67 O83 2.105 1_655 S
Sc67 O87 2.105 . S
Sc68 O69 2.025 . S
Sc68 O78 2.105 . S
Sc68 O80 2.105 . S
Sc68 O84 2.105 . S
Sc68 O86 2.105 . S
O69 Sc66 2.025 . S
O69 Sc67 2.025 . S
O69 Sc68 2.025 . S
C70 O76 1.268 . S
C70 O86 1.268 . S
C71 O77 1.268 . S
C71 O85 1.268 . S
C72 O78 1.268 . S
C72 O87 1.268 . S
C73 O79 1.268 . S
C73 O83 1.268 . S
C74 O80 1.268 1_455 S
C74 O82 1.268 . S
C75 O81 1.268 1_455 S
C75 O84 1.268 1_455 S
O76 Sc66 2.105 . S
O76 C70 1.268 . S
O77 Sc67 2.105 . S
O77 C71 1.268 . S
O78 Sc68 2.105 . S
O78 C72 1.268 . S
O79 Sc66 2.105 1_455 S
O79 C73 1.268 . S
O80 Sc68 2.105 . S
O80 C74 1.268 1_655 S
O81 Sc67 2.105 . S
O81 C75 1.268 1_655 S
O82 Sc66 2.105 1_455 S
O82 C74 1.268 . S
O83 Sc67 2.105 1_455 S
O83 C73 1.268 . S
O84 Sc68 2.105 . S
O84 C75 1.268 1_655 S
O85 Sc66 2.105 . S
O85 C71 1.268 . S
O86 Sc68 2.105 . S
O86 C70 1.268 . S
O87 Sc67 2.105 . S
O87 C72 1.268 . S
Sc88 O91 2.025 . S
Sc88 O98 2.105 . S
Sc88 O101 2.105 . S
Sc88 O104 2.105 . S
Sc88 O107 2.105 . S
Sc89 O91 2.025 . S
Sc89 O99 2.105 . S
Sc89 O103 2.105 . S
Sc89 O105 2.105 . S
Sc89 O109 2.105 1_545 S
Sc90 O91 2.025 . S
Sc90 O100 2.105 1_545 S
Sc90 O102 2.105 . S
Sc90 O106 2.105 . S
Sc90 O108 2.105 1_545 S
O91 Sc88 2.025 . S
O91 Sc89 2.025 . S
O91 Sc90 2.025 . S
C92 O98 1.268 1_565 S
C92 O108 1.268 . S
C93 O99 1.268 1_565 S
C93 O107 1.268 1_565 S
C94 O100 1.268 . S
C94 O109 1.268 . S
C95 O101 1.268 . S
C95 O105 1.268 . S
C96 O102 1.268 . S
C96 O104 1.268 . S
C97 O103 1.268 . S
C97 O106 1.268 . S
O98 Sc88 2.105 . S
O98 C92 1.268 1_545 S
O99 Sc89 2.105 . S
O99 C93 1.268 1_545 S
O100 Sc90 2.105 1_565 S
O100 C94 1.268 . S
O101 Sc88 2.105 . S
O101 C95 1.268 . S
O102 Sc90 2.105 . S
O102 C96 1.268 . S
O103 Sc89 2.105 . S
O103 C97 1.268 . S
O104 Sc88 2.105 . S
O104 C96 1.268 . S
O105 Sc89 2.105 . S
O105 C95 1.268 . S
O106 Sc90 2.105 . S
O106 C97 1.268 . S
O107 Sc88 2.105 . S
O107 C93 1.268 1_545 S
O108 Sc90 2.105 1_565 S
O108 C92 1.268 . S
O109 Sc89 2.105 1_565 S
O109 C94 1.268 . S
Sc110 O113 2.025 . S
Sc110 O120 2.105 . S
Sc110 O123 2.105 1_565 S
Sc110 O126 2.105 1_565 S
Sc110 O129 2.105 . S
Sc111 O113 2.025 . S
Sc111 O121 2.105 . S
Sc111 O125 2.105 . S
Sc111 O127 2.105 1_565 S
Sc111 O131 2.105 . S
Sc112 O113 2.025 . S
Sc112 O122 2.105 . S
Sc112 O124 2.105 . S
Sc112 O128 2.105 . S
Sc112 O130 2.105 . S
O113 Sc110 2.025 . S
O113 Sc111 2.025 . S
O113 Sc112 2.025 . S
C114 O120 1.268 . S
C114 O130 1.268 . S
C115 O121 1.268 . S
C115 O129 1.268 . S
C116 O122 1.268 . S
C116 O131 1.268 . S
C117 O123 1.268 . S
C117 O127 1.268 . S
C118 O124 1.268 1_545 S
C118 O126 1.268 . S
C119 O125 1.268 1_545 S
C119 O128 1.268 1_545 S
O120 Sc110 2.105 . S
O120 C114 1.268 . S
O121 Sc111 2.105 . S
O121 C115 1.268 . S
O122 Sc112 2.105 . S
O122 C116 1.268 . S
O123 Sc110 2.105 1_545 S
O123 C117 1.268 . S
O124 Sc112 2.105 . S
O124 C118 1.268 1_565 S
O125 Sc111 2.105 . S
O125 C119 1.268 1_565 S
O126 Sc110 2.105 1_545 S
O126 C118 1.268 . S
O127 Sc111 2.105 1_545 S
O127 C117 1.268 . S
O128 Sc112 2.105 . S
O128 C119 1.268 1_565 S
O129 Sc110 2.105 . S
O129 C115 1.268 . S
O130 Sc112 2.105 . S
O130 C114 1.268 . S
O131 Sc111 2.105 . S
O131 C116 1.268 . S
Sc132 O135 2.025 . S
Sc132 O142 2.105 . S
Sc132 O145 2.105 . S
Sc132 O148 2.105 . S
Sc132 O151 2.105 . S
Sc133 O135 2.025 . S
Sc133 O143 2.105 . S
Sc133 O147 2.105 . S
Sc133 O149 2.105 . S
Sc133 O153 2.105 . S
Sc134 O135 2.025 . S
Sc134 O144 2.105 . S
Sc134 O146 2.105 . S
Sc134 O150 2.105 . S
Sc134 O152 2.105 . S
O135 Sc132 2.025 . S
O135 Sc133 2.025 . S
O135 Sc134 2.025 . S
C136 O142 1.268 . S
C136 O152 1.268 . S
C137 O143 1.268 . S
C137 O151 1.268 . S
C138 O144 1.268 . S
C138 O153 1.268 . S
C139 O145 1.268 . S
C139 O149 1.268 . S
C140 O146 1.268 . S
C140 O148 1.268 . S
C141 O147 1.268 . S
C141 O150 1.268 . S
O142 Sc132 2.105 . S
O142 C136 1.268 . S
O143 Sc133 2.105 . S
O143 C137 1.268 . S
O144 Sc134 2.105 . S
O144 C138 1.268 . S
O145 Sc132 2.105 . S
O145 C139 1.268 . S
O146 Sc134 2.105 . S
O146 C140 1.268 . S
O147 Sc133 2.105 . S
O147 C141 1.268 . S
O148 Sc132 2.105 . S
O148 C140 1.268 . S
O149 Sc133 2.105 . S
O149 C139 1.268 . S
O150 Sc134 2.105 . S
O150 C141 1.268 . S
O151 Sc132 2.105 . S
O151 C137 1.268 . S
O152 Sc134 2.105 . S
O152 C136 1.268 . S
O153 Sc133 2.105 . S
O153 C138 1.268 . S
Sc154 O157 2.025 . S
Sc154 O164 2.105 . S
Sc154 O167 2.105 . S
Sc154 O170 2.105 . S
Sc154 O173 2.105 . S
Sc155 O157 2.025 . S
Sc155 O165 2.105 . S
Sc155 O169 2.105 . S
Sc155 O171 2.105 . S
Sc155 O175 2.105 . S
Sc156 O157 2.025 . S
Sc156 O166 2.105 . S
Sc156 O168 2.105 . S
Sc156 O172 2.105 . S
Sc156 O174 2.105 . S
O157 Sc154 2.025 . S
O157 Sc155 2.025 . S
O157 Sc156 2.025 . S
C158 O164 1.268 . S
C158 O174 1.268 . S
C159 O165 1.268 . S
C159 O173 1.268 . S
C160 O166 1.268 . S
C160 O175 1.268 . S
C161 O167 1.268 . S
C161 O171 1.268 . S
C162 O168 1.268 . S
C162 O170 1.268 . S
C163 O169 1.268 . S
C163 O172 1.268 . S
O164 Sc154 2.105 . S
O164 C158 1.268 . S
O165 Sc155 2.105 . S
O165 C159 1.268 . S
O166 Sc156 2.105 . S
O166 C160 1.268 . S
O167 Sc154 2.105 . S
O167 C161 1.268 . S
O168 Sc156 2.105 . S
O168 C162 1.268 . S
O169 Sc155 2.105 . S
O169 C163 1.268 . S
O170 Sc154 2.105 . S
O170 C162 1.268 . S
O171 Sc155 2.105 . S
O171 C161 1.268 . S
O172 Sc156 2.105 . S
O172 C163 1.268 . S
O173 Sc154 2.105 . S
O173 C159 1.268 . S
O174 Sc156 2.105 . S
O174 C158 1.268 . S
O175 Sc155 2.105 . S
O175 C160 1.268 . S
Sc176 O179 2.025 . S
Sc176 O186 2.105 . S
Sc176 O189 2.105 . S
Sc176 O192 2.105 . S
Sc176 O195 2.105 . S
Sc177 O179 2.025 . S
Sc177 O187 2.105 . S
Sc177 O191 2.105 . S
Sc177 O193 2.105 . S
Sc177 O197 2.105 1_554 S
Sc178 O179 2.025 . S
Sc178 O188 2.105 1_554 S
Sc178 O190 2.105 . S
Sc178 O194 2.105 . S
Sc178 O196 2.105 1_554 S
O179 Sc176 2.025 . S
O179 Sc177 2.025 . S
O179 Sc178 2.025 . S
C180 O186 1.268 1_556 S
C180 O196 1.268 . S
C181 O187 1.268 1_556 S
C181 O195 1.268 1_556 S
C182 O188 1.268 . S
C182 O197 1.268 . S
C183 O189 1.268 . S
C183 O193 1.268 . S
C184 O190 1.268 . S
C184 O192 1.268 . S
C185 O191 1.268 . S
C185 O194 1.268 . S
O186 Sc176 2.105 . S
O186 C180 1.268 1_554 S
O187 Sc177 2.105 . S
O187 C181 1.268 1_554 S
O188 Sc178 2.105 1_556 S
O188 C182 1.268 . S
O189 Sc176 2.105 . S
O189 C183 1.268 . S
O190 Sc178 2.105 . S
O190 C184 1.268 . S
O191 Sc177 2.105 . S
O191 C185 1.268 . S
O192 Sc176 2.105 . S
O192 C184 1.268 . S
O193 Sc177 2.105 . S
O193 C183 1.268 . S
O194 Sc178 2.105 . S
O194 C185 1.268 . S
O195 Sc176 2.105 . S
O195 C181 1.268 1_554 S
O196 Sc178 2.105 1_556 S
O196 C180 1.268 . S
O197 Sc177 2.105 1_556 S
O197 C182 1.268 . S
Sc198 O201 2.025 . S
Sc198 O208 2.105 . S
Sc198 O211 2.105 1_556 S
Sc198 O214 2.105 1_556 S
Sc198 O217 2.105 . S
Sc199 O201 2.025 . S
Sc199 O209 2.105 . S
Sc199 O213 2.105 . S
Sc199 O215 2.105 1_556 S
Sc199 O219 2.105 . S
Sc200 O201 2.025 . S
Sc200 O210 2.105 . S
Sc200 O212 2.105 . S
Sc200 O216 2.105 . S
Sc200 O218 2.105 . S
O201 Sc198 2.025 . S
O201 Sc199 2.025 . S
O201 Sc200 2.025 . S
C202 O208 1.268 . S
C202 O218 1.268 . S
C203 O209 1.268 . S
C203 O217 1.268 . S
C204 O210 1.268 . S
C204 O219 1.268 . S
C205 O211 1.268 . S
C205 O215 1.268 . S
C206 O212 1.268 1_554 S
C206 O214 1.268 . S
C207 O213 1.268 1_554 S
C207 O216 1.268 1_554 S
O208 Sc198 2.105 . S
O208 C202 1.268 . S
O209 Sc199 2.105 . S
O209 C203 1.268 . S
O210 Sc200 2.105 . S
O210 C204 1.268 . S
O211 Sc198 2.105 1_554 S
O211 C205 1.268 . S
O212 Sc200 2.105 . S
O212 C206 1.268 1_556 S
O213 Sc199 2.105 . S
O213 C207 1.268 1_556 S
O214 Sc198 2.105 1_554 S
O214 C206 1.268 . S
O215 Sc199 2.105 1_554 S
O215 C205 1.268 . S
O216 Sc200 2.105 . S
O216 C207 1.268 1_556 S
O217 Sc198 2.105 . S
O217 C203 1.268 . S
O218 Sc200 2.105 . S
O218 C202 1.268 . S
O219 Sc199 2.105 . S
O219 C204 1.268 . S
Sc220 O223 2.025 . S
Sc220 O230 2.105 . S
Sc220 O233 2.105 . S
Sc220 O236 2.105 . S
Sc220 O239 2.105 . S
Sc221 O223 2.025 . S
Sc221 O231 2.105 . S
Sc221 O235 2.105 . S
Sc221 O237 2.105 . S
Sc221 O241 2.105 . S
Sc222 O223 2.025 . S
Sc222 O232 2.105 . S
Sc222 O234 2.105 . S
Sc222 O238 2.105 . S
Sc222 O240 2.105 . S
O223 Sc220 2.025 . S
O223 Sc221 2.025 . S
O223 Sc222 2.025 . S
C224 O230 1.268 . S
C224 O240 1.268 . S
C225 O231 1.268 . S
C225 O239 1.268 . S
C226 O232 1.268 . S
C226 O241 1.268 . S
C227 O233 1.268 . S
C227 O237 1.268 . S
C228 O234 1.268 . S
C228 O236 1.268 . S
C229 O235 1.268 . S
C229 O238 1.268 . S
O230 Sc220 2.105 . S
O230 C224 1.268 . S
O231 Sc221 2.105 . S
O231 C225 1.268 . S
O232 Sc222 2.105 . S
O232 C226 1.268 . S
O233 Sc220 2.105 . S
O233 C227 1.268 . S
O234 Sc222 2.105 . S
O234 C228 1.268 . S
O235 Sc221 2.105 . S
O235 C229 1.268 . S
O236 Sc220 2.105 . S
O236 C228 1.268 . S
O237 Sc221 2.105 . S
O237 C227 1.268 . S
O238 Sc222 2.105 . S
O238 C229 1.268 . S
O239 Sc220 2.105 . S
O239 C225 1.268 . S
O240 Sc222 2.105 . S
O240 C224 1.268 . S
O241 Sc221 2.105 . S
O241 C226 1.268 . S
Sc242 O245 2.025 . S
Sc242 O252 2.105 . S
Sc242 O255 2.105 . S
Sc242 O258 2.105 . S
Sc242 O261 2.105 . S
Sc243 O245 2.025 . S
Sc243 O253 2.105 . S
Sc243 O257 2.105 . S
Sc243 O259 2.105 . S
Sc243 O263 2.105 . S
Sc244 O245 2.025 . S
Sc244 O254 2.105 . S
Sc244 O256 2.105 . S
Sc244 O260 2.105 . S
Sc244 O262 2.105 . S
O245 Sc242 2.025 . S
O245 Sc243 2.025 . S
O245 Sc244 2.025 . S
C246 O252 1.268 . S
C246 O262 1.268 . S
C247 O253 1.268 . S
C247 O261 1.268 . S
C248 O254 1.268 . S
C248 O263 1.268 . S
C249 O255 1.268 . S
C249 O259 1.268 . S
C250 O256 1.268 . S
C250 O258 1.268 . S
C251 O257 1.268 . S
C251 O260 1.268 . S
O252 Sc242 2.105 . S
O252 C246 1.268 . S
O253 Sc243 2.105 . S
O253 C247 1.268 . S
O254 Sc244 2.105 . S
O254 C248 1.268 . S
O255 Sc242 2.105 . S
O255 C249 1.268 . S
O256 Sc244 2.105 . S
O256 C250 1.268 . S
O257 Sc243 2.105 . S
O257 C251 1.268 . S
O258 Sc242 2.105 . S
O258 C250 1.268 . S
O259 Sc243 2.105 . S
O259 C249 1.268 . S
O260 Sc244 2.105 . S
O260 C251 1.268 . S
O261 Sc242 2.105 . S
O261 C247 1.268 . S
O262 Sc244 2.105 . S
O262 C246 1.268 . S
O263 Sc243 2.105 . S
O263 C248 1.268 . S
Sc264 O267 2.025 . S
Sc264 O274 2.105 1_655 S
Sc264 O277 2.105 . S
Sc264 O280 2.105 . S
Sc264 O283 2.105 1_655 S
Sc265 O267 2.025 . S
Sc265 O275 2.105 1_655 S
Sc265 O279 2.105 . S
Sc265 O281 2.105 . S
Sc265 O285 2.105 . S
Sc266 O267 2.025 . S
Sc266 O276 2.105 . S
Sc266 O278 2.105 . S
Sc266 O282 2.105 . S
Sc266 O284 2.105 . S
O267 Sc264 2.025 . S
O267 Sc265 2.025 . S
O267 Sc266 2.025 . S
C268 O274 1.268 . S
C268 O284 1.268 1_455 S
C269 O275 1.268 . S
C269 O283 1.268 . S
C270 O276 1.268 1_455 S
C270 O285 1.268 1_455 S
C271 O277 1.268 . S
C271 O281 1.268 . S
C272 O278 1.268 . S
C272 O280 1.268 . S
C273 O279 1.268 . S
C273 O282 1.268 . S
O274 Sc264 2.105 1_455 S
O274 C268 1.268 . S
O275 Sc265 2.105 1_455 S
O275 C269 1.268 . S
O276 Sc266 2.105 . S
O276 C270 1.268 1_655 S
O277 Sc264 2.105 . S
O277 C271 1.268 . S
O278 Sc266 2.105 . S
O278 C272 1.268 . S
O279 Sc265 2.105 . S
O279 C273 1.268 . S
O280 Sc264 2.105 . S
O280 C272 1.268 . S
O281 Sc265 2.105 . S
O281 C271 1.268 . S
O282 Sc266 2.105 . S
O282 C273 1.268 . S
O283 Sc264 2.105 1_455 S
O283 C269 1.268 . S
O284 Sc266 2.105 . S
O284 C268 1.268 1_655 S
O285 Sc265 2.105 . S
O285 C270 1.268 1_655 S
Sc286 O289 2.025 . S
Sc286 O296 2.105 . S
Sc286 O299 2.105 . S
Sc286 O302 2.105 . S
Sc286 O305 2.105 . S
Sc287 O289 2.025 . S
Sc287 O297 2.105 . S
Sc287 O301 2.105 . S
Sc287 O303 2.105 . S
Sc287 O307 2.105 . S
Sc288 O289 2.025 . S
Sc288 O298 2.105 . S
Sc288 O300 2.105 . S
Sc288 O304 2.105 . S
Sc288 O306 2.105 . S
O289 Sc286 2.025 . S
O289 Sc287 2.025 . S
O289 Sc288 2.025 . S
C290 O296 1.268 . S
C290 O306 1.268 . S
C291 O297 1.268 . S
C291 O305 1.268 . S
C292 O298 1.268 . S
C292 O307 1.268 . S
C293 O299 1.268 . S
C293 O303 1.268 . S
C294 O300 1.268 . S
C294 O302 1.268 . S
C295 O301 1.268 . S
C295 O304 1.268 . S
O296 Sc286 2.105 . S
O296 C290 1.268 . S
O297 Sc287 2.105 . S
O297 C291 1.268 . S
O298 Sc288 2.105 . S
O298 C292 1.268 . S
O299 Sc286 2.105 . S
O299 C293 1.268 . S
O300 Sc288 2.105 . S
O300 C294 1.268 . S
O301 Sc287 2.105 . S
O301 C295 1.268 . S
O302 Sc286 2.105 . S
O302 C294 1.268 . S
O303 Sc287 2.105 . S
O303 C293 1.268 . S
O304 Sc288 2.105 . S
O304 C295 1.268 . S
O305 Sc286 2.105 . S
O305 C291 1.268 . S
O306 Sc288 2.105 . S
O306 C290 1.268 . S
O307 Sc287 2.105 . S
O307 C292 1.268 . S
Sc308 O311 2.025 . S
Sc308 O318 2.105 . S
Sc308 O321 2.105 . S
Sc308 O324 2.105 . S
Sc308 O327 2.105 . S
Sc309 O311 2.025 . S
Sc309 O319 2.105 . S
Sc309 O323 2.105 . S
Sc309 O325 2.105 . S
Sc309 O329 2.105 . S
Sc310 O311 2.025 . S
Sc310 O320 2.105 . S
Sc310 O322 2.105 . S
Sc310 O326 2.105 . S
Sc310 O328 2.105 . S
O311 Sc308 2.025 . S
O311 Sc309 2.025 . S
O311 Sc310 2.025 . S
C312 O318 1.268 . S
C312 O328 1.268 . S
C313 O319 1.268 . S
C313 O327 1.268 . S
C314 O320 1.268 . S
C314 O329 1.268 . S
C315 O321 1.268 . S
C315 O325 1.268 . S
C316 O322 1.268 . S
C316 O324 1.268 . S
C317 O323 1.268 . S
C317 O326 1.268 . S
O318 Sc308 2.105 . S
O318 C312 1.268 . S
O319 Sc309 2.105 . S
O319 C313 1.268 . S
O320 Sc310 2.105 . S
O320 C314 1.268 . S
O321 Sc308 2.105 . S
O321 C315 1.268 . S
O322 Sc310 2.105 . S
O322 C316 1.268 . S
O323 Sc309 2.105 . S
O323 C317 1.268 . S
O324 Sc308 2.105 . S
O324 C316 1.268 . S
O325 Sc309 2.105 . S
O325 C315 1.268 . S
O326 Sc310 2.105 . S
O326 C317 1.268 . S
O327 Sc308 2.105 . S
O327 C313 1.268 . S
O328 Sc310 2.105 . S
O328 C312 1.268 . S
O329 Sc309 2.105 . S
O329 C314 1.268 . S
Sc330 O333 2.025 . S
Sc330 O340 2.105 1_455 S
Sc330 O343 2.105 . S
Sc330 O346 2.105 . S
Sc330 O349 2.105 1_455 S
Sc331 O333 2.025 . S
Sc331 O341 2.105 1_455 S
Sc331 O345 2.105 . S
Sc331 O347 2.105 . S
Sc331 O351 2.105 . S
Sc332 O333 2.025 . S
Sc332 O342 2.105 . S
Sc332 O344 2.105 . S
Sc332 O348 2.105 . S
Sc332 O350 2.105 . S
O333 Sc330 2.025 . S
O333 Sc331 2.025 . S
O333 Sc332 2.025 . S
C334 O340 1.268 . S
C334 O350 1.268 1_655 S
C335 O341 1.268 . S
C335 O349 1.268 . S
C336 O342 1.268 1_655 S
C336 O351 1.268 1_655 S
C337 O343 1.268 . S
C337 O347 1.268 . S
C338 O344 1.268 . S
C338 O346 1.268 . S
C339 O345 1.268 . S
C339 O348 1.268 . S
O340 Sc330 2.105 1_655 S
O340 C334 1.268 . S
O341 Sc331 2.105 1_655 S
O341 C335 1.268 . S
O342 Sc332 2.105 . S
O342 C336 1.268 1_455 S
O343 Sc330 2.105 . S
O343 C337 1.268 . S
O344 Sc332 2.105 . S
O344 C338 1.268 . S
O345 Sc331 2.105 . S
O345 C339 1.268 . S
O346 Sc330 2.105 . S
O346 C338 1.268 . S
O347 Sc331 2.105 . S
O347 C337 1.268 . S
O348 Sc332 2.105 . S
O348 C339 1.268 . S
O349 Sc330 2.105 1_655 S
O349 C335 1.268 . S
O350 Sc332 2.105 . S
O350 C334 1.268 1_455 S
O351 Sc331 2.105 . S
O351 C336 1.268 1_455 S
Sc352 O355 2.025 . S
Sc352 O362 2.105 . S
Sc352 O365 2.105 . S
Sc352 O368 2.105 . S
Sc352 O371 2.105 . S
Sc353 O355 2.025 . S
Sc353 O363 2.105 . S
Sc353 O367 2.105 1_565 S
Sc353 O369 2.105 . S
Sc353 O373 2.105 . S
Sc354 O355 2.025 . S
Sc354 O364 2.105 . S
Sc354 O366 2.105 1_565 S
Sc354 O370 2.105 1_565 S
Sc354 O372 2.105 . S
O355 Sc352 2.025 . S
O355 Sc353 2.025 . S
O355 Sc354 2.025 . S
C356 O362 1.268 . S
C356 O372 1.268 . S
C357 O363 1.268 . S
C357 O371 1.268 . S
C358 O364 1.268 . S
C358 O373 1.268 . S
C359 O365 1.268 1_545 S
C359 O369 1.268 1_545 S
C360 O366 1.268 . S
C360 O368 1.268 1_545 S
C361 O367 1.268 . S
C361 O370 1.268 . S
O362 Sc352 2.105 . S
O362 C356 1.268 . S
O363 Sc353 2.105 . S
O363 C357 1.268 . S
O364 Sc354 2.105 . S
O364 C358 1.268 . S
O365 Sc352 2.105 . S
O365 C359 1.268 1_565 S
O366 Sc354 2.105 1_545 S
O366 C360 1.268 . S
O367 Sc353 2.105 1_545 S
O367 C361 1.268 . S
O368 Sc352 2.105 . S
O368 C360 1.268 1_565 S
O369 Sc353 2.105 . S
O369 C359 1.268 1_565 S
O370 Sc354 2.105 1_545 S
O370 C361 1.268 . S
O371 Sc352 2.105 . S
O371 C357 1.268 . S
O372 Sc354 2.105 . S
O372 C356 1.268 . S
O373 Sc353 2.105 . S
O373 C358 1.268 . S
Sc374 O377 2.025 . S
Sc374 O384 2.105 1_545 S
Sc374 O387 2.105 . S
Sc374 O390 2.105 . S
Sc374 O393 2.105 1_545 S
Sc375 O377 2.025 . S
Sc375 O385 2.105 1_545 S
Sc375 O389 2.105 . S
Sc375 O391 2.105 . S
Sc375 O395 2.105 . S
Sc376 O377 2.025 . S
Sc376 O386 2.105 . S
Sc376 O388 2.105 . S
Sc376 O392 2.105 . S
Sc376 O394 2.105 . S
O377 Sc374 2.025 . S
O377 Sc375 2.025 . S
O377 Sc376 2.025 . S
C378 O384 1.268 . S
C378 O394 1.268 1_565 S
C379 O385 1.268 . S
C379 O393 1.268 . S
C380 O386 1.268 1_565 S
C380 O395 1.268 1_565 S
C381 O387 1.268 . S
C381 O391 1.268 . S
C382 O388 1.268 . S
C382 O390 1.268 . S
C383 O389 1.268 . S
C383 O392 1.268 . S
O384 Sc374 2.105 1_565 S
O384 C378 1.268 . S
O385 Sc375 2.105 1_565 S
O385 C379 1.268 . S
O386 Sc376 2.105 . S
O386 C380 1.268 1_545 S
O387 Sc374 2.105 . S
O387 C381 1.268 . S
O388 Sc376 2.105 . S
O388 C382 1.268 . S
O389 Sc375 2.105 . S
O389 C383 1.268 . S
O390 Sc374 2.105 . S
O390 C382 1.268 . S
O391 Sc375 2.105 . S
O391 C381 1.268 . S
O392 Sc376 2.105 . S
O392 C383 1.268 . S
O393 Sc374 2.105 1_565 S
O393 C379 1.268 . S
O394 Sc376 2.105 . S
O394 C378 1.268 1_545 S
O395 Sc375 2.105 . S
O395 C380 1.268 1_545 S
Sc396 O399 2.025 . S
Sc396 O406 2.105 . S
Sc396 O409 2.105 . S
Sc396 O412 2.105 . S
Sc396 O415 2.105 . S
Sc397 O399 2.025 . S
Sc397 O407 2.105 . S
Sc397 O411 2.105 . S
Sc397 O413 2.105 . S
Sc397 O417 2.105 . S
Sc398 O399 2.025 . S
Sc398 O408 2.105 . S
Sc398 O410 2.105 . S
Sc398 O414 2.105 . S
Sc398 O416 2.105 . S
O399 Sc396 2.025 . S
O399 Sc397 2.025 . S
O399 Sc398 2.025 . S
C400 O406 1.268 . S
C400 O416 1.268 . S
C401 O407 1.268 . S
C401 O415 1.268 . S
C402 O408 1.268 . S
C402 O417 1.268 . S
C403 O409 1.268 . S
C403 O413 1.268 . S
C404 O410 1.268 . S
C404 O412 1.268 . S
C405 O411 1.268 . S
C405 O414 1.268 . S
O406 Sc396 2.105 . S
O406 C400 1.268 . S
O407 Sc397 2.105 . S
O407 C401 1.268 . S
O408 Sc398 2.105 . S
O408 C402 1.268 . S
O409 Sc396 2.105 . S
O409 C403 1.268 . S
O410 Sc398 2.105 . S
O410 C404 1.268 . S
O411 Sc397 2.105 . S
O411 C405 1.268 . S
O412 Sc396 2.105 . S
O412 C404 1.268 . S
O413 Sc397 2.105 . S
O413 C403 1.268 . S
O414 Sc398 2.105 . S
O414 C405 1.268 . S
O415 Sc396 2.105 . S
O415 C401 1.268 . S
O416 Sc398 2.105 . S
O416 C400 1.268 . S
O417 Sc397 2.105 . S
O417 C402 1.268 . S
Sc418 O421 2.025 . S
Sc418 O428 2.105 . S
Sc418 O431 2.105 . S
Sc418 O434 2.105 . S
Sc418 O437 2.105 . S
Sc419 O421 2.025 . S
Sc419 O429 2.105 . S
Sc419 O433 2.105 . S
Sc419 O435 2.105 . S
Sc419 O439 2.105 . S
Sc420 O421 2.025 . S
Sc420 O430 2.105 . S
Sc420 O432 2.105 . S
Sc420 O436 2.105 . S
Sc420 O438 2.105 . S
O421 Sc418 2.025 . S
O421 Sc419 2.025 . S
O421 Sc420 2.025 . S
C422 O428 1.268 . S
C422 O438 1.268 . S
C423 O429 1.268 . S
C423 O437 1.268 . S
C424 O430 1.268 . S
C424 O439 1.268 . S
C425 O431 1.268 . S
C425 O435 1.268 . S
C426 O432 1.268 . S
C426 O434 1.268 . S
C427 O433 1.268 . S
C427 O436 1.268 . S
O428 Sc418 2.105 . S
O428 C422 1.268 . S
O429 Sc419 2.105 . S
O429 C423 1.268 . S
O430 Sc420 2.105 . S
O430 C424 1.268 . S
O431 Sc418 2.105 . S
O431 C425 1.268 . S
O432 Sc420 2.105 . S
O432 C426 1.268 . S
O433 Sc419 2.105 . S
O433 C427 1.268 . S
O434 Sc418 2.105 . S
O434 C426 1.268 . S
O435 Sc419 2.105 . S
O435 C425 1.268 . S
O436 Sc420 2.105 . S
O436 C427 1.268 . S
O437 Sc418 2.105 . S
O437 C423 1.268 . S
O438 Sc420 2.105 . S
O438 C422 1.268 . S
O439 Sc419 2.105 . S
O439 C424 1.268 . S
Sc440 O443 2.025 . S
Sc440 O450 2.105 . S
Sc440 O453 2.105 . S
Sc440 O456 2.105 . S
Sc440 O459 2.105 . S
Sc441 O443 2.025 . S
Sc441 O451 2.105 . S
Sc441 O455 2.105 1_556 S
Sc441 O457 2.105 . S
Sc441 O461 2.105 . S
Sc442 O443 2.025 . S
Sc442 O452 2.105 . S
Sc442 O454 2.105 1_556 S
Sc442 O458 2.105 1_556 S
Sc442 O460 2.105 . S
O443 Sc440 2.025 . S
O443 Sc441 2.025 . S
O443 Sc442 2.025 . S
C444 O450 1.268 . S
C444 O460 1.268 . S
C445 O451 1.268 . S
C445 O459 1.268 . S
C446 O452 1.268 . S
C446 O461 1.268 . S
C447 O453 1.268 1_554 S
C447 O457 1.268 1_554 S
C448 O454 1.268 . S
C448 O456 1.268 1_554 S
C449 O455 1.268 . S
C449 O458 1.268 . S
O450 Sc440 2.105 . S
O450 C444 1.268 . S
O451 Sc441 2.105 . S
O451 C445 1.268 . S
O452 Sc442 2.105 . S
O452 C446 1.268 . S
O453 Sc440 2.105 . S
O453 C447 1.268 1_556 S
O454 Sc442 2.105 1_554 S
O454 C448 1.268 . S
O455 Sc441 2.105 1_554 S
O455 C449 1.268 . S
O456 Sc440 2.105 . S
O456 C448 1.268 1_556 S
O457 Sc441 2.105 . S
O457 C447 1.268 1_556 S
O458 Sc442 2.105 1_554 S
O458 C449 1.268 . S
O459 Sc440 2.105 . S
O459 C445 1.268 . S
O460 Sc442 2.105 . S
O460 C444 1.268 . S
O461 Sc441 2.105 . S
O461 C446 1.268 . S
Sc462 O465 2.025 . S
Sc462 O472 2.105 1_554 S
Sc462 O475 2.105 . S
Sc462 O478 2.105 . S
Sc462 O481 2.105 1_554 S
Sc463 O465 2.025 . S
Sc463 O473 2.105 1_554 S
Sc463 O477 2.105 . S
Sc463 O479 2.105 . S
Sc463 O483 2.105 . S
Sc464 O465 2.025 . S
Sc464 O474 2.105 . S
Sc464 O476 2.105 . S
Sc464 O480 2.105 . S
Sc464 O482 2.105 . S
O465 Sc462 2.025 . S
O465 Sc463 2.025 . S
O465 Sc464 2.025 . S
C466 O472 1.268 . S
C466 O482 1.268 1_556 S
C467 O473 1.268 . S
C467 O481 1.268 . S
C468 O474 1.268 1_556 S
C468 O483 1.268 1_556 S
C469 O475 1.268 . S
C469 O479 1.268 . S
C470 O476 1.268 . S
C470 O478 1.268 . S
C471 O477 1.268 . S
C471 O480 1.268 . S
O472 Sc462 2.105 1_556 S
O472 C466 1.268 . S
O473 Sc463 2.105 1_556 S
O473 C467 1.268 . S
O474 Sc464 2.105 . S
O474 C468 1.268 1_554 S
O475 Sc462 2.105 . S
O475 C469 1.268 . S
O476 Sc464 2.105 . S
O476 C470 1.268 . S
O477 Sc463 2.105 . S
O477 C471 1.268 . S
O478 Sc462 2.105 . S
O478 C470 1.268 . S
O479 Sc463 2.105 . S
O479 C469 1.268 . S
O480 Sc464 2.105 . S
O480 C471 1.268 . S
O481 Sc462 2.105 1_556 S
O481 C467 1.268 . S
O482 Sc464 2.105 . S
O482 C466 1.268 1_554 S
O483 Sc463 2.105 . S
O483 C468 1.268 1_554 S
Sc484 O487 2.025 . S
Sc484 O494 2.105 . S
Sc484 O497 2.105 . S
Sc484 O500 2.105 . S
Sc484 O503 2.105 . S
Sc485 O487 2.025 . S
Sc485 O495 2.105 . S
Sc485 O499 2.105 . S
Sc485 O501 2.105 . S
Sc485 O505 2.105 . S
Sc486 O487 2.025 . S
Sc486 O496 2.105 . S
Sc486 O498 2.105 . S
Sc486 O502 2.105 . S
Sc486 O504 2.105 . S
O487 Sc484 2.025 . S
O487 Sc485 2.025 . S
O487 Sc486 2.025 . S
C488 O494 1.268 . S
C488 O504 1.268 . S
C489 O495 1.268 . S
C489 O503 1.268 . S
C490 O496 1.268 . S
C490 O505 1.268 . S
C491 O497 1.268 . S
C491 O501 1.268 . S
C492 O498 1.268 . S
C492 O500 1.268 . S
C493 O499 1.268 . S
C493 O502 1.268 . S
O494 Sc484 2.105 . S
O494 C488 1.268 . S
O495 Sc485 2.105 . S
O495 C489 1.268 . S
O496 Sc486 2.105 . S
O496 C490 1.268 . S
O497 Sc484 2.105 . S
O497 C491 1.268 . S
O498 Sc486 2.105 . S
O498 C492 1.268 . S
O499 Sc485 2.105 . S
O499 C493 1.268 . S
O500 Sc484 2.105 . S
O500 C492 1.268 . S
O501 Sc485 2.105 . S
O501 C491 1.268 . S
O502 Sc486 2.105 . S
O502 C493 1.268 . S
O503 Sc484 2.105 . S
O503 C489 1.268 . S
O504 Sc486 2.105 . S
O504 C488 1.268 . S
O505 Sc485 2.105 . S
O505 C490 1.268 . S
Sc506 O509 2.025 . S
Sc506 O516 2.105 . S
Sc506 O519 2.105 . S
Sc506 O522 2.105 . S
Sc506 O525 2.105 . S
Sc507 O509 2.025 . S
Sc507 O517 2.105 . S
Sc507 O521 2.105 . S
Sc507 O523 2.105 . S
Sc507 O527 2.105 . S
Sc508 O509 2.025 . S
Sc508 O518 2.105 . S
Sc508 O520 2.105 . S
Sc508 O524 2.105 . S
Sc508 O526 2.105 . S
O509 Sc506 2.025 . S
O509 Sc507 2.025 . S
O509 Sc508 2.025 . S
C510 O516 1.268 . S
C510 O526 1.268 . S
C511 O517 1.268 . S
C511 O525 1.268 . S
C512 O518 1.268 . S
C512 O527 1.268 . S
C513 O519 1.268 . S
C513 O523 1.268 . S
C514 O520 1.268 . S
C514 O522 1.268 . S
C515 O521 1.268 . S
C515 O524 1.268 . S
O516 Sc506 2.105 . S
O516 C510 1.268 . S
O517 Sc507 2.105 . S
O517 C511 1.268 . S
O518 Sc508 2.105 . S
O518 C512 1.268 . S
O519 Sc506 2.105 . S
O519 C513 1.268 . S
O520 Sc508 2.105 . S
O520 C514 1.268 . S
O521 Sc507 2.105 . S
O521 C515 1.268 . S
O522 Sc506 2.105 . S
O522 C514 1.268 . S
O523 Sc507 2.105 . S
O523 C513 1.268 . S
O524 Sc508 2.105 . S
O524 C515 1.268 . S
O525 Sc506 2.105 . S
O525 C511 1.268 . S
O526 Sc508 2.105 . S
O526 C510 1.268 . S
O527 Sc507 2.105 . S
O527 C512 1.268 . S
C528 C529 1.363 . S
C528 C534 1.379 . S
C528 N536 1.356 . S
C529 C528 1.363 . S
C529 C535 1.363 . S
C530 C531 1.363 . S
C530 C535 1.379 . S
C530 N537 1.356 . S
C531 C530 1.363 . S
C531 C534 1.363 . S
N532 C534 1.356 . S
N532 H544 0.984 . S
N532 H545 0.985 . S
N533 C535 1.356 . S
N533 H538 0.984 . S
N533 H539 0.985 . S
C534 C528 1.379 . S
C534 C531 1.363 . S
C534 N532 1.356 . S
C535 C529 1.363 . S
C535 C530 1.379 . S
C535 N533 1.356 . S
N536 C528 1.356 . S
N536 H542 0.984 . S
N536 H543 0.984 . S
N537 C530 1.356 . S
N537 H540 0.984 . S
N537 H541 0.985 . S
H538 N533 0.984 . S
H539 N533 0.985 . S
H540 N537 0.984 . S
H541 N537 0.985 . S
H542 N536 0.984 . S
H543 N536 0.984 . S
H544 N532 0.984 . S
H545 N532 0.985 . S
C546 C547 1.363 . S
C546 C552 1.379 . S
C546 N554 1.356 . S
C547 C546 1.363 . S
C547 C553 1.363 . S
C548 C549 1.363 . S
C548 C553 1.379 . S
C548 N555 1.356 . S
C549 C548 1.363 . S
C549 C552 1.363 . S
N550 C552 1.356 . S
N550 H562 0.984 . S
N550 H563 0.985 . S
N551 C553 1.356 . S
N551 H556 0.984 . S
N551 H557 0.985 . S
C552 C546 1.379 . S
C552 C549 1.363 . S
C552 N550 1.356 . S
C553 C547 1.363 . S
C553 C548 1.379 . S
C553 N551 1.356 . S
N554 C546 1.356 . S
N554 H560 0.984 . S
N554 H561 0.984 . S
N555 C548 1.356 . S
N555 H558 0.984 . S
N555 H559 0.985 . S
H556 N551 0.984 . S
H557 N551 0.985 . S
H558 N555 0.984 . S
H559 N555 0.985 . S
H560 N554 0.984 . S
H561 N554 0.984 . S
H562 N550 0.984 . S
H563 N550 0.985 . S
C564 C565 1.363 . S
C564 C570 1.379 . S
C564 N572 1.356 . S
C565 C564 1.363 . S
C565 C571 1.363 . S
C566 C567 1.363 . S
C566 C571 1.379 . S
C566 N573 1.356 . S
C567 C566 1.363 . S
C567 C570 1.363 . S
N568 C570 1.356 . S
N568 H580 0.984 . S
N568 H581 0.985 . S
N569 C571 1.356 . S
N569 H574 0.984 . S
N569 H575 0.985 . S
C570 C564 1.379 . S
C570 C567 1.363 . S
C570 N568 1.356 . S
C571 C565 1.363 . S
C571 C566 1.379 . S
C571 N569 1.356 . S
N572 C564 1.356 . S
N572 H578 0.984 . S
N572 H579 0.984 . S
N573 C566 1.356 . S
N573 H576 0.984 . S
N573 H577 0.985 . S
H574 N569 0.984 . S
H575 N569 0.985 . S
H576 N573 0.984 . S
H577 N573 0.985 . S
H578 N572 0.984 . S
H579 N572 0.984 . S
H580 N568 0.984 . S
H581 N568 0.985 . S
C582 C583 1.363 . S
C582 C588 1.379 . S
C582 N590 1.356 . S
C583 C582 1.363 . S
C583 C589 1.363 . S
C584 C585 1.363 . S
C584 C589 1.379 . S
C584 N591 1.356 . S
C585 C584 1.363 . S
C585 C588 1.363 . S
N586 C588 1.356 . S
N586 H598 0.984 . S
N586 H599 0.985 . S
N587 C589 1.356 . S
N587 H592 0.984 . S
N587 H593 0.985 . S
C588 C582 1.379 . S
C588 C585 1.363 . S
C588 N586 1.356 . S
C589 C583 1.363 . S
C589 C584 1.379 . S
C589 N587 1.356 . S
N590 C582 1.356 . S
N590 H596 0.984 . S
N590 H597 0.984 . S
N591 C584 1.356 . S
N591 H594 0.984 . S
N591 H595 0.985 . S
H592 N587 0.984 . S
H593 N587 0.985 . S
H594 N591 0.984 . S
H595 N591 0.985 . S
H596 N590 0.984 . S
H597 N590 0.984 . S
H598 N586 0.984 . S
H599 N586 0.985 . S
C600 C601 1.363 . S
C600 C606 1.379 . S
C600 N608 1.356 . S
C601 C600 1.363 . S
C601 C607 1.363 . S
C602 C603 1.363 . S
C602 C607 1.379 . S
C602 N609 1.356 . S
C603 C602 1.363 . S
C603 C606 1.363 . S
N604 C606 1.356 . S
N604 H616 0.984 . S
N604 H617 0.985 . S
N605 C607 1.356 . S
N605 H610 0.984 . S
N605 H611 0.985 . S
C606 C600 1.379 . S
C606 C603 1.363 . S
C606 N604 1.356 . S
C607 C601 1.363 . S
C607 C602 1.379 . S
C607 N605 1.356 . S
N608 C600 1.356 . S
N608 H614 0.984 . S
N608 H615 0.984 . S
N609 C602 1.356 . S
N609 H612 0.984 . S
N609 H613 0.985 . S
H610 N605 0.984 . S
H611 N605 0.985 . S
H612 N609 0.984 . S
H613 N609 0.985 . S
H614 N608 0.984 . S
H615 N608 0.984 . S
H616 N604 0.984 . S
H617 N604 0.985 . S
C618 C619 1.363 . S
C618 C624 1.379 . S
C618 N626 1.356 . S
C619 C618 1.363 . S
C619 C625 1.363 . S
C620 C621 1.363 . S
C620 C625 1.379 . S
C620 N627 1.356 . S
C621 C620 1.363 . S
C621 C624 1.363 . S
N622 C624 1.356 . S
N622 H634 0.984 . S
N622 H635 0.985 . S
N623 C625 1.356 . S
N623 H628 0.984 . S
N623 H629 0.985 . S
C624 C618 1.379 . S
C624 C621 1.363 . S
C624 N622 1.356 . S
C625 C619 1.363 . S
C625 C620 1.379 . S
C625 N623 1.356 . S
N626 C618 1.356 . S
N626 H632 0.984 . S
N626 H633 0.984 . S
N627 C620 1.356 . S
N627 H630 0.984 . S
N627 H631 0.985 . S
H628 N623 0.984 . S
H629 N623 0.985 . S
H630 N627 0.984 . S
H631 N627 0.985 . S
H632 N626 0.984 . S
H633 N626 0.984 . S
H634 N622 0.984 . S
H635 N622 0.985 . S
C636 C637 1.363 . S
C636 C642 1.379 . S
C636 N644 1.356 . S
C637 C636 1.363 . S
C637 C643 1.363 . S
C638 C639 1.363 . S
C638 C643 1.379 . S
C638 N645 1.356 . S
C639 C638 1.363 . S
C639 C642 1.363 . S
N640 C642 1.356 . S
N640 H652 0.984 . S
N640 H653 0.985 . S
N641 C643 1.356 . S
N641 H646 0.984 . S
N641 H647 0.985 . S
C642 C636 1.379 . S
C642 C639 1.363 . S
C642 N640 1.356 . S
C643 C637 1.363 . S
C643 C638 1.379 . S
C643 N641 1.356 . S
N644 C636 1.356 . S
N644 H650 0.984 . S
N644 H651 0.984 . S
N645 C638 1.356 . S
N645 H648 0.984 . S
N645 H649 0.985 . S
H646 N641 0.984 . S
H647 N641 0.985 . S
H648 N645 0.984 . S
H649 N645 0.985 . S
H650 N644 0.984 . S
H651 N644 0.984 . S
H652 N640 0.984 . S
H653 N640 0.985 . S
C654 C655 1.363 . S
C654 C660 1.379 . S
C654 N662 1.356 . S
C655 C654 1.363 . S
C655 C661 1.363 . S
C656 C657 1.363 . S
C656 C661 1.379 . S
C656 N663 1.356 . S
C657 C656 1.363 . S
C657 C660 1.363 . S
N658 C660 1.356 . S
N658 H670 0.984 . S
N658 H671 0.985 . S
N659 C661 1.356 . S
N659 H664 0.984 . S
N659 H665 0.985 . S
C660 C654 1.379 . S
C660 C657 1.363 . S
C660 N658 1.356 . S
C661 C655 1.363 . S
C661 C656 1.379 . S
C661 N659 1.356 . S
N662 C654 1.356 . S
N662 H668 0.984 . S
N662 H669 0.984 . S
N663 C656 1.356 . S
N663 H666 0.984 . S
N663 H667 0.983 . S
H664 N659 0.984 . S
H665 N659 0.985 . S
H666 N663 0.984 . S
H667 N663 0.983 . S
H668 N662 0.984 . S
H669 N662 0.984 . S
H670 N658 0.984 . S
H671 N658 0.985 . S
C672 C673 1.363 . S
C672 C678 1.379 . S
C672 N680 1.356 . S
C673 C672 1.363 . S
C673 C679 1.363 . S
C674 C675 1.363 . S
C674 C679 1.379 . S
C674 N681 1.356 . S
C675 C674 1.363 . S
C675 C678 1.363 . S
N676 C678 1.356 . S
N676 H688 0.984 . S
N676 H689 0.985 . S
N677 C679 1.356 . S
N677 H682 0.984 . S
N677 H683 0.985 . S
C678 C672 1.379 . S
C678 C675 1.363 . S
C678 N676 1.356 . S
C679 C673 1.363 . S
C679 C674 1.379 . S
C679 N677 1.356 . S
N680 C672 1.356 . S
N680 H686 0.984 . S
N680 H687 0.984 . S
N681 C674 1.356 . S
N681 H684 0.984 . S
N681 H685 0.985 . S
H682 N677 0.984 . S
H683 N677 0.985 . S
H684 N681 0.984 . S
H685 N681 0.985 . S
H686 N680 0.984 . S
H687 N680 0.984 . S
H688 N676 0.984 . S
H689 N676 0.985 . S
C690 C691 1.363 . S
C690 C696 1.379 . S
C690 N698 1.356 . S
C691 C690 1.363 . S
C691 C697 1.363 . S
C692 C693 1.363 . S
C692 C697 1.379 . S
C692 N699 1.356 . S
C693 C692 1.363 . S
C693 C696 1.363 . S
N694 C696 1.356 . S
N694 H706 0.984 . S
N694 H707 0.985 . S
N695 C697 1.356 . S
N695 H700 0.984 . S
N695 H701 0.985 . S
C696 C690 1.379 . S
C696 C693 1.363 . S
C696 N694 1.356 . S
C697 C691 1.363 . S
C697 C692 1.379 . S
C697 N695 1.356 . S
N698 C690 1.356 . S
N698 H704 0.984 . S
N698 H705 0.984 . S
N699 C692 1.356 . S
N699 H702 0.984 . S
N699 H703 0.985 . S
H700 N695 0.984 . S
H701 N695 0.985 . S
H702 N699 0.984 . S
H703 N699 0.985 . S
H704 N698 0.984 . S
H705 N698 0.984 . S
H706 N694 0.984 . S
H707 N694 0.985 . S
C708 C709 1.363 . S
C708 C714 1.379 . S
C708 N716 1.356 . S
C709 C708 1.363 . S
C709 C715 1.363 . S
C710 C711 1.363 . S
C710 C715 1.379 . S
C710 N717 1.356 . S
C711 C710 1.363 . S
C711 C714 1.363 . S
N712 C714 1.356 . S
N712 H724 0.984 . S
N712 H725 0.985 . S
N713 C715 1.356 . S
N713 H718 0.984 . S
N713 H719 0.985 . S
C714 C708 1.379 . S
C714 C711 1.363 . S
C714 N712 1.356 . S
C715 C709 1.363 . S
C715 C710 1.379 . S
C715 N713 1.356 . S
N716 C708 1.356 . S
N716 H722 0.984 . S
N716 H723 0.984 . S
N717 C710 1.356 . S
N717 H720 0.984 . S
N717 H721 0.985 . S
H718 N713 0.984 . S
H719 N713 0.985 . S
H720 N717 0.984 . S
H721 N717 0.985 . S
H722 N716 0.984 . S
H723 N716 0.984 . S
H724 N712 0.984 . S
H725 N712 0.985 . S
C726 C727 1.363 . S
C726 C732 1.379 . S
C726 N734 1.356 . S
C727 C726 1.363 . S
C727 C733 1.363 . S
C728 C729 1.363 . S
C728 C733 1.379 . S
C728 N735 1.356 . S
C729 C728 1.363 . S
C729 C732 1.363 . S
N730 C732 1.356 . S
N730 H742 0.984 . S
N730 H743 0.985 . S
N731 C733 1.356 . S
N731 H736 0.984 . S
N731 H737 0.985 . S
C732 C726 1.379 . S
C732 C729 1.363 . S
C732 N730 1.356 . S
C733 C727 1.363 . S
C733 C728 1.379 . S
C733 N731 1.356 . S
N734 C726 1.356 . S
N734 H740 0.984 . S
N734 H741 0.984 . S
N735 C728 1.356 . S
N735 H738 0.984 . S
N735 H739 0.985 . S
H736 N731 0.984 . S
H737 N731 0.985 . S
H738 N735 0.984 . S
H739 N735 0.985 . S
H740 N734 0.984 . S
H741 N734 0.984 . S
H742 N730 0.984 . S
H743 N730 0.985 . S
C744 C745 1.363 . S
C744 C750 1.379 . S
C744 N752 1.356 . S
C745 C744 1.363 . S
C745 C751 1.363 . S
C746 C747 1.363 . S
C746 C751 1.379 . S
C746 N753 1.356 . S
C747 C746 1.363 . S
C747 C750 1.363 . S
N748 C750 1.356 . S
N748 H760 0.984 . S
N748 H761 0.985 . S
N749 C751 1.356 . S
N749 H754 0.984 . S
N749 H755 0.985 . S
C750 C744 1.379 . S
C750 C747 1.363 . S
C750 N748 1.356 . S
C751 C745 1.363 . S
C751 C746 1.379 . S
C751 N749 1.356 . S
N752 C744 1.356 . S
N752 H758 0.984 . S
N752 H759 0.984 . S
N753 C746 1.356 . S
N753 H756 0.984 . S
N753 H757 0.985 . S
H754 N749 0.984 . S
H755 N749 0.985 . S
H756 N753 0.984 . S
H757 N753 0.985 . S
H758 N752 0.984 . S
H759 N752 0.984 . S
H760 N748 0.984 . S
H761 N748 0.985 . S
C762 C763 1.363 . S
C762 C768 1.379 . S
C762 N770 1.356 . S
C763 C762 1.363 . S
C763 C769 1.363 . S
C764 C765 1.363 . S
C764 C769 1.379 . S
C764 N771 1.356 . S
C765 C764 1.363 . S
C765 C768 1.363 . S
N766 C768 1.356 . S
N766 H778 0.984 . S
N766 H779 0.985 . S
N767 C769 1.356 . S
N767 H772 0.984 . S
N767 H773 0.985 . S
C768 C762 1.379 . S
C768 C765 1.363 . S
C768 N766 1.356 . S
C769 C763 1.363 . S
C769 C764 1.379 . S
C769 N767 1.356 . S
N770 C762 1.356 . S
N770 H776 0.984 . S
N770 H777 0.984 . S
N771 C764 1.356 . S
N771 H774 0.984 . S
N771 H775 0.985 . S
H772 N767 0.984 . S
H773 N767 0.985 . S
H774 N771 0.984 . S
H775 N771 0.985 . S
H776 N770 0.984 . S
H777 N770 0.984 . S
H778 N766 0.984 . S
H779 N766 0.985 . S
C780 C781 1.363 . S
C780 C786 1.379 . S
C780 N788 1.356 . S
C781 C780 1.363 . S
C781 C787 1.363 . S
C782 C783 1.363 . S
C782 C787 1.379 . S
C782 N789 1.356 . S
C783 C782 1.363 . S
C783 C786 1.363 . S
N784 C786 1.356 . S
N784 H796 0.984 . S
N784 H797 0.985 . S
N785 C787 1.356 . S
N785 H790 0.984 . S
N785 H791 0.985 . S
C786 C780 1.379 . S
C786 C783 1.363 . S
C786 N784 1.356 . S
C787 C781 1.363 . S
C787 C782 1.379 . S
C787 N785 1.356 . S
N788 C780 1.356 . S
N788 H794 0.984 . S
N788 H795 0.984 . S
N789 C782 1.356 . S
N789 H792 0.984 . S
N789 H793 0.985 1_565 S
H790 N785 0.984 . S
H791 N785 0.985 . S
H792 N789 0.984 . S
H793 N789 0.985 1_545 S
H794 N788 0.984 . S
H795 N788 0.984 . S
H796 N784 0.984 . S
H797 N784 0.985 . S
C798 C799 1.363 . S
C798 C804 1.379 . S
C798 N806 1.356 . S
C799 C798 1.363 . S
C799 C805 1.363 . S
C800 C801 1.363 . S
C800 C805 1.379 . S
C800 N807 1.356 . S
C801 C800 1.363 . S
C801 C804 1.363 . S
N802 C804 1.356 . S
N802 H814 0.984 . S
N802 H815 0.985 . S
N803 C805 1.356 . S
N803 H808 0.984 . S
N803 H809 0.985 . S
C804 C798 1.379 . S
C804 C801 1.363 . S
C804 N802 1.356 . S
C805 C799 1.363 . S
C805 C800 1.379 . S
C805 N803 1.356 . S
N806 C798 1.356 . S
N806 H812 0.984 . S
N806 H813 0.984 . S
N807 C800 1.356 . S
N807 H810 0.984 . S
N807 H811 0.985 . S
H808 N803 0.984 . S
H809 N803 0.985 . S
H810 N807 0.984 . S
H811 N807 0.985 . S
H812 N806 0.984 . S
H813 N806 0.984 . S
H814 N802 0.984 . S
H815 N802 0.985 . S
C816 C817 1.363 . S
C816 C822 1.379 . S
C816 N824 1.356 . S
C817 C816 1.363 . S
C817 C823 1.363 . S
C818 C819 1.363 . S
C818 C823 1.379 . S
C818 N825 1.356 . S
C819 C818 1.363 . S
C819 C822 1.363 . S
N820 C822 1.356 . S
N820 H832 0.984 . S
N820 H833 0.985 . S
N821 C823 1.356 . S
N821 H826 0.984 . S
N821 H827 0.985 . S
C822 C816 1.379 . S
C822 C819 1.363 . S
C822 N820 1.356 . S
C823 C817 1.363 . S
C823 C818 1.379 . S
C823 N821 1.356 . S
N824 C816 1.356 . S
N824 H830 0.984 . S
N824 H831 0.984 . S
N825 C818 1.356 . S
N825 H828 0.984 . S
N825 H829 0.985 . S
H826 N821 0.984 . S
H827 N821 0.985 . S
H828 N825 0.984 . S
H829 N825 0.985 . S
H830 N824 0.984 . S
H831 N824 0.984 . S
H832 N820 0.984 . S
H833 N820 0.985 . S
C834 C835 1.363 . S
C834 C840 1.379 . S
C834 N842 1.356 . S
C835 C834 1.363 . S
C835 C841 1.363 . S
C836 C837 1.363 . S
C836 C841 1.379 . S
C836 N843 1.356 . S
C837 C836 1.363 . S
C837 C840 1.363 . S
N838 C840 1.356 . S
N838 H850 0.984 . S
N838 H851 0.985 . S
N839 C841 1.356 . S
N839 H844 0.984 . S
N839 H845 0.985 . S
C840 C834 1.379 . S
C840 C837 1.363 . S
C840 N838 1.356 . S
C841 C835 1.363 . S
C841 C836 1.379 . S
C841 N839 1.356 . S
N842 C834 1.356 . S
N842 H848 0.984 . S
N842 H849 0.984 . S
N843 C836 1.356 . S
N843 H846 0.984 . S
N843 H847 0.985 . S
H844 N839 0.984 . S
H845 N839 0.985 . S
H846 N843 0.984 . S
H847 N843 0.985 . S
H848 N842 0.984 . S
H849 N842 0.984 . S
H850 N838 0.984 . S
H851 N838 0.985 . S
C852 C853 1.363 . S
C852 C858 1.379 . S
C852 N860 1.356 . S
C853 C852 1.363 . S
C853 C859 1.363 . S
C854 C855 1.363 . S
C854 C859 1.379 . S
C854 N861 1.356 . S
C855 C854 1.363 . S
C855 C858 1.363 . S
N856 C858 1.356 . S
N856 H868 0.984 . S
N856 H869 0.985 . S
N857 C859 1.356 . S
N857 H862 0.984 . S
N857 H863 0.985 . S
C858 C852 1.379 . S
C858 C855 1.363 . S
C858 N856 1.356 . S
C859 C853 1.363 . S
C859 C854 1.379 . S
C859 N857 1.356 . S
N860 C852 1.356 . S
N860 H866 0.984 . S
N860 H867 0.984 . S
N861 C854 1.356 . S
N861 H864 0.984 . S
N861 H865 0.985 . S
H862 N857 0.984 . S
H863 N857 0.985 . S
H864 N861 0.984 . S
H865 N861 0.985 . S
H866 N860 0.984 . S
H867 N860 0.984 . S
H868 N856 0.984 . S
H869 N856 0.985 . S
C870 C871 1.363 . S
C870 C876 1.379 . S
C870 N878 1.356 . S
C871 C870 1.363 . S
C871 C877 1.363 . S
C872 C873 1.363 . S
C872 C877 1.379 . S
C872 N879 1.356 . S
C873 C872 1.363 . S
C873 C876 1.363 . S
N874 C876 1.356 . S
N874 H886 0.984 . S
N874 H887 0.985 . S
N875 C877 1.356 . S
N875 H880 0.984 . S
N875 H881 0.985 . S
C876 C870 1.379 . S
C876 C873 1.363 . S
C876 N874 1.356 . S
C877 C871 1.363 . S
C877 C872 1.379 . S
C877 N875 1.356 . S
N878 C870 1.356 . S
N878 H884 0.984 . S
N878 H885 0.984 . S
N879 C872 1.356 . S
N879 H882 0.984 . S
N879 H883 0.985 . S
H880 N875 0.984 . S
H881 N875 0.985 . S
H882 N879 0.984 . S
H883 N879 0.985 . S
H884 N878 0.984 . S
H885 N878 0.984 . S
H886 N874 0.984 . S
H887 N874 0.985 . S
C888 C889 1.363 . S
C888 C894 1.379 . S
C888 N896 1.356 . S
C889 C888 1.363 . S
C889 C895 1.363 . S
C890 C891 1.363 . S
C890 C895 1.379 . S
C890 N897 1.356 . S
C891 C890 1.363 . S
C891 C894 1.363 . S
N892 C894 1.356 . S
N892 H904 0.984 . S
N892 H905 0.985 . S
N893 C895 1.356 . S
N893 H898 0.984 . S
N893 H899 0.985 . S
C894 C888 1.379 . S
C894 C891 1.363 . S
C894 N892 1.356 . S
C895 C889 1.363 . S
C895 C890 1.379 . S
C895 N893 1.356 . S
N896 C888 1.356 . S
N896 H902 0.984 . S
N896 H903 0.984 . S
N897 C890 1.356 . S
N897 H900 0.984 . S
N897 H901 0.985 . S
H898 N893 0.984 . S
H899 N893 0.985 . S
H900 N897 0.984 . S
H901 N897 0.985 . S
H902 N896 0.984 . S
H903 N896 0.984 . S
H904 N892 0.984 . S
H905 N892 0.985 . S
C906 C907 1.363 . S
C906 C912 1.379 . S
C906 N914 1.356 . S
C907 C906 1.363 . S
C907 C913 1.363 . S
C908 C909 1.363 . S
C908 C913 1.379 . S
C908 N915 1.356 . S
C909 C908 1.363 . S
C909 C912 1.363 . S
N910 C912 1.356 . S
N910 H922 0.984 . S
N910 H923 0.985 . S
N911 C913 1.356 . S
N911 H916 0.984 . S
N911 H917 0.985 . S
C912 C906 1.379 . S
C912 C909 1.363 . S
C912 N910 1.356 . S
C913 C907 1.363 . S
C913 C908 1.379 . S
C913 N911 1.356 . S
N914 C906 1.356 . S
N914 H920 0.984 . S
N914 H921 0.984 . S
N915 C908 1.356 . S
N915 H918 0.984 . S
N915 H919 0.985 . S
H916 N911 0.984 . S
H917 N911 0.985 . S
H918 N915 0.984 . S
H919 N915 0.985 . S
H920 N914 0.984 . S
H921 N914 0.984 . S
H922 N910 0.984 . S
H923 N910 0.985 . S
C924 C925 1.363 . S
C924 C930 1.379 . S
C924 N932 1.356 . S
C925 C924 1.363 . S
C925 C931 1.363 . S
C926 C927 1.363 . S
C926 C931 1.379 . S
C926 N933 1.356 . S
C927 C926 1.363 . S
C927 C930 1.363 . S
N928 C930 1.356 . S
N928 H940 0.984 . S
N928 H941 0.985 . S
N929 C931 1.356 . S
N929 H934 0.984 . S
N929 H935 0.985 . S
C930 C924 1.379 . S
C930 C927 1.363 . S
C930 N928 1.356 . S
C931 C925 1.363 . S
C931 C926 1.379 . S
C931 N929 1.356 . S
N932 C924 1.356 . S
N932 H938 0.984 . S
N932 H939 0.984 . S
N933 C926 1.356 . S
N933 H936 0.984 . S
N933 H937 0.985 . S
H934 N929 0.984 . S
H935 N929 0.985 . S
H936 N933 0.984 . S
H937 N933 0.985 . S
H938 N932 0.984 . S
H939 N932 0.984 . S
H940 N928 0.984 . S
H941 N928 0.985 . S
C942 C943 1.363 . S
C942 C948 1.379 . S
C942 N950 1.356 . S
C943 C942 1.363 . S
C943 C949 1.363 . S
C944 C945 1.363 . S
C944 C949 1.379 . S
C944 N951 1.356 . S
C945 C944 1.363 . S
C945 C948 1.363 . S
N946 C948 1.356 . S
N946 H958 0.984 . S
N946 H959 0.985 . S
N947 C949 1.356 . S
N947 H952 0.984 . S
N947 H953 0.985 . S
C948 C942 1.379 . S
C948 C945 1.363 . S
C948 N946 1.356 . S
C949 C943 1.363 . S
C949 C944 1.379 . S
C949 N947 1.356 . S
N950 C942 1.356 . S
N950 H956 0.984 . S
N950 H957 0.984 . S
N951 C944 1.356 . S
N951 H954 0.984 . S
N951 H955 0.985 . S
H952 N947 0.984 . S
H953 N947 0.985 . S
H954 N951 0.984 . S
H955 N951 0.985 . S
H956 N950 0.984 . S
H957 N950 0.984 . S
H958 N946 0.984 . S
H959 N946 0.985 . S
C960 C961 1.363 . S
C960 C966 1.379 . S
C960 N968 1.356 . S
C961 C960 1.363 . S
C961 C967 1.363 . S
C962 C963 1.363 . S
C962 C967 1.379 . S
C962 N969 1.356 . S
C963 C962 1.363 . S
C963 C966 1.363 . S
N964 C966 1.356 . S
N964 H976 0.984 . S
N964 H977 0.985 . S
N965 C967 1.356 . S
N965 H970 0.984 . S
N965 H971 0.985 . S
C966 C960 1.379 . S
C966 C963 1.363 . S
C966 N964 1.356 . S
C967 C961 1.363 . S
C967 C962 1.379 . S
C967 N965 1.356 . S
N968 C960 1.356 . S
N968 H974 0.984 . S
N968 H975 0.984 . S
N969 C962 1.356 . S
N969 H972 0.984 . S
N969 H973 0.985 . S
H970 N965 0.984 . S
H971 N965 0.985 . S
H972 N969 0.984 . S
H973 N969 0.985 . S
H974 N968 0.984 . S
H975 N968 0.984 . S
H976 N964 0.984 . S
H977 N964 0.985 . S
C978 C979 1.363 . S
C978 C984 1.379 . S
C978 N986 1.356 . S
C979 C978 1.363 . S
C979 C985 1.363 . S
C980 C981 1.363 . S
C980 C985 1.379 . S
C980 N987 1.356 . S
C981 C980 1.363 . S
C981 C984 1.363 . S
N982 C984 1.356 . S
N982 H994 0.984 . S
N982 H995 0.985 . S
N983 C985 1.356 . S
N983 H988 0.984 . S
N983 H989 0.985 . S
C984 C978 1.379 . S
C984 C981 1.363 . S
C984 N982 1.356 . S
C985 C979 1.363 . S
C985 C980 1.379 . S
C985 N983 1.356 . S
N986 C978 1.356 . S
N986 H992 0.984 . S
N986 H993 0.984 . S
N987 C980 1.356 . S
N987 H990 0.984 . S
N987 H991 0.985 . S
H988 N983 0.984 . S
H989 N983 0.985 . S
H990 N987 0.984 . S
H991 N987 0.985 . S
H992 N986 0.984 . S
H993 N986 0.984 . S
H994 N982 0.984 . S
H995 N982 0.985 . S
C996 C997 1.363 . S
C996 C1002 1.379 . S
C996 N1004 1.356 . S
C997 C996 1.363 . S
C997 C1003 1.363 . S
C998 C999 1.363 . S
C998 C1003 1.379 . S
C998 N1005 1.356 . S
C999 C998 1.363 . S
C999 C1002 1.363 . S
N1000 C1002 1.356 . S
N1000 H1012 0.984 . S
N1000 H1013 0.985 . S
N1001 C1003 1.356 . S
N1001 H1006 0.984 . S
N1001 H1007 0.985 . S
C1002 C996 1.379 . S
C1002 C999 1.363 . S
C1002 N1000 1.356 . S
C1003 C997 1.363 . S
C1003 C998 1.379 . S
C1003 N1001 1.356 . S
N1004 C996 1.356 . S
N1004 H1010 0.984 . S
N1004 H1011 0.984 . S
N1005 C998 1.356 . S
N1005 H1008 0.984 . S
N1005 H1009 0.985 . S
H1006 N1001 0.984 . S
H1007 N1001 0.985 . S
H1008 N1005 0.984 . S
H1009 N1005 0.985 . S
H1010 N1004 0.984 . S
H1011 N1004 0.984 . S
H1012 N1000 0.984 . S
H1013 N1000 0.985 . S
C1014 C1015 1.363 . S
C1014 C1020 1.379 . S
C1014 N1022 1.356 . S
C1015 C1014 1.363 . S
C1015 C1021 1.363 . S
C1016 C1017 1.363 . S
C1016 C1021 1.379 . S
C1016 N1023 1.356 . S
C1017 C1016 1.363 . S
C1017 C1020 1.363 . S
N1018 C1020 1.356 . S
N1018 H1030 0.984 . S
N1018 H1031 0.985 . S
N1019 C1021 1.356 . S
N1019 H1024 0.984 . S
N1019 H1025 0.985 . S
C1020 C1014 1.379 . S
C1020 C1017 1.363 . S
C1020 N1018 1.356 . S
C1021 C1015 1.363 . S
C1021 C1016 1.379 . S
C1021 N1019 1.356 . S
N1022 C1014 1.356 . S
N1022 H1028 0.984 . S
N1022 H1029 0.984 . S
N1023 C1016 1.356 . S
N1023 H1026 0.984 . S
N1023 H1027 0.985 . S
H1024 N1019 0.984 . S
H1025 N1019 0.985 . S
H1026 N1023 0.984 . S
H1027 N1023 0.985 . S
H1028 N1022 0.984 . S
H1029 N1022 0.984 . S
H1030 N1018 0.984 . S
H1031 N1018 0.985 . S
C1032 C1033 1.363 . S
C1032 C1038 1.379 . S
C1032 N1040 1.356 . S
C1033 C1032 1.363 . S
C1033 C1039 1.363 . S
C1034 C1035 1.363 . S
C1034 C1039 1.379 . S
C1034 N1041 1.356 . S
C1035 C1034 1.363 . S
C1035 C1038 1.363 . S
N1036 C1038 1.356 . S
N1036 H1048 0.984 . S
N1036 H1049 0.985 . S
N1037 C1039 1.356 . S
N1037 H1042 0.984 . S
N1037 H1043 0.985 . S
C1038 C1032 1.379 . S
C1038 C1035 1.363 . S
C1038 N1036 1.356 . S
C1039 C1033 1.363 . S
C1039 C1034 1.379 . S
C1039 N1037 1.356 . S
N1040 C1032 1.356 . S
N1040 H1046 0.984 . S
N1040 H1047 0.984 . S
N1041 C1034 1.356 . S
N1041 H1044 0.984 . S
N1041 H1045 0.985 . S
H1042 N1037 0.984 . S
H1043 N1037 0.985 . S
H1044 N1041 0.984 . S
H1045 N1041 0.985 . S
H1046 N1040 0.984 . S
H1047 N1040 0.984 . S
H1048 N1036 0.984 . S
H1049 N1036 0.985 . S
C1050 C1051 1.363 . S
C1050 C1056 1.379 . S
C1050 N1058 1.356 . S
C1051 C1050 1.363 . S
C1051 C1057 1.363 . S
C1052 C1053 1.363 . S
C1052 C1057 1.379 . S
C1052 N1059 1.356 . S
C1053 C1052 1.363 . S
C1053 C1056 1.363 . S
N1054 C1056 1.356 . S
N1054 H1066 0.984 . S
N1054 H1067 0.985 . S
N1055 C1057 1.356 . S
N1055 H1060 0.984 . S
N1055 H1061 0.985 . S
C1056 C1050 1.379 . S
C1056 C1053 1.363 . S
C1056 N1054 1.356 . S
C1057 C1051 1.363 . S
C1057 C1052 1.379 . S
C1057 N1055 1.356 . S
N1058 C1050 1.356 . S
N1058 H1064 0.984 . S
N1058 H1065 0.984 . S
N1059 C1052 1.356 . S
N1059 H1062 0.984 . S
N1059 H1063 0.985 . S
H1060 N1055 0.984 . S
H1061 N1055 0.985 . S
H1062 N1059 0.984 . S
H1063 N1059 0.985 . S
H1064 N1058 0.984 . S
H1065 N1058 0.984 . S
H1066 N1054 0.984 . S
H1067 N1054 0.985 . S
C1068 C1069 1.363 . S
C1068 C1074 1.379 . S
C1068 N1076 1.356 . S
C1069 C1068 1.363 . S
C1069 C1075 1.363 . S
C1070 C1071 1.363 . S
C1070 C1075 1.379 . S
C1070 N1077 1.356 . S
C1071 C1070 1.363 . S
C1071 C1074 1.363 . S
N1072 C1074 1.356 . S
N1072 H1084 0.984 . S
N1072 H1085 0.985 . S
N1073 C1075 1.356 . S
N1073 H1078 0.984 . S
N1073 H1079 0.985 . S
C1074 C1068 1.379 . S
C1074 C1071 1.363 . S
C1074 N1072 1.356 . S
C1075 C1069 1.363 . S
C1075 C1070 1.379 . S
C1075 N1073 1.356 . S
N1076 C1068 1.356 . S
N1076 H1082 0.984 . S
N1076 H1083 0.984 . S
N1077 C1070 1.356 . S
N1077 H1080 0.984 . S
N1077 H1081 0.985 . S
H1078 N1073 0.984 . S
H1079 N1073 0.985 . S
H1080 N1077 0.984 . S
H1081 N1077 0.985 . S
H1082 N1076 0.984 . S
H1083 N1076 0.984 . S
H1084 N1072 0.984 . S
H1085 N1072 0.985 . S
C1086 C1087 1.363 . S
C1086 C1092 1.379 . S
C1086 N1094 1.356 . S
C1087 C1086 1.363 . S
C1087 C1093 1.363 . S
C1088 C1089 1.363 . S
C1088 C1093 1.379 . S
C1088 N1095 1.356 . S
C1089 C1088 1.363 . S
C1089 C1092 1.363 . S
N1090 C1092 1.356 . S
N1090 H1102 0.984 . S
N1090 H1103 0.985 . S
N1091 C1093 1.356 . S
N1091 H1096 0.984 . S
N1091 H1097 0.985 . S
C1092 C1086 1.379 . S
C1092 C1089 1.363 . S
C1092 N1090 1.356 . S
C1093 C1087 1.363 . S
C1093 C1088 1.379 . S
C1093 N1091 1.356 . S
N1094 C1086 1.356 . S
N1094 H1100 0.984 . S
N1094 H1101 0.984 . S
N1095 C1088 1.356 . S
N1095 H1098 0.984 . S
N1095 H1099 0.985 . S
H1096 N1091 0.984 . S
H1097 N1091 0.985 . S
H1098 N1095 0.984 . S
H1099 N1095 0.985 . S
H1100 N1094 0.984 . S
H1101 N1094 0.984 . S
H1102 N1090 0.984 . S
H1103 N1090 0.985 . S
C1104 C1105 1.363 . S
C1104 C1110 1.379 . S
C1104 N1112 1.356 . S
C1105 C1104 1.363 . S
C1105 C1111 1.363 . S
C1106 C1107 1.363 . S
C1106 C1111 1.379 . S
C1106 N1113 1.356 . S
C1107 C1106 1.363 . S
C1107 C1110 1.363 . S
N1108 C1110 1.356 . S
N1108 H1120 0.984 . S
N1108 H1121 0.985 . S
N1109 C1111 1.356 . S
N1109 H1114 0.984 . S
N1109 H1115 0.985 . S
C1110 C1104 1.379 . S
C1110 C1107 1.363 . S
C1110 N1108 1.356 . S
C1111 C1105 1.363 . S
C1111 C1106 1.379 . S
C1111 N1109 1.356 . S
N1112 C1104 1.356 . S
N1112 H1118 0.984 . S
N1112 H1119 0.984 . S
N1113 C1106 1.356 . S
N1113 H1116 0.984 . S
N1113 H1117 0.985 . S
H1114 N1109 0.984 . S
H1115 N1109 0.985 . S
H1116 N1113 0.984 . S
H1117 N1113 0.985 . S
H1118 N1112 0.984 . S
H1119 N1112 0.984 . S
H1120 N1108 0.984 . S
H1121 N1108 0.985 . S
C1122 C1123 1.363 . S
C1122 C1128 1.379 . S
C1122 N1130 1.356 . S
C1123 C1122 1.363 . S
C1123 C1129 1.363 . S
C1124 C1125 1.363 . S
C1124 C1129 1.379 . S
C1124 N1131 1.356 . S
C1125 C1124 1.363 . S
C1125 C1128 1.363 . S
N1126 C1128 1.356 . S
N1126 H1138 0.984 . S
N1126 H1139 0.985 . S
N1127 C1129 1.356 . S
N1127 H1132 0.984 . S
N1127 H1133 0.985 . S
C1128 C1122 1.379 . S
C1128 C1125 1.363 . S
C1128 N1126 1.356 . S
C1129 C1123 1.363 . S
C1129 C1124 1.379 . S
C1129 N1127 1.356 . S
N1130 C1122 1.356 . S
N1130 H1136 0.984 . S
N1130 H1137 0.984 . S
N1131 C1124 1.356 . S
N1131 H1134 0.984 . S
N1131 H1135 0.985 . S
H1132 N1127 0.984 . S
H1133 N1127 0.985 . S
H1134 N1131 0.984 . S
H1135 N1131 0.985 . S
H1136 N1130 0.984 . S
H1137 N1130 0.984 . S
H1138 N1126 0.984 . S
H1139 N1126 0.985 . S
C1140 C1141 1.363 . S
C1140 C1146 1.379 . S
C1140 N1148 1.356 . S
C1141 C1140 1.363 . S
C1141 C1147 1.363 . S
C1142 C1143 1.363 . S
C1142 C1147 1.379 . S
C1142 N1149 1.356 . S
C1143 C1142 1.363 . S
C1143 C1146 1.363 . S
N1144 C1146 1.356 . S
N1144 H1156 0.984 . S
N1144 H1157 0.985 . S
N1145 C1147 1.356 . S
N1145 H1150 0.984 . S
N1145 H1151 0.985 . S
C1146 C1140 1.379 . S
C1146 C1143 1.363 . S
C1146 N1144 1.356 . S
C1147 C1141 1.363 . S
C1147 C1142 1.379 . S
C1147 N1145 1.356 . S
N1148 C1140 1.356 . S
N1148 H1154 0.984 . S
N1148 H1155 0.984 . S
N1149 C1142 1.356 . S
N1149 H1152 0.984 . S
N1149 H1153 0.985 . S
H1150 N1145 0.984 . S
H1151 N1145 0.985 . S
H1152 N1149 0.984 . S
H1153 N1149 0.985 . S
H1154 N1148 0.984 . S
H1155 N1148 0.984 . S
H1156 N1144 0.984 . S
H1157 N1144 0.985 . S
C1158 C1159 1.363 . S
C1158 C1164 1.379 . S
C1158 N1166 1.356 . S
C1159 C1158 1.363 . S
C1159 C1165 1.363 . S
C1160 C1161 1.363 . S
C1160 C1165 1.379 . S
C1160 N1167 1.356 . S
C1161 C1160 1.363 . S
C1161 C1164 1.363 . S
N1162 C1164 1.356 . S
N1162 H1174 0.984 . S
N1162 H1175 0.985 . S
N1163 C1165 1.356 . S
N1163 H1168 0.984 . S
N1163 H1169 0.985 . S
C1164 C1158 1.379 . S
C1164 C1161 1.363 . S
C1164 N1162 1.356 . S
C1165 C1159 1.363 . S
C1165 C1160 1.379 . S
C1165 N1163 1.356 . S
N1166 C1158 1.356 . S
N1166 H1172 0.984 . S
N1166 H1173 0.984 . S
N1167 C1160 1.356 . S
N1167 H1170 0.984 . S
N1167 H1171 0.985 . S
H1168 N1163 0.984 . S
H1169 N1163 0.985 . S
H1170 N1167 0.984 . S
H1171 N1167 0.985 . S
H1172 N1166 0.984 . S
H1173 N1166 0.984 . S
H1174 N1162 0.984 . S
H1175 N1162 0.985 . S
C1176 C1177 1.363 . S
C1176 C1182 1.379 . S
C1176 N1184 1.356 . S
C1177 C1176 1.363 . S
C1177 C1183 1.363 . S
C1178 C1179 1.363 . S
C1178 C1183 1.379 . S
C1178 N1185 1.356 . S
C1179 C1178 1.363 . S
C1179 C1182 1.363 . S
N1180 C1182 1.356 . S
N1180 H1192 0.984 . S
N1180 H1193 0.985 . S
N1181 C1183 1.356 . S
N1181 H1186 0.984 . S
N1181 H1187 0.985 . S
C1182 C1176 1.379 . S
C1182 C1179 1.363 . S
C1182 N1180 1.356 . S
C1183 C1177 1.363 . S
C1183 C1178 1.379 . S
C1183 N1181 1.356 . S
N1184 C1176 1.356 . S
N1184 H1190 0.984 . S
N1184 H1191 0.984 . S
N1185 C1178 1.356 . S
N1185 H1188 0.984 . S
N1185 H1189 0.985 . S
H1186 N1181 0.984 . S
H1187 N1181 0.985 . S
H1188 N1185 0.984 . S
H1189 N1185 0.985 . S
H1190 N1184 0.984 . S
H1191 N1184 0.984 . S
H1192 N1180 0.984 . S
H1193 N1180 0.985 . S
C1194 C1195 1.363 . S
C1194 C1200 1.379 . S
C1194 N1202 1.356 . S
C1195 C1194 1.363 . S
C1195 C1201 1.363 . S
C1196 C1197 1.363 . S
C1196 C1201 1.379 . S
C1196 N1203 1.356 . S
C1197 C1196 1.363 . S
C1197 C1200 1.363 . S
N1198 C1200 1.356 . S
N1198 H1210 0.984 . S
N1198 H1211 0.985 . S
N1199 C1201 1.356 . S
N1199 H1204 0.984 . S
N1199 H1205 0.985 . S
C1200 C1194 1.379 . S
C1200 C1197 1.363 . S
C1200 N1198 1.356 . S
C1201 C1195 1.363 . S
C1201 C1196 1.379 . S
C1201 N1199 1.356 . S
N1202 C1194 1.356 . S
N1202 H1208 0.984 . S
N1202 H1209 0.984 . S
N1203 C1196 1.356 . S
N1203 H1206 0.984 . S
N1203 H1207 0.985 . S
H1204 N1199 0.984 . S
H1205 N1199 0.985 . S
H1206 N1203 0.984 . S
H1207 N1203 0.985 . S
H1208 N1202 0.984 . S
H1209 N1202 0.984 . S
H1210 N1198 0.984 . S
H1211 N1198 0.985 . S
C1212 C1213 1.363 . S
C1212 C1218 1.379 . S
C1212 N1220 1.356 . S
C1213 C1212 1.363 . S
C1213 C1219 1.363 . S
C1214 C1215 1.363 . S
C1214 C1219 1.379 . S
C1214 N1221 1.356 . S
C1215 C1214 1.363 . S
C1215 C1218 1.363 . S
N1216 C1218 1.356 . S
N1216 H1228 0.984 . S
N1216 H1229 0.985 . S
N1217 C1219 1.356 . S
N1217 H1222 0.984 . S
N1217 H1223 0.985 . S
C1218 C1212 1.379 . S
C1218 C1215 1.363 . S
C1218 N1216 1.356 . S
C1219 C1213 1.363 . S
C1219 C1214 1.379 . S
C1219 N1217 1.356 . S
N1220 C1212 1.356 . S
N1220 H1226 0.984 . S
N1220 H1227 0.984 . S
N1221 C1214 1.356 . S
N1221 H1224 0.984 . S
N1221 H1225 0.985 . S
H1222 N1217 0.984 . S
H1223 N1217 0.985 . S
H1224 N1221 0.984 . S
H1225 N1221 0.985 . S
H1226 N1220 0.984 . S
H1227 N1220 0.984 . S
H1228 N1216 0.984 . S
H1229 N1216 0.985 . S
C1230 C1231 1.363 . S
C1230 C1236 1.379 . S
C1230 N1238 1.356 . S
C1231 C1230 1.363 . S
C1231 C1237 1.363 . S
C1232 C1233 1.363 . S
C1232 C1237 1.379 . S
C1232 N1239 1.356 . S
C1233 C1232 1.363 . S
C1233 C1236 1.363 . S
N1234 C1236 1.356 . S
N1234 H1246 0.984 . S
N1234 H1247 0.985 . S
N1235 C1237 1.356 . S
N1235 H1240 0.984 . S
N1235 H1241 0.985 . S
C1236 C1230 1.379 . S
C1236 C1233 1.363 . S
C1236 N1234 1.356 . S
C1237 C1231 1.363 . S
C1237 C1232 1.379 . S
C1237 N1235 1.356 . S
N1238 C1230 1.356 . S
N1238 H1244 0.984 . S
N1238 H1245 0.984 . S
N1239 C1232 1.356 . S
N1239 H1242 0.984 . S
N1239 H1243 0.985 . S
H1240 N1235 0.984 . S
H1241 N1235 0.985 . S
H1242 N1239 0.984 . S
H1243 N1239 0.985 . S
H1244 N1238 0.984 . S
H1245 N1238 0.984 . S
H1246 N1234 0.984 . S
H1247 N1234 0.985 . S
C1248 C1249 1.363 . S
C1248 C1254 1.379 . S
C1248 N1256 1.356 . S
C1249 C1248 1.363 . S
C1249 C1255 1.363 . S
C1250 C1251 1.363 . S
C1250 C1255 1.379 . S
C1250 N1257 1.356 . S
C1251 C1250 1.363 . S
C1251 C1254 1.363 . S
N1252 C1254 1.356 . S
N1252 H1264 0.984 . S
N1252 H1265 0.985 . S
N1253 C1255 1.356 . S
N1253 H1258 0.984 . S
N1253 H1259 0.985 . S
C1254 C1248 1.379 . S
C1254 C1251 1.363 . S
C1254 N1252 1.356 . S
C1255 C1249 1.363 . S
C1255 C1250 1.379 . S
C1255 N1253 1.356 . S
N1256 C1248 1.356 . S
N1256 H1262 0.984 . S
N1256 H1263 0.984 . S
N1257 C1250 1.356 . S
N1257 H1260 0.984 . S
N1257 H1261 0.985 . S
H1258 N1253 0.984 . S
H1259 N1253 0.985 . S
H1260 N1257 0.984 . S
H1261 N1257 0.985 . S
H1262 N1256 0.984 . S
H1263 N1256 0.984 . S
H1264 N1252 0.984 . S
H1265 N1252 0.985 . S
C1266 C1267 1.363 . S
C1266 C1272 1.379 . S
C1266 N1274 1.356 . S
C1267 C1266 1.363 . S
C1267 C1273 1.363 . S
C1268 C1269 1.363 . S
C1268 C1273 1.379 . S
C1268 N1275 1.356 . S
C1269 C1268 1.363 . S
C1269 C1272 1.363 . S
N1270 C1272 1.356 . S
N1270 H1282 0.984 . S
N1270 H1283 0.985 . S
N1271 C1273 1.356 . S
N1271 H1276 0.984 . S
N1271 H1277 0.985 . S
C1272 C1266 1.379 . S
C1272 C1269 1.363 . S
C1272 N1270 1.356 . S
C1273 C1267 1.363 . S
C1273 C1268 1.379 . S
C1273 N1271 1.356 . S
N1274 C1266 1.356 . S
N1274 H1280 0.984 . S
N1274 H1281 0.984 . S
N1275 C1268 1.356 . S
N1275 H1278 0.984 . S
N1275 H1279 0.985 . S
H1276 N1271 0.984 . S
H1277 N1271 0.985 . S
H1278 N1275 0.984 . S
H1279 N1275 0.985 . S
H1280 N1274 0.984 . S
H1281 N1274 0.984 . S
H1282 N1270 0.984 . S
H1283 N1270 0.985 . S
C1284 C1285 1.363 . S
C1284 C1290 1.379 . S
C1284 N1292 1.356 . S
C1285 C1284 1.363 . S
C1285 C1291 1.363 . S
C1286 C1287 1.363 . S
C1286 C1291 1.379 . S
C1286 N1293 1.356 . S
C1287 C1286 1.363 . S
C1287 C1290 1.363 . S
N1288 C1290 1.356 . S
N1288 H1300 0.984 . S
N1288 H1301 0.985 . S
N1289 C1291 1.356 . S
N1289 H1294 0.984 . S
N1289 H1295 0.985 . S
C1290 C1284 1.379 . S
C1290 C1287 1.363 . S
C1290 N1288 1.356 . S
C1291 C1285 1.363 . S
C1291 C1286 1.379 . S
C1291 N1289 1.356 . S
N1292 C1284 1.356 . S
N1292 H1298 0.984 . S
N1292 H1299 0.984 . S
N1293 C1286 1.356 . S
N1293 H1296 0.984 . S
N1293 H1297 0.985 . S
H1294 N1289 0.984 . S
H1295 N1289 0.985 . S
H1296 N1293 0.984 . S
H1297 N1293 0.985 . S
H1298 N1292 0.984 . S
H1299 N1292 0.984 . S
H1300 N1288 0.984 . S
H1301 N1288 0.985 . S
C1302 C1303 1.363 . S
C1302 C1308 1.379 . S
C1302 N1310 1.356 . S
C1303 C1302 1.363 . S
C1303 C1309 1.363 . S
C1304 C1305 1.363 . S
C1304 C1309 1.379 . S
C1304 N1311 1.356 . S
C1305 C1304 1.363 . S
C1305 C1308 1.363 . S
N1306 C1308 1.356 . S
N1306 H1318 0.984 . S
N1306 H1319 0.985 . S
N1307 C1309 1.356 . S
N1307 H1312 0.984 . S
N1307 H1313 0.985 . S
C1308 C1302 1.379 . S
C1308 C1305 1.363 . S
C1308 N1306 1.356 . S
C1309 C1303 1.363 . S
C1309 C1304 1.379 . S
C1309 N1307 1.356 . S
N1310 C1302 1.356 . S
N1310 H1316 0.984 . S
N1310 H1317 0.984 . S
N1311 C1304 1.356 . S
N1311 H1314 0.984 . S
N1311 H1315 0.985 . S
H1312 N1307 0.984 . S
H1313 N1307 0.985 . S
H1314 N1311 0.984 . S
H1315 N1311 0.985 . S
H1316 N1310 0.984 . S
H1317 N1310 0.984 . S
H1318 N1306 0.984 . S
H1319 N1306 0.985 . S
C1320 C1321 1.363 . S
C1320 C1326 1.379 . S
C1320 N1328 1.356 . S
C1321 C1320 1.363 . S
C1321 C1327 1.363 . S
C1322 C1323 1.363 . S
C1322 C1327 1.379 . S
C1322 N1329 1.356 . S
C1323 C1322 1.363 . S
C1323 C1326 1.363 . S
N1324 C1326 1.356 . S
N1324 H1336 0.984 . S
N1324 H1337 0.985 . S
N1325 C1327 1.356 . S
N1325 H1330 0.984 . S
N1325 H1331 0.985 . S
C1326 C1320 1.379 . S
C1326 C1323 1.363 . S
C1326 N1324 1.356 . S
C1327 C1321 1.363 . S
C1327 C1322 1.379 . S
C1327 N1325 1.356 . S
N1328 C1320 1.356 . S
N1328 H1334 0.984 . S
N1328 H1335 0.984 . S
N1329 C1322 1.356 . S
N1329 H1332 0.984 . S
N1329 H1333 0.985 . S
H1330 N1325 0.984 . S
H1331 N1325 0.985 . S
H1332 N1329 0.984 . S
H1333 N1329 0.985 . S
H1334 N1328 0.984 . S
H1335 N1328 0.984 . S
H1336 N1324 0.984 . S
H1337 N1324 0.985 . S
C1338 C1339 1.363 . S
C1338 C1344 1.379 . S
C1338 N1346 1.356 . S
C1339 C1338 1.363 . S
C1339 C1345 1.363 . S
C1340 C1341 1.363 . S
C1340 C1345 1.379 . S
C1340 N1347 1.356 . S
C1341 C1340 1.363 . S
C1341 C1344 1.363 . S
N1342 C1344 1.356 . S
N1342 H1354 0.984 . S
N1342 H1355 0.985 . S
N1343 C1345 1.356 . S
N1343 H1348 0.984 . S
N1343 H1349 0.985 . S
C1344 C1338 1.379 . S
C1344 C1341 1.363 . S
C1344 N1342 1.356 . S
C1345 C1339 1.363 . S
C1345 C1340 1.379 . S
C1345 N1343 1.356 . S
N1346 C1338 1.356 . S
N1346 H1352 0.984 . S
N1346 H1353 0.984 . S
N1347 C1340 1.356 . S
N1347 H1350 0.984 . S
N1347 H1351 0.985 . S
H1348 N1343 0.984 . S
H1349 N1343 0.985 . S
H1350 N1347 0.984 . S
H1351 N1347 0.985 . S
H1352 N1346 0.984 . S
H1353 N1346 0.984 . S
H1354 N1342 0.984 . S
H1355 N1342 0.985 . S
C1356 C1357 1.363 . S
C1356 C1362 1.379 . S
C1356 N1364 1.356 . S
C1357 C1356 1.363 . S
C1357 C1363 1.363 . S
C1358 C1359 1.363 . S
C1358 C1363 1.379 . S
C1358 N1365 1.356 . S
C1359 C1358 1.363 . S
C1359 C1362 1.363 . S
N1360 C1362 1.356 . S
N1360 H1372 0.984 . S
N1360 H1373 0.985 . S
N1361 C1363 1.356 . S
N1361 H1366 0.984 . S
N1361 H1367 0.985 . S
C1362 C1356 1.379 . S
C1362 C1359 1.363 . S
C1362 N1360 1.356 . S
C1363 C1357 1.363 . S
C1363 C1358 1.379 . S
C1363 N1361 1.356 . S
N1364 C1356 1.356 . S
N1364 H1370 0.984 . S
N1364 H1371 0.984 . S
N1365 C1358 1.356 . S
N1365 H1368 0.984 . S
N1365 H1369 0.985 . S
H1366 N1361 0.984 . S
H1367 N1361 0.985 . S
H1368 N1365 0.984 . S
H1369 N1365 0.985 . S
H1370 N1364 0.984 . S
H1371 N1364 0.984 . S
H1372 N1360 0.984 . S
H1373 N1360 0.985 . S
C1374 C1375 1.363 . S
C1374 C1380 1.379 . S
C1374 N1382 1.356 . S
C1375 C1374 1.363 . S
C1375 C1381 1.363 . S
C1376 C1377 1.363 . S
C1376 C1381 1.379 . S
C1376 N1383 1.356 . S
C1377 C1376 1.363 . S
C1377 C1380 1.363 . S
N1378 C1380 1.356 . S
N1378 H1390 0.984 . S
N1378 H1391 0.985 . S
N1379 C1381 1.356 . S
N1379 H1384 0.984 . S
N1379 H1385 0.985 . S
C1380 C1374 1.379 . S
C1380 C1377 1.363 . S
C1380 N1378 1.356 . S
C1381 C1375 1.363 . S
C1381 C1376 1.379 . S
C1381 N1379 1.356 . S
N1382 C1374 1.356 . S
N1382 H1388 0.984 . S
N1382 H1389 0.984 . S
N1383 C1376 1.356 . S
N1383 H1386 0.984 . S
N1383 H1387 0.985 . S
H1384 N1379 0.984 . S
H1385 N1379 0.985 . S
H1386 N1383 0.984 . S
H1387 N1383 0.985 . S
H1388 N1382 0.984 . S
H1389 N1382 0.984 . S
H1390 N1378 0.984 . S
H1391 N1378 0.985 . S
C1392 C1393 1.363 . S
C1392 C1398 1.379 . S
C1392 N1400 1.356 . S
C1393 C1392 1.363 . S
C1393 C1399 1.363 . S
C1394 C1395 1.363 . S
C1394 C1399 1.379 . S
C1394 N1401 1.356 . S
C1395 C1394 1.363 . S
C1395 C1398 1.363 . S
N1396 C1398 1.356 . S
N1396 H1408 0.984 . S
N1396 H1409 0.985 . S
N1397 C1399 1.356 . S
N1397 H1402 0.984 1_655 S
N1397 H1403 0.985 1_655 S
C1398 C1392 1.379 . S
C1398 C1395 1.363 . S
C1398 N1396 1.356 . S
C1399 C1393 1.363 . S
C1399 C1394 1.379 . S
C1399 N1397 1.356 . S
N1400 C1392 1.356 . S
N1400 H1406 0.984 . S
N1400 H1407 0.984 . S
N1401 C1394 1.356 . S
N1401 H1404 0.984 1_554 S
N1401 H1405 0.985 . S
H1402 N1397 0.984 1_455 S
H1403 N1397 0.985 1_455 S
H1404 N1401 0.984 1_556 S
H1405 N1401 0.985 . S
H1406 N1400 0.984 . S
H1407 N1400 0.984 . S
H1408 N1396 0.984 . S
H1409 N1396 0.985 . S
C1410 C1411 1.363 . S
C1410 C1416 1.379 . S
C1410 N1418 1.356 . S
C1411 C1410 1.363 . S
C1411 C1417 1.363 . S
C1412 C1413 1.363 . S
C1412 C1417 1.379 . S
C1412 N1419 1.356 . S
C1413 C1412 1.363 . S
C1413 C1416 1.363 . S
N1414 C1416 1.356 . S
N1414 H1426 0.984 . S
N1414 H1427 0.985 . S
N1415 C1417 1.356 . S
N1415 H1420 0.984 . S
N1415 H1421 0.985 . S
C1416 C1410 1.379 . S
C1416 C1413 1.363 . S
C1416 N1414 1.356 . S
C1417 C1411 1.363 . S
C1417 C1412 1.379 . S
C1417 N1415 1.356 . S
N1418 C1410 1.356 . S
N1418 H1424 0.984 . S
N1418 H1425 0.984 . S
N1419 C1412 1.356 . S
N1419 H1422 0.984 . S
N1419 H1423 0.985 . S
H1420 N1415 0.984 . S
H1421 N1415 0.985 . S
H1422 N1419 0.984 . S
H1423 N1419 0.985 . S
H1424 N1418 0.984 . S
H1425 N1418 0.984 . S
H1426 N1414 0.984 . S
H1427 N1414 0.985 . S
C1428 C1429 1.363 . S
C1428 C1434 1.379 . S
C1428 N1436 1.356 . S
C1429 C1428 1.363 . S
C1429 C1435 1.363 . S
C1430 C1431 1.363 . S
C1430 C1435 1.379 . S
C1430 N1437 1.356 . S
C1431 C1430 1.363 . S
C1431 C1434 1.363 . S
N1432 C1434 1.356 . S
N1432 H1444 0.984 . S
N1432 H1445 0.985 . S
N1433 C1435 1.356 . S
N1433 H1438 0.984 . S
N1433 H1439 0.985 . S
C1434 C1428 1.379 . S
C1434 C1431 1.363 . S
C1434 N1432 1.356 . S
C1435 C1429 1.363 . S
C1435 C1430 1.379 . S
C1435 N1433 1.356 . S
N1436 C1428 1.356 . S
N1436 H1442 0.984 . S
N1436 H1443 0.984 1_556 S
N1437 C1430 1.356 . S
N1437 H1440 0.984 . S
N1437 H1441 0.985 . S
H1438 N1433 0.984 . S
H1439 N1433 0.985 . S
H1440 N1437 0.984 . S
H1441 N1437 0.985 . S
H1442 N1436 0.984 . S
H1443 N1436 0.984 1_554 S
H1444 N1432 0.984 . S
H1445 N1432 0.985 . S
C1446 C1447 1.363 . S
C1446 C1452 1.379 . S
C1446 N1454 1.356 . S
C1447 C1446 1.363 . S
C1447 C1453 1.363 . S
C1448 C1449 1.363 . S
C1448 C1453 1.379 . S
C1448 N1455 1.356 . S
C1449 C1448 1.363 . S
C1449 C1452 1.363 . S
N1450 C1452 1.356 . S
N1450 H1462 0.984 . S
N1450 H1463 0.985 . S
N1451 C1453 1.356 . S
N1451 H1456 0.984 . S
N1451 H1457 0.985 . S
C1452 C1446 1.379 . S
C1452 C1449 1.363 . S
C1452 N1450 1.356 . S
C1453 C1447 1.363 . S
C1453 C1448 1.379 . S
C1453 N1451 1.356 . S
N1454 C1446 1.356 . S
N1454 H1460 0.984 . S
N1454 H1461 0.984 . S
N1455 C1448 1.356 . S
N1455 H1458 0.984 . S
N1455 H1459 0.985 . S
H1456 N1451 0.984 . S
H1457 N1451 0.985 . S
H1458 N1455 0.984 . S
H1459 N1455 0.985 . S
H1460 N1454 0.984 . S
H1461 N1454 0.984 . S
H1462 N1450 0.984 . S
H1463 N1450 0.985 . S
C1464 C1465 1.363 . S
C1464 C1470 1.379 . S
C1464 N1472 1.356 . S
C1465 C1464 1.363 . S
C1465 C1471 1.363 . S
C1466 C1467 1.363 . S
C1466 C1471 1.379 . S
C1466 N1473 1.356 1_455 S
C1467 C1466 1.363 . S
C1467 C1470 1.363 . S
N1468 C1470 1.356 . S
N1468 H1480 0.984 . S
N1468 H1481 0.985 . S
N1469 C1471 1.356 1_545 S
N1469 H1474 0.984 . S
N1469 H1475 0.985 . S
C1470 C1464 1.379 . S
C1470 C1467 1.363 . S
C1470 N1468 1.356 . S
C1471 C1465 1.363 . S
C1471 C1466 1.379 . S
C1471 N1469 1.356 1_565 S
N1472 C1464 1.356 . S
N1472 H1478 0.984 . S
N1472 H1479 0.984 . S
N1473 C1466 1.356 1_655 S
N1473 H1476 0.984 . S
N1473 H1477 0.985 . S
H1474 N1469 0.984 . S
H1475 N1469 0.985 . S
H1476 N1473 0.984 . S
H1477 N1473 0.985 . S
H1478 N1472 0.984 . S
H1479 N1472 0.984 . S
H1480 N1468 0.984 . S
H1481 N1468 0.985 . S
C1482 C1483 1.363 . S
C1482 C1488 1.379 . S
C1482 N1490 1.356 . S
C1483 C1482 1.363 . S
C1483 C1489 1.363 . S
C1484 C1485 1.363 . S
C1484 C1489 1.379 . S
C1484 N1491 1.356 . S
C1485 C1484 1.363 . S
C1485 C1488 1.363 . S
N1486 C1488 1.356 . S
N1486 H1498 0.984 . S
N1486 H1499 0.985 . S
N1487 C1489 1.356 . S
N1487 H1492 0.984 . S
N1487 H1493 0.985 . S
C1488 C1482 1.379 . S
C1488 C1485 1.363 . S
C1488 N1486 1.356 . S
C1489 C1483 1.363 . S
C1489 C1484 1.379 . S
C1489 N1487 1.356 . S
N1490 C1482 1.356 . S
N1490 H1496 0.984 . S
N1490 H1497 0.984 . S
N1491 C1484 1.356 . S
N1491 H1494 0.984 . S
N1491 H1495 0.985 . S
H1492 N1487 0.984 . S
H1493 N1487 0.985 . S
H1494 N1491 0.984 . S
H1495 N1491 0.985 . S
H1496 N1490 0.984 . S
H1497 N1490 0.984 . S
H1498 N1486 0.984 . S
H1499 N1486 0.985 . S
C1500 C1501 1.363 . S
C1500 C1506 1.379 . S
C1500 N1508 1.356 . S
C1501 C1500 1.363 . S
C1501 C1507 1.363 . S
C1502 C1503 1.363 . S
C1502 C1507 1.379 . S
C1502 N1509 1.356 . S
C1503 C1502 1.363 . S
C1503 C1506 1.363 . S
N1504 C1506 1.356 . S
N1504 H1516 0.984 . S
N1504 H1517 0.985 . S
N1505 C1507 1.356 . S
N1505 H1510 0.984 . S
N1505 H1511 0.985 . S
C1506 C1500 1.379 . S
C1506 C1503 1.363 . S
C1506 N1504 1.356 . S
C1507 C1501 1.363 . S
C1507 C1502 1.379 . S
C1507 N1505 1.356 . S
N1508 C1500 1.356 . S
N1508 H1514 0.984 . S
N1508 H1515 0.984 . S
N1509 C1502 1.356 . S
N1509 H1512 0.984 . S
N1509 H1513 0.985 . S
H1510 N1505 0.984 . S
H1511 N1505 0.985 . S
H1512 N1509 0.984 . S
H1513 N1509 0.985 . S
H1514 N1508 0.984 . S
H1515 N1508 0.984 . S
H1516 N1504 0.984 . S
H1517 N1504 0.985 . S
C1518 C1519 1.363 . S
C1518 C1524 1.379 . S
C1518 N1526 1.356 . S
C1519 C1518 1.363 . S
C1519 C1525 1.363 . S
C1520 C1521 1.363 . S
C1520 C1525 1.379 . S
C1520 N1527 1.356 . S
C1521 C1520 1.363 . S
C1521 C1524 1.363 . S
N1522 C1524 1.356 . S
N1522 H1534 0.984 . S
N1522 H1535 0.985 . S
N1523 C1525 1.356 . S
N1523 H1528 0.984 1_655 S
N1523 H1529 0.985 1_655 S
C1524 C1518 1.379 . S
C1524 C1521 1.363 . S
C1524 N1522 1.356 . S
C1525 C1519 1.363 . S
C1525 C1520 1.379 . S
C1525 N1523 1.356 . S
N1526 C1518 1.356 . S
N1526 H1532 0.984 . S
N1526 H1533 0.984 . S
N1527 C1520 1.356 . S
N1527 H1530 0.984 . S
N1527 H1531 0.985 . S
H1528 N1523 0.984 1_455 S
H1529 N1523 0.985 1_455 S
H1530 N1527 0.984 . S
H1531 N1527 0.985 . S
H1532 N1526 0.984 . S
H1533 N1526 0.984 . S
H1534 N1522 0.984 . S
H1535 N1522 0.985 . S
C1536 C1537 1.363 . S
C1536 C1542 1.379 . S
C1536 N1544 1.356 . S
C1537 C1536 1.363 . S
C1537 C1543 1.363 . S
C1538 C1539 1.363 . S
C1538 C1543 1.379 . S
C1538 N1545 1.378 . S
C1539 C1538 1.363 . S
C1539 C1542 1.363 . S
N1540 C1542 1.356 . S
N1540 H1552 0.984 . S
N1540 H1553 0.985 . S
N1541 C1543 1.356 1_554 S
N1541 H1546 0.984 . S
N1541 H1547 0.985 . S
C1542 C1536 1.379 . S
C1542 C1539 1.363 . S
C1542 N1540 1.356 . S
C1543 C1537 1.363 . S
C1543 C1538 1.379 . S
C1543 N1541 1.356 1_556 S
N1544 C1536 1.356 . S
N1544 H1550 0.984 . S
N1544 H1551 0.984 . S
N1545 C1538 1.378 . S
N1545 H1548 0.971 1_545 S
N1545 H1549 0.976 1_545 S
H1546 N1541 0.984 . S
H1547 N1541 0.985 . S
H1548 N1545 0.971 1_565 S
H1549 N1545 0.976 1_565 S
H1550 N1544 0.984 . S
H1551 N1544 0.984 . S
H1552 N1540 0.984 . S
H1553 N1540 0.985 . S
C1554 C1555 1.363 . S
C1554 C1560 1.379 . S
C1554 N1562 1.356 . S
C1555 C1554 1.363 . S
C1555 C1561 1.363 . S
C1556 C1557 1.363 . S
C1556 C1561 1.379 . S
C1556 N1563 1.356 . S
C1557 C1556 1.363 . S
C1557 C1560 1.363 . S
N1558 C1560 1.356 . S
N1558 H1570 0.984 . S
N1558 H1571 0.985 . S
N1559 C1561 1.356 . S
N1559 H1564 0.984 1_554 S
N1559 H1565 0.985 1_554 S
C1560 C1554 1.379 . S
C1560 C1557 1.363 . S
C1560 N1558 1.356 . S
C1561 C1555 1.363 . S
C1561 C1556 1.379 . S
C1561 N1559 1.356 . S
N1562 C1554 1.356 . S
N1562 H1568 0.984 . S
N1562 H1569 0.984 . S
N1563 C1556 1.356 . S
N1563 H1566 0.984 . S
N1563 H1567 0.985 . S
H1564 N1559 0.984 1_556 S
H1565 N1559 0.985 1_556 S
H1566 N1563 0.984 . S
H1567 N1563 0.985 . S
H1568 N1562 0.984 . S
H1569 N1562 0.984 . S
H1570 N1558 0.984 . S
H1571 N1558 0.985 . S
C1572 C1573 1.363 . S
C1572 C1578 1.379 . S
C1572 N1580 1.356 . S
C1573 C1572 1.363 . S
C1573 C1579 1.363 . S
C1574 C1575 1.363 . S
C1574 C1579 1.379 . S
C1574 N1581 1.356 . S
C1575 C1574 1.363 . S
C1575 C1578 1.363 . S
N1576 C1578 1.356 . S
N1576 H1588 0.984 . S
N1576 H1589 0.985 . S
N1577 C1579 1.356 . S
N1577 H1582 0.984 . S
N1577 H1583 0.985 . S
C1578 C1572 1.379 . S
C1578 C1575 1.363 . S
C1578 N1576 1.356 . S
C1579 C1573 1.363 . S
C1579 C1574 1.379 . S
C1579 N1577 1.356 . S
N1580 C1572 1.356 . S
N1580 H1586 0.984 . S
N1580 H1587 0.984 . S
N1581 C1574 1.356 . S
N1581 H1584 0.984 . S
N1581 H1585 0.985 . S
H1582 N1577 0.984 . S
H1583 N1577 0.985 . S
H1584 N1581 0.984 . S
H1585 N1581 0.985 . S
H1586 N1580 0.984 . S
H1587 N1580 0.984 . S
H1588 N1576 0.984 . S
H1589 N1576 0.985 . S
C1590 C1591 1.363 . S
C1590 C1596 1.379 . S
C1590 N1598 1.356 . S
C1591 C1590 1.363 . S
C1591 C1597 1.363 . S
C1592 C1593 1.363 . S
C1592 C1597 1.379 . S
C1592 N1599 1.356 . S
C1593 C1592 1.363 . S
C1593 C1596 1.363 . S
N1594 C1596 1.356 . S
N1594 H1606 0.984 1_565 S
N1594 H1607 0.985 1_565 S
N1595 C1597 1.356 . S
N1595 H1600 0.984 . S
N1595 H1601 0.985 . S
C1596 C1590 1.379 . S
C1596 C1593 1.363 . S
C1596 N1594 1.356 . S
C1597 C1591 1.363 . S
C1597 C1592 1.379 . S
C1597 N1595 1.356 . S
N1598 C1590 1.356 . S
N1598 H1604 0.984 . S
N1598 H1605 0.984 . S
N1599 C1592 1.356 . S
N1599 H1602 0.984 . S
N1599 H1603 0.985 . S
H1600 N1595 0.984 . S
H1601 N1595 0.985 . S
H1602 N1599 0.984 . S
H1603 N1599 0.985 . S
H1604 N1598 0.984 . S
H1605 N1598 0.984 . S
H1606 N1594 0.984 1_545 S
H1607 N1594 0.985 1_545 S
C1608 C1609 1.363 . S
C1608 C1614 1.379 . S
C1608 N1616 1.356 . S
C1609 C1608 1.363 . S
C1609 C1615 1.363 . S
C1610 C1611 1.363 . S
C1610 C1615 1.379 . S
C1610 N1617 1.355 1_556 S
C1611 C1610 1.363 . S
C1611 C1614 1.363 . S
N1612 C1614 1.356 . S
N1612 H1624 0.984 . S
N1612 H1625 0.985 . S
N1613 C1615 1.368 . S
N1613 H1618 0.980 1_455 S
N1613 H1619 0.978 1_455 S
C1614 C1608 1.379 . S
C1614 C1611 1.363 . S
C1614 N1612 1.356 . S
C1615 C1609 1.363 . S
C1615 C1610 1.379 . S
C1615 N1613 1.368 . S
N1616 C1608 1.356 . S
N1616 H1622 0.984 . S
N1616 H1623 0.984 . S
N1617 C1610 1.355 1_554 S
N1617 H1620 0.985 . S
N1617 H1621 0.985 . S
H1618 N1613 0.980 1_655 S
H1619 N1613 0.978 1_655 S
H1620 N1617 0.985 . S
H1621 N1617 0.985 . S
H1622 N1616 0.984 . S
H1623 N1616 0.984 . S
H1624 N1612 0.984 . S
H1625 N1612 0.985 . S
C1626 C1627 1.363 . S
C1626 C1632 1.379 . S
C1626 N1634 1.356 . S
C1627 C1626 1.363 . S
C1627 C1633 1.363 . S
C1628 C1629 1.363 . S
C1628 C1633 1.379 . S
C1628 N1635 1.356 . S
C1629 C1628 1.363 . S
C1629 C1632 1.363 . S
N1630 C1632 1.356 . S
N1630 H1642 0.984 . S
N1630 H1643 0.985 . S
N1631 C1633 1.356 . S
N1631 H1636 0.984 . S
N1631 H1637 0.985 . S
C1632 C1626 1.379 . S
C1632 C1629 1.363 . S
C1632 N1630 1.356 . S
C1633 C1627 1.363 . S
C1633 C1628 1.379 . S
C1633 N1631 1.356 . S
N1634 C1626 1.356 . S
N1634 H1640 0.984 . S
N1634 H1641 0.984 . S
N1635 C1628 1.356 . S
N1635 H1638 0.984 . S
N1635 H1639 0.985 . S
H1636 N1631 0.984 . S
H1637 N1631 0.985 . S
H1638 N1635 0.984 . S
H1639 N1635 0.985 . S
H1640 N1634 0.984 . S
H1641 N1634 0.984 . S
H1642 N1630 0.984 . S
H1643 N1630 0.985 . S
C1644 C1645 1.363 . S
C1644 C1650 1.379 . S
C1644 N1652 1.356 . S
C1645 C1644 1.363 . S
C1645 C1651 1.363 . S
C1646 C1647 1.363 . S
C1646 C1651 1.379 . S
C1646 N1653 1.356 . S
C1647 C1646 1.363 . S
C1647 C1650 1.363 . S
N1648 C1650 1.356 . S
N1648 H1660 0.984 . S
N1648 H1661 0.985 . S
N1649 C1651 1.356 . S
N1649 H1654 0.984 . S
N1649 H1655 0.985 . S
C1650 C1644 1.379 . S
C1650 C1647 1.363 . S
C1650 N1648 1.356 . S
C1651 C1645 1.363 . S
C1651 C1646 1.379 . S
C1651 N1649 1.356 . S
N1652 C1644 1.356 . S
N1652 H1658 0.984 . S
N1652 H1659 0.984 . S
N1653 C1646 1.356 . S
N1653 H1656 0.984 . S
N1653 H1657 0.985 . S
H1654 N1649 0.984 . S
H1655 N1649 0.985 . S
H1656 N1653 0.984 . S
H1657 N1653 0.985 . S
H1658 N1652 0.984 . S
H1659 N1652 0.984 . S
H1660 N1648 0.984 . S
H1661 N1648 0.985 . S
C1662 C1663 1.363 . S
C1662 C1668 1.379 . S
C1662 N1670 1.356 . S
C1663 C1662 1.363 . S
C1663 C1669 1.363 . S
C1664 C1665 1.363 . S
C1664 C1669 1.379 . S
C1664 N1671 1.356 . S
C1665 C1664 1.363 . S
C1665 C1668 1.363 . S
N1666 C1668 1.356 . S
N1666 H1678 0.984 . S
N1666 H1679 0.985 . S
N1667 C1669 1.356 . S
N1667 H1672 0.984 . S
N1667 H1673 0.985 . S
C1668 C1662 1.379 . S
C1668 C1665 1.363 . S
C1668 N1666 1.356 . S
C1669 C1663 1.363 . S
C1669 C1664 1.379 . S
C1669 N1667 1.356 . S
N1670 C1662 1.356 . S
N1670 H1676 0.984 . S
N1670 H1677 0.984 . S
N1671 C1664 1.356 . S
N1671 H1674 0.982 1_655 S
N1671 H1675 0.985 . S
H1672 N1667 0.984 . S
H1673 N1667 0.985 . S
H1674 N1671 0.982 1_455 S
H1675 N1671 0.985 . S
H1676 N1670 0.984 . S
H1677 N1670 0.984 . S
H1678 N1666 0.984 . S
H1679 N1666 0.985 . S
C1680 C1681 1.363 . S
C1680 C1686 1.379 . S
C1680 N1688 1.356 . S
C1681 C1680 1.363 . S
C1681 C1687 1.363 . S
C1682 C1683 1.363 . S
C1682 C1687 1.379 . S
C1682 N1689 1.356 . S
C1683 C1682 1.363 . S
C1683 C1686 1.363 . S
N1684 C1686 1.356 . S
N1684 H1696 0.984 . S
N1684 H1697 0.985 . S
N1685 C1687 1.356 . S
N1685 H1690 0.984 . S
N1685 H1691 0.985 . S
C1686 C1680 1.379 . S
C1686 C1683 1.363 . S
C1686 N1684 1.356 . S
C1687 C1681 1.363 . S
C1687 C1682 1.379 . S
C1687 N1685 1.356 . S
N1688 C1680 1.356 . S
N1688 H1694 0.984 . S
N1688 H1695 0.984 . S
N1689 C1682 1.356 . S
N1689 H1692 0.984 1_655 S
N1689 H1693 0.985 . S
H1690 N1685 0.984 . S
H1691 N1685 0.985 . S
H1692 N1689 0.984 1_455 S
H1693 N1689 0.985 . S
H1694 N1688 0.984 . S
H1695 N1688 0.984 . S
H1696 N1684 0.984 . S
H1697 N1684 0.985 . S
C1698 C1699 1.363 . S
C1698 C1704 1.379 . S
C1698 N1706 1.356 . S
C1699 C1698 1.363 . S
C1699 C1705 1.363 . S
C1700 C1701 1.363 . S
C1700 C1705 1.379 . S
C1700 N1707 1.356 . S
C1701 C1700 1.363 . S
C1701 C1704 1.363 . S
N1702 C1704 1.356 . S
N1702 H1714 0.984 . S
N1702 H1715 0.985 . S
N1703 C1705 1.356 . S
N1703 H1708 0.984 . S
N1703 H1709 0.985 . S
C1704 C1698 1.379 . S
C1704 C1701 1.363 . S
C1704 N1702 1.356 . S
C1705 C1699 1.363 . S
C1705 C1700 1.379 . S
C1705 N1703 1.356 . S
N1706 C1698 1.356 . S
N1706 H1712 0.984 . S
N1706 H1713 0.984 . S
N1707 C1700 1.356 . S
N1707 H1710 0.984 . S
N1707 H1711 0.985 . S
H1708 N1703 0.984 . S
H1709 N1703 0.985 . S
H1710 N1707 0.984 . S
H1711 N1707 0.985 . S
H1712 N1706 0.984 . S
H1713 N1706 0.984 . S
H1714 N1702 0.984 . S
H1715 N1702 0.985 . S
C1716 C1717 1.363 . S
C1716 C1722 1.379 . S
C1716 N1724 1.356 . S
C1717 C1716 1.363 . S
C1717 C1723 1.363 . S
C1718 C1719 1.363 . S
C1718 C1723 1.379 . S
C1718 N1725 1.356 . S
C1719 C1718 1.363 . S
C1719 C1722 1.363 . S
N1720 C1722 1.356 . S
N1720 H1732 0.984 . S
N1720 H1733 0.985 . S
N1721 C1723 1.356 . S
N1721 H1726 0.984 . S
N1721 H1727 0.985 . S
C1722 C1716 1.379 . S
C1722 C1719 1.363 . S
C1722 N1720 1.356 . S
C1723 C1717 1.363 . S
C1723 C1718 1.379 . S
C1723 N1721 1.356 . S
N1724 C1716 1.356 . S
N1724 H1730 0.984 . S
N1724 H1731 0.984 . S
N1725 C1718 1.356 . S
N1725 H1728 0.984 . S
N1725 H1729 0.985 . S
H1726 N1721 0.984 . S
H1727 N1721 0.985 . S
H1728 N1725 0.984 . S
H1729 N1725 0.985 . S
H1730 N1724 0.984 . S
H1731 N1724 0.984 . S
H1732 N1720 0.984 . S
H1733 N1720 0.985 . S
C1734 C1735 1.363 . S
C1734 C1740 1.379 . S
C1734 N1742 1.356 . S
C1735 C1734 1.363 . S
C1735 C1741 1.363 . S
C1736 C1737 1.363 . S
C1736 C1741 1.379 . S
C1736 N1743 1.356 . S
C1737 C1736 1.363 . S
C1737 C1740 1.363 . S
N1738 C1740 1.356 . S
N1738 H1750 0.984 1_455 S
N1738 H1751 0.985 1_455 S
N1739 C1741 1.356 . S
N1739 H1744 0.984 . S
N1739 H1745 0.985 . S
C1740 C1734 1.379 . S
C1740 C1737 1.363 . S
C1740 N1738 1.356 . S
C1741 C1735 1.363 . S
C1741 C1736 1.379 . S
C1741 N1739 1.356 . S
N1742 C1734 1.356 . S
N1742 H1748 0.984 . S
N1742 H1749 0.984 . S
N1743 C1736 1.356 . S
N1743 H1746 0.984 . S
N1743 H1747 0.985 . S
H1744 N1739 0.984 . S
H1745 N1739 0.985 . S
H1746 N1743 0.984 . S
H1747 N1743 0.985 . S
H1748 N1742 0.984 . S
H1749 N1742 0.984 . S
H1750 N1738 0.984 1_655 S
H1751 N1738 0.985 1_655 S
C1752 C1753 1.363 . S
C1752 C1758 1.379 . S
C1752 N1760 1.356 . S
C1753 C1752 1.363 . S
C1753 C1759 1.363 . S
C1754 C1755 1.363 . S
C1754 C1759 1.379 . S
C1754 N1761 1.356 . S
C1755 C1754 1.363 . S
C1755 C1758 1.363 . S
N1756 C1758 1.356 . S
N1756 H1768 0.984 . S
N1756 H1769 0.985 . S
N1757 C1759 1.356 . S
N1757 H1762 0.984 . S
N1757 H1763 0.985 . S
C1758 C1752 1.379 . S
C1758 C1755 1.363 . S
C1758 N1756 1.356 . S
C1759 C1753 1.363 . S
C1759 C1754 1.379 . S
C1759 N1757 1.356 . S
N1760 C1752 1.356 . S
N1760 H1766 0.984 . S
N1760 H1767 0.984 . S
N1761 C1754 1.356 . S
N1761 H1764 0.984 . S
N1761 H1765 0.985 . S
H1762 N1757 0.984 . S
H1763 N1757 0.985 . S
H1764 N1761 0.984 . S
H1765 N1761 0.985 . S
H1766 N1760 0.984 . S
H1767 N1760 0.984 . S
H1768 N1756 0.984 . S
H1769 N1756 0.985 . S
C1770 C1771 1.363 . S
C1770 C1776 1.379 . S
C1770 N1778 1.356 . S
C1771 C1770 1.363 . S
C1771 C1777 1.363 . S
C1772 C1773 1.363 . S
C1772 C1777 1.379 . S
C1772 N1779 1.356 . S
C1773 C1772 1.363 . S
C1773 C1776 1.363 . S
N1774 C1776 1.356 . S
N1774 H1786 0.984 . S
N1774 H1787 0.985 . S
N1775 C1777 1.356 . S
N1775 H1780 0.984 . S
N1775 H1781 0.985 . S
C1776 C1770 1.379 . S
C1776 C1773 1.363 . S
C1776 N1774 1.356 . S
C1777 C1771 1.363 . S
C1777 C1772 1.379 . S
C1777 N1775 1.356 . S
N1778 C1770 1.356 . S
N1778 H1784 0.984 . S
N1778 H1785 0.984 . S
N1779 C1772 1.356 . S
N1779 H1782 0.984 . S
N1779 H1783 0.985 . S
H1780 N1775 0.984 . S
H1781 N1775 0.985 . S
H1782 N1779 0.984 . S
H1783 N1779 0.985 . S
H1784 N1778 0.984 . S
H1785 N1778 0.984 . S
H1786 N1774 0.984 . S
H1787 N1774 0.985 . S
C1788 C1789 1.363 . S
C1788 C1794 1.379 . S
C1788 N1796 1.356 . S
C1789 C1788 1.363 . S
C1789 C1795 1.363 . S
C1790 C1791 1.363 . S
C1790 C1795 1.379 . S
C1790 N1797 1.356 . S
C1791 C1790 1.363 . S
C1791 C1794 1.363 . S
N1792 C1794 1.356 . S
N1792 H1804 0.984 . S
N1792 H1805 0.985 . S
N1793 C1795 1.356 . S
N1793 H1798 0.984 . S
N1793 H1799 0.985 . S
C1794 C1788 1.379 . S
C1794 C1791 1.363 . S
C1794 N1792 1.356 . S
C1795 C1789 1.363 . S
C1795 C1790 1.379 . S
C1795 N1793 1.356 . S
N1796 C1788 1.356 . S
N1796 H1802 0.984 . S
N1796 H1803 0.984 . S
N1797 C1790 1.356 . S
N1797 H1800 0.984 . S
N1797 H1801 0.985 . S
H1798 N1793 0.984 . S
H1799 N1793 0.985 . S
H1800 N1797 0.984 . S
H1801 N1797 0.985 . S
H1802 N1796 0.984 . S
H1803 N1796 0.984 . S
H1804 N1792 0.984 . S
H1805 N1792 0.985 . S
C1806 C1807 1.363 . S
C1806 C1812 1.379 . S
C1806 N1814 1.356 . S
C1807 C1806 1.363 . S
C1807 C1813 1.363 . S
C1808 C1809 1.363 . S
C1808 C1813 1.379 . S
C1808 N1815 1.356 . S
C1809 C1808 1.363 . S
C1809 C1812 1.363 . S
N1810 C1812 1.356 . S
N1810 H1822 0.984 . S
N1810 H1823 0.985 1_545 S
N1811 C1813 1.356 . S
N1811 H1816 0.984 . S
N1811 H1817 0.985 . S
C1812 C1806 1.379 . S
C1812 C1809 1.363 . S
C1812 N1810 1.356 . S
C1813 C1807 1.363 . S
C1813 C1808 1.379 . S
C1813 N1811 1.356 . S
N1814 C1806 1.356 . S
N1814 H1820 0.984 . S
N1814 H1821 0.984 . S
N1815 C1808 1.356 . S
N1815 H1818 0.984 . S
N1815 H1819 0.985 . S
H1816 N1811 0.984 . S
H1817 N1811 0.985 . S
H1818 N1815 0.984 . S
H1819 N1815 0.985 . S
H1820 N1814 0.984 . S
H1821 N1814 0.984 . S
H1822 N1810 0.984 . S
H1823 N1810 0.985 1_565 S
C529 C7 1.756 . S
C531 C401 1.680 . S
C547 C427 1.680 . S
C549 C29 1.756 . S
C565 C50 1.756 . S
C567 C361 1.680 . S
C583 C72 1.756 . S
C585 C379 1.680 . S
C601 C489 1.680 . S
C603 C95 1.756 . S
C619 C116 1.756 . S
C621 C467 1.680 . S
C637 C515 1.680 . S
C639 C138 1.756 . S
C655 C161 1.756 . S
C657 C449 1.680 . S
C673 C183 1.756 . S
C675 C291 1.680 . S
C691 C204 1.756 . S
C693 C335 1.680 . S
C709 C313 1.680 . S
C711 C226 1.756 . S
C727 C249 1.756 . S
C729 C269 1.680 . S
C745 C273 1.756 . S
C747 C139 1.680 . S
C763 C295 1.756 . S
C765 C160 1.680 . S
C781 C317 1.756 . S
C783 C94 1.680 . S
C799 C117 1.680 . S
C801 C339 1.756 . S
C817 C357 1.756 . S
C819 C227 1.680 . S
C835 C205 1.680 . S
C837 C383 1.756 . S
C853 C248 1.680 . S
C855 C405 1.756 . S
C871 C182 1.680 . S
C873 C423 1.756 . S
C889 C28 1.680 . S
C891 C445 1.756 . S
C907 C73 1.680 . S
C909 C471 1.756 . S
C925 C51 1.680 . S
C927 C493 1.756 . S
C943 C511 1.756 . S
C945 C6 1.680 . S
C961 C96 1.439 . S
C963 C9 1.312 . S
C979 C114 1.439 . S
C981 C31 1.312 . S
C997 C136 1.438 . S
C999 C49 1.312 . S
C1015 C162 1.438 . S
C1017 C71 1.312 . S
C1033 C97 1.312 . S
C1035 C184 1.439 . S
C1051 C115 1.312 . S
C1053 C250 1.438 . S
C1069 C137 1.312 . S
C1071 C202 1.439 . S
C1087 C163 1.312 . S
C1089 C224 1.438 . S
C1105 C185 1.312 . S
C1107 C8 1.439 . S
C1123 C203 1.312 . S
C1125 C48 1.438 . S
C1141 C225 1.312 . S
C1143 C70 1.439 . S
C1159 C30 1.438 . S
C1161 C251 1.312 . S
C1177 C356 1.439 . S
C1179 C271 1.312 . S
C1195 C382 1.439 . S
C1197 C293 1.312 . S
C1213 C315 1.312 . S
C1215 C404 1.438 . S
C1231 C337 1.312 . S
C1233 C422 1.438 . S
C1249 C444 1.439 . S
C1251 C358 1.312 . S
C1267 C381 1.312 . S
C1269 C510 1.438 . S
C1285 C470 1.439 . S
C1287 C403 1.312 . S
C1303 C424 1.312 . S
C1305 C492 1.438 . S
C1321 C272 1.439 . S
C1323 C446 1.312 . S
C1339 C469 1.312 . S
C1341 C316 1.438 . S
C1357 C491 1.312 . S
C1359 C338 1.439 . S
C1375 C294 1.438 . S
C1377 C512 1.312 . S
C1393 C4 1.366 . S
C1395 C207 1.387 . S
C1411 C229 1.387 . S
C1413 C26 1.366 . S
C1429 C181 1.387 . S
C1431 C52 1.366 . S
C1447 C247 1.387 . S
C1449 C74 1.366 . S
C1465 C92 1.366 . S
C1467 C75 1.387 . S
C1483 C53 1.387 . S
C1485 C118 1.366 . S
C1501 C140 1.366 . S
C1503 C27 1.387 . S
C1519 C5 1.387 . S
C1521 C158 1.366 . S
C1537 C180 1.366 . S
C1539 C119 1.387 . S
C1555 C206 1.366 . S
C1557 C159 1.387 . S
C1573 C228 1.366 . S
C1575 C141 1.387 . S
C1591 C246 1.366 . S
C1593 C93 1.387 . S
C1609 C268 1.366 . S
C1611 C468 1.387 . S
C1627 C290 1.366 . S
C1629 C490 1.387 . S
C1645 C447 1.387 . S
C1647 C312 1.366 . S
C1663 C513 1.387 . S
C1665 C334 1.366 . S
C1681 C360 1.366 . S
C1683 C336 1.387 . S
C1699 C378 1.366 . S
C1701 C314 1.387 . S
C1717 C292 1.387 . S
C1719 C400 1.366 . S
C1735 C426 1.366 . S
C1737 C270 1.387 . S
C1753 C448 1.366 . S
C1755 C380 1.387 . S
C1771 C425 1.387 . S
C1773 C466 1.366 . S
C1789 C488 1.366 . S
C1791 C402 1.387 . S
C1807 C514 1.366 . S
C1809 C359 1.387 . S
