# Generated by pormake.
# Topology uoy, (4)-cn, num edge types: 1
# Building blocks:
#     Node 0, Type 0, BuildingBlock: ICAMEG_clean_sbu_1, # of connection points: 4
#     Node 1, Type 0, BuildingBlock: ICAMEG_clean_sbu_1, # of connection points: 4
#     Node 2, Type 0, BuildingBlock: ICAMEG_clean_sbu_1, # of connection points: 4
#     Node 3, Type 0, BuildingBlock: ICAMEG_clean_sbu_1, # of connection points: 4
#     Node 4, Type 0, BuildingBlock: ICAMEG_clean_sbu_1, # of connection points: 4
#     Node 5, Type 0, BuildingBlock: ICAMEG_clean_sbu_1, # of connection points: 4
#     Node 6, Type 0, BuildingBlock: ICAMEG_clean_sbu_1, # of connection points: 4
#     Node 7, Type 0, BuildingBlock: ICAMEG_clean_sbu_1, # of connection points: 4
#     Node 8, Type 0, BuildingBlock: ICAMEG_clean_sbu_1, # of connection points: 4
#     Node 9, Type 0, BuildingBlock: ICAMEG_clean_sbu_1, # of connection points: 4
#     Node 10, Type 0, BuildingBlock: ICAMEG_clean_sbu_1, # of connection points: 4
#     Node 11, Type 0, BuildingBlock: ICAMEG_clean_sbu_1, # of connection points: 4
#     Node 12, Type 0, BuildingBlock: ICAMEG_clean_sbu_1, # of connection points: 4
#     Node 13, Type 0, BuildingBlock: ICAMEG_clean_sbu_1, # of connection points: 4
#     Node 14, Type 0, BuildingBlock: ICAMEG_clean_sbu_1, # of connection points: 4
#     Node 15, Type 0, BuildingBlock: ICAMEG_clean_sbu_1, # of connection points: 4
#     Edge 16, Type (0, 0), None
#     Edge 17, Type (0, 0), None
#     Edge 18, Type (0, 0), None
#     Edge 19, Type (0, 0), None
#     Edge 20, Type (0, 0), None
#     Edge 21, Type (0, 0), None
#     Edge 22, Type (0, 0), None
#     Edge 23, Type (0, 0), None
#     Edge 24, Type (0, 0), None
#     Edge 25, Type (0, 0), None
#     Edge 26, Type (0, 0), None
#     Edge 27, Type (0, 0), None
#     Edge 28, Type (0, 0), None
#     Edge 29, Type (0, 0), None
#     Edge 30, Type (0, 0), None
#     Edge 31, Type (0, 0), None
#     Edge 32, Type (0, 0), None
#     Edge 33, Type (0, 0), None
#     Edge 34, Type (0, 0), None
#     Edge 35, Type (0, 0), None
#     Edge 36, Type (0, 0), None
#     Edge 37, Type (0, 0), None
#     Edge 38, Type (0, 0), None
#     Edge 39, Type (0, 0), None
#     Edge 40, Type (0, 0), None
#     Edge 41, Type (0, 0), None
#     Edge 42, Type (0, 0), None
#     Edge 43, Type (0, 0), None
#     Edge 44, Type (0, 0), None
#     Edge 45, Type (0, 0), None
#     Edge 46, Type (0, 0), None
#     Edge 47, Type (0, 0), None
# Relax obj value: 0.019
# Max RMSD: 0.066
# Mean RMSD: 0.066
data_MOF--net-uoy--node1-ICAMEG_clean_sbu_1--edge1-none
_symmetry_space_group_name_H-M    P1
_symmetry_Int_Tables_number       1
_symmetry_cell_setting            triclinic
loop_
_symmetry_equiv_pos_as_xyz
'x, y, z'
_cell_length_a     14.146471
_cell_length_b     14.13761
_cell_length_c     55.222614
_cell_angle_alpha  90.048964
_cell_angle_beta   90.288447
_cell_angle_gamma 90.089349
loop_
_atom_site_label
_atom_site_type_symbol
_atom_site_fract_x
_atom_site_fract_y
_atom_site_fract_z
_atom_type_partial_charge
Co0 Co 0.32116 0.18759 0.20278 0.0
Co1 Co 0.24553 0.95958 0.21637 0.0
O2 O 0.22803 0.08582 0.20291 0.0
C3 C 0.27813 0.30009 0.15772 0.0
O4 O 0.27685 0.37461 0.17191 0.0
C5 C 0.03747 0.00812 0.22742 0.0
O6 O 0.0499 0.09726 0.22168 0.0
O7 O 0.29628 0.01799 0.24865 0.0
O8 O 0.36018 0.15811 0.23709 0.0
H9 H 0.42802 0.67915 0.24853 0.0
H10 H 0.13246 0.23829 0.18238 0.0
O11 O 0.29084 0.21719 0.16694 0.0
H12 H 0.13133 0.38345 0.26309 0.0
H13 H 0.49197 0.48213 0.23412 0.0
H14 H 0.4758 0.23903 0.17031 0.0
H15 H 0.26163 0.28224 0.25088 0.0
H16 H 0.37158 0.36143 0.23528 0.0
O17 O 0.10855 0.95245 0.22843 0.0
H18 H 0.40442 0.84806 0.23857 0.0
H19 H 0.12078 0.78938 0.21766 0.0
H20 H 0.6046 0.35386 0.1704 0.0
H21 H 0.99642 0.33259 0.19484 0.0
H22 H 0.61548 0.4756 0.20256 0.0
H23 H 0.99514 0.40689 0.23563 0.0
O24 O 0.42509 0.09864 0.19196 0.0
H25 H 0.05337 0.95942 0.13928 0.0
H26 H 0.31955 0.81368 0.18299 0.0
H27 H 0.29102 0.77158 0.14073 0.0
H28 H 0.15753 0.84642 0.11814 0.0
H29 H 0.0878 0.00396 0.18141 0.0
H30 H 0.1401 0.62297 0.22892 0.0
H31 H 0.29522 0.56607 0.24421 0.0
O32 O 0.3779 0.95537 0.20441 0.0
C33 C 0.34705 0.09358 0.25299 0.0
C34 C 0.35982 0.70368 0.24225 0.0
C35 C 0.19834 0.67193 0.23129 0.0
N36 N 0.26055 0.83038 0.22822 0.0
C37 C 0.34609 0.79925 0.23642 0.0
C38 C 0.18744 0.76736 0.22539 0.0
C39 C 0.28532 0.63998 0.23976 0.0
C40 C 0.13665 0.27515 0.19945 0.0
N41 N 0.2153 0.26757 0.21401 0.0
C42 C 0.05726 0.32646 0.20671 0.0
C43 C 0.05611 0.36748 0.22957 0.0
C44 C 0.13233 0.35369 0.24508 0.0
C45 C 0.20887 0.29913 0.23746 0.0
C46 C 0.48859 0.42897 0.22001 0.0
C47 C 0.47907 0.29098 0.18464 0.0
C48 C 0.41802 0.35992 0.22024 0.0
N49 N 0.41336 0.29126 0.2027 0.0
C50 C 0.55255 0.35651 0.18443 0.0
C51 C 0.55772 0.42547 0.20232 0.0
C52 C 0.43779 0.00921 0.1944 0.0
C53 C 0.11135 0.9267 0.1489 0.0
C54 C 0.26024 0.845 0.17372 0.0
C55 C 0.24464 0.82137 0.14957 0.0
C56 C 0.17 0.86316 0.13701 0.0
N57 N 0.20474 0.91015 0.18511 0.0
C58 C 0.1303 0.95019 0.17301 0.0
Co59 Co 0.83841 0.83247 0.44561 0.0
Co60 Co 0.04817 0.74982 0.47003 0.0
O61 O 0.92972 0.73126 0.45219 0.0
C62 C 0.749 0.74293 0.39873 0.0
O63 O 0.68562 0.69791 0.41147 0.0
C64 C 0.00264 0.53802 0.47732 0.0
O65 O 0.92176 0.54621 0.46592 0.0
O66 O 0.97197 0.79861 0.49946 0.0
O67 O 0.85708 0.88419 0.48051 0.0
H68 H 0.30812 0.938 0.51067 0.0
H69 H 0.79528 0.62508 0.4423 0.0
O70 O 0.81753 0.78788 0.40952 0.0
H71 H 0.56906 0.75414 0.50095 0.0
H72 H 0.53758 0.96116 0.40899 0.0
H73 H 0.84486 0.03942 0.44511 0.0
H74 H 0.68178 0.85906 0.48043 0.0
H75 H 0.63103 0.83953 0.42967 0.0
O76 O 0.05113 0.61205 0.48231 0.0
H77 H 0.14827 0.9135 0.49447 0.0
H78 H 0.21661 0.62723 0.47821 0.0
H79 H 0.75226 0.16423 0.42546 0.0
H80 H 0.68022 0.51857 0.46149 0.0
H81 H 0.60058 0.12539 0.40664 0.0
H82 H 0.56204 0.58429 0.49005 0.0
O83 O 0.9432 0.91913 0.43339 0.0
H84 H 0.09152 0.56401 0.39289 0.0
H85 H 0.2013 0.83442 0.44137 0.0
H86 H 0.2434 0.82455 0.3989 0.0
H87 H 0.19804 0.68253 0.37463 0.0
H88 H 0.03055 0.58943 0.43355 0.0
H89 H 0.37383 0.64808 0.49622 0.0
H90 H 0.41999 0.80457 0.51303 0.0
O91 O 0.05687 0.88326 0.45961 0.0
C92 C 0.90264 0.85977 0.49998 0.0
C93 C 0.28787 0.86954 0.50368 0.0
C94 C 0.32447 0.70651 0.49592 0.0
N95 N 0.16991 0.76757 0.48621 0.0
C96 C 0.19718 0.85496 0.49429 0.0
C97 C 0.23386 0.69472 0.48625 0.0
C98 C 0.35089 0.79435 0.50501 0.0
C99 C 0.74516 0.65399 0.45499 0.0
N100 N 0.74178 0.74938 0.45899 0.0
C101 C 0.67973 0.59324 0.46568 0.0
C102 C 0.61394 0.62991 0.48176 0.0
C103 C 0.61697 0.7255 0.48767 0.0
C104 C 0.6812 0.7846 0.47596 0.0
C105 C 0.60451 0.97918 0.41737 0.0
C106 C 0.77724 0.02212 0.43778 0.0
C107 C 0.65876 0.9101 0.42899 0.0
N108 N 0.74616 0.9312 0.43832 0.0
C109 C 0.72497 0.09305 0.42658 0.0
C110 C 0.63898 0.07101 0.41601 0.0
C111 C 0.02251 0.93712 0.44373 0.0
C112 C 0.11669 0.62283 0.40357 0.0
C113 C 0.17737 0.77432 0.43105 0.0
C114 C 0.20462 0.76729 0.40699 0.0
C115 C 0.1763 0.6896 0.3933 0.0
N116 N 0.11405 0.71211 0.44065 0.0
C117 C 0.0841 0.63653 0.42713 0.0
Co118 Co 0.15319 0.33691 0.69381 0.0
Co119 Co 0.23959 0.54516 0.71828 0.0
O120 O 0.25409 0.42736 0.70076 0.0
C121 C 0.19283 0.39131 0.6433 0.0
O122 O 0.18492 0.47957 0.65024 0.0
C123 C 0.44741 0.48841 0.72792 0.0
O124 O 0.43599 0.40483 0.71794 0.0
O125 O 0.18865 0.46844 0.74746 0.0
O126 O 0.10797 0.34656 0.72939 0.0
H127 H 0.0627 0.80233 0.76043 0.0
H128 H 0.34792 0.28443 0.67883 0.0
O129 O 0.19443 0.32587 0.65901 0.0
H130 H 0.26159 0.05649 0.74249 0.0
H131 H 0.05139 0.05833 0.64493 0.0
H132 H 0.94192 0.32943 0.69252 0.0
H133 H 0.14882 0.17898 0.72946 0.0
H134 H 0.16282 0.14976 0.66962 0.0
O135 O 0.37604 0.54225 0.73101 0.0
H136 H 0.08484 0.64268 0.74485 0.0
H137 H 0.3678 0.71081 0.72591 0.0
H138 H 0.82693 0.23735 0.66903 0.0
H139 H 0.46121 0.15983 0.69057 0.0
H140 H 0.88178 0.10122 0.64438 0.0
H141 H 0.41732 0.04433 0.72249 0.0
O142 O 0.06044 0.43918 0.68447 0.0
H143 H 0.45251 0.60235 0.64624 0.0
H144 H 0.16402 0.70141 0.68794 0.0
H145 H 0.19992 0.76766 0.64853 0.0
H146 H 0.34891 0.72364 0.62769 0.0
H147 H 0.4038 0.52419 0.68383 0.0
H148 H 0.35063 0.86899 0.74371 0.0
H149 H 0.19592 0.91697 0.76109 0.0
O150 O 0.10549 0.56085 0.70715 0.0
C151 C 0.13233 0.39492 0.74851 0.0
C152 C 0.13019 0.78325 0.7532 0.0
C153 C 0.2919 0.81982 0.744 0.0
N154 N 0.22789 0.66574 0.7348 0.0
C155 C 0.14315 0.69206 0.74416 0.0
C156 C 0.30159 0.72894 0.73437 0.0
C157 C 0.20525 0.84701 0.75355 0.0
C158 C 0.32818 0.23376 0.69256 0.0
N159 N 0.24147 0.23859 0.7033 0.0
C160 C 0.39286 0.1638 0.69924 0.0
C161 C 0.36857 0.09932 0.71723 0.0
C162 C 0.28087 0.10585 0.72842 0.0
C163 C 0.21771 0.17616 0.72114 0.0
C164 C 0.02616 0.11614 0.65598 0.0
C165 C 0.96544 0.26691 0.68358 0.0
C166 C 0.08872 0.16725 0.67069 0.0
N167 N 0.05862 0.24276 0.68428 0.0
C168 C 0.90029 0.21624 0.66954 0.0
C169 C 0.93112 0.14068 0.65552 0.0
C170 C 0.04647 0.5216 0.69306 0.0
C171 C 0.38902 0.62437 0.65541 0.0
C172 C 0.2273 0.67941 0.67917 0.0
C173 C 0.24867 0.71892 0.65679 0.0
C174 C 0.33107 0.69265 0.645 0.0
N175 N 0.28292 0.61103 0.68921 0.0
C176 C 0.36237 0.58226 0.67725 0.0
Co177 Co 0.67077 0.64285 0.94373 0.0
Co178 Co 0.44958 0.71065 0.96297 0.0
O179 O 0.56977 0.73384 0.94797 0.0
C180 C 0.60651 0.65443 0.89294 0.0
O181 O 0.52153 0.63434 0.90058 0.0
C182 C 0.50147 0.9135 0.9791 0.0
O183 O 0.5916 0.89896 0.97501 0.0
O184 O 0.52191 0.66287 0.99317 0.0
O185 O 0.66698 0.6134 0.97985 0.0
H186 H 0.1876 0.51386 0.99815 0.0
H187 H 0.69159 0.83836 0.92439 0.0
O188 O 0.67228 0.67079 0.90803 0.0
H189 H 0.94726 0.80024 0.98458 0.0
H190 H 0.88429 0.51206 0.88525 0.0
H191 H 0.72142 0.4589 0.96187 0.0
H192 H 0.8378 0.66853 0.97568 0.0
H193 H 0.84002 0.6457 0.91136 0.0
O194 O 0.44233 0.8459 0.97626 0.0
H195 H 0.35553 0.55356 0.99043 0.0
H196 H 0.27349 0.82259 0.96361 0.0
H197 H 0.79286 0.32103 0.94044 0.0
H198 H 0.80061 0.97133 0.93239 0.0
H199 H 0.85161 0.34845 0.89907 0.0
H200 H 0.92994 0.95246 0.96254 0.0
O201 O 0.58331 0.53068 0.93813 0.0
H202 H 0.39036 0.94497 0.89568 0.0
H203 H 0.31918 0.62603 0.92587 0.0
H204 H 0.25305 0.67717 0.88743 0.0
H205 H 0.28472 0.83912 0.87206 0.0
H206 H 0.46449 0.8867 0.9331 0.0
H207 H 0.10698 0.78629 0.97114 0.0
H208 H 0.0622 0.62976 0.98814 0.0
O209 O 0.44291 0.57634 0.95135 0.0
C210 C 0.60529 0.62491 0.99678 0.0
C211 C 0.20645 0.58248 0.99103 0.0
C212 C 0.16067 0.73494 0.97573 0.0
N213 N 0.32474 0.69011 0.97654 0.0
C214 C 0.30134 0.60547 0.9867 0.0
C215 C 0.25577 0.75543 0.97171 0.0
C216 C 0.13576 0.64725 0.98518 0.0
C217 C 0.74822 0.8294 0.9374 0.0
N218 N 0.75855 0.74583 0.94955 0.0
C219 C 0.80958 0.905 0.94189 0.0
C220 C 0.88211 0.8944 0.95883 0.0
C221 C 0.89223 0.80883 0.9711 0.0
C222 C 0.82956 0.73479 0.96615 0.0
C223 C 0.85287 0.49928 0.90277 0.0
C224 C 0.76704 0.46943 0.94682 0.0
C225 C 0.82863 0.57437 0.9178 0.0
N226 N 0.77427 0.5579 0.93774 0.0
C227 C 0.8016 0.39233 0.93385 0.0
C228 C 0.83572 0.40749 0.91065 0.0
C229 C 0.49645 0.51386 0.94246 0.0
C230 C 0.37434 0.8749 0.9023 0.0
C231 C 0.33425 0.69633 0.91974 0.0
C232 C 0.29618 0.72542 0.89772 0.0
C233 C 0.31494 0.81574 0.88907 0.0
N234 N 0.39169 0.75467 0.93286 0.0
C235 C 0.41415 0.84217 0.92393 0.0
Co236 Co 0.3373 0.29021 0.07919 0.0
Co237 Co 0.25123 0.50621 0.05798 0.0
O238 O 0.23769 0.38611 0.07529 0.0
C239 C 0.26073 0.31478 0.13143 0.0
O240 O 0.19483 0.3742 0.12461 0.0
C241 C 0.04351 0.46361 0.05372 0.0
O242 O 0.04774 0.43274 0.07612 0.0
O243 O 0.30382 0.4332 0.02812 0.0
O244 O 0.3663 0.29732 0.04303 0.0
H245 H 0.44088 0.7759 0.02315 0.0
H246 H 0.14375 0.24299 0.09852 0.0
O247 O 0.31696 0.27916 0.11588 0.0
H248 H 0.20077 0.01651 0.03258 0.0
H249 H 0.46857 0.01321 0.12312 0.0
H250 H 0.53606 0.27155 0.06617 0.0
H251 H 0.3225 0.13276 0.04383 0.0
H252 H 0.33956 0.10551 0.10478 0.0
O253 O 0.1188 0.49247 0.04336 0.0
H254 H 0.41585 0.61429 0.03709 0.0
H255 H 0.12036 0.6636 0.03856 0.0
H256 H 0.66871 0.18646 0.08601 0.0
H257 H 0.02464 0.12176 0.08952 0.0
H258 H 0.63454 0.05999 0.11466 0.0
H259 H 0.05246 0.00801 0.05604 0.0
O260 O 0.43956 0.38828 0.08546 0.0
H261 H 0.01601 0.69577 0.10914 0.0
H262 H 0.31224 0.51537 0.10973 0.0
H263 H 0.24956 0.57753 0.14755 0.0
H264 H 0.10024 0.66627 0.14774 0.0
H265 H 0.07415 0.62836 0.07225 0.0
H266 H 0.14448 0.82896 0.0284 0.0
H267 H 0.30626 0.8865 0.01971 0.0
O268 O 0.38228 0.52343 0.07062 0.0
C269 C 0.34721 0.35262 0.02517 0.0
C270 C 0.37097 0.75329 0.0283 0.0
C271 C 0.20474 0.78305 0.03119 0.0
N272 N 0.26683 0.62962 0.04195 0.0
C273 C 0.35586 0.66116 0.03648 0.0
C274 C 0.19166 0.68905 0.03817 0.0
C275 C 0.29523 0.81519 0.02619 0.0
C276 C 0.15841 0.1922 0.08461 0.0
N277 N 0.24168 0.19457 0.0722 0.0
C278 C 0.08957 0.12436 0.07926 0.0
C279 C 0.10486 0.06077 0.06043 0.0
C280 C 0.18829 0.0654 0.04729 0.0
C281 C 0.25677 0.13217 0.05367 0.0
C282 C 0.48416 0.06867 0.11023 0.0
C283 C 0.52195 0.21273 0.07784 0.0
C284 C 0.41146 0.12007 0.09939 0.0
N285 N 0.43128 0.19335 0.08404 0.0
C286 C 0.59653 0.16493 0.08888 0.0
C287 C 0.57709 0.09347 0.10528 0.0
C288 C 0.44866 0.47561 0.08 0.0
C289 C 0.08198 0.65704 0.10924 0.0
C290 C 0.24932 0.55761 0.10879 0.0
C291 C 0.21336 0.59115 0.13069 0.0
C292 C 0.1289 0.64047 0.13088 0.0
N293 N 0.20183 0.57057 0.08733 0.0
C294 C 0.1184 0.6204 0.08778 0.0
Co295 Co 0.73039 0.80334 0.32049 0.0
Co296 Co 0.50225 0.72439 0.30786 0.0
O297 O 0.63083 0.70593 0.32029 0.0
C298 C 0.71843 0.76402 0.37326 0.0
O299 O 0.62738 0.77246 0.36936 0.0
C300 C 0.54038 0.5149 0.29296 0.0
O301 O 0.63274 0.52409 0.29337 0.0
O302 O 0.55674 0.7681 0.27491 0.0
O303 O 0.69117 0.84486 0.28655 0.0
H304 H 0.21761 0.90704 0.27777 0.0
H305 H 0.78658 0.61033 0.33553 0.0
O306 O 0.77406 0.76837 0.35508 0.0
H307 H 0.9416 0.65881 0.25675 0.0
H308 H 0.0686 0.91605 0.31095 0.0
H309 H 0.74301 0.01412 0.32395 0.0
H310 H 0.84412 0.78428 0.27457 0.0
H311 H 0.94786 0.79671 0.31862 0.0
O312 O 0.48812 0.58678 0.29679 0.0
H313 H 0.38873 0.88176 0.28498 0.0
H314 H 0.32989 0.6047 0.31081 0.0
H315 H 0.86778 0.13199 0.32698 0.0
H316 H 0.88232 0.48219 0.31801 0.0
H317 H 0.03071 0.08512 0.31709 0.0
H318 H 0.96083 0.50599 0.27831 0.0
O319 O 0.64068 0.90175 0.33436 0.0
H320 H 0.48101 0.51147 0.38117 0.0
H321 H 0.39449 0.82034 0.34729 0.0
H322 H 0.38576 0.79581 0.39008 0.0
H323 H 0.41844 0.6371 0.40791 0.0
H324 H 0.52113 0.55043 0.33907 0.0
H325 H 0.16183 0.62475 0.30159 0.0
H326 H 0.10424 0.77693 0.28491 0.0
O327 O 0.50283 0.85996 0.3178 0.0
C328 C 0.62922 0.8226 0.27033 0.0
C329 C 0.2429 0.83969 0.28432 0.0
C330 C 0.21111 0.68141 0.29777 0.0
N331 N 0.37108 0.74077 0.29762 0.0
C332 C 0.3396 0.82502 0.28867 0.0
C333 C 0.30741 0.67005 0.30251 0.0
C334 C 0.17879 0.76691 0.28857 0.0
C335 C 0.82143 0.62192 0.31842 0.0
N336 N 0.81106 0.70594 0.30646 0.0
C337 C 0.87506 0.54869 0.30849 0.0
C338 C 0.91864 0.56186 0.28617 0.0
C339 C 0.90729 0.6473 0.27396 0.0
C340 C 0.85143 0.71813 0.28416 0.0
C341 C 0.99743 0.93727 0.31514 0.0
C342 C 0.81385 0.99009 0.32328 0.0
C343 C 0.92659 0.86975 0.31825 0.0
N344 N 0.83382 0.89642 0.32037 0.0
C345 C 0.88489 0.05838 0.32395 0.0
C346 C 0.97643 0.03216 0.31846 0.0
C347 C 0.55353 0.91803 0.32955 0.0
C348 C 0.46422 0.58016 0.37379 0.0
C349 C 0.41615 0.75308 0.35429 0.0
C350 C 0.40676 0.73796 0.37894 0.0
C351 C 0.42817 0.65017 0.38877 0.0
N352 N 0.45869 0.68744 0.33994 0.0
C353 C 0.48318 0.60156 0.34956 0.0
Co354 Co 0.16624 0.24469 0.57412 0.0
Co355 Co 0.24806 0.0144 0.56728 0.0
O356 O 0.26156 0.14494 0.57805 0.0
C357 C 0.18823 0.36816 0.61726 0.0
O358 O 0.18848 0.43807 0.60165 0.0
C359 C 0.45325 0.04614 0.5462 0.0
O360 O 0.43946 0.13137 0.53749 0.0
O361 O 0.20827 0.0619 0.53326 0.0
O362 O 0.14523 0.20795 0.53956 0.0
H363 H 0.07787 0.72827 0.53373 0.0
H364 H 0.34587 0.29608 0.599 0.0
O365 O 0.18073 0.28236 0.60969 0.0
H366 H 0.37089 0.45204 0.51988 0.0
H367 H 0.00702 0.53311 0.53523 0.0
H368 H 0.98694 0.29065 0.59868 0.0
H369 H 0.24394 0.33805 0.52764 0.0
H370 H 0.13815 0.42944 0.54259 0.0
O371 O 0.3868 0.00285 0.5573 0.0
H372 H 0.10156 0.89953 0.541 0.0
H373 H 0.36576 0.84257 0.57484 0.0
H374 H 0.84628 0.38321 0.58776 0.0
H375 H 0.47952 0.40168 0.59122 0.0
H376 H 0.85676 0.50676 0.55718 0.0
H377 H 0.49025 0.48459 0.55189 0.0
O378 O 0.05766 0.15651 0.58264 0.0
H379 H 0.4686 0.9931 0.63971 0.0
H380 H 0.14299 0.93955 0.61189 0.0
H381 H 0.17916 0.93134 0.65469 0.0
H382 H 0.34362 0.95351 0.66914 0.0
H383 H 0.42768 0.02044 0.59738 0.0
H384 H 0.34669 0.67262 0.56677 0.0
H385 H 0.20141 0.61417 0.54626 0.0
O386 O 0.11214 0.01173 0.57571 0.0
C387 C 0.16352 0.13747 0.52586 0.0
C388 C 0.14189 0.75334 0.54238 0.0
C389 C 0.29261 0.72188 0.561 0.0
N390 N 0.23514 0.88181 0.55823 0.0
C391 C 0.15555 0.85017 0.54669 0.0
C392 C 0.30321 0.81873 0.56535 0.0
C393 C 0.21109 0.68908 0.54953 0.0
C394 C 0.34746 0.33388 0.58204 0.0
N395 N 0.27565 0.32427 0.5654 0.0
C396 C 0.4251 0.39217 0.57758 0.0
C397 C 0.43178 0.43777 0.5554 0.0
C398 C 0.36478 0.41931 0.53751 0.0
C399 C 0.2908 0.35666 0.54236 0.0
C400 C 0.00157 0.47791 0.54873 0.0
C401 C 0.99152 0.34003 0.58385 0.0
C402 C 0.07722 0.41703 0.55313 0.0
N403 N 0.07143 0.34605 0.57002 0.0
C404 C 0.91225 0.39489 0.57861 0.0
C405 C 0.91776 0.46433 0.5611 0.0
C406 C 0.04646 0.06678 0.58192 0.0
C407 C 0.39676 0.98269 0.63352 0.0
C408 C 0.21461 0.95331 0.61719 0.0
C409 C 0.23475 0.9474 0.64193 0.0
C410 C 0.32677 0.96033 0.65008 0.0
N411 N 0.28265 0.9788 0.60079 0.0
C412 C 0.37295 0.99488 0.6091 0.0
Co413 Co 0.7506 0.63041 0.82446 0.0
Co414 Co 0.96733 0.73791 0.8183 0.0
O415 O 0.83727 0.73464 0.82815 0.0
C416 C 0.62817 0.64736 0.86706 0.0
O417 O 0.55875 0.63939 0.85144 0.0
C418 C 0.96435 0.94069 0.79517 0.0
O419 O 0.95336 0.91866 0.7723 0.0
O420 O 0.92453 0.69981 0.78367 0.0
O421 O 0.79124 0.6121 0.79021 0.0
H422 H 0.27137 0.6127 0.78394 0.0
H423 H 0.678 0.80847 0.84695 0.0
O424 O 0.71361 0.64609 0.85962 0.0
H425 H 0.53414 0.8067 0.76584 0.0
H426 H 0.47565 0.43507 0.78967 0.0
H427 H 0.72107 0.45723 0.85271 0.0
H428 H 0.65163 0.68856 0.77694 0.0
H429 H 0.5775 0.57114 0.79139 0.0
O430 O 0.95775 0.8788 0.81192 0.0
H431 H 0.09876 0.61369 0.79103 0.0
H432 H 0.12313 0.87488 0.82846 0.0
H433 H 0.626 0.31335 0.84926 0.0
H434 H 0.565 0.93243 0.83602 0.0
H435 H 0.50256 0.3007 0.81798 0.0
H436 H 0.48909 0.93059 0.79536 0.0
O437 O 0.84899 0.53328 0.83395 0.0
H438 H 0.91523 0.92558 0.89403 0.0
H439 H 0.09473 0.66161 0.85829 0.0
H440 H 0.1109 0.69975 0.9019 0.0
H441 H 0.02499 0.83267 0.91972 0.0
H442 H 0.89333 0.88291 0.85147 0.0
H443 H 0.29445 0.8771 0.82146 0.0
H444 H 0.36994 0.74588 0.79884 0.0
O445 O 0.98792 0.60016 0.82577 0.0
C446 C 0.8553 0.64532 0.77624 0.0
C447 C 0.23905 0.6713 0.79342 0.0
C448 C 0.25195 0.82011 0.81424 0.0
N449 N 0.1002 0.74486 0.80973 0.0
C450 C 0.14136 0.67197 0.7976 0.0
C451 C 0.15443 0.81839 0.81807 0.0
C452 C 0.29442 0.74612 0.80174 0.0
C453 C 0.64243 0.80346 0.82967 0.0
N454 N 0.65975 0.72923 0.81425 0.0
C455 C 0.57994 0.87595 0.82336 0.0
C456 C 0.5382 0.8756 0.80052 0.0
C457 C 0.56327 0.80599 0.78399 0.0
C458 C 0.62808 0.73643 0.79081 0.0
C459 C 0.53017 0.4392 0.80343 0.0
C460 C 0.67015 0.45244 0.83814 0.0
C461 C 0.58913 0.51842 0.80474 0.0
N462 N 0.66009 0.52447 0.82168 0.0
C463 C 0.61502 0.37081 0.83674 0.0
C464 C 0.54517 0.36395 0.81916 0.0
C465 C 0.939 0.52932 0.83232 0.0
C466 C 0.95577 0.86843 0.88628 0.0
C467 C 0.05611 0.72031 0.86586 0.0
C468 C 0.06638 0.74154 0.89049 0.0
C469 C 0.01693 0.81628 0.90067 0.0
N470 N 0.99592 0.77195 0.85178 0.0
C471 C 0.94518 0.84447 0.86193 0.0
Co472 Co 0.83007 0.73312 0.70069 0.0
Co473 Co 0.75027 0.50399 0.71006 0.0
O474 O 0.73178 0.63461 0.6998 0.0
C475 C 0.74419 0.74011 0.65039 0.0
O476 O 0.68357 0.67585 0.65745 0.0
C477 C 0.54472 0.52979 0.7297 0.0
O478 O 0.55823 0.61511 0.73846 0.0
O479 O 0.78571 0.55421 0.74359 0.0
O480 O 0.86437 0.6915 0.73491 0.0
H481 H 0.93126 0.22189 0.74135 0.0
H482 H 0.63188 0.79542 0.68668 0.0
O483 O 0.80288 0.77529 0.66568 0.0
H484 H 0.70901 0.96563 0.76205 0.0
H485 H 0.94483 0.07123 0.70167 0.0
H486 H 0.03708 0.73938 0.7076 0.0
H487 H 0.82102 0.85218 0.74481 0.0
H488 H 0.82682 0.94637 0.69508 0.0
O489 O 0.61174 0.48664 0.71902 0.0
H490 H 0.89808 0.39322 0.73723 0.0
H491 H 0.6393 0.329 0.7013 0.0
H492 H 0.16094 0.86172 0.70507 0.0
H493 H 0.51795 0.9088 0.70321 0.0
H494 H 0.11413 0.0289 0.70496 0.0
H495 H 0.55713 0.99637 0.74112 0.0
O496 O 0.9305 0.64517 0.68741 0.0
H497 H 0.53893 0.46894 0.63599 0.0
H498 H 0.86296 0.43563 0.66649 0.0
H499 H 0.83613 0.44311 0.62385 0.0
H500 H 0.67219 0.45265 0.60736 0.0
H501 H 0.57099 0.4907 0.67896 0.0
H502 H 0.66706 0.15931 0.70667 0.0
H503 H 0.814 0.10458 0.72672 0.0
O504 O 0.88777 0.50728 0.70317 0.0
C505 C 0.83774 0.62673 0.74981 0.0
C506 C 0.8664 0.24562 0.73295 0.0
C507 C 0.71842 0.21005 0.7133 0.0
N508 N 0.76712 0.37193 0.7189 0.0
C509 C 0.8471 0.34234 0.73055 0.0
C510 C 0.70272 0.30684 0.7106 0.0
C511 C 0.80133 0.1794 0.72434 0.0
C512 C 0.65006 0.83275 0.70298 0.0
N513 N 0.7349 0.81795 0.7143 0.0
C514 C 0.58473 0.89708 0.71237 0.0
C515 C 0.60646 0.94615 0.73358 0.0
C516 C 0.69167 0.92885 0.74541 0.0
C517 C 0.7545 0.86333 0.73568 0.0
C518 C 0.96592 0.99818 0.70176 0.0
C519 C 0.01693 0.8112 0.70475 0.0
C520 C 0.89895 0.92656 0.69899 0.0
N521 N 0.92412 0.83383 0.70194 0.0
C522 C 0.08703 0.88058 0.70426 0.0
C523 C 0.06083 0.97474 0.70389 0.0
C524 C 0.94857 0.55978 0.69327 0.0
C525 C 0.61065 0.46496 0.64276 0.0
C526 C 0.792 0.44841 0.6606 0.0
C527 C 0.77658 0.44909 0.63575 0.0
C528 C 0.68516 0.45544 0.62668 0.0
N529 N 0.72033 0.46666 0.67646 0.0
C530 C 0.62975 0.47411 0.66753 0.0
Co531 Co 0.28698 0.29236 0.94709 0.0
Co532 Co 0.50855 0.21921 0.96455 0.0
O533 O 0.38587 0.19879 0.95014 0.0
C534 C 0.20351 0.19869 0.89982 0.0
O535 O 0.15438 0.13667 0.91206 0.0
C536 C 0.46524 0.0126 0.98116 0.0
O537 O 0.37598 0.02859 0.98591 0.0
O538 O 0.44425 0.26086 0.99647 0.0
O539 O 0.31297 0.33737 0.9822 0.0
H540 H 0.77953 0.40292 1.0 0.0
H541 H 0.26664 0.07856 0.94454 0.0
O542 O 0.26239 0.25461 0.91082 0.0
H543 H 0.03273 0.18604 1.00424 0.0
H544 H 0.00915 0.38356 0.9024 0.0
H545 H 0.26917 0.49905 0.95165 0.0
H546 H 0.12997 0.30175 0.9822 0.0
H547 H 0.08756 0.27767 0.93029 0.0
O548 O 0.51861 0.07998 0.97416 0.0
H549 H 0.61231 0.37383 0.99057 0.0
H550 H 0.68146 0.09949 0.96463 0.0
H551 H 0.16005 0.61584 0.93375 0.0
H552 H 0.16787 0.96176 0.96549 0.0
H553 H 0.03466 0.5572 0.90602 0.0
H554 H 0.04965 0.0149 0.99558 0.0
O555 O 0.37899 0.39233 0.93488 0.0
H556 H 0.53424 0.02222 0.88892 0.0
H557 H 0.63601 0.31469 0.92955 0.0
H558 H 0.68651 0.28435 0.88786 0.0
H559 H 0.62916 0.13994 0.86663 0.0
H560 H 0.48474 0.05629 0.93077 0.0
H561 H 0.84725 0.1227 0.9761 0.0
H562 H 0.89866 0.27702 0.99319 0.0
O563 O 0.50971 0.3565 0.95554 0.0
C564 C 0.37121 0.31632 0.99964 0.0
C565 C 0.75846 0.33498 0.99287 0.0
C566 C 0.79615 0.17803 0.97948 0.0
N567 N 0.63562 0.23462 0.97743 0.0
C568 C 0.66326 0.3185 0.98726 0.0
C569 C 0.70108 0.16481 0.97346 0.0
C570 C 0.82506 0.26436 0.98903 0.0
C571 C 0.21369 0.10343 0.95707 0.0
N572 N 0.20034 0.1983 0.96076 0.0
C573 C 0.1582 0.03635 0.969 0.0
C574 C 0.09178 0.06618 0.98585 0.0
C575 C 0.08161 0.16231 0.99053 0.0
C576 C 0.13672 0.22752 0.97783 0.0
C577 C 0.05653 0.41227 0.91577 0.0
C578 C 0.20437 0.47574 0.9437 0.0
C579 C 0.10606 0.3513 0.93075 0.0
N580 N 0.18525 0.38181 0.9426 0.0
C581 C 0.14565 0.54124 0.93229 0.0
C582 C 0.07422 0.50864 0.91713 0.0
C583 C 0.46149 0.41375 0.94287 0.0
C584 C 0.55781 0.08601 0.89792 0.0
C585 C 0.61602 0.2494 0.92108 0.0
C586 C 0.64329 0.23312 0.89723 0.0
C587 C 0.61217 0.1517 0.88545 0.0
N588 N 0.56071 0.18611 0.93312 0.0
C589 C 0.53177 0.10488 0.92181 0.0
Co590 Co 0.65794 0.79442 0.19079 0.0
Co591 Co 0.73249 0.01418 0.21093 0.0
O592 O 0.75121 0.89514 0.19475 0.0
C593 C 0.67149 0.85698 0.14 0.0
O594 O 0.65451 0.94266 0.14782 0.0
C595 C 0.93931 0.96799 0.22727 0.0
O596 O 0.92515 0.8766 0.22946 0.0
O597 O 0.69285 0.93837 0.24154 0.0
O598 O 0.63019 0.79934 0.2271 0.0
H599 H 0.54725 0.27563 0.25086 0.0
H600 H 0.85201 0.77367 0.17119 0.0
O601 O 0.68309 0.79013 0.155 0.0
H602 H 0.81715 0.51946 0.23156 0.0
H603 H 0.5541 0.50836 0.14491 0.0
H604 H 0.46111 0.75036 0.20398 0.0
H605 H 0.68515 0.62857 0.22303 0.0
H606 H 0.67081 0.61862 0.16186 0.0
O607 O 0.87139 0.02234 0.22106 0.0
H608 H 0.57393 0.11188 0.2375 0.0
H609 H 0.84889 0.18806 0.21336 0.0
H610 H 0.34117 0.63384 0.18953 0.0
H611 H 0.98577 0.6665 0.17928 0.0
H612 H 0.38928 0.51272 0.15932 0.0
H613 H 0.96877 0.5382 0.20937 0.0
O614 O 0.54751 0.88404 0.18558 0.0
H615 H 0.93196 0.0703 0.13701 0.0
H616 H 0.63932 0.15836 0.17928 0.0
H617 H 0.66733 0.21685 0.13836 0.0
H618 H 0.81734 0.17821 0.1173 0.0
H619 H 0.89462 0.00063 0.1768 0.0
H620 H 0.82511 0.35043 0.22711 0.0
H621 H 0.674 0.39549 0.2466 0.0
O622 O 0.59818 0.01896 0.20171 0.0
C623 C 0.64958 0.85708 0.24468 0.0
C624 C 0.61363 0.25642 0.24272 0.0
C625 C 0.76979 0.29859 0.22961 0.0
N626 N 0.7145 0.13819 0.2255 0.0
C627 C 0.62929 0.16365 0.23504 0.0
C628 C 0.78332 0.20536 0.22223 0.0
C629 C 0.68486 0.3238 0.24032 0.0
C630 C 0.84387 0.71758 0.18432 0.0
N631 N 0.76087 0.70699 0.19658 0.0
C632 C 0.91985 0.65717 0.18879 0.0
C633 C 0.91019 0.58508 0.20576 0.0
C634 C 0.82515 0.57446 0.21813 0.0
C635 C 0.7509 0.63677 0.21335 0.0
C636 C 0.53293 0.55961 0.15841 0.0
C637 C 0.48146 0.69363 0.19237 0.0
C638 C 0.59892 0.62197 0.16833 0.0
N639 N 0.57237 0.68948 0.18478 0.0
C640 C 0.41383 0.62959 0.18365 0.0
C641 C 0.44006 0.56265 0.16642 0.0
C642 C 0.53423 0.96985 0.19204 0.0
C643 C 0.86767 0.08956 0.14625 0.0
C644 C 0.70347 0.13807 0.17019 0.0
C645 C 0.72016 0.17348 0.14712 0.0
C646 C 0.80344 0.15035 0.13519 0.0
N647 N 0.76542 0.07634 0.18072 0.0
C648 C 0.84668 0.05165 0.16897 0.0
Co649 Co 0.24881 0.14316 0.45101 0.0
Co650 Co 0.02471 0.23709 0.45754 0.0
O651 O 0.15573 0.24422 0.44706 0.0
C652 C 0.37382 0.1601 0.40844 0.0
O653 O 0.44368 0.15531 0.42408 0.0
C654 C 0.0456 0.44172 0.47943 0.0
O655 O 0.11165 0.42302 0.49545 0.0
O656 O 0.07239 0.20419 0.49207 0.0
O657 O 0.20943 0.12373 0.48534 0.0
H658 H 0.73294 0.08597 0.4928 0.0
H659 H 0.3143 0.32235 0.42793 0.0
O660 O 0.28795 0.15816 0.41585 0.0
H661 H 0.48049 0.3172 0.50624 0.0
H662 H 0.51452 0.95259 0.49103 0.0
H663 H 0.29421 0.97613 0.42213 0.0
H664 H 0.34708 0.2111 0.49838 0.0
H665 H 0.40385 0.08175 0.48872 0.0
O666 O 0.01772 0.3785 0.46447 0.0
H667 H 0.9047 0.10148 0.48551 0.0
H668 H 0.85748 0.35933 0.44794 0.0
H669 H 0.39139 0.83387 0.42742 0.0
H670 H 0.43861 0.43959 0.4361 0.0
H671 H 0.50303 0.82282 0.46066 0.0
H672 H 0.52793 0.4329 0.47491 0.0
O673 O 0.15576 0.04068 0.44111 0.0
H674 H 0.05221 0.41748 0.37944 0.0
H675 H 0.92048 0.13259 0.41728 0.0
H676 H 0.91816 0.14781 0.37332 0.0
H677 H 0.97917 0.29309 0.35402 0.0
H678 H 0.06604 0.39483 0.42342 0.0
H679 H 0.68731 0.34915 0.45631 0.0
H680 H 0.62373 0.21111 0.4787 0.0
O681 O 0.01582 0.09936 0.45093 0.0
C682 C 0.14415 0.15305 0.49939 0.0
C683 C 0.76036 0.14726 0.48347 0.0
C684 C 0.7346 0.2951 0.46303 0.0
N685 N 0.89202 0.23181 0.46661 0.0
C686 C 0.85749 0.15626 0.47914 0.0
C687 C 0.83158 0.30067 0.45853 0.0
C688 C 0.69884 0.21749 0.47548 0.0
C689 C 0.35332 0.31761 0.44474 0.0
N690 N 0.33647 0.24543 0.46076 0.0
C691 C 0.42279 0.38568 0.44939 0.0
C692 C 0.47204 0.3828 0.47122 0.0
C693 C 0.44588 0.31735 0.48872 0.0
C694 C 0.37311 0.25337 0.48367 0.0
C695 C 0.46645 0.95794 0.47578 0.0
C696 C 0.34109 0.97178 0.43758 0.0
C697 C 0.40425 0.03411 0.47388 0.0
N698 N 0.34282 0.04188 0.4547 0.0
C699 C 0.39716 0.89156 0.43997 0.0
C700 C 0.46053 0.88523 0.45897 0.0
C701 C 0.06617 0.03273 0.44303 0.0
C702 C 0.02205 0.35562 0.38786 0.0
C703 C 0.94879 0.196 0.40956 0.0
C704 C 0.94649 0.20444 0.38437 0.0
C705 C 0.98174 0.28549 0.37351 0.0
N706 N 0.99089 0.26365 0.42372 0.0
C707 C 0.02753 0.34292 0.41295 0.0
Co708 Co 0.84614 0.84158 0.57866 0.0
Co709 Co 0.76248 0.05032 0.55439 0.0
O710 O 0.74415 0.93228 0.57205 0.0
C711 C 0.75596 0.75129 0.62386 0.0
O712 O 0.72673 0.67959 0.61086 0.0
C713 C 0.55017 0.00298 0.54685 0.0
O714 O 0.5601 0.91913 0.55656 0.0
O715 O 0.80819 0.97101 0.52496 0.0
O716 O 0.89827 0.85984 0.54403 0.0
H717 H 0.95453 0.31195 0.51612 0.0
H718 H 0.63984 0.79533 0.58209 0.0
O719 O 0.79783 0.82242 0.61385 0.0
H720 H 0.76764 0.57744 0.521 0.0
H721 H 0.97582 0.53167 0.61116 0.0
H722 H 0.05542 0.85199 0.58496 0.0
H723 H 0.87304 0.68683 0.54281 0.0
H724 H 0.85825 0.62764 0.59008 0.0
O725 O 0.62347 0.05369 0.54265 0.0
H726 H 0.92802 0.15125 0.531 0.0
H727 H 0.63995 0.2188 0.54508 0.0
H728 H 0.1755 0.75647 0.60462 0.0
H729 H 0.53279 0.68312 0.56153 0.0
H730 H 0.13604 0.59642 0.61865 0.0
H731 H 0.59794 0.57066 0.53138 0.0
O732 O 0.93034 0.94724 0.59152 0.0
H733 H 0.5627 0.11759 0.62824 0.0
H734 H 0.84726 0.20595 0.58289 0.0
H735 H 0.81886 0.27665 0.62244 0.0
H736 H 0.6718 0.23826 0.64494 0.0
H737 H 0.6034 0.03474 0.59064 0.0
H738 H 0.66256 0.37624 0.52768 0.0
H739 H 0.82084 0.42337 0.51257 0.0
O740 O 0.89664 0.05889 0.56481 0.0
C741 C 0.86841 0.90069 0.52441 0.0
C742 C 0.88494 0.291 0.52205 0.0
C743 C 0.72097 0.32689 0.52833 0.0
N744 N 0.78099 0.1719 0.53812 0.0
C745 C 0.86926 0.19984 0.53092 0.0
C746 C 0.70818 0.23595 0.53763 0.0
C747 C 0.80975 0.35378 0.52013 0.0
C748 C 0.66853 0.74679 0.56892 0.0
N749 N 0.76378 0.74463 0.56473 0.0
C750 C 0.60754 0.68311 0.55745 0.0
C751 C 0.64388 0.62018 0.54054 0.0
C752 C 0.73941 0.62335 0.53484 0.0
C753 C 0.79866 0.68596 0.54721 0.0
C754 C 0.99355 0.60208 0.60509 0.0
C755 C 0.03608 0.78265 0.5904 0.0
C756 C 0.92637 0.65834 0.59328 0.0
N757 N 0.94652 0.74958 0.58662 0.0
C758 C 0.10536 0.72819 0.60169 0.0
C759 C 0.08338 0.63788 0.60939 0.0
C760 C 0.94949 0.02574 0.58113 0.0
C761 C 0.62528 0.13711 0.61832 0.0
C762 C 0.78465 0.1862 0.59261 0.0
C763 C 0.76764 0.22833 0.61494 0.0
C764 C 0.68639 0.20512 0.62768 0.0
N765 N 0.72558 0.11829 0.5836 0.0
C766 C 0.64747 0.09226 0.59651 0.0
Co767 Co 0.17099 0.33031 0.82657 0.0
Co768 Co 0.95736 0.24406 0.80441 0.0
O769 O 0.07969 0.22859 0.82059 0.0
C770 C 0.17687 0.21006 0.87366 0.0
O771 O 0.12102 0.14618 0.86396 0.0
C772 C 0.99093 0.03774 0.80283 0.0
O773 O 0.02547 0.04855 0.82477 0.0
O774 O 0.02751 0.3007 0.77489 0.0
O775 O 0.14868 0.38241 0.79215 0.0
H776 H 0.68673 0.43468 0.76965 0.0
H777 H 0.23472 0.12543 0.83278 0.0
O778 O 0.19833 0.28435 0.86156 0.0
H779 H 0.42536 0.25731 0.76675 0.0
H780 H 0.46138 0.44892 0.86805 0.0
H781 H 0.17013 0.53597 0.82507 0.0
H782 H 0.31699 0.35897 0.78942 0.0
H783 H 0.36543 0.32802 0.84719 0.0
O784 O 0.96879 0.11082 0.79038 0.0
H785 H 0.84363 0.41151 0.78643 0.0
H786 H 0.80696 0.11382 0.78076 0.0
H787 H 0.263 0.65969 0.84555 0.0
H788 H 0.35118 0.02506 0.81261 0.0
H789 H 0.40527 0.61568 0.86808 0.0
H790 H 0.44584 0.08953 0.77871 0.0
O791 O 0.06849 0.41937 0.83904 0.0
H792 H 0.75716 0.01532 0.85487 0.0
H793 H 0.98074 0.28086 0.85674 0.0
H794 H 0.93269 0.20738 0.89459 0.0
H795 H 0.81831 0.07493 0.89414 0.0
H796 H 0.81049 0.08474 0.81768 0.0
H797 H 0.64419 0.13584 0.76769 0.0
H798 H 0.58298 0.29797 0.7613 0.0
O799 O 0.94185 0.37421 0.81772 0.0
C800 C 0.09916 0.35846 0.77337 0.0
C801 C 0.71006 0.36419 0.77413 0.0
C802 C 0.68672 0.1965 0.77273 0.0
N803 N 0.83364 0.26034 0.78819 0.0
C804 C 0.79996 0.34978 0.78393 0.0
C805 C 0.77927 0.18453 0.78113 0.0
C806 C 0.65223 0.2872 0.76914 0.0
C807 C 0.27848 0.15638 0.81915 0.0
N808 N 0.26911 0.24936 0.81287 0.0
C809 C 0.34345 0.09813 0.80735 0.0
C810 C 0.39673 0.1343 0.78836 0.0
C811 C 0.38571 0.22842 0.7817 0.0
C812 C 0.323 0.28549 0.79452 0.0
C813 C 0.39912 0.46922 0.85785 0.0
C814 C 0.23631 0.51813 0.83317 0.0
C815 C 0.3453 0.40146 0.84562 0.0
N816 N 0.26377 0.42643 0.83382 0.0
C817 C 0.28801 0.58766 0.84509 0.0
C818 C 0.36877 0.56261 0.85777 0.0
C819 C 0.98469 0.4341 0.83088 0.0
C820 C 0.80464 0.07546 0.85538 0.0
C821 C 0.9286 0.22582 0.85582 0.0
C822 C 0.9023 0.18347 0.87763 0.0
C823 C 0.83932 0.1083 0.87738 0.0
N824 N 0.8961 0.19301 0.83394 0.0
C825 C 0.83351 0.11852 0.8339 0.0
Co826 Co 0.63554 0.71308 0.07143 0.0
Co827 Co 0.74741 0.5005 0.0627 0.0
O828 O 0.74201 0.6299 0.07285 0.0
C829 C 0.66472 0.83607 0.11396 0.0
O830 O 0.65479 0.90581 0.09863 0.0
C831 C 0.94916 0.47807 0.0424 0.0
O832 O 0.92374 0.423 0.02445 0.0
O833 O 0.69905 0.54294 0.02859 0.0
O834 O 0.60548 0.66986 0.03767 0.0
H835 H 0.62563 0.19395 0.02795 0.0
H836 H 0.81858 0.79313 0.08932 0.0
O837 O 0.66241 0.75088 0.10622 0.0
H838 H 0.78659 0.91862 1.00671 0.0
H839 H 0.43818 0.0035 0.04736 0.0
H840 H 0.46391 0.72935 0.10136 0.0
H841 H 0.66679 0.81303 0.02293 0.0
H842 H 0.57424 0.90276 0.04507 0.0
O843 O 0.88695 0.52253 0.05478 0.0
H844 H 0.6225 0.3658 0.03655 0.0
H845 H 0.88567 0.34436 0.07307 0.0
H846 H 0.32156 0.82436 0.10186 0.0
H847 H 0.94041 0.89884 0.07356 0.0
H848 H 0.30732 0.96322 0.07559 0.0
H849 H 0.9246 0.96394 0.03177 0.0
O850 O 0.54672 0.61144 0.08304 0.0
H851 H 0.9389 0.563 0.13769 0.0
H852 H 0.68304 0.36803 0.10262 0.0
H853 H 0.72276 0.35752 0.14625 0.0
H854 H 0.8518 0.4508 0.16371 0.0
H855 H 0.89411 0.5802 0.09505 0.0
H856 H 0.89619 0.17574 0.06264 0.0
H857 H 0.76558 0.09926 0.03973 0.0
O858 O 0.61214 0.47492 0.0716 0.0
C859 C 0.63748 0.60852 0.02264 0.0
C860 C 0.68467 0.22736 0.03713 0.0
C861 C 0.83638 0.21703 0.05659 0.0
N862 N 0.75664 0.36716 0.05388 0.0
C863 C 0.68296 0.32456 0.04221 0.0
C864 C 0.83064 0.31334 0.06207 0.0
C865 C 0.76309 0.17402 0.04381 0.0
C866 C 0.80738 0.82487 0.07178 0.0
N867 N 0.72722 0.80558 0.05856 0.0
C868 C 0.87864 0.88311 0.06264 0.0
C869 C 0.87045 0.91862 0.03923 0.0
C870 C 0.79304 0.89314 0.02511 0.0
C871 C 0.72411 0.83361 0.03476 0.0
C872 C 0.44241 0.94132 0.05872 0.0
C873 C 0.45772 0.78495 0.08813 0.0
C874 C 0.52089 0.88175 0.05741 0.0
N875 N 0.52738 0.80174 0.07142 0.0
C876 C 0.37713 0.84101 0.08931 0.0
C877 C 0.36926 0.91926 0.07444 0.0
C878 C 0.54323 0.52189 0.0801 0.0
C879 C 0.8838 0.51906 0.13002 0.0
C880 C 0.73999 0.4103 0.11002 0.0
C881 C 0.76219 0.40281 0.13466 0.0
C882 C 0.83477 0.45655 0.14463 0.0
N883 N 0.78799 0.47257 0.09575 0.0
C884 C 0.85875 0.52698 0.10565 0.0
Co885 Co 0.3334 0.13173 0.33214 0.0
Co886 Co 0.54738 0.21111 0.30912 0.0
O887 O 0.42968 0.22931 0.32635 0.0
C888 C 0.39537 0.16169 0.38246 0.0
O889 O 0.48204 0.14858 0.37498 0.0
C890 C 0.49631 0.41839 0.29447 0.0
O891 O 0.40597 0.4095 0.29932 0.0
O892 O 0.46751 0.16274 0.27984 0.0
O893 O 0.33563 0.09491 0.29641 0.0
H894 H 0.80629 0.02611 0.26775 0.0
H895 H 0.30104 0.32781 0.34978 0.0
O896 O 0.32825 0.16546 0.3673 0.0
H897 H 0.04502 0.26436 0.29113 0.0
H898 H 0.05005 0.02327 0.3786 0.0
H899 H 0.30744 0.92684 0.32475 0.0
H900 H 0.16778 0.14475 0.29905 0.0
H901 H 0.15229 0.14195 0.35942 0.0
O902 O 0.55093 0.34708 0.29644 0.0
H903 H 0.64323 0.05187 0.28231 0.0
H904 H 0.71818 0.33131 0.30367 0.0
H905 H 0.20577 0.80426 0.34297 0.0
H906 H 0.18124 0.45076 0.34188 0.0
H907 H 0.07593 0.85299 0.37044 0.0
H908 H 0.05145 0.41887 0.31256 0.0
O909 O 0.42993 0.02842 0.33887 0.0
H910 H 0.62514 0.4441 0.37585 0.0
H911 H 0.68932 0.12763 0.34381 0.0
H912 H 0.76253 0.17619 0.38144 0.0
H913 H 0.73596 0.33809 0.39747 0.0
H914 H 0.53915 0.38537 0.33996 0.0
H915 H 0.87698 0.31063 0.28727 0.0
H916 H 0.92243 0.15671 0.26899 0.0
O917 O 0.55884 0.07802 0.31996 0.0
C918 C 0.38783 0.11535 0.27802 0.0
C919 C 0.78563 0.09424 0.27476 0.0
C920 C 0.82624 0.25346 0.28601 0.0
N921 N 0.66908 0.19403 0.29326 0.0
C922 C 0.69397 0.10892 0.28347 0.0
C923 C 0.73494 0.2651 0.29496 0.0
C924 C 0.85158 0.16738 0.27576 0.0
C925 C 0.24482 0.31357 0.33695 0.0
N926 N 0.24021 0.22851 0.3252 0.0
C927 C 0.17732 0.38351 0.33253 0.0
C928 C 0.10456 0.36565 0.31605 0.0
C929 C 0.10084 0.27897 0.30404 0.0
C930 C 0.17063 0.21153 0.30855 0.0
C931 C 0.10525 0.00125 0.36636 0.0
C932 C 0.24863 0.94762 0.3355 0.0
C933 C 0.16266 0.06824 0.35501 0.0
N934 N 0.23424 0.04104 0.33987 0.0
C935 C 0.19262 0.87835 0.34641 0.0
C936 C 0.12039 0.90561 0.36195 0.0
C937 C 0.51442 0.01543 0.33149 0.0
C938 C 0.63891 0.37422 0.36883 0.0
C939 C 0.67506 0.19697 0.35027 0.0
C940 C 0.71828 0.22517 0.37177 0.0
C941 C 0.70171 0.3151 0.3809 0.0
N942 N 0.61331 0.25472 0.33835 0.0
C943 C 0.59275 0.34152 0.34796 0.0
loop_
_geom_bond_atom_site_label_1
_geom_bond_atom_site_label_2
_geom_bond_distance
_geom_bond_site_symmetry_2
_ccdc_geom_bond_type
Co0 O2 2.143 . S
Co0 O8 2.074 . S
Co0 O11 2.093 . S
Co0 O24 2.097 . S
Co0 N41 2.151 . S
Co0 N49 2.214 . S
Co1 O2 2.160 1_565 S
Co1 O7 2.058 1_565 S
Co1 O17 2.057 . S
Co1 O32 2.037 . S
Co1 N36 2.145 . S
Co1 N57 2.257 . S
O2 Co0 2.143 . S
O2 Co1 2.160 1_545 S
C3 O4 1.278 . S
C3 O11 1.224 . S
O4 C3 1.278 . S
C5 O6 1.245 . S
C5 O17 1.232 1_545 S
O6 C5 1.245 . S
O7 Co1 2.058 1_545 S
O7 C33 1.269 . S
O8 Co0 2.074 . S
O8 C33 1.257 . S
H9 C34 0.930 . S
H10 C40 0.930 . S
O11 Co0 2.093 . S
O11 C3 1.224 . S
H12 C44 0.929 . S
H13 C46 0.930 . S
H14 C47 0.930 . S
H15 C45 0.929 . S
H16 C48 0.928 . S
O17 Co1 2.057 . S
O17 C5 1.232 1_565 S
H18 C37 0.929 . S
H19 C38 0.929 . S
H20 C50 0.931 . S
H21 C42 0.929 . S
H22 C51 0.930 . S
H23 C43 0.931 . S
O24 Co0 2.097 . S
O24 C52 1.214 . S
H25 C53 0.929 . S
H26 C54 0.929 . S
H27 C55 0.930 . S
H28 C56 0.929 . S
H29 C58 0.930 . S
H30 C35 0.930 . S
H31 C39 0.930 . S
O32 Co1 2.037 . S
O32 C52 1.234 1_565 S
C33 O7 1.269 . S
C33 O8 1.257 . S
C34 H9 0.930 . S
C34 C37 1.388 . S
C34 C39 1.418 . S
C35 H30 0.930 . S
C35 C38 1.404 . S
C35 C39 1.353 . S
N36 Co1 2.145 . S
N36 C37 1.397 . S
N36 C38 1.334 . S
C37 H18 0.929 . S
C37 C34 1.388 . S
C37 N36 1.397 . S
C38 H19 0.929 . S
C38 C35 1.404 . S
C38 N36 1.334 . S
C39 H31 0.930 . S
C39 C34 1.418 . S
C39 C35 1.353 . S
C40 H10 0.930 . S
C40 N41 1.330 . S
C40 C42 1.446 . S
N41 Co0 2.151 . S
N41 C40 1.330 . S
N41 C45 1.418 . S
C42 H21 0.929 . S
C42 C40 1.446 . S
C42 C43 1.332 . S
C43 H23 0.931 . S
C43 C42 1.332 . S
C43 C44 1.267 . S
C44 H12 0.929 . S
C44 C43 1.267 . S
C44 C45 1.251 . S
C45 H15 0.929 . S
C45 N41 1.418 . S
C45 C44 1.251 . S
C46 H13 0.930 . S
C46 C48 1.406 . S
C46 C51 1.261 . S
C47 H14 0.930 . S
C47 N49 1.325 . S
C47 C50 1.357 . S
C48 H16 0.928 . S
C48 C46 1.406 . S
C48 N49 1.261 . S
N49 Co0 2.214 . S
N49 C47 1.325 . S
N49 C48 1.261 . S
C50 H20 0.931 . S
C50 C47 1.357 . S
C50 C51 1.312 . S
C51 H22 0.930 . S
C51 C46 1.261 . S
C51 C50 1.312 . S
C52 O24 1.214 . S
C52 O32 1.234 1_545 S
C53 H25 0.929 . S
C53 C56 1.391 . S
C53 C58 1.391 . S
C54 H26 0.929 . S
C54 C55 1.390 . S
C54 N57 1.391 . S
C55 H27 0.930 . S
C55 C54 1.390 . S
C55 C56 1.392 . S
C56 H28 0.929 . S
C56 C53 1.391 . S
C56 C55 1.392 . S
N57 Co1 2.257 . S
N57 C54 1.391 . S
N57 C58 1.388 . S
C58 H29 0.930 . S
C58 C53 1.391 . S
C58 N57 1.388 . S
Co59 O61 2.143 . S
Co59 O67 2.074 . S
Co59 O70 2.093 . S
Co59 O83 2.097 . S
Co59 N100 2.151 . S
Co59 N108 2.214 . S
Co60 O61 2.160 1_455 S
Co60 O66 2.058 1_455 S
Co60 O76 2.057 . S
Co60 O91 2.037 . S
Co60 N95 2.145 . S
Co60 N116 2.257 . S
O61 Co59 2.143 . S
O61 Co60 2.160 1_655 S
C62 O63 1.278 . S
C62 O70 1.224 . S
O63 C62 1.278 . S
C64 O65 1.245 . S
C64 O76 1.232 1_655 S
O65 C64 1.245 . S
O66 Co60 2.058 1_655 S
O66 C92 1.269 . S
O67 Co59 2.074 . S
O67 C92 1.257 . S
H68 C93 0.930 . S
H69 C99 0.930 . S
O70 Co59 2.093 . S
O70 C62 1.224 . S
H71 C103 0.929 . S
H72 C105 0.930 . S
H73 C106 0.930 . S
H74 C104 0.929 . S
H75 C107 0.928 . S
O76 Co60 2.057 . S
O76 C64 1.232 1_455 S
H77 C96 0.929 . S
H78 C97 0.929 . S
H79 C109 0.931 . S
H80 C101 0.929 . S
H81 C110 0.930 . S
H82 C102 0.931 . S
O83 Co59 2.097 . S
O83 C111 1.214 . S
H84 C112 0.929 . S
H85 C113 0.929 . S
H86 C114 0.930 . S
H87 C115 0.929 . S
H88 C117 0.930 . S
H89 C94 0.930 . S
H90 C98 0.930 . S
O91 Co60 2.037 . S
O91 C111 1.234 1_455 S
C92 O66 1.269 . S
C92 O67 1.257 . S
C93 H68 0.930 . S
C93 C96 1.388 . S
C93 C98 1.418 . S
C94 H89 0.930 . S
C94 C97 1.404 . S
C94 C98 1.353 . S
N95 Co60 2.145 . S
N95 C96 1.397 . S
N95 C97 1.334 . S
C96 H77 0.929 . S
C96 C93 1.388 . S
C96 N95 1.397 . S
C97 H78 0.929 . S
C97 C94 1.404 . S
C97 N95 1.334 . S
C98 H90 0.930 . S
C98 C93 1.418 . S
C98 C94 1.353 . S
C99 H69 0.930 . S
C99 N100 1.330 . S
C99 C101 1.446 . S
N100 Co59 2.151 . S
N100 C99 1.330 . S
N100 C104 1.418 . S
C101 H80 0.929 . S
C101 C99 1.446 . S
C101 C102 1.332 . S
C102 H82 0.931 . S
C102 C101 1.332 . S
C102 C103 1.267 . S
C103 H71 0.929 . S
C103 C102 1.267 . S
C103 C104 1.251 . S
C104 H74 0.929 . S
C104 N100 1.418 . S
C104 C103 1.251 . S
C105 H72 0.930 . S
C105 C107 1.406 1_545 S
C105 C110 1.261 . S
C106 H73 0.930 . S
C106 N108 1.325 1_545 S
C106 C109 1.357 . S
C107 H75 0.928 . S
C107 C105 1.406 1_565 S
C107 N108 1.261 . S
N108 Co59 2.214 . S
N108 C106 1.325 1_565 S
N108 C107 1.261 . S
C109 H79 0.931 . S
C109 C106 1.357 . S
C109 C110 1.312 . S
C110 H81 0.930 . S
C110 C105 1.261 . S
C110 C109 1.312 . S
C111 O83 1.214 . S
C111 O91 1.234 1_655 S
C112 H84 0.929 . S
C112 C115 1.391 . S
C112 C117 1.391 . S
C113 H85 0.929 . S
C113 C114 1.390 . S
C113 N116 1.391 . S
C114 H86 0.930 . S
C114 C113 1.390 . S
C114 C115 1.392 . S
C115 H87 0.929 . S
C115 C112 1.391 . S
C115 C114 1.392 . S
N116 Co60 2.257 . S
N116 C113 1.391 . S
N116 C117 1.388 . S
C117 H88 0.930 . S
C117 C112 1.391 . S
C117 N116 1.388 . S
Co118 O120 2.143 . S
Co118 O126 2.074 . S
Co118 O129 2.093 . S
Co118 O142 2.097 . S
Co118 N159 2.151 . S
Co118 N167 2.214 . S
Co119 O120 2.160 . S
Co119 O125 2.058 . S
Co119 O135 2.057 . S
Co119 O150 2.037 . S
Co119 N154 2.145 . S
Co119 N175 2.257 . S
O120 Co118 2.143 . S
O120 Co119 2.160 . S
C121 O122 1.278 . S
C121 O129 1.224 . S
O122 C121 1.278 . S
C123 O124 1.245 . S
C123 O135 1.232 . S
O124 C123 1.245 . S
O125 Co119 2.058 . S
O125 C151 1.269 . S
O126 Co118 2.074 . S
O126 C151 1.257 . S
H127 C152 0.930 . S
H128 C158 0.930 . S
O129 Co118 2.093 . S
O129 C121 1.224 . S
H130 C162 0.929 1_565 S
H131 C164 0.930 1_565 S
H132 C165 0.930 . S
H133 C163 0.929 . S
H134 C166 0.928 . S
O135 Co119 2.057 . S
O135 C123 1.232 . S
H136 C155 0.929 . S
H137 C156 0.929 . S
H138 C168 0.931 . S
H139 C160 0.929 . S
H140 C169 0.930 . S
H141 C161 0.931 . S
O142 Co118 2.097 . S
O142 C170 1.214 . S
H143 C171 0.929 . S
H144 C172 0.929 . S
H145 C173 0.930 . S
H146 C174 0.929 . S
H147 C176 0.930 . S
H148 C153 0.930 . S
H149 C157 0.930 . S
O150 Co119 2.037 . S
O150 C170 1.234 . S
C151 O125 1.269 . S
C151 O126 1.257 . S
C152 H127 0.930 . S
C152 C155 1.388 . S
C152 C157 1.418 . S
C153 H148 0.930 . S
C153 C156 1.404 . S
C153 C157 1.353 . S
N154 Co119 2.145 . S
N154 C155 1.397 . S
N154 C156 1.334 . S
C155 H136 0.929 . S
C155 C152 1.388 . S
C155 N154 1.397 . S
C156 H137 0.929 . S
C156 C153 1.404 . S
C156 N154 1.334 . S
C157 H149 0.930 . S
C157 C152 1.418 . S
C157 C153 1.353 . S
C158 H128 0.930 . S
C158 N159 1.330 . S
C158 C160 1.446 . S
N159 Co118 2.151 . S
N159 C158 1.330 . S
N159 C163 1.418 . S
C160 H139 0.929 . S
C160 C158 1.446 . S
C160 C161 1.332 1_545 S
C161 H141 0.931 . S
C161 C160 1.332 1_565 S
C161 C162 1.267 1_565 S
C162 H130 0.929 1_545 S
C162 C161 1.267 1_545 S
C162 C163 1.251 . S
C163 H133 0.929 . S
C163 N159 1.418 . S
C163 C162 1.251 . S
C164 H131 0.930 1_545 S
C164 C166 1.406 1_655 S
C164 C169 1.261 . S
C165 H132 0.930 . S
C165 N167 1.325 1_655 S
C165 C168 1.357 . S
C166 H134 0.928 . S
C166 C164 1.406 1_455 S
C166 N167 1.261 . S
N167 Co118 2.214 . S
N167 C165 1.325 1_455 S
N167 C166 1.261 . S
C168 H138 0.931 . S
C168 C165 1.357 . S
C168 C169 1.312 . S
C169 H140 0.930 . S
C169 C164 1.261 . S
C169 C168 1.312 . S
C170 O142 1.214 . S
C170 O150 1.234 . S
C171 H143 0.929 . S
C171 C174 1.391 . S
C171 C176 1.391 . S
C172 H144 0.929 . S
C172 C173 1.390 . S
C172 N175 1.391 . S
C173 H145 0.930 . S
C173 C172 1.390 . S
C173 C174 1.392 . S
C174 H146 0.929 . S
C174 C171 1.391 . S
C174 C173 1.392 . S
N175 Co119 2.257 . S
N175 C172 1.391 . S
N175 C176 1.388 . S
C176 H147 0.930 . S
C176 C171 1.391 . S
C176 N175 1.388 . S
Co177 O179 2.143 . S
Co177 O185 2.074 . S
Co177 O188 2.093 . S
Co177 O201 2.097 . S
Co177 N218 2.151 . S
Co177 N226 2.214 . S
Co178 O179 2.160 . S
Co178 O184 2.058 . S
Co178 O194 2.057 . S
Co178 O209 2.037 . S
Co178 N213 2.145 . S
Co178 N234 2.257 . S
O179 Co177 2.143 . S
O179 Co178 2.160 . S
C180 O181 1.278 . S
C180 O188 1.224 . S
O181 C180 1.278 . S
C182 O183 1.245 . S
C182 O194 1.232 . S
O183 C182 1.245 . S
O184 Co178 2.058 . S
O184 C210 1.269 . S
O185 Co177 2.074 . S
O185 C210 1.257 . S
H186 C211 0.930 1_554 S
H187 C217 0.930 . S
O188 Co177 2.093 . S
O188 C180 1.224 . S
H189 C221 0.929 1_455 S
H190 C223 0.930 1_455 S
H191 C224 0.930 . S
H192 C222 0.929 . S
H193 C225 0.928 . S
O194 Co178 2.057 . S
O194 C182 1.232 . S
H195 C214 0.929 . S
H196 C215 0.929 . S
H197 C227 0.931 . S
H198 C219 0.929 . S
H199 C228 0.930 . S
H200 C220 0.931 . S
O201 Co177 2.097 . S
O201 C229 1.214 . S
H202 C230 0.929 . S
H203 C231 0.929 . S
H204 C232 0.930 . S
H205 C233 0.929 . S
H206 C235 0.930 . S
H207 C212 0.930 . S
H208 C216 0.930 . S
O209 Co178 2.037 . S
O209 C229 1.234 . S
C210 O184 1.269 . S
C210 O185 1.257 . S
C211 H186 0.930 1_556 S
C211 C214 1.388 . S
C211 C216 1.418 . S
C212 H207 0.930 . S
C212 C215 1.404 . S
C212 C216 1.353 . S
N213 Co178 2.145 . S
N213 C214 1.397 . S
N213 C215 1.334 . S
C214 H195 0.929 . S
C214 C211 1.388 . S
C214 N213 1.397 . S
C215 H196 0.929 . S
C215 C212 1.404 . S
C215 N213 1.334 . S
C216 H208 0.930 . S
C216 C211 1.418 . S
C216 C212 1.353 . S
C217 H187 0.930 . S
C217 N218 1.330 . S
C217 C219 1.446 . S
N218 Co177 2.151 . S
N218 C217 1.330 . S
N218 C222 1.418 . S
C219 H198 0.929 . S
C219 C217 1.446 . S
C219 C220 1.332 1_655 S
C220 H200 0.931 . S
C220 C219 1.332 1_455 S
C220 C221 1.267 1_455 S
C221 H189 0.929 1_655 S
C221 C220 1.267 1_655 S
C221 C222 1.251 . S
C222 H192 0.929 . S
C222 N218 1.418 . S
C222 C221 1.251 . S
C223 H190 0.930 1_655 S
C223 C225 1.406 . S
C223 C228 1.261 . S
C224 H191 0.930 . S
C224 N226 1.325 . S
C224 C227 1.357 . S
C225 H193 0.928 . S
C225 C223 1.406 . S
C225 N226 1.261 . S
N226 Co177 2.214 . S
N226 C224 1.325 . S
N226 C225 1.261 . S
C227 H197 0.931 . S
C227 C224 1.357 . S
C227 C228 1.312 . S
C228 H199 0.930 . S
C228 C223 1.261 . S
C228 C227 1.312 . S
C229 O201 1.214 . S
C229 O209 1.234 . S
C230 H202 0.929 . S
C230 C233 1.391 . S
C230 C235 1.391 . S
C231 H203 0.929 . S
C231 C232 1.390 . S
C231 N234 1.391 . S
C232 H204 0.930 . S
C232 C231 1.390 . S
C232 C233 1.392 . S
C233 H205 0.929 . S
C233 C230 1.391 . S
C233 C232 1.392 . S
N234 Co178 2.257 . S
N234 C231 1.391 . S
N234 C235 1.388 . S
C235 H206 0.930 . S
C235 C230 1.391 . S
C235 N234 1.388 . S
Co236 O238 2.143 . S
Co236 O244 2.074 . S
Co236 O247 2.093 . S
Co236 O260 2.097 . S
Co236 N277 2.151 . S
Co236 N285 2.214 . S
Co237 O238 2.160 . S
Co237 O243 2.058 . S
Co237 O253 2.057 . S
Co237 O268 2.037 . S
Co237 N272 2.145 . S
Co237 N293 2.257 . S
O238 Co236 2.143 . S
O238 Co237 2.160 . S
C239 O240 1.278 . S
C239 O247 1.224 . S
O240 C239 1.278 . S
C241 O242 1.245 . S
C241 O253 1.232 . S
O242 C241 1.245 . S
O243 Co237 2.058 . S
O243 C269 1.269 . S
O244 Co236 2.074 . S
O244 C269 1.257 . S
H245 C270 0.930 1_556 S
H246 C276 0.930 . S
O247 Co236 2.093 . S
O247 C239 1.224 . S
H248 C280 0.929 1_565 S
H249 C282 0.930 1_565 S
H250 C283 0.930 . S
H251 C281 0.929 . S
H252 C284 0.928 . S
O253 Co237 2.057 . S
O253 C241 1.232 . S
H254 C273 0.929 . S
H255 C274 0.929 . S
H256 C286 0.931 . S
H257 C278 0.929 . S
H258 C287 0.930 . S
H259 C279 0.931 . S
O260 Co236 2.097 . S
O260 C288 1.214 . S
H261 C289 0.929 . S
H262 C290 0.929 . S
H263 C291 0.930 . S
H264 C292 0.929 . S
H265 C294 0.930 . S
H266 C271 0.930 . S
H267 C275 0.930 . S
O268 Co237 2.037 . S
O268 C288 1.234 . S
C269 O243 1.269 . S
C269 O244 1.257 . S
C270 H245 0.930 1_554 S
C270 C273 1.388 . S
C270 C275 1.418 . S
C271 H266 0.930 . S
C271 C274 1.404 . S
C271 C275 1.353 . S
N272 Co237 2.145 . S
N272 C273 1.397 . S
N272 C274 1.334 . S
C273 H254 0.929 . S
C273 C270 1.388 . S
C273 N272 1.397 . S
C274 H255 0.929 . S
C274 C271 1.404 . S
C274 N272 1.334 . S
C275 H267 0.930 . S
C275 C270 1.418 . S
C275 C271 1.353 . S
C276 H246 0.930 . S
C276 N277 1.330 . S
C276 C278 1.446 . S
N277 Co236 2.151 . S
N277 C276 1.330 . S
N277 C281 1.418 . S
C278 H257 0.929 . S
C278 C276 1.446 . S
C278 C279 1.332 1_545 S
C279 H259 0.931 . S
C279 C278 1.332 1_565 S
C279 C280 1.267 1_565 S
C280 H248 0.929 1_545 S
C280 C279 1.267 1_545 S
C280 C281 1.251 . S
C281 H251 0.929 . S
C281 N277 1.418 . S
C281 C280 1.251 . S
C282 H249 0.930 1_545 S
C282 C284 1.406 . S
C282 C287 1.261 . S
C283 H250 0.930 . S
C283 N285 1.325 . S
C283 C286 1.357 . S
C284 H252 0.928 . S
C284 C282 1.406 . S
C284 N285 1.261 . S
N285 Co236 2.214 . S
N285 C283 1.325 . S
N285 C284 1.261 . S
C286 H256 0.931 . S
C286 C283 1.357 . S
C286 C287 1.312 . S
C287 H258 0.930 . S
C287 C282 1.261 . S
C287 C286 1.312 . S
C288 O260 1.214 . S
C288 O268 1.234 . S
C289 H261 0.929 . S
C289 C292 1.391 . S
C289 C294 1.391 . S
C290 H262 0.929 . S
C290 C291 1.390 . S
C290 N293 1.391 . S
C291 H263 0.930 . S
C291 C290 1.390 . S
C291 C292 1.392 . S
C292 H264 0.929 . S
C292 C289 1.391 . S
C292 C291 1.392 . S
N293 Co237 2.257 . S
N293 C290 1.391 . S
N293 C294 1.388 . S
C294 H265 0.930 . S
C294 C289 1.391 . S
C294 N293 1.388 . S
Co295 O297 2.143 . S
Co295 O303 2.074 . S
Co295 O306 2.093 . S
Co295 O319 2.097 . S
Co295 N336 2.151 . S
Co295 N344 2.214 . S
Co296 O297 2.160 . S
Co296 O302 2.058 . S
Co296 O312 2.057 . S
Co296 O327 2.037 . S
Co296 N331 2.145 . S
Co296 N352 2.257 . S
O297 Co295 2.143 . S
O297 Co296 2.160 . S
C298 O299 1.278 . S
C298 O306 1.224 . S
O299 C298 1.278 . S
C300 O301 1.245 . S
C300 O312 1.232 . S
O301 C300 1.245 . S
O302 Co296 2.058 . S
O302 C328 1.269 . S
O303 Co295 2.074 . S
O303 C328 1.257 . S
H304 C329 0.930 . S
H305 C335 0.930 . S
O306 Co295 2.093 . S
O306 C298 1.224 . S
H307 C339 0.929 1_455 S
H308 C341 0.930 1_455 S
H309 C342 0.930 . S
H310 C340 0.929 . S
H311 C343 0.928 . S
O312 Co296 2.057 . S
O312 C300 1.232 . S
H313 C332 0.929 . S
H314 C333 0.929 . S
H315 C345 0.931 . S
H316 C337 0.929 . S
H317 C346 0.930 . S
H318 C338 0.931 . S
O319 Co295 2.097 . S
O319 C347 1.214 . S
H320 C348 0.929 . S
H321 C349 0.929 . S
H322 C350 0.930 . S
H323 C351 0.929 . S
H324 C353 0.930 . S
H325 C330 0.930 . S
H326 C334 0.930 . S
O327 Co296 2.037 . S
O327 C347 1.234 . S
C328 O302 1.269 . S
C328 O303 1.257 . S
C329 H304 0.930 . S
C329 C332 1.388 . S
C329 C334 1.418 . S
C330 H325 0.930 . S
C330 C333 1.404 . S
C330 C334 1.353 . S
N331 Co296 2.145 . S
N331 C332 1.397 . S
N331 C333 1.334 . S
C332 H313 0.929 . S
C332 C329 1.388 . S
C332 N331 1.397 . S
C333 H314 0.929 . S
C333 C330 1.404 . S
C333 N331 1.334 . S
C334 H326 0.930 . S
C334 C329 1.418 . S
C334 C330 1.353 . S
C335 H305 0.930 . S
C335 N336 1.330 . S
C335 C337 1.446 . S
N336 Co295 2.151 . S
N336 C335 1.330 . S
N336 C340 1.418 . S
C337 H316 0.929 . S
C337 C335 1.446 . S
C337 C338 1.332 1_655 S
C338 H318 0.931 . S
C338 C337 1.332 1_455 S
C338 C339 1.267 1_455 S
C339 H307 0.929 1_655 S
C339 C338 1.267 1_655 S
C339 C340 1.251 . S
C340 H310 0.929 . S
C340 N336 1.418 . S
C340 C339 1.251 . S
C341 H308 0.930 1_655 S
C341 C343 1.406 1_545 S
C341 C346 1.261 . S
C342 H309 0.930 . S
C342 N344 1.325 1_545 S
C342 C345 1.357 . S
C343 H311 0.928 . S
C343 C341 1.406 1_565 S
C343 N344 1.261 . S
N344 Co295 2.214 . S
N344 C342 1.325 1_565 S
N344 C343 1.261 . S
C345 H315 0.931 . S
C345 C342 1.357 . S
C345 C346 1.312 . S
C346 H317 0.930 . S
C346 C341 1.261 . S
C346 C345 1.312 . S
C347 O319 1.214 . S
C347 O327 1.234 . S
C348 H320 0.929 . S
C348 C351 1.391 . S
C348 C353 1.391 . S
C349 H321 0.929 . S
C349 C350 1.390 . S
C349 N352 1.391 . S
C350 H322 0.930 . S
C350 C349 1.390 . S
C350 C351 1.392 . S
C351 H323 0.929 . S
C351 C348 1.391 . S
C351 C350 1.392 . S
N352 Co296 2.257 . S
N352 C349 1.391 . S
N352 C353 1.388 . S
C353 H324 0.930 . S
C353 C348 1.391 . S
C353 N352 1.388 . S
Co354 O356 2.143 . S
Co354 O362 2.074 . S
Co354 O365 2.093 . S
Co354 O378 2.097 . S
Co354 N395 2.151 . S
Co354 N403 2.214 . S
Co355 O356 2.160 1_565 S
Co355 O361 2.058 1_565 S
Co355 O371 2.057 . S
Co355 O386 2.037 . S
Co355 N390 2.145 . S
Co355 N411 2.257 . S
O356 Co354 2.143 . S
O356 Co355 2.160 1_545 S
C357 O358 1.278 . S
C357 O365 1.224 . S
O358 C357 1.278 . S
C359 O360 1.245 . S
C359 O371 1.232 1_545 S
O360 C359 1.245 . S
O361 Co355 2.058 1_545 S
O361 C387 1.269 . S
O362 Co354 2.074 . S
O362 C387 1.257 . S
H363 C388 0.930 . S
H364 C394 0.930 . S
O365 Co354 2.093 . S
O365 C357 1.224 . S
H366 C398 0.929 . S
H367 C400 0.930 . S
H368 C401 0.930 . S
H369 C399 0.929 . S
H370 C402 0.928 . S
O371 Co355 2.057 . S
O371 C359 1.232 1_565 S
H372 C391 0.929 . S
H373 C392 0.929 . S
H374 C404 0.931 . S
H375 C396 0.929 . S
H376 C405 0.930 . S
H377 C397 0.931 . S
O378 Co354 2.097 . S
O378 C406 1.214 . S
H379 C407 0.929 . S
H380 C408 0.929 . S
H381 C409 0.930 . S
H382 C410 0.929 . S
H383 C412 0.930 . S
H384 C389 0.930 . S
H385 C393 0.930 . S
O386 Co355 2.037 . S
O386 C406 1.234 1_565 S
C387 O361 1.269 . S
C387 O362 1.257 . S
C388 H363 0.930 . S
C388 C391 1.388 . S
C388 C393 1.418 . S
C389 H384 0.930 . S
C389 C392 1.404 . S
C389 C393 1.353 . S
N390 Co355 2.145 . S
N390 C391 1.397 . S
N390 C392 1.334 . S
C391 H372 0.929 . S
C391 C388 1.388 . S
C391 N390 1.397 . S
C392 H373 0.929 . S
C392 C389 1.404 . S
C392 N390 1.334 . S
C393 H385 0.930 . S
C393 C388 1.418 . S
C393 C389 1.353 . S
C394 H364 0.930 . S
C394 N395 1.330 . S
C394 C396 1.446 . S
N395 Co354 2.151 . S
N395 C394 1.330 . S
N395 C399 1.418 . S
C396 H375 0.929 . S
C396 C394 1.446 . S
C396 C397 1.332 . S
C397 H377 0.931 . S
C397 C396 1.332 . S
C397 C398 1.267 . S
C398 H366 0.929 . S
C398 C397 1.267 . S
C398 C399 1.251 . S
C399 H369 0.929 . S
C399 N395 1.418 . S
C399 C398 1.251 . S
C400 H367 0.930 . S
C400 C402 1.406 1_655 S
C400 C405 1.261 . S
C401 H368 0.930 . S
C401 N403 1.325 1_655 S
C401 C404 1.357 . S
C402 H370 0.928 . S
C402 C400 1.406 1_455 S
C402 N403 1.261 . S
N403 Co354 2.214 . S
N403 C401 1.325 1_455 S
N403 C402 1.261 . S
C404 H374 0.931 . S
C404 C401 1.357 . S
C404 C405 1.312 . S
C405 H376 0.930 . S
C405 C400 1.261 . S
C405 C404 1.312 . S
C406 O378 1.214 . S
C406 O386 1.234 1_545 S
C407 H379 0.929 . S
C407 C410 1.391 . S
C407 C412 1.391 . S
C408 H380 0.929 . S
C408 C409 1.390 . S
C408 N411 1.391 . S
C409 H381 0.930 . S
C409 C408 1.390 . S
C409 C410 1.392 . S
C410 H382 0.929 . S
C410 C407 1.391 . S
C410 C409 1.392 . S
N411 Co355 2.257 . S
N411 C408 1.391 . S
N411 C412 1.388 . S
C412 H383 0.930 . S
C412 C407 1.391 . S
C412 N411 1.388 . S
Co413 O415 2.143 . S
Co413 O421 2.074 . S
Co413 O424 2.093 . S
Co413 O437 2.097 . S
Co413 N454 2.151 . S
Co413 N462 2.214 . S
Co414 O415 2.160 1_455 S
Co414 O420 2.058 1_455 S
Co414 O430 2.057 . S
Co414 O445 2.037 . S
Co414 N449 2.145 . S
Co414 N470 2.257 . S
O415 Co413 2.143 . S
O415 Co414 2.160 1_655 S
C416 O417 1.278 . S
C416 O424 1.224 . S
O417 C416 1.278 . S
C418 O419 1.245 . S
C418 O430 1.232 1_655 S
O419 C418 1.245 . S
O420 Co414 2.058 1_655 S
O420 C446 1.269 . S
O421 Co413 2.074 . S
O421 C446 1.257 . S
H422 C447 0.930 . S
H423 C453 0.930 . S
O424 Co413 2.093 . S
O424 C416 1.224 . S
H425 C457 0.929 . S
H426 C459 0.930 . S
H427 C460 0.930 . S
H428 C458 0.929 . S
H429 C461 0.928 . S
O430 Co414 2.057 . S
O430 C418 1.232 1_455 S
H431 C450 0.929 . S
H432 C451 0.929 . S
H433 C463 0.931 . S
H434 C455 0.929 . S
H435 C464 0.930 . S
H436 C456 0.931 . S
O437 Co413 2.097 . S
O437 C465 1.214 . S
H438 C466 0.929 . S
H439 C467 0.929 . S
H440 C468 0.930 . S
H441 C469 0.929 . S
H442 C471 0.930 . S
H443 C448 0.930 . S
H444 C452 0.930 . S
O445 Co414 2.037 . S
O445 C465 1.234 1_455 S
C446 O420 1.269 . S
C446 O421 1.257 . S
C447 H422 0.930 . S
C447 C450 1.388 . S
C447 C452 1.418 . S
C448 H443 0.930 . S
C448 C451 1.404 . S
C448 C452 1.353 . S
N449 Co414 2.145 . S
N449 C450 1.397 . S
N449 C451 1.334 . S
C450 H431 0.929 . S
C450 C447 1.388 . S
C450 N449 1.397 . S
C451 H432 0.929 . S
C451 C448 1.404 . S
C451 N449 1.334 . S
C452 H444 0.930 . S
C452 C447 1.418 . S
C452 C448 1.353 . S
C453 H423 0.930 . S
C453 N454 1.330 . S
C453 C455 1.446 . S
N454 Co413 2.151 . S
N454 C453 1.330 . S
N454 C458 1.418 . S
C455 H434 0.929 . S
C455 C453 1.446 . S
C455 C456 1.332 . S
C456 H436 0.931 . S
C456 C455 1.332 . S
C456 C457 1.267 . S
C457 H425 0.929 . S
C457 C456 1.267 . S
C457 C458 1.251 . S
C458 H428 0.929 . S
C458 N454 1.418 . S
C458 C457 1.251 . S
C459 H426 0.930 . S
C459 C461 1.406 . S
C459 C464 1.261 . S
C460 H427 0.930 . S
C460 N462 1.325 . S
C460 C463 1.357 . S
C461 H429 0.928 . S
C461 C459 1.406 . S
C461 N462 1.261 . S
N462 Co413 2.214 . S
N462 C460 1.325 . S
N462 C461 1.261 . S
C463 H433 0.931 . S
C463 C460 1.357 . S
C463 C464 1.312 . S
C464 H435 0.930 . S
C464 C459 1.261 . S
C464 C463 1.312 . S
C465 O437 1.214 . S
C465 O445 1.234 1_655 S
C466 H438 0.929 . S
C466 C469 1.391 . S
C466 C471 1.391 . S
C467 H439 0.929 . S
C467 C468 1.390 . S
C467 N470 1.391 . S
C468 H440 0.930 . S
C468 C467 1.390 . S
C468 C469 1.392 . S
C469 H441 0.929 . S
C469 C466 1.391 . S
C469 C468 1.392 . S
N470 Co414 2.257 . S
N470 C467 1.391 . S
N470 C471 1.388 . S
C471 H442 0.930 . S
C471 C466 1.391 . S
C471 N470 1.388 . S
Co472 O474 2.143 . S
Co472 O480 2.074 . S
Co472 O483 2.093 . S
Co472 O496 2.097 . S
Co472 N513 2.151 . S
Co472 N521 2.214 . S
Co473 O474 2.160 . S
Co473 O479 2.058 . S
Co473 O489 2.057 . S
Co473 O504 2.037 . S
Co473 N508 2.145 . S
Co473 N529 2.257 . S
O474 Co472 2.143 . S
O474 Co473 2.160 . S
C475 O476 1.278 . S
C475 O483 1.224 . S
O476 C475 1.278 . S
C477 O478 1.245 . S
C477 O489 1.232 . S
O478 C477 1.245 . S
O479 Co473 2.058 . S
O479 C505 1.269 . S
O480 Co472 2.074 . S
O480 C505 1.257 . S
H481 C506 0.930 . S
H482 C512 0.930 . S
O483 Co472 2.093 . S
O483 C475 1.224 . S
H484 C516 0.929 1_545 S
H485 C518 0.930 1_545 S
H486 C519 0.930 . S
H487 C517 0.929 . S
H488 C520 0.928 . S
O489 Co473 2.057 . S
O489 C477 1.232 . S
H490 C509 0.929 . S
H491 C510 0.929 . S
H492 C522 0.931 . S
H493 C514 0.929 . S
H494 C523 0.930 . S
H495 C515 0.931 . S
O496 Co472 2.097 . S
O496 C524 1.214 . S
H497 C525 0.929 . S
H498 C526 0.929 . S
H499 C527 0.930 . S
H500 C528 0.929 . S
H501 C530 0.930 . S
H502 C507 0.930 . S
H503 C511 0.930 . S
O504 Co473 2.037 . S
O504 C524 1.234 . S
C505 O479 1.269 . S
C505 O480 1.257 . S
C506 H481 0.930 . S
C506 C509 1.388 . S
C506 C511 1.418 . S
C507 H502 0.930 . S
C507 C510 1.404 . S
C507 C511 1.353 . S
N508 Co473 2.145 . S
N508 C509 1.397 . S
N508 C510 1.334 . S
C509 H490 0.929 . S
C509 C506 1.388 . S
C509 N508 1.397 . S
C510 H491 0.929 . S
C510 C507 1.404 . S
C510 N508 1.334 . S
C511 H503 0.930 . S
C511 C506 1.418 . S
C511 C507 1.353 . S
C512 H482 0.930 . S
C512 N513 1.330 . S
C512 C514 1.446 . S
N513 Co472 2.151 . S
N513 C512 1.330 . S
N513 C517 1.418 . S
C514 H493 0.929 . S
C514 C512 1.446 . S
C514 C515 1.332 1_565 S
C515 H495 0.931 . S
C515 C514 1.332 1_545 S
C515 C516 1.267 1_545 S
C516 H484 0.929 1_565 S
C516 C515 1.267 1_565 S
C516 C517 1.251 . S
C517 H487 0.929 . S
C517 N513 1.418 . S
C517 C516 1.251 . S
C518 H485 0.930 1_565 S
C518 C520 1.406 1_455 S
C518 C523 1.261 . S
C519 H486 0.930 . S
C519 N521 1.325 1_455 S
C519 C522 1.357 . S
C520 H488 0.928 . S
C520 C518 1.406 1_655 S
C520 N521 1.261 . S
N521 Co472 2.214 . S
N521 C519 1.325 1_655 S
N521 C520 1.261 . S
C522 H492 0.931 . S
C522 C519 1.357 . S
C522 C523 1.312 . S
C523 H494 0.930 . S
C523 C518 1.261 . S
C523 C522 1.312 . S
C524 O496 1.214 . S
C524 O504 1.234 . S
C525 H497 0.929 . S
C525 C528 1.391 . S
C525 C530 1.391 . S
C526 H498 0.929 . S
C526 C527 1.390 . S
C526 N529 1.391 . S
C527 H499 0.930 . S
C527 C526 1.390 . S
C527 C528 1.392 . S
C528 H500 0.929 . S
C528 C525 1.391 . S
C528 C527 1.392 . S
N529 Co473 2.257 . S
N529 C526 1.391 . S
N529 C530 1.388 . S
C530 H501 0.930 . S
C530 C525 1.391 . S
C530 N529 1.388 . S
Co531 O533 2.143 . S
Co531 O539 2.074 . S
Co531 O542 2.093 . S
Co531 O555 2.097 . S
Co531 N572 2.151 . S
Co531 N580 2.214 . S
Co532 O533 2.160 . S
Co532 O538 2.058 . S
Co532 O548 2.057 . S
Co532 O563 2.037 . S
Co532 N567 2.145 . S
Co532 N588 2.257 . S
O533 Co531 2.143 . S
O533 Co532 2.160 . S
C534 O535 1.278 . S
C534 O542 1.224 . S
O535 C534 1.278 . S
C536 O537 1.245 . S
C536 O548 1.232 . S
O537 C536 1.245 . S
O538 Co532 2.058 . S
O538 C564 1.269 . S
O539 Co531 2.074 . S
O539 C564 1.257 . S
H540 C565 0.930 1_554 S
H541 C571 0.930 . S
O542 Co531 2.093 . S
O542 C534 1.224 . S
H543 C575 0.929 1_655 S
H544 C577 0.930 1_655 S
H545 C578 0.930 . S
H546 C576 0.929 . S
H547 C579 0.928 . S
O548 Co532 2.057 . S
O548 C536 1.232 . S
H549 C568 0.929 . S
H550 C569 0.929 . S
H551 C581 0.931 . S
H552 C573 0.929 . S
H553 C582 0.930 . S
H554 C574 0.931 . S
O555 Co531 2.097 . S
O555 C583 1.214 . S
H556 C584 0.929 . S
H557 C585 0.929 . S
H558 C586 0.930 . S
H559 C587 0.929 . S
H560 C589 0.930 . S
H561 C566 0.930 . S
H562 C570 0.930 . S
O563 Co532 2.037 . S
O563 C583 1.234 . S
C564 O538 1.269 . S
C564 O539 1.257 . S
C565 H540 0.930 1_556 S
C565 C568 1.388 . S
C565 C570 1.418 . S
C566 H561 0.930 . S
C566 C569 1.404 . S
C566 C570 1.353 . S
N567 Co532 2.145 . S
N567 C568 1.397 . S
N567 C569 1.334 . S
C568 H549 0.929 . S
C568 C565 1.388 . S
C568 N567 1.397 . S
C569 H550 0.929 . S
C569 C566 1.404 . S
C569 N567 1.334 . S
C570 H562 0.930 . S
C570 C565 1.418 . S
C570 C566 1.353 . S
C571 H541 0.930 . S
C571 N572 1.330 . S
C571 C573 1.446 . S
N572 Co531 2.151 . S
N572 C571 1.330 . S
N572 C576 1.418 . S
C573 H552 0.929 . S
C573 C571 1.446 . S
C573 C574 1.332 1_455 S
C574 H554 0.931 . S
C574 C573 1.332 1_655 S
C574 C575 1.267 1_655 S
C575 H543 0.929 1_455 S
C575 C574 1.267 1_455 S
C575 C576 1.251 . S
C576 H546 0.929 . S
C576 N572 1.418 . S
C576 C575 1.251 . S
C577 H544 0.930 1_455 S
C577 C579 1.406 . S
C577 C582 1.261 . S
C578 H545 0.930 . S
C578 N580 1.325 . S
C578 C581 1.357 . S
C579 H547 0.928 . S
C579 C577 1.406 . S
C579 N580 1.261 . S
N580 Co531 2.214 . S
N580 C578 1.325 . S
N580 C579 1.261 . S
C581 H551 0.931 . S
C581 C578 1.357 . S
C581 C582 1.312 . S
C582 H553 0.930 . S
C582 C577 1.261 . S
C582 C581 1.312 . S
C583 O555 1.214 . S
C583 O563 1.234 . S
C584 H556 0.929 . S
C584 C587 1.391 . S
C584 C589 1.391 . S
C585 H557 0.929 . S
C585 C586 1.390 . S
C585 N588 1.391 . S
C586 H558 0.930 . S
C586 C585 1.390 . S
C586 C587 1.392 . S
C587 H559 0.929 . S
C587 C584 1.391 . S
C587 C586 1.392 . S
N588 Co532 2.257 . S
N588 C585 1.391 . S
N588 C589 1.388 . S
C589 H560 0.930 . S
C589 C584 1.391 . S
C589 N588 1.388 . S
Co590 O592 2.143 . S
Co590 O598 2.074 . S
Co590 O601 2.093 . S
Co590 O614 2.097 . S
Co590 N631 2.151 . S
Co590 N639 2.214 . S
Co591 O592 2.160 1_545 S
Co591 O597 2.058 1_545 S
Co591 O607 2.057 . S
Co591 O622 2.037 . S
Co591 N626 2.145 . S
Co591 N647 2.257 . S
O592 Co590 2.143 . S
O592 Co591 2.160 1_565 S
C593 O594 1.278 . S
C593 O601 1.224 . S
O594 C593 1.278 . S
C595 O596 1.245 . S
C595 O607 1.232 1_565 S
O596 C595 1.245 . S
O597 Co591 2.058 1_565 S
O597 C623 1.269 . S
O598 Co590 2.074 . S
O598 C623 1.257 . S
H599 C624 0.930 . S
H600 C630 0.930 . S
O601 Co590 2.093 . S
O601 C593 1.224 . S
H602 C634 0.929 . S
H603 C636 0.930 . S
H604 C637 0.930 . S
H605 C635 0.929 . S
H606 C638 0.928 . S
O607 Co591 2.057 . S
O607 C595 1.232 1_545 S
H608 C627 0.929 . S
H609 C628 0.929 . S
H610 C640 0.931 . S
H611 C632 0.929 . S
H612 C641 0.930 . S
H613 C633 0.931 . S
O614 Co590 2.097 . S
O614 C642 1.214 . S
H615 C643 0.929 . S
H616 C644 0.929 . S
H617 C645 0.930 . S
H618 C646 0.929 . S
H619 C648 0.930 . S
H620 C625 0.930 . S
H621 C629 0.930 . S
O622 Co591 2.037 . S
O622 C642 1.234 1_545 S
C623 O597 1.269 . S
C623 O598 1.257 . S
C624 H599 0.930 . S
C624 C627 1.388 . S
C624 C629 1.418 . S
C625 H620 0.930 . S
C625 C628 1.404 . S
C625 C629 1.353 . S
N626 Co591 2.145 . S
N626 C627 1.397 . S
N626 C628 1.334 . S
C627 H608 0.929 . S
C627 C624 1.388 . S
C627 N626 1.397 . S
C628 H609 0.929 . S
C628 C625 1.404 . S
C628 N626 1.334 . S
C629 H621 0.930 . S
C629 C624 1.418 . S
C629 C625 1.353 . S
C630 H600 0.930 . S
C630 N631 1.330 . S
C630 C632 1.446 . S
N631 Co590 2.151 . S
N631 C630 1.330 . S
N631 C635 1.418 . S
C632 H611 0.929 . S
C632 C630 1.446 . S
C632 C633 1.332 . S
C633 H613 0.931 . S
C633 C632 1.332 . S
C633 C634 1.267 . S
C634 H602 0.929 . S
C634 C633 1.267 . S
C634 C635 1.251 . S
C635 H605 0.929 . S
C635 N631 1.418 . S
C635 C634 1.251 . S
C636 H603 0.930 . S
C636 C638 1.406 . S
C636 C641 1.261 . S
C637 H604 0.930 . S
C637 N639 1.325 . S
C637 C640 1.357 . S
C638 H606 0.928 . S
C638 C636 1.406 . S
C638 N639 1.261 . S
N639 Co590 2.214 . S
N639 C637 1.325 . S
N639 C638 1.261 . S
C640 H610 0.931 . S
C640 C637 1.357 . S
C640 C641 1.312 . S
C641 H612 0.930 . S
C641 C636 1.261 . S
C641 C640 1.312 . S
C642 O614 1.214 . S
C642 O622 1.234 1_565 S
C643 H615 0.929 . S
C643 C646 1.391 . S
C643 C648 1.391 . S
C644 H616 0.929 . S
C644 C645 1.390 . S
C644 N647 1.391 . S
C645 H617 0.930 . S
C645 C644 1.390 . S
C645 C646 1.392 . S
C646 H618 0.929 . S
C646 C643 1.391 . S
C646 C645 1.392 . S
N647 Co591 2.257 . S
N647 C644 1.391 . S
N647 C648 1.388 . S
C648 H619 0.930 . S
C648 C643 1.391 . S
C648 N647 1.388 . S
Co649 O651 2.143 . S
Co649 O657 2.074 . S
Co649 O660 2.093 . S
Co649 O673 2.097 . S
Co649 N690 2.151 . S
Co649 N698 2.214 . S
Co650 O651 2.160 1_655 S
Co650 O656 2.058 1_655 S
Co650 O666 2.057 . S
Co650 O681 2.037 . S
Co650 N685 2.145 . S
Co650 N706 2.257 . S
O651 Co649 2.143 . S
O651 Co650 2.160 1_455 S
C652 O653 1.278 . S
C652 O660 1.224 . S
O653 C652 1.278 . S
C654 O655 1.245 . S
C654 O666 1.232 1_455 S
O655 C654 1.245 . S
O656 Co650 2.058 1_455 S
O656 C682 1.269 . S
O657 Co649 2.074 . S
O657 C682 1.257 . S
H658 C683 0.930 . S
H659 C689 0.930 . S
O660 Co649 2.093 . S
O660 C652 1.224 . S
H661 C693 0.929 . S
H662 C695 0.930 . S
H663 C696 0.930 . S
H664 C694 0.929 . S
H665 C697 0.928 . S
O666 Co650 2.057 . S
O666 C654 1.232 1_655 S
H667 C686 0.929 . S
H668 C687 0.929 . S
H669 C699 0.931 . S
H670 C691 0.929 . S
H671 C700 0.930 . S
H672 C692 0.931 . S
O673 Co649 2.097 . S
O673 C701 1.214 . S
H674 C702 0.929 . S
H675 C703 0.929 . S
H676 C704 0.930 . S
H677 C705 0.929 . S
H678 C707 0.930 . S
H679 C684 0.930 . S
H680 C688 0.930 . S
O681 Co650 2.037 . S
O681 C701 1.234 1_655 S
C682 O656 1.269 . S
C682 O657 1.257 . S
C683 H658 0.930 . S
C683 C686 1.388 . S
C683 C688 1.418 . S
C684 H679 0.930 . S
C684 C687 1.404 . S
C684 C688 1.353 . S
N685 Co650 2.145 . S
N685 C686 1.397 . S
N685 C687 1.334 . S
C686 H667 0.929 . S
C686 C683 1.388 . S
C686 N685 1.397 . S
C687 H668 0.929 . S
C687 C684 1.404 . S
C687 N685 1.334 . S
C688 H680 0.930 . S
C688 C683 1.418 . S
C688 C684 1.353 . S
C689 H659 0.930 . S
C689 N690 1.330 . S
C689 C691 1.446 . S
N690 Co649 2.151 . S
N690 C689 1.330 . S
N690 C694 1.418 . S
C691 H670 0.929 . S
C691 C689 1.446 . S
C691 C692 1.332 . S
C692 H672 0.931 . S
C692 C691 1.332 . S
C692 C693 1.267 . S
C693 H661 0.929 . S
C693 C692 1.267 . S
C693 C694 1.251 . S
C694 H664 0.929 . S
C694 N690 1.418 . S
C694 C693 1.251 . S
C695 H662 0.930 . S
C695 C697 1.406 1_565 S
C695 C700 1.261 . S
C696 H663 0.930 . S
C696 N698 1.325 1_565 S
C696 C699 1.357 . S
C697 H665 0.928 . S
C697 C695 1.406 1_545 S
C697 N698 1.261 . S
N698 Co649 2.214 . S
N698 C696 1.325 1_545 S
N698 C697 1.261 . S
C699 H669 0.931 . S
C699 C696 1.357 . S
C699 C700 1.312 . S
C700 H671 0.930 . S
C700 C695 1.261 . S
C700 C699 1.312 . S
C701 O673 1.214 . S
C701 O681 1.234 1_455 S
C702 H674 0.929 . S
C702 C705 1.391 . S
C702 C707 1.391 . S
C703 H675 0.929 . S
C703 C704 1.390 . S
C703 N706 1.391 . S
C704 H676 0.930 . S
C704 C703 1.390 . S
C704 C705 1.392 . S
C705 H677 0.929 . S
C705 C702 1.391 . S
C705 C704 1.392 . S
N706 Co650 2.257 . S
N706 C703 1.391 . S
N706 C707 1.388 . S
C707 H678 0.930 . S
C707 C702 1.391 . S
C707 N706 1.388 . S
Co708 O710 2.143 . S
Co708 O716 2.074 . S
Co708 O719 2.093 . S
Co708 O732 2.097 . S
Co708 N749 2.151 . S
Co708 N757 2.214 . S
Co709 O710 2.160 1_545 S
Co709 O715 2.058 1_545 S
Co709 O725 2.057 . S
Co709 O740 2.037 . S
Co709 N744 2.145 . S
Co709 N765 2.257 . S
O710 Co708 2.143 . S
O710 Co709 2.160 1_565 S
C711 O712 1.278 . S
C711 O719 1.224 . S
O712 C711 1.278 . S
C713 O714 1.245 . S
C713 O725 1.232 1_565 S
O714 C713 1.245 . S
O715 Co709 2.058 1_565 S
O715 C741 1.269 . S
O716 Co708 2.074 . S
O716 C741 1.257 . S
H717 C742 0.930 . S
H718 C748 0.930 . S
O719 Co708 2.093 . S
O719 C711 1.224 . S
H720 C752 0.929 . S
H721 C754 0.930 . S
H722 C755 0.930 . S
H723 C753 0.929 . S
H724 C756 0.928 . S
O725 Co709 2.057 . S
O725 C713 1.232 1_545 S
H726 C745 0.929 . S
H727 C746 0.929 . S
H728 C758 0.931 . S
H729 C750 0.929 . S
H730 C759 0.930 . S
H731 C751 0.931 . S
O732 Co708 2.097 . S
O732 C760 1.214 . S
H733 C761 0.929 . S
H734 C762 0.929 . S
H735 C763 0.930 . S
H736 C764 0.929 . S
H737 C766 0.930 . S
H738 C743 0.930 . S
H739 C747 0.930 . S
O740 Co709 2.037 . S
O740 C760 1.234 1_545 S
C741 O715 1.269 . S
C741 O716 1.257 . S
C742 H717 0.930 . S
C742 C745 1.388 . S
C742 C747 1.418 . S
C743 H738 0.930 . S
C743 C746 1.404 . S
C743 C747 1.353 . S
N744 Co709 2.145 . S
N744 C745 1.397 . S
N744 C746 1.334 . S
C745 H726 0.929 . S
C745 C742 1.388 . S
C745 N744 1.397 . S
C746 H727 0.929 . S
C746 C743 1.404 . S
C746 N744 1.334 . S
C747 H739 0.930 . S
C747 C742 1.418 . S
C747 C743 1.353 . S
C748 H718 0.930 . S
C748 N749 1.330 . S
C748 C750 1.446 . S
N749 Co708 2.151 . S
N749 C748 1.330 . S
N749 C753 1.418 . S
C750 H729 0.929 . S
C750 C748 1.446 . S
C750 C751 1.332 . S
C751 H731 0.931 . S
C751 C750 1.332 . S
C751 C752 1.267 . S
C752 H720 0.929 . S
C752 C751 1.267 . S
C752 C753 1.251 . S
C753 H723 0.929 . S
C753 N749 1.418 . S
C753 C752 1.251 . S
C754 H721 0.930 . S
C754 C756 1.406 1_455 S
C754 C759 1.261 . S
C755 H722 0.930 . S
C755 N757 1.325 1_455 S
C755 C758 1.357 . S
C756 H724 0.928 . S
C756 C754 1.406 1_655 S
C756 N757 1.261 . S
N757 Co708 2.214 . S
N757 C755 1.325 1_655 S
N757 C756 1.261 . S
C758 H728 0.931 . S
C758 C755 1.357 . S
C758 C759 1.312 . S
C759 H730 0.930 . S
C759 C754 1.261 . S
C759 C758 1.312 . S
C760 O732 1.214 . S
C760 O740 1.234 1_565 S
C761 H733 0.929 . S
C761 C764 1.391 . S
C761 C766 1.391 . S
C762 H734 0.929 . S
C762 C763 1.390 . S
C762 N765 1.391 . S
C763 H735 0.930 . S
C763 C762 1.390 . S
C763 C764 1.392 . S
C764 H736 0.929 . S
C764 C761 1.391 . S
C764 C763 1.392 . S
N765 Co709 2.257 . S
N765 C762 1.391 . S
N765 C766 1.388 . S
C766 H737 0.930 . S
C766 C761 1.391 . S
C766 N765 1.388 . S
Co767 O769 2.143 . S
Co767 O775 2.074 . S
Co767 O778 2.093 . S
Co767 O791 2.097 . S
Co767 N808 2.151 . S
Co767 N816 2.214 . S
Co768 O769 2.160 1_655 S
Co768 O774 2.058 1_655 S
Co768 O784 2.057 . S
Co768 O799 2.037 . S
Co768 N803 2.145 . S
Co768 N824 2.257 . S
O769 Co767 2.143 . S
O769 Co768 2.160 1_455 S
C770 O771 1.278 . S
C770 O778 1.224 . S
O771 C770 1.278 . S
C772 O773 1.245 . S
C772 O784 1.232 1_455 S
O773 C772 1.245 . S
O774 Co768 2.058 1_455 S
O774 C800 1.269 . S
O775 Co767 2.074 . S
O775 C800 1.257 . S
H776 C801 0.930 . S
H777 C807 0.930 . S
O778 Co767 2.093 . S
O778 C770 1.224 . S
H779 C811 0.929 . S
H780 C813 0.930 . S
H781 C814 0.930 . S
H782 C812 0.929 . S
H783 C815 0.928 . S
O784 Co768 2.057 . S
O784 C772 1.232 1_655 S
H785 C804 0.929 . S
H786 C805 0.929 . S
H787 C817 0.931 . S
H788 C809 0.929 . S
H789 C818 0.930 . S
H790 C810 0.931 . S
O791 Co767 2.097 . S
O791 C819 1.214 . S
H792 C820 0.929 . S
H793 C821 0.929 . S
H794 C822 0.930 . S
H795 C823 0.929 . S
H796 C825 0.930 . S
H797 C802 0.930 . S
H798 C806 0.930 . S
O799 Co768 2.037 . S
O799 C819 1.234 1_655 S
C800 O774 1.269 . S
C800 O775 1.257 . S
C801 H776 0.930 . S
C801 C804 1.388 . S
C801 C806 1.418 . S
C802 H797 0.930 . S
C802 C805 1.404 . S
C802 C806 1.353 . S
N803 Co768 2.145 . S
N803 C804 1.397 . S
N803 C805 1.334 . S
C804 H785 0.929 . S
C804 C801 1.388 . S
C804 N803 1.397 . S
C805 H786 0.929 . S
C805 C802 1.404 . S
C805 N803 1.334 . S
C806 H798 0.930 . S
C806 C801 1.418 . S
C806 C802 1.353 . S
C807 H777 0.930 . S
C807 N808 1.330 . S
C807 C809 1.446 . S
N808 Co767 2.151 . S
N808 C807 1.330 . S
N808 C812 1.418 . S
C809 H788 0.929 . S
C809 C807 1.446 . S
C809 C810 1.332 . S
C810 H790 0.931 . S
C810 C809 1.332 . S
C810 C811 1.267 . S
C811 H779 0.929 . S
C811 C810 1.267 . S
C811 C812 1.251 . S
C812 H782 0.929 . S
C812 N808 1.418 . S
C812 C811 1.251 . S
C813 H780 0.930 . S
C813 C815 1.406 . S
C813 C818 1.261 . S
C814 H781 0.930 . S
C814 N816 1.325 . S
C814 C817 1.357 . S
C815 H783 0.928 . S
C815 C813 1.406 . S
C815 N816 1.261 . S
N816 Co767 2.214 . S
N816 C814 1.325 . S
N816 C815 1.261 . S
C817 H787 0.931 . S
C817 C814 1.357 . S
C817 C818 1.312 . S
C818 H789 0.930 . S
C818 C813 1.261 . S
C818 C817 1.312 . S
C819 O791 1.214 . S
C819 O799 1.234 1_455 S
C820 H792 0.929 . S
C820 C823 1.391 . S
C820 C825 1.391 . S
C821 H793 0.929 . S
C821 C822 1.390 . S
C821 N824 1.391 . S
C822 H794 0.930 . S
C822 C821 1.390 . S
C822 C823 1.392 . S
C823 H795 0.929 . S
C823 C820 1.391 . S
C823 C822 1.392 . S
N824 Co768 2.257 . S
N824 C821 1.391 . S
N824 C825 1.388 . S
C825 H796 0.930 . S
C825 C820 1.391 . S
C825 N824 1.388 . S
Co826 O828 2.143 . S
Co826 O834 2.074 . S
Co826 O837 2.093 . S
Co826 O850 2.097 . S
Co826 N867 2.151 . S
Co826 N875 2.214 . S
Co827 O828 2.160 . S
Co827 O833 2.058 . S
Co827 O843 2.057 . S
Co827 O858 2.037 . S
Co827 N862 2.145 . S
Co827 N883 2.257 . S
O828 Co826 2.143 . S
O828 Co827 2.160 . S
C829 O830 1.278 . S
C829 O837 1.224 . S
O830 C829 1.278 . S
C831 O832 1.245 . S
C831 O843 1.232 . S
O832 C831 1.245 . S
O833 Co827 2.058 . S
O833 C859 1.269 . S
O834 Co826 2.074 . S
O834 C859 1.257 . S
H835 C860 0.930 1_556 S
H836 C866 0.930 . S
O837 Co826 2.093 . S
O837 C829 1.224 . S
H838 C870 0.929 1_545 S
H839 C872 0.930 1_545 S
H840 C873 0.930 . S
H841 C871 0.929 . S
H842 C874 0.928 . S
O843 Co827 2.057 . S
O843 C831 1.232 . S
H844 C863 0.929 . S
H845 C864 0.929 . S
H846 C876 0.931 . S
H847 C868 0.929 . S
H848 C877 0.930 . S
H849 C869 0.931 . S
O850 Co826 2.097 . S
O850 C878 1.214 . S
H851 C879 0.929 . S
H852 C880 0.929 . S
H853 C881 0.930 . S
H854 C882 0.929 . S
H855 C884 0.930 . S
H856 C861 0.930 . S
H857 C865 0.930 . S
O858 Co827 2.037 . S
O858 C878 1.234 . S
C859 O833 1.269 . S
C859 O834 1.257 . S
C860 H835 0.930 1_554 S
C860 C863 1.388 . S
C860 C865 1.418 . S
C861 H856 0.930 . S
C861 C864 1.404 . S
C861 C865 1.353 . S
N862 Co827 2.145 . S
N862 C863 1.397 . S
N862 C864 1.334 . S
C863 H844 0.929 . S
C863 C860 1.388 . S
C863 N862 1.397 . S
C864 H845 0.929 . S
C864 C861 1.404 . S
C864 N862 1.334 . S
C865 H857 0.930 . S
C865 C860 1.418 . S
C865 C861 1.353 . S
C866 H836 0.930 . S
C866 N867 1.330 . S
C866 C868 1.446 . S
N867 Co826 2.151 . S
N867 C866 1.330 . S
N867 C871 1.418 . S
C868 H847 0.929 . S
C868 C866 1.446 . S
C868 C869 1.332 1_565 S
C869 H849 0.931 . S
C869 C868 1.332 1_545 S
C869 C870 1.267 1_545 S
C870 H838 0.929 1_565 S
C870 C869 1.267 1_565 S
C870 C871 1.251 . S
C871 H841 0.929 . S
C871 N867 1.418 . S
C871 C870 1.251 . S
C872 H839 0.930 1_565 S
C872 C874 1.406 . S
C872 C877 1.261 . S
C873 H840 0.930 . S
C873 N875 1.325 . S
C873 C876 1.357 . S
C874 H842 0.928 . S
C874 C872 1.406 . S
C874 N875 1.261 . S
N875 Co826 2.214 . S
N875 C873 1.325 . S
N875 C874 1.261 . S
C876 H846 0.931 . S
C876 C873 1.357 . S
C876 C877 1.312 . S
C877 H848 0.930 . S
C877 C872 1.261 . S
C877 C876 1.312 . S
C878 O850 1.214 . S
C878 O858 1.234 . S
C879 H851 0.929 . S
C879 C882 1.391 . S
C879 C884 1.391 . S
C880 H852 0.929 . S
C880 C881 1.390 . S
C880 N883 1.391 . S
C881 H853 0.930 . S
C881 C880 1.390 . S
C881 C882 1.392 . S
C882 H854 0.929 . S
C882 C879 1.391 . S
C882 C881 1.392 . S
N883 Co827 2.257 . S
N883 C880 1.391 . S
N883 C884 1.388 . S
C884 H855 0.930 . S
C884 C879 1.391 . S
C884 N883 1.388 . S
Co885 O887 2.143 . S
Co885 O893 2.074 . S
Co885 O896 2.093 . S
Co885 O909 2.097 . S
Co885 N926 2.151 . S
Co885 N934 2.214 . S
Co886 O887 2.160 . S
Co886 O892 2.058 . S
Co886 O902 2.057 . S
Co886 O917 2.037 . S
Co886 N921 2.145 . S
Co886 N942 2.257 . S
O887 Co885 2.143 . S
O887 Co886 2.160 . S
C888 O889 1.278 . S
C888 O896 1.224 . S
O889 C888 1.278 . S
C890 O891 1.245 . S
C890 O902 1.232 . S
O891 C890 1.245 . S
O892 Co886 2.058 . S
O892 C918 1.269 . S
O893 Co885 2.074 . S
O893 C918 1.257 . S
H894 C919 0.930 . S
H895 C925 0.930 . S
O896 Co885 2.093 . S
O896 C888 1.224 . S
H897 C929 0.929 1_655 S
H898 C931 0.930 1_655 S
H899 C932 0.930 . S
H900 C930 0.929 . S
H901 C933 0.928 . S
O902 Co886 2.057 . S
O902 C890 1.232 . S
H903 C922 0.929 . S
H904 C923 0.929 . S
H905 C935 0.931 . S
H906 C927 0.929 . S
H907 C936 0.930 . S
H908 C928 0.931 . S
O909 Co885 2.097 . S
O909 C937 1.214 . S
H910 C938 0.929 . S
H911 C939 0.929 . S
H912 C940 0.930 . S
H913 C941 0.929 . S
H914 C943 0.930 . S
H915 C920 0.930 . S
H916 C924 0.930 . S
O917 Co886 2.037 . S
O917 C937 1.234 . S
C918 O892 1.269 . S
C918 O893 1.257 . S
C919 H894 0.930 . S
C919 C922 1.388 . S
C919 C924 1.418 . S
C920 H915 0.930 . S
C920 C923 1.404 . S
C920 C924 1.353 . S
N921 Co886 2.145 . S
N921 C922 1.397 . S
N921 C923 1.334 . S
C922 H903 0.929 . S
C922 C919 1.388 . S
C922 N921 1.397 . S
C923 H904 0.929 . S
C923 C920 1.404 . S
C923 N921 1.334 . S
C924 H916 0.930 . S
C924 C919 1.418 . S
C924 C920 1.353 . S
C925 H895 0.930 . S
C925 N926 1.330 . S
C925 C927 1.446 . S
N926 Co885 2.151 . S
N926 C925 1.330 . S
N926 C930 1.418 . S
C927 H906 0.929 . S
C927 C925 1.446 . S
C927 C928 1.332 1_455 S
C928 H908 0.931 . S
C928 C927 1.332 1_655 S
C928 C929 1.267 1_655 S
C929 H897 0.929 1_455 S
C929 C928 1.267 1_455 S
C929 C930 1.251 . S
C930 H900 0.929 . S
C930 N926 1.418 . S
C930 C929 1.251 . S
C931 H898 0.930 1_455 S
C931 C933 1.406 1_565 S
C931 C936 1.261 . S
C932 H899 0.930 . S
C932 N934 1.325 1_565 S
C932 C935 1.357 . S
C933 H901 0.928 . S
C933 C931 1.406 1_545 S
C933 N934 1.261 . S
N934 Co885 2.214 . S
N934 C932 1.325 1_545 S
N934 C933 1.261 . S
C935 H905 0.931 . S
C935 C932 1.357 . S
C935 C936 1.312 . S
C936 H907 0.930 . S
C936 C931 1.261 . S
C936 C935 1.312 . S
C937 O909 1.214 . S
C937 O917 1.234 . S
C938 H910 0.929 . S
C938 C941 1.391 . S
C938 C943 1.391 . S
C939 H911 0.929 . S
C939 C940 1.390 . S
C939 N942 1.391 . S
C940 H912 0.930 . S
C940 C939 1.390 . S
C940 C941 1.392 . S
C941 H913 0.929 . S
C941 C938 1.391 . S
C941 C940 1.392 . S
N942 Co886 2.257 . S
N942 C939 1.391 . S
N942 C943 1.388 . S
C943 H914 0.930 . S
C943 C938 1.391 . S
C943 N942 1.388 . S
C239 C3 1.508 . S
C62 C298 1.509 . S
C357 C121 1.509 . S
C416 C180 1.508 . S
C711 C475 1.508 . S
C534 C770 1.508 . S
C829 C593 1.508 . S
C652 C888 1.509 . S
C33 C918 1.590 . S
C92 C741 1.590 . S
C151 C800 1.590 . S
C859 C210 1.591 1_554 S
C269 C564 1.590 1_554 S
C328 C623 1.590 . S
C682 C387 1.589 . S
C505 C446 1.590 . S
C5 C595 1.712 1_445 S
C654 C64 1.712 1_455 S
C123 C477 1.712 . S
C536 C182 1.712 1_545 S
C241 C831 1.712 1_455 S
C300 C890 1.712 . S
C713 C359 1.712 1_565 S
C772 C418 1.712 1_445 S
C642 C52 1.574 1_565 S
C111 C701 1.574 1_665 S
C170 C524 1.574 1_455 S
C583 C229 1.574 . S
C878 C288 1.574 . S
C937 C347 1.574 1_545 S
C760 C406 1.574 1_665 S
C465 C819 1.574 1_655 S
