# Generated by pormake.
# Topology umz, (4)-cn, num edge types: 1
# Building blocks:
#     Node 0, Type 0, BuildingBlock: ICAMEG_clean_sbu_1, # of connection points: 4
#     Node 1, Type 0, BuildingBlock: ICAMEG_clean_sbu_1, # of connection points: 4
#     Node 2, Type 0, BuildingBlock: ICAMEG_clean_sbu_1, # of connection points: 4
#     Node 3, Type 0, BuildingBlock: ICAMEG_clean_sbu_1, # of connection points: 4
#     Node 4, Type 0, BuildingBlock: ICAMEG_clean_sbu_1, # of connection points: 4
#     Node 5, Type 0, BuildingBlock: ICAMEG_clean_sbu_1, # of connection points: 4
#     Node 6, Type 0, BuildingBlock: ICAMEG_clean_sbu_1, # of connection points: 4
#     Node 7, Type 0, BuildingBlock: ICAMEG_clean_sbu_1, # of connection points: 4
#     Node 8, Type 0, BuildingBlock: ICAMEG_clean_sbu_1, # of connection points: 4
#     Node 9, Type 0, BuildingBlock: ICAMEG_clean_sbu_1, # of connection points: 4
#     Node 10, Type 0, BuildingBlock: ICAMEG_clean_sbu_1, # of connection points: 4
#     Node 11, Type 0, BuildingBlock: ICAMEG_clean_sbu_1, # of connection points: 4
#     Node 12, Type 0, BuildingBlock: ICAMEG_clean_sbu_1, # of connection points: 4
#     Node 13, Type 0, BuildingBlock: ICAMEG_clean_sbu_1, # of connection points: 4
#     Node 14, Type 0, BuildingBlock: ICAMEG_clean_sbu_1, # of connection points: 4
#     Node 15, Type 0, BuildingBlock: ICAMEG_clean_sbu_1, # of connection points: 4
#     Edge 16, Type (0, 0), BuildingBlock: OJICUG_clean_linker_0, # of connection points: 2
#     Edge 17, Type (0, 0), BuildingBlock: OJICUG_clean_linker_0, # of connection points: 2
#     Edge 18, Type (0, 0), BuildingBlock: OJICUG_clean_linker_0, # of connection points: 2
#     Edge 19, Type (0, 0), BuildingBlock: OJICUG_clean_linker_0, # of connection points: 2
#     Edge 20, Type (0, 0), BuildingBlock: OJICUG_clean_linker_0, # of connection points: 2
#     Edge 21, Type (0, 0), BuildingBlock: OJICUG_clean_linker_0, # of connection points: 2
#     Edge 22, Type (0, 0), BuildingBlock: OJICUG_clean_linker_0, # of connection points: 2
#     Edge 23, Type (0, 0), BuildingBlock: OJICUG_clean_linker_0, # of connection points: 2
#     Edge 24, Type (0, 0), BuildingBlock: OJICUG_clean_linker_0, # of connection points: 2
#     Edge 25, Type (0, 0), BuildingBlock: OJICUG_clean_linker_0, # of connection points: 2
#     Edge 26, Type (0, 0), BuildingBlock: OJICUG_clean_linker_0, # of connection points: 2
#     Edge 27, Type (0, 0), BuildingBlock: OJICUG_clean_linker_0, # of connection points: 2
#     Edge 28, Type (0, 0), BuildingBlock: OJICUG_clean_linker_0, # of connection points: 2
#     Edge 29, Type (0, 0), BuildingBlock: OJICUG_clean_linker_0, # of connection points: 2
#     Edge 30, Type (0, 0), BuildingBlock: OJICUG_clean_linker_0, # of connection points: 2
#     Edge 31, Type (0, 0), BuildingBlock: OJICUG_clean_linker_0, # of connection points: 2
#     Edge 32, Type (0, 0), BuildingBlock: OJICUG_clean_linker_0, # of connection points: 2
#     Edge 33, Type (0, 0), BuildingBlock: OJICUG_clean_linker_0, # of connection points: 2
#     Edge 34, Type (0, 0), BuildingBlock: OJICUG_clean_linker_0, # of connection points: 2
#     Edge 35, Type (0, 0), BuildingBlock: OJICUG_clean_linker_0, # of connection points: 2
#     Edge 36, Type (0, 0), BuildingBlock: OJICUG_clean_linker_0, # of connection points: 2
#     Edge 37, Type (0, 0), BuildingBlock: OJICUG_clean_linker_0, # of connection points: 2
#     Edge 38, Type (0, 0), BuildingBlock: OJICUG_clean_linker_0, # of connection points: 2
#     Edge 39, Type (0, 0), BuildingBlock: OJICUG_clean_linker_0, # of connection points: 2
#     Edge 40, Type (0, 0), BuildingBlock: OJICUG_clean_linker_0, # of connection points: 2
#     Edge 41, Type (0, 0), BuildingBlock: OJICUG_clean_linker_0, # of connection points: 2
#     Edge 42, Type (0, 0), BuildingBlock: OJICUG_clean_linker_0, # of connection points: 2
#     Edge 43, Type (0, 0), BuildingBlock: OJICUG_clean_linker_0, # of connection points: 2
#     Edge 44, Type (0, 0), BuildingBlock: OJICUG_clean_linker_0, # of connection points: 2
#     Edge 45, Type (0, 0), BuildingBlock: OJICUG_clean_linker_0, # of connection points: 2
#     Edge 46, Type (0, 0), BuildingBlock: OJICUG_clean_linker_0, # of connection points: 2
#     Edge 47, Type (0, 0), BuildingBlock: OJICUG_clean_linker_0, # of connection points: 2
# Relax obj value: 0.207
# Max RMSD: 0.192
# Mean RMSD: 0.170
data_MOF--net-umz--node1-ICAMEG_clean_sbu_1--edge1-OJICUG_clean_linker_0
_symmetry_space_group_name_H-M    P1
_symmetry_Int_Tables_number       1
_symmetry_cell_setting            triclinic
loop_
_symmetry_equiv_pos_as_xyz
'x, y, z'
_cell_length_a     45.016416
_cell_length_b     44.996014
_cell_length_c     17.940279
_cell_angle_alpha  89.531464
_cell_angle_beta   90.453303
_cell_angle_gamma 89.698903
loop_
_atom_site_label
_atom_site_type_symbol
_atom_site_fract_x
_atom_site_fract_y
_atom_site_fract_z
_atom_type_partial_charge
Co0 Co 0.97952 0.57797 1.00494 0.0
Co1 Co 0.01297 0.63793 0.09209 0.0
O2 O 0.99977 0.61661 1.00273 0.0
C3 C 0.02889 0.5696 0.89583 0.0
O4 O 0.04607 0.58541 0.93953 0.0
C5 C 0.97377 0.68377 0.02155 0.0
O6 O 0.95356 0.66355 0.00786 0.0
O7 O 0.97379 0.63223 0.14187 0.0
O8 O 0.9554 0.59086 0.09072 0.0
H9 H 0.02748 0.65124 0.3678 0.0
H10 H 0.98151 0.6141 0.86554 0.0
O11 O 0.00243 0.56377 0.91564 0.0
H12 H 0.87524 0.60428 0.92509 0.0
H13 H 0.9214 0.49373 0.89361 0.0
H14 H 0.9605 0.53716 0.12544 0.0
H15 H 0.91329 0.57859 1.00132 0.0
H16 H 0.95326 0.53814 0.88916 0.0
O17 O 0.99868 0.6766 0.05045 0.0
H18 H 0.01093 0.62531 0.25448 0.0
H19 H 0.04382 0.69557 0.11924 0.0
H20 H 0.92867 0.49305 0.132 0.0
H21 H 0.94409 0.63995 0.78705 0.0
H22 H 0.9095 0.47041 0.01547 0.0
H23 H 0.89054 0.6359 0.81868 0.0
O24 O 0.01007 0.56044 0.07684 0.0
H25 H 0.0792 0.66522 0.87854 0.0
H26 H 0.07634 0.6302 0.13938 0.0
H27 H 0.1247 0.6361 0.07752 0.0
H28 H 0.12633 0.6538 0.94609 0.0
H29 H 0.03133 0.65854 0.94243 0.0
H30 H 0.0604 0.72243 0.23124 0.0
H31 H 0.05237 0.70021 0.35663 0.0
O32 O 0.02768 0.60039 0.13719 0.0
C33 C 0.9541 0.61203 0.13699 0.0
C34 C 0.03113 0.66115 0.31348 0.0
C35 C 0.04957 0.70112 0.23684 0.0
N36 N 0.02642 0.65888 0.18023 0.0
C37 C 0.02186 0.64655 0.24905 0.0
C38 C 0.04003 0.68585 0.17362 0.0
C39 C 0.04508 0.68863 0.30717 0.0
C40 C 0.95823 0.6116 0.87826 0.0
N41 N 0.94964 0.59497 0.93833 0.0
C42 C 0.93715 0.62643 0.83389 0.0
C43 C 0.90713 0.62408 0.85135 0.0
C44 C 0.8985 0.60647 0.91144 0.0
C45 C 0.92017 0.59203 0.95455 0.0
C46 C 0.93052 0.50271 0.94454 0.0
C47 C 0.95247 0.52743 0.07428 0.0
C48 C 0.94857 0.52787 0.94243 0.0
N49 N 0.9588 0.54025 0.00699 0.0
C50 C 0.93456 0.50228 0.0784 0.0
C51 C 0.92361 0.48979 0.01302 0.0
C52 C 0.02584 0.57246 0.12833 0.0
C53 C 0.07879 0.65745 0.93578 0.0
C54 C 0.07688 0.63751 0.08201 0.0
C55 C 0.10432 0.64102 0.04737 0.0
C56 C 0.10522 0.651 0.97368 0.0
N57 N 0.05106 0.64372 0.04439 0.0
C58 C 0.05176 0.65371 0.97229 0.0
Co59 Co 0.92645 0.97397 0.49956 0.0
Co60 Co 0.86174 0.00152 0.57848 0.0
O61 O 0.88576 0.98981 0.49259 0.0
C62 C 0.92964 0.02305 0.38624 0.0
O63 O 0.91106 0.03845 0.42684 0.0
C64 C 0.80793 0.9647 0.56457 0.0
O65 O 0.81445 0.95396 0.63103 0.0
O66 O 0.87152 0.96372 0.63258 0.0
O67 O 0.91521 0.94906 0.58595 0.0
H68 H 0.84187 0.0167 0.8509 0.0
H69 H 0.89184 0.97093 0.35784 0.0
O70 O 0.93894 0.99783 0.40953 0.0
H71 H 0.91495 0.86698 0.42682 0.0
H72 H 0.01934 0.926 0.40053 0.0
H73 H 0.96714 0.95957 0.62524 0.0
H74 H 0.93457 0.90824 0.50132 0.0
H75 H 0.97128 0.95242 0.38953 0.0
O76 O 0.82584 0.98252 0.53229 0.0
H77 H 0.87128 0.00151 0.74223 0.0
H78 H 0.80116 0.02822 0.59621 0.0
H79 H 0.01459 0.93275 0.63831 0.0
H80 H 0.87189 0.93024 0.28118 0.0
H81 H 0.04159 0.91651 0.5254 0.0
H82 H 0.88265 0.87774 0.31756 0.0
O83 O 0.93911 0.00655 0.57017 0.0
H84 H 0.82925 0.06281 0.35684 0.0
H85 H 0.8634 0.06585 0.61839 0.0
H86 H 0.85301 0.11278 0.55104 0.0
H87 H 0.8357 0.11144 0.41929 0.0
H88 H 0.84041 0.01644 0.42601 0.0
H89 H 0.77093 0.04359 0.70339 0.0
H90 H 0.79127 0.03788 0.83187 0.0
O91 O 0.8967 0.02032 0.62624 0.0
C92 C 0.89369 0.94602 0.63064 0.0
C93 C 0.83272 0.01924 0.79522 0.0
C94 C 0.79292 0.03433 0.71243 0.0
N95 N 0.8379 0.01376 0.66293 0.0
C96 C 0.84927 0.01064 0.73343 0.0
C97 C 0.81013 0.02554 0.65197 0.0
C98 C 0.80434 0.03113 0.78449 0.0
C99 C 0.89721 0.94819 0.37269 0.0
N100 N 0.91422 0.942 0.43434 0.0
C101 C 0.88573 0.92524 0.32931 0.0
C102 C 0.89185 0.89583 0.3494 0.0
C103 C 0.90985 0.88972 0.4111 0.0
C104 C 0.92086 0.9132 0.45317 0.0
C105 C 0.00831 0.93392 0.4499 0.0
C106 C 0.97868 0.9527 0.57562 0.0
C107 C 0.98111 0.94892 0.44409 0.0
N108 N 0.96639 0.95761 0.50668 0.0
C109 C 0.00571 0.93767 0.58343 0.0
C110 C 0.02067 0.92835 0.52008 0.0
C111 C 0.92482 0.0211 0.61986 0.0
C112 C 0.83673 0.06369 0.41426 0.0
C113 C 0.85618 0.06509 0.56095 0.0
C114 C 0.85016 0.09174 0.52317 0.0
C115 C 0.84041 0.09097 0.44929 0.0
N116 N 0.85255 0.03842 0.52622 0.0
C117 C 0.84294 0.0375 0.45383 0.0
Co118 Co 0.53447 0.92792 0.9987 0.0
Co119 Co 0.51213 0.86114 0.07927 0.0
O120 O 0.52198 0.88612 0.99242 0.0
C121 C 0.48579 0.92843 0.88408 0.0
O122 O 0.47164 0.90871 0.92455 0.0
C123 C 0.55057 0.80793 0.06542 0.0
O124 O 0.56166 0.81462 0.13108 0.0
O125 O 0.5498 0.87259 0.13171 0.0
O126 O 0.55976 0.91806 0.08609 0.0
H127 H 0.49967 0.83976 0.35269 0.0
H128 H 0.54085 0.89408 0.85792 0.0
O129 O 0.51017 0.93914 0.9078 0.0
H130 H 0.64216 0.92554 0.92653 0.0
H131 H 0.57316 0.02523 0.89858 0.0
H132 H 0.54494 0.96915 0.12391 0.0
H133 H 0.59923 0.941 1.00128 0.0
H134 H 0.55253 0.97472 0.88826 0.0
O135 O 0.53258 0.82599 0.03277 0.0
H136 H 0.51269 0.87007 0.24281 0.0
H137 H 0.48832 0.7995 0.0993 0.0
H138 H 0.56589 0.01925 0.13631 0.0
H139 H 0.5832 0.87839 0.78074 0.0
H140 H 0.57943 0.04804 0.02305 0.0
H141 H 0.63443 0.89343 0.81677 0.0
O142 O 0.50067 0.93813 0.06786 0.0
H143 H 0.45145 0.82686 0.86033 0.0
H144 H 0.44802 0.85956 0.12165 0.0
H145 H 0.40138 0.84731 0.05619 0.0
H146 H 0.40292 0.8307 0.92456 0.0
H147 H 0.4975 0.83989 0.9276 0.0
H148 H 0.47511 0.76838 0.20767 0.0
H149 H 0.48077 0.78848 0.33552 0.0
O150 O 0.49163 0.89501 0.12748 0.0
C151 C 0.56511 0.89641 0.13021 0.0
C152 C 0.49724 0.83069 0.29729 0.0
C153 C 0.48344 0.79065 0.21591 0.0
N154 N 0.50168 0.83649 0.16467 0.0
C155 C 0.50467 0.84773 0.23483 0.0
C156 C 0.49103 0.80836 0.15475 0.0
C157 C 0.48661 0.80194 0.28762 0.0
C158 C 0.56299 0.90122 0.87279 0.0
N159 N 0.56758 0.91825 0.93447 0.0
C160 C 0.58689 0.89217 0.82907 0.0
C161 C 0.61559 0.9007 0.84897 0.0
C162 C 0.62 0.91859 0.91094 0.0
C163 C 0.59561 0.92718 0.95325 0.0
C164 C 0.56645 0.01326 0.94809 0.0
C165 C 0.55073 0.98145 0.07416 0.0
C166 C 0.55473 0.98465 0.94267 0.0
N167 N 0.54743 0.96895 1.00542 0.0
C168 C 0.56242 0.00994 0.0816 0.0
C169 C 0.5702 0.02597 0.01804 0.0
C170 C 0.48802 0.92293 0.11936 0.0
C171 C 0.45049 0.83403 0.9177 0.0
C172 C 0.44885 0.85271 0.06423 0.0
C173 C 0.42238 0.84561 0.02753 0.0
C174 C 0.42327 0.83624 0.95373 0.0
N175 N 0.47547 0.85052 0.02854 0.0
C176 C 0.4765 0.8413 0.95621 0.0
Co177 Co 0.57555 0.52421 0.51515 0.0
Co178 Co 0.63956 0.49636 0.60097 0.0
O179 O 0.61622 0.50778 0.51184 0.0
C180 C 0.572 0.47552 0.40215 0.0
O181 O 0.59085 0.45993 0.44292 0.0
C182 C 0.68216 0.53851 0.52823 0.0
O183 O 0.66061 0.55743 0.51299 0.0
O184 O 0.63066 0.53505 0.65071 0.0
O185 O 0.58673 0.549 0.60144 0.0
H186 H 0.65666 0.48293 0.8764 0.0
H187 H 0.61065 0.52641 0.37545 0.0
O188 O 0.56287 0.50062 0.42517 0.0
H189 H 0.5887 0.63087 0.4364 0.0
H190 H 0.48371 0.57333 0.40772 0.0
H191 H 0.53429 0.53886 0.63732 0.0
H192 H 0.56861 0.59013 0.51293 0.0
H193 H 0.5317 0.54676 0.40116 0.0
O194 O 0.6767 0.51353 0.55869 0.0
H195 H 0.62831 0.49738 0.76363 0.0
H196 H 0.69992 0.47001 0.62699 0.0
H197 H 0.4867 0.5656 0.64594 0.0
H198 H 0.63086 0.56652 0.29646 0.0
H199 H 0.46057 0.58235 0.53053 0.0
H200 H 0.62068 0.61925 0.32873 0.0
O201 O 0.56196 0.49179 0.58622 0.0
H202 H 0.67133 0.43247 0.3874 0.0
H203 H 0.6377 0.43253 0.64814 0.0
H204 H 0.64753 0.38479 0.58623 0.0
H205 H 0.66455 0.38458 0.45485 0.0
H206 H 0.66074 0.47966 0.4513 0.0
H207 H 0.72917 0.45557 0.73839 0.0
H208 H 0.70751 0.4619 0.86423 0.0
O209 O 0.60388 0.47865 0.64721 0.0
C210 C 0.60821 0.55248 0.64685 0.0
C211 C 0.66636 0.48008 0.82189 0.0
C212 C 0.70705 0.46475 0.74443 0.0
N213 N 0.66245 0.48464 0.68871 0.0
C214 C 0.6504 0.4882 0.75778 0.0
C215 C 0.69043 0.4731 0.68155 0.0
C216 C 0.69488 0.46829 0.81502 0.0
C217 C 0.60552 0.54925 0.38855 0.0
N218 N 0.58861 0.5559 0.44915 0.0
C219 C 0.61716 0.57187 0.34386 0.0
C220 C 0.61135 0.60143 0.36164 0.0
C221 C 0.59356 0.608 0.42246 0.0
C222 C 0.58233 0.58483 0.46581 0.0
C223 C 0.49438 0.56522 0.45815 0.0
C224 C 0.52311 0.54594 0.58664 0.0
C225 C 0.52155 0.55015 0.45486 0.0
N226 N 0.53583 0.54118 0.5188 0.0
C227 C 0.49601 0.56093 0.59193 0.0
C228 C 0.48152 0.57052 0.52718 0.0
C229 C 0.57585 0.47758 0.63832 0.0
C230 C 0.66389 0.43226 0.44462 0.0
C231 C 0.64468 0.43258 0.59079 0.0
C232 C 0.65044 0.4055 0.55612 0.0
C233 C 0.66004 0.4054 0.48246 0.0
N234 N 0.64835 0.45882 0.55322 0.0
C235 C 0.65795 0.4589 0.48116 0.0
Co236 Co 0.9759 0.92528 1.0044 0.0
Co237 Co 0.00393 0.86082 0.92506 0.0
O238 O 0.99209 0.8847 0.01108 0.0
C239 C 0.02507 0.92879 0.1175 0.0
O240 O 0.04055 0.91024 0.07697 0.0
C241 C 0.96698 0.80707 0.93833 0.0
O242 O 0.9565 0.81363 0.87164 0.0
O243 O 0.96619 0.87057 0.87076 0.0
O244 O 0.95094 0.91389 0.91829 0.0
H245 H 0.01945 0.84135 0.65258 0.0
H246 H 0.97343 0.89062 0.1462 0.0
O247 O 0.9998 0.93795 0.09423 0.0
H248 H 0.86919 0.91257 0.07813 0.0
H249 H 0.92673 0.0174 0.10409 0.0
H250 H 0.96104 0.96595 0.879 0.0
H251 H 0.91012 0.93269 1.00328 0.0
H252 H 0.95399 0.96979 0.11477 0.0
O253 O 0.9849 0.82482 0.9708 0.0
H254 H 0.00404 0.87058 0.76137 0.0
H255 H 0.03069 0.80029 0.90704 0.0
H256 H 0.9334 0.01296 0.86627 0.0
H257 H 0.93309 0.8702 0.22324 0.0
H258 H 0.91679 0.0396 0.97937 0.0
H259 H 0.88045 0.88036 0.18728 0.0
O260 O 0.00825 0.93824 0.9334 0.0
H261 H 0.06502 0.82814 0.1468 0.0
H262 H 0.06826 0.86275 0.8856 0.0
H263 H 0.11512 0.85239 0.95318 0.0
H264 H 0.11368 0.83486 0.08475 0.0
H265 H 0.01871 0.83925 0.07741 0.0
H266 H 0.04628 0.77023 0.79973 0.0
H267 H 0.04071 0.79075 0.67138 0.0
O268 O 0.02267 0.89592 0.87775 0.0
C269 C 0.94819 0.89247 0.87318 0.0
C270 C 0.02194 0.83213 0.70822 0.0
C271 C 0.037 0.79222 0.7908 0.0
N272 N 0.0163 0.83712 0.84051 0.0
C273 C 0.01323 0.84858 0.77007 0.0
C274 C 0.02809 0.80933 0.85133 0.0
C275 C 0.03388 0.80375 0.71881 0.0
C276 C 0.95063 0.89575 0.13156 0.0
N277 N 0.94417 0.9127 0.06997 0.0
C278 C 0.92788 0.884 0.17515 0.0
C279 C 0.89839 0.88979 0.1553 0.0
C280 C 0.892 0.90773 0.09366 0.0
C281 C 0.91529 0.91902 0.05139 0.0
C282 C 0.93483 0.00656 0.05464 0.0
C283 C 0.95403 0.97735 0.92871 0.0
C284 C 0.95031 0.97962 0.06027 0.0
N285 N 0.95917 0.96508 0.99758 0.0
C286 C 0.93854 0.00414 0.92108 0.0
C287 C 0.929 0.01889 0.98454 0.0
C288 C 0.02309 0.92408 0.88398 0.0
C289 C 0.06594 0.83572 0.08946 0.0
C290 C 0.06745 0.85542 0.94296 0.0
C291 C 0.09406 0.84942 0.98087 0.0
C292 C 0.09324 0.83954 0.05465 0.0
N293 N 0.04077 0.85164 0.97748 0.0
C294 C 0.03979 0.84191 0.04977 0.0
Co295 Co 0.57891 0.98242 0.49976 0.0
Co296 Co 0.63967 0.01544 0.41496 0.0
O297 O 0.61784 0.00206 0.5034 0.0
C298 C 0.57137 0.03132 0.61036 0.0
O299 O 0.58802 0.04821 0.568 0.0
C300 C 0.68458 0.97489 0.48457 0.0
O301 O 0.66395 0.95502 0.49736 0.0
O302 O 0.63346 0.97666 0.36362 0.0
O303 O 0.59191 0.95835 0.41407 0.0
H304 H 0.65426 0.03132 0.14012 0.0
H305 H 0.61462 0.98342 0.63995 0.0
O306 O 0.56465 0.00526 0.5891 0.0
H307 H 0.60292 0.87746 0.57875 0.0
H308 H 0.49317 0.92544 0.60758 0.0
H309 H 0.5386 0.96403 0.37764 0.0
H310 H 0.57825 0.91618 0.50252 0.0
H311 H 0.53796 0.95671 0.61389 0.0
O312 O 0.67795 1.00015 0.45674 0.0
H313 H 0.62764 0.01455 0.25222 0.0
H314 H 0.69788 0.04548 0.39029 0.0
H315 H 0.4943 0.93254 0.36922 0.0
H316 H 0.63947 0.94532 0.71844 0.0
H317 H 0.47063 0.91369 0.48477 0.0
H318 H 0.63446 0.8919 0.686 0.0
O319 O 0.56215 0.01345 0.42791 0.0
H320 H 0.66767 0.07985 0.63144 0.0
H321 H 0.63298 0.07923 0.3702 0.0
H322 H 0.63953 0.1271 0.43413 0.0
H323 H 0.65705 0.12759 0.56577 0.0
H324 H 0.66035 0.03249 0.56552 0.0
H325 H 0.72543 0.0623 0.27955 0.0
H326 H 0.70357 0.05536 0.15335 0.0
O327 O 0.60255 0.03111 0.3696 0.0
C328 C 0.61315 0.95707 0.36804 0.0
C329 C 0.66402 0.0345 0.1948 0.0
C330 C 0.70397 0.05185 0.27306 0.0
N331 N 0.66116 0.02906 0.32781 0.0
C332 C 0.64902 0.0251 0.25854 0.0
C333 C 0.68831 0.04218 0.33556 0.0
C334 C 0.69168 0.04796 0.20227 0.0
C335 C 0.61172 0.96021 0.62684 0.0
N336 N 0.59513 0.95208 0.56632 0.0
C337 C 0.62598 0.93875 0.67123 0.0
C338 C 0.62309 0.90881 0.65333 0.0
C339 C 0.60553 0.90065 0.59276 0.0
C340 C 0.59166 0.9227 0.54965 0.0
C341 C 0.50262 0.93444 0.55705 0.0
C342 C 0.52846 0.95608 0.42838 0.0
C343 C 0.52797 0.95218 0.56021 0.0
N344 N 0.54091 0.96226 0.49619 0.0
C345 C 0.50319 0.93839 0.42321 0.0
C346 C 0.49013 0.92761 0.48804 0.0
C347 C 0.57456 0.02948 0.37747 0.0
C348 C 0.65999 0.07993 0.57412 0.0
C349 C 0.64023 0.07928 0.42765 0.0
C350 C 0.6441 0.10645 0.46347 0.0
C351 C 0.65399 0.10671 0.53727 0.0
N352 N 0.646 0.05312 0.46426 0.0
C353 C 0.65589 0.0532 0.53645 0.0
Co354 Co 0.52519 0.57622 0.01537 0.0
Co355 Co 0.49661 0.6396 0.92789 0.0
O356 O 0.50851 0.61686 0.01763 0.0
C357 C 0.4762 0.57205 0.12712 0.0
O358 O 0.46018 0.58987 0.08448 0.0
C359 C 0.53868 0.6837 0.99541 0.0
O360 O 0.55852 0.66281 0.00896 0.0
O361 O 0.53529 0.63079 0.87796 0.0
O362 O 0.54965 0.58711 0.92823 0.0
H363 H 0.48255 0.65493 0.65201 0.0
H364 H 0.52746 0.61208 0.1537 0.0
O365 O 0.50187 0.56387 0.10598 0.0
H366 H 0.63188 0.59061 0.09167 0.0
H367 H 0.57396 0.48466 0.12571 0.0
H368 H 0.53955 0.53419 0.89457 0.0
H369 H 0.5911 0.56969 0.01674 0.0
H370 H 0.5483 0.53318 0.13058 0.0
O371 O 0.51332 0.6773 0.96845 0.0
H372 H 0.4976 0.62746 0.76565 0.0
H373 H 0.4692 0.6994 0.89991 0.0
H374 H 0.56504 0.48583 0.88759 0.0
H375 H 0.56761 0.6332 0.231 0.0
H376 H 0.58185 0.46031 1.00383 0.0
H377 H 0.6203 0.62324 0.19819 0.0
O378 O 0.49275 0.56197 0.94539 0.0
H379 H 0.43286 0.67128 0.14175 0.0
H380 H 0.43273 0.63698 0.88159 0.0
H381 H 0.38505 0.6464 0.94406 0.0
H382 H 0.38493 0.66375 0.07516 0.0
H383 H 0.48 0.6611 0.07726 0.0
H384 H 0.45415 0.72779 0.7876 0.0
H385 H 0.46069 0.70552 0.66252 0.0
O386 O 0.47925 0.60349 0.88319 0.0
C387 C 0.55286 0.60843 0.88214 0.0
C388 C 0.47962 0.6649 0.70618 0.0
C389 C 0.46371 0.7058 0.78228 0.0
N390 N 0.48443 0.66183 0.83944 0.0
C391 C 0.48809 0.64944 0.77079 0.0
C392 C 0.47241 0.68966 0.84568 0.0
C393 C 0.46736 0.69328 0.71212 0.0
C394 C 0.5503 0.60709 0.14036 0.0
N395 N 0.55692 0.58984 0.08034 0.0
C396 C 0.57294 0.61922 0.18409 0.0
C397 C 0.60248 0.61354 0.16599 0.0
C398 C 0.60903 0.59537 0.10583 0.0
C399 C 0.58584 0.58367 0.06341 0.0
C400 C 0.56589 0.49511 0.07494 0.0
C401 C 0.54664 0.52325 0.94557 0.0
C402 C 0.55137 0.52261 0.07728 0.0
N403 N 0.54233 0.53653 0.01291 0.0
C404 C 0.56096 0.49575 0.94123 0.0
C405 C 0.57055 0.48156 0.00644 0.0
C406 C 0.4784 0.5755 0.893 0.0
C407 C 0.43261 0.66369 0.08466 0.0
C408 C 0.43283 0.6441 0.93881 0.0
C409 C 0.40578 0.64963 0.9738 0.0
C410 C 0.40573 0.65942 0.0473 0.0
N411 N 0.45909 0.64818 0.97591 0.0
C412 C 0.45923 0.65797 0.0478 0.0
Co413 Co 0.92495 0.53365 0.5059 0.0
Co414 Co 0.85769 0.51185 0.42751 0.0
O415 O 0.88315 0.52152 0.51348 0.0
C416 C 0.92507 0.48539 0.62168 0.0
O417 O 0.90494 0.47146 0.58205 0.0
C418 C 0.80475 0.55048 0.44432 0.0
O419 O 0.8106 0.56134 0.37788 0.0
O420 O 0.86902 0.54952 0.3747 0.0
O421 O 0.91488 0.55891 0.4185 0.0
H422 H 0.83455 0.49945 0.15494 0.0
H423 H 0.89174 0.54061 0.64752 0.0
O424 O 0.93629 0.50938 0.59686 0.0
H425 H 0.92415 0.64148 0.57726 0.0
H426 H 0.0231 0.57132 0.60303 0.0
H427 H 0.96549 0.54418 0.3793 0.0
H428 H 0.9387 0.59828 0.50234 0.0
H429 H 0.97259 0.55086 0.61493 0.0
O430 O 0.8231 0.53245 0.47572 0.0
H431 H 0.86562 0.51228 0.26359 0.0
H432 H 0.79581 0.48848 0.40997 0.0
H433 H 0.01525 0.56566 0.3653 0.0
H434 H 0.87697 0.58324 0.7249 0.0
H435 H 0.04486 0.57857 0.47769 0.0
H436 H 0.89251 0.63426 0.68807 0.0
O437 O 0.93452 0.49963 0.43679 0.0
H438 H 0.82401 0.45107 0.64705 0.0
H439 H 0.85585 0.44774 0.38502 0.0
H440 H 0.84365 0.40108 0.45053 0.0
H441 H 0.82747 0.40256 0.5825 0.0
H442 H 0.837 0.49714 0.57977 0.0
H443 H 0.76394 0.47545 0.30288 0.0
H444 H 0.78327 0.48092 0.1742 0.0
O445 O 0.89114 0.49122 0.37787 0.0
C446 C 0.89305 0.56451 0.37516 0.0
C447 C 0.82581 0.49711 0.21071 0.0
C448 C 0.7862 0.48362 0.29372 0.0
N449 N 0.83245 0.50157 0.34309 0.0
C450 C 0.84328 0.50445 0.27247 0.0
C451 C 0.80433 0.49112 0.35415 0.0
C452 C 0.79706 0.48669 0.22156 0.0
C453 C 0.89908 0.56265 0.63227 0.0
N454 N 0.91589 0.56696 0.57007 0.0
C455 C 0.89056 0.58671 0.67611 0.0
C456 C 0.89936 0.61529 0.65578 0.0
C457 C 0.91699 0.61942 0.59321 0.0
C458 C 0.92507 0.59487 0.55081 0.0
C459 C 0.01073 0.56496 0.55384 0.0
C460 C 0.97807 0.54985 0.42869 0.0
C461 C 0.98216 0.55326 0.56016 0.0
N462 N 0.96603 0.54627 0.49788 0.0
C463 C 0.0064 0.56178 0.42034 0.0
C464 C 0.02288 0.56923 0.48341 0.0
C465 C 0.91902 0.48725 0.38542 0.0
C466 C 0.83097 0.45013 0.58951 0.0
C467 C 0.84918 0.44856 0.44258 0.0
C468 C 0.84211 0.42207 0.47932 0.0
C469 C 0.83298 0.42292 0.55331 0.0
N470 N 0.84718 0.47517 0.47844 0.0
C471 C 0.8382 0.47617 0.55097 0.0
Co472 Co 0.01774 0.42353 0.01305 0.0
Co473 Co 0.98413 0.36361 0.92602 0.0
O474 O 0.99749 0.38488 0.01531 0.0
C475 C 0.96836 0.43193 0.12207 0.0
O476 O 0.95119 0.41609 0.07844 0.0
C477 C 0.02395 0.31783 0.99418 0.0
O478 O 0.04413 0.33815 0.00703 0.0
O479 O 0.02316 0.36946 0.87567 0.0
O480 O 0.04186 0.41059 0.92739 0.0
H481 H 0.9691 0.35047 0.65042 0.0
H482 H 0.01571 0.3874 0.15246 0.0
O483 O 0.99482 0.43776 0.10226 0.0
H484 H 0.12199 0.39717 0.09293 0.0
H485 H 0.0758 0.50783 0.12427 0.0
H486 H 0.03678 0.46429 0.89248 0.0
H487 H 0.08396 0.42291 0.01676 0.0
H488 H 0.044 0.46338 0.12877 0.0
O489 O 0.99869 0.32493 0.96712 0.0
H490 H 0.98585 0.37634 0.76364 0.0
H491 H 0.95327 0.30598 0.89902 0.0
H492 H 0.06853 0.50847 0.88587 0.0
H493 H 0.05313 0.3615 0.2309 0.0
H494 H 0.08767 0.53115 1.00238 0.0
H495 H 0.10667 0.3655 0.19923 0.0
O496 O 0.98723 0.44106 0.94106 0.0
H497 H 0.91848 0.3358 0.14027 0.0
H498 H 0.92065 0.37146 0.87989 0.0
H499 H 0.87245 0.36537 0.94247 0.0
H500 H 0.87118 0.34736 0.07366 0.0
H501 H 0.96619 0.34265 0.07567 0.0
H502 H 0.93649 0.27917 0.78711 0.0
H503 H 0.94426 0.30148 0.6617 0.0
O504 O 0.96925 0.40114 0.88132 0.0
C505 C 0.04298 0.38951 0.88081 0.0
C506 C 0.96556 0.34052 0.70474 0.0
C507 C 0.94729 0.3005 0.78146 0.0
N508 N 0.97053 0.34271 0.83795 0.0
C509 C 0.97495 0.35509 0.76912 0.0
C510 C 0.95695 0.31573 0.84463 0.0
C511 C 0.95164 0.31303 0.71112 0.0
C512 C 0.039 0.38989 0.13975 0.0
N513 N 0.0476 0.40653 0.07972 0.0
C514 C 0.06007 0.37503 0.18409 0.0
C515 C 0.09009 0.37737 0.16662 0.0
C516 C 0.09873 0.39499 0.10658 0.0
C517 C 0.07707 0.40947 0.06352 0.0
C518 C 0.0667 0.49883 0.07334 0.0
C519 C 0.04479 0.47405 0.94363 0.0
C520 C 0.04868 0.47365 0.07548 0.0
N521 N 0.03847 0.46124 0.01094 0.0
C522 C 0.06266 0.49923 0.93949 0.0
C523 C 0.07359 0.51175 1.00485 0.0
C524 C 0.97127 0.42907 0.88988 0.0
C525 C 0.91874 0.34369 0.08313 0.0
C526 C 0.92027 0.36399 0.93715 0.0
C527 C 0.89291 0.36038 0.9722 0.0
C528 C 0.89221 0.35022 0.04576 0.0
N529 N 0.94618 0.35767 0.97425 0.0
C530 C 0.94567 0.34753 0.04622 0.0
Co531 Co 0.07633 0.0263 0.50429 0.0
Co532 Co 0.14095 0.99892 0.42423 0.0
O533 O 0.11711 0.01055 0.51061 0.0
C534 C 0.07339 0.97716 0.61783 0.0
O535 O 0.09222 0.96187 0.57768 0.0
C536 C 0.19449 0.03622 0.43618 0.0
O537 O 0.18743 0.04686 0.36995 0.0
O538 O 0.13073 0.03658 0.37007 0.0
O539 O 0.08735 0.05137 0.41806 0.0
H540 H 0.15994 0.98367 0.15142 0.0
H541 H 0.1111 0.02918 0.64582 0.0
O542 O 0.06397 0.0023 0.59425 0.0
H543 H 0.08788 0.13321 0.57777 0.0
H544 H 0.98369 0.0743 0.6046 0.0
H545 H 0.03536 0.04066 0.37918 0.0
H546 H 0.06819 0.09203 0.50311 0.0
H547 H 0.03171 0.04779 0.61496 0.0
O548 O 0.17695 0.01825 0.46928 0.0
H549 H 0.13085 0.99881 0.26067 0.0
H550 H 0.2016 0.97255 0.40526 0.0
H551 H 0.9879 0.06751 0.36676 0.0
H552 H 0.13108 0.06979 0.72273 0.0
H553 H 0.96117 0.08379 0.48004 0.0
H554 H 0.12031 0.12233 0.68672 0.0
O555 O 0.06361 0.99379 0.43349 0.0
H556 H 0.17471 0.93812 0.64551 0.0
H557 H 0.13948 0.93453 0.38489 0.0
H558 H 0.15044 0.88775 0.45238 0.0
H559 H 0.16829 0.88937 0.58364 0.0
H560 H 0.163 0.98434 0.57623 0.0
H561 H 0.23152 0.95725 0.29748 0.0
H562 H 0.21071 0.96276 0.16943 0.0
O563 O 0.10596 0.97985 0.37739 0.0
C564 C 0.10865 0.05436 0.37274 0.0
C565 C 0.16929 0.98121 0.20692 0.0
C566 C 0.20946 0.96638 0.28889 0.0
N567 N 0.16455 0.98675 0.33931 0.0
C568 C 0.15293 0.98977 0.26903 0.0
C569 C 0.19242 0.97513 0.3497 0.0
C570 C 0.19776 0.96947 0.21707 0.0
C571 C 0.10569 0.05193 0.63119 0.0
N572 N 0.08863 0.0582 0.56969 0.0
C573 C 0.1172 0.07484 0.6747 0.0
C574 C 0.11106 0.10427 0.65485 0.0
C575 C 0.093 0.11045 0.5933 0.0
C576 C 0.08195 0.08701 0.55113 0.0
C577 C 0.99459 0.06634 0.55508 0.0
C578 C 0.02393 0.04753 0.42897 0.0
C579 C 0.02177 0.05129 0.56053 0.0
N580 N 0.03636 0.0426 0.49774 0.0
C581 C 0.99689 0.06258 0.42151 0.0
C582 C 0.98208 0.07193 0.48507 0.0
C583 C 0.07784 0.97913 0.38389 0.0
C584 C 0.16699 0.93712 0.5883 0.0
C585 C 0.14695 0.93541 0.44214 0.0
C586 C 0.15328 0.90885 0.47999 0.0
C587 C 0.16334 0.90978 0.55359 0.0
N588 N 0.15057 0.96214 0.47654 0.0
C589 C 0.16047 0.96323 0.54867 0.0
Co590 Co 0.47082 0.07908 0.99444 0.0
Co591 Co 0.49317 0.14441 0.90483 0.0
O592 O 0.48386 0.12115 0.99594 0.0
C593 C 0.51913 0.07948 0.1117 0.0
O594 O 0.53289 0.10039 0.07427 0.0
C595 C 0.45707 0.18817 0.99685 0.0
O596 O 0.45105 0.16838 0.04857 0.0
O597 O 0.45529 0.1321 0.8553 0.0
O598 O 0.4452 0.08775 0.90685 0.0
H599 H 0.50521 0.15761 0.62823 0.0
H600 H 0.46594 0.11369 0.1344 0.0
O601 O 0.49532 0.06838 0.08557 0.0
H602 H 0.36346 0.08515 0.0689 0.0
H603 H 0.4305 0.98409 0.10431 0.0
H604 H 0.46011 0.03584 0.87375 0.0
H605 H 0.40562 0.06794 0.99379 0.0
H606 H 0.45164 0.03452 0.1095 0.0
O607 O 0.47273 0.1813 0.94087 0.0
H608 H 0.4932 0.1303 0.74357 0.0
H609 H 0.51387 0.20634 0.87265 0.0
H610 H 0.439 0.98565 0.86649 0.0
H611 H 0.42443 0.13085 0.2124 0.0
H612 H 0.42468 0.95905 0.98246 0.0
H613 H 0.37262 0.11752 0.17756 0.0
O614 O 0.50421 0.06728 0.92539 0.0
H615 H 0.55608 0.1822 0.11672 0.0
H616 H 0.55638 0.14763 0.85686 0.0
H617 H 0.60355 0.16195 0.91674 0.0
H618 H 0.6036 0.17956 0.04761 0.0
H619 H 0.5096 0.16707 0.05513 0.0
H620 H 0.52576 0.23455 0.75849 0.0
H621 H 0.5216 0.21016 0.63517 0.0
O622 O 0.51379 0.10949 0.86268 0.0
C623 C 0.43985 0.10846 0.86007 0.0
C624 C 0.50712 0.1685 0.68162 0.0
C625 C 0.51861 0.21168 0.75474 0.0
N626 N 0.50279 0.16666 0.81493 0.0
C627 C 0.50038 0.15313 0.74722 0.0
C628 C 0.5117 0.19561 0.81919 0.0
C629 C 0.51629 0.19798 0.68556 0.0
C630 C 0.44355 0.1071 0.12034 0.0
N631 N 0.4382 0.09014 0.05892 0.0
C632 C 0.42012 0.11703 0.16445 0.0
C633 C 0.39109 0.10944 0.14525 0.0
C634 C 0.38588 0.09147 0.0838 0.0
C635 C 0.40984 0.08195 0.04114 0.0
C636 C 0.43754 0.99509 0.0537 0.0
C637 C 0.45407 0.02447 0.92466 0.0
C638 C 0.44951 0.02366 0.05621 0.0
N639 N 0.45723 0.03816 0.99199 0.0
C640 C 0.44224 0.99593 0.92015 0.0
C641 C 0.43403 0.98113 0.9852 0.0
C642 C 0.51722 0.08172 0.87315 0.0
C643 C 0.55635 0.17468 0.05957 0.0
C644 C 0.55622 0.15496 0.91393 0.0
C645 C 0.583 0.16321 0.94748 0.0
C646 C 0.58301 0.17313 0.02084 0.0
N647 N 0.53012 0.1566 0.95213 0.0
C648 C 0.53 0.16626 0.02414 0.0
Co649 Co 0.42282 0.4743 0.51524 0.0
Co650 Co 0.35922 0.50309 0.42928 0.0
O651 O 0.3823 0.49116 0.51846 0.0
C652 C 0.42691 0.52289 0.62822 0.0
O653 O 0.40834 0.53873 0.58723 0.0
C654 C 0.31573 0.46121 0.4995 0.0
O655 O 0.33684 0.44168 0.5138 0.0
O656 O 0.36771 0.46439 0.3791 0.0
O657 O 0.41139 0.44977 0.42873 0.0
H658 H 0.34265 0.51737 0.15388 0.0
H659 H 0.38753 0.47236 0.6546 0.0
O660 O 0.4357 0.49765 0.60538 0.0
H661 H 0.40845 0.36774 0.59321 0.0
H662 H 0.51454 0.42494 0.6229 0.0
H663 H 0.46402 0.45936 0.39315 0.0
H664 H 0.42914 0.40834 0.51718 0.0
H665 H 0.46642 0.45128 0.62928 0.0
O666 O 0.32178 0.48638 0.47091 0.0
H667 H 0.37063 0.50223 0.26665 0.0
H668 H 0.29932 0.53046 0.40316 0.0
H669 H 0.51179 0.43291 0.38467 0.0
H670 H 0.36673 0.43239 0.73309 0.0
H671 H 0.53785 0.41615 0.50018 0.0
H672 H 0.37635 0.37961 0.70052 0.0
O673 O 0.43685 0.50661 0.44447 0.0
H674 H 0.32803 0.56696 0.64343 0.0
H675 H 0.36217 0.567 0.38312 0.0
H676 H 0.35297 0.61472 0.44565 0.0
H677 H 0.3357 0.61489 0.57681 0.0
H678 H 0.338 0.51977 0.57892 0.0
H679 H 0.27044 0.54562 0.29175 0.0
H680 H 0.29213 0.5392 0.16598 0.0
O681 O 0.39514 0.52035 0.38353 0.0
C682 C 0.38994 0.44666 0.38307 0.0
C683 C 0.33293 0.52026 0.20836 0.0
C684 C 0.2924 0.53608 0.28574 0.0
N685 N 0.33661 0.51532 0.34151 0.0
C686 C 0.34868 0.51173 0.27248 0.0
C687 C 0.30882 0.52732 0.34862 0.0
C688 C 0.30459 0.53249 0.21519 0.0
C689 C 0.39243 0.44948 0.64141 0.0
N690 N 0.40938 0.44271 0.58095 0.0
C691 C 0.38047 0.42694 0.68582 0.0
C692 C 0.38597 0.39735 0.66789 0.0
C693 C 0.40383 0.39064 0.60725 0.0
C694 C 0.41539 0.41373 0.5642 0.0
C695 C 0.50386 0.433 0.57242 0.0
C696 C 0.47516 0.45225 0.44385 0.0
C697 C 0.47661 0.44793 0.57561 0.0
N698 N 0.46238 0.45694 0.51164 0.0
C699 C 0.50235 0.43741 0.43865 0.0
C700 C 0.51683 0.42784 0.50345 0.0
C701 C 0.42316 0.52102 0.39241 0.0
C702 C 0.33558 0.56719 0.5863 0.0
C703 C 0.35507 0.56691 0.44037 0.0
C704 C 0.34967 0.59399 0.47539 0.0
C705 C 0.33992 0.59407 0.54893 0.0
N706 N 0.3509 0.54065 0.47747 0.0
C707 C 0.34116 0.54054 0.54942 0.0
Co708 Co 0.02653 0.07535 0.99926 0.0
Co709 Co 0.99813 0.13959 0.07903 0.0
O710 O 0.01018 0.1159 0.99279 0.0
C711 C 0.97743 0.0717 0.88607 0.0
O712 O 0.96188 0.09019 0.92657 0.0
C713 C 0.03454 0.19371 0.0669 0.0
O714 O 0.04535 0.18681 0.13305 0.0
O715 O 0.0359 0.12997 0.1333 0.0
O716 O 0.0514 0.08678 0.08547 0.0
H717 H 0.98245 0.15848 0.35172 0.0
H718 H 0.02892 0.11013 0.85762 0.0
O719 O 0.00273 0.06264 0.90935 0.0
H720 H 0.13321 0.08846 0.92577 0.0
H721 H 0.0758 0.98333 0.89914 0.0
H722 H 0.04152 0.03462 0.12447 0.0
H723 H 0.09233 0.06817 1.00049 0.0
H724 H 0.04862 0.03099 0.88869 0.0
O725 O 0.01687 0.17586 0.03386 0.0
H726 H 0.99809 0.12957 0.24262 0.0
H727 H 0.97079 0.19986 0.09771 0.0
H728 H 0.06905 0.98754 0.13699 0.0
H729 H 0.06923 0.13069 0.78065 0.0
H730 H 0.08566 0.96099 0.02375 0.0
H731 H 0.12188 0.12069 0.81671 0.0
O732 O 0.99422 0.06215 0.0701 0.0
H733 H 0.93695 0.17221 0.8574 0.0
H734 H 0.93378 0.13718 0.11826 0.0
H735 H 0.88689 0.14733 0.0506 0.0
H736 H 0.88829 0.16508 0.9192 0.0
H737 H 0.98329 0.1613 0.92686 0.0
H738 H 0.95497 0.2296 0.20534 0.0
H739 H 0.96075 0.20892 0.33348 0.0
O740 O 0.9796 0.10433 0.12595 0.0
C741 C 0.05402 0.10816 0.13072 0.0
C742 C 0.97987 0.16777 0.29619 0.0
C743 C 0.96445 0.20768 0.21403 0.0
N744 N 0.98555 0.16305 0.16383 0.0
C745 C 0.98872 0.15151 0.23416 0.0
C746 C 0.9735 0.19075 0.15331 0.0
C747 C 0.96769 0.19606 0.2859 0.0
C748 C 0.05173 0.10507 0.87228 0.0
N749 N 0.05823 0.08811 0.93383 0.0
C750 C 0.07446 0.11689 0.82873 0.0
C751 C 0.10397 0.11119 0.84861 0.0
C752 C 0.11039 0.09324 0.91022 0.0
C753 C 0.08712 0.08186 0.95242 0.0
C754 C 0.06771 0.99414 0.94864 0.0
C755 C 0.04853 0.02327 0.07471 0.0
C756 C 0.05228 0.02111 0.94314 0.0
N757 N 0.04341 0.03561 0.00591 0.0
C758 C 0.06397 0.99644 0.08221 0.0
C759 C 0.0735 0.98173 0.01868 0.0
C760 C 0.97932 0.07619 0.11958 0.0
C761 C 0.93604 0.16454 0.91467 0.0
C762 C 0.93457 0.1446 0.06096 0.0
C763 C 0.90795 0.15048 0.02301 0.0
C764 C 0.90875 0.16048 0.94933 0.0
N765 N 0.96125 0.14861 0.02659 0.0
C766 C 0.96221 0.15846 0.9544 0.0
Co767 Co 0.42485 0.02152 0.49267 0.0
Co768 Co 0.36447 0.98801 0.57819 0.0
O769 O 0.38605 0.00153 0.48941 0.0
C770 C 0.43302 0.9725 0.38258 0.0
O771 O 0.41658 0.95545 0.42509 0.0
C772 C 0.31861 0.02794 0.50995 0.0
O773 O 0.33873 0.04836 0.49743 0.0
O774 O 0.37034 0.02695 0.62923 0.0
O775 O 0.4117 0.04553 0.57825 0.0
H776 H 0.35041 0.97223 0.85329 0.0
H777 H 0.38916 0.01995 0.35256 0.0
O778 O 0.4393 0.99872 0.40349 0.0
H779 H 0.39969 0.12613 0.41279 0.0
H780 H 0.51023 0.07896 0.38442 0.0
H781 H 0.46524 0.04001 0.61453 0.0
H782 H 0.42483 0.08777 0.48932 0.0
H783 H 0.46539 0.04776 0.37834 0.0
O784 O 0.32591 0.00268 0.5367 0.0
H785 H 0.37666 0.98927 0.74088 0.0
H786 H 0.30677 0.95708 0.60355 0.0
H787 H 0.50992 0.07105 0.6227 0.0
H788 H 0.36395 0.05768 0.27362 0.0
H789 H 0.53325 0.09018 0.50702 0.0
H790 H 0.36825 0.11115 0.30579 0.0
O791 O 0.44194 0.99076 0.56467 0.0
H792 H 0.33694 0.92295 0.36259 0.0
H793 H 0.37222 0.92435 0.62329 0.0
H794 H 0.36619 0.87632 0.55984 0.0
H795 H 0.34836 0.87543 0.42848 0.0
H796 H 0.34374 0.97048 0.42805 0.0
H797 H 0.2796 0.93999 0.71461 0.0
H798 H 0.30147 0.94743 0.8406 0.0
O799 O 0.40177 0.97292 0.62346 0.0
C800 C 0.39052 0.04668 0.62453 0.0
C801 C 0.34064 0.96885 0.79871 0.0
C802 C 0.30089 0.95079 0.72088 0.0
N803 N 0.34328 0.97421 0.66564 0.0
C804 C 0.35542 0.97842 0.7348 0.0
C805 C 0.31633 0.96062 0.65819 0.0
C806 C 0.31318 0.95495 0.79155 0.0
C807 C 0.39182 0.0432 0.36544 0.0
N808 N 0.40831 0.05161 0.4259 0.0
C809 C 0.37736 0.06445 0.3208 0.0
C810 C 0.37989 0.09444 0.33847 0.0
C811 C 0.39736 0.10288 0.39897 0.0
C812 C 0.41147 0.08105 0.44228 0.0
C813 C 0.5009 0.06986 0.43497 0.0
C814 C 0.47531 0.04802 0.56374 0.0
C815 C 0.47549 0.0522 0.43194 0.0
N816 N 0.46269 0.042 0.49602 0.0
C817 C 0.50074 0.06549 0.56877 0.0
C818 C 0.51365 0.0764 0.50387 0.0
C819 C 0.42971 0.97481 0.61552 0.0
C820 C 0.34474 0.92304 0.4198 0.0
C821 C 0.36483 0.92413 0.56598 0.0
C822 C 0.36125 0.89687 0.53042 0.0
C823 C 0.3512 0.89639 0.45677 0.0
N824 N 0.35859 0.95017 0.52927 0.0
C825 C 0.34855 0.94987 0.45721 0.0
Co826 Co 0.47411 0.42111 0.01482 0.0
Co827 Co 0.50208 0.35818 0.10645 0.0
O828 O 0.49069 0.38028 0.01493 0.0
C829 C 0.52321 0.42455 0.90212 0.0
O830 O 0.53896 0.40588 0.94311 0.0
C831 C 0.46077 0.3141 0.03518 0.0
O832 O 0.44318 0.33522 0.00949 0.0
O833 O 0.4635 0.36799 0.15539 0.0
O834 O 0.44915 0.41092 0.10148 0.0
H835 H 0.51577 0.34613 0.38336 0.0
H836 H 0.47265 0.38489 0.87711 0.0
O837 O 0.49784 0.43313 0.92447 0.0
H838 H 0.36782 0.40601 0.93555 0.0
H839 H 0.42511 0.51168 0.89995 0.0
H840 H 0.4597 0.46409 0.13344 0.0
H841 H 0.40811 0.42725 0.01155 0.0
H842 H 0.45104 0.46327 0.89744 0.0
O843 O 0.48472 0.3202 0.06952 0.0
H844 H 0.50127 0.3724 0.26755 0.0
H845 H 0.52794 0.298 0.1394 0.0
H846 H 0.43414 0.51247 0.13801 0.0
H847 H 0.43299 0.36357 0.79859 0.0
H848 H 0.41719 0.537 0.02056 0.0
H849 H 0.38011 0.37327 0.82973 0.0
O850 O 0.50626 0.43572 0.08527 0.0
H851 H 0.56544 0.32285 0.89558 0.0
H852 H 0.56594 0.36014 0.15311 0.0
H853 H 0.61351 0.34899 0.09181 0.0
H854 H 0.61344 0.33012 0.96206 0.0
H855 H 0.51843 0.33476 0.95886 0.0
H856 H 0.5424 0.27082 0.254 0.0
H857 H 0.53647 0.29493 0.37709 0.0
O858 O 0.52 0.3945 0.14842 0.0
C859 C 0.44586 0.39019 0.14913 0.0
C860 C 0.51849 0.33538 0.33006 0.0
C861 C 0.5334 0.29311 0.25745 0.0
N862 N 0.51379 0.33682 0.19664 0.0
C863 C 0.51037 0.35017 0.26422 0.0
C864 C 0.52507 0.3086 0.19274 0.0
C865 C 0.53009 0.30666 0.3265 0.0
C866 C 0.44972 0.38985 0.88959 0.0
N867 N 0.44272 0.40715 0.94926 0.0
C868 C 0.42736 0.37758 0.8452 0.0
C869 C 0.39771 0.38313 0.86235 0.0
C870 C 0.39077 0.40134 0.92215 0.0
C871 C 0.41368 0.41321 0.96521 0.0
C872 C 0.43326 0.50168 0.95121 0.0
C873 C 0.45263 0.47463 0.0819 0.0
C874 C 0.44792 0.47424 0.95021 0.0
N875 N 0.45699 0.46084 0.01524 0.0
C876 C 0.43824 0.50214 0.08488 0.0
C877 C 0.42858 0.51576 0.019 0.0
C878 C 0.52081 0.42243 0.13773 0.0
C879 C 0.56578 0.3311 0.95208 0.0
C880 C 0.56578 0.35235 0.09643 0.0
C881 C 0.59276 0.34585 0.06212 0.0
C882 C 0.5927 0.33522 0.98938 0.0
N883 N 0.53948 0.34838 0.05939 0.0
C884 C 0.53924 0.3378 0.98823 0.0
Co885 Co 0.07252 0.46791 0.51194 0.0
Co886 Co 0.13966 0.48972 0.59122 0.0
O887 O 0.11437 0.48003 0.50489 0.0
C888 C 0.07259 0.51612 0.3959 0.0
O889 O 0.09296 0.52992 0.43504 0.0
C890 C 0.1923 0.45061 0.57636 0.0
O891 O 0.1859 0.43985 0.64256 0.0
O892 O 0.12803 0.45222 0.64422 0.0
O893 O 0.08244 0.44255 0.5992 0.0
H894 H 0.16206 0.50243 0.86406 0.0
H895 H 0.10594 0.4611 0.37058 0.0
O896 O 0.06126 0.49225 0.42106 0.0
H897 H 0.07357 0.36013 0.44001 0.0
H898 H 0.97456 0.43014 0.41376 0.0
H899 H 0.03177 0.45736 0.63808 0.0
H900 H 0.05882 0.40325 0.51498 0.0
H901 H 0.02508 0.45066 0.40239 0.0
O902 O 0.17434 0.46881 0.54412 0.0
H903 H 0.13126 0.48953 0.75498 0.0
H904 H 0.2016 0.51284 0.60967 0.0
H905 H 0.98199 0.43587 0.65156 0.0
H906 H 0.12089 0.41856 0.29314 0.0
H907 H 0.95258 0.42292 0.53886 0.0
H908 H 0.1054 0.36749 0.32961 0.0
O909 O 0.06283 0.50186 0.5812 0.0
H910 H 0.17439 0.54986 0.37167 0.0
H911 H 0.14162 0.55391 0.63289 0.0
H912 H 0.15426 0.60037 0.56703 0.0
H913 H 0.17091 0.59853 0.43547 0.0
H914 H 0.16096 0.504 0.43928 0.0
H915 H 0.23319 0.52593 0.71722 0.0
H916 H 0.21347 0.52074 0.84557 0.0
O917 O 0.10618 0.51059 0.63996 0.0
C918 C 0.10411 0.43708 0.64309 0.0
C919 C 0.17097 0.50466 0.80844 0.0
C920 C 0.21088 0.51786 0.72604 0.0
N921 N 0.16469 0.50003 0.676 0.0
C922 C 0.15365 0.49729 0.74643 0.0
C923 C 0.19289 0.51034 0.66535 0.0
C924 C 0.19979 0.51495 0.79802 0.0
C925 C 0.09859 0.43905 0.38563 0.0
N926 N 0.08169 0.43466 0.44764 0.0
C927 C 0.10723 0.41503 0.34176 0.0
C928 C 0.09845 0.38642 0.36189 0.0
C929 C 0.08071 0.38222 0.42423 0.0
C930 C 0.07252 0.40672 0.46666 0.0
C931 C 0.98684 0.43653 0.46307 0.0
C932 C 0.01928 0.45169 0.58856 0.0
C933 C 0.01541 0.44826 0.45705 0.0
N934 N 0.03143 0.45527 0.5195 0.0
C935 C 0.99093 0.43975 0.59661 0.0
C936 C 0.97457 0.43227 0.53337 0.0
C937 C 0.07829 0.51444 0.63237 0.0
C938 C 0.16722 0.55096 0.42903 0.0
C939 C 0.1485 0.55294 0.5755 0.0
C940 C 0.15582 0.57931 0.53857 0.0
C941 C 0.16521 0.57826 0.46481 0.0
N942 N 0.15051 0.52624 0.54005 0.0
C943 C 0.15974 0.52504 0.46775 0.0
C944 C 0.94906 0.72489 0.94795 0.0
C945 C 0.96813 0.71554 1.00585 0.0
H946 H 0.93355 0.76157 0.88103 0.0
C947 C 0.98358 0.73698 0.04724 0.0
H948 H 0.93679 0.7088 0.91551 0.0
C949 C 0.98147 0.767 0.02848 0.0
C950 C 0.96413 0.77632 0.96718 0.0
H951 H 0.99799 0.73048 0.09325 0.0
H952 H 0.99467 0.78268 0.05989 0.0
C953 C 0.94722 0.75507 0.92842 0.0
C954 C 0.72532 0.94885 0.55662 0.0
C955 C 0.71624 0.96838 0.4994 0.0
H956 H 0.76184 0.93215 0.62227 0.0
C957 C 0.7379 0.98337 0.45769 0.0
H958 H 0.70905 0.9369 0.58925 0.0
C959 C 0.76792 0.98038 0.47554 0.0
C960 C 0.77704 0.9626 0.53627 0.0
H961 H 0.7316 0.9981 0.41215 0.0
H962 H 0.7838 0.99326 0.44394 0.0
C963 C 0.75552 0.94613 0.57528 0.0
C964 C 0.53366 0.7674 0.98076 0.0
C965 C 0.55204 0.77664 0.03969 0.0
H966 H 0.51516 0.73101 0.92112 0.0
C967 C 0.5685 0.75496 0.07975 0.0
H968 H 0.5207 0.78333 0.94846 0.0
C969 C 0.56534 0.72462 0.0637 0.0
C970 C 0.54536 0.71549 0.00806 0.0
H971 H 0.58289 0.76129 0.12552 0.0
H972 H 0.57741 0.70834 0.09704 0.0
C973 C 0.53024 0.73727 0.96553 0.0
C974 C 0.72149 0.56452 0.45297 0.0
C975 C 0.71355 0.5456 0.51207 0.0
H976 H 0.75684 0.58114 0.38504 0.0
C977 C 0.73617 0.53168 0.55434 0.0
H978 H 0.70453 0.57563 0.4197 0.0
C979 C 0.76594 0.53511 0.5355 0.0
C980 C 0.77396 0.55229 0.47318 0.0
H981 H 0.73083 0.51743 0.60124 0.0
H982 H 0.78254 0.52303 0.56782 0.0
C983 C 0.75146 0.56769 0.43336 0.0
C984 C 0.05039 0.27636 0.06258 0.0
C985 C 0.03024 0.286 0.00732 0.0
H986 H 0.06778 0.23921 0.12482 0.0
C987 C 0.01468 0.26475 0.9656 0.0
H988 H 0.0628 0.29231 0.09513 0.0
C989 C 0.01781 0.23456 0.98149 0.0
C990 C 0.03631 0.22486 0.04026 0.0
H991 H 0.99946 0.27148 0.92148 0.0
H992 H 0.00452 0.21899 0.95 0.0
C993 C 0.05325 0.24599 0.0793 0.0
C994 C 0.27684 0.05353 0.44061 0.0
C995 C 0.28672 0.03387 0.4967 0.0
H996 H 0.23951 0.06991 0.37737 0.0
C997 C 0.26566 0.01823 0.53891 0.0
H998 H 0.29262 0.06597 0.40764 0.0
C999 C 0.23546 0.02075 0.52264 0.0
C1000 C 0.22555 0.03869 0.46303 0.0
H1001 H 0.27258 0.00339 0.58367 0.0
H1002 H 0.22007 0.00739 0.55454 0.0
C1003 C 0.24646 0.05578 0.42353 0.0
C1004 C 0.44688 0.23944 0.94742 0.0
C1005 C 0.45129 0.22017 0.00891 0.0
H1006 H 0.44543 0.28471 0.9079 0.0
C1007 C 0.45489 0.23236 0.08006 0.0
H1008 H 0.44428 0.23056 0.89181 0.0
C1009 C 0.45637 0.26319 0.08872 0.0
C1010 C 0.45335 0.2824 0.0268 0.0
H1011 H 0.45875 0.21811 0.12817 0.0
H1012 H 0.4611 0.27205 0.14352 0.0
C1013 C 0.44747 0.27036 0.95648 0.0
C1014 C 0.2754 0.43537 0.57171 0.0
C1015 C 0.28411 0.45448 0.51375 0.0
H1016 H 0.23923 0.41892 0.63709 0.0
C1017 C 0.26207 0.46894 0.47071 0.0
H1018 H 0.29192 0.42384 0.6055 0.0
C1019 C 0.23208 0.46586 0.48777 0.0
C1020 C 0.22329 0.44848 0.54905 0.0
H1021 H 0.26801 0.48334 0.42458 0.0
H1022 H 0.21594 0.47835 0.45499 0.0
C1023 C 0.24522 0.43254 0.58955 0.0
C1024 C 0.06941 0.56409 0.80114 0.0
C1025 C 0.04025 0.55807 0.8236 0.0
H1026 H 0.10388 0.55567 0.72314 0.0
C1027 C 0.02246 0.54008 0.77748 0.0
H1028 H 0.08374 0.578 0.83463 0.0
C1029 C 0.03409 0.52709 0.71278 0.0
C1030 C 0.0637 0.53211 0.69215 0.0
H1031 H 0.99977 0.5354 0.7927 0.0
H1032 H 0.0203 0.51227 0.68047 0.0
C1033 C 0.08094 0.55128 0.73661 0.0
C1034 C 0.97291 0.0318 0.20519 0.0
C1035 C 0.96328 0.05987 0.17965 0.0
H1036 H 0.96942 0.99802 0.28999 0.0
C1037 C 0.94095 0.07461 0.22013 0.0
H1038 H 0.99026 0.02 0.17609 0.0
C1039 C 0.92951 0.06235 0.28577 0.0
C1040 C 0.94003 0.03491 0.31311 0.0
H1041 H 0.93296 0.09629 0.20261 0.0
H1042 H 0.913 0.07485 0.31617 0.0
C1043 C 0.96122 0.01939 0.27083 0.0
C1044 C 0.48694 0.96152 0.76956 0.0
C1045 C 0.47363 0.93828 0.81034 0.0
H1046 H 0.48369 0.9914 0.67532 0.0
C1047 C 0.44813 0.92493 0.7806 0.0
H1048 H 0.50684 0.97195 0.79063 0.0
C1049 C 0.43543 0.93549 0.71408 0.0
C1050 C 0.44764 0.95987 0.67528 0.0
H1051 H 0.43746 0.90674 0.80963 0.0
H1052 H 0.41522 0.92517 0.69459 0.0
C1053 C 0.47395 0.97241 0.70309 0.0
C1054 C 0.5606 0.4251 0.23566 0.0
C1055 C 0.53734 0.43933 0.1959 0.0
H1056 H 0.58946 0.42493 0.33104 0.0
C1057 C 0.52718 0.46697 0.2216 0.0
H1058 H 0.56912 0.40385 0.2178 0.0
C1059 C 0.53921 0.4793 0.28708 0.0
C1060 C 0.5612 0.46403 0.32901 0.0
H1061 H 0.50914 0.47839 0.19305 0.0
H1062 H 0.53059 0.50029 0.30647 0.0
C1063 C 0.57227 0.43716 0.30117 0.0
C1064 C 0.03344 0.97203 0.29876 0.0
C1065 C 0.06171 0.96287 0.32386 0.0
H1066 H 0.99957 0.96804 0.21439 0.0
C1067 C 0.07675 0.94084 0.28301 0.0
H1068 H 0.02139 0.98913 0.32814 0.0
C1069 C 0.06456 0.92925 0.21746 0.0
C1070 C 0.03691 0.93931 0.19055 0.0
H1071 H 0.0986 0.93322 0.30018 0.0
H1072 H 0.07729 0.91299 0.18678 0.0
C1073 C 0.02111 0.96019 0.23318 0.0
C1074 C 0.52796 0.03723 0.79199 0.0
C1075 C 0.53486 0.06618 0.81496 0.0
H1076 H 0.53458 0.00334 0.70984 0.0
C1077 C 0.5557 0.08242 0.77301 0.0
H1078 H 0.51185 0.02422 0.82235 0.0
C1079 C 0.56808 0.07084 0.70811 0.0
C1080 C 0.56013 0.04252 0.68301 0.0
H1081 H 0.56168 0.10476 0.78863 0.0
H1082 H 0.58326 0.08452 0.67647 0.0
C1083 C 0.54067 0.02546 0.72706 0.0
C1084 C 0.46761 0.52765 0.30834 0.0
C1085 C 0.43964 0.53728 0.33292 0.0
H1086 H 0.50129 0.53143 0.22449 0.0
C1087 C 0.42497 0.55987 0.29168 0.0
H1088 H 0.47932 0.51007 0.33799 0.0
C1089 C 0.43712 0.57157 0.22628 0.0
C1090 C 0.46447 0.56116 0.19992 0.0
H1091 H 0.40339 0.56791 0.30837 0.0
H1092 H 0.42462 0.5883 0.19542 0.0
C1093 C 0.48 0.53966 0.24291 0.0
C1094 C 0.96923 0.47336 0.80229 0.0
C1095 C 0.95637 0.44727 0.8306 0.0
H1096 H 0.96899 0.50612 0.71436 0.0
C1097 C 0.93163 0.43544 0.79257 0.0
H1098 H 0.98847 0.48286 0.8295 0.0
C1099 C 0.92109 0.44819 0.7261 0.0
C1100 C 0.9348 0.47337 0.69567 0.0
H1101 H 0.92103 0.41546 0.81258 0.0
H1102 H 0.90264 0.43775 0.69757 0.0
C1103 C 0.95832 0.48643 0.7359 0.0
C1104 C 0.92779 0.43762 0.21655 0.0
C1105 C 0.95699 0.44353 0.19422 0.0
H1106 H 0.89329 0.4462 0.29435 0.0
C1107 C 0.97481 0.46147 0.24038 0.0
H1108 H 0.91343 0.42376 0.183 0.0
C1109 C 0.96319 0.47451 0.30501 0.0
C1110 C 0.93354 0.46959 0.32552 0.0
H1111 H 0.99754 0.46607 0.22528 0.0
H1112 H 0.97702 0.48927 0.33739 0.0
C1113 C 0.91625 0.45049 0.28098 0.0
C1114 C 0.02976 0.96843 0.79841 0.0
C1115 C 0.03924 0.94031 0.82394 0.0
H1116 H 0.0335 0.00226 0.71381 0.0
C1117 C 0.06155 0.9255 0.78357 0.0
H1118 H 0.01243 0.9803 0.8274 0.0
C1119 C 0.07316 0.93776 0.71811 0.0
C1120 C 0.06282 0.96527 0.69079 0.0
H1121 H 0.06941 0.90376 0.80108 0.0
H1122 H 0.08966 0.9252 0.68781 0.0
C1123 C 0.0416 0.98085 0.73292 0.0
C1124 C 0.56888 0.07018 0.28244 0.0
C1125 C 0.55676 0.04512 0.31854 0.0
H1126 H 0.56694 0.1004 0.18975 0.0
C1127 C 0.53067 0.03277 0.28883 0.0
H1128 H 0.58889 0.08038 0.30354 0.0
C1129 C 0.51782 0.04456 0.22309 0.0
C1130 C 0.53106 0.06859 0.18491 0.0
H1131 H 0.52101 0.01327 0.31445 0.0
H1132 H 0.49815 0.03415 0.20053 0.0
C1133 C 0.55632 0.08167 0.21667 0.0
C1134 C 0.42704 0.56128 0.72901 0.0
C1135 C 0.43785 0.5343 0.70129 0.0
H1136 H 0.43049 0.59461 0.81218 0.0
C1137 C 0.45975 0.51887 0.74317 0.0
H1138 H 0.40995 0.57365 0.69912 0.0
C1139 C 0.4719 0.53113 0.80858 0.0
C1140 C 0.46193 0.55885 0.83429 0.0
H1141 H 0.46821 0.49779 0.72388 0.0
H1142 H 0.48982 0.51955 0.83719 0.0
C1143 C 0.43883 0.57328 0.79444 0.0
C1144 C 0.96915 0.02823 0.70518 0.0
C1145 C 0.94089 0.03737 0.67993 0.0
H1146 H 0.00299 0.03231 0.78955 0.0
C1147 C 0.92583 0.05944 0.72057 0.0
H1148 H 0.98121 0.01109 0.67596 0.0
C1149 C 0.93799 0.07112 0.78603 0.0
C1150 C 0.96565 0.0611 0.81307 0.0
H1151 H 0.90399 0.06704 0.70329 0.0
H1152 H 0.92526 0.08741 0.81656 0.0
C1153 C 0.98146 0.04015 0.77067 0.0
C1154 C 0.4636 0.97872 0.2658 0.0
C1155 C 0.44463 0.96129 0.31031 0.0
H1156 H 0.49213 0.98053 0.17016 0.0
C1157 C 0.43763 0.93256 0.2862 0.0
H1158 H 0.46909 0.00112 0.28223 0.0
C1159 C 0.45038 0.92103 0.22164 0.0
C1160 C 0.47049 0.93783 0.17882 0.0
H1161 H 0.42295 0.91854 0.3184 0.0
H1162 H 0.44517 0.8984 0.20684 0.0
C1163 C 0.47657 0.96706 0.20112 0.0
C1164 C 0.51926 0.45774 0.78761 0.0
C1165 C 0.53489 0.43601 0.8297 0.0
H1166 H 0.51972 0.4879 0.69363 0.0
C1167 C 0.56231 0.42596 0.80284 0.0
H1168 H 0.49793 0.46578 0.80636 0.0
C1169 C 0.57439 0.43818 0.73791 0.0
C1170 C 0.55956 0.46092 0.69753 0.0
H1171 H 0.57492 0.40912 0.833 0.0
H1172 H 0.59601 0.4304 0.72083 0.0
C1173 C 0.53154 0.47022 0.72258 0.0
C1174 C 0.07637 0.55331 0.29141 0.0
C1175 C 0.06271 0.52814 0.32204 0.0
H1176 H 0.07625 0.58603 0.20491 0.0
C1177 C 0.03908 0.51509 0.28213 0.0
H1178 H 0.09488 0.56374 0.31967 0.0
C1179 C 0.02803 0.52817 0.21589 0.0
C1180 C 0.04085 0.55426 0.18743 0.0
H1181 H 0.02844 0.49542 0.30382 0.0
H1182 H 0.00873 0.51868 0.18895 0.0
C1183 C 0.06568 0.56606 0.22509 0.0
C1184 C 0.89008 0.5798 0.24185 0.0
C1185 C 0.89903 0.58614 0.31492 0.0
H1186 H 0.90071 0.58359 0.1266 0.0
C1187 C 0.92055 0.60827 0.32654 0.0
H1188 H 0.87322 0.56332 0.23095 0.0
C1189 C 0.93634 0.62006 0.26664 0.0
C1190 C 0.93085 0.6097 0.19441 0.0
H1191 H 0.92735 0.61421 0.38236 0.0
H1192 H 0.95489 0.6346 0.27808 0.0
C1193 C 0.90604 0.59137 0.18194 0.0
C1194 C 0.9181 0.90016 0.68025 0.0
C1195 C 0.89795 0.92378 0.69054 0.0
H1196 H 0.94961 0.87067 0.73167 0.0
C1197 C 0.88808 0.92998 0.76265 0.0
H1198 H 0.9255 0.89431 0.62506 0.0
C1199 C 0.90208 0.91652 0.82386 0.0
C1200 C 0.92583 0.89653 0.81349 0.0
H1201 H 0.87214 0.9476 0.77237 0.0
H1202 H 0.89633 0.92406 0.87901 0.0
C1203 C 0.93189 0.88648 0.74145 0.0
C1204 C 0.58092 0.89317 0.26311 0.0
C1205 C 0.58687 0.90241 0.19005 0.0
H1206 H 0.58522 0.90341 0.37846 0.0
C1207 C 0.60888 0.92405 0.17819 0.0
H1208 H 0.56456 0.87619 0.27416 0.0
C1209 C 0.62085 0.9397 0.23805 0.0
C1210 C 0.61082 0.93393 0.31043 0.0
H1211 H 0.61455 0.93107 0.12236 0.0
H1212 H 0.63523 0.95838 0.22657 0.0
C1213 C 0.5927 0.90897 0.32298 0.0
C1214 C 0.61306 0.56946 0.77818 0.0
C1215 C 0.60358 0.57512 0.70486 0.0
H1216 H 0.6045 0.57648 0.89341 0.0
C1217 C 0.58344 0.59868 0.69133 0.0
H1218 H 0.62887 0.55184 0.79051 0.0
C1219 C 0.56949 0.61297 0.75043 0.0
C1220 C 0.57534 0.60367 0.82381 0.0
H1221 H 0.57623 0.60411 0.63523 0.0
H1222 H 0.55186 0.62875 0.73811 0.0
C1223 C 0.59893 0.58357 0.83729 0.0
C1224 C 0.07648 0.39336 0.69134 0.0
C1225 C 0.09806 0.41543 0.70315 0.0
H1226 H 0.04207 0.36709 0.73961 0.0
C1227 C 0.10708 0.42161 0.77625 0.0
H1228 H 0.06964 0.38752 0.63549 0.0
C1229 C 0.09112 0.41 0.83607 0.0
C1230 C 0.06623 0.39179 0.82345 0.0
H1231 H 0.12398 0.43804 0.78727 0.0
H1232 H 0.09651 0.41767 0.89148 0.0
C1233 C 0.06068 0.38155 0.75115 0.0
C1234 C 0.10023 0.08428 0.17986 0.0
C1235 C 0.07637 0.10413 0.19042 0.0
H1236 H 0.13023 0.05318 0.23098 0.0
C1237 C 0.07019 0.11396 0.26258 0.0
H1238 H 0.10607 0.07693 0.12462 0.0
C1239 C 0.08398 0.10018 0.32364 0.0
C1240 C 0.10424 0.07667 0.31307 0.0
H1241 H 0.05239 0.12967 0.27249 0.0
H1242 H 0.07649 0.10586 0.37887 0.0
C1243 C 0.11422 0.07071 0.24092 0.0
C1244 C 0.41049 0.09509 0.66865 0.0
C1245 C 0.39298 0.06977 0.68221 0.0
H1246 H 0.43864 0.12828 0.71564 0.0
C1247 C 0.3841 0.06355 0.75532 0.0
H1248 H 0.41709 0.10094 0.61264 0.0
C1249 C 0.39658 0.07925 0.81447 0.0
C1250 C 0.41791 0.10145 0.80124 0.0
H1251 H 0.37027 0.04454 0.76761 0.0
H1252 H 0.39175 0.07192 0.87056 0.0
C1253 C 0.42277 0.11094 0.7278 0.0
C1254 C 0.40012 0.41618 0.19249 0.0
C1255 C 0.42317 0.39553 0.20669 0.0
H1256 H 0.37041 0.44828 0.2385 0.0
C1257 C 0.42821 0.38582 0.28013 0.0
H1258 H 0.39517 0.42362 0.13629 0.0
C1259 C 0.41399 0.4001 0.33883 0.0
C1260 C 0.39444 0.4241 0.32484 0.0
H1261 H 0.44543 0.36964 0.29299 0.0
H1262 H 0.42058 0.39429 0.39516 0.0
C1263 C 0.38573 0.43029 0.25119 0.0
loop_
_geom_bond_atom_site_label_1
_geom_bond_atom_site_label_2
_geom_bond_distance
_geom_bond_site_symmetry_2
_ccdc_geom_bond_type
Co0 O2 2.143 1_655 S
Co0 O8 2.074 . S
Co0 O11 2.093 1_654 S
Co0 O24 2.097 1_655 S
Co0 N41 2.151 1_554 S
Co0 N49 2.214 . S
Co1 O2 2.160 . S
Co1 O7 2.058 1_455 S
Co1 O17 2.057 1_455 S
Co1 O32 2.037 . S
Co1 N36 2.145 . S
Co1 N57 2.257 . S
O2 Co0 2.143 1_455 S
O2 Co1 2.160 . S
C3 O4 1.278 . S
C3 O11 1.224 . S
O4 C3 1.278 . S
C5 O6 1.245 . S
C5 O17 1.232 1_556 S
O6 C5 1.245 . S
O7 Co1 2.058 1_655 S
O7 C33 1.269 . S
O8 Co0 2.074 . S
O8 C33 1.257 . S
H9 C34 0.930 . S
H10 C40 0.930 . S
O11 Co0 2.093 1_456 S
O11 C3 1.224 . S
H12 C44 0.929 . S
H13 C46 0.930 . S
H14 C47 0.930 . S
H15 C45 0.929 . S
H16 C48 0.928 . S
O17 Co1 2.057 1_655 S
O17 C5 1.232 1_554 S
H18 C37 0.929 . S
H19 C38 0.929 . S
H20 C50 0.931 . S
H21 C42 0.929 . S
H22 C51 0.930 . S
H23 C43 0.931 . S
O24 Co0 2.097 1_455 S
O24 C52 1.214 . S
H25 C53 0.929 . S
H26 C54 0.929 . S
H27 C55 0.930 . S
H28 C56 0.929 . S
H29 C58 0.930 1_556 S
H30 C35 0.930 . S
H31 C39 0.930 . S
O32 Co1 2.037 . S
O32 C52 1.234 . S
C33 O7 1.269 . S
C33 O8 1.257 . S
C34 H9 0.930 . S
C34 C37 1.388 . S
C34 C39 1.418 . S
C35 H30 0.930 . S
C35 C38 1.404 . S
C35 C39 1.353 . S
N36 Co1 2.145 . S
N36 C37 1.397 . S
N36 C38 1.334 . S
C37 H18 0.929 . S
C37 C34 1.388 . S
C37 N36 1.397 . S
C38 H19 0.929 . S
C38 C35 1.404 . S
C38 N36 1.334 . S
C39 H31 0.930 . S
C39 C34 1.418 . S
C39 C35 1.353 . S
C40 H10 0.930 . S
C40 N41 1.330 . S
C40 C42 1.446 . S
N41 Co0 2.151 1_556 S
N41 C40 1.330 . S
N41 C45 1.418 . S
C42 H21 0.929 . S
C42 C40 1.446 . S
C42 C43 1.332 . S
C43 H23 0.931 . S
C43 C42 1.332 . S
C43 C44 1.267 . S
C44 H12 0.929 . S
C44 C43 1.267 . S
C44 C45 1.251 . S
C45 H15 0.929 . S
C45 N41 1.418 . S
C45 C44 1.251 . S
C46 H13 0.930 . S
C46 C48 1.406 . S
C46 C51 1.261 1_556 S
C47 H14 0.930 . S
C47 N49 1.325 . S
C47 C50 1.357 . S
C48 H16 0.928 . S
C48 C46 1.406 . S
C48 N49 1.261 1_556 S
N49 Co0 2.214 . S
N49 C47 1.325 . S
N49 C48 1.261 1_554 S
C50 H20 0.931 . S
C50 C47 1.357 . S
C50 C51 1.312 . S
C51 H22 0.930 . S
C51 C46 1.261 1_554 S
C51 C50 1.312 . S
C52 O24 1.214 . S
C52 O32 1.234 . S
C53 H25 0.929 . S
C53 C56 1.391 1_556 S
C53 C58 1.391 1_556 S
C54 H26 0.929 . S
C54 C55 1.390 . S
C54 N57 1.391 . S
C55 H27 0.930 . S
C55 C54 1.390 . S
C55 C56 1.392 . S
C56 H28 0.929 . S
C56 C53 1.391 1_554 S
C56 C55 1.392 . S
N57 Co1 2.257 . S
N57 C54 1.391 . S
N57 C58 1.388 . S
C58 H29 0.930 1_554 S
C58 C53 1.391 1_554 S
C58 N57 1.388 . S
Co59 O61 2.143 1_565 S
Co59 O67 2.074 . S
Co59 O70 2.093 1_565 S
Co59 O83 2.097 1_565 S
Co59 N100 2.151 . S
Co59 N108 2.214 . S
Co60 O61 2.160 . S
Co60 O66 2.058 1_545 S
Co60 O76 2.057 1_545 S
Co60 O91 2.037 . S
Co60 N95 2.145 . S
Co60 N116 2.257 . S
O61 Co59 2.143 1_545 S
O61 Co60 2.160 . S
C62 O63 1.278 . S
C62 O70 1.224 . S
O63 C62 1.278 . S
C64 O65 1.245 . S
C64 O76 1.232 . S
O65 C64 1.245 . S
O66 Co60 2.058 1_565 S
O66 C92 1.269 . S
O67 Co59 2.074 . S
O67 C92 1.257 . S
H68 C93 0.930 . S
H69 C99 0.930 . S
O70 Co59 2.093 1_545 S
O70 C62 1.224 . S
H71 C103 0.929 . S
H72 C105 0.930 . S
H73 C106 0.930 . S
H74 C104 0.929 . S
H75 C107 0.928 . S
O76 Co60 2.057 1_565 S
O76 C64 1.232 . S
H77 C96 0.929 . S
H78 C97 0.929 . S
H79 C109 0.931 . S
H80 C101 0.929 . S
H81 C110 0.930 . S
H82 C102 0.931 . S
O83 Co59 2.097 1_545 S
O83 C111 1.214 . S
H84 C112 0.929 . S
H85 C113 0.929 . S
H86 C114 0.930 . S
H87 C115 0.929 . S
H88 C117 0.930 . S
H89 C94 0.930 . S
H90 C98 0.930 . S
O91 Co60 2.037 . S
O91 C111 1.234 . S
C92 O66 1.269 . S
C92 O67 1.257 . S
C93 H68 0.930 . S
C93 C96 1.388 . S
C93 C98 1.418 . S
C94 H89 0.930 . S
C94 C97 1.404 . S
C94 C98 1.353 . S
N95 Co60 2.145 . S
N95 C96 1.397 . S
N95 C97 1.334 . S
C96 H77 0.929 . S
C96 C93 1.388 . S
C96 N95 1.397 . S
C97 H78 0.929 . S
C97 C94 1.404 . S
C97 N95 1.334 . S
C98 H90 0.930 . S
C98 C93 1.418 . S
C98 C94 1.353 . S
C99 H69 0.930 . S
C99 N100 1.330 . S
C99 C101 1.446 . S
N100 Co59 2.151 . S
N100 C99 1.330 . S
N100 C104 1.418 . S
C101 H80 0.929 . S
C101 C99 1.446 . S
C101 C102 1.332 . S
C102 H82 0.931 . S
C102 C101 1.332 . S
C102 C103 1.267 . S
C103 H71 0.929 . S
C103 C102 1.267 . S
C103 C104 1.251 . S
C104 H74 0.929 . S
C104 N100 1.418 . S
C104 C103 1.251 . S
C105 H72 0.930 . S
C105 C107 1.406 1_455 S
C105 C110 1.261 . S
C106 H73 0.930 . S
C106 N108 1.325 . S
C106 C109 1.357 1_655 S
C107 H75 0.928 . S
C107 C105 1.406 1_655 S
C107 N108 1.261 . S
N108 Co59 2.214 . S
N108 C106 1.325 . S
N108 C107 1.261 . S
C109 H79 0.931 . S
C109 C106 1.357 1_455 S
C109 C110 1.312 . S
C110 H81 0.930 . S
C110 C105 1.261 . S
C110 C109 1.312 . S
C111 O83 1.214 . S
C111 O91 1.234 . S
C112 H84 0.929 . S
C112 C115 1.391 . S
C112 C117 1.391 . S
C113 H85 0.929 . S
C113 C114 1.390 . S
C113 N116 1.391 . S
C114 H86 0.930 . S
C114 C113 1.390 . S
C114 C115 1.392 . S
C115 H87 0.929 . S
C115 C112 1.391 . S
C115 C114 1.392 . S
N116 Co60 2.257 . S
N116 C113 1.391 . S
N116 C117 1.388 . S
C117 H88 0.930 . S
C117 C112 1.391 . S
C117 N116 1.388 . S
Co118 O120 2.143 . S
Co118 O126 2.074 . S
Co118 O129 2.093 1_554 S
Co118 O142 2.097 . S
Co118 N159 2.151 1_554 S
Co118 N167 2.214 . S
Co119 O120 2.160 . S
Co119 O125 2.058 . S
Co119 O135 2.057 . S
Co119 O150 2.037 . S
Co119 N154 2.145 . S
Co119 N175 2.257 . S
O120 Co118 2.143 . S
O120 Co119 2.160 . S
C121 O122 1.278 . S
C121 O129 1.224 . S
O122 C121 1.278 . S
C123 O124 1.245 1_554 S
C123 O135 1.232 . S
O124 C123 1.245 1_556 S
O125 Co119 2.058 . S
O125 C151 1.269 . S
O126 Co118 2.074 . S
O126 C151 1.257 . S
H127 C152 0.930 . S
H128 C158 0.930 . S
O129 Co118 2.093 1_556 S
O129 C121 1.224 . S
H130 C162 0.929 . S
H131 C164 0.930 . S
H132 C165 0.930 . S
H133 C163 0.929 1_554 S
H134 C166 0.928 . S
O135 Co119 2.057 . S
O135 C123 1.232 . S
H136 C155 0.929 . S
H137 C156 0.929 . S
H138 C168 0.931 . S
H139 C160 0.929 . S
H140 C169 0.930 . S
H141 C161 0.931 . S
O142 Co118 2.097 . S
O142 C170 1.214 . S
H143 C171 0.929 . S
H144 C172 0.929 . S
H145 C173 0.930 . S
H146 C174 0.929 . S
H147 C176 0.930 1_556 S
H148 C153 0.930 . S
H149 C157 0.930 . S
O150 Co119 2.037 . S
O150 C170 1.234 . S
C151 O125 1.269 . S
C151 O126 1.257 . S
C152 H127 0.930 . S
C152 C155 1.388 . S
C152 C157 1.418 . S
C153 H148 0.930 . S
C153 C156 1.404 . S
C153 C157 1.353 . S
N154 Co119 2.145 . S
N154 C155 1.397 . S
N154 C156 1.334 . S
C155 H136 0.929 . S
C155 C152 1.388 . S
C155 N154 1.397 . S
C156 H137 0.929 . S
C156 C153 1.404 . S
C156 N154 1.334 . S
C157 H149 0.930 . S
C157 C152 1.418 . S
C157 C153 1.353 . S
C158 H128 0.930 . S
C158 N159 1.330 . S
C158 C160 1.446 . S
N159 Co118 2.151 1_556 S
N159 C158 1.330 . S
N159 C163 1.418 . S
C160 H139 0.929 . S
C160 C158 1.446 . S
C160 C161 1.332 . S
C161 H141 0.931 . S
C161 C160 1.332 . S
C161 C162 1.267 . S
C162 H130 0.929 . S
C162 C161 1.267 . S
C162 C163 1.251 . S
C163 H133 0.929 1_556 S
C163 N159 1.418 . S
C163 C162 1.251 . S
C164 H131 0.930 . S
C164 C166 1.406 1_545 S
C164 C169 1.261 1_556 S
C165 H132 0.930 . S
C165 N167 1.325 . S
C165 C168 1.357 1_565 S
C166 H134 0.928 . S
C166 C164 1.406 1_565 S
C166 N167 1.261 1_556 S
N167 Co118 2.214 . S
N167 C165 1.325 . S
N167 C166 1.261 1_554 S
C168 H138 0.931 . S
C168 C165 1.357 1_545 S
C168 C169 1.312 . S
C169 H140 0.930 . S
C169 C164 1.261 1_554 S
C169 C168 1.312 . S
C170 O142 1.214 . S
C170 O150 1.234 . S
C171 H143 0.929 . S
C171 C174 1.391 1_556 S
C171 C176 1.391 1_556 S
C172 H144 0.929 . S
C172 C173 1.390 . S
C172 N175 1.391 . S
C173 H145 0.930 . S
C173 C172 1.390 . S
C173 C174 1.392 . S
C174 H146 0.929 . S
C174 C171 1.391 1_554 S
C174 C173 1.392 . S
N175 Co119 2.257 . S
N175 C172 1.391 . S
N175 C176 1.388 . S
C176 H147 0.930 1_554 S
C176 C171 1.391 1_554 S
C176 N175 1.388 . S
Co177 O179 2.143 . S
Co177 O185 2.074 . S
Co177 O188 2.093 . S
Co177 O201 2.097 . S
Co177 N218 2.151 . S
Co177 N226 2.214 . S
Co178 O179 2.160 . S
Co178 O184 2.058 . S
Co178 O194 2.057 . S
Co178 O209 2.037 . S
Co178 N213 2.145 . S
Co178 N234 2.257 . S
O179 Co177 2.143 . S
O179 Co178 2.160 . S
C180 O181 1.278 . S
C180 O188 1.224 . S
O181 C180 1.278 . S
C182 O183 1.245 . S
C182 O194 1.232 . S
O183 C182 1.245 . S
O184 Co178 2.058 . S
O184 C210 1.269 . S
O185 Co177 2.074 . S
O185 C210 1.257 . S
H186 C211 0.930 . S
H187 C217 0.930 . S
O188 Co177 2.093 . S
O188 C180 1.224 . S
H189 C221 0.929 . S
H190 C223 0.930 . S
H191 C224 0.930 . S
H192 C222 0.929 . S
H193 C225 0.928 . S
O194 Co178 2.057 . S
O194 C182 1.232 . S
H195 C214 0.929 . S
H196 C215 0.929 . S
H197 C227 0.931 . S
H198 C219 0.929 . S
H199 C228 0.930 . S
H200 C220 0.931 . S
O201 Co177 2.097 . S
O201 C229 1.214 . S
H202 C230 0.929 . S
H203 C231 0.929 . S
H204 C232 0.930 . S
H205 C233 0.929 . S
H206 C235 0.930 . S
H207 C212 0.930 . S
H208 C216 0.930 . S
O209 Co178 2.037 . S
O209 C229 1.234 . S
C210 O184 1.269 . S
C210 O185 1.257 . S
C211 H186 0.930 . S
C211 C214 1.388 . S
C211 C216 1.418 . S
C212 H207 0.930 . S
C212 C215 1.404 . S
C212 C216 1.353 . S
N213 Co178 2.145 . S
N213 C214 1.397 . S
N213 C215 1.334 . S
C214 H195 0.929 . S
C214 C211 1.388 . S
C214 N213 1.397 . S
C215 H196 0.929 . S
C215 C212 1.404 . S
C215 N213 1.334 . S
C216 H208 0.930 . S
C216 C211 1.418 . S
C216 C212 1.353 . S
C217 H187 0.930 . S
C217 N218 1.330 . S
C217 C219 1.446 . S
N218 Co177 2.151 . S
N218 C217 1.330 . S
N218 C222 1.418 . S
C219 H198 0.929 . S
C219 C217 1.446 . S
C219 C220 1.332 . S
C220 H200 0.931 . S
C220 C219 1.332 . S
C220 C221 1.267 . S
C221 H189 0.929 . S
C221 C220 1.267 . S
C221 C222 1.251 . S
C222 H192 0.929 . S
C222 N218 1.418 . S
C222 C221 1.251 . S
C223 H190 0.930 . S
C223 C225 1.406 . S
C223 C228 1.261 . S
C224 H191 0.930 . S
C224 N226 1.325 . S
C224 C227 1.357 . S
C225 H193 0.928 . S
C225 C223 1.406 . S
C225 N226 1.261 . S
N226 Co177 2.214 . S
N226 C224 1.325 . S
N226 C225 1.261 . S
C227 H197 0.931 . S
C227 C224 1.357 . S
C227 C228 1.312 . S
C228 H199 0.930 . S
C228 C223 1.261 . S
C228 C227 1.312 . S
C229 O201 1.214 . S
C229 O209 1.234 . S
C230 H202 0.929 . S
C230 C233 1.391 . S
C230 C235 1.391 . S
C231 H203 0.929 . S
C231 C232 1.390 . S
C231 N234 1.391 . S
C232 H204 0.930 . S
C232 C231 1.390 . S
C232 C233 1.392 . S
C233 H205 0.929 . S
C233 C230 1.391 . S
C233 C232 1.392 . S
N234 Co178 2.257 . S
N234 C231 1.391 . S
N234 C235 1.388 . S
C235 H206 0.930 . S
C235 C230 1.391 . S
C235 N234 1.388 . S
Co236 O238 2.143 1_655 S
Co236 O244 2.074 . S
Co236 O247 2.093 1_656 S
Co236 O260 2.097 1_655 S
Co236 N277 2.151 1_556 S
Co236 N285 2.214 . S
Co237 O238 2.160 . S
Co237 O243 2.058 1_455 S
Co237 O253 2.057 1_455 S
Co237 O268 2.037 . S
Co237 N272 2.145 . S
Co237 N293 2.257 . S
O238 Co236 2.143 1_455 S
O238 Co237 2.160 . S
C239 O240 1.278 . S
C239 O247 1.224 . S
O240 C239 1.278 . S
C241 O242 1.245 1_556 S
C241 O253 1.232 . S
O242 C241 1.245 1_554 S
O243 Co237 2.058 1_655 S
O243 C269 1.269 . S
O244 Co236 2.074 . S
O244 C269 1.257 . S
H245 C270 0.930 . S
H246 C276 0.930 . S
O247 Co236 2.093 1_454 S
O247 C239 1.224 . S
H248 C280 0.929 . S
H249 C282 0.930 1_554 S
H250 C283 0.930 . S
H251 C281 0.929 1_556 S
H252 C284 0.928 . S
O253 Co237 2.057 1_655 S
O253 C241 1.232 . S
H254 C273 0.929 . S
H255 C274 0.929 . S
H256 C286 0.931 . S
H257 C278 0.929 . S
H258 C287 0.930 . S
H259 C279 0.931 . S
O260 Co236 2.097 1_455 S
O260 C288 1.214 . S
H261 C289 0.929 1_554 S
H262 C290 0.929 . S
H263 C291 0.930 . S
H264 C292 0.929 . S
H265 C294 0.930 1_554 S
H266 C271 0.930 . S
H267 C275 0.930 . S
O268 Co237 2.037 . S
O268 C288 1.234 . S
C269 O243 1.269 . S
C269 O244 1.257 . S
C270 H245 0.930 . S
C270 C273 1.388 . S
C270 C275 1.418 . S
C271 H266 0.930 . S
C271 C274 1.404 . S
C271 C275 1.353 . S
N272 Co237 2.145 . S
N272 C273 1.397 . S
N272 C274 1.334 . S
C273 H254 0.929 . S
C273 C270 1.388 . S
C273 N272 1.397 . S
C274 H255 0.929 . S
C274 C271 1.404 . S
C274 N272 1.334 . S
C275 H267 0.930 . S
C275 C270 1.418 . S
C275 C271 1.353 . S
C276 H246 0.930 . S
C276 N277 1.330 . S
C276 C278 1.446 . S
N277 Co236 2.151 1_554 S
N277 C276 1.330 . S
N277 C281 1.418 . S
C278 H257 0.929 . S
C278 C276 1.446 . S
C278 C279 1.332 . S
C279 H259 0.931 . S
C279 C278 1.332 . S
C279 C280 1.267 . S
C280 H248 0.929 . S
C280 C279 1.267 . S
C280 C281 1.251 . S
C281 H251 0.929 1_554 S
C281 N277 1.418 . S
C281 C280 1.251 . S
C282 H249 0.930 1_556 S
C282 C284 1.406 1_546 S
C282 C287 1.261 . S
C283 H250 0.930 . S
C283 N285 1.325 . S
C283 C286 1.357 1_565 S
C284 H252 0.928 . S
C284 C282 1.406 1_564 S
C284 N285 1.261 1_554 S
N285 Co236 2.214 . S
N285 C283 1.325 . S
N285 C284 1.261 1_556 S
C286 H256 0.931 . S
C286 C283 1.357 1_545 S
C286 C287 1.312 . S
C287 H258 0.930 . S
C287 C282 1.261 . S
C287 C286 1.312 . S
C288 O260 1.214 . S
C288 O268 1.234 . S
C289 H261 0.929 1_556 S
C289 C292 1.391 . S
C289 C294 1.391 . S
C290 H262 0.929 . S
C290 C291 1.390 . S
C290 N293 1.391 . S
C291 H263 0.930 . S
C291 C290 1.390 . S
C291 C292 1.392 . S
C292 H264 0.929 . S
C292 C289 1.391 . S
C292 C291 1.392 . S
N293 Co237 2.257 . S
N293 C290 1.391 . S
N293 C294 1.388 . S
C294 H265 0.930 1_556 S
C294 C289 1.391 . S
C294 N293 1.388 . S
Co295 O297 2.143 1_565 S
Co295 O303 2.074 . S
Co295 O306 2.093 1_565 S
Co295 O319 2.097 1_565 S
Co295 N336 2.151 . S
Co295 N344 2.214 . S
Co296 O297 2.160 . S
Co296 O302 2.058 1_545 S
Co296 O312 2.057 1_545 S
Co296 O327 2.037 . S
Co296 N331 2.145 . S
Co296 N352 2.257 . S
O297 Co295 2.143 1_545 S
O297 Co296 2.160 . S
C298 O299 1.278 . S
C298 O306 1.224 . S
O299 C298 1.278 . S
C300 O301 1.245 . S
C300 O312 1.232 . S
O301 C300 1.245 . S
O302 Co296 2.058 1_565 S
O302 C328 1.269 . S
O303 Co295 2.074 . S
O303 C328 1.257 . S
H304 C329 0.930 . S
H305 C335 0.930 . S
O306 Co295 2.093 1_545 S
O306 C298 1.224 . S
H307 C339 0.929 . S
H308 C341 0.930 . S
H309 C342 0.930 . S
H310 C340 0.929 . S
H311 C343 0.928 . S
O312 Co296 2.057 1_565 S
O312 C300 1.232 . S
H313 C332 0.929 . S
H314 C333 0.929 . S
H315 C345 0.931 . S
H316 C337 0.929 . S
H317 C346 0.930 . S
H318 C338 0.931 . S
O319 Co295 2.097 1_545 S
O319 C347 1.214 . S
H320 C348 0.929 . S
H321 C349 0.929 . S
H322 C350 0.930 . S
H323 C351 0.929 . S
H324 C353 0.930 . S
H325 C330 0.930 . S
H326 C334 0.930 . S
O327 Co296 2.037 . S
O327 C347 1.234 . S
C328 O302 1.269 . S
C328 O303 1.257 . S
C329 H304 0.930 . S
C329 C332 1.388 . S
C329 C334 1.418 . S
C330 H325 0.930 . S
C330 C333 1.404 . S
C330 C334 1.353 . S
N331 Co296 2.145 . S
N331 C332 1.397 . S
N331 C333 1.334 . S
C332 H313 0.929 . S
C332 C329 1.388 . S
C332 N331 1.397 . S
C333 H314 0.929 . S
C333 C330 1.404 . S
C333 N331 1.334 . S
C334 H326 0.930 . S
C334 C329 1.418 . S
C334 C330 1.353 . S
C335 H305 0.930 . S
C335 N336 1.330 . S
C335 C337 1.446 . S
N336 Co295 2.151 . S
N336 C335 1.330 . S
N336 C340 1.418 . S
C337 H316 0.929 . S
C337 C335 1.446 . S
C337 C338 1.332 . S
C338 H318 0.931 . S
C338 C337 1.332 . S
C338 C339 1.267 . S
C339 H307 0.929 . S
C339 C338 1.267 . S
C339 C340 1.251 . S
C340 H310 0.929 . S
C340 N336 1.418 . S
C340 C339 1.251 . S
C341 H308 0.930 . S
C341 C343 1.406 . S
C341 C346 1.261 . S
C342 H309 0.930 . S
C342 N344 1.325 . S
C342 C345 1.357 . S
C343 H311 0.928 . S
C343 C341 1.406 . S
C343 N344 1.261 . S
N344 Co295 2.214 . S
N344 C342 1.325 . S
N344 C343 1.261 . S
C345 H315 0.931 . S
C345 C342 1.357 . S
C345 C346 1.312 . S
C346 H317 0.930 . S
C346 C341 1.261 . S
C346 C345 1.312 . S
C347 O319 1.214 . S
C347 O327 1.234 . S
C348 H320 0.929 . S
C348 C351 1.391 . S
C348 C353 1.391 . S
C349 H321 0.929 . S
C349 C350 1.390 . S
C349 N352 1.391 . S
C350 H322 0.930 . S
C350 C349 1.390 . S
C350 C351 1.392 . S
C351 H323 0.929 . S
C351 C348 1.391 . S
C351 C350 1.392 . S
N352 Co296 2.257 . S
N352 C349 1.391 . S
N352 C353 1.388 . S
C353 H324 0.930 . S
C353 C348 1.391 . S
C353 N352 1.388 . S
Co354 O356 2.143 . S
Co354 O362 2.074 1_554 S
Co354 O365 2.093 . S
Co354 O378 2.097 1_554 S
Co354 N395 2.151 . S
Co354 N403 2.214 1_554 S
Co355 O356 2.160 1_556 S
Co355 O361 2.058 . S
Co355 O371 2.057 . S
Co355 O386 2.037 . S
Co355 N390 2.145 . S
Co355 N411 2.257 . S
O356 Co354 2.143 . S
O356 Co355 2.160 1_554 S
C357 O358 1.278 . S
C357 O365 1.224 . S
O358 C357 1.278 . S
C359 O360 1.245 . S
C359 O371 1.232 1_554 S
O360 C359 1.245 . S
O361 Co355 2.058 . S
O361 C387 1.269 . S
O362 Co354 2.074 1_556 S
O362 C387 1.257 . S
H363 C388 0.930 . S
H364 C394 0.930 . S
O365 Co354 2.093 . S
O365 C357 1.224 . S
H366 C398 0.929 . S
H367 C400 0.930 . S
H368 C401 0.930 . S
H369 C399 0.929 . S
H370 C402 0.928 . S
O371 Co355 2.057 . S
O371 C359 1.232 1_556 S
H372 C391 0.929 . S
H373 C392 0.929 . S
H374 C404 0.931 . S
H375 C396 0.929 . S
H376 C405 0.930 . S
H377 C397 0.931 . S
O378 Co354 2.097 1_556 S
O378 C406 1.214 . S
H379 C407 0.929 . S
H380 C408 0.929 . S
H381 C409 0.930 . S
H382 C410 0.924 1_554 S
H383 C412 0.930 . S
H384 C389 0.930 . S
H385 C393 0.930 . S
O386 Co355 2.037 . S
O386 C406 1.234 . S
C387 O361 1.269 . S
C387 O362 1.257 . S
C388 H363 0.930 . S
C388 C391 1.388 . S
C388 C393 1.418 . S
C389 H384 0.930 . S
C389 C392 1.404 . S
C389 C393 1.353 . S
N390 Co355 2.145 . S
N390 C391 1.397 . S
N390 C392 1.334 . S
C391 H372 0.929 . S
C391 C388 1.388 . S
C391 N390 1.397 . S
C392 H373 0.929 . S
C392 C389 1.404 . S
C392 N390 1.334 . S
C393 H385 0.930 . S
C393 C388 1.418 . S
C393 C389 1.353 . S
C394 H364 0.930 . S
C394 N395 1.330 . S
C394 C396 1.446 . S
N395 Co354 2.151 . S
N395 C394 1.330 . S
N395 C399 1.418 . S
C396 H375 0.929 . S
C396 C394 1.446 . S
C396 C397 1.332 . S
C397 H377 0.931 . S
C397 C396 1.332 . S
C397 C398 1.267 . S
C398 H366 0.929 . S
C398 C397 1.267 . S
C398 C399 1.251 . S
C399 H369 0.929 . S
C399 N395 1.418 . S
C399 C398 1.251 . S
C400 H367 0.930 . S
C400 C402 1.406 . S
C400 C405 1.261 1_554 S
C401 H368 0.930 . S
C401 N403 1.325 . S
C401 C404 1.357 . S
C402 H370 0.928 . S
C402 C400 1.406 . S
C402 N403 1.261 1_554 S
N403 Co354 2.214 1_556 S
N403 C401 1.325 . S
N403 C402 1.261 1_556 S
C404 H374 0.931 . S
C404 C401 1.357 . S
C404 C405 1.312 . S
C405 H376 0.930 . S
C405 C400 1.261 1_556 S
C405 C404 1.312 . S
C406 O378 1.214 . S
C406 O386 1.234 . S
C407 H379 0.929 . S
C407 C410 1.382 1_554 S
C407 C412 1.391 . S
C408 H380 0.929 . S
C408 C409 1.390 . S
C408 N411 1.391 . S
C409 H381 0.930 . S
C409 C408 1.390 . S
C409 C410 1.406 . S
C410 H382 0.924 1_556 S
C410 C407 1.382 1_556 S
C410 C409 1.406 . S
N411 Co355 2.257 . S
N411 C408 1.391 . S
N411 C412 1.388 1_556 S
C412 H383 0.930 . S
C412 C407 1.391 . S
C412 N411 1.388 1_554 S
Co413 O415 2.143 . S
Co413 O421 2.074 . S
Co413 O424 2.093 . S
Co413 O437 2.097 . S
Co413 N454 2.151 . S
Co413 N462 2.214 . S
Co414 O415 2.160 . S
Co414 O420 2.058 . S
Co414 O430 2.057 . S
Co414 O445 2.037 . S
Co414 N449 2.145 . S
Co414 N470 2.257 . S
O415 Co413 2.143 . S
O415 Co414 2.160 . S
C416 O417 1.278 . S
C416 O424 1.224 . S
O417 C416 1.278 . S
C418 O419 1.245 . S
C418 O430 1.232 . S
O419 C418 1.245 . S
O420 Co414 2.058 . S
O420 C446 1.269 . S
O421 Co413 2.074 . S
O421 C446 1.257 . S
H422 C447 0.930 . S
H423 C453 0.930 . S
O424 Co413 2.093 . S
O424 C416 1.224 . S
H425 C457 0.929 . S
H426 C459 0.930 . S
H427 C460 0.930 . S
H428 C458 0.929 . S
H429 C461 0.928 . S
O430 Co414 2.057 . S
O430 C418 1.232 . S
H431 C450 0.929 . S
H432 C451 0.929 . S
H433 C463 0.931 . S
H434 C455 0.929 . S
H435 C464 0.930 . S
H436 C456 0.931 . S
O437 Co413 2.097 . S
O437 C465 1.214 . S
H438 C466 0.929 . S
H439 C467 0.929 . S
H440 C468 0.930 . S
H441 C469 0.929 . S
H442 C471 0.930 . S
H443 C448 0.930 . S
H444 C452 0.930 . S
O445 Co414 2.037 . S
O445 C465 1.234 . S
C446 O420 1.269 . S
C446 O421 1.257 . S
C447 H422 0.930 . S
C447 C450 1.388 . S
C447 C452 1.418 . S
C448 H443 0.930 . S
C448 C451 1.404 . S
C448 C452 1.353 . S
N449 Co414 2.145 . S
N449 C450 1.397 . S
N449 C451 1.334 . S
C450 H431 0.929 . S
C450 C447 1.388 . S
C450 N449 1.397 . S
C451 H432 0.929 . S
C451 C448 1.404 . S
C451 N449 1.334 . S
C452 H444 0.930 . S
C452 C447 1.418 . S
C452 C448 1.353 . S
C453 H423 0.930 . S
C453 N454 1.330 . S
C453 C455 1.446 . S
N454 Co413 2.151 . S
N454 C453 1.330 . S
N454 C458 1.418 . S
C455 H434 0.929 . S
C455 C453 1.446 . S
C455 C456 1.332 . S
C456 H436 0.931 . S
C456 C455 1.332 . S
C456 C457 1.267 . S
C457 H425 0.929 . S
C457 C456 1.267 . S
C457 C458 1.251 . S
C458 H428 0.929 . S
C458 N454 1.418 . S
C458 C457 1.251 . S
C459 H426 0.930 . S
C459 C461 1.406 1_455 S
C459 C464 1.261 . S
C460 H427 0.930 . S
C460 N462 1.325 . S
C460 C463 1.357 1_655 S
C461 H429 0.928 . S
C461 C459 1.406 1_655 S
C461 N462 1.261 . S
N462 Co413 2.214 . S
N462 C460 1.325 . S
N462 C461 1.261 . S
C463 H433 0.931 . S
C463 C460 1.357 1_455 S
C463 C464 1.312 . S
C464 H435 0.930 . S
C464 C459 1.261 . S
C464 C463 1.312 . S
C465 O437 1.214 . S
C465 O445 1.234 . S
C466 H438 0.929 . S
C466 C469 1.391 . S
C466 C471 1.391 . S
C467 H439 0.929 . S
C467 C468 1.390 . S
C467 N470 1.391 . S
C468 H440 0.930 . S
C468 C467 1.390 . S
C468 C469 1.392 . S
C469 H441 0.929 . S
C469 C466 1.391 . S
C469 C468 1.392 . S
N470 Co414 2.257 . S
N470 C467 1.391 . S
N470 C471 1.388 . S
C471 H442 0.930 . S
C471 C466 1.391 . S
C471 N470 1.388 . S
Co472 O474 2.143 1_455 S
Co472 O480 2.074 . S
Co472 O483 2.093 1_456 S
Co472 O496 2.097 1_455 S
Co472 N513 2.151 1_556 S
Co472 N521 2.214 . S
Co473 O474 2.160 . S
Co473 O479 2.058 1_655 S
Co473 O489 2.057 1_655 S
Co473 O504 2.037 . S
Co473 N508 2.145 . S
Co473 N529 2.257 . S
O474 Co472 2.143 1_655 S
O474 Co473 2.160 . S
C475 O476 1.278 . S
C475 O483 1.224 . S
O476 C475 1.278 . S
C477 O478 1.245 . S
C477 O489 1.232 1_554 S
O478 C477 1.245 . S
O479 Co473 2.058 1_455 S
O479 C505 1.269 . S
O480 Co472 2.074 . S
O480 C505 1.257 . S
H481 C506 0.930 . S
H482 C512 0.930 . S
O483 Co472 2.093 1_654 S
O483 C475 1.224 . S
H484 C516 0.929 . S
H485 C518 0.930 . S
H486 C519 0.930 . S
H487 C517 0.929 . S
H488 C520 0.928 . S
O489 Co473 2.057 1_455 S
O489 C477 1.232 1_556 S
H490 C509 0.929 . S
H491 C510 0.929 . S
H492 C522 0.931 . S
H493 C514 0.929 . S
H494 C523 0.930 . S
H495 C515 0.931 . S
O496 Co472 2.097 1_655 S
O496 C524 1.214 . S
H497 C525 0.929 . S
H498 C526 0.929 . S
H499 C527 0.930 . S
H500 C528 0.929 . S
H501 C530 0.930 1_554 S
H502 C507 0.930 . S
H503 C511 0.930 . S
O504 Co473 2.037 . S
O504 C524 1.234 . S
C505 O479 1.269 . S
C505 O480 1.257 . S
C506 H481 0.930 . S
C506 C509 1.388 . S
C506 C511 1.418 . S
C507 H502 0.930 . S
C507 C510 1.404 . S
C507 C511 1.353 . S
N508 Co473 2.145 . S
N508 C509 1.397 . S
N508 C510 1.334 . S
C509 H490 0.929 . S
C509 C506 1.388 . S
C509 N508 1.397 . S
C510 H491 0.929 . S
C510 C507 1.404 . S
C510 N508 1.334 . S
C511 H503 0.930 . S
C511 C506 1.418 . S
C511 C507 1.353 . S
C512 H482 0.930 . S
C512 N513 1.330 . S
C512 C514 1.446 . S
N513 Co472 2.151 1_554 S
N513 C512 1.330 . S
N513 C517 1.418 . S
C514 H493 0.929 . S
C514 C512 1.446 . S
C514 C515 1.332 . S
C515 H495 0.931 . S
C515 C514 1.332 . S
C515 C516 1.267 . S
C516 H484 0.929 . S
C516 C515 1.267 . S
C516 C517 1.251 . S
C517 H487 0.929 . S
C517 N513 1.418 . S
C517 C516 1.251 . S
C518 H485 0.930 . S
C518 C520 1.406 . S
C518 C523 1.261 1_554 S
C519 H486 0.930 . S
C519 N521 1.325 . S
C519 C522 1.357 . S
C520 H488 0.928 . S
C520 C518 1.406 . S
C520 N521 1.261 1_554 S
N521 Co472 2.214 . S
N521 C519 1.325 . S
N521 C520 1.261 1_556 S
C522 H492 0.931 . S
C522 C519 1.357 . S
C522 C523 1.312 . S
C523 H494 0.930 . S
C523 C518 1.261 1_556 S
C523 C522 1.312 . S
C524 O496 1.214 . S
C524 O504 1.234 . S
C525 H497 0.929 . S
C525 C528 1.391 1_554 S
C525 C530 1.391 1_554 S
C526 H498 0.929 . S
C526 C527 1.390 . S
C526 N529 1.391 . S
C527 H499 0.930 . S
C527 C526 1.390 . S
C527 C528 1.392 . S
C528 H500 0.929 . S
C528 C525 1.391 1_556 S
C528 C527 1.392 . S
N529 Co473 2.257 . S
N529 C526 1.391 . S
N529 C530 1.388 . S
C530 H501 0.930 1_556 S
C530 C525 1.391 1_556 S
C530 N529 1.388 . S
Co531 O533 2.143 1_545 S
Co531 O539 2.074 . S
Co531 O542 2.093 1_545 S
Co531 O555 2.097 1_545 S
Co531 N572 2.151 . S
Co531 N580 2.214 . S
Co532 O533 2.160 . S
Co532 O538 2.058 1_565 S
Co532 O548 2.057 1_565 S
Co532 O563 2.037 . S
Co532 N567 2.145 . S
Co532 N588 2.257 . S
O533 Co531 2.143 1_565 S
O533 Co532 2.160 . S
C534 O535 1.278 . S
C534 O542 1.224 . S
O535 C534 1.278 . S
C536 O537 1.245 . S
C536 O548 1.232 . S
O537 C536 1.245 . S
O538 Co532 2.058 1_545 S
O538 C564 1.269 . S
O539 Co531 2.074 . S
O539 C564 1.257 . S
H540 C565 0.930 . S
H541 C571 0.930 . S
O542 Co531 2.093 1_565 S
O542 C534 1.224 . S
H543 C575 0.929 . S
H544 C577 0.930 . S
H545 C578 0.930 . S
H546 C576 0.929 . S
H547 C579 0.928 . S
O548 Co532 2.057 1_545 S
O548 C536 1.232 . S
H549 C568 0.929 . S
H550 C569 0.929 . S
H551 C581 0.931 . S
H552 C573 0.929 . S
H553 C582 0.930 . S
H554 C574 0.931 . S
O555 Co531 2.097 1_565 S
O555 C583 1.214 . S
H556 C584 0.929 . S
H557 C585 0.929 . S
H558 C586 0.930 . S
H559 C587 0.929 . S
H560 C589 0.930 . S
H561 C566 0.930 . S
H562 C570 0.930 . S
O563 Co532 2.037 . S
O563 C583 1.234 . S
C564 O538 1.269 . S
C564 O539 1.257 . S
C565 H540 0.930 . S
C565 C568 1.388 . S
C565 C570 1.418 . S
C566 H561 0.930 . S
C566 C569 1.404 . S
C566 C570 1.353 . S
N567 Co532 2.145 . S
N567 C568 1.397 . S
N567 C569 1.334 . S
C568 H549 0.929 . S
C568 C565 1.388 . S
C568 N567 1.397 . S
C569 H550 0.929 . S
C569 C566 1.404 . S
C569 N567 1.334 . S
C570 H562 0.930 . S
C570 C565 1.418 . S
C570 C566 1.353 . S
C571 H541 0.930 . S
C571 N572 1.330 . S
C571 C573 1.446 . S
N572 Co531 2.151 . S
N572 C571 1.330 . S
N572 C576 1.418 . S
C573 H552 0.929 . S
C573 C571 1.446 . S
C573 C574 1.332 . S
C574 H554 0.931 . S
C574 C573 1.332 . S
C574 C575 1.267 . S
C575 H543 0.929 . S
C575 C574 1.267 . S
C575 C576 1.251 . S
C576 H546 0.929 . S
C576 N572 1.418 . S
C576 C575 1.251 . S
C577 H544 0.930 . S
C577 C579 1.406 1_655 S
C577 C582 1.261 . S
C578 H545 0.930 . S
C578 N580 1.325 . S
C578 C581 1.357 1_455 S
C579 H547 0.928 . S
C579 C577 1.406 1_455 S
C579 N580 1.261 . S
N580 Co531 2.214 . S
N580 C578 1.325 . S
N580 C579 1.261 . S
C581 H551 0.931 . S
C581 C578 1.357 1_655 S
C581 C582 1.312 . S
C582 H553 0.930 . S
C582 C577 1.261 . S
C582 C581 1.312 . S
C583 O555 1.214 . S
C583 O563 1.234 . S
C584 H556 0.929 . S
C584 C587 1.391 . S
C584 C589 1.391 . S
C585 H557 0.929 . S
C585 C586 1.390 . S
C585 N588 1.391 . S
C586 H558 0.930 . S
C586 C585 1.390 . S
C586 C587 1.392 . S
C587 H559 0.929 . S
C587 C584 1.391 . S
C587 C586 1.392 . S
N588 Co532 2.257 . S
N588 C585 1.391 . S
N588 C589 1.388 . S
C589 H560 0.930 . S
C589 C584 1.391 . S
C589 N588 1.388 . S
Co590 O592 2.143 . S
Co590 O598 2.074 . S
Co590 O601 2.093 1_556 S
Co590 O614 2.097 . S
Co590 N631 2.151 1_556 S
Co590 N639 2.214 . S
Co591 O592 2.160 . S
Co591 O597 2.058 . S
Co591 O607 2.057 . S
Co591 O622 2.037 . S
Co591 N626 2.145 . S
Co591 N647 2.257 . S
O592 Co590 2.143 . S
O592 Co591 2.160 . S
C593 O594 1.278 . S
C593 O601 1.224 . S
O594 C593 1.278 . S
C595 O596 1.245 1_556 S
C595 O607 1.232 . S
O596 C595 1.245 1_554 S
O597 Co591 2.058 . S
O597 C623 1.269 . S
O598 Co590 2.074 . S
O598 C623 1.257 . S
H599 C624 0.930 . S
H600 C630 0.930 . S
O601 Co590 2.093 1_554 S
O601 C593 1.224 . S
H602 C634 0.929 . S
H603 C636 0.930 . S
H604 C637 0.930 . S
H605 C635 0.929 1_556 S
H606 C638 0.928 . S
O607 Co591 2.057 . S
O607 C595 1.232 . S
H608 C627 0.929 . S
H609 C628 0.929 . S
H610 C640 0.931 . S
H611 C632 0.929 . S
H612 C641 0.930 . S
H613 C633 0.931 . S
O614 Co590 2.097 . S
O614 C642 1.214 . S
H615 C643 0.929 . S
H616 C644 0.929 . S
H617 C645 0.930 . S
H618 C646 0.929 . S
H619 C648 0.930 1_554 S
H620 C625 0.930 . S
H621 C629 0.930 . S
O622 Co591 2.037 . S
O622 C642 1.234 . S
C623 O597 1.269 . S
C623 O598 1.257 . S
C624 H599 0.930 . S
C624 C627 1.388 . S
C624 C629 1.418 . S
C625 H620 0.930 . S
C625 C628 1.404 . S
C625 C629 1.353 . S
N626 Co591 2.145 . S
N626 C627 1.397 . S
N626 C628 1.334 . S
C627 H608 0.929 . S
C627 C624 1.388 . S
C627 N626 1.397 . S
C628 H609 0.929 . S
C628 C625 1.404 . S
C628 N626 1.334 . S
C629 H621 0.930 . S
C629 C624 1.418 . S
C629 C625 1.353 . S
C630 H600 0.930 . S
C630 N631 1.330 . S
C630 C632 1.446 . S
N631 Co590 2.151 1_554 S
N631 C630 1.330 . S
N631 C635 1.418 . S
C632 H611 0.929 . S
C632 C630 1.446 . S
C632 C633 1.332 . S
C633 H613 0.931 . S
C633 C632 1.332 . S
C633 C634 1.267 . S
C634 H602 0.929 . S
C634 C633 1.267 . S
C634 C635 1.251 . S
C635 H605 0.929 1_554 S
C635 N631 1.418 . S
C635 C634 1.251 . S
C636 H603 0.930 . S
C636 C638 1.406 1_565 S
C636 C641 1.261 1_554 S
C637 H604 0.930 . S
C637 N639 1.325 . S
C637 C640 1.357 1_545 S
C638 H606 0.928 . S
C638 C636 1.406 1_545 S
C638 N639 1.261 1_554 S
N639 Co590 2.214 . S
N639 C637 1.325 . S
N639 C638 1.261 1_556 S
C640 H610 0.931 . S
C640 C637 1.357 1_565 S
C640 C641 1.312 . S
C641 H612 0.930 . S
C641 C636 1.261 1_556 S
C641 C640 1.312 . S
C642 O614 1.214 . S
C642 O622 1.234 . S
C643 H615 0.929 . S
C643 C646 1.391 1_554 S
C643 C648 1.391 1_554 S
C644 H616 0.929 . S
C644 C645 1.390 . S
C644 N647 1.391 . S
C645 H617 0.930 . S
C645 C644 1.390 . S
C645 C646 1.392 . S
C646 H618 0.929 . S
C646 C643 1.391 1_556 S
C646 C645 1.392 . S
N647 Co591 2.257 . S
N647 C644 1.391 . S
N647 C648 1.388 . S
C648 H619 0.930 1_556 S
C648 C643 1.391 1_556 S
C648 N647 1.388 . S
Co649 O651 2.143 . S
Co649 O657 2.074 . S
Co649 O660 2.093 . S
Co649 O673 2.097 . S
Co649 N690 2.151 . S
Co649 N698 2.214 . S
Co650 O651 2.160 . S
Co650 O656 2.058 . S
Co650 O666 2.057 . S
Co650 O681 2.037 . S
Co650 N685 2.145 . S
Co650 N706 2.257 . S
O651 Co649 2.143 . S
O651 Co650 2.160 . S
C652 O653 1.278 . S
C652 O660 1.224 . S
O653 C652 1.278 . S
C654 O655 1.245 . S
C654 O666 1.232 . S
O655 C654 1.245 . S
O656 Co650 2.058 . S
O656 C682 1.269 . S
O657 Co649 2.074 . S
O657 C682 1.257 . S
H658 C683 0.930 . S
H659 C689 0.930 . S
O660 Co649 2.093 . S
O660 C652 1.224 . S
H661 C693 0.929 . S
H662 C695 0.930 . S
H663 C696 0.930 . S
H664 C694 0.929 . S
H665 C697 0.928 . S
O666 Co650 2.057 . S
O666 C654 1.232 . S
H667 C686 0.929 . S
H668 C687 0.929 . S
H669 C699 0.931 . S
H670 C691 0.929 . S
H671 C700 0.930 . S
H672 C692 0.931 . S
O673 Co649 2.097 . S
O673 C701 1.214 . S
H674 C702 0.929 . S
H675 C703 0.929 . S
H676 C704 0.930 . S
H677 C705 0.929 . S
H678 C707 0.930 . S
H679 C684 0.930 . S
H680 C688 0.930 . S
O681 Co650 2.037 . S
O681 C701 1.234 . S
C682 O656 1.269 . S
C682 O657 1.257 . S
C683 H658 0.930 . S
C683 C686 1.388 . S
C683 C688 1.418 . S
C684 H679 0.930 . S
C684 C687 1.404 . S
C684 C688 1.353 . S
N685 Co650 2.145 . S
N685 C686 1.397 . S
N685 C687 1.334 . S
C686 H667 0.929 . S
C686 C683 1.388 . S
C686 N685 1.397 . S
C687 H668 0.929 . S
C687 C684 1.404 . S
C687 N685 1.334 . S
C688 H680 0.930 . S
C688 C683 1.418 . S
C688 C684 1.353 . S
C689 H659 0.930 . S
C689 N690 1.330 . S
C689 C691 1.446 . S
N690 Co649 2.151 . S
N690 C689 1.330 . S
N690 C694 1.418 . S
C691 H670 0.929 . S
C691 C689 1.446 . S
C691 C692 1.332 . S
C692 H672 0.931 . S
C692 C691 1.332 . S
C692 C693 1.267 . S
C693 H661 0.929 . S
C693 C692 1.267 . S
C693 C694 1.251 . S
C694 H664 0.929 . S
C694 N690 1.418 . S
C694 C693 1.251 . S
C695 H662 0.930 . S
C695 C697 1.406 . S
C695 C700 1.261 . S
C696 H663 0.930 . S
C696 N698 1.325 . S
C696 C699 1.357 . S
C697 H665 0.928 . S
C697 C695 1.406 . S
C697 N698 1.261 . S
N698 Co649 2.214 . S
N698 C696 1.325 . S
N698 C697 1.261 . S
C699 H669 0.931 . S
C699 C696 1.357 . S
C699 C700 1.312 . S
C700 H671 0.930 . S
C700 C695 1.261 . S
C700 C699 1.312 . S
C701 O673 1.214 . S
C701 O681 1.234 . S
C702 H674 0.929 . S
C702 C705 1.391 . S
C702 C707 1.391 . S
C703 H675 0.929 . S
C703 C704 1.390 . S
C703 N706 1.391 . S
C704 H676 0.930 . S
C704 C703 1.390 . S
C704 C705 1.392 . S
C705 H677 0.929 . S
C705 C702 1.391 . S
C705 C704 1.392 . S
N706 Co650 2.257 . S
N706 C703 1.391 . S
N706 C707 1.388 . S
C707 H678 0.930 . S
C707 C702 1.391 . S
C707 N706 1.388 . S
Co708 O710 2.143 1_455 S
Co708 O716 2.074 . S
Co708 O719 2.093 1_454 S
Co708 O732 2.097 1_455 S
Co708 N749 2.151 1_554 S
Co708 N757 2.214 . S
Co709 O710 2.160 . S
Co709 O715 2.058 1_655 S
Co709 O725 2.057 1_655 S
Co709 O740 2.037 . S
Co709 N744 2.145 . S
Co709 N765 2.257 . S
O710 Co708 2.143 1_655 S
O710 Co709 2.160 . S
C711 O712 1.278 . S
C711 O719 1.224 . S
O712 C711 1.278 . S
C713 O714 1.245 1_554 S
C713 O725 1.232 . S
O714 C713 1.245 1_556 S
O715 Co709 2.058 1_455 S
O715 C741 1.269 . S
O716 Co708 2.074 . S
O716 C741 1.257 . S
H717 C742 0.930 . S
H718 C748 0.930 . S
O719 Co708 2.093 1_656 S
O719 C711 1.224 . S
H720 C752 0.929 . S
H721 C754 0.930 1_556 S
H722 C755 0.930 . S
H723 C753 0.929 1_554 S
H724 C756 0.928 . S
O725 Co709 2.057 1_455 S
O725 C713 1.232 . S
H726 C745 0.929 . S
H727 C746 0.929 . S
H728 C758 0.931 . S
H729 C750 0.929 . S
H730 C759 0.930 . S
H731 C751 0.931 . S
O732 Co708 2.097 1_655 S
O732 C760 1.214 . S
H733 C761 0.929 1_556 S
H734 C762 0.929 . S
H735 C763 0.930 . S
H736 C764 0.929 . S
H737 C766 0.930 1_556 S
H738 C743 0.930 . S
H739 C747 0.930 . S
O740 Co709 2.037 . S
O740 C760 1.234 . S
C741 O715 1.269 . S
C741 O716 1.257 . S
C742 H717 0.930 . S
C742 C745 1.388 . S
C742 C747 1.418 . S
C743 H738 0.930 . S
C743 C746 1.404 . S
C743 C747 1.353 . S
N744 Co709 2.145 . S
N744 C745 1.397 . S
N744 C746 1.334 . S
C745 H726 0.929 . S
C745 C742 1.388 . S
C745 N744 1.397 . S
C746 H727 0.929 . S
C746 C743 1.404 . S
C746 N744 1.334 . S
C747 H739 0.930 . S
C747 C742 1.418 . S
C747 C743 1.353 . S
C748 H718 0.930 . S
C748 N749 1.330 . S
C748 C750 1.446 . S
N749 Co708 2.151 1_556 S
N749 C748 1.330 . S
N749 C753 1.418 . S
C750 H729 0.929 . S
C750 C748 1.446 . S
C750 C751 1.332 . S
C751 H731 0.931 . S
C751 C750 1.332 . S
C751 C752 1.267 . S
C752 H720 0.929 . S
C752 C751 1.267 . S
C752 C753 1.251 . S
C753 H723 0.929 1_556 S
C753 N749 1.418 . S
C753 C752 1.251 . S
C754 H721 0.930 1_554 S
C754 C756 1.406 1_564 S
C754 C759 1.261 . S
C755 H722 0.930 . S
C755 N757 1.325 . S
C755 C758 1.357 1_545 S
C756 H724 0.928 . S
C756 C754 1.406 1_546 S
C756 N757 1.261 1_556 S
N757 Co708 2.214 . S
N757 C755 1.325 . S
N757 C756 1.261 1_554 S
C758 H728 0.931 . S
C758 C755 1.357 1_565 S
C758 C759 1.312 . S
C759 H730 0.930 . S
C759 C754 1.261 . S
C759 C758 1.312 . S
C760 O732 1.214 . S
C760 O740 1.234 . S
C761 H733 0.929 1_554 S
C761 C764 1.391 . S
C761 C766 1.391 . S
C762 H734 0.929 . S
C762 C763 1.390 . S
C762 N765 1.391 . S
C763 H735 0.930 . S
C763 C762 1.390 . S
C763 C764 1.392 . S
C764 H736 0.929 . S
C764 C761 1.391 . S
C764 C763 1.392 . S
N765 Co709 2.257 . S
N765 C762 1.391 . S
N765 C766 1.388 . S
C766 H737 0.930 1_554 S
C766 C761 1.391 . S
C766 N765 1.388 . S
Co767 O769 2.143 1_545 S
Co767 O775 2.074 . S
Co767 O778 2.093 1_545 S
Co767 O791 2.097 1_545 S
Co767 N808 2.151 . S
Co767 N816 2.214 . S
Co768 O769 2.160 . S
Co768 O774 2.058 1_565 S
Co768 O784 2.057 1_565 S
Co768 O799 2.037 . S
Co768 N803 2.145 . S
Co768 N824 2.257 . S
O769 Co767 2.143 1_565 S
O769 Co768 2.160 . S
C770 O771 1.278 . S
C770 O778 1.224 . S
O771 C770 1.278 . S
C772 O773 1.245 . S
C772 O784 1.232 . S
O773 C772 1.245 . S
O774 Co768 2.058 1_545 S
O774 C800 1.269 . S
O775 Co767 2.074 . S
O775 C800 1.257 . S
H776 C801 0.930 . S
H777 C807 0.930 . S
O778 Co767 2.093 1_565 S
O778 C770 1.224 . S
H779 C811 0.929 . S
H780 C813 0.930 . S
H781 C814 0.930 . S
H782 C812 0.929 . S
H783 C815 0.928 . S
O784 Co768 2.057 1_545 S
O784 C772 1.232 . S
H785 C804 0.929 . S
H786 C805 0.929 . S
H787 C817 0.931 . S
H788 C809 0.929 . S
H789 C818 0.930 . S
H790 C810 0.931 . S
O791 Co767 2.097 1_565 S
O791 C819 1.214 . S
H792 C820 0.929 . S
H793 C821 0.929 . S
H794 C822 0.930 . S
H795 C823 0.929 . S
H796 C825 0.930 . S
H797 C802 0.930 . S
H798 C806 0.930 . S
O799 Co768 2.037 . S
O799 C819 1.234 . S
C800 O774 1.269 . S
C800 O775 1.257 . S
C801 H776 0.930 . S
C801 C804 1.388 . S
C801 C806 1.418 . S
C802 H797 0.930 . S
C802 C805 1.404 . S
C802 C806 1.353 . S
N803 Co768 2.145 . S
N803 C804 1.397 . S
N803 C805 1.334 . S
C804 H785 0.929 . S
C804 C801 1.388 . S
C804 N803 1.397 . S
C805 H786 0.929 . S
C805 C802 1.404 . S
C805 N803 1.334 . S
C806 H798 0.930 . S
C806 C801 1.418 . S
C806 C802 1.353 . S
C807 H777 0.930 . S
C807 N808 1.330 . S
C807 C809 1.446 . S
N808 Co767 2.151 . S
N808 C807 1.330 . S
N808 C812 1.418 . S
C809 H788 0.929 . S
C809 C807 1.446 . S
C809 C810 1.332 . S
C810 H790 0.931 . S
C810 C809 1.332 . S
C810 C811 1.267 . S
C811 H779 0.929 . S
C811 C810 1.267 . S
C811 C812 1.251 . S
C812 H782 0.929 . S
C812 N808 1.418 . S
C812 C811 1.251 . S
C813 H780 0.930 . S
C813 C815 1.406 . S
C813 C818 1.261 . S
C814 H781 0.930 . S
C814 N816 1.325 . S
C814 C817 1.357 . S
C815 H783 0.928 . S
C815 C813 1.406 . S
C815 N816 1.261 . S
N816 Co767 2.214 . S
N816 C814 1.325 . S
N816 C815 1.261 . S
C817 H787 0.931 . S
C817 C814 1.357 . S
C817 C818 1.312 . S
C818 H789 0.930 . S
C818 C813 1.261 . S
C818 C817 1.312 . S
C819 O791 1.214 . S
C819 O799 1.234 . S
C820 H792 0.929 . S
C820 C823 1.391 . S
C820 C825 1.391 . S
C821 H793 0.929 . S
C821 C822 1.390 . S
C821 N824 1.391 . S
C822 H794 0.930 . S
C822 C821 1.390 . S
C822 C823 1.392 . S
C823 H795 0.929 . S
C823 C820 1.391 . S
C823 C822 1.392 . S
N824 Co768 2.257 . S
N824 C821 1.391 . S
N824 C825 1.388 . S
C825 H796 0.930 . S
C825 C820 1.391 . S
C825 N824 1.388 . S
Co826 O828 2.143 . S
Co826 O834 2.074 1_556 S
Co826 O837 2.093 . S
Co826 O850 2.097 1_556 S
Co826 N867 2.151 . S
Co826 N875 2.214 1_556 S
Co827 O828 2.160 1_554 S
Co827 O833 2.058 . S
Co827 O843 2.057 . S
Co827 O858 2.037 . S
Co827 N862 2.145 . S
Co827 N883 2.257 . S
O828 Co826 2.143 . S
O828 Co827 2.160 1_556 S
C829 O830 1.278 . S
C829 O837 1.224 . S
O830 C829 1.278 . S
C831 O832 1.245 . S
C831 O843 1.232 1_556 S
O832 C831 1.245 . S
O833 Co827 2.058 . S
O833 C859 1.269 . S
O834 Co826 2.074 1_554 S
O834 C859 1.257 . S
H835 C860 0.930 . S
H836 C866 0.930 . S
O837 Co826 2.093 . S
O837 C829 1.224 . S
H838 C870 0.929 . S
H839 C872 0.930 . S
H840 C873 0.930 . S
H841 C871 0.929 . S
H842 C874 0.928 . S
O843 Co827 2.057 . S
O843 C831 1.232 1_554 S
H844 C863 0.929 . S
H845 C864 0.929 . S
H846 C876 0.931 . S
H847 C868 0.929 . S
H848 C877 0.930 . S
H849 C869 0.931 . S
O850 Co826 2.097 1_554 S
O850 C878 1.214 . S
H851 C879 0.929 . S
H852 C880 0.929 . S
H853 C881 0.930 . S
H854 C882 0.924 1_556 S
H855 C884 0.930 . S
H856 C861 0.930 . S
H857 C865 0.930 . S
O858 Co827 2.037 . S
O858 C878 1.234 . S
C859 O833 1.269 . S
C859 O834 1.257 . S
C860 H835 0.930 . S
C860 C863 1.388 . S
C860 C865 1.418 . S
C861 H856 0.930 . S
C861 C864 1.404 . S
C861 C865 1.353 . S
N862 Co827 2.145 . S
N862 C863 1.397 . S
N862 C864 1.334 . S
C863 H844 0.929 . S
C863 C860 1.388 . S
C863 N862 1.397 . S
C864 H845 0.929 . S
C864 C861 1.404 . S
C864 N862 1.334 . S
C865 H857 0.930 . S
C865 C860 1.418 . S
C865 C861 1.353 . S
C866 H836 0.930 . S
C866 N867 1.330 . S
C866 C868 1.446 . S
N867 Co826 2.151 . S
N867 C866 1.330 . S
N867 C871 1.418 . S
C868 H847 0.929 . S
C868 C866 1.446 . S
C868 C869 1.332 . S
C869 H849 0.931 . S
C869 C868 1.332 . S
C869 C870 1.267 . S
C870 H838 0.929 . S
C870 C869 1.267 . S
C870 C871 1.251 . S
C871 H841 0.929 . S
C871 N867 1.418 . S
C871 C870 1.251 . S
C872 H839 0.930 . S
C872 C874 1.406 . S
C872 C877 1.261 1_556 S
C873 H840 0.930 . S
C873 N875 1.325 . S
C873 C876 1.357 . S
C874 H842 0.928 . S
C874 C872 1.406 . S
C874 N875 1.261 1_556 S
N875 Co826 2.214 1_554 S
N875 C873 1.325 . S
N875 C874 1.261 1_554 S
C876 H846 0.931 . S
C876 C873 1.357 . S
C876 C877 1.312 . S
C877 H848 0.930 . S
C877 C872 1.261 1_554 S
C877 C876 1.312 . S
C878 O850 1.214 . S
C878 O858 1.234 . S
C879 H851 0.929 . S
C879 C882 1.382 1_556 S
C879 C884 1.391 . S
C880 H852 0.929 . S
C880 C881 1.390 . S
C880 N883 1.391 . S
C881 H853 0.930 . S
C881 C880 1.390 . S
C881 C882 1.406 . S
C882 H854 0.924 1_554 S
C882 C879 1.382 1_554 S
C882 C881 1.406 . S
N883 Co827 2.257 . S
N883 C880 1.391 . S
N883 C884 1.388 1_554 S
C884 H855 0.930 . S
C884 C879 1.391 . S
C884 N883 1.388 1_556 S
Co885 O887 2.143 . S
Co885 O893 2.074 . S
Co885 O896 2.093 . S
Co885 O909 2.097 . S
Co885 N926 2.151 . S
Co885 N934 2.214 . S
Co886 O887 2.160 . S
Co886 O892 2.058 . S
Co886 O902 2.057 . S
Co886 O917 2.037 . S
Co886 N921 2.145 . S
Co886 N942 2.257 . S
O887 Co885 2.143 . S
O887 Co886 2.160 . S
C888 O889 1.278 . S
C888 O896 1.224 . S
O889 C888 1.278 . S
C890 O891 1.245 . S
C890 O902 1.232 . S
O891 C890 1.245 . S
O892 Co886 2.058 . S
O892 C918 1.269 . S
O893 Co885 2.074 . S
O893 C918 1.257 . S
H894 C919 0.930 . S
H895 C925 0.930 . S
O896 Co885 2.093 . S
O896 C888 1.224 . S
H897 C929 0.929 . S
H898 C931 0.930 . S
H899 C932 0.930 . S
H900 C930 0.929 . S
H901 C933 0.928 . S
O902 Co886 2.057 . S
O902 C890 1.232 . S
H903 C922 0.929 . S
H904 C923 0.929 . S
H905 C935 0.931 . S
H906 C927 0.929 . S
H907 C936 0.930 . S
H908 C928 0.931 . S
O909 Co885 2.097 . S
O909 C937 1.214 . S
H910 C938 0.929 . S
H911 C939 0.929 . S
H912 C940 0.930 . S
H913 C941 0.929 . S
H914 C943 0.930 . S
H915 C920 0.930 . S
H916 C924 0.930 . S
O917 Co886 2.037 . S
O917 C937 1.234 . S
C918 O892 1.269 . S
C918 O893 1.257 . S
C919 H894 0.930 . S
C919 C922 1.388 . S
C919 C924 1.418 . S
C920 H915 0.930 . S
C920 C923 1.404 . S
C920 C924 1.353 . S
N921 Co886 2.145 . S
N921 C922 1.397 . S
N921 C923 1.334 . S
C922 H903 0.929 . S
C922 C919 1.388 . S
C922 N921 1.397 . S
C923 H904 0.929 . S
C923 C920 1.404 . S
C923 N921 1.334 . S
C924 H916 0.930 . S
C924 C919 1.418 . S
C924 C920 1.353 . S
C925 H895 0.930 . S
C925 N926 1.330 . S
C925 C927 1.446 . S
N926 Co885 2.151 . S
N926 C925 1.330 . S
N926 C930 1.418 . S
C927 H906 0.929 . S
C927 C925 1.446 . S
C927 C928 1.332 . S
C928 H908 0.931 . S
C928 C927 1.332 . S
C928 C929 1.267 . S
C929 H897 0.929 . S
C929 C928 1.267 . S
C929 C930 1.251 . S
C930 H900 0.929 . S
C930 N926 1.418 . S
C930 C929 1.251 . S
C931 H898 0.930 . S
C931 C933 1.406 1_655 S
C931 C936 1.261 . S
C932 H899 0.930 . S
C932 N934 1.325 . S
C932 C935 1.357 1_455 S
C933 H901 0.928 . S
C933 C931 1.406 1_455 S
C933 N934 1.261 . S
N934 Co885 2.214 . S
N934 C932 1.325 . S
N934 C933 1.261 . S
C935 H905 0.931 . S
C935 C932 1.357 1_655 S
C935 C936 1.312 . S
C936 H907 0.930 . S
C936 C931 1.261 . S
C936 C935 1.312 . S
C937 O909 1.214 . S
C937 O917 1.234 . S
C938 H910 0.929 . S
C938 C941 1.391 . S
C938 C943 1.391 . S
C939 H911 0.929 . S
C939 C940 1.390 . S
C939 N942 1.391 . S
C940 H912 0.930 . S
C940 C939 1.390 . S
C940 C941 1.392 . S
C941 H913 0.929 . S
C941 C938 1.391 . S
C941 C940 1.392 . S
N942 Co886 2.257 . S
N942 C939 1.391 . S
N942 C943 1.388 . S
C943 H914 0.930 . S
C943 C938 1.391 . S
C943 N942 1.388 . S
C944 C945 1.387 . S
C944 H948 0.950 . S
C944 C953 1.390 . S
C945 C944 1.387 . S
C945 C947 1.387 1_556 S
H946 C953 0.950 . S
C947 C945 1.387 1_554 S
C947 C949 1.390 . S
C947 H951 0.950 . S
H948 C944 0.950 . S
C949 C947 1.390 . S
C949 C950 1.387 1_554 S
C949 H952 0.950 . S
C950 C949 1.387 1_556 S
C950 C953 1.387 . S
H951 C947 0.950 . S
H952 C949 0.950 . S
C953 C944 1.390 . S
C953 H946 0.950 . S
C953 C950 1.387 . S
C954 C955 1.387 . S
C954 H958 0.950 . S
C954 C963 1.390 . S
C955 C954 1.387 . S
C955 C957 1.387 1_565 S
H956 C963 0.950 . S
C957 C955 1.387 1_545 S
C957 C959 1.392 . S
C957 H961 0.950 . S
H958 C954 0.950 . S
C959 C957 1.392 . S
C959 C960 1.368 1_545 S
C959 H962 0.968 . S
C960 C959 1.368 1_565 S
C960 C963 1.387 . S
H961 C957 0.950 . S
H962 C959 0.968 . S
C963 C954 1.390 . S
C963 H956 0.950 . S
C963 C960 1.387 . S
C964 C965 1.387 . S
C964 H968 0.950 1_554 S
C964 C973 1.390 . S
C965 C964 1.387 . S
C965 C967 1.387 . S
H966 C973 0.950 . S
C967 C965 1.387 . S
C967 C969 1.390 . S
C967 H971 0.950 . S
H968 C964 0.950 1_556 S
C969 C967 1.390 . S
C969 C970 1.387 . S
C969 H972 0.950 . S
C970 C969 1.387 . S
C970 C973 1.387 . S
H971 C967 0.950 . S
H972 C969 0.950 . S
C973 C964 1.390 . S
C973 H966 0.950 . S
C973 C970 1.387 . S
C974 C975 1.387 . S
C974 H978 0.950 . S
C974 C983 1.390 . S
C975 C974 1.387 . S
C975 C977 1.387 . S
H976 C983 0.950 . S
C977 C975 1.387 . S
C977 C979 1.390 . S
C977 H981 0.950 . S
H978 C974 0.950 . S
C979 C977 1.390 . S
C979 C980 1.387 . S
C979 H982 0.950 . S
C980 C979 1.387 . S
C980 C983 1.387 . S
H981 C977 0.950 . S
H982 C979 0.950 . S
C983 C974 1.390 . S
C983 H976 0.950 . S
C983 C980 1.387 . S
C984 C985 1.387 . S
C984 H988 0.950 . S
C984 C993 1.390 . S
C985 C984 1.387 . S
C985 C987 1.387 1_554 S
H986 C993 0.950 . S
C987 C985 1.387 1_556 S
C987 C989 1.390 . S
C987 H991 0.950 1_455 S
H988 C984 0.950 . S
C989 C987 1.390 . S
C989 C990 1.387 1_556 S
C989 H992 0.950 1_455 S
C990 C989 1.387 1_554 S
C990 C993 1.387 . S
H991 C987 0.950 1_655 S
H992 C989 0.950 1_655 S
C993 C984 1.390 . S
C993 H986 0.950 . S
C993 C990 1.387 . S
C994 C995 1.387 . S
C994 H998 0.950 . S
C994 C1003 1.390 . S
C995 C994 1.387 . S
C995 C997 1.387 . S
H996 C1003 0.950 . S
C997 C995 1.387 . S
C997 C999 1.390 . S
C997 H1001 0.950 . S
H998 C994 0.950 . S
C999 C997 1.390 . S
C999 C1000 1.387 . S
C999 H1002 0.950 . S
C1000 C999 1.387 . S
C1000 C1003 1.387 . S
H1001 C997 0.950 . S
H1002 C999 0.950 . S
C1003 C994 1.390 . S
C1003 H996 0.950 . S
C1003 C1000 1.387 . S
C1004 C1005 1.387 . S
C1004 H1008 0.950 . S
C1004 C1013 1.390 . S
C1005 C1004 1.387 . S
C1005 C1007 1.387 1_556 S
H1006 C1013 0.950 . S
C1007 C1005 1.387 1_554 S
C1007 C1009 1.390 . S
C1007 H1011 0.950 . S
H1008 C1004 0.950 . S
C1009 C1007 1.390 . S
C1009 C1010 1.387 1_554 S
C1009 H1012 0.950 . S
C1010 C1009 1.387 1_556 S
C1010 C1013 1.387 . S
H1011 C1007 0.950 . S
H1012 C1009 0.950 . S
C1013 C1004 1.390 . S
C1013 H1006 0.950 . S
C1013 C1010 1.387 . S
C1014 C1015 1.387 . S
C1014 H1018 0.950 . S
C1014 C1023 1.390 . S
C1015 C1014 1.387 . S
C1015 C1017 1.387 . S
H1016 C1023 0.950 . S
C1017 C1015 1.387 . S
C1017 C1019 1.390 . S
C1017 H1021 0.950 . S
H1018 C1014 0.950 . S
C1019 C1017 1.390 . S
C1019 C1020 1.387 . S
C1019 H1022 0.950 . S
C1020 C1019 1.387 . S
C1020 C1023 1.387 . S
H1021 C1017 0.950 . S
H1022 C1019 0.950 . S
C1023 C1014 1.390 . S
C1023 H1016 0.950 . S
C1023 C1020 1.387 . S
C1024 C1025 1.387 . S
C1024 H1028 0.950 . S
C1024 C1033 1.390 . S
C1025 C1024 1.387 . S
C1025 C1027 1.387 . S
H1026 C1033 0.950 . S
C1027 C1025 1.387 . S
C1027 C1029 1.390 . S
C1027 H1031 0.950 . S
H1028 C1024 0.950 . S
C1029 C1027 1.390 . S
C1029 C1030 1.387 . S
C1029 H1032 0.950 . S
C1030 C1029 1.387 . S
C1030 C1033 1.387 . S
H1031 C1027 0.950 . S
H1032 C1029 0.950 . S
C1033 C1024 1.390 . S
C1033 H1026 0.950 . S
C1033 C1030 1.387 . S
C1034 C1035 1.387 . S
C1034 H1038 0.950 . S
C1034 C1043 1.390 . S
C1035 C1034 1.387 . S
C1035 C1037 1.387 . S
H1036 C1043 0.950 . S
C1037 C1035 1.387 . S
C1037 C1039 1.390 . S
C1037 H1041 0.950 . S
H1038 C1034 0.950 . S
C1039 C1037 1.390 . S
C1039 C1040 1.387 . S
C1039 H1042 0.950 . S
C1040 C1039 1.387 . S
C1040 C1043 1.387 . S
H1041 C1037 0.950 . S
H1042 C1039 0.950 . S
C1043 C1034 1.390 . S
C1043 H1036 0.950 . S
C1043 C1040 1.387 . S
C1044 C1045 1.387 . S
C1044 H1048 0.950 . S
C1044 C1053 1.390 . S
C1045 C1044 1.387 . S
C1045 C1047 1.387 . S
H1046 C1053 0.950 . S
C1047 C1045 1.387 . S
C1047 C1049 1.390 . S
C1047 H1051 0.950 . S
H1048 C1044 0.950 . S
C1049 C1047 1.390 . S
C1049 C1050 1.387 . S
C1049 H1052 0.950 . S
C1050 C1049 1.387 . S
C1050 C1053 1.387 . S
H1051 C1047 0.950 . S
H1052 C1049 0.950 . S
C1053 C1044 1.390 . S
C1053 H1046 0.950 . S
C1053 C1050 1.387 . S
C1054 C1055 1.387 . S
C1054 H1058 0.950 . S
C1054 C1063 1.390 . S
C1055 C1054 1.387 . S
C1055 C1057 1.387 . S
H1056 C1063 0.950 . S
C1057 C1055 1.387 . S
C1057 C1059 1.390 . S
C1057 H1061 0.950 . S
H1058 C1054 0.950 . S
C1059 C1057 1.390 . S
C1059 C1060 1.387 . S
C1059 H1062 0.950 . S
C1060 C1059 1.387 . S
C1060 C1063 1.387 . S
H1061 C1057 0.950 . S
H1062 C1059 0.950 . S
C1063 C1054 1.390 . S
C1063 H1056 0.950 . S
C1063 C1060 1.387 . S
C1064 C1065 1.387 . S
C1064 H1068 0.950 . S
C1064 C1073 1.390 . S
C1065 C1064 1.387 . S
C1065 C1067 1.387 . S
H1066 C1073 0.950 . S
C1067 C1065 1.387 . S
C1067 C1069 1.390 . S
C1067 H1071 0.950 . S
H1068 C1064 0.950 . S
C1069 C1067 1.390 . S
C1069 C1070 1.387 . S
C1069 H1072 0.950 . S
C1070 C1069 1.387 . S
C1070 C1073 1.387 . S
H1071 C1067 0.950 . S
H1072 C1069 0.950 . S
C1073 C1064 1.390 . S
C1073 H1066 0.950 . S
C1073 C1070 1.387 . S
C1074 C1075 1.387 . S
C1074 H1078 0.950 . S
C1074 C1083 1.390 . S
C1075 C1074 1.387 . S
C1075 C1077 1.387 . S
H1076 C1083 0.950 . S
C1077 C1075 1.387 . S
C1077 C1079 1.390 . S
C1077 H1081 0.950 . S
H1078 C1074 0.950 . S
C1079 C1077 1.390 . S
C1079 C1080 1.387 . S
C1079 H1082 0.950 . S
C1080 C1079 1.387 . S
C1080 C1083 1.387 . S
H1081 C1077 0.950 . S
H1082 C1079 0.950 . S
C1083 C1074 1.390 . S
C1083 H1076 0.950 . S
C1083 C1080 1.387 . S
C1084 C1085 1.387 . S
C1084 H1088 0.950 . S
C1084 C1093 1.390 . S
C1085 C1084 1.387 . S
C1085 C1087 1.387 . S
H1086 C1093 0.950 . S
C1087 C1085 1.387 . S
C1087 C1089 1.390 . S
C1087 H1091 0.950 . S
H1088 C1084 0.950 . S
C1089 C1087 1.390 . S
C1089 C1090 1.387 . S
C1089 H1092 0.950 . S
C1090 C1089 1.387 . S
C1090 C1093 1.387 . S
H1091 C1087 0.950 . S
H1092 C1089 0.950 . S
C1093 C1084 1.390 . S
C1093 H1086 0.950 . S
C1093 C1090 1.387 . S
C1094 C1095 1.387 . S
C1094 H1098 0.950 . S
C1094 C1103 1.390 . S
C1095 C1094 1.387 . S
C1095 C1097 1.387 . S
H1096 C1103 0.950 . S
C1097 C1095 1.387 . S
C1097 C1099 1.390 . S
C1097 H1101 0.950 . S
H1098 C1094 0.950 . S
C1099 C1097 1.390 . S
C1099 C1100 1.387 . S
C1099 H1102 0.950 . S
C1100 C1099 1.387 . S
C1100 C1103 1.387 . S
H1101 C1097 0.950 . S
H1102 C1099 0.950 . S
C1103 C1094 1.390 . S
C1103 H1096 0.950 . S
C1103 C1100 1.387 . S
C1104 C1105 1.387 . S
C1104 H1108 0.950 . S
C1104 C1113 1.390 . S
C1105 C1104 1.387 . S
C1105 C1107 1.387 . S
H1106 C1113 0.950 . S
C1107 C1105 1.387 . S
C1107 C1109 1.390 . S
C1107 H1111 0.950 . S
H1108 C1104 0.950 . S
C1109 C1107 1.390 . S
C1109 C1110 1.387 . S
C1109 H1112 0.950 . S
C1110 C1109 1.387 . S
C1110 C1113 1.387 . S
H1111 C1107 0.950 . S
H1112 C1109 0.950 . S
C1113 C1104 1.390 . S
C1113 H1106 0.950 . S
C1113 C1110 1.387 . S
C1114 C1115 1.387 . S
C1114 H1118 0.950 . S
C1114 C1123 1.390 . S
C1115 C1114 1.387 . S
C1115 C1117 1.387 . S
H1116 C1123 0.950 . S
C1117 C1115 1.387 . S
C1117 C1119 1.390 . S
C1117 H1121 0.950 . S
H1118 C1114 0.950 . S
C1119 C1117 1.390 . S
C1119 C1120 1.387 . S
C1119 H1122 0.950 . S
C1120 C1119 1.387 . S
C1120 C1123 1.387 . S
H1121 C1117 0.950 . S
H1122 C1119 0.950 . S
C1123 C1114 1.390 . S
C1123 H1116 0.950 . S
C1123 C1120 1.387 . S
C1124 C1125 1.387 . S
C1124 H1128 0.950 . S
C1124 C1133 1.390 . S
C1125 C1124 1.387 . S
C1125 C1127 1.387 . S
H1126 C1133 0.950 . S
C1127 C1125 1.387 . S
C1127 C1129 1.390 . S
C1127 H1131 0.950 . S
H1128 C1124 0.950 . S
C1129 C1127 1.390 . S
C1129 C1130 1.387 . S
C1129 H1132 0.950 . S
C1130 C1129 1.387 . S
C1130 C1133 1.387 . S
H1131 C1127 0.950 . S
H1132 C1129 0.950 . S
C1133 C1124 1.390 . S
C1133 H1126 0.950 . S
C1133 C1130 1.387 . S
C1134 C1135 1.387 . S
C1134 H1138 0.950 . S
C1134 C1143 1.390 . S
C1135 C1134 1.387 . S
C1135 C1137 1.387 . S
H1136 C1143 0.950 . S
C1137 C1135 1.387 . S
C1137 C1139 1.390 . S
C1137 H1141 0.950 . S
H1138 C1134 0.950 . S
C1139 C1137 1.390 . S
C1139 C1140 1.387 . S
C1139 H1142 0.950 . S
C1140 C1139 1.387 . S
C1140 C1143 1.387 . S
H1141 C1137 0.950 . S
H1142 C1139 0.950 . S
C1143 C1134 1.390 . S
C1143 H1136 0.950 . S
C1143 C1140 1.387 . S
C1144 C1145 1.387 . S
C1144 H1148 0.950 . S
C1144 C1153 1.390 . S
C1145 C1144 1.387 . S
C1145 C1147 1.387 . S
H1146 C1153 0.950 . S
C1147 C1145 1.387 . S
C1147 C1149 1.390 . S
C1147 H1151 0.950 . S
H1148 C1144 0.950 . S
C1149 C1147 1.390 . S
C1149 C1150 1.387 . S
C1149 H1152 0.950 . S
C1150 C1149 1.387 . S
C1150 C1153 1.387 . S
H1151 C1147 0.950 . S
H1152 C1149 0.950 . S
C1153 C1144 1.390 . S
C1153 H1146 0.950 . S
C1153 C1150 1.387 . S
C1154 C1155 1.387 . S
C1154 H1158 0.950 . S
C1154 C1163 1.390 . S
C1155 C1154 1.387 . S
C1155 C1157 1.387 . S
H1156 C1163 0.950 . S
C1157 C1155 1.387 . S
C1157 C1159 1.390 . S
C1157 H1161 0.950 . S
H1158 C1154 0.950 . S
C1159 C1157 1.390 . S
C1159 C1160 1.387 . S
C1159 H1162 0.950 . S
C1160 C1159 1.387 . S
C1160 C1163 1.387 . S
H1161 C1157 0.950 . S
H1162 C1159 0.950 . S
C1163 C1154 1.390 . S
C1163 H1156 0.950 . S
C1163 C1160 1.387 . S
C1164 C1165 1.387 . S
C1164 H1168 0.950 . S
C1164 C1173 1.390 . S
C1165 C1164 1.387 . S
C1165 C1167 1.387 . S
H1166 C1173 0.950 . S
C1167 C1165 1.387 . S
C1167 C1169 1.390 . S
C1167 H1171 0.950 . S
H1168 C1164 0.950 . S
C1169 C1167 1.390 . S
C1169 C1170 1.387 . S
C1169 H1172 0.950 . S
C1170 C1169 1.387 . S
C1170 C1173 1.387 . S
H1171 C1167 0.950 . S
H1172 C1169 0.950 . S
C1173 C1164 1.390 . S
C1173 H1166 0.950 . S
C1173 C1170 1.387 . S
C1174 C1175 1.387 . S
C1174 H1178 0.950 . S
C1174 C1183 1.390 . S
C1175 C1174 1.387 . S
C1175 C1177 1.387 . S
H1176 C1183 0.950 . S
C1177 C1175 1.387 . S
C1177 C1179 1.390 . S
C1177 H1181 0.950 . S
H1178 C1174 0.950 . S
C1179 C1177 1.390 . S
C1179 C1180 1.387 . S
C1179 H1182 0.950 . S
C1180 C1179 1.387 . S
C1180 C1183 1.387 . S
H1181 C1177 0.950 . S
H1182 C1179 0.950 . S
C1183 C1174 1.390 . S
C1183 H1176 0.950 . S
C1183 C1180 1.387 . S
C1184 C1185 1.387 . S
C1184 H1188 0.950 . S
C1184 C1193 1.390 . S
C1185 C1184 1.387 . S
C1185 C1187 1.387 . S
H1186 C1193 0.950 . S
C1187 C1185 1.387 . S
C1187 C1189 1.390 . S
C1187 H1191 0.950 . S
H1188 C1184 0.950 . S
C1189 C1187 1.390 . S
C1189 C1190 1.387 . S
C1189 H1192 0.950 . S
C1190 C1189 1.387 . S
C1190 C1193 1.387 . S
H1191 C1187 0.950 . S
H1192 C1189 0.950 . S
C1193 C1184 1.390 . S
C1193 H1186 0.950 . S
C1193 C1190 1.387 . S
C1194 C1195 1.387 . S
C1194 H1198 0.950 . S
C1194 C1203 1.390 . S
C1195 C1194 1.387 . S
C1195 C1197 1.387 . S
H1196 C1203 0.950 . S
C1197 C1195 1.387 . S
C1197 C1199 1.390 . S
C1197 H1201 0.950 . S
H1198 C1194 0.950 . S
C1199 C1197 1.390 . S
C1199 C1200 1.387 . S
C1199 H1202 0.950 . S
C1200 C1199 1.387 . S
C1200 C1203 1.387 . S
H1201 C1197 0.950 . S
H1202 C1199 0.950 . S
C1203 C1194 1.390 . S
C1203 H1196 0.950 . S
C1203 C1200 1.387 . S
C1204 C1205 1.387 . S
C1204 H1208 0.950 . S
C1204 C1213 1.390 . S
C1205 C1204 1.387 . S
C1205 C1207 1.387 . S
H1206 C1213 0.950 . S
C1207 C1205 1.387 . S
C1207 C1209 1.390 . S
C1207 H1211 0.950 . S
H1208 C1204 0.950 . S
C1209 C1207 1.390 . S
C1209 C1210 1.387 . S
C1209 H1212 0.950 . S
C1210 C1209 1.387 . S
C1210 C1213 1.387 . S
H1211 C1207 0.950 . S
H1212 C1209 0.950 . S
C1213 C1204 1.390 . S
C1213 H1206 0.950 . S
C1213 C1210 1.387 . S
C1214 C1215 1.387 . S
C1214 H1218 0.950 . S
C1214 C1223 1.390 . S
C1215 C1214 1.387 . S
C1215 C1217 1.387 . S
H1216 C1223 0.950 . S
C1217 C1215 1.387 . S
C1217 C1219 1.390 . S
C1217 H1221 0.950 . S
H1218 C1214 0.950 . S
C1219 C1217 1.390 . S
C1219 C1220 1.387 . S
C1219 H1222 0.950 . S
C1220 C1219 1.387 . S
C1220 C1223 1.387 . S
H1221 C1217 0.950 . S
H1222 C1219 0.950 . S
C1223 C1214 1.390 . S
C1223 H1216 0.950 . S
C1223 C1220 1.387 . S
C1224 C1225 1.387 . S
C1224 H1228 0.950 . S
C1224 C1233 1.390 . S
C1225 C1224 1.387 . S
C1225 C1227 1.387 . S
H1226 C1233 0.950 . S
C1227 C1225 1.387 . S
C1227 C1229 1.390 . S
C1227 H1231 0.950 . S
H1228 C1224 0.950 . S
C1229 C1227 1.390 . S
C1229 C1230 1.387 . S
C1229 H1232 0.950 . S
C1230 C1229 1.387 . S
C1230 C1233 1.387 . S
H1231 C1227 0.950 . S
H1232 C1229 0.950 . S
C1233 C1224 1.390 . S
C1233 H1226 0.950 . S
C1233 C1230 1.387 . S
C1234 C1235 1.387 . S
C1234 H1238 0.950 . S
C1234 C1243 1.390 . S
C1235 C1234 1.387 . S
C1235 C1237 1.387 . S
H1236 C1243 0.950 . S
C1237 C1235 1.387 . S
C1237 C1239 1.390 . S
C1237 H1241 0.950 . S
H1238 C1234 0.950 . S
C1239 C1237 1.390 . S
C1239 C1240 1.387 . S
C1239 H1242 0.950 . S
C1240 C1239 1.387 . S
C1240 C1243 1.387 . S
H1241 C1237 0.950 . S
H1242 C1239 0.950 . S
C1243 C1234 1.390 . S
C1243 H1236 0.950 . S
C1243 C1240 1.387 . S
C1244 C1245 1.387 . S
C1244 H1248 0.950 . S
C1244 C1253 1.390 . S
C1245 C1244 1.387 . S
C1245 C1247 1.387 . S
H1246 C1253 0.950 . S
C1247 C1245 1.387 . S
C1247 C1249 1.390 . S
C1247 H1251 0.950 . S
H1248 C1244 0.950 . S
C1249 C1247 1.390 . S
C1249 C1250 1.387 . S
C1249 H1252 0.950 . S
C1250 C1249 1.387 . S
C1250 C1253 1.387 . S
H1251 C1247 0.950 . S
H1252 C1249 0.950 . S
C1253 C1244 1.390 . S
C1253 H1246 0.950 . S
C1253 C1250 1.387 . S
C1254 C1255 1.387 . S
C1254 H1258 0.950 . S
C1254 C1263 1.390 . S
C1255 C1254 1.387 . S
C1255 C1257 1.387 . S
H1256 C1263 0.950 . S
C1257 C1255 1.387 . S
C1257 C1259 1.390 . S
C1257 H1261 0.950 . S
H1258 C1254 0.950 . S
C1259 C1257 1.390 . S
C1259 C1260 1.387 . S
C1259 H1262 0.950 . S
C1260 C1259 1.387 . S
C1260 C1263 1.387 . S
H1261 C1257 0.950 . S
H1262 C1259 0.950 . S
C1263 C1254 1.390 . S
C1263 H1256 0.950 . S
C1263 C1260 1.387 . S
C945 C5 1.433 . S
C950 C241 1.429 . S
C955 C300 1.433 . S
C960 C64 1.429 . S
C965 C123 1.600 . S
C970 C359 1.604 . S
C975 C182 1.605 . S
C980 C418 1.601 . S
C985 C477 1.432 . S
C990 C713 1.427 . S
C995 C772 1.432 . S
C1000 C536 1.427 . S
C1005 C595 1.600 . S
C1010 C831 1.605 . S
C1015 C654 1.604 . S
C1020 C890 1.599 . S
C1025 C3 1.509 . S
C1030 C937 1.535 . S
C1035 C760 1.514 . S
C1040 C62 1.481 . S
C1045 C121 1.570 . S
C1050 C819 1.608 . S
C1055 C878 1.659 . S
C1060 C180 1.616 . S
C1065 C583 1.513 . S
C1070 C239 1.481 . S
C1075 C642 1.537 . S
C1080 C298 1.506 . S
C1085 C701 1.659 . S
C1090 C357 1.614 . S
C1095 C524 1.610 . S
C1100 C416 1.568 . S
C1105 C475 1.509 . S
C1110 C465 1.535 . S
C1115 C288 1.514 . S
C1120 C534 1.483 . S
C1125 C347 1.610 . S
C1130 C593 1.568 . S
C1135 C652 1.615 . S
C1140 C406 1.659 . S
C1145 C111 1.514 . S
C1150 C711 1.482 . S
C1155 C770 1.510 . S
C1160 C170 1.535 . S
C1165 C829 1.615 . S
C1170 C229 1.659 . S
C1175 C888 1.570 . S
C1180 C52 1.608 . S
C1185 C446 1.185 . S
C1190 C33 1.229 . S
C1195 C92 1.250 . S
C1200 C269 1.253 . S
C1205 C151 1.184 . S
C1210 C328 1.227 . S
C1215 C210 1.193 . S
C1220 C387 1.194 . S
C1225 C918 1.186 . S
C1230 C505 1.229 . S
C1235 C741 1.248 . S
C1240 C564 1.255 . S
C1245 C800 1.224 . S
C1250 C623 1.190 . S
C1255 C859 1.189 . S
C1260 C682 1.191 . S
