# Generated by pormake.
# Topology umr, (4)-cn, num edge types: 1
# Building blocks:
#     Node 0, Type 0, BuildingBlock: QUQFOY_clean_sbu_1, # of connection points: 4
#     Node 1, Type 0, BuildingBlock: QUQFOY_clean_sbu_1, # of connection points: 4
#     Node 2, Type 0, BuildingBlock: QUQFOY_clean_sbu_1, # of connection points: 4
#     Node 3, Type 0, BuildingBlock: QUQFOY_clean_sbu_1, # of connection points: 4
#     Node 4, Type 0, BuildingBlock: QUQFOY_clean_sbu_1, # of connection points: 4
#     Node 5, Type 0, BuildingBlock: QUQFOY_clean_sbu_1, # of connection points: 4
#     Node 6, Type 0, BuildingBlock: QUQFOY_clean_sbu_1, # of connection points: 4
#     Node 7, Type 0, BuildingBlock: QUQFOY_clean_sbu_1, # of connection points: 4
#     Node 8, Type 0, BuildingBlock: QUQFOY_clean_sbu_1, # of connection points: 4
#     Node 9, Type 0, BuildingBlock: QUQFOY_clean_sbu_1, # of connection points: 4
#     Node 10, Type 0, BuildingBlock: QUQFOY_clean_sbu_1, # of connection points: 4
#     Node 11, Type 0, BuildingBlock: QUQFOY_clean_sbu_1, # of connection points: 4
#     Node 12, Type 0, BuildingBlock: QUQFOY_clean_sbu_1, # of connection points: 4
#     Node 13, Type 0, BuildingBlock: QUQFOY_clean_sbu_1, # of connection points: 4
#     Node 14, Type 0, BuildingBlock: QUQFOY_clean_sbu_1, # of connection points: 4
#     Node 15, Type 0, BuildingBlock: QUQFOY_clean_sbu_1, # of connection points: 4
#     Node 16, Type 0, BuildingBlock: QUQFOY_clean_sbu_1, # of connection points: 4
#     Node 17, Type 0, BuildingBlock: QUQFOY_clean_sbu_1, # of connection points: 4
#     Node 18, Type 0, BuildingBlock: QUQFOY_clean_sbu_1, # of connection points: 4
#     Node 19, Type 0, BuildingBlock: QUQFOY_clean_sbu_1, # of connection points: 4
#     Node 20, Type 0, BuildingBlock: QUQFOY_clean_sbu_1, # of connection points: 4
#     Node 21, Type 0, BuildingBlock: QUQFOY_clean_sbu_1, # of connection points: 4
#     Node 22, Type 0, BuildingBlock: QUQFOY_clean_sbu_1, # of connection points: 4
#     Node 23, Type 0, BuildingBlock: QUQFOY_clean_sbu_1, # of connection points: 4
#     Node 24, Type 0, BuildingBlock: QUQFOY_clean_sbu_1, # of connection points: 4
#     Node 25, Type 0, BuildingBlock: QUQFOY_clean_sbu_1, # of connection points: 4
#     Node 26, Type 0, BuildingBlock: QUQFOY_clean_sbu_1, # of connection points: 4
#     Node 27, Type 0, BuildingBlock: QUQFOY_clean_sbu_1, # of connection points: 4
#     Node 28, Type 0, BuildingBlock: QUQFOY_clean_sbu_1, # of connection points: 4
#     Node 29, Type 0, BuildingBlock: QUQFOY_clean_sbu_1, # of connection points: 4
#     Node 30, Type 0, BuildingBlock: QUQFOY_clean_sbu_1, # of connection points: 4
#     Node 31, Type 0, BuildingBlock: QUQFOY_clean_sbu_1, # of connection points: 4
#     Edge 32, Type (0, 0), BuildingBlock: AJUNOK_clean_linker_0, # of connection points: 2
#     Edge 33, Type (0, 0), BuildingBlock: AJUNOK_clean_linker_0, # of connection points: 2
#     Edge 34, Type (0, 0), BuildingBlock: AJUNOK_clean_linker_0, # of connection points: 2
#     Edge 35, Type (0, 0), BuildingBlock: AJUNOK_clean_linker_0, # of connection points: 2
#     Edge 36, Type (0, 0), BuildingBlock: AJUNOK_clean_linker_0, # of connection points: 2
#     Edge 37, Type (0, 0), BuildingBlock: AJUNOK_clean_linker_0, # of connection points: 2
#     Edge 38, Type (0, 0), BuildingBlock: AJUNOK_clean_linker_0, # of connection points: 2
#     Edge 39, Type (0, 0), BuildingBlock: AJUNOK_clean_linker_0, # of connection points: 2
#     Edge 40, Type (0, 0), BuildingBlock: AJUNOK_clean_linker_0, # of connection points: 2
#     Edge 41, Type (0, 0), BuildingBlock: AJUNOK_clean_linker_0, # of connection points: 2
#     Edge 42, Type (0, 0), BuildingBlock: AJUNOK_clean_linker_0, # of connection points: 2
#     Edge 43, Type (0, 0), BuildingBlock: AJUNOK_clean_linker_0, # of connection points: 2
#     Edge 44, Type (0, 0), BuildingBlock: AJUNOK_clean_linker_0, # of connection points: 2
#     Edge 45, Type (0, 0), BuildingBlock: AJUNOK_clean_linker_0, # of connection points: 2
#     Edge 46, Type (0, 0), BuildingBlock: AJUNOK_clean_linker_0, # of connection points: 2
#     Edge 47, Type (0, 0), BuildingBlock: AJUNOK_clean_linker_0, # of connection points: 2
#     Edge 48, Type (0, 0), BuildingBlock: AJUNOK_clean_linker_0, # of connection points: 2
#     Edge 49, Type (0, 0), BuildingBlock: AJUNOK_clean_linker_0, # of connection points: 2
#     Edge 50, Type (0, 0), BuildingBlock: AJUNOK_clean_linker_0, # of connection points: 2
#     Edge 51, Type (0, 0), BuildingBlock: AJUNOK_clean_linker_0, # of connection points: 2
#     Edge 52, Type (0, 0), BuildingBlock: AJUNOK_clean_linker_0, # of connection points: 2
#     Edge 53, Type (0, 0), BuildingBlock: AJUNOK_clean_linker_0, # of connection points: 2
#     Edge 54, Type (0, 0), BuildingBlock: AJUNOK_clean_linker_0, # of connection points: 2
#     Edge 55, Type (0, 0), BuildingBlock: AJUNOK_clean_linker_0, # of connection points: 2
#     Edge 56, Type (0, 0), BuildingBlock: AJUNOK_clean_linker_0, # of connection points: 2
#     Edge 57, Type (0, 0), BuildingBlock: AJUNOK_clean_linker_0, # of connection points: 2
#     Edge 58, Type (0, 0), BuildingBlock: AJUNOK_clean_linker_0, # of connection points: 2
#     Edge 59, Type (0, 0), BuildingBlock: AJUNOK_clean_linker_0, # of connection points: 2
#     Edge 60, Type (0, 0), BuildingBlock: AJUNOK_clean_linker_0, # of connection points: 2
#     Edge 61, Type (0, 0), BuildingBlock: AJUNOK_clean_linker_0, # of connection points: 2
#     Edge 62, Type (0, 0), BuildingBlock: AJUNOK_clean_linker_0, # of connection points: 2
#     Edge 63, Type (0, 0), BuildingBlock: AJUNOK_clean_linker_0, # of connection points: 2
#     Edge 64, Type (0, 0), BuildingBlock: AJUNOK_clean_linker_0, # of connection points: 2
#     Edge 65, Type (0, 0), BuildingBlock: AJUNOK_clean_linker_0, # of connection points: 2
#     Edge 66, Type (0, 0), BuildingBlock: AJUNOK_clean_linker_0, # of connection points: 2
#     Edge 67, Type (0, 0), BuildingBlock: AJUNOK_clean_linker_0, # of connection points: 2
#     Edge 68, Type (0, 0), BuildingBlock: AJUNOK_clean_linker_0, # of connection points: 2
#     Edge 69, Type (0, 0), BuildingBlock: AJUNOK_clean_linker_0, # of connection points: 2
#     Edge 70, Type (0, 0), BuildingBlock: AJUNOK_clean_linker_0, # of connection points: 2
#     Edge 71, Type (0, 0), BuildingBlock: AJUNOK_clean_linker_0, # of connection points: 2
#     Edge 72, Type (0, 0), BuildingBlock: AJUNOK_clean_linker_0, # of connection points: 2
#     Edge 73, Type (0, 0), BuildingBlock: AJUNOK_clean_linker_0, # of connection points: 2
#     Edge 74, Type (0, 0), BuildingBlock: AJUNOK_clean_linker_0, # of connection points: 2
#     Edge 75, Type (0, 0), BuildingBlock: AJUNOK_clean_linker_0, # of connection points: 2
#     Edge 76, Type (0, 0), BuildingBlock: AJUNOK_clean_linker_0, # of connection points: 2
#     Edge 77, Type (0, 0), BuildingBlock: AJUNOK_clean_linker_0, # of connection points: 2
#     Edge 78, Type (0, 0), BuildingBlock: AJUNOK_clean_linker_0, # of connection points: 2
#     Edge 79, Type (0, 0), BuildingBlock: AJUNOK_clean_linker_0, # of connection points: 2
#     Edge 80, Type (0, 0), BuildingBlock: AJUNOK_clean_linker_0, # of connection points: 2
#     Edge 81, Type (0, 0), BuildingBlock: AJUNOK_clean_linker_0, # of connection points: 2
#     Edge 82, Type (0, 0), BuildingBlock: AJUNOK_clean_linker_0, # of connection points: 2
#     Edge 83, Type (0, 0), BuildingBlock: AJUNOK_clean_linker_0, # of connection points: 2
#     Edge 84, Type (0, 0), BuildingBlock: AJUNOK_clean_linker_0, # of connection points: 2
#     Edge 85, Type (0, 0), BuildingBlock: AJUNOK_clean_linker_0, # of connection points: 2
#     Edge 86, Type (0, 0), BuildingBlock: AJUNOK_clean_linker_0, # of connection points: 2
#     Edge 87, Type (0, 0), BuildingBlock: AJUNOK_clean_linker_0, # of connection points: 2
#     Edge 88, Type (0, 0), BuildingBlock: AJUNOK_clean_linker_0, # of connection points: 2
#     Edge 89, Type (0, 0), BuildingBlock: AJUNOK_clean_linker_0, # of connection points: 2
#     Edge 90, Type (0, 0), BuildingBlock: AJUNOK_clean_linker_0, # of connection points: 2
#     Edge 91, Type (0, 0), BuildingBlock: AJUNOK_clean_linker_0, # of connection points: 2
#     Edge 92, Type (0, 0), BuildingBlock: AJUNOK_clean_linker_0, # of connection points: 2
#     Edge 93, Type (0, 0), BuildingBlock: AJUNOK_clean_linker_0, # of connection points: 2
#     Edge 94, Type (0, 0), BuildingBlock: AJUNOK_clean_linker_0, # of connection points: 2
#     Edge 95, Type (0, 0), BuildingBlock: AJUNOK_clean_linker_0, # of connection points: 2
# Relax obj value: 0.050
# Max RMSD: 0.109
# Mean RMSD: 0.109
data_MOF--net-umr--node1-QUQFOY_clean_sbu_1--edge1-AJUNOK_clean_linker_0
_symmetry_space_group_name_H-M    P1
_symmetry_Int_Tables_number       1
_symmetry_cell_setting            triclinic
loop_
_symmetry_equiv_pos_as_xyz
'x, y, z'
_cell_length_a     64.596493
_cell_length_b     64.594286
_cell_length_c     20.79444
_cell_angle_alpha  89.996781
_cell_angle_beta   89.975134
_cell_angle_gamma 90.011562
loop_
_atom_site_label
_atom_site_type_symbol
_atom_site_fract_x
_atom_site_fract_y
_atom_site_fract_z
_atom_type_partial_charge
O0 O 0.16845 0.2915 0.22253 0.0
Cd1 Cd 0.17096 0.30718 0.13614 0.0
Cd2 Cd 0.16976 0.26786 0.09384 0.0
O3 O 0.15774 0.26157 0.18433 0.0
O4 O 0.16516 0.3366 0.15876 0.0
O5 O 0.14392 0.31733 0.10041 0.0
C6 C 0.14775 0.33467 0.12908 0.0
C7 C 0.15687 0.25528 0.99661 0.0
C8 C 0.16074 0.27363 0.23182 0.0
C9 C 0.20897 0.29087 0.0733 0.0
O10 O 0.20102 0.27327 0.08472 0.0
O11 O 0.19849 0.30716 0.08418 0.0
O12 O 0.16562 0.24323 0.03791 0.0
O13 O 0.15351 0.27424 0.0136 0.0
O14 O 0.95847 0.91666 0.46153 0.0
Cd15 Cd 0.94096 0.92034 0.3793 0.0
Cd16 Cd 0.97971 0.91708 0.32781 0.0
O17 O 0.98763 0.90582 0.41841 0.0
O18 O 0.91258 0.91406 0.41131 0.0
O19 O 0.92888 0.89482 0.33887 0.0
C20 C 0.91302 0.89774 0.37567 0.0
C21 C 0.99246 0.90356 0.23111 0.0
C22 C 0.97651 0.90909 0.46793 0.0
C23 C 0.95717 0.95769 0.31361 0.0
O24 O 0.97446 0.94836 0.31705 0.0
O25 O 0.94071 0.94854 0.33147 0.0
O26 O 0.00436 0.91276 0.2718 0.0
O27 O 0.97343 0.90042 0.24769 0.0
O28 O 0.33234 0.71183 0.71779 0.0
Cd29 Cd 0.3276 0.69492 0.63485 0.0
Cd30 Cd 0.33093 0.73449 0.58672 0.0
O31 O 0.34329 0.74129 0.6767 0.0
O32 O 0.33343 0.6663 0.66535 0.0
O33 O 0.35278 0.68259 0.5931 0.0
C34 C 0.3497 0.66666 0.62947 0.0
C35 C 0.34311 0.74818 0.48953 0.0
C36 C 0.3405 0.72957 0.72514 0.0
C37 C 0.29023 0.71221 0.57194 0.0
O38 O 0.29962 0.72936 0.57822 0.0
O39 O 0.29927 0.69545 0.58752 0.0
O40 O 0.33435 0.75965 0.53232 0.0
O41 O 0.34679 0.72911 0.50454 0.0
O42 O 0.53826 0.08441 0.96718 0.0
Cd43 Cd 0.55564 0.0798 0.88506 0.0
Cd44 Cd 0.51617 0.08095 0.83521 0.0
O45 O 0.50801 0.09244 0.92528 0.0
O46 O 0.58405 0.08658 0.91596 0.0
O47 O 0.56768 0.10481 0.84137 0.0
C48 C 0.58366 0.10232 0.87794 0.0
C49 C 0.50334 0.09348 0.73738 0.0
C50 C 0.51982 0.09091 0.97401 0.0
C51 C 0.54032 0.04117 0.8231 0.0
O52 O 0.5227 0.04987 0.82584 0.0
O53 O 0.55642 0.05105 0.84043 0.0
O54 O 0.49162 0.08404 0.7781 0.0
O55 O 0.52208 0.09763 0.75498 0.0
O56 O 0.17013 0.70799 0.30187 0.0
Cd57 Cd 0.1718 0.69238 0.38858 0.0
Cd58 Cd 0.16738 0.73023 0.43195 0.0
O59 O 0.15569 0.73615 0.34085 0.0
O60 O 0.16435 0.66306 0.36964 0.0
O61 O 0.14419 0.68446 0.42476 0.0
C62 C 0.14691 0.66661 0.3979 0.0
C63 C 0.15339 0.74212 0.52861 0.0
C64 C 0.16094 0.72516 0.29275 0.0
C65 C 0.20824 0.71024 0.45269 0.0
O66 O 0.19891 0.72715 0.44156 0.0
O67 O 0.19901 0.69319 0.44217 0.0
O68 O 0.16137 0.75465 0.48717 0.0
O69 O 0.15154 0.72289 0.5124 0.0
O70 O 0.54391 0.91975 0.55355 0.0
Cd71 Cd 0.55914 0.92165 0.64086 0.0
Cd72 Cd 0.52022 0.91966 0.68181 0.0
O73 O 0.51448 0.90753 0.59098 0.0
O74 O 0.5885 0.91447 0.62144 0.0
O75 O 0.56746 0.89415 0.67721 0.0
C76 C 0.58524 0.89705 0.65002 0.0
C77 C 0.50767 0.90676 0.77917 0.0
C78 C 0.52639 0.91135 0.54365 0.0
C79 C 0.54239 0.95918 0.7039 0.0
O80 O 0.52501 0.951 0.69086 0.0
O81 O 0.55891 0.94895 0.69407 0.0
O82 O 0.49552 0.91513 0.73735 0.0
O83 O 0.52672 0.90369 0.76257 0.0
O84 O 0.33388 0.29007 0.81047 0.0
Cd85 Cd 0.32917 0.30753 0.89232 0.0
Cd86 Cd 0.33206 0.26865 0.94447 0.0
O87 O 0.34357 0.26062 0.85433 0.0
O88 O 0.33556 0.33603 0.86151 0.0
O89 O 0.35409 0.31979 0.9357 0.0
C90 C 0.35138 0.33576 0.89923 0.0
C91 C 0.34549 0.25582 0.04116 0.0
C92 C 0.34112 0.27186 0.80468 0.0
C93 C 0.29134 0.29129 0.95631 0.0
O94 O 0.30076 0.27403 0.95479 0.0
O95 O 0.30051 0.30764 0.93751 0.0
O96 O 0.33617 0.24399 1.00052 0.0
O97 O 0.34874 0.27483 0.02459 0.0
O98 O 0.96176 0.0832 0.05565 0.0
Cd99 Cd 0.94382 0.07891 0.13684 0.0
Cd100 Cd 0.98308 0.08018 0.18874 0.0
O101 O 0.99148 0.09198 0.09959 0.0
O102 O 0.91571 0.08541 0.10313 0.0
O103 O 0.93135 0.10413 0.17814 0.0
C104 C 0.9158 0.10145 0.13995 0.0
C105 C 0.99644 0.09212 0.28647 0.0
C106 C 0.98015 0.08996 0.04998 0.0
C107 C 0.95881 0.04041 0.19953 0.0
O108 O 0.97645 0.04909 0.19692 0.0
O109 O 0.94273 0.0503 0.18225 0.0
O110 O 0.00786 0.08261 0.24512 0.0
O111 O 0.97772 0.09663 0.26963 0.0
O112 O 0.83021 0.70787 0.80255 0.0
Cd113 Cd 0.82801 0.69211 0.88889 0.0
Cd114 Cd 0.83231 0.73011 0.9331 0.0
O115 O 0.84421 0.73616 0.84226 0.0
O116 O 0.8351 0.66275 0.86926 0.0
O117 O 0.85533 0.68362 0.92599 0.0
C118 C 0.85245 0.6659 0.89844 0.0
C119 C 0.84603 0.74225 0.02991 0.0
C120 C 0.83929 0.72514 0.79391 0.0
C121 C 0.79133 0.71 0.95215 0.0
O122 O 0.80076 0.72693 0.94207 0.0
O123 O 0.80055 0.69296 0.94118 0.0
O124 O 0.83801 0.75464 0.98819 0.0
O125 O 0.84805 0.72301 0.014 0.0
O126 O 0.0437 0.07988 0.55792 0.0
Cd127 Cd 0.05996 0.07787 0.64328 0.0
Cd128 Cd 0.02175 0.08067 0.68964 0.0
O129 O 0.01492 0.09237 0.5991 0.0
O130 O 0.0892 0.08438 0.62053 0.0
O131 O 0.06936 0.10514 0.67892 0.0
C132 C 0.0868 0.10174 0.65025 0.0
C133 C 0.00977 0.09411 0.78696 0.0
C134 C 0.02602 0.0882 0.55022 0.0
C135 C 0.04354 0.04064 0.70867 0.0
O136 O 0.02613 0.04927 0.69941 0.0
O137 O 0.06006 0.05047 0.69564 0.0
O138 O 0.99739 0.08562 0.74606 0.0
O139 O 0.02879 0.0969 0.76959 0.0
O140 O 0.66915 0.29234 0.30666 0.0
Cd141 Cd 0.6713 0.3089 0.39147 0.0
Cd142 Cd 0.66898 0.27044 0.43888 0.0
O143 O 0.65734 0.26336 0.34845 0.0
O144 O 0.6652 0.33809 0.36714 0.0
O145 O 0.64417 0.31891 0.42666 0.0
C146 C 0.64784 0.33614 0.39714 0.0
C147 C 0.65576 0.25809 0.53613 0.0
C148 C 0.66115 0.2745 0.29938 0.0
C149 C 0.70873 0.29293 0.4572 0.0
O150 O 0.7003 0.27538 0.44867 0.0
O151 O 0.69874 0.30929 0.4435 0.0
O152 O 0.66452 0.24594 0.49515 0.0
O153 O 0.65259 0.27706 0.51892 0.0
O154 O 0.46108 0.91886 0.05181 0.0
Cd155 Cd 0.44442 0.92047 0.13672 0.0
Cd156 Cd 0.48336 0.9178 0.18374 0.0
O157 O 0.48994 0.90638 0.09262 0.0
O158 O 0.4153 0.91374 0.11265 0.0
O159 O 0.43514 0.89293 0.17073 0.0
C160 C 0.41782 0.8962 0.14125 0.0
C161 C 0.49761 0.90541 0.27967 0.0
C162 C 0.4788 0.91063 0.04391 0.0
C163 C 0.46054 0.95725 0.20521 0.0
O164 O 0.47799 0.94895 0.19426 0.0
O165 O 0.44405 0.94746 0.19138 0.0
O166 O 0.50882 0.91442 0.2367 0.0
O167 O 0.47854 0.9015 0.26531 0.0
O168 O 0.83458 0.29173 0.71309 0.0
Cd169 Cd 0.82998 0.30906 0.63102 0.0
Cd170 Cd 0.83172 0.26972 0.58169 0.0
O171 O 0.84392 0.26188 0.6711 0.0
O172 O 0.83608 0.3374 0.66357 0.0
O173 O 0.85505 0.32169 0.58931 0.0
C174 C 0.85218 0.33733 0.62701 0.0
C175 C 0.84394 0.25733 0.48292 0.0
C176 C 0.84183 0.27358 0.71991 0.0
C177 C 0.79152 0.29303 0.57071 0.0
O178 O 0.80043 0.27553 0.57458 0.0
O179 O 0.8013 0.30939 0.58609 0.0
O180 O 0.83506 0.24531 0.52407 0.0
O181 O 0.84771 0.27615 0.50049 0.0
O182 O 0.45658 0.08066 0.46714 0.0
Cd183 Cd 0.43934 0.07624 0.38466 0.0
Cd184 Cd 0.47772 0.08103 0.33432 0.0
O185 O 0.48499 0.09332 0.42403 0.0
O186 O 0.41075 0.08194 0.41587 0.0
O187 O 0.42682 0.10142 0.34353 0.0
C188 C 0.41098 0.09828 0.38028 0.0
C189 C 0.48997 0.09427 0.23655 0.0
C190 C 0.47411 0.08936 0.47355 0.0
C191 C 0.45729 0.03924 0.3232 0.0
O192 O 0.47406 0.04943 0.32696 0.0
O193 O 0.44021 0.04782 0.33798 0.0
O194 O 0.50222 0.08598 0.27812 0.0
O195 O 0.4708 0.09665 0.25268 0.0
O196 O 0.67024 0.71008 0.22374 0.0
Cd197 Cd 0.6725 0.69459 0.13705 0.0
Cd198 Cd 0.66984 0.73341 0.0949 0.0
O199 O 0.6574 0.73912 0.18523 0.0
O200 O 0.66523 0.66529 0.15674 0.0
O201 O 0.64505 0.68633 0.10051 0.0
C202 C 0.64783 0.66861 0.1281 0.0
C203 C 0.65733 0.74609 0.99732 0.0
C204 C 0.66138 0.72742 0.23289 0.0
C205 C 0.70963 0.71169 0.07315 0.0
O206 O 0.70121 0.72892 0.08643 0.0
O207 O 0.69979 0.69499 0.08375 0.0
O208 O 0.66552 0.75818 0.03962 0.0
O209 O 0.65415 0.72703 0.0136 0.0
O210 O 0.04063 0.91377 0.962 0.0
Cd211 Cd 0.05785 0.91873 0.8798 0.0
Cd212 Cd 0.01845 0.91763 0.83065 0.0
O213 O 0.01044 0.90553 0.92011 0.0
O214 O 0.08633 0.91214 0.91035 0.0
O215 O 0.07006 0.89393 0.83552 0.0
C216 C 0.08604 0.89645 0.87211 0.0
C217 C 0.00597 0.90545 0.73193 0.0
C218 C 0.02228 0.90704 0.96881 0.0
C219 C 0.0422 0.95763 0.82071 0.0
O220 O 0.02461 0.94885 0.82345 0.0
O221 O 0.0584 0.94769 0.83663 0.0
O222 O 0.99404 0.91449 0.77294 0.0
O223 O 0.02475 0.90152 0.74959 0.0
O224 O 0.67168 0.79123 0.72293 0.0
Cd225 Cd 0.67312 0.80722 0.63674 0.0
Cd226 Cd 0.66868 0.76887 0.59214 0.0
O227 O 0.65722 0.7631 0.68361 0.0
O228 O 0.66617 0.83654 0.65736 0.0
O229 O 0.64538 0.81565 0.60268 0.0
C230 C 0.64853 0.83337 0.62994 0.0
C231 C 0.65516 0.75558 0.49669 0.0
C232 C 0.66244 0.77406 0.7318 0.0
C233 C 0.70879 0.7896 0.56671 0.0
O234 O 0.70003 0.77256 0.58007 0.0
O235 O 0.69967 0.80652 0.57988 0.0
O236 O 0.66358 0.74375 0.53922 0.0
O237 O 0.65242 0.77483 0.51147 0.0
O238 O 0.45923 0.41912 0.96909 0.0
Cd239 Cd 0.44154 0.42288 0.88711 0.0
Cd240 Cd 0.48059 0.4209 0.8361 0.0
O241 O 0.48872 0.40932 0.92572 0.0
O242 O 0.4133 0.41619 0.9195 0.0
O243 O 0.42966 0.39731 0.84633 0.0
C244 C 0.41384 0.39997 0.88347 0.0
C245 C 0.49385 0.40853 0.73879 0.0
C246 C 0.47746 0.41196 0.97522 0.0
C247 C 0.45692 0.46084 0.82257 0.0
O248 O 0.47446 0.45204 0.82669 0.0
O249 O 0.44067 0.45116 0.83962 0.0
O250 O 0.50539 0.41793 0.78005 0.0
O251 O 0.47505 0.40432 0.75562 0.0
O252 O 0.8331 0.20957 0.21252 0.0
Cd253 Cd 0.82935 0.19219 0.13001 0.0
Cd254 Cd 0.8319 0.23103 0.07886 0.0
O255 O 0.84304 0.23906 0.1695 0.0
O256 O 0.83624 0.16377 0.16039 0.0
O257 O 0.85481 0.1807 0.08771 0.0
C258 C 0.85227 0.16454 0.12354 0.0
C259 C 0.84535 0.24397 0.98231 0.0
C260 C 0.84023 0.2278 0.21895 0.0
C261 C 0.79162 0.20785 0.06496 0.0
O262 O 0.80071 0.22528 0.06793 0.0
O263 O 0.80101 0.19156 0.08312 0.0
O264 O 0.83593 0.25574 0.02288 0.0
O265 O 0.84873 0.22499 0.99893 0.0
O266 O 0.03997 0.58275 0.47472 0.0
Cd267 Cd 0.05569 0.5801 0.3885 0.0
Cd268 Cd 0.01634 0.58063 0.34593 0.0
O269 O 0.00999 0.59309 0.43588 0.0
O270 O 0.08497 0.58698 0.41012 0.0
O271 O 0.06487 0.60721 0.35098 0.0
C272 C 0.08232 0.6042 0.3799 0.0
C273 C 0.00339 0.5927 0.24802 0.0
C274 C 0.02205 0.5904 0.48356 0.0
C275 C 0.0399 0.54161 0.32755 0.0
O276 O 0.02221 0.54942 0.33853 0.0
O277 O 0.05608 0.55232 0.33791 0.0
O278 O 0.99155 0.58397 0.29002 0.0
O279 O 0.0223 0.59652 0.26459 0.0
O280 O 0.66681 0.21019 0.80529 0.0
Cd281 Cd 0.6708 0.19253 0.88723 0.0
Cd282 Cd 0.669 0.23157 0.93809 0.0
O283 O 0.65717 0.2397 0.84878 0.0
O284 O 0.66396 0.16429 0.85521 0.0
O285 O 0.64535 0.1807 0.92895 0.0
C286 C 0.64785 0.16487 0.89176 0.0
C287 C 0.65691 0.24477 0.03584 0.0
C288 C 0.65967 0.22842 0.79926 0.0
C289 C 0.70902 0.20795 0.95002 0.0
O290 O 0.70018 0.22547 0.94635 0.0
O291 O 0.69929 0.19168 0.93346 0.0
O292 O 0.66618 0.25634 0.99434 0.0
O293 O 0.65267 0.22597 0.01909 0.0
O294 O 0.04277 0.42066 0.05529 0.0
Cd295 Cd 0.05808 0.42253 0.14228 0.0
Cd296 Cd 0.01918 0.42012 0.18443 0.0
O297 O 0.01321 0.4087 0.09262 0.0
O298 O 0.08754 0.4163 0.12147 0.0
O299 O 0.06742 0.39515 0.1775 0.0
C300 C 0.08503 0.39877 0.15014 0.0
C301 C 0.00694 0.40611 0.28081 0.0
C302 C 0.02513 0.41255 0.04531 0.0
C303 C 0.04118 0.45981 0.20701 0.0
O304 O 0.02375 0.45145 0.19564 0.0
O305 O 0.0577 0.4498 0.19536 0.0
O306 O 0.99464 0.41469 0.23988 0.0
O307 O 0.02608 0.4037 0.26421 0.0
O308 O 0.8334 0.78879 0.30058 0.0
Cd309 Cd 0.8282 0.80556 0.3837 0.0
Cd310 Cd 0.8303 0.76607 0.43046 0.0
O311 O 0.84288 0.75881 0.3414 0.0
O312 O 0.83435 0.83426 0.35423 0.0
O313 O 0.85297 0.81786 0.42784 0.0
C314 C 0.85019 0.83393 0.39186 0.0
C315 C 0.8426 0.75352 0.52874 0.0
C316 C 0.84088 0.77075 0.29316 0.0
C317 C 0.78976 0.78868 0.44178 0.0
O318 O 0.79894 0.77136 0.43703 0.0
O319 O 0.79937 0.80532 0.42825 0.0
O320 O 0.83384 0.74153 0.48731 0.0
O321 O 0.84617 0.77243 0.51167 0.0
O322 O 0.45823 0.58456 0.55595 0.0
Cd323 Cd 0.44091 0.58066 0.63873 0.0
Cd324 Cd 0.48012 0.58297 0.68902 0.0
O325 O 0.48788 0.59426 0.59844 0.0
O326 O 0.41239 0.58738 0.60871 0.0
O327 O 0.42928 0.60607 0.6811 0.0
C328 C 0.41308 0.60341 0.64554 0.0
C329 C 0.49387 0.59582 0.78522 0.0
C330 C 0.47648 0.59162 0.54923 0.0
C331 C 0.4567 0.54285 0.70347 0.0
O332 O 0.47416 0.55183 0.69968 0.0
O333 O 0.44039 0.55231 0.68589 0.0
O334 O 0.50522 0.58634 0.74365 0.0
O335 O 0.47489 0.59968 0.76968 0.0
O336 O 0.33348 0.20906 0.31087 0.0
Cd337 Cd 0.32819 0.19208 0.39337 0.0
Cd338 Cd 0.33316 0.23092 0.44258 0.0
O339 O 0.34536 0.23804 0.35268 0.0
O340 O 0.33321 0.16324 0.3631 0.0
O341 O 0.35277 0.17894 0.43594 0.0
C342 C 0.34926 0.16301 0.39991 0.0
C343 C 0.34617 0.24268 0.54098 0.0
C344 C 0.34204 0.22663 0.30387 0.0
C345 C 0.29146 0.21066 0.45637 0.0
O346 O 0.30165 0.22739 0.45129 0.0
O347 O 0.2998 0.19359 0.44017 0.0
O348 O 0.33815 0.25518 0.49958 0.0
O349 O 0.34883 0.22365 0.52361 0.0
O350 O 0.54115 0.58404 0.05701 0.0
Cd351 Cd 0.55704 0.58182 0.14288 0.0
Cd352 Cd 0.51813 0.58317 0.18684 0.0
O353 O 0.51156 0.59524 0.09633 0.0
O354 O 0.58625 0.58866 0.12042 0.0
O355 O 0.56621 0.60907 0.17924 0.0
C356 C 0.58361 0.606 0.15 0.0
C357 C 0.50575 0.59578 0.28498 0.0
C358 C 0.52334 0.59194 0.04831 0.0
C359 C 0.5411 0.54374 0.20499 0.0
O360 O 0.5235 0.55187 0.19487 0.0
O361 O 0.55741 0.55416 0.19389 0.0
O362 O 0.4936 0.58722 0.24355 0.0
O363 O 0.52469 0.59913 0.26777 0.0
O364 O 0.16668 0.78836 0.79847 0.0
Cd365 Cd 0.17199 0.80536 0.88093 0.0
Cd366 Cd 0.1701 0.7659 0.92857 0.0
O367 O 0.15721 0.75848 0.84009 0.0
O368 O 0.16586 0.83383 0.84968 0.0
O369 O 0.14718 0.8179 0.92428 0.0
C370 C 0.1499 0.83364 0.88686 0.0
C371 C 0.15807 0.75338 0.02726 0.0
C372 C 0.1591 0.77034 0.79162 0.0
C373 C 0.21063 0.78875 0.93803 0.0
O374 O 0.20146 0.77139 0.93399 0.0
O375 O 0.20093 0.80533 0.92461 0.0
O376 O 0.16684 0.74141 0.9858 0.0
O377 O 0.15439 0.77226 1.0101 0.0
O378 O 0.96075 0.41751 0.55277 0.0
Cd379 Cd 0.94408 0.42247 0.63623 0.0
Cd380 Cd 0.98375 0.42058 0.68243 0.0
O381 O 0.99083 0.40807 0.59291 0.0
O382 O 0.91537 0.4163 0.60694 0.0
O383 O 0.93186 0.39758 0.68007 0.0
C384 C 0.91575 0.40038 0.64429 0.0
C385 C 0.99695 0.4085 0.78034 0.0
C386 C 0.97881 0.41014 0.54487 0.0
C387 C 0.9609 0.461 0.69379 0.0
O388 O 0.97826 0.45191 0.68871 0.0
O389 O 0.94429 0.45128 0.68082 0.0
O390 O 0.00863 0.41726 0.73807 0.0
O391 O 0.97792 0.40492 0.76467 0.0
O392 O 0.32941 0.79322 0.21348 0.0
Cd393 Cd 0.3282 0.80829 0.12587 0.0
Cd394 Cd 0.3324 0.76982 0.08497 0.0
O395 O 0.34371 0.76458 0.17723 0.0
O396 O 0.33552 0.83769 0.14396 0.0
O397 O 0.3561 0.81601 0.09152 0.0
C398 C 0.3532 0.83399 0.11739 0.0
C399 C 0.34649 0.75752 0.98892 0.0
C400 C 0.33861 0.77615 0.22421 0.0
C401 C 0.2923 0.79025 0.05816 0.0
O402 O 0.30103 0.77328 0.07269 0.0
O403 O 0.30156 0.80724 0.06958 0.0
O404 O 0.33841 0.74516 0.03068 0.0
O405 O 0.34857 0.77677 1.00481 0.0
O406 O 0.95801 0.57915 0.97347 0.0
Cd407 Cd 0.94209 0.57779 0.8872 0.0
Cd408 Cd 0.98039 0.58237 0.8426 0.0
O409 O 0.98616 0.59364 0.93435 0.0
O410 O 0.91275 0.58482 0.90739 0.0
O411 O 0.93379 0.60554 0.85295 0.0
C412 C 0.91601 0.60244 0.87993 0.0
C413 C 0.99347 0.59614 0.74712 0.0
C414 C 0.9752 0.58834 0.98249 0.0
C415 C 0.95979 0.54218 0.81714 0.0
O416 O 0.97682 0.55103 0.83018 0.0
O417 O 0.94285 0.55123 0.8305 0.0
O418 O 0.00541 0.58776 0.78939 0.0
O419 O 0.97421 0.59869 0.76215 0.0
O420 O 0.16962 0.20972 0.72309 0.0
Cd421 Cd 0.17219 0.19376 0.63719 0.0
Cd422 Cd 0.16866 0.23233 0.59267 0.0
O423 O 0.15649 0.23839 0.68308 0.0
O424 O 0.16661 0.16429 0.65945 0.0
O425 O 0.14524 0.18352 0.60133 0.0
C426 C 0.14919 0.16616 0.62976 0.0
C427 C 0.15565 0.24524 0.49587 0.0
C428 C 0.16086 0.22716 0.73148 0.0
C429 C 0.20919 0.21138 0.57408 0.0
O430 O 0.20013 0.22849 0.58441 0.0
O431 O 0.19965 0.19452 0.58503 0.0
O432 O 0.16388 0.25723 0.53832 0.0
O433 O 0.15298 0.22601 0.51106 0.0
O434 O 0.54127 0.42094 0.46802 0.0
Cd435 Cd 0.55767 0.42337 0.38301 0.0
Cd436 Cd 0.51928 0.42103 0.33612 0.0
O437 O 0.51232 0.40907 0.42626 0.0
O438 O 0.58688 0.41705 0.40637 0.0
O439 O 0.56745 0.39632 0.34664 0.0
C440 C 0.58476 0.39979 0.37592 0.0
C441 C 0.50705 0.408 0.2385 0.0
C442 C 0.52348 0.41282 0.4753 0.0
C443 C 0.54149 0.461 0.31907 0.0
O444 O 0.52401 0.45243 0.32738 0.0
O445 O 0.55792 0.45103 0.33211 0.0
O446 O 0.49483 0.41657 0.2797 0.0
O447 O 0.52604 0.40494 0.25564 0.0
C448 C 0.26051 0.27353 1.00373 0.0
C449 C 0.27006 0.29208 0.98397 0.0
C450 C 0.24102 0.27347 0.03302 0.0
C451 C 0.23002 0.29194 0.04412 0.0
H452 H 0.26817 0.25878 0.99694 0.0
H453 H 0.23454 0.25866 0.04695 0.0
S454 S 0.24788 0.34486 1.0012 0.0
N455 N 0.26688 0.32957 0.97742 0.0
N456 N 0.23013 0.32944 0.03241 0.0
C457 C 0.23928 0.31068 0.02448 0.0
C458 C 0.25926 0.31074 0.99441 0.0
C459 C 0.97537 0.9888 0.26999 0.0
C460 C 0.9566 0.97891 0.28557 0.0
C461 C 0.97575 0.00836 0.24131 0.0
C462 C 0.95739 0.0191 0.22657 0.0
H463 H 0.99007 0.98139 0.27994 0.0
H464 H 0.99073 0.01513 0.23091 0.0
S465 S 0.90396 1.00015 0.25685 0.0
N466 N 0.919 0.98136 0.28356 0.0
N467 N 0.91973 0.01828 0.22965 0.0
C468 C 0.93842 0.00943 0.24151 0.0
C469 C 0.93803 0.98938 0.27106 0.0
C470 C 0.23796 0.69298 0.51003 0.0
C471 C 0.22943 0.71072 0.48083 0.0
C472 C 0.25748 0.69357 0.53999 0.0
C473 C 0.26925 0.71193 0.54203 0.0
H474 H 0.22939 0.67857 0.51058 0.0
H475 H 0.26333 0.67953 0.56188 0.0
S476 S 0.2545 0.76239 0.4688 0.0
N477 N 0.23478 0.74696 0.45337 0.0
N478 N 0.27115 0.74813 0.50935 0.0
C479 C 0.26098 0.72971 0.5121 0.0
C480 C 0.2412 0.72908 0.4816 0.0
C481 C 0.52353 0.00988 0.7754 0.0
C482 C 0.54178 0.01996 0.79522 0.0
C483 C 0.52406 0.9905 0.74549 0.0
C484 C 0.54287 0.98014 0.73384 0.0
H485 H 0.50855 0.01704 0.78251 0.0
H486 H 0.50945 0.98362 0.73152 0.0
S487 S 0.59522 0.99952 0.77687 0.0
N488 N 0.57936 0.01795 0.80137 0.0
N489 N 0.58035 0.98138 0.74525 0.0
C490 C 0.56131 0.98991 0.75366 0.0
C491 C 0.56077 0.00979 0.78432 0.0
C492 C 0.74179 0.69289 0.03704 0.0
C493 C 0.73037 0.7114 0.04183 0.0
C494 C 0.76128 0.69241 1.00685 0.0
C495 C 0.77009 0.71041 0.98003 0.0
H496 H 0.73574 0.67867 0.0573 0.0
H497 H 0.76961 0.67787 1.00548 0.0
S498 S 0.74573 0.76252 0.97471 0.0
N499 N 0.7289 0.74798 0.01364 0.0
N500 N 0.76523 0.74705 0.95714 0.0
C501 C 0.75858 0.72891 0.98315 0.0
C502 C 0.73884 0.72942 0.01396 0.0
C503 C 0.02507 0.98968 0.77942 0.0
C504 C 0.04348 0.97911 0.79484 0.0
C505 C 0.0254 0.00934 0.75136 0.0
C506 C 0.04415 0.0195 0.73722 0.0
H507 H 0.01012 0.98267 0.78859 0.0
H508 H 0.01068 0.0166 0.74067 0.0
S509 S 0.09685 0.99885 0.76878 0.0
N510 N 0.08114 0.98045 0.79438 0.0
N511 N 0.08175 0.01754 0.74169 0.0
C512 C 0.06275 0.00925 0.75278 0.0
C513 C 0.06242 0.98909 0.78159 0.0
C514 C 0.74005 0.27534 0.50185 0.0
C515 C 0.72984 0.2939 0.48593 0.0
C516 C 0.75966 0.27538 0.53028 0.0
C517 C 0.77011 0.29397 0.54429 0.0
H518 H 0.73287 0.2605 0.49235 0.0
H519 H 0.7667 0.26055 0.5409 0.0
S520 S 0.75021 0.34698 0.51307 0.0
N521 N 0.73164 0.33155 0.48704 0.0
N522 N 0.76862 0.33161 0.54042 0.0
C523 C 0.76008 0.31273 0.52919 0.0
C524 C 0.73998 0.31269 0.50001 0.0
C525 C 0.44107 0.98919 0.23997 0.0
C526 C 0.45971 0.9779 0.23699 0.0
C527 C 0.44017 0.00874 0.26967 0.0
C528 C 0.45788 0.01776 0.29755 0.0
H529 H 0.4271 0.98303 0.21842 0.0
H530 H 0.42561 0.01705 0.26932 0.0
S531 S 0.51 0.99372 0.30899 0.0
N532 N 0.49598 0.97669 0.26906 0.0
N533 N 0.49425 0.01318 0.32442 0.0
C534 C 0.47644 0.00634 0.29672 0.0
C535 C 0.47737 0.98651 0.26658 0.0
C536 C 0.74132 0.80745 0.52894 0.0
C537 C 0.72909 0.78943 0.53272 0.0
C538 C 0.7606 0.80736 0.49744 0.0
C539 C 0.76839 0.78925 0.4684 0.0
H540 H 0.73614 0.82167 0.5514 0.0
H541 H 0.76971 0.82144 0.49746 0.0
S542 S 0.74136 0.73858 0.45794 0.0
N543 N 0.72554 0.7534 0.49983 0.0
N544 N 0.76153 0.75328 0.44105 0.0
C545 C 0.75595 0.77136 0.46979 0.0
C546 C 0.73641 0.77143 0.50183 0.0
C547 C 0.47438 0.49234 0.77887 0.0
C548 C 0.45583 0.48196 0.79395 0.0
C549 C 0.47434 0.5117 0.74886 0.0
C550 C 0.45574 0.52174 0.73227 0.0
H551 H 0.48924 0.48546 0.79007 0.0
H552 H 0.48916 0.51884 0.73882 0.0
S553 S 0.40275 0.50137 0.76101 0.0
N554 N 0.4182 0.48323 0.78981 0.0
N555 N 0.41811 0.51978 0.73345 0.0
C556 C 0.43699 0.51161 0.74696 0.0
C557 C 0.43704 0.49176 0.77784 0.0
C558 C 0.7407 0.22547 0.9922 0.0
C559 C 0.7303 0.20691 0.97746 0.0
C560 C 0.76023 0.22546 0.02112 0.0
C561 C 0.77042 0.20688 0.03693 0.0
H562 H 0.7337 0.24032 0.98161 0.0
H563 H 0.76737 0.24029 0.03102 0.0
S564 S 0.75012 0.15385 1.00838 0.0
N565 N 0.73176 0.16927 0.98087 0.0
N566 N 0.76862 0.16924 0.03521 0.0
C567 C 0.76029 0.18811 0.02249 0.0
C568 C 0.74027 0.18813 0.99271 0.0
C569 C 0.02306 0.49058 0.25338 0.0
C570 C 0.04179 0.48075 0.23703 0.0
C571 C 0.02276 0.50994 0.28346 0.0
C572 C 0.04118 0.52053 0.29864 0.0
H573 H 0.00833 0.48326 0.24312 0.0
H574 H 0.00782 0.51669 0.29438 0.0
S575 S 0.09452 0.50164 0.26667 0.0
N576 N 0.0794 0.48309 0.23883 0.0
N577 N 0.07884 0.51961 0.29522 0.0
C578 C 0.0601 0.51092 0.28284 0.0
C579 C 0.0604 0.49106 0.25211 0.0
C580 C 0.25852 0.19292 0.4909 0.0
C581 C 0.27035 0.21117 0.48539 0.0
C582 C 0.23896 0.193 0.52058 0.0
C583 C 0.2304 0.21132 0.54599 0.0
H584 H 0.26439 0.17841 0.47223 0.0
H585 H 0.2304 0.1786 0.52294 0.0
S586 S 0.25535 0.2632 0.54655 0.0
N587 N 0.27212 0.24805 0.50968 0.0
N588 N 0.23564 0.24813 0.56524 0.0
C589 C 0.24216 0.22964 0.54136 0.0
C590 C 0.26201 0.22958 0.51114 0.0
C591 C 0.52371 0.49227 0.27481 0.0
C592 C 0.54232 0.48222 0.2911 0.0
C593 C 0.52363 0.51189 0.24642 0.0
C594 C 0.54215 0.52252 0.23287 0.0
H595 H 0.50891 0.48492 0.28377 0.0
H596 H 0.50876 0.51878 0.23531 0.0
S597 S 0.59527 0.50319 0.26584 0.0
N598 N 0.57994 0.48445 0.29136 0.0
N599 N 0.57979 0.52145 0.23806 0.0
C600 C 0.56096 0.51272 0.24879 0.0
C601 C 0.56105 0.4926 0.27786 0.0
C602 C 0.25962 0.80793 0.0212 0.0
C603 C 0.27184 0.78992 0.02524 0.0
C604 C 0.24014 0.80768 0.99096 0.0
C605 C 0.23215 0.78941 0.96347 0.0
H606 H 0.26496 0.82227 0.04253 0.0
H607 H 0.23106 0.82178 0.99073 0.0
S608 S 0.25903 0.73865 0.95425 0.0
N609 N 0.27514 0.7537 0.99425 0.0
N610 N 0.23879 0.75327 0.93778 0.0
C611 C 0.24456 0.77151 0.9651 0.0
C612 C 0.26431 0.77174 0.99588 0.0
C613 C 0.94218 0.49015 0.74924 0.0
C614 C 0.96028 0.48241 0.72002 0.0
C615 C 0.94204 0.5095 0.78031 0.0
C616 C 0.96 0.52183 0.78347 0.0
H617 H 0.92815 0.48097 0.74974 0.0
H618 H 0.92784 0.51465 0.80296 0.0
S619 S 0.01077 0.50969 0.70793 0.0
N620 N 0.99615 0.48941 0.69178 0.0
N621 N 0.99594 0.52553 0.74977 0.0
C622 C 0.97799 0.51456 0.75237 0.0
C623 C 0.9781 0.49494 0.72077 0.0
C624 C 0.15794 0.22727 0.91392 0.0
C625 C 0.15374 0.24807 0.9293 0.0
C626 C 0.15938 0.22061 0.85 0.0
C627 C 0.15666 0.23442 0.79828 0.0
H628 H 0.16104 0.2161 0.95157 0.0
H629 H 0.16332 0.20455 0.84129 0.0
S630 S 0.14299 0.2901 0.81208 0.0
N631 N 0.14508 0.28214 0.88725 0.0
N632 N 0.1477 0.26961 0.76695 0.0
C633 C 0.15114 0.25501 0.81278 0.0
C634 C 0.14969 0.26183 0.87823 0.0
C635 C 0.99326 0.90222 0.0486 0.0
C636 C 0.01461 0.90226 0.03479 0.0
C637 C 0.98601 0.90096 0.11236 0.0
C638 C 0.99986 0.89972 0.16454 0.0
H639 H 0.98208 0.90429 1.01034 0.0
H640 H 0.96953 0.9023 0.12093 0.0
S641 S 0.057 0.89518 0.15364 0.0
N642 N 0.04933 0.89785 0.0784 0.0
N643 N 0.0357 0.89574 0.19749 0.0
C644 C 0.02111 0.89809 0.15097 0.0
C645 C 0.02848 0.8993 0.08633 0.0
C646 C 0.34767 0.74194 0.37107 0.0
C647 C 0.34588 0.75597 0.42269 0.0
C648 C 0.34612 0.74864 0.30687 0.0
C649 C 0.34265 0.76962 0.29178 0.0
H650 H 0.34923 0.72551 0.38023 0.0
H651 H 0.34676 0.73715 0.26899 0.0
S652 S 0.34024 0.81301 0.40886 0.0
N653 N 0.34293 0.79214 0.45385 0.0
N654 N 0.34001 0.80468 0.33385 0.0
C655 C 0.3422 0.78395 0.34286 0.0
C656 C 0.34383 0.77714 0.40805 0.0
C657 C 0.47504 0.0932 0.65574 0.0
C658 C 0.49602 0.0967 0.67022 0.0
C659 C 0.4681 0.09183 0.59212 0.0
C660 C 0.48179 0.09385 0.53975 0.0
H661 H 0.46391 0.09063 0.69392 0.0
H662 H 0.45187 0.08844 0.5842 0.0
S663 S 0.53797 0.10551 0.55109 0.0
N664 N 0.53023 0.10399 0.62664 0.0
N665 N 0.51715 0.10142 0.50682 0.0
C666 C 0.50261 0.0987 0.5533 0.0
C667 C 0.50972 0.10013 0.6185 0.0
C668 C 0.15357 0.74182 0.71095 0.0
C669 C 0.15364 0.76308 0.72589 0.0
C670 C 0.15172 0.73496 0.647 0.0
C671 C 0.14987 0.74912 0.59576 0.0
H672 H 0.15612 0.73043 0.74836 0.0
H673 H 0.15312 0.71853 0.63743 0.0
S674 S 0.14493 0.80615 0.61061 0.0
N675 N 0.14849 0.79802 0.68503 0.0
N676 N 0.14519 0.78514 0.5654 0.0
C677 C 0.14817 0.77027 0.61072 0.0
C678 C 0.15002 0.77725 0.6756 0.0
C679 C 0.47264 0.90893 0.92517 0.0
C680 C 0.48639 0.9067 0.97726 0.0
C681 C 0.47947 0.90748 0.8614 0.0
C682 C 0.50041 0.90376 0.84653 0.0
H683 H 0.45646 0.91242 0.93346 0.0
H684 H 0.4683 0.91014 0.82345 0.0
S685 S 0.54248 0.89463 0.9649 0.0
N686 N 0.52176 0.89888 1.00949 0.0
N687 N 0.53462 0.89624 0.88952 0.0
C688 C 0.51416 0.90029 0.89801 0.0
C689 C 0.50716 0.90175 0.96329 0.0
C690 C 0.34902 0.26236 0.15967 0.0
C691 C 0.34937 0.24838 0.10766 0.0
C692 C 0.34781 0.25529 0.2236 0.0
C693 C 0.3469 0.23398 0.23771 0.0
H694 H 0.34835 0.27888 0.15089 0.0
H695 H 0.34642 0.2666 0.2618 0.0
S696 S 0.35152 0.1911 0.11948 0.0
N697 N 0.35168 0.21232 0.07523 0.0
N698 N 0.34955 0.19904 0.19468 0.0
C699 C 0.34897 0.21991 0.18634 0.0
C700 C 0.35018 0.2271 0.12154 0.0
C701 C 0.03182 0.08904 0.43127 0.0
C702 C 0.01837 0.09218 0.48371 0.0
C703 C 0.02482 0.09044 0.36771 0.0
C704 C 0.00403 0.09504 0.35342 0.0
H705 H 0.04785 0.08485 0.43912 0.0
H706 H 0.03571 0.08707 0.32951 0.0
S707 S 0.96287 0.10683 0.47268 0.0
N708 N 0.98353 0.10185 0.51677 0.0
N709 N 0.97036 0.10441 0.39712 0.0
C710 C 0.99064 0.09944 0.40514 0.0
C711 C 0.9978 0.09801 0.47023 0.0
C712 C 0.84814 0.73531 0.14845 0.0
C713 C 0.84952 0.74942 0.09693 0.0
C714 C 0.84644 0.74223 0.21239 0.0
C715 C 0.84605 0.76351 0.22711 0.0
H716 H 0.84704 0.71885 0.13916 0.0
H717 H 0.8443 0.73084 0.25004 0.0
S718 S 0.85335 0.80657 0.11078 0.0
N719 N 0.85334 0.78549 0.0659 0.0
N720 N 0.85028 0.79848 0.18547 0.0
C721 C 0.84914 0.77767 0.17643 0.0
C722 C 0.85086 0.77063 0.11156 0.0
C723 C 0.97442 0.09448 0.93189 0.0
C724 C 0.98823 0.09452 0.98431 0.0
C725 C 0.98149 0.09593 0.86842 0.0
C726 C 0.00272 0.09753 0.85423 0.0
H727 H 0.95794 0.09257 0.93956 0.0
H728 H 0.9702 0.09486 0.83004 0.0
S729 S 0.04528 0.10088 0.97384 0.0
N730 N 0.02413 0.09828 0.01779 0.0
N731 N 0.03745 0.101 0.89825 0.0
C732 C 0.01666 0.09905 0.90615 0.0
C733 C 0.00942 0.09753 0.97116 0.0
C734 C 0.65461 0.22972 0.61741 0.0
C735 C 0.65237 0.2509 0.60328 0.0
C736 C 0.65599 0.22264 0.68089 0.0
C737 C 0.65525 0.23641 0.7334 0.0
H738 H 0.6562 0.2185 0.57901 0.0
H739 H 0.65839 0.20623 0.68853 0.0
S740 S 0.64713 0.29323 0.72304 0.0
N741 N 0.64761 0.28546 0.6474 0.0
N742 N 0.6502 0.27215 0.76694 0.0
C743 C 0.65164 0.25751 0.72026 0.0
C744 C 0.65019 0.26474 0.65523 0.0
C745 C 0.49173 0.90142 0.39839 0.0
C746 C 0.50561 0.9028 0.34627 0.0
C747 C 0.49863 0.90339 0.46225 0.0
C748 C 0.51967 0.90685 0.47651 0.0
H749 H 0.47526 0.89992 0.38983 0.0
H750 H 0.48723 0.90309 0.50045 0.0
S751 S 0.56271 0.9082 0.3579 0.0
N752 N 0.54168 0.90533 0.31376 0.0
N753 N 0.55463 0.90897 0.43315 0.0
C754 C 0.53386 0.90683 0.42497 0.0
C755 C 0.52684 0.90481 0.36011 0.0
C756 C 0.843 0.22201 0.33763 0.0
C757 C 0.84433 0.23575 0.28514 0.0
C758 C 0.84429 0.22903 0.4012 0.0
C759 C 0.84702 0.25013 0.41554 0.0
H760 H 0.84027 0.20565 0.32988 0.0
H761 H 0.84231 0.21782 0.43948 0.0
S762 S 0.85366 0.29238 0.2961 0.0
N763 N 0.85029 0.27139 0.25198 0.0
N764 N 0.8527 0.2846 0.3717 0.0
C765 C 0.84967 0.26395 0.36369 0.0
C766 C 0.84831 0.25676 0.29855 0.0
C767 C 0.48347 0.09626 0.11764 0.0
C768 C 0.49729 0.09797 0.16977 0.0
C769 C 0.49073 0.09505 0.05389 0.0
C770 C 0.51207 0.09551 0.04001 0.0
H771 H 0.46702 0.09458 0.12627 0.0
H772 H 0.47959 0.09265 0.01569 0.0
S773 S 0.55432 0.10384 0.15853 0.0
N774 N 0.53306 0.10288 0.20247 0.0
N775 N 0.54668 0.1008 0.08339 0.0
C776 C 0.52588 0.09887 0.09145 0.0
C777 C 0.5185 0.10006 0.15609 0.0
C778 C 0.65988 0.77397 0.91441 0.0
C779 C 0.65475 0.75337 0.92982 0.0
C780 C 0.66167 0.78054 0.85047 0.0
C781 C 0.65834 0.76687 0.79875 0.0
H782 H 0.6634 0.78502 0.95202 0.0
H783 H 0.66624 0.79643 0.84173 0.0
S784 S 0.64238 0.71179 0.81258 0.0
N785 N 0.64475 0.71967 0.88775 0.0
N786 N 0.64798 0.73206 0.76746 0.0
C787 C 0.65202 0.74651 0.81328 0.0
C788 C 0.65024 0.73977 0.87873 0.0
C789 C 0.97069 0.9065 0.58662 0.0
C790 C 0.98442 0.90497 0.53415 0.0
C791 C 0.97769 0.90523 0.6502 0.0
C792 C 0.99876 0.90234 0.66459 0.0
H793 H 0.95435 0.90936 0.57882 0.0
H794 H 0.96649 0.90736 0.68845 0.0
S795 S 0.04095 0.89515 0.54524 0.0
N796 N 0.02 0.89865 0.50107 0.0
N797 N 0.03318 0.89628 0.62083 0.0
C798 C 0.01256 0.89949 0.61278 0.0
C799 C 0.00539 0.90082 0.54761 0.0
C800 C 0.6519 0.76206 0.3782 0.0
C801 C 0.65221 0.74796 0.42988 0.0
C802 C 0.65396 0.75528 0.31426 0.0
C803 C 0.65648 0.73414 0.29963 0.0
H804 H 0.65127 0.77857 0.38725 0.0
H805 H 0.65459 0.76679 0.27641 0.0
S806 S 0.6545 0.69069 0.4165 0.0
N807 N 0.65245 0.71169 0.46125 0.0
N808 N 0.65632 0.69898 0.34163 0.0
C809 C 0.65526 0.7198 0.35052 0.0
C810 C 0.65311 0.7267 0.41543 0.0
C811 C 0.52229 0.40969 0.65765 0.0
C812 C 0.5014 0.40552 0.67183 0.0
C813 C 0.52931 0.4112 0.59413 0.0
C814 C 0.51578 0.4086 0.54163 0.0
H815 H 0.53325 0.41268 0.69594 0.0
H816 H 0.54543 0.41508 0.58638 0.0
S817 S 0.45998 0.3951 0.55231 0.0
N818 N 0.46753 0.39705 0.62793 0.0
N819 N 0.48074 0.39981 0.50832 0.0
C820 C 0.49509 0.40314 0.55496 0.0
C821 C 0.48791 0.40159 0.62001 0.0
C822 C 0.84696 0.24468 0.79984 0.0
C823 C 0.84662 0.26602 0.78593 0.0
C824 C 0.84823 0.2375 0.86364 0.0
C825 C 0.84917 0.2514 0.91577 0.0
H826 H 0.84512 0.23345 0.76159 0.0
H827 H 0.84713 0.221 0.87227 0.0
S828 S 0.85291 0.3086 0.90458 0.0
N829 N 0.85046 0.30083 0.82936 0.0
N830 N 0.85258 0.28733 0.94857 0.0
C831 C 0.8505 0.27267 0.90212 0.0
C832 C 0.84929 0.27997 0.83743 0.0
C833 C 0.97548 0.59006 0.16523 0.0
C834 C 0.99603 0.59536 0.18063 0.0
C835 C 0.96885 0.5885 0.10129 0.0
C836 C 0.98242 0.59223 0.04954 0.0
H837 H 0.96451 0.58625 0.20283 0.0
H838 H 0.953 0.58379 0.09256 0.0
S839 S 0.03734 0.60873 0.06343 0.0
N840 N 0.02957 0.60593 0.13858 0.0
N841 N 0.01708 0.60311 0.01831 0.0
C842 C 0.00273 0.5987 0.06412 0.0
C843 C 0.00953 0.60026 0.12956 0.0
C844 C 0.65967 0.28025 0.18047 0.0
C845 C 0.65707 0.26674 0.23304 0.0
C846 C 0.65818 0.27321 0.11698 0.0
C847 C 0.65401 0.25231 0.10287 0.0
H848 H 0.66352 0.29638 0.18815 0.0
H849 H 0.66114 0.28417 0.07864 0.0
S850 S 0.6437 0.2109 0.22258 0.0
N851 N 0.64837 0.23168 0.26648 0.0
N852 N 0.64563 0.21844 0.14693 0.0
C853 C 0.65013 0.23883 0.15476 0.0
C854 C 0.65167 0.24603 0.21979 0.0
C855 C 0.00722 0.40486 0.46336 0.0
C856 C 0.98596 0.40521 0.47847 0.0
C857 C 0.01404 0.40346 0.39921 0.0
C858 C 0.99986 0.40236 0.34783 0.0
H859 H 0.01867 0.40681 0.50092 0.0
H860 H 0.03049 0.40457 0.38969 0.0
S861 S 0.94273 0.3986 0.3624 0.0
N862 N 0.95092 0.40126 0.43711 0.0
N863 N 0.96374 0.3988 0.3172 0.0
C864 C 0.97867 0.40102 0.36275 0.0
C865 C 0.97173 0.4024 0.42783 0.0
C866 C 0.84 0.71877 0.67525 0.0
C867 C 0.84321 0.73245 0.727 0.0
C868 C 0.84124 0.72549 0.61135 0.0
C869 C 0.84568 0.74625 0.59602 0.0
H870 H 0.83589 0.70275 0.68395 0.0
H871 H 0.83783 0.7144 0.57373 0.0
S872 S 0.85756 0.78798 0.71323 0.0
N873 N 0.85278 0.76748 0.75833 0.0
N874 N 0.855 0.78015 0.63806 0.0
C875 C 0.85014 0.75988 0.64706 0.0
C876 C 0.84892 0.753 0.71249 0.0
C877 C 0.49492 0.59824 0.96767 0.0
C878 C 0.51618 0.59629 0.98156 0.0
C879 C 0.48781 0.59966 0.90386 0.0
C880 C 0.50169 0.59919 0.8516 0.0
H881 H 0.4836 0.59769 1.00606 0.0
H882 H 0.47127 0.59992 0.89545 0.0
S883 S 0.55903 0.59814 0.86234 0.0
N884 N 0.55114 0.59682 0.93773 0.0
N885 N 0.53777 0.59935 0.81849 0.0
C886 C 0.52301 0.59879 0.8651 0.0
C887 C 0.53025 0.59737 0.92984 0.0
C888 C 0.34725 0.27083 0.62306 0.0
C889 C 0.34923 0.24965 0.60857 0.0
C890 C 0.34557 0.27779 0.68661 0.0
C891 C 0.34579 0.26392 0.73889 0.0
H892 H 0.34607 0.28217 0.58485 0.0
H893 H 0.34339 0.29423 0.69446 0.0
S894 S 0.35301 0.20699 0.72776 0.0
N895 N 0.35314 0.21492 0.65226 0.0
N896 N 0.35003 0.22803 0.77194 0.0
C897 C 0.34912 0.24279 0.72549 0.0
C898 C 0.35085 0.23567 0.66037 0.0
C899 C 0.47054 0.5946 0.43061 0.0
C900 C 0.48432 0.59585 0.48297 0.0
C901 C 0.47749 0.59603 0.36697 0.0
C902 C 0.49859 0.59881 0.35243 0.0
H903 H 0.45419 0.59182 0.43852 0.0
H904 H 0.46626 0.5941 0.32879 0.0
S905 S 0.54093 0.60531 0.47155 0.0
N906 N 0.51999 0.60182 0.51582 0.0
N907 N 0.53308 0.60448 0.39603 0.0
C908 C 0.51244 0.60139 0.40419 0.0
C909 C 0.50532 0.59989 0.46939 0.0
C910 C 0.16084 0.71876 0.17409 0.0
C911 C 0.15725 0.73242 0.22568 0.0
C912 C 0.15972 0.72544 0.11013 0.0
C913 C 0.15501 0.74612 0.09457 0.0
H914 H 0.16514 0.70281 0.18298 0.0
H915 H 0.16339 0.71439 0.07266 0.0
S916 S 0.1422 0.78773 0.21126 0.0
N917 N 0.14711 0.76733 0.25657 0.0
N918 N 0.14511 0.77991 0.1362 0.0
C919 C 0.15022 0.75972 0.14543 0.0
C920 C 0.15133 0.75288 0.21091 0.0
C921 C 0.99041 0.40478 0.89889 0.0
C922 C 0.00453 0.40551 0.84725 0.0
C923 C 0.99719 0.4062 0.96305 0.0
C924 C 0.01835 0.40843 0.978 0.0
H925 H 0.97392 0.40421 0.88974 0.0
H926 H 0.98568 0.40647 1.00093 0.0
S927 S 0.06179 0.40754 0.8608 0.0
N928 N 0.04078 0.40603 0.81593 0.0
N929 N 0.05351 0.40862 0.93581 0.0
C930 C 0.03268 0.40773 0.92691 0.0
C931 C 0.02578 0.40628 0.8618 0.0
C932 C 0.34854 0.76463 0.87042 0.0
C933 C 0.34978 0.7504 0.92169 0.0
C934 C 0.34661 0.75787 0.80636 0.0
C935 C 0.34581 0.73663 0.79127 0.0
H936 H 0.34776 0.78109 0.88 0.0
H937 H 0.34462 0.76935 0.76892 0.0
S938 S 0.35253 0.69321 0.90663 0.0
N939 N 0.35297 0.7142 0.95193 0.0
N940 N 0.34947 0.70151 0.83217 0.0
C941 C 0.34871 0.72232 0.84164 0.0
C942 C 0.35068 0.7292 0.90663 0.0
C943 C 0.98694 0.59888 0.62853 0.0
C944 C 0.001 0.59927 0.68028 0.0
C945 C 0.99384 0.59693 0.56467 0.0
C946 C 0.01508 0.59526 0.55015 0.0
H947 H 0.97042 0.59884 0.63752 0.0
H948 H 0.98239 0.59572 0.52682 0.0
S949 S 0.05832 0.59932 0.66731 0.0
N950 N 0.0372 0.60058 0.71188 0.0
N951 N 0.05018 0.597 0.59243 0.0
C952 C 0.02932 0.59721 0.60113 0.0
C953 C 0.02229 0.59921 0.66597 0.0
C954 C 0.15451 0.24549 0.31334 0.0
C955 C 0.15616 0.26672 0.29864 0.0
C956 C 0.15277 0.23863 0.37731 0.0
C957 C 0.15258 0.25274 0.42898 0.0
H958 H 0.15556 0.23401 0.27551 0.0
H959 H 0.15277 0.22212 0.38639 0.0
S960 S 0.1526 0.31005 0.41566 0.0
N961 N 0.15465 0.30185 0.34076 0.0
N962 N 0.15145 0.28897 0.46039 0.0
C963 C 0.15265 0.27402 0.41454 0.0
C964 C 0.15444 0.28099 0.3496 0.0
C965 C 0.47871 0.40698 0.15711 0.0
C966 C 0.49988 0.40471 0.17128 0.0
C967 C 0.47166 0.40838 0.09363 0.0
C968 C 0.48544 0.40762 0.04113 0.0
H969 H 0.46748 0.40857 0.19549 0.0
H970 H 0.45525 0.41079 0.08596 0.0
S971 S 0.54225 0.39943 0.05157 0.0
N972 N 0.53446 0.39992 0.12721 0.0
N973 N 0.52118 0.40253 1.00764 0.0
C974 C 0.50653 0.404 0.05431 0.0
C975 C 0.51374 0.40253 0.11935 0.0
C976 C 0.11093 0.34631 0.13489 0.0
C977 C 0.1321 0.35134 0.13222 0.0
C978 C 0.09584 0.36172 0.143 0.0
C979 C 0.10135 0.38275 0.14712 0.0
H980 H 0.10599 0.3303 0.13207 0.0
H981 H 0.0797 0.35716 0.14464 0.0
S982 S 0.15464 0.40407 0.14173 0.0
N983 N 0.15782 0.3788 0.13467 0.0
N984 N 0.12942 0.40781 0.1476 0.0
C985 C 0.12244 0.388 0.14381 0.0
C986 C 0.13783 0.37228 0.137 0.0
C987 C 0.87159 0.85898 0.32956 0.0
C988 C 0.86556 0.8508 0.38951 0.0
C989 C 0.88709 0.87414 0.32513 0.0
C990 C 0.8965 0.88211 0.38067 0.0
H991 H 0.86468 0.8532 0.28562 0.0
H992 H 0.89164 0.87976 0.2781 0.0
S993 S 0.88596 0.86621 0.5489 0.0
N994 N 0.87029 0.85167 0.50529 0.0
N995 N 0.89869 0.88093 0.49729 0.0
C996 C 0.89032 0.87439 0.44091 0.0
C997 C 0.87503 0.8585 0.44526 0.0
C998 C 0.37267 0.64013 0.57899 0.0
C999 C 0.36525 0.65008 0.63438 0.0
C1000 C 0.38775 0.62455 0.58347 0.0
C1001 C 0.3964 0.61899 0.64319 0.0
H1002 H 0.36668 0.64431 0.5321 0.0
H1003 H 0.39308 0.6172 0.53966 0.0
S1004 S 0.3825 0.64094 0.80204 0.0
N1005 N 0.36745 0.65332 0.75059 0.0
N1006 N 0.39654 0.62476 0.7586 0.0
C1007 C 0.38925 0.62902 0.69876 0.0
C1008 C 0.37345 0.64439 0.69442 0.0
C1009 C 0.62383 0.1395 0.9434 0.0
C1010 C 0.632 0.14852 0.88746 0.0
C1011 C 0.60856 0.12409 0.9396 0.0
C1012 C 0.60046 0.11778 0.87987 0.0
H1013 H 0.62942 0.14425 0.99026 0.0
H1014 H 0.60267 0.11744 0.98381 0.0
S1015 S 0.61631 0.13714 0.71959 0.0
N1016 N 0.63102 0.15006 0.7707 0.0
N1017 N 0.60157 0.12183 0.76386 0.0
C1018 C 0.60831 0.12688 0.82373 0.0
C1019 C 0.62431 0.14207 0.82746 0.0
C1020 C 0.11946 0.61477 0.38718 0.0
C1021 C 0.09849 0.62041 0.38219 0.0
C1022 C 0.13503 0.62982 0.39269 0.0
C1023 C 0.13014 0.65102 0.3955 0.0
H1024 H 0.12391 0.5986 0.38627 0.0
H1025 H 0.15101 0.62479 0.39533 0.0
S1026 S 0.07754 0.67387 0.38573 0.0
N1027 N 0.07364 0.64866 0.38047 0.0
N1028 N 0.10283 0.6769 0.3928 0.0
C1029 C 0.10921 0.65686 0.39137 0.0
C1030 C 0.09341 0.64156 0.38411 0.0
C1031 C 0.63742 0.87037 0.63738 0.0
C1032 C 0.63208 0.84929 0.63331 0.0
C1033 C 0.62217 0.88571 0.64339 0.0
C1034 C 0.60106 0.8805 0.64755 0.0
H1035 H 0.6535 0.87507 0.63526 0.0
H1036 H 0.62696 0.90177 0.64521 0.0
S1037 S 0.57897 0.82752 0.64077 0.0
N1038 N 0.6042 0.82399 0.63412 0.0
N1039 N 0.5756 0.85278 0.64726 0.0
C1040 C 0.59553 0.85947 0.64446 0.0
C1041 C 0.61102 0.84388 0.63676 0.0
C1042 C 0.38828 0.37602 0.83265 0.0
C1043 C 0.39746 0.38417 0.8883 0.0
C1044 C 0.37286 0.36076 0.83695 0.0
C1045 C 0.36673 0.35265 0.89687 0.0
H1046 H 0.3929 0.38159 0.78564 0.0
H1047 H 0.3661 0.35485 0.79294 0.0
S1048 S 0.38654 0.36854 0.05653 0.0
N1049 N 0.39932 0.38324 1.00501 0.0
N1050 N 0.3711 0.3538 0.01276 0.0
C1051 C 0.37598 0.36053 0.95273 0.0
C1052 C 0.39117 0.37652 0.9485 0.0
C1053 C 0.87402 0.13987 0.18603 0.0
C1054 C 0.86796 0.14799 0.12608 0.0
C1055 C 0.88969 0.12488 0.19049 0.0
C1056 C 0.89922 0.11703 0.13496 0.0
H1057 H 0.86697 0.14552 0.22993 0.0
H1058 H 0.89422 0.11927 0.23752 0.0
S1059 S 0.88866 0.13288 0.96674 0.0
N1060 N 0.87279 0.14722 1.01033 0.0
N1061 N 0.90151 0.1183 0.01835 0.0
C1062 C 0.89303 0.12473 0.07473 0.0
C1063 C 0.87758 0.14044 0.07036 0.0
C1064 C 0.8637 0.62893 0.89167 0.0
C1065 C 0.86895 0.65002 0.89632 0.0
C1066 C 0.87902 0.61364 0.88609 0.0
C1067 C 0.90012 0.61892 0.88292 0.0
H1068 H 0.84761 0.62418 0.8928 0.0
H1069 H 0.87428 0.59758 0.88357 0.0
S1070 S 0.92203 0.67195 0.89197 0.0
N1071 N 0.89676 0.67539 0.8975 0.0
N1072 N 0.9255 0.64672 0.88511 0.0
C1073 C 0.90558 0.63996 0.88686 0.0
C1074 C 0.89001 0.65549 0.89414 0.0
C1075 C 0.11244 0.15435 0.63599 0.0
C1076 C 0.13362 0.14941 0.63266 0.0
C1077 C 0.09743 0.13885 0.64393 0.0
C1078 C 0.10304 0.11783 0.64719 0.0
H1079 H 0.10745 0.17034 0.63385 0.0
H1080 H 0.08129 0.14333 0.64617 0.0
S1081 S 0.15639 0.09675 0.6398 0.0
N1082 N 0.15946 0.12206 0.63356 0.0
N1083 N 0.1312 0.09288 0.6461 0.0
C1084 C 0.12414 0.11268 0.64316 0.0
C1085 C 0.13945 0.12848 0.63657 0.0
C1086 C 0.59578 0.36281 0.38226 0.0
C1087 C 0.60116 0.38388 0.37885 0.0
C1088 C 0.61096 0.34749 0.39038 0.0
C1089 C 0.63208 0.35268 0.39369 0.0
H1090 H 0.57969 0.35814 0.3801 0.0
H1091 H 0.60615 0.33144 0.39274 0.0
S1092 S 0.65427 0.40559 0.38599 0.0
N1093 N 0.62904 0.40916 0.37966 0.0
N1094 N 0.65762 0.38032 0.39246 0.0
C1095 C 0.63768 0.37367 0.38951 0.0
C1096 C 0.6222 0.38928 0.38277 0.0
C1097 C 0.36518 0.87074 0.12311 0.0
C1098 C 0.37001 0.84952 0.12083 0.0
C1099 C 0.38074 0.88573 0.13002 0.0
C1100 C 0.40164 0.88003 0.13691 0.0
H1101 H 0.34925 0.87583 0.1191 0.0
H1102 H 0.37633 0.90191 0.13062 0.0
S1103 S 0.42241 0.82648 0.13538 0.0
N1104 N 0.39719 0.82355 0.12605 0.0
N1105 N 0.42636 0.85168 0.14088 0.0
C1106 C 0.40667 0.85885 0.1354 0.0
C1107 C 0.39087 0.84361 0.12679 0.0
C1108 C 0.89057 0.37923 0.58174 0.0
C1109 C 0.89892 0.38496 0.64172 0.0
C1110 C 0.87547 0.36368 0.57699 0.0
C1111 C 0.86773 0.35392 0.63229 0.0
H1112 H 0.89618 0.38641 0.53797 0.0
H1113 H 0.86972 0.35937 0.52992 0.0
S1114 S 0.88415 0.36355 0.80051 0.0
N1115 N 0.89846 0.37956 0.75727 0.0
N1116 N 0.86932 0.35105 0.74872 0.0
C1117 C 0.87563 0.3598 0.69258 0.0
C1118 C 0.89145 0.37514 0.69722 0.0
C1119 C 0.37019 0.13798 0.33609 0.0
C1120 C 0.3641 0.14571 0.39652 0.0
C1121 C 0.38542 0.12256 0.33086 0.0
C1122 C 0.39443 0.11387 0.386 0.0
H1123 H 0.36362 0.14437 0.29245 0.0
H1124 H 0.39011 0.11737 0.2835 0.0
S1125 S 0.38342 0.12833 0.55522 0.0
N1126 N 0.36824 0.14359 0.51232 0.0
N1127 N 0.39608 0.11386 0.5028 0.0
C1128 C 0.38809 0.1211 0.44669 0.0
C1129 C 0.37311 0.13724 0.4519 0.0
C1130 C 0.63615 0.63179 0.13462 0.0
C1131 C 0.63115 0.65295 0.13116 0.0
C1132 C 0.62067 0.6167 0.14117 0.0
C1133 C 0.59969 0.62226 0.14658 0.0
H1134 H 0.65215 0.62683 0.13177 0.0
H1135 H 0.62519 0.60055 0.14258 0.0
S1136 S 0.57849 0.67561 0.14161 0.0
N1137 N 0.60374 0.67872 0.13368 0.0
N1138 N 0.57471 0.6504 0.14793 0.0
C1139 C 0.5945 0.64338 0.14397 0.0
C1140 C 0.61021 0.65871 0.13565 0.0
C1141 C 0.11155 0.87538 0.93371 0.0
C1142 C 0.10288 0.88104 0.87408 0.0
C1143 C 0.12674 0.85991 0.93786 0.0
C1144 C 0.13426 0.85016 0.88227 0.0
H1145 H 0.10614 0.88257 0.97769 0.0
H1146 H 0.13275 0.85566 0.98468 0.0
S1147 S 0.11696 0.85955 0.71477 0.0
N1148 N 0.10281 0.87554 0.75855 0.0
N1149 N 0.1321 0.84717 0.76596 0.0
C1150 C 0.12603 0.85594 0.82232 0.0
C1151 C 0.11013 0.8712 0.8183 0.0
loop_
_geom_bond_atom_site_label_1
_geom_bond_atom_site_label_2
_geom_bond_distance
_geom_bond_site_symmetry_2
_ccdc_geom_bond_type
O0 Cd1 2.223 . S
O0 C8 1.315 . S
Cd1 O0 2.223 . S
Cd1 O4 2.297 . S
Cd1 O5 2.439 . S
Cd1 O11 2.240 . S
Cd2 O3 2.253 . S
Cd2 O10 2.226 . S
Cd2 O12 2.283 1_554 S
Cd2 O13 2.427 1_554 S
O3 Cd2 2.253 . S
O3 C8 1.279 . S
O4 Cd1 2.297 . S
O4 C6 1.247 . S
O5 Cd1 2.439 . S
O5 C6 1.208 . S
C6 O4 1.247 . S
C6 O5 1.208 . S
C7 O12 1.247 . S
C7 O13 1.208 . S
C8 O0 1.315 . S
C8 O3 1.279 . S
C9 O10 1.315 . S
C9 O11 1.279 . S
O10 Cd2 2.226 . S
O10 C9 1.315 . S
O11 Cd1 2.240 . S
O11 C9 1.279 . S
O12 Cd2 2.283 1_556 S
O12 C7 1.247 . S
O13 Cd2 2.427 1_556 S
O13 C7 1.208 . S
O14 Cd15 2.223 . S
O14 C22 1.315 . S
Cd15 O14 2.223 . S
Cd15 O18 2.297 . S
Cd15 O19 2.439 . S
Cd15 O25 2.240 . S
Cd16 O17 2.240 . S
Cd16 O24 2.223 . S
Cd16 O26 2.297 1_655 S
Cd16 O27 2.439 . S
O17 Cd16 2.240 . S
O17 C22 1.279 . S
O18 Cd15 2.297 . S
O18 C20 1.247 . S
O19 Cd15 2.439 . S
O19 C20 1.208 . S
C20 O18 1.247 . S
C20 O19 1.208 . S
C21 O26 1.247 1_655 S
C21 O27 1.208 . S
C22 O14 1.315 . S
C22 O17 1.279 . S
C23 O24 1.315 . S
C23 O25 1.279 . S
O24 Cd16 2.223 . S
O24 C23 1.315 . S
O25 Cd15 2.240 . S
O25 C23 1.279 . S
O26 Cd16 2.297 1_455 S
O26 C21 1.247 1_455 S
O27 Cd16 2.439 . S
O27 C21 1.208 . S
O28 Cd29 2.223 . S
O28 C36 1.315 . S
Cd29 O28 2.223 . S
Cd29 O32 2.297 . S
Cd29 O33 2.439 . S
Cd29 O39 2.240 . S
Cd30 O31 2.240 . S
Cd30 O38 2.223 . S
Cd30 O40 2.297 . S
Cd30 O41 2.439 . S
O31 Cd30 2.240 . S
O31 C36 1.279 . S
O32 Cd29 2.297 . S
O32 C34 1.247 . S
O33 Cd29 2.439 . S
O33 C34 1.208 . S
C34 O32 1.247 . S
C34 O33 1.208 . S
C35 O40 1.247 . S
C35 O41 1.208 . S
C36 O28 1.315 . S
C36 O31 1.279 . S
C37 O38 1.315 . S
C37 O39 1.279 . S
O38 Cd30 2.223 . S
O38 C37 1.315 . S
O39 Cd29 2.240 . S
O39 C37 1.279 . S
O40 Cd30 2.297 . S
O40 C35 1.247 . S
O41 Cd30 2.439 . S
O41 C35 1.208 . S
O42 Cd43 2.223 . S
O42 C50 1.315 . S
Cd43 O42 2.223 . S
Cd43 O46 2.297 . S
Cd43 O47 2.439 . S
Cd43 O53 2.240 . S
Cd44 O45 2.240 . S
Cd44 O52 2.223 . S
Cd44 O54 2.297 . S
Cd44 O55 2.439 . S
O45 Cd44 2.240 . S
O45 C50 1.279 . S
O46 Cd43 2.297 . S
O46 C48 1.247 . S
O47 Cd43 2.439 . S
O47 C48 1.208 . S
C48 O46 1.247 . S
C48 O47 1.208 . S
C49 O54 1.247 . S
C49 O55 1.208 . S
C50 O42 1.315 . S
C50 O45 1.279 . S
C51 O52 1.315 . S
C51 O53 1.279 . S
O52 Cd44 2.223 . S
O52 C51 1.315 . S
O53 Cd43 2.240 . S
O53 C51 1.279 . S
O54 Cd44 2.297 . S
O54 C49 1.247 . S
O55 Cd44 2.439 . S
O55 C49 1.208 . S
O56 Cd57 2.223 . S
O56 C64 1.315 . S
Cd57 O56 2.223 . S
Cd57 O60 2.297 . S
Cd57 O61 2.439 . S
Cd57 O67 2.240 . S
Cd58 O59 2.240 . S
Cd58 O66 2.223 . S
Cd58 O68 2.297 . S
Cd58 O69 2.439 . S
O59 Cd58 2.240 . S
O59 C64 1.279 . S
O60 Cd57 2.297 . S
O60 C62 1.247 . S
O61 Cd57 2.439 . S
O61 C62 1.208 . S
C62 O60 1.247 . S
C62 O61 1.208 . S
C63 O68 1.247 . S
C63 O69 1.208 . S
C64 O56 1.315 . S
C64 O59 1.279 . S
C65 O66 1.315 . S
C65 O67 1.279 . S
O66 Cd58 2.223 . S
O66 C65 1.315 . S
O67 Cd57 2.240 . S
O67 C65 1.279 . S
O68 Cd58 2.297 . S
O68 C63 1.247 . S
O69 Cd58 2.439 . S
O69 C63 1.208 . S
O70 Cd71 2.223 . S
O70 C78 1.315 . S
Cd71 O70 2.223 . S
Cd71 O74 2.297 . S
Cd71 O75 2.439 . S
Cd71 O81 2.240 . S
Cd72 O73 2.240 . S
Cd72 O80 2.223 . S
Cd72 O82 2.297 . S
Cd72 O83 2.439 . S
O73 Cd72 2.240 . S
O73 C78 1.279 . S
O74 Cd71 2.297 . S
O74 C76 1.247 . S
O75 Cd71 2.439 . S
O75 C76 1.208 . S
C76 O74 1.247 . S
C76 O75 1.208 . S
C77 O82 1.247 . S
C77 O83 1.208 . S
C78 O70 1.315 . S
C78 O73 1.279 . S
C79 O80 1.315 . S
C79 O81 1.279 . S
O80 Cd72 2.223 . S
O80 C79 1.315 . S
O81 Cd71 2.240 . S
O81 C79 1.279 . S
O82 Cd72 2.297 . S
O82 C77 1.247 . S
O83 Cd72 2.439 . S
O83 C77 1.208 . S
O84 Cd85 2.223 . S
O84 C92 1.315 . S
Cd85 O84 2.223 . S
Cd85 O88 2.297 . S
Cd85 O89 2.439 . S
Cd85 O95 2.240 . S
Cd86 O87 2.251 . S
Cd86 O94 2.226 . S
Cd86 O96 2.286 1_556 S
Cd86 O97 2.429 1_556 S
O87 Cd86 2.251 . S
O87 C92 1.279 . S
O88 Cd85 2.297 . S
O88 C90 1.247 . S
O89 Cd85 2.439 . S
O89 C90 1.208 . S
C90 O88 1.247 . S
C90 O89 1.208 . S
C91 O96 1.247 . S
C91 O97 1.208 . S
C92 O84 1.315 . S
C92 O87 1.279 . S
C93 O94 1.315 . S
C93 O95 1.279 . S
O94 Cd86 2.226 . S
O94 C93 1.315 . S
O95 Cd85 2.240 . S
O95 C93 1.279 . S
O96 Cd86 2.286 1_554 S
O96 C91 1.247 . S
O97 Cd86 2.429 1_554 S
O97 C91 1.208 . S
O98 Cd99 2.223 . S
O98 C106 1.315 . S
Cd99 O98 2.223 . S
Cd99 O102 2.297 . S
Cd99 O103 2.439 . S
Cd99 O109 2.240 . S
Cd100 O101 2.240 . S
Cd100 O108 2.223 . S
Cd100 O110 2.297 1_655 S
Cd100 O111 2.439 . S
O101 Cd100 2.240 . S
O101 C106 1.279 . S
O102 Cd99 2.297 . S
O102 C104 1.247 . S
O103 Cd99 2.439 . S
O103 C104 1.208 . S
C104 O102 1.247 . S
C104 O103 1.208 . S
C105 O110 1.247 1_655 S
C105 O111 1.208 . S
C106 O98 1.315 . S
C106 O101 1.279 . S
C107 O108 1.315 . S
C107 O109 1.279 . S
O108 Cd100 2.223 . S
O108 C107 1.315 . S
O109 Cd99 2.240 . S
O109 C107 1.279 . S
O110 Cd100 2.297 1_455 S
O110 C105 1.247 1_455 S
O111 Cd100 2.439 . S
O111 C105 1.208 . S
O112 Cd113 2.223 . S
O112 C120 1.315 . S
Cd113 O112 2.223 . S
Cd113 O116 2.297 . S
Cd113 O117 2.439 . S
Cd113 O123 2.240 . S
Cd114 O115 2.253 . S
Cd114 O122 2.226 . S
Cd114 O124 2.283 1_556 S
Cd114 O125 2.427 1_556 S
O115 Cd114 2.253 . S
O115 C120 1.279 . S
O116 Cd113 2.297 . S
O116 C118 1.247 . S
O117 Cd113 2.439 . S
O117 C118 1.208 . S
C118 O116 1.247 . S
C118 O117 1.208 . S
C119 O124 1.247 . S
C119 O125 1.208 . S
C120 O112 1.315 . S
C120 O115 1.279 . S
C121 O122 1.315 . S
C121 O123 1.279 . S
O122 Cd114 2.226 . S
O122 C121 1.315 . S
O123 Cd113 2.240 . S
O123 C121 1.279 . S
O124 Cd114 2.283 1_554 S
O124 C119 1.247 . S
O125 Cd114 2.427 1_554 S
O125 C119 1.208 . S
O126 Cd127 2.223 . S
O126 C134 1.315 . S
Cd127 O126 2.223 . S
Cd127 O130 2.297 . S
Cd127 O131 2.439 . S
Cd127 O137 2.240 . S
Cd128 O129 2.240 . S
Cd128 O136 2.223 . S
Cd128 O138 2.297 1_455 S
Cd128 O139 2.439 . S
O129 Cd128 2.240 . S
O129 C134 1.279 . S
O130 Cd127 2.297 . S
O130 C132 1.247 . S
O131 Cd127 2.439 . S
O131 C132 1.208 . S
C132 O130 1.247 . S
C132 O131 1.208 . S
C133 O138 1.247 1_455 S
C133 O139 1.208 . S
C134 O126 1.315 . S
C134 O129 1.279 . S
C135 O136 1.315 . S
C135 O137 1.279 . S
O136 Cd128 2.223 . S
O136 C135 1.315 . S
O137 Cd127 2.240 . S
O137 C135 1.279 . S
O138 Cd128 2.297 1_655 S
O138 C133 1.247 1_655 S
O139 Cd128 2.439 . S
O139 C133 1.208 . S
O140 Cd141 2.223 . S
O140 C148 1.315 . S
Cd141 O140 2.223 . S
Cd141 O144 2.297 . S
Cd141 O145 2.439 . S
Cd141 O151 2.240 . S
Cd142 O143 2.240 . S
Cd142 O150 2.223 . S
Cd142 O152 2.297 . S
Cd142 O153 2.439 . S
O143 Cd142 2.240 . S
O143 C148 1.279 . S
O144 Cd141 2.297 . S
O144 C146 1.247 . S
O145 Cd141 2.439 . S
O145 C146 1.208 . S
C146 O144 1.247 . S
C146 O145 1.208 . S
C147 O152 1.247 . S
C147 O153 1.208 . S
C148 O140 1.315 . S
C148 O143 1.279 . S
C149 O150 1.315 . S
C149 O151 1.279 . S
O150 Cd142 2.223 . S
O150 C149 1.315 . S
O151 Cd141 2.240 . S
O151 C149 1.279 . S
O152 Cd142 2.297 . S
O152 C147 1.247 . S
O153 Cd142 2.439 . S
O153 C147 1.208 . S
O154 Cd155 2.223 . S
O154 C162 1.315 . S
Cd155 O154 2.223 . S
Cd155 O158 2.297 . S
Cd155 O159 2.439 . S
Cd155 O165 2.240 . S
Cd156 O157 2.240 . S
Cd156 O164 2.223 . S
Cd156 O166 2.297 . S
Cd156 O167 2.439 . S
O157 Cd156 2.240 . S
O157 C162 1.279 . S
O158 Cd155 2.297 . S
O158 C160 1.247 . S
O159 Cd155 2.439 . S
O159 C160 1.208 . S
C160 O158 1.247 . S
C160 O159 1.208 . S
C161 O166 1.247 . S
C161 O167 1.208 . S
C162 O154 1.315 . S
C162 O157 1.279 . S
C163 O164 1.315 . S
C163 O165 1.279 . S
O164 Cd156 2.223 . S
O164 C163 1.315 . S
O165 Cd155 2.240 . S
O165 C163 1.279 . S
O166 Cd156 2.297 . S
O166 C161 1.247 . S
O167 Cd156 2.439 . S
O167 C161 1.208 . S
O168 Cd169 2.223 . S
O168 C176 1.315 . S
Cd169 O168 2.223 . S
Cd169 O172 2.297 . S
Cd169 O173 2.439 . S
Cd169 O179 2.240 . S
Cd170 O171 2.240 . S
Cd170 O178 2.223 . S
Cd170 O180 2.297 . S
Cd170 O181 2.439 . S
O171 Cd170 2.240 . S
O171 C176 1.279 . S
O172 Cd169 2.297 . S
O172 C174 1.247 . S
O173 Cd169 2.439 . S
O173 C174 1.208 . S
C174 O172 1.247 . S
C174 O173 1.208 . S
C175 O180 1.247 . S
C175 O181 1.208 . S
C176 O168 1.315 . S
C176 O171 1.279 . S
C177 O178 1.315 . S
C177 O179 1.279 . S
O178 Cd170 2.223 . S
O178 C177 1.315 . S
O179 Cd169 2.240 . S
O179 C177 1.279 . S
O180 Cd170 2.297 . S
O180 C175 1.247 . S
O181 Cd170 2.439 . S
O181 C175 1.208 . S
O182 Cd183 2.223 . S
O182 C190 1.315 . S
Cd183 O182 2.223 . S
Cd183 O186 2.297 . S
Cd183 O187 2.439 . S
Cd183 O193 2.240 . S
Cd184 O185 2.240 . S
Cd184 O192 2.223 . S
Cd184 O194 2.297 . S
Cd184 O195 2.439 . S
O185 Cd184 2.240 . S
O185 C190 1.279 . S
O186 Cd183 2.297 . S
O186 C188 1.247 . S
O187 Cd183 2.439 . S
O187 C188 1.208 . S
C188 O186 1.247 . S
C188 O187 1.208 . S
C189 O194 1.247 . S
C189 O195 1.208 . S
C190 O182 1.315 . S
C190 O185 1.279 . S
C191 O192 1.315 . S
C191 O193 1.279 . S
O192 Cd184 2.223 . S
O192 C191 1.315 . S
O193 Cd183 2.240 . S
O193 C191 1.279 . S
O194 Cd184 2.297 . S
O194 C189 1.247 . S
O195 Cd184 2.439 . S
O195 C189 1.208 . S
O196 Cd197 2.223 . S
O196 C204 1.315 . S
Cd197 O196 2.223 . S
Cd197 O200 2.297 . S
Cd197 O201 2.439 . S
Cd197 O207 2.240 . S
Cd198 O199 2.251 . S
Cd198 O206 2.226 . S
Cd198 O208 2.286 1_554 S
Cd198 O209 2.429 1_554 S
O199 Cd198 2.251 . S
O199 C204 1.279 . S
O200 Cd197 2.297 . S
O200 C202 1.247 . S
O201 Cd197 2.439 . S
O201 C202 1.208 . S
C202 O200 1.247 . S
C202 O201 1.208 . S
C203 O208 1.247 . S
C203 O209 1.208 . S
C204 O196 1.315 . S
C204 O199 1.279 . S
C205 O206 1.315 . S
C205 O207 1.279 . S
O206 Cd198 2.226 . S
O206 C205 1.315 . S
O207 Cd197 2.240 . S
O207 C205 1.279 . S
O208 Cd198 2.286 1_556 S
O208 C203 1.247 . S
O209 Cd198 2.429 1_556 S
O209 C203 1.208 . S
O210 Cd211 2.223 . S
O210 C218 1.315 . S
Cd211 O210 2.223 . S
Cd211 O214 2.297 . S
Cd211 O215 2.439 . S
Cd211 O221 2.240 . S
Cd212 O213 2.240 . S
Cd212 O220 2.223 . S
Cd212 O222 2.297 1_455 S
Cd212 O223 2.439 . S
O213 Cd212 2.240 . S
O213 C218 1.279 . S
O214 Cd211 2.297 . S
O214 C216 1.247 . S
O215 Cd211 2.439 . S
O215 C216 1.208 . S
C216 O214 1.247 . S
C216 O215 1.208 . S
C217 O222 1.247 1_455 S
C217 O223 1.208 . S
C218 O210 1.315 . S
C218 O213 1.279 . S
C219 O220 1.315 . S
C219 O221 1.279 . S
O220 Cd212 2.223 . S
O220 C219 1.315 . S
O221 Cd211 2.240 . S
O221 C219 1.279 . S
O222 Cd212 2.297 1_655 S
O222 C217 1.247 1_655 S
O223 Cd212 2.439 . S
O223 C217 1.208 . S
O224 Cd225 2.223 . S
O224 C232 1.315 . S
Cd225 O224 2.223 . S
Cd225 O228 2.297 . S
Cd225 O229 2.439 . S
Cd225 O235 2.240 . S
Cd226 O227 2.240 . S
Cd226 O234 2.223 . S
Cd226 O236 2.297 . S
Cd226 O237 2.439 . S
O227 Cd226 2.240 . S
O227 C232 1.279 . S
O228 Cd225 2.297 . S
O228 C230 1.247 . S
O229 Cd225 2.439 . S
O229 C230 1.208 . S
C230 O228 1.247 . S
C230 O229 1.208 . S
C231 O236 1.247 . S
C231 O237 1.208 . S
C232 O224 1.315 . S
C232 O227 1.279 . S
C233 O234 1.315 . S
C233 O235 1.279 . S
O234 Cd226 2.223 . S
O234 C233 1.315 . S
O235 Cd225 2.240 . S
O235 C233 1.279 . S
O236 Cd226 2.297 . S
O236 C231 1.247 . S
O237 Cd226 2.439 . S
O237 C231 1.208 . S
O238 Cd239 2.223 . S
O238 C246 1.315 . S
Cd239 O238 2.223 . S
Cd239 O242 2.297 . S
Cd239 O243 2.439 . S
Cd239 O249 2.240 . S
Cd240 O241 2.240 . S
Cd240 O248 2.223 . S
Cd240 O250 2.297 . S
Cd240 O251 2.439 . S
O241 Cd240 2.240 . S
O241 C246 1.279 . S
O242 Cd239 2.297 . S
O242 C244 1.247 . S
O243 Cd239 2.439 . S
O243 C244 1.208 . S
C244 O242 1.247 . S
C244 O243 1.208 . S
C245 O250 1.247 . S
C245 O251 1.208 . S
C246 O238 1.315 . S
C246 O241 1.279 . S
C247 O248 1.315 . S
C247 O249 1.279 . S
O248 Cd240 2.223 . S
O248 C247 1.315 . S
O249 Cd239 2.240 . S
O249 C247 1.279 . S
O250 Cd240 2.297 . S
O250 C245 1.247 . S
O251 Cd240 2.439 . S
O251 C245 1.208 . S
O252 Cd253 2.223 . S
O252 C260 1.315 . S
Cd253 O252 2.223 . S
Cd253 O256 2.297 . S
Cd253 O257 2.439 . S
Cd253 O263 2.240 . S
Cd254 O255 2.253 . S
Cd254 O262 2.226 . S
Cd254 O264 2.283 1_554 S
Cd254 O265 2.427 1_554 S
O255 Cd254 2.253 . S
O255 C260 1.279 . S
O256 Cd253 2.297 . S
O256 C258 1.247 . S
O257 Cd253 2.439 . S
O257 C258 1.208 . S
C258 O256 1.247 . S
C258 O257 1.208 . S
C259 O264 1.247 . S
C259 O265 1.208 . S
C260 O252 1.315 . S
C260 O255 1.279 . S
C261 O262 1.315 . S
C261 O263 1.279 . S
O262 Cd254 2.226 . S
O262 C261 1.315 . S
O263 Cd253 2.240 . S
O263 C261 1.279 . S
O264 Cd254 2.283 1_556 S
O264 C259 1.247 . S
O265 Cd254 2.427 1_556 S
O265 C259 1.208 . S
O266 Cd267 2.223 . S
O266 C274 1.315 . S
Cd267 O266 2.223 . S
Cd267 O270 2.297 . S
Cd267 O271 2.439 . S
Cd267 O277 2.240 . S
Cd268 O269 2.240 . S
Cd268 O276 2.223 . S
Cd268 O278 2.297 1_455 S
Cd268 O279 2.439 . S
O269 Cd268 2.240 . S
O269 C274 1.279 . S
O270 Cd267 2.297 . S
O270 C272 1.247 . S
O271 Cd267 2.439 . S
O271 C272 1.208 . S
C272 O270 1.247 . S
C272 O271 1.208 . S
C273 O278 1.247 1_455 S
C273 O279 1.208 . S
C274 O266 1.315 . S
C274 O269 1.279 . S
C275 O276 1.315 . S
C275 O277 1.279 . S
O276 Cd268 2.223 . S
O276 C275 1.315 . S
O277 Cd267 2.240 . S
O277 C275 1.279 . S
O278 Cd268 2.297 1_655 S
O278 C273 1.247 1_655 S
O279 Cd268 2.439 . S
O279 C273 1.208 . S
O280 Cd281 2.223 . S
O280 C288 1.315 . S
Cd281 O280 2.223 . S
Cd281 O284 2.297 . S
Cd281 O285 2.439 . S
Cd281 O291 2.240 . S
Cd282 O283 2.251 . S
Cd282 O290 2.226 . S
Cd282 O292 2.285 1_556 S
Cd282 O293 2.429 1_556 S
O283 Cd282 2.251 . S
O283 C288 1.279 . S
O284 Cd281 2.297 . S
O284 C286 1.247 . S
O285 Cd281 2.439 . S
O285 C286 1.208 . S
C286 O284 1.247 . S
C286 O285 1.208 . S
C287 O292 1.247 . S
C287 O293 1.208 . S
C288 O280 1.315 . S
C288 O283 1.279 . S
C289 O290 1.315 . S
C289 O291 1.279 . S
O290 Cd282 2.226 . S
O290 C289 1.315 . S
O291 Cd281 2.240 . S
O291 C289 1.279 . S
O292 Cd282 2.285 1_554 S
O292 C287 1.247 . S
O293 Cd282 2.429 1_554 S
O293 C287 1.208 . S
O294 Cd295 2.223 . S
O294 C302 1.315 . S
Cd295 O294 2.223 . S
Cd295 O298 2.297 . S
Cd295 O299 2.439 . S
Cd295 O305 2.240 . S
Cd296 O297 2.240 . S
Cd296 O304 2.223 . S
Cd296 O306 2.297 1_455 S
Cd296 O307 2.439 . S
O297 Cd296 2.240 . S
O297 C302 1.279 . S
O298 Cd295 2.297 . S
O298 C300 1.247 . S
O299 Cd295 2.439 . S
O299 C300 1.208 . S
C300 O298 1.247 . S
C300 O299 1.208 . S
C301 O306 1.247 1_455 S
C301 O307 1.208 . S
C302 O294 1.315 . S
C302 O297 1.279 . S
C303 O304 1.315 . S
C303 O305 1.279 . S
O304 Cd296 2.223 . S
O304 C303 1.315 . S
O305 Cd295 2.240 . S
O305 C303 1.279 . S
O306 Cd296 2.297 1_655 S
O306 C301 1.247 1_655 S
O307 Cd296 2.439 . S
O307 C301 1.208 . S
O308 Cd309 2.223 . S
O308 C316 1.315 . S
Cd309 O308 2.223 . S
Cd309 O312 2.297 . S
Cd309 O313 2.439 . S
Cd309 O319 2.240 . S
Cd310 O311 2.240 . S
Cd310 O318 2.223 . S
Cd310 O320 2.297 . S
Cd310 O321 2.439 . S
O311 Cd310 2.240 . S
O311 C316 1.279 . S
O312 Cd309 2.297 . S
O312 C314 1.247 . S
O313 Cd309 2.439 . S
O313 C314 1.208 . S
C314 O312 1.247 . S
C314 O313 1.208 . S
C315 O320 1.247 . S
C315 O321 1.208 . S
C316 O308 1.315 . S
C316 O311 1.279 . S
C317 O318 1.315 . S
C317 O319 1.279 . S
O318 Cd310 2.223 . S
O318 C317 1.315 . S
O319 Cd309 2.240 . S
O319 C317 1.279 . S
O320 Cd310 2.297 . S
O320 C315 1.247 . S
O321 Cd310 2.439 . S
O321 C315 1.208 . S
O322 Cd323 2.223 . S
O322 C330 1.315 . S
Cd323 O322 2.223 . S
Cd323 O326 2.297 . S
Cd323 O327 2.439 . S
Cd323 O333 2.240 . S
Cd324 O325 2.240 . S
Cd324 O332 2.223 . S
Cd324 O334 2.297 . S
Cd324 O335 2.439 . S
O325 Cd324 2.240 . S
O325 C330 1.279 . S
O326 Cd323 2.297 . S
O326 C328 1.247 . S
O327 Cd323 2.439 . S
O327 C328 1.208 . S
C328 O326 1.247 . S
C328 O327 1.208 . S
C329 O334 1.247 . S
C329 O335 1.208 . S
C330 O322 1.315 . S
C330 O325 1.279 . S
C331 O332 1.315 . S
C331 O333 1.279 . S
O332 Cd324 2.223 . S
O332 C331 1.315 . S
O333 Cd323 2.240 . S
O333 C331 1.279 . S
O334 Cd324 2.297 . S
O334 C329 1.247 . S
O335 Cd324 2.439 . S
O335 C329 1.208 . S
O336 Cd337 2.223 . S
O336 C344 1.315 . S
Cd337 O336 2.223 . S
Cd337 O340 2.297 . S
Cd337 O341 2.439 . S
Cd337 O347 2.240 . S
Cd338 O339 2.240 . S
Cd338 O346 2.223 . S
Cd338 O348 2.297 . S
Cd338 O349 2.439 . S
O339 Cd338 2.240 . S
O339 C344 1.279 . S
O340 Cd337 2.297 . S
O340 C342 1.247 . S
O341 Cd337 2.439 . S
O341 C342 1.208 . S
C342 O340 1.247 . S
C342 O341 1.208 . S
C343 O348 1.247 . S
C343 O349 1.208 . S
C344 O336 1.315 . S
C344 O339 1.279 . S
C345 O346 1.315 . S
C345 O347 1.279 . S
O346 Cd338 2.223 . S
O346 C345 1.315 . S
O347 Cd337 2.240 . S
O347 C345 1.279 . S
O348 Cd338 2.297 . S
O348 C343 1.247 . S
O349 Cd338 2.439 . S
O349 C343 1.208 . S
O350 Cd351 2.223 . S
O350 C358 1.315 . S
Cd351 O350 2.223 . S
Cd351 O354 2.297 . S
Cd351 O355 2.439 . S
Cd351 O361 2.240 . S
Cd352 O353 2.240 . S
Cd352 O360 2.223 . S
Cd352 O362 2.297 . S
Cd352 O363 2.439 . S
O353 Cd352 2.240 . S
O353 C358 1.279 . S
O354 Cd351 2.297 . S
O354 C356 1.247 . S
O355 Cd351 2.439 . S
O355 C356 1.208 . S
C356 O354 1.247 . S
C356 O355 1.208 . S
C357 O362 1.247 . S
C357 O363 1.208 . S
C358 O350 1.315 . S
C358 O353 1.279 . S
C359 O360 1.315 . S
C359 O361 1.279 . S
O360 Cd352 2.223 . S
O360 C359 1.315 . S
O361 Cd351 2.240 . S
O361 C359 1.279 . S
O362 Cd352 2.297 . S
O362 C357 1.247 . S
O363 Cd352 2.439 . S
O363 C357 1.208 . S
O364 Cd365 2.223 . S
O364 C372 1.315 . S
Cd365 O364 2.223 . S
Cd365 O368 2.297 . S
Cd365 O369 2.439 . S
Cd365 O375 2.240 . S
Cd366 O367 2.253 . S
Cd366 O374 2.226 . S
Cd366 O376 2.283 1_556 S
Cd366 O377 2.427 1_556 S
O367 Cd366 2.253 . S
O367 C372 1.279 . S
O368 Cd365 2.297 . S
O368 C370 1.247 . S
O369 Cd365 2.439 . S
O369 C370 1.208 . S
C370 O368 1.247 . S
C370 O369 1.208 . S
C371 O376 1.247 . S
C371 O377 1.208 . S
C372 O364 1.315 . S
C372 O367 1.279 . S
C373 O374 1.315 . S
C373 O375 1.279 . S
O374 Cd366 2.226 . S
O374 C373 1.315 . S
O375 Cd365 2.240 . S
O375 C373 1.279 . S
O376 Cd366 2.283 1_554 S
O376 C371 1.247 . S
O377 Cd366 2.427 1_554 S
O377 C371 1.208 . S
O378 Cd379 2.223 . S
O378 C386 1.315 . S
Cd379 O378 2.223 . S
Cd379 O382 2.297 . S
Cd379 O383 2.439 . S
Cd379 O389 2.240 . S
Cd380 O381 2.240 . S
Cd380 O388 2.223 . S
Cd380 O390 2.297 1_655 S
Cd380 O391 2.439 . S
O381 Cd380 2.240 . S
O381 C386 1.279 . S
O382 Cd379 2.297 . S
O382 C384 1.247 . S
O383 Cd379 2.439 . S
O383 C384 1.208 . S
C384 O382 1.247 . S
C384 O383 1.208 . S
C385 O390 1.247 1_655 S
C385 O391 1.208 . S
C386 O378 1.315 . S
C386 O381 1.279 . S
C387 O388 1.315 . S
C387 O389 1.279 . S
O388 Cd380 2.223 . S
O388 C387 1.315 . S
O389 Cd379 2.240 . S
O389 C387 1.279 . S
O390 Cd380 2.297 1_455 S
O390 C385 1.247 1_455 S
O391 Cd380 2.439 . S
O391 C385 1.208 . S
O392 Cd393 2.223 . S
O392 C400 1.315 . S
Cd393 O392 2.223 . S
Cd393 O396 2.297 . S
Cd393 O397 2.439 . S
Cd393 O403 2.240 . S
Cd394 O395 2.251 . S
Cd394 O402 2.226 . S
Cd394 O404 2.285 1_554 S
Cd394 O405 2.429 1_554 S
O395 Cd394 2.251 . S
O395 C400 1.279 . S
O396 Cd393 2.297 . S
O396 C398 1.247 . S
O397 Cd393 2.439 . S
O397 C398 1.208 . S
C398 O396 1.247 . S
C398 O397 1.208 . S
C399 O404 1.247 . S
C399 O405 1.208 . S
C400 O392 1.315 . S
C400 O395 1.279 . S
C401 O402 1.315 . S
C401 O403 1.279 . S
O402 Cd394 2.226 . S
O402 C401 1.315 . S
O403 Cd393 2.240 . S
O403 C401 1.279 . S
O404 Cd394 2.285 1_556 S
O404 C399 1.247 . S
O405 Cd394 2.429 1_556 S
O405 C399 1.208 . S
O406 Cd407 2.223 . S
O406 C414 1.315 . S
Cd407 O406 2.223 . S
Cd407 O410 2.297 . S
Cd407 O411 2.439 . S
Cd407 O417 2.240 . S
Cd408 O409 2.240 . S
Cd408 O416 2.223 . S
Cd408 O418 2.297 1_655 S
Cd408 O419 2.439 . S
O409 Cd408 2.240 . S
O409 C414 1.279 . S
O410 Cd407 2.297 . S
O410 C412 1.247 . S
O411 Cd407 2.439 . S
O411 C412 1.208 . S
C412 O410 1.247 . S
C412 O411 1.208 . S
C413 O418 1.247 1_655 S
C413 O419 1.208 . S
C414 O406 1.315 . S
C414 O409 1.279 . S
C415 O416 1.315 . S
C415 O417 1.279 . S
O416 Cd408 2.223 . S
O416 C415 1.315 . S
O417 Cd407 2.240 . S
O417 C415 1.279 . S
O418 Cd408 2.297 1_455 S
O418 C413 1.247 1_455 S
O419 Cd408 2.439 . S
O419 C413 1.208 . S
O420 Cd421 2.223 . S
O420 C428 1.315 . S
Cd421 O420 2.223 . S
Cd421 O424 2.297 . S
Cd421 O425 2.439 . S
Cd421 O431 2.240 . S
Cd422 O423 2.240 . S
Cd422 O430 2.223 . S
Cd422 O432 2.297 . S
Cd422 O433 2.439 . S
O423 Cd422 2.240 . S
O423 C428 1.279 . S
O424 Cd421 2.297 . S
O424 C426 1.247 . S
O425 Cd421 2.439 . S
O425 C426 1.208 . S
C426 O424 1.247 . S
C426 O425 1.208 . S
C427 O432 1.247 . S
C427 O433 1.208 . S
C428 O420 1.315 . S
C428 O423 1.279 . S
C429 O430 1.315 . S
C429 O431 1.279 . S
O430 Cd422 2.223 . S
O430 C429 1.315 . S
O431 Cd421 2.240 . S
O431 C429 1.279 . S
O432 Cd422 2.297 . S
O432 C427 1.247 . S
O433 Cd422 2.439 . S
O433 C427 1.208 . S
O434 Cd435 2.223 . S
O434 C442 1.315 . S
Cd435 O434 2.223 . S
Cd435 O438 2.297 . S
Cd435 O439 2.439 . S
Cd435 O445 2.240 . S
Cd436 O437 2.240 . S
Cd436 O444 2.223 . S
Cd436 O446 2.297 . S
Cd436 O447 2.439 . S
O437 Cd436 2.240 . S
O437 C442 1.279 . S
O438 Cd435 2.297 . S
O438 C440 1.247 . S
O439 Cd435 2.439 . S
O439 C440 1.208 . S
C440 O438 1.247 . S
C440 O439 1.208 . S
C441 O446 1.247 . S
C441 O447 1.208 . S
C442 O434 1.315 . S
C442 O437 1.279 . S
C443 O444 1.315 . S
C443 O445 1.279 . S
O444 Cd436 2.223 . S
O444 C443 1.315 . S
O445 Cd435 2.240 . S
O445 C443 1.279 . S
O446 Cd436 2.297 . S
O446 C441 1.247 . S
O447 Cd436 2.439 . S
O447 C441 1.208 . S
C448 C449 1.369 1_554 S
C448 C450 1.419 . S
C448 H452 0.930 . S
C449 C448 1.369 1_556 S
C449 C458 1.429 . S
C450 C448 1.419 . S
C450 C451 1.363 . S
C450 H453 0.929 . S
C451 C450 1.363 . S
C451 C457 1.428 1_554 S
H452 C448 0.930 . S
H453 C450 0.929 . S
S454 N455 1.613 . S
S454 N456 1.610 . S
N455 S454 1.613 . S
N455 C458 1.350 . S
N456 S454 1.610 . S
N456 C457 1.351 . S
C457 C451 1.428 1_556 S
C457 N456 1.351 . S
C457 C458 1.434 . S
C458 C449 1.429 . S
C458 N455 1.350 . S
C458 C457 1.434 . S
C459 C460 1.369 . S
C459 C461 1.419 1_565 S
C459 H463 0.930 . S
C460 C459 1.369 . S
C460 C469 1.429 . S
C461 C459 1.419 1_545 S
C461 C462 1.363 . S
C461 H464 0.929 . S
C462 C461 1.363 . S
C462 C468 1.428 . S
H463 C459 0.930 . S
H464 C461 0.929 . S
S465 N466 1.613 . S
S465 N467 1.610 1_565 S
N466 S465 1.613 . S
N466 C469 1.350 . S
N467 S465 1.610 1_545 S
N467 C468 1.351 . S
C468 C462 1.428 . S
C468 N467 1.351 . S
C468 C469 1.434 1_545 S
C469 C460 1.429 . S
C469 N466 1.350 . S
C469 C468 1.434 1_565 S
C470 C471 1.369 . S
C470 C472 1.419 . S
C470 H474 0.930 . S
C471 C470 1.369 . S
C471 C480 1.429 . S
C472 C470 1.419 . S
C472 C473 1.363 . S
C472 H475 0.929 . S
C473 C472 1.363 . S
C473 C479 1.428 . S
H474 C470 0.930 . S
H475 C472 0.929 . S
S476 N477 1.613 . S
S476 N478 1.610 . S
N477 S476 1.613 . S
N477 C480 1.350 . S
N478 S476 1.610 . S
N478 C479 1.351 . S
C479 C473 1.428 . S
C479 N478 1.351 . S
C479 C480 1.434 . S
C480 C471 1.429 . S
C480 N477 1.350 . S
C480 C479 1.434 . S
C481 C482 1.369 . S
C481 C483 1.419 1_545 S
C481 H485 0.930 . S
C482 C481 1.369 . S
C482 C491 1.429 . S
C483 C481 1.419 1_565 S
C483 C484 1.363 . S
C483 H486 0.929 . S
C484 C483 1.363 . S
C484 C490 1.428 . S
H485 C481 0.930 . S
H486 C483 0.929 . S
S487 N488 1.613 1_565 S
S487 N489 1.610 . S
N488 S487 1.613 1_545 S
N488 C491 1.350 . S
N489 S487 1.610 . S
N489 C490 1.351 . S
C490 C484 1.428 . S
C490 N489 1.351 . S
C490 C491 1.434 1_565 S
C491 C482 1.429 . S
C491 N488 1.350 . S
C491 C490 1.434 1_545 S
C492 C493 1.369 . S
C492 C494 1.419 . S
C492 H496 0.930 . S
C493 C492 1.369 . S
C493 C502 1.429 1_554 S
C494 C492 1.419 . S
C494 C495 1.363 1_554 S
C494 H497 0.929 . S
C495 C494 1.363 1_556 S
C495 C501 1.428 . S
H496 C492 0.930 . S
H497 C494 0.929 . S
S498 N499 1.613 . S
S498 N500 1.610 . S
N499 S498 1.613 . S
N499 C502 1.350 . S
N500 S498 1.610 . S
N500 C501 1.351 . S
C501 C495 1.428 . S
C501 N500 1.351 . S
C501 C502 1.434 . S
C502 C493 1.429 1_556 S
C502 N499 1.350 . S
C502 C501 1.434 . S
C503 C504 1.369 . S
C503 C505 1.419 1_565 S
C503 H507 0.930 . S
C504 C503 1.369 . S
C504 C513 1.429 . S
C505 C503 1.419 1_545 S
C505 C506 1.363 . S
C505 H508 0.929 . S
C506 C505 1.363 . S
C506 C512 1.428 . S
H507 C503 0.930 . S
H508 C505 0.929 . S
S509 N510 1.613 1_545 S
S509 N511 1.611 . S
N510 S509 1.613 1_565 S
N510 C513 1.350 . S
N511 S509 1.611 . S
N511 C512 1.351 . S
C512 C506 1.428 . S
C512 N511 1.351 . S
C512 C513 1.434 1_545 S
C513 C504 1.429 . S
C513 N510 1.350 . S
C513 C512 1.434 1_565 S
C514 C515 1.369 . S
C514 C516 1.419 . S
C514 H518 0.930 . S
C515 C514 1.369 . S
C515 C524 1.429 . S
C516 C514 1.419 . S
C516 C517 1.363 . S
C516 H519 0.929 . S
C517 C516 1.363 . S
C517 C523 1.428 . S
H518 C514 0.930 . S
H519 C516 0.929 . S
S520 N521 1.613 . S
S520 N522 1.610 . S
N521 S520 1.613 . S
N521 C524 1.350 . S
N522 S520 1.610 . S
N522 C523 1.351 . S
C523 C517 1.428 . S
C523 N522 1.351 . S
C523 C524 1.434 . S
C524 C515 1.429 . S
C524 N521 1.350 . S
C524 C523 1.434 . S
C525 C526 1.369 . S
C525 C527 1.419 1_565 S
C525 H529 0.930 . S
C526 C525 1.369 . S
C526 C535 1.429 . S
C527 C525 1.419 1_545 S
C527 C528 1.363 . S
C527 H530 0.929 . S
C528 C527 1.363 . S
C528 C534 1.428 . S
H529 C525 0.930 . S
H530 C527 0.929 . S
S531 N532 1.613 . S
S531 N533 1.610 1_565 S
N532 S531 1.613 . S
N532 C535 1.350 . S
N533 S531 1.610 1_545 S
N533 C534 1.351 . S
C534 C528 1.428 . S
C534 N533 1.351 . S
C534 C535 1.434 1_545 S
C535 C526 1.429 . S
C535 N532 1.350 . S
C535 C534 1.434 1_565 S
C536 C537 1.369 . S
C536 C538 1.419 . S
C536 H540 0.930 . S
C537 C536 1.369 . S
C537 C546 1.429 . S
C538 C536 1.419 . S
C538 C539 1.363 . S
C538 H541 0.929 . S
C539 C538 1.363 . S
C539 C545 1.428 . S
H540 C536 0.930 . S
H541 C538 0.929 . S
S542 N543 1.613 . S
S542 N544 1.610 . S
N543 S542 1.613 . S
N543 C546 1.350 . S
N544 S542 1.610 . S
N544 C545 1.351 . S
C545 C539 1.428 . S
C545 N544 1.351 . S
C545 C546 1.434 . S
C546 C537 1.429 . S
C546 N543 1.350 . S
C546 C545 1.434 . S
C547 C548 1.369 . S
C547 C549 1.419 . S
C547 H551 0.930 . S
C548 C547 1.369 . S
C548 C557 1.429 . S
C549 C547 1.419 . S
C549 C550 1.363 . S
C549 H552 0.929 . S
C550 C549 1.363 . S
C550 C556 1.428 . S
H551 C547 0.930 . S
H552 C549 0.929 . S
S553 N554 1.613 . S
S553 N555 1.610 . S
N554 S553 1.613 . S
N554 C557 1.350 . S
N555 S553 1.610 . S
N555 C556 1.351 . S
C556 C550 1.428 . S
C556 N555 1.351 . S
C556 C557 1.434 . S
C557 C548 1.429 . S
C557 N554 1.350 . S
C557 C556 1.434 . S
C558 C559 1.369 1_554 S
C558 C560 1.419 . S
C558 H562 0.930 . S
C559 C558 1.369 1_556 S
C559 C568 1.429 . S
C560 C558 1.419 . S
C560 C561 1.363 . S
C560 H563 0.929 . S
C561 C560 1.363 . S
C561 C567 1.428 1_554 S
H562 C558 0.930 . S
H563 C560 0.929 . S
S564 N565 1.613 . S
S564 N566 1.610 . S
N565 S564 1.613 . S
N565 C568 1.350 . S
N566 S564 1.610 . S
N566 C567 1.351 . S
C567 C561 1.428 1_556 S
C567 N566 1.351 . S
C567 C568 1.434 . S
C568 C559 1.429 . S
C568 N565 1.350 . S
C568 C567 1.434 . S
C569 C570 1.369 . S
C569 C571 1.419 . S
C569 H573 0.930 . S
C570 C569 1.369 . S
C570 C579 1.429 . S
C571 C569 1.419 . S
C571 C572 1.363 . S
C571 H574 0.929 . S
C572 C571 1.363 . S
C572 C578 1.428 . S
H573 C569 0.930 . S
H574 C571 0.929 . S
S575 N576 1.613 . S
S575 N577 1.610 . S
N576 S575 1.613 . S
N576 C579 1.350 . S
N577 S575 1.610 . S
N577 C578 1.351 . S
C578 C572 1.428 . S
C578 N577 1.351 . S
C578 C579 1.434 . S
C579 C570 1.429 . S
C579 N576 1.350 . S
C579 C578 1.434 . S
C580 C581 1.369 . S
C580 C582 1.419 . S
C580 H584 0.930 . S
C581 C580 1.369 . S
C581 C590 1.429 . S
C582 C580 1.419 . S
C582 C583 1.363 . S
C582 H585 0.929 . S
C583 C582 1.363 . S
C583 C589 1.428 . S
H584 C580 0.930 . S
H585 C582 0.929 . S
S586 N587 1.613 . S
S586 N588 1.610 . S
N587 S586 1.613 . S
N587 C590 1.350 . S
N588 S586 1.610 . S
N588 C589 1.351 . S
C589 C583 1.428 . S
C589 N588 1.351 . S
C589 C590 1.434 . S
C590 C581 1.429 . S
C590 N587 1.350 . S
C590 C589 1.434 . S
C591 C592 1.369 . S
C591 C593 1.419 . S
C591 H595 0.930 . S
C592 C591 1.369 . S
C592 C601 1.429 . S
C593 C591 1.419 . S
C593 C594 1.363 . S
C593 H596 0.929 . S
C594 C593 1.363 . S
C594 C600 1.428 . S
H595 C591 0.930 . S
H596 C593 0.929 . S
S597 N598 1.613 . S
S597 N599 1.610 . S
N598 S597 1.613 . S
N598 C601 1.350 . S
N599 S597 1.610 . S
N599 C600 1.351 . S
C600 C594 1.428 . S
C600 N599 1.351 . S
C600 C601 1.434 . S
C601 C592 1.429 . S
C601 N598 1.350 . S
C601 C600 1.434 . S
C602 C603 1.369 . S
C602 C604 1.419 . S
C602 H606 0.930 . S
C603 C602 1.369 . S
C603 C612 1.429 1_554 S
C604 C602 1.419 . S
C604 C605 1.363 1_554 S
C604 H607 0.929 . S
C605 C604 1.363 1_556 S
C605 C611 1.428 . S
H606 C602 0.930 . S
H607 C604 0.929 . S
S608 N609 1.613 . S
S608 N610 1.610 . S
N609 S608 1.613 . S
N609 C612 1.350 . S
N610 S608 1.610 . S
N610 C611 1.351 . S
C611 C605 1.428 . S
C611 N610 1.351 . S
C611 C612 1.434 . S
C612 C603 1.429 1_556 S
C612 N609 1.350 . S
C612 C611 1.434 . S
C613 C614 1.369 . S
C613 C615 1.419 . S
C613 H617 0.930 . S
C614 C613 1.369 . S
C614 C623 1.429 . S
C615 C613 1.419 . S
C615 C616 1.363 . S
C615 H618 0.929 . S
C616 C615 1.363 . S
C616 C622 1.428 . S
H617 C613 0.930 . S
H618 C615 0.929 . S
S619 N620 1.613 . S
S619 N621 1.610 . S
N620 S619 1.613 . S
N620 C623 1.350 . S
N621 S619 1.610 . S
N621 C622 1.351 . S
C622 C616 1.428 . S
C622 N621 1.351 . S
C622 C623 1.434 . S
C623 C614 1.429 . S
C623 N620 1.350 . S
C623 C622 1.434 . S
C624 C625 1.369 . S
C624 C626 1.419 . S
C624 H628 0.930 . S
C625 C624 1.369 . S
C625 C634 1.429 . S
C626 C624 1.419 . S
C626 C627 1.363 . S
C626 H629 0.929 . S
C627 C626 1.363 . S
C627 C633 1.428 . S
H628 C624 0.930 . S
H629 C626 0.929 . S
S630 N631 1.613 . S
S630 N632 1.610 . S
N631 S630 1.613 . S
N631 C634 1.350 . S
N632 S630 1.610 . S
N632 C633 1.351 . S
C633 C627 1.428 . S
C633 N632 1.351 . S
C633 C634 1.434 . S
C634 C625 1.429 . S
C634 N631 1.350 . S
C634 C633 1.434 . S
C635 C636 1.369 1_655 S
C635 C637 1.419 1_556 S
C635 H639 0.930 . S
C636 C635 1.369 1_455 S
C636 C645 1.429 . S
C637 C635 1.419 1_554 S
C637 C638 1.363 . S
C637 H640 0.929 . S
C638 C637 1.363 . S
C638 C644 1.428 1_655 S
H639 C635 0.930 . S
H640 C637 0.929 . S
S641 N642 1.613 1_554 S
S641 N643 1.610 . S
N642 S641 1.613 1_556 S
N642 C645 1.350 . S
N643 S641 1.610 . S
N643 C644 1.351 . S
C644 C638 1.428 1_455 S
C644 N643 1.351 . S
C644 C645 1.434 1_554 S
C645 C636 1.429 . S
C645 N642 1.350 . S
C645 C644 1.434 1_556 S
C646 C647 1.369 . S
C646 C648 1.419 . S
C646 H650 0.930 . S
C647 C646 1.369 . S
C647 C656 1.429 . S
C648 C646 1.419 . S
C648 C649 1.363 . S
C648 H651 0.929 . S
C649 C648 1.363 . S
C649 C655 1.428 . S
H650 C646 0.930 . S
H651 C648 0.929 . S
S652 N653 1.613 . S
S652 N654 1.610 . S
N653 S652 1.613 . S
N653 C656 1.350 . S
N654 S652 1.610 . S
N654 C655 1.351 . S
C655 C649 1.428 . S
C655 N654 1.351 . S
C655 C656 1.434 . S
C656 C647 1.429 . S
C656 N653 1.350 . S
C656 C655 1.434 . S
C657 C658 1.369 . S
C657 C659 1.419 . S
C657 H661 0.930 . S
C658 C657 1.369 . S
C658 C667 1.429 . S
C659 C657 1.419 . S
C659 C660 1.363 . S
C659 H662 0.929 . S
C660 C659 1.363 . S
C660 C666 1.428 . S
H661 C657 0.930 . S
H662 C659 0.929 . S
S663 N664 1.613 . S
S663 N665 1.610 . S
N664 S663 1.613 . S
N664 C667 1.350 . S
N665 S663 1.610 . S
N665 C666 1.351 . S
C666 C660 1.428 . S
C666 N665 1.351 . S
C666 C667 1.434 . S
C667 C658 1.429 . S
C667 N664 1.350 . S
C667 C666 1.434 . S
C668 C669 1.369 . S
C668 C670 1.419 . S
C668 H672 0.930 . S
C669 C668 1.369 . S
C669 C678 1.429 . S
C670 C668 1.419 . S
C670 C671 1.363 . S
C670 H673 0.929 . S
C671 C670 1.363 . S
C671 C677 1.428 . S
H672 C668 0.930 . S
H673 C670 0.929 . S
S674 N675 1.613 . S
S674 N676 1.610 . S
N675 S674 1.613 . S
N675 C678 1.350 . S
N676 S674 1.610 . S
N676 C677 1.351 . S
C677 C671 1.428 . S
C677 N676 1.351 . S
C677 C678 1.434 . S
C678 C669 1.429 . S
C678 N675 1.350 . S
C678 C677 1.434 . S
C679 C680 1.369 . S
C679 C681 1.419 1_554 S
C679 H683 0.930 . S
C680 C679 1.369 . S
C680 C689 1.429 . S
C681 C679 1.419 1_556 S
C681 C682 1.363 . S
C681 H684 0.929 . S
C682 C681 1.363 . S
C682 C688 1.428 . S
H683 C679 0.930 . S
H684 C681 0.929 . S
S685 N686 1.613 . S
S685 N687 1.610 1_554 S
N686 S685 1.613 . S
N686 C689 1.350 . S
N687 S685 1.610 1_556 S
N687 C688 1.351 . S
C688 C682 1.428 . S
C688 N687 1.351 . S
C688 C689 1.434 1_556 S
C689 C680 1.429 . S
C689 N686 1.350 . S
C689 C688 1.434 1_554 S
C690 C691 1.369 . S
C690 C692 1.419 . S
C690 H694 0.930 . S
C691 C690 1.369 . S
C691 C700 1.429 . S
C692 C690 1.419 . S
C692 C693 1.363 . S
C692 H695 0.929 . S
C693 C692 1.363 . S
C693 C699 1.428 . S
H694 C690 0.930 . S
H695 C692 0.929 . S
S696 N697 1.613 . S
S696 N698 1.610 . S
N697 S696 1.613 . S
N697 C700 1.350 . S
N698 S696 1.610 . S
N698 C699 1.351 . S
C699 C693 1.428 . S
C699 N698 1.351 . S
C699 C700 1.434 . S
C700 C691 1.429 . S
C700 N697 1.350 . S
C700 C699 1.434 . S
C701 C702 1.369 . S
C701 C703 1.419 . S
C701 H705 0.930 . S
C702 C701 1.369 . S
C702 C711 1.429 1_455 S
C703 C701 1.419 . S
C703 C704 1.363 1_455 S
C703 H706 0.929 . S
C704 C703 1.363 1_655 S
C704 C710 1.428 . S
H705 C701 0.930 . S
H706 C703 0.929 . S
S707 N708 1.613 . S
S707 N709 1.610 . S
N708 S707 1.613 . S
N708 C711 1.350 . S
N709 S707 1.610 . S
N709 C710 1.351 . S
C710 C704 1.428 . S
C710 N709 1.351 . S
C710 C711 1.434 . S
C711 C702 1.429 1_655 S
C711 N708 1.350 . S
C711 C710 1.434 . S
C712 C713 1.369 . S
C712 C714 1.419 . S
C712 H716 0.930 . S
C713 C712 1.369 . S
C713 C722 1.429 . S
C714 C712 1.419 . S
C714 C715 1.363 . S
C714 H717 0.929 . S
C715 C714 1.363 . S
C715 C721 1.428 . S
H716 C712 0.930 . S
H717 C714 0.929 . S
S718 N719 1.613 . S
S718 N720 1.610 . S
N719 S718 1.613 . S
N719 C722 1.350 . S
N720 S718 1.610 . S
N720 C721 1.351 . S
C721 C715 1.428 . S
C721 N720 1.351 . S
C721 C722 1.434 . S
C722 C713 1.429 . S
C722 N719 1.350 . S
C722 C721 1.434 . S
C723 C724 1.369 . S
C723 C725 1.419 1_554 S
C723 H727 0.930 . S
C724 C723 1.369 . S
C724 C733 1.429 1_655 S
C725 C723 1.419 1_556 S
C725 C726 1.363 1_655 S
C725 H728 0.929 . S
C726 C725 1.363 1_455 S
C726 C732 1.428 . S
H727 C723 0.930 . S
H728 C725 0.929 . S
S729 N730 1.613 . S
S729 N731 1.610 1_554 S
N730 S729 1.613 . S
N730 C733 1.350 . S
N731 S729 1.610 1_556 S
N731 C732 1.351 . S
C732 C726 1.428 . S
C732 N731 1.351 . S
C732 C733 1.434 1_556 S
C733 C724 1.429 1_455 S
C733 N730 1.350 . S
C733 C732 1.434 1_554 S
C734 C735 1.369 . S
C734 C736 1.419 . S
C734 H738 0.930 . S
C735 C734 1.369 . S
C735 C744 1.429 . S
C736 C734 1.419 . S
C736 C737 1.363 . S
C736 H739 0.929 . S
C737 C736 1.363 . S
C737 C743 1.428 . S
H738 C734 0.930 . S
H739 C736 0.929 . S
S740 N741 1.613 . S
S740 N742 1.610 . S
N741 S740 1.613 . S
N741 C744 1.350 . S
N742 S740 1.610 . S
N742 C743 1.351 . S
C743 C737 1.428 . S
C743 N742 1.351 . S
C743 C744 1.434 . S
C744 C735 1.429 . S
C744 N741 1.350 . S
C744 C743 1.434 . S
C745 C746 1.369 . S
C745 C747 1.419 . S
C745 H749 0.930 . S
C746 C745 1.369 . S
C746 C755 1.429 . S
C747 C745 1.419 . S
C747 C748 1.363 . S
C747 H750 0.929 . S
C748 C747 1.363 . S
C748 C754 1.428 . S
H749 C745 0.930 . S
H750 C747 0.929 . S
S751 N752 1.613 . S
S751 N753 1.610 . S
N752 S751 1.613 . S
N752 C755 1.350 . S
N753 S751 1.610 . S
N753 C754 1.351 . S
C754 C748 1.428 . S
C754 N753 1.351 . S
C754 C755 1.434 . S
C755 C746 1.429 . S
C755 N752 1.350 . S
C755 C754 1.434 . S
C756 C757 1.369 . S
C756 C758 1.419 . S
C756 H760 0.930 . S
C757 C756 1.369 . S
C757 C766 1.429 . S
C758 C756 1.419 . S
C758 C759 1.363 . S
C758 H761 0.929 . S
C759 C758 1.363 . S
C759 C765 1.428 . S
H760 C756 0.930 . S
H761 C758 0.929 . S
S762 N763 1.613 . S
S762 N764 1.610 . S
N763 S762 1.613 . S
N763 C766 1.350 . S
N764 S762 1.610 . S
N764 C765 1.351 . S
C765 C759 1.428 . S
C765 N764 1.351 . S
C765 C766 1.434 . S
C766 C757 1.429 . S
C766 N763 1.350 . S
C766 C765 1.434 . S
C767 C768 1.369 . S
C767 C769 1.419 1_554 S
C767 H771 0.930 . S
C768 C767 1.369 . S
C768 C777 1.429 . S
C769 C767 1.419 1_556 S
C769 C770 1.363 . S
C769 H772 0.929 . S
C770 C769 1.363 . S
C770 C776 1.428 . S
H771 C767 0.930 . S
H772 C769 0.929 . S
S773 N774 1.613 . S
S773 N775 1.599 1_554 S
N774 S773 1.613 . S
N774 C777 1.350 . S
N775 S773 1.599 1_556 S
N775 C776 1.351 . S
C776 C770 1.428 . S
C776 N775 1.351 . S
C776 C777 1.434 1_556 S
C777 C768 1.429 . S
C777 N774 1.350 . S
C777 C776 1.434 1_554 S
C778 C779 1.369 . S
C778 C780 1.419 . S
C778 H782 0.930 . S
C779 C778 1.369 . S
C779 C788 1.429 . S
C780 C778 1.419 . S
C780 C781 1.363 . S
C780 H783 0.929 . S
C781 C780 1.363 . S
C781 C787 1.428 . S
H782 C778 0.930 . S
H783 C780 0.929 . S
S784 N785 1.613 . S
S784 N786 1.610 . S
N785 S784 1.613 . S
N785 C788 1.350 . S
N786 S784 1.610 . S
N786 C787 1.351 . S
C787 C781 1.428 . S
C787 N786 1.351 . S
C787 C788 1.434 . S
C788 C779 1.429 . S
C788 N785 1.350 . S
C788 C787 1.434 . S
C789 C790 1.369 . S
C789 C791 1.419 . S
C789 H793 0.930 . S
C790 C789 1.369 . S
C790 C799 1.429 1_655 S
C791 C789 1.419 . S
C791 C792 1.363 1_655 S
C791 H794 0.929 . S
C792 C791 1.363 1_455 S
C792 C798 1.428 . S
H793 C789 0.930 . S
H794 C791 0.929 . S
S795 N796 1.613 . S
S795 N797 1.610 . S
N796 S795 1.613 . S
N796 C799 1.350 . S
N797 S795 1.610 . S
N797 C798 1.351 . S
C798 C792 1.428 . S
C798 N797 1.351 . S
C798 C799 1.434 . S
C799 C790 1.429 1_455 S
C799 N796 1.350 . S
C799 C798 1.434 . S
C800 C801 1.369 . S
C800 C802 1.419 . S
C800 H804 0.930 . S
C801 C800 1.369 . S
C801 C810 1.429 . S
C802 C800 1.419 . S
C802 C803 1.363 . S
C802 H805 0.929 . S
C803 C802 1.363 . S
C803 C809 1.428 . S
H804 C800 0.930 . S
H805 C802 0.929 . S
S806 N807 1.613 . S
S806 N808 1.610 . S
N807 S806 1.613 . S
N807 C810 1.350 . S
N808 S806 1.610 . S
N808 C809 1.351 . S
C809 C803 1.428 . S
C809 N808 1.351 . S
C809 C810 1.434 . S
C810 C801 1.429 . S
C810 N807 1.350 . S
C810 C809 1.434 . S
C811 C812 1.369 . S
C811 C813 1.419 . S
C811 H815 0.930 . S
C812 C811 1.369 . S
C812 C821 1.429 . S
C813 C811 1.419 . S
C813 C814 1.363 . S
C813 H816 0.929 . S
C814 C813 1.363 . S
C814 C820 1.428 . S
H815 C811 0.930 . S
H816 C813 0.929 . S
S817 N818 1.613 . S
S817 N819 1.610 . S
N818 S817 1.613 . S
N818 C821 1.350 . S
N819 S817 1.610 . S
N819 C820 1.351 . S
C820 C814 1.428 . S
C820 N819 1.351 . S
C820 C821 1.434 . S
C821 C812 1.429 . S
C821 N818 1.350 . S
C821 C820 1.434 . S
C822 C823 1.369 . S
C822 C824 1.419 . S
C822 H826 0.930 . S
C823 C822 1.369 . S
C823 C832 1.429 . S
C824 C822 1.419 . S
C824 C825 1.363 . S
C824 H827 0.929 . S
C825 C824 1.363 . S
C825 C831 1.428 . S
H826 C822 0.930 . S
H827 C824 0.929 . S
S828 N829 1.613 . S
S828 N830 1.610 . S
N829 S828 1.613 . S
N829 C832 1.350 . S
N830 S828 1.610 . S
N830 C831 1.351 . S
C831 C825 1.428 . S
C831 N830 1.351 . S
C831 C832 1.434 . S
C832 C823 1.429 . S
C832 N829 1.350 . S
C832 C831 1.434 . S
C833 C834 1.369 1_655 S
C833 C835 1.419 1_554 S
C833 H837 0.930 . S
C834 C833 1.369 1_455 S
C834 C843 1.429 . S
C835 C833 1.419 1_556 S
C835 C836 1.363 . S
C835 H838 0.929 . S
C836 C835 1.363 . S
C836 C842 1.428 1_655 S
H837 C833 0.930 . S
H838 C835 0.929 . S
S839 N840 1.613 1_556 S
S839 N841 1.610 . S
N840 S839 1.613 1_554 S
N840 C843 1.350 . S
N841 S839 1.610 . S
N841 C842 1.351 . S
C842 C836 1.428 1_455 S
C842 N841 1.351 . S
C842 C843 1.434 1_556 S
C843 C834 1.429 . S
C843 N840 1.350 . S
C843 C842 1.434 1_554 S
C844 C845 1.369 . S
C844 C846 1.419 . S
C844 H848 0.930 . S
C845 C844 1.369 . S
C845 C854 1.429 . S
C846 C844 1.419 . S
C846 C847 1.363 . S
C846 H849 0.929 . S
C847 C846 1.363 . S
C847 C853 1.428 . S
H848 C844 0.930 . S
H849 C846 0.929 . S
S850 N851 1.613 . S
S850 N852 1.610 . S
N851 S850 1.613 . S
N851 C854 1.350 . S
N852 S850 1.610 . S
N852 C853 1.351 . S
C853 C847 1.428 . S
C853 N852 1.351 . S
C853 C854 1.434 . S
C854 C845 1.429 . S
C854 N851 1.350 . S
C854 C853 1.434 . S
C855 C856 1.369 1_455 S
C855 C857 1.419 . S
C855 H859 0.930 . S
C856 C855 1.369 1_655 S
C856 C865 1.429 . S
C857 C855 1.419 . S
C857 C858 1.363 . S
C857 H860 0.929 . S
C858 C857 1.363 . S
C858 C864 1.428 1_455 S
H859 C855 0.930 . S
H860 C857 0.929 . S
S861 N862 1.613 . S
S861 N863 1.610 . S
N862 S861 1.613 . S
N862 C865 1.350 . S
N863 S861 1.610 . S
N863 C864 1.351 . S
C864 C858 1.428 1_655 S
C864 N863 1.351 . S
C864 C865 1.434 . S
C865 C856 1.429 . S
C865 N862 1.350 . S
C865 C864 1.434 . S
C866 C867 1.369 . S
C866 C868 1.419 . S
C866 H870 0.930 . S
C867 C866 1.369 . S
C867 C876 1.429 . S
C868 C866 1.419 . S
C868 C869 1.363 . S
C868 H871 0.929 . S
C869 C868 1.363 . S
C869 C875 1.428 . S
H870 C866 0.930 . S
H871 C868 0.929 . S
S872 N873 1.613 . S
S872 N874 1.610 . S
N873 S872 1.613 . S
N873 C876 1.350 . S
N874 S872 1.610 . S
N874 C875 1.351 . S
C875 C869 1.428 . S
C875 N874 1.351 . S
C875 C876 1.434 . S
C876 C867 1.429 . S
C876 N873 1.350 . S
C876 C875 1.434 . S
C877 C878 1.369 . S
C877 C879 1.419 1_554 S
C877 H881 0.930 . S
C878 C877 1.369 . S
C878 C887 1.429 . S
C879 C877 1.419 1_556 S
C879 C880 1.363 . S
C879 H882 0.929 . S
C880 C879 1.363 . S
C880 C886 1.428 . S
H881 C877 0.930 . S
H882 C879 0.929 . S
S883 N884 1.613 1_556 S
S883 N885 1.610 . S
N884 S883 1.613 1_554 S
N884 C887 1.350 . S
N885 S883 1.610 . S
N885 C886 1.351 . S
C886 C880 1.428 . S
C886 N885 1.351 . S
C886 C887 1.434 1_556 S
C887 C878 1.429 . S
C887 N884 1.350 . S
C887 C886 1.434 1_554 S
C888 C889 1.369 . S
C888 C890 1.419 . S
C888 H892 0.930 . S
C889 C888 1.369 . S
C889 C898 1.429 . S
C890 C888 1.419 . S
C890 C891 1.363 . S
C890 H893 0.929 . S
C891 C890 1.363 . S
C891 C897 1.428 . S
H892 C888 0.930 . S
H893 C890 0.929 . S
S894 N895 1.613 . S
S894 N896 1.610 . S
N895 S894 1.613 . S
N895 C898 1.350 . S
N896 S894 1.610 . S
N896 C897 1.351 . S
C897 C891 1.428 . S
C897 N896 1.351 . S
C897 C898 1.434 . S
C898 C889 1.429 . S
C898 N895 1.350 . S
C898 C897 1.434 . S
C899 C900 1.369 . S
C899 C901 1.419 . S
C899 H903 0.930 . S
C900 C899 1.369 . S
C900 C909 1.429 . S
C901 C899 1.419 . S
C901 C902 1.363 . S
C901 H904 0.929 . S
C902 C901 1.363 . S
C902 C908 1.428 . S
H903 C899 0.930 . S
H904 C901 0.929 . S
S905 N906 1.613 . S
S905 N907 1.610 . S
N906 S905 1.613 . S
N906 C909 1.350 . S
N907 S905 1.610 . S
N907 C908 1.351 . S
C908 C902 1.428 . S
C908 N907 1.351 . S
C908 C909 1.434 . S
C909 C900 1.429 . S
C909 N906 1.350 . S
C909 C908 1.434 . S
C910 C911 1.369 . S
C910 C912 1.419 . S
C910 H914 0.930 . S
C911 C910 1.369 . S
C911 C920 1.429 . S
C912 C910 1.419 . S
C912 C913 1.363 . S
C912 H915 0.929 . S
C913 C912 1.363 . S
C913 C919 1.428 . S
H914 C910 0.930 . S
H915 C912 0.929 . S
S916 N917 1.613 . S
S916 N918 1.610 . S
N917 S916 1.613 . S
N917 C920 1.350 . S
N918 S916 1.610 . S
N918 C919 1.351 . S
C919 C913 1.428 . S
C919 N918 1.351 . S
C919 C920 1.434 . S
C920 C911 1.429 . S
C920 N917 1.350 . S
C920 C919 1.434 . S
C921 C922 1.369 . S
C921 C923 1.419 1_556 S
C921 H925 0.930 . S
C922 C921 1.369 . S
C922 C931 1.429 1_655 S
C923 C921 1.419 1_554 S
C923 C924 1.363 1_655 S
C923 H926 0.929 . S
C924 C923 1.363 1_455 S
C924 C930 1.436 . S
H925 C921 0.930 . S
H926 C923 0.929 . S
S927 N928 1.613 . S
S927 N929 1.610 . S
N928 S927 1.613 . S
N928 C931 1.350 . S
N929 S927 1.610 . S
N929 C930 1.351 1_556 S
C930 C924 1.436 . S
C930 N929 1.351 1_554 S
C930 C931 1.426 1_554 S
C931 C922 1.429 1_455 S
C931 N928 1.350 . S
C931 C930 1.426 1_556 S
C932 C933 1.369 . S
C932 C934 1.419 . S
C932 H936 0.930 . S
C933 C932 1.369 . S
C933 C942 1.429 . S
C934 C932 1.419 . S
C934 C935 1.363 . S
C934 H937 0.929 . S
C935 C934 1.363 . S
C935 C941 1.428 . S
H936 C932 0.930 . S
H937 C934 0.929 . S
S938 N939 1.613 . S
S938 N940 1.610 . S
N939 S938 1.613 . S
N939 C942 1.350 . S
N940 S938 1.610 . S
N940 C941 1.351 . S
C941 C935 1.428 . S
C941 N940 1.351 . S
C941 C942 1.434 . S
C942 C933 1.429 . S
C942 N939 1.350 . S
C942 C941 1.434 . S
C943 C944 1.369 . S
C943 C945 1.419 . S
C943 H947 0.930 . S
C944 C943 1.369 . S
C944 C953 1.429 1_655 S
C945 C943 1.419 . S
C945 C946 1.363 1_655 S
C945 H948 0.929 . S
C946 C945 1.363 1_455 S
C946 C952 1.428 . S
H947 C943 0.930 . S
H948 C945 0.929 . S
S949 N950 1.613 . S
S949 N951 1.610 . S
N950 S949 1.613 . S
N950 C953 1.350 . S
N951 S949 1.610 . S
N951 C952 1.351 . S
C952 C946 1.428 . S
C952 N951 1.351 . S
C952 C953 1.434 . S
C953 C944 1.429 1_455 S
C953 N950 1.350 . S
C953 C952 1.434 . S
C954 C955 1.369 . S
C954 C956 1.419 . S
C954 H958 0.930 . S
C955 C954 1.369 . S
C955 C964 1.429 . S
C956 C954 1.419 . S
C956 C957 1.363 . S
C956 H959 0.929 . S
C957 C956 1.363 . S
C957 C963 1.428 . S
H958 C954 0.930 . S
H959 C956 0.929 . S
S960 N961 1.613 . S
S960 N962 1.610 . S
N961 S960 1.613 . S
N961 C964 1.350 . S
N962 S960 1.610 . S
N962 C963 1.351 . S
C963 C957 1.428 . S
C963 N962 1.351 . S
C963 C964 1.434 . S
C964 C955 1.429 . S
C964 N961 1.350 . S
C964 C963 1.434 . S
C965 C966 1.369 . S
C965 C967 1.419 1_554 S
C965 H969 0.930 . S
C966 C965 1.369 . S
C966 C975 1.429 . S
C967 C965 1.419 1_556 S
C967 C968 1.363 . S
C967 H970 0.929 . S
C968 C967 1.363 . S
C968 C974 1.428 . S
H969 C965 0.930 . S
H970 C967 0.929 . S
S971 N972 1.613 1_556 S
S971 N973 1.610 . S
N972 S971 1.613 1_554 S
N972 C975 1.350 . S
N973 S971 1.610 . S
N973 C974 1.351 . S
C974 C968 1.428 . S
C974 N973 1.351 . S
C974 C975 1.434 1_556 S
C975 C966 1.429 . S
C975 N972 1.350 . S
C975 C974 1.434 1_554 S
C976 C977 1.369 . S
C976 C978 1.419 . S
C976 H980 0.930 . S
C977 C976 1.369 . S
C977 C986 1.429 . S
C978 C976 1.419 . S
C978 C979 1.363 . S
C978 H981 0.929 . S
C979 C978 1.363 . S
C979 C985 1.428 . S
H980 C976 0.930 . S
H981 C978 0.929 . S
S982 N983 1.613 . S
S982 N984 1.610 . S
N983 S982 1.613 . S
N983 C986 1.350 . S
N984 S982 1.610 . S
N984 C985 1.351 . S
C985 C979 1.428 . S
C985 N984 1.351 . S
C985 C986 1.434 . S
C986 C977 1.429 . S
C986 N983 1.350 . S
C986 C985 1.434 . S
C987 C988 1.369 . S
C987 C989 1.419 . S
C987 H991 0.930 . S
C988 C987 1.369 . S
C988 C997 1.429 . S
C989 C987 1.419 . S
C989 C990 1.363 . S
C989 H992 0.929 . S
C990 C989 1.363 . S
C990 C996 1.428 . S
H991 C987 0.930 . S
H992 C989 0.929 . S
S993 N994 1.613 . S
S993 N995 1.610 . S
N994 S993 1.613 . S
N994 C997 1.350 . S
N995 S993 1.610 . S
N995 C996 1.351 . S
C996 C990 1.428 . S
C996 N995 1.351 . S
C996 C997 1.434 . S
C997 C988 1.429 . S
C997 N994 1.350 . S
C997 C996 1.434 . S
C998 C999 1.369 . S
C998 C1000 1.419 . S
C998 H1002 0.930 . S
C999 C998 1.369 . S
C999 C1008 1.429 . S
C1000 C998 1.419 . S
C1000 C1001 1.363 . S
C1000 H1003 0.929 . S
C1001 C1000 1.363 . S
C1001 C1007 1.428 . S
H1002 C998 0.930 . S
H1003 C1000 0.929 . S
S1004 N1005 1.613 . S
S1004 N1006 1.610 . S
N1005 S1004 1.613 . S
N1005 C1008 1.350 . S
N1006 S1004 1.610 . S
N1006 C1007 1.351 . S
C1007 C1001 1.428 . S
C1007 N1006 1.351 . S
C1007 C1008 1.434 . S
C1008 C999 1.429 . S
C1008 N1005 1.350 . S
C1008 C1007 1.434 . S
C1009 C1010 1.369 . S
C1009 C1011 1.419 . S
C1009 H1013 0.930 . S
C1010 C1009 1.369 . S
C1010 C1019 1.429 . S
C1011 C1009 1.419 . S
C1011 C1012 1.363 . S
C1011 H1014 0.929 . S
C1012 C1011 1.363 . S
C1012 C1018 1.428 . S
H1013 C1009 0.930 . S
H1014 C1011 0.929 . S
S1015 N1016 1.613 . S
S1015 N1017 1.610 . S
N1016 S1015 1.613 . S
N1016 C1019 1.350 . S
N1017 S1015 1.610 . S
N1017 C1018 1.351 . S
C1018 C1012 1.428 . S
C1018 N1017 1.351 . S
C1018 C1019 1.434 . S
C1019 C1010 1.429 . S
C1019 N1016 1.350 . S
C1019 C1018 1.434 . S
C1020 C1021 1.369 . S
C1020 C1022 1.419 . S
C1020 H1024 0.930 . S
C1021 C1020 1.369 . S
C1021 C1030 1.429 . S
C1022 C1020 1.419 . S
C1022 C1023 1.363 . S
C1022 H1025 0.929 . S
C1023 C1022 1.363 . S
C1023 C1029 1.428 . S
H1024 C1020 0.930 . S
H1025 C1022 0.929 . S
S1026 N1027 1.613 . S
S1026 N1028 1.610 . S
N1027 S1026 1.613 . S
N1027 C1030 1.350 . S
N1028 S1026 1.610 . S
N1028 C1029 1.351 . S
C1029 C1023 1.428 . S
C1029 N1028 1.351 . S
C1029 C1030 1.434 . S
C1030 C1021 1.429 . S
C1030 N1027 1.350 . S
C1030 C1029 1.434 . S
C1031 C1032 1.369 . S
C1031 C1033 1.419 . S
C1031 H1035 0.930 . S
C1032 C1031 1.369 . S
C1032 C1041 1.429 . S
C1033 C1031 1.419 . S
C1033 C1034 1.363 . S
C1033 H1036 0.929 . S
C1034 C1033 1.363 . S
C1034 C1040 1.428 . S
H1035 C1031 0.930 . S
H1036 C1033 0.929 . S
S1037 N1038 1.613 . S
S1037 N1039 1.610 . S
N1038 S1037 1.613 . S
N1038 C1041 1.350 . S
N1039 S1037 1.610 . S
N1039 C1040 1.351 . S
C1040 C1034 1.428 . S
C1040 N1039 1.351 . S
C1040 C1041 1.434 . S
C1041 C1032 1.429 . S
C1041 N1038 1.350 . S
C1041 C1040 1.434 . S
C1042 C1043 1.369 . S
C1042 C1044 1.419 . S
C1042 H1046 0.930 . S
C1043 C1042 1.369 . S
C1043 C1052 1.429 . S
C1044 C1042 1.419 . S
C1044 C1045 1.363 . S
C1044 H1047 0.929 . S
C1045 C1044 1.363 . S
C1045 C1051 1.428 . S
H1046 C1042 0.930 . S
H1047 C1044 0.929 . S
S1048 N1049 1.613 . S
S1048 N1050 1.610 . S
N1049 S1048 1.613 . S
N1049 C1052 1.350 . S
N1050 S1048 1.610 . S
N1050 C1051 1.351 . S
C1051 C1045 1.428 . S
C1051 N1050 1.351 . S
C1051 C1052 1.434 . S
C1052 C1043 1.429 . S
C1052 N1049 1.350 . S
C1052 C1051 1.434 . S
C1053 C1054 1.369 . S
C1053 C1055 1.419 . S
C1053 H1057 0.930 . S
C1054 C1053 1.369 . S
C1054 C1063 1.429 . S
C1055 C1053 1.419 . S
C1055 C1056 1.363 . S
C1055 H1058 0.929 . S
C1056 C1055 1.363 . S
C1056 C1062 1.428 . S
H1057 C1053 0.930 . S
H1058 C1055 0.929 . S
S1059 N1060 1.613 1_556 S
S1059 N1061 1.610 1_556 S
N1060 S1059 1.613 1_554 S
N1060 C1063 1.350 . S
N1061 S1059 1.610 1_554 S
N1061 C1062 1.351 . S
C1062 C1056 1.428 . S
C1062 N1061 1.351 . S
C1062 C1063 1.434 . S
C1063 C1054 1.429 . S
C1063 N1060 1.350 . S
C1063 C1062 1.434 . S
C1064 C1065 1.369 . S
C1064 C1066 1.419 . S
C1064 H1068 0.930 . S
C1065 C1064 1.369 . S
C1065 C1074 1.429 . S
C1066 C1064 1.419 . S
C1066 C1067 1.363 . S
C1066 H1069 0.929 . S
C1067 C1066 1.363 . S
C1067 C1073 1.428 . S
H1068 C1064 0.930 . S
H1069 C1066 0.929 . S
S1070 N1071 1.613 . S
S1070 N1072 1.610 . S
N1071 S1070 1.613 . S
N1071 C1074 1.350 . S
N1072 S1070 1.610 . S
N1072 C1073 1.351 . S
C1073 C1067 1.428 . S
C1073 N1072 1.351 . S
C1073 C1074 1.434 . S
C1074 C1065 1.429 . S
C1074 N1071 1.350 . S
C1074 C1073 1.434 . S
C1075 C1076 1.369 . S
C1075 C1077 1.419 . S
C1075 H1079 0.930 . S
C1076 C1075 1.369 . S
C1076 C1085 1.429 . S
C1077 C1075 1.419 . S
C1077 C1078 1.363 . S
C1077 H1080 0.929 . S
C1078 C1077 1.363 . S
C1078 C1084 1.428 . S
H1079 C1075 0.930 . S
H1080 C1077 0.929 . S
S1081 N1082 1.613 . S
S1081 N1083 1.610 . S
N1082 S1081 1.613 . S
N1082 C1085 1.350 . S
N1083 S1081 1.610 . S
N1083 C1084 1.351 . S
C1084 C1078 1.428 . S
C1084 N1083 1.351 . S
C1084 C1085 1.434 . S
C1085 C1076 1.429 . S
C1085 N1082 1.350 . S
C1085 C1084 1.434 . S
C1086 C1087 1.369 . S
C1086 C1088 1.419 . S
C1086 H1090 0.930 . S
C1087 C1086 1.369 . S
C1087 C1096 1.429 . S
C1088 C1086 1.419 . S
C1088 C1089 1.363 . S
C1088 H1091 0.929 . S
C1089 C1088 1.363 . S
C1089 C1095 1.428 . S
H1090 C1086 0.930 . S
H1091 C1088 0.929 . S
S1092 N1093 1.613 . S
S1092 N1094 1.610 . S
N1093 S1092 1.613 . S
N1093 C1096 1.350 . S
N1094 S1092 1.610 . S
N1094 C1095 1.351 . S
C1095 C1089 1.428 . S
C1095 N1094 1.351 . S
C1095 C1096 1.434 . S
C1096 C1087 1.429 . S
C1096 N1093 1.350 . S
C1096 C1095 1.434 . S
C1097 C1098 1.369 . S
C1097 C1099 1.419 . S
C1097 H1101 0.930 . S
C1098 C1097 1.369 . S
C1098 C1107 1.429 . S
C1099 C1097 1.419 . S
C1099 C1100 1.363 . S
C1099 H1102 0.929 . S
C1100 C1099 1.363 . S
C1100 C1106 1.428 . S
H1101 C1097 0.930 . S
H1102 C1099 0.929 . S
S1103 N1104 1.613 . S
S1103 N1105 1.610 . S
N1104 S1103 1.613 . S
N1104 C1107 1.350 . S
N1105 S1103 1.610 . S
N1105 C1106 1.351 . S
C1106 C1100 1.428 . S
C1106 N1105 1.351 . S
C1106 C1107 1.434 . S
C1107 C1098 1.429 . S
C1107 N1104 1.350 . S
C1107 C1106 1.434 . S
C1108 C1109 1.369 . S
C1108 C1110 1.419 . S
C1108 H1112 0.930 . S
C1109 C1108 1.369 . S
C1109 C1118 1.429 . S
C1110 C1108 1.419 . S
C1110 C1111 1.363 . S
C1110 H1113 0.929 . S
C1111 C1110 1.363 . S
C1111 C1117 1.428 . S
H1112 C1108 0.930 . S
H1113 C1110 0.929 . S
S1114 N1115 1.613 . S
S1114 N1116 1.610 . S
N1115 S1114 1.613 . S
N1115 C1118 1.350 . S
N1116 S1114 1.610 . S
N1116 C1117 1.351 . S
C1117 C1111 1.428 . S
C1117 N1116 1.351 . S
C1117 C1118 1.434 . S
C1118 C1109 1.429 . S
C1118 N1115 1.350 . S
C1118 C1117 1.434 . S
C1119 C1120 1.369 . S
C1119 C1121 1.419 . S
C1119 H1123 0.930 . S
C1120 C1119 1.369 . S
C1120 C1129 1.429 . S
C1121 C1119 1.419 . S
C1121 C1122 1.363 . S
C1121 H1124 0.929 . S
C1122 C1121 1.363 . S
C1122 C1128 1.428 . S
H1123 C1119 0.930 . S
H1124 C1121 0.929 . S
S1125 N1126 1.613 . S
S1125 N1127 1.610 . S
N1126 S1125 1.613 . S
N1126 C1129 1.350 . S
N1127 S1125 1.610 . S
N1127 C1128 1.351 . S
C1128 C1122 1.428 . S
C1128 N1127 1.351 . S
C1128 C1129 1.434 . S
C1129 C1120 1.429 . S
C1129 N1126 1.350 . S
C1129 C1128 1.434 . S
C1130 C1131 1.369 . S
C1130 C1132 1.419 . S
C1130 H1134 0.930 . S
C1131 C1130 1.369 . S
C1131 C1140 1.429 . S
C1132 C1130 1.419 . S
C1132 C1133 1.363 . S
C1132 H1135 0.929 . S
C1133 C1132 1.363 . S
C1133 C1139 1.428 . S
H1134 C1130 0.930 . S
H1135 C1132 0.929 . S
S1136 N1137 1.613 . S
S1136 N1138 1.610 . S
N1137 S1136 1.613 . S
N1137 C1140 1.350 . S
N1138 S1136 1.610 . S
N1138 C1139 1.351 . S
C1139 C1133 1.428 . S
C1139 N1138 1.351 . S
C1139 C1140 1.434 . S
C1140 C1131 1.429 . S
C1140 N1137 1.350 . S
C1140 C1139 1.434 . S
C1141 C1142 1.369 . S
C1141 C1143 1.419 . S
C1141 H1145 0.930 . S
C1142 C1141 1.369 . S
C1142 C1151 1.429 . S
C1143 C1141 1.419 . S
C1143 C1144 1.363 . S
C1143 H1146 0.929 . S
C1144 C1143 1.363 . S
C1144 C1150 1.428 . S
H1145 C1141 0.930 . S
H1146 C1143 0.929 . S
S1147 N1148 1.613 . S
S1147 N1149 1.610 . S
N1148 S1147 1.613 . S
N1148 C1151 1.350 . S
N1149 S1147 1.610 . S
N1149 C1150 1.351 . S
C1150 C1144 1.428 . S
C1150 N1149 1.351 . S
C1150 C1151 1.434 . S
C1151 C1142 1.429 . S
C1151 N1148 1.350 . S
C1151 C1150 1.434 . S
C449 C93 1.523 . S
C451 C9 1.519 . S
C460 C23 1.518 . S
C462 C107 1.522 . S
C471 C65 1.521 . S
C473 C37 1.516 . S
C482 C51 1.522 . S
C484 C79 1.520 . S
C493 C205 1.516 . S
C495 C121 1.521 . S
C504 C219 1.522 . S
C506 C135 1.520 . S
C515 C149 1.523 . S
C517 C177 1.518 . S
C526 C163 1.517 . S
C528 C191 1.522 . S
C537 C233 1.515 . S
C539 C317 1.519 . S
C548 C247 1.520 . S
C550 C331 1.522 . S
C559 C289 1.522 . S
C561 C261 1.520 . S
C570 C303 1.517 . S
C572 C275 1.522 . S
C581 C345 1.516 . S
C583 C429 1.521 . S
C592 C443 1.523 . S
C594 C359 1.519 . S
C603 C401 1.516 . S
C605 C373 1.521 . S
C614 C387 1.519 . S
C616 C415 1.516 . S
C625 C7 1.350 . S
C627 C428 1.376 . S
C636 C218 1.371 . S
C638 C21 1.347 . S
C647 C35 1.341 . S
C649 C400 1.375 . S
C658 C49 1.345 . S
C660 C190 1.371 . S
C669 C372 1.370 . S
C671 C63 1.344 . S
C680 C162 1.377 . S
C682 C77 1.344 . S
C691 C91 1.341 . S
C693 C344 1.371 . S
C702 C134 1.377 . S
C704 C105 1.344 . S
C713 C119 1.341 . S
C715 C316 1.371 . S
C724 C106 1.376 . S
C726 C133 1.349 . S
C735 C147 1.345 . S
C737 C288 1.377 . S
C746 C161 1.339 . S
C748 C78 1.373 . S
C757 C260 1.377 . S
C759 C175 1.347 . S
C768 C189 1.342 . S
C770 C50 1.371 . S
C779 C203 1.348 . S
C781 C232 1.376 . S
C790 C22 1.373 . S
C792 C217 1.349 . S
C801 C231 1.340 . S
C803 C204 1.371 . S
C812 C245 1.347 . S
C814 C442 1.372 . S
C823 C176 1.373 . S
C825 C259 1.341 . S
C834 C273 1.350 . S
C836 C414 1.375 . S
C845 C148 1.376 . S
C847 C287 1.349 . S
C856 C386 1.371 . S
C858 C301 1.346 . S
C867 C120 1.377 . S
C869 C315 1.348 . S
C878 C358 1.370 . S
C880 C329 1.345 . S
C889 C343 1.346 . S
C891 C92 1.377 . S
C900 C330 1.375 . S
C902 C357 1.349 . S
C911 C64 1.376 . S
C913 C371 1.349 . S
C922 C385 1.340 . S
C924 C302 1.372 . S
C933 C399 1.340 . S
C935 C36 1.372 . S
C944 C413 1.341 . S
C946 C274 1.371 . S
C955 C8 1.370 . S
C957 C427 1.342 . S
C966 C441 1.350 . S
C968 C246 1.375 . S
C977 C6 1.481 . S
C979 C300 1.484 . S
C988 C314 1.488 . S
C990 C20 1.482 . S
C999 C34 1.484 . S
C1001 C328 1.488 . S
C1010 C286 1.484 . S
C1012 C48 1.488 . S
C1021 C272 1.488 . S
C1023 C62 1.487 . S
C1032 C230 1.488 . S
C1034 C76 1.488 . S
C1043 C244 1.481 . S
C1045 C90 1.487 . S
C1054 C258 1.489 . S
C1056 C104 1.483 . S
C1065 C118 1.486 . S
C1067 C412 1.488 . S
C1076 C426 1.483 . S
C1078 C132 1.482 . S
C1087 C440 1.484 . S
C1089 C146 1.482 . S
C1098 C398 1.484 . S
C1100 C160 1.488 . S
C1109 C384 1.488 . S
C1111 C174 1.482 . S
C1120 C342 1.487 . S
C1122 C188 1.482 . S
C1131 C202 1.485 . S
C1133 C356 1.488 . S
C1142 C216 1.490 . S
C1144 C370 1.485 . S
