# Generated by pormake.
# Topology rkf, (6)-cn, num edge types: 1
# Building blocks:
#     Node 0, Type 0, BuildingBlock: HISSIN_clean_sbu_0, # of connection points: 6
#     Node 1, Type 0, BuildingBlock: HISSIN_clean_sbu_0, # of connection points: 6
#     Node 2, Type 0, BuildingBlock: HISSIN_clean_sbu_0, # of connection points: 6
#     Node 3, Type 0, BuildingBlock: HISSIN_clean_sbu_0, # of connection points: 6
#     Node 4, Type 0, BuildingBlock: HISSIN_clean_sbu_0, # of connection points: 6
#     Node 5, Type 0, BuildingBlock: HISSIN_clean_sbu_0, # of connection points: 6
#     Edge 6, Type (0, 0), BuildingBlock: FUNLAD_clean_linker_0, # of connection points: 2
#     Edge 7, Type (0, 0), BuildingBlock: FUNLAD_clean_linker_0, # of connection points: 2
#     Edge 8, Type (0, 0), BuildingBlock: FUNLAD_clean_linker_0, # of connection points: 2
#     Edge 9, Type (0, 0), BuildingBlock: FUNLAD_clean_linker_0, # of connection points: 2
#     Edge 10, Type (0, 0), BuildingBlock: FUNLAD_clean_linker_0, # of connection points: 2
#     Edge 11, Type (0, 0), BuildingBlock: FUNLAD_clean_linker_0, # of connection points: 2
#     Edge 12, Type (0, 0), BuildingBlock: FUNLAD_clean_linker_0, # of connection points: 2
#     Edge 13, Type (0, 0), BuildingBlock: FUNLAD_clean_linker_0, # of connection points: 2
#     Edge 14, Type (0, 0), BuildingBlock: FUNLAD_clean_linker_0, # of connection points: 2
#     Edge 15, Type (0, 0), BuildingBlock: FUNLAD_clean_linker_0, # of connection points: 2
#     Edge 16, Type (0, 0), BuildingBlock: FUNLAD_clean_linker_0, # of connection points: 2
#     Edge 17, Type (0, 0), BuildingBlock: FUNLAD_clean_linker_0, # of connection points: 2
#     Edge 18, Type (0, 0), BuildingBlock: FUNLAD_clean_linker_0, # of connection points: 2
#     Edge 19, Type (0, 0), BuildingBlock: FUNLAD_clean_linker_0, # of connection points: 2
#     Edge 20, Type (0, 0), BuildingBlock: FUNLAD_clean_linker_0, # of connection points: 2
#     Edge 21, Type (0, 0), BuildingBlock: FUNLAD_clean_linker_0, # of connection points: 2
#     Edge 22, Type (0, 0), BuildingBlock: FUNLAD_clean_linker_0, # of connection points: 2
#     Edge 23, Type (0, 0), BuildingBlock: FUNLAD_clean_linker_0, # of connection points: 2
# Relax obj value: 0.600
# Max RMSD: 0.256
# Mean RMSD: 0.256
data_MOF--net-rkf--node1-HISSIN_clean_sbu_0--edge1-FUNLAD_clean_linker_0
_symmetry_space_group_name_H-M    P1
_symmetry_Int_Tables_number       1
_symmetry_cell_setting            triclinic
loop_
_symmetry_equiv_pos_as_xyz
'x, y, z'
_cell_length_a     28.534366
_cell_length_b     28.438598
_cell_length_c     52.218075
_cell_angle_alpha  89.936619
_cell_angle_beta   90.161526
_cell_angle_gamma 119.50718
loop_
_atom_site_label
_atom_site_type_symbol
_atom_site_fract_x
_atom_site_fract_y
_atom_site_fract_z
_atom_type_partial_charge
Eu0 Eu 0.26212 0.08266 0.14804 0.0
Eu1 Eu 0.34871 0.20883 0.13215 0.0
C2 C 0.38814 0.12591 0.14607 0.0
C3 C 0.19338 0.94165 0.17847 0.0
C4 C 0.15628 0.88692 0.17462 0.0
C5 C 0.22625 0.91848 0.21662 0.0
C6 C 0.15398 0.84803 0.1917 0.0
C7 C 0.22855 0.95733 0.19947 0.0
C8 C 0.18892 0.86336 0.21292 0.0
C9 C 0.19786 0.98117 0.15926 0.0
O10 O 0.31819 0.16817 1.09318 0.0
O11 O 0.27674 0.07867 1.10535 0.0
C12 C 0.29363 0.11613 1.08736 0.0
O13 O 0.21787 0.11435 0.12414 0.0
O14 O 0.4293 0.27911 0.13423 0.0
O15 O 0.36477 0.2853 0.11529 0.0
O16 O 0.26719 0.19792 0.14002 0.0
C17 C 0.22771 0.16435 0.12544 0.0
O18 O 0.2656 0.13136 0.18351 0.0
O19 O 0.34556 0.20926 0.17578 0.0
O20 O 0.39112 0.16048 0.12869 0.0
O21 O 0.18953 0.02026 0.16682 0.0
O22 O 0.23938 -0.00189 0.14418 0.0
O23 O 0.34526 0.10063 0.16054 0.0
C24 C 0.45189 0.339 1.09932 0.0
C25 C 0.45661 0.31115 1.07826 0.0
C26 C 0.50636 0.42404 1.07734 0.0
C27 C 0.48503 0.33956 1.05658 0.0
C28 C 0.47796 0.39554 1.09904 0.0
C29 C 0.50893 0.39624 1.05561 0.0
C30 C 0.41613 0.30939 0.1206 0.0
C31 C 0.30538 0.17848 0.19123 0.0
H32 H 0.12948 0.87418 0.15821 0.0
H33 H 0.25309 0.93173 0.233 0.0
H34 H 0.12515 0.80594 0.18819 0.0
H35 H 0.25789 -0.00051 0.2025 0.0
H36 H 0.43639 0.26739 1.07818 0.0
H37 H 0.52464 0.46765 1.07722 0.0
H38 H 0.48545 0.31683 1.04004 0.0
H39 H 0.47463 0.41754 0.11522 0.0
Eu40 Eu 0.30307 0.29879 0.48056 0.0
Eu41 Eu 0.24765 0.37322 0.46473 0.0
C42 C 0.37218 0.42662 0.47535 0.0
C43 C 0.39915 0.26334 0.51339 0.0
C44 C 0.4435 0.31579 0.51563 0.0
C45 C 0.43041 0.23634 0.55088 0.0
C46 C 0.48052 0.32855 0.53555 0.0
C47 C 0.3936 0.22347 0.53081 0.0
C48 C 0.47366 0.28935 0.55379 0.0
C49 C 0.35708 0.25089 0.49397 0.0
O50 O 0.26002 0.34509 0.42532 0.0
O51 O 0.31101 0.30585 0.43722 0.0
C52 C 0.2878 0.32056 0.41942 0.0
O53 O 0.22785 0.2437 0.45883 0.0
O54 O 0.24686 0.44945 0.46773 0.0
O55 O 0.18116 0.38067 0.4487 0.0
O56 O 0.18523 0.28762 0.47264 0.0
C57 C 0.18482 0.24902 0.45892 0.0
O58 O 0.25453 0.29559 0.51555 0.0
O59 O 0.2492 0.37255 0.50871 0.0
O60 O 0.33666 0.42452 0.45881 0.0
O61 O 0.30878 0.23618 0.50256 0.0
O62 O 0.37066 0.28499 0.475 0.0
O63 O 0.36054 0.38574 0.49061 0.0
C64 C 0.20207 0.46724 0.43427 0.0
C65 C 0.22098 0.46596 0.4097 0.0
C66 C 0.17424 0.53064 0.41934 0.0
C67 C 0.21527 0.49578 0.38988 0.0
C68 C 0.17985 0.50064 0.43914 0.0
C69 C 0.19068 0.52753 0.39432 0.0
C70 C 0.20238 0.43175 0.45457 0.0
C71 C 0.24459 0.33345 0.52404 0.0
H72 H 0.44892 0.3475 0.50245 0.0
H73 H 0.42331 0.20531 0.56482 0.0
H74 H 0.51366 0.36954 0.53706 0.0
H75 H 0.35969 0.18286 0.52944 0.0
H76 H 0.23834 0.44039 0.40565 0.0
H77 H 0.1557 0.55509 0.42346 0.0
H78 H 0.2276 0.49165 0.37081 0.0
H79 H 0.16537 0.50227 0.4581 0.0
Eu80 Eu 0.12458 0.29913 0.81244 0.0
Eu81 Eu 0.02181 0.31723 0.80201 0.0
C82 C 0.13048 0.4135 0.82335 0.0
C83 C 0.26126 0.31333 0.83212 0.0
C84 C 0.29949 0.29765 0.82636 0.0
C85 C 0.32194 0.37615 0.86384 0.0
C86 C 0.34853 0.3206 0.83948 0.0
C87 C 0.2729 0.35318 0.85067 0.0
C88 C 0.36005 0.35963 0.8586 0.0
C89 C 0.20979 0.28805 0.81838 0.0
O90 O 0.07271 0.34412 0.76516 0.0
O91 O 0.11291 0.29229 0.76947 0.0
C92 C 0.09926 0.32147 0.75506 0.0
O93 O 0.05287 0.21566 0.80603 0.0
O94 O -0.01423 0.36114 0.78351 0.0
O95 O 0.93865 0.29533 0.80954 0.0
O96 O -0.00051 0.2393 0.78266 0.0
C97 C 0.01195 0.20326 0.79054 0.0
O98 O 0.09135 0.29457 0.85253 0.0
O99 O 0.00598 0.27516 0.841 0.0
O100 O 0.07826 0.38704 0.82621 0.0
O101 O 0.16633 0.26261 0.83218 0.0
O102 O 0.20479 0.31709 0.80044 0.0
O103 O 0.15603 0.39001 0.81346 0.0
C104 C 0.89468 0.30224 0.77282 0.0
C105 C 0.87468 0.24782 0.76614 0.0
C106 C 0.8362 0.30867 0.74074 0.0
C107 C 0.83588 0.22406 0.74702 0.0
C108 C 0.87483 0.3324 0.76018 0.0
C109 C 0.81661 0.25429 0.73389 0.0
C110 C 0.93772 0.32775 0.79213 0.0
C111 C 0.04053 0.2772 0.85848 0.0
H112 H 0.29122 0.26728 0.81185 0.0
H113 H 0.32924 0.40552 0.87871 0.0
H114 H 0.37724 0.30744 0.83481 0.0
H115 H 0.24378 0.36591 0.85518 0.0
H116 H 0.88983 0.22377 0.77533 0.0
H117 H 0.82215 0.33291 0.73084 0.0
H118 H 0.82262 0.18251 0.74178 0.0
H119 H 0.88995 0.37449 0.76499 0.0
Eu120 Eu 0.9291 0.15163 0.14634 0.0
Eu121 Eu 0.8666 0.02018 0.13246 0.0
C122 C 0.7994 0.08424 0.14502 0.0
C123 C -0.00868 0.29687 0.17322 0.0
C124 C 0.96843 0.28344 0.1977 0.0
C125 C 0.0269 0.39194 0.18283 0.0
C126 C 0.97564 0.32421 0.21485 0.0
C127 C 0.01975 0.35117 0.16574 0.0
C128 C 0.00574 0.37901 0.20774 0.0
C129 C -0.01267 0.25524 0.15539 0.0
O130 O 0.87469 0.05778 1.09266 0.0
O131 O 0.92139 0.1489 1.10266 0.0
C132 C 0.89939 0.10937 1.08567 0.0
O133 O -0.01465 0.11854 0.14022 0.0
O134 O 0.79102 0.94443 0.1311 0.0
O135 O 0.86614 0.94378 0.12641 0.0
O136 O 0.94395 0.05343 1.11084 0.0
C137 C -0.01291 0.09701 0.11836 0.0
O138 O 0.90652 0.1112 0.18552 0.0
O139 O 0.89786 0.0297 0.17361 0.0
O140 O 0.80097 0.04217 0.13563 0.0
O141 O -0.00154 0.21908 0.1645 0.0
O142 O 0.94567 0.23434 0.14016 0.0
O143 O 0.84261 0.12834 0.15253 0.0
C144 C 0.78923 0.87546 1.10494 0.0
C145 C 0.80636 0.83751 1.10112 0.0
C146 C 0.72513 0.8348 1.07 0.0
C147 C 0.78376 0.79907 1.08166 0.0
C148 C 0.74801 0.87349 1.08937 0.0
C149 C 0.74316 0.79752 1.06573 0.0
C150 C 0.81367 0.91551 0.12568 0.0
C151 C 0.90274 0.06439 0.1916 0.0
H152 H 0.94612 0.2416 0.20373 0.0
H153 H 0.0497 0.43364 0.17667 0.0
H154 H 0.95942 0.31284 0.234 0.0
H155 H 0.03729 0.36212 0.1468 0.0
H156 H 0.83777 0.83801 1.11303 0.0
H157 H 0.69357 0.83436 1.05826 0.0
H158 H 0.79933 0.77165 1.07863 0.0
H159 H 0.73354 0.90192 1.09201 0.0
Eu160 Eu 0.9073 0.94851 0.48052 0.0
Eu161 Eu 0.96026 0.87003 0.46726 0.0
C162 C 0.83347 0.81883 0.48308 0.0
C163 C 0.83869 0.02048 0.51143 0.0
C164 C 0.80543 0.97617 0.52692 0.0
C165 C 0.80776 0.07486 0.53364 0.0
C166 C 0.77383 0.98138 0.54591 0.0
C167 C 0.83915 0.06952 0.51465 0.0
C168 C 0.77527 0.03108 0.54975 0.0
C169 C 0.87422 0.01664 0.49236 0.0
O170 O 0.93002 0.88154 0.42786 0.0
O171 O 0.90449 0.94531 0.4371 0.0
C172 C 0.91299 0.91543 0.42047 0.0
O173 O -0.00312 -0.00506 0.47397 0.0
O174 O 0.95429 0.79445 0.45396 0.0
O175 O 0.02724 0.85491 0.47276 0.0
O176 O 0.0119 0.94547 0.44518 0.0
C177 C 0.01822 -0.00775 0.45222 0.0
O178 O 0.91593 0.91566 0.51897 0.0
O179 O -0.01279 0.90497 0.50751 0.0
O180 O 0.87674 0.81365 0.48206 0.0
O181 O 0.91864 0.02008 0.50115 0.0
O182 O 0.85095 0.9786 0.47528 0.0
O183 O 0.83523 0.86557 0.48047 0.0
C184 C 0.03614 0.79838 0.44264 0.0
C185 C 0.06498 0.83616 0.42351 0.0
C186 C 0.07118 0.74111 0.42741 0.0
C187 C 0.09694 0.82657 0.40647 0.0
C188 C 0.03941 0.75091 0.44455 0.0
C189 C 0.1004 0.77895 0.40825 0.0
C190 C 0.00335 0.80831 0.46104 0.0
C191 C 0.95743 0.9098 0.52545 0.0
H192 H 0.80458 0.9379 0.52458 0.0
H193 H 0.81065 0.11395 0.53634 0.0
H194 H 0.7489 0.94677 0.55781 0.0
H195 H 0.86474 0.1041 0.50283 0.0
H196 H 0.06266 0.87294 0.42173 0.0
H197 H 0.07315 0.70418 0.42923 0.0
H198 H 0.1181 0.85596 0.39156 0.0
H199 H 0.01741 0.72144 0.45932 0.0
Eu200 Eu 0.07903 0.86454 0.81361 0.0
Eu201 Eu 0.19466 0.97131 0.80167 0.0
C202 C 0.17966 0.8532 0.80299 0.0
C203 C 0.95007 0.75284 0.8446 0.0
C204 C 0.89891 0.70871 0.8398 0.0
C205 C 0.92865 0.74775 0.88972 0.0
C206 C 0.86258 0.68418 0.85987 0.0
C207 C 0.96481 0.77235 0.86963 0.0
C208 C 0.87715 0.70339 0.88505 0.0
C209 C -0.01212 0.77751 0.8234 0.0
O210 O 0.16091 0.94089 0.76159 0.0
O211 O 0.07185 0.88237 0.77137 0.0
C212 C 0.11006 0.91031 0.75443 0.0
O213 O 0.0767 0.93931 0.82386 0.0
O214 O 0.27612 0.00672 0.78654 0.0
O215 O 0.25124 0.05685 0.80746 0.0
O216 O 0.12853 -0.00938 0.79159 0.0
C217 C 0.08468 0.97332 0.8054 0.0
O218 O 0.12141 0.88903 0.85296 0.0
O219 O 0.18163 0.9775 0.84386 0.0
O220 O 0.20839 0.90153 0.81294 0.0
O221 O -0.00886 0.82122 0.8135 0.0
O222 O 0.03498 0.78101 0.82634 0.0
O223 O 0.13217 0.83939 0.79377 0.0
C224 C 0.32457 0.10153 0.77826 0.0
C225 C 0.32551 0.15125 0.78067 0.0
C226 C 0.39839 0.14282 0.74796 0.0
C227 C 0.36247 0.1963 0.76673 0.0
C228 C 0.36154 0.09792 0.76185 0.0
C229 C 0.39946 0.19256 0.75032 0.0
C230 C 0.2898 0.05523 0.79476 0.0
C231 C 0.15665 0.93855 0.86062 0.0
H232 H 0.88711 0.69319 0.82052 0.0
H233 H 0.94064 0.76414 0.90884 0.0
H234 H 0.8233 0.65002 0.85574 0.0
H235 H 0.00418 0.80659 0.8736 0.0
H236 H 0.29831 0.15567 0.7936 0.0
H237 H 0.42563 0.1383 0.7351 0.0
H238 H 0.36253 0.23418 0.76904 0.0
H239 H 0.36248 0.06046 0.75995 0.0
C240 C 0.02094 0.11153 1.07326 0.0
C241 C 0.0244 0.13188 1.0982 0.0
C242 C 0.04892 0.14622 1.05305 0.0
C243 C 0.0815 0.20162 1.05751 0.0
C244 C 0.0854 0.22211 1.08232 0.0
C245 C 0.05729 0.18758 1.10252 0.0
C246 C 0.11904 0.23649 1.03747 0.0
C247 C 0.17182 0.25211 1.03889 0.0
C248 C 0.19252 0.23169 1.05955 0.0
C249 C 0.17717 0.17666 1.06024 0.0
C250 C 0.18633 0.15423 1.08212 0.0
C251 C 0.21181 0.18665 1.10363 0.0
H252 H 0.22991 0.30682 1.08064 0.0
C253 C 0.22831 0.24214 1.10261 0.0
C254 C 0.21878 0.26449 1.0807 0.0
H255 H 0.24867 0.26834 0.11872 0.0
H256 H -0.00443 0.06891 1.06922 0.0
H257 H 0.04646 0.12964 1.0341 0.0
H258 H 0.11127 0.26476 1.08615 0.0
H259 H 0.06041 0.20479 0.12135 0.0
H260 H 0.10377 0.24963 1.02155 0.0
H261 H 0.1995 0.27988 1.02477 0.0
H262 H 0.15631 0.15068 1.04412 0.0
H263 H 0.17403 0.11161 1.082 0.0
C264 C 0.04042 0.0236 0.40678 0.0
C265 C 0.02478 0.03048 0.43145 0.0
C266 C 0.03569 0.0517 0.38584 0.0
C267 C 0.0158 0.08744 0.38928 0.0
C268 C 0.00047 0.09466 0.41385 0.0
C269 C 0.00552 0.06701 0.43478 0.0
C270 C 0.01776 0.12281 0.36802 0.0
C271 C 0.05051 0.17668 0.36914 0.0
C272 C 0.089 0.20134 0.39055 0.0
C273 C 0.12921 0.18726 0.39429 0.0
C274 C 0.15828 0.20024 0.41711 0.0
C275 C 0.14853 0.22865 0.43647 0.0
H276 H 0.04806 0.24082 0.40707 0.0
C277 C 0.10906 0.24391 0.43237 0.0
C278 C 0.07963 0.2305 0.4095 0.0
H279 H 0.10104 0.26644 0.44675 0.0
H280 H 0.0547 -0.00481 0.40349 0.0
H281 H 0.04836 0.04621 0.36706 0.0
H282 H -0.01488 0.12229 0.41685 0.0
H283 H -0.00783 0.07263 0.45334 0.0
H284 H -0.00756 0.1049 0.35129 0.0
H285 H 0.04911 0.20231 0.35408 0.0
H286 H 0.13667 0.16435 0.37987 0.0
H287 H 0.18893 0.18859 0.41935 0.0
C288 C 0.0402 0.00029 0.7713 0.0
C289 C 0.03658 0.97226 0.79406 0.0
C290 C -0.00658 -0.00816 0.75859 0.0
C291 C 0.94249 0.95473 0.7683 0.0
C292 C 0.93873 0.92685 0.79092 0.0
C293 C -0.01477 0.9363 0.80397 0.0
C294 C 0.89265 0.94668 0.75574 0.0
C295 C 0.88018 0.98627 0.753 0.0
C296 C 0.9133 0.04167 0.7633 0.0
C297 C 0.92206 0.08576 0.74805 0.0
C298 C 0.95445 0.13837 0.75695 0.0
C299 C 0.97889 0.14767 0.78122 0.0
H300 H 0.92668 0.01793 0.80102 0.0
C301 C 0.96912 0.10367 0.79679 0.0
C302 C 0.93549 0.05107 0.78815 0.0
H303 H -0.01379 0.10993 0.81587 0.0
H304 H 0.07901 0.02771 0.76301 0.0
H305 H -0.0031 0.01381 0.74109 0.0
H306 H 0.89973 0.89852 0.79878 0.0
H307 H 0.9807 0.91382 0.8214 0.0
H308 H 0.86443 0.90653 0.74873 0.0
H309 H 0.84438 0.97751 0.74201 0.0
H310 H 0.90448 0.07949 0.72908 0.0
H311 H 0.96094 0.17181 0.74469 0.0
C312 C 0.55768 0.4095 1.01393 0.0
C313 C 0.52933 0.42475 1.03087 0.0
C314 C 0.5649 0.42642 0.9884 0.0
C315 C 0.54307 0.45823 0.97932 0.0
C316 C 0.52068 0.47868 0.99701 0.0
C317 C 0.51363 0.46195 1.02251 0.0
C318 C 0.53443 0.46364 0.95161 0.0
C319 C 0.52685 0.425 0.93449 0.0
C320 C 0.49266 0.4134 0.91122 0.0
C321 C 0.46702 0.36034 0.90169 0.0
C322 C 0.42578 0.34363 0.88363 0.0
C323 C 0.40947 0.37981 0.87449 0.0
H324 H 0.49978 0.49274 0.90637 0.0
C325 C 0.43812 0.4341 0.88234 0.0
C326 C 0.47958 0.45091 0.90042 0.0
H327 H 0.42744 0.46326 0.87505 0.0
H328 H 0.57169 0.38214 1.02007 0.0
H329 H 0.58492 0.41204 0.97564 0.0
H330 H 0.50422 0.5039 0.99068 0.0
H331 H 0.49176 0.47464 1.03505 0.0
H332 H 0.52252 0.49333 0.94671 0.0
H333 H 0.53642 0.39389 0.94 0.0
H334 H 0.47642 0.33058 0.90946 0.0
H335 H 0.40454 0.30148 0.87805 0.0
C336 C 0.12505 0.54646 0.37078 0.0
C337 C 0.17655 0.55146 0.37233 0.0
C338 C 0.10641 0.55598 0.34766 0.0
C339 C 0.13875 0.57 0.32562 0.0
C340 C 0.19247 0.58186 0.32806 0.0
C341 C 0.21119 0.57246 0.35119 0.0
C342 C 0.11576 0.56302 0.29944 0.0
C343 C 0.06594 0.52216 0.29404 0.0
C344 C 0.04919 0.49485 0.26868 0.0
C345 C -0.00445 0.45348 0.2657 0.0
C346 C 0.9805 0.41756 0.24511 0.0
C347 C 0.01882 0.42224 0.22697 0.0
H348 H 0.12852 0.53247 0.25087 0.0
C349 C 0.07151 0.46604 0.22883 0.0
C350 C 0.08662 0.50192 0.24943 0.0
H351 H 0.10218 0.4706 0.21531 0.0
H352 H 0.09742 0.53097 0.38676 0.0
H353 H 0.0655 0.54882 0.34673 0.0
H354 H 0.21861 0.59374 0.31149 0.0
H355 H 0.25166 0.57834 0.35201 0.0
H356 H 0.14377 0.58425 0.28406 0.0
H357 H 0.03837 0.50154 0.30969 0.0
H358 H 0.96576 0.44695 0.28015 0.0
H359 H 0.93931 0.38483 0.24394 0.0
C360 C 0.73835 0.17618 0.71249 0.0
C361 C 0.78054 0.22993 0.71153 0.0
C362 C 0.71271 0.14891 0.69003 0.0
C363 C 0.72938 0.17485 0.66616 0.0
C364 C 0.76731 0.23021 0.66558 0.0
C365 C 0.79284 0.25753 0.68805 0.0
C366 C 0.7142 0.14458 0.64158 0.0
C367 C 0.70432 0.09314 0.63992 0.0
C368 C 0.7117 0.06986 0.61583 0.0
C369 C 0.73041 0.03265 0.61765 0.0
C370 C 0.74829 0.01767 0.59594 0.0
C371 C 0.74723 0.03913 0.57183 0.0
H372 H 0.69003 0.11483 0.58919 0.0
C373 C 0.72398 0.0726 0.56967 0.0
C374 C 0.70627 0.08779 0.59146 0.0
H375 H 0.72113 0.08853 0.55124 0.0
H376 H 0.7271 0.15439 0.73048 0.0
H377 H 0.68183 0.10692 0.69136 0.0
H378 H 0.7804 0.25141 0.64749 0.0
H379 H 0.8251 0.29899 0.68671 0.0
H380 H 0.72188 0.16833 0.62423 0.0
H381 H 0.70092 0.07085 0.65736 0.0
H382 H 0.7346 0.01782 0.63616 0.0
H383 H 0.76607 -0.00804 0.59837 0.0
C384 C 0.71662 0.70788 1.04515 0.0
C385 C 0.72333 0.76022 1.04346 0.0
C386 C 0.70786 0.6768 1.02309 0.0
C387 C 0.70588 0.69775 0.99895 0.0
C388 C 0.70705 0.74758 0.99764 0.0
C389 C 0.71606 0.77871 1.01962 0.0
C390 C 0.71078 0.67353 0.97466 0.0
C391 C 0.74107 0.64928 0.97306 0.0
C392 C 0.7699 0.65071 0.94921 0.0
C393 C 0.82164 0.65686 0.95153 0.0
C394 C 0.85563 0.67125 0.93036 0.0
C395 C 0.83829 0.67919 0.90637 0.0
H396 H 0.71035 0.64719 0.92207 0.0
C397 C 0.78474 0.66791 0.9035 0.0
C398 C 0.7507 0.65359 0.92473 0.0
H399 H 0.77006 0.67318 0.88517 0.0
H400 H 0.72028 0.69178 1.06339 0.0
H401 H 0.70502 0.63756 1.02489 0.0
H402 H 0.70521 0.7645 0.9793 0.0
H403 H 0.72101 0.8188 1.01755 0.0
H404 H 0.70012 0.68711 0.95729 0.0
H405 H 0.75501 0.63936 0.99055 0.0
H406 H 0.83724 0.65418 0.97009 0.0
H407 H 0.89627 0.67829 0.93298 0.0
C408 C 0.11032 0.71768 0.37686 0.0
C409 C 0.13227 0.76812 0.38917 0.0
C410 C 0.13553 0.71114 0.35531 0.0
C411 C 0.18287 0.75518 0.34567 0.0
C412 C 0.20787 0.80338 0.35983 0.0
C413 C 0.18268 0.80993 0.38129 0.0
C414 C 0.2021 0.75651 0.31915 0.0
C415 C 0.16727 0.73116 0.2998 0.0
C416 C 0.17495 0.75618 0.27405 0.0
C417 C 0.12894 0.7491 0.26089 0.0
C418 C 0.13357 0.78211 0.24018 0.0
C419 C 0.18447 0.8226 0.23198 0.0
H420 H 0.2625 0.79815 0.27324 0.0
C421 C 0.2307 0.82617 0.24353 0.0
C422 C 0.22605 0.79306 0.26429 0.0
H423 H 0.2705 0.85581 0.23706 0.0
H424 H 0.07184 0.68443 0.38275 0.0
H425 H 0.11622 0.67268 0.34544 0.0
H426 H 0.24478 0.83772 0.35311 0.0
H427 H 0.20129 0.84874 0.39089 0.0
H428 H 0.24197 0.78962 0.31483 0.0
H429 H 0.12663 0.69968 0.30426 0.0
H430 H 0.08904 0.72076 0.26783 0.0
H431 H 0.09711 0.77815 0.23171 0.0
C432 C 0.48985 0.24918 0.72998 0.0
C433 C 0.43708 0.23908 0.7344 0.0
C434 C 0.52157 0.28571 0.71107 0.0
C435 C 0.5008 0.31247 0.69617 0.0
C436 C 0.45047 0.30676 0.70256 0.0
C437 C 0.41873 0.27018 0.7214 0.0
C438 C 0.5255 0.33926 0.67159 0.0
C439 C 0.55058 0.32046 0.65624 0.0
C440 C 0.54672 0.32199 0.62793 0.0
C441 C 0.54055 0.27711 0.61397 0.0
C442 C 0.52079 0.26844 0.58893 0.0
C443 C 0.50713 0.30472 0.57738 0.0
H444 H 0.54637 0.39805 0.62506 0.0
C445 C 0.51969 0.35297 0.59027 0.0
C446 C 0.53975 0.36177 0.61525 0.0
H447 H 0.51022 0.38215 0.58189 0.0
H448 H 0.50571 0.22704 0.74036 0.0
H449 H 0.56111 0.29083 0.70736 0.0
H450 H 0.43369 0.32729 0.69153 0.0
H451 H 0.37837 0.26352 0.72441 0.0
H452 H 0.51096 0.36495 0.66358 0.0
H453 H 0.56199 0.29202 0.66391 0.0
H454 H 0.54661 0.24628 0.62311 0.0
H455 H 0.51316 0.23171 0.5792 0.0
C456 C 0.47322 0.13169 0.1301 0.0
C457 C 0.43447 0.11671 0.14953 0.0
C458 C 0.51811 0.12494 0.1334 0.0
C459 C 0.52555 0.10346 0.15633 0.0
C460 C 0.48712 0.08887 0.17586 0.0
C461 C 0.44157 0.09475 0.17238 0.0
C462 C 0.57434 0.09836 0.16052 0.0
C463 C 0.59731 0.08512 0.14144 0.0
C464 C 0.64778 0.08271 0.1445 0.0
C465 C 0.65557 0.04662 0.12923 0.0
C466 C 0.70418 0.04602 0.13008 0.0
C467 C 0.74669 0.08251 0.14579 0.0
H468 H 0.68539 0.14756 0.17233 0.0
C469 C 0.73885 0.11852 0.16123 0.0
C470 C 0.68971 0.1184 0.16073 0.0
H471 H 0.77085 0.14717 0.17351 0.0
H472 H 0.46901 0.14885 1.11229 0.0
H473 H 0.54763 0.13786 0.1182 0.0
H474 H 0.49224 0.07267 0.19378 0.0
H475 H 0.41259 0.08322 0.18777 0.0
H476 H 0.59062 0.10405 0.17982 0.0
H477 H 0.57758 0.07409 0.12284 0.0
H478 H 0.62406 0.01907 0.11641 0.0
H479 H 0.70895 0.01801 0.11779 0.0
C480 C 0.46436 0.4794 0.49477 0.0
C481 C 0.42548 0.47606 0.47714 0.0
C482 C 0.51466 0.52621 0.49641 0.0
C483 C 0.52727 0.57062 0.48029 0.0
C484 C 0.48813 0.56734 0.46292 0.0
C485 C 0.43793 0.52061 0.46127 0.0
C486 C 0.57999 0.62146 0.48128 0.0
C487 C 0.62554 0.62479 0.49074 0.0
C488 C 0.67846 0.67541 0.49008 0.0
C489 C 0.72576 0.67179 0.4897 0.0
C490 C 0.77615 0.71833 0.48791 0.0
C491 C 0.78038 0.76969 0.48667 0.0
H492 H 0.64744 0.73159 0.49109 0.0
C493 C 0.73312 0.77344 0.48804 0.0
C494 C 0.68275 0.72689 0.48982 0.0
H495 H 0.73484 0.81234 0.4875 0.0
H496 H 0.45592 0.44596 0.50742 0.0
H497 H 0.54295 0.52752 0.5106 0.0
H498 H 0.49651 0.60099 0.4504 0.0
H499 H 0.4089 0.51954 0.44754 0.0
H500 H 0.58174 0.65679 0.47235 0.0
H501 H 0.62527 0.58858 0.49753 0.0
H502 H 0.7237 0.63272 0.4902 0.0
H503 H 0.81168 0.71386 0.48707 0.0
C504 C 0.19814 0.50976 0.81253 0.0
C505 C 0.15816 0.47212 0.82889 0.0
C506 C 0.21297 0.56477 0.81384 0.0
C507 C 0.18823 0.58269 0.83173 0.0
C508 C 0.15213 0.54553 0.84949 0.0
C509 C 0.13721 0.49099 0.84807 0.0
C510 C 0.19083 0.63616 0.82989 0.0
C511 C 0.22859 0.67993 0.8174 0.0
C512 C 0.21915 0.72601 0.81219 0.0
C513 C 0.25818 0.77962 0.81779 0.0
C514 C 0.24637 0.82184 0.81445 0.0
C515 C 0.19582 0.81098 0.80488 0.0
H516 H 0.13916 0.67493 0.79683 0.0
C517 C 0.15817 0.7575 0.79814 0.0
C518 C 0.16957 0.71571 0.80185 0.0
H519 H 0.11892 0.74732 0.79056 0.0
H520 H 0.21457 0.49617 0.79741 0.0
H521 H 0.24051 0.59208 0.79965 0.0
H522 H 0.13257 0.55807 0.86352 0.0
H523 H 0.10658 0.46295 0.86105 0.0
H524 H 0.15722 0.63866 0.83826 0.0
H525 H 0.26515 0.68153 0.81043 0.0
H526 H 0.29693 0.78853 0.82556 0.0
H527 H 0.27631 0.86261 0.8197 0.0
C528 C 0.2696 0.16493 0.23707 0.0
C529 C 0.30414 0.19912 0.21775 0.0
C530 C 0.26796 0.18527 0.26158 0.0
C531 C 0.3003 0.2407 0.26744 0.0
C532 C 0.33435 0.27469 0.24804 0.0
C533 C 0.33671 0.25429 0.2238 0.0
C534 C 0.29851 0.26511 0.29298 0.0
C535 C 0.28608 0.2382 0.31563 0.0
C536 C 0.28831 0.26301 0.34157 0.0
C537 C 0.29986 0.24099 0.36319 0.0
C538 C 0.3009 0.26084 0.38791 0.0
C539 C 0.28911 0.30286 0.39226 0.0
H540 H 0.26677 0.323 0.3296 0.0
C541 C 0.2767 0.32474 0.37069 0.0
C542 C 0.27691 0.30552 0.34564 0.0
H543 H 0.26683 0.35666 0.37314 0.0
H544 H 0.24365 0.12231 0.23326 0.0
H545 H 0.24036 0.15763 0.27566 0.0
H546 H 0.35961 0.31752 0.25166 0.0
H547 H 0.36356 0.28226 0.20958 0.0
H548 H 0.3115 0.308 0.29327 0.0
H549 H 0.27764 0.19656 0.31559 0.0
H550 H 0.30833 0.20803 0.36098 0.0
H551 H 0.30984 0.242 0.4038 0.0
C552 C 0.21383 0.36863 0.56207 0.0
C553 C 0.22754 0.33114 0.55165 0.0
C554 C 0.19767 0.36529 0.58797 0.0
C555 C 0.19472 0.32424 0.60433 0.0
C556 C 0.20862 0.28717 0.59377 0.0
C557 C 0.22455 0.29042 0.56808 0.0
C558 C 0.17867 0.31805 0.63239 0.0
C559 C 0.15962 0.34661 0.64548 0.0
C560 C 0.144 0.33885 0.67367 0.0
C561 C 0.11521 0.36314 0.68389 0.0
C562 C 0.10047 0.35768 0.71001 0.0
C563 C 0.11422 0.32784 0.72699 0.0
H564 H 0.18101 0.29062 0.68449 0.0
C565 C 0.14323 0.30378 0.71683 0.0
C566 C 0.15795 0.30923 0.6908 0.0
H567 H 0.15509 0.28069 0.72909 0.0
H568 H 0.21556 0.40069 0.5502 0.0
H569 H 0.18797 0.39521 0.595 0.0
H570 H 0.20719 0.25506 0.60553 0.0
H571 H 0.23467 0.26066 0.56113 0.0
H572 H 0.182 0.28664 0.6426 0.0
H573 H 0.15393 0.37653 0.63516 0.0
H574 H 0.10386 0.38655 0.67155 0.0
H575 H 0.07832 0.37698 0.71689 0.0
C576 C 0.04762 0.24048 0.90221 0.0
C577 C 0.0212 0.25915 0.88554 0.0
C578 C 0.02862 0.22296 0.92739 0.0
C579 C -0.01674 0.22473 0.93692 0.0
C580 C 0.95747 0.24405 0.92033 0.0
C581 C 0.97549 0.2601 0.89504 0.0
C582 C 0.96368 0.21023 0.96428 0.0
C583 C 0.96506 0.17056 0.9783 0.0
C584 C 0.94383 0.15512 1.00539 0.0
C585 C 0.92361 0.10142 1.01378 0.0
C586 C 0.90643 0.086 1.03926 0.0
C587 C 0.91025 0.12411 1.05759 0.0
H588 H 0.9625 0.235 1.01813 0.0
C589 C 0.93027 0.1779 1.04917 0.0
C590 C 0.94629 0.19306 1.0235 0.0
H591 H 0.93461 0.20881 1.06259 0.0
H592 H 0.08286 0.23896 0.89571 0.0
H593 H 0.05034 0.20935 0.93956 0.0
H594 H 0.92279 0.24652 0.92695 0.0
H595 H 0.95401 0.27429 0.88302 0.0
H596 H 0.94435 0.23128 0.97265 0.0
H597 H 0.97989 0.14619 0.96911 0.0
H598 H 0.92149 0.07109 1.00057 0.0
H599 H 0.89226 0.04447 1.04483 0.0
C600 C 0.90145 0.00052 0.22639 0.0
C601 C 0.90476 0.05012 0.21941 0.0
C602 C 0.90259 0.98669 0.25233 0.0
C603 C 0.90716 0.02207 0.27236 0.0
C604 C 0.91052 0.0716 0.26528 0.0
C605 C 0.90946 0.08543 0.2394 0.0
C606 C 0.90709 0.00917 0.30068 0.0
C607 C 0.91057 0.9666 0.31069 0.0
C608 C 0.9101 0.95398 0.33907 0.0
C609 C 0.92482 0.91542 0.34691 0.0
C610 C 0.92469 0.90187 0.37297 0.0
C611 C 0.90933 0.92606 0.39229 0.0
H612 H 0.88153 0.00687 0.35372 0.0
C613 C 0.89382 0.96406 0.38443 0.0
C614 C 0.89418 0.97778 0.35842 0.0
H615 H 0.88192 0.9841 0.3985 0.0
H616 H 0.89763 0.97189 0.21175 0.0
H617 H 0.89914 0.94785 0.25642 0.0
H618 H 0.9139 0.10005 0.27994 0.0
H619 H 0.91209 0.12392 0.2351 0.0
H620 H 0.9051 0.0375 0.3139 0.0
H621 H 0.91528 0.93968 0.2976 0.0
H622 H 0.93709 0.89584 0.33276 0.0
H623 H 0.93737 0.87287 0.37797 0.0
C624 C 0.01762 0.90635 0.56079 0.0
C625 C 0.97161 0.90951 0.55337 0.0
C626 C 0.03059 0.90552 0.58688 0.0
C627 C -0.0021 0.90778 0.60658 0.0
C628 C 0.95187 0.91073 0.59906 0.0
C629 C 0.93908 0.91183 0.57303 0.0
C630 C 0.00876 0.90541 0.63495 0.0
C631 C 0.05623 0.91394 0.64528 0.0
C632 C 0.06777 0.91245 0.67362 0.0
C633 C 0.12172 0.93422 0.68171 0.0
C634 C 0.13518 0.93333 0.70762 0.0
C635 C 0.09513 0.90994 0.72658 0.0
H636 H -0.01466 0.8709 0.68752 0.0
C637 C 0.04097 0.88774 0.71859 0.0
C638 C 0.02746 0.889 0.69259 0.0
H639 H 0.00877 0.8696 0.73248 0.0
H640 H 0.04376 0.90424 0.54639 0.0
H641 H 0.06582 0.90213 0.59137 0.0
H642 H 0.9254 0.91225 0.61346 0.0
H643 H 0.90327 0.91414 0.56835 0.0
H644 H 0.97613 0.89796 0.64788 0.0
H645 H 0.0898 0.92459 0.63244 0.0
H646 H 0.15403 0.95241 0.66786 0.0
H647 H 0.17731 0.95097 0.71275 0.0
C648 C 0.14279 0.91543 0.90846 0.0
C649 C 0.16914 0.95286 0.88864 0.0
C650 C 0.15545 0.93055 0.93445 0.0
C651 C 0.19469 0.98355 0.94162 0.0
C652 C 0.22121 0.02074 0.92168 0.0
C653 C 0.20857 0.00571 0.89583 0.0
C654 C 0.20749 -0.00237 0.96982 0.0
C655 C 0.23798 0.04857 0.97943 0.0
C656 C 0.25168 0.06382 1.00744 0.0
C657 C 0.2786 0.11906 1.01427 0.0
C658 C 0.29285 0.13601 1.03985 0.0
C659 C 0.28093 0.09833 1.05973 0.0
H660 H 0.22003 0.98318 1.02337 0.0
C661 C 0.25428 0.04301 1.05298 0.0
C662 C 0.23999 0.02601 1.02734 0.0
H663 H 0.24408 0.01245 1.06758 0.0
H664 H 0.11228 0.87443 0.90394 0.0
H665 H 0.13422 0.90046 0.94908 0.0
H666 H 0.25245 0.06157 0.92569 0.0
H667 H 0.23032 0.03601 0.88136 0.0
H668 H 0.18984 0.96404 0.98312 0.0
H669 H 0.25354 0.0822 0.96616 0.0
H670 H 0.28857 0.14962 0.99967 0.0
H671 H 0.31285 0.17885 1.04403 0.0
loop_
_geom_bond_atom_site_label_1
_geom_bond_atom_site_label_2
_geom_bond_distance
_geom_bond_site_symmetry_2
_ccdc_geom_bond_type
Eu0 C9 2.828 . S
Eu0 O11 2.392 1_554 S
Eu0 O13 2.418 . S
Eu0 O18 2.373 . S
Eu0 O21 2.488 . S
Eu0 O22 2.471 . S
Eu0 O23 2.349 . S
Eu1 O10 2.373 1_554 S
Eu1 O14 2.488 1_554 S
Eu1 O15 2.471 1_554 S
Eu1 O16 2.349 . S
Eu1 O19 2.392 . S
Eu1 O20 2.418 . S
Eu1 C30 2.828 1_554 S
C2 O20 1.244 . S
C2 O23 1.265 . S
C3 C4 1.379 . S
C3 C7 1.373 . S
C3 C9 1.505 . S
C4 C3 1.379 . S
C4 C6 1.369 . S
C4 H32 0.930 . S
C5 C7 1.383 . S
C5 C8 1.382 . S
C5 H33 0.930 . S
C6 C4 1.369 . S
C6 C8 1.392 . S
C6 H34 0.930 . S
C7 C3 1.373 . S
C7 C5 1.383 . S
C7 H35 0.931 . S
C8 C5 1.382 . S
C8 C6 1.392 . S
C9 Eu0 2.828 . S
C9 C3 1.505 . S
C9 O21 1.249 . S
C9 O22 1.244 . S
O10 Eu1 2.373 1_556 S
O10 C12 1.258 . S
O11 Eu0 2.392 1_556 S
O11 C12 1.242 . S
C12 O10 1.258 . S
C12 O11 1.242 . S
O13 Eu0 2.418 . S
O13 C17 1.244 . S
O14 Eu1 2.488 1_556 S
O14 C30 1.249 . S
O15 Eu1 2.471 1_556 S
O15 C30 1.244 . S
O16 Eu1 2.349 . S
O16 C17 1.265 . S
C17 O13 1.244 . S
C17 O16 1.265 . S
O18 Eu0 2.373 . S
O18 C31 1.258 . S
O19 Eu1 2.392 . S
O19 C31 1.242 . S
O20 Eu1 2.418 . S
O20 C2 1.244 . S
O21 Eu0 2.488 . S
O21 C9 1.249 . S
O22 Eu0 2.471 . S
O22 C9 1.244 . S
O23 Eu0 2.349 . S
O23 C2 1.265 . S
C24 C25 1.379 . S
C24 C28 1.373 . S
C24 C30 1.505 . S
C25 C24 1.379 . S
C25 C27 1.369 . S
C25 H36 0.930 . S
C26 C28 1.383 . S
C26 C29 1.382 . S
C26 H37 0.930 . S
C27 C25 1.369 . S
C27 C29 1.392 . S
C27 H38 0.930 . S
C28 C24 1.373 . S
C28 C26 1.383 . S
C28 H39 0.931 . S
C29 C26 1.382 . S
C29 C27 1.392 . S
C30 Eu1 2.828 1_556 S
C30 O14 1.249 . S
C30 O15 1.244 . S
C30 C24 1.505 . S
C31 O18 1.258 . S
C31 O19 1.242 . S
H32 C4 0.930 . S
H33 C5 0.930 . S
H34 C6 0.930 . S
H35 C7 0.931 . S
H36 C25 0.930 . S
H37 C26 0.930 . S
H38 C27 0.930 . S
H39 C28 0.931 . S
Eu40 C49 2.828 . S
Eu40 O51 2.392 . S
Eu40 O53 2.418 . S
Eu40 O58 2.373 . S
Eu40 O61 2.488 . S
Eu40 O62 2.471 . S
Eu40 O63 2.349 . S
Eu41 O50 2.373 . S
Eu41 O54 2.488 . S
Eu41 O55 2.471 . S
Eu41 O56 2.349 . S
Eu41 O59 2.392 . S
Eu41 O60 2.418 . S
Eu41 C70 2.828 . S
C42 O60 1.244 . S
C42 O63 1.265 . S
C43 C44 1.379 . S
C43 C47 1.373 . S
C43 C49 1.505 . S
C44 C43 1.379 . S
C44 C46 1.369 . S
C44 H72 0.930 . S
C45 C47 1.383 . S
C45 C48 1.382 . S
C45 H73 0.930 . S
C46 C44 1.369 . S
C46 C48 1.392 . S
C46 H74 0.930 . S
C47 C43 1.373 . S
C47 C45 1.383 . S
C47 H75 0.931 . S
C48 C45 1.382 . S
C48 C46 1.392 . S
C49 Eu40 2.828 . S
C49 C43 1.505 . S
C49 O61 1.249 . S
C49 O62 1.244 . S
O50 Eu41 2.373 . S
O50 C52 1.258 . S
O51 Eu40 2.392 . S
O51 C52 1.242 . S
C52 O50 1.258 . S
C52 O51 1.242 . S
O53 Eu40 2.418 . S
O53 C57 1.244 . S
O54 Eu41 2.488 . S
O54 C70 1.249 . S
O55 Eu41 2.471 . S
O55 C70 1.244 . S
O56 Eu41 2.349 . S
O56 C57 1.265 . S
C57 O53 1.244 . S
C57 O56 1.265 . S
O58 Eu40 2.373 . S
O58 C71 1.258 . S
O59 Eu41 2.392 . S
O59 C71 1.242 . S
O60 Eu41 2.418 . S
O60 C42 1.244 . S
O61 Eu40 2.488 . S
O61 C49 1.249 . S
O62 Eu40 2.471 . S
O62 C49 1.244 . S
O63 Eu40 2.349 . S
O63 C42 1.265 . S
C64 C65 1.379 . S
C64 C68 1.373 . S
C64 C70 1.505 . S
C65 C64 1.379 . S
C65 C67 1.369 . S
C65 H76 0.930 . S
C66 C68 1.383 . S
C66 C69 1.382 . S
C66 H77 0.930 . S
C67 C65 1.369 . S
C67 C69 1.392 . S
C67 H78 0.930 . S
C68 C64 1.373 . S
C68 C66 1.383 . S
C68 H79 0.931 . S
C69 C66 1.382 . S
C69 C67 1.392 . S
C70 Eu41 2.828 . S
C70 O54 1.249 . S
C70 O55 1.244 . S
C70 C64 1.505 . S
C71 O58 1.258 . S
C71 O59 1.242 . S
H72 C44 0.930 . S
H73 C45 0.930 . S
H74 C46 0.930 . S
H75 C47 0.931 . S
H76 C65 0.930 . S
H77 C66 0.930 . S
H78 C67 0.930 . S
H79 C68 0.931 . S
Eu80 C89 2.828 . S
Eu80 O91 2.392 . S
Eu80 O93 2.418 . S
Eu80 O98 2.373 . S
Eu80 O101 2.488 . S
Eu80 O102 2.471 . S
Eu80 O103 2.349 . S
Eu81 O90 2.373 1_655 S
Eu81 O94 2.488 . S
Eu81 O95 2.471 . S
Eu81 O96 2.349 . S
Eu81 O99 2.392 . S
Eu81 O100 2.418 . S
Eu81 C110 2.828 . S
C82 O100 1.244 . S
C82 O103 1.265 1_655 S
C83 C84 1.379 . S
C83 C87 1.373 . S
C83 C89 1.505 . S
C84 C83 1.379 . S
C84 C86 1.369 . S
C84 H112 0.930 . S
C85 C87 1.383 . S
C85 C88 1.382 . S
C85 H113 0.930 . S
C86 C84 1.369 . S
C86 C88 1.392 . S
C86 H114 0.930 . S
C87 C83 1.373 . S
C87 C85 1.383 . S
C87 H115 0.931 . S
C88 C85 1.382 . S
C88 C86 1.392 . S
C89 Eu80 2.828 . S
C89 C83 1.505 . S
C89 O101 1.249 . S
C89 O102 1.244 . S
O90 Eu81 2.373 1_455 S
O90 C92 1.258 . S
O91 Eu80 2.392 . S
O91 C92 1.242 . S
C92 O90 1.258 . S
C92 O91 1.242 . S
O93 Eu80 2.418 . S
O93 C97 1.244 . S
O94 Eu81 2.488 . S
O94 C110 1.249 . S
O95 Eu81 2.471 . S
O95 C110 1.244 . S
O96 Eu81 2.349 . S
O96 C97 1.265 1_655 S
C97 O93 1.244 . S
C97 O96 1.265 1_455 S
O98 Eu80 2.373 . S
O98 C111 1.258 1_455 S
O99 Eu81 2.392 . S
O99 C111 1.242 . S
O100 Eu81 2.418 . S
O100 C82 1.244 . S
O101 Eu80 2.488 . S
O101 C89 1.249 . S
O102 Eu80 2.471 . S
O102 C89 1.244 . S
O103 Eu80 2.349 . S
O103 C82 1.265 1_455 S
C104 C105 1.379 . S
C104 C108 1.373 . S
C104 C110 1.505 . S
C105 C104 1.379 . S
C105 C107 1.369 . S
C105 H116 0.930 . S
C106 C108 1.383 . S
C106 C109 1.382 . S
C106 H117 0.930 . S
C107 C105 1.369 . S
C107 C109 1.392 . S
C107 H118 0.930 . S
C108 C104 1.373 . S
C108 C106 1.383 . S
C108 H119 0.931 . S
C109 C106 1.382 . S
C109 C107 1.392 . S
C110 Eu81 2.828 . S
C110 O94 1.249 . S
C110 O95 1.244 . S
C110 C104 1.505 . S
C111 O98 1.258 1_655 S
C111 O99 1.242 . S
H112 C84 0.930 . S
H113 C85 0.930 . S
H114 C86 0.930 . S
H115 C87 0.931 . S
H116 C105 0.930 . S
H117 C106 0.930 . S
H118 C107 0.930 . S
H119 C108 0.931 . S
Eu120 C129 2.828 . S
Eu120 O131 2.392 1_554 S
Eu120 O133 2.418 . S
Eu120 O138 2.373 . S
Eu120 O141 2.488 . S
Eu120 O142 2.471 . S
Eu120 O143 2.349 . S
Eu121 O130 2.373 1_564 S
Eu121 O134 2.488 1_554 S
Eu121 O135 2.471 1_554 S
Eu121 O136 2.349 1_565 S
Eu121 O139 2.392 . S
Eu121 O140 2.418 . S
Eu121 C150 2.828 1_554 S
C122 O140 1.244 . S
C122 O143 1.265 1_565 S
C123 C124 1.379 . S
C123 C127 1.373 . S
C123 C129 1.505 . S
C124 C123 1.379 . S
C124 C126 1.369 . S
C124 H152 0.930 . S
C125 C127 1.383 . S
C125 C128 1.382 . S
C125 H153 0.930 . S
C126 C124 1.369 . S
C126 C128 1.392 . S
C126 H154 0.930 . S
C127 C123 1.373 . S
C127 C125 1.383 . S
C127 H155 0.931 . S
C128 C125 1.382 . S
C128 C126 1.392 . S
C129 Eu120 2.828 . S
C129 C123 1.505 . S
C129 O141 1.249 . S
C129 O142 1.244 . S
O130 Eu121 2.373 1_546 S
O130 C132 1.258 . S
O131 Eu120 2.392 1_556 S
O131 C132 1.242 . S
C132 O130 1.258 . S
C132 O131 1.242 . S
O133 Eu120 2.418 . S
O133 C137 1.244 . S
O134 Eu121 2.488 1_556 S
O134 C150 1.249 . S
O135 Eu121 2.471 1_556 S
O135 C150 1.244 . S
O136 Eu121 2.349 1_545 S
O136 C137 1.265 . S
C137 O133 1.244 . S
C137 O136 1.265 . S
O138 Eu120 2.373 . S
O138 C151 1.258 1_545 S
O139 Eu121 2.392 . S
O139 C151 1.242 . S
O140 Eu121 2.418 . S
O140 C122 1.244 . S
O141 Eu120 2.488 . S
O141 C129 1.249 . S
O142 Eu120 2.471 . S
O142 C129 1.244 . S
O143 Eu120 2.349 . S
O143 C122 1.265 1_545 S
C144 C145 1.379 . S
C144 C148 1.373 . S
C144 C150 1.505 . S
C145 C144 1.379 . S
C145 C147 1.369 . S
C145 H156 0.930 . S
C146 C148 1.383 . S
C146 C149 1.382 . S
C146 H157 0.930 . S
C147 C145 1.369 . S
C147 C149 1.392 . S
C147 H158 0.930 . S
C148 C144 1.373 . S
C148 C146 1.383 . S
C148 H159 0.931 . S
C149 C146 1.382 . S
C149 C147 1.392 . S
C150 Eu121 2.828 1_556 S
C150 O134 1.249 . S
C150 O135 1.244 . S
C150 C144 1.505 . S
C151 O138 1.258 1_565 S
C151 O139 1.242 . S
H152 C124 0.930 . S
H153 C125 0.930 . S
H154 C126 0.930 . S
H155 C127 0.931 . S
H156 C145 0.930 . S
H157 C146 0.930 . S
H158 C147 0.930 . S
H159 C148 0.931 . S
Eu160 C169 2.828 . S
Eu160 O171 2.392 . S
Eu160 O173 2.418 1_655 S
Eu160 O178 2.373 . S
Eu160 O181 2.488 . S
Eu160 O182 2.471 . S
Eu160 O183 2.349 . S
Eu161 O170 2.373 . S
Eu161 O174 2.488 . S
Eu161 O175 2.471 1_655 S
Eu161 O176 2.349 1_655 S
Eu161 O179 2.392 1_655 S
Eu161 O180 2.418 . S
Eu161 C190 2.828 1_655 S
C162 O180 1.244 . S
C162 O183 1.265 . S
C163 C164 1.379 . S
C163 C167 1.373 . S
C163 C169 1.505 . S
C164 C163 1.379 . S
C164 C166 1.369 . S
C164 H192 0.930 . S
C165 C167 1.383 . S
C165 C168 1.382 . S
C165 H193 0.930 . S
C166 C164 1.369 . S
C166 C168 1.392 . S
C166 H194 0.930 . S
C167 C163 1.373 . S
C167 C165 1.383 . S
C167 H195 0.931 . S
C168 C165 1.382 . S
C168 C166 1.392 . S
C169 Eu160 2.828 . S
C169 C163 1.505 . S
C169 O181 1.249 . S
C169 O182 1.244 . S
O170 Eu161 2.373 . S
O170 C172 1.258 . S
O171 Eu160 2.392 . S
O171 C172 1.242 . S
C172 O170 1.258 . S
C172 O171 1.242 . S
O173 Eu160 2.418 1_455 S
O173 C177 1.244 . S
O174 Eu161 2.488 . S
O174 C190 1.249 1_655 S
O175 Eu161 2.471 1_455 S
O175 C190 1.244 . S
O176 Eu161 2.349 1_455 S
O176 C177 1.265 . S
C177 O173 1.244 . S
C177 O176 1.265 . S
O178 Eu160 2.373 . S
O178 C191 1.258 . S
O179 Eu161 2.392 1_455 S
O179 C191 1.242 1_455 S
O180 Eu161 2.418 . S
O180 C162 1.244 . S
O181 Eu160 2.488 . S
O181 C169 1.249 . S
O182 Eu160 2.471 . S
O182 C169 1.244 . S
O183 Eu160 2.349 . S
O183 C162 1.265 . S
C184 C185 1.379 . S
C184 C188 1.373 . S
C184 C190 1.505 . S
C185 C184 1.379 . S
C185 C187 1.369 . S
C185 H196 0.930 . S
C186 C188 1.383 . S
C186 C189 1.382 . S
C186 H197 0.930 . S
C187 C185 1.369 . S
C187 C189 1.392 . S
C187 H198 0.930 . S
C188 C184 1.373 . S
C188 C186 1.383 . S
C188 H199 0.931 . S
C189 C186 1.382 . S
C189 C187 1.392 . S
C190 Eu161 2.828 1_455 S
C190 O174 1.249 1_455 S
C190 O175 1.244 . S
C190 C184 1.505 . S
C191 O178 1.258 . S
C191 O179 1.242 1_655 S
H192 C164 0.930 . S
H193 C165 0.930 . S
H194 C166 0.930 . S
H195 C167 0.931 . S
H196 C185 0.930 . S
H197 C186 0.930 . S
H198 C187 0.930 . S
H199 C188 0.931 . S
Eu200 C209 2.828 . S
Eu200 O211 2.392 . S
Eu200 O213 2.418 1_565 S
Eu200 O218 2.373 . S
Eu200 O221 2.488 . S
Eu200 O222 2.471 . S
Eu200 O223 2.349 . S
Eu201 O210 2.373 1_545 S
Eu201 O214 2.488 . S
Eu201 O215 2.471 . S
Eu201 O216 2.349 . S
Eu201 O219 2.392 . S
Eu201 O220 2.418 1_545 S
Eu201 C230 2.828 . S
C202 O220 1.244 . S
C202 O223 1.265 . S
C203 C204 1.379 . S
C203 C207 1.373 . S
C203 C209 1.505 . S
C204 C203 1.379 . S
C204 C206 1.369 . S
C204 H232 0.930 . S
C205 C207 1.383 . S
C205 C208 1.382 . S
C205 H233 0.930 . S
C206 C204 1.369 . S
C206 C208 1.392 . S
C206 H234 0.930 . S
C207 C203 1.373 . S
C207 C205 1.383 . S
C207 H235 0.931 . S
C208 C205 1.382 . S
C208 C206 1.392 . S
C209 Eu200 2.828 . S
C209 C203 1.505 . S
C209 O221 1.249 . S
C209 O222 1.244 . S
O210 Eu201 2.373 1_565 S
O210 C212 1.258 . S
O211 Eu200 2.392 . S
O211 C212 1.242 . S
C212 O210 1.258 . S
C212 O211 1.242 . S
O213 Eu200 2.418 1_545 S
O213 C217 1.244 . S
O214 Eu201 2.488 . S
O214 C230 1.249 . S
O215 Eu201 2.471 . S
O215 C230 1.244 . S
O216 Eu201 2.349 . S
O216 C217 1.265 . S
C217 O213 1.244 . S
C217 O216 1.265 . S
O218 Eu200 2.373 . S
O218 C231 1.258 1_565 S
O219 Eu201 2.392 . S
O219 C231 1.242 . S
O220 Eu201 2.418 1_565 S
O220 C202 1.244 . S
O221 Eu200 2.488 . S
O221 C209 1.249 . S
O222 Eu200 2.471 . S
O222 C209 1.244 . S
O223 Eu200 2.349 . S
O223 C202 1.265 . S
C224 C225 1.379 . S
C224 C228 1.373 . S
C224 C230 1.505 . S
C225 C224 1.379 . S
C225 C227 1.369 . S
C225 H236 0.930 . S
C226 C228 1.383 . S
C226 C229 1.382 . S
C226 H237 0.930 . S
C227 C225 1.369 . S
C227 C229 1.392 . S
C227 H238 0.930 . S
C228 C224 1.373 . S
C228 C226 1.383 . S
C228 H239 0.931 . S
C229 C226 1.382 . S
C229 C227 1.392 . S
C230 Eu201 2.828 . S
C230 O214 1.249 . S
C230 O215 1.244 . S
C230 C224 1.505 . S
C231 O218 1.258 1_545 S
C231 O219 1.242 . S
H232 C204 0.930 . S
H233 C205 0.930 . S
H234 C206 0.930 . S
H235 C207 0.931 . S
H236 C225 0.930 . S
H237 C226 0.930 . S
H238 C227 0.930 . S
H239 C228 0.931 . S
C240 C241 1.386 . S
C240 C242 1.383 1_655 S
C240 H256 0.951 1_545 S
C241 C240 1.386 . S
C241 C245 1.383 . S
C242 C240 1.383 1_455 S
C242 C243 1.402 . S
C242 H257 0.951 . S
C243 C242 1.402 . S
C243 C244 1.375 . S
C243 C246 1.481 . S
C244 C243 1.375 . S
C244 C245 1.367 1_455 S
C244 H258 0.951 . S
C245 C241 1.383 . S
C245 C244 1.367 1_655 S
C245 H259 0.950 . S
C246 C243 1.481 . S
C246 C247 1.297 . S
C246 H260 0.950 . S
C247 C246 1.297 . S
C247 C248 1.479 . S
C247 H261 0.950 1_554 S
C248 C247 1.479 . S
C248 C249 1.375 . S
C248 C254 1.404 . S
C249 C248 1.375 . S
C249 C250 1.369 . S
C249 H262 0.950 1_554 S
C250 C249 1.369 . S
C250 C251 1.392 . S
C250 H263 0.969 . S
C251 C250 1.392 . S
C251 C253 1.384 . S
H252 C254 0.949 . S
C253 C251 1.384 . S
C253 C254 1.385 . S
C253 H255 0.950 . S
C254 C248 1.404 . S
C254 H252 0.949 . S
C254 C253 1.385 . S
H255 C253 0.950 . S
H256 C240 0.951 1_565 S
H257 C242 0.951 . S
H258 C244 0.951 . S
H259 C245 0.950 . S
H260 C246 0.950 . S
H261 C247 0.950 1_556 S
H262 C249 0.950 1_556 S
H263 C250 0.969 . S
C264 C265 1.386 . S
C264 C266 1.383 1_565 S
C264 H280 0.951 . S
C265 C264 1.386 . S
C265 C269 1.383 . S
C266 C264 1.383 1_545 S
C266 C267 1.402 . S
C266 H281 0.951 . S
C267 C266 1.402 . S
C267 C268 1.375 . S
C267 C270 1.481 . S
C268 C267 1.375 . S
C268 C269 1.367 1_545 S
C268 H282 0.970 . S
C269 C265 1.383 . S
C269 C268 1.367 1_565 S
C269 H283 0.950 1_455 S
C270 C267 1.481 . S
C270 C271 1.297 . S
C270 H284 0.950 . S
C271 C270 1.297 . S
C271 C272 1.479 . S
C271 H285 0.950 . S
C272 C271 1.479 . S
C272 C273 1.375 . S
C272 C278 1.404 . S
C273 C272 1.375 . S
C273 C274 1.369 . S
C273 H286 0.950 . S
C274 C273 1.369 . S
C274 C275 1.392 . S
C274 H287 0.951 . S
C275 C274 1.392 . S
C275 C277 1.384 . S
H276 C278 0.949 . S
C277 C275 1.384 . S
C277 C278 1.385 . S
C277 H279 0.950 . S
C278 C272 1.404 . S
C278 H276 0.949 . S
C278 C277 1.385 . S
H279 C277 0.950 . S
H280 C264 0.951 . S
H281 C266 0.951 . S
H282 C268 0.970 . S
H283 C269 0.950 1_655 S
H284 C270 0.950 . S
H285 C271 0.950 . S
H286 C273 0.950 . S
H287 C274 0.951 . S
C288 C289 1.386 . S
C288 C290 1.383 . S
C288 H304 0.951 . S
C289 C288 1.386 . S
C289 C293 1.383 . S
C290 C288 1.383 . S
C290 C291 1.402 . S
C290 H305 0.951 . S
C291 C290 1.402 . S
C291 C292 1.375 . S
C291 C294 1.481 . S
C292 C291 1.375 . S
C292 C293 1.367 . S
C292 H306 0.951 . S
C293 C289 1.383 . S
C293 C292 1.367 . S
C293 H307 0.950 . S
C294 C291 1.481 . S
C294 C295 1.297 . S
C294 H308 0.950 . S
C295 C294 1.297 . S
C295 C296 1.479 . S
C295 H309 0.950 . S
C296 C295 1.479 . S
C296 C297 1.375 . S
C296 C302 1.404 . S
C297 C296 1.375 . S
C297 C298 1.369 1_455 S
C297 H310 0.950 . S
C298 C297 1.369 1_655 S
C298 C299 1.392 . S
C298 H311 0.951 . S
C299 C298 1.392 . S
C299 C301 1.384 1_655 S
H300 C302 0.949 . S
C301 C299 1.384 1_455 S
C301 C302 1.385 . S
C301 H303 0.950 . S
C302 C296 1.404 . S
C302 H300 0.949 . S
C302 C301 1.385 . S
H303 C301 0.950 . S
H304 C288 0.951 . S
H305 C290 0.951 . S
H306 C292 0.951 . S
H307 C293 0.950 . S
H308 C294 0.950 . S
H309 C295 0.950 . S
H310 C297 0.950 . S
H311 C298 0.951 . S
C312 C313 1.386 . S
C312 C314 1.383 . S
C312 H328 0.951 . S
C313 C312 1.386 . S
C313 C317 1.383 . S
C314 C312 1.383 . S
C314 C315 1.402 . S
C314 H329 0.951 . S
C315 C314 1.402 . S
C315 C316 1.375 . S
C315 C318 1.481 . S
C316 C315 1.375 . S
C316 C317 1.367 . S
C316 H330 0.951 . S
C317 C313 1.383 . S
C317 C316 1.367 . S
C317 H331 0.950 . S
C318 C315 1.481 . S
C318 C319 1.297 . S
C318 H332 0.950 . S
C319 C318 1.297 . S
C319 C320 1.479 . S
C319 H333 0.950 . S
C320 C319 1.479 . S
C320 C321 1.375 . S
C320 C326 1.404 . S
C321 C320 1.375 . S
C321 C322 1.369 . S
C321 H334 0.950 . S
C322 C321 1.369 . S
C322 C323 1.392 . S
C322 H335 0.951 . S
C323 C322 1.392 . S
C323 C325 1.384 . S
H324 C326 0.949 . S
C325 C323 1.384 . S
C325 C326 1.385 . S
C325 H327 0.950 . S
C326 C320 1.404 . S
C326 H324 0.949 . S
C326 C325 1.385 . S
H327 C325 0.950 . S
H328 C312 0.951 . S
H329 C314 0.951 . S
H330 C316 0.951 . S
H331 C317 0.950 . S
H332 C318 0.950 . S
H333 C319 0.950 . S
H334 C321 0.950 . S
H335 C322 0.951 . S
C336 C337 1.386 . S
C336 C338 1.383 . S
C336 H352 0.951 . S
C337 C336 1.386 . S
C337 C341 1.383 . S
C338 C336 1.383 . S
C338 C339 1.402 . S
C338 H353 0.951 . S
C339 C338 1.402 . S
C339 C340 1.375 . S
C339 C342 1.481 . S
C340 C339 1.375 . S
C340 C341 1.367 . S
C340 H354 0.951 . S
C341 C337 1.383 . S
C341 C340 1.367 . S
C341 H355 0.950 . S
C342 C339 1.481 . S
C342 C343 1.280 1_455 S
C342 H356 0.950 . S
C343 C342 1.280 1_655 S
C343 C344 1.486 . S
C343 H357 0.963 . S
C344 C343 1.486 . S
C344 C345 1.375 . S
C344 C350 1.404 . S
C345 C344 1.375 . S
C345 C346 1.369 . S
C345 H358 0.950 . S
C346 C345 1.369 . S
C346 C347 1.392 . S
C346 H359 0.951 . S
C347 C346 1.392 . S
C347 C349 1.384 . S
H348 C350 0.949 1_455 S
C349 C347 1.384 . S
C349 C350 1.385 . S
C349 H351 0.950 . S
C350 C344 1.404 . S
C350 H348 0.949 1_655 S
C350 C349 1.385 . S
H351 C349 0.950 . S
H352 C336 0.951 . S
H353 C338 0.951 . S
H354 C340 0.951 . S
H355 C341 0.950 . S
H356 C342 0.950 . S
H357 C343 0.963 . S
H358 C345 0.950 . S
H359 C346 0.951 . S
C360 C361 1.386 . S
C360 C362 1.383 . S
C360 H376 0.951 . S
C361 C360 1.386 . S
C361 C365 1.383 . S
C362 C360 1.383 . S
C362 C363 1.402 . S
C362 H377 0.951 . S
C363 C362 1.402 . S
C363 C364 1.375 . S
C363 C366 1.481 . S
C364 C363 1.375 . S
C364 C365 1.367 . S
C364 H378 0.951 . S
C365 C361 1.383 . S
C365 C364 1.367 . S
C365 H379 0.950 . S
C366 C363 1.481 . S
C366 C367 1.297 1_545 S
C366 H380 0.950 . S
C367 C366 1.297 1_565 S
C367 C368 1.479 . S
C367 H381 0.950 . S
C368 C367 1.479 . S
C368 C369 1.375 . S
C368 C374 1.404 . S
C369 C368 1.375 . S
C369 C370 1.369 . S
C369 H382 0.950 . S
C370 C369 1.369 . S
C370 C371 1.392 . S
C370 H383 0.951 . S
C371 C370 1.392 . S
C371 C373 1.384 . S
H372 C374 0.949 . S
C373 C371 1.384 . S
C373 C374 1.385 . S
C373 H375 0.950 . S
C374 C368 1.404 . S
C374 H372 0.949 . S
C374 C373 1.385 . S
H375 C373 0.950 . S
H376 C360 0.951 . S
H377 C362 0.951 . S
H378 C364 0.951 . S
H379 C365 0.950 . S
H380 C366 0.950 . S
H381 C367 0.950 . S
H382 C369 0.950 . S
H383 C370 0.951 . S
C384 C385 1.386 . S
C384 C386 1.383 . S
C384 H400 0.951 . S
C385 C384 1.386 . S
C385 C389 1.383 . S
C386 C384 1.383 . S
C386 C387 1.402 . S
C386 H401 0.951 . S
C387 C386 1.402 . S
C387 C388 1.375 . S
C387 C390 1.481 . S
C388 C387 1.375 . S
C388 C389 1.367 . S
C388 H402 0.951 . S
C389 C385 1.383 . S
C389 C388 1.367 . S
C389 H403 0.950 . S
C390 C387 1.481 . S
C390 C391 1.297 . S
C390 H404 0.950 . S
C391 C390 1.297 . S
C391 C392 1.479 . S
C391 H405 0.950 . S
C392 C391 1.479 . S
C392 C393 1.375 1_655 S
C392 C398 1.404 . S
C393 C392 1.375 1_455 S
C393 C394 1.369 . S
C393 H406 0.950 . S
C394 C393 1.369 . S
C394 C395 1.392 . S
C394 H407 0.951 . S
C395 C394 1.392 . S
C395 C397 1.384 . S
H396 C398 0.949 . S
C397 C395 1.384 . S
C397 C398 1.385 1_455 S
C397 H399 0.950 . S
C398 C392 1.404 . S
C398 H396 0.949 . S
C398 C397 1.385 1_655 S
H399 C397 0.950 . S
H400 C384 0.951 . S
H401 C386 0.951 . S
H402 C388 0.951 . S
H403 C389 0.950 . S
H404 C390 0.950 . S
H405 C391 0.950 . S
H406 C393 0.950 . S
H407 C394 0.951 . S
C408 C409 1.386 . S
C408 C410 1.383 . S
C408 H424 0.951 . S
C409 C408 1.386 . S
C409 C413 1.383 . S
C410 C408 1.383 . S
C410 C411 1.402 . S
C410 H425 0.951 . S
C411 C410 1.402 . S
C411 C412 1.375 . S
C411 C414 1.481 . S
C412 C411 1.375 . S
C412 C413 1.367 . S
C412 H426 0.951 . S
C413 C409 1.383 . S
C413 C412 1.367 . S
C413 H427 0.950 . S
C414 C411 1.481 . S
C414 C415 1.297 . S
C414 H428 0.950 . S
C415 C414 1.297 . S
C415 C416 1.479 1_565 S
C415 H429 0.950 . S
C416 C415 1.479 1_545 S
C416 C417 1.375 1_545 S
C416 C422 1.404 . S
C417 C416 1.375 1_565 S
C417 C418 1.369 1_565 S
C417 H430 0.950 . S
C418 C417 1.369 1_545 S
C418 C419 1.392 . S
C418 H431 0.951 . S
C419 C418 1.392 . S
C419 C421 1.384 . S
H420 C422 0.949 . S
C421 C419 1.384 . S
C421 C422 1.385 . S
C421 H423 0.950 . S
C422 C416 1.404 . S
C422 H420 0.949 . S
C422 C421 1.385 . S
H423 C421 0.950 . S
H424 C408 0.951 . S
H425 C410 0.951 . S
H426 C412 0.951 . S
H427 C413 0.950 . S
H428 C414 0.950 . S
H429 C415 0.950 . S
H430 C417 0.950 . S
H431 C418 0.951 . S
C432 C433 1.386 . S
C432 C434 1.383 . S
C432 H448 0.951 . S
C433 C432 1.386 . S
C433 C437 1.383 . S
C434 C432 1.383 . S
C434 C435 1.402 . S
C434 H449 0.951 . S
C435 C434 1.402 . S
C435 C436 1.375 . S
C435 C438 1.481 . S
C436 C435 1.375 . S
C436 C437 1.367 . S
C436 H450 0.951 . S
C437 C433 1.383 . S
C437 C436 1.367 . S
C437 H451 0.950 . S
C438 C435 1.481 . S
C438 C439 1.297 . S
C438 H452 0.950 . S
C439 C438 1.297 . S
C439 C440 1.479 . S
C439 H453 0.950 . S
C440 C439 1.479 . S
C440 C441 1.375 . S
C440 C446 1.404 . S
C441 C440 1.375 . S
C441 C442 1.369 . S
C441 H454 0.950 . S
C442 C441 1.369 . S
C442 C443 1.392 . S
C442 H455 0.951 . S
C443 C442 1.392 . S
C443 C445 1.384 . S
H444 C446 0.949 . S
C445 C443 1.384 . S
C445 C446 1.385 . S
C445 H447 0.950 . S
C446 C440 1.404 . S
C446 H444 0.949 . S
C446 C445 1.385 . S
H447 C445 0.950 . S
H448 C432 0.951 . S
H449 C434 0.951 . S
H450 C436 0.951 . S
H451 C437 0.950 . S
H452 C438 0.950 . S
H453 C439 0.950 . S
H454 C441 0.950 . S
H455 C442 0.951 . S
C456 C457 1.386 . S
C456 C458 1.383 . S
C456 H472 0.951 1_554 S
C457 C456 1.386 . S
C457 C461 1.383 . S
C458 C456 1.383 . S
C458 C459 1.402 . S
C458 H473 0.951 . S
C459 C458 1.402 . S
C459 C460 1.375 . S
C459 C462 1.481 . S
C460 C459 1.375 . S
C460 C461 1.367 . S
C460 H474 0.951 . S
C461 C457 1.383 . S
C461 C460 1.367 . S
C461 H475 0.950 . S
C462 C459 1.481 . S
C462 C463 1.297 . S
C462 H476 0.950 . S
C463 C462 1.297 . S
C463 C464 1.479 . S
C463 H477 0.950 . S
C464 C463 1.479 . S
C464 C465 1.375 . S
C464 C470 1.404 . S
C465 C464 1.375 . S
C465 C466 1.369 . S
C465 H478 0.950 1_554 S
C466 C465 1.369 . S
C466 C467 1.392 . S
C466 H479 0.951 1_554 S
C467 C466 1.392 . S
C467 C469 1.384 . S
H468 C470 0.949 . S
C469 C467 1.384 . S
C469 C470 1.385 . S
C469 H471 0.950 . S
C470 C464 1.404 . S
C470 H468 0.949 . S
C470 C469 1.385 . S
H471 C469 0.950 . S
H472 C456 0.951 1_556 S
H473 C458 0.951 . S
H474 C460 0.951 . S
H475 C461 0.950 . S
H476 C462 0.950 . S
H477 C463 0.950 . S
H478 C465 0.950 1_556 S
H479 C466 0.951 1_556 S
C480 C481 1.386 . S
C480 C482 1.383 . S
C480 H496 0.951 . S
C481 C480 1.386 . S
C481 C485 1.383 . S
C482 C480 1.383 . S
C482 C483 1.402 . S
C482 H497 0.951 . S
C483 C482 1.402 . S
C483 C484 1.375 . S
C483 C486 1.481 . S
C484 C483 1.375 . S
C484 C485 1.367 . S
C484 H498 0.951 . S
C485 C481 1.383 . S
C485 C484 1.367 . S
C485 H499 0.950 . S
C486 C483 1.481 . S
C486 C487 1.297 . S
C486 H500 0.950 . S
C487 C486 1.297 . S
C487 C488 1.479 . S
C487 H501 0.950 . S
C488 C487 1.479 . S
C488 C489 1.375 . S
C488 C494 1.404 . S
C489 C488 1.375 . S
C489 C490 1.369 . S
C489 H502 0.950 . S
C490 C489 1.369 . S
C490 C491 1.392 . S
C490 H503 0.951 . S
C491 C490 1.392 . S
C491 C493 1.384 . S
H492 C494 0.949 . S
C493 C491 1.384 . S
C493 C494 1.385 . S
C493 H495 0.950 . S
C494 C488 1.404 . S
C494 H492 0.949 . S
C494 C493 1.385 . S
H495 C493 0.950 . S
H496 C480 0.951 . S
H497 C482 0.951 . S
H498 C484 0.951 . S
H499 C485 0.950 . S
H500 C486 0.950 . S
H501 C487 0.950 . S
H502 C489 0.950 . S
H503 C490 0.951 . S
C504 C505 1.386 . S
C504 C506 1.383 . S
C504 H520 0.951 . S
C505 C504 1.386 . S
C505 C509 1.383 1_455 S
C506 C504 1.383 . S
C506 C507 1.402 . S
C506 H521 0.951 . S
C507 C506 1.402 . S
C507 C508 1.375 . S
C507 C510 1.481 . S
C508 C507 1.375 . S
C508 C509 1.367 1_455 S
C508 H522 0.951 1_455 S
C509 C505 1.383 1_655 S
C509 C508 1.367 1_655 S
C509 H523 0.950 . S
C510 C507 1.481 . S
C510 C511 1.297 . S
C510 H524 0.950 . S
C511 C510 1.297 . S
C511 C512 1.479 . S
C511 H525 0.950 . S
C512 C511 1.479 . S
C512 C513 1.375 . S
C512 C518 1.404 . S
C513 C512 1.375 . S
C513 C514 1.369 . S
C513 H526 0.950 . S
C514 C513 1.369 . S
C514 C515 1.392 . S
C514 H527 0.951 . S
C515 C514 1.392 . S
C515 C517 1.384 . S
H516 C518 0.949 . S
C517 C515 1.384 . S
C517 C518 1.385 . S
C517 H519 0.950 . S
C518 C512 1.404 . S
C518 H516 0.949 . S
C518 C517 1.385 . S
H519 C517 0.950 . S
H520 C504 0.951 . S
H521 C506 0.951 . S
H522 C508 0.951 1_655 S
H523 C509 0.950 . S
H524 C510 0.950 . S
H525 C511 0.950 . S
H526 C513 0.950 . S
H527 C514 0.951 . S
C528 C529 1.386 . S
C528 C530 1.383 . S
C528 H544 0.951 . S
C529 C528 1.386 . S
C529 C533 1.383 . S
C530 C528 1.383 . S
C530 C531 1.402 . S
C530 H545 0.951 . S
C531 C530 1.402 . S
C531 C532 1.375 . S
C531 C534 1.481 . S
C532 C531 1.375 . S
C532 C533 1.367 . S
C532 H546 0.951 . S
C533 C529 1.383 . S
C533 C532 1.367 . S
C533 H547 0.950 . S
C534 C531 1.481 . S
C534 C535 1.297 . S
C534 H548 0.950 . S
C535 C534 1.297 . S
C535 C536 1.479 . S
C535 H549 0.950 . S
C536 C535 1.479 . S
C536 C537 1.375 . S
C536 C542 1.404 . S
C537 C536 1.375 . S
C537 C538 1.369 . S
C537 H550 0.950 . S
C538 C537 1.369 . S
C538 C539 1.392 . S
C538 H551 0.951 . S
C539 C538 1.392 . S
C539 C541 1.384 . S
H540 C542 0.949 . S
C541 C539 1.384 . S
C541 C542 1.385 . S
C541 H543 0.950 . S
C542 C536 1.404 . S
C542 H540 0.949 . S
C542 C541 1.385 . S
H543 C541 0.950 . S
H544 C528 0.951 . S
H545 C530 0.951 . S
H546 C532 0.951 . S
H547 C533 0.950 . S
H548 C534 0.950 . S
H549 C535 0.950 . S
H550 C537 0.950 . S
H551 C538 0.951 . S
C552 C553 1.386 . S
C552 C554 1.383 . S
C552 H568 0.951 . S
C553 C552 1.386 . S
C553 C557 1.383 . S
C554 C552 1.383 . S
C554 C555 1.402 . S
C554 H569 0.951 . S
C555 C554 1.402 . S
C555 C556 1.375 . S
C555 C558 1.481 . S
C556 C555 1.375 . S
C556 C557 1.367 . S
C556 H570 0.951 . S
C557 C553 1.383 . S
C557 C556 1.367 . S
C557 H571 0.950 . S
C558 C555 1.481 . S
C558 C559 1.297 . S
C558 H572 0.950 . S
C559 C558 1.297 . S
C559 C560 1.479 . S
C559 H573 0.950 . S
C560 C559 1.479 . S
C560 C561 1.375 . S
C560 C566 1.404 . S
C561 C560 1.375 . S
C561 C562 1.369 . S
C561 H574 0.950 . S
C562 C561 1.369 . S
C562 C563 1.392 . S
C562 H575 0.951 . S
C563 C562 1.392 . S
C563 C565 1.384 . S
H564 C566 0.949 . S
C565 C563 1.384 . S
C565 C566 1.385 . S
C565 H567 0.950 . S
C566 C560 1.404 . S
C566 H564 0.949 . S
C566 C565 1.385 . S
H567 C565 0.950 . S
H568 C552 0.951 . S
H569 C554 0.951 . S
H570 C556 0.951 . S
H571 C557 0.950 . S
H572 C558 0.950 . S
H573 C559 0.950 . S
H574 C561 0.950 . S
H575 C562 0.951 . S
C576 C577 1.386 . S
C576 C578 1.383 . S
C576 H592 0.951 . S
C577 C576 1.386 . S
C577 C581 1.383 . S
C578 C576 1.383 . S
C578 C579 1.402 . S
C578 H593 0.951 . S
C579 C578 1.402 . S
C579 C580 1.375 . S
C579 C582 1.481 . S
C580 C579 1.375 . S
C580 C581 1.367 . S
C580 H594 0.951 . S
C581 C577 1.383 . S
C581 C580 1.367 . S
C581 H595 0.950 . S
C582 C579 1.481 . S
C582 C583 1.297 . S
C582 H596 0.950 . S
C583 C582 1.297 . S
C583 C584 1.479 . S
C583 H597 0.950 . S
C584 C583 1.479 . S
C584 C585 1.375 . S
C584 C590 1.404 . S
C585 C584 1.375 . S
C585 C586 1.369 . S
C585 H598 0.950 . S
C586 C585 1.369 . S
C586 C587 1.392 . S
C586 H599 0.951 . S
C587 C586 1.392 . S
C587 C589 1.384 . S
H588 C590 0.949 . S
C589 C587 1.384 . S
C589 C590 1.385 . S
C589 H591 0.950 . S
C590 C584 1.404 . S
C590 H588 0.949 . S
C590 C589 1.385 . S
H591 C589 0.950 . S
H592 C576 0.951 . S
H593 C578 0.951 . S
H594 C580 0.951 . S
H595 C581 0.950 . S
H596 C582 0.950 . S
H597 C583 0.950 . S
H598 C585 0.950 . S
H599 C586 0.951 . S
C600 C601 1.386 . S
C600 C602 1.383 . S
C600 H616 0.951 . S
C601 C600 1.386 . S
C601 C605 1.383 . S
C602 C600 1.383 . S
C602 C603 1.402 . S
C602 H617 0.951 . S
C603 C602 1.402 . S
C603 C604 1.375 . S
C603 C606 1.481 . S
C604 C603 1.375 . S
C604 C605 1.367 . S
C604 H618 0.951 1_565 S
C605 C601 1.383 . S
C605 C604 1.367 . S
C605 H619 0.950 1_565 S
C606 C603 1.481 . S
C606 C607 1.297 . S
C606 H620 0.950 . S
C607 C606 1.297 . S
C607 C608 1.479 . S
C607 H621 0.950 . S
C608 C607 1.479 . S
C608 C609 1.375 . S
C608 C614 1.404 . S
C609 C608 1.375 . S
C609 C610 1.369 . S
C609 H622 0.950 . S
C610 C609 1.369 . S
C610 C611 1.392 . S
C610 H623 0.951 . S
C611 C610 1.392 . S
C611 C613 1.384 . S
H612 C614 0.949 . S
C613 C611 1.384 . S
C613 C614 1.385 . S
C613 H615 0.950 . S
C614 C608 1.404 . S
C614 H612 0.949 . S
C614 C613 1.385 . S
H615 C613 0.950 . S
H616 C600 0.951 . S
H617 C602 0.951 . S
H618 C604 0.951 1_545 S
H619 C605 0.950 1_545 S
H620 C606 0.950 . S
H621 C607 0.950 . S
H622 C609 0.950 . S
H623 C610 0.951 . S
C624 C625 1.386 . S
C624 C626 1.383 . S
C624 H640 0.951 . S
C625 C624 1.386 . S
C625 C629 1.383 1_455 S
C626 C624 1.383 . S
C626 C627 1.402 . S
C626 H641 0.951 . S
C627 C626 1.402 . S
C627 C628 1.375 . S
C627 C630 1.481 . S
C628 C627 1.375 . S
C628 C629 1.367 1_455 S
C628 H642 0.951 1_455 S
C629 C625 1.383 1_655 S
C629 C628 1.367 1_655 S
C629 H643 0.950 . S
C630 C627 1.481 . S
C630 C631 1.297 . S
C630 H644 0.950 . S
C631 C630 1.297 . S
C631 C632 1.479 . S
C631 H645 0.950 . S
C632 C631 1.479 . S
C632 C633 1.375 . S
C632 C638 1.404 . S
C633 C632 1.375 . S
C633 C634 1.369 . S
C633 H646 0.950 . S
C634 C633 1.369 . S
C634 C635 1.392 . S
C634 H647 0.951 . S
C635 C634 1.392 . S
C635 C637 1.384 . S
H636 C638 0.949 . S
C637 C635 1.384 . S
C637 C638 1.385 . S
C637 H639 0.950 . S
C638 C632 1.404 . S
C638 H636 0.949 . S
C638 C637 1.385 . S
H639 C637 0.950 . S
H640 C624 0.951 . S
H641 C626 0.951 . S
H642 C628 0.951 1_655 S
H643 C629 0.950 . S
H644 C630 0.950 . S
H645 C631 0.950 . S
H646 C633 0.950 . S
H647 C634 0.951 . S
C648 C649 1.386 . S
C648 C650 1.383 . S
C648 H664 0.951 . S
C649 C648 1.386 . S
C649 C653 1.383 . S
C650 C648 1.383 . S
C650 C651 1.402 . S
C650 H665 0.951 . S
C651 C650 1.402 . S
C651 C652 1.375 . S
C651 C654 1.481 . S
C652 C651 1.375 . S
C652 C653 1.367 . S
C652 H666 0.951 . S
C653 C649 1.383 . S
C653 C652 1.367 . S
C653 H667 0.950 . S
C654 C651 1.481 . S
C654 C655 1.297 . S
C654 H668 0.950 . S
C655 C654 1.297 . S
C655 C656 1.479 . S
C655 H669 0.950 . S
C656 C655 1.479 . S
C656 C657 1.375 . S
C656 C662 1.404 . S
C657 C656 1.375 . S
C657 C658 1.369 . S
C657 H670 0.950 . S
C658 C657 1.369 . S
C658 C659 1.392 . S
C658 H671 0.951 . S
C659 C658 1.392 . S
C659 C661 1.384 . S
H660 C662 0.949 . S
C661 C659 1.384 . S
C661 C662 1.385 . S
C661 H663 0.950 . S
C662 C656 1.404 . S
C662 H660 0.949 . S
C662 C661 1.385 . S
H663 C661 0.950 . S
H664 C648 0.951 . S
H665 C650 0.951 . S
H666 C652 0.951 . S
H667 C653 0.950 . S
H668 C654 0.950 . S
H669 C655 0.950 . S
H670 C657 0.950 . S
H671 C658 0.951 . S
C241 C137 0.617 . S
C251 C17 0.832 . S
C265 C177 0.631 . S
C275 C57 0.805 . S
C289 C217 0.653 . S
C299 C97 0.855 1_655 S
C313 C29 0.581 . S
C323 C88 0.623 . S
C337 C69 0.739 . S
C347 C128 0.593 . S
C361 C109 0.746 . S
C371 C168 0.794 . S
C385 C149 0.761 . S
C395 C208 0.714 . S
C409 C189 0.611 . S
C419 C8 0.543 . S
C433 C229 0.624 . S
C443 C48 0.528 . S
C457 C2 1.535 . S
C467 C122 1.495 1_545 S
C481 C42 1.526 . S
C491 C162 1.498 . S
C505 C82 1.517 1_455 S
C515 C202 1.509 . S
C529 C31 3.940 . S
C539 C52 3.950 . S
C553 C71 3.927 . S
C563 C92 3.939 . S
C577 C111 3.939 . S
C587 C132 3.950 . S
C601 C151 3.927 . S
C611 C172 3.939 . S
C625 C191 3.928 1_455 S
C635 C212 3.940 . S
C649 C231 3.938 . S
C659 C12 3.949 . S
