# Generated by pormake.
# Topology npo, (4)-cn, num edge types: 1
# Building blocks:
#     Node 0, Type 0, BuildingBlock: ICAMEG_clean_sbu_1, # of connection points: 4
#     Node 1, Type 0, BuildingBlock: ICAMEG_clean_sbu_1, # of connection points: 4
#     Node 2, Type 0, BuildingBlock: ICAMEG_clean_sbu_1, # of connection points: 4
#     Node 3, Type 0, BuildingBlock: ICAMEG_clean_sbu_1, # of connection points: 4
#     Node 4, Type 0, BuildingBlock: ICAMEG_clean_sbu_1, # of connection points: 4
#     Node 5, Type 0, BuildingBlock: ICAMEG_clean_sbu_1, # of connection points: 4
#     Edge 6, Type (0, 0), BuildingBlock: EZIPEK_clean_linker_0, # of connection points: 2
#     Edge 7, Type (0, 0), BuildingBlock: EZIPEK_clean_linker_0, # of connection points: 2
#     Edge 8, Type (0, 0), BuildingBlock: EZIPEK_clean_linker_0, # of connection points: 2
#     Edge 9, Type (0, 0), BuildingBlock: EZIPEK_clean_linker_0, # of connection points: 2
#     Edge 10, Type (0, 0), BuildingBlock: EZIPEK_clean_linker_0, # of connection points: 2
#     Edge 11, Type (0, 0), BuildingBlock: EZIPEK_clean_linker_0, # of connection points: 2
#     Edge 12, Type (0, 0), BuildingBlock: EZIPEK_clean_linker_0, # of connection points: 2
#     Edge 13, Type (0, 0), BuildingBlock: EZIPEK_clean_linker_0, # of connection points: 2
#     Edge 14, Type (0, 0), BuildingBlock: EZIPEK_clean_linker_0, # of connection points: 2
#     Edge 15, Type (0, 0), BuildingBlock: EZIPEK_clean_linker_0, # of connection points: 2
#     Edge 16, Type (0, 0), BuildingBlock: EZIPEK_clean_linker_0, # of connection points: 2
#     Edge 17, Type (0, 0), BuildingBlock: EZIPEK_clean_linker_0, # of connection points: 2
# Relax obj value: 0.238
# Max RMSD: 0.246
# Mean RMSD: 0.246
data_MOF--net-npo--node1-ICAMEG_clean_sbu_1--edge1-EZIPEK_clean_linker_0
_symmetry_space_group_name_H-M    P1
_symmetry_Int_Tables_number       1
_symmetry_cell_setting            triclinic
loop_
_symmetry_equiv_pos_as_xyz
'x, y, z'
_cell_length_a     34.261187
_cell_length_b     34.359669
_cell_length_c     19.723898
_cell_angle_alpha  90.056627
_cell_angle_beta   89.900421
_cell_angle_gamma 120.12568
loop_
_atom_site_label
_atom_site_type_symbol
_atom_site_fract_x
_atom_site_fract_y
_atom_site_fract_z
_atom_type_partial_charge
Co0 Co 0.57257 0.14074 0.14567 0.0
Co1 Co 0.55218 0.1353 0.31996 0.0
O2 O 0.54923 0.10634 0.23115 0.0
C3 C 0.48899 0.05218 0.10191 0.0
O4 O 0.48102 0.03687 0.16421 0.0
C5 C 0.57963 0.06543 0.35582 0.0
O6 O 0.59604 0.06599 0.29553 0.0
O7 O 0.61875 0.17906 0.3077 0.0
O8 O 0.62368 0.18972 0.19522 0.0
H9 H 0.59389 0.26678 0.4758 0.0
H10 H 0.55854 0.04775 0.16257 0.0
O11 O 0.52172 0.09182 0.08921 0.0
H12 H 0.71571 0.14115 0.08564 0.0
H13 H 0.61017 0.16547 0.89545 0.0
H14 H 0.62072 0.23912 0.11431 0.0
H15 H 0.66775 0.17471 0.10281 0.0
H16 H 0.57971 0.12078 0.999 0.0
O17 O 0.56445 0.0915 0.37015 0.0
H18 H 0.58852 0.22976 0.36677 0.0
H19 H 0.52282 0.10172 0.46206 0.0
H20 H 0.65287 0.28541 0.01259 0.0
H21 H 0.60515 0.01283 0.14545 0.0
H22 H 0.64744 0.24877 0.90165 0.0
H23 H 0.68445 0.05953 0.10647 0.0
O24 O 0.53589 0.17071 0.16119 0.0
H25 H 0.41104 0.98382 0.31083 0.0
H26 H 0.47478 0.14275 0.37602 0.0
H27 H 0.39375 0.08976 0.39383 0.0
H28 H 0.36129 0.00949 0.36129 0.0
H29 H 0.49179 0.03846 0.29368 0.0
H30 H 0.52823 0.1374 0.57245 0.0
H31 H 0.56369 0.22051 0.57996 0.0
O32 O 0.53725 0.17861 0.2746 0.0
C33 C 0.64012 0.2001 0.25422 0.0
C34 C 0.57836 0.23052 0.47323 0.0
C35 C 0.54162 0.15796 0.52745 0.0
N36 N 0.55552 0.16362 0.40728 0.0
C37 C 0.57516 0.20934 0.41132 0.0
C38 C 0.53899 0.13797 0.46464 0.0
C39 C 0.56145 0.20456 0.53164 0.0
C40 C 0.59254 0.06831 0.14445 0.0
N41 N 0.60951 0.11299 0.13133 0.0
C42 C 0.61901 0.04832 0.13529 0.0
C43 C 0.6635 0.07453 0.11357 0.0
C44 C 0.68102 0.12028 0.10174 0.0
C45 C 0.65349 0.13905 0.11126 0.0
C46 C 0.61227 0.18189 0.94328 0.0
C47 C 0.61801 0.22248 0.06669 0.0
C48 C 0.59433 0.15643 1.00216 0.0
N49 N 0.59671 0.17653 0.06298 0.0
C50 C 0.6364 0.24912 0.00897 0.0
C51 C 0.63331 0.22858 0.94681 0.0
C52 C 0.52867 0.18707 0.21502 0.0
C53 C 0.42465 0.01871 0.32502 0.0
C54 C 0.46087 0.10809 0.36088 0.0
C55 C 0.41496 0.07813 0.37149 0.0
C56 C 0.39679 0.03313 0.35331 0.0
N57 N 0.48798 0.0938 0.33277 0.0
C58 C 0.47037 0.04972 0.3153 0.0
Co59 Co 0.44394 0.57054 0.68673 0.0
Co60 Co 0.44571 0.57618 0.86333 0.0
O61 O 0.46303 0.56037 0.77661 0.0
C62 C 0.4058 0.48328 0.61401 0.0
O63 O 0.3658 0.47944 0.61744 0.0
C64 C 0.5323 0.58059 0.89831 0.0
O65 O 0.52005 0.54721 0.85531 0.0
O66 O 0.46384 0.63832 0.82888 0.0
O67 O 0.45104 0.62855 0.71701 0.0
H68 H 0.33831 0.55142 0.05516 0.0
H69 H 0.51674 0.54789 0.69434 0.0
O70 O 0.43796 0.51281 0.65028 0.0
H71 H 0.58842 0.69973 0.59397 0.0
H72 H 0.45607 0.58774 0.43199 0.0
H73 H 0.37357 0.59021 0.63493 0.0
H74 H 0.50788 0.66031 0.62508 0.0
H75 H 0.47465 0.5703 0.54411 0.0
O76 O 0.50796 0.59897 0.90315 0.0
H77 H 0.36368 0.53061 0.95136 0.0
H78 H 0.48605 0.65608 0.9533 0.0
H79 H 0.35364 0.60738 0.52392 0.0
H80 H 0.59719 0.58589 0.66286 0.0
H81 H 0.39526 0.60663 0.42117 0.0
H82 H 0.63356 0.66232 0.61211 0.0
O83 O 0.37825 0.54033 0.71679 0.0
H84 H 0.43656 0.46405 0.03665 0.0
H85 H 0.39498 0.48378 0.80532 0.0
H86 H 0.37284 0.40767 0.84601 0.0
H87 H 0.39379 0.39739 0.96245 0.0
H88 H 0.45751 0.53946 0.99438 0.0
H89 H 0.46242 0.67796 0.05794 0.0
H90 H 0.38797 0.62545 0.10949 0.0
O91 O 0.38429 0.55435 0.8287 0.0
C92 C 0.46083 0.65253 0.77026 0.0
C93 C 0.37104 0.5744 0.03363 0.0
C94 C 0.44071 0.64538 0.03523 0.0
N95 N 0.42701 0.59158 0.9474 0.0
C96 C 0.38566 0.56278 0.97489 0.0
C97 C 0.45413 0.63265 0.97634 0.0
C98 C 0.39889 0.61595 0.06403 0.0
C99 C 0.53213 0.58097 0.67167 0.0
N100 N 0.50732 0.60149 0.66075 0.0
C101 C 0.5778 0.60241 0.65426 0.0
C102 C 0.59821 0.64534 0.62595 0.0
C103 C 0.57291 0.66635 0.61579 0.0
C104 C 0.52732 0.6439 0.63387 0.0
C105 C 0.43819 0.58896 0.4765 0.0
C106 C 0.39241 0.59042 0.59117 0.0
C107 C 0.44876 0.57939 0.54044 0.0
N108 N 0.42669 0.58121 0.59724 0.0
C109 C 0.38067 0.59986 0.52803 0.0
C110 C 0.40398 0.5994 0.47043 0.0
C111 C 0.36134 0.54183 0.77441 0.0
C112 C 0.42708 0.46802 0.98595 0.0
C113 C 0.4039 0.47966 0.85622 0.0
C114 C 0.39136 0.43642 0.87895 0.0
C115 C 0.40313 0.43067 0.94425 0.0
N116 N 0.42742 0.51618 0.89736 0.0
C117 C 0.43888 0.51069 0.96163 0.0
Co118 Co 0.86896 0.4348 0.34895 0.0
Co119 Co 0.87663 0.45571 0.17575 0.0
O120 O 0.90437 0.45724 0.2644 0.0
C121 C 0.96043 0.51388 0.39441 0.0
O122 O 0.9761 0.5218 0.3322 0.0
C123 C 0.93532 0.41591 0.13868 0.0
O124 O 0.92142 0.38865 0.191 0.0
O125 O 0.83123 0.38964 0.18691 0.0
O126 O 0.81831 0.38571 0.29876 0.0
H127 H 0.74706 0.41786 0.01804 0.0
H128 H 0.95921 0.4423 0.32773 0.0
O129 O 0.91957 0.48328 0.40632 0.0
H130 H 0.85859 0.28686 0.40461 0.0
H131 H 0.84145 0.39618 0.59848 0.0
H132 H 0.77069 0.39293 0.3799 0.0
H133 H 0.82988 0.33921 0.39213 0.0
H134 H 0.88724 0.42489 0.49532 0.0
O135 O 0.91988 0.44201 0.12725 0.0
H136 H 0.78279 0.42118 0.12765 0.0
H137 H 0.91219 0.48595 0.03493 0.0
H138 H 0.7233 0.36279 0.48133 0.0
H139 H 0.9892 0.3911 0.33935 0.0
H140 H 0.75853 0.36452 0.59207 0.0
H141 H 0.93888 0.31266 0.37847 0.0
O142 O 0.84218 0.47448 0.33372 0.0
H143 H 0.03191 0.59199 0.18309 0.0
H144 H 0.87259 0.53542 0.12455 0.0
H145 H 0.92794 0.61609 0.11004 0.0
H146 H 0.00836 0.64487 0.13938 0.0
H147 H 0.97519 0.51175 0.19741 0.0
H148 H 0.87781 0.48264 0.92404 0.0
H149 H 0.79468 0.44868 0.91502 0.0
O150 O 0.83379 0.47196 0.22044 0.0
C151 C 0.80863 0.36905 0.23981 0.0
C152 C 0.78334 0.43283 0.0213 0.0
C153 C 0.85668 0.46908 0.96855 0.0
N154 N 0.84953 0.45387 0.08823 0.0
C155 C 0.80378 0.43492 0.08344 0.0
C156 C 0.87594 0.47062 0.03158 0.0
C157 C 0.81006 0.45007 0.96353 0.0
C158 C 0.93711 0.40868 0.34576 0.0
N159 N 0.89323 0.39475 0.36194 0.0
C160 C 0.95431 0.37961 0.35193 0.0
C161 C 0.92606 0.33561 0.37373 0.0
C162 C 0.88108 0.32117 0.3886 0.0
C163 C 0.86511 0.35123 0.38195 0.0
C164 C 0.82568 0.39563 0.5507 0.0
C165 C 0.78666 0.3939 0.42747 0.0
C166 C 0.85177 0.41248 0.49203 0.0
N167 N 0.83243 0.41197 0.43129 0.0
C168 C 0.75943 0.3767 0.48499 0.0
C169 C 0.77919 0.37774 0.54706 0.0
C170 C 0.82565 0.48139 0.27978 0.0
C171 C 0.9969 0.58001 0.17089 0.0
C172 C 0.90722 0.54795 0.13911 0.0
C173 C 0.93856 0.59354 0.13001 0.0
C174 C 0.98367 0.60964 0.14631 0.0
N175 N 0.92025 0.51922 0.16428 0.0
C176 C 0.96457 0.53464 0.17927 0.0
Co177 Co 0.44831 0.88016 0.80822 0.0
Co178 Co 0.42022 0.85708 0.63728 0.0
O179 O 0.44505 0.89872 0.71446 0.0
C180 C 0.40506 0.92139 0.89125 0.0
O181 O 0.37777 0.88097 0.91535 0.0
C182 C 0.50005 0.9429 0.57847 0.0
O183 O 0.50889 0.96233 0.63802 0.0
O184 O 0.45967 0.83127 0.66014 0.0
O185 O 0.46579 0.83562 0.77406 0.0
H186 H 0.33991 0.70169 0.53457 0.0
H187 H 0.49973 0.97553 0.76453 0.0
O188 O 0.43205 0.92548 0.84325 0.0
H189 H 0.61317 0.94429 0.86316 0.0
H190 H 0.49139 0.90871 0.05573 0.0
H191 H 0.41765 0.79307 0.87902 0.0
H192 H 0.53284 0.88556 0.86022 0.0
H193 H 0.48755 0.93034 0.9381 0.0
O194 O 0.46812 0.90202 0.57196 0.0
H195 H 0.37444 0.75693 0.62611 0.0
H196 H 0.40826 0.86336 0.48711 0.0
H197 H 0.42118 0.76986 0.99573 0.0
H198 H 0.57945 0.03577 0.76769 0.0
H199 H 0.45816 0.82791 0.08531 0.0
H200 H 0.63695 0.02024 0.81695 0.0
O201 O 0.38282 0.83154 0.806 0.0
H202 H 0.37974 0.97892 0.61528 0.0
H203 H 0.32342 0.81615 0.59869 0.0
H204 H 0.27189 0.84482 0.57561 0.0
H205 H 0.29995 0.92682 0.58335 0.0
H206 H 0.43006 0.94893 0.63813 0.0
H207 H 0.3753 0.80943 0.39364 0.0
H208 H 0.34042 0.72763 0.41693 0.0
O209 O 0.37212 0.81184 0.69619 0.0
C210 C 0.47114 0.82138 0.71658 0.0
C211 C 0.35519 0.73726 0.52358 0.0
C212 C 0.37524 0.79767 0.44455 0.0
N213 N 0.39462 0.81409 0.5624 0.0
C214 C 0.37485 0.76897 0.57545 0.0
C215 C 0.39451 0.82836 0.49779 0.0
C216 C 0.35554 0.75181 0.45765 0.0
C217 C 0.5245 0.96849 0.78589 0.0
N218 N 0.51169 0.92666 0.81058 0.0
C219 C 0.56963 0.00275 0.78757 0.0
C220 C 0.60186 0.99402 0.81516 0.0
C221 C 0.58856 0.9514 0.84089 0.0
C222 C 0.5431 0.91804 0.83826 0.0
C223 C 0.47507 0.88305 0.01724 0.0
C224 C 0.43378 0.81849 0.91733 0.0
C225 C 0.47259 0.89507 0.95046 0.0
N226 N 0.45198 0.86292 0.9013 0.0
C227 C 0.43571 0.80517 0.98355 0.0
C228 C 0.45645 0.83774 0.03378 0.0
C229 C 0.35926 0.80582 0.75741 0.0
C230 C 0.36726 0.94318 0.61073 0.0
C231 C 0.33634 0.85199 0.60104 0.0
C232 C 0.30678 0.86798 0.58839 0.0
C233 C 0.3225 0.91395 0.59293 0.0
N234 N 0.3806 0.88095 0.6169 0.0
C235 C 0.39581 0.92595 0.62321 0.0
Co236 Co 0.56541 0.4438 0.17962 0.0
Co237 Co 0.57116 0.43561 0.35465 0.0
O238 O 0.55242 0.45489 0.27313 0.0
C239 C 0.60833 0.53578 0.1189 0.0
O240 O 0.64887 0.54246 0.13074 0.0
C241 C 0.4916 0.44039 0.40343 0.0
O242 O 0.50597 0.47556 0.36348 0.0
O243 O 0.54594 0.37305 0.31709 0.0
O244 O 0.55519 0.38356 0.20466 0.0
H245 H 0.68299 0.44803 0.53138 0.0
H246 H 0.49786 0.47223 0.20375 0.0
O247 O 0.57408 0.50363 0.14826 0.0
H248 H 0.41322 0.32304 0.09562 0.0
H249 H 0.54344 0.43554 0.92606 0.0
H250 H 0.62667 0.41633 0.11391 0.0
H251 H 0.49478 0.35743 0.11716 0.0
H252 H 0.5313 0.45133 0.04345 0.0
O253 O 0.51182 0.41767 0.40197 0.0
H254 H 0.6567 0.47414 0.43465 0.0
H255 H 0.52899 0.3543 0.44167 0.0
H256 H 0.64007 0.40047 0.99746 0.0
H257 H 0.41635 0.43909 0.18283 0.0
H258 H 0.59805 0.40974 0.90226 0.0
H259 H 0.3735 0.36407 0.12808 0.0
O260 O 0.63181 0.46909 0.20168 0.0
H261 H 0.60095 0.55043 0.53696 0.0
H262 H 0.62601 0.52774 0.29746 0.0
H263 H 0.65739 0.60479 0.34167 0.0
H264 H 0.6448 0.61657 0.46222 0.0
H265 H 0.57045 0.47392 0.49085 0.0
H266 H 0.55395 0.32684 0.53843 0.0
H267 H 0.63149 0.37385 0.58391 0.0
O268 O 0.62967 0.45242 0.31168 0.0
C269 C 0.54571 0.35884 0.25705 0.0
C270 C 0.64899 0.42741 0.51242 0.0
C271 C 0.57657 0.35942 0.51641 0.0
N272 N 0.59085 0.41631 0.43368 0.0
C273 C 0.63381 0.44211 0.45786 0.0
C274 C 0.56253 0.37526 0.46186 0.0
C275 C 0.6201 0.38577 0.54182 0.0
C276 C 0.47954 0.43967 0.17956 0.0
N277 N 0.50128 0.4171 0.16102 0.0
C278 C 0.43333 0.42099 0.16811 0.0
C279 C 0.40929 0.37886 0.13751 0.0
C280 C 0.43156 0.35583 0.11929 0.0
C281 C 0.47775 0.37544 0.13185 0.0
C282 C 0.56144 0.43066 0.96717 0.0
C283 C 0.60767 0.41977 0.07342 0.0
C284 C 0.55456 0.43934 0.034 0.0
N285 N 0.5769 0.43301 0.08649 0.0
C286 C 0.61568 0.41107 1.00721 0.0
C287 C 0.59216 0.41632 0.95383 0.0
C288 C 0.65031 0.46411 0.25509 0.0
C289 C 0.60675 0.54576 0.48439 0.0
C290 C 0.62066 0.53247 0.35007 0.0
C291 C 0.63843 0.57625 0.37481 0.0
C292 C 0.63134 0.58284 0.44242 0.0
N293 N 0.59655 0.4962 0.39145 0.0
C294 C 0.58958 0.50249 0.45795 0.0
Co295 Co 0.133 0.5467 0.69619 0.0
Co296 Co 0.13294 0.56176 0.86983 0.0
O297 O 0.10252 0.5401 0.78295 0.0
C298 C 0.09192 0.58876 0.60857 0.0
O299 O 0.13288 0.61977 0.59089 0.0
C300 C 0.08225 0.47619 0.9501 0.0
O301 O 0.11718 0.47023 0.94749 0.0
O302 O 0.16816 0.53009 0.85369 0.0
O303 O 0.17716 0.53196 0.74008 0.0
H304 H 0.26653 0.63928 0.02647 0.0
H305 H 0.03535 0.48371 0.72047 0.0
O306 O 0.08739 0.55938 0.65239 0.0
H307 H 0.09174 0.39152 0.61422 0.0
H308 H 0.13941 0.52765 0.44305 0.0
H309 H 0.22841 0.59012 0.65153 0.0
H310 H 0.14315 0.47217 0.6361 0.0
H311 H 0.10147 0.51774 0.5532 0.0
O312 O 0.08191 0.50753 0.91588 0.0
H313 H 0.22865 0.61169 0.91658 0.0
H314 H 0.10066 0.56119 0.01096 0.0
H315 H 0.26775 0.60053 0.54267 0.0
H316 H 0.98268 0.40341 0.69884 0.0
H317 H 0.22316 0.56923 0.43726 0.0
H318 H 0.01074 0.3566 0.64533 0.0
O319 O 0.17519 0.61266 0.71359 0.0
H320 H 0.99401 0.57618 0.87129 0.0
H321 H 0.1582 0.65514 0.9113 0.0
H322 H 0.11665 0.69585 0.92699 0.0
H323 H 0.0339 0.65627 0.90734 0.0
H324 H 0.03695 0.53686 0.85533 0.0
H325 H 0.13717 0.58779 0.12195 0.0
H326 H 0.22075 0.62711 0.13042 0.0
O327 O 0.183 0.61645 0.82695 0.0
C328 C 0.1858 0.52394 0.80011 0.0
C329 C 0.23006 0.62176 0.02362 0.0
C330 C 0.15751 0.59282 0.0772 0.0
N331 N 0.16233 0.58321 0.95732 0.0
C332 C 0.20834 0.60585 0.96143 0.0
C333 C 0.13698 0.57737 0.01414 0.0
C334 C 0.20438 0.61495 0.08189 0.0
C335 C 0.04794 0.46377 0.69705 0.0
N336 N 0.09244 0.48285 0.67959 0.0
C337 C 0.01788 0.41819 0.68501 0.0
C338 C 0.03364 0.39196 0.65502 0.0
C339 C 0.07906 0.41152 0.63759 0.0
C340 C 0.10809 0.45721 0.65038 0.0
C341 C 0.15922 0.54149 0.4886 0.0
C342 C 0.20876 0.57631 0.60613 0.0
C343 C 0.13793 0.53611 0.55115 0.0
N344 N 0.1627 0.55348 0.60905 0.0
C345 C 0.23123 0.58234 0.5445 0.0
C346 C 0.2062 0.56479 0.48539 0.0
C347 C 0.19432 0.63368 0.76821 0.0
C348 C 0.03003 0.59374 0.88027 0.0
C349 C 0.12223 0.63768 0.9024 0.0
C350 C 0.09886 0.66091 0.91149 0.0
C351 C 0.05244 0.63869 0.90044 0.0
N352 N 0.09997 0.59351 0.883 0.0
C353 C 0.05451 0.57161 0.87155 0.0
C354 C 0.54546 0.26134 0.1684 0.0
C355 C 0.51787 0.22427 0.20961 0.0
C356 C 0.49824 0.27356 0.27463 0.0
C357 C 0.53603 0.3118 0.2451 0.0
N358 N 0.60257 0.33889 0.17426 0.0
N359 N 0.4582 0.19222 0.29108 0.0
C360 C 0.5615 0.30481 0.19456 0.0
C361 C 0.49134 0.22964 0.26006 0.0
N362 N 0.55445 0.25546 0.10328 0.0
N363 N 0.4681 0.27883 0.31329 0.0
H364 H 0.44866 0.16023 0.27239 0.0
H365 H 0.44053 0.19285 0.33366 0.0
H366 H 0.47085 0.31001 0.32207 0.0
H367 H 0.43834 0.25211 0.33228 0.0
H368 H 0.57283 0.28256 0.0706 0.0
H369 H 0.53821 0.22384 0.08032 0.0
H370 H 0.62267 0.33391 0.1395 0.0
H371 H 0.61888 0.36966 0.19961 0.0
C372 C 0.27622 0.49493 0.74961 0.0
C373 C 0.31355 0.53214 0.78164 0.0
C374 C 0.25976 0.5416 0.85147 0.0
C375 C 0.22434 0.51484 0.80688 0.0
N376 N 0.19624 0.45745 0.72167 0.0
N377 N 0.33775 0.59803 0.85408 0.0
C378 C 0.23197 0.48918 0.75755 0.0
C379 C 0.30447 0.5576 0.82999 0.0
N380 N 0.28225 0.46355 0.71627 0.0
N381 N 0.25122 0.54961 0.91579 0.0
H382 H 0.37058 0.6144 0.83521 0.0
H383 H 0.33085 0.6178 0.88665 0.0
H384 H 0.21882 0.5325 0.93639 0.0
H385 H 0.27695 0.56742 0.95086 0.0
H386 H 0.25593 0.4342 0.69563 0.0
H387 H 0.31304 0.46438 0.71607 0.0
H388 H 0.19941 0.44114 0.67927 0.0
H389 H 0.16326 0.44768 0.73603 0.0
C390 C 0.72515 0.2425 0.24765 0.0
C391 C 0.68419 0.24273 0.25806 0.0
C392 C 0.72453 0.32476 0.24486 0.0
C393 C 0.76586 0.32521 0.2353 0.0
N394 N 0.80703 0.28546 0.2358 0.0
N395 N 0.64465 0.28442 0.26238 0.0
C396 C 0.76654 0.2842 0.23855 0.0
C397 C 0.68406 0.2839 0.25581 0.0
N398 N 0.72407 0.20223 0.24436 0.0
N399 N 0.72234 0.36323 0.24369 0.0
H400 H 0.61324 0.25536 0.26423 0.0
H401 H 0.64351 0.31414 0.26519 0.0
H402 H 0.74992 0.39523 0.23551 0.0
H403 H 0.74992 0.39523 0.23551 0.0
H404 H 0.75123 0.19875 0.22907 0.0
H405 H 0.69485 0.17161 0.25426 0.0
H406 H 0.81103 0.25793 0.24566 0.0
H407 H 0.83742 0.31507 0.22661 0.0
C408 C 0.50915 0.78129 0.77025 0.0
C409 C 0.48218 0.78414 0.71793 0.0
C410 C 0.43987 0.7032 0.7104 0.0
C411 C 0.46704 0.69856 0.76032 0.0
N412 N 0.53555 0.73579 0.82695 0.0
N413 N 0.44599 0.7477 0.61346 0.0
C414 C 0.5041 0.73841 0.78782 0.0
C415 C 0.45498 0.7452 0.6799 0.0
N416 N 0.54136 0.81998 0.79961 0.0
N417 N 0.39861 0.66809 0.69355 0.0
H418 H 0.46188 0.77799 0.58678 0.0
H419 H 0.42786 0.71889 0.58379 0.0
H420 H 0.38369 0.63802 0.72074 0.0
H421 H 0.3775 0.67154 0.65893 0.0
H422 H 0.55866 0.82105 0.84357 0.0
H423 H 0.55075 0.85108 0.77769 0.0
H424 H 0.56503 0.76384 0.84379 0.0
H425 H 0.53411 0.70555 0.83851 0.0
C426 C 0.70818 0.45018 0.31069 0.0
C427 C 0.6977 0.47086 0.25627 0.0
C428 C 0.77937 0.51315 0.23009 0.0
C429 C 0.78795 0.49189 0.2849 0.0
N430 N 0.76273 0.46459 0.39761 0.0
N431 N 0.72528 0.51483 0.15282 0.0
C432 C 0.75319 0.46808 0.33175 0.0
C433 C 0.73389 0.50092 0.21283 0.0
N434 N 0.67583 0.41072 0.33882 0.0
N435 N 0.81549 0.54784 0.19868 0.0
H436 H 0.69311 0.5023 0.13337 0.0
H437 H 0.75009 0.53399 0.11736 0.0
H438 H 0.84806 0.55964 0.21717 0.0
H439 H 0.81317 0.56819 0.16175 0.0
H440 H 0.68342 0.39381 0.3758 0.0
H441 H 0.64341 0.39203 0.31872 0.0
H442 H 0.73747 0.44941 0.43428 0.0
H443 H 0.79561 0.48192 0.41637 0.0
C444 C 0.31864 0.72282 0.7749 0.0
C445 C 0.3167 0.76306 0.77079 0.0
C446 C 0.23373 0.71853 0.76521 0.0
C447 C 0.23609 0.67844 0.76463 0.0
N448 N 0.28038 0.64178 0.76429 0.0
N449 N 0.27363 0.8002 0.75572 0.0
C450 C 0.27845 0.68048 0.76876 0.0
C451 C 0.27449 0.76119 0.76461 0.0
N452 N 0.35922 0.72514 0.78486 0.0
N453 N 0.19251 0.71569 0.76777 0.0
H454 H 0.30266 0.83187 0.75816 0.0
H455 H 0.24477 0.80129 0.74275 0.0
H456 H 0.16222 0.68509 0.76554 0.0
H457 H 0.18813 0.74319 0.77585 0.0
H458 H 0.3626 0.69784 0.79915 0.0
H459 H 0.38983 0.75518 0.78299 0.0
H460 H 0.31001 0.64096 0.75689 0.0
H461 H 0.25179 0.60998 0.76323 0.0
C462 C 0.39276 0.95955 0.99489 0.0
C463 C 0.41691 0.96214 0.93457 0.0
C464 C 0.48536 0.02209 0.98367 0.0
C465 C 0.46275 0.0215 0.04428 0.0
N466 N 0.39083 0.99702 0.09883 0.0
N467 N 0.47666 0.01601 0.86282 0.0
C468 C 0.41499 0.99235 0.04754 0.0
C469 C 0.45988 1.0004 0.92579 0.0
N470 N 0.34867 0.92671 1.00115 0.0
N471 N 0.53066 0.03856 0.98237 0.0
H472 H 0.45647 0.00339 0.81968 0.0
H473 H 0.50803 0.04493 0.85556 0.0
H474 H 0.54989 0.04795 0.02638 0.0
H475 H 0.54728 0.03675 0.93907 0.0
H476 H 0.3309 0.91913 0.0467 0.0
H477 H 0.33004 0.90716 0.95997 0.0
H478 H 0.35573 0.97916 0.10107 0.0
H479 H 0.40564 0.02197 0.13577 0.0
C480 C 0.46184 0.42445 0.52582 0.0
C481 C 0.45699 0.43324 0.45675 0.0
C482 C 0.40579 0.46042 0.49069 0.0
C483 C 0.41649 0.45883 0.56042 0.0
N484 N 0.45009 0.43434 0.64501 0.0
N485 N 0.40855 0.43825 0.3744 0.0
C486 C 0.44284 0.43888 0.57804 0.0
C487 C 0.42374 0.44435 0.43976 0.0
N488 N 0.48191 0.39988 0.54128 0.0
N489 N 0.38189 0.48069 0.47167 0.0
H490 H 0.42035 0.42508 0.33711 0.0
H491 H 0.38096 0.44099 0.35902 0.0
H492 H 0.36751 0.49331 0.505 0.0
H493 H 0.37913 0.48851 0.42157 0.0
H494 H 0.48569 0.39091 0.5901 0.0
H495 H 0.48918 0.38276 0.50467 0.0
H496 H 0.47379 0.4263 0.6625 0.0
H497 H 0.43275 0.43975 0.68405 0.0
C498 C 0.99955 0.42664 0.9765 0.0
C499 C 0.04488 0.45089 0.99987 0.0
C500 C 0.01768 0.44391 0.11754 0.0
C501 C 0.97249 0.42054 0.09389 0.0
N502 N 0.91967 0.38143 1.0043 0.0
N503 N 0.09725 0.47482 0.094 0.0
C504 C 0.9633 0.40925 0.02428 0.0
C505 C 0.05395 0.45649 0.07085 0.0
N506 N 0.99126 0.42117 0.90833 0.0
N507 N 0.02613 0.45719 0.18388 0.0
H508 H 0.12545 0.48789 0.06264 0.0
H509 H 0.10532 0.47445 0.14476 0.0
H510 H 1.00072 0.44781 0.21998 0.0
H511 H 0.058 0.4799 0.20259 0.0
H512 H 0.95949 0.40907 0.88695 0.0
H513 H 0.01679 0.43034 0.87237 0.0
H514 H 0.91034 0.36857 0.95551 0.0
H515 H 0.89273 0.36806 0.03846 0.0
C516 C 0.59137 0.03466 0.46541 0.0
C517 C 0.56745 0.02757 0.40381 0.0
C518 C 0.50024 0.96676 0.45643 0.0
C519 C 0.52433 0.97052 0.51704 0.0
N520 N 0.59738 1.00168 0.57092 0.0
N521 N 0.50541 0.97505 0.33477 0.0
C522 C 0.57147 0.00251 0.51907 0.0
C523 C 0.52429 0.98917 0.3972 0.0
N524 N 0.63256 0.07242 0.47312 0.0
N525 N 0.45441 0.9468 0.45673 0.0
H526 H 0.52298 0.99039 0.29032 0.0
H527 H 0.47455 0.94555 0.32777 0.0
H528 H 0.43575 0.93697 0.50136 0.0
H529 H 0.43603 0.94636 0.41432 0.0
H530 H 0.64945 0.08206 0.51938 0.0
H531 H 0.64858 0.09511 0.43348 0.0
H532 H 0.63237 0.02208 0.57204 0.0
H533 H 0.58454 0.97731 0.60894 0.0
C534 C 0.5974 0.57249 0.9397 0.0
C535 C 0.56625 0.58723 0.95244 0.0
C536 C 0.57585 0.58259 0.07509 0.0
C537 C 0.60049 0.56017 0.0624 0.0
N538 N 0.63655 0.53507 0.98115 0.0
N539 N 0.54883 0.63042 0.03009 0.0
C540 C 0.61299 0.55668 0.99438 0.0
C541 C 0.56211 0.59954 0.01964 0.0
N542 N 0.61322 0.57545 0.87516 0.0
N543 N 0.56488 0.58702 0.14016 0.0
H544 H 0.54695 0.6493 0.99033 0.0
H545 H 0.54719 0.64269 0.07765 0.0
H546 H 0.57728 0.5783 0.18225 0.0
H547 H 0.54189 0.59739 0.15222 0.0
H548 H 0.63906 0.56929 0.86206 0.0
H549 H 0.60385 0.58935 0.83574 0.0
H550 H 0.64162 0.52653 0.93263 0.0
H551 H 0.64849 0.52231 0.01835 0.0
C552 C 0.05518 0.60462 0.50597 0.0
C553 C 0.05195 0.57826 0.56382 0.0
C554 C 0.99025 0.51244 0.51101 0.0
C555 C 0.99179 0.53737 0.45278 0.0
N556 N 0.01885 0.61091 0.4036 0.0
N557 N 0.99717 0.51671 0.63217 0.0
C558 C 0.02236 0.58477 0.45261 0.0
C559 C 0.01299 0.53544 0.57012 0.0
N560 N 0.08839 0.64865 0.50287 0.0
N561 N 0.97106 0.46689 0.50891 0.0
H562 H 0.01021 0.53506 0.67683 0.0
H563 H 0.96759 0.48572 0.63791 0.0
H564 H 0.95955 0.44888 0.46401 0.0
H565 H 0.97224 0.44836 0.54998 0.0
H566 H 0.09677 0.66782 0.45874 0.0
H567 H 0.10712 0.66607 0.54535 0.0
H568 H 0.03754 0.64591 0.40367 0.0
H569 H 0.99415 0.5978 0.36603 0.0
loop_
_geom_bond_atom_site_label_1
_geom_bond_atom_site_label_2
_geom_bond_distance
_geom_bond_site_symmetry_2
_ccdc_geom_bond_type
Co0 O2 2.143 . S
Co0 O8 2.074 . S
Co0 O11 2.093 . S
Co0 O24 2.097 . S
Co0 N41 2.151 . S
Co0 N49 2.214 . S
Co1 O2 2.160 . S
Co1 O7 2.058 . S
Co1 O17 2.057 . S
Co1 O32 2.037 . S
Co1 N36 2.145 . S
Co1 N57 2.257 . S
O2 Co0 2.143 . S
O2 Co1 2.160 . S
C3 O4 1.278 . S
C3 O11 1.224 . S
O4 C3 1.278 . S
C5 O6 1.245 . S
C5 O17 1.232 . S
O6 C5 1.245 . S
O7 Co1 2.058 . S
O7 C33 1.269 . S
O8 Co0 2.074 . S
O8 C33 1.257 . S
H9 C34 0.930 . S
H10 C40 0.930 . S
O11 Co0 2.093 . S
O11 C3 1.224 . S
H12 C44 0.929 . S
H13 C46 0.930 . S
H14 C47 0.930 . S
H15 C45 0.929 . S
H16 C48 0.928 . S
O17 Co1 2.057 . S
O17 C5 1.232 . S
H18 C37 0.929 . S
H19 C38 0.929 . S
H20 C50 0.931 . S
H21 C42 0.929 . S
H22 C51 0.930 . S
H23 C43 0.931 . S
O24 Co0 2.097 . S
O24 C52 1.214 . S
H25 C53 0.929 . S
H26 C54 0.929 . S
H27 C55 0.930 . S
H28 C56 0.929 . S
H29 C58 0.930 . S
H30 C35 0.930 . S
H31 C39 0.930 . S
O32 Co1 2.037 . S
O32 C52 1.234 . S
C33 O7 1.269 . S
C33 O8 1.257 . S
C34 H9 0.930 . S
C34 C37 1.388 . S
C34 C39 1.418 . S
C35 H30 0.930 . S
C35 C38 1.404 . S
C35 C39 1.353 . S
N36 Co1 2.145 . S
N36 C37 1.397 . S
N36 C38 1.334 . S
C37 H18 0.929 . S
C37 C34 1.388 . S
C37 N36 1.397 . S
C38 H19 0.929 . S
C38 C35 1.404 . S
C38 N36 1.334 . S
C39 H31 0.930 . S
C39 C34 1.418 . S
C39 C35 1.353 . S
C40 H10 0.930 . S
C40 N41 1.330 . S
C40 C42 1.446 . S
N41 Co0 2.151 . S
N41 C40 1.330 . S
N41 C45 1.418 . S
C42 H21 0.929 . S
C42 C40 1.446 . S
C42 C43 1.332 . S
C43 H23 0.931 . S
C43 C42 1.332 . S
C43 C44 1.267 . S
C44 H12 0.929 . S
C44 C43 1.267 . S
C44 C45 1.251 . S
C45 H15 0.929 . S
C45 N41 1.418 . S
C45 C44 1.251 . S
C46 H13 0.930 . S
C46 C48 1.406 1_556 S
C46 C51 1.261 . S
C47 H14 0.930 . S
C47 N49 1.325 . S
C47 C50 1.357 . S
C48 H16 0.928 . S
C48 C46 1.406 1_554 S
C48 N49 1.261 . S
N49 Co0 2.214 . S
N49 C47 1.325 . S
N49 C48 1.261 . S
C50 H20 0.931 . S
C50 C47 1.357 . S
C50 C51 1.312 1_554 S
C51 H22 0.930 . S
C51 C46 1.261 . S
C51 C50 1.312 1_556 S
C52 O24 1.214 . S
C52 O32 1.234 . S
C53 H25 0.929 . S
C53 C56 1.391 . S
C53 C58 1.391 . S
C54 H26 0.929 . S
C54 C55 1.390 . S
C54 N57 1.391 . S
C55 H27 0.930 . S
C55 C54 1.390 . S
C55 C56 1.392 . S
C56 H28 0.929 . S
C56 C53 1.391 . S
C56 C55 1.392 . S
N57 Co1 2.257 . S
N57 C54 1.391 . S
N57 C58 1.388 . S
C58 H29 0.930 . S
C58 C53 1.391 . S
C58 N57 1.388 . S
Co59 O61 2.143 . S
Co59 O67 2.074 . S
Co59 O70 2.093 . S
Co59 O83 2.097 . S
Co59 N100 2.151 . S
Co59 N108 2.214 . S
Co60 O61 2.160 . S
Co60 O66 2.058 . S
Co60 O76 2.057 . S
Co60 O91 2.037 . S
Co60 N95 2.145 . S
Co60 N116 2.257 . S
O61 Co59 2.143 . S
O61 Co60 2.160 . S
C62 O63 1.278 . S
C62 O70 1.224 . S
O63 C62 1.278 . S
C64 O65 1.245 . S
C64 O76 1.232 . S
O65 C64 1.245 . S
O66 Co60 2.058 . S
O66 C92 1.269 . S
O67 Co59 2.074 . S
O67 C92 1.257 . S
H68 C93 0.930 . S
H69 C99 0.930 . S
O70 Co59 2.093 . S
O70 C62 1.224 . S
H71 C103 0.929 . S
H72 C105 0.930 . S
H73 C106 0.930 . S
H74 C104 0.929 . S
H75 C107 0.928 . S
O76 Co60 2.057 . S
O76 C64 1.232 . S
H77 C96 0.929 . S
H78 C97 0.929 . S
H79 C109 0.931 . S
H80 C101 0.929 . S
H81 C110 0.930 . S
H82 C102 0.931 . S
O83 Co59 2.097 . S
O83 C111 1.214 . S
H84 C112 0.929 . S
H85 C113 0.929 . S
H86 C114 0.930 . S
H87 C115 0.929 . S
H88 C117 0.930 . S
H89 C94 0.930 . S
H90 C98 0.930 . S
O91 Co60 2.037 . S
O91 C111 1.234 . S
C92 O66 1.269 . S
C92 O67 1.257 . S
C93 H68 0.930 . S
C93 C96 1.388 . S
C93 C98 1.418 1_556 S
C94 H89 0.930 . S
C94 C97 1.404 1_554 S
C94 C98 1.353 . S
N95 Co60 2.145 . S
N95 C96 1.397 . S
N95 C97 1.334 . S
C96 H77 0.929 . S
C96 C93 1.388 . S
C96 N95 1.397 . S
C97 H78 0.929 . S
C97 C94 1.404 1_556 S
C97 N95 1.334 . S
C98 H90 0.930 . S
C98 C93 1.418 1_554 S
C98 C94 1.353 . S
C99 H69 0.930 . S
C99 N100 1.330 . S
C99 C101 1.446 . S
N100 Co59 2.151 . S
N100 C99 1.330 . S
N100 C104 1.418 . S
C101 H80 0.929 . S
C101 C99 1.446 . S
C101 C102 1.332 . S
C102 H82 0.931 . S
C102 C101 1.332 . S
C102 C103 1.267 . S
C103 H71 0.929 . S
C103 C102 1.267 . S
C103 C104 1.251 . S
C104 H74 0.929 . S
C104 N100 1.418 . S
C104 C103 1.251 . S
C105 H72 0.930 . S
C105 C107 1.406 . S
C105 C110 1.261 . S
C106 H73 0.930 . S
C106 N108 1.325 . S
C106 C109 1.357 . S
C107 H75 0.928 . S
C107 C105 1.406 . S
C107 N108 1.261 . S
N108 Co59 2.214 . S
N108 C106 1.325 . S
N108 C107 1.261 . S
C109 H79 0.931 . S
C109 C106 1.357 . S
C109 C110 1.312 . S
C110 H81 0.930 . S
C110 C105 1.261 . S
C110 C109 1.312 . S
C111 O83 1.214 . S
C111 O91 1.234 . S
C112 H84 0.929 . S
C112 C115 1.391 . S
C112 C117 1.391 . S
C113 H85 0.929 . S
C113 C114 1.390 . S
C113 N116 1.391 . S
C114 H86 0.930 . S
C114 C113 1.390 . S
C114 C115 1.392 . S
C115 H87 0.929 . S
C115 C112 1.391 . S
C115 C114 1.392 . S
N116 Co60 2.257 . S
N116 C113 1.391 . S
N116 C117 1.388 . S
C117 H88 0.930 . S
C117 C112 1.391 . S
C117 N116 1.388 . S
Co118 O120 2.143 . S
Co118 O126 2.074 . S
Co118 O129 2.093 . S
Co118 O142 2.097 . S
Co118 N159 2.151 . S
Co118 N167 2.214 . S
Co119 O120 2.160 . S
Co119 O125 2.058 . S
Co119 O135 2.057 . S
Co119 O150 2.037 . S
Co119 N154 2.145 . S
Co119 N175 2.257 . S
O120 Co118 2.143 . S
O120 Co119 2.160 . S
C121 O122 1.278 . S
C121 O129 1.224 . S
O122 C121 1.278 . S
C123 O124 1.245 . S
C123 O135 1.232 . S
O124 C123 1.245 . S
O125 Co119 2.058 . S
O125 C151 1.269 . S
O126 Co118 2.074 . S
O126 C151 1.257 . S
H127 C152 0.930 . S
H128 C158 0.930 . S
O129 Co118 2.093 . S
O129 C121 1.224 . S
H130 C162 0.929 . S
H131 C164 0.930 . S
H132 C165 0.930 . S
H133 C163 0.929 . S
H134 C166 0.928 . S
O135 Co119 2.057 . S
O135 C123 1.232 . S
H136 C155 0.929 . S
H137 C156 0.929 . S
H138 C168 0.931 . S
H139 C160 0.929 . S
H140 C169 0.930 . S
H141 C161 0.931 . S
O142 Co118 2.097 . S
O142 C170 1.214 . S
H143 C171 0.929 . S
H144 C172 0.929 . S
H145 C173 0.930 . S
H146 C174 0.929 . S
H147 C176 0.930 . S
H148 C153 0.930 . S
H149 C157 0.930 . S
O150 Co119 2.037 . S
O150 C170 1.234 . S
C151 O125 1.269 . S
C151 O126 1.257 . S
C152 H127 0.930 . S
C152 C155 1.388 . S
C152 C157 1.418 1_554 S
C153 H148 0.930 . S
C153 C156 1.404 1_556 S
C153 C157 1.353 . S
N154 Co119 2.145 . S
N154 C155 1.397 . S
N154 C156 1.334 . S
C155 H136 0.929 . S
C155 C152 1.388 . S
C155 N154 1.397 . S
C156 H137 0.929 . S
C156 C153 1.404 1_554 S
C156 N154 1.334 . S
C157 H149 0.930 . S
C157 C152 1.418 1_556 S
C157 C153 1.353 . S
C158 H128 0.930 . S
C158 N159 1.330 . S
C158 C160 1.446 . S
N159 Co118 2.151 . S
N159 C158 1.330 . S
N159 C163 1.418 . S
C160 H139 0.929 . S
C160 C158 1.446 . S
C160 C161 1.332 . S
C161 H141 0.931 . S
C161 C160 1.332 . S
C161 C162 1.267 . S
C162 H130 0.929 . S
C162 C161 1.267 . S
C162 C163 1.251 . S
C163 H133 0.929 . S
C163 N159 1.418 . S
C163 C162 1.251 . S
C164 H131 0.930 . S
C164 C166 1.406 . S
C164 C169 1.261 . S
C165 H132 0.930 . S
C165 N167 1.325 . S
C165 C168 1.357 . S
C166 H134 0.928 . S
C166 C164 1.406 . S
C166 N167 1.261 . S
N167 Co118 2.214 . S
N167 C165 1.325 . S
N167 C166 1.261 . S
C168 H138 0.931 . S
C168 C165 1.357 . S
C168 C169 1.312 . S
C169 H140 0.930 . S
C169 C164 1.261 . S
C169 C168 1.312 . S
C170 O142 1.214 . S
C170 O150 1.234 . S
C171 H143 0.929 . S
C171 C174 1.391 . S
C171 C176 1.391 . S
C172 H144 0.929 . S
C172 C173 1.390 . S
C172 N175 1.391 . S
C173 H145 0.930 . S
C173 C172 1.390 . S
C173 C174 1.392 . S
C174 H146 0.929 . S
C174 C171 1.391 . S
C174 C173 1.392 . S
N175 Co119 2.257 . S
N175 C172 1.391 . S
N175 C176 1.388 . S
C176 H147 0.930 . S
C176 C171 1.391 . S
C176 N175 1.388 . S
Co177 O179 2.143 . S
Co177 O185 2.074 . S
Co177 O188 2.093 . S
Co177 O201 2.097 . S
Co177 N218 2.151 . S
Co177 N226 2.214 . S
Co178 O179 2.160 . S
Co178 O184 2.058 . S
Co178 O194 2.057 . S
Co178 O209 2.037 . S
Co178 N213 2.145 . S
Co178 N234 2.257 . S
O179 Co177 2.143 . S
O179 Co178 2.160 . S
C180 O181 1.278 . S
C180 O188 1.224 . S
O181 C180 1.278 . S
C182 O183 1.245 . S
C182 O194 1.232 . S
O183 C182 1.245 . S
O184 Co178 2.058 . S
O184 C210 1.269 . S
O185 Co177 2.074 . S
O185 C210 1.257 . S
H186 C211 0.930 . S
H187 C217 0.930 . S
O188 Co177 2.093 . S
O188 C180 1.224 . S
H189 C221 0.929 . S
H190 C223 0.930 . S
H191 C224 0.930 . S
H192 C222 0.929 . S
H193 C225 0.928 . S
O194 Co178 2.057 . S
O194 C182 1.232 . S
H195 C214 0.929 . S
H196 C215 0.929 . S
H197 C227 0.931 . S
H198 C219 0.929 . S
H199 C228 0.930 . S
H200 C220 0.931 . S
O201 Co177 2.097 . S
O201 C229 1.214 . S
H202 C230 0.929 . S
H203 C231 0.929 . S
H204 C232 0.930 . S
H205 C233 0.929 . S
H206 C235 0.930 . S
H207 C212 0.930 . S
H208 C216 0.930 . S
O209 Co178 2.037 . S
O209 C229 1.234 . S
C210 O184 1.269 . S
C210 O185 1.257 . S
C211 H186 0.930 . S
C211 C214 1.388 . S
C211 C216 1.418 . S
C212 H207 0.930 . S
C212 C215 1.404 . S
C212 C216 1.353 . S
N213 Co178 2.145 . S
N213 C214 1.397 . S
N213 C215 1.334 . S
C214 H195 0.929 . S
C214 C211 1.388 . S
C214 N213 1.397 . S
C215 H196 0.929 . S
C215 C212 1.404 . S
C215 N213 1.334 . S
C216 H208 0.930 . S
C216 C211 1.418 . S
C216 C212 1.353 . S
C217 H187 0.930 . S
C217 N218 1.330 . S
C217 C219 1.446 . S
N218 Co177 2.151 . S
N218 C217 1.330 . S
N218 C222 1.418 . S
C219 H198 0.929 . S
C219 C217 1.446 . S
C219 C220 1.332 . S
C220 H200 0.931 . S
C220 C219 1.332 . S
C220 C221 1.267 . S
C221 H189 0.929 . S
C221 C220 1.267 . S
C221 C222 1.251 . S
C222 H192 0.929 . S
C222 N218 1.418 . S
C222 C221 1.251 . S
C223 H190 0.930 . S
C223 C225 1.406 1_554 S
C223 C228 1.261 . S
C224 H191 0.930 . S
C224 N226 1.325 . S
C224 C227 1.357 . S
C225 H193 0.928 . S
C225 C223 1.406 1_556 S
C225 N226 1.261 . S
N226 Co177 2.214 . S
N226 C224 1.325 . S
N226 C225 1.261 . S
C227 H197 0.931 . S
C227 C224 1.357 . S
C227 C228 1.312 1_556 S
C228 H199 0.930 . S
C228 C223 1.261 . S
C228 C227 1.312 1_554 S
C229 O201 1.214 . S
C229 O209 1.234 . S
C230 H202 0.929 . S
C230 C233 1.391 . S
C230 C235 1.391 . S
C231 H203 0.929 . S
C231 C232 1.390 . S
C231 N234 1.391 . S
C232 H204 0.930 . S
C232 C231 1.390 . S
C232 C233 1.392 . S
C233 H205 0.929 . S
C233 C230 1.391 . S
C233 C232 1.392 . S
N234 Co178 2.257 . S
N234 C231 1.391 . S
N234 C235 1.388 . S
C235 H206 0.930 . S
C235 C230 1.391 . S
C235 N234 1.388 . S
Co236 O238 2.143 . S
Co236 O244 2.074 . S
Co236 O247 2.093 . S
Co236 O260 2.097 . S
Co236 N277 2.151 . S
Co236 N285 2.214 . S
Co237 O238 2.160 . S
Co237 O243 2.058 . S
Co237 O253 2.057 . S
Co237 O268 2.037 . S
Co237 N272 2.145 . S
Co237 N293 2.257 . S
O238 Co236 2.143 . S
O238 Co237 2.160 . S
C239 O240 1.278 . S
C239 O247 1.224 . S
O240 C239 1.278 . S
C241 O242 1.245 . S
C241 O253 1.232 . S
O242 C241 1.245 . S
O243 Co237 2.058 . S
O243 C269 1.269 . S
O244 Co236 2.074 . S
O244 C269 1.257 . S
H245 C270 0.930 . S
H246 C276 0.930 . S
O247 Co236 2.093 . S
O247 C239 1.224 . S
H248 C280 0.929 . S
H249 C282 0.930 . S
H250 C283 0.930 . S
H251 C281 0.929 . S
H252 C284 0.928 . S
O253 Co237 2.057 . S
O253 C241 1.232 . S
H254 C273 0.929 . S
H255 C274 0.929 . S
H256 C286 0.931 . S
H257 C278 0.929 . S
H258 C287 0.930 . S
H259 C279 0.931 . S
O260 Co236 2.097 . S
O260 C288 1.214 . S
H261 C289 0.929 . S
H262 C290 0.929 . S
H263 C291 0.930 . S
H264 C292 0.929 . S
H265 C294 0.930 . S
H266 C271 0.930 . S
H267 C275 0.930 . S
O268 Co237 2.037 . S
O268 C288 1.234 . S
C269 O243 1.269 . S
C269 O244 1.257 . S
C270 H245 0.930 . S
C270 C273 1.388 . S
C270 C275 1.418 . S
C271 H266 0.930 . S
C271 C274 1.404 . S
C271 C275 1.353 . S
N272 Co237 2.145 . S
N272 C273 1.397 . S
N272 C274 1.334 . S
C273 H254 0.929 . S
C273 C270 1.388 . S
C273 N272 1.397 . S
C274 H255 0.929 . S
C274 C271 1.404 . S
C274 N272 1.334 . S
C275 H267 0.930 . S
C275 C270 1.418 . S
C275 C271 1.353 . S
C276 H246 0.930 . S
C276 N277 1.330 . S
C276 C278 1.446 . S
N277 Co236 2.151 . S
N277 C276 1.330 . S
N277 C281 1.418 . S
C278 H257 0.929 . S
C278 C276 1.446 . S
C278 C279 1.332 . S
C279 H259 0.931 . S
C279 C278 1.332 . S
C279 C280 1.267 . S
C280 H248 0.929 . S
C280 C279 1.267 . S
C280 C281 1.251 . S
C281 H251 0.929 . S
C281 N277 1.418 . S
C281 C280 1.251 . S
C282 H249 0.930 . S
C282 C284 1.406 1_556 S
C282 C287 1.261 . S
C283 H250 0.930 . S
C283 N285 1.325 . S
C283 C286 1.357 . S
C284 H252 0.928 . S
C284 C282 1.406 1_554 S
C284 N285 1.261 . S
N285 Co236 2.214 . S
N285 C283 1.325 . S
N285 C284 1.261 . S
C286 H256 0.931 . S
C286 C283 1.357 . S
C286 C287 1.312 1_554 S
C287 H258 0.930 . S
C287 C282 1.261 . S
C287 C286 1.312 1_556 S
C288 O260 1.214 . S
C288 O268 1.234 . S
C289 H261 0.929 . S
C289 C292 1.391 . S
C289 C294 1.391 . S
C290 H262 0.929 . S
C290 C291 1.390 . S
C290 N293 1.391 . S
C291 H263 0.930 . S
C291 C290 1.390 . S
C291 C292 1.392 . S
C292 H264 0.929 . S
C292 C289 1.391 . S
C292 C291 1.392 . S
N293 Co237 2.257 . S
N293 C290 1.391 . S
N293 C294 1.388 . S
C294 H265 0.930 . S
C294 C289 1.391 . S
C294 N293 1.388 . S
Co295 O297 2.143 . S
Co295 O303 2.074 . S
Co295 O306 2.093 . S
Co295 O319 2.097 . S
Co295 N336 2.151 . S
Co295 N344 2.214 . S
Co296 O297 2.160 . S
Co296 O302 2.058 . S
Co296 O312 2.057 . S
Co296 O327 2.037 . S
Co296 N331 2.145 . S
Co296 N352 2.257 . S
O297 Co295 2.143 . S
O297 Co296 2.160 . S
C298 O299 1.278 . S
C298 O306 1.224 . S
O299 C298 1.278 . S
C300 O301 1.245 . S
C300 O312 1.232 . S
O301 C300 1.245 . S
O302 Co296 2.058 . S
O302 C328 1.269 . S
O303 Co295 2.074 . S
O303 C328 1.257 . S
H304 C329 0.930 . S
H305 C335 0.930 . S
O306 Co295 2.093 . S
O306 C298 1.224 . S
H307 C339 0.929 . S
H308 C341 0.930 . S
H309 C342 0.930 . S
H310 C340 0.929 . S
H311 C343 0.928 . S
O312 Co296 2.057 . S
O312 C300 1.232 . S
H313 C332 0.929 . S
H314 C333 0.929 . S
H315 C345 0.931 . S
H316 C337 0.929 . S
H317 C346 0.930 . S
H318 C338 0.931 . S
O319 Co295 2.097 . S
O319 C347 1.214 . S
H320 C348 0.929 . S
H321 C349 0.929 . S
H322 C350 0.930 . S
H323 C351 0.929 . S
H324 C353 0.930 . S
H325 C330 0.930 . S
H326 C334 0.930 . S
O327 Co296 2.037 . S
O327 C347 1.234 . S
C328 O302 1.269 . S
C328 O303 1.257 . S
C329 H304 0.930 . S
C329 C332 1.388 . S
C329 C334 1.418 1_556 S
C330 H325 0.930 . S
C330 C333 1.404 1_554 S
C330 C334 1.353 . S
N331 Co296 2.145 . S
N331 C332 1.397 . S
N331 C333 1.334 . S
C332 H313 0.929 . S
C332 C329 1.388 . S
C332 N331 1.397 . S
C333 H314 0.929 . S
C333 C330 1.404 1_556 S
C333 N331 1.334 . S
C334 H326 0.930 . S
C334 C329 1.418 1_554 S
C334 C330 1.353 . S
C335 H305 0.930 . S
C335 N336 1.330 . S
C335 C337 1.446 . S
N336 Co295 2.151 . S
N336 C335 1.330 . S
N336 C340 1.418 . S
C337 H316 0.929 . S
C337 C335 1.446 . S
C337 C338 1.332 . S
C338 H318 0.931 . S
C338 C337 1.332 . S
C338 C339 1.267 . S
C339 H307 0.929 . S
C339 C338 1.267 . S
C339 C340 1.251 . S
C340 H310 0.929 . S
C340 N336 1.418 . S
C340 C339 1.251 . S
C341 H308 0.930 . S
C341 C343 1.406 . S
C341 C346 1.261 . S
C342 H309 0.930 . S
C342 N344 1.325 . S
C342 C345 1.357 . S
C343 H311 0.928 . S
C343 C341 1.406 . S
C343 N344 1.261 . S
N344 Co295 2.214 . S
N344 C342 1.325 . S
N344 C343 1.261 . S
C345 H315 0.931 . S
C345 C342 1.357 . S
C345 C346 1.312 . S
C346 H317 0.930 . S
C346 C341 1.261 . S
C346 C345 1.312 . S
C347 O319 1.214 . S
C347 O327 1.234 . S
C348 H320 0.929 . S
C348 C351 1.391 . S
C348 C353 1.391 . S
C349 H321 0.929 . S
C349 C350 1.390 . S
C349 N352 1.391 . S
C350 H322 0.930 . S
C350 C349 1.390 . S
C350 C351 1.392 . S
C351 H323 0.929 . S
C351 C348 1.391 . S
C351 C350 1.392 . S
N352 Co296 2.257 . S
N352 C349 1.391 . S
N352 C353 1.388 . S
C353 H324 0.930 . S
C353 C348 1.391 . S
C353 N352 1.388 . S
C354 C355 1.363 . S
C354 C360 1.379 . S
C354 N362 1.356 . S
C355 C354 1.363 . S
C355 C361 1.363 . S
C356 C357 1.363 . S
C356 C361 1.379 . S
C356 N363 1.356 . S
C357 C356 1.363 . S
C357 C360 1.363 . S
N358 C360 1.356 . S
N358 H370 0.984 . S
N358 H371 0.985 . S
N359 C361 1.356 . S
N359 H364 0.984 . S
N359 H365 0.985 . S
C360 C354 1.379 . S
C360 C357 1.363 . S
C360 N358 1.356 . S
C361 C355 1.363 . S
C361 C356 1.379 . S
C361 N359 1.356 . S
N362 C354 1.356 . S
N362 H368 0.984 . S
N362 H369 0.984 . S
N363 C356 1.356 . S
N363 H366 0.984 . S
N363 H367 0.985 . S
H364 N359 0.984 . S
H365 N359 0.985 . S
H366 N363 0.984 . S
H367 N363 0.985 . S
H368 N362 0.984 . S
H369 N362 0.984 . S
H370 N358 0.984 . S
H371 N358 0.985 . S
C372 C373 1.363 . S
C372 C378 1.379 . S
C372 N380 1.356 . S
C373 C372 1.363 . S
C373 C379 1.363 . S
C374 C375 1.363 . S
C374 C379 1.379 . S
C374 N381 1.356 . S
C375 C374 1.363 . S
C375 C378 1.363 . S
N376 C378 1.356 . S
N376 H388 0.984 . S
N376 H389 0.985 . S
N377 C379 1.356 . S
N377 H382 0.984 . S
N377 H383 0.985 . S
C378 C372 1.379 . S
C378 C375 1.363 . S
C378 N376 1.356 . S
C379 C373 1.363 . S
C379 C374 1.379 . S
C379 N377 1.356 . S
N380 C372 1.356 . S
N380 H386 0.984 . S
N380 H387 0.984 . S
N381 C374 1.356 . S
N381 H384 0.984 . S
N381 H385 0.985 . S
H382 N377 0.984 . S
H383 N377 0.985 . S
H384 N381 0.984 . S
H385 N381 0.985 . S
H386 N380 0.984 . S
H387 N380 0.984 . S
H388 N376 0.984 . S
H389 N376 0.985 . S
C390 C391 1.363 . S
C390 C396 1.379 . S
C390 N398 1.356 . S
C391 C390 1.363 . S
C391 C397 1.363 . S
C392 C393 1.363 . S
C392 C397 1.379 . S
C392 N399 1.356 . S
C393 C392 1.363 . S
C393 C396 1.363 . S
N394 C396 1.356 . S
N394 H406 0.984 . S
N394 H407 0.985 . S
N395 C397 1.356 . S
N395 H400 0.984 . S
N395 H401 0.985 . S
C396 C390 1.379 . S
C396 C393 1.363 . S
C396 N394 1.356 . S
C397 C391 1.363 . S
C397 C392 1.379 . S
C397 N395 1.356 . S
N398 C390 1.356 . S
N398 H404 0.984 . S
N398 H405 0.984 . S
N399 C392 1.356 . S
N399 H402 0.984 . S
N399 H403 0.985 . S
H400 N395 0.984 . S
H401 N395 0.985 . S
H402 N399 0.984 . S
H403 N399 0.985 . S
H404 N398 0.984 . S
H405 N398 0.984 . S
H406 N394 0.984 . S
H407 N394 0.985 . S
C408 C409 1.363 . S
C408 C414 1.379 . S
C408 N416 1.356 . S
C409 C408 1.363 . S
C409 C415 1.363 . S
C410 C411 1.363 . S
C410 C415 1.379 . S
C410 N417 1.356 . S
C411 C410 1.363 . S
C411 C414 1.363 . S
N412 C414 1.356 . S
N412 H424 0.984 . S
N412 H425 0.985 . S
N413 C415 1.356 . S
N413 H418 0.984 . S
N413 H419 0.985 . S
C414 C408 1.379 . S
C414 C411 1.363 . S
C414 N412 1.356 . S
C415 C409 1.363 . S
C415 C410 1.379 . S
C415 N413 1.356 . S
N416 C408 1.356 . S
N416 H422 0.984 . S
N416 H423 0.984 . S
N417 C410 1.356 . S
N417 H420 0.984 . S
N417 H421 0.985 . S
H418 N413 0.984 . S
H419 N413 0.985 . S
H420 N417 0.984 . S
H421 N417 0.985 . S
H422 N416 0.984 . S
H423 N416 0.984 . S
H424 N412 0.984 . S
H425 N412 0.985 . S
C426 C427 1.363 . S
C426 C432 1.379 . S
C426 N434 1.356 . S
C427 C426 1.363 . S
C427 C433 1.363 . S
C428 C429 1.363 . S
C428 C433 1.379 . S
C428 N435 1.356 . S
C429 C428 1.363 . S
C429 C432 1.363 . S
N430 C432 1.356 . S
N430 H442 0.984 . S
N430 H443 0.985 . S
N431 C433 1.356 . S
N431 H436 0.984 . S
N431 H437 0.985 . S
C432 C426 1.379 . S
C432 C429 1.363 . S
C432 N430 1.356 . S
C433 C427 1.363 . S
C433 C428 1.379 . S
C433 N431 1.356 . S
N434 C426 1.356 . S
N434 H440 0.984 . S
N434 H441 0.984 . S
N435 C428 1.356 . S
N435 H438 0.984 . S
N435 H439 0.985 . S
H436 N431 0.984 . S
H437 N431 0.985 . S
H438 N435 0.984 . S
H439 N435 0.985 . S
H440 N434 0.984 . S
H441 N434 0.984 . S
H442 N430 0.984 . S
H443 N430 0.985 . S
C444 C445 1.363 . S
C444 C450 1.379 . S
C444 N452 1.356 . S
C445 C444 1.363 . S
C445 C451 1.363 . S
C446 C447 1.363 . S
C446 C451 1.379 . S
C446 N453 1.356 . S
C447 C446 1.363 . S
C447 C450 1.363 . S
N448 C450 1.356 . S
N448 H460 0.984 . S
N448 H461 0.985 . S
N449 C451 1.356 . S
N449 H454 0.984 . S
N449 H455 0.985 . S
C450 C444 1.379 . S
C450 C447 1.363 . S
C450 N448 1.356 . S
C451 C445 1.363 . S
C451 C446 1.379 . S
C451 N449 1.356 . S
N452 C444 1.356 . S
N452 H458 0.984 . S
N452 H459 0.984 . S
N453 C446 1.356 . S
N453 H456 0.984 . S
N453 H457 0.985 . S
H454 N449 0.984 . S
H455 N449 0.985 . S
H456 N453 0.984 . S
H457 N453 0.985 . S
H458 N452 0.984 . S
H459 N452 0.984 . S
H460 N448 0.984 . S
H461 N448 0.985 . S
C462 C463 1.363 . S
C462 C468 1.379 1_556 S
C462 N470 1.356 . S
C463 C462 1.363 . S
C463 C469 1.363 1_565 S
C464 C465 1.363 . S
C464 C469 1.379 1_554 S
C464 N471 1.356 . S
C465 C464 1.363 . S
C465 C468 1.363 1_545 S
N466 C468 1.356 . S
N466 H478 0.984 . S
N466 H479 0.985 1_565 S
N467 C469 1.356 . S
N467 H472 0.984 1_545 S
N467 H473 0.985 . S
C468 C462 1.379 1_554 S
C468 C465 1.363 1_565 S
C468 N466 1.356 . S
C469 C463 1.363 1_545 S
C469 C464 1.379 1_556 S
C469 N467 1.356 . S
N470 C462 1.356 . S
N470 H476 0.984 1_556 S
N470 H477 0.984 . S
N471 C464 1.356 . S
N471 H474 0.984 . S
N471 H475 0.985 1_554 S
H472 N467 0.984 1_565 S
H473 N467 0.985 . S
H474 N471 0.984 . S
H475 N471 0.985 1_556 S
H476 N470 0.984 1_554 S
H477 N470 0.984 . S
H478 N466 0.984 . S
H479 N466 0.985 1_545 S
C480 C481 1.363 . S
C480 C486 1.379 . S
C480 N488 1.356 . S
C481 C480 1.363 . S
C481 C487 1.363 . S
C482 C483 1.363 . S
C482 C487 1.379 . S
C482 N489 1.356 . S
C483 C482 1.363 . S
C483 C486 1.363 . S
N484 C486 1.356 . S
N484 H496 0.984 . S
N484 H497 0.985 . S
N485 C487 1.356 . S
N485 H490 0.984 . S
N485 H491 0.985 . S
C486 C480 1.379 . S
C486 C483 1.363 . S
C486 N484 1.356 . S
C487 C481 1.363 . S
C487 C482 1.379 . S
C487 N485 1.356 . S
N488 C480 1.356 . S
N488 H494 0.984 . S
N488 H495 0.984 . S
N489 C482 1.356 . S
N489 H492 0.984 . S
N489 H493 0.985 . S
H490 N485 0.984 . S
H491 N485 0.985 . S
H492 N489 0.984 . S
H493 N489 0.985 . S
H494 N488 0.984 . S
H495 N488 0.984 . S
H496 N484 0.984 . S
H497 N484 0.985 . S
C498 C499 1.363 1_655 S
C498 C504 1.379 . S
C498 N506 1.356 . S
C499 C498 1.363 1_455 S
C499 C505 1.363 1_556 S
C500 C501 1.363 1_455 S
C500 C505 1.379 . S
C500 N507 1.356 . S
C501 C500 1.363 1_655 S
C501 C504 1.363 1_554 S
N502 C504 1.356 1_554 S
N502 H514 0.984 1_554 S
N502 H515 0.985 . S
N503 C505 1.356 1_556 S
N503 H508 0.984 . S
N503 H509 0.985 1_556 S
C504 C498 1.379 . S
C504 C501 1.363 1_556 S
C504 N502 1.356 1_556 S
C505 C499 1.363 1_554 S
C505 C500 1.379 . S
C505 N503 1.356 1_554 S
N506 C498 1.356 . S
N506 H512 0.984 . S
N506 H513 0.983 1_655 S
N507 C500 1.356 . S
N507 H510 0.980 1_455 S
N507 H511 0.985 . S
H508 N503 0.984 . S
H509 N503 0.985 1_554 S
H510 N507 0.980 1_655 S
H511 N507 0.985 . S
H512 N506 0.984 . S
H513 N506 0.983 1_455 S
H514 N502 0.984 1_556 S
H515 N502 0.985 . S
C516 C517 1.363 . S
C516 C522 1.379 . S
C516 N524 1.356 . S
C517 C516 1.363 . S
C517 C523 1.363 1_545 S
C518 C519 1.363 . S
C518 C523 1.379 . S
C518 N525 1.356 . S
C519 C518 1.363 . S
C519 C522 1.363 1_565 S
N520 C522 1.356 . S
N520 H532 0.984 . S
N520 H533 0.985 1_545 S
N521 C523 1.356 . S
N521 H526 0.984 1_565 S
N521 H527 0.985 . S
C522 C516 1.379 . S
C522 C519 1.363 1_545 S
C522 N520 1.356 . S
C523 C517 1.363 1_565 S
C523 C518 1.379 . S
C523 N521 1.356 . S
N524 C516 1.356 . S
N524 H530 0.984 . S
N524 H531 0.984 . S
N525 C518 1.356 . S
N525 H528 0.984 . S
N525 H529 0.985 . S
H526 N521 0.984 1_545 S
H527 N521 0.985 . S
H528 N525 0.984 . S
H529 N525 0.985 . S
H530 N524 0.984 . S
H531 N524 0.984 . S
H532 N520 0.984 . S
H533 N520 0.985 1_565 S
C534 C535 1.363 . S
C534 C540 1.379 1_556 S
C534 N542 1.356 . S
C535 C534 1.363 . S
C535 C541 1.363 . S
C536 C537 1.363 . S
C536 C541 1.379 1_554 S
C536 N543 1.356 . S
C537 C536 1.363 . S
C537 C540 1.363 . S
N538 C540 1.356 . S
N538 H550 0.984 . S
N538 H551 0.985 . S
N539 C541 1.356 . S
N539 H544 0.984 . S
N539 H545 0.985 . S
C540 C534 1.379 1_554 S
C540 C537 1.363 . S
C540 N538 1.356 . S
C541 C535 1.363 . S
C541 C536 1.379 1_556 S
C541 N539 1.356 . S
N542 C534 1.356 . S
N542 H548 0.984 . S
N542 H549 0.984 . S
N543 C536 1.356 . S
N543 H546 0.984 . S
N543 H547 0.985 . S
H544 N539 0.984 . S
H545 N539 0.985 . S
H546 N543 0.984 . S
H547 N543 0.985 . S
H548 N542 0.984 . S
H549 N542 0.984 . S
H550 N538 0.984 . S
H551 N538 0.985 . S
C552 C553 1.363 . S
C552 C558 1.379 . S
C552 N560 1.356 . S
C553 C552 1.363 . S
C553 C559 1.363 1_455 S
C554 C555 1.363 . S
C554 C559 1.379 . S
C554 N561 1.356 . S
C555 C554 1.363 . S
C555 C558 1.363 1_655 S
N556 C558 1.356 . S
N556 H568 0.984 . S
N556 H569 0.985 1_455 S
N557 C559 1.356 . S
N557 H562 0.984 1_655 S
N557 H563 0.985 . S
C558 C552 1.379 . S
C558 C555 1.363 1_455 S
C558 N556 1.356 . S
C559 C553 1.363 1_655 S
C559 C554 1.379 . S
C559 N557 1.356 . S
N560 C552 1.356 . S
N560 H566 0.984 . S
N560 H567 0.984 . S
N561 C554 1.356 . S
N561 H564 0.984 . S
N561 H565 0.985 . S
H562 N557 0.984 1_455 S
H563 N557 0.985 . S
H564 N561 0.984 . S
H565 N561 0.985 . S
H566 N560 0.984 . S
H567 N560 0.984 . S
H568 N556 0.984 . S
H569 N556 0.985 1_655 S
C355 C52 1.463 . S
C357 C269 1.454 . S
C373 C111 1.463 . S
C375 C328 1.453 . S
C391 C33 1.454 . S
C393 C151 1.453 . S
C409 C210 1.454 . S
C411 C92 1.454 . S
C427 C288 1.463 . S
C429 C170 1.463 . S
C445 C229 1.463 . S
C447 C347 1.463 . S
C463 C180 1.504 . S
C465 C3 1.504 . S
C481 C241 1.515 . S
C483 C62 1.504 . S
C499 C300 1.515 . S
C501 C123 1.515 . S
C517 C5 1.516 . S
C519 C182 1.516 . S
C535 C64 1.515 . S
C537 C239 1.504 . S
C553 C298 1.504 . S
C555 C121 1.504 . S
